lig.pdb
 OpenBabel11021811523D
libRbt.so/2013.1/901 2013/11/27
 30 34  0  0  0  0  0  0  0  0999 V2000
   25.7444   38.2967   21.0141 N   0  0  0  0  0  0  0  0  0  0  0  0
   27.0672   41.8836   24.1593 N   0  0  0  0  0  0  0  0  0  0  0  0
   26.8623   37.3481   21.0136 C   0  0  0  0  0  0  0  0  0  0  0  0
   26.6348   36.6030   19.7069 C   0  0  2  0  0  0  0  0  0  0  0  0
   25.4740   39.1186   22.1884 C   0  0  0  0  0  0  0  0  0  0  0  0
   24.3098   38.9976   22.9743 C   0  0  0  0  0  0  0  0  0  0  0  0
   24.0390   39.7885   24.0629 C   0  0  0  0  0  0  0  0  0  0  0  0
   24.6214   41.6738   25.5927 C   0  0  0  0  0  0  0  0  0  0  0  0
   29.1031   42.8719   24.1905 C   0  0  0  0  0  0  0  0  0  0  0  0
   28.6660   40.8365   22.6455 C   0  0  0  0  0  0  0  0  0  0  0  0
   26.4058   40.1165   22.5910 C   0  0  0  0  0  0  0  0  0  0  0  0
   26.1551   43.8250   27.9333 O   0  0  0  0  0  0  0  0  0  0  0  0
   25.3580   43.6822   27.0036 C   0  0  0  0  0  0  0  0  0  0  0  0
   24.2166   44.3560   26.9318 O   0  0  0  0  0  0  0  0  0  0  0  0
   25.6330   42.7161   25.9070 C   0  0  1  0  0  0  0  0  0  0  0  0
   23.5920   41.5210   26.2590 O   0  0  0  0  0  0  0  0  0  0  0  0
   26.8436   42.7867   25.1959 C   0  0  0  0  0  0  0  0  0  0  0  0
   28.3590   41.9221   23.6157 C   0  0  0  0  0  0  0  0  0  0  0  0
   28.2643   43.7184   25.4239 S   0  0  0  0  0  0  0  0  0  0  0  0
   26.1383   40.9165   23.7250 C   0  0  0  0  0  0  0  0  0  0  0  0
   24.9434   40.7780   24.4480 C   0  0  0  0  0  0  0  0  0  0  0  0
   23.4149   38.0372   22.6669 F   0  0  0  0  0  0  0  0  0  0  0  0
   27.5608   40.3621   21.8321 N   0  0  0  0  0  0  0  0  0  0  0  0
   27.2555   41.1610   20.6645 C   0  0  0  0  0  0  0  0  0  0  0  0
   24.6716   37.8583   20.1286 C   0  0  0  0  0  0  0  0  0  0  0  0
   27.7707   36.6923   18.8458 O   0  0  0  0  0  0  0  0  0  0  0  0
   25.5088   37.3297   18.9761 C   0  0  2  0  0  0  0  0  0  0  0  0
   24.8500   36.3696   18.0701 N   0  0  0  0  0  0  0  0  0  0  0  0
   25.5835   36.0730   16.8262 C   0  0  0  0  0  0  0  0  0  0  0  0
   24.3899   35.1506   18.7530 C   0  0  0  0  0  0  0  0  0  0  0  0
  1  5  1  0  0  0  0
  2 17  1  0  0  0  0
  3  1  1  0  0  0  0
  4  3  1  0  0  0  0
  4 26  1  6  0  0  0
  5 11  2  0  0  0  0
  5  6  1  0  0  0  0
  6  7  2  0  0  0  0
  7 21  1  0  0  0  0
  8 15  1  0  0  0  0
  8 16  2  0  0  0  0
  9 19  1  0  0  0  0
 10 18  1  0  0  0  0
 11 20  1  0  0  0  0
 13 14  1  0  0  0  0
 13 12  2  0  0  0  0
 15 13  1  1  0  0  0
 17 19  2  0  0  0  0
 17 15  1  0  0  0  0
 18  2  1  0  0  0  0
 18  9  2  0  0  0  0
 20 21  2  0  0  0  0
 20  2  1  0  0  0  0
 21  8  1  0  0  0  0
 22  6  1  0  0  0  0
 23 11  1  0  0  0  0
 23 10  1  0  0  0  0
 24 23  1  0  0  0  0
 25  1  1  0  0  0  0
 27  4  1  0  0  0  0
 27 25  1  0  0  0  0
 27 28  1  6  0  0  0
 29 28  1  0  0  0  0
 30 28  1  0  0  0  0
M  END
>  <CHROM.1>
-114.16974553,-0.49715438,125.13910918,161.21059231,-77.03803979,26.03866998
40.19128551,22.84534534,1.63889534,-0.39843601,-2.29006273

>  <Name>
lig.pdb

>  <RI>
0

>  <Rbt.Current_Directory>
/home/itssahil/PROJECTS/Mol_Feturizer/New_Systems/rnas/6bfb

>  <Rbt.Executable>
rbdock ($Id: //depot/dev/client3/rdock/2013.1/src/exe/rbdock.cxx#4 $)

>  <Rbt.Library>
libRbt.so (2013.1, Build901 2013/11/27)

>  <Rbt.Parameter_File>
/export/apps/rDock/src/rDock_2013.1_src/data/scripts/dock_solv.prm

>  <Rbt.Receptor>
prm/pocket_docking_4.prm

>  <SCORE>
-33.4964

>  <SCORE.INTER>
-30.2781

>  <SCORE.INTER.CONST>
1

>  <SCORE.INTER.POLAR>
0

>  <SCORE.INTER.ROT>
3

>  <SCORE.INTER.SOLV>
10.1364

>  <SCORE.INTER.VDW>
-29.1642

>  <SCORE.INTER.norm>
-1.00927

>  <SCORE.INTRA>
-3.21829

>  <SCORE.INTRA.DIHEDRAL>
-5.9674

>  <SCORE.INTRA.DIHEDRAL.0>
9.41909

>  <SCORE.INTRA.POLAR>
0

>  <SCORE.INTRA.POLAR.0>
0

>  <SCORE.INTRA.REPUL>
0.0449672

>  <SCORE.INTRA.REPUL.0>
0

>  <SCORE.INTRA.SOLV>
0.017749

>  <SCORE.INTRA.SOLV.lig_0>
-26.2491

>  <SCORE.INTRA.VDW>
-0.468297

>  <SCORE.INTRA.VDW.0>
2.57239

>  <SCORE.INTRA.norm>
-0.107276

>  <SCORE.RESTR>
0

>  <SCORE.RESTR.CAVITY>
0

>  <SCORE.RESTR.norm>
0

>  <SCORE.SYSTEM>
0

>  <SCORE.SYSTEM.CONST>
0

>  <SCORE.SYSTEM.DIHEDRAL>
0

>  <SCORE.SYSTEM.SOLV>
0

>  <SCORE.SYSTEM.norm>
0

>  <SCORE.heavy>
30

>  <SCORE.norm>
-1.11655

>  <RMSD>
0.643

$$$$
lig.pdb
 OpenBabel11021811523D
libRbt.so/2013.1/901 2013/11/27
 30 34  0  0  0  0  0  0  0  0999 V2000
   25.7001   38.4004   21.0366 N   0  0  0  0  0  0  0  0  0  0  0  0
   27.0089   41.9729   24.2038 N   0  0  0  0  0  0  0  0  0  0  0  0
   26.7935   37.4237   21.0392 C   0  0  0  0  0  0  0  0  0  0  0  0
   26.5705   36.7066   19.7162 C   0  0  2  0  0  0  0  0  0  0  0  0
   25.4298   39.2093   22.2198 C   0  0  0  0  0  0  0  0  0  0  0  0
   24.2724   39.0696   23.0128 C   0  0  0  0  0  0  0  0  0  0  0  0
   24.0013   39.8482   24.1101 C   0  0  0  0  0  0  0  0  0  0  0  0
   24.5755   41.7259   25.6524 C   0  0  0  0  0  0  0  0  0  0  0  0
   29.0349   42.9815   24.2296 C   0  0  0  0  0  0  0  0  0  0  0  0
   28.6074   40.9553   22.6699 C   0  0  0  0  0  0  0  0  0  0  0  0
   26.3543   40.2130   22.6247 C   0  0  0  0  0  0  0  0  0  0  0  0
   26.1189   43.8966   27.9837 O   0  0  0  0  0  0  0  0  0  0  0  0
   25.3018   43.7292   27.0757 C   0  0  0  0  0  0  0  0  0  0  0  0
   24.1368   44.3644   27.0376 O   0  0  0  0  0  0  0  0  0  0  0  0
   25.5788   42.7756   25.9688 C   0  0  1  0  0  0  0  0  0  0  0  0
   23.5524   41.5568   26.3245 O   0  0  0  0  0  0  0  0  0  0  0  0
   26.7835   42.8646   25.2499 C   0  0  0  0  0  0  0  0  0  0  0  0
   28.2963   42.0293   23.6517 C   0  0  0  0  0  0  0  0  0  0  0  0
   28.1963   43.8087   25.4762 S   0  0  0  0  0  0  0  0  0  0  0  0
   26.0867   41.0003   23.7676 C   0  0  0  0  0  0  0  0  0  0  0  0
   24.8984   40.8434   24.4976 C   0  0  0  0  0  0  0  0  0  0  0  0
   23.3851   38.1030   22.7032 F   0  0  0  0  0  0  0  0  0  0  0  0
   27.5014   40.4769   21.8600 N   0  0  0  0  0  0  0  0  0  0  0  0
   27.1798   41.2828   20.7016 C   0  0  0  0  0  0  0  0  0  0  0  0
   24.6325   38.0044   20.1252 C   0  0  0  0  0  0  0  0  0  0  0  0
   27.7234   36.7812   18.8765 O   0  0  0  0  0  0  0  0  0  0  0  0
   25.4763   37.4739   18.9784 C   0  0  2  0  0  0  0  0  0  0  0  0
   24.8097   36.5461   18.0449 N   0  0  0  0  0  0  0  0  0  0  0  0
   25.5997   36.1725   16.8577 C   0  0  0  0  0  0  0  0  0  0  0  0
   24.2172   35.3776   18.7137 C   0  0  0  0  0  0  0  0  0  0  0  0
  1  5  1  0  0  0  0
  2 17  1  0  0  0  0
  3  1  1  0  0  0  0
  4  3  1  0  0  0  0
  4 26  1  6  0  0  0
  5 11  2  0  0  0  0
  5  6  1  0  0  0  0
  6  7  2  0  0  0  0
  7 21  1  0  0  0  0
  8 15  1  0  0  0  0
  8 16  2  0  0  0  0
  9 19  1  0  0  0  0
 10 18  1  0  0  0  0
 11 20  1  0  0  0  0
 13 14  1  0  0  0  0
 13 12  2  0  0  0  0
 15 13  1  1  0  0  0
 17 19  2  0  0  0  0
 17 15  1  0  0  0  0
 18  2  1  0  0  0  0
 18  9  2  0  0  0  0
 20 21  2  0  0  0  0
 20  2  1  0  0  0  0
 21  8  1  0  0  0  0
 22  6  1  0  0  0  0
 23 11  1  0  0  0  0
 23 10  1  0  0  0  0
 24 23  1  0  0  0  0
 25  1  1  0  0  0  0
 27  4  1  0  0  0  0
 27 25  1  0  0  0  0
 27 28  1  6  0  0  0
 29 28  1  0  0  0  0
 30 28  1  0  0  0  0
M  END
>  <CHROM.1>
-111.65394229,-1.08874756,126.95861137,-57.77769016,-72.64526506,25.98490290
40.28829751,22.88283831,1.63906401,-0.40767531,-2.27955034

>  <Name>
lig.pdb

>  <RI>
0

>  <Rbt.Current_Directory>
/home/itssahil/PROJECTS/Mol_Feturizer/New_Systems/rnas/6bfb

>  <Rbt.Executable>
rbdock ($Id: //depot/dev/client3/rdock/2013.1/src/exe/rbdock.cxx#4 $)

>  <Rbt.Library>
libRbt.so (2013.1, Build901 2013/11/27)

>  <Rbt.Parameter_File>
/export/apps/rDock/src/rDock_2013.1_src/data/scripts/dock_solv.prm

>  <Rbt.Receptor>
prm/pocket_docking_2.prm

>  <SCORE>
-34.5842

>  <SCORE.INTER>
-30.3256

>  <SCORE.INTER.CONST>
1

>  <SCORE.INTER.POLAR>
0

>  <SCORE.INTER.ROT>
3

>  <SCORE.INTER.SOLV>
10.2589

>  <SCORE.INTER.VDW>
-29.2367

>  <SCORE.INTER.norm>
-1.01085

>  <SCORE.INTRA>
-4.25855

>  <SCORE.INTRA.DIHEDRAL>
-7.63083

>  <SCORE.INTRA.DIHEDRAL.0>
9.41909

>  <SCORE.INTRA.POLAR>
0

>  <SCORE.INTRA.POLAR.0>
0

>  <SCORE.INTRA.REPUL>
0.0509981

>  <SCORE.INTRA.REPUL.0>
0

>  <SCORE.INTRA.SOLV>
0.0197754

>  <SCORE.INTRA.SOLV.lig_0>
-26.2491

>  <SCORE.INTRA.VDW>
-0.708014

>  <SCORE.INTRA.VDW.0>
2.57239

>  <SCORE.INTRA.norm>
-0.141952

>  <SCORE.RESTR>
0

>  <SCORE.RESTR.CAVITY>
0

>  <SCORE.RESTR.norm>
0

>  <SCORE.SYSTEM>
0

>  <SCORE.SYSTEM.CONST>
0

>  <SCORE.SYSTEM.DIHEDRAL>
0

>  <SCORE.SYSTEM.SOLV>
0

>  <SCORE.SYSTEM.norm>
0

>  <SCORE.heavy>
30

>  <SCORE.norm>
-1.15281

>  <RMSD>
0.650

$$$$
lig.pdb
 OpenBabel11021811523D
libRbt.so/2013.1/901 2013/11/27
 30 34  0  0  0  0  0  0  0  0999 V2000
   25.7232   38.3850   21.0243 N   0  0  0  0  0  0  0  0  0  0  0  0
   27.0606   41.9751   24.1595 N   0  0  0  0  0  0  0  0  0  0  0  0
   26.8253   37.4181   21.0105 C   0  0  0  0  0  0  0  0  0  0  0  0
   26.5849   36.6942   19.6943 C   0  0  2  0  0  0  0  0  0  0  0  0
   25.4670   39.1956   22.2095 C   0  0  0  0  0  0  0  0  0  0  0  0
   24.3236   39.0511   23.0215 C   0  0  0  0  0  0  0  0  0  0  0  0
   24.0654   39.8312   24.1209 C   0  0  0  0  0  0  0  0  0  0  0  0
   24.6527   41.7171   25.6482 C   0  0  0  0  0  0  0  0  0  0  0  0
   29.0803   42.9965   24.1494 C   0  0  0  0  0  0  0  0  0  0  0  0
   28.6404   40.9630   22.6027 C   0  0  0  0  0  0  0  0  0  0  0  0
   26.3916   40.2064   22.5964 C   0  0  0  0  0  0  0  0  0  0  0  0
   26.1845   43.8475   27.9884 O   0  0  0  0  0  0  0  0  0  0  0  0
   25.3892   43.7292   27.0537 C   0  0  0  0  0  0  0  0  0  0  0  0
   24.2584   44.4211   26.9866 O   0  0  0  0  0  0  0  0  0  0  0  0
   25.6543   42.7740   25.9451 C   0  0  1  0  0  0  0  0  0  0  0  0
   23.6417   41.5436   26.3373 O   0  0  0  0  0  0  0  0  0  0  0  0
   26.8466   42.8685   25.2065 C   0  0  0  0  0  0  0  0  0  0  0  0
   28.3385   42.0379   23.5864 C   0  0  0  0  0  0  0  0  0  0  0  0
   28.2568   43.8221   25.4071 S   0  0  0  0  0  0  0  0  0  0  0  0
   26.1376   40.9954   23.7412 C   0  0  0  0  0  0  0  0  0  0  0  0
   24.9623   40.8332   24.4908 C   0  0  0  0  0  0  0  0  0  0  0  0
   23.4375   38.0780   22.7292 F   0  0  0  0  0  0  0  0  0  0  0  0
   27.5244   40.4752   21.8123 N   0  0  0  0  0  0  0  0  0  0  0  0
   27.1789   41.2756   20.6570 C   0  0  0  0  0  0  0  0  0  0  0  0
   24.6429   37.9760   20.1338 C   0  0  0  0  0  0  0  0  0  0  0  0
   27.7217   36.7761   18.8336 O   0  0  0  0  0  0  0  0  0  0  0  0
   25.4707   37.4490   18.9738 C   0  0  2  0  0  0  0  0  0  0  0  0
   24.7957   36.5119   18.0558 N   0  0  0  0  0  0  0  0  0  0  0  0
   25.5814   36.1132   16.8738 C   0  0  0  0  0  0  0  0  0  0  0  0
   24.1946   35.3588   18.7436 C   0  0  0  0  0  0  0  0  0  0  0  0
  1  5  1  0  0  0  0
  2 17  1  0  0  0  0
  3  1  1  0  0  0  0
  4  3  1  0  0  0  0
  4 26  1  6  0  0  0
  5 11  2  0  0  0  0
  5  6  1  0  0  0  0
  6  7  2  0  0  0  0
  7 21  1  0  0  0  0
  8 15  1  0  0  0  0
  8 16  2  0  0  0  0
  9 19  1  0  0  0  0
 10 18  1  0  0  0  0
 11 20  1  0  0  0  0
 13 14  1  0  0  0  0
 13 12  2  0  0  0  0
 15 13  1  1  0  0  0
 17 19  2  0  0  0  0
 17 15  1  0  0  0  0
 18  2  1  0  0  0  0
 18  9  2  0  0  0  0
 20 21  2  0  0  0  0
 20  2  1  0  0  0  0
 21  8  1  0  0  0  0
 22  6  1  0  0  0  0
 23 11  1  0  0  0  0
 23 10  1  0  0  0  0
 24 23  1  0  0  0  0
 25  1  1  0  0  0  0
 27  4  1  0  0  0  0
 27 25  1  0  0  0  0
 27 28  1  6  0  0  0
 29 28  1  0  0  0  0
 30 28  1  0  0  0  0
M  END
>  <CHROM.1>
-111.84435156,0.97581038,122.71254964,-59.00405978,-71.09659715,26.02575084
40.27995357,22.86086715,1.64832188,-0.42309626,-2.27949415

>  <Name>
lig.pdb

>  <RI>
0

>  <Rbt.Current_Directory>
/home/itssahil/PROJECTS/Mol_Feturizer/New_Systems/rnas/6bfb

>  <Rbt.Executable>
rbdock ($Id: //depot/dev/client3/rdock/2013.1/src/exe/rbdock.cxx#4 $)

>  <Rbt.Library>
libRbt.so (2013.1, Build901 2013/11/27)

>  <Rbt.Parameter_File>
/export/apps/rDock/src/rDock_2013.1_src/data/scripts/dock_solv.prm

>  <Rbt.Receptor>
prm/blind_docking_80.prm

>  <SCORE>
-34.5858

>  <SCORE.INTER>
-30.3282

>  <SCORE.INTER.CONST>
1

>  <SCORE.INTER.POLAR>
0

>  <SCORE.INTER.ROT>
3

>  <SCORE.INTER.SOLV>
10.3884

>  <SCORE.INTER.VDW>
-29.2816

>  <SCORE.INTER.norm>
-1.01094

>  <SCORE.INTRA>
-4.25761

>  <SCORE.INTRA.DIHEDRAL>
-7.69019

>  <SCORE.INTRA.DIHEDRAL.0>
9.41909

>  <SCORE.INTRA.POLAR>
0

>  <SCORE.INTRA.POLAR.0>
0

>  <SCORE.INTRA.REPUL>
0.0505466

>  <SCORE.INTRA.REPUL.0>
0

>  <SCORE.INTRA.SOLV>
0.0126715

>  <SCORE.INTRA.SOLV.lig_0>
-26.2491

>  <SCORE.INTRA.VDW>
-0.671583

>  <SCORE.INTRA.VDW.0>
2.57239

>  <SCORE.INTRA.norm>
-0.14192

>  <SCORE.RESTR>
0

>  <SCORE.RESTR.CAVITY>
0

>  <SCORE.RESTR.norm>
0

>  <SCORE.SYSTEM>
0

>  <SCORE.SYSTEM.CONST>
0

>  <SCORE.SYSTEM.DIHEDRAL>
0

>  <SCORE.SYSTEM.SOLV>
0

>  <SCORE.SYSTEM.norm>
0

>  <SCORE.heavy>
30

>  <SCORE.norm>
-1.15286

>  <RMSD>
0.677

$$$$
lig.pdb
 OpenBabel11021811523D
libRbt.so/2013.1/901 2013/11/27
 30 34  0  0  0  0  0  0  0  0999 V2000
   26.3298   38.3597   21.2311 N   0  0  0  0  0  0  0  0  0  0  0  0
   26.7659   41.8672   24.6974 N   0  0  0  0  0  0  0  0  0  0  0  0
   27.6585   37.7493   21.3376 C   0  0  0  0  0  0  0  0  0  0  0  0
   27.7234   36.9253   20.0604 C   0  0  2  0  0  0  0  0  0  0  0  0
   25.7742   39.1184   22.3462 C   0  0  0  0  0  0  0  0  0  0  0  0
   24.4784   38.9117   22.8619 C   0  0  0  0  0  0  0  0  0  0  0  0
   23.9422   39.6429   23.8923 C   0  0  0  0  0  0  0  0  0  0  0  0
   24.0873   41.4865   25.5698 C   0  0  0  0  0  0  0  0  0  0  0  0
   28.6937   42.9445   25.1927 C   0  0  0  0  0  0  0  0  0  0  0  0
   28.7017   40.9582   23.5266 C   0  0  0  0  0  0  0  0  0  0  0  0
   26.5456   40.1396   22.9693 C   0  0  0  0  0  0  0  0  0  0  0  0
   24.8183   44.6193   27.2856 O   0  0  0  0  0  0  0  0  0  0  0  0
   24.4014   43.4650   27.1678 C   0  0  0  0  0  0  0  0  0  0  0  0
   23.4638   42.9601   27.9602 O   0  0  0  0  0  0  0  0  0  0  0  0
   24.9528   42.5594   26.1250 C   0  0  1  0  0  0  0  0  0  0  0  0
   22.9500   41.2593   25.9963 O   0  0  0  0  0  0  0  0  0  0  0  0
   26.2807   42.7147   25.6906 C   0  0  0  0  0  0  0  0  0  0  0  0
   28.1394   41.9871   24.4430 C   0  0  0  0  0  0  0  0  0  0  0  0
   27.5696   43.6994   26.2452 S   0  0  0  0  0  0  0  0  0  0  0  0
   26.0024   40.8781   24.0450 C   0  0  0  0  0  0  0  0  0  0  0  0
   24.6909   40.6553   24.4921 C   0  0  0  0  0  0  0  0  0  0  0  0
   23.7211   37.9256   22.3409 F   0  0  0  0  0  0  0  0  0  0  0  0
   27.8200   40.4690   22.4819 N   0  0  0  0  0  0  0  0  0  0  0  0
   27.7260   41.3017   21.3019 C   0  0  0  0  0  0  0  0  0  0  0  0
   25.4728   37.6170   20.3139 C   0  0  0  0  0  0  0  0  0  0  0  0
   28.8468   37.2883   19.2568 O   0  0  0  0  0  0  0  0  0  0  0  0
   26.4933   37.2946   19.2353 C   0  0  2  0  0  0  0  0  0  0  0  0
   26.1754   36.1611   18.3461 N   0  0  0  0  0  0  0  0  0  0  0  0
   24.7848   36.1145   17.8587 C   0  0  0  0  0  0  0  0  0  0  0  0
   27.1546   35.9819   17.2631 C   0  0  0  0  0  0  0  0  0  0  0  0
  1  5  1  0  0  0  0
  2 17  1  0  0  0  0
  3  1  1  0  0  0  0
  4  3  1  0  0  0  0
  4 26  1  6  0  0  0
  5 11  2  0  0  0  0
  5  6  1  0  0  0  0
  6  7  2  0  0  0  0
  7 21  1  0  0  0  0
  8 15  1  0  0  0  0
  8 16  2  0  0  0  0
  9 19  1  0  0  0  0
 10 18  1  0  0  0  0
 11 20  1  0  0  0  0
 13 14  1  0  0  0  0
 13 12  2  0  0  0  0
 15 13  1  1  0  0  0
 17 19  2  0  0  0  0
 17 15  1  0  0  0  0
 18  2  1  0  0  0  0
 18  9  2  0  0  0  0
 20 21  2  0  0  0  0
 20  2  1  0  0  0  0
 21  8  1  0  0  0  0
 22  6  1  0  0  0  0
 23 11  1  0  0  0  0
 23 10  1  0  0  0  0
 24 23  1  0  0  0  0
 25  1  1  0  0  0  0
 27  4  1  0  0  0  0
 27 25  1  0  0  0  0
 27 28  1  1  0  0  0
 29 28  1  0  0  0  0
 30 28  1  0  0  0  0
M  END
>  <CHROM.1>
-130.36078840,1.28626559,-151.50007476,62.66658392,158.19196700,26.10948141
40.20123064,23.13504965,1.44909451,-0.30639108,-2.30827146

>  <Name>
lig.pdb

>  <RI>
0

>  <Rbt.Current_Directory>
/home/itssahil/PROJECTS/Mol_Feturizer/New_Systems/rnas/6bfb

>  <Rbt.Executable>
rbdock ($Id: //depot/dev/client3/rdock/2013.1/src/exe/rbdock.cxx#4 $)

>  <Rbt.Library>
libRbt.so (2013.1, Build901 2013/11/27)

>  <Rbt.Parameter_File>
/export/apps/rDock/src/rDock_2013.1_src/data/scripts/dock_solv.prm

>  <Rbt.Receptor>
prm/pocket_docking_2.prm

>  <SCORE>
-36.3637

>  <SCORE.INTER>
-32.6482

>  <SCORE.INTER.CONST>
1

>  <SCORE.INTER.POLAR>
-0.784303

>  <SCORE.INTER.ROT>
3

>  <SCORE.INTER.SOLV>
10.0487

>  <SCORE.INTER.VDW>
-28.1007

>  <SCORE.INTER.norm>
-1.08827

>  <SCORE.INTRA>
-4.12435

>  <SCORE.INTRA.DIHEDRAL>
-7.31059

>  <SCORE.INTRA.DIHEDRAL.0>
9.41909

>  <SCORE.INTRA.POLAR>
0

>  <SCORE.INTRA.POLAR.0>
0

>  <SCORE.INTRA.REPUL>
0.00362097

>  <SCORE.INTRA.REPUL.0>
0

>  <SCORE.INTRA.SOLV>
-0.0554403

>  <SCORE.INTRA.SOLV.lig_0>
-26.2491

>  <SCORE.INTRA.VDW>
-0.459439

>  <SCORE.INTRA.VDW.0>
2.57239

>  <SCORE.INTRA.norm>
-0.137478

>  <SCORE.RESTR>
0.408841

>  <SCORE.RESTR.CAVITY>
0.408841

>  <SCORE.RESTR.norm>
0.013628

>  <SCORE.SYSTEM>
0

>  <SCORE.SYSTEM.CONST>
0

>  <SCORE.SYSTEM.DIHEDRAL>
0

>  <SCORE.SYSTEM.SOLV>
0

>  <SCORE.SYSTEM.norm>
0

>  <SCORE.heavy>
30

>  <SCORE.norm>
-1.21212

>  <RMSD>
0.708

$$$$
lig.pdb
 OpenBabel11021811523D
libRbt.so/2013.1/901 2013/11/27
 30 34  0  0  0  0  0  0  0  0999 V2000
   26.5954   38.3006   21.0669 N   0  0  0  0  0  0  0  0  0  0  0  0
   27.1332   41.9542   24.3638 N   0  0  0  0  0  0  0  0  0  0  0  0
   27.9162   37.6682   21.1387 C   0  0  0  0  0  0  0  0  0  0  0  0
   27.9260   36.8283   19.8704 C   0  0  2  0  0  0  0  0  0  0  0  0
   26.0888   39.0820   22.1895 C   0  0  0  0  0  0  0  0  0  0  0  0
   24.8402   38.8496   22.8017 C   0  0  0  0  0  0  0  0  0  0  0  0
   24.3481   39.6010   23.8396 C   0  0  0  0  0  0  0  0  0  0  0  0
   24.5371   41.5128   25.4343 C   0  0  0  0  0  0  0  0  0  0  0  0
   29.0478   43.1181   24.6836 C   0  0  0  0  0  0  0  0  0  0  0  0
   29.0177   41.0697   23.0947 C   0  0  0  0  0  0  0  0  0  0  0  0
   26.8613   40.1536   22.7196 C   0  0  0  0  0  0  0  0  0  0  0  0
   25.4659   43.6785   28.0138 O   0  0  0  0  0  0  0  0  0  0  0  0
   24.8839   43.5621   26.9332 C   0  0  0  0  0  0  0  0  0  0  0  0
   23.7734   44.2297   26.6449 O   0  0  0  0  0  0  0  0  0  0  0  0
   25.3969   42.6367   25.8882 C   0  0  1  0  0  0  0  0  0  0  0  0
   23.4412   41.2620   25.9473 O   0  0  0  0  0  0  0  0  0  0  0  0
   26.6850   42.8221   25.3568 C   0  0  0  0  0  0  0  0  0  0  0  0
   28.4804   42.1129   24.0099 C   0  0  0  0  0  0  0  0  0  0  0  0
   27.9702   43.8730   25.7837 S   0  0  0  0  0  0  0  0  0  0  0  0
   26.3652   40.9138   23.8028 C   0  0  0  0  0  0  0  0  0  0  0  0
   25.0969   40.6621   24.3483 C   0  0  0  0  0  0  0  0  0  0  0  0
   24.0872   37.8176   22.3712 F   0  0  0  0  0  0  0  0  0  0  0  0
   28.0860   40.5089   22.1327 N   0  0  0  0  0  0  0  0  0  0  0  0
   27.8796   41.2910   20.9325 C   0  0  0  0  0  0  0  0  0  0  0  0
   25.6969   37.5623   20.1866 C   0  0  0  0  0  0  0  0  0  0  0  0
   29.0293   37.1620   19.0270 O   0  0  0  0  0  0  0  0  0  0  0  0
   26.6768   37.2093   19.0802 C   0  0  2  0  0  0  0  0  0  0  0  0
   26.3112   36.0711   18.2156 N   0  0  0  0  0  0  0  0  0  0  0  0
   24.9029   36.0381   17.7809 C   0  0  0  0  0  0  0  0  0  0  0  0
   27.2468   35.8679   17.0989 C   0  0  0  0  0  0  0  0  0  0  0  0
  1  5  1  0  0  0  0
  2 17  1  0  0  0  0
  3  1  1  0  0  0  0
  4  3  1  0  0  0  0
  4 26  1  6  0  0  0
  5 11  2  0  0  0  0
  5  6  1  0  0  0  0
  6  7  2  0  0  0  0
  7 21  1  0  0  0  0
  8 15  1  0  0  0  0
  8 16  2  0  0  0  0
  9 19  1  0  0  0  0
 10 18  1  0  0  0  0
 11 20  1  0  0  0  0
 13 14  1  0  0  0  0
 13 12  2  0  0  0  0
 15 13  1  1  0  0  0
 17 19  2  0  0  0  0
 17 15  1  0  0  0  0
 18  2  1  0  0  0  0
 18  9  2  0  0  0  0
 20 21  2  0  0  0  0
 20  2  1  0  0  0  0
 21  8  1  0  0  0  0
 22  6  1  0  0  0  0
 23 11  1  0  0  0  0
 23 10  1  0  0  0  0
 24 23  1  0  0  0  0
 25  1  1  0  0  0  0
 27  4  1  0  0  0  0
 27 25  1  0  0  0  0
 27 28  1  1  0  0  0
 29 28  1  0  0  0  0
 30 28  1  0  0  0  0
M  END
>  <CHROM.1>
-126.30506999,-0.53602667,118.95956716,61.47518708,157.78328813,26.43150218
40.22042068,22.90005597,1.47687201,-0.33766849,-2.33079741

>  <Name>
lig.pdb

>  <RI>
0

>  <Rbt.Current_Directory>
/home/itssahil/PROJECTS/Mol_Feturizer/New_Systems/rnas/6bfb

>  <Rbt.Executable>
rbdock ($Id: //depot/dev/client3/rdock/2013.1/src/exe/rbdock.cxx#4 $)

>  <Rbt.Library>
libRbt.so (2013.1, Build901 2013/11/27)

>  <Rbt.Parameter_File>
/export/apps/rDock/src/rDock_2013.1_src/data/scripts/dock_solv.prm

>  <Rbt.Receptor>
prm/blind_docking_100.prm

>  <SCORE>
-38.427

>  <SCORE.INTER>
-33.5113

>  <SCORE.INTER.CONST>
1

>  <SCORE.INTER.POLAR>
-0.955136

>  <SCORE.INTER.ROT>
3

>  <SCORE.INTER.SOLV>
10.5318

>  <SCORE.INTER.VDW>
-28.2677

>  <SCORE.INTER.norm>
-1.11704

>  <SCORE.INTRA>
-4.91976

>  <SCORE.INTRA.DIHEDRAL>
-7.3274

>  <SCORE.INTRA.DIHEDRAL.0>
9.41909

>  <SCORE.INTRA.POLAR>
0

>  <SCORE.INTRA.POLAR.0>
0

>  <SCORE.INTRA.REPUL>
0.0142931

>  <SCORE.INTRA.REPUL.0>
0

>  <SCORE.INTRA.SOLV>
-0.140479

>  <SCORE.INTRA.SOLV.lig_0>
-26.2491

>  <SCORE.INTRA.VDW>
-1.25729

>  <SCORE.INTRA.VDW.0>
2.57239

>  <SCORE.INTRA.norm>
-0.163992

>  <SCORE.RESTR>
0.00410239

>  <SCORE.RESTR.CAVITY>
0.00410239

>  <SCORE.RESTR.norm>
0.000136746

>  <SCORE.SYSTEM>
0

>  <SCORE.SYSTEM.CONST>
0

>  <SCORE.SYSTEM.DIHEDRAL>
0

>  <SCORE.SYSTEM.SOLV>
0

>  <SCORE.SYSTEM.norm>
0

>  <SCORE.heavy>
30

>  <SCORE.norm>
-1.2809

>  <RMSD>
0.718

$$$$
lig.pdb
 OpenBabel11021811523D
libRbt.so/2013.1/901 2013/11/27
 30 34  0  0  0  0  0  0  0  0999 V2000
   25.5615   38.2734   21.1258 N   0  0  0  0  0  0  0  0  0  0  0  0
   27.0319   41.8793   24.1824 N   0  0  0  0  0  0  0  0  0  0  0  0
   26.8044   37.5057   21.0014 C   0  0  0  0  0  0  0  0  0  0  0  0
   26.5161   36.6469   19.7792 C   0  0  2  0  0  0  0  0  0  0  0  0
   25.3323   39.1241   22.2882 C   0  0  0  0  0  0  0  0  0  0  0  0
   24.1775   39.0502   23.0937 C   0  0  0  0  0  0  0  0  0  0  0  0
   23.9457   39.8682   24.1712 C   0  0  0  0  0  0  0  0  0  0  0  0
   24.6039   41.7644   25.6562 C   0  0  0  0  0  0  0  0  0  0  0  0
   29.0946   42.8107   24.1643 C   0  0  0  0  0  0  0  0  0  0  0  0
   28.5773   40.7601   22.6648 C   0  0  0  0  0  0  0  0  0  0  0  0
   26.2975   40.1028   22.6579 C   0  0  0  0  0  0  0  0  0  0  0  0
   26.2073   43.8799   27.9589 O   0  0  0  0  0  0  0  0  0  0  0  0
   25.4176   43.7771   27.0177 C   0  0  0  0  0  0  0  0  0  0  0  0
   24.3221   44.5203   26.9204 O   0  0  0  0  0  0  0  0  0  0  0  0
   25.6487   42.7836   25.9355 C   0  0  1  0  0  0  0  0  0  0  0  0
   23.5811   41.6528   26.3407 O   0  0  0  0  0  0  0  0  0  0  0  0
   26.8495   42.8072   25.2050 C   0  0  0  0  0  0  0  0  0  0  0  0
   28.3156   41.8716   23.6188 C   0  0  0  0  0  0  0  0  0  0  0  0
   28.2988   43.7029   25.3940 S   0  0  0  0  0  0  0  0  0  0  0  0
   26.0699   40.9307   23.7805 C   0  0  0  0  0  0  0  0  0  0  0  0
   24.8830   40.8390   24.5238 C   0  0  0  0  0  0  0  0  0  0  0  0
   23.2517   38.1097   22.8180 F   0  0  0  0  0  0  0  0  0  0  0  0
   27.4469   40.3019   21.8772 N   0  0  0  0  0  0  0  0  0  0  0  0
   27.1456   41.0874   20.6994 C   0  0  0  0  0  0  0  0  0  0  0  0
   24.4579   37.6190   20.4321 C   0  0  0  0  0  0  0  0  0  0  0  0
   27.4907   36.8464   18.7544 O   0  0  0  0  0  0  0  0  0  0  0  0
   25.1975   37.1443   19.1926 C   0  0  2  0  0  0  0  0  0  0  0  0
   24.5784   36.0361   18.4408 N   0  0  0  0  0  0  0  0  0  0  0  0
   23.1187   36.1364   18.2603 C   0  0  0  0  0  0  0  0  0  0  0  0
   25.2780   35.7263   17.1844 C   0  0  0  0  0  0  0  0  0  0  0  0
  1  5  1  0  0  0  0
  2 17  1  0  0  0  0
  3  1  1  0  0  0  0
  4  3  1  0  0  0  0
  4 26  1  6  0  0  0
  5 11  2  0  0  0  0
  5  6  1  0  0  0  0
  6  7  2  0  0  0  0
  7 21  1  0  0  0  0
  8 15  1  0  0  0  0
  8 16  2  0  0  0  0
  9 19  1  0  0  0  0
 10 18  1  0  0  0  0
 11 20  1  0  0  0  0
 13 14  1  0  0  0  0
 13 12  2  0  0  0  0
 15 13  1  1  0  0  0
 17 19  2  0  0  0  0
 17 15  1  0  0  0  0
 18  2  1  0  0  0  0
 18  9  2  0  0  0  0
 20 21  2  0  0  0  0
 20  2  1  0  0  0  0
 21  8  1  0  0  0  0
 22  6  1  0  0  0  0
 23 11  1  0  0  0  0
 23 10  1  0  0  0  0
 24 23  1  0  0  0  0
 25  1  1  0  0  0  0
 27  4  1  0  0  0  0
 27 25  1  0  0  0  0
 27 28  1  1  0  0  0
 29 28  1  0  0  0  0
 30 28  1  0  0  0  0
M  END
>  <CHROM.1>
-127.28926744,-0.98034008,122.40346768,-58.43727118,157.03624052,25.90976581
40.22352558,22.90111347,1.68701281,-0.36107508,-2.28112035

>  <Name>
lig.pdb

>  <RI>
0

>  <Rbt.Current_Directory>
/home/itssahil/PROJECTS/Mol_Feturizer/New_Systems/rnas/6bfb

>  <Rbt.Executable>
rbdock ($Id: //depot/dev/client3/rdock/2013.1/src/exe/rbdock.cxx#4 $)

>  <Rbt.Library>
libRbt.so (2013.1, Build901 2013/11/27)

>  <Rbt.Parameter_File>
/export/apps/rDock/src/rDock_2013.1_src/data/scripts/dock_solv.prm

>  <Rbt.Receptor>
prm/pocket_docking_2.prm

>  <SCORE>
-35.5748

>  <SCORE.INTER>
-31.0814

>  <SCORE.INTER.CONST>
1

>  <SCORE.INTER.POLAR>
0

>  <SCORE.INTER.ROT>
3

>  <SCORE.INTER.SOLV>
10.1634

>  <SCORE.INTER.VDW>
-29.7087

>  <SCORE.INTER.norm>
-1.03605

>  <SCORE.INTRA>
-4.49337

>  <SCORE.INTRA.DIHEDRAL>
-7.28687

>  <SCORE.INTRA.DIHEDRAL.0>
9.41909

>  <SCORE.INTRA.POLAR>
0

>  <SCORE.INTRA.POLAR.0>
0

>  <SCORE.INTRA.REPUL>
0.0117183

>  <SCORE.INTRA.REPUL.0>
0

>  <SCORE.INTRA.SOLV>
-0.113182

>  <SCORE.INTRA.SOLV.lig_0>
-26.2491

>  <SCORE.INTRA.VDW>
-0.851939

>  <SCORE.INTRA.VDW.0>
2.57239

>  <SCORE.INTRA.norm>
-0.149779

>  <SCORE.RESTR>
0

>  <SCORE.RESTR.CAVITY>
0

>  <SCORE.RESTR.norm>
0

>  <SCORE.SYSTEM>
0

>  <SCORE.SYSTEM.CONST>
0

>  <SCORE.SYSTEM.DIHEDRAL>
0

>  <SCORE.SYSTEM.SOLV>
0

>  <SCORE.SYSTEM.norm>
0

>  <SCORE.heavy>
30

>  <SCORE.norm>
-1.18583

>  <RMSD>
0.742

$$$$
lig.pdb
 OpenBabel11021811523D
libRbt.so/2013.1/901 2013/11/27
 30 34  0  0  0  0  0  0  0  0999 V2000
   26.6414   38.3209   21.0526 N   0  0  0  0  0  0  0  0  0  0  0  0
   27.1135   41.9712   24.3630 N   0  0  0  0  0  0  0  0  0  0  0  0
   27.9541   37.6769   21.1605 C   0  0  0  0  0  0  0  0  0  0  0  0
   27.9924   36.8388   19.8915 C   0  0  2  0  0  0  0  0  0  0  0  0
   26.1101   39.1049   22.1618 C   0  0  0  0  0  0  0  0  0  0  0  0
   24.8448   38.8794   22.7413 C   0  0  0  0  0  0  0  0  0  0  0  0
   24.3301   39.6335   23.7662 C   0  0  0  0  0  0  0  0  0  0  0  0
   24.4881   41.5441   25.3657 C   0  0  0  0  0  0  0  0  0  0  0  0
   29.0255   43.1245   24.7327 C   0  0  0  0  0  0  0  0  0  0  0  0
   29.0254   41.0765   23.1431 C   0  0  0  0  0  0  0  0  0  0  0  0
   26.8745   40.1723   22.7119 C   0  0  0  0  0  0  0  0  0  0  0  0
   25.3790   43.7274   27.9573 O   0  0  0  0  0  0  0  0  0  0  0  0
   24.8072   43.5914   26.8735 C   0  0  0  0  0  0  0  0  0  0  0  0
   23.6891   44.2393   26.5699 O   0  0  0  0  0  0  0  0  0  0  0  0
   25.3420   42.6632   25.8420 C   0  0  1  0  0  0  0  0  0  0  0  0
   23.3779   41.2994   25.8500 O   0  0  0  0  0  0  0  0  0  0  0  0
   26.6445   42.8415   25.3443 C   0  0  0  0  0  0  0  0  0  0  0  0
   28.4704   42.1225   24.0442 C   0  0  0  0  0  0  0  0  0  0  0  0
   27.9240   43.8853   25.8046 S   0  0  0  0  0  0  0  0  0  0  0  0
   26.3547   40.9351   23.7821 C   0  0  0  0  0  0  0  0  0  0  0  0
   25.0712   40.6904   24.2944 C   0  0  0  0  0  0  0  0  0  0  0  0
   24.0975   37.8516   22.2912 F   0  0  0  0  0  0  0  0  0  0  0  0
   28.1159   40.5208   22.1571 N   0  0  0  0  0  0  0  0  0  0  0  0
   27.9451   41.3041   20.9521 C   0  0  0  0  0  0  0  0  0  0  0  0
   25.7617   37.5916   20.1460 C   0  0  0  0  0  0  0  0  0  0  0  0
   29.1219   37.1642   19.0801 O   0  0  0  0  0  0  0  0  0  0  0  0
   26.7692   37.2318   19.0671 C   0  0  2  0  0  0  0  0  0  0  0  0
   26.4184   36.0981   18.1906 N   0  0  0  0  0  0  0  0  0  0  0  0
   25.0238   36.0803   17.7128 C   0  0  0  0  0  0  0  0  0  0  0  0
   27.3857   35.8856   17.1029 C   0  0  0  0  0  0  0  0  0  0  0  0
  1  5  1  0  0  0  0
  2 17  1  0  0  0  0
  3  1  1  0  0  0  0
  4  3  1  0  0  0  0
  4 26  1  6  0  0  0
  5 11  2  0  0  0  0
  5  6  1  0  0  0  0
  6  7  2  0  0  0  0
  7 21  1  0  0  0  0
  8 15  1  0  0  0  0
  8 16  2  0  0  0  0
  9 19  1  0  0  0  0
 10 18  1  0  0  0  0
 11 20  1  0  0  0  0
 13 14  1  0  0  0  0
 13 12  2  0  0  0  0
 15 13  1  1  0  0  0
 17 19  2  0  0  0  0
 17 15  1  0  0  0  0
 18  2  1  0  0  0  0
 18  9  2  0  0  0  0
 20 21  2  0  0  0  0
 20  2  1  0  0  0  0
 21  8  1  0  0  0  0
 22  6  1  0  0  0  0
 23 11  1  0  0  0  0
 23 10  1  0  0  0  0
 24 23  1  0  0  0  0
 25  1  1  0  0  0  0
 27  4  1  0  0  0  0
 27 25  1  0  0  0  0
 27 28  1  1  0  0  0
 29 28  1  0  0  0  0
 30 28  1  0  0  0  0
M  END
>  <CHROM.1>
-126.06904715,2.29553751,120.63935776,63.41886287,157.97476264,26.44054470
40.24170968,22.88089261,1.46102037,-0.31493844,-2.33539243

>  <Name>
lig.pdb

>  <RI>
0

>  <Rbt.Current_Directory>
/home/itssahil/PROJECTS/Mol_Feturizer/New_Systems/rnas/6bfb

>  <Rbt.Executable>
rbdock ($Id: //depot/dev/client3/rdock/2013.1/src/exe/rbdock.cxx#4 $)

>  <Rbt.Library>
libRbt.so (2013.1, Build901 2013/11/27)

>  <Rbt.Parameter_File>
/export/apps/rDock/src/rDock_2013.1_src/data/scripts/dock_solv.prm

>  <Rbt.Receptor>
prm/pocket_docking_8.prm

>  <SCORE>
-38.5158

>  <SCORE.INTER>
-33.5949

>  <SCORE.INTER.CONST>
1

>  <SCORE.INTER.POLAR>
-0.959166

>  <SCORE.INTER.ROT>
3

>  <SCORE.INTER.SOLV>
10.4099

>  <SCORE.INTER.VDW>
-28.2693

>  <SCORE.INTER.norm>
-1.11983

>  <SCORE.INTRA>
-4.92094

>  <SCORE.INTRA.DIHEDRAL>
-7.27272

>  <SCORE.INTRA.DIHEDRAL.0>
9.41909

>  <SCORE.INTRA.POLAR>
0

>  <SCORE.INTRA.POLAR.0>
0

>  <SCORE.INTRA.REPUL>
0.014909

>  <SCORE.INTRA.REPUL.0>
0

>  <SCORE.INTRA.SOLV>
-0.138573

>  <SCORE.INTRA.SOLV.lig_0>
-26.2491

>  <SCORE.INTRA.VDW>
-1.28983

>  <SCORE.INTRA.VDW.0>
2.57239

>  <SCORE.INTRA.norm>
-0.164031

>  <SCORE.RESTR>
0

>  <SCORE.RESTR.CAVITY>
0

>  <SCORE.RESTR.norm>
0

>  <SCORE.SYSTEM>
0

>  <SCORE.SYSTEM.CONST>
0

>  <SCORE.SYSTEM.DIHEDRAL>
0

>  <SCORE.SYSTEM.SOLV>
0

>  <SCORE.SYSTEM.norm>
0

>  <SCORE.heavy>
30

>  <SCORE.norm>
-1.28386

>  <RMSD>
0.751

$$$$
lig.pdb
 OpenBabel11021811523D
libRbt.so/2013.1/901 2013/11/27
 30 34  0  0  0  0  0  0  0  0999 V2000
   26.6544   38.3275   21.0495 N   0  0  0  0  0  0  0  0  0  0  0  0
   27.1185   41.9740   24.3653 N   0  0  0  0  0  0  0  0  0  0  0  0
   27.9738   37.6969   21.1534 C   0  0  0  0  0  0  0  0  0  0  0  0
   28.0145   36.8549   19.8870 C   0  0  2  0  0  0  0  0  0  0  0  0
   26.1206   39.1101   22.1586 C   0  0  0  0  0  0  0  0  0  0  0  0
   24.8541   38.8835   22.7352 C   0  0  0  0  0  0  0  0  0  0  0  0
   24.3371   39.6361   23.7600 C   0  0  0  0  0  0  0  0  0  0  0  0
   24.4912   41.5449   25.3621 C   0  0  0  0  0  0  0  0  0  0  0  0
   29.0294   43.1275   24.7403 C   0  0  0  0  0  0  0  0  0  0  0  0
   29.0332   41.0814   23.1483 C   0  0  0  0  0  0  0  0  0  0  0  0
   26.8835   40.1770   22.7116 C   0  0  0  0  0  0  0  0  0  0  0  0
   25.4408   43.8226   27.9045 O   0  0  0  0  0  0  0  0  0  0  0  0
   24.8066   43.5905   26.8730 C   0  0  0  0  0  0  0  0  0  0  0  0
   23.6181   44.1290   26.6292 O   0  0  0  0  0  0  0  0  0  0  0  0
   25.3438   42.6637   25.8415 C   0  0  1  0  0  0  0  0  0  0  0  0
   23.3801   41.2992   25.8439 O   0  0  0  0  0  0  0  0  0  0  0  0
   26.6473   42.8430   25.3466 C   0  0  0  0  0  0  0  0  0  0  0  0
   28.4760   42.1262   24.0495 C   0  0  0  0  0  0  0  0  0  0  0  0
   27.9254   43.8867   25.8109 S   0  0  0  0  0  0  0  0  0  0  0  0
   26.3612   40.9384   23.7816 C   0  0  0  0  0  0  0  0  0  0  0  0
   25.0768   40.6926   24.2910 C   0  0  0  0  0  0  0  0  0  0  0  0
   24.1081   37.8559   22.2823 F   0  0  0  0  0  0  0  0  0  0  0  0
   28.1259   40.5267   22.1598 N   0  0  0  0  0  0  0  0  0  0  0  0
   27.9573   41.3113   20.9553 C   0  0  0  0  0  0  0  0  0  0  0  0
   25.7777   37.5866   20.1496 C   0  0  0  0  0  0  0  0  0  0  0  0
   29.1369   37.1886   19.0693 O   0  0  0  0  0  0  0  0  0  0  0  0
   26.7837   37.2331   19.0671 C   0  0  2  0  0  0  0  0  0  0  0  0
   26.4399   36.0930   18.1961 N   0  0  0  0  0  0  0  0  0  0  0  0
   25.0486   36.0702   17.7093 C   0  0  0  0  0  0  0  0  0  0  0  0
   27.4146   35.8743   17.1163 C   0  0  0  0  0  0  0  0  0  0  0  0
  1  5  1  0  0  0  0
  2 17  1  0  0  0  0
  3  1  1  0  0  0  0
  4  3  1  0  0  0  0
  4 26  1  6  0  0  0
  5 11  2  0  0  0  0
  5  6  1  0  0  0  0
  6  7  2  0  0  0  0
  7 21  1  0  0  0  0
  8 15  1  0  0  0  0
  8 16  2  0  0  0  0
  9 19  1  0  0  0  0
 10 18  1  0  0  0  0
 11 20  1  0  0  0  0
 13 14  1  0  0  0  0
 13 12  2  0  0  0  0
 15 13  1  1  0  0  0
 17 19  2  0  0  0  0
 17 15  1  0  0  0  0
 18  2  1  0  0  0  0
 18  9  2  0  0  0  0
 20 21  2  0  0  0  0
 20  2  1  0  0  0  0
 21  8  1  0  0  0  0
 22  6  1  0  0  0  0
 23 11  1  0  0  0  0
 23 10  1  0  0  0  0
 24 23  1  0  0  0  0
 25  1  1  0  0  0  0
 27  4  1  0  0  0  0
 27 25  1  0  0  0  0
 27 28  1  1  0  0  0
 29 28  1  0  0  0  0
 30 28  1  0  0  0  0
M  END
>  <CHROM.1>
-126.78783116,1.16805787,127.59787435,64.83155519,158.81186662,26.44948703
40.24396922,22.88103075,1.45904435,-0.31420791,-2.33541953

>  <Name>
lig.pdb

>  <RI>
0

>  <Rbt.Current_Directory>
/home/itssahil/PROJECTS/Mol_Feturizer/New_Systems/rnas/6bfb

>  <Rbt.Executable>
rbdock ($Id: //depot/dev/client3/rdock/2013.1/src/exe/rbdock.cxx#4 $)

>  <Rbt.Library>
libRbt.so (2013.1, Build901 2013/11/27)

>  <Rbt.Parameter_File>
/export/apps/rDock/src/rDock_2013.1_src/data/scripts/dock_solv.prm

>  <Rbt.Receptor>
prm/blind_docking_100.prm

>  <SCORE>
-38.4726

>  <SCORE.INTER>
-33.6459

>  <SCORE.INTER.CONST>
1

>  <SCORE.INTER.POLAR>
-0.959166

>  <SCORE.INTER.ROT>
3

>  <SCORE.INTER.SOLV>
10.278

>  <SCORE.INTER.VDW>
-28.2594

>  <SCORE.INTER.norm>
-1.12153

>  <SCORE.INTRA>
-4.82665

>  <SCORE.INTRA.DIHEDRAL>
-7.27772

>  <SCORE.INTRA.DIHEDRAL.0>
9.41909

>  <SCORE.INTRA.POLAR>
0

>  <SCORE.INTRA.POLAR.0>
0

>  <SCORE.INTRA.REPUL>
0.0130314

>  <SCORE.INTRA.REPUL.0>
0

>  <SCORE.INTRA.SOLV>
-0.119633

>  <SCORE.INTRA.SOLV.lig_0>
-26.2491

>  <SCORE.INTRA.VDW>
-1.19313

>  <SCORE.INTRA.VDW.0>
2.57239

>  <SCORE.INTRA.norm>
-0.160888

>  <SCORE.RESTR>
0

>  <SCORE.RESTR.CAVITY>
0

>  <SCORE.RESTR.norm>
0

>  <SCORE.SYSTEM>
0

>  <SCORE.SYSTEM.CONST>
0

>  <SCORE.SYSTEM.DIHEDRAL>
0

>  <SCORE.SYSTEM.SOLV>
0

>  <SCORE.SYSTEM.norm>
0

>  <SCORE.heavy>
30

>  <SCORE.norm>
-1.28242

>  <RMSD>
0.752

$$$$
lig.pdb
 OpenBabel11021811523D
libRbt.so/2013.1/901 2013/11/27
 30 34  0  0  0  0  0  0  0  0999 V2000
   26.5591   38.3821   21.0974 N   0  0  0  0  0  0  0  0  0  0  0  0
   27.1242   41.9707   24.4605 N   0  0  0  0  0  0  0  0  0  0  0  0
   27.8548   37.7002   21.1726 C   0  0  0  0  0  0  0  0  0  0  0  0
   27.8591   36.9012   19.8781 C   0  0  2  0  0  0  0  0  0  0  0  0
   26.0592   39.1453   22.2354 C   0  0  0  0  0  0  0  0  0  0  0  0
   24.8105   38.9087   22.8458 C   0  0  0  0  0  0  0  0  0  0  0  0
   24.3248   39.6434   23.8985 C   0  0  0  0  0  0  0  0  0  0  0  0
   24.5278   41.5241   25.5281 C   0  0  0  0  0  0  0  0  0  0  0  0
   29.0460   43.1177   24.7978 C   0  0  0  0  0  0  0  0  0  0  0  0
   29.0011   41.0994   23.1712 C   0  0  0  0  0  0  0  0  0  0  0  0
   26.8389   40.2026   22.7836 C   0  0  0  0  0  0  0  0  0  0  0  0
   25.1180   43.3119   28.2532 O   0  0  0  0  0  0  0  0  0  0  0  0
   24.8892   43.5433   27.0640 C   0  0  0  0  0  0  0  0  0  0  0  0
   24.1758   44.5889   26.6644 O   0  0  0  0  0  0  0  0  0  0  0  0
   25.3948   42.6345   26.0009 C   0  0  1  0  0  0  0  0  0  0  0  0
   23.4315   41.2700   26.0386 O   0  0  0  0  0  0  0  0  0  0  0  0
   26.6830   42.8225   25.4704 C   0  0  0  0  0  0  0  0  0  0  0  0
   28.4716   42.1284   24.1067 C   0  0  0  0  0  0  0  0  0  0  0  0
   27.9749   43.8581   25.9140 S   0  0  0  0  0  0  0  0  0  0  0  0
   26.3492   40.9453   23.8819 C   0  0  0  0  0  0  0  0  0  0  0  0
   25.0806   40.6906   24.4253 C   0  0  0  0  0  0  0  0  0  0  0  0
   24.0508   37.8890   22.3978 F   0  0  0  0  0  0  0  0  0  0  0  0
   28.0643   40.5618   22.2009 N   0  0  0  0  0  0  0  0  0  0  0  0
   27.8600   41.3672   21.0158 C   0  0  0  0  0  0  0  0  0  0  0  0
   25.6520   37.7052   20.1775 C   0  0  0  0  0  0  0  0  0  0  0  0
   28.9897   37.2212   19.0661 O   0  0  0  0  0  0  0  0  0  0  0  0
   26.6397   37.3522   19.0782 C   0  0  2  0  0  0  0  0  0  0  0  0
   26.2505   36.2561   18.1706 N   0  0  0  0  0  0  0  0  0  0  0  0
   24.8230   36.2196   17.8041 C   0  0  0  0  0  0  0  0  0  0  0  0
   27.1326   36.1323   17.0000 C   0  0  0  0  0  0  0  0  0  0  0  0
  1  5  1  0  0  0  0
  2 17  1  0  0  0  0
  3  1  1  0  0  0  0
  4  3  1  0  0  0  0
  4 26  1  6  0  0  0
  5 11  2  0  0  0  0
  5  6  1  0  0  0  0
  6  7  2  0  0  0  0
  7 21  1  0  0  0  0
  8 15  1  0  0  0  0
  8 16  2  0  0  0  0
  9 19  1  0  0  0  0
 10 18  1  0  0  0  0
 11 20  1  0  0  0  0
 13 14  1  0  0  0  0
 13 12  2  0  0  0  0
 15 13  1  1  0  0  0
 17 19  2  0  0  0  0
 17 15  1  0  0  0  0
 18  2  1  0  0  0  0
 18  9  2  0  0  0  0
 20 21  2  0  0  0  0
 20  2  1  0  0  0  0
 21  8  1  0  0  0  0
 22  6  1  0  0  0  0
 23 11  1  0  0  0  0
 23 10  1  0  0  0  0
 24 23  1  0  0  0  0
 25  1  1  0  0  0  0
 27  4  1  0  0  0  0
 27 25  1  0  0  0  0
 27 28  1  6  0  0  0
 29 28  1  0  0  0  0
 30 28  1  0  0  0  0
M  END
>  <CHROM.1>
-124.05804227,166.33987988,92.01738221,64.17053072,152.63360408,26.40911383
40.27436564,22.95912919,1.48481969,-0.34438729,-2.30961824

>  <Name>
lig.pdb

>  <RI>
0

>  <Rbt.Current_Directory>
/home/itssahil/PROJECTS/Mol_Feturizer/New_Systems/rnas/6bfb

>  <Rbt.Executable>
rbdock ($Id: //depot/dev/client3/rdock/2013.1/src/exe/rbdock.cxx#4 $)

>  <Rbt.Library>
libRbt.so (2013.1, Build901 2013/11/27)

>  <Rbt.Parameter_File>
/export/apps/rDock/src/rDock_2013.1_src/data/scripts/dock_solv.prm

>  <Rbt.Receptor>
prm/pocket_docking_2.prm

>  <SCORE>
-39.3579

>  <SCORE.INTER>
-35.8063

>  <SCORE.INTER.CONST>
1

>  <SCORE.INTER.POLAR>
-1.53522

>  <SCORE.INTER.ROT>
3

>  <SCORE.INTER.SOLV>
11.1171

>  <SCORE.INTER.VDW>
-28.0592

>  <SCORE.INTER.norm>
-1.19354

>  <SCORE.INTRA>
-3.98755

>  <SCORE.INTRA.DIHEDRAL>
-5.62419

>  <SCORE.INTRA.DIHEDRAL.0>
9.41909

>  <SCORE.INTRA.POLAR>
0

>  <SCORE.INTRA.POLAR.0>
0

>  <SCORE.INTRA.REPUL>
0.020131

>  <SCORE.INTRA.REPUL.0>
0

>  <SCORE.INTRA.SOLV>
-0.232515

>  <SCORE.INTRA.SOLV.lig_0>
-26.2491

>  <SCORE.INTRA.VDW>
-1.15986

>  <SCORE.INTRA.VDW.0>
2.57239

>  <SCORE.INTRA.norm>
-0.132918

>  <SCORE.RESTR>
0.436017

>  <SCORE.RESTR.CAVITY>
0.436017

>  <SCORE.RESTR.norm>
0.0145339

>  <SCORE.SYSTEM>
0

>  <SCORE.SYSTEM.CONST>
0

>  <SCORE.SYSTEM.DIHEDRAL>
0

>  <SCORE.SYSTEM.SOLV>
0

>  <SCORE.SYSTEM.norm>
0

>  <SCORE.heavy>
30

>  <SCORE.norm>
-1.31193

>  <RMSD>
0.755

$$$$
lig.pdb
 OpenBabel11021811523D
libRbt.so/2013.1/901 2013/11/27
 30 34  0  0  0  0  0  0  0  0999 V2000
   25.7669   38.5520   21.2044 N   0  0  0  0  0  0  0  0  0  0  0  0
   26.8934   42.0808   24.4886 N   0  0  0  0  0  0  0  0  0  0  0  0
   26.9230   37.6505   21.2041 C   0  0  0  0  0  0  0  0  0  0  0  0
   26.7533   36.9307   19.8746 C   0  0  2  0  0  0  0  0  0  0  0  0
   25.4386   39.3315   22.3928 C   0  0  0  0  0  0  0  0  0  0  0  0
   24.2557   39.1552   23.1394 C   0  0  0  0  0  0  0  0  0  0  0  0
   23.9305   39.9062   24.2413 C   0  0  0  0  0  0  0  0  0  0  0  0
   24.4135   41.7614   25.8410 C   0  0  0  0  0  0  0  0  0  0  0  0
   28.8983   43.1240   24.6094 C   0  0  0  0  0  0  0  0  0  0  0  0
   28.5653   41.1232   22.9947 C   0  0  0  0  0  0  0  0  0  0  0  0
   26.3293   40.3427   22.8515 C   0  0  0  0  0  0  0  0  0  0  0  0
   25.3867   43.4885   28.4874 O   0  0  0  0  0  0  0  0  0  0  0  0
   25.0505   43.7474   27.3299 C   0  0  0  0  0  0  0  0  0  0  0  0
   24.3660   44.8395   27.0124 O   0  0  0  0  0  0  0  0  0  0  0  0
   25.3852   42.8217   26.2151 C   0  0  1  0  0  0  0  0  0  0  0  0
   23.3697   41.5606   26.4712 O   0  0  0  0  0  0  0  0  0  0  0  0
   26.6136   42.9467   25.5432 C   0  0  0  0  0  0  0  0  0  0  0  0
   28.1989   42.1711   23.9856 C   0  0  0  0  0  0  0  0  0  0  0  0
   27.9997   43.9104   25.8403 S   0  0  0  0  0  0  0  0  0  0  0  0
   26.0057   41.1014   23.9992 C   0  0  0  0  0  0  0  0  0  0  0  0
   24.7945   40.9087   24.6815 C   0  0  0  0  0  0  0  0  0  0  0  0
   23.3982   38.1798   22.7780 F   0  0  0  0  0  0  0  0  0  0  0  0
   27.4986   40.6423   22.1351 N   0  0  0  0  0  0  0  0  0  0  0  0
   27.2049   41.4662   20.9820 C   0  0  0  0  0  0  0  0  0  0  0  0
   24.7314   38.0930   20.2854 C   0  0  0  0  0  0  0  0  0  0  0  0
   27.9019   37.0889   19.0405 O   0  0  0  0  0  0  0  0  0  0  0  0
   25.6132   37.6293   19.1381 C   0  0  2  0  0  0  0  0  0  0  0  0
   25.0135   36.6667   18.1946 N   0  0  0  0  0  0  0  0  0  0  0  0
   25.8333   36.3524   17.0103 C   0  0  0  0  0  0  0  0  0  0  0  0
   24.4933   35.4581   18.8522 C   0  0  0  0  0  0  0  0  0  0  0  0
  1  5  1  0  0  0  0
  2 17  1  0  0  0  0
  3  1  1  0  0  0  0
  4  3  1  0  0  0  0
  4 26  1  6  0  0  0
  5 11  2  0  0  0  0
  5  6  1  0  0  0  0
  6  7  2  0  0  0  0
  7 21  1  0  0  0  0
  8 15  1  0  0  0  0
  8 16  2  0  0  0  0
  9 19  1  0  0  0  0
 10 18  1  0  0  0  0
 11 20  1  0  0  0  0
 13 14  1  0  0  0  0
 13 12  2  0  0  0  0
 15 13  1  1  0  0  0
 17 19  2  0  0  0  0
 17 15  1  0  0  0  0
 18  2  1  0  0  0  0
 18  9  2  0  0  0  0
 20 21  2  0  0  0  0
 20  2  1  0  0  0  0
 21  8  1  0  0  0  0
 22  6  1  0  0  0  0
 23 11  1  0  0  0  0
 23 10  1  0  0  0  0
 24 23  1  0  0  0  0
 25  1  1  0  0  0  0
 27  4  1  0  0  0  0
 27 25  1  0  0  0  0
 27 28  1  6  0  0  0
 29 28  1  0  0  0  0
 30 28  1  0  0  0  0
M  END
>  <CHROM.1>
-115.09923253,169.18877387,91.24696400,63.84204336,-72.43222404,25.95685870
40.39974416,23.09703632,1.59594557,-0.41208225,-2.28220897

>  <Name>
lig.pdb

>  <RI>
0

>  <Rbt.Current_Directory>
/home/itssahil/PROJECTS/Mol_Feturizer/New_Systems/rnas/6bfb

>  <Rbt.Executable>
rbdock ($Id: //depot/dev/client3/rdock/2013.1/src/exe/rbdock.cxx#4 $)

>  <Rbt.Library>
libRbt.so (2013.1, Build901 2013/11/27)

>  <Rbt.Parameter_File>
/export/apps/rDock/src/rDock_2013.1_src/data/scripts/dock_solv.prm

>  <Rbt.Receptor>
prm/pocket_docking_2.prm

>  <SCORE>
-36.9821

>  <SCORE.INTER>
-33.1128

>  <SCORE.INTER.CONST>
1

>  <SCORE.INTER.POLAR>
-0.704116

>  <SCORE.INTER.ROT>
3

>  <SCORE.INTER.SOLV>
10.8347

>  <SCORE.INTER.VDW>
-28.9397

>  <SCORE.INTER.norm>
-1.10376

>  <SCORE.INTRA>
-3.8693

>  <SCORE.INTRA.DIHEDRAL>
-6.707

>  <SCORE.INTRA.DIHEDRAL.0>
9.41909

>  <SCORE.INTRA.POLAR>
0

>  <SCORE.INTRA.POLAR.0>
0

>  <SCORE.INTRA.REPUL>
0.0427047

>  <SCORE.INTRA.REPUL.0>
0

>  <SCORE.INTRA.SOLV>
-0.0746504

>  <SCORE.INTRA.SOLV.lig_0>
-26.2491

>  <SCORE.INTRA.VDW>
-0.691995

>  <SCORE.INTRA.VDW.0>
2.57239

>  <SCORE.INTRA.norm>
-0.128977

>  <SCORE.RESTR>
0

>  <SCORE.RESTR.CAVITY>
0

>  <SCORE.RESTR.norm>
0

>  <SCORE.SYSTEM>
0

>  <SCORE.SYSTEM.CONST>
0

>  <SCORE.SYSTEM.DIHEDRAL>
0

>  <SCORE.SYSTEM.SOLV>
0

>  <SCORE.SYSTEM.norm>
0

>  <SCORE.heavy>
30

>  <SCORE.norm>
-1.23274

>  <RMSD>
0.755

$$$$
lig.pdb
 OpenBabel11021811523D
libRbt.so/2013.1/901 2013/11/27
 30 34  0  0  0  0  0  0  0  0999 V2000
   25.5417   38.3173   21.1444 N   0  0  0  0  0  0  0  0  0  0  0  0
   27.0069   41.9271   24.1989 N   0  0  0  0  0  0  0  0  0  0  0  0
   26.7894   37.5605   21.0034 C   0  0  0  0  0  0  0  0  0  0  0  0
   26.4960   36.7062   19.7793 C   0  0  2  0  0  0  0  0  0  0  0  0
   25.3171   39.1596   22.3138 C   0  0  0  0  0  0  0  0  0  0  0  0
   24.1740   39.0675   23.1340 C   0  0  0  0  0  0  0  0  0  0  0  0
   23.9462   39.8775   24.2183 C   0  0  0  0  0  0  0  0  0  0  0  0
   24.6000   41.7749   25.7038 C   0  0  0  0  0  0  0  0  0  0  0  0
   29.0573   42.8844   24.1584 C   0  0  0  0  0  0  0  0  0  0  0  0
   28.5461   40.8345   22.6558 C   0  0  0  0  0  0  0  0  0  0  0  0
   26.2748   40.1486   22.6756 C   0  0  0  0  0  0  0  0  0  0  0  0
   26.1868   43.8732   28.0151 O   0  0  0  0  0  0  0  0  0  0  0  0
   25.4064   43.7912   27.0642 C   0  0  0  0  0  0  0  0  0  0  0  0
   24.3224   44.5507   26.9626 O   0  0  0  0  0  0  0  0  0  0  0  0
   25.6356   42.8058   25.9743 C   0  0  1  0  0  0  0  0  0  0  0  0
   23.5878   41.6472   26.4010 O   0  0  0  0  0  0  0  0  0  0  0  0
   26.8263   42.8479   25.2283 C   0  0  0  0  0  0  0  0  0  0  0  0
   28.2831   41.9382   23.6186 C   0  0  0  0  0  0  0  0  0  0  0  0
   28.2667   43.7608   25.4027 S   0  0  0  0  0  0  0  0  0  0  0  0
   26.0516   40.9684   23.8051 C   0  0  0  0  0  0  0  0  0  0  0  0
   24.8758   40.8584   24.5634 C   0  0  0  0  0  0  0  0  0  0  0  0
   23.2566   38.1168   22.8659 F   0  0  0  0  0  0  0  0  0  0  0  0
   27.4113   40.3659   21.8809 N   0  0  0  0  0  0  0  0  0  0  0  0
   27.0848   41.1530   20.7110 C   0  0  0  0  0  0  0  0  0  0  0  0
   24.4366   37.6579   20.4579 C   0  0  0  0  0  0  0  0  0  0  0  0
   27.4588   36.9194   18.7460 O   0  0  0  0  0  0  0  0  0  0  0  0
   25.1677   37.1961   19.2086 C   0  0  2  0  0  0  0  0  0  0  0  0
   24.5501   36.0871   18.4566 N   0  0  0  0  0  0  0  0  0  0  0  0
   23.0874   36.1745   18.2945 C   0  0  0  0  0  0  0  0  0  0  0  0
   25.2373   35.7926   17.1898 C   0  0  0  0  0  0  0  0  0  0  0  0
  1  5  1  0  0  0  0
  2 17  1  0  0  0  0
  3  1  1  0  0  0  0
  4  3  1  0  0  0  0
  4 26  1  6  0  0  0
  5 11  2  0  0  0  0
  5  6  1  0  0  0  0
  6  7  2  0  0  0  0
  7 21  1  0  0  0  0
  8 15  1  0  0  0  0
  8 16  2  0  0  0  0
  9 19  1  0  0  0  0
 10 18  1  0  0  0  0
 11 20  1  0  0  0  0
 13 14  1  0  0  0  0
 13 12  2  0  0  0  0
 15 13  1  1  0  0  0
 17 19  2  0  0  0  0
 17 15  1  0  0  0  0
 18  2  1  0  0  0  0
 18  9  2  0  0  0  0
 20 21  2  0  0  0  0
 20  2  1  0  0  0  0
 21  8  1  0  0  0  0
 22  6  1  0  0  0  0
 23 11  1  0  0  0  0
 23 10  1  0  0  0  0
 24 23  1  0  0  0  0
 25  1  1  0  0  0  0
 27  4  1  0  0  0  0
 27 25  1  0  0  0  0
 27 28  1  1  0  0  0
 29 28  1  0  0  0  0
 30 28  1  0  0  0  0
M  END
>  <CHROM.1>
-126.97348696,1.57497319,120.31926205,-58.21363179,156.86704394,25.88876738
40.26426257,22.92384894,1.68898176,-0.37881326,-2.27543868

>  <Name>
lig.pdb

>  <RI>
0

>  <Rbt.Current_Directory>
/home/itssahil/PROJECTS/Mol_Feturizer/New_Systems/rnas/6bfb

>  <Rbt.Executable>
rbdock ($Id: //depot/dev/client3/rdock/2013.1/src/exe/rbdock.cxx#4 $)

>  <Rbt.Library>
libRbt.so (2013.1, Build901 2013/11/27)

>  <Rbt.Parameter_File>
/export/apps/rDock/src/rDock_2013.1_src/data/scripts/dock_solv.prm

>  <Rbt.Receptor>
prm/pocket_docking_2.prm

>  <SCORE>
-35.6504

>  <SCORE.INTER>
-31.1249

>  <SCORE.INTER.CONST>
1

>  <SCORE.INTER.POLAR>
0

>  <SCORE.INTER.ROT>
3

>  <SCORE.INTER.SOLV>
10.3043

>  <SCORE.INTER.VDW>
-29.7847

>  <SCORE.INTER.norm>
-1.0375

>  <SCORE.INTRA>
-4.5255

>  <SCORE.INTRA.DIHEDRAL>
-7.27877

>  <SCORE.INTRA.DIHEDRAL.0>
9.41909

>  <SCORE.INTRA.POLAR>
0

>  <SCORE.INTRA.POLAR.0>
0

>  <SCORE.INTRA.REPUL>
0.0125456

>  <SCORE.INTRA.REPUL.0>
0

>  <SCORE.INTRA.SOLV>
-0.119216

>  <SCORE.INTRA.SOLV.lig_0>
-26.2491

>  <SCORE.INTRA.VDW>
-0.889237

>  <SCORE.INTRA.VDW.0>
2.57239

>  <SCORE.INTRA.norm>
-0.15085

>  <SCORE.RESTR>
0

>  <SCORE.RESTR.CAVITY>
0

>  <SCORE.RESTR.norm>
0

>  <SCORE.SYSTEM>
0

>  <SCORE.SYSTEM.CONST>
0

>  <SCORE.SYSTEM.DIHEDRAL>
0

>  <SCORE.SYSTEM.SOLV>
0

>  <SCORE.SYSTEM.norm>
0

>  <SCORE.heavy>
30

>  <SCORE.norm>
-1.18835

>  <RMSD>
0.761

$$$$
lig.pdb
 OpenBabel11021811523D
libRbt.so/2013.1/901 2013/11/27
 30 34  0  0  0  0  0  0  0  0999 V2000
   25.6086   38.2570   21.1602 N   0  0  0  0  0  0  0  0  0  0  0  0
   27.0628   41.9119   24.1658 N   0  0  0  0  0  0  0  0  0  0  0  0
   26.8246   37.4424   21.0750 C   0  0  0  0  0  0  0  0  0  0  0  0
   26.5405   36.5904   19.8472 C   0  0  2  0  0  0  0  0  0  0  0  0
   25.3773   39.1203   22.3129 C   0  0  0  0  0  0  0  0  0  0  0  0
   24.2264   39.0474   23.1240 C   0  0  0  0  0  0  0  0  0  0  0  0
   23.9924   39.8770   24.1922 C   0  0  0  0  0  0  0  0  0  0  0  0
   24.6416   41.7965   25.6509 C   0  0  0  0  0  0  0  0  0  0  0  0
   29.1181   42.8591   24.1278 C   0  0  0  0  0  0  0  0  0  0  0  0
   28.6109   40.7860   22.6559 C   0  0  0  0  0  0  0  0  0  0  0  0
   26.3363   40.1110   22.6665 C   0  0  0  0  0  0  0  0  0  0  0  0
   26.2634   43.9888   27.8927 O   0  0  0  0  0  0  0  0  0  0  0  0
   25.4450   43.8323   26.9839 C   0  0  0  0  0  0  0  0  0  0  0  0
   24.3151   44.5254   26.9135 O   0  0  0  0  0  0  0  0  0  0  0  0
   25.6796   42.8272   25.9132 C   0  0  1  0  0  0  0  0  0  0  0  0
   23.6225   41.6855   26.3408 O   0  0  0  0  0  0  0  0  0  0  0  0
   26.8773   42.8511   25.1776 C   0  0  0  0  0  0  0  0  0  0  0  0
   28.3443   41.9073   23.5972 C   0  0  0  0  0  0  0  0  0  0  0  0
   28.3202   43.7603   25.3496 S   0  0  0  0  0  0  0  0  0  0  0  0
   26.1067   40.9510   23.7797 C   0  0  0  0  0  0  0  0  0  0  0  0
   24.9235   40.8594   24.5289 C   0  0  0  0  0  0  0  0  0  0  0  0
   23.3069   38.0964   22.8638 F   0  0  0  0  0  0  0  0  0  0  0  0
   27.4810   40.3093   21.8787 N   0  0  0  0  0  0  0  0  0  0  0  0
   27.1689   41.0777   20.6925 C   0  0  0  0  0  0  0  0  0  0  0  0
   24.5020   37.6421   20.4358 C   0  0  0  0  0  0  0  0  0  0  0  0
   27.5519   36.7490   18.8514 O   0  0  0  0  0  0  0  0  0  0  0  0
   25.2596   37.1349   19.2202 C   0  0  2  0  0  0  0  0  0  0  0  0
   24.6216   36.0480   18.4533 N   0  0  0  0  0  0  0  0  0  0  0  0
   23.1474   36.0584   18.4545 C   0  0  0  0  0  0  0  0  0  0  0  0
   25.1793   35.8878   17.1016 C   0  0  0  0  0  0  0  0  0  0  0  0
  1  5  1  0  0  0  0
  2 17  1  0  0  0  0
  3  1  1  0  0  0  0
  4  3  1  0  0  0  0
  4 26  1  6  0  0  0
  5 11  2  0  0  0  0
  5  6  1  0  0  0  0
  6  7  2  0  0  0  0
  7 21  1  0  0  0  0
  8 15  1  0  0  0  0
  8 16  2  0  0  0  0
  9 19  1  0  0  0  0
 10 18  1  0  0  0  0
 11 20  1  0  0  0  0
 13 14  1  0  0  0  0
 13 12  2  0  0  0  0
 15 13  1  1  0  0  0
 17 19  2  0  0  0  0
 17 15  1  0  0  0  0
 18  2  1  0  0  0  0
 18  9  2  0  0  0  0
 20 21  2  0  0  0  0
 20  2  1  0  0  0  0
 21  8  1  0  0  0  0
 22  6  1  0  0  0  0
 23 11  1  0  0  0  0
 23 10  1  0  0  0  0
 24 23  1  0  0  0  0
 25  1  1  0  0  0  0
 27  4  1  0  0  0  0
 27 25  1  0  0  0  0
 27 28  1  1  0  0  0
 29 28  1  0  0  0  0
 30 28  1  0  0  0  0
M  END
>  <CHROM.1>
-123.99493069,-1.78954940,125.22841285,164.02170612,145.46706768,25.94067982
40.23485874,22.90803074,1.68745837,-0.36584947,-2.29106630

>  <Name>
lig.pdb

>  <RI>
0

>  <Rbt.Current_Directory>
/home/itssahil/PROJECTS/Mol_Feturizer/New_Systems/rnas/6bfb

>  <Rbt.Executable>
rbdock ($Id: //depot/dev/client3/rdock/2013.1/src/exe/rbdock.cxx#4 $)

>  <Rbt.Library>
libRbt.so (2013.1, Build901 2013/11/27)

>  <Rbt.Parameter_File>
/export/apps/rDock/src/rDock_2013.1_src/data/scripts/dock_solv.prm

>  <Rbt.Receptor>
prm/pocket_docking_2.prm

>  <SCORE>
-34.4143

>  <SCORE.INTER>
-30.9536

>  <SCORE.INTER.CONST>
1

>  <SCORE.INTER.POLAR>
0

>  <SCORE.INTER.ROT>
3

>  <SCORE.INTER.SOLV>
10.2134

>  <SCORE.INTER.VDW>
-29.6402

>  <SCORE.INTER.norm>
-1.03179

>  <SCORE.INTRA>
-3.46071

>  <SCORE.INTRA.DIHEDRAL>
-5.4922

>  <SCORE.INTRA.DIHEDRAL.0>
9.41909

>  <SCORE.INTRA.POLAR>
0

>  <SCORE.INTRA.POLAR.0>
0

>  <SCORE.INTRA.REPUL>
0.0202941

>  <SCORE.INTRA.REPUL.0>
0

>  <SCORE.INTRA.SOLV>
-0.132433

>  <SCORE.INTRA.SOLV.lig_0>
-26.2491

>  <SCORE.INTRA.VDW>
-0.749866

>  <SCORE.INTRA.VDW.0>
2.57239

>  <SCORE.INTRA.norm>
-0.115357

>  <SCORE.RESTR>
0

>  <SCORE.RESTR.CAVITY>
0

>  <SCORE.RESTR.norm>
0

>  <SCORE.SYSTEM>
0

>  <SCORE.SYSTEM.CONST>
0

>  <SCORE.SYSTEM.DIHEDRAL>
0

>  <SCORE.SYSTEM.SOLV>
0

>  <SCORE.SYSTEM.norm>
0

>  <SCORE.heavy>
30

>  <SCORE.norm>
-1.14714

>  <RMSD>
0.766

$$$$
lig.pdb
 OpenBabel11021811523D
libRbt.so/2013.1/901 2013/11/27
 30 34  0  0  0  0  0  0  0  0999 V2000
   25.7498   38.5642   21.2104 N   0  0  0  0  0  0  0  0  0  0  0  0
   26.9188   42.0693   24.5050 N   0  0  0  0  0  0  0  0  0  0  0  0
   26.9163   37.6762   21.1899 C   0  0  0  0  0  0  0  0  0  0  0  0
   26.7317   36.9539   19.8638 C   0  0  2  0  0  0  0  0  0  0  0  0
   25.4335   39.3402   22.4041 C   0  0  0  0  0  0  0  0  0  0  0  0
   24.2534   39.1689   23.1563 C   0  0  0  0  0  0  0  0  0  0  0  0
   23.9393   39.9168   24.2635 C   0  0  0  0  0  0  0  0  0  0  0  0
   24.4440   41.7610   25.8692 C   0  0  0  0  0  0  0  0  0  0  0  0
   28.9317   43.0976   24.6200 C   0  0  0  0  0  0  0  0  0  0  0  0
   28.5760   41.1069   22.9978 C   0  0  0  0  0  0  0  0  0  0  0  0
   26.3337   40.3429   22.8629 C   0  0  0  0  0  0  0  0  0  0  0  0
   25.4826   43.4910   28.5113 O   0  0  0  0  0  0  0  0  0  0  0  0
   25.1030   43.7353   27.3640 C   0  0  0  0  0  0  0  0  0  0  0  0
   24.3813   44.8082   27.0640 O   0  0  0  0  0  0  0  0  0  0  0  0
   25.4252   42.8126   26.2431 C   0  0  1  0  0  0  0  0  0  0  0  0
   23.4022   41.5646   26.5041 O   0  0  0  0  0  0  0  0  0  0  0  0
   26.6508   42.9320   25.5652 C   0  0  0  0  0  0  0  0  0  0  0  0
   28.2223   42.1527   23.9956 C   0  0  0  0  0  0  0  0  0  0  0  0
   28.0453   43.8846   25.8595 S   0  0  0  0  0  0  0  0  0  0  0  0
   26.0216   41.0985   24.0158 C   0  0  0  0  0  0  0  0  0  0  0  0
   24.8128   40.9112   24.7037 C   0  0  0  0  0  0  0  0  0  0  0  0
   23.3870   38.2012   22.7949 F   0  0  0  0  0  0  0  0  0  0  0  0
   27.5013   40.6377   22.1417 N   0  0  0  0  0  0  0  0  0  0  0  0
   27.2073   41.4691   20.9940 C   0  0  0  0  0  0  0  0  0  0  0  0
   24.7038   38.0926   20.3099 C   0  0  0  0  0  0  0  0  0  0  0  0
   27.8634   37.1252   19.0095 O   0  0  0  0  0  0  0  0  0  0  0  0
   25.5706   37.6387   19.1474 C   0  0  2  0  0  0  0  0  0  0  0  0
   24.9657   36.6687   18.2148 N   0  0  0  0  0  0  0  0  0  0  0  0
   25.7686   36.3629   17.0168 C   0  0  0  0  0  0  0  0  0  0  0  0
   24.4706   35.4548   18.8819 C   0  0  0  0  0  0  0  0  0  0  0  0
  1  5  1  0  0  0  0
  2 17  1  0  0  0  0
  3  1  1  0  0  0  0
  4  3  1  0  0  0  0
  4 26  1  6  0  0  0
  5 11  2  0  0  0  0
  5  6  1  0  0  0  0
  6  7  2  0  0  0  0
  7 21  1  0  0  0  0
  8 15  1  0  0  0  0
  8 16  2  0  0  0  0
  9 19  1  0  0  0  0
 10 18  1  0  0  0  0
 11 20  1  0  0  0  0
 13 14  1  0  0  0  0
 13 12  2  0  0  0  0
 15 13  1  1  0  0  0
 17 19  2  0  0  0  0
 17 15  1  0  0  0  0
 18  2  1  0  0  0  0
 18  9  2  0  0  0  0
 20 21  2  0  0  0  0
 20  2  1  0  0  0  0
 21  8  1  0  0  0  0
 22  6  1  0  0  0  0
 23 11  1  0  0  0  0
 23 10  1  0  0  0  0
 24 23  1  0  0  0  0
 25  1  1  0  0  0  0
 27  4  1  0  0  0  0
 27 25  1  0  0  0  0
 27 28  1  6  0  0  0
 29 28  1  0  0  0  0
 30 28  1  0  0  0  0
M  END
>  <CHROM.1>
-116.41972627,167.50124052,93.71300310,62.80544034,-72.39356584,25.96405301
40.39944538,23.11233815,1.60498028,-0.41009827,-2.27493090

>  <Name>
lig.pdb

>  <RI>
0

>  <Rbt.Current_Directory>
/home/itssahil/PROJECTS/Mol_Feturizer/New_Systems/rnas/6bfb

>  <Rbt.Executable>
rbdock ($Id: //depot/dev/client3/rdock/2013.1/src/exe/rbdock.cxx#4 $)

>  <Rbt.Library>
libRbt.so (2013.1, Build901 2013/11/27)

>  <Rbt.Parameter_File>
/export/apps/rDock/src/rDock_2013.1_src/data/scripts/dock_solv.prm

>  <Rbt.Receptor>
prm/pocket_docking_2.prm

>  <SCORE>
-37.0181

>  <SCORE.INTER>
-33.3324

>  <SCORE.INTER.CONST>
1

>  <SCORE.INTER.POLAR>
-0.713154

>  <SCORE.INTER.ROT>
3

>  <SCORE.INTER.SOLV>
10.9111

>  <SCORE.INTER.VDW>
-29.0814

>  <SCORE.INTER.norm>
-1.11108

>  <SCORE.INTRA>
-3.68899

>  <SCORE.INTRA.DIHEDRAL>
-6.46148

>  <SCORE.INTRA.DIHEDRAL.0>
9.41909

>  <SCORE.INTRA.POLAR>
0

>  <SCORE.INTRA.POLAR.0>
0

>  <SCORE.INTRA.REPUL>
0.0394612

>  <SCORE.INTRA.REPUL.0>
0

>  <SCORE.INTRA.SOLV>
-0.0680036

>  <SCORE.INTRA.SOLV.lig_0>
-26.2491

>  <SCORE.INTRA.VDW>
-0.621554

>  <SCORE.INTRA.VDW.0>
2.57239

>  <SCORE.INTRA.norm>
-0.122966

>  <SCORE.RESTR>
0.00325153

>  <SCORE.RESTR.CAVITY>
0.00325153

>  <SCORE.RESTR.norm>
0.000108384

>  <SCORE.SYSTEM>
0

>  <SCORE.SYSTEM.CONST>
0

>  <SCORE.SYSTEM.DIHEDRAL>
0

>  <SCORE.SYSTEM.SOLV>
0

>  <SCORE.SYSTEM.norm>
0

>  <SCORE.heavy>
30

>  <SCORE.norm>
-1.23394

>  <RMSD>
0.767

$$$$
lig.pdb
 OpenBabel11021811523D
libRbt.so/2013.1/901 2013/11/27
 30 34  0  0  0  0  0  0  0  0999 V2000
   26.6614   38.3193   21.0570 N   0  0  0  0  0  0  0  0  0  0  0  0
   27.1214   41.9685   24.3705 N   0  0  0  0  0  0  0  0  0  0  0  0
   27.9741   37.6766   21.1717 C   0  0  0  0  0  0  0  0  0  0  0  0
   28.0185   36.8361   19.9045 C   0  0  2  0  0  0  0  0  0  0  0  0
   26.1247   39.1051   22.1624 C   0  0  0  0  0  0  0  0  0  0  0  0
   24.8546   38.8835   22.7330 C   0  0  0  0  0  0  0  0  0  0  0  0
   24.3351   39.6392   23.7543 C   0  0  0  0  0  0  0  0  0  0  0  0
   24.4877   41.5494   25.3547 C   0  0  0  0  0  0  0  0  0  0  0  0
   29.0343   43.1160   24.7534 C   0  0  0  0  0  0  0  0  0  0  0  0
   29.0390   41.0678   23.1641 C   0  0  0  0  0  0  0  0  0  0  0  0
   26.8885   40.1701   22.7178 C   0  0  0  0  0  0  0  0  0  0  0  0
   25.3589   43.7194   27.9578 O   0  0  0  0  0  0  0  0  0  0  0  0
   24.8025   43.5959   26.8646 C   0  0  0  0  0  0  0  0  0  0  0  0
   23.6975   44.2593   26.5468 O   0  0  0  0  0  0  0  0  0  0  0  0
   25.3417   42.6660   25.8369 C   0  0  1  0  0  0  0  0  0  0  0  0
   23.3734   41.3081   25.8312 O   0  0  0  0  0  0  0  0  0  0  0  0
   26.6482   42.8403   25.3483 C   0  0  0  0  0  0  0  0  0  0  0  0
   28.4809   42.1156   24.0612 C   0  0  0  0  0  0  0  0  0  0  0  0
   27.9275   43.8802   25.8176 S   0  0  0  0  0  0  0  0  0  0  0  0
   26.3635   40.9347   23.7843 C   0  0  0  0  0  0  0  0  0  0  0  0
   25.0757   40.6939   24.2876 C   0  0  0  0  0  0  0  0  0  0  0  0
   24.1074   37.8579   22.2777 F   0  0  0  0  0  0  0  0  0  0  0  0
   28.1348   40.5149   22.1718 N   0  0  0  0  0  0  0  0  0  0  0  0
   27.9749   41.2986   20.9655 C   0  0  0  0  0  0  0  0  0  0  0  0
   25.7862   37.5877   20.1481 C   0  0  0  0  0  0  0  0  0  0  0  0
   29.1512   37.1608   19.0974 O   0  0  0  0  0  0  0  0  0  0  0  0
   26.7986   37.2266   19.0742 C   0  0  2  0  0  0  0  0  0  0  0  0
   26.4524   36.0909   18.1983 N   0  0  0  0  0  0  0  0  0  0  0  0
   25.0683   36.0870   17.6906 C   0  0  0  0  0  0  0  0  0  0  0  0
   27.4401   35.8584   17.1334 C   0  0  0  0  0  0  0  0  0  0  0  0
  1  5  1  0  0  0  0
  2 17  1  0  0  0  0
  3  1  1  0  0  0  0
  4  3  1  0  0  0  0
  4 26  1  6  0  0  0
  5 11  2  0  0  0  0
  5  6  1  0  0  0  0
  6  7  2  0  0  0  0
  7 21  1  0  0  0  0
  8 15  1  0  0  0  0
  8 16  2  0  0  0  0
  9 19  1  0  0  0  0
 10 18  1  0  0  0  0
 11 20  1  0  0  0  0
 13 14  1  0  0  0  0
 13 12  2  0  0  0  0
 15 13  1  1  0  0  0
 17 19  2  0  0  0  0
 17 15  1  0  0  0  0
 18  2  1  0  0  0  0
 18  9  2  0  0  0  0
 20 21  2  0  0  0  0
 20  2  1  0  0  0  0
 21  8  1  0  0  0  0
 22  6  1  0  0  0  0
 23 11  1  0  0  0  0
 23 10  1  0  0  0  0
 24 23  1  0  0  0  0
 25  1  1  0  0  0  0
 27  4  1  0  0  0  0
 27 25  1  0  0  0  0
 27 28  1  1  0  0  0
 29 28  1  0  0  0  0
 30 28  1  0  0  0  0
M  END
>  <CHROM.1>
-126.35874804,0.75264774,119.84950552,65.63398428,159.26367885,26.45447183
40.24023798,22.88389167,1.45750577,-0.30800342,-2.33689446

>  <Name>
lig.pdb

>  <RI>
0

>  <Rbt.Current_Directory>
/home/itssahil/PROJECTS/Mol_Feturizer/New_Systems/rnas/6bfb

>  <Rbt.Executable>
rbdock ($Id: //depot/dev/client3/rdock/2013.1/src/exe/rbdock.cxx#4 $)

>  <Rbt.Library>
libRbt.so (2013.1, Build901 2013/11/27)

>  <Rbt.Parameter_File>
/export/apps/rDock/src/rDock_2013.1_src/data/scripts/dock_solv.prm

>  <Rbt.Receptor>
prm/pocket_docking_8.prm

>  <SCORE>
-38.4725

>  <SCORE.INTER>
-33.569

>  <SCORE.INTER.CONST>
1

>  <SCORE.INTER.POLAR>
-0.959166

>  <SCORE.INTER.ROT>
3

>  <SCORE.INTER.SOLV>
10.4514

>  <SCORE.INTER.VDW>
-28.2659

>  <SCORE.INTER.norm>
-1.11897

>  <SCORE.INTRA>
-4.90349

>  <SCORE.INTRA.DIHEDRAL>
-7.25498

>  <SCORE.INTRA.DIHEDRAL.0>
9.41909

>  <SCORE.INTRA.POLAR>
0

>  <SCORE.INTRA.POLAR.0>
0

>  <SCORE.INTRA.REPUL>
0.0141529

>  <SCORE.INTRA.REPUL.0>
0

>  <SCORE.INTRA.SOLV>
-0.135216

>  <SCORE.INTRA.SOLV.lig_0>
-26.2491

>  <SCORE.INTRA.VDW>
-1.27916

>  <SCORE.INTRA.VDW.0>
2.57239

>  <SCORE.INTRA.norm>
-0.16345

>  <SCORE.RESTR>
0

>  <SCORE.RESTR.CAVITY>
0

>  <SCORE.RESTR.norm>
0

>  <SCORE.SYSTEM>
0

>  <SCORE.SYSTEM.CONST>
0

>  <SCORE.SYSTEM.DIHEDRAL>
0

>  <SCORE.SYSTEM.SOLV>
0

>  <SCORE.SYSTEM.norm>
0

>  <SCORE.heavy>
30

>  <SCORE.norm>
-1.28242

>  <RMSD>
0.772

$$$$
lig.pdb
 OpenBabel11021811523D
libRbt.so/2013.1/901 2013/11/27
 30 34  0  0  0  0  0  0  0  0999 V2000
   25.4989   38.2154   21.1549 N   0  0  0  0  0  0  0  0  0  0  0  0
   27.0697   41.6478   24.3578 N   0  0  0  0  0  0  0  0  0  0  0  0
   26.7218   37.4160   21.0322 C   0  0  0  0  0  0  0  0  0  0  0  0
   26.4264   36.5878   19.7908 C   0  0  2  0  0  0  0  0  0  0  0  0
   25.2777   39.0510   22.3298 C   0  0  0  0  0  0  0  0  0  0  0  0
   24.0900   39.0308   23.0893 C   0  0  0  0  0  0  0  0  0  0  0  0
   23.8675   39.8360   24.1783 C   0  0  0  0  0  0  0  0  0  0  0  0
   24.5835   41.6510   25.7361 C   0  0  0  0  0  0  0  0  0  0  0  0
   29.1853   42.4477   24.4415 C   0  0  0  0  0  0  0  0  0  0  0  0
   28.6008   40.4700   22.8704 C   0  0  0  0  0  0  0  0  0  0  0  0
   26.2866   39.9579   22.7609 C   0  0  0  0  0  0  0  0  0  0  0  0
   26.2020   44.5580   27.2984 O   0  0  0  0  0  0  0  0  0  0  0  0
   25.4668   43.5755   27.1794 C   0  0  0  0  0  0  0  0  0  0  0  0
   24.4691   43.3246   28.0183 O   0  0  0  0  0  0  0  0  0  0  0  0
   25.6778   42.5955   26.0810 C   0  0  1  0  0  0  0  0  0  0  0  0
   23.5298   41.5878   26.3786 O   0  0  0  0  0  0  0  0  0  0  0  0
   26.9054   42.5608   25.3969 C   0  0  0  0  0  0  0  0  0  0  0  0
   28.3714   41.5728   23.8428 C   0  0  0  0  0  0  0  0  0  0  0  0
   28.3990   43.3587   25.6634 S   0  0  0  0  0  0  0  0  0  0  0  0
   26.0671   40.7715   23.8955 C   0  0  0  0  0  0  0  0  0  0  0  0
   24.8487   40.7371   24.5912 C   0  0  0  0  0  0  0  0  0  0  0  0
   23.1192   38.1573   22.7545 F   0  0  0  0  0  0  0  0  0  0  0  0
   27.4757   40.1028   22.0293 N   0  0  0  0  0  0  0  0  0  0  0  0
   27.2699   40.9334   20.8620 C   0  0  0  0  0  0  0  0  0  0  0  0
   24.3871   37.6045   20.4352 C   0  0  0  0  0  0  0  0  0  0  0  0
   27.4196   36.7788   18.7824 O   0  0  0  0  0  0  0  0  0  0  0  0
   25.1298   37.1320   19.1967 C   0  0  2  0  0  0  0  0  0  0  0  0
   24.4906   36.0552   18.4167 N   0  0  0  0  0  0  0  0  0  0  0  0
   23.0374   36.2013   18.2158 C   0  0  0  0  0  0  0  0  0  0  0  0
   25.2004   35.7460   17.1660 C   0  0  0  0  0  0  0  0  0  0  0  0
  1  5  1  0  0  0  0
  2 17  1  0  0  0  0
  3  1  1  0  0  0  0
  4  3  1  0  0  0  0
  4 26  1  6  0  0  0
  5 11  2  0  0  0  0
  5  6  1  0  0  0  0
  6  7  2  0  0  0  0
  7 21  1  0  0  0  0
  8 15  1  0  0  0  0
  8 16  2  0  0  0  0
  9 19  1  0  0  0  0
 10 18  1  0  0  0  0
 11 20  1  0  0  0  0
 13 14  1  0  0  0  0
 13 12  2  0  0  0  0
 15 13  1  1  0  0  0
 17 19  2  0  0  0  0
 17 15  1  0  0  0  0
 18  2  1  0  0  0  0
 18  9  2  0  0  0  0
 20 21  2  0  0  0  0
 20  2  1  0  0  0  0
 21  8  1  0  0  0  0
 22  6  1  0  0  0  0
 23 11  1  0  0  0  0
 23 10  1  0  0  0  0
 24 23  1  0  0  0  0
 25  1  1  0  0  0  0
 27  4  1  0  0  0  0
 27 25  1  0  0  0  0
 27 28  1  1  0  0  0
 29 28  1  0  0  0  0
 30 28  1  0  0  0  0
M  END
>  <CHROM.1>
-129.79206576,-179.78209884,-163.33360926,63.08516277,157.22060711,25.90043768
40.07918050,23.00101000,1.69986772,-0.32191660,-2.24967698

>  <Name>
lig.pdb

>  <RI>
0

>  <Rbt.Current_Directory>
/home/itssahil/PROJECTS/Mol_Feturizer/New_Systems/rnas/6bfb

>  <Rbt.Executable>
rbdock ($Id: //depot/dev/client3/rdock/2013.1/src/exe/rbdock.cxx#4 $)

>  <Rbt.Library>
libRbt.so (2013.1, Build901 2013/11/27)

>  <Rbt.Parameter_File>
/export/apps/rDock/src/rDock_2013.1_src/data/scripts/dock_solv.prm

>  <Rbt.Receptor>
prm/pocket_docking_2.prm

>  <SCORE>
-33.7835

>  <SCORE.INTER>
-31.0534

>  <SCORE.INTER.CONST>
1

>  <SCORE.INTER.POLAR>
0

>  <SCORE.INTER.ROT>
3

>  <SCORE.INTER.SOLV>
10.7923

>  <SCORE.INTER.VDW>
-29.8997

>  <SCORE.INTER.norm>
-1.03511

>  <SCORE.INTRA>
-2.73015

>  <SCORE.INTRA.DIHEDRAL>
-7.26352

>  <SCORE.INTRA.DIHEDRAL.0>
9.41909

>  <SCORE.INTRA.POLAR>
0

>  <SCORE.INTRA.POLAR.0>
0

>  <SCORE.INTRA.REPUL>
0.00512692

>  <SCORE.INTRA.REPUL.0>
0

>  <SCORE.INTRA.SOLV>
-0.0311976

>  <SCORE.INTRA.SOLV.lig_0>
-26.2491

>  <SCORE.INTRA.VDW>
0.891569

>  <SCORE.INTRA.VDW.0>
2.57239

>  <SCORE.INTRA.norm>
-0.0910052

>  <SCORE.RESTR>
0

>  <SCORE.RESTR.CAVITY>
0

>  <SCORE.RESTR.norm>
0

>  <SCORE.SYSTEM>
0

>  <SCORE.SYSTEM.CONST>
0

>  <SCORE.SYSTEM.DIHEDRAL>
0

>  <SCORE.SYSTEM.SOLV>
0

>  <SCORE.SYSTEM.norm>
0

>  <SCORE.heavy>
30

>  <SCORE.norm>
-1.12612

>  <RMSD>
0.773

$$$$
lig.pdb
 OpenBabel11021811523D
libRbt.so/2013.1/901 2013/11/27
 30 34  0  0  0  0  0  0  0  0999 V2000
   25.5452   38.3033   21.1261 N   0  0  0  0  0  0  0  0  0  0  0  0
   27.0428   41.9182   24.1587 N   0  0  0  0  0  0  0  0  0  0  0  0
   26.7858   37.5346   20.9857 C   0  0  0  0  0  0  0  0  0  0  0  0
   26.4825   36.6788   19.7651 C   0  0  2  0  0  0  0  0  0  0  0  0
   25.3303   39.1516   22.2930 C   0  0  0  0  0  0  0  0  0  0  0  0
   24.1905   39.0688   23.1187 C   0  0  0  0  0  0  0  0  0  0  0  0
   23.9717   39.8846   24.2006 C   0  0  0  0  0  0  0  0  0  0  0  0
   24.6420   41.7848   25.6751 C   0  0  0  0  0  0  0  0  0  0  0  0
   29.0979   42.8648   24.1049 C   0  0  0  0  0  0  0  0  0  0  0  0
   28.5694   40.8112   22.6133 C   0  0  0  0  0  0  0  0  0  0  0  0
   26.2947   40.1372   22.6462 C   0  0  0  0  0  0  0  0  0  0  0  0
   26.2606   43.8980   27.9603 O   0  0  0  0  0  0  0  0  0  0  0  0
   25.4649   43.8027   27.0233 C   0  0  0  0  0  0  0  0  0  0  0  0
   24.3730   44.5523   26.9347 O   0  0  0  0  0  0  0  0  0  0  0  0
   25.6841   42.8115   25.9365 C   0  0  1  0  0  0  0  0  0  0  0  0
   23.6324   41.6653   26.3774 O   0  0  0  0  0  0  0  0  0  0  0  0
   26.8717   42.8443   25.1850 C   0  0  0  0  0  0  0  0  0  0  0  0
   28.3164   41.9203   23.5726 C   0  0  0  0  0  0  0  0  0  0  0  0
   28.3175   43.7505   25.3490 S   0  0  0  0  0  0  0  0  0  0  0  0
   26.0808   40.9628   23.7732 C   0  0  0  0  0  0  0  0  0  0  0  0
   24.9080   40.8621   24.5373 C   0  0  0  0  0  0  0  0  0  0  0  0
   23.2669   38.1217   22.8588 F   0  0  0  0  0  0  0  0  0  0  0  0
   27.4286   40.3452   21.8455 N   0  0  0  0  0  0  0  0  0  0  0  0
   27.1009   41.1290   20.6738 C   0  0  0  0  0  0  0  0  0  0  0  0
   24.4330   37.6515   20.4438 C   0  0  0  0  0  0  0  0  0  0  0  0
   27.4455   36.8796   18.7295 O   0  0  0  0  0  0  0  0  0  0  0  0
   25.1577   37.1788   19.1949 C   0  0  2  0  0  0  0  0  0  0  0  0
   24.5289   36.0728   18.4478 N   0  0  0  0  0  0  0  0  0  0  0  0
   23.0682   36.1783   18.2787 C   0  0  0  0  0  0  0  0  0  0  0  0
   25.2175   35.7606   17.1861 C   0  0  0  0  0  0  0  0  0  0  0  0
  1  5  1  0  0  0  0
  2 17  1  0  0  0  0
  3  1  1  0  0  0  0
  4  3  1  0  0  0  0
  4 26  1  6  0  0  0
  5 11  2  0  0  0  0
  5  6  1  0  0  0  0
  6  7  2  0  0  0  0
  7 21  1  0  0  0  0
  8 15  1  0  0  0  0
  8 16  2  0  0  0  0
  9 19  1  0  0  0  0
 10 18  1  0  0  0  0
 11 20  1  0  0  0  0
 13 14  1  0  0  0  0
 13 12  2  0  0  0  0
 15 13  1  1  0  0  0
 17 19  2  0  0  0  0
 17 15  1  0  0  0  0
 18  2  1  0  0  0  0
 18  9  2  0  0  0  0
 20 21  2  0  0  0  0
 20  2  1  0  0  0  0
 21  8  1  0  0  0  0
 22  6  1  0  0  0  0
 23 11  1  0  0  0  0
 23 10  1  0  0  0  0
 24 23  1  0  0  0  0
 25  1  1  0  0  0  0
 27  4  1  0  0  0  0
 27 25  1  0  0  0  0
 27 28  1  1  0  0  0
 29 28  1  0  0  0  0
 30 28  1  0  0  0  0
M  END
>  <CHROM.1>
-126.69023963,-0.25908055,121.38403816,61.85206082,157.32355711,25.91256737
40.25325654,22.89671915,1.69487953,-0.37344325,-2.27852130

>  <Name>
lig.pdb

>  <RI>
0

>  <Rbt.Current_Directory>
/home/itssahil/PROJECTS/Mol_Feturizer/New_Systems/rnas/6bfb

>  <Rbt.Executable>
rbdock ($Id: //depot/dev/client3/rdock/2013.1/src/exe/rbdock.cxx#4 $)

>  <Rbt.Library>
libRbt.so (2013.1, Build901 2013/11/27)

>  <Rbt.Parameter_File>
/export/apps/rDock/src/rDock_2013.1_src/data/scripts/dock_solv.prm

>  <Rbt.Receptor>
prm/pocket_docking_2.prm

>  <SCORE>
-36.1459

>  <SCORE.INTER>
-31.2637

>  <SCORE.INTER.CONST>
1

>  <SCORE.INTER.POLAR>
0

>  <SCORE.INTER.ROT>
3

>  <SCORE.INTER.SOLV>
10.332

>  <SCORE.INTER.VDW>
-29.8865

>  <SCORE.INTER.norm>
-1.04212

>  <SCORE.INTRA>
-4.88222

>  <SCORE.INTRA.DIHEDRAL>
-7.30532

>  <SCORE.INTRA.DIHEDRAL.0>
9.41909

>  <SCORE.INTRA.POLAR>
0

>  <SCORE.INTRA.POLAR.0>
0

>  <SCORE.INTRA.REPUL>
0.0132867

>  <SCORE.INTRA.REPUL.0>
0

>  <SCORE.INTRA.SOLV>
-0.135577

>  <SCORE.INTRA.SOLV.lig_0>
-26.2491

>  <SCORE.INTRA.VDW>
-1.2282

>  <SCORE.INTRA.VDW.0>
2.57239

>  <SCORE.INTRA.norm>
-0.162741

>  <SCORE.RESTR>
0

>  <SCORE.RESTR.CAVITY>
0

>  <SCORE.RESTR.norm>
0

>  <SCORE.SYSTEM>
0

>  <SCORE.SYSTEM.CONST>
0

>  <SCORE.SYSTEM.DIHEDRAL>
0

>  <SCORE.SYSTEM.SOLV>
0

>  <SCORE.SYSTEM.norm>
0

>  <SCORE.heavy>
30

>  <SCORE.norm>
-1.20486

>  <RMSD>
0.775

$$$$
lig.pdb
 OpenBabel11021811523D
libRbt.so/2013.1/901 2013/11/27
 30 34  0  0  0  0  0  0  0  0999 V2000
   25.7325   38.5610   21.2225 N   0  0  0  0  0  0  0  0  0  0  0  0
   26.8968   42.0833   24.5005 N   0  0  0  0  0  0  0  0  0  0  0  0
   26.8902   37.6616   21.2082 C   0  0  0  0  0  0  0  0  0  0  0  0
   26.7060   36.9419   19.8806 C   0  0  2  0  0  0  0  0  0  0  0  0
   25.4170   39.3396   22.4149 C   0  0  0  0  0  0  0  0  0  0  0  0
   24.2408   39.1647   23.1725 C   0  0  0  0  0  0  0  0  0  0  0  0
   23.9275   39.9148   24.2784 C   0  0  0  0  0  0  0  0  0  0  0  0
   24.4292   41.7670   25.8758 C   0  0  0  0  0  0  0  0  0  0  0  0
   28.9049   43.1223   24.6038 C   0  0  0  0  0  0  0  0  0  0  0  0
   28.5527   41.1243   22.9898 C   0  0  0  0  0  0  0  0  0  0  0  0
   26.3139   40.3484   22.8666 C   0  0  0  0  0  0  0  0  0  0  0  0
   25.4445   43.4966   28.5127 O   0  0  0  0  0  0  0  0  0  0  0  0
   25.0841   43.7498   27.3612 C   0  0  0  0  0  0  0  0  0  0  0  0
   24.3835   44.8348   27.0546 O   0  0  0  0  0  0  0  0  0  0  0  0
   25.4064   42.8249   26.2421 C   0  0  1  0  0  0  0  0  0  0  0  0
   23.3910   41.5675   26.5156 O   0  0  0  0  0  0  0  0  0  0  0  0
   26.6287   42.9483   25.5588 C   0  0  0  0  0  0  0  0  0  0  0  0
   28.1978   42.1717   23.9855 C   0  0  0  0  0  0  0  0  0  0  0  0
   28.0195   43.9090   25.8442 S   0  0  0  0  0  0  0  0  0  0  0  0
   26.0026   41.1063   24.0183 C   0  0  0  0  0  0  0  0  0  0  0  0
   24.7975   40.9151   24.7116 C   0  0  0  0  0  0  0  0  0  0  0  0
   23.3779   38.1915   22.8179 F   0  0  0  0  0  0  0  0  0  0  0  0
   27.4770   40.6466   22.1397 N   0  0  0  0  0  0  0  0  0  0  0  0
   27.1742   41.4726   20.9904 C   0  0  0  0  0  0  0  0  0  0  0  0
   24.6870   38.1003   20.3158 C   0  0  0  0  0  0  0  0  0  0  0  0
   27.8442   37.1024   19.0329 O   0  0  0  0  0  0  0  0  0  0  0  0
   25.5559   37.6386   19.1580 C   0  0  2  0  0  0  0  0  0  0  0  0
   24.9468   36.6750   18.2214 N   0  0  0  0  0  0  0  0  0  0  0  0
   25.7522   36.3640   17.0264 C   0  0  0  0  0  0  0  0  0  0  0  0
   24.4384   35.4645   18.8846 C   0  0  0  0  0  0  0  0  0  0  0  0
  1  5  1  0  0  0  0
  2 17  1  0  0  0  0
  3  1  1  0  0  0  0
  4  3  1  0  0  0  0
  4 26  1  6  0  0  0
  5 11  2  0  0  0  0
  5  6  1  0  0  0  0
  6  7  2  0  0  0  0
  7 21  1  0  0  0  0
  8 15  1  0  0  0  0
  8 16  2  0  0  0  0
  9 19  1  0  0  0  0
 10 18  1  0  0  0  0
 11 20  1  0  0  0  0
 13 14  1  0  0  0  0
 13 12  2  0  0  0  0
 15 13  1  1  0  0  0
 17 19  2  0  0  0  0
 17 15  1  0  0  0  0
 18  2  1  0  0  0  0
 18  9  2  0  0  0  0
 20 21  2  0  0  0  0
 20  2  1  0  0  0  0
 21  8  1  0  0  0  0
 22  6  1  0  0  0  0
 23 11  1  0  0  0  0
 23 10  1  0  0  0  0
 24 23  1  0  0  0  0
 25  1  1  0  0  0  0
 27  4  1  0  0  0  0
 27 25  1  0  0  0  0
 27 28  1  6  0  0  0
 29 28  1  0  0  0  0
 30 28  1  0  0  0  0
M  END
>  <CHROM.1>
-115.36918012,167.95531029,92.11449986,62.96271389,-72.51445411,25.94416056
40.40552319,23.11601838,1.60505401,-0.41648917,-2.27742780

>  <Name>
lig.pdb

>  <RI>
0

>  <Rbt.Current_Directory>
/home/itssahil/PROJECTS/Mol_Feturizer/New_Systems/rnas/6bfb

>  <Rbt.Executable>
rbdock ($Id: //depot/dev/client3/rdock/2013.1/src/exe/rbdock.cxx#4 $)

>  <Rbt.Library>
libRbt.so (2013.1, Build901 2013/11/27)

>  <Rbt.Parameter_File>
/export/apps/rDock/src/rDock_2013.1_src/data/scripts/dock_solv.prm

>  <Rbt.Receptor>
prm/pocket_docking_2.prm

>  <SCORE>
-37.0477

>  <SCORE.INTER>
-33.2838

>  <SCORE.INTER.CONST>
1

>  <SCORE.INTER.POLAR>
-0.725534

>  <SCORE.INTER.ROT>
3

>  <SCORE.INTER.SOLV>
10.9364

>  <SCORE.INTER.VDW>
-29.0162

>  <SCORE.INTER.norm>
-1.10946

>  <SCORE.INTRA>
-3.76998

>  <SCORE.INTRA.DIHEDRAL>
-6.53346

>  <SCORE.INTRA.DIHEDRAL.0>
9.41909

>  <SCORE.INTRA.POLAR>
0

>  <SCORE.INTRA.POLAR.0>
0

>  <SCORE.INTRA.REPUL>
0.0420444

>  <SCORE.INTRA.REPUL.0>
0

>  <SCORE.INTRA.SOLV>
-0.0732185

>  <SCORE.INTRA.SOLV.lig_0>
-26.2491

>  <SCORE.INTRA.VDW>
-0.676856

>  <SCORE.INTRA.VDW.0>
2.57239

>  <SCORE.INTRA.norm>
-0.125666

>  <SCORE.RESTR>
0.00600713

>  <SCORE.RESTR.CAVITY>
0.00600713

>  <SCORE.RESTR.norm>
0.000200238

>  <SCORE.SYSTEM>
0

>  <SCORE.SYSTEM.CONST>
0

>  <SCORE.SYSTEM.DIHEDRAL>
0

>  <SCORE.SYSTEM.SOLV>
0

>  <SCORE.SYSTEM.norm>
0

>  <SCORE.heavy>
30

>  <SCORE.norm>
-1.23492

>  <RMSD>
0.777

$$$$
lig.pdb
 OpenBabel11021811523D
libRbt.so/2013.1/901 2013/11/27
 30 34  0  0  0  0  0  0  0  0999 V2000
   25.7398   38.5552   21.2239 N   0  0  0  0  0  0  0  0  0  0  0  0
   26.8978   42.0842   24.4969 N   0  0  0  0  0  0  0  0  0  0  0  0
   26.9236   37.6906   21.1950 C   0  0  0  0  0  0  0  0  0  0  0  0
   26.7364   36.9543   19.8770 C   0  0  2  0  0  0  0  0  0  0  0  0
   25.4234   39.3342   22.4157 C   0  0  0  0  0  0  0  0  0  0  0  0
   24.2484   39.1570   23.1745 C   0  0  0  0  0  0  0  0  0  0  0  0
   23.9340   39.9076   24.2799 C   0  0  0  0  0  0  0  0  0  0  0  0
   24.4323   41.7628   25.8748 C   0  0  0  0  0  0  0  0  0  0  0  0
   28.9032   43.1286   24.5972 C   0  0  0  0  0  0  0  0  0  0  0  0
   28.5549   41.1279   22.9857 C   0  0  0  0  0  0  0  0  0  0  0  0
   26.3180   40.3459   22.8655 C   0  0  0  0  0  0  0  0  0  0  0  0
   25.4420   43.4961   28.5095 O   0  0  0  0  0  0  0  0  0  0  0  0
   25.0833   43.7490   27.3574 C   0  0  0  0  0  0  0  0  0  0  0  0
   24.3833   44.8340   27.0495 O   0  0  0  0  0  0  0  0  0  0  0  0
   25.4070   42.8238   26.2390 C   0  0  1  0  0  0  0  0  0  0  0  0
   23.3952   41.5613   26.5157 O   0  0  0  0  0  0  0  0  0  0  0  0
   26.6284   42.9496   25.5545 C   0  0  0  0  0  0  0  0  0  0  0  0
   28.1981   42.1754   23.9806 C   0  0  0  0  0  0  0  0  0  0  0  0
   28.0168   43.9143   25.8376 S   0  0  0  0  0  0  0  0  0  0  0  0
   26.0058   41.1042   24.0166 C   0  0  0  0  0  0  0  0  0  0  0  0
   24.8018   40.9106   24.7113 C   0  0  0  0  0  0  0  0  0  0  0  0
   23.3877   38.1811   22.8218 F   0  0  0  0  0  0  0  0  0  0  0  0
   27.4797   40.6464   22.1371 N   0  0  0  0  0  0  0  0  0  0  0  0
   27.1736   41.4703   20.9872 C   0  0  0  0  0  0  0  0  0  0  0  0
   24.6920   38.0557   20.3408 C   0  0  0  0  0  0  0  0  0  0  0  0
   27.8533   37.1414   19.0067 O   0  0  0  0  0  0  0  0  0  0  0  0
   25.5526   37.6101   19.1706 C   0  0  2  0  0  0  0  0  0  0  0  0
   24.9554   36.6208   18.2534 N   0  0  0  0  0  0  0  0  0  0  0  0
   25.7373   36.3393   17.0357 C   0  0  0  0  0  0  0  0  0  0  0  0
   24.5154   35.3925   18.9327 C   0  0  0  0  0  0  0  0  0  0  0  0
  1  5  1  0  0  0  0
  2 17  1  0  0  0  0
  3  1  1  0  0  0  0
  4  3  1  0  0  0  0
  4 26  1  6  0  0  0
  5 11  2  0  0  0  0
  5  6  1  0  0  0  0
  6  7  2  0  0  0  0
  7 21  1  0  0  0  0
  8 15  1  0  0  0  0
  8 16  2  0  0  0  0
  9 19  1  0  0  0  0
 10 18  1  0  0  0  0
 11 20  1  0  0  0  0
 13 14  1  0  0  0  0
 13 12  2  0  0  0  0
 15 13  1  1  0  0  0
 17 19  2  0  0  0  0
 17 15  1  0  0  0  0
 18  2  1  0  0  0  0
 18  9  2  0  0  0  0
 20 21  2  0  0  0  0
 20  2  1  0  0  0  0
 21  8  1  0  0  0  0
 22  6  1  0  0  0  0
 23 11  1  0  0  0  0
 23 10  1  0  0  0  0
 24 23  1  0  0  0  0
 25  1  1  0  0  0  0
 27  4  1  0  0  0  0
 27 25  1  0  0  0  0
 27 28  1  6  0  0  0
 29 28  1  0  0  0  0
 30 28  1  0  0  0  0
M  END
>  <CHROM.1>
-117.28080299,167.40977719,91.90277316,-58.08682978,-73.42694351,25.94906628
40.40310647,23.11558402,1.60415082,-0.42542212,-2.27911980

>  <Name>
lig.pdb

>  <RI>
0

>  <Rbt.Current_Directory>
/home/itssahil/PROJECTS/Mol_Feturizer/New_Systems/rnas/6bfb

>  <Rbt.Executable>
rbdock ($Id: //depot/dev/client3/rdock/2013.1/src/exe/rbdock.cxx#4 $)

>  <Rbt.Library>
libRbt.so (2013.1, Build901 2013/11/27)

>  <Rbt.Parameter_File>
/export/apps/rDock/src/rDock_2013.1_src/data/scripts/dock_solv.prm

>  <Rbt.Receptor>
prm/pocket_docking_2.prm

>  <SCORE>
-36.3696

>  <SCORE.INTER>
-33.0639

>  <SCORE.INTER.CONST>
1

>  <SCORE.INTER.POLAR>
-0.737131

>  <SCORE.INTER.ROT>
3

>  <SCORE.INTER.SOLV>
10.8024

>  <SCORE.INTER.VDW>
-28.7863

>  <SCORE.INTER.norm>
-1.10213

>  <SCORE.INTRA>
-3.30907

>  <SCORE.INTRA.DIHEDRAL>
-6.44303

>  <SCORE.INTRA.DIHEDRAL.0>
9.41909

>  <SCORE.INTRA.POLAR>
0

>  <SCORE.INTRA.POLAR.0>
0

>  <SCORE.INTRA.REPUL>
0.0373287

>  <SCORE.INTRA.REPUL.0>
0

>  <SCORE.INTRA.SOLV>
-0.048951

>  <SCORE.INTRA.SOLV.lig_0>
-26.2491

>  <SCORE.INTRA.VDW>
-0.249724

>  <SCORE.INTRA.VDW.0>
2.57239

>  <SCORE.INTRA.norm>
-0.110302

>  <SCORE.RESTR>
0.0033122

>  <SCORE.RESTR.CAVITY>
0.0033122

>  <SCORE.RESTR.norm>
0.000110407

>  <SCORE.SYSTEM>
0

>  <SCORE.SYSTEM.CONST>
0

>  <SCORE.SYSTEM.DIHEDRAL>
0

>  <SCORE.SYSTEM.SOLV>
0

>  <SCORE.SYSTEM.norm>
0

>  <SCORE.heavy>
30

>  <SCORE.norm>
-1.21232

>  <RMSD>
0.777

$$$$
lig.pdb
 OpenBabel11021811523D
libRbt.so/2013.1/901 2013/11/27
 30 34  0  0  0  0  0  0  0  0999 V2000
   25.5286   38.3127   21.1533 N   0  0  0  0  0  0  0  0  0  0  0  0
   27.0064   41.9282   24.1949 N   0  0  0  0  0  0  0  0  0  0  0  0
   26.7821   37.5674   21.0028 C   0  0  0  0  0  0  0  0  0  0  0  0
   26.4843   36.7044   19.7859 C   0  0  2  0  0  0  0  0  0  0  0  0
   25.3080   39.1585   22.3210 C   0  0  0  0  0  0  0  0  0  0  0  0
   24.1666   39.0703   23.1440 C   0  0  0  0  0  0  0  0  0  0  0  0
   23.9425   39.8836   24.2267 C   0  0  0  0  0  0  0  0  0  0  0  0
   24.6028   41.7838   25.7056 C   0  0  0  0  0  0  0  0  0  0  0  0
   29.0583   42.8821   24.1472 C   0  0  0  0  0  0  0  0  0  0  0  0
   28.5404   40.8291   22.6513 C   0  0  0  0  0  0  0  0  0  0  0  0
   26.2681   40.1469   22.6780 C   0  0  0  0  0  0  0  0  0  0  0  0
   26.1826   43.8667   28.0219 O   0  0  0  0  0  0  0  0  0  0  0  0
   25.4154   43.8025   27.0589 C   0  0  0  0  0  0  0  0  0  0  0  0
   24.3496   44.5849   26.9417 O   0  0  0  0  0  0  0  0  0  0  0  0
   25.6406   42.8138   25.9711 C   0  0  1  0  0  0  0  0  0  0  0  0
   23.5919   41.6596   26.4055 O   0  0  0  0  0  0  0  0  0  0  0  0
   26.8297   42.8520   25.2223 C   0  0  0  0  0  0  0  0  0  0  0  0
   28.2813   41.9357   23.6117 C   0  0  0  0  0  0  0  0  0  0  0  0
   28.2719   43.7631   25.3910 S   0  0  0  0  0  0  0  0  0  0  0  0
   26.0488   40.9700   23.8058 C   0  0  0  0  0  0  0  0  0  0  0  0
   24.8746   40.8638   24.5670 C   0  0  0  0  0  0  0  0  0  0  0  0
   23.2470   38.1204   22.8805 F   0  0  0  0  0  0  0  0  0  0  0  0
   27.4031   40.3602   21.8801 N   0  0  0  0  0  0  0  0  0  0  0  0
   27.0752   41.1447   20.7089 C   0  0  0  0  0  0  0  0  0  0  0  0
   24.4228   37.6391   20.4817 C   0  0  0  0  0  0  0  0  0  0  0  0
   27.4340   36.9219   18.7416 O   0  0  0  0  0  0  0  0  0  0  0  0
   25.1453   37.1785   19.2269 C   0  0  2  0  0  0  0  0  0  0  0  0
   24.5309   36.0598   18.4868 N   0  0  0  0  0  0  0  0  0  0  0  0
   23.0638   36.1226   18.3557 C   0  0  0  0  0  0  0  0  0  0  0  0
   25.1960   35.7781   17.2054 C   0  0  0  0  0  0  0  0  0  0  0  0
  1  5  1  0  0  0  0
  2 17  1  0  0  0  0
  3  1  1  0  0  0  0
  4  3  1  0  0  0  0
  4 26  1  6  0  0  0
  5 11  2  0  0  0  0
  5  6  1  0  0  0  0
  6  7  2  0  0  0  0
  7 21  1  0  0  0  0
  8 15  1  0  0  0  0
  8 16  2  0  0  0  0
  9 19  1  0  0  0  0
 10 18  1  0  0  0  0
 11 20  1  0  0  0  0
 13 14  1  0  0  0  0
 13 12  2  0  0  0  0
 15 13  1  1  0  0  0
 17 19  2  0  0  0  0
 17 15  1  0  0  0  0
 18  2  1  0  0  0  0
 18  9  2  0  0  0  0
 20 21  2  0  0  0  0
 20  2  1  0  0  0  0
 21  8  1  0  0  0  0
 22  6  1  0  0  0  0
 23 11  1  0  0  0  0
 23 10  1  0  0  0  0
 24 23  1  0  0  0  0
 25  1  1  0  0  0  0
 27  4  1  0  0  0  0
 27 25  1  0  0  0  0
 27 28  1  1  0  0  0
 29 28  1  0  0  0  0
 30 28  1  0  0  0  0
M  END
>  <CHROM.1>
-127.78943000,0.64292367,118.78689750,-58.89641767,156.06189987,25.88266508
40.26245261,22.92811796,1.69240759,-0.38138969,-2.27758327

>  <Name>
lig.pdb

>  <RI>
0

>  <Rbt.Current_Directory>
/home/itssahil/PROJECTS/Mol_Feturizer/New_Systems/rnas/6bfb

>  <Rbt.Executable>
rbdock ($Id: //depot/dev/client3/rdock/2013.1/src/exe/rbdock.cxx#4 $)

>  <Rbt.Library>
libRbt.so (2013.1, Build901 2013/11/27)

>  <Rbt.Parameter_File>
/export/apps/rDock/src/rDock_2013.1_src/data/scripts/dock_solv.prm

>  <Rbt.Receptor>
prm/pocket_docking_2.prm

>  <SCORE>
-35.6942

>  <SCORE.INTER>
-31.2195

>  <SCORE.INTER.CONST>
1

>  <SCORE.INTER.POLAR>
0

>  <SCORE.INTER.ROT>
3

>  <SCORE.INTER.SOLV>
10.2884

>  <SCORE.INTER.VDW>
-29.8425

>  <SCORE.INTER.norm>
-1.04065

>  <SCORE.INTRA>
-4.4747

>  <SCORE.INTRA.DIHEDRAL>
-7.25844

>  <SCORE.INTRA.DIHEDRAL.0>
9.41909

>  <SCORE.INTRA.POLAR>
0

>  <SCORE.INTRA.POLAR.0>
0

>  <SCORE.INTRA.REPUL>
0.010406

>  <SCORE.INTRA.REPUL.0>
0

>  <SCORE.INTRA.SOLV>
-0.119318

>  <SCORE.INTRA.SOLV.lig_0>
-26.2491

>  <SCORE.INTRA.VDW>
-0.837849

>  <SCORE.INTRA.VDW.0>
2.57239

>  <SCORE.INTRA.norm>
-0.149157

>  <SCORE.RESTR>
0

>  <SCORE.RESTR.CAVITY>
0

>  <SCORE.RESTR.norm>
0

>  <SCORE.SYSTEM>
0

>  <SCORE.SYSTEM.CONST>
0

>  <SCORE.SYSTEM.DIHEDRAL>
0

>  <SCORE.SYSTEM.SOLV>
0

>  <SCORE.SYSTEM.norm>
0

>  <SCORE.heavy>
30

>  <SCORE.norm>
-1.18981

>  <RMSD>
0.777

$$$$
lig.pdb
 OpenBabel11021811523D
libRbt.so/2013.1/901 2013/11/27
 30 34  0  0  0  0  0  0  0  0999 V2000
   25.7734   38.5545   21.2297 N   0  0  0  0  0  0  0  0  0  0  0  0
   26.9166   42.0933   24.4973 N   0  0  0  0  0  0  0  0  0  0  0  0
   26.9187   37.6391   21.2295 C   0  0  0  0  0  0  0  0  0  0  0  0
   26.7425   36.9241   19.8984 C   0  0  2  0  0  0  0  0  0  0  0  0
   25.4527   39.3356   22.4191 C   0  0  0  0  0  0  0  0  0  0  0  0
   24.2763   39.1576   23.1756 C   0  0  0  0  0  0  0  0  0  0  0  0
   23.9579   39.9100   24.2786 C   0  0  0  0  0  0  0  0  0  0  0  0
   24.4486   41.7699   25.8703 C   0  0  0  0  0  0  0  0  0  0  0  0
   28.9196   43.1423   24.5997 C   0  0  0  0  0  0  0  0  0  0  0  0
   28.5791   41.1371   22.9920 C   0  0  0  0  0  0  0  0  0  0  0  0
   26.3441   40.3502   22.8685 C   0  0  0  0  0  0  0  0  0  0  0  0
   25.4453   43.5092   28.5040 O   0  0  0  0  0  0  0  0  0  0  0  0
   25.0921   43.7608   27.3499 C   0  0  0  0  0  0  0  0  0  0  0  0
   24.3945   44.8459   27.0372 O   0  0  0  0  0  0  0  0  0  0  0  0
   25.4204   42.8337   26.2344 C   0  0  1  0  0  0  0  0  0  0  0  0
   23.4105   41.5676   26.5094 O   0  0  0  0  0  0  0  0  0  0  0  0
   26.6430   42.9606   25.5523 C   0  0  0  0  0  0  0  0  0  0  0  0
   28.2178   42.1861   23.9837 C   0  0  0  0  0  0  0  0  0  0  0  0
   28.0287   43.9289   25.8363 S   0  0  0  0  0  0  0  0  0  0  0  0
   26.0277   41.1104   24.0172 C   0  0  0  0  0  0  0  0  0  0  0  0
   24.8226   40.9159   24.7096 C   0  0  0  0  0  0  0  0  0  0  0  0
   23.4185   38.1791   22.8232 F   0  0  0  0  0  0  0  0  0  0  0  0
   27.5068   40.6515   22.1421 N   0  0  0  0  0  0  0  0  0  0  0  0
   27.2016   41.4721   20.9896 C   0  0  0  0  0  0  0  0  0  0  0  0
   24.7341   38.1098   20.3081 C   0  0  0  0  0  0  0  0  0  0  0  0
   27.8943   37.0700   19.0664 O   0  0  0  0  0  0  0  0  0  0  0  0
   25.6121   37.6377   19.1614 C   0  0  2  0  0  0  0  0  0  0  0  0
   25.0024   36.6841   18.2150 N   0  0  0  0  0  0  0  0  0  0  0  0
   25.7653   36.4538   16.9748 C   0  0  0  0  0  0  0  0  0  0  0  0
   24.5761   35.4284   18.8516 C   0  0  0  0  0  0  0  0  0  0  0  0
  1  5  1  0  0  0  0
  2 17  1  0  0  0  0
  3  1  1  0  0  0  0
  4  3  1  0  0  0  0
  4 26  1  6  0  0  0
  5 11  2  0  0  0  0
  5  6  1  0  0  0  0
  6  7  2  0  0  0  0
  7 21  1  0  0  0  0
  8 15  1  0  0  0  0
  8 16  2  0  0  0  0
  9 19  1  0  0  0  0
 10 18  1  0  0  0  0
 11 20  1  0  0  0  0
 13 14  1  0  0  0  0
 13 12  2  0  0  0  0
 15 13  1  1  0  0  0
 17 19  2  0  0  0  0
 17 15  1  0  0  0  0
 18  2  1  0  0  0  0
 18  9  2  0  0  0  0
 20 21  2  0  0  0  0
 20  2  1  0  0  0  0
 21  8  1  0  0  0  0
 22  6  1  0  0  0  0
 23 11  1  0  0  0  0
 23 10  1  0  0  0  0
 24 23  1  0  0  0  0
 25  1  1  0  0  0  0
 27  4  1  0  0  0  0
 27 25  1  0  0  0  0
 27 28  1  6  0  0  0
 29 28  1  0  0  0  0
 30 28  1  0  0  0  0
M  END
>  <CHROM.1>
-114.06013521,169.36347899,91.67908879,162.54105964,-77.62907784,25.97247415
40.40897702,23.11033921,1.60038563,-0.42190673,-2.27969001

>  <Name>
lig.pdb

>  <RI>
0

>  <Rbt.Current_Directory>
/home/itssahil/PROJECTS/Mol_Feturizer/New_Systems/rnas/6bfb

>  <Rbt.Executable>
rbdock ($Id: //depot/dev/client3/rdock/2013.1/src/exe/rbdock.cxx#4 $)

>  <Rbt.Library>
libRbt.so (2013.1, Build901 2013/11/27)

>  <Rbt.Parameter_File>
/export/apps/rDock/src/rDock_2013.1_src/data/scripts/dock_solv.prm

>  <Rbt.Receptor>
prm/pocket_docking_2.prm

>  <SCORE>
-35.1828

>  <SCORE.INTER>
-32.5892

>  <SCORE.INTER.CONST>
1

>  <SCORE.INTER.POLAR>
-0.700307

>  <SCORE.INTER.ROT>
3

>  <SCORE.INTER.SOLV>
10.9289

>  <SCORE.INTER.VDW>
-28.6347

>  <SCORE.INTER.norm>
-1.08631

>  <SCORE.INTRA>
-2.59357

>  <SCORE.INTRA.DIHEDRAL>
-5.28523

>  <SCORE.INTRA.DIHEDRAL.0>
9.41909

>  <SCORE.INTRA.POLAR>
0

>  <SCORE.INTRA.POLAR.0>
0

>  <SCORE.INTRA.REPUL>
0.0452329

>  <SCORE.INTRA.REPUL.0>
0

>  <SCORE.INTRA.SOLV>
-0.0596339

>  <SCORE.INTRA.SOLV.lig_0>
-26.2491

>  <SCORE.INTRA.VDW>
-0.147298

>  <SCORE.INTRA.VDW.0>
2.57239

>  <SCORE.INTRA.norm>
-0.0864522

>  <SCORE.RESTR>
0

>  <SCORE.RESTR.CAVITY>
0

>  <SCORE.RESTR.norm>
0

>  <SCORE.SYSTEM>
0

>  <SCORE.SYSTEM.CONST>
0

>  <SCORE.SYSTEM.DIHEDRAL>
0

>  <SCORE.SYSTEM.SOLV>
0

>  <SCORE.SYSTEM.norm>
0

>  <SCORE.heavy>
30

>  <SCORE.norm>
-1.17276

>  <RMSD>
0.781

$$$$
lig.pdb
 OpenBabel11021811523D
libRbt.so/2013.1/901 2013/11/27
 30 34  0  0  0  0  0  0  0  0999 V2000
   25.5773   38.3806   21.2819 N   0  0  0  0  0  0  0  0  0  0  0  0
   26.9906   41.9046   24.4585 N   0  0  0  0  0  0  0  0  0  0  0  0
   26.8473   37.6644   21.1279 C   0  0  0  0  0  0  0  0  0  0  0  0
   26.5785   36.8209   19.8907 C   0  0  2  0  0  0  0  0  0  0  0  0
   25.3288   39.1971   22.4646 C   0  0  0  0  0  0  0  0  0  0  0  0
   24.1637   39.0958   23.2521 C   0  0  0  0  0  0  0  0  0  0  0  0
   23.9138   39.8822   24.3489 C   0  0  0  0  0  0  0  0  0  0  0  0
   24.5436   41.7383   25.8956 C   0  0  0  0  0  0  0  0  0  0  0  0
   29.0492   42.8446   24.4946 C   0  0  0  0  0  0  0  0  0  0  0  0
   28.5612   40.8350   22.9310 C   0  0  0  0  0  0  0  0  0  0  0  0
   26.2846   40.1689   22.8747 C   0  0  0  0  0  0  0  0  0  0  0  0
   26.0451   44.7088   27.4701 O   0  0  0  0  0  0  0  0  0  0  0  0
   25.3301   43.7150   27.3241 C   0  0  0  0  0  0  0  0  0  0  0  0
   24.3211   43.4354   28.1400 O   0  0  0  0  0  0  0  0  0  0  0  0
   25.5801   42.7535   26.2175 C   0  0  1  0  0  0  0  0  0  0  0  0
   23.5123   41.6032   26.5628 O   0  0  0  0  0  0  0  0  0  0  0  0
   26.7905   42.8026   25.5044 C   0  0  0  0  0  0  0  0  0  0  0  0
   28.2818   41.9181   23.9124 C   0  0  0  0  0  0  0  0  0  0  0  0
   28.2331   43.6984   25.7380 S   0  0  0  0  0  0  0  0  0  0  0  0
   26.0383   40.9639   24.0171 C   0  0  0  0  0  0  0  0  0  0  0  0
   24.8420   40.8464   24.7414 C   0  0  0  0  0  0  0  0  0  0  0  0
   23.2459   38.1598   22.9375 F   0  0  0  0  0  0  0  0  0  0  0  0
   27.4435   40.3947   22.1156 N   0  0  0  0  0  0  0  0  0  0  0  0
   27.1545   41.2119   20.9565 C   0  0  0  0  0  0  0  0  0  0  0  0
   24.4919   37.6986   20.5861 C   0  0  0  0  0  0  0  0  0  0  0  0
   27.5329   37.0796   18.8602 O   0  0  0  0  0  0  0  0  0  0  0  0
   25.2350   37.2790   19.3290 C   0  0  2  0  0  0  0  0  0  0  0  0
   24.6506   36.1637   18.5602 N   0  0  0  0  0  0  0  0  0  0  0  0
   23.1799   36.1723   18.4584 C   0  0  0  0  0  0  0  0  0  0  0  0
   25.3008   35.9546   17.2574 C   0  0  0  0  0  0  0  0  0  0  0  0
  1  5  1  0  0  0  0
  2 17  1  0  0  0  0
  3  1  1  0  0  0  0
  4  3  1  0  0  0  0
  4 26  1  6  0  0  0
  5 11  2  0  0  0  0
  5  6  1  0  0  0  0
  6  7  2  0  0  0  0
  7 21  1  0  0  0  0
  8 15  1  0  0  0  0
  8 16  2  0  0  0  0
  9 19  1  0  0  0  0
 10 18  1  0  0  0  0
 11 20  1  0  0  0  0
 13 14  1  0  0  0  0
 13 12  2  0  0  0  0
 15 13  1  1  0  0  0
 17 19  2  0  0  0  0
 17 15  1  0  0  0  0
 18  2  1  0  0  0  0
 18  9  2  0  0  0  0
 20 21  2  0  0  0  0
 20  2  1  0  0  0  0
 21  8  1  0  0  0  0
 22  6  1  0  0  0  0
 23 11  1  0  0  0  0
 23 10  1  0  0  0  0
 24 23  1  0  0  0  0
 25  1  1  0  0  0  0
 27  4  1  0  0  0  0
 27 25  1  0  0  0  0
 27 28  1  1  0  0  0
 29 28  1  0  0  0  0
 30 28  1  0  0  0  0
M  END
>  <CHROM.1>
-129.74082038,-179.70873378,-167.14213059,60.56000510,153.91408223,25.89470725
40.26433681,23.12508658,1.67559960,-0.38828021,-2.25572458

>  <Name>
lig.pdb

>  <RI>
0

>  <Rbt.Current_Directory>
/home/itssahil/PROJECTS/Mol_Feturizer/New_Systems/rnas/6bfb

>  <Rbt.Executable>
rbdock ($Id: //depot/dev/client3/rdock/2013.1/src/exe/rbdock.cxx#4 $)

>  <Rbt.Library>
libRbt.so (2013.1, Build901 2013/11/27)

>  <Rbt.Parameter_File>
/export/apps/rDock/src/rDock_2013.1_src/data/scripts/dock_solv.prm

>  <Rbt.Receptor>
prm/pocket_docking_2.prm

>  <SCORE>
-33.7418

>  <SCORE.INTER>
-31.2887

>  <SCORE.INTER.CONST>
1

>  <SCORE.INTER.POLAR>
0

>  <SCORE.INTER.ROT>
3

>  <SCORE.INTER.SOLV>
10.7193

>  <SCORE.INTER.VDW>
-30.0322

>  <SCORE.INTER.norm>
-1.04296

>  <SCORE.INTRA>
-2.45426

>  <SCORE.INTRA.DIHEDRAL>
-7.14976

>  <SCORE.INTRA.DIHEDRAL.0>
9.41909

>  <SCORE.INTRA.POLAR>
0

>  <SCORE.INTRA.POLAR.0>
0

>  <SCORE.INTRA.REPUL>
0.00526248

>  <SCORE.INTRA.REPUL.0>
0

>  <SCORE.INTRA.SOLV>
-0.0341877

>  <SCORE.INTRA.SOLV.lig_0>
-26.2491

>  <SCORE.INTRA.VDW>
1.1114

>  <SCORE.INTRA.VDW.0>
2.57239

>  <SCORE.INTRA.norm>
-0.0818087

>  <SCORE.RESTR>
0.0011127

>  <SCORE.RESTR.CAVITY>
0.0011127

>  <SCORE.RESTR.norm>
3.70899e-05

>  <SCORE.SYSTEM>
0

>  <SCORE.SYSTEM.CONST>
0

>  <SCORE.SYSTEM.DIHEDRAL>
0

>  <SCORE.SYSTEM.SOLV>
0

>  <SCORE.SYSTEM.norm>
0

>  <SCORE.heavy>
30

>  <SCORE.norm>
-1.12473

>  <RMSD>
0.784

$$$$
lig.pdb
 OpenBabel11021811523D
libRbt.so/2013.1/901 2013/11/27
 30 34  0  0  0  0  0  0  0  0999 V2000
   26.6709   38.3518   21.0982 N   0  0  0  0  0  0  0  0  0  0  0  0
   27.1156   41.9615   24.4567 N   0  0  0  0  0  0  0  0  0  0  0  0
   27.9733   37.6861   21.1994 C   0  0  0  0  0  0  0  0  0  0  0  0
   28.0131   36.8869   19.9056 C   0  0  2  0  0  0  0  0  0  0  0  0
   26.1391   39.1090   22.2258 C   0  0  0  0  0  0  0  0  0  0  0  0
   24.8860   38.8503   22.8179 C   0  0  0  0  0  0  0  0  0  0  0  0
   24.3702   39.5790   23.8605 C   0  0  0  0  0  0  0  0  0  0  0  0
   24.5122   41.4686   25.4863 C   0  0  0  0  0  0  0  0  0  0  0  0
   29.0097   43.1463   24.8192 C   0  0  0  0  0  0  0  0  0  0  0  0
   29.0283   41.1222   23.1993 C   0  0  0  0  0  0  0  0  0  0  0  0
   26.8899   40.1828   22.7821 C   0  0  0  0  0  0  0  0  0  0  0  0
   25.2230   44.6562   27.1310 O   0  0  0  0  0  0  0  0  0  0  0  0
   24.8113   43.4993   27.0203 C   0  0  0  0  0  0  0  0  0  0  0  0
   23.8904   42.9888   27.8285 O   0  0  0  0  0  0  0  0  0  0  0  0
   25.3505   42.5970   25.9683 C   0  0  1  0  0  0  0  0  0  0  0  0
   23.4133   41.1952   25.9809 O   0  0  0  0  0  0  0  0  0  0  0  0
   26.6427   42.8080   25.4567 C   0  0  0  0  0  0  0  0  0  0  0  0
   28.4650   42.1439   24.1230 C   0  0  0  0  0  0  0  0  0  0  0  0
   27.9077   43.8696   25.9164 S   0  0  0  0  0  0  0  0  0  0  0  0
   26.3694   40.9195   23.8701 C   0  0  0  0  0  0  0  0  0  0  0  0
   25.0977   40.6423   24.3949 C   0  0  0  0  0  0  0  0  0  0  0  0
   24.1529   37.8148   22.3620 F   0  0  0  0  0  0  0  0  0  0  0  0
   28.1170   40.5636   22.2168 N   0  0  0  0  0  0  0  0  0  0  0  0
   27.9154   41.3610   21.0259 C   0  0  0  0  0  0  0  0  0  0  0  0
   25.7906   37.6634   20.1609 C   0  0  0  0  0  0  0  0  0  0  0  0
   29.1554   37.2208   19.1160 O   0  0  0  0  0  0  0  0  0  0  0  0
   26.8042   37.3225   19.0815 C   0  0  2  0  0  0  0  0  0  0  0  0
   26.4467   36.2214   18.1670 N   0  0  0  0  0  0  0  0  0  0  0  0
   25.0487   36.2209   17.6990 C   0  0  0  0  0  0  0  0  0  0  0  0
   27.4060   36.0486   17.0653 C   0  0  0  0  0  0  0  0  0  0  0  0
  1  5  1  0  0  0  0
  2 17  1  0  0  0  0
  3  1  1  0  0  0  0
  4  3  1  0  0  0  0
  4 26  1  6  0  0  0
  5 11  2  0  0  0  0
  5  6  1  0  0  0  0
  6  7  2  0  0  0  0
  7 21  1  0  0  0  0
  8 15  1  0  0  0  0
  8 16  2  0  0  0  0
  9 19  1  0  0  0  0
 10 18  1  0  0  0  0
 11 20  1  0  0  0  0
 13 14  1  0  0  0  0
 13 12  2  0  0  0  0
 15 13  1  1  0  0  0
 17 19  2  0  0  0  0
 17 15  1  0  0  0  0
 18  2  1  0  0  0  0
 18  9  2  0  0  0  0
 20 21  2  0  0  0  0
 20  2  1  0  0  0  0
 21  8  1  0  0  0  0
 22  6  1  0  0  0  0
 23 11  1  0  0  0  0
 23 10  1  0  0  0  0
 24 23  1  0  0  0  0
 25  1  1  0  0  0  0
 27  4  1  0  0  0  0
 27 25  1  0  0  0  0
 27 28  1  6  0  0  0
 29 28  1  0  0  0  0
 30 28  1  0  0  0  0
M  END
>  <CHROM.1>
-123.56272451,-0.75773047,-155.14308630,62.12664907,156.64894882,26.45739863
40.23930775,22.96115747,1.45576098,-0.36986684,-2.32045935

>  <Name>
lig.pdb

>  <RI>
0

>  <Rbt.Current_Directory>
/home/itssahil/PROJECTS/Mol_Feturizer/New_Systems/rnas/6bfb

>  <Rbt.Executable>
rbdock ($Id: //depot/dev/client3/rdock/2013.1/src/exe/rbdock.cxx#4 $)

>  <Rbt.Library>
libRbt.so (2013.1, Build901 2013/11/27)

>  <Rbt.Parameter_File>
/export/apps/rDock/src/rDock_2013.1_src/data/scripts/dock_solv.prm

>  <Rbt.Receptor>
prm/pocket_docking_3.prm

>  <SCORE>
-37.2268

>  <SCORE.INTER>
-32.8079

>  <SCORE.INTER.CONST>
1

>  <SCORE.INTER.POLAR>
-0.959166

>  <SCORE.INTER.ROT>
3

>  <SCORE.INTER.SOLV>
10.8576

>  <SCORE.INTER.VDW>
-27.8939

>  <SCORE.INTER.norm>
-1.0936

>  <SCORE.INTRA>
-4.41887

>  <SCORE.INTRA.DIHEDRAL>
-7.25084

>  <SCORE.INTRA.DIHEDRAL.0>
9.41909

>  <SCORE.INTRA.POLAR>
0

>  <SCORE.INTRA.POLAR.0>
0

>  <SCORE.INTRA.REPUL>
0.0214097

>  <SCORE.INTRA.REPUL.0>
0

>  <SCORE.INTRA.SOLV>
-0.0848018

>  <SCORE.INTRA.SOLV.lig_0>
-26.2491

>  <SCORE.INTRA.VDW>
-0.858095

>  <SCORE.INTRA.VDW.0>
2.57239

>  <SCORE.INTRA.norm>
-0.147296

>  <SCORE.RESTR>
0

>  <SCORE.RESTR.CAVITY>
0

>  <SCORE.RESTR.norm>
0

>  <SCORE.SYSTEM>
0

>  <SCORE.SYSTEM.CONST>
0

>  <SCORE.SYSTEM.DIHEDRAL>
0

>  <SCORE.SYSTEM.SOLV>
0

>  <SCORE.SYSTEM.norm>
0

>  <SCORE.heavy>
30

>  <SCORE.norm>
-1.24089

>  <RMSD>
0.787

$$$$
lig.pdb
 OpenBabel11021811523D
libRbt.so/2013.1/901 2013/11/27
 30 34  0  0  0  0  0  0  0  0999 V2000
   25.5516   38.4329   21.2980 N   0  0  0  0  0  0  0  0  0  0  0  0
   26.8459   41.9581   24.5237 N   0  0  0  0  0  0  0  0  0  0  0  0
   26.8285   37.7220   21.1811 C   0  0  0  0  0  0  0  0  0  0  0  0
   26.6018   36.8825   19.9329 C   0  0  2  0  0  0  0  0  0  0  0  0
   25.2630   39.2438   22.4756 C   0  0  0  0  0  0  0  0  0  0  0  0
   24.0768   39.1309   23.2292 C   0  0  0  0  0  0  0  0  0  0  0  0
   23.7896   39.9119   24.3208 C   0  0  0  0  0  0  0  0  0  0  0  0
   24.3604   41.7681   25.8900 C   0  0  0  0  0  0  0  0  0  0  0  0
   28.8951   42.9141   24.6211 C   0  0  0  0  0  0  0  0  0  0  0  0
   28.4677   40.9056   23.0384 C   0  0  0  0  0  0  0  0  0  0  0  0
   26.1990   40.2218   22.9155 C   0  0  0  0  0  0  0  0  0  0  0  0
   25.4677   43.5159   28.4968 O   0  0  0  0  0  0  0  0  0  0  0  0
   25.0902   43.7465   27.3460 C   0  0  0  0  0  0  0  0  0  0  0  0
   24.3996   44.8339   27.0255 O   0  0  0  0  0  0  0  0  0  0  0  0
   25.3792   42.7904   26.2443 C   0  0  1  0  0  0  0  0  0  0  0  0
   23.3116   41.6229   26.5272 O   0  0  0  0  0  0  0  0  0  0  0  0
   26.6089   42.8512   25.5660 C   0  0  0  0  0  0  0  0  0  0  0  0
   28.1519   41.9834   24.0146 C   0  0  0  0  0  0  0  0  0  0  0  0
   28.0372   43.7576   25.8432 S   0  0  0  0  0  0  0  0  0  0  0  0
   25.9140   41.0112   24.0526 C   0  0  0  0  0  0  0  0  0  0  0  0
   24.6986   40.8822   24.7423 C   0  0  0  0  0  0  0  0  0  0  0  0
   23.1758   38.1886   22.8860 F   0  0  0  0  0  0  0  0  0  0  0  0
   27.3772   40.4590   22.1903 N   0  0  0  0  0  0  0  0  0  0  0  0
   27.1148   41.2775   21.0258 C   0  0  0  0  0  0  0  0  0  0  0  0
   24.4911   37.7496   20.5660 C   0  0  0  0  0  0  0  0  0  0  0  0
   27.5870   37.1488   18.9338 O   0  0  0  0  0  0  0  0  0  0  0  0
   25.2748   37.3378   19.3311 C   0  0  2  0  0  0  0  0  0  0  0  0
   24.7190   36.2234   18.5401 N   0  0  0  0  0  0  0  0  0  0  0  0
   23.2568   36.2518   18.3539 C   0  0  0  0  0  0  0  0  0  0  0  0
   25.4396   35.9922   17.2787 C   0  0  0  0  0  0  0  0  0  0  0  0
  1  5  1  0  0  0  0
  2 17  1  0  0  0  0
  3  1  1  0  0  0  0
  4  3  1  0  0  0  0
  4 26  1  6  0  0  0
  5 11  2  0  0  0  0
  5  6  1  0  0  0  0
  6  7  2  0  0  0  0
  7 21  1  0  0  0  0
  8 15  1  0  0  0  0
  8 16  2  0  0  0  0
  9 19  1  0  0  0  0
 10 18  1  0  0  0  0
 11 20  1  0  0  0  0
 13 14  1  0  0  0  0
 13 12  2  0  0  0  0
 15 13  1  1  0  0  0
 17 19  2  0  0  0  0
 17 15  1  0  0  0  0
 18  2  1  0  0  0  0
 18  9  2  0  0  0  0
 20 21  2  0  0  0  0
 20  2  1  0  0  0  0
 21  8  1  0  0  0  0
 22  6  1  0  0  0  0
 23 11  1  0  0  0  0
 23 10  1  0  0  0  0
 24 23  1  0  0  0  0
 25  1  1  0  0  0  0
 27  4  1  0  0  0  0
 27 25  1  0  0  0  0
 27 28  1  1  0  0  0
 29 28  1  0  0  0  0
 30 28  1  0  0  0  0
M  END
>  <CHROM.1>
-129.44942369,168.53856708,94.21653603,65.63976168,155.89338397,25.80464329
40.32447515,23.14501644,1.64544171,-0.35582027,-2.26867902

>  <Name>
lig.pdb

>  <RI>
0

>  <Rbt.Current_Directory>
/home/itssahil/PROJECTS/Mol_Feturizer/New_Systems/rnas/6bfb

>  <Rbt.Executable>
rbdock ($Id: //depot/dev/client3/rdock/2013.1/src/exe/rbdock.cxx#4 $)

>  <Rbt.Library>
libRbt.so (2013.1, Build901 2013/11/27)

>  <Rbt.Parameter_File>
/export/apps/rDock/src/rDock_2013.1_src/data/scripts/dock_solv.prm

>  <Rbt.Receptor>
prm/pocket_docking_2.prm

>  <SCORE>
-37.7542

>  <SCORE.INTER>
-33.847

>  <SCORE.INTER.CONST>
1

>  <SCORE.INTER.POLAR>
-0.673256

>  <SCORE.INTER.ROT>
3

>  <SCORE.INTER.SOLV>
10.8545

>  <SCORE.INTER.VDW>
-29.5386

>  <SCORE.INTER.norm>
-1.12823

>  <SCORE.INTRA>
-3.90716

>  <SCORE.INTRA.DIHEDRAL>
-6.10847

>  <SCORE.INTRA.DIHEDRAL.0>
9.41909

>  <SCORE.INTRA.POLAR>
0

>  <SCORE.INTRA.POLAR.0>
0

>  <SCORE.INTRA.REPUL>
0.00603282

>  <SCORE.INTRA.REPUL.0>
0

>  <SCORE.INTRA.SOLV>
-0.190555

>  <SCORE.INTRA.SOLV.lig_0>
-26.2491

>  <SCORE.INTRA.VDW>
-0.78781

>  <SCORE.INTRA.VDW.0>
2.57239

>  <SCORE.INTRA.norm>
-0.130239

>  <SCORE.RESTR>
0

>  <SCORE.RESTR.CAVITY>
0

>  <SCORE.RESTR.norm>
0

>  <SCORE.SYSTEM>
0

>  <SCORE.SYSTEM.CONST>
0

>  <SCORE.SYSTEM.DIHEDRAL>
0

>  <SCORE.SYSTEM.SOLV>
0

>  <SCORE.SYSTEM.norm>
0

>  <SCORE.heavy>
30

>  <SCORE.norm>
-1.25847

>  <RMSD>
0.796

$$$$
lig.pdb
 OpenBabel11021811523D
libRbt.so/2013.1/901 2013/11/27
 30 34  0  0  0  0  0  0  0  0999 V2000
   26.6156   38.3808   21.1124 N   0  0  0  0  0  0  0  0  0  0  0  0
   27.0785   41.9877   24.4714 N   0  0  0  0  0  0  0  0  0  0  0  0
   27.9456   37.7696   21.1964 C   0  0  0  0  0  0  0  0  0  0  0  0
   27.9841   36.9371   19.9237 C   0  0  2  0  0  0  0  0  0  0  0  0
   26.0831   39.1474   22.2332 C   0  0  0  0  0  0  0  0  0  0  0  0
   24.8198   38.9087   22.8118 C   0  0  0  0  0  0  0  0  0  0  0  0
   24.3038   39.6465   23.8479 C   0  0  0  0  0  0  0  0  0  0  0  0
   24.4568   41.5358   25.4730 C   0  0  0  0  0  0  0  0  0  0  0  0
   28.9863   43.1440   24.8533 C   0  0  0  0  0  0  0  0  0  0  0  0
   28.9919   41.1178   23.2360 C   0  0  0  0  0  0  0  0  0  0  0  0
   26.8440   40.2104   22.7964 C   0  0  0  0  0  0  0  0  0  0  0  0
   24.9679   43.3387   28.2038 O   0  0  0  0  0  0  0  0  0  0  0  0
   24.7701   43.5638   27.0079 C   0  0  0  0  0  0  0  0  0  0  0  0
   24.0640   44.6051   26.5846 O   0  0  0  0  0  0  0  0  0  0  0  0
   25.3069   42.6520   25.9629 C   0  0  1  0  0  0  0  0  0  0  0  0
   23.3485   41.2798   25.9559 O   0  0  0  0  0  0  0  0  0  0  0  0
   26.6077   42.8426   25.4652 C   0  0  0  0  0  0  0  0  0  0  0  0
   28.4341   42.1491   24.1523 C   0  0  0  0  0  0  0  0  0  0  0  0
   27.8836   43.8854   25.9375 S   0  0  0  0  0  0  0  0  0  0  0  0
   26.3229   40.9564   23.8778 C   0  0  0  0  0  0  0  0  0  0  0  0
   25.0415   40.6993   24.3891 C   0  0  0  0  0  0  0  0  0  0  0  0
   24.0761   37.8839   22.3491 F   0  0  0  0  0  0  0  0  0  0  0  0
   28.0829   40.5718   22.2442 N   0  0  0  0  0  0  0  0  0  0  0  0
   27.9065   41.3707   21.0502 C   0  0  0  0  0  0  0  0  0  0  0  0
   25.7398   37.6328   20.2175 C   0  0  0  0  0  0  0  0  0  0  0  0
   29.0917   37.2936   19.0953 O   0  0  0  0  0  0  0  0  0  0  0  0
   26.7382   37.3022   19.1209 C   0  0  2  0  0  0  0  0  0  0  0  0
   26.4015   36.1631   18.2458 N   0  0  0  0  0  0  0  0  0  0  0  0
   24.9872   36.0793   17.8381 C   0  0  0  0  0  0  0  0  0  0  0  0
   27.3220   36.0146   17.1081 C   0  0  0  0  0  0  0  0  0  0  0  0
  1  5  1  0  0  0  0
  2 17  1  0  0  0  0
  3  1  1  0  0  0  0
  4  3  1  0  0  0  0
  4 26  1  6  0  0  0
  5 11  2  0  0  0  0
  5  6  1  0  0  0  0
  6  7  2  0  0  0  0
  7 21  1  0  0  0  0
  8 15  1  0  0  0  0
  8 16  2  0  0  0  0
  9 19  1  0  0  0  0
 10 18  1  0  0  0  0
 11 20  1  0  0  0  0
 13 14  1  0  0  0  0
 13 12  2  0  0  0  0
 15 13  1  1  0  0  0
 17 19  2  0  0  0  0
 17 15  1  0  0  0  0
 18  2  1  0  0  0  0
 18  9  2  0  0  0  0
 20 21  2  0  0  0  0
 20  2  1  0  0  0  0
 21  8  1  0  0  0  0
 22  6  1  0  0  0  0
 23 11  1  0  0  0  0
 23 10  1  0  0  0  0
 24 23  1  0  0  0  0
 25  1  1  0  0  0  0
 27  4  1  0  0  0  0
 27 25  1  0  0  0  0
 27 28  1  1  0  0  0
 29 28  1  0  0  0  0
 30 28  1  0  0  0  0
M  END
>  <CHROM.1>
-127.63169504,166.83035061,91.97554203,64.76624216,155.44179716,26.41224748
40.27439338,22.96473622,1.46107204,-0.33480663,-2.32695804

>  <Name>
lig.pdb

>  <RI>
0

>  <Rbt.Current_Directory>
/home/itssahil/PROJECTS/Mol_Feturizer/New_Systems/rnas/6bfb

>  <Rbt.Executable>
rbdock ($Id: //depot/dev/client3/rdock/2013.1/src/exe/rbdock.cxx#4 $)

>  <Rbt.Library>
libRbt.so (2013.1, Build901 2013/11/27)

>  <Rbt.Parameter_File>
/export/apps/rDock/src/rDock_2013.1_src/data/scripts/dock_solv.prm

>  <Rbt.Receptor>
prm/pocket_docking_4.prm

>  <SCORE>
-39.9202

>  <SCORE.INTER>
-36.0237

>  <SCORE.INTER.CONST>
1

>  <SCORE.INTER.POLAR>
-1.53667

>  <SCORE.INTER.ROT>
3

>  <SCORE.INTER.SOLV>
10.7906

>  <SCORE.INTER.VDW>
-28.0904

>  <SCORE.INTER.norm>
-1.20079

>  <SCORE.INTRA>
-3.89653

>  <SCORE.INTRA.DIHEDRAL>
-5.83293

>  <SCORE.INTRA.DIHEDRAL.0>
9.41909

>  <SCORE.INTRA.POLAR>
0

>  <SCORE.INTRA.POLAR.0>
0

>  <SCORE.INTRA.REPUL>
0.0108201

>  <SCORE.INTRA.REPUL.0>
0

>  <SCORE.INTRA.SOLV>
-0.206308

>  <SCORE.INTRA.SOLV.lig_0>
-26.2491

>  <SCORE.INTRA.VDW>
-0.931011

>  <SCORE.INTRA.VDW.0>
2.57239

>  <SCORE.INTRA.norm>
-0.129884

>  <SCORE.RESTR>
0

>  <SCORE.RESTR.CAVITY>
0

>  <SCORE.RESTR.norm>
0

>  <SCORE.SYSTEM>
0

>  <SCORE.SYSTEM.CONST>
0

>  <SCORE.SYSTEM.DIHEDRAL>
0

>  <SCORE.SYSTEM.SOLV>
0

>  <SCORE.SYSTEM.norm>
0

>  <SCORE.heavy>
30

>  <SCORE.norm>
-1.33067

>  <RMSD>
0.797

$$$$
lig.pdb
 OpenBabel11021811523D
libRbt.so/2013.1/901 2013/11/27
 30 34  0  0  0  0  0  0  0  0999 V2000
   25.6867   38.5473   21.2551 N   0  0  0  0  0  0  0  0  0  0  0  0
   26.8610   42.0959   24.5011 N   0  0  0  0  0  0  0  0  0  0  0  0
   26.8606   37.6693   21.2340 C   0  0  0  0  0  0  0  0  0  0  0  0
   26.6695   36.9294   19.9185 C   0  0  2  0  0  0  0  0  0  0  0  0
   25.3751   39.3351   22.4425 C   0  0  0  0  0  0  0  0  0  0  0  0
   24.2017   39.1656   23.2055 C   0  0  0  0  0  0  0  0  0  0  0  0
   23.8919   39.9242   24.3066 C   0  0  0  0  0  0  0  0  0  0  0  0
   24.3984   41.7892   25.8876 C   0  0  0  0  0  0  0  0  0  0  0  0
   28.8688   43.1367   24.5890 C   0  0  0  0  0  0  0  0  0  0  0  0
   28.5119   41.1258   22.9920 C   0  0  0  0  0  0  0  0  0  0  0  0
   26.2731   40.3479   22.8830 C   0  0  0  0  0  0  0  0  0  0  0  0
   25.3826   43.5181   28.5142 O   0  0  0  0  0  0  0  0  0  0  0  0
   25.0576   43.7839   27.3550 C   0  0  0  0  0  0  0  0  0  0  0  0
   24.3993   44.8910   27.0341 O   0  0  0  0  0  0  0  0  0  0  0  0
   25.3764   42.8505   26.2421 C   0  0  1  0  0  0  0  0  0  0  0  0
   23.3626   41.5942   26.5327 O   0  0  0  0  0  0  0  0  0  0  0  0
   26.5962   42.9691   25.5535 C   0  0  0  0  0  0  0  0  0  0  0  0
   28.1600   42.1808   23.9807 C   0  0  0  0  0  0  0  0  0  0  0  0
   27.9874   43.9326   25.8263 S   0  0  0  0  0  0  0  0  0  0  0  0
   25.9655   41.1147   24.0297 C   0  0  0  0  0  0  0  0  0  0  0  0
   24.7630   40.9284   24.7289 C   0  0  0  0  0  0  0  0  0  0  0  0
   23.3381   38.1892   22.8617 F   0  0  0  0  0  0  0  0  0  0  0  0
   27.4334   40.6410   22.1495 N   0  0  0  0  0  0  0  0  0  0  0  0
   27.1260   41.4577   20.9949 C   0  0  0  0  0  0  0  0  0  0  0  0
   24.6363   38.0560   20.3705 C   0  0  0  0  0  0  0  0  0  0  0  0
   27.7915   37.1000   19.0513 O   0  0  0  0  0  0  0  0  0  0  0  0
   25.4957   37.5955   19.2052 C   0  0  2  0  0  0  0  0  0  0  0  0
   24.8904   36.6091   18.2903 N   0  0  0  0  0  0  0  0  0  0  0  0
   25.6999   36.2699   17.1058 C   0  0  0  0  0  0  0  0  0  0  0  0
   24.3807   35.4146   18.9810 C   0  0  0  0  0  0  0  0  0  0  0  0
  1  5  1  0  0  0  0
  2 17  1  0  0  0  0
  3  1  1  0  0  0  0
  4  3  1  0  0  0  0
  4 26  1  6  0  0  0
  5 11  2  0  0  0  0
  5  6  1  0  0  0  0
  6  7  2  0  0  0  0
  7 21  1  0  0  0  0
  8 15  1  0  0  0  0
  8 16  2  0  0  0  0
  9 19  1  0  0  0  0
 10 18  1  0  0  0  0
 11 20  1  0  0  0  0
 13 14  1  0  0  0  0
 13 12  2  0  0  0  0
 15 13  1  1  0  0  0
 17 19  2  0  0  0  0
 17 15  1  0  0  0  0
 18  2  1  0  0  0  0
 18  9  2  0  0  0  0
 20 21  2  0  0  0  0
 20  2  1  0  0  0  0
 21  8  1  0  0  0  0
 22  6  1  0  0  0  0
 23 11  1  0  0  0  0
 23 10  1  0  0  0  0
 24 23  1  0  0  0  0
 25  1  1  0  0  0  0
 27  4  1  0  0  0  0
 27 25  1  0  0  0  0
 27 28  1  6  0  0  0
 29 28  1  0  0  0  0
 30 28  1  0  0  0  0
M  END
>  <CHROM.1>
-116.63226285,172.88542592,89.64051663,-59.06225800,-70.89527009,25.90347936
40.40793735,23.13405458,1.60853574,-0.42531288,-2.28423027

>  <Name>
lig.pdb

>  <RI>
0

>  <Rbt.Current_Directory>
/home/itssahil/PROJECTS/Mol_Feturizer/New_Systems/rnas/6bfb

>  <Rbt.Executable>
rbdock ($Id: //depot/dev/client3/rdock/2013.1/src/exe/rbdock.cxx#4 $)

>  <Rbt.Library>
libRbt.so (2013.1, Build901 2013/11/27)

>  <Rbt.Parameter_File>
/export/apps/rDock/src/rDock_2013.1_src/data/scripts/dock_solv.prm

>  <Rbt.Receptor>
prm/pocket_docking_2.prm

>  <SCORE>
-36.2745

>  <SCORE.INTER>
-32.6371

>  <SCORE.INTER.CONST>
1

>  <SCORE.INTER.POLAR>
-0.659278

>  <SCORE.INTER.ROT>
3

>  <SCORE.INTER.SOLV>
10.8041

>  <SCORE.INTER.VDW>
-28.7618

>  <SCORE.INTER.norm>
-1.0879

>  <SCORE.INTRA>
-3.6374

>  <SCORE.INTRA.DIHEDRAL>
-7.28283

>  <SCORE.INTRA.DIHEDRAL.0>
9.41909

>  <SCORE.INTRA.POLAR>
0

>  <SCORE.INTRA.POLAR.0>
0

>  <SCORE.INTRA.REPUL>
0.0389361

>  <SCORE.INTRA.REPUL.0>
0

>  <SCORE.INTRA.SOLV>
-0.0503537

>  <SCORE.INTRA.SOLV.lig_0>
-26.2491

>  <SCORE.INTRA.VDW>
-0.165493

>  <SCORE.INTRA.VDW.0>
2.57239

>  <SCORE.INTRA.norm>
-0.121247

>  <SCORE.RESTR>
1.0937e-05

>  <SCORE.RESTR.CAVITY>
1.0937e-05

>  <SCORE.RESTR.norm>
3.64568e-07

>  <SCORE.SYSTEM>
0

>  <SCORE.SYSTEM.CONST>
0

>  <SCORE.SYSTEM.DIHEDRAL>
0

>  <SCORE.SYSTEM.SOLV>
0

>  <SCORE.SYSTEM.norm>
0

>  <SCORE.heavy>
30

>  <SCORE.norm>
-1.20915

>  <RMSD>
0.803

$$$$
lig.pdb
 OpenBabel11021811523D
libRbt.so/2013.1/901 2013/11/27
 30 34  0  0  0  0  0  0  0  0999 V2000
   26.4787   38.0949   21.0841 N   0  0  0  0  0  0  0  0  0  0  0  0
   27.0853   41.8954   24.1979 N   0  0  0  0  0  0  0  0  0  0  0  0
   27.7769   37.4277   21.2223 C   0  0  0  0  0  0  0  0  0  0  0  0
   27.7849   36.5125   20.0072 C   0  0  2  0  0  0  0  0  0  0  0  0
   25.9753   38.9581   22.1467 C   0  0  0  0  0  0  0  0  0  0  0  0
   24.6995   38.8151   22.7296 C   0  0  0  0  0  0  0  0  0  0  0  0
   24.2117   39.6431   23.7096 C   0  0  0  0  0  0  0  0  0  0  0  0
   24.4407   41.6288   25.2057 C   0  0  0  0  0  0  0  0  0  0  0  0
   29.0411   42.9889   24.5172 C   0  0  0  0  0  0  0  0  0  0  0  0
   28.9642   40.8603   23.0393 C   0  0  0  0  0  0  0  0  0  0  0  0
   26.7801   40.0217   22.6437 C   0  0  0  0  0  0  0  0  0  0  0  0
   25.4809   44.0062   27.6208 O   0  0  0  0  0  0  0  0  0  0  0  0
   24.8366   43.7395   26.6040 C   0  0  0  0  0  0  0  0  0  0  0  0
   23.6683   44.3067   26.3298 O   0  0  0  0  0  0  0  0  0  0  0  0
   25.3374   42.7365   25.6268 C   0  0  1  0  0  0  0  0  0  0  0  0
   23.3196   41.4553   25.6956 O   0  0  0  0  0  0  0  0  0  0  0  0
   26.6481   42.8352   25.1283 C   0  0  0  0  0  0  0  0  0  0  0  0
   28.4484   41.9746   23.8798 C   0  0  0  0  0  0  0  0  0  0  0  0
   27.9670   43.8498   25.5402 S   0  0  0  0  0  0  0  0  0  0  0  0
   26.2874   40.8611   23.6684 C   0  0  0  0  0  0  0  0  0  0  0  0
   24.9930   40.6961   24.1851 C   0  0  0  0  0  0  0  0  0  0  0  0
   23.9130   37.7956   22.3303 F   0  0  0  0  0  0  0  0  0  0  0  0
   28.0368   40.2897   22.0788 N   0  0  0  0  0  0  0  0  0  0  0  0
   27.9028   41.0135   20.8326 C   0  0  0  0  0  0  0  0  0  0  0  0
   25.5747   37.3325   20.2304 C   0  0  0  0  0  0  0  0  0  0  0  0
   28.9148   36.7605   19.1694 O   0  0  0  0  0  0  0  0  0  0  0  0
   26.5644   36.8832   19.1687 C   0  0  2  0  0  0  0  0  0  0  0  0
   26.1797   35.7065   18.3662 N   0  0  0  0  0  0  0  0  0  0  0  0
   25.6786   34.5549   19.1382 C   0  0  0  0  0  0  0  0  0  0  0  0
   25.3083   36.0404   17.2292 C   0  0  0  0  0  0  0  0  0  0  0  0
  1  5  1  0  0  0  0
  2 17  1  0  0  0  0
  3  1  1  0  0  0  0
  4  3  1  0  0  0  0
  4 26  1  6  0  0  0
  5 11  2  0  0  0  0
  5  6  1  0  0  0  0
  6  7  2  0  0  0  0
  7 21  1  0  0  0  0
  8 15  1  0  0  0  0
  8 16  2  0  0  0  0
  9 19  1  0  0  0  0
 10 18  1  0  0  0  0
 11 20  1  0  0  0  0
 13 14  1  0  0  0  0
 13 12  2  0  0  0  0
 15 13  1  1  0  0  0
 17 19  2  0  0  0  0
 17 15  1  0  0  0  0
 18  2  1  0  0  0  0
 18  9  2  0  0  0  0
 20 21  2  0  0  0  0
 20  2  1  0  0  0  0
 21  8  1  0  0  0  0
 22  6  1  0  0  0  0
 23 11  1  0  0  0  0
 23 10  1  0  0  0  0
 24 23  1  0  0  0  0
 25  1  1  0  0  0  0
 27  4  1  0  0  0  0
 27 25  1  0  0  0  0
 27 28  1  1  0  0  0
 29 28  1  0  0  0  0
 30 28  1  0  0  0  0
M  END
>  <CHROM.1>
-127.36692508,1.04833313,127.93644889,178.58043940,66.72578224,26.31428391
40.09609889,22.84645551,1.50773073,-0.29967885,-2.39732920

>  <Name>
lig.pdb

>  <RI>
0

>  <Rbt.Current_Directory>
/home/itssahil/PROJECTS/Mol_Feturizer/New_Systems/rnas/6bfb

>  <Rbt.Executable>
rbdock ($Id: //depot/dev/client3/rdock/2013.1/src/exe/rbdock.cxx#4 $)

>  <Rbt.Library>
libRbt.so (2013.1, Build901 2013/11/27)

>  <Rbt.Parameter_File>
/export/apps/rDock/src/rDock_2013.1_src/data/scripts/dock_solv.prm

>  <Rbt.Receptor>
prm/pocket_docking_7.prm

>  <SCORE>
-34.9184

>  <SCORE.INTER>
-29.5587

>  <SCORE.INTER.CONST>
1

>  <SCORE.INTER.POLAR>
0

>  <SCORE.INTER.ROT>
3

>  <SCORE.INTER.SOLV>
10.3565

>  <SCORE.INTER.VDW>
-28.758

>  <SCORE.INTER.norm>
-0.98529

>  <SCORE.INTRA>
-5.35968

>  <SCORE.INTRA.DIHEDRAL>
-7.50404

>  <SCORE.INTRA.DIHEDRAL.0>
9.41909

>  <SCORE.INTRA.POLAR>
0

>  <SCORE.INTRA.POLAR.0>
0

>  <SCORE.INTRA.REPUL>
0.0115147

>  <SCORE.INTRA.REPUL.0>
0

>  <SCORE.INTRA.SOLV>
-0.171651

>  <SCORE.INTRA.SOLV.lig_0>
-26.2491

>  <SCORE.INTRA.VDW>
-1.57941

>  <SCORE.INTRA.VDW.0>
2.57239

>  <SCORE.INTRA.norm>
-0.178656

>  <SCORE.RESTR>
0

>  <SCORE.RESTR.CAVITY>
0

>  <SCORE.RESTR.norm>
0

>  <SCORE.SYSTEM>
0

>  <SCORE.SYSTEM.CONST>
0

>  <SCORE.SYSTEM.DIHEDRAL>
0

>  <SCORE.SYSTEM.SOLV>
0

>  <SCORE.SYSTEM.norm>
0

>  <SCORE.heavy>
30

>  <SCORE.norm>
-1.16395

>  <RMSD>
0.819

$$$$
lig.pdb
 OpenBabel11021811523D
libRbt.so/2013.1/901 2013/11/27
 30 34  0  0  0  0  0  0  0  0999 V2000
   25.5125   38.4488   21.3060 N   0  0  0  0  0  0  0  0  0  0  0  0
   26.8418   41.9659   24.5263 N   0  0  0  0  0  0  0  0  0  0  0  0
   26.8094   37.7824   21.1524 C   0  0  0  0  0  0  0  0  0  0  0  0
   26.5713   36.9233   19.9197 C   0  0  2  0  0  0  0  0  0  0  0  0
   25.2345   39.2603   22.4856 C   0  0  0  0  0  0  0  0  0  0  0  0
   24.0521   39.1526   23.2460 C   0  0  0  0  0  0  0  0  0  0  0  0
   23.7748   39.9343   24.3396 C   0  0  0  0  0  0  0  0  0  0  0  0
   24.3632   41.7868   25.9066 C   0  0  0  0  0  0  0  0  0  0  0  0
   28.8960   42.9121   24.6125 C   0  0  0  0  0  0  0  0  0  0  0  0
   28.4502   40.9067   23.0312 C   0  0  0  0  0  0  0  0  0  0  0  0
   26.1776   40.2336   22.9208 C   0  0  0  0  0  0  0  0  0  0  0  0
   25.5022   43.5325   28.5062 O   0  0  0  0  0  0  0  0  0  0  0  0
   25.1107   43.7609   27.3596 C   0  0  0  0  0  0  0  0  0  0  0  0
   24.4139   44.8463   27.0460 O   0  0  0  0  0  0  0  0  0  0  0  0
   25.3888   42.8040   26.2557 C   0  0  1  0  0  0  0  0  0  0  0  0
   23.3174   41.6461   26.5497 O   0  0  0  0  0  0  0  0  0  0  0  0
   26.6150   42.8595   25.5704 C   0  0  0  0  0  0  0  0  0  0  0  0
   28.1450   41.9854   24.0098 C   0  0  0  0  0  0  0  0  0  0  0  0
   28.0490   43.7590   25.8401 S   0  0  0  0  0  0  0  0  0  0  0  0
   25.9028   41.0237   24.0600 C   0  0  0  0  0  0  0  0  0  0  0  0
   24.6907   40.9000   24.7565 C   0  0  0  0  0  0  0  0  0  0  0  0
   23.1447   38.2148   22.9073 F   0  0  0  0  0  0  0  0  0  0  0  0
   27.3527   40.4657   22.1890 N   0  0  0  0  0  0  0  0  0  0  0  0
   27.0876   41.2861   21.0265 C   0  0  0  0  0  0  0  0  0  0  0  0
   24.4533   37.7215   20.6157 C   0  0  0  0  0  0  0  0  0  0  0  0
   27.5127   37.2146   18.8858 O   0  0  0  0  0  0  0  0  0  0  0  0
   25.2098   37.3257   19.3589 C   0  0  2  0  0  0  0  0  0  0  0  0
   24.6681   36.1847   18.5964 N   0  0  0  0  0  0  0  0  0  0  0  0
   23.2003   36.1585   18.4609 C   0  0  0  0  0  0  0  0  0  0  0  0
   25.3528   35.9683   17.3126 C   0  0  0  0  0  0  0  0  0  0  0  0
  1  5  1  0  0  0  0
  2 17  1  0  0  0  0
  3  1  1  0  0  0  0
  4  3  1  0  0  0  0
  4 26  1  6  0  0  0
  5 11  2  0  0  0  0
  5  6  1  0  0  0  0
  6  7  2  0  0  0  0
  7 21  1  0  0  0  0
  8 15  1  0  0  0  0
  8 16  2  0  0  0  0
  9 19  1  0  0  0  0
 10 18  1  0  0  0  0
 11 20  1  0  0  0  0
 13 14  1  0  0  0  0
 13 12  2  0  0  0  0
 15 13  1  1  0  0  0
 17 19  2  0  0  0  0
 17 15  1  0  0  0  0
 18  2  1  0  0  0  0
 18  9  2  0  0  0  0
 20 21  2  0  0  0  0
 20  2  1  0  0  0  0
 21  8  1  0  0  0  0
 22  6  1  0  0  0  0
 23 11  1  0  0  0  0
 23 10  1  0  0  0  0
 24 23  1  0  0  0  0
 25  1  1  0  0  0  0
 27  4  1  0  0  0  0
 27 25  1  0  0  0  0
 27 28  1  1  0  0  0
 29 28  1  0  0  0  0
 30 28  1  0  0  0  0
M  END
>  <CHROM.1>
-132.30041360,170.03284355,94.75694105,-59.42800452,155.79848290,25.78379795
40.33555588,23.15531139,1.65478526,-0.36563663,-2.26642542

>  <Name>
lig.pdb

>  <RI>
0

>  <Rbt.Current_Directory>
/home/itssahil/PROJECTS/Mol_Feturizer/New_Systems/rnas/6bfb

>  <Rbt.Executable>
rbdock ($Id: //depot/dev/client3/rdock/2013.1/src/exe/rbdock.cxx#4 $)

>  <Rbt.Library>
libRbt.so (2013.1, Build901 2013/11/27)

>  <Rbt.Parameter_File>
/export/apps/rDock/src/rDock_2013.1_src/data/scripts/dock_solv.prm

>  <Rbt.Receptor>
prm/pocket_docking_2.prm

>  <SCORE>
-37.3313

>  <SCORE.INTER>
-33.8491

>  <SCORE.INTER.CONST>
1

>  <SCORE.INTER.POLAR>
-0.640155

>  <SCORE.INTER.ROT>
3

>  <SCORE.INTER.SOLV>
10.7657

>  <SCORE.INTER.VDW>
-29.6208

>  <SCORE.INTER.norm>
-1.1283

>  <SCORE.INTRA>
-3.48215

>  <SCORE.INTRA.DIHEDRAL>
-6.4841

>  <SCORE.INTRA.DIHEDRAL.0>
9.41909

>  <SCORE.INTRA.POLAR>
0

>  <SCORE.INTRA.POLAR.0>
0

>  <SCORE.INTRA.REPUL>
0

>  <SCORE.INTRA.REPUL.0>
0

>  <SCORE.INTRA.SOLV>
-0.156767

>  <SCORE.INTRA.SOLV.lig_0>
-26.2491

>  <SCORE.INTRA.VDW>
-0.161717

>  <SCORE.INTRA.VDW.0>
2.57239

>  <SCORE.INTRA.norm>
-0.116072

>  <SCORE.RESTR>
0

>  <SCORE.RESTR.CAVITY>
0

>  <SCORE.RESTR.norm>
0

>  <SCORE.SYSTEM>
0

>  <SCORE.SYSTEM.CONST>
0

>  <SCORE.SYSTEM.DIHEDRAL>
0

>  <SCORE.SYSTEM.SOLV>
0

>  <SCORE.SYSTEM.norm>
0

>  <SCORE.heavy>
30

>  <SCORE.norm>
-1.24438

>  <RMSD>
0.823

$$$$
lig.pdb
 OpenBabel11021811523D
libRbt.so/2013.1/901 2013/11/27
 30 34  0  0  0  0  0  0  0  0999 V2000
   25.7519   38.3780   21.0014 N   0  0  0  0  0  0  0  0  0  0  0  0
   27.0383   41.9441   24.1851 N   0  0  0  0  0  0  0  0  0  0  0  0
   26.8351   37.3901   21.0153 C   0  0  0  0  0  0  0  0  0  0  0  0
   26.6235   36.6808   19.6863 C   0  0  2  0  0  0  0  0  0  0  0  0
   25.4730   39.1847   22.1842 C   0  0  0  0  0  0  0  0  0  0  0  0
   24.3098   39.0439   22.9683 C   0  0  0  0  0  0  0  0  0  0  0  0
   24.0308   39.8205   24.0651 C   0  0  0  0  0  0  0  0  0  0  0  0
   24.5942   41.6950   25.6151 C   0  0  0  0  0  0  0  0  0  0  0  0
   29.0643   42.9520   24.2277 C   0  0  0  0  0  0  0  0  0  0  0  0
   28.6478   40.9289   22.6610 C   0  0  0  0  0  0  0  0  0  0  0  0
   26.3948   40.1874   22.5978 C   0  0  0  0  0  0  0  0  0  0  0  0
   24.3250   44.4351   27.0057 O   0  0  0  0  0  0  0  0  0  0  0  0
   25.3105   43.6955   27.0476 C   0  0  0  0  0  0  0  0  0  0  0  0
   26.1739   43.7127   28.0557 O   0  0  0  0  0  0  0  0  0  0  0  0
   25.5954   42.7438   25.9409 C   0  0  1  0  0  0  0  0  0  0  0  0
   23.5661   41.5251   26.2793 O   0  0  0  0  0  0  0  0  0  0  0  0
   26.8055   42.8339   25.2311 C   0  0  0  0  0  0  0  0  0  0  0  0
   28.3298   42.0011   23.6426 C   0  0  0  0  0  0  0  0  0  0  0  0
   28.2168   43.7770   25.4697 S   0  0  0  0  0  0  0  0  0  0  0  0
   26.1190   40.9726   23.7402 C   0  0  0  0  0  0  0  0  0  0  0  0
   24.9253   40.8147   24.4610 C   0  0  0  0  0  0  0  0  0  0  0  0
   23.4245   38.0782   22.6503 F   0  0  0  0  0  0  0  0  0  0  0  0
   27.5477   40.4524   21.8421 N   0  0  0  0  0  0  0  0  0  0  0  0
   27.2348   41.2606   20.6829 C   0  0  0  0  0  0  0  0  0  0  0  0
   24.6933   37.9968   20.0733 C   0  0  0  0  0  0  0  0  0  0  0  0
   27.7890   36.7470   18.8634 O   0  0  0  0  0  0  0  0  0  0  0  0
   25.5479   37.4624   18.9364 C   0  0  2  0  0  0  0  0  0  0  0  0
   24.8852   36.5454   17.9895 N   0  0  0  0  0  0  0  0  0  0  0  0
   25.6508   36.2423   16.7667 C   0  0  0  0  0  0  0  0  0  0  0  0
   24.3538   35.3336   18.6322 C   0  0  0  0  0  0  0  0  0  0  0  0
  1  5  1  0  0  0  0
  2 17  1  0  0  0  0
  3  1  1  0  0  0  0
  4  3  1  0  0  0  0
  4 26  1  6  0  0  0
  5 11  2  0  0  0  0
  5  6  1  0  0  0  0
  6  7  2  0  0  0  0
  7 21  1  0  0  0  0
  8 15  1  0  0  0  0
  8 16  2  0  0  0  0
  9 19  1  0  0  0  0
 10 18  1  0  0  0  0
 11 20  1  0  0  0  0
 13 14  1  0  0  0  0
 13 12  2  0  0  0  0
 15 13  1  1  0  0  0
 17 19  2  0  0  0  0
 17 15  1  0  0  0  0
 18  2  1  0  0  0  0
 18  9  2  0  0  0  0
 20 21  2  0  0  0  0
 20  2  1  0  0  0  0
 21  8  1  0  0  0  0
 22  6  1  0  0  0  0
 23 11  1  0  0  0  0
 23 10  1  0  0  0  0
 24 23  1  0  0  0  0
 25  1  1  0  0  0  0
 27  4  1  0  0  0  0
 27 25  1  0  0  0  0
 27 28  1  6  0  0  0
 29 28  1  0  0  0  0
 30 28  1  0  0  0  0
M  END
>  <CHROM.1>
-110.94924956,-179.38995559,-60.38375373,163.17861823,-76.70015687,26.03915739
40.25446661,22.85302323,1.63965150,-0.40899739,-2.27351151

>  <Name>
lig.pdb

>  <RI>
0

>  <Rbt.Current_Directory>
/home/itssahil/PROJECTS/Mol_Feturizer/New_Systems/rnas/6bfb

>  <Rbt.Executable>
rbdock ($Id: //depot/dev/client3/rdock/2013.1/src/exe/rbdock.cxx#4 $)

>  <Rbt.Library>
libRbt.so (2013.1, Build901 2013/11/27)

>  <Rbt.Parameter_File>
/export/apps/rDock/src/rDock_2013.1_src/data/scripts/dock_solv.prm

>  <Rbt.Receptor>
prm/pocket_docking_2.prm

>  <SCORE>
-34.0698

>  <SCORE.INTER>
-31.0446

>  <SCORE.INTER.CONST>
1

>  <SCORE.INTER.POLAR>
0

>  <SCORE.INTER.ROT>
3

>  <SCORE.INTER.SOLV>
10.3044

>  <SCORE.INTER.VDW>
-29.7312

>  <SCORE.INTER.norm>
-1.03482

>  <SCORE.INTRA>
-3.02522

>  <SCORE.INTRA.DIHEDRAL>
-6.274

>  <SCORE.INTRA.DIHEDRAL.0>
9.41909

>  <SCORE.INTRA.POLAR>
0

>  <SCORE.INTRA.POLAR.0>
0

>  <SCORE.INTRA.REPUL>
0.0526611

>  <SCORE.INTRA.REPUL.0>
0

>  <SCORE.INTRA.SOLV>
-0.0765164

>  <SCORE.INTRA.SOLV.lig_0>
-26.2491

>  <SCORE.INTRA.VDW>
-0.113273

>  <SCORE.INTRA.VDW.0>
2.57239

>  <SCORE.INTRA.norm>
-0.100841

>  <SCORE.RESTR>
0

>  <SCORE.RESTR.CAVITY>
0

>  <SCORE.RESTR.norm>
0

>  <SCORE.SYSTEM>
0

>  <SCORE.SYSTEM.CONST>
0

>  <SCORE.SYSTEM.DIHEDRAL>
0

>  <SCORE.SYSTEM.SOLV>
0

>  <SCORE.SYSTEM.norm>
0

>  <SCORE.heavy>
30

>  <SCORE.norm>
-1.13566

>  <RMSD>
0.823

$$$$
lig.pdb
 OpenBabel11021811523D
libRbt.so/2013.1/901 2013/11/27
 30 34  0  0  0  0  0  0  0  0999 V2000
   25.7637   38.3578   20.9895 N   0  0  0  0  0  0  0  0  0  0  0  0
   27.0571   41.9394   24.1528 N   0  0  0  0  0  0  0  0  0  0  0  0
   26.8503   37.3735   20.9886 C   0  0  0  0  0  0  0  0  0  0  0  0
   26.6269   36.6677   19.6596 C   0  0  2  0  0  0  0  0  0  0  0  0
   25.4949   39.1597   22.1778 C   0  0  0  0  0  0  0  0  0  0  0  0
   24.3479   39.0022   22.9825 C   0  0  0  0  0  0  0  0  0  0  0  0
   24.0779   39.7741   24.0848 C   0  0  0  0  0  0  0  0  0  0  0  0
   24.6427   41.6553   25.6262 C   0  0  0  0  0  0  0  0  0  0  0  0
   29.0693   42.9754   24.1601 C   0  0  0  0  0  0  0  0  0  0  0  0
   28.6531   40.9477   22.5993 C   0  0  0  0  0  0  0  0  0  0  0  0
   26.4099   40.1749   22.5758 C   0  0  0  0  0  0  0  0  0  0  0  0
   24.3942   44.4334   26.9958 O   0  0  0  0  0  0  0  0  0  0  0  0
   25.3566   43.6646   27.0474 C   0  0  0  0  0  0  0  0  0  0  0  0
   26.2005   43.6448   28.0719 O   0  0  0  0  0  0  0  0  0  0  0  0
   25.6349   42.7177   25.9349 C   0  0  1  0  0  0  0  0  0  0  0  0
   23.6291   41.4706   26.3085 O   0  0  0  0  0  0  0  0  0  0  0  0
   26.8307   42.8251   25.2037 C   0  0  0  0  0  0  0  0  0  0  0  0
   28.3378   42.0147   23.5874 C   0  0  0  0  0  0  0  0  0  0  0  0
   28.2328   43.7877   25.4178 S   0  0  0  0  0  0  0  0  0  0  0  0
   26.1437   40.9554   23.7236 C   0  0  0  0  0  0  0  0  0  0  0  0
   24.9654   40.7804   24.4656 C   0  0  0  0  0  0  0  0  0  0  0  0
   23.4706   38.0244   22.6796 F   0  0  0  0  0  0  0  0  0  0  0  0
   27.5451   40.4564   21.7998 N   0  0  0  0  0  0  0  0  0  0  0  0
   27.2004   41.2609   20.6471 C   0  0  0  0  0  0  0  0  0  0  0  0
   24.6965   37.9759   20.0716 C   0  0  0  0  0  0  0  0  0  0  0  0
   27.7832   36.7405   18.8244 O   0  0  0  0  0  0  0  0  0  0  0  0
   25.5406   37.4481   18.9238 C   0  0  2  0  0  0  0  0  0  0  0  0
   24.8708   36.5319   17.9812 N   0  0  0  0  0  0  0  0  0  0  0  0
   25.6743   36.1357   16.8104 C   0  0  0  0  0  0  0  0  0  0  0  0
   24.2395   35.3797   18.6428 C   0  0  0  0  0  0  0  0  0  0  0  0
  1  5  1  0  0  0  0
  2 17  1  0  0  0  0
  3  1  1  0  0  0  0
  4  3  1  0  0  0  0
  4 26  1  6  0  0  0
  5 11  2  0  0  0  0
  5  6  1  0  0  0  0
  6  7  2  0  0  0  0
  7 21  1  0  0  0  0
  8 15  1  0  0  0  0
  8 16  2  0  0  0  0
  9 19  1  0  0  0  0
 10 18  1  0  0  0  0
 11 20  1  0  0  0  0
 13 14  1  0  0  0  0
 13 12  2  0  0  0  0
 15 13  1  1  0  0  0
 17 19  2  0  0  0  0
 17 15  1  0  0  0  0
 18  2  1  0  0  0  0
 18  9  2  0  0  0  0
 20 21  2  0  0  0  0
 20  2  1  0  0  0  0
 21  8  1  0  0  0  0
 22  6  1  0  0  0  0
 23 11  1  0  0  0  0
 23 10  1  0  0  0  0
 24 23  1  0  0  0  0
 25  1  1  0  0  0  0
 27  4  1  0  0  0  0
 27 25  1  0  0  0  0
 27 28  1  6  0  0  0
 29 28  1  0  0  0  0
 30 28  1  0  0  0  0
M  END
>  <CHROM.1>
-110.20483641,1.51917965,-63.70965130,63.33754166,-71.23382537,26.05458558
40.23986825,22.84412797,1.64387564,-0.42759946,-2.27233888

>  <Name>
lig.pdb

>  <RI>
0

>  <Rbt.Current_Directory>
/home/itssahil/PROJECTS/Mol_Feturizer/New_Systems/rnas/6bfb

>  <Rbt.Executable>
rbdock ($Id: //depot/dev/client3/rdock/2013.1/src/exe/rbdock.cxx#4 $)

>  <Rbt.Library>
libRbt.so (2013.1, Build901 2013/11/27)

>  <Rbt.Parameter_File>
/export/apps/rDock/src/rDock_2013.1_src/data/scripts/dock_solv.prm

>  <Rbt.Receptor>
prm/pocket_docking_2.prm

>  <SCORE>
-35.7439

>  <SCORE.INTER>
-31.0033

>  <SCORE.INTER.CONST>
1

>  <SCORE.INTER.POLAR>
0

>  <SCORE.INTER.ROT>
3

>  <SCORE.INTER.SOLV>
10.4918

>  <SCORE.INTER.VDW>
-29.7661

>  <SCORE.INTER.norm>
-1.03344

>  <SCORE.INTRA>
-4.74062

>  <SCORE.INTRA.DIHEDRAL>
-7.63329

>  <SCORE.INTRA.DIHEDRAL.0>
9.41909

>  <SCORE.INTRA.POLAR>
0

>  <SCORE.INTRA.POLAR.0>
0

>  <SCORE.INTRA.REPUL>
0.0544046

>  <SCORE.INTRA.REPUL.0>
0

>  <SCORE.INTRA.SOLV>
-0.0329139

>  <SCORE.INTRA.SOLV.lig_0>
-26.2491

>  <SCORE.INTRA.VDW>
-1.17954

>  <SCORE.INTRA.VDW.0>
2.57239

>  <SCORE.INTRA.norm>
-0.158021

>  <SCORE.RESTR>
0

>  <SCORE.RESTR.CAVITY>
0

>  <SCORE.RESTR.norm>
0

>  <SCORE.SYSTEM>
0

>  <SCORE.SYSTEM.CONST>
0

>  <SCORE.SYSTEM.DIHEDRAL>
0

>  <SCORE.SYSTEM.SOLV>
0

>  <SCORE.SYSTEM.norm>
0

>  <SCORE.heavy>
30

>  <SCORE.norm>
-1.19146

>  <RMSD>
0.825

$$$$
lig.pdb
 OpenBabel11021811523D
libRbt.so/2013.1/901 2013/11/27
 30 34  0  0  0  0  0  0  0  0999 V2000
   25.5539   38.4484   21.3304 N   0  0  0  0  0  0  0  0  0  0  0  0
   26.8647   41.9850   24.5369 N   0  0  0  0  0  0  0  0  0  0  0  0
   26.8483   37.7765   21.1800 C   0  0  0  0  0  0  0  0  0  0  0  0
   26.6112   36.9221   19.9438 C   0  0  2  0  0  0  0  0  0  0  0  0
   25.2750   39.2578   22.5113 C   0  0  0  0  0  0  0  0  0  0  0  0
   24.0998   39.1366   23.2807 C   0  0  0  0  0  0  0  0  0  0  0  0
   23.8213   39.9161   24.3755 C   0  0  0  0  0  0  0  0  0  0  0  0
   24.3990   41.7774   25.9362 C   0  0  0  0  0  0  0  0  0  0  0  0
   28.9078   42.9563   24.6066 C   0  0  0  0  0  0  0  0  0  0  0  0
   28.4745   40.9437   23.0307 C   0  0  0  0  0  0  0  0  0  0  0  0
   26.2095   40.2430   22.9383 C   0  0  0  0  0  0  0  0  0  0  0  0
   25.5240   43.5328   28.5281 O   0  0  0  0  0  0  0  0  0  0  0  0
   25.1334   43.7621   27.3814 C   0  0  0  0  0  0  0  0  0  0  0  0
   24.4349   44.8466   27.0685 O   0  0  0  0  0  0  0  0  0  0  0  0
   25.4148   42.8074   26.2764 C   0  0  1  0  0  0  0  0  0  0  0  0
   23.3599   41.6248   26.5872 O   0  0  0  0  0  0  0  0  0  0  0  0
   26.6349   42.8770   25.5818 C   0  0  0  0  0  0  0  0  0  0  0  0
   28.1636   42.0198   24.0105 C   0  0  0  0  0  0  0  0  0  0  0  0
   28.0600   43.7942   25.8396 S   0  0  0  0  0  0  0  0  0  0  0  0
   25.9337   41.0310   24.0787 C   0  0  0  0  0  0  0  0  0  0  0  0
   24.7285   40.8933   24.7845 C   0  0  0  0  0  0  0  0  0  0  0  0
   23.2013   38.1875   22.9499 F   0  0  0  0  0  0  0  0  0  0  0  0
   27.3761   40.4886   22.1974 N   0  0  0  0  0  0  0  0  0  0  0  0
   27.0922   41.3044   21.0360 C   0  0  0  0  0  0  0  0  0  0  0  0
   24.4941   37.7279   20.6339 C   0  0  0  0  0  0  0  0  0  0  0  0
   27.5580   37.2120   18.9145 O   0  0  0  0  0  0  0  0  0  0  0  0
   25.2537   37.3323   19.3789 C   0  0  2  0  0  0  0  0  0  0  0  0
   24.7098   36.1960   18.6110 N   0  0  0  0  0  0  0  0  0  0  0  0
   23.2448   36.1919   18.4459 C   0  0  0  0  0  0  0  0  0  0  0  0
   25.4169   35.9624   17.3425 C   0  0  0  0  0  0  0  0  0  0  0  0
  1  5  1  0  0  0  0
  2 17  1  0  0  0  0
  3  1  1  0  0  0  0
  4  3  1  0  0  0  0
  4 26  1  6  0  0  0
  5 11  2  0  0  0  0
  5  6  1  0  0  0  0
  6  7  2  0  0  0  0
  7 21  1  0  0  0  0
  8 15  1  0  0  0  0
  8 16  2  0  0  0  0
  9 19  1  0  0  0  0
 10 18  1  0  0  0  0
 11 20  1  0  0  0  0
 13 14  1  0  0  0  0
 13 12  2  0  0  0  0
 15 13  1  1  0  0  0
 17 19  2  0  0  0  0
 17 15  1  0  0  0  0
 18  2  1  0  0  0  0
 18  9  2  0  0  0  0
 20 21  2  0  0  0  0
 20  2  1  0  0  0  0
 21  8  1  0  0  0  0
 22  6  1  0  0  0  0
 23 11  1  0  0  0  0
 23 10  1  0  0  0  0
 24 23  1  0  0  0  0
 25  1  1  0  0  0  0
 27  4  1  0  0  0  0
 27 25  1  0  0  0  0
 27 28  1  1  0  0  0
 29 28  1  0  0  0  0
 30 28  1  0  0  0  0
M  END
>  <CHROM.1>
-131.11595778,169.82125895,93.97151691,-59.08415177,157.01733692,25.81654186
40.34263395,23.17360327,1.65216994,-0.37703396,-2.26726445

>  <Name>
lig.pdb

>  <RI>
0

>  <Rbt.Current_Directory>
/home/itssahil/PROJECTS/Mol_Feturizer/New_Systems/rnas/6bfb

>  <Rbt.Executable>
rbdock ($Id: //depot/dev/client3/rdock/2013.1/src/exe/rbdock.cxx#4 $)

>  <Rbt.Library>
libRbt.so (2013.1, Build901 2013/11/27)

>  <Rbt.Parameter_File>
/export/apps/rDock/src/rDock_2013.1_src/data/scripts/dock_solv.prm

>  <Rbt.Receptor>
prm/pocket_docking_2.prm

>  <SCORE>
-37.294

>  <SCORE.INTER>
-33.7096

>  <SCORE.INTER.CONST>
1

>  <SCORE.INTER.POLAR>
-0.660958

>  <SCORE.INTER.ROT>
3

>  <SCORE.INTER.SOLV>
10.8687

>  <SCORE.INTER.VDW>
-29.4928

>  <SCORE.INTER.norm>
-1.12365

>  <SCORE.INTRA>
-3.5844

>  <SCORE.INTRA.DIHEDRAL>
-6.50843

>  <SCORE.INTRA.DIHEDRAL.0>
9.41909

>  <SCORE.INTRA.POLAR>
0

>  <SCORE.INTRA.POLAR.0>
0

>  <SCORE.INTRA.REPUL>
0.00161698

>  <SCORE.INTRA.REPUL.0>
0

>  <SCORE.INTRA.SOLV>
-0.160962

>  <SCORE.INTRA.SOLV.lig_0>
-26.2491

>  <SCORE.INTRA.VDW>
-0.257786

>  <SCORE.INTRA.VDW.0>
2.57239

>  <SCORE.INTRA.norm>
-0.11948

>  <SCORE.RESTR>
0

>  <SCORE.RESTR.CAVITY>
0

>  <SCORE.RESTR.norm>
0

>  <SCORE.SYSTEM>
0

>  <SCORE.SYSTEM.CONST>
0

>  <SCORE.SYSTEM.DIHEDRAL>
0

>  <SCORE.SYSTEM.SOLV>
0

>  <SCORE.SYSTEM.norm>
0

>  <SCORE.heavy>
30

>  <SCORE.norm>
-1.24313

>  <RMSD>
0.829

$$$$
lig.pdb
 OpenBabel11021811523D
libRbt.so/2013.1/901 2013/11/27
 30 34  0  0  0  0  0  0  0  0999 V2000
   25.7379   38.3234   21.0050 N   0  0  0  0  0  0  0  0  0  0  0  0
   27.0618   41.8981   24.1634 N   0  0  0  0  0  0  0  0  0  0  0  0
   26.8398   37.3563   21.0103 C   0  0  0  0  0  0  0  0  0  0  0  0
   26.6150   36.6245   19.6956 C   0  0  2  0  0  0  0  0  0  0  0  0
   25.4676   39.1412   22.1821 C   0  0  0  0  0  0  0  0  0  0  0  0
   24.3030   39.0181   22.9673 C   0  0  0  0  0  0  0  0  0  0  0  0
   24.0324   39.8052   24.0586 C   0  0  0  0  0  0  0  0  0  0  0  0
   24.6155   41.6846   25.5954 C   0  0  0  0  0  0  0  0  0  0  0  0
   29.0983   42.8851   24.1989 C   0  0  0  0  0  0  0  0  0  0  0  0
   28.6605   40.8555   22.6464 C   0  0  0  0  0  0  0  0  0  0  0  0
   26.3999   40.1371   22.5886 C   0  0  0  0  0  0  0  0  0  0  0  0
   24.3856   44.4500   26.9580 O   0  0  0  0  0  0  0  0  0  0  0  0
   25.3528   43.6875   27.0137 C   0  0  0  0  0  0  0  0  0  0  0  0
   26.2050   43.6883   28.0314 O   0  0  0  0  0  0  0  0  0  0  0  0
   25.6276   42.7252   25.9137 C   0  0  1  0  0  0  0  0  0  0  0  0
   23.5858   41.5301   26.2608 O   0  0  0  0  0  0  0  0  0  0  0  0
   26.8385   42.7976   25.2032 C   0  0  0  0  0  0  0  0  0  0  0  0
   28.3538   41.9378   23.6205 C   0  0  0  0  0  0  0  0  0  0  0  0
   28.2596   43.7277   25.4350 S   0  0  0  0  0  0  0  0  0  0  0  0
   26.1325   40.9332   23.7254 C   0  0  0  0  0  0  0  0  0  0  0  0
   24.9373   40.7928   24.4475 C   0  0  0  0  0  0  0  0  0  0  0  0
   23.4077   38.0594   22.6562 F   0  0  0  0  0  0  0  0  0  0  0  0
   27.5553   40.3847   21.8310 N   0  0  0  0  0  0  0  0  0  0  0  0
   27.2507   41.1880   20.6661 C   0  0  0  0  0  0  0  0  0  0  0  0
   24.6682   37.9093   20.1041 C   0  0  0  0  0  0  0  0  0  0  0  0
   27.7621   36.7010   18.8482 O   0  0  0  0  0  0  0  0  0  0  0  0
   25.5097   37.3751   18.9573 C   0  0  2  0  0  0  0  0  0  0  0  0
   24.8456   36.4326   18.0369 N   0  0  0  0  0  0  0  0  0  0  0  0
   25.6383   36.0411   16.8572 C   0  0  0  0  0  0  0  0  0  0  0  0
   24.2524   35.2742   18.7224 C   0  0  0  0  0  0  0  0  0  0  0  0
  1  5  1  0  0  0  0
  2 17  1  0  0  0  0
  3  1  1  0  0  0  0
  4  3  1  0  0  0  0
  4 26  1  6  0  0  0
  5 11  2  0  0  0  0
  5  6  1  0  0  0  0
  6  7  2  0  0  0  0
  7 21  1  0  0  0  0
  8 15  1  0  0  0  0
  8 16  2  0  0  0  0
  9 19  1  0  0  0  0
 10 18  1  0  0  0  0
 11 20  1  0  0  0  0
 13 14  1  0  0  0  0
 13 12  2  0  0  0  0
 15 13  1  1  0  0  0
 17 19  2  0  0  0  0
 17 15  1  0  0  0  0
 18  2  1  0  0  0  0
 18  9  2  0  0  0  0
 20 21  2  0  0  0  0
 20  2  1  0  0  0  0
 21  8  1  0  0  0  0
 22  6  1  0  0  0  0
 23 11  1  0  0  0  0
 23 10  1  0  0  0  0
 24 23  1  0  0  0  0
 25  1  1  0  0  0  0
 27  4  1  0  0  0  0
 27 25  1  0  0  0  0
 27 28  1  6  0  0  0
 29 28  1  0  0  0  0
 30 28  1  0  0  0  0
M  END
>  <CHROM.1>
-113.03097587,-179.79519283,-61.39636683,63.78937526,-71.90430890,26.04674266
40.20585465,22.85116535,1.64716229,-0.39955890,-2.28120781

>  <Name>
lig.pdb

>  <RI>
0

>  <Rbt.Current_Directory>
/home/itssahil/PROJECTS/Mol_Feturizer/New_Systems/rnas/6bfb

>  <Rbt.Executable>
rbdock ($Id: //depot/dev/client3/rdock/2013.1/src/exe/rbdock.cxx#4 $)

>  <Rbt.Library>
libRbt.so (2013.1, Build901 2013/11/27)

>  <Rbt.Parameter_File>
/export/apps/rDock/src/rDock_2013.1_src/data/scripts/dock_solv.prm

>  <Rbt.Receptor>
prm/pocket_docking_3.prm

>  <SCORE>
-35.9759

>  <SCORE.INTER>
-31.6134

>  <SCORE.INTER.CONST>
1

>  <SCORE.INTER.POLAR>
0

>  <SCORE.INTER.ROT>
3

>  <SCORE.INTER.SOLV>
10.2544

>  <SCORE.INTER.VDW>
-30.0937

>  <SCORE.INTER.norm>
-1.05378

>  <SCORE.INTRA>
-4.36252

>  <SCORE.INTRA.DIHEDRAL>
-7.61235

>  <SCORE.INTRA.DIHEDRAL.0>
9.41909

>  <SCORE.INTRA.POLAR>
0

>  <SCORE.INTRA.POLAR.0>
0

>  <SCORE.INTRA.REPUL>
0.0477145

>  <SCORE.INTRA.REPUL.0>
0

>  <SCORE.INTRA.SOLV>
-0.0887513

>  <SCORE.INTRA.SOLV.lig_0>
-26.2491

>  <SCORE.INTRA.VDW>
-0.750544

>  <SCORE.INTRA.VDW.0>
2.57239

>  <SCORE.INTRA.norm>
-0.145417

>  <SCORE.RESTR>
0

>  <SCORE.RESTR.CAVITY>
0

>  <SCORE.RESTR.norm>
0

>  <SCORE.SYSTEM>
0

>  <SCORE.SYSTEM.CONST>
0

>  <SCORE.SYSTEM.DIHEDRAL>
0

>  <SCORE.SYSTEM.SOLV>
0

>  <SCORE.SYSTEM.norm>
0

>  <SCORE.heavy>
30

>  <SCORE.norm>
-1.1992

>  <RMSD>
0.830

$$$$
lig.pdb
 OpenBabel11021811523D
libRbt.so/2013.1/901 2013/11/27
 30 34  0  0  0  0  0  0  0  0999 V2000
   25.7389   38.3271   20.9766 N   0  0  0  0  0  0  0  0  0  0  0  0
   27.0718   41.9050   24.1278 N   0  0  0  0  0  0  0  0  0  0  0  0
   26.8393   37.3584   20.9656 C   0  0  0  0  0  0  0  0  0  0  0  0
   26.6032   36.6375   19.6470 C   0  0  2  0  0  0  0  0  0  0  0  0
   25.4790   39.1360   22.1623 C   0  0  0  0  0  0  0  0  0  0  0  0
   24.3305   38.9937   22.9676 C   0  0  0  0  0  0  0  0  0  0  0  0
   24.0691   39.7722   24.0674 C   0  0  0  0  0  0  0  0  0  0  0  0
   24.6547   41.6523   25.6024 C   0  0  0  0  0  0  0  0  0  0  0  0
   29.0953   42.9190   24.1313 C   0  0  0  0  0  0  0  0  0  0  0  0
   28.6566   40.8907   22.5774 C   0  0  0  0  0  0  0  0  0  0  0  0
   26.4051   40.1424   22.5567 C   0  0  0  0  0  0  0  0  0  0  0  0
   24.4233   44.4215   26.9732 O   0  0  0  0  0  0  0  0  0  0  0  0
   25.3908   43.6584   27.0167 C   0  0  0  0  0  0  0  0  0  0  0  0
   26.2493   43.6510   28.0291 O   0  0  0  0  0  0  0  0  0  0  0  0
   25.6585   42.7048   25.9074 C   0  0  1  0  0  0  0  0  0  0  0  0
   23.6393   41.4809   26.2854 O   0  0  0  0  0  0  0  0  0  0  0  0
   26.8552   42.7967   25.1757 C   0  0  0  0  0  0  0  0  0  0  0  0
   28.3532   41.9645   23.5619 C   0  0  0  0  0  0  0  0  0  0  0  0
   28.2678   43.7446   25.3863 S   0  0  0  0  0  0  0  0  0  0  0  0
   26.1476   40.9297   23.7019 C   0  0  0  0  0  0  0  0  0  0  0  0
   24.9676   40.7701   24.4446 C   0  0  0  0  0  0  0  0  0  0  0  0
   23.4425   38.0245   22.6681 F   0  0  0  0  0  0  0  0  0  0  0  0
   27.5433   40.4089   21.7796 N   0  0  0  0  0  0  0  0  0  0  0  0
   27.2072   41.2133   20.6243 C   0  0  0  0  0  0  0  0  0  0  0  0
   24.6616   37.9219   20.0807 C   0  0  0  0  0  0  0  0  0  0  0  0
   27.7439   36.7191   18.7913 O   0  0  0  0  0  0  0  0  0  0  0  0
   25.4934   37.3956   18.9233 C   0  0  2  0  0  0  0  0  0  0  0  0
   24.8207   36.4615   18.0005 N   0  0  0  0  0  0  0  0  0  0  0  0
   25.6102   36.0650   16.8203 C   0  0  0  0  0  0  0  0  0  0  0  0
   24.2162   35.3073   18.6833 C   0  0  0  0  0  0  0  0  0  0  0  0
  1  5  1  0  0  0  0
  2 17  1  0  0  0  0
  3  1  1  0  0  0  0
  4  3  1  0  0  0  0
  4 26  1  6  0  0  0
  5 11  2  0  0  0  0
  5  6  1  0  0  0  0
  6  7  2  0  0  0  0
  7 21  1  0  0  0  0
  8 15  1  0  0  0  0
  8 16  2  0  0  0  0
  9 19  1  0  0  0  0
 10 18  1  0  0  0  0
 11 20  1  0  0  0  0
 13 14  1  0  0  0  0
 13 12  2  0  0  0  0
 15 13  1  1  0  0  0
 17 19  2  0  0  0  0
 17 15  1  0  0  0  0
 18  2  1  0  0  0  0
 18  9  2  0  0  0  0
 20 21  2  0  0  0  0
 20  2  1  0  0  0  0
 21  8  1  0  0  0  0
 22  6  1  0  0  0  0
 23 11  1  0  0  0  0
 23 10  1  0  0  0  0
 24 23  1  0  0  0  0
 25  1  1  0  0  0  0
 27  4  1  0  0  0  0
 27 25  1  0  0  0  0
 27 28  1  6  0  0  0
 29 28  1  0  0  0  0
 30 28  1  0  0  0  0
M  END
>  <CHROM.1>
-111.97876390,178.81824360,-62.44071649,-58.37668720,-71.17026701,26.05316921
40.20986285,22.82366333,1.65372329,-0.42363524,-2.27179729

>  <Name>
lig.pdb

>  <RI>
0

>  <Rbt.Current_Directory>
/home/itssahil/PROJECTS/Mol_Feturizer/New_Systems/rnas/6bfb

>  <Rbt.Executable>
rbdock ($Id: //depot/dev/client3/rdock/2013.1/src/exe/rbdock.cxx#4 $)

>  <Rbt.Library>
libRbt.so (2013.1, Build901 2013/11/27)

>  <Rbt.Parameter_File>
/export/apps/rDock/src/rDock_2013.1_src/data/scripts/dock_solv.prm

>  <Rbt.Receptor>
prm/pocket_docking_3.prm

>  <SCORE>
-35.2427

>  <SCORE.INTER>
-31.2396

>  <SCORE.INTER.CONST>
1

>  <SCORE.INTER.POLAR>
0

>  <SCORE.INTER.ROT>
3

>  <SCORE.INTER.SOLV>
10.3655

>  <SCORE.INTER.VDW>
-29.8816

>  <SCORE.INTER.norm>
-1.04132

>  <SCORE.INTRA>
-4.0031

>  <SCORE.INTRA.DIHEDRAL>
-7.66483

>  <SCORE.INTRA.DIHEDRAL.0>
9.41909

>  <SCORE.INTRA.POLAR>
0

>  <SCORE.INTRA.POLAR.0>
0

>  <SCORE.INTRA.REPUL>
0.0502275

>  <SCORE.INTRA.REPUL.0>
0

>  <SCORE.INTRA.SOLV>
-0.0692

>  <SCORE.INTRA.SOLV.lig_0>
-26.2491

>  <SCORE.INTRA.VDW>
-0.387225

>  <SCORE.INTRA.VDW.0>
2.57239

>  <SCORE.INTRA.norm>
-0.133437

>  <SCORE.RESTR>
0

>  <SCORE.RESTR.CAVITY>
0

>  <SCORE.RESTR.norm>
0

>  <SCORE.SYSTEM>
0

>  <SCORE.SYSTEM.CONST>
0

>  <SCORE.SYSTEM.DIHEDRAL>
0

>  <SCORE.SYSTEM.SOLV>
0

>  <SCORE.SYSTEM.norm>
0

>  <SCORE.heavy>
30

>  <SCORE.norm>
-1.17476

>  <RMSD>
0.833

$$$$
lig.pdb
 OpenBabel11021811523D
libRbt.so/2013.1/901 2013/11/27
 30 34  0  0  0  0  0  0  0  0999 V2000
   25.6961   38.3743   21.0337 N   0  0  0  0  0  0  0  0  0  0  0  0
   27.0098   41.9468   24.1988 N   0  0  0  0  0  0  0  0  0  0  0  0
   26.8138   37.4256   21.0201 C   0  0  0  0  0  0  0  0  0  0  0  0
   26.5837   36.6957   19.7053 C   0  0  2  0  0  0  0  0  0  0  0  0
   25.4279   39.1826   22.2178 C   0  0  0  0  0  0  0  0  0  0  0  0
   24.2726   39.0417   23.0136 C   0  0  0  0  0  0  0  0  0  0  0  0
   24.0036   39.8198   24.1118 C   0  0  0  0  0  0  0  0  0  0  0  0
   24.5801   41.6974   25.6533 C   0  0  0  0  0  0  0  0  0  0  0  0
   29.0350   42.9570   24.2199 C   0  0  0  0  0  0  0  0  0  0  0  0
   28.6054   40.9309   22.6606 C   0  0  0  0  0  0  0  0  0  0  0  0
   26.3527   40.1869   22.6208 C   0  0  0  0  0  0  0  0  0  0  0  0
   24.3121   44.4268   27.0506 O   0  0  0  0  0  0  0  0  0  0  0  0
   25.3083   43.7009   27.0754 C   0  0  0  0  0  0  0  0  0  0  0  0
   26.1920   43.7350   28.0653 O   0  0  0  0  0  0  0  0  0  0  0  0
   25.5834   42.7478   25.9675 C   0  0  1  0  0  0  0  0  0  0  0  0
   23.5588   41.5274   26.3278 O   0  0  0  0  0  0  0  0  0  0  0  0
   26.7863   42.8380   25.2457 C   0  0  0  0  0  0  0  0  0  0  0  0
   28.2958   42.0044   23.6435 C   0  0  0  0  0  0  0  0  0  0  0  0
   28.1989   43.7831   25.4688 S   0  0  0  0  0  0  0  0  0  0  0  0
   26.0873   40.9736   23.7645 C   0  0  0  0  0  0  0  0  0  0  0  0
   24.9009   40.8156   24.4974 C   0  0  0  0  0  0  0  0  0  0  0  0
   23.3853   38.0745   22.7059 F   0  0  0  0  0  0  0  0  0  0  0  0
   27.4977   40.4519   21.8533 N   0  0  0  0  0  0  0  0  0  0  0  0
   27.1726   41.2579   20.6960 C   0  0  0  0  0  0  0  0  0  0  0  0
   24.6215   37.9463   20.1451 C   0  0  0  0  0  0  0  0  0  0  0  0
   27.7181   36.7948   18.8432 O   0  0  0  0  0  0  0  0  0  0  0  0
   25.4565   37.4310   18.9849 C   0  0  2  0  0  0  0  0  0  0  0  0
   24.7958   36.4815   18.0692 N   0  0  0  0  0  0  0  0  0  0  0  0
   25.5917   36.0837   16.8937 C   0  0  0  0  0  0  0  0  0  0  0  0
   24.2030   35.3266   18.7609 C   0  0  0  0  0  0  0  0  0  0  0  0
  1  5  1  0  0  0  0
  2 17  1  0  0  0  0
  3  1  1  0  0  0  0
  4  3  1  0  0  0  0
  4 26  1  6  0  0  0
  5 11  2  0  0  0  0
  5  6  1  0  0  0  0
  6  7  2  0  0  0  0
  7 21  1  0  0  0  0
  8 15  1  0  0  0  0
  8 16  2  0  0  0  0
  9 19  1  0  0  0  0
 10 18  1  0  0  0  0
 11 20  1  0  0  0  0
 13 14  1  0  0  0  0
 13 12  2  0  0  0  0
 15 13  1  1  0  0  0
 17 19  2  0  0  0  0
 17 15  1  0  0  0  0
 18  2  1  0  0  0  0
 18  9  2  0  0  0  0
 20 21  2  0  0  0  0
 20  2  1  0  0  0  0
 21  8  1  0  0  0  0
 22  6  1  0  0  0  0
 23 11  1  0  0  0  0
 23 10  1  0  0  0  0
 24 23  1  0  0  0  0
 25  1  1  0  0  0  0
 27  4  1  0  0  0  0
 27 25  1  0  0  0  0
 27 28  1  6  0  0  0
 29 28  1  0  0  0  0
 30 28  1  0  0  0  0
M  END
>  <CHROM.1>
-113.38881631,-179.49834116,-59.40981053,62.34217155,-70.53090548,26.00134228
40.24960164,22.88809287,1.64740269,-0.41387779,-2.27646808

>  <Name>
lig.pdb

>  <RI>
0

>  <Rbt.Current_Directory>
/home/itssahil/PROJECTS/Mol_Feturizer/New_Systems/rnas/6bfb

>  <Rbt.Executable>
rbdock ($Id: //depot/dev/client3/rdock/2013.1/src/exe/rbdock.cxx#4 $)

>  <Rbt.Library>
libRbt.so (2013.1, Build901 2013/11/27)

>  <Rbt.Parameter_File>
/export/apps/rDock/src/rDock_2013.1_src/data/scripts/dock_solv.prm

>  <Rbt.Receptor>
prm/pocket_docking_5.prm

>  <SCORE>
-35.9489

>  <SCORE.INTER>
-31.6693

>  <SCORE.INTER.CONST>
1

>  <SCORE.INTER.POLAR>
0

>  <SCORE.INTER.ROT>
3

>  <SCORE.INTER.SOLV>
10.2661

>  <SCORE.INTER.VDW>
-30.1349

>  <SCORE.INTER.norm>
-1.05564

>  <SCORE.INTRA>
-4.27956

>  <SCORE.INTRA.DIHEDRAL>
-7.67716

>  <SCORE.INTRA.DIHEDRAL.0>
9.41909

>  <SCORE.INTRA.POLAR>
0

>  <SCORE.INTRA.POLAR.0>
0

>  <SCORE.INTRA.REPUL>
0.0468542

>  <SCORE.INTRA.REPUL.0>
0

>  <SCORE.INTRA.SOLV>
-0.0876407

>  <SCORE.INTRA.SOLV.lig_0>
-26.2491

>  <SCORE.INTRA.VDW>
-0.631428

>  <SCORE.INTRA.VDW.0>
2.57239

>  <SCORE.INTRA.norm>
-0.142652

>  <SCORE.RESTR>
0

>  <SCORE.RESTR.CAVITY>
0

>  <SCORE.RESTR.norm>
0

>  <SCORE.SYSTEM>
0

>  <SCORE.SYSTEM.CONST>
0

>  <SCORE.SYSTEM.DIHEDRAL>
0

>  <SCORE.SYSTEM.SOLV>
0

>  <SCORE.SYSTEM.norm>
0

>  <SCORE.heavy>
30

>  <SCORE.norm>
-1.1983

>  <RMSD>
0.840

$$$$
lig.pdb
 OpenBabel11021811523D
libRbt.so/2013.1/901 2013/11/27
 30 34  0  0  0  0  0  0  0  0999 V2000
   26.5550   38.5988   21.1084 N   0  0  0  0  0  0  0  0  0  0  0  0
   27.0888   42.0525   24.6147 N   0  0  0  0  0  0  0  0  0  0  0  0
   27.8027   37.8334   21.1919 C   0  0  0  0  0  0  0  0  0  0  0  0
   27.8217   37.1255   19.8455 C   0  0  2  0  0  0  0  0  0  0  0  0
   26.0472   39.3127   22.2746 C   0  0  0  0  0  0  0  0  0  0  0  0
   24.7982   39.0443   22.8710 C   0  0  0  0  0  0  0  0  0  0  0  0
   24.3050   39.7333   23.9508 C   0  0  0  0  0  0  0  0  0  0  0  0
   24.4919   41.5481   25.6553 C   0  0  0  0  0  0  0  0  0  0  0  0
   29.0026   43.1962   25.0040 C   0  0  0  0  0  0  0  0  0  0  0  0
   28.9746   41.2447   23.2974 C   0  0  0  0  0  0  0  0  0  0  0  0
   26.8189   40.3515   22.8673 C   0  0  0  0  0  0  0  0  0  0  0  0
   25.5282   43.7433   28.2650 O   0  0  0  0  0  0  0  0  0  0  0  0
   24.8368   43.5060   27.2722 C   0  0  0  0  0  0  0  0  0  0  0  0
   23.6058   43.9816   27.1293 O   0  0  0  0  0  0  0  0  0  0  0  0
   25.3510   42.6437   26.1751 C   0  0  1  0  0  0  0  0  0  0  0  0
   23.3957   41.2673   26.1517 O   0  0  0  0  0  0  0  0  0  0  0  0
   26.6395   42.8604   25.6566 C   0  0  0  0  0  0  0  0  0  0  0  0
   28.4362   42.2321   24.2719 C   0  0  0  0  0  0  0  0  0  0  0  0
   27.9239   43.8848   26.1456 S   0  0  0  0  0  0  0  0  0  0  0  0
   26.3216   41.0466   23.9930 C   0  0  0  0  0  0  0  0  0  0  0  0
   25.0529   40.7629   24.5216 C   0  0  0  0  0  0  0  0  0  0  0  0
   24.0459   38.0391   22.3799 F   0  0  0  0  0  0  0  0  0  0  0  0
   28.0439   40.7411   22.3034 N   0  0  0  0  0  0  0  0  0  0  0  0
   27.8382   41.5923   21.1510 C   0  0  0  0  0  0  0  0  0  0  0  0
   25.6545   38.0443   20.1039 C   0  0  0  0  0  0  0  0  0  0  0  0
   29.0071   37.4285   19.1087 O   0  0  0  0  0  0  0  0  0  0  0  0
   26.6713   37.7056   19.0268 C   0  0  2  0  0  0  0  0  0  0  0  0
   26.2616   36.7003   18.0277 N   0  0  0  0  0  0  0  0  0  0  0  0
   27.1930   36.5187   16.8994 C   0  0  0  0  0  0  0  0  0  0  0  0
   25.8521   35.4210   18.6272 C   0  0  0  0  0  0  0  0  0  0  0  0
  1  5  1  0  0  0  0
  2 17  1  0  0  0  0
  3  1  1  0  0  0  0
  4  3  1  0  0  0  0
  4 26  1  6  0  0  0
  5 11  2  0  0  0  0
  5  6  1  0  0  0  0
  6  7  2  0  0  0  0
  7 21  1  0  0  0  0
  8 15  1  0  0  0  0
  8 16  2  0  0  0  0
  9 19  1  0  0  0  0
 10 18  1  0  0  0  0
 11 20  1  0  0  0  0
 13 14  1  0  0  0  0
 13 12  2  0  0  0  0
 15 13  1  1  0  0  0
 17 19  2  0  0  0  0
 17 15  1  0  0  0  0
 18  2  1  0  0  0  0
 18  9  2  0  0  0  0
 20 21  2  0  0  0  0
 20  2  1  0  0  0  0
 21  8  1  0  0  0  0
 22  6  1  0  0  0  0
 23 11  1  0  0  0  0
 23 10  1  0  0  0  0
 24 23  1  0  0  0  0
 25  1  1  0  0  0  0
 27  4  1  0  0  0  0
 27 25  1  0  0  0  0
 27 28  1  6  0  0  0
 29 28  1  0  0  0  0
 30 28  1  0  0  0  0
M  END
>  <CHROM.1>
-119.18812059,1.88841774,131.66196019,61.93501242,-73.33122931,26.41854415
40.37074856,23.07955988,1.45881701,-0.36765220,-2.29933054

>  <Name>
lig.pdb

>  <RI>
0

>  <Rbt.Current_Directory>
/home/itssahil/PROJECTS/Mol_Feturizer/New_Systems/rnas/6bfb

>  <Rbt.Executable>
rbdock ($Id: //depot/dev/client3/rdock/2013.1/src/exe/rbdock.cxx#4 $)

>  <Rbt.Library>
libRbt.so (2013.1, Build901 2013/11/27)

>  <Rbt.Parameter_File>
/export/apps/rDock/src/rDock_2013.1_src/data/scripts/dock_solv.prm

>  <Rbt.Receptor>
prm/pocket_docking_2.prm

>  <SCORE>
-36.7063

>  <SCORE.INTER>
-32.7678

>  <SCORE.INTER.CONST>
1

>  <SCORE.INTER.POLAR>
-0.8933

>  <SCORE.INTER.ROT>
3

>  <SCORE.INTER.SOLV>
10.319

>  <SCORE.INTER.VDW>
-27.9072

>  <SCORE.INTER.norm>
-1.09226

>  <SCORE.INTRA>
-4.31845

>  <SCORE.INTRA.DIHEDRAL>
-7.6242

>  <SCORE.INTRA.DIHEDRAL.0>
9.41909

>  <SCORE.INTRA.POLAR>
0

>  <SCORE.INTRA.POLAR.0>
0

>  <SCORE.INTRA.REPUL>
0.0325592

>  <SCORE.INTRA.REPUL.0>
0

>  <SCORE.INTRA.SOLV>
0.0265351

>  <SCORE.INTRA.SOLV.lig_0>
-26.2491

>  <SCORE.INTRA.VDW>
-0.682411

>  <SCORE.INTRA.VDW.0>
2.57239

>  <SCORE.INTRA.norm>
-0.143948

>  <SCORE.RESTR>
0.379952

>  <SCORE.RESTR.CAVITY>
0.379952

>  <SCORE.RESTR.norm>
0.0126651

>  <SCORE.SYSTEM>
0

>  <SCORE.SYSTEM.CONST>
0

>  <SCORE.SYSTEM.DIHEDRAL>
0

>  <SCORE.SYSTEM.SOLV>
0

>  <SCORE.SYSTEM.norm>
0

>  <SCORE.heavy>
30

>  <SCORE.norm>
-1.22354

>  <RMSD>
0.844

$$$$
lig.pdb
 OpenBabel11021811523D
libRbt.so/2013.1/901 2013/11/27
 30 34  0  0  0  0  0  0  0  0999 V2000
   25.6845   38.3513   21.0253 N   0  0  0  0  0  0  0  0  0  0  0  0
   27.0446   41.9173   24.1781 N   0  0  0  0  0  0  0  0  0  0  0  0
   26.7898   37.3882   21.0124 C   0  0  0  0  0  0  0  0  0  0  0  0
   26.5489   36.6587   19.6993 C   0  0  2  0  0  0  0  0  0  0  0  0
   25.4281   39.1653   22.2081 C   0  0  0  0  0  0  0  0  0  0  0  0
   24.2733   39.0389   23.0071 C   0  0  0  0  0  0  0  0  0  0  0  0
   24.0155   39.8225   24.1041 C   0  0  0  0  0  0  0  0  0  0  0  0
   24.6162   41.6977   25.6394 C   0  0  0  0  0  0  0  0  0  0  0  0
   29.0807   42.9057   24.1916 C   0  0  0  0  0  0  0  0  0  0  0  0
   28.6252   40.8805   22.6385 C   0  0  0  0  0  0  0  0  0  0  0  0
   26.3646   40.1606   22.6062 C   0  0  0  0  0  0  0  0  0  0  0  0
   24.3764   44.4271   27.0348 O   0  0  0  0  0  0  0  0  0  0  0  0
   25.3695   43.6967   27.0547 C   0  0  0  0  0  0  0  0  0  0  0  0
   26.2611   43.7306   28.0375 O   0  0  0  0  0  0  0  0  0  0  0  0
   25.6314   42.7379   25.9484 C   0  0  1  0  0  0  0  0  0  0  0  0
   23.5948   41.5403   26.3169 O   0  0  0  0  0  0  0  0  0  0  0  0
   26.8334   42.8134   25.2234 C   0  0  0  0  0  0  0  0  0  0  0  0
   28.3298   41.9596   23.6195 C   0  0  0  0  0  0  0  0  0  0  0  0
   28.2566   43.7438   25.4406 S   0  0  0  0  0  0  0  0  0  0  0  0
   26.1106   40.9530   23.7486 C   0  0  0  0  0  0  0  0  0  0  0  0
   24.9244   40.8096   24.4849 C   0  0  0  0  0  0  0  0  0  0  0  0
   23.3749   38.0806   22.7040 F   0  0  0  0  0  0  0  0  0  0  0  0
   27.5104   40.4114   21.8352 N   0  0  0  0  0  0  0  0  0  0  0  0
   27.1911   41.2180   20.6766 C   0  0  0  0  0  0  0  0  0  0  0  0
   24.6035   37.9355   20.1386 C   0  0  0  0  0  0  0  0  0  0  0  0
   27.6835   36.7415   18.8358 O   0  0  0  0  0  0  0  0  0  0  0  0
   25.4305   37.4072   18.9787 C   0  0  2  0  0  0  0  0  0  0  0  0
   24.7567   36.4645   18.0655 N   0  0  0  0  0  0  0  0  0  0  0  0
   25.5566   36.0320   16.9051 C   0  0  0  0  0  0  0  0  0  0  0  0
   24.1249   35.3338   18.7628 C   0  0  0  0  0  0  0  0  0  0  0  0
  1  5  1  0  0  0  0
  2 17  1  0  0  0  0
  3  1  1  0  0  0  0
  4  3  1  0  0  0  0
  4 26  1  6  0  0  0
  5 11  2  0  0  0  0
  5  6  1  0  0  0  0
  6  7  2  0  0  0  0
  7 21  1  0  0  0  0
  8 15  1  0  0  0  0
  8 16  2  0  0  0  0
  9 19  1  0  0  0  0
 10 18  1  0  0  0  0
 11 20  1  0  0  0  0
 13 14  1  0  0  0  0
 13 12  2  0  0  0  0
 15 13  1  1  0  0  0
 17 19  2  0  0  0  0
 17 15  1  0  0  0  0
 18  2  1  0  0  0  0
 18  9  2  0  0  0  0
 20 21  2  0  0  0  0
 20  2  1  0  0  0  0
 21  8  1  0  0  0  0
 22  6  1  0  0  0  0
 23 11  1  0  0  0  0
 23 10  1  0  0  0  0
 24 23  1  0  0  0  0
 25  1  1  0  0  0  0
 27  4  1  0  0  0  0
 27 25  1  0  0  0  0
 27 28  1  6  0  0  0
 29 28  1  0  0  0  0
 30 28  1  0  0  0  0
M  END
>  <CHROM.1>
-113.23487996,2.87434198,-58.93644640,63.50766445,-69.29707559,26.01168891
40.23080020,22.87660266,1.65599437,-0.40702079,-2.27579605

>  <Name>
lig.pdb

>  <RI>
0

>  <Rbt.Current_Directory>
/home/itssahil/PROJECTS/Mol_Feturizer/New_Systems/rnas/6bfb

>  <Rbt.Executable>
rbdock ($Id: //depot/dev/client3/rdock/2013.1/src/exe/rbdock.cxx#4 $)

>  <Rbt.Library>
libRbt.so (2013.1, Build901 2013/11/27)

>  <Rbt.Parameter_File>
/export/apps/rDock/src/rDock_2013.1_src/data/scripts/dock_solv.prm

>  <Rbt.Receptor>
prm/pocket_docking_2.prm

>  <SCORE>
-35.679

>  <SCORE.INTER>
-31.1354

>  <SCORE.INTER.CONST>
1

>  <SCORE.INTER.POLAR>
0

>  <SCORE.INTER.ROT>
3

>  <SCORE.INTER.SOLV>
10.293

>  <SCORE.INTER.VDW>
-29.7879

>  <SCORE.INTER.norm>
-1.03785

>  <SCORE.INTRA>
-4.5436

>  <SCORE.INTRA.DIHEDRAL>
-7.61746

>  <SCORE.INTRA.DIHEDRAL.0>
9.41909

>  <SCORE.INTRA.POLAR>
0

>  <SCORE.INTRA.POLAR.0>
0

>  <SCORE.INTRA.REPUL>
0.0472246

>  <SCORE.INTRA.REPUL.0>
0

>  <SCORE.INTRA.SOLV>
-0.0208164

>  <SCORE.INTRA.SOLV.lig_0>
-26.2491

>  <SCORE.INTRA.VDW>
-0.96059

>  <SCORE.INTRA.VDW.0>
2.57239

>  <SCORE.INTRA.norm>
-0.151453

>  <SCORE.RESTR>
0

>  <SCORE.RESTR.CAVITY>
0

>  <SCORE.RESTR.norm>
0

>  <SCORE.SYSTEM>
0

>  <SCORE.SYSTEM.CONST>
0

>  <SCORE.SYSTEM.DIHEDRAL>
0

>  <SCORE.SYSTEM.SOLV>
0

>  <SCORE.SYSTEM.norm>
0

>  <SCORE.heavy>
30

>  <SCORE.norm>
-1.1893

>  <RMSD>
0.854

$$$$
lig.pdb
 OpenBabel11021811523D
libRbt.so/2013.1/901 2013/11/27
 30 34  0  0  0  0  0  0  0  0999 V2000
   25.7492   38.3913   21.0364 N   0  0  0  0  0  0  0  0  0  0  0  0
   27.0605   41.9832   24.1805 N   0  0  0  0  0  0  0  0  0  0  0  0
   26.8342   37.4053   21.0375 C   0  0  0  0  0  0  0  0  0  0  0  0
   26.6058   36.6929   19.7129 C   0  0  2  0  0  0  0  0  0  0  0  0
   25.4851   39.1999   22.2212 C   0  0  0  0  0  0  0  0  0  0  0  0
   24.3387   39.0505   23.0284 C   0  0  0  0  0  0  0  0  0  0  0  0
   24.0732   39.8287   24.1274 C   0  0  0  0  0  0  0  0  0  0  0  0
   24.6473   41.7152   25.6589 C   0  0  0  0  0  0  0  0  0  0  0  0
   29.0766   43.0118   24.1798 C   0  0  0  0  0  0  0  0  0  0  0  0
   28.6505   40.9782   22.6294 C   0  0  0  0  0  0  0  0  0  0  0  0
   26.4044   40.2136   22.6130 C   0  0  0  0  0  0  0  0  0  0  0  0
   24.3997   44.4870   27.0245 O   0  0  0  0  0  0  0  0  0  0  0  0
   25.3708   43.7286   27.0693 C   0  0  0  0  0  0  0  0  0  0  0  0
   26.2286   43.7261   28.0823 O   0  0  0  0  0  0  0  0  0  0  0  0
   25.6439   42.7754   25.9610 C   0  0  1  0  0  0  0  0  0  0  0  0
   23.6341   41.5374   26.3435 O   0  0  0  0  0  0  0  0  0  0  0  0
   26.8389   42.8748   25.2275 C   0  0  0  0  0  0  0  0  0  0  0  0
   28.3406   42.0511   23.6128 C   0  0  0  0  0  0  0  0  0  0  0  0
   28.2449   43.8333   25.4348 S   0  0  0  0  0  0  0  0  0  0  0  0
   26.1428   41.0006   23.7574 C   0  0  0  0  0  0  0  0  0  0  0  0
   24.9650   40.8335   24.5020 C   0  0  0  0  0  0  0  0  0  0  0  0
   23.4574   38.0745   22.7315 F   0  0  0  0  0  0  0  0  0  0  0  0
   27.5395   40.4872   21.8339 N   0  0  0  0  0  0  0  0  0  0  0  0
   27.1960   41.2874   20.6779 C   0  0  0  0  0  0  0  0  0  0  0  0
   24.6786   38.0062   20.1237 C   0  0  0  0  0  0  0  0  0  0  0  0
   27.7597   36.7595   18.8739 O   0  0  0  0  0  0  0  0  0  0  0  0
   25.5185   37.4710   18.9763 C   0  0  2  0  0  0  0  0  0  0  0  0
   24.8445   36.5508   18.0405 N   0  0  0  0  0  0  0  0  0  0  0  0
   25.6427   36.1501   16.8676 C   0  0  0  0  0  0  0  0  0  0  0  0
   24.2165   35.4012   18.7097 C   0  0  0  0  0  0  0  0  0  0  0  0
  1  5  1  0  0  0  0
  2 17  1  0  0  0  0
  3  1  1  0  0  0  0
  4  3  1  0  0  0  0
  4 26  1  6  0  0  0
  5 11  2  0  0  0  0
  5  6  1  0  0  0  0
  6  7  2  0  0  0  0
  7 21  1  0  0  0  0
  8 15  1  0  0  0  0
  8 16  2  0  0  0  0
  9 19  1  0  0  0  0
 10 18  1  0  0  0  0
 11 20  1  0  0  0  0
 13 14  1  0  0  0  0
 13 12  2  0  0  0  0
 15 13  1  1  0  0  0
 17 19  2  0  0  0  0
 17 15  1  0  0  0  0
 18  2  1  0  0  0  0
 18  9  2  0  0  0  0
 20 21  2  0  0  0  0
 20  2  1  0  0  0  0
 21  8  1  0  0  0  0
 22  6  1  0  0  0  0
 23 11  1  0  0  0  0
 23 10  1  0  0  0  0
 24 23  1  0  0  0  0
 25  1  1  0  0  0  0
 27  4  1  0  0  0  0
 27 25  1  0  0  0  0
 27 28  1  6  0  0  0
 29 28  1  0  0  0  0
 30 28  1  0  0  0  0
M  END
>  <CHROM.1>
-110.35784264,-178.19339870,-62.62794601,62.57659068,-71.38726014,26.05234431
40.27805312,22.87961256,1.64915559,-0.42516121,-2.27509184

>  <Name>
lig.pdb

>  <RI>
0

>  <Rbt.Current_Directory>
/home/itssahil/PROJECTS/Mol_Feturizer/New_Systems/rnas/6bfb

>  <Rbt.Executable>
rbdock ($Id: //depot/dev/client3/rdock/2013.1/src/exe/rbdock.cxx#4 $)

>  <Rbt.Library>
libRbt.so (2013.1, Build901 2013/11/27)

>  <Rbt.Parameter_File>
/export/apps/rDock/src/rDock_2013.1_src/data/scripts/dock_solv.prm

>  <Rbt.Receptor>
prm/pocket_docking_2.prm

>  <SCORE>
-35.8977

>  <SCORE.INTER>
-31.4841

>  <SCORE.INTER.CONST>
1

>  <SCORE.INTER.POLAR>
0

>  <SCORE.INTER.ROT>
3

>  <SCORE.INTER.SOLV>
10.4928

>  <SCORE.INTER.VDW>
-30.087

>  <SCORE.INTER.norm>
-1.04947

>  <SCORE.INTRA>
-4.41355

>  <SCORE.INTRA.DIHEDRAL>
-7.64671

>  <SCORE.INTRA.DIHEDRAL.0>
9.41909

>  <SCORE.INTRA.POLAR>
0

>  <SCORE.INTRA.POLAR.0>
0

>  <SCORE.INTRA.REPUL>
0.0540474

>  <SCORE.INTRA.REPUL.0>
0

>  <SCORE.INTRA.SOLV>
-0.0966774

>  <SCORE.INTRA.SOLV.lig_0>
-26.2491

>  <SCORE.INTRA.VDW>
-0.8121

>  <SCORE.INTRA.VDW.0>
2.57239

>  <SCORE.INTRA.norm>
-0.147118

>  <SCORE.RESTR>
0

>  <SCORE.RESTR.CAVITY>
0

>  <SCORE.RESTR.norm>
0

>  <SCORE.SYSTEM>
0

>  <SCORE.SYSTEM.CONST>
0

>  <SCORE.SYSTEM.DIHEDRAL>
0

>  <SCORE.SYSTEM.SOLV>
0

>  <SCORE.SYSTEM.norm>
0

>  <SCORE.heavy>
30

>  <SCORE.norm>
-1.19659

>  <RMSD>
0.856

$$$$
lig.pdb
 OpenBabel11021811523D
libRbt.so/2013.1/901 2013/11/27
 30 34  0  0  0  0  0  0  0  0999 V2000
   25.4409   38.2074   21.1105 N   0  0  0  0  0  0  0  0  0  0  0  0
   26.0941   41.7180   24.5393 N   0  0  0  0  0  0  0  0  0  0  0  0
   26.7431   37.5356   21.1595 C   0  0  0  0  0  0  0  0  0  0  0  0
   26.7282   36.7379   19.8642 C   0  0  2  0  0  0  0  0  0  0  0  0
   24.9574   38.9655   22.2590 C   0  0  0  0  0  0  0  0  0  0  0  0
   23.6984   38.7564   22.8581 C   0  0  0  0  0  0  0  0  0  0  0  0
   23.2288   39.4871   23.9209 C   0  0  0  0  0  0  0  0  0  0  0  0
   23.4788   41.3321   25.5844 C   0  0  0  0  0  0  0  0  0  0  0  0
   28.0477   42.7998   24.9074 C   0  0  0  0  0  0  0  0  0  0  0  0
   27.9515   40.8125   23.2453 C   0  0  0  0  0  0  0  0  0  0  0  0
   25.7654   39.9888   22.8300 C   0  0  0  0  0  0  0  0  0  0  0  0
   23.2987   42.8629   28.1406 O   0  0  0  0  0  0  0  0  0  0  0  0
   23.8920   43.3123   27.1576 C   0  0  0  0  0  0  0  0  0  0  0  0
   24.1172   44.6098   26.9912 O   0  0  0  0  0  0  0  0  0  0  0  0
   24.3763   42.4072   26.0816 C   0  0  1  0  0  0  0  0  0  0  0  0
   22.3722   41.1027   26.0843 O   0  0  0  0  0  0  0  0  0  0  0  0
   25.6727   42.5651   25.5615 C   0  0  0  0  0  0  0  0  0  0  0  0
   27.4478   41.8407   24.1959 C   0  0  0  0  0  0  0  0  0  0  0  0
   26.9928   43.5529   26.0306 S   0  0  0  0  0  0  0  0  0  0  0  0
   25.2919   40.7269   23.9385 C   0  0  0  0  0  0  0  0  0  0  0  0
   24.0128   40.5015   24.4702 C   0  0  0  0  0  0  0  0  0  0  0  0
   22.9109   37.7683   22.3880 F   0  0  0  0  0  0  0  0  0  0  0  0
   27.0047   40.3207   22.2605 N   0  0  0  0  0  0  0  0  0  0  0  0
   26.8322   41.1525   21.0887 C   0  0  0  0  0  0  0  0  0  0  0  0
   24.5212   37.5243   20.2078 C   0  0  0  0  0  0  0  0  0  0  0  0
   27.8401   37.0677   19.0306 O   0  0  0  0  0  0  0  0  0  0  0  0
   25.4899   37.1802   19.0889 C   0  0  2  0  0  0  0  0  0  0  0  0
   25.0915   36.0819   18.1879 N   0  0  0  0  0  0  0  0  0  0  0  0
   23.6382   35.9098   18.0100 C   0  0  0  0  0  0  0  0  0  0  0  0
   25.8151   36.0917   16.9073 C   0  0  0  0  0  0  0  0  0  0  0  0
  1  5  1  0  0  0  0
  2 17  1  0  0  0  0
  3  1  1  0  0  0  0
  4  3  1  0  0  0  0
  4 26  1  6  0  0  0
  5 11  2  0  0  0  0
  5  6  1  0  0  0  0
  6  7  2  0  0  0  0
  7 21  1  0  0  0  0
  8 15  1  0  0  0  0
  8 16  2  0  0  0  0
  9 19  1  0  0  0  0
 10 18  1  0  0  0  0
 11 20  1  0  0  0  0
 13 14  1  0  0  0  0
 13 12  2  0  0  0  0
 15 13  1  1  0  0  0
 17 19  2  0  0  0  0
 17 15  1  0  0  0  0
 18  2  1  0  0  0  0
 18  9  2  0  0  0  0
 20 21  2  0  0  0  0
 20  2  1  0  0  0  0
 21  8  1  0  0  0  0
 22  6  1  0  0  0  0
 23 11  1  0  0  0  0
 23 10  1  0  0  0  0
 24 23  1  0  0  0  0
 25  1  1  0  0  0  0
 27  4  1  0  0  0  0
 27 25  1  0  0  0  0
 27 28  1  6  0  0  0
 29 28  1  0  0  0  0
 30 28  1  0  0  0  0
M  END
>  <CHROM.1>
-126.85544987,-177.81726392,44.44665052,164.54108679,143.84406152,25.33689934
40.06592364,23.00915354,1.50761105,-0.35186286,-2.29197470

>  <Name>
lig.pdb

>  <RI>
0

>  <Rbt.Current_Directory>
/home/itssahil/PROJECTS/Mol_Feturizer/New_Systems/rnas/6bfb

>  <Rbt.Executable>
rbdock ($Id: //depot/dev/client3/rdock/2013.1/src/exe/rbdock.cxx#4 $)

>  <Rbt.Library>
libRbt.so (2013.1, Build901 2013/11/27)

>  <Rbt.Parameter_File>
/export/apps/rDock/src/rDock_2013.1_src/data/scripts/dock_solv.prm

>  <Rbt.Receptor>
prm/pocket_docking_2.prm

>  <SCORE>
-34.3868

>  <SCORE.INTER>
-31.5911

>  <SCORE.INTER.CONST>
1

>  <SCORE.INTER.POLAR>
-0.848528

>  <SCORE.INTER.ROT>
3

>  <SCORE.INTER.SOLV>
9.92417

>  <SCORE.INTER.VDW>
-27.1404

>  <SCORE.INTER.norm>
-1.05304

>  <SCORE.INTRA>
-2.79564

>  <SCORE.INTRA.DIHEDRAL>
-5.48571

>  <SCORE.INTRA.DIHEDRAL.0>
9.41909

>  <SCORE.INTRA.POLAR>
0

>  <SCORE.INTRA.POLAR.0>
0

>  <SCORE.INTRA.REPUL>
0.0128545

>  <SCORE.INTRA.REPUL.0>
0

>  <SCORE.INTRA.SOLV>
-0.192999

>  <SCORE.INTRA.SOLV.lig_0>
-26.2491

>  <SCORE.INTRA.VDW>
-0.0205608

>  <SCORE.INTRA.VDW.0>
2.57239

>  <SCORE.INTRA.norm>
-0.093188

>  <SCORE.RESTR>
0

>  <SCORE.RESTR.CAVITY>
0

>  <SCORE.RESTR.norm>
0

>  <SCORE.SYSTEM>
0

>  <SCORE.SYSTEM.CONST>
0

>  <SCORE.SYSTEM.DIHEDRAL>
0

>  <SCORE.SYSTEM.SOLV>
0

>  <SCORE.SYSTEM.norm>
0

>  <SCORE.heavy>
30

>  <SCORE.norm>
-1.14623

>  <RMSD>
0.860

$$$$
lig.pdb
 OpenBabel11021811523D
libRbt.so/2013.1/901 2013/11/27
 30 34  0  0  0  0  0  0  0  0999 V2000
   26.6139   38.1895   21.0691 N   0  0  0  0  0  0  0  0  0  0  0  0
   27.1367   41.9502   24.2456 N   0  0  0  0  0  0  0  0  0  0  0  0
   27.9644   37.6234   21.1414 C   0  0  0  0  0  0  0  0  0  0  0  0
   27.9825   36.7107   19.9245 C   0  0  2  0  0  0  0  0  0  0  0  0
   26.0988   39.0124   22.1576 C   0  0  0  0  0  0  0  0  0  0  0  0
   24.8408   38.8099   22.7612 C   0  0  0  0  0  0  0  0  0  0  0  0
   24.3412   39.5998   23.7663 C   0  0  0  0  0  0  0  0  0  0  0  0
   24.5240   41.5639   25.2970 C   0  0  0  0  0  0  0  0  0  0  0  0
   29.0556   43.1110   24.5502 C   0  0  0  0  0  0  0  0  0  0  0  0
   29.0306   41.0096   23.0321 C   0  0  0  0  0  0  0  0  0  0  0  0
   26.8725   40.0962   22.6606 C   0  0  0  0  0  0  0  0  0  0  0  0
   25.5459   43.9786   27.7080 O   0  0  0  0  0  0  0  0  0  0  0  0
   24.8669   43.6610   26.7292 C   0  0  0  0  0  0  0  0  0  0  0  0
   23.6450   44.1368   26.5231 O   0  0  0  0  0  0  0  0  0  0  0  0
   25.3863   42.6967   25.7232 C   0  0  1  0  0  0  0  0  0  0  0  0
   23.4198   41.3385   25.8040 O   0  0  0  0  0  0  0  0  0  0  0  0
   26.6824   42.8548   25.2025 C   0  0  0  0  0  0  0  0  0  0  0  0
   28.4895   42.0873   23.9040 C   0  0  0  0  0  0  0  0  0  0  0  0
   27.9698   43.9108   25.6098 S   0  0  0  0  0  0  0  0  0  0  0  0
   26.3683   40.8966   23.7107 C   0  0  0  0  0  0  0  0  0  0  0  0
   25.0913   40.6725   24.2480 C   0  0  0  0  0  0  0  0  0  0  0  0
   24.0858   37.7689   22.3565 F   0  0  0  0  0  0  0  0  0  0  0  0
   28.1070   40.4226   22.0779 N   0  0  0  0  0  0  0  0  0  0  0  0
   27.9218   41.1645   20.8490 C   0  0  0  0  0  0  0  0  0  0  0  0
   25.7298   37.3597   20.2583 C   0  0  0  0  0  0  0  0  0  0  0  0
   29.0477   37.0436   19.0331 O   0  0  0  0  0  0  0  0  0  0  0  0
   26.6975   36.9866   19.1480 C   0  0  2  0  0  0  0  0  0  0  0  0
   26.3648   35.7834   18.3617 N   0  0  0  0  0  0  0  0  0  0  0  0
   26.0263   34.5874   19.1543 C   0  0  0  0  0  0  0  0  0  0  0  0
   25.3879   36.0416   17.2927 C   0  0  0  0  0  0  0  0  0  0  0  0
  1  5  1  0  0  0  0
  2 17  1  0  0  0  0
  3  1  1  0  0  0  0
  4  3  1  0  0  0  0
  4 26  1  6  0  0  0
  5 11  2  0  0  0  0
  5  6  1  0  0  0  0
  6  7  2  0  0  0  0
  7 21  1  0  0  0  0
  8 15  1  0  0  0  0
  8 16  2  0  0  0  0
  9 19  1  0  0  0  0
 10 18  1  0  0  0  0
 11 20  1  0  0  0  0
 13 14  1  0  0  0  0
 13 12  2  0  0  0  0
 15 13  1  1  0  0  0
 17 19  2  0  0  0  0
 17 15  1  0  0  0  0
 18  2  1  0  0  0  0
 18  9  2  0  0  0  0
 20 21  2  0  0  0  0
 20  2  1  0  0  0  0
 21  8  1  0  0  0  0
 22  6  1  0  0  0  0
 23 11  1  0  0  0  0
 23 10  1  0  0  0  0
 24 23  1  0  0  0  0
 25  1  1  0  0  0  0
 27  4  1  0  0  0  0
 27 25  1  0  0  0  0
 27 28  1  1  0  0  0
 29 28  1  0  0  0  0
 30 28  1  0  0  0  0
M  END
>  <CHROM.1>
-130.35847727,179.52866979,131.24234731,64.67445589,65.16831665,26.41308078
40.14101550,22.87956960,1.49151376,-0.34014420,-2.38823138

>  <Name>
lig.pdb

>  <RI>
0

>  <Rbt.Current_Directory>
/home/itssahil/PROJECTS/Mol_Feturizer/New_Systems/rnas/6bfb

>  <Rbt.Executable>
rbdock ($Id: //depot/dev/client3/rdock/2013.1/src/exe/rbdock.cxx#4 $)

>  <Rbt.Library>
libRbt.so (2013.1, Build901 2013/11/27)

>  <Rbt.Parameter_File>
/export/apps/rDock/src/rDock_2013.1_src/data/scripts/dock_solv.prm

>  <Rbt.Receptor>
prm/blind_docking_100.prm

>  <SCORE>
-38.9858

>  <SCORE.INTER>
-34.4462

>  <SCORE.INTER.CONST>
1

>  <SCORE.INTER.POLAR>
-0.959166

>  <SCORE.INTER.ROT>
3

>  <SCORE.INTER.SOLV>
10.3694

>  <SCORE.INTER.VDW>
-28.8234

>  <SCORE.INTER.norm>
-1.14821

>  <SCORE.INTRA>
-4.53959

>  <SCORE.INTRA.DIHEDRAL>
-7.4584

>  <SCORE.INTRA.DIHEDRAL.0>
9.41909

>  <SCORE.INTRA.POLAR>
0

>  <SCORE.INTRA.POLAR.0>
0

>  <SCORE.INTRA.REPUL>
0.0036271

>  <SCORE.INTRA.REPUL.0>
0

>  <SCORE.INTRA.SOLV>
-0.198769

>  <SCORE.INTRA.SOLV.lig_0>
-26.2491

>  <SCORE.INTRA.VDW>
-0.72914

>  <SCORE.INTRA.VDW.0>
2.57239

>  <SCORE.INTRA.norm>
-0.15132

>  <SCORE.RESTR>
0

>  <SCORE.RESTR.CAVITY>
0

>  <SCORE.RESTR.norm>
0

>  <SCORE.SYSTEM>
0

>  <SCORE.SYSTEM.CONST>
0

>  <SCORE.SYSTEM.DIHEDRAL>
0

>  <SCORE.SYSTEM.SOLV>
0

>  <SCORE.SYSTEM.norm>
0

>  <SCORE.heavy>
30

>  <SCORE.norm>
-1.29953

>  <RMSD>
0.865

$$$$
lig.pdb
 OpenBabel11021811523D
libRbt.so/2013.1/901 2013/11/27
 30 34  0  0  0  0  0  0  0  0999 V2000
   25.4131   38.4477   21.3203 N   0  0  0  0  0  0  0  0  0  0  0  0
   26.7533   41.9897   24.5086 N   0  0  0  0  0  0  0  0  0  0  0  0
   26.7178   37.8006   21.1511 C   0  0  0  0  0  0  0  0  0  0  0  0
   26.4735   36.9274   19.9295 C   0  0  2  0  0  0  0  0  0  0  0  0
   25.1414   39.2648   22.4976 C   0  0  0  0  0  0  0  0  0  0  0  0
   23.9661   39.1559   23.2687 C   0  0  0  0  0  0  0  0  0  0  0  0
   23.6945   39.9426   24.3602 C   0  0  0  0  0  0  0  0  0  0  0  0
   24.2875   41.8070   25.9113 C   0  0  0  0  0  0  0  0  0  0  0  0
   28.8036   42.9461   24.5717 C   0  0  0  0  0  0  0  0  0  0  0  0
   28.3537   40.9294   23.0059 C   0  0  0  0  0  0  0  0  0  0  0  0
   26.0836   40.2450   22.9190 C   0  0  0  0  0  0  0  0  0  0  0  0
   25.3880   43.5452   28.5023 O   0  0  0  0  0  0  0  0  0  0  0  0
   25.0380   43.7930   27.3464 C   0  0  0  0  0  0  0  0  0  0  0  0
   24.3917   44.9053   27.0190 O   0  0  0  0  0  0  0  0  0  0  0  0
   25.3113   42.8311   26.2456 C   0  0  1  0  0  0  0  0  0  0  0  0
   23.2480   41.6651   26.5642 O   0  0  0  0  0  0  0  0  0  0  0  0
   26.5312   42.8883   25.5495 C   0  0  0  0  0  0  0  0  0  0  0  0
   28.0519   42.0123   23.9808 C   0  0  0  0  0  0  0  0  0  0  0  0
   27.9632   43.7961   25.8015 S   0  0  0  0  0  0  0  0  0  0  0  0
   25.8148   41.0404   24.0559 C   0  0  0  0  0  0  0  0  0  0  0  0
   24.6093   40.9150   24.7635 C   0  0  0  0  0  0  0  0  0  0  0  0
   23.0603   38.2119   22.9433 F   0  0  0  0  0  0  0  0  0  0  0  0
   27.2512   40.4784   22.1758 N   0  0  0  0  0  0  0  0  0  0  0  0
   26.9722   41.2907   21.0108 C   0  0  0  0  0  0  0  0  0  0  0  0
   24.3546   37.6979   20.6535 C   0  0  0  0  0  0  0  0  0  0  0  0
   27.3932   37.2246   18.8780 O   0  0  0  0  0  0  0  0  0  0  0  0
   25.0968   37.3034   19.3878 C   0  0  2  0  0  0  0  0  0  0  0  0
   24.5610   36.1476   18.6437 N   0  0  0  0  0  0  0  0  0  0  0  0
   23.0943   36.1186   18.4972 C   0  0  0  0  0  0  0  0  0  0  0  0
   25.2558   35.9059   17.3699 C   0  0  0  0  0  0  0  0  0  0  0  0
  1  5  1  0  0  0  0
  2 17  1  0  0  0  0
  3  1  1  0  0  0  0
  4  3  1  0  0  0  0
  4 26  1  6  0  0  0
  5 11  2  0  0  0  0
  5  6  1  0  0  0  0
  6  7  2  0  0  0  0
  7 21  1  0  0  0  0
  8 15  1  0  0  0  0
  8 16  2  0  0  0  0
  9 19  1  0  0  0  0
 10 18  1  0  0  0  0
 11 20  1  0  0  0  0
 13 14  1  0  0  0  0
 13 12  2  0  0  0  0
 15 13  1  1  0  0  0
 17 19  2  0  0  0  0
 17 15  1  0  0  0  0
 18  2  1  0  0  0  0
 18  9  2  0  0  0  0
 20 21  2  0  0  0  0
 20  2  1  0  0  0  0
 21  8  1  0  0  0  0
 22  6  1  0  0  0  0
 23 11  1  0  0  0  0
 23 10  1  0  0  0  0
 24 23  1  0  0  0  0
 25  1  1  0  0  0  0
 27  4  1  0  0  0  0
 27 25  1  0  0  0  0
 27 28  1  1  0  0  0
 29 28  1  0  0  0  0
 30 28  1  0  0  0  0
M  END
>  <CHROM.1>
-133.08830803,169.71316660,91.47871933,-56.94945253,157.58225321,25.69326980
40.34513850,23.15679880,1.65817945,-0.37788971,-2.27176695

>  <Name>
lig.pdb

>  <RI>
0

>  <Rbt.Current_Directory>
/home/itssahil/PROJECTS/Mol_Feturizer/New_Systems/rnas/6bfb

>  <Rbt.Executable>
rbdock ($Id: //depot/dev/client3/rdock/2013.1/src/exe/rbdock.cxx#4 $)

>  <Rbt.Library>
libRbt.so (2013.1, Build901 2013/11/27)

>  <Rbt.Parameter_File>
/export/apps/rDock/src/rDock_2013.1_src/data/scripts/dock_solv.prm

>  <Rbt.Receptor>
prm/pocket_docking_2.prm

>  <SCORE>
-37.3614

>  <SCORE.INTER>
-33.9448

>  <SCORE.INTER.CONST>
1

>  <SCORE.INTER.POLAR>
-0.682986

>  <SCORE.INTER.ROT>
3

>  <SCORE.INTER.SOLV>
10.6991

>  <SCORE.INTER.VDW>
-29.5196

>  <SCORE.INTER.norm>
-1.13149

>  <SCORE.INTRA>
-3.41661

>  <SCORE.INTRA.DIHEDRAL>
-6.47649

>  <SCORE.INTRA.DIHEDRAL.0>
9.41909

>  <SCORE.INTRA.POLAR>
0

>  <SCORE.INTRA.POLAR.0>
0

>  <SCORE.INTRA.REPUL>
0

>  <SCORE.INTRA.REPUL.0>
0

>  <SCORE.INTRA.SOLV>
-0.155418

>  <SCORE.INTRA.SOLV.lig_0>
-26.2491

>  <SCORE.INTRA.VDW>
-0.10066

>  <SCORE.INTRA.VDW.0>
2.57239

>  <SCORE.INTRA.norm>
-0.113887

>  <SCORE.RESTR>
0

>  <SCORE.RESTR.CAVITY>
0

>  <SCORE.RESTR.norm>
0

>  <SCORE.SYSTEM>
0

>  <SCORE.SYSTEM.CONST>
0

>  <SCORE.SYSTEM.DIHEDRAL>
0

>  <SCORE.SYSTEM.SOLV>
0

>  <SCORE.SYSTEM.norm>
0

>  <SCORE.heavy>
30

>  <SCORE.norm>
-1.24538

>  <RMSD>
0.865

$$$$
lig.pdb
 OpenBabel11021811523D
libRbt.so/2013.1/901 2013/11/27
 30 34  0  0  0  0  0  0  0  0999 V2000
   26.6083   38.2687   21.1214 N   0  0  0  0  0  0  0  0  0  0  0  0
   27.0941   41.9504   24.3950 N   0  0  0  0  0  0  0  0  0  0  0  0
   27.9601   37.7067   21.2014 C   0  0  0  0  0  0  0  0  0  0  0  0
   27.9971   36.8143   19.9699 C   0  0  2  0  0  0  0  0  0  0  0  0
   26.0765   39.0716   22.2169 C   0  0  0  0  0  0  0  0  0  0  0  0
   24.8033   38.8677   22.7871 C   0  0  0  0  0  0  0  0  0  0  0  0
   24.2884   39.6394   23.7987 C   0  0  0  0  0  0  0  0  0  0  0  0
   24.4547   41.5660   25.3781 C   0  0  0  0  0  0  0  0  0  0  0  0
   29.0164   43.0850   24.7693 C   0  0  0  0  0  0  0  0  0  0  0  0
   29.0061   41.0192   23.2029 C   0  0  0  0  0  0  0  0  0  0  0  0
   26.8486   40.1359   22.7620 C   0  0  0  0  0  0  0  0  0  0  0  0
   25.3323   43.7474   27.9637 O   0  0  0  0  0  0  0  0  0  0  0  0
   24.7847   43.6263   26.8657 C   0  0  0  0  0  0  0  0  0  0  0  0
   23.6948   44.3068   26.5325 O   0  0  0  0  0  0  0  0  0  0  0  0
   25.3177   42.6802   25.8497 C   0  0  1  0  0  0  0  0  0  0  0  0
   23.3373   41.3400   25.8549 O   0  0  0  0  0  0  0  0  0  0  0  0
   26.6267   42.8373   25.3620 C   0  0  0  0  0  0  0  0  0  0  0  0
   28.4555   42.0820   24.0871 C   0  0  0  0  0  0  0  0  0  0  0  0
   27.9143   43.8710   25.8225 S   0  0  0  0  0  0  0  0  0  0  0  0
   26.3282   40.9170   23.8188 C   0  0  0  0  0  0  0  0  0  0  0  0
   25.0373   40.6933   24.3219 C   0  0  0  0  0  0  0  0  0  0  0  0
   24.0479   37.8438   22.3417 F   0  0  0  0  0  0  0  0  0  0  0  0
   28.0990   40.4634   22.2149 N   0  0  0  0  0  0  0  0  0  0  0  0
   27.9486   41.2349   20.9996 C   0  0  0  0  0  0  0  0  0  0  0  0
   25.7378   37.4492   20.2861 C   0  0  0  0  0  0  0  0  0  0  0  0
   29.0720   37.1659   19.0976 O   0  0  0  0  0  0  0  0  0  0  0  0
   26.7208   37.0981   19.1820 C   0  0  2  0  0  0  0  0  0  0  0  0
   26.4028   35.9069   18.3718 N   0  0  0  0  0  0  0  0  0  0  0  0
   26.0246   34.7064   19.1394 C   0  0  0  0  0  0  0  0  0  0  0  0
   25.4660   36.1869   17.2728 C   0  0  0  0  0  0  0  0  0  0  0  0
  1  5  1  0  0  0  0
  2 17  1  0  0  0  0
  3  1  1  0  0  0  0
  4  3  1  0  0  0  0
  4 26  1  6  0  0  0
  5 11  2  0  0  0  0
  5  6  1  0  0  0  0
  6  7  2  0  0  0  0
  7 21  1  0  0  0  0
  8 15  1  0  0  0  0
  8 16  2  0  0  0  0
  9 19  1  0  0  0  0
 10 18  1  0  0  0  0
 11 20  1  0  0  0  0
 13 14  1  0  0  0  0
 13 12  2  0  0  0  0
 15 13  1  1  0  0  0
 17 19  2  0  0  0  0
 17 15  1  0  0  0  0
 18  2  1  0  0  0  0
 18  9  2  0  0  0  0
 20 21  2  0  0  0  0
 20  2  1  0  0  0  0
 21  8  1  0  0  0  0
 22  6  1  0  0  0  0
 23 11  1  0  0  0  0
 23 10  1  0  0  0  0
 24 23  1  0  0  0  0
 25  1  1  0  0  0  0
 27  4  1  0  0  0  0
 27 25  1  0  0  0  0
 27 28  1  1  0  0  0
 29 28  1  0  0  0  0
 30 28  1  0  0  0  0
M  END
>  <CHROM.1>
-131.39077018,1.25044539,119.13121680,61.30134145,66.70995246,26.38654902
40.18241309,22.97569716,1.48128295,-0.32155845,-2.36982961

>  <Name>
lig.pdb

>  <RI>
0

>  <Rbt.Current_Directory>
/home/itssahil/PROJECTS/Mol_Feturizer/New_Systems/rnas/6bfb

>  <Rbt.Executable>
rbdock ($Id: //depot/dev/client3/rdock/2013.1/src/exe/rbdock.cxx#4 $)

>  <Rbt.Library>
libRbt.so (2013.1, Build901 2013/11/27)

>  <Rbt.Parameter_File>
/export/apps/rDock/src/rDock_2013.1_src/data/scripts/dock_solv.prm

>  <Rbt.Receptor>
prm/pocket_docking_8.prm

>  <SCORE>
-39.7091

>  <SCORE.INTER>
-34.6432

>  <SCORE.INTER.CONST>
1

>  <SCORE.INTER.POLAR>
-0.959166

>  <SCORE.INTER.ROT>
3

>  <SCORE.INTER.SOLV>
10.5186

>  <SCORE.INTER.VDW>
-29.0044

>  <SCORE.INTER.norm>
-1.15477

>  <SCORE.INTRA>
-5.0659

>  <SCORE.INTRA.DIHEDRAL>
-7.49777

>  <SCORE.INTRA.DIHEDRAL.0>
9.41909

>  <SCORE.INTRA.POLAR>
0

>  <SCORE.INTRA.POLAR.0>
0

>  <SCORE.INTRA.REPUL>
0.00088651

>  <SCORE.INTRA.REPUL.0>
0

>  <SCORE.INTRA.SOLV>
-0.225191

>  <SCORE.INTRA.SOLV.lig_0>
-26.2491

>  <SCORE.INTRA.VDW>
-1.20885

>  <SCORE.INTRA.VDW.0>
2.57239

>  <SCORE.INTRA.norm>
-0.168863

>  <SCORE.RESTR>
0

>  <SCORE.RESTR.CAVITY>
0

>  <SCORE.RESTR.norm>
0

>  <SCORE.SYSTEM>
0

>  <SCORE.SYSTEM.CONST>
0

>  <SCORE.SYSTEM.DIHEDRAL>
0

>  <SCORE.SYSTEM.SOLV>
0

>  <SCORE.SYSTEM.norm>
0

>  <SCORE.heavy>
30

>  <SCORE.norm>
-1.32364

>  <RMSD>
0.869

$$$$
lig.pdb
 OpenBabel11021811523D
libRbt.so/2013.1/901 2013/11/27
 30 34  0  0  0  0  0  0  0  0999 V2000
   26.6690   38.1960   20.7482 N   0  0  0  0  0  0  0  0  0  0  0  0
   27.1329   41.8528   24.0527 N   0  0  0  0  0  0  0  0  0  0  0  0
   27.9025   37.4158   20.8869 C   0  0  0  0  0  0  0  0  0  0  0  0
   27.9379   36.6565   19.5691 C   0  0  2  0  0  0  0  0  0  0  0  0
   26.1489   38.9616   21.8755 C   0  0  0  0  0  0  0  0  0  0  0  0
   24.9094   38.6969   22.4931 C   0  0  0  0  0  0  0  0  0  0  0  0
   24.4041   39.4331   23.5354 C   0  0  0  0  0  0  0  0  0  0  0  0
   24.5538   41.3447   25.1346 C   0  0  0  0  0  0  0  0  0  0  0  0
   29.0198   43.0627   24.3664 C   0  0  0  0  0  0  0  0  0  0  0  0
   29.0323   41.0185   22.7720 C   0  0  0  0  0  0  0  0  0  0  0  0
   26.8974   40.0505   22.4048 C   0  0  0  0  0  0  0  0  0  0  0  0
   23.8897   44.1273   26.4104 O   0  0  0  0  0  0  0  0  0  0  0  0
   24.8574   43.3980   26.6375 C   0  0  0  0  0  0  0  0  0  0  0  0
   25.4871   43.3904   27.8060 O   0  0  0  0  0  0  0  0  0  0  0  0
   25.3879   42.4882   25.5874 C   0  0  1  0  0  0  0  0  0  0  0  0
   23.4669   41.0656   25.6522 O   0  0  0  0  0  0  0  0  0  0  0  0
   26.6684   42.7067   25.0503 C   0  0  0  0  0  0  0  0  0  0  0  0
   28.4741   42.0456   23.6927 C   0  0  0  0  0  0  0  0  0  0  0  0
   27.9294   43.7879   25.4739 S   0  0  0  0  0  0  0  0  0  0  0  0
   26.3881   40.7954   23.4926 C   0  0  0  0  0  0  0  0  0  0  0  0
   25.1290   40.5110   24.0435 C   0  0  0  0  0  0  0  0  0  0  0  0
   24.1799   37.6477   22.0633 F   0  0  0  0  0  0  0  0  0  0  0  0
   28.1100   40.4374   21.8129 N   0  0  0  0  0  0  0  0  0  0  0  0
   27.8785   41.2174   20.6159 C   0  0  0  0  0  0  0  0  0  0  0  0
   25.7806   37.6168   19.7469 C   0  0  0  0  0  0  0  0  0  0  0  0
   29.1426   36.9133   18.8463 O   0  0  0  0  0  0  0  0  0  0  0  0
   26.8136   37.2219   18.7050 C   0  0  2  0  0  0  0  0  0  0  0  0
   26.4086   36.1853   17.7365 N   0  0  0  0  0  0  0  0  0  0  0  0
   25.4021   35.2257   18.2260 C   0  0  0  0  0  0  0  0  0  0  0  0
   26.0660   36.7302   16.4138 C   0  0  0  0  0  0  0  0  0  0  0  0
  1  5  1  0  0  0  0
  2 17  1  0  0  0  0
  3  1  1  0  0  0  0
  4  3  1  0  0  0  0
  4 26  1  6  0  0  0
  5 11  2  0  0  0  0
  5  6  1  0  0  0  0
  6  7  2  0  0  0  0
  7 21  1  0  0  0  0
  8 15  1  0  0  0  0
  8 16  2  0  0  0  0
  9 19  1  0  0  0  0
 10 18  1  0  0  0  0
 11 20  1  0  0  0  0
 13 14  1  0  0  0  0
 13 12  2  0  0  0  0
 15 13  1  1  0  0  0
 17 19  2  0  0  0  0
 17 15  1  0  0  0  0
 18  2  1  0  0  0  0
 18  9  2  0  0  0  0
 20 21  2  0  0  0  0
 20  2  1  0  0  0  0
 21  8  1  0  0  0  0
 22  6  1  0  0  0  0
 23 11  1  0  0  0  0
 23 10  1  0  0  0  0
 24 23  1  0  0  0  0
 25  1  1  0  0  0  0
 27  4  1  0  0  0  0
 27 25  1  0  0  0  0
 27 28  1  6  0  0  0
 29 28  1  0  0  0  0
 30 28  1  0  0  0  0
M  END
>  <CHROM.1>
-116.29029011,0.66712710,-67.28281851,60.37774420,85.99500562,26.44213573
40.11093039,22.60883258,1.48615952,-0.37371370,-2.32395763

>  <Name>
lig.pdb

>  <RI>
0

>  <Rbt.Current_Directory>
/home/itssahil/PROJECTS/Mol_Feturizer/New_Systems/rnas/6bfb

>  <Rbt.Executable>
rbdock ($Id: //depot/dev/client3/rdock/2013.1/src/exe/rbdock.cxx#4 $)

>  <Rbt.Library>
libRbt.so (2013.1, Build901 2013/11/27)

>  <Rbt.Parameter_File>
/export/apps/rDock/src/rDock_2013.1_src/data/scripts/dock_solv.prm

>  <Rbt.Receptor>
prm/pocket_docking_2.prm

>  <SCORE>
-37.8306

>  <SCORE.INTER>
-33.3113

>  <SCORE.INTER.CONST>
1

>  <SCORE.INTER.POLAR>
-0.949413

>  <SCORE.INTER.ROT>
3

>  <SCORE.INTER.SOLV>
10.5385

>  <SCORE.INTER.VDW>
-28.1557

>  <SCORE.INTER.norm>
-1.11038

>  <SCORE.INTRA>
-4.88611

>  <SCORE.INTRA.DIHEDRAL>
-6.53389

>  <SCORE.INTRA.DIHEDRAL.0>
9.41909

>  <SCORE.INTRA.POLAR>
0

>  <SCORE.INTRA.POLAR.0>
0

>  <SCORE.INTRA.REPUL>
0.0397806

>  <SCORE.INTRA.REPUL.0>
0

>  <SCORE.INTRA.SOLV>
-0.312659

>  <SCORE.INTRA.SOLV.lig_0>
-26.2491

>  <SCORE.INTRA.VDW>
-1.66174

>  <SCORE.INTRA.VDW.0>
2.57239

>  <SCORE.INTRA.norm>
-0.16287

>  <SCORE.RESTR>
0.366855

>  <SCORE.RESTR.CAVITY>
0.366855

>  <SCORE.RESTR.norm>
0.0122285

>  <SCORE.SYSTEM>
0

>  <SCORE.SYSTEM.CONST>
0

>  <SCORE.SYSTEM.DIHEDRAL>
0

>  <SCORE.SYSTEM.SOLV>
0

>  <SCORE.SYSTEM.norm>
0

>  <SCORE.heavy>
30

>  <SCORE.norm>
-1.26102

>  <RMSD>
0.874

$$$$
lig.pdb
 OpenBabel11021811523D
libRbt.so/2013.1/901 2013/11/27
 30 34  0  0  0  0  0  0  0  0999 V2000
   26.5915   38.2315   21.1355 N   0  0  0  0  0  0  0  0  0  0  0  0
   27.0883   41.9367   24.3807 N   0  0  0  0  0  0  0  0  0  0  0  0
   27.9615   37.7131   21.1961 C   0  0  0  0  0  0  0  0  0  0  0  0
   27.9968   36.7910   19.9866 C   0  0  2  0  0  0  0  0  0  0  0  0
   26.0612   39.0456   22.2234 C   0  0  0  0  0  0  0  0  0  0  0  0
   24.7859   38.8524   22.7926 C   0  0  0  0  0  0  0  0  0  0  0  0
   24.2726   39.6346   23.7969 C   0  0  0  0  0  0  0  0  0  0  0  0
   24.4451   41.5728   25.3613 C   0  0  0  0  0  0  0  0  0  0  0  0
   29.0153   43.0650   24.7501 C   0  0  0  0  0  0  0  0  0  0  0  0
   28.9983   40.9869   23.2001 C   0  0  0  0  0  0  0  0  0  0  0  0
   26.8374   40.1105   22.7617 C   0  0  0  0  0  0  0  0  0  0  0  0
   25.4518   43.9570   27.8195 O   0  0  0  0  0  0  0  0  0  0  0  0
   24.7819   43.6433   26.8332 C   0  0  0  0  0  0  0  0  0  0  0  0
   23.5603   44.1168   26.6199 O   0  0  0  0  0  0  0  0  0  0  0  0
   25.3124   42.6866   25.8258 C   0  0  1  0  0  0  0  0  0  0  0  0
   23.3255   41.3560   25.8375 O   0  0  0  0  0  0  0  0  0  0  0  0
   26.6232   42.8335   25.3397 C   0  0  0  0  0  0  0  0  0  0  0  0
   28.4510   42.0592   24.0747 C   0  0  0  0  0  0  0  0  0  0  0  0
   27.9149   43.8645   25.7947 S   0  0  0  0  0  0  0  0  0  0  0  0
   26.3186   40.9024   23.8111 C   0  0  0  0  0  0  0  0  0  0  0  0
   25.0256   40.6890   24.3133 C   0  0  0  0  0  0  0  0  0  0  0  0
   24.0264   37.8287   22.3536 F   0  0  0  0  0  0  0  0  0  0  0  0
   28.0905   40.4276   22.2146 N   0  0  0  0  0  0  0  0  0  0  0  0
   27.9464   41.1902   20.9929 C   0  0  0  0  0  0  0  0  0  0  0  0
   25.7271   37.3648   20.3424 C   0  0  0  0  0  0  0  0  0  0  0  0
   29.0392   37.1527   19.0797 O   0  0  0  0  0  0  0  0  0  0  0  0
   26.6939   37.0156   19.2235 C   0  0  2  0  0  0  0  0  0  0  0  0
   26.3938   35.7949   18.4512 N   0  0  0  0  0  0  0  0  0  0  0  0
   26.0789   34.6017   19.2577 C   0  0  0  0  0  0  0  0  0  0  0  0
   25.4170   36.0164   17.3739 C   0  0  0  0  0  0  0  0  0  0  0  0
  1  5  1  0  0  0  0
  2 17  1  0  0  0  0
  3  1  1  0  0  0  0
  4  3  1  0  0  0  0
  4 26  1  6  0  0  0
  5 11  2  0  0  0  0
  5  6  1  0  0  0  0
  6  7  2  0  0  0  0
  7 21  1  0  0  0  0
  8 15  1  0  0  0  0
  8 16  2  0  0  0  0
  9 19  1  0  0  0  0
 10 18  1  0  0  0  0
 11 20  1  0  0  0  0
 13 14  1  0  0  0  0
 13 12  2  0  0  0  0
 15 13  1  1  0  0  0
 17 19  2  0  0  0  0
 17 15  1  0  0  0  0
 18  2  1  0  0  0  0
 18  9  2  0  0  0  0
 20 21  2  0  0  0  0
 20  2  1  0  0  0  0
 21  8  1  0  0  0  0
 22  6  1  0  0  0  0
 23 11  1  0  0  0  0
 23 10  1  0  0  0  0
 24 23  1  0  0  0  0
 25  1  1  0  0  0  0
 27  4  1  0  0  0  0
 27 25  1  0  0  0  0
 27 28  1  1  0  0  0
 29 28  1  0  0  0  0
 30 28  1  0  0  0  0
M  END
>  <CHROM.1>
-134.11223504,1.23326540,132.70599876,62.66361039,66.37897462,26.37752597
40.15445756,22.98026213,1.48241088,-0.32046114,-2.38088583

>  <Name>
lig.pdb

>  <RI>
0

>  <Rbt.Current_Directory>
/home/itssahil/PROJECTS/Mol_Feturizer/New_Systems/rnas/6bfb

>  <Rbt.Executable>
rbdock ($Id: //depot/dev/client3/rdock/2013.1/src/exe/rbdock.cxx#4 $)

>  <Rbt.Library>
libRbt.so (2013.1, Build901 2013/11/27)

>  <Rbt.Parameter_File>
/export/apps/rDock/src/rDock_2013.1_src/data/scripts/dock_solv.prm

>  <Rbt.Receptor>
prm/blind_docking_100.prm

>  <SCORE>
-39.5435

>  <SCORE.INTER>
-34.8238

>  <SCORE.INTER.CONST>
1

>  <SCORE.INTER.POLAR>
-0.959166

>  <SCORE.INTER.ROT>
3

>  <SCORE.INTER.SOLV>
10.2617

>  <SCORE.INTER.VDW>
-29.0392

>  <SCORE.INTER.norm>
-1.16079

>  <SCORE.INTRA>
-4.72235

>  <SCORE.INTRA.DIHEDRAL>
-7.49054

>  <SCORE.INTRA.DIHEDRAL.0>
9.41909

>  <SCORE.INTRA.POLAR>
0

>  <SCORE.INTRA.POLAR.0>
0

>  <SCORE.INTRA.REPUL>
0

>  <SCORE.INTRA.REPUL.0>
0

>  <SCORE.INTRA.SOLV>
-0.184804

>  <SCORE.INTRA.SOLV.lig_0>
-26.2491

>  <SCORE.INTRA.VDW>
-0.884672

>  <SCORE.INTRA.VDW.0>
2.57239

>  <SCORE.INTRA.norm>
-0.157412

>  <SCORE.RESTR>
0.00270416

>  <SCORE.RESTR.CAVITY>
0.00270416

>  <SCORE.RESTR.norm>
9.01388e-05

>  <SCORE.SYSTEM>
0

>  <SCORE.SYSTEM.CONST>
0

>  <SCORE.SYSTEM.DIHEDRAL>
0

>  <SCORE.SYSTEM.SOLV>
0

>  <SCORE.SYSTEM.norm>
0

>  <SCORE.heavy>
30

>  <SCORE.norm>
-1.31812

>  <RMSD>
0.876

$$$$
lig.pdb
 OpenBabel11021811523D
libRbt.so/2013.1/901 2013/11/27
 30 34  0  0  0  0  0  0  0  0999 V2000
   26.6039   38.2172   21.1327 N   0  0  0  0  0  0  0  0  0  0  0  0
   27.0775   41.9120   24.3932 N   0  0  0  0  0  0  0  0  0  0  0  0
   27.9582   37.6628   21.2213 C   0  0  0  0  0  0  0  0  0  0  0  0
   28.0024   36.7583   19.9989 C   0  0  2  0  0  0  0  0  0  0  0  0
   26.0656   39.0283   22.2189 C   0  0  0  0  0  0  0  0  0  0  0  0
   24.7856   38.8344   22.7773 C   0  0  0  0  0  0  0  0  0  0  0  0
   24.2649   39.6138   23.7800 C   0  0  0  0  0  0  0  0  0  0  0  0
   24.4263   41.5471   25.3517 C   0  0  0  0  0  0  0  0  0  0  0  0
   29.0023   43.0377   24.7814 C   0  0  0  0  0  0  0  0  0  0  0  0
   28.9961   40.9644   23.2249 C   0  0  0  0  0  0  0  0  0  0  0  0
   26.8382   40.0910   22.7667 C   0  0  0  0  0  0  0  0  0  0  0  0
   25.3028   43.7518   27.9273 O   0  0  0  0  0  0  0  0  0  0  0  0
   24.7529   43.6128   26.8326 C   0  0  0  0  0  0  0  0  0  0  0  0
   23.6564   44.2801   26.4944 O   0  0  0  0  0  0  0  0  0  0  0  0
   25.2907   42.6587   25.8265 C   0  0  1  0  0  0  0  0  0  0  0  0
   23.3029   41.3297   25.8182 O   0  0  0  0  0  0  0  0  0  0  0  0
   26.6055   42.8062   25.3513 C   0  0  0  0  0  0  0  0  0  0  0  0
   28.4427   42.0344   24.0984 C   0  0  0  0  0  0  0  0  0  0  0  0
   27.8942   43.8349   25.8196 S   0  0  0  0  0  0  0  0  0  0  0  0
   26.3116   40.8801   23.8143 C   0  0  0  0  0  0  0  0  0  0  0  0
   25.0145   40.6661   24.3055 C   0  0  0  0  0  0  0  0  0  0  0  0
   24.0289   37.8125   22.3292 F   0  0  0  0  0  0  0  0  0  0  0  0
   28.0959   40.4088   22.2305 N   0  0  0  0  0  0  0  0  0  0  0  0
   27.9620   41.1752   21.0101 C   0  0  0  0  0  0  0  0  0  0  0  0
   25.7393   37.3849   20.3038 C   0  0  0  0  0  0  0  0  0  0  0  0
   29.0775   37.1065   19.1254 O   0  0  0  0  0  0  0  0  0  0  0  0
   26.7265   37.0277   19.2054 C   0  0  2  0  0  0  0  0  0  0  0  0
   26.4162   35.8268   18.4066 N   0  0  0  0  0  0  0  0  0  0  0  0
   26.0729   34.6237   19.1864 C   0  0  0  0  0  0  0  0  0  0  0  0
   25.4559   36.0842   17.3225 C   0  0  0  0  0  0  0  0  0  0  0  0
  1  5  1  0  0  0  0
  2 17  1  0  0  0  0
  3  1  1  0  0  0  0
  4  3  1  0  0  0  0
  4 26  1  6  0  0  0
  5 11  2  0  0  0  0
  5  6  1  0  0  0  0
  6  7  2  0  0  0  0
  7 21  1  0  0  0  0
  8 15  1  0  0  0  0
  8 16  2  0  0  0  0
  9 19  1  0  0  0  0
 10 18  1  0  0  0  0
 11 20  1  0  0  0  0
 13 14  1  0  0  0  0
 13 12  2  0  0  0  0
 15 13  1  1  0  0  0
 17 19  2  0  0  0  0
 17 15  1  0  0  0  0
 18  2  1  0  0  0  0
 18  9  2  0  0  0  0
 20 21  2  0  0  0  0
 20  2  1  0  0  0  0
 21  8  1  0  0  0  0
 22  6  1  0  0  0  0
 23 11  1  0  0  0  0
 23 10  1  0  0  0  0
 24 23  1  0  0  0  0
 25  1  1  0  0  0  0
 27  4  1  0  0  0  0
 27 25  1  0  0  0  0
 27 28  1  1  0  0  0
 29 28  1  0  0  0  0
 30 28  1  0  0  0  0
M  END
>  <CHROM.1>
-132.20611583,0.96651606,120.30376332,64.67976108,65.34773994,26.37529298
40.13879160,22.97775001,1.47777701,-0.31106424,-2.37730679

>  <Name>
lig.pdb

>  <RI>
0

>  <Rbt.Current_Directory>
/home/itssahil/PROJECTS/Mol_Feturizer/New_Systems/rnas/6bfb

>  <Rbt.Executable>
rbdock ($Id: //depot/dev/client3/rdock/2013.1/src/exe/rbdock.cxx#4 $)

>  <Rbt.Library>
libRbt.so (2013.1, Build901 2013/11/27)

>  <Rbt.Parameter_File>
/export/apps/rDock/src/rDock_2013.1_src/data/scripts/dock_solv.prm

>  <Rbt.Receptor>
prm/pocket_docking_5.prm

>  <SCORE>
-39.6395

>  <SCORE.INTER>
-34.6451

>  <SCORE.INTER.CONST>
1

>  <SCORE.INTER.POLAR>
-0.948045

>  <SCORE.INTER.ROT>
3

>  <SCORE.INTER.SOLV>
10.5434

>  <SCORE.INTER.VDW>
-29.051

>  <SCORE.INTER.norm>
-1.15484

>  <SCORE.INTRA>
-4.99443

>  <SCORE.INTRA.DIHEDRAL>
-7.4492

>  <SCORE.INTRA.DIHEDRAL.0>
9.41909

>  <SCORE.INTRA.POLAR>
0

>  <SCORE.INTRA.POLAR.0>
0

>  <SCORE.INTRA.REPUL>
0

>  <SCORE.INTRA.REPUL.0>
0

>  <SCORE.INTRA.SOLV>
-0.216363

>  <SCORE.INTRA.SOLV.lig_0>
-26.2491

>  <SCORE.INTRA.VDW>
-1.16165

>  <SCORE.INTRA.VDW.0>
2.57239

>  <SCORE.INTRA.norm>
-0.166481

>  <SCORE.RESTR>
0

>  <SCORE.RESTR.CAVITY>
0

>  <SCORE.RESTR.norm>
0

>  <SCORE.SYSTEM>
0

>  <SCORE.SYSTEM.CONST>
0

>  <SCORE.SYSTEM.DIHEDRAL>
0

>  <SCORE.SYSTEM.SOLV>
0

>  <SCORE.SYSTEM.norm>
0

>  <SCORE.heavy>
30

>  <SCORE.norm>
-1.32132

>  <RMSD>
0.880

$$$$
lig.pdb
 OpenBabel11021811523D
libRbt.so/2013.1/901 2013/11/27
 30 34  0  0  0  0  0  0  0  0999 V2000
   26.6184   38.2421   21.1426 N   0  0  0  0  0  0  0  0  0  0  0  0
   27.1213   41.9702   24.3605 N   0  0  0  0  0  0  0  0  0  0  0  0
   27.9739   37.6876   21.2109 C   0  0  0  0  0  0  0  0  0  0  0  0
   27.9995   36.7825   19.9884 C   0  0  2  0  0  0  0  0  0  0  0  0
   26.0966   39.0538   22.2364 C   0  0  0  0  0  0  0  0  0  0  0  0
   24.8351   38.8449   22.8302 C   0  0  0  0  0  0  0  0  0  0  0  0
   24.3292   39.6245   23.8403 C   0  0  0  0  0  0  0  0  0  0  0  0
   24.5024   41.5728   25.3921 C   0  0  0  0  0  0  0  0  0  0  0  0
   29.0381   43.1282   24.6885 C   0  0  0  0  0  0  0  0  0  0  0  0
   29.0226   41.0424   23.1488 C   0  0  0  0  0  0  0  0  0  0  0  0
   26.8670   40.1325   22.7551 C   0  0  0  0  0  0  0  0  0  0  0  0
   25.5173   43.9785   27.8232 O   0  0  0  0  0  0  0  0  0  0  0  0
   24.8362   43.6552   26.8477 C   0  0  0  0  0  0  0  0  0  0  0  0
   23.6068   44.1154   26.6511 O   0  0  0  0  0  0  0  0  0  0  0  0
   25.3618   42.7013   25.8350 C   0  0  1  0  0  0  0  0  0  0  0  0
   23.3952   41.3421   25.8901 O   0  0  0  0  0  0  0  0  0  0  0  0
   26.6611   42.8649   25.3238 C   0  0  0  0  0  0  0  0  0  0  0  0
   28.4761   42.1110   24.0284 C   0  0  0  0  0  0  0  0  0  0  0  0
   27.9458   43.9168   25.7496 S   0  0  0  0  0  0  0  0  0  0  0  0
   26.3563   40.9220   23.8103 C   0  0  0  0  0  0  0  0  0  0  0  0
   25.0762   40.6923   24.3375 C   0  0  0  0  0  0  0  0  0  0  0  0
   24.0827   37.8080   22.4104 F   0  0  0  0  0  0  0  0  0  0  0  0
   28.1050   40.4650   22.1831 N   0  0  0  0  0  0  0  0  0  0  0  0
   27.9270   41.2194   20.9608 C   0  0  0  0  0  0  0  0  0  0  0  0
   25.7412   37.4095   20.3272 C   0  0  0  0  0  0  0  0  0  0  0  0
   29.0612   37.1302   19.0986 O   0  0  0  0  0  0  0  0  0  0  0  0
   26.7117   37.0517   19.2142 C   0  0  2  0  0  0  0  0  0  0  0  0
   26.3893   35.8505   18.4206 N   0  0  0  0  0  0  0  0  0  0  0  0
   26.0430   34.6518   19.2059 C   0  0  0  0  0  0  0  0  0  0  0  0
   25.4243   36.1108   17.3414 C   0  0  0  0  0  0  0  0  0  0  0  0
  1  5  1  0  0  0  0
  2 17  1  0  0  0  0
  3  1  1  0  0  0  0
  4  3  1  0  0  0  0
  4 26  1  6  0  0  0
  5 11  2  0  0  0  0
  5  6  1  0  0  0  0
  6  7  2  0  0  0  0
  7 21  1  0  0  0  0
  8 15  1  0  0  0  0
  8 16  2  0  0  0  0
  9 19  1  0  0  0  0
 10 18  1  0  0  0  0
 11 20  1  0  0  0  0
 13 14  1  0  0  0  0
 13 12  2  0  0  0  0
 15 13  1  1  0  0  0
 17 19  2  0  0  0  0
 17 15  1  0  0  0  0
 18  2  1  0  0  0  0
 18  9  2  0  0  0  0
 20 21  2  0  0  0  0
 20  2  1  0  0  0  0
 21  8  1  0  0  0  0
 22  6  1  0  0  0  0
 23 11  1  0  0  0  0
 23 10  1  0  0  0  0
 24 23  1  0  0  0  0
 25  1  1  0  0  0  0
 27  4  1  0  0  0  0
 27 25  1  0  0  0  0
 27 28  1  1  0  0  0
 29 28  1  0  0  0  0
 30 28  1  0  0  0  0
M  END
>  <CHROM.1>
-131.02124050,1.17081629,132.35003130,64.02523819,66.00075093,26.40712167
40.17626341,22.97622706,1.48608413,-0.33848629,-2.38025289

>  <Name>
lig.pdb

>  <RI>
0

>  <Rbt.Current_Directory>
/home/itssahil/PROJECTS/Mol_Feturizer/New_Systems/rnas/6bfb

>  <Rbt.Executable>
rbdock ($Id: //depot/dev/client3/rdock/2013.1/src/exe/rbdock.cxx#4 $)

>  <Rbt.Library>
libRbt.so (2013.1, Build901 2013/11/27)

>  <Rbt.Parameter_File>
/export/apps/rDock/src/rDock_2013.1_src/data/scripts/dock_solv.prm

>  <Rbt.Receptor>
prm/blind_docking_100.prm

>  <SCORE>
-39.4584

>  <SCORE.INTER>
-34.4797

>  <SCORE.INTER.CONST>
1

>  <SCORE.INTER.POLAR>
-0.959166

>  <SCORE.INTER.ROT>
3

>  <SCORE.INTER.SOLV>
10.4455

>  <SCORE.INTER.VDW>
-28.8711

>  <SCORE.INTER.norm>
-1.14932

>  <SCORE.INTRA>
-4.97876

>  <SCORE.INTRA.DIHEDRAL>
-7.46071

>  <SCORE.INTRA.DIHEDRAL.0>
9.41909

>  <SCORE.INTRA.POLAR>
0

>  <SCORE.INTRA.POLAR.0>
0

>  <SCORE.INTRA.REPUL>
0.00186859

>  <SCORE.INTRA.REPUL.0>
0

>  <SCORE.INTRA.SOLV>
-0.200752

>  <SCORE.INTRA.SOLV.lig_0>
-26.2491

>  <SCORE.INTRA.VDW>
-1.15737

>  <SCORE.INTRA.VDW.0>
2.57239

>  <SCORE.INTRA.norm>
-0.165959

>  <SCORE.RESTR>
0

>  <SCORE.RESTR.CAVITY>
0

>  <SCORE.RESTR.norm>
0

>  <SCORE.SYSTEM>
0

>  <SCORE.SYSTEM.CONST>
0

>  <SCORE.SYSTEM.DIHEDRAL>
0

>  <SCORE.SYSTEM.SOLV>
0

>  <SCORE.SYSTEM.norm>
0

>  <SCORE.heavy>
30

>  <SCORE.norm>
-1.31528

>  <RMSD>
0.881

$$$$
lig.pdb
 OpenBabel11021811523D
libRbt.so/2013.1/901 2013/11/27
 30 34  0  0  0  0  0  0  0  0999 V2000
   25.6882   38.6638   21.3099 N   0  0  0  0  0  0  0  0  0  0  0  0
   26.8866   42.1426   24.6219 N   0  0  0  0  0  0  0  0  0  0  0  0
   26.8648   37.7894   21.2877 C   0  0  0  0  0  0  0  0  0  0  0  0
   26.6782   37.0537   19.9692 C   0  0  2  0  0  0  0  0  0  0  0  0
   25.3722   39.4464   22.4995 C   0  0  0  0  0  0  0  0  0  0  0  0
   24.1784   39.3002   23.2353 C   0  0  0  0  0  0  0  0  0  0  0  0
   23.8652   40.0546   24.3383 C   0  0  0  0  0  0  0  0  0  0  0  0
   24.3872   41.8873   25.9516 C   0  0  0  0  0  0  0  0  0  0  0  0
   28.9194   43.1275   24.7650 C   0  0  0  0  0  0  0  0  0  0  0  0
   28.5433   41.1451   23.1372 C   0  0  0  0  0  0  0  0  0  0  0  0
   26.2873   40.4294   22.9711 C   0  0  0  0  0  0  0  0  0  0  0  0
   25.4113   43.5861   28.6112 O   0  0  0  0  0  0  0  0  0  0  0  0
   25.0677   43.8468   27.4562 C   0  0  0  0  0  0  0  0  0  0  0  0
   24.3897   44.9444   27.1436 O   0  0  0  0  0  0  0  0  0  0  0  0
   25.3854   42.9176   26.3395 C   0  0  1  0  0  0  0  0  0  0  0  0
   23.3327   41.7133   26.5720 O   0  0  0  0  0  0  0  0  0  0  0  0
   26.6226   43.0108   25.6786 C   0  0  0  0  0  0  0  0  0  0  0  0
   28.1985   42.1981   24.1305 C   0  0  0  0  0  0  0  0  0  0  0  0
   28.0330   43.9331   25.9925 S   0  0  0  0  0  0  0  0  0  0  0  0
   25.9756   41.1914   24.1199 C   0  0  0  0  0  0  0  0  0  0  0  0
   24.7536   41.0299   24.7909 C   0  0  0  0  0  0  0  0  0  0  0  0
   23.2965   38.3515   22.8615 F   0  0  0  0  0  0  0  0  0  0  0  0
   27.4707   40.6991   22.2661 N   0  0  0  0  0  0  0  0  0  0  0  0
   27.2106   41.5368   21.1149 C   0  0  0  0  0  0  0  0  0  0  0  0
   24.6408   38.1725   20.4217 C   0  0  0  0  0  0  0  0  0  0  0  0
   27.8012   37.2308   19.1046 O   0  0  0  0  0  0  0  0  0  0  0  0
   25.5037   37.7188   19.2563 C   0  0  2  0  0  0  0  0  0  0  0  0
   24.9029   36.7338   18.3368 N   0  0  0  0  0  0  0  0  0  0  0  0
   25.6985   36.4293   17.1336 C   0  0  0  0  0  0  0  0  0  0  0  0
   24.4299   35.5187   19.0177 C   0  0  0  0  0  0  0  0  0  0  0  0
  1  5  1  0  0  0  0
  2 17  1  0  0  0  0
  3  1  1  0  0  0  0
  4  3  1  0  0  0  0
  4 26  1  6  0  0  0
  5 11  2  0  0  0  0
  5  6  1  0  0  0  0
  6  7  2  0  0  0  0
  7 21  1  0  0  0  0
  8 15  1  0  0  0  0
  8 16  2  0  0  0  0
  9 19  1  0  0  0  0
 10 18  1  0  0  0  0
 11 20  1  0  0  0  0
 13 14  1  0  0  0  0
 13 12  2  0  0  0  0
 15 13  1  1  0  0  0
 17 19  2  0  0  0  0
 17 15  1  0  0  0  0
 18  2  1  0  0  0  0
 18  9  2  0  0  0  0
 20 21  2  0  0  0  0
 20  2  1  0  0  0  0
 21  8  1  0  0  0  0
 22  6  1  0  0  0  0
 23 11  1  0  0  0  0
 23 10  1  0  0  0  0
 24 23  1  0  0  0  0
 25  1  1  0  0  0  0
 27  4  1  0  0  0  0
 27 25  1  0  0  0  0
 27 28  1  6  0  0  0
 29 28  1  0  0  0  0
 30 28  1  0  0  0  0
M  END
>  <CHROM.1>
-118.74271329,170.58054385,92.78850568,64.13924239,-72.51922521,25.91793852
40.49053704,23.21810985,1.60799554,-0.38834016,-2.27540753

>  <Name>
lig.pdb

>  <RI>
0

>  <Rbt.Current_Directory>
/home/itssahil/PROJECTS/Mol_Feturizer/New_Systems/rnas/6bfb

>  <Rbt.Executable>
rbdock ($Id: //depot/dev/client3/rdock/2013.1/src/exe/rbdock.cxx#4 $)

>  <Rbt.Library>
libRbt.so (2013.1, Build901 2013/11/27)

>  <Rbt.Parameter_File>
/export/apps/rDock/src/rDock_2013.1_src/data/scripts/dock_solv.prm

>  <Rbt.Receptor>
prm/pocket_docking_6.prm

>  <SCORE>
-37.0497

>  <SCORE.INTER>
-33.2347

>  <SCORE.INTER.CONST>
1

>  <SCORE.INTER.POLAR>
-0.731022

>  <SCORE.INTER.ROT>
3

>  <SCORE.INTER.SOLV>
10.8692

>  <SCORE.INTER.VDW>
-28.9428

>  <SCORE.INTER.norm>
-1.10782

>  <SCORE.INTRA>
-3.81496

>  <SCORE.INTRA.DIHEDRAL>
-6.89599

>  <SCORE.INTRA.DIHEDRAL.0>
9.41909

>  <SCORE.INTRA.POLAR>
0

>  <SCORE.INTRA.POLAR.0>
0

>  <SCORE.INTRA.REPUL>
0.0336784

>  <SCORE.INTRA.REPUL.0>
0

>  <SCORE.INTRA.SOLV>
-0.0615947

>  <SCORE.INTRA.SOLV.lig_0>
-26.2491

>  <SCORE.INTRA.VDW>
-0.504561

>  <SCORE.INTRA.VDW.0>
2.57239

>  <SCORE.INTRA.norm>
-0.127165

>  <SCORE.RESTR>
0

>  <SCORE.RESTR.CAVITY>
0

>  <SCORE.RESTR.norm>
0

>  <SCORE.SYSTEM>
0

>  <SCORE.SYSTEM.CONST>
0

>  <SCORE.SYSTEM.DIHEDRAL>
0

>  <SCORE.SYSTEM.SOLV>
0

>  <SCORE.SYSTEM.norm>
0

>  <SCORE.heavy>
30

>  <SCORE.norm>
-1.23499

>  <RMSD>
0.881

$$$$
lig.pdb
 OpenBabel11021811523D
libRbt.so/2013.1/901 2013/11/27
 30 34  0  0  0  0  0  0  0  0999 V2000
   25.6001   38.2575   21.1274 N   0  0  0  0  0  0  0  0  0  0  0  0
   27.0004   41.8822   24.1948 N   0  0  0  0  0  0  0  0  0  0  0  0
   26.8298   37.4641   21.0394 C   0  0  0  0  0  0  0  0  0  0  0  0
   26.5643   36.6188   19.8027 C   0  0  2  0  0  0  0  0  0  0  0  0
   25.3504   39.1062   22.2872 C   0  0  0  0  0  0  0  0  0  0  0  0
   24.1893   39.0193   23.0822 C   0  0  0  0  0  0  0  0  0  0  0  0
   23.9381   39.8352   24.1569 C   0  0  0  0  0  0  0  0  0  0  0  0
   24.5605   41.7398   25.6465 C   0  0  0  0  0  0  0  0  0  0  0  0
   29.0521   42.8376   24.1949 C   0  0  0  0  0  0  0  0  0  0  0  0
   28.5725   40.7802   22.6921 C   0  0  0  0  0  0  0  0  0  0  0  0
   26.3007   40.0963   22.6649 C   0  0  0  0  0  0  0  0  0  0  0  0
   24.3547   44.5048   26.9716 O   0  0  0  0  0  0  0  0  0  0  0  0
   25.3383   43.7627   27.0139 C   0  0  0  0  0  0  0  0  0  0  0  0
   26.2277   43.8116   27.9981 O   0  0  0  0  0  0  0  0  0  0  0  0
   25.5908   42.7713   25.9346 C   0  0  1  0  0  0  0  0  0  0  0  0
   23.5329   41.6167   26.3217 O   0  0  0  0  0  0  0  0  0  0  0  0
   26.7979   42.8085   25.2151 C   0  0  0  0  0  0  0  0  0  0  0  0
   28.2892   41.8892   23.6430 C   0  0  0  0  0  0  0  0  0  0  0  0
   28.2348   43.7212   25.4166 S   0  0  0  0  0  0  0  0  0  0  0  0
   26.0532   40.9222   23.7848 C   0  0  0  0  0  0  0  0  0  0  0  0
   24.8608   40.8171   24.5174 C   0  0  0  0  0  0  0  0  0  0  0  0
   23.2771   38.0679   22.7987 F   0  0  0  0  0  0  0  0  0  0  0  0
   27.4548   40.3084   21.8946 N   0  0  0  0  0  0  0  0  0  0  0  0
   27.1551   41.0896   20.7136 C   0  0  0  0  0  0  0  0  0  0  0  0
   24.5066   37.6310   20.3932 C   0  0  0  0  0  0  0  0  0  0  0  0
   27.5766   36.8034   18.8122 O   0  0  0  0  0  0  0  0  0  0  0  0
   25.2768   37.1478   19.1760 C   0  0  2  0  0  0  0  0  0  0  0  0
   24.6597   36.0575   18.3968 N   0  0  0  0  0  0  0  0  0  0  0  0
   23.1862   36.0704   18.3544 C   0  0  0  0  0  0  0  0  0  0  0  0
   25.2568   35.8887   17.0630 C   0  0  0  0  0  0  0  0  0  0  0  0
  1  5  1  0  0  0  0
  2 17  1  0  0  0  0
  3  1  1  0  0  0  0
  4  3  1  0  0  0  0
  4 26  1  6  0  0  0
  5 11  2  0  0  0  0
  5  6  1  0  0  0  0
  6  7  2  0  0  0  0
  7 21  1  0  0  0  0
  8 15  1  0  0  0  0
  8 16  2  0  0  0  0
  9 19  1  0  0  0  0
 10 18  1  0  0  0  0
 11 20  1  0  0  0  0
 13 14  1  0  0  0  0
 13 12  2  0  0  0  0
 15 13  1  1  0  0  0
 17 19  2  0  0  0  0
 17 15  1  0  0  0  0
 18  2  1  0  0  0  0
 18  9  2  0  0  0  0
 20 21  2  0  0  0  0
 20  2  1  0  0  0  0
 21  8  1  0  0  0  0
 22  6  1  0  0  0  0
 23 11  1  0  0  0  0
 23 10  1  0  0  0  0
 24 23  1  0  0  0  0
 25  1  1  0  0  0  0
 27  4  1  0  0  0  0
 27 25  1  0  0  0  0
 27 28  1  1  0  0  0
 29 28  1  0  0  0  0
 30 28  1  0  0  0  0
M  END
>  <CHROM.1>
-124.91233220,3.51418249,-58.66914193,164.81641419,147.47296226,25.91571016
40.21075713,22.90923783,1.67976726,-0.36727782,-2.27974607

>  <Name>
lig.pdb

>  <RI>
0

>  <Rbt.Current_Directory>
/home/itssahil/PROJECTS/Mol_Feturizer/New_Systems/rnas/6bfb

>  <Rbt.Executable>
rbdock ($Id: //depot/dev/client3/rdock/2013.1/src/exe/rbdock.cxx#4 $)

>  <Rbt.Library>
libRbt.so (2013.1, Build901 2013/11/27)

>  <Rbt.Parameter_File>
/export/apps/rDock/src/rDock_2013.1_src/data/scripts/dock_solv.prm

>  <Rbt.Receptor>
prm/pocket_docking_2.prm

>  <SCORE>
-34.7937

>  <SCORE.INTER>
-31.3754

>  <SCORE.INTER.CONST>
1

>  <SCORE.INTER.POLAR>
0

>  <SCORE.INTER.ROT>
3

>  <SCORE.INTER.SOLV>
10.1212

>  <SCORE.INTER.VDW>
-29.8907

>  <SCORE.INTER.norm>
-1.04585

>  <SCORE.INTRA>
-3.41826

>  <SCORE.INTRA.DIHEDRAL>
-5.67841

>  <SCORE.INTRA.DIHEDRAL.0>
9.41909

>  <SCORE.INTRA.POLAR>
0

>  <SCORE.INTRA.POLAR.0>
0

>  <SCORE.INTRA.REPUL>
0.0179184

>  <SCORE.INTRA.REPUL.0>
0

>  <SCORE.INTRA.SOLV>
-0.140622

>  <SCORE.INTRA.SOLV.lig_0>
-26.2491

>  <SCORE.INTRA.VDW>
-0.598339

>  <SCORE.INTRA.VDW.0>
2.57239

>  <SCORE.INTRA.norm>
-0.113942

>  <SCORE.RESTR>
0

>  <SCORE.RESTR.CAVITY>
0

>  <SCORE.RESTR.norm>
0

>  <SCORE.SYSTEM>
0

>  <SCORE.SYSTEM.CONST>
0

>  <SCORE.SYSTEM.DIHEDRAL>
0

>  <SCORE.SYSTEM.SOLV>
0

>  <SCORE.SYSTEM.norm>
0

>  <SCORE.heavy>
30

>  <SCORE.norm>
-1.15979

>  <RMSD>
0.882

$$$$
lig.pdb
 OpenBabel11021811523D
libRbt.so/2013.1/901 2013/11/27
 30 34  0  0  0  0  0  0  0  0999 V2000
   26.5984   38.2233   21.1354 N   0  0  0  0  0  0  0  0  0  0  0  0
   27.0821   41.9154   24.3976 N   0  0  0  0  0  0  0  0  0  0  0  0
   27.9581   37.6805   21.2137 C   0  0  0  0  0  0  0  0  0  0  0  0
   27.9988   36.7719   19.9942 C   0  0  2  0  0  0  0  0  0  0  0  0
   26.0632   39.0340   22.2235 C   0  0  0  0  0  0  0  0  0  0  0  0
   24.7844   38.8403   22.7848 C   0  0  0  0  0  0  0  0  0  0  0  0
   24.2666   39.6193   23.7893 C   0  0  0  0  0  0  0  0  0  0  0  0
   24.4329   41.5513   25.3621 C   0  0  0  0  0  0  0  0  0  0  0  0
   29.0085   43.0396   24.7821 C   0  0  0  0  0  0  0  0  0  0  0  0
   28.9973   40.9675   23.2241 C   0  0  0  0  0  0  0  0  0  0  0  0
   26.8378   40.0957   22.7702 C   0  0  0  0  0  0  0  0  0  0  0  0
   25.3007   43.7337   27.9475 O   0  0  0  0  0  0  0  0  0  0  0  0
   24.7643   43.6156   26.8438 C   0  0  0  0  0  0  0  0  0  0  0  0
   23.6850   44.3062   26.4970 O   0  0  0  0  0  0  0  0  0  0  0  0
   25.2991   42.6621   25.8357 C   0  0  1  0  0  0  0  0  0  0  0  0
   23.3105   41.3342   25.8311 O   0  0  0  0  0  0  0  0  0  0  0  0
   26.6128   42.8091   25.3575 C   0  0  0  0  0  0  0  0  0  0  0  0
   28.4466   42.0372   24.0997 C   0  0  0  0  0  0  0  0  0  0  0  0
   27.9033   43.8366   25.8236 S   0  0  0  0  0  0  0  0  0  0  0  0
   26.3141   40.8843   23.8198 C   0  0  0  0  0  0  0  0  0  0  0  0
   25.0181   40.6707   24.3139 C   0  0  0  0  0  0  0  0  0  0  0  0
   24.0261   37.8193   22.3377 F   0  0  0  0  0  0  0  0  0  0  0  0
   28.0944   40.4132   22.2313 N   0  0  0  0  0  0  0  0  0  0  0  0
   27.9581   41.1807   21.0118 C   0  0  0  0  0  0  0  0  0  0  0  0
   25.7334   37.3809   20.3173 C   0  0  0  0  0  0  0  0  0  0  0  0
   29.0630   37.1259   19.1099 O   0  0  0  0  0  0  0  0  0  0  0  0
   26.7136   37.0279   19.2114 C   0  0  2  0  0  0  0  0  0  0  0  0
   26.4062   35.8215   18.4197 N   0  0  0  0  0  0  0  0  0  0  0  0
   26.0747   34.6199   19.2068 C   0  0  0  0  0  0  0  0  0  0  0  0
   25.4381   36.0682   17.3399 C   0  0  0  0  0  0  0  0  0  0  0  0
  1  5  1  0  0  0  0
  2 17  1  0  0  0  0
  3  1  1  0  0  0  0
  4  3  1  0  0  0  0
  4 26  1  6  0  0  0
  5 11  2  0  0  0  0
  5  6  1  0  0  0  0
  6  7  2  0  0  0  0
  7 21  1  0  0  0  0
  8 15  1  0  0  0  0
  8 16  2  0  0  0  0
  9 19  1  0  0  0  0
 10 18  1  0  0  0  0
 11 20  1  0  0  0  0
 13 14  1  0  0  0  0
 13 12  2  0  0  0  0
 15 13  1  1  0  0  0
 17 19  2  0  0  0  0
 17 15  1  0  0  0  0
 18  2  1  0  0  0  0
 18  9  2  0  0  0  0
 20 21  2  0  0  0  0
 20  2  1  0  0  0  0
 21  8  1  0  0  0  0
 22  6  1  0  0  0  0
 23 11  1  0  0  0  0
 23 10  1  0  0  0  0
 24 23  1  0  0  0  0
 25  1  1  0  0  0  0
 27  4  1  0  0  0  0
 27 25  1  0  0  0  0
 27 28  1  1  0  0  0
 29 28  1  0  0  0  0
 30 28  1  0  0  0  0
M  END
>  <CHROM.1>
-132.89165579,0.31567228,118.81512241,62.43620810,65.58032190,26.37620929
40.14268689,22.98360800,1.47970094,-0.31398910,-2.37693219

>  <Name>
lig.pdb

>  <RI>
0

>  <Rbt.Current_Directory>
/home/itssahil/PROJECTS/Mol_Feturizer/New_Systems/rnas/6bfb

>  <Rbt.Executable>
rbdock ($Id: //depot/dev/client3/rdock/2013.1/src/exe/rbdock.cxx#4 $)

>  <Rbt.Library>
libRbt.so (2013.1, Build901 2013/11/27)

>  <Rbt.Parameter_File>
/export/apps/rDock/src/rDock_2013.1_src/data/scripts/dock_solv.prm

>  <Rbt.Receptor>
prm/blind_docking_60.prm

>  <SCORE>
-39.712

>  <SCORE.INTER>
-34.7596

>  <SCORE.INTER.CONST>
1

>  <SCORE.INTER.POLAR>
-0.958236

>  <SCORE.INTER.ROT>
3

>  <SCORE.INTER.SOLV>
10.5419

>  <SCORE.INTER.VDW>
-29.0929

>  <SCORE.INTER.norm>
-1.15865

>  <SCORE.INTRA>
-4.95245

>  <SCORE.INTRA.DIHEDRAL>
-7.51957

>  <SCORE.INTRA.DIHEDRAL.0>
9.41909

>  <SCORE.INTRA.POLAR>
0

>  <SCORE.INTRA.POLAR.0>
0

>  <SCORE.INTRA.REPUL>
0

>  <SCORE.INTRA.REPUL.0>
0

>  <SCORE.INTRA.SOLV>
-0.216063

>  <SCORE.INTRA.SOLV.lig_0>
-26.2491

>  <SCORE.INTRA.VDW>
-1.08463

>  <SCORE.INTRA.VDW.0>
2.57239

>  <SCORE.INTRA.norm>
-0.165082

>  <SCORE.RESTR>
0

>  <SCORE.RESTR.CAVITY>
0

>  <SCORE.RESTR.norm>
0

>  <SCORE.SYSTEM>
0

>  <SCORE.SYSTEM.CONST>
0

>  <SCORE.SYSTEM.DIHEDRAL>
0

>  <SCORE.SYSTEM.SOLV>
0

>  <SCORE.SYSTEM.norm>
0

>  <SCORE.heavy>
30

>  <SCORE.norm>
-1.32373

>  <RMSD>
0.883

$$$$
lig.pdb
 OpenBabel11021811523D
libRbt.so/2013.1/901 2013/11/27
 30 34  0  0  0  0  0  0  0  0999 V2000
   26.5938   38.2244   21.1392 N   0  0  0  0  0  0  0  0  0  0  0  0
   27.0724   41.9195   24.3987 N   0  0  0  0  0  0  0  0  0  0  0  0
   27.9557   37.6870   21.2156 C   0  0  0  0  0  0  0  0  0  0  0  0
   27.9974   36.7765   19.9975 C   0  0  2  0  0  0  0  0  0  0  0  0
   26.0576   39.0347   22.2271 C   0  0  0  0  0  0  0  0  0  0  0  0
   24.7796   38.8390   22.7893 C   0  0  0  0  0  0  0  0  0  0  0  0
   24.2609   39.6177   23.7936 C   0  0  0  0  0  0  0  0  0  0  0  0
   24.4245   41.5510   25.3650 C   0  0  0  0  0  0  0  0  0  0  0  0
   28.9968   43.0476   24.7813 C   0  0  0  0  0  0  0  0  0  0  0  0
   28.9887   40.9745   23.2246 C   0  0  0  0  0  0  0  0  0  0  0  0
   26.8305   40.0983   22.7727 C   0  0  0  0  0  0  0  0  0  0  0  0
   25.2938   43.7417   27.9460 O   0  0  0  0  0  0  0  0  0  0  0  0
   24.7528   43.6169   26.8452 C   0  0  0  0  0  0  0  0  0  0  0  0
   23.6675   44.2996   26.5015 O   0  0  0  0  0  0  0  0  0  0  0  0
   25.2889   42.6637   25.8374 C   0  0  1  0  0  0  0  0  0  0  0  0
   23.3027   41.3321   25.8349 O   0  0  0  0  0  0  0  0  0  0  0  0
   26.6020   42.8129   25.3583 C   0  0  0  0  0  0  0  0  0  0  0  0
   28.4365   42.0437   24.0998 C   0  0  0  0  0  0  0  0  0  0  0  0
   27.8908   43.8432   25.8229 S   0  0  0  0  0  0  0  0  0  0  0  0
   26.3060   40.8866   23.8220 C   0  0  0  0  0  0  0  0  0  0  0  0
   25.0107   40.6709   24.3170 C   0  0  0  0  0  0  0  0  0  0  0  0
   24.0229   37.8162   22.3434 F   0  0  0  0  0  0  0  0  0  0  0  0
   28.0862   40.4178   22.2328 N   0  0  0  0  0  0  0  0  0  0  0  0
   27.9477   41.1842   21.0129 C   0  0  0  0  0  0  0  0  0  0  0  0
   25.7302   37.3773   20.3243 C   0  0  0  0  0  0  0  0  0  0  0  0
   29.0584   37.1332   19.1104 O   0  0  0  0  0  0  0  0  0  0  0  0
   26.7096   37.0263   19.2169 C   0  0  2  0  0  0  0  0  0  0  0  0
   26.4051   35.8174   18.4278 N   0  0  0  0  0  0  0  0  0  0  0  0
   26.1141   34.6072   19.2176 C   0  0  0  0  0  0  0  0  0  0  0  0
   25.4075   36.0505   17.3722 C   0  0  0  0  0  0  0  0  0  0  0  0
  1  5  1  0  0  0  0
  2 17  1  0  0  0  0
  3  1  1  0  0  0  0
  4  3  1  0  0  0  0
  4 26  1  6  0  0  0
  5 11  2  0  0  0  0
  5  6  1  0  0  0  0
  6  7  2  0  0  0  0
  7 21  1  0  0  0  0
  8 15  1  0  0  0  0
  8 16  2  0  0  0  0
  9 19  1  0  0  0  0
 10 18  1  0  0  0  0
 11 20  1  0  0  0  0
 13 14  1  0  0  0  0
 13 12  2  0  0  0  0
 15 13  1  1  0  0  0
 17 19  2  0  0  0  0
 17 15  1  0  0  0  0
 18  2  1  0  0  0  0
 18  9  2  0  0  0  0
 20 21  2  0  0  0  0
 20  2  1  0  0  0  0
 21  8  1  0  0  0  0
 22  6  1  0  0  0  0
 23 11  1  0  0  0  0
 23 10  1  0  0  0  0
 24 23  1  0  0  0  0
 25  1  1  0  0  0  0
 27  4  1  0  0  0  0
 27 25  1  0  0  0  0
 27 28  1  1  0  0  0
 29 28  1  0  0  0  0
 30 28  1  0  0  0  0
M  END
>  <CHROM.1>
-133.04126619,1.09249962,119.19047854,63.57751789,64.06625564,26.36943508
40.14362803,22.98737155,1.47852250,-0.31533697,-2.37861989

>  <Name>
lig.pdb

>  <RI>
0

>  <Rbt.Current_Directory>
/home/itssahil/PROJECTS/Mol_Feturizer/New_Systems/rnas/6bfb

>  <Rbt.Executable>
rbdock ($Id: //depot/dev/client3/rdock/2013.1/src/exe/rbdock.cxx#4 $)

>  <Rbt.Library>
libRbt.so (2013.1, Build901 2013/11/27)

>  <Rbt.Parameter_File>
/export/apps/rDock/src/rDock_2013.1_src/data/scripts/dock_solv.prm

>  <Rbt.Receptor>
prm/blind_docking_60.prm

>  <SCORE>
-39.7536

>  <SCORE.INTER>
-34.8268

>  <SCORE.INTER.CONST>
1

>  <SCORE.INTER.POLAR>
-0.959017

>  <SCORE.INTER.ROT>
3

>  <SCORE.INTER.SOLV>
10.5103

>  <SCORE.INTER.VDW>
-29.1246

>  <SCORE.INTER.norm>
-1.16089

>  <SCORE.INTRA>
-4.92673

>  <SCORE.INTRA.DIHEDRAL>
-7.52956

>  <SCORE.INTRA.DIHEDRAL.0>
9.41909

>  <SCORE.INTRA.POLAR>
0

>  <SCORE.INTRA.POLAR.0>
0

>  <SCORE.INTRA.REPUL>
0

>  <SCORE.INTRA.REPUL.0>
0

>  <SCORE.INTRA.SOLV>
-0.212448

>  <SCORE.INTRA.SOLV.lig_0>
-26.2491

>  <SCORE.INTRA.VDW>
-1.05573

>  <SCORE.INTRA.VDW.0>
2.57239

>  <SCORE.INTRA.norm>
-0.164224

>  <SCORE.RESTR>
0

>  <SCORE.RESTR.CAVITY>
0

>  <SCORE.RESTR.norm>
0

>  <SCORE.SYSTEM>
0

>  <SCORE.SYSTEM.CONST>
0

>  <SCORE.SYSTEM.DIHEDRAL>
0

>  <SCORE.SYSTEM.SOLV>
0

>  <SCORE.SYSTEM.norm>
0

>  <SCORE.heavy>
30

>  <SCORE.norm>
-1.32512

>  <RMSD>
0.887

$$$$
lig.pdb
 OpenBabel11021811523D
libRbt.so/2013.1/901 2013/11/27
 30 34  0  0  0  0  0  0  0  0999 V2000
   26.5462   38.5226   21.2955 N   0  0  0  0  0  0  0  0  0  0  0  0
   26.8640   42.0316   24.7731 N   0  0  0  0  0  0  0  0  0  0  0  0
   27.9161   38.0062   21.3740 C   0  0  0  0  0  0  0  0  0  0  0  0
   28.0057   37.1734   20.1041 C   0  0  2  0  0  0  0  0  0  0  0  0
   25.9677   39.2546   22.4167 C   0  0  0  0  0  0  0  0  0  0  0  0
   24.6840   38.9952   22.9389 C   0  0  0  0  0  0  0  0  0  0  0  0
   24.1254   39.7009   23.9751 C   0  0  0  0  0  0  0  0  0  0  0  0
   24.2075   41.5425   25.6590 C   0  0  0  0  0  0  0  0  0  0  0  0
   28.7507   43.1821   25.2619 C   0  0  0  0  0  0  0  0  0  0  0  0
   28.8272   41.2039   23.5879 C   0  0  0  0  0  0  0  0  0  0  0  0
   26.7018   40.3031   23.0395 C   0  0  0  0  0  0  0  0  0  0  0  0
   24.8074   44.7020   27.3679 O   0  0  0  0  0  0  0  0  0  0  0  0
   24.4528   43.5259   27.2631 C   0  0  0  0  0  0  0  0  0  0  0  0
   23.5597   42.9742   28.0756 O   0  0  0  0  0  0  0  0  0  0  0  0
   25.0333   42.6466   26.2136 C   0  0  1  0  0  0  0  0  0  0  0  0
   23.0825   41.2691   26.0911 O   0  0  0  0  0  0  0  0  0  0  0  0
   26.3516   42.8556   25.7724 C   0  0  0  0  0  0  0  0  0  0  0  0
   28.2302   42.2064   24.5115 C   0  0  0  0  0  0  0  0  0  0  0  0
   27.6039   43.8883   26.3236 S   0  0  0  0  0  0  0  0  0  0  0  0
   26.1362   41.0157   24.1211 C   0  0  0  0  0  0  0  0  0  0  0  0
   24.8371   40.7397   24.5747 C   0  0  0  0  0  0  0  0  0  0  0  0
   23.9630   37.9820   22.4182 F   0  0  0  0  0  0  0  0  0  0  0  0
   27.9595   40.6843   22.5463 N   0  0  0  0  0  0  0  0  0  0  0  0
   27.8259   41.5170   21.3701 C   0  0  0  0  0  0  0  0  0  0  0  0
   25.7199   37.7118   20.4084 C   0  0  0  0  0  0  0  0  0  0  0  0
   29.0810   37.6031   19.2681 O   0  0  0  0  0  0  0  0  0  0  0  0
   26.7329   37.4474   19.3072 C   0  0  2  0  0  0  0  0  0  0  0  0
   26.4718   36.2841   18.4382 N   0  0  0  0  0  0  0  0  0  0  0  0
   25.0845   36.1580   17.9555 C   0  0  0  0  0  0  0  0  0  0  0  0
   27.4568   36.1369   17.3557 C   0  0  0  0  0  0  0  0  0  0  0  0
  1  5  1  0  0  0  0
  2 17  1  0  0  0  0
  3  1  1  0  0  0  0
  4  3  1  0  0  0  0
  4 26  1  6  0  0  0
  5 11  2  0  0  0  0
  5  6  1  0  0  0  0
  6  7  2  0  0  0  0
  7 21  1  0  0  0  0
  8 15  1  0  0  0  0
  8 16  2  0  0  0  0
  9 19  1  0  0  0  0
 10 18  1  0  0  0  0
 11 20  1  0  0  0  0
 13 14  1  0  0  0  0
 13 12  2  0  0  0  0
 15 13  1  1  0  0  0
 17 19  2  0  0  0  0
 17 15  1  0  0  0  0
 18  2  1  0  0  0  0
 18  9  2  0  0  0  0
 20 21  2  0  0  0  0
 20  2  1  0  0  0  0
 21  8  1  0  0  0  0
 22  6  1  0  0  0  0
 23 11  1  0  0  0  0
 23 10  1  0  0  0  0
 24 23  1  0  0  0  0
 25  1  1  0  0  0  0
 27  4  1  0  0  0  0
 27 25  1  0  0  0  0
 27 28  1  1  0  0  0
 29 28  1  0  0  0  0
 30 28  1  0  0  0  0
M  END
>  <CHROM.1>
-132.56935816,1.83027658,-150.20792102,65.16190745,159.89002997,26.26672347
40.34272900,23.21080482,1.42493452,-0.34306230,-2.31510401

>  <Name>
lig.pdb

>  <RI>
0

>  <Rbt.Current_Directory>
/home/itssahil/PROJECTS/Mol_Feturizer/New_Systems/rnas/6bfb

>  <Rbt.Executable>
rbdock ($Id: //depot/dev/client3/rdock/2013.1/src/exe/rbdock.cxx#4 $)

>  <Rbt.Library>
libRbt.so (2013.1, Build901 2013/11/27)

>  <Rbt.Parameter_File>
/export/apps/rDock/src/rDock_2013.1_src/data/scripts/dock_solv.prm

>  <Rbt.Receptor>
prm/pocket_docking_4.prm

>  <SCORE>
-37.2589

>  <SCORE.INTER>
-33.2884

>  <SCORE.INTER.CONST>
1

>  <SCORE.INTER.POLAR>
-0.953376

>  <SCORE.INTER.ROT>
3

>  <SCORE.INTER.SOLV>
10.2497

>  <SCORE.INTER.VDW>
-28.031

>  <SCORE.INTER.norm>
-1.10961

>  <SCORE.INTRA>
-3.97042

>  <SCORE.INTRA.DIHEDRAL>
-7.27835

>  <SCORE.INTRA.DIHEDRAL.0>
9.41909

>  <SCORE.INTRA.POLAR>
0

>  <SCORE.INTRA.POLAR.0>
0

>  <SCORE.INTRA.REPUL>
0

>  <SCORE.INTRA.REPUL.0>
0

>  <SCORE.INTRA.SOLV>
-0.0422925

>  <SCORE.INTRA.SOLV.lig_0>
-26.2491

>  <SCORE.INTRA.VDW>
-0.310104

>  <SCORE.INTRA.VDW.0>
2.57239

>  <SCORE.INTRA.norm>
-0.132347

>  <SCORE.RESTR>
0

>  <SCORE.RESTR.CAVITY>
0

>  <SCORE.RESTR.norm>
0

>  <SCORE.SYSTEM>
0

>  <SCORE.SYSTEM.CONST>
0

>  <SCORE.SYSTEM.DIHEDRAL>
0

>  <SCORE.SYSTEM.SOLV>
0

>  <SCORE.SYSTEM.norm>
0

>  <SCORE.heavy>
30

>  <SCORE.norm>
-1.24196

>  <RMSD>
0.887

$$$$
lig.pdb
 OpenBabel11021811523D
libRbt.so/2013.1/901 2013/11/27
 30 34  0  0  0  0  0  0  0  0999 V2000
   26.5672   38.3725   21.1086 N   0  0  0  0  0  0  0  0  0  0  0  0
   27.1354   42.0233   24.4036 N   0  0  0  0  0  0  0  0  0  0  0  0
   27.8843   37.7324   21.1782 C   0  0  0  0  0  0  0  0  0  0  0  0
   27.8865   36.8913   19.9105 C   0  0  2  0  0  0  0  0  0  0  0  0
   26.0677   39.1579   22.2317 C   0  0  0  0  0  0  0  0  0  0  0  0
   24.8183   38.9346   22.8456 C   0  0  0  0  0  0  0  0  0  0  0  0
   24.3330   39.6898   23.8839 C   0  0  0  0  0  0  0  0  0  0  0  0
   24.5377   41.6007   25.4778 C   0  0  0  0  0  0  0  0  0  0  0  0
   29.0587   43.1736   24.7204 C   0  0  0  0  0  0  0  0  0  0  0  0
   29.0118   41.1250   23.1323 C   0  0  0  0  0  0  0  0  0  0  0  0
   26.8485   40.2241   22.7603 C   0  0  0  0  0  0  0  0  0  0  0  0
   23.9015   44.3411   26.7741 O   0  0  0  0  0  0  0  0  0  0  0  0
   24.9011   43.6481   26.9754 C   0  0  0  0  0  0  0  0  0  0  0  0
   25.5881   43.6986   28.1101 O   0  0  0  0  0  0  0  0  0  0  0  0
   25.4061   42.7186   25.9301 C   0  0  1  0  0  0  0  0  0  0  0  0
   23.4407   41.3580   25.9923 O   0  0  0  0  0  0  0  0  0  0  0  0
   26.6948   42.8947   25.3969 C   0  0  0  0  0  0  0  0  0  0  0  0
   28.4833   42.1723   24.0478 C   0  0  0  0  0  0  0  0  0  0  0  0
   27.9880   43.9366   25.8217 S   0  0  0  0  0  0  0  0  0  0  0  0
   26.3593   40.9882   23.8440 C   0  0  0  0  0  0  0  0  0  0  0  0
   25.0899   40.7457   24.3912 C   0  0  0  0  0  0  0  0  0  0  0  0
   24.0574   37.9078   22.4165 F   0  0  0  0  0  0  0  0  0  0  0  0
   28.0749   40.5705   22.1717 N   0  0  0  0  0  0  0  0  0  0  0  0
   27.8725   41.3537   20.9715 C   0  0  0  0  0  0  0  0  0  0  0  0
   25.6624   37.6388   20.2309 C   0  0  0  0  0  0  0  0  0  0  0  0
   28.9899   37.2178   19.0645 O   0  0  0  0  0  0  0  0  0  0  0  0
   26.6377   37.2790   19.1228 C   0  0  2  0  0  0  0  0  0  0  0  0
   26.2636   36.1423   18.2600 N   0  0  0  0  0  0  0  0  0  0  0  0
   24.8302   36.0494   17.9281 C   0  0  0  0  0  0  0  0  0  0  0  0
   27.1228   36.0079   17.0736 C   0  0  0  0  0  0  0  0  0  0  0  0
  1  5  1  0  0  0  0
  2 17  1  0  0  0  0
  3  1  1  0  0  0  0
  4  3  1  0  0  0  0
  4 26  1  6  0  0  0
  5 11  2  0  0  0  0
  5  6  1  0  0  0  0
  6  7  2  0  0  0  0
  7 21  1  0  0  0  0
  8 15  1  0  0  0  0
  8 16  2  0  0  0  0
  9 19  1  0  0  0  0
 10 18  1  0  0  0  0
 11 20  1  0  0  0  0
 13 14  1  0  0  0  0
 13 12  2  0  0  0  0
 15 13  1  1  0  0  0
 17 19  2  0  0  0  0
 17 15  1  0  0  0  0
 18  2  1  0  0  0  0
 18  9  2  0  0  0  0
 20 21  2  0  0  0  0
 20  2  1  0  0  0  0
 21  8  1  0  0  0  0
 22  6  1  0  0  0  0
 23 11  1  0  0  0  0
 23 10  1  0  0  0  0
 24 23  1  0  0  0  0
 25  1  1  0  0  0  0
 27  4  1  0  0  0  0
 27 25  1  0  0  0  0
 27 28  1  1  0  0  0
 29 28  1  0  0  0  0
 30 28  1  0  0  0  0
M  END
>  <CHROM.1>
-126.39441177,0.96676376,-62.28731607,64.36953139,152.49623733,26.42773268
40.29111169,22.95081875,1.49013287,-0.34270922,-2.32477995

>  <Name>
lig.pdb

>  <RI>
0

>  <Rbt.Current_Directory>
/home/itssahil/PROJECTS/Mol_Feturizer/New_Systems/rnas/6bfb

>  <Rbt.Executable>
rbdock ($Id: //depot/dev/client3/rdock/2013.1/src/exe/rbdock.cxx#4 $)

>  <Rbt.Library>
libRbt.so (2013.1, Build901 2013/11/27)

>  <Rbt.Parameter_File>
/export/apps/rDock/src/rDock_2013.1_src/data/scripts/dock_solv.prm

>  <Rbt.Receptor>
prm/pocket_docking_2.prm

>  <SCORE>
-38.2359

>  <SCORE.INTER>
-33.8485

>  <SCORE.INTER.CONST>
1

>  <SCORE.INTER.POLAR>
-0.930818

>  <SCORE.INTER.ROT>
3

>  <SCORE.INTER.SOLV>
10.4478

>  <SCORE.INTER.VDW>
-28.5455

>  <SCORE.INTER.norm>
-1.12828

>  <SCORE.INTRA>
-4.83595

>  <SCORE.INTRA.DIHEDRAL>
-6.99291

>  <SCORE.INTRA.DIHEDRAL.0>
9.41909

>  <SCORE.INTRA.POLAR>
0

>  <SCORE.INTRA.POLAR.0>
0

>  <SCORE.INTRA.REPUL>
0.0140598

>  <SCORE.INTRA.REPUL.0>
0

>  <SCORE.INTRA.SOLV>
-0.163845

>  <SCORE.INTRA.SOLV.lig_0>
-26.2491

>  <SCORE.INTRA.VDW>
-1.32787

>  <SCORE.INTRA.VDW.0>
2.57239

>  <SCORE.INTRA.norm>
-0.161198

>  <SCORE.RESTR>
0.448483

>  <SCORE.RESTR.CAVITY>
0.448483

>  <SCORE.RESTR.norm>
0.0149494

>  <SCORE.SYSTEM>
0

>  <SCORE.SYSTEM.CONST>
0

>  <SCORE.SYSTEM.DIHEDRAL>
0

>  <SCORE.SYSTEM.SOLV>
0

>  <SCORE.SYSTEM.norm>
0

>  <SCORE.heavy>
30

>  <SCORE.norm>
-1.27453

>  <RMSD>
0.889

$$$$
lig.pdb
 OpenBabel11021811523D
libRbt.so/2013.1/901 2013/11/27
 30 34  0  0  0  0  0  0  0  0999 V2000
   26.5806   38.2261   21.1592 N   0  0  0  0  0  0  0  0  0  0  0  0
   27.0799   41.9258   24.4104 N   0  0  0  0  0  0  0  0  0  0  0  0
   27.9524   37.7121   21.2178 C   0  0  0  0  0  0  0  0  0  0  0  0
   27.9881   36.7883   20.0096 C   0  0  2  0  0  0  0  0  0  0  0  0
   26.0501   39.0402   22.2470 C   0  0  0  0  0  0  0  0  0  0  0  0
   24.7729   38.8497   22.8130 C   0  0  0  0  0  0  0  0  0  0  0  0
   24.2595   39.6319   23.8172 C   0  0  0  0  0  0  0  0  0  0  0  0
   24.4335   41.5676   25.3845 C   0  0  0  0  0  0  0  0  0  0  0  0
   29.0090   43.0484   24.7856 C   0  0  0  0  0  0  0  0  0  0  0  0
   28.9900   40.9724   23.2329 C   0  0  0  0  0  0  0  0  0  0  0  0
   26.8278   40.1023   22.7884 C   0  0  0  0  0  0  0  0  0  0  0  0
   25.3339   43.7818   27.9477 O   0  0  0  0  0  0  0  0  0  0  0  0
   24.7725   43.6353   26.8599 C   0  0  0  0  0  0  0  0  0  0  0  0
   23.6697   44.2968   26.5308 O   0  0  0  0  0  0  0  0  0  0  0  0
   25.3027   42.6785   25.8524 C   0  0  1  0  0  0  0  0  0  0  0  0
   23.3123   41.3532   25.8578 O   0  0  0  0  0  0  0  0  0  0  0  0
   26.6150   42.8226   25.3695 C   0  0  0  0  0  0  0  0  0  0  0  0
   28.4436   42.0451   24.1076 C   0  0  0  0  0  0  0  0  0  0  0  0
   27.9084   43.8496   25.8287 S   0  0  0  0  0  0  0  0  0  0  0  0
   26.3087   40.8943   23.8377 C   0  0  0  0  0  0  0  0  0  0  0  0
   25.0140   40.6836   24.3366 C   0  0  0  0  0  0  0  0  0  0  0  0
   24.0118   37.8285   22.3710 F   0  0  0  0  0  0  0  0  0  0  0  0
   28.0831   40.4168   22.2446 N   0  0  0  0  0  0  0  0  0  0  0  0
   27.9437   41.1813   21.0236 C   0  0  0  0  0  0  0  0  0  0  0  0
   25.7173   37.3554   20.3693 C   0  0  0  0  0  0  0  0  0  0  0  0
   29.0275   37.1519   19.1000 O   0  0  0  0  0  0  0  0  0  0  0  0
   26.6830   37.0076   19.2489 C   0  0  2  0  0  0  0  0  0  0  0  0
   26.3851   35.7848   18.4792 N   0  0  0  0  0  0  0  0  0  0  0  0
   26.0566   34.5966   19.2878 C   0  0  0  0  0  0  0  0  0  0  0  0
   25.4202   36.0057   17.3910 C   0  0  0  0  0  0  0  0  0  0  0  0
  1  5  1  0  0  0  0
  2 17  1  0  0  0  0
  3  1  1  0  0  0  0
  4  3  1  0  0  0  0
  4 26  1  6  0  0  0
  5 11  2  0  0  0  0
  5  6  1  0  0  0  0
  6  7  2  0  0  0  0
  7 21  1  0  0  0  0
  8 15  1  0  0  0  0
  8 16  2  0  0  0  0
  9 19  1  0  0  0  0
 10 18  1  0  0  0  0
 11 20  1  0  0  0  0
 13 14  1  0  0  0  0
 13 12  2  0  0  0  0
 15 13  1  1  0  0  0
 17 19  2  0  0  0  0
 17 15  1  0  0  0  0
 18  2  1  0  0  0  0
 18  9  2  0  0  0  0
 20 21  2  0  0  0  0
 20  2  1  0  0  0  0
 21  8  1  0  0  0  0
 22  6  1  0  0  0  0
 23 11  1  0  0  0  0
 23 10  1  0  0  0  0
 24 23  1  0  0  0  0
 25  1  1  0  0  0  0
 27  4  1  0  0  0  0
 27 25  1  0  0  0  0
 27 28  1  1  0  0  0
 29 28  1  0  0  0  0
 30 28  1  0  0  0  0
M  END
>  <CHROM.1>
-134.56000323,0.44358650,120.79203201,62.39836902,67.22405022,26.36859297
40.14786907,23.00567621,1.48254852,-0.31871482,-2.38038090

>  <Name>
lig.pdb

>  <RI>
0

>  <Rbt.Current_Directory>
/home/itssahil/PROJECTS/Mol_Feturizer/New_Systems/rnas/6bfb

>  <Rbt.Executable>
rbdock ($Id: //depot/dev/client3/rdock/2013.1/src/exe/rbdock.cxx#4 $)

>  <Rbt.Library>
libRbt.so (2013.1, Build901 2013/11/27)

>  <Rbt.Parameter_File>
/export/apps/rDock/src/rDock_2013.1_src/data/scripts/dock_solv.prm

>  <Rbt.Receptor>
prm/blind_docking_60.prm

>  <SCORE>
-39.6887

>  <SCORE.INTER>
-34.8979

>  <SCORE.INTER.CONST>
1

>  <SCORE.INTER.POLAR>
-0.959166

>  <SCORE.INTER.ROT>
3

>  <SCORE.INTER.SOLV>
10.4893

>  <SCORE.INTER.VDW>
-29.1645

>  <SCORE.INTER.norm>
-1.16326

>  <SCORE.INTRA>
-4.79083

>  <SCORE.INTRA.DIHEDRAL>
-7.46481

>  <SCORE.INTRA.DIHEDRAL.0>
9.41909

>  <SCORE.INTRA.POLAR>
0

>  <SCORE.INTRA.POLAR.0>
0

>  <SCORE.INTRA.REPUL>
0

>  <SCORE.INTRA.REPUL.0>
0

>  <SCORE.INTRA.SOLV>
-0.206211

>  <SCORE.INTRA.SOLV.lig_0>
-26.2491

>  <SCORE.INTRA.VDW>
-0.955322

>  <SCORE.INTRA.VDW.0>
2.57239

>  <SCORE.INTRA.norm>
-0.159694

>  <SCORE.RESTR>
0

>  <SCORE.RESTR.CAVITY>
0

>  <SCORE.RESTR.norm>
0

>  <SCORE.SYSTEM>
0

>  <SCORE.SYSTEM.CONST>
0

>  <SCORE.SYSTEM.DIHEDRAL>
0

>  <SCORE.SYSTEM.SOLV>
0

>  <SCORE.SYSTEM.norm>
0

>  <SCORE.heavy>
30

>  <SCORE.norm>
-1.32296

>  <RMSD>
0.890

$$$$
lig.pdb
 OpenBabel11021811523D
libRbt.so/2013.1/901 2013/11/27
 30 34  0  0  0  0  0  0  0  0999 V2000
   26.5986   38.2121   21.1448 N   0  0  0  0  0  0  0  0  0  0  0  0
   27.0826   41.9132   24.3968 N   0  0  0  0  0  0  0  0  0  0  0  0
   27.9621   37.6785   21.2193 C   0  0  0  0  0  0  0  0  0  0  0  0
   28.0025   36.7632   20.0049 C   0  0  2  0  0  0  0  0  0  0  0  0
   26.0636   39.0255   22.2310 C   0  0  0  0  0  0  0  0  0  0  0  0
   24.7852   38.8330   22.7935 C   0  0  0  0  0  0  0  0  0  0  0  0
   24.2676   39.6145   23.7961 C   0  0  0  0  0  0  0  0  0  0  0  0
   24.4340   41.5508   25.3635 C   0  0  0  0  0  0  0  0  0  0  0  0
   29.0088   43.0391   24.7772 C   0  0  0  0  0  0  0  0  0  0  0  0
   28.9976   40.9627   23.2248 C   0  0  0  0  0  0  0  0  0  0  0  0
   26.8381   40.0890   22.7744 C   0  0  0  0  0  0  0  0  0  0  0  0
   25.3186   43.7605   27.9322 O   0  0  0  0  0  0  0  0  0  0  0  0
   24.7655   43.6193   26.8394 C   0  0  0  0  0  0  0  0  0  0  0  0
   23.6681   44.2862   26.5032 O   0  0  0  0  0  0  0  0  0  0  0  0
   25.3001   42.6632   25.8337 C   0  0  1  0  0  0  0  0  0  0  0  0
   23.3119   41.3346   25.8337 O   0  0  0  0  0  0  0  0  0  0  0  0
   26.6135   42.8094   25.3544 C   0  0  0  0  0  0  0  0  0  0  0  0
   28.4469   42.0347   24.0977 C   0  0  0  0  0  0  0  0  0  0  0  0
   27.9039   43.8386   25.8170 S   0  0  0  0  0  0  0  0  0  0  0  0
   26.3147   40.8803   23.8221 C   0  0  0  0  0  0  0  0  0  0  0  0
   25.0190   40.6676   24.3174 C   0  0  0  0  0  0  0  0  0  0  0  0
   24.0270   37.8105   22.3496 F   0  0  0  0  0  0  0  0  0  0  0  0
   28.0943   40.4054   22.2340 N   0  0  0  0  0  0  0  0  0  0  0  0
   27.9571   41.1696   21.0125 C   0  0  0  0  0  0  0  0  0  0  0  0
   25.7348   37.3594   20.3360 C   0  0  0  0  0  0  0  0  0  0  0  0
   29.0599   37.1189   19.1131 O   0  0  0  0  0  0  0  0  0  0  0  0
   26.7117   37.0064   19.2271 C   0  0  2  0  0  0  0  0  0  0  0  0
   26.4081   35.7935   18.4439 N   0  0  0  0  0  0  0  0  0  0  0  0
   26.1004   34.5913   19.2397 C   0  0  0  0  0  0  0  0  0  0  0  0
   25.4237   36.0250   17.3756 C   0  0  0  0  0  0  0  0  0  0  0  0
  1  5  1  0  0  0  0
  2 17  1  0  0  0  0
  3  1  1  0  0  0  0
  4  3  1  0  0  0  0
  4 26  1  6  0  0  0
  5 11  2  0  0  0  0
  5  6  1  0  0  0  0
  6  7  2  0  0  0  0
  7 21  1  0  0  0  0
  8 15  1  0  0  0  0
  8 16  2  0  0  0  0
  9 19  1  0  0  0  0
 10 18  1  0  0  0  0
 11 20  1  0  0  0  0
 13 14  1  0  0  0  0
 13 12  2  0  0  0  0
 15 13  1  1  0  0  0
 17 19  2  0  0  0  0
 17 15  1  0  0  0  0
 18  2  1  0  0  0  0
 18  9  2  0  0  0  0
 20 21  2  0  0  0  0
 20  2  1  0  0  0  0
 21  8  1  0  0  0  0
 22  6  1  0  0  0  0
 23 11  1  0  0  0  0
 23 10  1  0  0  0  0
 24 23  1  0  0  0  0
 25  1  1  0  0  0  0
 27  4  1  0  0  0  0
 27 25  1  0  0  0  0
 27 28  1  1  0  0  0
 29 28  1  0  0  0  0
 30 28  1  0  0  0  0
M  END
>  <CHROM.1>
-133.36036512,0.91015802,120.30982750,63.90001956,65.04776765,26.37716249
40.13518382,22.98915080,1.47959009,-0.31490644,-2.38045891

>  <Name>
lig.pdb

>  <RI>
0

>  <Rbt.Current_Directory>
/home/itssahil/PROJECTS/Mol_Feturizer/New_Systems/rnas/6bfb

>  <Rbt.Executable>
rbdock ($Id: //depot/dev/client3/rdock/2013.1/src/exe/rbdock.cxx#4 $)

>  <Rbt.Library>
libRbt.so (2013.1, Build901 2013/11/27)

>  <Rbt.Parameter_File>
/export/apps/rDock/src/rDock_2013.1_src/data/scripts/dock_solv.prm

>  <Rbt.Receptor>
prm/pocket_docking_5.prm

>  <SCORE>
-39.7182

>  <SCORE.INTER>
-34.8209

>  <SCORE.INTER.CONST>
1

>  <SCORE.INTER.POLAR>
-0.958678

>  <SCORE.INTER.ROT>
3

>  <SCORE.INTER.SOLV>
10.5457

>  <SCORE.INTER.VDW>
-29.1336

>  <SCORE.INTER.norm>
-1.1607

>  <SCORE.INTRA>
-4.89736

>  <SCORE.INTRA.DIHEDRAL>
-7.4909

>  <SCORE.INTRA.DIHEDRAL.0>
9.41909

>  <SCORE.INTRA.POLAR>
0

>  <SCORE.INTRA.POLAR.0>
0

>  <SCORE.INTRA.REPUL>
0

>  <SCORE.INTRA.REPUL.0>
0

>  <SCORE.INTRA.SOLV>
-0.210206

>  <SCORE.INTRA.SOLV.lig_0>
-26.2491

>  <SCORE.INTRA.VDW>
-1.0468

>  <SCORE.INTRA.VDW.0>
2.57239

>  <SCORE.INTRA.norm>
-0.163245

>  <SCORE.RESTR>
0

>  <SCORE.RESTR.CAVITY>
0

>  <SCORE.RESTR.norm>
0

>  <SCORE.SYSTEM>
0

>  <SCORE.SYSTEM.CONST>
0

>  <SCORE.SYSTEM.DIHEDRAL>
0

>  <SCORE.SYSTEM.SOLV>
0

>  <SCORE.SYSTEM.norm>
0

>  <SCORE.heavy>
30

>  <SCORE.norm>
-1.32394

>  <RMSD>
0.891

$$$$
lig.pdb
 OpenBabel11021811523D
libRbt.so/2013.1/901 2013/11/27
 30 34  0  0  0  0  0  0  0  0999 V2000
   26.5801   38.2567   21.1673 N   0  0  0  0  0  0  0  0  0  0  0  0
   27.0581   41.9576   24.4202 N   0  0  0  0  0  0  0  0  0  0  0  0
   27.9475   37.7317   21.2331 C   0  0  0  0  0  0  0  0  0  0  0  0
   27.9868   36.8185   20.0170 C   0  0  2  0  0  0  0  0  0  0  0  0
   26.0462   39.0650   22.2577 C   0  0  0  0  0  0  0  0  0  0  0  0
   24.7728   38.8626   22.8281 C   0  0  0  0  0  0  0  0  0  0  0  0
   24.2560   39.6393   23.8348 C   0  0  0  0  0  0  0  0  0  0  0  0
   24.4184   41.5751   25.4034 C   0  0  0  0  0  0  0  0  0  0  0  0
   28.9785   43.0970   24.7897 C   0  0  0  0  0  0  0  0  0  0  0  0
   28.9724   41.0223   23.2351 C   0  0  0  0  0  0  0  0  0  0  0  0
   26.8164   40.1335   22.7974 C   0  0  0  0  0  0  0  0  0  0  0  0
   25.2815   43.7611   27.9830 O   0  0  0  0  0  0  0  0  0  0  0  0
   24.7442   43.6443   26.8795 C   0  0  0  0  0  0  0  0  0  0  0  0
   23.6638   44.3342   26.5348 O   0  0  0  0  0  0  0  0  0  0  0  0
   25.2794   42.6932   25.8693 C   0  0  1  0  0  0  0  0  0  0  0  0
   23.3009   41.3503   25.8804 O   0  0  0  0  0  0  0  0  0  0  0  0
   26.5886   42.8493   25.3818 C   0  0  0  0  0  0  0  0  0  0  0  0
   28.4196   42.0893   24.1127 C   0  0  0  0  0  0  0  0  0  0  0  0
   27.8744   43.8874   25.8374 S   0  0  0  0  0  0  0  0  0  0  0  0
   26.2940   40.9198   23.8493 C   0  0  0  0  0  0  0  0  0  0  0  0
   25.0030   40.6973   24.3526 C   0  0  0  0  0  0  0  0  0  0  0  0
   24.0192   37.8351   22.3878 F   0  0  0  0  0  0  0  0  0  0  0  0
   28.0669   40.4596   22.2494 N   0  0  0  0  0  0  0  0  0  0  0  0
   27.9164   41.2240   21.0297 C   0  0  0  0  0  0  0  0  0  0  0  0
   25.7172   37.3997   20.3621 C   0  0  0  0  0  0  0  0  0  0  0  0
   29.0367   37.1823   19.1197 O   0  0  0  0  0  0  0  0  0  0  0  0
   26.6900   37.0545   19.2471 C   0  0  2  0  0  0  0  0  0  0  0  0
   26.3896   35.8409   18.4638 N   0  0  0  0  0  0  0  0  0  0  0  0
   26.0887   34.6369   19.2595 C   0  0  0  0  0  0  0  0  0  0  0  0
   25.4019   36.0690   17.3978 C   0  0  0  0  0  0  0  0  0  0  0  0
  1  5  1  0  0  0  0
  2 17  1  0  0  0  0
  3  1  1  0  0  0  0
  4  3  1  0  0  0  0
  4 26  1  6  0  0  0
  5 11  2  0  0  0  0
  5  6  1  0  0  0  0
  6  7  2  0  0  0  0
  7 21  1  0  0  0  0
  8 15  1  0  0  0  0
  8 16  2  0  0  0  0
  9 19  1  0  0  0  0
 10 18  1  0  0  0  0
 11 20  1  0  0  0  0
 13 14  1  0  0  0  0
 13 12  2  0  0  0  0
 15 13  1  1  0  0  0
 17 19  2  0  0  0  0
 17 15  1  0  0  0  0
 18  2  1  0  0  0  0
 18  9  2  0  0  0  0
 20 21  2  0  0  0  0
 20  2  1  0  0  0  0
 21  8  1  0  0  0  0
 22  6  1  0  0  0  0
 23 11  1  0  0  0  0
 23 10  1  0  0  0  0
 24 23  1  0  0  0  0
 25  1  1  0  0  0  0
 27  4  1  0  0  0  0
 27 25  1  0  0  0  0
 27 28  1  1  0  0  0
 29 28  1  0  0  0  0
 30 28  1  0  0  0  0
M  END
>  <CHROM.1>
-133.29914212,1.35550934,118.27804248,65.97378846,65.29359608,26.35659302
40.17642383,23.01473212,1.47871461,-0.32484643,-2.37959168

>  <Name>
lig.pdb

>  <RI>
0

>  <Rbt.Current_Directory>
/home/itssahil/PROJECTS/Mol_Feturizer/New_Systems/rnas/6bfb

>  <Rbt.Executable>
rbdock ($Id: //depot/dev/client3/rdock/2013.1/src/exe/rbdock.cxx#4 $)

>  <Rbt.Library>
libRbt.so (2013.1, Build901 2013/11/27)

>  <Rbt.Parameter_File>
/export/apps/rDock/src/rDock_2013.1_src/data/scripts/dock_solv.prm

>  <Rbt.Receptor>
prm/pocket_docking_3.prm

>  <SCORE>
-39.7403

>  <SCORE.INTER>
-34.8531

>  <SCORE.INTER.CONST>
1

>  <SCORE.INTER.POLAR>
-0.959166

>  <SCORE.INTER.ROT>
3

>  <SCORE.INTER.SOLV>
10.4881

>  <SCORE.INTER.VDW>
-29.1342

>  <SCORE.INTER.norm>
-1.16177

>  <SCORE.INTRA>
-4.88718

>  <SCORE.INTRA.DIHEDRAL>
-7.37936

>  <SCORE.INTRA.DIHEDRAL.0>
9.41909

>  <SCORE.INTRA.POLAR>
0

>  <SCORE.INTRA.POLAR.0>
0

>  <SCORE.INTRA.REPUL>
0

>  <SCORE.INTRA.REPUL.0>
0

>  <SCORE.INTRA.SOLV>
-0.213172

>  <SCORE.INTRA.SOLV.lig_0>
-26.2491

>  <SCORE.INTRA.VDW>
-1.09092

>  <SCORE.INTRA.VDW.0>
2.57239

>  <SCORE.INTRA.norm>
-0.162906

>  <SCORE.RESTR>
0

>  <SCORE.RESTR.CAVITY>
0

>  <SCORE.RESTR.norm>
0

>  <SCORE.SYSTEM>
0

>  <SCORE.SYSTEM.CONST>
0

>  <SCORE.SYSTEM.DIHEDRAL>
0

>  <SCORE.SYSTEM.SOLV>
0

>  <SCORE.SYSTEM.norm>
0

>  <SCORE.heavy>
30

>  <SCORE.norm>
-1.32468

>  <RMSD>
0.893

$$$$
lig.pdb
 OpenBabel11021811523D
libRbt.so/2013.1/901 2013/11/27
 30 34  0  0  0  0  0  0  0  0999 V2000
   26.6079   38.2633   21.1338 N   0  0  0  0  0  0  0  0  0  0  0  0
   27.1005   41.9755   24.3717 N   0  0  0  0  0  0  0  0  0  0  0  0
   27.9607   37.7040   21.2142 C   0  0  0  0  0  0  0  0  0  0  0  0
   27.9947   36.8000   19.9911 C   0  0  2  0  0  0  0  0  0  0  0  0
   26.0787   39.0757   22.2235 C   0  0  0  0  0  0  0  0  0  0  0  0
   24.8075   38.8759   22.7996 C   0  0  0  0  0  0  0  0  0  0  0  0
   24.2951   39.6564   23.8057 C   0  0  0  0  0  0  0  0  0  0  0  0
   24.4646   41.5976   25.3667 C   0  0  0  0  0  0  0  0  0  0  0  0
   29.0229   43.1152   24.7294 C   0  0  0  0  0  0  0  0  0  0  0  0
   29.0096   41.0351   23.1821 C   0  0  0  0  0  0  0  0  0  0  0  0
   26.8515   40.1457   22.7563 C   0  0  0  0  0  0  0  0  0  0  0  0
   25.3167   43.7658   27.9484 O   0  0  0  0  0  0  0  0  0  0  0  0
   24.7973   43.6719   26.8342 C   0  0  0  0  0  0  0  0  0  0  0  0
   23.7404   44.3908   26.4762 O   0  0  0  0  0  0  0  0  0  0  0  0
   25.3280   42.7169   25.8252 C   0  0  1  0  0  0  0  0  0  0  0  0
   23.3489   41.3750   25.8491 O   0  0  0  0  0  0  0  0  0  0  0  0
   26.6353   42.8708   25.3320 C   0  0  0  0  0  0  0  0  0  0  0  0
   28.4608   42.1054   24.0582 C   0  0  0  0  0  0  0  0  0  0  0  0
   27.9234   43.9098   25.7788 S   0  0  0  0  0  0  0  0  0  0  0  0
   26.3337   40.9360   23.8075 C   0  0  0  0  0  0  0  0  0  0  0  0
   25.0447   40.7158   24.3167 C   0  0  0  0  0  0  0  0  0  0  0  0
   24.0517   37.8472   22.3660 F   0  0  0  0  0  0  0  0  0  0  0  0
   28.0999   40.4693   22.2022 N   0  0  0  0  0  0  0  0  0  0  0  0
   27.9449   41.2295   20.9803 C   0  0  0  0  0  0  0  0  0  0  0  0
   25.7356   37.4345   20.3094 C   0  0  0  0  0  0  0  0  0  0  0  0
   29.0659   37.1450   19.1117 O   0  0  0  0  0  0  0  0  0  0  0  0
   26.7152   37.0745   19.2051 C   0  0  2  0  0  0  0  0  0  0  0  0
   26.3961   35.8751   18.4074 N   0  0  0  0  0  0  0  0  0  0  0  0
   26.0872   34.6637   19.1887 C   0  0  0  0  0  0  0  0  0  0  0  0
   25.4037   36.1286   17.3516 C   0  0  0  0  0  0  0  0  0  0  0  0
  1  5  1  0  0  0  0
  2 17  1  0  0  0  0
  3  1  1  0  0  0  0
  4  3  1  0  0  0  0
  4 26  1  6  0  0  0
  5 11  2  0  0  0  0
  5  6  1  0  0  0  0
  6  7  2  0  0  0  0
  7 21  1  0  0  0  0
  8 15  1  0  0  0  0
  8 16  2  0  0  0  0
  9 19  1  0  0  0  0
 10 18  1  0  0  0  0
 11 20  1  0  0  0  0
 13 14  1  0  0  0  0
 13 12  2  0  0  0  0
 15 13  1  1  0  0  0
 17 19  2  0  0  0  0
 17 15  1  0  0  0  0
 18  2  1  0  0  0  0
 18  9  2  0  0  0  0
 20 21  2  0  0  0  0
 20  2  1  0  0  0  0
 21  8  1  0  0  0  0
 22  6  1  0  0  0  0
 23 11  1  0  0  0  0
 23 10  1  0  0  0  0
 24 23  1  0  0  0  0
 25  1  1  0  0  0  0
 27  4  1  0  0  0  0
 27 25  1  0  0  0  0
 27 28  1  1  0  0  0
 29 28  1  0  0  0  0
 30 28  1  0  0  0  0
M  END
>  <CHROM.1>
-131.43387338,-179.91451517,116.27113645,64.01945269,63.82651957,26.39084502
40.19081819,22.96856165,1.48337983,-0.32307734,-2.37980098

>  <Name>
lig.pdb

>  <RI>
0

>  <Rbt.Current_Directory>
/home/itssahil/PROJECTS/Mol_Feturizer/New_Systems/rnas/6bfb

>  <Rbt.Executable>
rbdock ($Id: //depot/dev/client3/rdock/2013.1/src/exe/rbdock.cxx#4 $)

>  <Rbt.Library>
libRbt.so (2013.1, Build901 2013/11/27)

>  <Rbt.Parameter_File>
/export/apps/rDock/src/rDock_2013.1_src/data/scripts/dock_solv.prm

>  <Rbt.Receptor>
prm/pocket_docking_4.prm

>  <SCORE>
-39.2662

>  <SCORE.INTER>
-34.5999

>  <SCORE.INTER.CONST>
1

>  <SCORE.INTER.POLAR>
-0.957408

>  <SCORE.INTER.ROT>
3

>  <SCORE.INTER.SOLV>
10.5992

>  <SCORE.INTER.VDW>
-29.0083

>  <SCORE.INTER.norm>
-1.15333

>  <SCORE.INTRA>
-4.66628

>  <SCORE.INTRA.DIHEDRAL>
-7.52108

>  <SCORE.INTRA.DIHEDRAL.0>
9.41909

>  <SCORE.INTRA.POLAR>
0

>  <SCORE.INTRA.POLAR.0>
0

>  <SCORE.INTRA.REPUL>
0.000771883

>  <SCORE.INTRA.REPUL.0>
0

>  <SCORE.INTRA.SOLV>
-0.230054

>  <SCORE.INTRA.SOLV.lig_0>
-26.2491

>  <SCORE.INTRA.VDW>
-0.794572

>  <SCORE.INTRA.VDW.0>
2.57239

>  <SCORE.INTRA.norm>
-0.155543

>  <SCORE.RESTR>
0

>  <SCORE.RESTR.CAVITY>
0

>  <SCORE.RESTR.norm>
0

>  <SCORE.SYSTEM>
0

>  <SCORE.SYSTEM.CONST>
0

>  <SCORE.SYSTEM.DIHEDRAL>
0

>  <SCORE.SYSTEM.SOLV>
0

>  <SCORE.SYSTEM.norm>
0

>  <SCORE.heavy>
30

>  <SCORE.norm>
-1.30887

>  <RMSD>
0.895

$$$$
lig.pdb
 OpenBabel11021811523D
libRbt.so/2013.1/901 2013/11/27
 30 34  0  0  0  0  0  0  0  0999 V2000
   26.5942   38.2490   21.1631 N   0  0  0  0  0  0  0  0  0  0  0  0
   27.0711   41.9474   24.4192 N   0  0  0  0  0  0  0  0  0  0  0  0
   27.9609   37.7229   21.2325 C   0  0  0  0  0  0  0  0  0  0  0  0
   28.0022   36.8086   20.0173 C   0  0  2  0  0  0  0  0  0  0  0  0
   26.0586   39.0588   22.2516 C   0  0  0  0  0  0  0  0  0  0  0  0
   24.7822   38.8604   22.8168 C   0  0  0  0  0  0  0  0  0  0  0  0
   24.2639   39.6384   23.8217 C   0  0  0  0  0  0  0  0  0  0  0  0
   24.4263   41.5731   25.3916 C   0  0  0  0  0  0  0  0  0  0  0  0
   28.9937   43.0804   24.7967 C   0  0  0  0  0  0  0  0  0  0  0  0
   28.9871   41.0062   23.2414 C   0  0  0  0  0  0  0  0  0  0  0  0
   26.8301   40.1246   22.7948 C   0  0  0  0  0  0  0  0  0  0  0  0
   25.3093   43.7843   27.9605 O   0  0  0  0  0  0  0  0  0  0  0  0
   24.7529   43.6408   26.8696 C   0  0  0  0  0  0  0  0  0  0  0  0
   23.6507   44.3019   26.5379 O   0  0  0  0  0  0  0  0  0  0  0  0
   25.2890   42.6883   25.8613 C   0  0  1  0  0  0  0  0  0  0  0  0
   23.3061   41.3518   25.8641 O   0  0  0  0  0  0  0  0  0  0  0  0
   26.6007   42.8403   25.3792 C   0  0  0  0  0  0  0  0  0  0  0  0
   28.4343   42.0747   24.1172 C   0  0  0  0  0  0  0  0  0  0  0  0
   27.8881   43.8740   25.8403 S   0  0  0  0  0  0  0  0  0  0  0  0
   26.3060   40.9123   23.8448 C   0  0  0  0  0  0  0  0  0  0  0  0
   25.0123   40.6937   24.3428 C   0  0  0  0  0  0  0  0  0  0  0  0
   24.0271   37.8355   22.3732 F   0  0  0  0  0  0  0  0  0  0  0  0
   28.0838   40.4467   22.2520 N   0  0  0  0  0  0  0  0  0  0  0  0
   27.9407   41.2120   21.0318 C   0  0  0  0  0  0  0  0  0  0  0  0
   25.7324   37.3921   20.3567 C   0  0  0  0  0  0  0  0  0  0  0  0
   29.0545   37.1707   19.1221 O   0  0  0  0  0  0  0  0  0  0  0  0
   26.7073   37.0452   19.2442 C   0  0  2  0  0  0  0  0  0  0  0  0
   26.4077   35.8312   18.4612 N   0  0  0  0  0  0  0  0  0  0  0  0
   26.0949   34.6304   19.2571 C   0  0  0  0  0  0  0  0  0  0  0  0
   25.4295   36.0614   17.3869 C   0  0  0  0  0  0  0  0  0  0  0  0
  1  5  1  0  0  0  0
  2 17  1  0  0  0  0
  3  1  1  0  0  0  0
  4  3  1  0  0  0  0
  4 26  1  6  0  0  0
  5 11  2  0  0  0  0
  5  6  1  0  0  0  0
  6  7  2  0  0  0  0
  7 21  1  0  0  0  0
  8 15  1  0  0  0  0
  8 16  2  0  0  0  0
  9 19  1  0  0  0  0
 10 18  1  0  0  0  0
 11 20  1  0  0  0  0
 13 14  1  0  0  0  0
 13 12  2  0  0  0  0
 15 13  1  1  0  0  0
 17 19  2  0  0  0  0
 17 15  1  0  0  0  0
 18  2  1  0  0  0  0
 18  9  2  0  0  0  0
 20 21  2  0  0  0  0
 20  2  1  0  0  0  0
 21  8  1  0  0  0  0
 22  6  1  0  0  0  0
 23 11  1  0  0  0  0
 23 10  1  0  0  0  0
 24 23  1  0  0  0  0
 25  1  1  0  0  0  0
 27  4  1  0  0  0  0
 27 25  1  0  0  0  0
 27 28  1  1  0  0  0
 29 28  1  0  0  0  0
 30 28  1  0  0  0  0
M  END
>  <CHROM.1>
-133.47806335,1.04485464,120.43214345,65.65613123,65.68654351,26.36949988
40.16854454,23.01054171,1.47824218,-0.31972387,-2.37943277

>  <Name>
lig.pdb

>  <RI>
0

>  <Rbt.Current_Directory>
/home/itssahil/PROJECTS/Mol_Feturizer/New_Systems/rnas/6bfb

>  <Rbt.Executable>
rbdock ($Id: //depot/dev/client3/rdock/2013.1/src/exe/rbdock.cxx#4 $)

>  <Rbt.Library>
libRbt.so (2013.1, Build901 2013/11/27)

>  <Rbt.Parameter_File>
/export/apps/rDock/src/rDock_2013.1_src/data/scripts/dock_solv.prm

>  <Rbt.Receptor>
prm/pocket_docking_7.prm

>  <SCORE>
-39.6711

>  <SCORE.INTER>
-34.8042

>  <SCORE.INTER.CONST>
1

>  <SCORE.INTER.POLAR>
-0.959166

>  <SCORE.INTER.ROT>
3

>  <SCORE.INTER.SOLV>
10.4991

>  <SCORE.INTER.VDW>
-29.1053

>  <SCORE.INTER.norm>
-1.16014

>  <SCORE.INTRA>
-4.86689

>  <SCORE.INTRA.DIHEDRAL>
-7.38908

>  <SCORE.INTRA.DIHEDRAL.0>
9.41909

>  <SCORE.INTRA.POLAR>
0

>  <SCORE.INTRA.POLAR.0>
0

>  <SCORE.INTRA.REPUL>
0

>  <SCORE.INTRA.REPUL.0>
0

>  <SCORE.INTRA.SOLV>
-0.209597

>  <SCORE.INTRA.SOLV.lig_0>
-26.2491

>  <SCORE.INTRA.VDW>
-1.06755

>  <SCORE.INTRA.VDW.0>
2.57239

>  <SCORE.INTRA.norm>
-0.16223

>  <SCORE.RESTR>
0

>  <SCORE.RESTR.CAVITY>
0

>  <SCORE.RESTR.norm>
0

>  <SCORE.SYSTEM>
0

>  <SCORE.SYSTEM.CONST>
0

>  <SCORE.SYSTEM.DIHEDRAL>
0

>  <SCORE.SYSTEM.SOLV>
0

>  <SCORE.SYSTEM.norm>
0

>  <SCORE.heavy>
30

>  <SCORE.norm>
-1.32237

>  <RMSD>
0.895

$$$$
lig.pdb
 OpenBabel11021811523D
libRbt.so/2013.1/901 2013/11/27
 30 34  0  0  0  0  0  0  0  0999 V2000
   26.6743   38.3470   21.0859 N   0  0  0  0  0  0  0  0  0  0  0  0
   27.1739   42.0021   24.3871 N   0  0  0  0  0  0  0  0  0  0  0  0
   27.9838   37.6953   21.1857 C   0  0  0  0  0  0  0  0  0  0  0  0
   28.0110   36.8600   19.9145 C   0  0  2  0  0  0  0  0  0  0  0  0
   26.1531   39.1314   22.1997 C   0  0  0  0  0  0  0  0  0  0  0  0
   24.8942   38.9042   22.7925 C   0  0  0  0  0  0  0  0  0  0  0  0
   24.3887   39.6585   23.8218 C   0  0  0  0  0  0  0  0  0  0  0  0
   24.5598   41.5713   25.4174 C   0  0  0  0  0  0  0  0  0  0  0  0
   29.0875   43.1593   24.7356 C   0  0  0  0  0  0  0  0  0  0  0  0
   29.0747   41.1094   23.1485 C   0  0  0  0  0  0  0  0  0  0  0  0
   26.9212   40.2008   22.7407 C   0  0  0  0  0  0  0  0  0  0  0  0
   25.5208   43.8292   27.9585 O   0  0  0  0  0  0  0  0  0  0  0  0
   24.8907   43.6210   26.9194 C   0  0  0  0  0  0  0  0  0  0  0  0
   23.7165   44.1879   26.6707 O   0  0  0  0  0  0  0  0  0  0  0  0
   25.4165   42.6926   25.8835 C   0  0  1  0  0  0  0  0  0  0  0  0
   23.4551   41.3251   25.9135 O   0  0  0  0  0  0  0  0  0  0  0  0
   26.7135   42.8727   25.3721 C   0  0  0  0  0  0  0  0  0  0  0  0
   28.5271   42.1555   24.0541 C   0  0  0  0  0  0  0  0  0  0  0  0
   27.9957   43.9194   25.8180 S   0  0  0  0  0  0  0  0  0  0  0  0
   26.4110   40.9639   23.8153 C   0  0  0  0  0  0  0  0  0  0  0  0
   25.1334   40.7174   24.3411 C   0  0  0  0  0  0  0  0  0  0  0  0
   24.1442   37.8745   22.3513 F   0  0  0  0  0  0  0  0  0  0  0  0
   28.1561   40.5509   22.1726 N   0  0  0  0  0  0  0  0  0  0  0  0
   27.9714   41.3325   20.9685 C   0  0  0  0  0  0  0  0  0  0  0  0
   25.7859   37.6249   20.1821 C   0  0  0  0  0  0  0  0  0  0  0  0
   29.1382   37.1810   19.0982 O   0  0  0  0  0  0  0  0  0  0  0  0
   26.7859   37.2620   19.0973 C   0  0  2  0  0  0  0  0  0  0  0  0
   26.4242   36.1324   18.2199 N   0  0  0  0  0  0  0  0  0  0  0  0
   27.3168   35.9213   17.0656 C   0  0  0  0  0  0  0  0  0  0  0  0
   26.1588   34.8877   18.9574 C   0  0  0  0  0  0  0  0  0  0  0  0
  1  5  1  0  0  0  0
  2 17  1  0  0  0  0
  3  1  1  0  0  0  0
  4  3  1  0  0  0  0
  4 26  1  6  0  0  0
  5 11  2  0  0  0  0
  5  6  1  0  0  0  0
  6  7  2  0  0  0  0
  7 21  1  0  0  0  0
  8 15  1  0  0  0  0
  8 16  2  0  0  0  0
  9 19  1  0  0  0  0
 10 18  1  0  0  0  0
 11 20  1  0  0  0  0
 13 14  1  0  0  0  0
 13 12  2  0  0  0  0
 15 13  1  1  0  0  0
 17 19  2  0  0  0  0
 17 15  1  0  0  0  0
 18  2  1  0  0  0  0
 18  9  2  0  0  0  0
 20 21  2  0  0  0  0
 20  2  1  0  0  0  0
 21  8  1  0  0  0  0
 22  6  1  0  0  0  0
 23 11  1  0  0  0  0
 23 10  1  0  0  0  0
 24 23  1  0  0  0  0
 25  1  1  0  0  0  0
 27  4  1  0  0  0  0
 27 25  1  0  0  0  0
 27 28  1  1  0  0  0
 29 28  1  0  0  0  0
 30 28  1  0  0  0  0
M  END
>  <CHROM.1>
-125.50449004,0.38473429,125.66139961,64.67426845,-73.89131271,26.52524500
40.22733266,22.95329690,1.44800349,-0.36242959,-2.36939723

>  <Name>
lig.pdb

>  <RI>
0

>  <Rbt.Current_Directory>
/home/itssahil/PROJECTS/Mol_Feturizer/New_Systems/rnas/6bfb

>  <Rbt.Executable>
rbdock ($Id: //depot/dev/client3/rdock/2013.1/src/exe/rbdock.cxx#4 $)

>  <Rbt.Library>
libRbt.so (2013.1, Build901 2013/11/27)

>  <Rbt.Parameter_File>
/export/apps/rDock/src/rDock_2013.1_src/data/scripts/dock_solv.prm

>  <Rbt.Receptor>
prm/blind_docking_100.prm

>  <SCORE>
-37.497

>  <SCORE.INTER>
-33.4209

>  <SCORE.INTER.CONST>
1

>  <SCORE.INTER.POLAR>
-0.959166

>  <SCORE.INTER.ROT>
3

>  <SCORE.INTER.SOLV>
10.302

>  <SCORE.INTER.VDW>
-28.1174

>  <SCORE.INTER.norm>
-1.11403

>  <SCORE.INTRA>
-4.08268

>  <SCORE.INTRA.DIHEDRAL>
-7.53429

>  <SCORE.INTRA.DIHEDRAL.0>
9.41909

>  <SCORE.INTRA.POLAR>
0

>  <SCORE.INTRA.POLAR.0>
0

>  <SCORE.INTRA.REPUL>
0.0163797

>  <SCORE.INTRA.REPUL.0>
0

>  <SCORE.INTRA.SOLV>
0.0360642

>  <SCORE.INTRA.SOLV.lig_0>
-26.2491

>  <SCORE.INTRA.VDW>
-0.415462

>  <SCORE.INTRA.VDW.0>
2.57239

>  <SCORE.INTRA.norm>
-0.136089

>  <SCORE.RESTR>
0.00654665

>  <SCORE.RESTR.CAVITY>
0.00654665

>  <SCORE.RESTR.norm>
0.000218222

>  <SCORE.SYSTEM>
0

>  <SCORE.SYSTEM.CONST>
0

>  <SCORE.SYSTEM.DIHEDRAL>
0

>  <SCORE.SYSTEM.SOLV>
0

>  <SCORE.SYSTEM.norm>
0

>  <SCORE.heavy>
30

>  <SCORE.norm>
-1.2499

>  <RMSD>
0.899

$$$$
lig.pdb
 OpenBabel11021811523D
libRbt.so/2013.1/901 2013/11/27
 30 34  0  0  0  0  0  0  0  0999 V2000
   26.2894   37.9085   20.7731 N   0  0  0  0  0  0  0  0  0  0  0  0
   26.3961   41.1115   24.5463 N   0  0  0  0  0  0  0  0  0  0  0  0
   27.5593   37.2030   20.9705 C   0  0  0  0  0  0  0  0  0  0  0  0
   27.7487   36.5243   19.6222 C   0  0  2  0  0  0  0  0  0  0  0  0
   25.6321   38.5731   21.8928 C   0  0  0  0  0  0  0  0  0  0  0  0
   24.2957   38.3290   22.2698 C   0  0  0  0  0  0  0  0  0  0  0  0
   23.6655   38.9734   23.3050 C   0  0  0  0  0  0  0  0  0  0  0  0
   23.6509   40.6694   25.1372 C   0  0  0  0  0  0  0  0  0  0  0  0
   28.2670   42.1361   25.3029 C   0  0  0  0  0  0  0  0  0  0  0  0
   28.4335   40.2964   23.4838 C   0  0  0  0  0  0  0  0  0  0  0  0
   26.3399   39.5356   22.6667 C   0  0  0  0  0  0  0  0  0  0  0  0
   24.4841   43.0342   27.8052 O   0  0  0  0  0  0  0  0  0  0  0  0
   23.8114   42.5058   26.9173 C   0  0  0  0  0  0  0  0  0  0  0  0
   22.4897   42.6156   26.8618 O   0  0  0  0  0  0  0  0  0  0  0  0
   24.4585   41.6886   25.8566 C   0  0  1  0  0  0  0  0  0  0  0  0
   22.4805   40.4116   25.4384 O   0  0  0  0  0  0  0  0  0  0  0  0
   25.8197   41.8746   25.5589 C   0  0  0  0  0  0  0  0  0  0  0  0
   27.7865   41.2470   24.4284 C   0  0  0  0  0  0  0  0  0  0  0  0
   27.0492   42.8045   26.3087 S   0  0  0  0  0  0  0  0  0  0  0  0
   25.6987   40.1835   23.7468 C   0  0  0  0  0  0  0  0  0  0  0  0
   24.3529   39.9290   24.0529 C   0  0  0  0  0  0  0  0  0  0  0  0
   23.5924   37.3929   21.6015 F   0  0  0  0  0  0  0  0  0  0  0  0
   27.6520   39.8998   22.3262 N   0  0  0  0  0  0  0  0  0  0  0  0
   27.6622   40.8288   21.2164 C   0  0  0  0  0  0  0  0  0  0  0  0
   25.5230   37.3314   19.6745 C   0  0  0  0  0  0  0  0  0  0  0  0
   28.9851   36.8993   19.0136 O   0  0  0  0  0  0  0  0  0  0  0  0
   26.6582   37.0643   18.7005 C   0  0  2  0  0  0  0  0  0  0  0  0
   26.4017   36.0608   17.6499 N   0  0  0  0  0  0  0  0  0  0  0  0
   25.5215   34.9463   18.0457 C   0  0  0  0  0  0  0  0  0  0  0  0
   26.0075   36.6561   16.3638 C   0  0  0  0  0  0  0  0  0  0  0  0
  1  5  1  0  0  0  0
  2 17  1  0  0  0  0
  3  1  1  0  0  0  0
  4  3  1  0  0  0  0
  4 26  1  6  0  0  0
  5 11  2  0  0  0  0
  5  6  1  0  0  0  0
  6  7  2  0  0  0  0
  7 21  1  0  0  0  0
  8 15  1  0  0  0  0
  8 16  2  0  0  0  0
  9 19  1  0  0  0  0
 10 18  1  0  0  0  0
 11 20  1  0  0  0  0
 13 14  1  0  0  0  0
 13 12  2  0  0  0  0
 15 13  1  1  0  0  0
 17 19  2  0  0  0  0
 17 15  1  0  0  0  0
 18  2  1  0  0  0  0
 18  9  2  0  0  0  0
 20 21  2  0  0  0  0
 20  2  1  0  0  0  0
 21  8  1  0  0  0  0
 22  6  1  0  0  0  0
 23 11  1  0  0  0  0
 23 10  1  0  0  0  0
 24 23  1  0  0  0  0
 25  1  1  0  0  0  0
 27  4  1  0  0  0  0
 27 25  1  0  0  0  0
 27 28  1  6  0  0  0
 29 28  1  0  0  0  0
 30 28  1  0  0  0  0
M  END
>  <CHROM.1>
-125.93837687,-0.66535725,156.84102009,63.96179456,80.82972164,25.85077865
39.58015358,22.81241609,1.39832115,-0.22806563,-2.24538735

>  <Name>
lig.pdb

>  <RI>
0

>  <Rbt.Current_Directory>
/home/itssahil/PROJECTS/Mol_Feturizer/New_Systems/rnas/6bfb

>  <Rbt.Executable>
rbdock ($Id: //depot/dev/client3/rdock/2013.1/src/exe/rbdock.cxx#4 $)

>  <Rbt.Library>
libRbt.so (2013.1, Build901 2013/11/27)

>  <Rbt.Parameter_File>
/export/apps/rDock/src/rDock_2013.1_src/data/scripts/dock_solv.prm

>  <Rbt.Receptor>
prm/pocket_docking_2.prm

>  <SCORE>
-35.3262

>  <SCORE.INTER>
-31.3831

>  <SCORE.INTER.CONST>
1

>  <SCORE.INTER.POLAR>
-0.787552

>  <SCORE.INTER.ROT>
3

>  <SCORE.INTER.SOLV>
11.1582

>  <SCORE.INTER.VDW>
-27.6163

>  <SCORE.INTER.norm>
-1.0461

>  <SCORE.INTRA>
-4.06734

>  <SCORE.INTRA.DIHEDRAL>
-6.75546

>  <SCORE.INTRA.DIHEDRAL.0>
9.41909

>  <SCORE.INTRA.POLAR>
0

>  <SCORE.INTRA.POLAR.0>
0

>  <SCORE.INTRA.REPUL>
0.0152497

>  <SCORE.INTRA.REPUL.0>
0

>  <SCORE.INTRA.SOLV>
-0.177185

>  <SCORE.INTRA.SOLV.lig_0>
-26.2491

>  <SCORE.INTRA.VDW>
-0.677263

>  <SCORE.INTRA.VDW.0>
2.57239

>  <SCORE.INTRA.norm>
-0.135578

>  <SCORE.RESTR>
0.124205

>  <SCORE.RESTR.CAVITY>
0.124205

>  <SCORE.RESTR.norm>
0.00414017

>  <SCORE.SYSTEM>
0

>  <SCORE.SYSTEM.CONST>
0

>  <SCORE.SYSTEM.DIHEDRAL>
0

>  <SCORE.SYSTEM.SOLV>
0

>  <SCORE.SYSTEM.norm>
0

>  <SCORE.heavy>
30

>  <SCORE.norm>
-1.17754

>  <RMSD>
0.900

$$$$
lig.pdb
 OpenBabel11021811523D
libRbt.so/2013.1/901 2013/11/27
 30 34  0  0  0  0  0  0  0  0999 V2000
   26.6572   38.3176   21.0427 N   0  0  0  0  0  0  0  0  0  0  0  0
   27.1179   41.9654   24.3576 N   0  0  0  0  0  0  0  0  0  0  0  0
   27.9664   37.6674   21.1551 C   0  0  0  0  0  0  0  0  0  0  0  0
   28.0082   36.8346   19.8827 C   0  0  2  0  0  0  0  0  0  0  0  0
   26.1231   39.0992   22.1524 C   0  0  0  0  0  0  0  0  0  0  0  0
   24.8578   38.8700   22.7305 C   0  0  0  0  0  0  0  0  0  0  0  0
   24.3405   39.6217   23.7559 C   0  0  0  0  0  0  0  0  0  0  0  0
   24.4926   41.5309   25.3576 C   0  0  0  0  0  0  0  0  0  0  0  0
   29.0268   43.1228   24.7301 C   0  0  0  0  0  0  0  0  0  0  0  0
   29.0329   41.0765   23.1383 C   0  0  0  0  0  0  0  0  0  0  0  0
   26.8845   40.1677   22.7043 C   0  0  0  0  0  0  0  0  0  0  0  0
   23.8821   44.3499   26.6028 O   0  0  0  0  0  0  0  0  0  0  0  0
   24.8056   43.5773   26.8679 C   0  0  0  0  0  0  0  0  0  0  0  0
   25.3800   43.5349   28.0639 O   0  0  0  0  0  0  0  0  0  0  0  0
   25.3435   42.6515   25.8359 C   0  0  1  0  0  0  0  0  0  0  0  0
   23.3826   41.2830   25.8407 O   0  0  0  0  0  0  0  0  0  0  0  0
   26.6460   42.8335   25.3394 C   0  0  0  0  0  0  0  0  0  0  0  0
   28.4746   42.1203   24.0401 C   0  0  0  0  0  0  0  0  0  0  0  0
   27.9226   43.8798   25.8020 S   0  0  0  0  0  0  0  0  0  0  0  0
   26.3620   40.9282   23.7749 C   0  0  0  0  0  0  0  0  0  0  0  0
   25.0787   40.6798   24.2859 C   0  0  0  0  0  0  0  0  0  0  0  0
   24.1134   37.8409   22.2786 F   0  0  0  0  0  0  0  0  0  0  0  0
   28.1255   40.5199   22.1509 N   0  0  0  0  0  0  0  0  0  0  0  0
   27.9539   41.3041   20.9466 C   0  0  0  0  0  0  0  0  0  0  0  0
   25.7794   37.5963   20.1280 C   0  0  0  0  0  0  0  0  0  0  0  0
   29.1436   37.1585   19.0791 O   0  0  0  0  0  0  0  0  0  0  0  0
   26.7914   37.2367   19.0532 C   0  0  2  0  0  0  0  0  0  0  0  0
   26.4405   36.1085   18.1697 N   0  0  0  0  0  0  0  0  0  0  0  0
   25.0434   36.0884   17.6996 C   0  0  0  0  0  0  0  0  0  0  0  0
   27.4025   35.9087   17.0750 C   0  0  0  0  0  0  0  0  0  0  0  0
  1  5  1  0  0  0  0
  2 17  1  0  0  0  0
  3  1  1  0  0  0  0
  4  3  1  0  0  0  0
  4 26  1  6  0  0  0
  5 11  2  0  0  0  0
  5  6  1  0  0  0  0
  6  7  2  0  0  0  0
  7 21  1  0  0  0  0
  8 15  1  0  0  0  0
  8 16  2  0  0  0  0
  9 19  1  0  0  0  0
 10 18  1  0  0  0  0
 11 20  1  0  0  0  0
 13 14  1  0  0  0  0
 13 12  2  0  0  0  0
 15 13  1  1  0  0  0
 17 19  2  0  0  0  0
 17 15  1  0  0  0  0
 18  2  1  0  0  0  0
 18  9  2  0  0  0  0
 20 21  2  0  0  0  0
 20  2  1  0  0  0  0
 21  8  1  0  0  0  0
 22  6  1  0  0  0  0
 23 11  1  0  0  0  0
 23 10  1  0  0  0  0
 24 23  1  0  0  0  0
 25  1  1  0  0  0  0
 27  4  1  0  0  0  0
 27 25  1  0  0  0  0
 27 28  1  1  0  0  0
 29 28  1  0  0  0  0
 30 28  1  0  0  0  0
M  END
>  <CHROM.1>
-125.55520165,1.91493692,-68.59339608,64.76073407,157.13327310,26.46055337
40.23344958,22.88117685,1.46345010,-0.32495726,-2.33045912

>  <Name>
lig.pdb

>  <RI>
0

>  <Rbt.Current_Directory>
/home/itssahil/PROJECTS/Mol_Feturizer/New_Systems/rnas/6bfb

>  <Rbt.Executable>
rbdock ($Id: //depot/dev/client3/rdock/2013.1/src/exe/rbdock.cxx#4 $)

>  <Rbt.Library>
libRbt.so (2013.1, Build901 2013/11/27)

>  <Rbt.Parameter_File>
/export/apps/rDock/src/rDock_2013.1_src/data/scripts/dock_solv.prm

>  <Rbt.Receptor>
prm/pocket_docking_3.prm

>  <SCORE>
-39.0242

>  <SCORE.INTER>
-33.99

>  <SCORE.INTER.CONST>
1

>  <SCORE.INTER.POLAR>
-0.959166

>  <SCORE.INTER.ROT>
3

>  <SCORE.INTER.SOLV>
10.4855

>  <SCORE.INTER.VDW>
-28.5579

>  <SCORE.INTER.norm>
-1.133

>  <SCORE.INTRA>
-5.0342

>  <SCORE.INTRA.DIHEDRAL>
-7.19611

>  <SCORE.INTRA.DIHEDRAL.0>
9.41909

>  <SCORE.INTRA.POLAR>
0

>  <SCORE.INTRA.POLAR.0>
0

>  <SCORE.INTRA.REPUL>
0.0162477

>  <SCORE.INTRA.REPUL.0>
0

>  <SCORE.INTRA.SOLV>
-0.163226

>  <SCORE.INTRA.SOLV.lig_0>
-26.2491

>  <SCORE.INTRA.VDW>
-1.43577

>  <SCORE.INTRA.VDW.0>
2.57239

>  <SCORE.INTRA.norm>
-0.167807

>  <SCORE.RESTR>
0

>  <SCORE.RESTR.CAVITY>
0

>  <SCORE.RESTR.norm>
0

>  <SCORE.SYSTEM>
0

>  <SCORE.SYSTEM.CONST>
0

>  <SCORE.SYSTEM.DIHEDRAL>
0

>  <SCORE.SYSTEM.SOLV>
0

>  <SCORE.SYSTEM.norm>
0

>  <SCORE.heavy>
30

>  <SCORE.norm>
-1.30081

>  <RMSD>
0.902

$$$$
lig.pdb
 OpenBabel11021811523D
libRbt.so/2013.1/901 2013/11/27
 30 34  0  0  0  0  0  0  0  0999 V2000
   26.6540   38.3254   21.0366 N   0  0  0  0  0  0  0  0  0  0  0  0
   27.1216   41.9646   24.3600 N   0  0  0  0  0  0  0  0  0  0  0  0
   27.9661   37.6805   21.1459 C   0  0  0  0  0  0  0  0  0  0  0  0
   28.0070   36.8458   19.8747 C   0  0  2  0  0  0  0  0  0  0  0  0
   26.1206   39.1068   22.1467 C   0  0  0  0  0  0  0  0  0  0  0  0
   24.8531   38.8814   22.7217 C   0  0  0  0  0  0  0  0  0  0  0  0
   24.3364   39.6330   23.7474 C   0  0  0  0  0  0  0  0  0  0  0  0
   24.4925   41.5383   25.3534 C   0  0  0  0  0  0  0  0  0  0  0  0
   29.0343   43.1138   24.7391 C   0  0  0  0  0  0  0  0  0  0  0  0
   29.0359   41.0708   23.1431 C   0  0  0  0  0  0  0  0  0  0  0  0
   26.8849   40.1713   22.7026 C   0  0  0  0  0  0  0  0  0  0  0  0
   23.8444   44.3069   26.6243 O   0  0  0  0  0  0  0  0  0  0  0  0
   24.8102   43.5804   26.8686 C   0  0  0  0  0  0  0  0  0  0  0  0
   25.4323   43.5900   28.0412 O   0  0  0  0  0  0  0  0  0  0  0  0
   25.3467   42.6546   25.8358 C   0  0  1  0  0  0  0  0  0  0  0  0
   23.3805   41.2938   25.8335 O   0  0  0  0  0  0  0  0  0  0  0  0
   26.6510   42.8325   25.3426 C   0  0  0  0  0  0  0  0  0  0  0  0
   28.4797   42.1148   24.0459 C   0  0  0  0  0  0  0  0  0  0  0  0
   27.9306   43.8729   25.8101 S   0  0  0  0  0  0  0  0  0  0  0  0
   26.3630   40.9315   23.7736 C   0  0  0  0  0  0  0  0  0  0  0  0
   25.0776   40.6871   24.2812 C   0  0  0  0  0  0  0  0  0  0  0  0
   24.1057   37.8562   22.2660 F   0  0  0  0  0  0  0  0  0  0  0  0
   28.1285   40.5197   22.1526 N   0  0  0  0  0  0  0  0  0  0  0  0
   27.9626   41.3070   20.9496 C   0  0  0  0  0  0  0  0  0  0  0  0
   25.7761   37.5991   20.1261 C   0  0  0  0  0  0  0  0  0  0  0  0
   29.1385   37.1727   19.0669 O   0  0  0  0  0  0  0  0  0  0  0  0
   26.7859   37.2417   19.0486 C   0  0  2  0  0  0  0  0  0  0  0  0
   26.4365   36.1105   18.1682 N   0  0  0  0  0  0  0  0  0  0  0  0
   25.0415   36.0917   17.6916 C   0  0  0  0  0  0  0  0  0  0  0  0
   27.4032   35.9040   17.0789 C   0  0  0  0  0  0  0  0  0  0  0  0
  1  5  1  0  0  0  0
  2 17  1  0  0  0  0
  3  1  1  0  0  0  0
  4  3  1  0  0  0  0
  4 26  1  6  0  0  0
  5 11  2  0  0  0  0
  5  6  1  0  0  0  0
  6  7  2  0  0  0  0
  7 21  1  0  0  0  0
  8 15  1  0  0  0  0
  8 16  2  0  0  0  0
  9 19  1  0  0  0  0
 10 18  1  0  0  0  0
 11 20  1  0  0  0  0
 13 14  1  0  0  0  0
 13 12  2  0  0  0  0
 15 13  1  1  0  0  0
 17 19  2  0  0  0  0
 17 15  1  0  0  0  0
 18  2  1  0  0  0  0
 18  9  2  0  0  0  0
 20 21  2  0  0  0  0
 20  2  1  0  0  0  0
 21  8  1  0  0  0  0
 22  6  1  0  0  0  0
 23 11  1  0  0  0  0
 23 10  1  0  0  0  0
 24 23  1  0  0  0  0
 25  1  1  0  0  0  0
 27  4  1  0  0  0  0
 27 25  1  0  0  0  0
 27 28  1  1  0  0  0
 29 28  1  0  0  0  0
 30 28  1  0  0  0  0
M  END
>  <CHROM.1>
-126.14495699,-178.75278932,-64.73774692,62.18508607,157.73123625,26.46439670
40.23465015,22.87778059,1.46621550,-0.31980574,-2.32807492

>  <Name>
lig.pdb

>  <RI>
0

>  <Rbt.Current_Directory>
/home/itssahil/PROJECTS/Mol_Feturizer/New_Systems/rnas/6bfb

>  <Rbt.Executable>
rbdock ($Id: //depot/dev/client3/rdock/2013.1/src/exe/rbdock.cxx#4 $)

>  <Rbt.Library>
libRbt.so (2013.1, Build901 2013/11/27)

>  <Rbt.Parameter_File>
/export/apps/rDock/src/rDock_2013.1_src/data/scripts/dock_solv.prm

>  <Rbt.Receptor>
prm/blind_docking_100.prm

>  <SCORE>
-39.1725

>  <SCORE.INTER>
-34.4935

>  <SCORE.INTER.CONST>
1

>  <SCORE.INTER.POLAR>
-0.959166

>  <SCORE.INTER.ROT>
3

>  <SCORE.INTER.SOLV>
10.4127

>  <SCORE.INTER.VDW>
-28.8694

>  <SCORE.INTER.norm>
-1.14978

>  <SCORE.INTRA>
-4.67896

>  <SCORE.INTRA.DIHEDRAL>
-7.31783

>  <SCORE.INTRA.DIHEDRAL.0>
9.41909

>  <SCORE.INTRA.POLAR>
0

>  <SCORE.INTRA.POLAR.0>
0

>  <SCORE.INTRA.REPUL>
0.014711

>  <SCORE.INTRA.REPUL.0>
0

>  <SCORE.INTRA.SOLV>
-0.218562

>  <SCORE.INTRA.SOLV.lig_0>
-26.2491

>  <SCORE.INTRA.VDW>
-0.984316

>  <SCORE.INTRA.VDW.0>
2.57239

>  <SCORE.INTRA.norm>
-0.155965

>  <SCORE.RESTR>
0

>  <SCORE.RESTR.CAVITY>
0

>  <SCORE.RESTR.norm>
0

>  <SCORE.SYSTEM>
0

>  <SCORE.SYSTEM.CONST>
0

>  <SCORE.SYSTEM.DIHEDRAL>
0

>  <SCORE.SYSTEM.SOLV>
0

>  <SCORE.SYSTEM.norm>
0

>  <SCORE.heavy>
30

>  <SCORE.norm>
-1.30575

>  <RMSD>
0.905

$$$$
lig.pdb
 OpenBabel11021811523D
libRbt.so/2013.1/901 2013/11/27
 30 34  0  0  0  0  0  0  0  0999 V2000
   26.6567   38.3182   21.0634 N   0  0  0  0  0  0  0  0  0  0  0  0
   27.1268   41.9656   24.3775 N   0  0  0  0  0  0  0  0  0  0  0  0
   27.9672   37.6691   21.1666 C   0  0  0  0  0  0  0  0  0  0  0  0
   28.0027   36.8400   19.8916 C   0  0  2  0  0  0  0  0  0  0  0  0
   26.1281   39.0961   22.1784 C   0  0  0  0  0  0  0  0  0  0  0  0
   24.8691   38.8598   22.7673 C   0  0  0  0  0  0  0  0  0  0  0  0
   24.3567   39.6078   23.7977 C   0  0  0  0  0  0  0  0  0  0  0  0
   24.5126   41.5165   25.3997 C   0  0  0  0  0  0  0  0  0  0  0  0
   29.0328   43.1328   24.7345 C   0  0  0  0  0  0  0  0  0  0  0  0
   29.0359   41.0879   23.1409 C   0  0  0  0  0  0  0  0  0  0  0  0
   26.8886   40.1681   22.7247 C   0  0  0  0  0  0  0  0  0  0  0  0
   23.9011   44.3345   26.6513 O   0  0  0  0  0  0  0  0  0  0  0  0
   24.8278   43.5633   26.9091 C   0  0  0  0  0  0  0  0  0  0  0  0
   25.4093   43.5192   28.1015 O   0  0  0  0  0  0  0  0  0  0  0  0
   25.3617   42.6412   25.8716 C   0  0  1  0  0  0  0  0  0  0  0  0
   23.4081   41.2623   25.8922 O   0  0  0  0  0  0  0  0  0  0  0  0
   26.6588   42.8304   25.3641 C   0  0  0  0  0  0  0  0  0  0  0  0
   28.4799   42.1279   24.0484 C   0  0  0  0  0  0  0  0  0  0  0  0
   27.9338   43.8831   25.8165 S   0  0  0  0  0  0  0  0  0  0  0  0
   26.3713   40.9249   23.8004 C   0  0  0  0  0  0  0  0  0  0  0  0
   25.0938   40.6694   24.3222 C   0  0  0  0  0  0  0  0  0  0  0  0
   24.1262   37.8271   22.3209 F   0  0  0  0  0  0  0  0  0  0  0  0
   28.1229   40.5273   22.1609 N   0  0  0  0  0  0  0  0  0  0  0  0
   27.9368   41.3116   20.9588 C   0  0  0  0  0  0  0  0  0  0  0  0
   25.7745   37.5985   20.1518 C   0  0  0  0  0  0  0  0  0  0  0  0
   29.1332   37.1675   19.0825 O   0  0  0  0  0  0  0  0  0  0  0  0
   26.7807   37.2431   19.0702 C   0  0  2  0  0  0  0  0  0  0  0  0
   26.4260   36.1170   18.1855 N   0  0  0  0  0  0  0  0  0  0  0  0
   25.0245   36.0928   17.7289 C   0  0  0  0  0  0  0  0  0  0  0  0
   27.3782   35.9258   17.0808 C   0  0  0  0  0  0  0  0  0  0  0  0
  1  5  1  0  0  0  0
  2 17  1  0  0  0  0
  3  1  1  0  0  0  0
  4  3  1  0  0  0  0
  4 26  1  6  0  0  0
  5 11  2  0  0  0  0
  5  6  1  0  0  0  0
  6  7  2  0  0  0  0
  7 21  1  0  0  0  0
  8 15  1  0  0  0  0
  8 16  2  0  0  0  0
  9 19  1  0  0  0  0
 10 18  1  0  0  0  0
 11 20  1  0  0  0  0
 13 14  1  0  0  0  0
 13 12  2  0  0  0  0
 15 13  1  1  0  0  0
 17 19  2  0  0  0  0
 17 15  1  0  0  0  0
 18  2  1  0  0  0  0
 18  9  2  0  0  0  0
 20 21  2  0  0  0  0
 20  2  1  0  0  0  0
 21  8  1  0  0  0  0
 22  6  1  0  0  0  0
 23 11  1  0  0  0  0
 23 10  1  0  0  0  0
 24 23  1  0  0  0  0
 25  1  1  0  0  0  0
 27  4  1  0  0  0  0
 27 25  1  0  0  0  0
 27 28  1  1  0  0  0
 29 28  1  0  0  0  0
 30 28  1  0  0  0  0
M  END
>  <CHROM.1>
-125.24316756,0.83217220,-68.84897490,64.13459786,156.83417607,26.46560513
40.23211011,22.90487768,1.46629810,-0.33438166,-2.32829829

>  <Name>
lig.pdb

>  <RI>
0

>  <Rbt.Current_Directory>
/home/itssahil/PROJECTS/Mol_Feturizer/New_Systems/rnas/6bfb

>  <Rbt.Executable>
rbdock ($Id: //depot/dev/client3/rdock/2013.1/src/exe/rbdock.cxx#4 $)

>  <Rbt.Library>
libRbt.so (2013.1, Build901 2013/11/27)

>  <Rbt.Parameter_File>
/export/apps/rDock/src/rDock_2013.1_src/data/scripts/dock_solv.prm

>  <Rbt.Receptor>
prm/blind_docking_80.prm

>  <SCORE>
-38.9163

>  <SCORE.INTER>
-33.8539

>  <SCORE.INTER.CONST>
1

>  <SCORE.INTER.POLAR>
-0.959166

>  <SCORE.INTER.ROT>
3

>  <SCORE.INTER.SOLV>
10.5879

>  <SCORE.INTER.VDW>
-28.5014

>  <SCORE.INTER.norm>
-1.12846

>  <SCORE.INTRA>
-5.06233

>  <SCORE.INTRA.DIHEDRAL>
-7.22388

>  <SCORE.INTRA.DIHEDRAL.0>
9.41909

>  <SCORE.INTRA.POLAR>
0

>  <SCORE.INTRA.POLAR.0>
0

>  <SCORE.INTRA.REPUL>
0.0170592

>  <SCORE.INTRA.REPUL.0>
0

>  <SCORE.INTRA.SOLV>
-0.165858

>  <SCORE.INTRA.SOLV.lig_0>
-26.2491

>  <SCORE.INTRA.VDW>
-1.45276

>  <SCORE.INTRA.VDW.0>
2.57239

>  <SCORE.INTRA.norm>
-0.168744

>  <SCORE.RESTR>
0

>  <SCORE.RESTR.CAVITY>
0

>  <SCORE.RESTR.norm>
0

>  <SCORE.SYSTEM>
0

>  <SCORE.SYSTEM.CONST>
0

>  <SCORE.SYSTEM.DIHEDRAL>
0

>  <SCORE.SYSTEM.SOLV>
0

>  <SCORE.SYSTEM.norm>
0

>  <SCORE.heavy>
30

>  <SCORE.norm>
-1.29721

>  <RMSD>
0.905

$$$$
lig.pdb
 OpenBabel11021811523D
libRbt.so/2013.1/901 2013/11/27
 30 34  0  0  0  0  0  0  0  0999 V2000
   26.6503   38.3277   21.0489 N   0  0  0  0  0  0  0  0  0  0  0  0
   27.1133   41.9686   24.3710 N   0  0  0  0  0  0  0  0  0  0  0  0
   27.9637   37.6856   21.1593 C   0  0  0  0  0  0  0  0  0  0  0  0
   28.0064   36.8488   19.8896 C   0  0  2  0  0  0  0  0  0  0  0  0
   26.1152   39.1099   22.1576 C   0  0  0  0  0  0  0  0  0  0  0  0
   24.8466   38.8853   22.7304 C   0  0  0  0  0  0  0  0  0  0  0  0
   24.3284   39.6376   23.7548 C   0  0  0  0  0  0  0  0  0  0  0  0
   24.4823   41.5438   25.3600 C   0  0  0  0  0  0  0  0  0  0  0  0
   29.0257   43.1173   24.7529 C   0  0  0  0  0  0  0  0  0  0  0  0
   29.0294   41.0734   23.1580 C   0  0  0  0  0  0  0  0  0  0  0  0
   26.8789   40.1744   22.7142 C   0  0  0  0  0  0  0  0  0  0  0  0
   23.8272   44.3066   26.6312 O   0  0  0  0  0  0  0  0  0  0  0  0
   24.7980   43.5866   26.8746 C   0  0  0  0  0  0  0  0  0  0  0  0
   25.4244   43.6042   28.0448 O   0  0  0  0  0  0  0  0  0  0  0  0
   25.3360   42.6601   25.8433 C   0  0  1  0  0  0  0  0  0  0  0  0
   23.3693   41.2999   25.8383 O   0  0  0  0  0  0  0  0  0  0  0  0
   26.6412   42.8372   25.3523 C   0  0  0  0  0  0  0  0  0  0  0  0
   28.4720   42.1182   24.0592 C   0  0  0  0  0  0  0  0  0  0  0  0
   27.9204   43.8774   25.8215 S   0  0  0  0  0  0  0  0  0  0  0  0
   26.3553   40.9355   23.7838 C   0  0  0  0  0  0  0  0  0  0  0  0
   25.0690   40.6918   24.2893 C   0  0  0  0  0  0  0  0  0  0  0  0
   24.0996   37.8600   22.2740 F   0  0  0  0  0  0  0  0  0  0  0  0
   28.1236   40.5221   22.1662 N   0  0  0  0  0  0  0  0  0  0  0  0
   27.9601   41.3088   20.9624 C   0  0  0  0  0  0  0  0  0  0  0  0
   25.7739   37.5981   20.1395 C   0  0  0  0  0  0  0  0  0  0  0  0
   29.1373   37.1767   19.0813 O   0  0  0  0  0  0  0  0  0  0  0  0
   26.7846   37.2408   19.0627 C   0  0  2  0  0  0  0  0  0  0  0  0
   26.4376   36.1075   18.1842 N   0  0  0  0  0  0  0  0  0  0  0  0
   25.0402   36.0797   17.7152 C   0  0  0  0  0  0  0  0  0  0  0  0
   27.3996   35.9070   17.0896 C   0  0  0  0  0  0  0  0  0  0  0  0
  1  5  1  0  0  0  0
  2 17  1  0  0  0  0
  3  1  1  0  0  0  0
  4  3  1  0  0  0  0
  4 26  1  6  0  0  0
  5 11  2  0  0  0  0
  5  6  1  0  0  0  0
  6  7  2  0  0  0  0
  7 21  1  0  0  0  0
  8 15  1  0  0  0  0
  8 16  2  0  0  0  0
  9 19  1  0  0  0  0
 10 18  1  0  0  0  0
 11 20  1  0  0  0  0
 13 14  1  0  0  0  0
 13 12  2  0  0  0  0
 15 13  1  1  0  0  0
 17 19  2  0  0  0  0
 17 15  1  0  0  0  0
 18  2  1  0  0  0  0
 18  9  2  0  0  0  0
 20 21  2  0  0  0  0
 20  2  1  0  0  0  0
 21  8  1  0  0  0  0
 22  6  1  0  0  0  0
 23 11  1  0  0  0  0
 23 10  1  0  0  0  0
 24 23  1  0  0  0  0
 25  1  1  0  0  0  0
 27  4  1  0  0  0  0
 27 25  1  0  0  0  0
 27 28  1  1  0  0  0
 29 28  1  0  0  0  0
 30 28  1  0  0  0  0
M  END
>  <CHROM.1>
-126.32359272,2.10839480,-64.23430559,65.74990427,157.31697074,26.45513561
40.24056928,22.89029398,1.46390038,-0.31887746,-2.32989828

>  <Name>
lig.pdb

>  <RI>
0

>  <Rbt.Current_Directory>
/home/itssahil/PROJECTS/Mol_Feturizer/New_Systems/rnas/6bfb

>  <Rbt.Executable>
rbdock ($Id: //depot/dev/client3/rdock/2013.1/src/exe/rbdock.cxx#4 $)

>  <Rbt.Library>
libRbt.so (2013.1, Build901 2013/11/27)

>  <Rbt.Parameter_File>
/export/apps/rDock/src/rDock_2013.1_src/data/scripts/dock_solv.prm

>  <Rbt.Receptor>
prm/blind_docking_60.prm

>  <SCORE>
-39.0286

>  <SCORE.INTER>
-34.0844

>  <SCORE.INTER.CONST>
1

>  <SCORE.INTER.POLAR>
-0.959166

>  <SCORE.INTER.ROT>
3

>  <SCORE.INTER.SOLV>
10.3849

>  <SCORE.INTER.VDW>
-28.5873

>  <SCORE.INTER.norm>
-1.13615

>  <SCORE.INTRA>
-4.94425

>  <SCORE.INTRA.DIHEDRAL>
-7.14764

>  <SCORE.INTRA.DIHEDRAL.0>
9.41909

>  <SCORE.INTRA.POLAR>
0

>  <SCORE.INTRA.POLAR.0>
0

>  <SCORE.INTRA.REPUL>
0.0142447

>  <SCORE.INTRA.REPUL.0>
0

>  <SCORE.INTRA.SOLV>
-0.154352

>  <SCORE.INTRA.SOLV.lig_0>
-26.2491

>  <SCORE.INTRA.VDW>
-1.36448

>  <SCORE.INTRA.VDW.0>
2.57239

>  <SCORE.INTRA.norm>
-0.164808

>  <SCORE.RESTR>
0

>  <SCORE.RESTR.CAVITY>
0

>  <SCORE.RESTR.norm>
0

>  <SCORE.SYSTEM>
0

>  <SCORE.SYSTEM.CONST>
0

>  <SCORE.SYSTEM.DIHEDRAL>
0

>  <SCORE.SYSTEM.SOLV>
0

>  <SCORE.SYSTEM.norm>
0

>  <SCORE.heavy>
30

>  <SCORE.norm>
-1.30095

>  <RMSD>
0.907

$$$$
lig.pdb
 OpenBabel11021811523D
libRbt.so/2013.1/901 2013/11/27
 30 34  0  0  0  0  0  0  0  0999 V2000
   26.6521   38.3195   21.0468 N   0  0  0  0  0  0  0  0  0  0  0  0
   27.0959   41.9717   24.3592 N   0  0  0  0  0  0  0  0  0  0  0  0
   27.9652   37.6773   21.1593 C   0  0  0  0  0  0  0  0  0  0  0  0
   28.0111   36.8428   19.8882 C   0  0  2  0  0  0  0  0  0  0  0  0
   26.1142   39.0997   22.1556 C   0  0  0  0  0  0  0  0  0  0  0  0
   24.8496   38.8657   22.7333 C   0  0  0  0  0  0  0  0  0  0  0  0
   24.3286   39.6160   23.7578 C   0  0  0  0  0  0  0  0  0  0  0  0
   24.4720   41.5270   25.3583 C   0  0  0  0  0  0  0  0  0  0  0  0
   28.9998   43.1373   24.7319 C   0  0  0  0  0  0  0  0  0  0  0  0
   29.0152   41.0899   23.1416 C   0  0  0  0  0  0  0  0  0  0  0  0
   26.8709   40.1718   22.7072 C   0  0  0  0  0  0  0  0  0  0  0  0
   23.7712   44.2540   26.6410 O   0  0  0  0  0  0  0  0  0  0  0  0
   24.7757   43.5758   26.8672 C   0  0  0  0  0  0  0  0  0  0  0  0
   25.4354   43.6385   28.0173 O   0  0  0  0  0  0  0  0  0  0  0  0
   25.3179   42.6515   25.8361 C   0  0  1  0  0  0  0  0  0  0  0  0
   23.3627   41.2748   25.8410 O   0  0  0  0  0  0  0  0  0  0  0  0
   26.6199   42.8385   25.3401 C   0  0  0  0  0  0  0  0  0  0  0  0
   28.4521   42.1320   24.0423 C   0  0  0  0  0  0  0  0  0  0  0  0
   27.8919   43.8905   25.8026 S   0  0  0  0  0  0  0  0  0  0  0  0
   26.3446   40.9309   23.7769 C   0  0  0  0  0  0  0  0  0  0  0  0
   25.0621   40.6775   24.2874 C   0  0  0  0  0  0  0  0  0  0  0  0
   24.1097   37.8331   22.2818 F   0  0  0  0  0  0  0  0  0  0  0  0
   28.1107   40.5287   22.1542 N   0  0  0  0  0  0  0  0  0  0  0  0
   27.9364   41.3113   20.9492 C   0  0  0  0  0  0  0  0  0  0  0  0
   25.7780   37.5915   20.1339 C   0  0  0  0  0  0  0  0  0  0  0  0
   29.1440   37.1721   19.0833 O   0  0  0  0  0  0  0  0  0  0  0  0
   26.7913   37.2362   19.0590 C   0  0  2  0  0  0  0  0  0  0  0  0
   26.4465   36.1045   18.1776 N   0  0  0  0  0  0  0  0  0  0  0  0
   25.0480   36.0730   17.7119 C   0  0  0  0  0  0  0  0  0  0  0  0
   27.4066   35.9114   17.0800 C   0  0  0  0  0  0  0  0  0  0  0  0
  1  5  1  0  0  0  0
  2 17  1  0  0  0  0
  3  1  1  0  0  0  0
  4  3  1  0  0  0  0
  4 26  1  6  0  0  0
  5 11  2  0  0  0  0
  5  6  1  0  0  0  0
  6  7  2  0  0  0  0
  7 21  1  0  0  0  0
  8 15  1  0  0  0  0
  8 16  2  0  0  0  0
  9 19  1  0  0  0  0
 10 18  1  0  0  0  0
 11 20  1  0  0  0  0
 13 14  1  0  0  0  0
 13 12  2  0  0  0  0
 15 13  1  1  0  0  0
 17 19  2  0  0  0  0
 17 15  1  0  0  0  0
 18  2  1  0  0  0  0
 18  9  2  0  0  0  0
 20 21  2  0  0  0  0
 20  2  1  0  0  0  0
 21  8  1  0  0  0  0
 22  6  1  0  0  0  0
 23 11  1  0  0  0  0
 23 10  1  0  0  0  0
 24 23  1  0  0  0  0
 25  1  1  0  0  0  0
 27  4  1  0  0  0  0
 27 25  1  0  0  0  0
 27 28  1  1  0  0  0
 29 28  1  0  0  0  0
 30 28  1  0  0  0  0
M  END
>  <CHROM.1>
-125.69068737,179.07055585,-61.78484018,64.11659012,156.95190489,26.44975587
40.23344141,22.88223626,1.46207917,-0.32541250,-2.33169664

>  <Name>
lig.pdb

>  <RI>
0

>  <Rbt.Current_Directory>
/home/itssahil/PROJECTS/Mol_Feturizer/New_Systems/rnas/6bfb

>  <Rbt.Executable>
rbdock ($Id: //depot/dev/client3/rdock/2013.1/src/exe/rbdock.cxx#4 $)

>  <Rbt.Library>
libRbt.so (2013.1, Build901 2013/11/27)

>  <Rbt.Parameter_File>
/export/apps/rDock/src/rDock_2013.1_src/data/scripts/dock_solv.prm

>  <Rbt.Receptor>
prm/pocket_docking_5.prm

>  <SCORE>
-39.1308

>  <SCORE.INTER>
-34.4606

>  <SCORE.INTER.CONST>
1

>  <SCORE.INTER.POLAR>
-0.959166

>  <SCORE.INTER.ROT>
3

>  <SCORE.INTER.SOLV>
10.356

>  <SCORE.INTER.VDW>
-28.8285

>  <SCORE.INTER.norm>
-1.14869

>  <SCORE.INTRA>
-4.67024

>  <SCORE.INTRA.DIHEDRAL>
-7.21398

>  <SCORE.INTRA.DIHEDRAL.0>
9.41909

>  <SCORE.INTRA.POLAR>
0

>  <SCORE.INTRA.POLAR.0>
0

>  <SCORE.INTRA.REPUL>
0.015895

>  <SCORE.INTRA.REPUL.0>
0

>  <SCORE.INTRA.SOLV>
-0.220948

>  <SCORE.INTRA.SOLV.lig_0>
-26.2491

>  <SCORE.INTRA.VDW>
-1.03225

>  <SCORE.INTRA.VDW.0>
2.57239

>  <SCORE.INTRA.norm>
-0.155675

>  <SCORE.RESTR>
0

>  <SCORE.RESTR.CAVITY>
0

>  <SCORE.RESTR.norm>
0

>  <SCORE.SYSTEM>
0

>  <SCORE.SYSTEM.CONST>
0

>  <SCORE.SYSTEM.DIHEDRAL>
0

>  <SCORE.SYSTEM.SOLV>
0

>  <SCORE.SYSTEM.norm>
0

>  <SCORE.heavy>
30

>  <SCORE.norm>
-1.30436

>  <RMSD>
0.907

$$$$
lig.pdb
 OpenBabel11021811523D
libRbt.so/2013.1/901 2013/11/27
 30 34  0  0  0  0  0  0  0  0999 V2000
   26.6652   38.3320   21.0375 N   0  0  0  0  0  0  0  0  0  0  0  0
   27.1147   41.9533   24.3829 N   0  0  0  0  0  0  0  0  0  0  0  0
   27.9640   37.6626   21.1585 C   0  0  0  0  0  0  0  0  0  0  0  0
   28.0118   36.8465   19.8756 C   0  0  2  0  0  0  0  0  0  0  0  0
   26.1268   39.1058   22.1505 C   0  0  0  0  0  0  0  0  0  0  0  0
   24.8582   38.8742   22.7205 C   0  0  0  0  0  0  0  0  0  0  0  0
   24.3368   39.6187   23.7490 C   0  0  0  0  0  0  0  0  0  0  0  0
   24.4838   41.5152   25.3663 C   0  0  0  0  0  0  0  0  0  0  0  0
   29.0235   43.1049   24.7739 C   0  0  0  0  0  0  0  0  0  0  0  0
   29.0345   41.0710   23.1664 C   0  0  0  0  0  0  0  0  0  0  0  0
   26.8870   40.1689   22.7145 C   0  0  0  0  0  0  0  0  0  0  0  0
   23.8089   44.2552   26.6598 O   0  0  0  0  0  0  0  0  0  0  0  0
   24.7922   43.5493   26.8939 C   0  0  0  0  0  0  0  0  0  0  0  0
   25.4293   43.5760   28.0582 O   0  0  0  0  0  0  0  0  0  0  0  0
   25.3339   42.6307   25.8574 C   0  0  1  0  0  0  0  0  0  0  0  0
   23.3709   41.2653   25.8418 O   0  0  0  0  0  0  0  0  0  0  0  0
   26.6392   42.8145   25.3690 C   0  0  0  0  0  0  0  0  0  0  0  0
   28.4733   42.1085   24.0734 C   0  0  0  0  0  0  0  0  0  0  0  0
   27.9150   43.8552   25.8461 S   0  0  0  0  0  0  0  0  0  0  0  0
   26.3602   40.9218   23.7884 C   0  0  0  0  0  0  0  0  0  0  0  0
   25.0739   40.6715   24.2909 C   0  0  0  0  0  0  0  0  0  0  0  0
   24.1145   37.8497   22.2569 F   0  0  0  0  0  0  0  0  0  0  0  0
   28.1313   40.5234   22.1702 N   0  0  0  0  0  0  0  0  0  0  0  0
   27.9669   41.3171   20.9711 C   0  0  0  0  0  0  0  0  0  0  0  0
   25.7903   37.6350   20.1015 C   0  0  0  0  0  0  0  0  0  0  0  0
   29.1622   37.1657   19.0917 O   0  0  0  0  0  0  0  0  0  0  0  0
   26.8118   37.2762   19.0355 C   0  0  2  0  0  0  0  0  0  0  0  0
   26.4578   36.1648   18.1321 N   0  0  0  0  0  0  0  0  0  0  0  0
   25.0614   36.1585   17.6594 C   0  0  0  0  0  0  0  0  0  0  0  0
   27.4209   35.9799   17.0358 C   0  0  0  0  0  0  0  0  0  0  0  0
  1  5  1  0  0  0  0
  2 17  1  0  0  0  0
  3  1  1  0  0  0  0
  4  3  1  0  0  0  0
  4 26  1  6  0  0  0
  5 11  2  0  0  0  0
  5  6  1  0  0  0  0
  6  7  2  0  0  0  0
  7 21  1  0  0  0  0
  8 15  1  0  0  0  0
  8 16  2  0  0  0  0
  9 19  1  0  0  0  0
 10 18  1  0  0  0  0
 11 20  1  0  0  0  0
 13 14  1  0  0  0  0
 13 12  2  0  0  0  0
 15 13  1  1  0  0  0
 17 19  2  0  0  0  0
 17 15  1  0  0  0  0
 18  2  1  0  0  0  0
 18  9  2  0  0  0  0
 20 21  2  0  0  0  0
 20  2  1  0  0  0  0
 21  8  1  0  0  0  0
 22  6  1  0  0  0  0
 23 11  1  0  0  0  0
 23 10  1  0  0  0  0
 24 23  1  0  0  0  0
 25  1  1  0  0  0  0
 27  4  1  0  0  0  0
 27 25  1  0  0  0  0
 27 28  1  6  0  0  0
 29 28  1  0  0  0  0
 30 28  1  0  0  0  0
M  END
>  <CHROM.1>
-124.65612295,1.20186818,-63.26642822,63.48148362,156.24757835,26.46186798
40.23619683,22.88842417,1.46133726,-0.31735126,-2.32231310

>  <Name>
lig.pdb

>  <RI>
0

>  <Rbt.Current_Directory>
/home/itssahil/PROJECTS/Mol_Feturizer/New_Systems/rnas/6bfb

>  <Rbt.Executable>
rbdock ($Id: //depot/dev/client3/rdock/2013.1/src/exe/rbdock.cxx#4 $)

>  <Rbt.Library>
libRbt.so (2013.1, Build901 2013/11/27)

>  <Rbt.Parameter_File>
/export/apps/rDock/src/rDock_2013.1_src/data/scripts/dock_solv.prm

>  <Rbt.Receptor>
prm/blind_docking_60.prm

>  <SCORE>
-38.9463

>  <SCORE.INTER>
-33.8935

>  <SCORE.INTER.CONST>
1

>  <SCORE.INTER.POLAR>
-0.958901

>  <SCORE.INTER.ROT>
3

>  <SCORE.INTER.SOLV>
10.4714

>  <SCORE.INTER.VDW>
-28.4898

>  <SCORE.INTER.norm>
-1.12978

>  <SCORE.INTRA>
-5.05287

>  <SCORE.INTRA.DIHEDRAL>
-7.21412

>  <SCORE.INTRA.DIHEDRAL.0>
9.41909

>  <SCORE.INTRA.POLAR>
0

>  <SCORE.INTRA.POLAR.0>
0

>  <SCORE.INTRA.REPUL>
0.0185829

>  <SCORE.INTRA.REPUL.0>
0

>  <SCORE.INTRA.SOLV>
-0.164813

>  <SCORE.INTRA.SOLV.lig_0>
-26.2491

>  <SCORE.INTRA.VDW>
-1.45632

>  <SCORE.INTRA.VDW.0>
2.57239

>  <SCORE.INTRA.norm>
-0.168429

>  <SCORE.RESTR>
0

>  <SCORE.RESTR.CAVITY>
0

>  <SCORE.RESTR.norm>
0

>  <SCORE.SYSTEM>
0

>  <SCORE.SYSTEM.CONST>
0

>  <SCORE.SYSTEM.DIHEDRAL>
0

>  <SCORE.SYSTEM.SOLV>
0

>  <SCORE.SYSTEM.norm>
0

>  <SCORE.heavy>
30

>  <SCORE.norm>
-1.29821

>  <RMSD>
0.910

$$$$
lig.pdb
 OpenBabel11021811523D
libRbt.so/2013.1/901 2013/11/27
 30 34  0  0  0  0  0  0  0  0999 V2000
   26.5755   38.2832   21.1970 N   0  0  0  0  0  0  0  0  0  0  0  0
   27.0626   41.9879   24.4443 N   0  0  0  0  0  0  0  0  0  0  0  0
   27.9421   37.7566   21.2636 C   0  0  0  0  0  0  0  0  0  0  0  0
   27.9797   36.8400   20.0501 C   0  0  2  0  0  0  0  0  0  0  0  0
   26.0431   39.0952   22.2854 C   0  0  0  0  0  0  0  0  0  0  0  0
   24.7683   38.8983   22.8546 C   0  0  0  0  0  0  0  0  0  0  0  0
   24.2531   39.6785   23.8594 C   0  0  0  0  0  0  0  0  0  0  0  0
   24.4204   41.6163   25.4249 C   0  0  0  0  0  0  0  0  0  0  0  0
   28.9865   43.1211   24.8141 C   0  0  0  0  0  0  0  0  0  0  0  0
   28.9750   41.0439   23.2629 C   0  0  0  0  0  0  0  0  0  0  0  0
   26.8164   40.1619   22.8242 C   0  0  0  0  0  0  0  0  0  0  0  0
   25.2608   43.7717   28.0176 O   0  0  0  0  0  0  0  0  0  0  0  0
   24.7518   43.6869   26.8979 C   0  0  0  0  0  0  0  0  0  0  0  0
   23.7043   44.4159   26.5327 O   0  0  0  0  0  0  0  0  0  0  0  0
   25.2848   42.7321   25.8899 C   0  0  1  0  0  0  0  0  0  0  0  0
   23.3015   41.3962   25.9010 O   0  0  0  0  0  0  0  0  0  0  0  0
   26.5951   42.8829   25.4038 C   0  0  0  0  0  0  0  0  0  0  0  0
   28.4249   42.1143   24.1381 C   0  0  0  0  0  0  0  0  0  0  0  0
   27.8841   43.9172   25.8592 S   0  0  0  0  0  0  0  0  0  0  0  0
   26.2956   40.9518   23.8741 C   0  0  0  0  0  0  0  0  0  0  0  0
   25.0032   40.7347   24.3763 C   0  0  0  0  0  0  0  0  0  0  0  0
   24.0116   37.8727   22.4151 F   0  0  0  0  0  0  0  0  0  0  0  0
   28.0687   40.4826   22.2772 N   0  0  0  0  0  0  0  0  0  0  0  0
   27.9224   41.2455   21.0559 C   0  0  0  0  0  0  0  0  0  0  0  0
   25.7111   37.4251   20.3946 C   0  0  0  0  0  0  0  0  0  0  0  0
   29.0297   37.1999   19.1513 O   0  0  0  0  0  0  0  0  0  0  0  0
   26.6828   37.0756   19.2801 C   0  0  2  0  0  0  0  0  0  0  0  0
   26.3806   35.8602   18.5002 N   0  0  0  0  0  0  0  0  0  0  0  0
   26.0655   34.6620   19.2993 C   0  0  0  0  0  0  0  0  0  0  0  0
   25.4026   36.0896   17.4256 C   0  0  0  0  0  0  0  0  0  0  0  0
  1  5  1  0  0  0  0
  2 17  1  0  0  0  0
  3  1  1  0  0  0  0
  4  3  1  0  0  0  0
  4 26  1  6  0  0  0
  5 11  2  0  0  0  0
  5  6  1  0  0  0  0
  6  7  2  0  0  0  0
  7 21  1  0  0  0  0
  8 15  1  0  0  0  0
  8 16  2  0  0  0  0
  9 19  1  0  0  0  0
 10 18  1  0  0  0  0
 11 20  1  0  0  0  0
 13 14  1  0  0  0  0
 13 12  2  0  0  0  0
 15 13  1  1  0  0  0
 17 19  2  0  0  0  0
 17 15  1  0  0  0  0
 18  2  1  0  0  0  0
 18  9  2  0  0  0  0
 20 21  2  0  0  0  0
 20  2  1  0  0  0  0
 21  8  1  0  0  0  0
 22  6  1  0  0  0  0
 23 11  1  0  0  0  0
 23 10  1  0  0  0  0
 24 23  1  0  0  0  0
 25  1  1  0  0  0  0
 27  4  1  0  0  0  0
 27 25  1  0  0  0  0
 27 28  1  1  0  0  0
 29 28  1  0  0  0  0
 30 28  1  0  0  0  0
M  END
>  <CHROM.1>
-133.46854894,-0.27622592,115.85213814,61.69678457,65.86490027,26.35671632
40.20706540,23.04089446,1.48050008,-0.32275951,-2.38089331

>  <Name>
lig.pdb

>  <RI>
0

>  <Rbt.Current_Directory>
/home/itssahil/PROJECTS/Mol_Feturizer/New_Systems/rnas/6bfb

>  <Rbt.Executable>
rbdock ($Id: //depot/dev/client3/rdock/2013.1/src/exe/rbdock.cxx#4 $)

>  <Rbt.Library>
libRbt.so (2013.1, Build901 2013/11/27)

>  <Rbt.Parameter_File>
/export/apps/rDock/src/rDock_2013.1_src/data/scripts/dock_solv.prm

>  <Rbt.Receptor>
prm/pocket_docking_7.prm

>  <SCORE>
-39.709

>  <SCORE.INTER>
-34.7896

>  <SCORE.INTER.CONST>
1

>  <SCORE.INTER.POLAR>
-0.945615

>  <SCORE.INTER.ROT>
3

>  <SCORE.INTER.SOLV>
10.5414

>  <SCORE.INTER.VDW>
-29.1548

>  <SCORE.INTER.norm>
-1.15965

>  <SCORE.INTRA>
-4.91935

>  <SCORE.INTRA.DIHEDRAL>
-7.5197

>  <SCORE.INTRA.DIHEDRAL.0>
9.41909

>  <SCORE.INTRA.POLAR>
0

>  <SCORE.INTRA.POLAR.0>
0

>  <SCORE.INTRA.REPUL>
0

>  <SCORE.INTRA.REPUL.0>
0

>  <SCORE.INTRA.SOLV>
-0.217644

>  <SCORE.INTRA.SOLV.lig_0>
-26.2491

>  <SCORE.INTRA.VDW>
-1.05068

>  <SCORE.INTRA.VDW.0>
2.57239

>  <SCORE.INTRA.norm>
-0.163978

>  <SCORE.RESTR>
0

>  <SCORE.RESTR.CAVITY>
0

>  <SCORE.RESTR.norm>
0

>  <SCORE.SYSTEM>
0

>  <SCORE.SYSTEM.CONST>
0

>  <SCORE.SYSTEM.DIHEDRAL>
0

>  <SCORE.SYSTEM.SOLV>
0

>  <SCORE.SYSTEM.norm>
0

>  <SCORE.heavy>
30

>  <SCORE.norm>
-1.32363

>  <RMSD>
0.911

$$$$
lig.pdb
 OpenBabel11021811523D
libRbt.so/2013.1/901 2013/11/27
 30 34  0  0  0  0  0  0  0  0999 V2000
   26.6550   38.3200   21.0466 N   0  0  0  0  0  0  0  0  0  0  0  0
   27.1184   41.9676   24.3614 N   0  0  0  0  0  0  0  0  0  0  0  0
   27.9675   37.6758   21.1549 C   0  0  0  0  0  0  0  0  0  0  0  0
   28.0078   36.8409   19.8838 C   0  0  2  0  0  0  0  0  0  0  0  0
   26.1220   39.1013   22.1571 C   0  0  0  0  0  0  0  0  0  0  0  0
   24.8575   38.8715   22.7368 C   0  0  0  0  0  0  0  0  0  0  0  0
   24.3412   39.6229   23.7629 C   0  0  0  0  0  0  0  0  0  0  0  0
   24.4946   41.5319   25.3647 C   0  0  0  0  0  0  0  0  0  0  0  0
   29.0274   43.1258   24.7316 C   0  0  0  0  0  0  0  0  0  0  0  0
   29.0322   41.0797   23.1395 C   0  0  0  0  0  0  0  0  0  0  0  0
   26.8837   40.1700   22.7082 C   0  0  0  0  0  0  0  0  0  0  0  0
   23.8258   44.2844   26.6397 O   0  0  0  0  0  0  0  0  0  0  0  0
   24.8087   43.5783   26.8748 C   0  0  0  0  0  0  0  0  0  0  0  0
   25.4494   43.6105   28.0370 O   0  0  0  0  0  0  0  0  0  0  0  0
   25.3456   42.6528   25.8420 C   0  0  1  0  0  0  0  0  0  0  0  0
   23.3853   41.2835   25.8492 O   0  0  0  0  0  0  0  0  0  0  0  0
   26.6474   42.8354   25.3439 C   0  0  0  0  0  0  0  0  0  0  0  0
   28.4747   42.1231   24.0422 C   0  0  0  0  0  0  0  0  0  0  0  0
   27.9242   43.8822   25.8050 S   0  0  0  0  0  0  0  0  0  0  0  0
   26.3622   40.9301   23.7795 C   0  0  0  0  0  0  0  0  0  0  0  0
   25.0796   40.6812   24.2921 C   0  0  0  0  0  0  0  0  0  0  0  0
   24.1130   37.8421   22.2858 F   0  0  0  0  0  0  0  0  0  0  0  0
   28.1238   40.5227   22.1533 N   0  0  0  0  0  0  0  0  0  0  0  0
   27.9504   41.3070   20.9493 C   0  0  0  0  0  0  0  0  0  0  0  0
   25.7767   37.5931   20.1369 C   0  0  0  0  0  0  0  0  0  0  0  0
   29.1385   37.1684   19.0750 O   0  0  0  0  0  0  0  0  0  0  0  0
   26.7858   37.2361   19.0586 C   0  0  2  0  0  0  0  0  0  0  0  0
   26.4363   36.1046   18.1786 N   0  0  0  0  0  0  0  0  0  0  0  0
   25.0590   36.1184   17.6530 C   0  0  0  0  0  0  0  0  0  0  0  0
   27.4347   35.8588   17.1267 C   0  0  0  0  0  0  0  0  0  0  0  0
  1  5  1  0  0  0  0
  2 17  1  0  0  0  0
  3  1  1  0  0  0  0
  4  3  1  0  0  0  0
  4 26  1  6  0  0  0
  5 11  2  0  0  0  0
  5  6  1  0  0  0  0
  6  7  2  0  0  0  0
  7 21  1  0  0  0  0
  8 15  1  0  0  0  0
  8 16  2  0  0  0  0
  9 19  1  0  0  0  0
 10 18  1  0  0  0  0
 11 20  1  0  0  0  0
 13 14  1  0  0  0  0
 13 12  2  0  0  0  0
 15 13  1  1  0  0  0
 17 19  2  0  0  0  0
 17 15  1  0  0  0  0
 18  2  1  0  0  0  0
 18  9  2  0  0  0  0
 20 21  2  0  0  0  0
 20  2  1  0  0  0  0
 21  8  1  0  0  0  0
 22  6  1  0  0  0  0
 23 11  1  0  0  0  0
 23 10  1  0  0  0  0
 24 23  1  0  0  0  0
 25  1  1  0  0  0  0
 27  4  1  0  0  0  0
 27 25  1  0  0  0  0
 27 28  1  1  0  0  0
 29 28  1  0  0  0  0
 30 28  1  0  0  0  0
M  END
>  <CHROM.1>
-125.86142736,1.96572829,-63.56310314,64.69646644,160.43785191,26.46248340
40.23521236,22.88528274,1.46354969,-0.32364646,-2.33064615

>  <Name>
lig.pdb

>  <RI>
0

>  <Rbt.Current_Directory>
/home/itssahil/PROJECTS/Mol_Feturizer/New_Systems/rnas/6bfb

>  <Rbt.Executable>
rbdock ($Id: //depot/dev/client3/rdock/2013.1/src/exe/rbdock.cxx#4 $)

>  <Rbt.Library>
libRbt.so (2013.1, Build901 2013/11/27)

>  <Rbt.Parameter_File>
/export/apps/rDock/src/rDock_2013.1_src/data/scripts/dock_solv.prm

>  <Rbt.Receptor>
prm/pocket_docking_3.prm

>  <SCORE>
-38.9577

>  <SCORE.INTER>
-33.9698

>  <SCORE.INTER.CONST>
1

>  <SCORE.INTER.POLAR>
-0.959166

>  <SCORE.INTER.ROT>
3

>  <SCORE.INTER.SOLV>
10.4166

>  <SCORE.INTER.VDW>
-28.5215

>  <SCORE.INTER.norm>
-1.13233

>  <SCORE.INTRA>
-4.98796

>  <SCORE.INTRA.DIHEDRAL>
-7.33483

>  <SCORE.INTRA.DIHEDRAL.0>
9.41909

>  <SCORE.INTRA.POLAR>
0

>  <SCORE.INTRA.POLAR.0>
0

>  <SCORE.INTRA.REPUL>
0.0154503

>  <SCORE.INTRA.REPUL.0>
0

>  <SCORE.INTRA.SOLV>
-0.148192

>  <SCORE.INTRA.SOLV.lig_0>
-26.2491

>  <SCORE.INTRA.VDW>
-1.3237

>  <SCORE.INTRA.VDW.0>
2.57239

>  <SCORE.INTRA.norm>
-0.166265

>  <SCORE.RESTR>
0

>  <SCORE.RESTR.CAVITY>
0

>  <SCORE.RESTR.norm>
0

>  <SCORE.SYSTEM>
0

>  <SCORE.SYSTEM.CONST>
0

>  <SCORE.SYSTEM.DIHEDRAL>
0

>  <SCORE.SYSTEM.SOLV>
0

>  <SCORE.SYSTEM.norm>
0

>  <SCORE.heavy>
30

>  <SCORE.norm>
-1.29859

>  <RMSD>
0.912

$$$$
lig.pdb
 OpenBabel11021811523D
libRbt.so/2013.1/901 2013/11/27
 30 34  0  0  0  0  0  0  0  0999 V2000
   26.6532   38.3248   21.0503 N   0  0  0  0  0  0  0  0  0  0  0  0
   27.0992   41.9797   24.3594 N   0  0  0  0  0  0  0  0  0  0  0  0
   27.9683   37.6862   21.1612 C   0  0  0  0  0  0  0  0  0  0  0  0
   28.0133   36.8488   19.8920 C   0  0  2  0  0  0  0  0  0  0  0  0
   26.1159   39.1061   22.1586 C   0  0  0  0  0  0  0  0  0  0  0  0
   24.8514   38.8731   22.7368 C   0  0  0  0  0  0  0  0  0  0  0  0
   24.3309   39.6245   23.7607 C   0  0  0  0  0  0  0  0  0  0  0  0
   24.4754   41.5369   25.3594 C   0  0  0  0  0  0  0  0  0  0  0  0
   29.0037   43.1449   24.7305 C   0  0  0  0  0  0  0  0  0  0  0  0
   29.0179   41.0961   23.1421 C   0  0  0  0  0  0  0  0  0  0  0  0
   26.8732   40.1784   22.7090 C   0  0  0  0  0  0  0  0  0  0  0  0
   23.7737   44.2625   26.6413 O   0  0  0  0  0  0  0  0  0  0  0  0
   24.7802   43.5869   26.8665 C   0  0  0  0  0  0  0  0  0  0  0  0
   25.4427   43.6536   28.0148 O   0  0  0  0  0  0  0  0  0  0  0  0
   25.3219   42.6615   25.8360 C   0  0  1  0  0  0  0  0  0  0  0  0
   23.3662   41.2856   25.8426 O   0  0  0  0  0  0  0  0  0  0  0  0
   26.6238   42.8476   25.3396 C   0  0  0  0  0  0  0  0  0  0  0  0
   28.4555   42.1391   24.0420 C   0  0  0  0  0  0  0  0  0  0  0  0
   27.8963   43.8995   25.8009 S   0  0  0  0  0  0  0  0  0  0  0  0
   26.3474   40.9386   23.7782 C   0  0  0  0  0  0  0  0  0  0  0  0
   25.0649   40.6862   24.2892 C   0  0  0  0  0  0  0  0  0  0  0  0
   24.1109   37.8404   22.2864 F   0  0  0  0  0  0  0  0  0  0  0  0
   28.1130   40.5344   22.1554 N   0  0  0  0  0  0  0  0  0  0  0  0
   27.9387   41.3159   20.9497 C   0  0  0  0  0  0  0  0  0  0  0  0
   25.7789   37.5923   20.1412 C   0  0  0  0  0  0  0  0  0  0  0  0
   29.1435   37.1792   19.0836 O   0  0  0  0  0  0  0  0  0  0  0  0
   26.7906   37.2372   19.0647 C   0  0  2  0  0  0  0  0  0  0  0  0
   26.4467   36.1024   18.1868 N   0  0  0  0  0  0  0  0  0  0  0  0
   25.0545   36.0813   17.7022 C   0  0  0  0  0  0  0  0  0  0  0  0
   27.4197   35.8919   17.1039 C   0  0  0  0  0  0  0  0  0  0  0  0
  1  5  1  0  0  0  0
  2 17  1  0  0  0  0
  3  1  1  0  0  0  0
  4  3  1  0  0  0  0
  4 26  1  6  0  0  0
  5 11  2  0  0  0  0
  5  6  1  0  0  0  0
  6  7  2  0  0  0  0
  7 21  1  0  0  0  0
  8 15  1  0  0  0  0
  8 16  2  0  0  0  0
  9 19  1  0  0  0  0
 10 18  1  0  0  0  0
 11 20  1  0  0  0  0
 13 14  1  0  0  0  0
 13 12  2  0  0  0  0
 15 13  1  1  0  0  0
 17 19  2  0  0  0  0
 17 15  1  0  0  0  0
 18  2  1  0  0  0  0
 18  9  2  0  0  0  0
 20 21  2  0  0  0  0
 20  2  1  0  0  0  0
 21  8  1  0  0  0  0
 22  6  1  0  0  0  0
 23 11  1  0  0  0  0
 23 10  1  0  0  0  0
 24 23  1  0  0  0  0
 25  1  1  0  0  0  0
 27  4  1  0  0  0  0
 27 25  1  0  0  0  0
 27 28  1  1  0  0  0
 29 28  1  0  0  0  0
 30 28  1  0  0  0  0
M  END
>  <CHROM.1>
-125.91717036,-179.24866124,-61.57800056,62.91712267,158.14973028,26.45295676
40.23997391,22.88419716,1.46222847,-0.32514451,-2.33279490

>  <Name>
lig.pdb

>  <RI>
0

>  <Rbt.Current_Directory>
/home/itssahil/PROJECTS/Mol_Feturizer/New_Systems/rnas/6bfb

>  <Rbt.Executable>
rbdock ($Id: //depot/dev/client3/rdock/2013.1/src/exe/rbdock.cxx#4 $)

>  <Rbt.Library>
libRbt.so (2013.1, Build901 2013/11/27)

>  <Rbt.Parameter_File>
/export/apps/rDock/src/rDock_2013.1_src/data/scripts/dock_solv.prm

>  <Rbt.Receptor>
prm/pocket_docking_7.prm

>  <SCORE>
-39.1881

>  <SCORE.INTER>
-34.5164

>  <SCORE.INTER.CONST>
1

>  <SCORE.INTER.POLAR>
-0.959166

>  <SCORE.INTER.ROT>
3

>  <SCORE.INTER.SOLV>
10.3409

>  <SCORE.INTER.VDW>
-28.8607

>  <SCORE.INTER.norm>
-1.15055

>  <SCORE.INTRA>
-4.67175

>  <SCORE.INTRA.DIHEDRAL>
-7.32039

>  <SCORE.INTRA.DIHEDRAL.0>
9.41909

>  <SCORE.INTRA.POLAR>
0

>  <SCORE.INTRA.POLAR.0>
0

>  <SCORE.INTRA.REPUL>
0.015305

>  <SCORE.INTRA.REPUL.0>
0

>  <SCORE.INTRA.SOLV>
-0.217204

>  <SCORE.INTRA.SOLV.lig_0>
-26.2491

>  <SCORE.INTRA.VDW>
-0.979478

>  <SCORE.INTRA.VDW.0>
2.57239

>  <SCORE.INTRA.norm>
-0.155725

>  <SCORE.RESTR>
0

>  <SCORE.RESTR.CAVITY>
0

>  <SCORE.RESTR.norm>
0

>  <SCORE.SYSTEM>
0

>  <SCORE.SYSTEM.CONST>
0

>  <SCORE.SYSTEM.DIHEDRAL>
0

>  <SCORE.SYSTEM.SOLV>
0

>  <SCORE.SYSTEM.norm>
0

>  <SCORE.heavy>
30

>  <SCORE.norm>
-1.30627

>  <RMSD>
0.912

$$$$
lig.pdb
 OpenBabel11021811523D
libRbt.so/2013.1/901 2013/11/27
 30 34  0  0  0  0  0  0  0  0999 V2000
   26.6013   38.2598   21.1621 N   0  0  0  0  0  0  0  0  0  0  0  0
   27.1213   41.9602   24.4092 N   0  0  0  0  0  0  0  0  0  0  0  0
   27.9606   37.7134   21.2186 C   0  0  0  0  0  0  0  0  0  0  0  0
   27.9823   36.8115   19.9937 C   0  0  2  0  0  0  0  0  0  0  0  0
   26.0830   39.0656   22.2619 C   0  0  0  0  0  0  0  0  0  0  0  0
   24.8201   38.8586   22.8534 C   0  0  0  0  0  0  0  0  0  0  0  0
   24.3176   39.6329   23.8692 C   0  0  0  0  0  0  0  0  0  0  0  0
   24.4998   41.5681   25.4362 C   0  0  0  0  0  0  0  0  0  0  0  0
   29.0439   43.1057   24.7473 C   0  0  0  0  0  0  0  0  0  0  0  0
   29.0186   41.0321   23.1914 C   0  0  0  0  0  0  0  0  0  0  0  0
   26.8586   40.1363   22.7894 C   0  0  0  0  0  0  0  0  0  0  0  0
   25.2613   43.6097   28.0678 O   0  0  0  0  0  0  0  0  0  0  0  0
   24.8435   43.6374   26.9082 C   0  0  0  0  0  0  0  0  0  0  0  0
   23.9067   44.4881   26.5070 O   0  0  0  0  0  0  0  0  0  0  0  0
   25.3648   42.6888   25.8885 C   0  0  1  0  0  0  0  0  0  0  0  0
   23.3912   41.3392   25.9319 O   0  0  0  0  0  0  0  0  0  0  0  0
   26.6651   42.8497   25.3792 C   0  0  0  0  0  0  0  0  0  0  0  0
   28.4770   42.0966   24.0790 C   0  0  0  0  0  0  0  0  0  0  0  0
   27.9549   43.8917   25.8139 S   0  0  0  0  0  0  0  0  0  0  0  0
   26.3513   40.9202   23.8504 C   0  0  0  0  0  0  0  0  0  0  0  0
   25.0697   40.6930   24.3752 C   0  0  0  0  0  0  0  0  0  0  0  0
   24.0626   37.8289   22.4251 F   0  0  0  0  0  0  0  0  0  0  0  0
   28.0986   40.4670   22.2207 N   0  0  0  0  0  0  0  0  0  0  0  0
   27.9251   41.2317   21.0042 C   0  0  0  0  0  0  0  0  0  0  0  0
   25.7230   37.4240   20.3513 C   0  0  0  0  0  0  0  0  0  0  0  0
   29.0351   37.1678   19.0967 O   0  0  0  0  0  0  0  0  0  0  0  0
   26.6870   37.0748   19.2300 C   0  0  2  0  0  0  0  0  0  0  0  0
   26.3658   35.8736   18.4360 N   0  0  0  0  0  0  0  0  0  0  0  0
   26.0780   34.6591   19.2205 C   0  0  0  0  0  0  0  0  0  0  0  0
   25.3561   36.1201   17.3950 C   0  0  0  0  0  0  0  0  0  0  0  0
  1  5  1  0  0  0  0
  2 17  1  0  0  0  0
  3  1  1  0  0  0  0
  4  3  1  0  0  0  0
  4 26  1  6  0  0  0
  5 11  2  0  0  0  0
  5  6  1  0  0  0  0
  6  7  2  0  0  0  0
  7 21  1  0  0  0  0
  8 15  1  0  0  0  0
  8 16  2  0  0  0  0
  9 19  1  0  0  0  0
 10 18  1  0  0  0  0
 11 20  1  0  0  0  0
 13 14  1  0  0  0  0
 13 12  2  0  0  0  0
 15 13  1  1  0  0  0
 17 19  2  0  0  0  0
 17 15  1  0  0  0  0
 18  2  1  0  0  0  0
 18  9  2  0  0  0  0
 20 21  2  0  0  0  0
 20  2  1  0  0  0  0
 21  8  1  0  0  0  0
 22  6  1  0  0  0  0
 23 11  1  0  0  0  0
 23 10  1  0  0  0  0
 24 23  1  0  0  0  0
 25  1  1  0  0  0  0
 27  4  1  0  0  0  0
 27 25  1  0  0  0  0
 27 28  1  1  0  0  0
 29 28  1  0  0  0  0
 30 28  1  0  0  0  0
M  END
>  <CHROM.1>
-131.87100204,0.87315713,106.86974110,64.93564570,63.99323895,26.40172457
40.18074773,23.01186409,1.48884882,-0.34010089,-2.37473788

>  <Name>
lig.pdb

>  <RI>
0

>  <Rbt.Current_Directory>
/home/itssahil/PROJECTS/Mol_Feturizer/New_Systems/rnas/6bfb

>  <Rbt.Executable>
rbdock ($Id: //depot/dev/client3/rdock/2013.1/src/exe/rbdock.cxx#4 $)

>  <Rbt.Library>
libRbt.so (2013.1, Build901 2013/11/27)

>  <Rbt.Parameter_File>
/export/apps/rDock/src/rDock_2013.1_src/data/scripts/dock_solv.prm

>  <Rbt.Receptor>
prm/blind_docking_80.prm

>  <SCORE>
-39.4514

>  <SCORE.INTER>
-34.3974

>  <SCORE.INTER.CONST>
1

>  <SCORE.INTER.POLAR>
-0.959166

>  <SCORE.INTER.ROT>
3

>  <SCORE.INTER.SOLV>
10.8143

>  <SCORE.INTER.VDW>
-28.9391

>  <SCORE.INTER.norm>
-1.14658

>  <SCORE.INTRA>
-5.05405

>  <SCORE.INTRA.DIHEDRAL>
-7.47103

>  <SCORE.INTRA.DIHEDRAL.0>
9.41909

>  <SCORE.INTRA.POLAR>
0

>  <SCORE.INTRA.POLAR.0>
0

>  <SCORE.INTRA.REPUL>
0

>  <SCORE.INTRA.REPUL.0>
0

>  <SCORE.INTRA.SOLV>
-0.232849

>  <SCORE.INTRA.SOLV.lig_0>
-26.2491

>  <SCORE.INTRA.VDW>
-1.20212

>  <SCORE.INTRA.VDW.0>
2.57239

>  <SCORE.INTRA.norm>
-0.168468

>  <SCORE.RESTR>
0

>  <SCORE.RESTR.CAVITY>
0

>  <SCORE.RESTR.norm>
0

>  <SCORE.SYSTEM>
0

>  <SCORE.SYSTEM.CONST>
0

>  <SCORE.SYSTEM.DIHEDRAL>
0

>  <SCORE.SYSTEM.SOLV>
0

>  <SCORE.SYSTEM.norm>
0

>  <SCORE.heavy>
30

>  <SCORE.norm>
-1.31505

>  <RMSD>
0.913

$$$$
lig.pdb
 OpenBabel11021811523D
libRbt.so/2013.1/901 2013/11/27
 30 34  0  0  0  0  0  0  0  0999 V2000
   25.6032   38.2635   21.1526 N   0  0  0  0  0  0  0  0  0  0  0  0
   27.0346   41.8943   24.1983 N   0  0  0  0  0  0  0  0  0  0  0  0
   26.8335   37.4723   21.0536 C   0  0  0  0  0  0  0  0  0  0  0  0
   26.5560   36.6223   19.8227 C   0  0  2  0  0  0  0  0  0  0  0  0
   25.3646   39.1155   22.3122 C   0  0  0  0  0  0  0  0  0  0  0  0
   24.2103   39.0322   23.1175 C   0  0  0  0  0  0  0  0  0  0  0  0
   23.9695   39.8513   24.1922 C   0  0  0  0  0  0  0  0  0  0  0  0
   24.6071   41.7589   25.6714 C   0  0  0  0  0  0  0  0  0  0  0  0
   29.0874   42.8471   24.1781 C   0  0  0  0  0  0  0  0  0  0  0  0
   28.5923   40.7864   22.6850 C   0  0  0  0  0  0  0  0  0  0  0  0
   26.3194   40.1054   22.6792 C   0  0  0  0  0  0  0  0  0  0  0  0
   24.3968   44.5018   27.0104 O   0  0  0  0  0  0  0  0  0  0  0  0
   25.3993   43.7843   27.0268 C   0  0  0  0  0  0  0  0  0  0  0  0
   26.3186   43.8637   27.9810 O   0  0  0  0  0  0  0  0  0  0  0  0
   25.6412   42.7898   25.9478 C   0  0  1  0  0  0  0  0  0  0  0  0
   23.5853   41.6388   26.3558 O   0  0  0  0  0  0  0  0  0  0  0  0
   26.8421   42.8236   25.2179 C   0  0  0  0  0  0  0  0  0  0  0  0
   28.3186   41.8982   23.6353 C   0  0  0  0  0  0  0  0  0  0  0  0
   28.2819   43.7349   25.4046 S   0  0  0  0  0  0  0  0  0  0  0  0
   26.0827   40.9345   23.7990 C   0  0  0  0  0  0  0  0  0  0  0  0
   24.8965   40.8329   24.5421 C   0  0  0  0  0  0  0  0  0  0  0  0
   23.2945   38.0813   22.8444 F   0  0  0  0  0  0  0  0  0  0  0  0
   27.4671   40.3139   21.8983 N   0  0  0  0  0  0  0  0  0  0  0  0
   27.1582   41.0924   20.7179 C   0  0  0  0  0  0  0  0  0  0  0  0
   24.5029   37.6324   20.4327 C   0  0  0  0  0  0  0  0  0  0  0  0
   27.5569   36.8056   18.8204 O   0  0  0  0  0  0  0  0  0  0  0  0
   25.2606   37.1466   19.2085 C   0  0  2  0  0  0  0  0  0  0  0  0
   24.6372   36.0525   18.4398 N   0  0  0  0  0  0  0  0  0  0  0  0
   23.1631   36.0597   18.4174 C   0  0  0  0  0  0  0  0  0  0  0  0
   25.2167   35.8835   17.0984 C   0  0  0  0  0  0  0  0  0  0  0  0
  1  5  1  0  0  0  0
  2 17  1  0  0  0  0
  3  1  1  0  0  0  0
  4  3  1  0  0  0  0
  4 26  1  6  0  0  0
  5 11  2  0  0  0  0
  5  6  1  0  0  0  0
  6  7  2  0  0  0  0
  7 21  1  0  0  0  0
  8 15  1  0  0  0  0
  8 16  2  0  0  0  0
  9 19  1  0  0  0  0
 10 18  1  0  0  0  0
 11 20  1  0  0  0  0
 13 14  1  0  0  0  0
 13 12  2  0  0  0  0
 15 13  1  1  0  0  0
 17 19  2  0  0  0  0
 17 15  1  0  0  0  0
 18  2  1  0  0  0  0
 18  9  2  0  0  0  0
 20 21  2  0  0  0  0
 20  2  1  0  0  0  0
 21  8  1  0  0  0  0
 22  6  1  0  0  0  0
 23 11  1  0  0  0  0
 23 10  1  0  0  0  0
 24 23  1  0  0  0  0
 25  1  1  0  0  0  0
 27  4  1  0  0  0  0
 27 25  1  0  0  0  0
 27 28  1  1  0  0  0
 29 28  1  0  0  0  0
 30 28  1  0  0  0  0
M  END
>  <CHROM.1>
-125.15191180,1.63340799,-56.62431452,164.18234169,147.27835178,25.93683027
40.22070728,22.92677928,1.68795667,-0.37206143,-2.27985417

>  <Name>
lig.pdb

>  <RI>
0

>  <Rbt.Current_Directory>
/home/itssahil/PROJECTS/Mol_Feturizer/New_Systems/rnas/6bfb

>  <Rbt.Executable>
rbdock ($Id: //depot/dev/client3/rdock/2013.1/src/exe/rbdock.cxx#4 $)

>  <Rbt.Library>
libRbt.so (2013.1, Build901 2013/11/27)

>  <Rbt.Parameter_File>
/export/apps/rDock/src/rDock_2013.1_src/data/scripts/dock_solv.prm

>  <Rbt.Receptor>
prm/pocket_docking_2.prm

>  <SCORE>
-34.7988

>  <SCORE.INTER>
-31.3699

>  <SCORE.INTER.CONST>
1

>  <SCORE.INTER.POLAR>
0

>  <SCORE.INTER.ROT>
3

>  <SCORE.INTER.SOLV>
10.1813

>  <SCORE.INTER.VDW>
-29.907

>  <SCORE.INTER.norm>
-1.04566

>  <SCORE.INTRA>
-3.42895

>  <SCORE.INTRA.DIHEDRAL>
-5.63782

>  <SCORE.INTRA.DIHEDRAL.0>
9.41909

>  <SCORE.INTRA.POLAR>
0

>  <SCORE.INTRA.POLAR.0>
0

>  <SCORE.INTRA.REPUL>
0.0172963

>  <SCORE.INTRA.REPUL.0>
0

>  <SCORE.INTRA.SOLV>
-0.137095

>  <SCORE.INTRA.SOLV.lig_0>
-26.2491

>  <SCORE.INTRA.VDW>
-0.627977

>  <SCORE.INTRA.VDW.0>
2.57239

>  <SCORE.INTRA.norm>
-0.114298

>  <SCORE.RESTR>
0

>  <SCORE.RESTR.CAVITY>
0

>  <SCORE.RESTR.norm>
0

>  <SCORE.SYSTEM>
0

>  <SCORE.SYSTEM.CONST>
0

>  <SCORE.SYSTEM.DIHEDRAL>
0

>  <SCORE.SYSTEM.SOLV>
0

>  <SCORE.SYSTEM.norm>
0

>  <SCORE.heavy>
30

>  <SCORE.norm>
-1.15996

>  <RMSD>
0.913

$$$$
lig.pdb
 OpenBabel11021811523D
libRbt.so/2013.1/901 2013/11/27
 30 34  0  0  0  0  0  0  0  0999 V2000
   26.6631   38.3181   21.0342 N   0  0  0  0  0  0  0  0  0  0  0  0
   27.1204   41.9612   24.3547 N   0  0  0  0  0  0  0  0  0  0  0  0
   27.9650   37.6544   21.1529 C   0  0  0  0  0  0  0  0  0  0  0  0
   28.0087   36.8291   19.8757 C   0  0  2  0  0  0  0  0  0  0  0  0
   26.1280   39.0981   22.1445 C   0  0  0  0  0  0  0  0  0  0  0  0
   24.8621   38.8681   22.7211 C   0  0  0  0  0  0  0  0  0  0  0  0
   24.3438   39.6183   23.7470 C   0  0  0  0  0  0  0  0  0  0  0  0
   24.4942   41.5252   25.3516 C   0  0  0  0  0  0  0  0  0  0  0  0
   29.0290   43.1183   24.7307 C   0  0  0  0  0  0  0  0  0  0  0  0
   29.0367   41.0742   23.1360 C   0  0  0  0  0  0  0  0  0  0  0  0
   26.8888   40.1659   22.6987 C   0  0  0  0  0  0  0  0  0  0  0  0
   23.7959   44.2418   26.6450 O   0  0  0  0  0  0  0  0  0  0  0  0
   24.8057   43.5695   26.8651 C   0  0  0  0  0  0  0  0  0  0  0  0
   25.4741   43.6388   28.0098 O   0  0  0  0  0  0  0  0  0  0  0  0
   25.3446   42.6452   25.8322 C   0  0  1  0  0  0  0  0  0  0  0  0
   23.3838   41.2766   25.8333 O   0  0  0  0  0  0  0  0  0  0  0  0
   26.6476   42.8279   25.3373 C   0  0  0  0  0  0  0  0  0  0  0  0
   28.4775   42.1166   24.0387 C   0  0  0  0  0  0  0  0  0  0  0  0
   27.9236   43.8737   25.8026 S   0  0  0  0  0  0  0  0  0  0  0  0
   26.3651   40.9248   23.7698 C   0  0  0  0  0  0  0  0  0  0  0  0
   25.0814   40.6756   24.2792 C   0  0  0  0  0  0  0  0  0  0  0  0
   24.1182   37.8395   22.2670 F   0  0  0  0  0  0  0  0  0  0  0  0
   28.1303   40.5189   22.1470 N   0  0  0  0  0  0  0  0  0  0  0  0
   27.9598   41.3048   20.9436 C   0  0  0  0  0  0  0  0  0  0  0  0
   25.7857   37.6111   20.1082 C   0  0  0  0  0  0  0  0  0  0  0  0
   29.1536   37.1467   19.0831 O   0  0  0  0  0  0  0  0  0  0  0  0
   26.8026   37.2482   19.0392 C   0  0  2  0  0  0  0  0  0  0  0  0
   26.4476   36.1288   18.1460 N   0  0  0  0  0  0  0  0  0  0  0  0
   25.0563   36.1296   17.6585 C   0  0  0  0  0  0  0  0  0  0  0  0
   27.4205   35.9213   17.0624 C   0  0  0  0  0  0  0  0  0  0  0  0
  1  5  1  0  0  0  0
  2 17  1  0  0  0  0
  3  1  1  0  0  0  0
  4  3  1  0  0  0  0
  4 26  1  6  0  0  0
  5 11  2  0  0  0  0
  5  6  1  0  0  0  0
  6  7  2  0  0  0  0
  7 21  1  0  0  0  0
  8 15  1  0  0  0  0
  8 16  2  0  0  0  0
  9 19  1  0  0  0  0
 10 18  1  0  0  0  0
 11 20  1  0  0  0  0
 13 14  1  0  0  0  0
 13 12  2  0  0  0  0
 15 13  1  1  0  0  0
 17 19  2  0  0  0  0
 17 15  1  0  0  0  0
 18  2  1  0  0  0  0
 18  9  2  0  0  0  0
 20 21  2  0  0  0  0
 20  2  1  0  0  0  0
 21  8  1  0  0  0  0
 22  6  1  0  0  0  0
 23 11  1  0  0  0  0
 23 10  1  0  0  0  0
 24 23  1  0  0  0  0
 25  1  1  0  0  0  0
 27  4  1  0  0  0  0
 27 25  1  0  0  0  0
 27 28  1  1  0  0  0
 29 28  1  0  0  0  0
 30 28  1  0  0  0  0
M  END
>  <CHROM.1>
-124.81355997,-179.57483424,-61.01505235,64.78713484,157.47454297,26.46805961
40.23058582,22.87225422,1.46452375,-0.32015494,-2.32761571

>  <Name>
lig.pdb

>  <RI>
0

>  <Rbt.Current_Directory>
/home/itssahil/PROJECTS/Mol_Feturizer/New_Systems/rnas/6bfb

>  <Rbt.Executable>
rbdock ($Id: //depot/dev/client3/rdock/2013.1/src/exe/rbdock.cxx#4 $)

>  <Rbt.Library>
libRbt.so (2013.1, Build901 2013/11/27)

>  <Rbt.Parameter_File>
/export/apps/rDock/src/rDock_2013.1_src/data/scripts/dock_solv.prm

>  <Rbt.Receptor>
prm/pocket_docking_8.prm

>  <SCORE>
-39.1208

>  <SCORE.INTER>
-34.4058

>  <SCORE.INTER.CONST>
1

>  <SCORE.INTER.POLAR>
-0.958587

>  <SCORE.INTER.ROT>
3

>  <SCORE.INTER.SOLV>
10.4322

>  <SCORE.INTER.VDW>
-28.8193

>  <SCORE.INTER.norm>
-1.14686

>  <SCORE.INTRA>
-4.71506

>  <SCORE.INTRA.DIHEDRAL>
-7.22173

>  <SCORE.INTRA.DIHEDRAL.0>
9.41909

>  <SCORE.INTRA.POLAR>
0

>  <SCORE.INTRA.POLAR.0>
0

>  <SCORE.INTRA.REPUL>
0.0181747

>  <SCORE.INTRA.REPUL.0>
0

>  <SCORE.INTRA.SOLV>
-0.224401

>  <SCORE.INTRA.SOLV.lig_0>
-26.2491

>  <SCORE.INTRA.VDW>
-1.08286

>  <SCORE.INTRA.VDW.0>
2.57239

>  <SCORE.INTRA.norm>
-0.157169

>  <SCORE.RESTR>
0

>  <SCORE.RESTR.CAVITY>
0

>  <SCORE.RESTR.norm>
0

>  <SCORE.SYSTEM>
0

>  <SCORE.SYSTEM.CONST>
0

>  <SCORE.SYSTEM.DIHEDRAL>
0

>  <SCORE.SYSTEM.SOLV>
0

>  <SCORE.SYSTEM.norm>
0

>  <SCORE.heavy>
30

>  <SCORE.norm>
-1.30403

>  <RMSD>
0.913

$$$$
lig.pdb
 OpenBabel11021811523D
libRbt.so/2013.1/901 2013/11/27
 30 34  0  0  0  0  0  0  0  0999 V2000
   25.5391   38.2926   21.1268 N   0  0  0  0  0  0  0  0  0  0  0  0
   27.0098   41.8929   24.1898 N   0  0  0  0  0  0  0  0  0  0  0  0
   26.7848   37.5333   20.9811 C   0  0  0  0  0  0  0  0  0  0  0  0
   26.4882   36.6856   19.7532 C   0  0  2  0  0  0  0  0  0  0  0  0
   25.3176   39.1299   22.3005 C   0  0  0  0  0  0  0  0  0  0  0  0
   24.1779   39.0324   23.1248 C   0  0  0  0  0  0  0  0  0  0  0  0
   23.9529   39.8378   24.2132 C   0  0  0  0  0  0  0  0  0  0  0  0
   24.6092   41.7304   25.7035 C   0  0  0  0  0  0  0  0  0  0  0  0
   29.0584   42.8541   24.1450 C   0  0  0  0  0  0  0  0  0  0  0  0
   28.5449   40.8092   22.6364 C   0  0  0  0  0  0  0  0  0  0  0  0
   26.2749   40.1192   22.6623 C   0  0  0  0  0  0  0  0  0  0  0  0
   24.4609   44.5199   27.0317 O   0  0  0  0  0  0  0  0  0  0  0  0
   25.4173   43.7428   27.0688 C   0  0  0  0  0  0  0  0  0  0  0  0
   26.2994   43.7431   28.0607 O   0  0  0  0  0  0  0  0  0  0  0  0
   25.6440   42.7621   25.9740 C   0  0  1  0  0  0  0  0  0  0  0  0
   23.6000   41.5981   26.4042 O   0  0  0  0  0  0  0  0  0  0  0  0
   26.8317   42.8093   25.2236 C   0  0  0  0  0  0  0  0  0  0  0  0
   28.2837   41.9086   23.6046 C   0  0  0  0  0  0  0  0  0  0  0  0
   28.2711   43.7241   25.3959 S   0  0  0  0  0  0  0  0  0  0  0  0
   26.0547   40.9340   23.7959 C   0  0  0  0  0  0  0  0  0  0  0  0
   24.8822   40.8189   24.5584 C   0  0  0  0  0  0  0  0  0  0  0  0
   23.2611   38.0811   22.8565 F   0  0  0  0  0  0  0  0  0  0  0  0
   27.4079   40.3415   21.8641 N   0  0  0  0  0  0  0  0  0  0  0  0
   27.0754   41.1327   20.6986 C   0  0  0  0  0  0  0  0  0  0  0  0
   24.4317   37.6392   20.4382 C   0  0  0  0  0  0  0  0  0  0  0  0
   27.4506   36.9013   18.7202 O   0  0  0  0  0  0  0  0  0  0  0  0
   25.1606   37.1816   19.1860 C   0  0  2  0  0  0  0  0  0  0  0  0
   24.5396   36.0777   18.4293 N   0  0  0  0  0  0  0  0  0  0  0  0
   23.0774   36.1712   18.2660 C   0  0  0  0  0  0  0  0  0  0  0  0
   25.2270   35.7854   17.1621 C   0  0  0  0  0  0  0  0  0  0  0  0
  1  5  1  0  0  0  0
  2 17  1  0  0  0  0
  3  1  1  0  0  0  0
  4  3  1  0  0  0  0
  4 26  1  6  0  0  0
  5 11  2  0  0  0  0
  5  6  1  0  0  0  0
  6  7  2  0  0  0  0
  7 21  1  0  0  0  0
  8 15  1  0  0  0  0
  8 16  2  0  0  0  0
  9 19  1  0  0  0  0
 10 18  1  0  0  0  0
 11 20  1  0  0  0  0
 13 14  1  0  0  0  0
 13 12  2  0  0  0  0
 15 13  1  1  0  0  0
 17 19  2  0  0  0  0
 17 15  1  0  0  0  0
 18  2  1  0  0  0  0
 18  9  2  0  0  0  0
 20 21  2  0  0  0  0
 20  2  1  0  0  0  0
 21  8  1  0  0  0  0
 22  6  1  0  0  0  0
 23 11  1  0  0  0  0
 23 10  1  0  0  0  0
 24 23  1  0  0  0  0
 25  1  1  0  0  0  0
 27  4  1  0  0  0  0
 27 25  1  0  0  0  0
 27 28  1  1  0  0  0
 29 28  1  0  0  0  0
 30 28  1  0  0  0  0
M  END
>  <CHROM.1>
-126.66601165,2.46871831,-61.64845664,63.72073850,157.00708063,25.90437608
40.22676094,22.91958839,1.69575012,-0.38461188,-2.26658315

>  <Name>
lig.pdb

>  <RI>
0

>  <Rbt.Current_Directory>
/home/itssahil/PROJECTS/Mol_Feturizer/New_Systems/rnas/6bfb

>  <Rbt.Executable>
rbdock ($Id: //depot/dev/client3/rdock/2013.1/src/exe/rbdock.cxx#4 $)

>  <Rbt.Library>
libRbt.so (2013.1, Build901 2013/11/27)

>  <Rbt.Parameter_File>
/export/apps/rDock/src/rDock_2013.1_src/data/scripts/dock_solv.prm

>  <Rbt.Receptor>
prm/pocket_docking_2.prm

>  <SCORE>
-36.6163

>  <SCORE.INTER>
-31.6926

>  <SCORE.INTER.CONST>
1

>  <SCORE.INTER.POLAR>
0

>  <SCORE.INTER.ROT>
3

>  <SCORE.INTER.SOLV>
10.3632

>  <SCORE.INTER.VDW>
-30.1828

>  <SCORE.INTER.norm>
-1.05642

>  <SCORE.INTRA>
-4.92368

>  <SCORE.INTRA.DIHEDRAL>
-7.21451

>  <SCORE.INTRA.DIHEDRAL.0>
9.41909

>  <SCORE.INTRA.POLAR>
0

>  <SCORE.INTRA.POLAR.0>
0

>  <SCORE.INTRA.REPUL>
0.01335

>  <SCORE.INTRA.REPUL.0>
0

>  <SCORE.INTRA.SOLV>
-0.150417

>  <SCORE.INTRA.SOLV.lig_0>
-26.2491

>  <SCORE.INTRA.VDW>
-1.30796

>  <SCORE.INTRA.VDW.0>
2.57239

>  <SCORE.INTRA.norm>
-0.164123

>  <SCORE.RESTR>
0

>  <SCORE.RESTR.CAVITY>
0

>  <SCORE.RESTR.norm>
0

>  <SCORE.SYSTEM>
0

>  <SCORE.SYSTEM.CONST>
0

>  <SCORE.SYSTEM.DIHEDRAL>
0

>  <SCORE.SYSTEM.SOLV>
0

>  <SCORE.SYSTEM.norm>
0

>  <SCORE.heavy>
30

>  <SCORE.norm>
-1.22054

>  <RMSD>
0.917

$$$$
lig.pdb
 OpenBabel11021811523D
libRbt.so/2013.1/901 2013/11/27
 30 34  0  0  0  0  0  0  0  0999 V2000
   25.5458   38.3147   21.1408 N   0  0  0  0  0  0  0  0  0  0  0  0
   27.0016   41.9192   24.2061 N   0  0  0  0  0  0  0  0  0  0  0  0
   26.7808   37.5348   21.0139 C   0  0  0  0  0  0  0  0  0  0  0  0
   26.4904   36.6949   19.7792 C   0  0  2  0  0  0  0  0  0  0  0  0
   25.3190   39.1531   22.3126 C   0  0  0  0  0  0  0  0  0  0  0  0
   24.1760   39.0557   23.1324 C   0  0  0  0  0  0  0  0  0  0  0  0
   23.9460   39.8620   24.2190 C   0  0  0  0  0  0  0  0  0  0  0  0
   24.5949   41.7566   25.7101 C   0  0  0  0  0  0  0  0  0  0  0  0
   29.0497   42.8817   24.1687 C   0  0  0  0  0  0  0  0  0  0  0  0
   28.5438   40.8349   22.6601 C   0  0  0  0  0  0  0  0  0  0  0  0
   26.2742   40.1434   22.6774 C   0  0  0  0  0  0  0  0  0  0  0  0
   24.4195   44.5231   27.0524 O   0  0  0  0  0  0  0  0  0  0  0  0
   25.3961   43.7709   27.0766 C   0  0  0  0  0  0  0  0  0  0  0  0
   26.2958   43.8002   28.0521 O   0  0  0  0  0  0  0  0  0  0  0  0
   25.6279   42.7893   25.9838 C   0  0  1  0  0  0  0  0  0  0  0  0
   23.5829   41.6244   26.4068 O   0  0  0  0  0  0  0  0  0  0  0  0
   26.8187   42.8365   25.2382 C   0  0  0  0  0  0  0  0  0  0  0  0
   28.2779   41.9351   23.6260 C   0  0  0  0  0  0  0  0  0  0  0  0
   28.2567   43.7525   25.4154 S   0  0  0  0  0  0  0  0  0  0  0  0
   26.0488   40.9593   23.8093 C   0  0  0  0  0  0  0  0  0  0  0  0
   24.8732   40.8441   24.5671 C   0  0  0  0  0  0  0  0  0  0  0  0
   23.2609   38.1035   22.8613 F   0  0  0  0  0  0  0  0  0  0  0  0
   27.4102   40.3657   21.8836 N   0  0  0  0  0  0  0  0  0  0  0  0
   27.0820   41.1554   20.7159 C   0  0  0  0  0  0  0  0  0  0  0  0
   24.4392   37.6817   20.4322 C   0  0  0  0  0  0  0  0  0  0  0  0
   27.4734   36.8966   18.7628 O   0  0  0  0  0  0  0  0  0  0  0  0
   25.1810   37.2145   19.1912 C   0  0  2  0  0  0  0  0  0  0  0  0
   24.5542   36.1231   18.4215 N   0  0  0  0  0  0  0  0  0  0  0  0
   23.0937   36.2306   18.2523 C   0  0  0  0  0  0  0  0  0  0  0  0
   25.2450   35.8363   17.1549 C   0  0  0  0  0  0  0  0  0  0  0  0
  1  5  1  0  0  0  0
  2 17  1  0  0  0  0
  3  1  1  0  0  0  0
  4  3  1  0  0  0  0
  4 26  1  6  0  0  0
  5 11  2  0  0  0  0
  5  6  1  0  0  0  0
  6  7  2  0  0  0  0
  7 21  1  0  0  0  0
  8 15  1  0  0  0  0
  8 16  2  0  0  0  0
  9 19  1  0  0  0  0
 10 18  1  0  0  0  0
 11 20  1  0  0  0  0
 13 14  1  0  0  0  0
 13 12  2  0  0  0  0
 15 13  1  1  0  0  0
 17 19  2  0  0  0  0
 17 15  1  0  0  0  0
 18  2  1  0  0  0  0
 18  9  2  0  0  0  0
 20 21  2  0  0  0  0
 20  2  1  0  0  0  0
 21  8  1  0  0  0  0
 22  6  1  0  0  0  0
 23 11  1  0  0  0  0
 23 10  1  0  0  0  0
 24 23  1  0  0  0  0
 25  1  1  0  0  0  0
 27  4  1  0  0  0  0
 27 25  1  0  0  0  0
 27 28  1  1  0  0  0
 29 28  1  0  0  0  0
 30 28  1  0  0  0  0
M  END
>  <CHROM.1>
-125.41307355,2.28177941,-59.70466218,61.91387374,156.08620670,25.90164974
40.25368360,22.93144265,1.69210908,-0.37987683,-2.26795579

>  <Name>
lig.pdb

>  <RI>
0

>  <Rbt.Current_Directory>
/home/itssahil/PROJECTS/Mol_Feturizer/New_Systems/rnas/6bfb

>  <Rbt.Executable>
rbdock ($Id: //depot/dev/client3/rdock/2013.1/src/exe/rbdock.cxx#4 $)

>  <Rbt.Library>
libRbt.so (2013.1, Build901 2013/11/27)

>  <Rbt.Parameter_File>
/export/apps/rDock/src/rDock_2013.1_src/data/scripts/dock_solv.prm

>  <Rbt.Receptor>
prm/pocket_docking_2.prm

>  <SCORE>
-36.5841

>  <SCORE.INTER>
-31.608

>  <SCORE.INTER.CONST>
1

>  <SCORE.INTER.POLAR>
0

>  <SCORE.INTER.ROT>
3

>  <SCORE.INTER.SOLV>
10.3739

>  <SCORE.INTER.VDW>
-30.13

>  <SCORE.INTER.norm>
-1.0536

>  <SCORE.INTRA>
-4.97606

>  <SCORE.INTRA.DIHEDRAL>
-7.22483

>  <SCORE.INTRA.DIHEDRAL.0>
9.41909

>  <SCORE.INTRA.POLAR>
0

>  <SCORE.INTRA.POLAR.0>
0

>  <SCORE.INTRA.REPUL>
0.0166175

>  <SCORE.INTRA.REPUL.0>
0

>  <SCORE.INTRA.SOLV>
-0.157081

>  <SCORE.INTRA.SOLV.lig_0>
-26.2491

>  <SCORE.INTRA.VDW>
-1.36819

>  <SCORE.INTRA.VDW.0>
2.57239

>  <SCORE.INTRA.norm>
-0.165869

>  <SCORE.RESTR>
0

>  <SCORE.RESTR.CAVITY>
0

>  <SCORE.RESTR.norm>
0

>  <SCORE.SYSTEM>
0

>  <SCORE.SYSTEM.CONST>
0

>  <SCORE.SYSTEM.DIHEDRAL>
0

>  <SCORE.SYSTEM.SOLV>
0

>  <SCORE.SYSTEM.norm>
0

>  <SCORE.heavy>
30

>  <SCORE.norm>
-1.21947

>  <RMSD>
0.920

$$$$
lig.pdb
 OpenBabel11021811523D
libRbt.so/2013.1/901 2013/11/27
 30 34  0  0  0  0  0  0  0  0999 V2000
   25.5622   38.2976   21.1092 N   0  0  0  0  0  0  0  0  0  0  0  0
   27.0487   41.9112   24.1487 N   0  0  0  0  0  0  0  0  0  0  0  0
   26.8119   37.5487   20.9455 C   0  0  0  0  0  0  0  0  0  0  0  0
   26.5043   36.6976   19.7226 C   0  0  2  0  0  0  0  0  0  0  0  0
   25.3511   39.1338   22.2855 C   0  0  0  0  0  0  0  0  0  0  0  0
   24.2243   39.0279   23.1262 C   0  0  0  0  0  0  0  0  0  0  0  0
   24.0087   39.8322   24.2173 C   0  0  0  0  0  0  0  0  0  0  0  0
   24.6716   41.7309   25.6971 C   0  0  0  0  0  0  0  0  0  0  0  0
   29.0888   42.8885   24.0738 C   0  0  0  0  0  0  0  0  0  0  0  0
   28.5697   40.8386   22.5738 C   0  0  0  0  0  0  0  0  0  0  0  0
   26.3058   40.1308   22.6330 C   0  0  0  0  0  0  0  0  0  0  0  0
   24.5914   44.5978   26.9704 O   0  0  0  0  0  0  0  0  0  0  0  0
   25.4835   43.7504   27.0494 C   0  0  0  0  0  0  0  0  0  0  0  0
   26.3019   43.6704   28.0914 O   0  0  0  0  0  0  0  0  0  0  0  0
   25.7020   42.7708   25.9520 C   0  0  1  0  0  0  0  0  0  0  0  0
   23.6736   41.5911   26.4123 O   0  0  0  0  0  0  0  0  0  0  0  0
   26.8784   42.8269   25.1845 C   0  0  0  0  0  0  0  0  0  0  0  0
   28.3138   41.9366   23.5451 C   0  0  0  0  0  0  0  0  0  0  0  0
   28.3129   43.7531   25.3355 S   0  0  0  0  0  0  0  0  0  0  0  0
   26.0956   40.9447   23.7692 C   0  0  0  0  0  0  0  0  0  0  0  0
   24.9351   40.8208   24.5486 C   0  0  0  0  0  0  0  0  0  0  0  0
   23.3112   38.0693   22.8717 F   0  0  0  0  0  0  0  0  0  0  0  0
   27.4253   40.3616   21.8183 N   0  0  0  0  0  0  0  0  0  0  0  0
   27.0698   41.1494   20.6573 C   0  0  0  0  0  0  0  0  0  0  0  0
   24.4503   37.6344   20.4375 C   0  0  0  0  0  0  0  0  0  0  0  0
   27.4494   36.9206   18.6753 O   0  0  0  0  0  0  0  0  0  0  0  0
   25.1643   37.1819   19.1749 C   0  0  2  0  0  0  0  0  0  0  0  0
   24.5415   36.0724   18.4282 N   0  0  0  0  0  0  0  0  0  0  0  0
   23.0846   36.1849   18.2330 C   0  0  0  0  0  0  0  0  0  0  0  0
   25.2497   35.7434   17.1815 C   0  0  0  0  0  0  0  0  0  0  0  0
  1  5  1  0  0  0  0
  2 17  1  0  0  0  0
  3  1  1  0  0  0  0
  4  3  1  0  0  0  0
  4 26  1  6  0  0  0
  5 11  2  0  0  0  0
  5  6  1  0  0  0  0
  6  7  2  0  0  0  0
  7 21  1  0  0  0  0
  8 15  1  0  0  0  0
  8 16  2  0  0  0  0
  9 19  1  0  0  0  0
 10 18  1  0  0  0  0
 11 20  1  0  0  0  0
 13 14  1  0  0  0  0
 13 12  2  0  0  0  0
 15 13  1  1  0  0  0
 17 19  2  0  0  0  0
 17 15  1  0  0  0  0
 18  2  1  0  0  0  0
 18  9  2  0  0  0  0
 20 21  2  0  0  0  0
 20  2  1  0  0  0  0
 21  8  1  0  0  0  0
 22  6  1  0  0  0  0
 23 11  1  0  0  0  0
 23 10  1  0  0  0  0
 24 23  1  0  0  0  0
 25  1  1  0  0  0  0
 27  4  1  0  0  0  0
 27 25  1  0  0  0  0
 27 28  1  1  0  0  0
 29 28  1  0  0  0  0
 30 28  1  0  0  0  0
M  END
>  <CHROM.1>
-126.70554681,-179.49768288,-68.08505537,-59.57733125,159.69893202,25.93919161
40.23439944,22.89192451,1.70362038,-0.40430785,-2.26211399

>  <Name>
lig.pdb

>  <RI>
0

>  <Rbt.Current_Directory>
/home/itssahil/PROJECTS/Mol_Feturizer/New_Systems/rnas/6bfb

>  <Rbt.Executable>
rbdock ($Id: //depot/dev/client3/rdock/2013.1/src/exe/rbdock.cxx#4 $)

>  <Rbt.Library>
libRbt.so (2013.1, Build901 2013/11/27)

>  <Rbt.Parameter_File>
/export/apps/rDock/src/rDock_2013.1_src/data/scripts/dock_solv.prm

>  <Rbt.Receptor>
prm/pocket_docking_2.prm

>  <SCORE>
-36.2562

>  <SCORE.INTER>
-31.9335

>  <SCORE.INTER.CONST>
1

>  <SCORE.INTER.POLAR>
0

>  <SCORE.INTER.ROT>
3

>  <SCORE.INTER.SOLV>
10.4699

>  <SCORE.INTER.VDW>
-30.3789

>  <SCORE.INTER.norm>
-1.06445

>  <SCORE.INTRA>
-4.32275

>  <SCORE.INTRA.DIHEDRAL>
-7.43035

>  <SCORE.INTRA.DIHEDRAL.0>
9.41909

>  <SCORE.INTRA.POLAR>
0

>  <SCORE.INTRA.POLAR.0>
0

>  <SCORE.INTRA.REPUL>
0.0132466

>  <SCORE.INTRA.REPUL.0>
0

>  <SCORE.INTRA.SOLV>
-0.191632

>  <SCORE.INTRA.SOLV.lig_0>
-26.2491

>  <SCORE.INTRA.VDW>
-0.577994

>  <SCORE.INTRA.VDW.0>
2.57239

>  <SCORE.INTRA.norm>
-0.144092

>  <SCORE.RESTR>
0

>  <SCORE.RESTR.CAVITY>
0

>  <SCORE.RESTR.norm>
0

>  <SCORE.SYSTEM>
0

>  <SCORE.SYSTEM.CONST>
0

>  <SCORE.SYSTEM.DIHEDRAL>
0

>  <SCORE.SYSTEM.SOLV>
0

>  <SCORE.SYSTEM.norm>
0

>  <SCORE.heavy>
30

>  <SCORE.norm>
-1.20854

>  <RMSD>
0.923

$$$$
lig.pdb
 OpenBabel11021811523D
libRbt.so/2013.1/901 2013/11/27
 30 34  0  0  0  0  0  0  0  0999 V2000
   25.5572   38.2932   21.1325 N   0  0  0  0  0  0  0  0  0  0  0  0
   27.0344   41.8912   24.1952 N   0  0  0  0  0  0  0  0  0  0  0  0
   26.8003   37.5283   20.9938 C   0  0  0  0  0  0  0  0  0  0  0  0
   26.5049   36.6785   19.7671 C   0  0  2  0  0  0  0  0  0  0  0  0
   25.3348   39.1347   22.3030 C   0  0  0  0  0  0  0  0  0  0  0  0
   24.1900   39.0466   23.1212 C   0  0  0  0  0  0  0  0  0  0  0  0
   23.9642   39.8559   24.2065 C   0  0  0  0  0  0  0  0  0  0  0  0
   24.6245   41.7478   25.6960 C   0  0  0  0  0  0  0  0  0  0  0  0
   29.0894   42.8391   24.1594 C   0  0  0  0  0  0  0  0  0  0  0  0
   28.5710   40.7940   22.6527 C   0  0  0  0  0  0  0  0  0  0  0  0
   26.2965   40.1187   22.6678 C   0  0  0  0  0  0  0  0  0  0  0  0
   24.4537   44.5003   27.0470 O   0  0  0  0  0  0  0  0  0  0  0  0
   25.4382   43.7582   27.0610 C   0  0  0  0  0  0  0  0  0  0  0  0
   26.3512   43.8014   28.0235 O   0  0  0  0  0  0  0  0  0  0  0  0
   25.6645   42.7735   25.9698 C   0  0  1  0  0  0  0  0  0  0  0  0
   23.6107   41.6237   26.3915 O   0  0  0  0  0  0  0  0  0  0  0  0
   26.8566   42.8112   25.2258 C   0  0  0  0  0  0  0  0  0  0  0  0
   28.3116   41.8973   23.6169 C   0  0  0  0  0  0  0  0  0  0  0  0
   28.3009   43.7171   25.4038 S   0  0  0  0  0  0  0  0  0  0  0  0
   26.0753   40.9376   23.7983 C   0  0  0  0  0  0  0  0  0  0  0  0
   24.8979   40.8319   24.5546 C   0  0  0  0  0  0  0  0  0  0  0  0
   23.2685   38.1006   22.8502 F   0  0  0  0  0  0  0  0  0  0  0  0
   27.4352   40.3318   21.8753 N   0  0  0  0  0  0  0  0  0  0  0  0
   27.1142   41.1223   20.7061 C   0  0  0  0  0  0  0  0  0  0  0  0
   24.4498   37.6426   20.4414 C   0  0  0  0  0  0  0  0  0  0  0  0
   27.4722   36.8873   18.7372 O   0  0  0  0  0  0  0  0  0  0  0  0
   25.1816   37.1784   19.1934 C   0  0  2  0  0  0  0  0  0  0  0  0
   24.5589   36.0751   18.4373 N   0  0  0  0  0  0  0  0  0  0  0  0
   23.0971   36.1716   18.2725 C   0  0  0  0  0  0  0  0  0  0  0  0
   25.2468   35.7797   17.1711 C   0  0  0  0  0  0  0  0  0  0  0  0
  1  5  1  0  0  0  0
  2 17  1  0  0  0  0
  3  1  1  0  0  0  0
  4  3  1  0  0  0  0
  4 26  1  6  0  0  0
  5 11  2  0  0  0  0
  5  6  1  0  0  0  0
  6  7  2  0  0  0  0
  7 21  1  0  0  0  0
  8 15  1  0  0  0  0
  8 16  2  0  0  0  0
  9 19  1  0  0  0  0
 10 18  1  0  0  0  0
 11 20  1  0  0  0  0
 13 14  1  0  0  0  0
 13 12  2  0  0  0  0
 15 13  1  1  0  0  0
 17 19  2  0  0  0  0
 17 15  1  0  0  0  0
 18  2  1  0  0  0  0
 18  9  2  0  0  0  0
 20 21  2  0  0  0  0
 20  2  1  0  0  0  0
 21  8  1  0  0  0  0
 22  6  1  0  0  0  0
 23 11  1  0  0  0  0
 23 10  1  0  0  0  0
 24 23  1  0  0  0  0
 25  1  1  0  0  0  0
 27  4  1  0  0  0  0
 27 25  1  0  0  0  0
 27 28  1  1  0  0  0
 29 28  1  0  0  0  0
 30 28  1  0  0  0  0
M  END
>  <CHROM.1>
-126.82674669,1.41132706,-58.35723954,63.64530390,156.78589890,25.92534863
40.22930638,22.92281367,1.69599255,-0.37578835,-2.26929743

>  <Name>
lig.pdb

>  <RI>
0

>  <Rbt.Current_Directory>
/home/itssahil/PROJECTS/Mol_Feturizer/New_Systems/rnas/6bfb

>  <Rbt.Executable>
rbdock ($Id: //depot/dev/client3/rdock/2013.1/src/exe/rbdock.cxx#4 $)

>  <Rbt.Library>
libRbt.so (2013.1, Build901 2013/11/27)

>  <Rbt.Parameter_File>
/export/apps/rDock/src/rDock_2013.1_src/data/scripts/dock_solv.prm

>  <Rbt.Receptor>
prm/pocket_docking_2.prm

>  <SCORE>
-36.5494

>  <SCORE.INTER>
-31.6464

>  <SCORE.INTER.CONST>
1

>  <SCORE.INTER.POLAR>
0

>  <SCORE.INTER.ROT>
3

>  <SCORE.INTER.SOLV>
10.3076

>  <SCORE.INTER.VDW>
-30.1335

>  <SCORE.INTER.norm>
-1.05488

>  <SCORE.INTRA>
-4.90296

>  <SCORE.INTRA.DIHEDRAL>
-7.22756

>  <SCORE.INTRA.DIHEDRAL.0>
9.41909

>  <SCORE.INTRA.POLAR>
0

>  <SCORE.INTRA.POLAR.0>
0

>  <SCORE.INTRA.REPUL>
0.0129296

>  <SCORE.INTRA.REPUL.0>
0

>  <SCORE.INTRA.SOLV>
-0.146145

>  <SCORE.INTRA.SOLV.lig_0>
-26.2491

>  <SCORE.INTRA.VDW>
-1.28076

>  <SCORE.INTRA.VDW.0>
2.57239

>  <SCORE.INTRA.norm>
-0.163432

>  <SCORE.RESTR>
0

>  <SCORE.RESTR.CAVITY>
0

>  <SCORE.RESTR.norm>
0

>  <SCORE.SYSTEM>
0

>  <SCORE.SYSTEM.CONST>
0

>  <SCORE.SYSTEM.DIHEDRAL>
0

>  <SCORE.SYSTEM.SOLV>
0

>  <SCORE.SYSTEM.norm>
0

>  <SCORE.heavy>
30

>  <SCORE.norm>
-1.21831

>  <RMSD>
0.923

$$$$
lig.pdb
 OpenBabel11021811523D
libRbt.so/2013.1/901 2013/11/27
 30 34  0  0  0  0  0  0  0  0999 V2000
   25.5710   38.3045   21.1469 N   0  0  0  0  0  0  0  0  0  0  0  0
   27.0151   41.9235   24.2004 N   0  0  0  0  0  0  0  0  0  0  0  0
   26.8347   37.5755   21.0014 C   0  0  0  0  0  0  0  0  0  0  0  0
   26.5505   36.7034   19.7877 C   0  0  2  0  0  0  0  0  0  0  0  0
   25.3372   39.1521   22.3107 C   0  0  0  0  0  0  0  0  0  0  0  0
   24.1862   39.0658   23.1203 C   0  0  0  0  0  0  0  0  0  0  0  0
   23.9498   39.8808   24.1991 C   0  0  0  0  0  0  0  0  0  0  0  0
   24.5937   41.7828   25.6830 C   0  0  0  0  0  0  0  0  0  0  0  0
   29.0680   42.8762   24.1756 C   0  0  0  0  0  0  0  0  0  0  0  0
   28.5665   40.8212   22.6766 C   0  0  0  0  0  0  0  0  0  0  0  0
   26.2936   40.1404   22.6775 C   0  0  0  0  0  0  0  0  0  0  0  0
   24.3892   44.5205   27.0332 O   0  0  0  0  0  0  0  0  0  0  0  0
   25.3917   43.8029   27.0428 C   0  0  0  0  0  0  0  0  0  0  0  0
   26.3149   43.8786   27.9935 O   0  0  0  0  0  0  0  0  0  0  0  0
   25.6290   42.8125   25.9591 C   0  0  1  0  0  0  0  0  0  0  0  0
   23.5747   41.6602   26.3710 O   0  0  0  0  0  0  0  0  0  0  0  0
   26.8269   42.8489   25.2243 C   0  0  0  0  0  0  0  0  0  0  0  0
   28.2968   41.9295   23.6323 C   0  0  0  0  0  0  0  0  0  0  0  0
   28.2676   43.7594   25.4086 S   0  0  0  0  0  0  0  0  0  0  0  0
   26.0615   40.9653   23.8014 C   0  0  0  0  0  0  0  0  0  0  0  0
   24.8784   40.8610   24.5490 C   0  0  0  0  0  0  0  0  0  0  0  0
   23.2691   38.1160   22.8474 F   0  0  0  0  0  0  0  0  0  0  0  0
   27.4381   40.3519   21.8928 N   0  0  0  0  0  0  0  0  0  0  0  0
   27.1245   41.1349   20.7166 C   0  0  0  0  0  0  0  0  0  0  0  0
   24.4755   37.6133   20.4764 C   0  0  0  0  0  0  0  0  0  0  0  0
   27.4988   36.9294   18.7440 O   0  0  0  0  0  0  0  0  0  0  0  0
   25.2061   37.1571   19.2247 C   0  0  2  0  0  0  0  0  0  0  0  0
   24.6079   36.0272   18.4884 N   0  0  0  0  0  0  0  0  0  0  0  0
   23.1355   35.9622   18.5235 C   0  0  0  0  0  0  0  0  0  0  0  0
   25.1428   35.8750   17.1266 C   0  0  0  0  0  0  0  0  0  0  0  0
  1  5  1  0  0  0  0
  2 17  1  0  0  0  0
  3  1  1  0  0  0  0
  4  3  1  0  0  0  0
  4 26  1  6  0  0  0
  5 11  2  0  0  0  0
  5  6  1  0  0  0  0
  6  7  2  0  0  0  0
  7 21  1  0  0  0  0
  8 15  1  0  0  0  0
  8 16  2  0  0  0  0
  9 19  1  0  0  0  0
 10 18  1  0  0  0  0
 11 20  1  0  0  0  0
 13 14  1  0  0  0  0
 13 12  2  0  0  0  0
 15 13  1  1  0  0  0
 17 19  2  0  0  0  0
 17 15  1  0  0  0  0
 18  2  1  0  0  0  0
 18  9  2  0  0  0  0
 20 21  2  0  0  0  0
 20  2  1  0  0  0  0
 21  8  1  0  0  0  0
 22  6  1  0  0  0  0
 23 11  1  0  0  0  0
 23 10  1  0  0  0  0
 24 23  1  0  0  0  0
 25  1  1  0  0  0  0
 27  4  1  0  0  0  0
 27 25  1  0  0  0  0
 27 28  1  1  0  0  0
 29 28  1  0  0  0  0
 30 28  1  0  0  0  0
M  END
>  <CHROM.1>
-128.79737437,1.94900420,-56.62448631,163.48883137,147.45330132,25.91351184
40.24773596,22.93250325,1.69196335,-0.38216255,-2.27812228

>  <Name>
lig.pdb

>  <RI>
0

>  <Rbt.Current_Directory>
/home/itssahil/PROJECTS/Mol_Feturizer/New_Systems/rnas/6bfb

>  <Rbt.Executable>
rbdock ($Id: //depot/dev/client3/rdock/2013.1/src/exe/rbdock.cxx#4 $)

>  <Rbt.Library>
libRbt.so (2013.1, Build901 2013/11/27)

>  <Rbt.Parameter_File>
/export/apps/rDock/src/rDock_2013.1_src/data/scripts/dock_solv.prm

>  <Rbt.Receptor>
prm/pocket_docking_2.prm

>  <SCORE>
-34.731

>  <SCORE.INTER>
-31.535

>  <SCORE.INTER.CONST>
1

>  <SCORE.INTER.POLAR>
0

>  <SCORE.INTER.ROT>
3

>  <SCORE.INTER.SOLV>
10.0646

>  <SCORE.INTER.VDW>
-29.9782

>  <SCORE.INTER.norm>
-1.05117

>  <SCORE.INTRA>
-3.19602

>  <SCORE.INTRA.DIHEDRAL>
-5.54477

>  <SCORE.INTRA.DIHEDRAL.0>
9.41909

>  <SCORE.INTRA.POLAR>
0

>  <SCORE.INTRA.POLAR.0>
0

>  <SCORE.INTRA.REPUL>
0.00775376

>  <SCORE.INTRA.REPUL.0>
0

>  <SCORE.INTRA.SOLV>
-0.11735

>  <SCORE.INTRA.SOLV.lig_0>
-26.2491

>  <SCORE.INTRA.VDW>
-0.403726

>  <SCORE.INTRA.VDW.0>
2.57239

>  <SCORE.INTRA.norm>
-0.106534

>  <SCORE.RESTR>
0

>  <SCORE.RESTR.CAVITY>
0

>  <SCORE.RESTR.norm>
0

>  <SCORE.SYSTEM>
0

>  <SCORE.SYSTEM.CONST>
0

>  <SCORE.SYSTEM.DIHEDRAL>
0

>  <SCORE.SYSTEM.SOLV>
0

>  <SCORE.SYSTEM.norm>
0

>  <SCORE.heavy>
30

>  <SCORE.norm>
-1.1577

>  <RMSD>
0.924

$$$$
lig.pdb
 OpenBabel11021811523D
libRbt.so/2013.1/901 2013/11/27
 30 34  0  0  0  0  0  0  0  0999 V2000
   25.5999   38.2679   21.1568 N   0  0  0  0  0  0  0  0  0  0  0  0
   27.0558   41.9094   24.1779 N   0  0  0  0  0  0  0  0  0  0  0  0
   26.8314   37.4792   21.0530 C   0  0  0  0  0  0  0  0  0  0  0  0
   26.5462   36.6201   19.8304 C   0  0  2  0  0  0  0  0  0  0  0  0
   25.3685   39.1271   22.3125 C   0  0  0  0  0  0  0  0  0  0  0  0
   24.2165   39.0529   23.1219 C   0  0  0  0  0  0  0  0  0  0  0  0
   23.9824   39.8788   24.1929 C   0  0  0  0  0  0  0  0  0  0  0  0
   24.6326   41.7920   25.6595 C   0  0  0  0  0  0  0  0  0  0  0  0
   29.1124   42.8537   24.1459 C   0  0  0  0  0  0  0  0  0  0  0  0
   28.6040   40.7869   22.6656 C   0  0  0  0  0  0  0  0  0  0  0  0
   26.3285   40.1151   22.6709 C   0  0  0  0  0  0  0  0  0  0  0  0
   24.4957   44.6142   26.9303 O   0  0  0  0  0  0  0  0  0  0  0  0
   25.4374   43.8215   27.0012 C   0  0  0  0  0  0  0  0  0  0  0  0
   26.2965   43.8221   28.0131 O   0  0  0  0  0  0  0  0  0  0  0  0
   25.6717   42.8202   25.9270 C   0  0  1  0  0  0  0  0  0  0  0  0
   23.6125   41.6798   26.3479 O   0  0  0  0  0  0  0  0  0  0  0  0
   26.8703   42.8450   25.1930 C   0  0  0  0  0  0  0  0  0  0  0  0
   28.3379   41.9051   23.6108 C   0  0  0  0  0  0  0  0  0  0  0  0
   28.3144   43.7515   25.3700 S   0  0  0  0  0  0  0  0  0  0  0  0
   26.0987   40.9513   23.7870 C   0  0  0  0  0  0  0  0  0  0  0  0
   24.9145   40.8586   24.5344 C   0  0  0  0  0  0  0  0  0  0  0  0
   23.2959   38.1042   22.8570 F   0  0  0  0  0  0  0  0  0  0  0  0
   27.4744   40.3148   21.8852 N   0  0  0  0  0  0  0  0  0  0  0  0
   27.1648   41.0881   20.7016 C   0  0  0  0  0  0  0  0  0  0  0  0
   24.4954   37.6289   20.4503 C   0  0  0  0  0  0  0  0  0  0  0  0
   27.5383   36.7992   18.8186 O   0  0  0  0  0  0  0  0  0  0  0  0
   25.2444   37.1368   19.2233 C   0  0  2  0  0  0  0  0  0  0  0  0
   24.6176   36.0358   18.4672 N   0  0  0  0  0  0  0  0  0  0  0  0
   23.1434   36.0243   18.4781 C   0  0  0  0  0  0  0  0  0  0  0  0
   25.1687   35.8757   17.1128 C   0  0  0  0  0  0  0  0  0  0  0  0
  1  5  1  0  0  0  0
  2 17  1  0  0  0  0
  3  1  1  0  0  0  0
  4  3  1  0  0  0  0
  4 26  1  6  0  0  0
  5 11  2  0  0  0  0
  5  6  1  0  0  0  0
  6  7  2  0  0  0  0
  7 21  1  0  0  0  0
  8 15  1  0  0  0  0
  8 16  2  0  0  0  0
  9 19  1  0  0  0  0
 10 18  1  0  0  0  0
 11 20  1  0  0  0  0
 13 14  1  0  0  0  0
 13 12  2  0  0  0  0
 15 13  1  1  0  0  0
 17 19  2  0  0  0  0
 17 15  1  0  0  0  0
 18  2  1  0  0  0  0
 18  9  2  0  0  0  0
 20 21  2  0  0  0  0
 20  2  1  0  0  0  0
 21  8  1  0  0  0  0
 22  6  1  0  0  0  0
 23 11  1  0  0  0  0
 23 10  1  0  0  0  0
 24 23  1  0  0  0  0
 25  1  1  0  0  0  0
 27  4  1  0  0  0  0
 27 25  1  0  0  0  0
 27 28  1  1  0  0  0
 29 28  1  0  0  0  0
 30 28  1  0  0  0  0
M  END
>  <CHROM.1>
-125.63733844,1.05012527,-62.38847077,165.81327425,146.17055572,25.94630580
40.23203384,22.92061089,1.69364263,-0.37390487,-2.28325351

>  <Name>
lig.pdb

>  <RI>
0

>  <Rbt.Current_Directory>
/home/itssahil/PROJECTS/Mol_Feturizer/New_Systems/rnas/6bfb

>  <Rbt.Executable>
rbdock ($Id: //depot/dev/client3/rdock/2013.1/src/exe/rbdock.cxx#4 $)

>  <Rbt.Library>
libRbt.so (2013.1, Build901 2013/11/27)

>  <Rbt.Parameter_File>
/export/apps/rDock/src/rDock_2013.1_src/data/scripts/dock_solv.prm

>  <Rbt.Receptor>
prm/pocket_docking_2.prm

>  <SCORE>
-34.837

>  <SCORE.INTER>
-31.3779

>  <SCORE.INTER.CONST>
1

>  <SCORE.INTER.POLAR>
0

>  <SCORE.INTER.ROT>
3

>  <SCORE.INTER.SOLV>
10.2166

>  <SCORE.INTER.VDW>
-29.9242

>  <SCORE.INTER.norm>
-1.04593

>  <SCORE.INTRA>
-3.45903

>  <SCORE.INTRA.DIHEDRAL>
-5.79835

>  <SCORE.INTRA.DIHEDRAL.0>
9.41909

>  <SCORE.INTRA.POLAR>
0

>  <SCORE.INTRA.POLAR.0>
0

>  <SCORE.INTRA.REPUL>
0.0160339

>  <SCORE.INTRA.REPUL.0>
0

>  <SCORE.INTRA.SOLV>
-0.144178

>  <SCORE.INTRA.SOLV.lig_0>
-26.2491

>  <SCORE.INTRA.VDW>
-0.567937

>  <SCORE.INTRA.VDW.0>
2.57239

>  <SCORE.INTRA.norm>
-0.115301

>  <SCORE.RESTR>
0

>  <SCORE.RESTR.CAVITY>
0

>  <SCORE.RESTR.norm>
0

>  <SCORE.SYSTEM>
0

>  <SCORE.SYSTEM.CONST>
0

>  <SCORE.SYSTEM.DIHEDRAL>
0

>  <SCORE.SYSTEM.SOLV>
0

>  <SCORE.SYSTEM.norm>
0

>  <SCORE.heavy>
30

>  <SCORE.norm>
-1.16123

>  <RMSD>
0.929

$$$$
lig.pdb
 OpenBabel11021811523D
libRbt.so/2013.1/901 2013/11/27
 30 34  0  0  0  0  0  0  0  0999 V2000
   25.5469   38.3127   21.1263 N   0  0  0  0  0  0  0  0  0  0  0  0
   27.0433   41.9239   24.1640 N   0  0  0  0  0  0  0  0  0  0  0  0
   26.7885   37.5479   20.9741 C   0  0  0  0  0  0  0  0  0  0  0  0
   26.4807   36.6995   19.7494 C   0  0  2  0  0  0  0  0  0  0  0  0
   25.3363   39.1527   22.2999 C   0  0  0  0  0  0  0  0  0  0  0  0
   24.2055   39.0555   23.1364 C   0  0  0  0  0  0  0  0  0  0  0  0
   23.9905   39.8634   24.2250 C   0  0  0  0  0  0  0  0  0  0  0  0
   24.6590   41.7612   25.7033 C   0  0  0  0  0  0  0  0  0  0  0  0
   29.0895   42.8886   24.0951 C   0  0  0  0  0  0  0  0  0  0  0  0
   28.5639   40.8387   22.5974 C   0  0  0  0  0  0  0  0  0  0  0  0
   26.2956   40.1447   22.6491 C   0  0  0  0  0  0  0  0  0  0  0  0
   24.4954   44.5237   27.0479 O   0  0  0  0  0  0  0  0  0  0  0  0
   25.4778   43.7787   27.0545 C   0  0  0  0  0  0  0  0  0  0  0  0
   26.3967   43.8175   28.0116 O   0  0  0  0  0  0  0  0  0  0  0  0
   25.6947   42.7955   25.9601 C   0  0  1  0  0  0  0  0  0  0  0  0
   23.6574   41.6290   26.4149 O   0  0  0  0  0  0  0  0  0  0  0  0
   26.8744   42.8427   25.1971 C   0  0  0  0  0  0  0  0  0  0  0  0
   28.3109   41.9403   23.5653 C   0  0  0  0  0  0  0  0  0  0  0  0
   28.3139   43.7606   25.3518 S   0  0  0  0  0  0  0  0  0  0  0  0
   26.0858   40.9623   23.7827 C   0  0  0  0  0  0  0  0  0  0  0  0
   24.9216   40.8471   24.5578 C   0  0  0  0  0  0  0  0  0  0  0  0
   23.2876   38.1018   22.8804 F   0  0  0  0  0  0  0  0  0  0  0  0
   27.4197   40.3670   21.8383 N   0  0  0  0  0  0  0  0  0  0  0  0
   27.0735   41.1543   20.6743 C   0  0  0  0  0  0  0  0  0  0  0  0
   24.4326   37.6629   20.4456 C   0  0  0  0  0  0  0  0  0  0  0  0
   27.4376   36.9096   18.7101 O   0  0  0  0  0  0  0  0  0  0  0  0
   25.1517   37.2002   19.1897 C   0  0  2  0  0  0  0  0  0  0  0  0
   24.5214   36.0978   18.4386 N   0  0  0  0  0  0  0  0  0  0  0  0
   23.0593   36.1997   18.2801 C   0  0  0  0  0  0  0  0  0  0  0  0
   25.2026   35.7973   17.1699 C   0  0  0  0  0  0  0  0  0  0  0  0
  1  5  1  0  0  0  0
  2 17  1  0  0  0  0
  3  1  1  0  0  0  0
  4  3  1  0  0  0  0
  4 26  1  6  0  0  0
  5 11  2  0  0  0  0
  5  6  1  0  0  0  0
  6  7  2  0  0  0  0
  7 21  1  0  0  0  0
  8 15  1  0  0  0  0
  8 16  2  0  0  0  0
  9 19  1  0  0  0  0
 10 18  1  0  0  0  0
 11 20  1  0  0  0  0
 13 14  1  0  0  0  0
 13 12  2  0  0  0  0
 15 13  1  1  0  0  0
 17 19  2  0  0  0  0
 17 15  1  0  0  0  0
 18  2  1  0  0  0  0
 18  9  2  0  0  0  0
 20 21  2  0  0  0  0
 20  2  1  0  0  0  0
 21  8  1  0  0  0  0
 22  6  1  0  0  0  0
 23 11  1  0  0  0  0
 23 10  1  0  0  0  0
 24 23  1  0  0  0  0
 25  1  1  0  0  0  0
 27  4  1  0  0  0  0
 27 25  1  0  0  0  0
 27 28  1  1  0  0  0
 29 28  1  0  0  0  0
 30 28  1  0  0  0  0
M  END
>  <CHROM.1>
-126.23735348,-179.23933846,-59.22129396,62.37610532,157.21701407,25.92988492
40.25031387,22.90710188,1.70465023,-0.39072530,-2.26570533

>  <Name>
lig.pdb

>  <RI>
0

>  <Rbt.Current_Directory>
/home/itssahil/PROJECTS/Mol_Feturizer/New_Systems/rnas/6bfb

>  <Rbt.Executable>
rbdock ($Id: //depot/dev/client3/rdock/2013.1/src/exe/rbdock.cxx#4 $)

>  <Rbt.Library>
libRbt.so (2013.1, Build901 2013/11/27)

>  <Rbt.Parameter_File>
/export/apps/rDock/src/rDock_2013.1_src/data/scripts/dock_solv.prm

>  <Rbt.Receptor>
prm/pocket_docking_2.prm

>  <SCORE>
-36.8591

>  <SCORE.INTER>
-32.2494

>  <SCORE.INTER.CONST>
1

>  <SCORE.INTER.POLAR>
0

>  <SCORE.INTER.ROT>
3

>  <SCORE.INTER.SOLV>
10.3907

>  <SCORE.INTER.VDW>
-30.5632

>  <SCORE.INTER.norm>
-1.07498

>  <SCORE.INTRA>
-4.60969

>  <SCORE.INTRA.DIHEDRAL>
-7.29102

>  <SCORE.INTRA.DIHEDRAL.0>
9.41909

>  <SCORE.INTRA.POLAR>
0

>  <SCORE.INTRA.POLAR.0>
0

>  <SCORE.INTRA.REPUL>
0.0144698

>  <SCORE.INTRA.REPUL.0>
0

>  <SCORE.INTRA.SOLV>
-0.216738

>  <SCORE.INTRA.SOLV.lig_0>
-26.2491

>  <SCORE.INTRA.VDW>
-0.928162

>  <SCORE.INTRA.VDW.0>
2.57239

>  <SCORE.INTRA.norm>
-0.153656

>  <SCORE.RESTR>
0

>  <SCORE.RESTR.CAVITY>
0

>  <SCORE.RESTR.norm>
0

>  <SCORE.SYSTEM>
0

>  <SCORE.SYSTEM.CONST>
0

>  <SCORE.SYSTEM.DIHEDRAL>
0

>  <SCORE.SYSTEM.SOLV>
0

>  <SCORE.SYSTEM.norm>
0

>  <SCORE.heavy>
30

>  <SCORE.norm>
-1.22864

>  <RMSD>
0.944

$$$$
lig.pdb
 OpenBabel11021811523D
libRbt.so/2013.1/901 2013/11/27
 30 34  0  0  0  0  0  0  0  0999 V2000
   26.4837   38.1609   20.9116 N   0  0  0  0  0  0  0  0  0  0  0  0
   26.4331   41.6270   24.4458 N   0  0  0  0  0  0  0  0  0  0  0  0
   27.8252   37.6085   21.1232 C   0  0  0  0  0  0  0  0  0  0  0  0
   28.0407   36.8201   19.8401 C   0  0  2  0  0  0  0  0  0  0  0  0
   25.7972   38.8659   21.9883 C   0  0  0  0  0  0  0  0  0  0  0  0
   24.4795   38.5743   22.3962 C   0  0  0  0  0  0  0  0  0  0  0  0
   23.8206   39.2546   23.3897 C   0  0  0  0  0  0  0  0  0  0  0  0
   23.7217   41.0741   25.0966 C   0  0  0  0  0  0  0  0  0  0  0  0
   28.2475   42.8073   25.1071 C   0  0  0  0  0  0  0  0  0  0  0  0
   28.5064   40.8543   23.4219 C   0  0  0  0  0  0  0  0  0  0  0  0
   26.4541   39.9198   22.6839 C   0  0  0  0  0  0  0  0  0  0  0  0
   23.2027   42.5351   27.6997 O   0  0  0  0  0  0  0  0  0  0  0  0
   23.7892   43.0395   26.7396 C   0  0  0  0  0  0  0  0  0  0  0  0
   23.8311   44.3507   26.5371 O   0  0  0  0  0  0  0  0  0  0  0  0
   24.4746   42.1863   25.7327 C   0  0  1  0  0  0  0  0  0  0  0  0
   22.5701   40.7728   25.4281 O   0  0  0  0  0  0  0  0  0  0  0  0
   25.8209   42.4271   25.4078 C   0  0  0  0  0  0  0  0  0  0  0  0
   27.8127   41.8321   24.3034 C   0  0  0  0  0  0  0  0  0  0  0  0
   27.0004   43.4762   26.0760 S   0  0  0  0  0  0  0  0  0  0  0  0
   25.7843   40.6062   23.7221 C   0  0  0  0  0  0  0  0  0  0  0  0
   24.4574   40.2988   24.0602 C   0  0  0  0  0  0  0  0  0  0  0  0
   23.8263   37.5545   21.8039 F   0  0  0  0  0  0  0  0  0  0  0  0
   27.7410   40.3322   22.3041 N   0  0  0  0  0  0  0  0  0  0  0  0
   27.6905   41.1784   21.1309 C   0  0  0  0  0  0  0  0  0  0  0  0
   25.7465   37.4032   19.9067 C   0  0  0  0  0  0  0  0  0  0  0  0
   29.2121   37.2532   19.1471 O   0  0  0  0  0  0  0  0  0  0  0  0
   26.8718   37.1539   18.9167 C   0  0  2  0  0  0  0  0  0  0  0  0
   26.6869   36.0295   17.9796 N   0  0  0  0  0  0  0  0  0  0  0  0
   25.3651   35.9624   17.3303 C   0  0  0  0  0  0  0  0  0  0  0  0
   27.7910   35.8894   17.0177 C   0  0  0  0  0  0  0  0  0  0  0  0
  1  5  1  0  0  0  0
  2 17  1  0  0  0  0
  3  1  1  0  0  0  0
  4  3  1  0  0  0  0
  4 26  1  6  0  0  0
  5 11  2  0  0  0  0
  5  6  1  0  0  0  0
  6  7  2  0  0  0  0
  7 21  1  0  0  0  0
  8 15  1  0  0  0  0
  8 16  2  0  0  0  0
  9 19  1  0  0  0  0
 10 18  1  0  0  0  0
 11 20  1  0  0  0  0
 13 14  1  0  0  0  0
 13 12  2  0  0  0  0
 15 13  1  1  0  0  0
 17 19  2  0  0  0  0
 17 15  1  0  0  0  0
 18  2  1  0  0  0  0
 18  9  2  0  0  0  0
 20 21  2  0  0  0  0
 20  2  1  0  0  0  0
 21  8  1  0  0  0  0
 22  6  1  0  0  0  0
 23 11  1  0  0  0  0
 23 10  1  0  0  0  0
 24 23  1  0  0  0  0
 25  1  1  0  0  0  0
 27  4  1  0  0  0  0
 27 25  1  0  0  0  0
 27 28  1  6  0  0  0
 29 28  1  0  0  0  0
 30 28  1  0  0  0  0
M  END
>  <CHROM.1>
-129.33624495,-179.58724092,51.99820145,65.21051918,160.44168460,26.01223959
39.96554914,22.80354593,1.34859996,-0.29038639,-2.32628302

>  <Name>
lig.pdb

>  <RI>
0

>  <Rbt.Current_Directory>
/home/itssahil/PROJECTS/Mol_Feturizer/New_Systems/rnas/6bfb

>  <Rbt.Executable>
rbdock ($Id: //depot/dev/client3/rdock/2013.1/src/exe/rbdock.cxx#4 $)

>  <Rbt.Library>
libRbt.so (2013.1, Build901 2013/11/27)

>  <Rbt.Parameter_File>
/export/apps/rDock/src/rDock_2013.1_src/data/scripts/dock_solv.prm

>  <Rbt.Receptor>
prm/pocket_docking_3.prm

>  <SCORE>
-40.5434

>  <SCORE.INTER>
-36.1861

>  <SCORE.INTER.CONST>
1

>  <SCORE.INTER.POLAR>
-1.80231

>  <SCORE.INTER.ROT>
3

>  <SCORE.INTER.SOLV>
9.86801

>  <SCORE.INTER.VDW>
-27.0057

>  <SCORE.INTER.norm>
-1.2062

>  <SCORE.INTRA>
-4.3573

>  <SCORE.INTRA.DIHEDRAL>
-7.32919

>  <SCORE.INTRA.DIHEDRAL.0>
9.41909

>  <SCORE.INTRA.POLAR>
0

>  <SCORE.INTRA.POLAR.0>
0

>  <SCORE.INTRA.REPUL>
0.00633182

>  <SCORE.INTRA.REPUL.0>
0

>  <SCORE.INTRA.SOLV>
-0.184346

>  <SCORE.INTRA.SOLV.lig_0>
-26.2491

>  <SCORE.INTRA.VDW>
-0.632189

>  <SCORE.INTRA.VDW.0>
2.57239

>  <SCORE.INTRA.norm>
-0.145243

>  <SCORE.RESTR>
0

>  <SCORE.RESTR.CAVITY>
0

>  <SCORE.RESTR.norm>
0

>  <SCORE.SYSTEM>
0

>  <SCORE.SYSTEM.CONST>
0

>  <SCORE.SYSTEM.DIHEDRAL>
0

>  <SCORE.SYSTEM.SOLV>
0

>  <SCORE.SYSTEM.norm>
0

>  <SCORE.heavy>
30

>  <SCORE.norm>
-1.35145

>  <RMSD>
0.949

$$$$
lig.pdb
 OpenBabel11021811523D
libRbt.so/2013.1/901 2013/11/27
 30 34  0  0  0  0  0  0  0  0999 V2000
   26.4995   38.3526   21.2626 N   0  0  0  0  0  0  0  0  0  0  0  0
   26.7810   41.9010   24.7031 N   0  0  0  0  0  0  0  0  0  0  0  0
   27.8970   37.9169   21.3446 C   0  0  0  0  0  0  0  0  0  0  0  0
   28.0126   37.0178   20.1229 C   0  0  2  0  0  0  0  0  0  0  0  0
   25.8990   39.1160   22.3508 C   0  0  0  0  0  0  0  0  0  0  0  0
   24.5896   38.8989   22.8264 C   0  0  0  0  0  0  0  0  0  0  0  0
   24.0115   39.6343   23.8309 C   0  0  0  0  0  0  0  0  0  0  0  0
   24.0801   41.4969   25.4922 C   0  0  0  0  0  0  0  0  0  0  0  0
   28.6787   43.0069   25.2490 C   0  0  0  0  0  0  0  0  0  0  0  0
   28.7645   41.0036   23.6056 C   0  0  0  0  0  0  0  0  0  0  0  0
   26.6375   40.1530   22.9875 C   0  0  0  0  0  0  0  0  0  0  0  0
   24.6049   44.6946   27.0960 O   0  0  0  0  0  0  0  0  0  0  0  0
   24.3185   43.4955   27.0781 C   0  0  0  0  0  0  0  0  0  0  0  0
   23.4893   42.9462   27.9571 O   0  0  0  0  0  0  0  0  0  0  0  0
   24.9143   42.5859   26.0635 C   0  0  1  0  0  0  0  0  0  0  0  0
   22.9323   41.2602   25.8841 O   0  0  0  0  0  0  0  0  0  0  0  0
   26.2537   42.7529   25.6708 C   0  0  0  0  0  0  0  0  0  0  0  0
   28.1605   42.0350   24.4921 C   0  0  0  0  0  0  0  0  0  0  0  0
   27.5120   43.7589   26.2563 S   0  0  0  0  0  0  0  0  0  0  0  0
   26.0509   40.8960   24.0370 C   0  0  0  0  0  0  0  0  0  0  0  0
   24.7283   40.6619   24.4437 C   0  0  0  0  0  0  0  0  0  0  0  0
   23.8613   37.8983   22.2917 F   0  0  0  0  0  0  0  0  0  0  0  0
   27.9231   40.4928   22.5382 N   0  0  0  0  0  0  0  0  0  0  0  0
   27.8577   41.3120   21.3468 C   0  0  0  0  0  0  0  0  0  0  0  0
   25.7055   37.4479   20.4390 C   0  0  0  0  0  0  0  0  0  0  0  0
   29.0492   37.4560   19.2436 O   0  0  0  0  0  0  0  0  0  0  0  0
   26.7142   37.1754   19.3358 C   0  0  2  0  0  0  0  0  0  0  0  0
   26.5043   35.9511   18.5397 N   0  0  0  0  0  0  0  0  0  0  0  0
   26.2653   34.7249   19.3224 C   0  0  0  0  0  0  0  0  0  0  0  0
   25.5232   36.1248   17.4576 C   0  0  0  0  0  0  0  0  0  0  0  0
  1  5  1  0  0  0  0
  2 17  1  0  0  0  0
  3  1  1  0  0  0  0
  4  3  1  0  0  0  0
  4 26  1  6  0  0  0
  5 11  2  0  0  0  0
  5  6  1  0  0  0  0
  6  7  2  0  0  0  0
  7 21  1  0  0  0  0
  8 15  1  0  0  0  0
  8 16  2  0  0  0  0
  9 19  1  0  0  0  0
 10 18  1  0  0  0  0
 11 20  1  0  0  0  0
 13 14  1  0  0  0  0
 13 12  2  0  0  0  0
 15 13  1  1  0  0  0
 17 19  2  0  0  0  0
 17 15  1  0  0  0  0
 18  2  1  0  0  0  0
 18  9  2  0  0  0  0
 20 21  2  0  0  0  0
 20  2  1  0  0  0  0
 21  8  1  0  0  0  0
 22  6  1  0  0  0  0
 23 11  1  0  0  0  0
 23 10  1  0  0  0  0
 24 23  1  0  0  0  0
 25  1  1  0  0  0  0
 27  4  1  0  0  0  0
 27 25  1  0  0  0  0
 27 28  1  1  0  0  0
 29 28  1  0  0  0  0
 30 28  1  0  0  0  0
M  END
>  <CHROM.1>
-138.79520115,-0.41525928,-143.04711588,64.61166206,65.54010541,26.17298518
40.17267784,23.19415580,1.43169409,-0.32001508,-2.35906100

>  <Name>
lig.pdb

>  <RI>
0

>  <Rbt.Current_Directory>
/home/itssahil/PROJECTS/Mol_Feturizer/New_Systems/rnas/6bfb

>  <Rbt.Executable>
rbdock ($Id: //depot/dev/client3/rdock/2013.1/src/exe/rbdock.cxx#4 $)

>  <Rbt.Library>
libRbt.so (2013.1, Build901 2013/11/27)

>  <Rbt.Parameter_File>
/export/apps/rDock/src/rDock_2013.1_src/data/scripts/dock_solv.prm

>  <Rbt.Receptor>
prm/pocket_docking_7.prm

>  <SCORE>
-38.4602

>  <SCORE.INTER>
-34.3839

>  <SCORE.INTER.CONST>
1

>  <SCORE.INTER.POLAR>
-0.951765

>  <SCORE.INTER.ROT>
3

>  <SCORE.INTER.SOLV>
10.1065

>  <SCORE.INTER.VDW>
-28.7189

>  <SCORE.INTER.norm>
-1.14613

>  <SCORE.INTRA>
-4.07621

>  <SCORE.INTRA.DIHEDRAL>
-7.43026

>  <SCORE.INTRA.DIHEDRAL.0>
9.41909

>  <SCORE.INTRA.POLAR>
0

>  <SCORE.INTRA.POLAR.0>
0

>  <SCORE.INTRA.REPUL>
0

>  <SCORE.INTRA.REPUL.0>
0

>  <SCORE.INTRA.SOLV>
-0.141267

>  <SCORE.INTRA.SOLV.lig_0>
-26.2491

>  <SCORE.INTRA.VDW>
-0.29045

>  <SCORE.INTRA.VDW.0>
2.57239

>  <SCORE.INTRA.norm>
-0.135874

>  <SCORE.RESTR>
0

>  <SCORE.RESTR.CAVITY>
0

>  <SCORE.RESTR.norm>
0

>  <SCORE.SYSTEM>
0

>  <SCORE.SYSTEM.CONST>
0

>  <SCORE.SYSTEM.DIHEDRAL>
0

>  <SCORE.SYSTEM.SOLV>
0

>  <SCORE.SYSTEM.norm>
0

>  <SCORE.heavy>
30

>  <SCORE.norm>
-1.28201

>  <RMSD>
0.958

$$$$
lig.pdb
 OpenBabel11021811523D
libRbt.so/2013.1/901 2013/11/27
 30 34  0  0  0  0  0  0  0  0999 V2000
   26.5229   38.3386   21.2647 N   0  0  0  0  0  0  0  0  0  0  0  0
   26.8047   41.9049   24.6866 N   0  0  0  0  0  0  0  0  0  0  0  0
   27.9149   37.8881   21.3596 C   0  0  0  0  0  0  0  0  0  0  0  0
   28.0314   36.9858   20.1403 C   0  0  2  0  0  0  0  0  0  0  0  0
   25.9212   39.1101   22.3465 C   0  0  0  0  0  0  0  0  0  0  0  0
   24.6094   38.9004   22.8185 C   0  0  0  0  0  0  0  0  0  0  0  0
   24.0302   39.6433   23.8168 C   0  0  0  0  0  0  0  0  0  0  0  0
   24.0995   41.5148   25.4680 C   0  0  0  0  0  0  0  0  0  0  0  0
   28.7044   43.0071   25.2332 C   0  0  0  0  0  0  0  0  0  0  0  0
   28.7889   40.9944   23.6013 C   0  0  0  0  0  0  0  0  0  0  0  0
   26.6611   40.1480   22.9802 C   0  0  0  0  0  0  0  0  0  0  0  0
   24.6273   44.7202   27.0539 O   0  0  0  0  0  0  0  0  0  0  0  0
   24.3394   43.5214   27.0437 C   0  0  0  0  0  0  0  0  0  0  0  0
   23.5081   42.9793   27.9252 O   0  0  0  0  0  0  0  0  0  0  0  0
   24.9355   42.6041   26.0364 C   0  0  1  0  0  0  0  0  0  0  0  0
   22.9494   41.2845   25.8570 O   0  0  0  0  0  0  0  0  0  0  0  0
   26.2769   42.7640   25.6476 C   0  0  0  0  0  0  0  0  0  0  0  0
   28.1854   42.0328   24.4798 C   0  0  0  0  0  0  0  0  0  0  0  0
   27.5368   43.7688   26.2321 S   0  0  0  0  0  0  0  0  0  0  0  0
   26.0734   40.8989   24.0234 C   0  0  0  0  0  0  0  0  0  0  0  0
   24.7485   40.6717   24.4266 C   0  0  0  0  0  0  0  0  0  0  0  0
   23.8794   37.8994   22.2868 F   0  0  0  0  0  0  0  0  0  0  0  0
   27.9496   40.4807   22.5337 N   0  0  0  0  0  0  0  0  0  0  0  0
   27.8914   41.2935   21.3375 C   0  0  0  0  0  0  0  0  0  0  0  0
   25.7264   37.4410   20.4356 C   0  0  0  0  0  0  0  0  0  0  0  0
   29.0803   37.4114   19.2693 O   0  0  0  0  0  0  0  0  0  0  0  0
   26.7416   37.1560   19.3417 C   0  0  2  0  0  0  0  0  0  0  0  0
   26.5256   35.9327   18.5457 N   0  0  0  0  0  0  0  0  0  0  0  0
   26.2555   34.7126   19.3279 C   0  0  0  0  0  0  0  0  0  0  0  0
   25.5644   36.1181   17.4478 C   0  0  0  0  0  0  0  0  0  0  0  0
  1  5  1  0  0  0  0
  2 17  1  0  0  0  0
  3  1  1  0  0  0  0
  4  3  1  0  0  0  0
  4 26  1  6  0  0  0
  5 11  2  0  0  0  0
  5  6  1  0  0  0  0
  6  7  2  0  0  0  0
  7 21  1  0  0  0  0
  8 15  1  0  0  0  0
  8 16  2  0  0  0  0
  9 19  1  0  0  0  0
 10 18  1  0  0  0  0
 11 20  1  0  0  0  0
 13 14  1  0  0  0  0
 13 12  2  0  0  0  0
 15 13  1  1  0  0  0
 17 19  2  0  0  0  0
 17 15  1  0  0  0  0
 18  2  1  0  0  0  0
 18  9  2  0  0  0  0
 20 21  2  0  0  0  0
 20  2  1  0  0  0  0
 21  8  1  0  0  0  0
 22  6  1  0  0  0  0
 23 11  1  0  0  0  0
 23 10  1  0  0  0  0
 24 23  1  0  0  0  0
 25  1  1  0  0  0  0
 27  4  1  0  0  0  0
 27 25  1  0  0  0  0
 27 28  1  1  0  0  0
 29 28  1  0  0  0  0
 30 28  1  0  0  0  0
M  END
>  <CHROM.1>
-138.24725573,-178.76817160,-142.85805494,64.31928715,66.02952546,26.19573939
40.16776800,23.18185926,1.43270180,-0.31569225,-2.36333130

>  <Name>
lig.pdb

>  <RI>
0

>  <Rbt.Current_Directory>
/home/itssahil/PROJECTS/Mol_Feturizer/New_Systems/rnas/6bfb

>  <Rbt.Executable>
rbdock ($Id: //depot/dev/client3/rdock/2013.1/src/exe/rbdock.cxx#4 $)

>  <Rbt.Library>
libRbt.so (2013.1, Build901 2013/11/27)

>  <Rbt.Parameter_File>
/export/apps/rDock/src/rDock_2013.1_src/data/scripts/dock_solv.prm

>  <Rbt.Receptor>
prm/pocket_docking_3.prm

>  <SCORE>
-37.893

>  <SCORE.INTER>
-34.3593

>  <SCORE.INTER.CONST>
1

>  <SCORE.INTER.POLAR>
-0.943333

>  <SCORE.INTER.ROT>
3

>  <SCORE.INTER.SOLV>
10.2618

>  <SCORE.INTER.VDW>
-28.7824

>  <SCORE.INTER.norm>
-1.14531

>  <SCORE.INTRA>
-3.53369

>  <SCORE.INTRA.DIHEDRAL>
-7.42724

>  <SCORE.INTRA.DIHEDRAL.0>
9.41909

>  <SCORE.INTRA.POLAR>
0

>  <SCORE.INTRA.POLAR.0>
0

>  <SCORE.INTRA.REPUL>
0

>  <SCORE.INTRA.REPUL.0>
0

>  <SCORE.INTRA.SOLV>
-0.136821

>  <SCORE.INTRA.SOLV.lig_0>
-26.2491

>  <SCORE.INTRA.VDW>
0.248341

>  <SCORE.INTRA.VDW.0>
2.57239

>  <SCORE.INTRA.norm>
-0.11779

>  <SCORE.RESTR>
0

>  <SCORE.RESTR.CAVITY>
0

>  <SCORE.RESTR.norm>
0

>  <SCORE.SYSTEM>
0

>  <SCORE.SYSTEM.CONST>
0

>  <SCORE.SYSTEM.DIHEDRAL>
0

>  <SCORE.SYSTEM.SOLV>
0

>  <SCORE.SYSTEM.norm>
0

>  <SCORE.heavy>
30

>  <SCORE.norm>
-1.2631

>  <RMSD>
0.962

$$$$
lig.pdb
 OpenBabel11021811523D
libRbt.so/2013.1/901 2013/11/27
 30 34  0  0  0  0  0  0  0  0999 V2000
   26.4097   38.5861   21.3980 N   0  0  0  0  0  0  0  0  0  0  0  0
   26.8082   42.1156   24.8464 N   0  0  0  0  0  0  0  0  0  0  0  0
   27.7684   38.0414   21.4801 C   0  0  0  0  0  0  0  0  0  0  0  0
   27.8389   37.1951   20.2180 C   0  0  2  0  0  0  0  0  0  0  0  0
   25.8481   39.3407   22.5127 C   0  0  0  0  0  0  0  0  0  0  0  0
   24.5586   39.1156   23.0364 C   0  0  0  0  0  0  0  0  0  0  0  0
   24.0162   39.8428   24.0665 C   0  0  0  0  0  0  0  0  0  0  0  0
   24.1408   41.6960   25.7350 C   0  0  0  0  0  0  0  0  0  0  0  0
   28.7211   43.2259   25.3264 C   0  0  0  0  0  0  0  0  0  0  0  0
   28.7519   41.2326   23.6690 C   0  0  0  0  0  0  0  0  0  0  0  0
   26.6063   40.3770   23.1271 C   0  0  0  0  0  0  0  0  0  0  0  0
   24.3669   43.3262   28.5000 O   0  0  0  0  0  0  0  0  0  0  0  0
   24.4317   43.6863   27.3226 C   0  0  0  0  0  0  0  0  0  0  0  0
   23.9980   44.8724   26.9139 O   0  0  0  0  0  0  0  0  0  0  0  0
   24.9919   42.7851   26.2808 C   0  0  1  0  0  0  0  0  0  0  0  0
   23.0096   41.4524   26.1688 O   0  0  0  0  0  0  0  0  0  0  0  0
   26.3148   42.9597   25.8385 C   0  0  0  0  0  0  0  0  0  0  0  0
   28.1781   42.2564   24.5839 C   0  0  0  0  0  0  0  0  0  0  0  0
   27.5906   43.9674   26.3817 S   0  0  0  0  0  0  0  0  0  0  0  0
   26.0571   41.1115   24.2025 C   0  0  0  0  0  0  0  0  0  0  0  0
   24.7518   40.8697   24.6578 C   0  0  0  0  0  0  0  0  0  0  0  0
   23.8143   38.1152   22.5239 F   0  0  0  0  0  0  0  0  0  0  0  0
   27.8726   40.7246   22.6314 N   0  0  0  0  0  0  0  0  0  0  0  0
   27.7588   41.5504   21.4482 C   0  0  0  0  0  0  0  0  0  0  0  0
   25.5654   37.7848   20.5192 C   0  0  0  0  0  0  0  0  0  0  0  0
   28.9223   37.5939   19.3771 O   0  0  0  0  0  0  0  0  0  0  0  0
   26.5713   37.4886   19.4197 C   0  0  2  0  0  0  0  0  0  0  0  0
   26.2846   36.3231   18.5618 N   0  0  0  0  0  0  0  0  0  0  0  0
   24.8854   36.2003   18.1142 C   0  0  0  0  0  0  0  0  0  0  0  0
   27.2419   36.1683   17.4557 C   0  0  0  0  0  0  0  0  0  0  0  0
  1  5  1  0  0  0  0
  2 17  1  0  0  0  0
  3  1  1  0  0  0  0
  4  3  1  0  0  0  0
  4 26  1  6  0  0  0
  5 11  2  0  0  0  0
  5  6  1  0  0  0  0
  6  7  2  0  0  0  0
  7 21  1  0  0  0  0
  8 15  1  0  0  0  0
  8 16  2  0  0  0  0
  9 19  1  0  0  0  0
 10 18  1  0  0  0  0
 11 20  1  0  0  0  0
 13 14  1  0  0  0  0
 13 12  2  0  0  0  0
 15 13  1  1  0  0  0
 17 19  2  0  0  0  0
 17 15  1  0  0  0  0
 18  2  1  0  0  0  0
 18  9  2  0  0  0  0
 20 21  2  0  0  0  0
 20  2  1  0  0  0  0
 21  8  1  0  0  0  0
 22  6  1  0  0  0  0
 23 11  1  0  0  0  0
 23 10  1  0  0  0  0
 24 23  1  0  0  0  0
 25  1  1  0  0  0  0
 27  4  1  0  0  0  0
 27 25  1  0  0  0  0
 27 28  1  1  0  0  0
 29 28  1  0  0  0  0
 30 28  1  0  0  0  0
M  END
>  <CHROM.1>
-132.71961322,174.78887808,79.09885883,67.20446808,158.15468910,26.17439467
40.43736662,23.28646377,1.44414763,-0.31079742,-2.32037625

>  <Name>
lig.pdb

>  <RI>
0

>  <Rbt.Current_Directory>
/home/itssahil/PROJECTS/Mol_Feturizer/New_Systems/rnas/6bfb

>  <Rbt.Executable>
rbdock ($Id: //depot/dev/client3/rdock/2013.1/src/exe/rbdock.cxx#4 $)

>  <Rbt.Library>
libRbt.so (2013.1, Build901 2013/11/27)

>  <Rbt.Parameter_File>
/export/apps/rDock/src/rDock_2013.1_src/data/scripts/dock_solv.prm

>  <Rbt.Receptor>
prm/pocket_docking_6.prm

>  <SCORE>
-40.9142

>  <SCORE.INTER>
-36.8775

>  <SCORE.INTER.CONST>
1

>  <SCORE.INTER.POLAR>
-1.68159

>  <SCORE.INTER.ROT>
3

>  <SCORE.INTER.SOLV>
10.4901

>  <SCORE.INTER.VDW>
-28.0764

>  <SCORE.INTER.norm>
-1.22925

>  <SCORE.INTRA>
-4.03662

>  <SCORE.INTRA.DIHEDRAL>
-6.87765

>  <SCORE.INTRA.DIHEDRAL.0>
9.41909

>  <SCORE.INTRA.POLAR>
0

>  <SCORE.INTRA.POLAR.0>
0

>  <SCORE.INTRA.REPUL>
0

>  <SCORE.INTRA.REPUL.0>
0

>  <SCORE.INTRA.SOLV>
-0.182659

>  <SCORE.INTRA.SOLV.lig_0>
-26.2491

>  <SCORE.INTRA.VDW>
-0.506463

>  <SCORE.INTRA.VDW.0>
2.57239

>  <SCORE.INTRA.norm>
-0.134554

>  <SCORE.RESTR>
0

>  <SCORE.RESTR.CAVITY>
0

>  <SCORE.RESTR.norm>
0

>  <SCORE.SYSTEM>
0

>  <SCORE.SYSTEM.CONST>
0

>  <SCORE.SYSTEM.DIHEDRAL>
0

>  <SCORE.SYSTEM.SOLV>
0

>  <SCORE.SYSTEM.norm>
0

>  <SCORE.heavy>
30

>  <SCORE.norm>
-1.36381

>  <RMSD>
0.965

$$$$
lig.pdb
 OpenBabel11021811523D
libRbt.so/2013.1/901 2013/11/27
 30 34  0  0  0  0  0  0  0  0999 V2000
   26.5041   38.3500   21.2788 N   0  0  0  0  0  0  0  0  0  0  0  0
   26.7682   41.9007   24.7183 N   0  0  0  0  0  0  0  0  0  0  0  0
   27.9035   37.9210   21.3631 C   0  0  0  0  0  0  0  0  0  0  0  0
   28.0245   37.0202   20.1431 C   0  0  2  0  0  0  0  0  0  0  0  0
   25.8989   39.1125   22.3650 C   0  0  0  0  0  0  0  0  0  0  0  0
   24.5888   38.8927   22.8373 C   0  0  0  0  0  0  0  0  0  0  0  0
   24.0063   39.6272   23.8398 C   0  0  0  0  0  0  0  0  0  0  0  0
   24.0662   41.4908   25.5004 C   0  0  0  0  0  0  0  0  0  0  0  0
   28.6620   43.0112   25.2687 C   0  0  0  0  0  0  0  0  0  0  0  0
   28.7567   41.0073   23.6266 C   0  0  0  0  0  0  0  0  0  0  0  0
   26.6333   40.1515   23.0032 C   0  0  0  0  0  0  0  0  0  0  0  0
   24.6065   44.6832   27.1267 O   0  0  0  0  0  0  0  0  0  0  0  0
   24.2959   43.4908   27.0859 C   0  0  0  0  0  0  0  0  0  0  0  0
   23.4348   42.9478   27.9379 O   0  0  0  0  0  0  0  0  0  0  0  0
   24.8964   42.5821   26.0734 C   0  0  1  0  0  0  0  0  0  0  0  0
   22.9179   41.2518   25.8893 O   0  0  0  0  0  0  0  0  0  0  0  0
   26.2364   42.7518   25.6842 C   0  0  0  0  0  0  0  0  0  0  0  0
   28.1480   42.0377   24.5109 C   0  0  0  0  0  0  0  0  0  0  0  0
   27.4909   43.7611   26.2725 S   0  0  0  0  0  0  0  0  0  0  0  0
   26.0422   40.8937   24.0508 C   0  0  0  0  0  0  0  0  0  0  0  0
   24.7191   40.6568   24.4541 C   0  0  0  0  0  0  0  0  0  0  0  0
   23.8642   37.8902   22.3012 F   0  0  0  0  0  0  0  0  0  0  0  0
   27.9194   40.4941   22.5572 N   0  0  0  0  0  0  0  0  0  0  0  0
   27.8553   41.3125   21.3652 C   0  0  0  0  0  0  0  0  0  0  0  0
   25.7151   37.4401   20.4560 C   0  0  0  0  0  0  0  0  0  0  0  0
   29.0600   37.4616   19.2640 O   0  0  0  0  0  0  0  0  0  0  0  0
   26.7262   37.1703   19.3544 C   0  0  2  0  0  0  0  0  0  0  0  0
   26.5228   35.9437   18.5604 N   0  0  0  0  0  0  0  0  0  0  0  0
   26.3153   34.7131   19.3453 C   0  0  0  0  0  0  0  0  0  0  0  0
   25.5221   36.1030   17.4940 C   0  0  0  0  0  0  0  0  0  0  0  0
  1  5  1  0  0  0  0
  2 17  1  0  0  0  0
  3  1  1  0  0  0  0
  4  3  1  0  0  0  0
  4 26  1  6  0  0  0
  5 11  2  0  0  0  0
  5  6  1  0  0  0  0
  6  7  2  0  0  0  0
  7 21  1  0  0  0  0
  8 15  1  0  0  0  0
  8 16  2  0  0  0  0
  9 19  1  0  0  0  0
 10 18  1  0  0  0  0
 11 20  1  0  0  0  0
 13 14  1  0  0  0  0
 13 12  2  0  0  0  0
 15 13  1  1  0  0  0
 17 19  2  0  0  0  0
 17 15  1  0  0  0  0
 18  2  1  0  0  0  0
 18  9  2  0  0  0  0
 20 21  2  0  0  0  0
 20  2  1  0  0  0  0
 21  8  1  0  0  0  0
 22  6  1  0  0  0  0
 23 11  1  0  0  0  0
 23 10  1  0  0  0  0
 24 23  1  0  0  0  0
 25  1  1  0  0  0  0
 27  4  1  0  0  0  0
 27 25  1  0  0  0  0
 27 28  1  1  0  0  0
 29 28  1  0  0  0  0
 30 28  1  0  0  0  0
M  END
>  <CHROM.1>
-138.97781146,-177.71516574,-144.99953515,66.69184378,64.37998737,26.16904973
40.16565920,23.20752795,1.42846224,-0.32064320,-2.36121411

>  <Name>
lig.pdb

>  <RI>
0

>  <Rbt.Current_Directory>
/home/itssahil/PROJECTS/Mol_Feturizer/New_Systems/rnas/6bfb

>  <Rbt.Executable>
rbdock ($Id: //depot/dev/client3/rdock/2013.1/src/exe/rbdock.cxx#4 $)

>  <Rbt.Library>
libRbt.so (2013.1, Build901 2013/11/27)

>  <Rbt.Parameter_File>
/export/apps/rDock/src/rDock_2013.1_src/data/scripts/dock_solv.prm

>  <Rbt.Receptor>
prm/pocket_docking_3.prm

>  <SCORE>
-37.868

>  <SCORE.INTER>
-34.5517

>  <SCORE.INTER.CONST>
1

>  <SCORE.INTER.POLAR>
-0.952181

>  <SCORE.INTER.ROT>
3

>  <SCORE.INTER.SOLV>
10.1706

>  <SCORE.INTER.VDW>
-28.8507

>  <SCORE.INTER.norm>
-1.15172

>  <SCORE.INTRA>
-3.31623

>  <SCORE.INTRA.DIHEDRAL>
-7.33371

>  <SCORE.INTRA.DIHEDRAL.0>
9.41909

>  <SCORE.INTRA.POLAR>
0

>  <SCORE.INTRA.POLAR.0>
0

>  <SCORE.INTRA.REPUL>
0

>  <SCORE.INTRA.REPUL.0>
0

>  <SCORE.INTRA.SOLV>
-0.12615

>  <SCORE.INTRA.SOLV.lig_0>
-26.2491

>  <SCORE.INTRA.VDW>
0.4137

>  <SCORE.INTRA.VDW.0>
2.57239

>  <SCORE.INTRA.norm>
-0.110541

>  <SCORE.RESTR>
0

>  <SCORE.RESTR.CAVITY>
0

>  <SCORE.RESTR.norm>
0

>  <SCORE.SYSTEM>
0

>  <SCORE.SYSTEM.CONST>
0

>  <SCORE.SYSTEM.DIHEDRAL>
0

>  <SCORE.SYSTEM.SOLV>
0

>  <SCORE.SYSTEM.norm>
0

>  <SCORE.heavy>
30

>  <SCORE.norm>
-1.26227

>  <RMSD>
0.973

$$$$
lig.pdb
 OpenBabel11021811523D
libRbt.so/2013.1/901 2013/11/27
 30 34  0  0  0  0  0  0  0  0999 V2000
   26.5178   38.3396   21.2673 N   0  0  0  0  0  0  0  0  0  0  0  0
   26.8048   41.9014   24.6934 N   0  0  0  0  0  0  0  0  0  0  0  0
   27.9152   37.9041   21.3517 C   0  0  0  0  0  0  0  0  0  0  0  0
   28.0304   36.9975   20.1355 C   0  0  2  0  0  0  0  0  0  0  0  0
   25.9177   39.1098   22.3509 C   0  0  0  0  0  0  0  0  0  0  0  0
   24.6065   38.8996   22.8245 C   0  0  0  0  0  0  0  0  0  0  0  0
   24.0288   39.6413   23.8246 C   0  0  0  0  0  0  0  0  0  0  0  0
   24.1007   41.5106   25.4781 C   0  0  0  0  0  0  0  0  0  0  0  0
   28.7054   43.0025   25.2389 C   0  0  0  0  0  0  0  0  0  0  0  0
   28.7874   40.9920   23.6042 C   0  0  0  0  0  0  0  0  0  0  0  0
   26.6586   40.1467   22.9849 C   0  0  0  0  0  0  0  0  0  0  0  0
   24.5862   44.7236   27.0322 O   0  0  0  0  0  0  0  0  0  0  0  0
   24.3430   43.5151   27.0561 C   0  0  0  0  0  0  0  0  0  0  0  0
   23.5636   42.9618   27.9771 O   0  0  0  0  0  0  0  0  0  0  0  0
   24.9376   42.5990   26.0468 C   0  0  1  0  0  0  0  0  0  0  0  0
   22.9511   41.2799   25.8685 O   0  0  0  0  0  0  0  0  0  0  0  0
   26.2785   42.7593   25.6564 C   0  0  0  0  0  0  0  0  0  0  0  0
   28.1853   42.0294   24.4849 C   0  0  0  0  0  0  0  0  0  0  0  0
   27.5393   43.7632   26.2404 S   0  0  0  0  0  0  0  0  0  0  0  0
   26.0724   40.8963   24.0299 C   0  0  0  0  0  0  0  0  0  0  0  0
   24.7481   40.6688   24.4347 C   0  0  0  0  0  0  0  0  0  0  0  0
   23.8757   37.8994   22.2925 F   0  0  0  0  0  0  0  0  0  0  0  0
   27.9465   40.4798   22.5371 N   0  0  0  0  0  0  0  0  0  0  0  0
   27.8868   41.2942   21.3421 C   0  0  0  0  0  0  0  0  0  0  0  0
   25.7234   37.4299   20.4495 C   0  0  0  0  0  0  0  0  0  0  0  0
   29.0668   37.4301   19.2532 O   0  0  0  0  0  0  0  0  0  0  0  0
   26.7317   37.1504   19.3478 C   0  0  2  0  0  0  0  0  0  0  0  0
   26.5215   35.9212   18.5594 N   0  0  0  0  0  0  0  0  0  0  0  0
   26.3165   34.6939   19.3500 C   0  0  0  0  0  0  0  0  0  0  0  0
   25.5147   36.0785   17.4985 C   0  0  0  0  0  0  0  0  0  0  0  0
  1  5  1  0  0  0  0
  2 17  1  0  0  0  0
  3  1  1  0  0  0  0
  4  3  1  0  0  0  0
  4 26  1  6  0  0  0
  5 11  2  0  0  0  0
  5  6  1  0  0  0  0
  6  7  2  0  0  0  0
  7 21  1  0  0  0  0
  8 15  1  0  0  0  0
  8 16  2  0  0  0  0
  9 19  1  0  0  0  0
 10 18  1  0  0  0  0
 11 20  1  0  0  0  0
 13 14  1  0  0  0  0
 13 12  2  0  0  0  0
 15 13  1  1  0  0  0
 17 19  2  0  0  0  0
 17 15  1  0  0  0  0
 18  2  1  0  0  0  0
 18  9  2  0  0  0  0
 20 21  2  0  0  0  0
 20  2  1  0  0  0  0
 21  8  1  0  0  0  0
 22  6  1  0  0  0  0
 23 11  1  0  0  0  0
 23 10  1  0  0  0  0
 24 23  1  0  0  0  0
 25  1  1  0  0  0  0
 27  4  1  0  0  0  0
 27 25  1  0  0  0  0
 27 28  1  1  0  0  0
 29 28  1  0  0  0  0
 30 28  1  0  0  0  0
M  END
>  <CHROM.1>
-139.07026049,-0.65733843,-139.72487992,64.66908494,64.05753676,26.19474061
40.16790258,23.19199284,1.43256319,-0.31628675,-2.36379157

>  <Name>
lig.pdb

>  <RI>
0

>  <Rbt.Current_Directory>
/home/itssahil/PROJECTS/Mol_Feturizer/New_Systems/rnas/6bfb

>  <Rbt.Executable>
rbdock ($Id: //depot/dev/client3/rdock/2013.1/src/exe/rbdock.cxx#4 $)

>  <Rbt.Library>
libRbt.so (2013.1, Build901 2013/11/27)

>  <Rbt.Parameter_File>
/export/apps/rDock/src/rDock_2013.1_src/data/scripts/dock_solv.prm

>  <Rbt.Receptor>
prm/pocket_docking_3.prm

>  <SCORE>
-38.5309

>  <SCORE.INTER>
-34.4128

>  <SCORE.INTER.CONST>
1

>  <SCORE.INTER.POLAR>
-0.953542

>  <SCORE.INTER.ROT>
3

>  <SCORE.INTER.SOLV>
10.1922

>  <SCORE.INTER.VDW>
-28.7608

>  <SCORE.INTER.norm>
-1.14709

>  <SCORE.INTRA>
-4.11805

>  <SCORE.INTRA.DIHEDRAL>
-7.47022

>  <SCORE.INTRA.DIHEDRAL.0>
9.41909

>  <SCORE.INTRA.POLAR>
0

>  <SCORE.INTRA.POLAR.0>
0

>  <SCORE.INTRA.REPUL>
0

>  <SCORE.INTRA.REPUL.0>
0

>  <SCORE.INTRA.SOLV>
-0.14596

>  <SCORE.INTRA.SOLV.lig_0>
-26.2491

>  <SCORE.INTRA.VDW>
-0.309965

>  <SCORE.INTRA.VDW.0>
2.57239

>  <SCORE.INTRA.norm>
-0.137268

>  <SCORE.RESTR>
0

>  <SCORE.RESTR.CAVITY>
0

>  <SCORE.RESTR.norm>
0

>  <SCORE.SYSTEM>
0

>  <SCORE.SYSTEM.CONST>
0

>  <SCORE.SYSTEM.DIHEDRAL>
0

>  <SCORE.SYSTEM.SOLV>
0

>  <SCORE.SYSTEM.norm>
0

>  <SCORE.heavy>
30

>  <SCORE.norm>
-1.28436

>  <RMSD>
0.975

$$$$
lig.pdb
 OpenBabel11021811523D
libRbt.so/2013.1/901 2013/11/27
 30 34  0  0  0  0  0  0  0  0999 V2000
   26.4384   38.2087   21.2236 N   0  0  0  0  0  0  0  0  0  0  0  0
   27.0440   41.9393   24.4210 N   0  0  0  0  0  0  0  0  0  0  0  0
   27.7747   37.6112   21.3074 C   0  0  0  0  0  0  0  0  0  0  0  0
   27.7800   36.6943   20.0935 C   0  0  2  0  0  0  0  0  0  0  0  0
   25.9353   39.0471   22.3059 C   0  0  0  0  0  0  0  0  0  0  0  0
   24.6605   38.8892   22.8872 C   0  0  0  0  0  0  0  0  0  0  0  0
   24.1729   39.6943   23.8862 C   0  0  0  0  0  0  0  0  0  0  0  0
   24.4012   41.6463   25.4262 C   0  0  0  0  0  0  0  0  0  0  0  0
   28.9986   43.0281   24.7621 C   0  0  0  0  0  0  0  0  0  0  0  0
   28.9227   40.9330   23.2370 C   0  0  0  0  0  0  0  0  0  0  0  0
   26.7393   40.1004   22.8256 C   0  0  0  0  0  0  0  0  0  0  0  0
   23.8208   44.4380   26.6226 O   0  0  0  0  0  0  0  0  0  0  0  0
   24.7960   43.7256   26.8709 C   0  0  0  0  0  0  0  0  0  0  0  0
   25.4596   43.7982   28.0182 O   0  0  0  0  0  0  0  0  0  0  0  0
   25.2969   42.7456   25.8708 C   0  0  1  0  0  0  0  0  0  0  0  0
   23.2809   41.4602   25.9135 O   0  0  0  0  0  0  0  0  0  0  0  0
   26.6067   42.8573   25.3729 C   0  0  0  0  0  0  0  0  0  0  0  0
   28.4066   42.0275   24.1030 C   0  0  0  0  0  0  0  0  0  0  0  0
   27.9247   43.8643   25.8056 S   0  0  0  0  0  0  0  0  0  0  0  0
   26.2468   40.9160   23.8696 C   0  0  0  0  0  0  0  0  0  0  0  0
   24.9534   40.7375   24.3842 C   0  0  0  0  0  0  0  0  0  0  0  0
   23.8748   37.8777   22.4663 F   0  0  0  0  0  0  0  0  0  0  0  0
   27.9948   40.3829   22.2652 N   0  0  0  0  0  0  0  0  0  0  0  0
   27.8581   41.1342   21.0357 C   0  0  0  0  0  0  0  0  0  0  0  0
   25.5408   37.3973   20.4092 C   0  0  0  0  0  0  0  0  0  0  0  0
   28.8590   36.9992   19.2088 O   0  0  0  0  0  0  0  0  0  0  0  0
   26.5074   36.9978   19.3070 C   0  0  2  0  0  0  0  0  0  0  0  0
   26.1520   35.8002   18.5221 N   0  0  0  0  0  0  0  0  0  0  0  0
   25.7599   34.6213   19.3156 C   0  0  0  0  0  0  0  0  0  0  0  0
   25.2050   36.0817   17.4322 C   0  0  0  0  0  0  0  0  0  0  0  0
  1  5  1  0  0  0  0
  2 17  1  0  0  0  0
  3  1  1  0  0  0  0
  4  3  1  0  0  0  0
  4 26  1  6  0  0  0
  5 11  2  0  0  0  0
  5  6  1  0  0  0  0
  6  7  2  0  0  0  0
  7 21  1  0  0  0  0
  8 15  1  0  0  0  0
  8 16  2  0  0  0  0
  9 19  1  0  0  0  0
 10 18  1  0  0  0  0
 11 20  1  0  0  0  0
 13 14  1  0  0  0  0
 13 12  2  0  0  0  0
 15 13  1  1  0  0  0
 17 19  2  0  0  0  0
 17 15  1  0  0  0  0
 18  2  1  0  0  0  0
 18  9  2  0  0  0  0
 20 21  2  0  0  0  0
 20  2  1  0  0  0  0
 21  8  1  0  0  0  0
 22  6  1  0  0  0  0
 23 11  1  0  0  0  0
 23 10  1  0  0  0  0
 24 23  1  0  0  0  0
 25  1  1  0  0  0  0
 27  4  1  0  0  0  0
 27 25  1  0  0  0  0
 27 28  1  1  0  0  0
 29 28  1  0  0  0  0
 30 28  1  0  0  0  0
M  END
>  <CHROM.1>
-131.36956761,1.01065508,-61.52106490,178.15426898,66.06134064,26.28929552
40.15919766,23.04693334,1.51165055,-0.31605413,-2.37708661

>  <Name>
lig.pdb

>  <RI>
0

>  <Rbt.Current_Directory>
/home/itssahil/PROJECTS/Mol_Feturizer/New_Systems/rnas/6bfb

>  <Rbt.Executable>
rbdock ($Id: //depot/dev/client3/rdock/2013.1/src/exe/rbdock.cxx#4 $)

>  <Rbt.Library>
libRbt.so (2013.1, Build901 2013/11/27)

>  <Rbt.Parameter_File>
/export/apps/rDock/src/rDock_2013.1_src/data/scripts/dock_solv.prm

>  <Rbt.Receptor>
prm/pocket_docking_3.prm

>  <SCORE>
-35.263

>  <SCORE.INTER>
-30.0591

>  <SCORE.INTER.CONST>
1

>  <SCORE.INTER.POLAR>
0

>  <SCORE.INTER.ROT>
3

>  <SCORE.INTER.SOLV>
10.4727

>  <SCORE.INTER.VDW>
-29.1303

>  <SCORE.INTER.norm>
-1.00197

>  <SCORE.INTRA>
-5.20387

>  <SCORE.INTRA.DIHEDRAL>
-7.51567

>  <SCORE.INTRA.DIHEDRAL.0>
9.41909

>  <SCORE.INTRA.POLAR>
0

>  <SCORE.INTRA.POLAR.0>
0

>  <SCORE.INTRA.REPUL>
0.00094289

>  <SCORE.INTRA.REPUL.0>
0

>  <SCORE.INTRA.SOLV>
-0.175617

>  <SCORE.INTRA.SOLV.lig_0>
-26.2491

>  <SCORE.INTRA.VDW>
-1.36294

>  <SCORE.INTRA.VDW.0>
2.57239

>  <SCORE.INTRA.norm>
-0.173462

>  <SCORE.RESTR>
0

>  <SCORE.RESTR.CAVITY>
0

>  <SCORE.RESTR.norm>
0

>  <SCORE.SYSTEM>
0

>  <SCORE.SYSTEM.CONST>
0

>  <SCORE.SYSTEM.DIHEDRAL>
0

>  <SCORE.SYSTEM.SOLV>
0

>  <SCORE.SYSTEM.norm>
0

>  <SCORE.heavy>
30

>  <SCORE.norm>
-1.17543

>  <RMSD>
0.993

$$$$
lig.pdb
 OpenBabel11021811523D
libRbt.so/2013.1/901 2013/11/27
 30 34  0  0  0  0  0  0  0  0999 V2000
   26.3971   38.2386   21.2346 N   0  0  0  0  0  0  0  0  0  0  0  0
   27.0572   41.9539   24.4390 N   0  0  0  0  0  0  0  0  0  0  0  0
   27.7357   37.6438   21.2962 C   0  0  0  0  0  0  0  0  0  0  0  0
   27.7228   36.7274   20.0820 C   0  0  2  0  0  0  0  0  0  0  0  0
   25.9101   39.0757   22.3253 C   0  0  0  0  0  0  0  0  0  0  0  0
   24.6409   38.9225   22.9197 C   0  0  0  0  0  0  0  0  0  0  0  0
   24.1684   39.7265   23.9268 C   0  0  0  0  0  0  0  0  0  0  0  0
   24.4238   41.6713   25.4715 C   0  0  0  0  0  0  0  0  0  0  0  0
   29.0213   43.0309   24.7631 C   0  0  0  0  0  0  0  0  0  0  0  0
   28.9176   40.9420   23.2311 C   0  0  0  0  0  0  0  0  0  0  0  0
   26.7254   40.1227   22.8402 C   0  0  0  0  0  0  0  0  0  0  0  0
   23.9058   44.4994   26.6643 O   0  0  0  0  0  0  0  0  0  0  0  0
   24.8454   43.7431   26.9196 C   0  0  0  0  0  0  0  0  0  0  0  0
   25.4839   43.7652   28.0831 O   0  0  0  0  0  0  0  0  0  0  0  0
   25.3302   42.7641   25.9106 C   0  0  1  0  0  0  0  0  0  0  0  0
   23.3079   41.4895   25.9702 O   0  0  0  0  0  0  0  0  0  0  0  0
   26.6352   42.8707   25.3990 C   0  0  0  0  0  0  0  0  0  0  0  0
   28.4167   42.0360   24.1067 C   0  0  0  0  0  0  0  0  0  0  0  0
   27.9632   43.8689   25.8212 S   0  0  0  0  0  0  0  0  0  0  0  0
   26.2486   40.9370   23.8924 C   0  0  0  0  0  0  0  0  0  0  0  0
   24.9598   40.7635   24.4203 C   0  0  0  0  0  0  0  0  0  0  0  0
   23.8453   37.9169   22.5035 F   0  0  0  0  0  0  0  0  0  0  0  0
   27.9764   40.4005   22.2673 N   0  0  0  0  0  0  0  0  0  0  0  0
   27.8305   41.1572   21.0422 C   0  0  0  0  0  0  0  0  0  0  0  0
   25.4878   37.4258   20.4347 C   0  0  0  0  0  0  0  0  0  0  0  0
   28.7866   37.0346   19.1798 O   0  0  0  0  0  0  0  0  0  0  0  0
   26.4369   37.0287   19.3166 C   0  0  2  0  0  0  0  0  0  0  0  0
   26.0710   35.8307   18.5371 N   0  0  0  0  0  0  0  0  0  0  0  0
   25.7977   34.6208   19.3339 C   0  0  0  0  0  0  0  0  0  0  0  0
   25.0261   36.0886   17.5344 C   0  0  0  0  0  0  0  0  0  0  0  0
  1  5  1  0  0  0  0
  2 17  1  0  0  0  0
  3  1  1  0  0  0  0
  4  3  1  0  0  0  0
  4 26  1  6  0  0  0
  5 11  2  0  0  0  0
  5  6  1  0  0  0  0
  6  7  2  0  0  0  0
  7 21  1  0  0  0  0
  8 15  1  0  0  0  0
  8 16  2  0  0  0  0
  9 19  1  0  0  0  0
 10 18  1  0  0  0  0
 11 20  1  0  0  0  0
 13 14  1  0  0  0  0
 13 12  2  0  0  0  0
 15 13  1  1  0  0  0
 17 19  2  0  0  0  0
 17 15  1  0  0  0  0
 18  2  1  0  0  0  0
 18  9  2  0  0  0  0
 20 21  2  0  0  0  0
 20  2  1  0  0  0  0
 21  8  1  0  0  0  0
 22  6  1  0  0  0  0
 23 11  1  0  0  0  0
 23 10  1  0  0  0  0
 24 23  1  0  0  0  0
 25  1  1  0  0  0  0
 27  4  1  0  0  0  0
 27 25  1  0  0  0  0
 27 28  1  1  0  0  0
 29 28  1  0  0  0  0
 30 28  1  0  0  0  0
M  END
>  <CHROM.1>
-131.93468449,179.76443868,-64.48739767,177.11776086,61.43304295,26.28196808
40.17675767,23.06888703,1.52418756,-0.32000310,-2.37137759

>  <Name>
lig.pdb

>  <RI>
0

>  <Rbt.Current_Directory>
/home/itssahil/PROJECTS/Mol_Feturizer/New_Systems/rnas/6bfb

>  <Rbt.Executable>
rbdock ($Id: //depot/dev/client3/rdock/2013.1/src/exe/rbdock.cxx#4 $)

>  <Rbt.Library>
libRbt.so (2013.1, Build901 2013/11/27)

>  <Rbt.Parameter_File>
/export/apps/rDock/src/rDock_2013.1_src/data/scripts/dock_solv.prm

>  <Rbt.Receptor>
prm/blind_docking_80.prm

>  <SCORE>
-35.5231

>  <SCORE.INTER>
-30.7173

>  <SCORE.INTER.CONST>
1

>  <SCORE.INTER.POLAR>
0

>  <SCORE.INTER.ROT>
3

>  <SCORE.INTER.SOLV>
10.4514

>  <SCORE.INTER.VDW>
-29.562

>  <SCORE.INTER.norm>
-1.02391

>  <SCORE.INTRA>
-4.80573

>  <SCORE.INTRA.DIHEDRAL>
-7.62024

>  <SCORE.INTRA.DIHEDRAL.0>
9.41909

>  <SCORE.INTRA.POLAR>
0

>  <SCORE.INTRA.POLAR.0>
0

>  <SCORE.INTRA.REPUL>
0

>  <SCORE.INTRA.REPUL.0>
0

>  <SCORE.INTRA.SOLV>
-0.233416

>  <SCORE.INTRA.SOLV.lig_0>
-26.2491

>  <SCORE.INTRA.VDW>
-0.8789

>  <SCORE.INTRA.VDW.0>
2.57239

>  <SCORE.INTRA.norm>
-0.160191

>  <SCORE.RESTR>
0

>  <SCORE.RESTR.CAVITY>
0

>  <SCORE.RESTR.norm>
0

>  <SCORE.SYSTEM>
0

>  <SCORE.SYSTEM.CONST>
0

>  <SCORE.SYSTEM.DIHEDRAL>
0

>  <SCORE.SYSTEM.SOLV>
0

>  <SCORE.SYSTEM.norm>
0

>  <SCORE.heavy>
30

>  <SCORE.norm>
-1.1841

>  <RMSD>
1.000

$$$$
lig.pdb
 OpenBabel11021811523D
libRbt.so/2013.1/901 2013/11/27
 30 34  0  0  0  0  0  0  0  0999 V2000
   26.4825   38.5326   21.4284 N   0  0  0  0  0  0  0  0  0  0  0  0
   26.8331   42.0976   24.8452 N   0  0  0  0  0  0  0  0  0  0  0  0
   27.8652   38.0507   21.5010 C   0  0  0  0  0  0  0  0  0  0  0  0
   27.9512   37.1706   20.2631 C   0  0  2  0  0  0  0  0  0  0  0  0
   25.9074   39.2951   22.5308 C   0  0  0  0  0  0  0  0  0  0  0  0
   24.6147   39.0683   23.0458 C   0  0  0  0  0  0  0  0  0  0  0  0
   24.0598   39.8026   24.0640 C   0  0  0  0  0  0  0  0  0  0  0  0
   24.1604   41.6726   25.7153 C   0  0  0  0  0  0  0  0  0  0  0  0
   28.7361   43.2227   25.3306 C   0  0  0  0  0  0  0  0  0  0  0  0
   28.7914   41.2134   23.6932 C   0  0  0  0  0  0  0  0  0  0  0  0
   26.6549   40.3413   23.1415 C   0  0  0  0  0  0  0  0  0  0  0  0
   24.3535   43.3305   28.4658 O   0  0  0  0  0  0  0  0  0  0  0  0
   24.4275   43.6799   27.2857 C   0  0  0  0  0  0  0  0  0  0  0  0
   23.9922   44.8601   26.8619 O   0  0  0  0  0  0  0  0  0  0  0  0
   25.0013   42.7715   26.2576 C   0  0  1  0  0  0  0  0  0  0  0  0
   23.0269   41.4274   26.1419 O   0  0  0  0  0  0  0  0  0  0  0  0
   26.3269   42.9487   25.8248 C   0  0  0  0  0  0  0  0  0  0  0  0
   28.2045   42.2430   24.5931 C   0  0  0  0  0  0  0  0  0  0  0  0
   27.5928   43.9684   26.3689 S   0  0  0  0  0  0  0  0  0  0  0  0
   26.0928   41.0834   24.2049 C   0  0  0  0  0  0  0  0  0  0  0  0
   24.7850   40.8391   24.6514 C   0  0  0  0  0  0  0  0  0  0  0  0
   23.8800   38.0590   22.5368 F   0  0  0  0  0  0  0  0  0  0  0  0
   27.9236   40.6907   22.6531 N   0  0  0  0  0  0  0  0  0  0  0  0
   27.8157   41.5043   21.4609 C   0  0  0  0  0  0  0  0  0  0  0  0
   25.6593   37.6690   20.5894 C   0  0  0  0  0  0  0  0  0  0  0  0
   29.0009   37.5910   19.3907 O   0  0  0  0  0  0  0  0  0  0  0  0
   26.6581   37.3841   19.4804 C   0  0  2  0  0  0  0  0  0  0  0  0
   26.4085   36.1819   18.6626 N   0  0  0  0  0  0  0  0  0  0  0  0
   25.0156   36.0045   18.2135 C   0  0  0  0  0  0  0  0  0  0  0  0
   27.3756   36.0155   17.5668 C   0  0  0  0  0  0  0  0  0  0  0  0
  1  5  1  0  0  0  0
  2 17  1  0  0  0  0
  3  1  1  0  0  0  0
  4  3  1  0  0  0  0
  4 26  1  6  0  0  0
  5 11  2  0  0  0  0
  5  6  1  0  0  0  0
  6  7  2  0  0  0  0
  7 21  1  0  0  0  0
  8 15  1  0  0  0  0
  8 16  2  0  0  0  0
  9 19  1  0  0  0  0
 10 18  1  0  0  0  0
 11 20  1  0  0  0  0
 13 14  1  0  0  0  0
 13 12  2  0  0  0  0
 15 13  1  1  0  0  0
 17 19  2  0  0  0  0
 17 15  1  0  0  0  0
 18  2  1  0  0  0  0
 18  9  2  0  0  0  0
 20 21  2  0  0  0  0
 20  2  1  0  0  0  0
 21  8  1  0  0  0  0
 22  6  1  0  0  0  0
 23 11  1  0  0  0  0
 23 10  1  0  0  0  0
 24 23  1  0  0  0  0
 25  1  1  0  0  0  0
 27  4  1  0  0  0  0
 27 25  1  0  0  0  0
 27 28  1  1  0  0  0
 29 28  1  0  0  0  0
 30 28  1  0  0  0  0
M  END
>  <CHROM.1>
-135.65071504,174.40907156,79.03873591,66.32366328,159.79264331,26.22386094
40.39574032,23.30056808,1.43313380,-0.31439559,-2.33760275

>  <Name>
lig.pdb

>  <RI>
0

>  <Rbt.Current_Directory>
/home/itssahil/PROJECTS/Mol_Feturizer/New_Systems/rnas/6bfb

>  <Rbt.Executable>
rbdock ($Id: //depot/dev/client3/rdock/2013.1/src/exe/rbdock.cxx#4 $)

>  <Rbt.Library>
libRbt.so (2013.1, Build901 2013/11/27)

>  <Rbt.Parameter_File>
/export/apps/rDock/src/rDock_2013.1_src/data/scripts/dock_solv.prm

>  <Rbt.Receptor>
prm/pocket_docking_3.prm

>  <SCORE>
-40.9832

>  <SCORE.INTER>
-37.2115

>  <SCORE.INTER.CONST>
1

>  <SCORE.INTER.POLAR>
-1.71623

>  <SCORE.INTER.ROT>
3

>  <SCORE.INTER.SOLV>
10.4849

>  <SCORE.INTER.VDW>
-28.1818

>  <SCORE.INTER.norm>
-1.24038

>  <SCORE.INTRA>
-3.77173

>  <SCORE.INTRA.DIHEDRAL>
-6.97122

>  <SCORE.INTRA.DIHEDRAL.0>
9.41909

>  <SCORE.INTRA.POLAR>
0

>  <SCORE.INTRA.POLAR.0>
0

>  <SCORE.INTRA.REPUL>
0

>  <SCORE.INTRA.REPUL.0>
0

>  <SCORE.INTRA.SOLV>
-0.163701

>  <SCORE.INTRA.SOLV.lig_0>
-26.2491

>  <SCORE.INTRA.VDW>
-0.204269

>  <SCORE.INTRA.VDW.0>
2.57239

>  <SCORE.INTRA.norm>
-0.125724

>  <SCORE.RESTR>
0

>  <SCORE.RESTR.CAVITY>
0

>  <SCORE.RESTR.norm>
0

>  <SCORE.SYSTEM>
0

>  <SCORE.SYSTEM.CONST>
0

>  <SCORE.SYSTEM.DIHEDRAL>
0

>  <SCORE.SYSTEM.SOLV>
0

>  <SCORE.SYSTEM.norm>
0

>  <SCORE.heavy>
30

>  <SCORE.norm>
-1.36611

>  <RMSD>
1.000

$$$$
lig.pdb
 OpenBabel11021811523D
libRbt.so/2013.1/901 2013/11/27
 30 34  0  0  0  0  0  0  0  0999 V2000
   26.4280   38.5797   21.4510 N   0  0  0  0  0  0  0  0  0  0  0  0
   26.8167   42.1215   24.8877 N   0  0  0  0  0  0  0  0  0  0  0  0
   27.8075   38.0874   21.5155 C   0  0  0  0  0  0  0  0  0  0  0  0
   27.8826   37.2143   20.2719 C   0  0  2  0  0  0  0  0  0  0  0  0
   25.8625   39.3395   22.5602 C   0  0  0  0  0  0  0  0  0  0  0  0
   24.5702   39.1186   23.0787 C   0  0  0  0  0  0  0  0  0  0  0  0
   24.0244   39.8507   24.1035 C   0  0  0  0  0  0  0  0  0  0  0  0
   24.1444   41.7100   25.7656 C   0  0  0  0  0  0  0  0  0  0  0  0
   28.7293   43.2304   25.3724 C   0  0  0  0  0  0  0  0  0  0  0  0
   28.7643   41.2307   23.7228 C   0  0  0  0  0  0  0  0  0  0  0  0
   26.6197   40.3767   23.1741 C   0  0  0  0  0  0  0  0  0  0  0  0
   24.3561   43.3485   28.5244 O   0  0  0  0  0  0  0  0  0  0  0  0
   24.4315   43.7059   27.3469 C   0  0  0  0  0  0  0  0  0  0  0  0
   24.0069   44.8933   26.9325 O   0  0  0  0  0  0  0  0  0  0  0  0
   24.9950   42.7997   26.3111 C   0  0  1  0  0  0  0  0  0  0  0  0
   23.0109   41.4701   26.1950 O   0  0  0  0  0  0  0  0  0  0  0  0
   26.3202   42.9703   25.8743 C   0  0  0  0  0  0  0  0  0  0  0  0
   28.1881   42.2589   24.6311 C   0  0  0  0  0  0  0  0  0  0  0  0
   27.5953   43.9778   26.4196 S   0  0  0  0  0  0  0  0  0  0  0  0
   26.0669   41.1163   24.2442 C   0  0  0  0  0  0  0  0  0  0  0  0
   24.7590   40.8785   24.6943 C   0  0  0  0  0  0  0  0  0  0  0  0
   23.8266   38.1176   22.5665 F   0  0  0  0  0  0  0  0  0  0  0  0
   27.8889   40.7203   22.6829 N   0  0  0  0  0  0  0  0  0  0  0  0
   27.7821   41.5418   21.4961 C   0  0  0  0  0  0  0  0  0  0  0  0
   25.5955   37.7271   20.6098 C   0  0  0  0  0  0  0  0  0  0  0  0
   28.9321   37.6325   19.3981 O   0  0  0  0  0  0  0  0  0  0  0  0
   26.5882   37.4419   19.4954 C   0  0  2  0  0  0  0  0  0  0  0  0
   26.3269   36.2465   18.6712 N   0  0  0  0  0  0  0  0  0  0  0  0
   24.9200   36.0488   18.2776 C   0  0  0  0  0  0  0  0  0  0  0  0
   27.2504   36.1136   17.5339 C   0  0  0  0  0  0  0  0  0  0  0  0
  1  5  1  0  0  0  0
  2 17  1  0  0  0  0
  3  1  1  0  0  0  0
  4  3  1  0  0  0  0
  4 26  1  6  0  0  0
  5 11  2  0  0  0  0
  5  6  1  0  0  0  0
  6  7  2  0  0  0  0
  7 21  1  0  0  0  0
  8 15  1  0  0  0  0
  8 16  2  0  0  0  0
  9 19  1  0  0  0  0
 10 18  1  0  0  0  0
 11 20  1  0  0  0  0
 13 14  1  0  0  0  0
 13 12  2  0  0  0  0
 15 13  1  1  0  0  0
 17 19  2  0  0  0  0
 17 15  1  0  0  0  0
 18  2  1  0  0  0  0
 18  9  2  0  0  0  0
 20 21  2  0  0  0  0
 20  2  1  0  0  0  0
 21  8  1  0  0  0  0
 22  6  1  0  0  0  0
 23 11  1  0  0  0  0
 23 10  1  0  0  0  0
 24 23  1  0  0  0  0
 25  1  1  0  0  0  0
 27  4  1  0  0  0  0
 27 25  1  0  0  0  0
 27 28  1  1  0  0  0
 29 28  1  0  0  0  0
 30 28  1  0  0  0  0
M  END
>  <CHROM.1>
-135.63621407,175.80006585,78.82704309,66.66665300,157.12267347,26.18786721
40.43330839,23.33571012,1.44196432,-0.31330901,-2.32912571

>  <Name>
lig.pdb

>  <RI>
0

>  <Rbt.Current_Directory>
/home/itssahil/PROJECTS/Mol_Feturizer/New_Systems/rnas/6bfb

>  <Rbt.Executable>
rbdock ($Id: //depot/dev/client3/rdock/2013.1/src/exe/rbdock.cxx#4 $)

>  <Rbt.Library>
libRbt.so (2013.1, Build901 2013/11/27)

>  <Rbt.Parameter_File>
/export/apps/rDock/src/rDock_2013.1_src/data/scripts/dock_solv.prm

>  <Rbt.Receptor>
prm/blind_docking_60.prm

>  <SCORE>
-40.9129

>  <SCORE.INTER>
-37.11

>  <SCORE.INTER.CONST>
1

>  <SCORE.INTER.POLAR>
-1.69808

>  <SCORE.INTER.ROT>
3

>  <SCORE.INTER.SOLV>
10.4892

>  <SCORE.INTER.VDW>
-28.1761

>  <SCORE.INTER.norm>
-1.237

>  <SCORE.INTRA>
-3.80288

>  <SCORE.INTRA.DIHEDRAL>
-6.93914

>  <SCORE.INTRA.DIHEDRAL.0>
9.41909

>  <SCORE.INTRA.POLAR>
0

>  <SCORE.INTRA.POLAR.0>
0

>  <SCORE.INTRA.REPUL>
0

>  <SCORE.INTRA.REPUL.0>
0

>  <SCORE.INTRA.SOLV>
-0.17023

>  <SCORE.INTRA.SOLV.lig_0>
-26.2491

>  <SCORE.INTRA.VDW>
-0.248197

>  <SCORE.INTRA.VDW.0>
2.57239

>  <SCORE.INTRA.norm>
-0.126763

>  <SCORE.RESTR>
0

>  <SCORE.RESTR.CAVITY>
0

>  <SCORE.RESTR.norm>
0

>  <SCORE.SYSTEM>
0

>  <SCORE.SYSTEM.CONST>
0

>  <SCORE.SYSTEM.DIHEDRAL>
0

>  <SCORE.SYSTEM.SOLV>
0

>  <SCORE.SYSTEM.norm>
0

>  <SCORE.heavy>
30

>  <SCORE.norm>
-1.36376

>  <RMSD>
1.008

$$$$
lig.pdb
 OpenBabel11021811523D
libRbt.so/2013.1/901 2013/11/27
 30 34  0  0  0  0  0  0  0  0999 V2000
   26.5894   38.7203   21.2728 N   0  0  0  0  0  0  0  0  0  0  0  0
   27.0082   42.0830   24.8817 N   0  0  0  0  0  0  0  0  0  0  0  0
   27.8934   38.0530   21.3333 C   0  0  0  0  0  0  0  0  0  0  0  0
   27.9420   37.3469   19.9867 C   0  0  2  0  0  0  0  0  0  0  0  0
   26.0498   39.3947   22.4482 C   0  0  0  0  0  0  0  0  0  0  0  0
   24.7938   39.0929   23.0131 C   0  0  0  0  0  0  0  0  0  0  0  0
   24.2707   39.7449   24.1017 C   0  0  0  0  0  0  0  0  0  0  0  0
   24.3999   41.5144   25.8584 C   0  0  0  0  0  0  0  0  0  0  0  0
   28.8980   43.2417   25.3384 C   0  0  0  0  0  0  0  0  0  0  0  0
   28.9297   41.3379   23.5790 C   0  0  0  0  0  0  0  0  0  0  0  0
   26.7954   40.4274   23.0836 C   0  0  0  0  0  0  0  0  0  0  0  0
   25.3956   43.7520   28.4909 O   0  0  0  0  0  0  0  0  0  0  0  0
   24.6866   43.4315   27.5346 C   0  0  0  0  0  0  0  0  0  0  0  0
   23.4090   43.7804   27.4444 O   0  0  0  0  0  0  0  0  0  0  0  0
   25.2334   42.6070   26.4243 C   0  0  1  0  0  0  0  0  0  0  0  0
   23.2987   41.2050   26.3260 O   0  0  0  0  0  0  0  0  0  0  0  0
   26.5281   42.8556   25.9365 C   0  0  0  0  0  0  0  0  0  0  0  0
   28.3592   42.2905   24.5696 C   0  0  0  0  0  0  0  0  0  0  0  0
   27.7885   43.8837   26.4777 S   0  0  0  0  0  0  0  0  0  0  0  0
   26.2673   41.0842   24.2182 C   0  0  0  0  0  0  0  0  0  0  0  0
   24.9931   40.7686   24.7146 C   0  0  0  0  0  0  0  0  0  0  0  0
   24.0652   38.0913   22.4805 F   0  0  0  0  0  0  0  0  0  0  0  0
   28.0249   40.8491   22.5540 N   0  0  0  0  0  0  0  0  0  0  0  0
   27.8287   41.7289   21.4216 C   0  0  0  0  0  0  0  0  0  0  0  0
   25.7158   38.0970   20.2850 C   0  0  0  0  0  0  0  0  0  0  0  0
   29.0870   37.7389   19.2282 O   0  0  0  0  0  0  0  0  0  0  0  0
   26.7357   37.8359   19.1893 C   0  0  2  0  0  0  0  0  0  0  0  0
   26.3861   36.8008   18.1978 N   0  0  0  0  0  0  0  0  0  0  0  0
   27.2697   36.7341   17.0196 C   0  0  0  0  0  0  0  0  0  0  0  0
   26.1529   35.4784   18.7984 C   0  0  0  0  0  0  0  0  0  0  0  0
  1  5  1  0  0  0  0
  2 17  1  0  0  0  0
  3  1  1  0  0  0  0
  4  3  1  0  0  0  0
  4 26  1  6  0  0  0
  5 11  2  0  0  0  0
  5  6  1  0  0  0  0
  6  7  2  0  0  0  0
  7 21  1  0  0  0  0
  8 15  1  0  0  0  0
  8 16  2  0  0  0  0
  9 19  1  0  0  0  0
 10 18  1  0  0  0  0
 11 20  1  0  0  0  0
 13 14  1  0  0  0  0
 13 12  2  0  0  0  0
 15 13  1  1  0  0  0
 17 19  2  0  0  0  0
 17 15  1  0  0  0  0
 18  2  1  0  0  0  0
 18  9  2  0  0  0  0
 20 21  2  0  0  0  0
 20  2  1  0  0  0  0
 21  8  1  0  0  0  0
 22  6  1  0  0  0  0
 23 11  1  0  0  0  0
 23 10  1  0  0  0  0
 24 23  1  0  0  0  0
 25  1  1  0  0  0  0
 27  4  1  0  0  0  0
 27 25  1  0  0  0  0
 27 28  1  6  0  0  0
 29 28  1  0  0  0  0
 30 28  1  0  0  0  0
M  END
>  <CHROM.1>
-123.66932382,-1.00627293,138.27230510,65.79312434,-76.22190212,26.39650705
40.42940534,23.29331232,1.43142857,-0.37222731,-2.28540493

>  <Name>
lig.pdb

>  <RI>
0

>  <Rbt.Current_Directory>
/home/itssahil/PROJECTS/Mol_Feturizer/New_Systems/rnas/6bfb

>  <Rbt.Executable>
rbdock ($Id: //depot/dev/client3/rdock/2013.1/src/exe/rbdock.cxx#4 $)

>  <Rbt.Library>
libRbt.so (2013.1, Build901 2013/11/27)

>  <Rbt.Parameter_File>
/export/apps/rDock/src/rDock_2013.1_src/data/scripts/dock_solv.prm

>  <Rbt.Receptor>
prm/pocket_docking_5.prm

>  <SCORE>
-37.4662

>  <SCORE.INTER>
-33.5059

>  <SCORE.INTER.CONST>
1

>  <SCORE.INTER.POLAR>
-0.954017

>  <SCORE.INTER.ROT>
3

>  <SCORE.INTER.SOLV>
10.6576

>  <SCORE.INTER.VDW>
-28.3097

>  <SCORE.INTER.norm>
-1.11686

>  <SCORE.INTRA>
-3.96029

>  <SCORE.INTRA.DIHEDRAL>
-7.40631

>  <SCORE.INTRA.DIHEDRAL.0>
9.41909

>  <SCORE.INTRA.POLAR>
0

>  <SCORE.INTRA.POLAR.0>
0

>  <SCORE.INTRA.REPUL>
0.0211348

>  <SCORE.INTRA.REPUL.0>
0

>  <SCORE.INTRA.SOLV>
0.0555688

>  <SCORE.INTRA.SOLV.lig_0>
-26.2491

>  <SCORE.INTRA.VDW>
-0.390592

>  <SCORE.INTRA.VDW.0>
2.57239

>  <SCORE.INTRA.norm>
-0.13201

>  <SCORE.RESTR>
0

>  <SCORE.RESTR.CAVITY>
0

>  <SCORE.RESTR.norm>
0

>  <SCORE.SYSTEM>
0

>  <SCORE.SYSTEM.CONST>
0

>  <SCORE.SYSTEM.DIHEDRAL>
0

>  <SCORE.SYSTEM.SOLV>
0

>  <SCORE.SYSTEM.norm>
0

>  <SCORE.heavy>
30

>  <SCORE.norm>
-1.24887

>  <RMSD>
1.016

$$$$
lig.pdb
 OpenBabel11021811523D
libRbt.so/2013.1/901 2013/11/27
 30 34  0  0  0  0  0  0  0  0999 V2000
   26.5920   38.2220   21.1440 N   0  0  0  0  0  0  0  0  0  0  0  0
   27.0877   41.9170   24.4011 N   0  0  0  0  0  0  0  0  0  0  0  0
   27.9569   37.6909   21.2119 C   0  0  0  0  0  0  0  0  0  0  0  0
   27.9934   36.7762   19.9969 C   0  0  2  0  0  0  0  0  0  0  0  0
   26.0607   39.0339   22.2330 C   0  0  0  0  0  0  0  0  0  0  0  0
   24.7836   38.8414   22.7986 C   0  0  0  0  0  0  0  0  0  0  0  0
   24.2693   39.6216   23.8040 C   0  0  0  0  0  0  0  0  0  0  0  0
   24.4415   41.5550   25.3743 C   0  0  0  0  0  0  0  0  0  0  0  0
   29.0158   43.0408   24.7782 C   0  0  0  0  0  0  0  0  0  0  0  0
   28.9988   40.9672   23.2223 C   0  0  0  0  0  0  0  0  0  0  0  0
   26.8374   40.0959   22.7762 C   0  0  0  0  0  0  0  0  0  0  0  0
   23.8255   44.3558   26.5855 O   0  0  0  0  0  0  0  0  0  0  0  0
   24.7785   43.6207   26.8529 C   0  0  0  0  0  0  0  0  0  0  0  0
   25.3912   43.6458   28.0302 O   0  0  0  0  0  0  0  0  0  0  0  0
   25.3097   42.6659   25.8441 C   0  0  1  0  0  0  0  0  0  0  0  0
   23.3205   41.3389   25.8472 O   0  0  0  0  0  0  0  0  0  0  0  0
   26.6219   42.8119   25.3615 C   0  0  0  0  0  0  0  0  0  0  0  0
   28.4513   42.0380   24.0986 C   0  0  0  0  0  0  0  0  0  0  0  0
   27.9143   43.8393   25.8224 S   0  0  0  0  0  0  0  0  0  0  0  0
   26.3175   40.8857   23.8267 C   0  0  0  0  0  0  0  0  0  0  0  0
   25.0229   40.6732   24.3251 C   0  0  0  0  0  0  0  0  0  0  0  0
   24.0234   37.8202   22.3550 F   0  0  0  0  0  0  0  0  0  0  0  0
   28.0924   40.4123   22.2330 N   0  0  0  0  0  0  0  0  0  0  0  0
   27.9525   41.1787   21.0132 C   0  0  0  0  0  0  0  0  0  0  0  0
   25.7261   37.3681   20.3388 C   0  0  0  0  0  0  0  0  0  0  0  0
   29.0459   37.1343   19.1003 O   0  0  0  0  0  0  0  0  0  0  0  0
   26.6985   37.0174   19.2252 C   0  0  2  0  0  0  0  0  0  0  0  0
   26.3935   35.8043   18.4428 N   0  0  0  0  0  0  0  0  0  0  0  0
   26.1051   34.5978   19.2394 C   0  0  0  0  0  0  0  0  0  0  0  0
   25.3934   36.0313   17.3883 C   0  0  0  0  0  0  0  0  0  0  0  0
  1  5  1  0  0  0  0
  2 17  1  0  0  0  0
  3  1  1  0  0  0  0
  4  3  1  0  0  0  0
  4 26  1  6  0  0  0
  5 11  2  0  0  0  0
  5  6  1  0  0  0  0
  6  7  2  0  0  0  0
  7 21  1  0  0  0  0
  8 15  1  0  0  0  0
  8 16  2  0  0  0  0
  9 19  1  0  0  0  0
 10 18  1  0  0  0  0
 11 20  1  0  0  0  0
 13 14  1  0  0  0  0
 13 12  2  0  0  0  0
 15 13  1  1  0  0  0
 17 19  2  0  0  0  0
 17 15  1  0  0  0  0
 18  2  1  0  0  0  0
 18  9  2  0  0  0  0
 20 21  2  0  0  0  0
 20  2  1  0  0  0  0
 21  8  1  0  0  0  0
 22  6  1  0  0  0  0
 23 11  1  0  0  0  0
 23 10  1  0  0  0  0
 24 23  1  0  0  0  0
 25  1  1  0  0  0  0
 27  4  1  0  0  0  0
 27 25  1  0  0  0  0
 27 28  1  1  0  0  0
 29 28  1  0  0  0  0
 30 28  1  0  0  0  0
M  END
>  <CHROM.1>
-133.56065176,1.53974734,-64.52692866,62.81807528,64.45233058,26.38856791
40.13834206,23.00180705,1.48690270,-0.32494863,-2.37419871

>  <Name>
lig.pdb

>  <RI>
0

>  <Rbt.Current_Directory>
/home/itssahil/PROJECTS/Mol_Feturizer/New_Systems/rnas/6bfb

>  <Rbt.Executable>
rbdock ($Id: //depot/dev/client3/rdock/2013.1/src/exe/rbdock.cxx#4 $)

>  <Rbt.Library>
libRbt.so (2013.1, Build901 2013/11/27)

>  <Rbt.Parameter_File>
/export/apps/rDock/src/rDock_2013.1_src/data/scripts/dock_solv.prm

>  <Rbt.Receptor>
prm/blind_docking_60.prm

>  <SCORE>
-40.1295

>  <SCORE.INTER>
-35.1897

>  <SCORE.INTER.CONST>
1

>  <SCORE.INTER.POLAR>
-0.959166

>  <SCORE.INTER.ROT>
3

>  <SCORE.INTER.SOLV>
10.5203

>  <SCORE.INTER.VDW>
-29.3693

>  <SCORE.INTER.norm>
-1.17299

>  <SCORE.INTRA>
-4.93984

>  <SCORE.INTRA.DIHEDRAL>
-7.53938

>  <SCORE.INTRA.DIHEDRAL.0>
9.41909

>  <SCORE.INTRA.POLAR>
0

>  <SCORE.INTRA.POLAR.0>
0

>  <SCORE.INTRA.REPUL>
0

>  <SCORE.INTRA.REPUL.0>
0

>  <SCORE.INTRA.SOLV>
-0.223926

>  <SCORE.INTRA.SOLV.lig_0>
-26.2491

>  <SCORE.INTRA.VDW>
-1.05819

>  <SCORE.INTRA.VDW.0>
2.57239

>  <SCORE.INTRA.norm>
-0.164661

>  <SCORE.RESTR>
0

>  <SCORE.RESTR.CAVITY>
0

>  <SCORE.RESTR.norm>
0

>  <SCORE.SYSTEM>
0

>  <SCORE.SYSTEM.CONST>
0

>  <SCORE.SYSTEM.DIHEDRAL>
0

>  <SCORE.SYSTEM.SOLV>
0

>  <SCORE.SYSTEM.norm>
0

>  <SCORE.heavy>
30

>  <SCORE.norm>
-1.33765

>  <RMSD>
1.019

$$$$
lig.pdb
 OpenBabel11021811523D
libRbt.so/2013.1/901 2013/11/27
 30 34  0  0  0  0  0  0  0  0999 V2000
   26.5876   38.2178   21.1472 N   0  0  0  0  0  0  0  0  0  0  0  0
   27.0844   41.9120   24.4051 N   0  0  0  0  0  0  0  0  0  0  0  0
   27.9502   37.6812   21.2168 C   0  0  0  0  0  0  0  0  0  0  0  0
   27.9858   36.7696   19.9994 C   0  0  2  0  0  0  0  0  0  0  0  0
   26.0569   39.0289   22.2372 C   0  0  0  0  0  0  0  0  0  0  0  0
   24.7807   38.8352   22.8043 C   0  0  0  0  0  0  0  0  0  0  0  0
   24.2671   39.6146   23.8106 C   0  0  0  0  0  0  0  0  0  0  0  0
   24.4397   41.5475   25.3815 C   0  0  0  0  0  0  0  0  0  0  0  0
   29.0121   43.0370   24.7804 C   0  0  0  0  0  0  0  0  0  0  0  0
   28.9948   40.9640   23.2236 C   0  0  0  0  0  0  0  0  0  0  0  0
   26.8335   40.0912   22.7799 C   0  0  0  0  0  0  0  0  0  0  0  0
   23.8027   44.3243   26.6057 O   0  0  0  0  0  0  0  0  0  0  0  0
   24.7769   43.6129   26.8605 C   0  0  0  0  0  0  0  0  0  0  0  0
   25.4134   43.6639   28.0242 O   0  0  0  0  0  0  0  0  0  0  0  0
   25.3076   42.6589   25.8506 C   0  0  1  0  0  0  0  0  0  0  0  0
   23.3194   41.3303   25.8556 O   0  0  0  0  0  0  0  0  0  0  0  0
   26.6191   42.8061   25.3665 C   0  0  0  0  0  0  0  0  0  0  0  0
   28.4476   42.0341   24.1010 C   0  0  0  0  0  0  0  0  0  0  0  0
   27.9113   43.8343   25.8262 S   0  0  0  0  0  0  0  0  0  0  0  0
   26.3143   40.8803   23.8312 C   0  0  0  0  0  0  0  0  0  0  0  0
   25.0205   40.6666   24.3312 C   0  0  0  0  0  0  0  0  0  0  0  0
   24.0207   37.8136   22.3611 F   0  0  0  0  0  0  0  0  0  0  0  0
   28.0876   40.4088   22.2352 N   0  0  0  0  0  0  0  0  0  0  0  0
   27.9456   41.1756   21.0159 C   0  0  0  0  0  0  0  0  0  0  0  0
   25.7201   37.3695   20.3378 C   0  0  0  0  0  0  0  0  0  0  0  0
   29.0418   37.1260   19.1062 O   0  0  0  0  0  0  0  0  0  0  0  0
   26.6937   37.0179   19.2254 C   0  0  2  0  0  0  0  0  0  0  0  0
   26.3857   35.8082   18.4391 N   0  0  0  0  0  0  0  0  0  0  0  0
   26.1042   34.5973   19.2317 C   0  0  0  0  0  0  0  0  0  0  0  0
   25.3786   36.0386   17.3919 C   0  0  0  0  0  0  0  0  0  0  0  0
  1  5  1  0  0  0  0
  2 17  1  0  0  0  0
  3  1  1  0  0  0  0
  4  3  1  0  0  0  0
  4 26  1  6  0  0  0
  5 11  2  0  0  0  0
  5  6  1  0  0  0  0
  6  7  2  0  0  0  0
  7 21  1  0  0  0  0
  8 15  1  0  0  0  0
  8 16  2  0  0  0  0
  9 19  1  0  0  0  0
 10 18  1  0  0  0  0
 11 20  1  0  0  0  0
 13 14  1  0  0  0  0
 13 12  2  0  0  0  0
 15 13  1  1  0  0  0
 17 19  2  0  0  0  0
 17 15  1  0  0  0  0
 18  2  1  0  0  0  0
 18  9  2  0  0  0  0
 20 21  2  0  0  0  0
 20  2  1  0  0  0  0
 21  8  1  0  0  0  0
 22  6  1  0  0  0  0
 23 11  1  0  0  0  0
 23 10  1  0  0  0  0
 24 23  1  0  0  0  0
 25  1  1  0  0  0  0
 27  4  1  0  0  0  0
 27 25  1  0  0  0  0
 27 28  1  1  0  0  0
 29 28  1  0  0  0  0
 30 28  1  0  0  0  0
M  END
>  <CHROM.1>
-133.20227171,0.97520278,-62.76004765,63.84706041,63.85872125,26.38474002
40.13383511,23.00552706,1.48747789,-0.32486276,-2.37333854

>  <Name>
lig.pdb

>  <RI>
0

>  <Rbt.Current_Directory>
/home/itssahil/PROJECTS/Mol_Feturizer/New_Systems/rnas/6bfb

>  <Rbt.Executable>
rbdock ($Id: //depot/dev/client3/rdock/2013.1/src/exe/rbdock.cxx#4 $)

>  <Rbt.Library>
libRbt.so (2013.1, Build901 2013/11/27)

>  <Rbt.Parameter_File>
/export/apps/rDock/src/rDock_2013.1_src/data/scripts/dock_solv.prm

>  <Rbt.Receptor>
prm/pocket_docking_8.prm

>  <SCORE>
-40.1288

>  <SCORE.INTER>
-35.1692

>  <SCORE.INTER.CONST>
1

>  <SCORE.INTER.POLAR>
-0.954855

>  <SCORE.INTER.ROT>
3

>  <SCORE.INTER.SOLV>
10.5175

>  <SCORE.INTER.VDW>
-29.3691

>  <SCORE.INTER.norm>
-1.17231

>  <SCORE.INTRA>
-4.95963

>  <SCORE.INTRA.DIHEDRAL>
-7.52897

>  <SCORE.INTRA.DIHEDRAL.0>
9.41909

>  <SCORE.INTRA.POLAR>
0

>  <SCORE.INTRA.POLAR.0>
0

>  <SCORE.INTRA.REPUL>
0

>  <SCORE.INTRA.REPUL.0>
0

>  <SCORE.INTRA.SOLV>
-0.222734

>  <SCORE.INTRA.SOLV.lig_0>
-26.2491

>  <SCORE.INTRA.VDW>
-1.08378

>  <SCORE.INTRA.VDW.0>
2.57239

>  <SCORE.INTRA.norm>
-0.165321

>  <SCORE.RESTR>
0

>  <SCORE.RESTR.CAVITY>
0

>  <SCORE.RESTR.norm>
0

>  <SCORE.SYSTEM>
0

>  <SCORE.SYSTEM.CONST>
0

>  <SCORE.SYSTEM.DIHEDRAL>
0

>  <SCORE.SYSTEM.SOLV>
0

>  <SCORE.SYSTEM.norm>
0

>  <SCORE.heavy>
30

>  <SCORE.norm>
-1.33763

>  <RMSD>
1.019

$$$$
lig.pdb
 OpenBabel11021811523D
libRbt.so/2013.1/901 2013/11/27
 30 34  0  0  0  0  0  0  0  0999 V2000
   25.5489   38.1735   21.0716 N   0  0  0  0  0  0  0  0  0  0  0  0
   27.1972   41.7797   24.0357 N   0  0  0  0  0  0  0  0  0  0  0  0
   26.7462   37.3358   20.9520 C   0  0  0  0  0  0  0  0  0  0  0  0
   26.4056   36.4810   19.7406 C   0  0  2  0  0  0  0  0  0  0  0  0
   25.3722   39.0486   22.2250 C   0  0  0  0  0  0  0  0  0  0  0  0
   24.2346   39.0225   23.0574 C   0  0  0  0  0  0  0  0  0  0  0  0
   24.0523   39.8639   24.1264 C   0  0  0  0  0  0  0  0  0  0  0  0
   24.8013   41.7618   25.5654 C   0  0  0  0  0  0  0  0  0  0  0  0
   29.2861   42.6473   23.9562 C   0  0  0  0  0  0  0  0  0  0  0  0
   28.6729   40.5905   22.5020 C   0  0  0  0  0  0  0  0  0  0  0  0
   26.3748   40.0030   22.5570 C   0  0  0  0  0  0  0  0  0  0  0  0
   24.6330   44.3595   27.0151 O   0  0  0  0  0  0  0  0  0  0  0  0
   25.7065   43.7696   26.8755 C   0  0  0  0  0  0  0  0  0  0  0  0
   26.7597   44.0116   27.6464 O   0  0  0  0  0  0  0  0  0  0  0  0
   25.8826   42.7529   25.8046 C   0  0  1  0  0  0  0  0  0  0  0  0
   23.7917   41.6920   26.2744 O   0  0  0  0  0  0  0  0  0  0  0  0
   27.0665   42.7285   25.0470 C   0  0  0  0  0  0  0  0  0  0  0  0
   28.4668   41.7242   23.4436 C   0  0  0  0  0  0  0  0  0  0  0  0
   28.5461   43.5823   25.1888 S   0  0  0  0  0  0  0  0  0  0  0  0
   26.1981   40.8548   23.6709 C   0  0  0  0  0  0  0  0  0  0  0  0
   25.0264   40.8109   24.4421 C   0  0  0  0  0  0  0  0  0  0  0  0
   23.2748   38.1066   22.8179 F   0  0  0  0  0  0  0  0  0  0  0  0
   27.5114   40.1549   21.7475 N   0  0  0  0  0  0  0  0  0  0  0  0
   27.2070   40.9309   20.5643 C   0  0  0  0  0  0  0  0  0  0  0  0
   24.4077   37.5744   20.3890 C   0  0  0  0  0  0  0  0  0  0  0  0
   27.3860   36.6140   18.7105 O   0  0  0  0  0  0  0  0  0  0  0  0
   25.1147   37.0450   19.1527 C   0  0  2  0  0  0  0  0  0  0  0  0
   24.4316   35.9650   18.4154 N   0  0  0  0  0  0  0  0  0  0  0  0
   22.9789   36.1445   18.2394 C   0  0  0  0  0  0  0  0  0  0  0  0
   25.1072   35.6031   17.1599 C   0  0  0  0  0  0  0  0  0  0  0  0
  1  5  1  0  0  0  0
  2 17  1  0  0  0  0
  3  1  1  0  0  0  0
  4  3  1  0  0  0  0
  4 26  1  6  0  0  0
  5 11  2  0  0  0  0
  5  6  1  0  0  0  0
  6  7  2  0  0  0  0
  7 21  1  0  0  0  0
  8 15  1  0  0  0  0
  8 16  2  0  0  0  0
  9 19  1  0  0  0  0
 10 18  1  0  0  0  0
 11 20  1  0  0  0  0
 13 14  1  0  0  0  0
 13 12  2  0  0  0  0
 15 13  1  1  0  0  0
 17 19  2  0  0  0  0
 17 15  1  0  0  0  0
 18  2  1  0  0  0  0
 18  9  2  0  0  0  0
 20 21  2  0  0  0  0
 20  2  1  0  0  0  0
 21  8  1  0  0  0  0
 22  6  1  0  0  0  0
 23 11  1  0  0  0  0
 23 10  1  0  0  0  0
 24 23  1  0  0  0  0
 25  1  1  0  0  0  0
 27  4  1  0  0  0  0
 27 25  1  0  0  0  0
 27 28  1  1  0  0  0
 29 28  1  0  0  0  0
 30 28  1  0  0  0  0
M  END
>  <CHROM.1>
-125.42633637,2.49119049,-43.50128488,-57.56535182,156.98731771,26.00958771
40.14035153,22.80881892,1.73302637,-0.35391579,-2.27701801

>  <Name>
lig.pdb

>  <RI>
0

>  <Rbt.Current_Directory>
/home/itssahil/PROJECTS/Mol_Feturizer/New_Systems/rnas/6bfb

>  <Rbt.Executable>
rbdock ($Id: //depot/dev/client3/rdock/2013.1/src/exe/rbdock.cxx#4 $)

>  <Rbt.Library>
libRbt.so (2013.1, Build901 2013/11/27)

>  <Rbt.Parameter_File>
/export/apps/rDock/src/rDock_2013.1_src/data/scripts/dock_solv.prm

>  <Rbt.Receptor>
prm/pocket_docking_2.prm

>  <SCORE>
-35.8351

>  <SCORE.INTER>
-31.4155

>  <SCORE.INTER.CONST>
1

>  <SCORE.INTER.POLAR>
0

>  <SCORE.INTER.ROT>
3

>  <SCORE.INTER.SOLV>
10.3831

>  <SCORE.INTER.VDW>
-30.0047

>  <SCORE.INTER.norm>
-1.04718

>  <SCORE.INTRA>
-4.41964

>  <SCORE.INTRA.DIHEDRAL>
-7.24136

>  <SCORE.INTRA.DIHEDRAL.0>
9.41909

>  <SCORE.INTRA.POLAR>
0

>  <SCORE.INTRA.POLAR.0>
0

>  <SCORE.INTRA.REPUL>
0.016583

>  <SCORE.INTRA.REPUL.0>
0

>  <SCORE.INTRA.SOLV>
-0.113202

>  <SCORE.INTRA.SOLV.lig_0>
-26.2491

>  <SCORE.INTRA.VDW>
-0.825274

>  <SCORE.INTRA.VDW.0>
2.57239

>  <SCORE.INTRA.norm>
-0.147321

>  <SCORE.RESTR>
0

>  <SCORE.RESTR.CAVITY>
0

>  <SCORE.RESTR.norm>
0

>  <SCORE.SYSTEM>
0

>  <SCORE.SYSTEM.CONST>
0

>  <SCORE.SYSTEM.DIHEDRAL>
0

>  <SCORE.SYSTEM.SOLV>
0

>  <SCORE.SYSTEM.norm>
0

>  <SCORE.heavy>
30

>  <SCORE.norm>
-1.1945

>  <RMSD>
1.023

$$$$
lig.pdb
 OpenBabel11021811523D
libRbt.so/2013.1/901 2013/11/27
 30 34  0  0  0  0  0  0  0  0999 V2000
   26.4747   38.5684   21.4534 N   0  0  0  0  0  0  0  0  0  0  0  0
   26.8328   42.1194   24.8841 N   0  0  0  0  0  0  0  0  0  0  0  0
   27.8662   38.1102   21.5115 C   0  0  0  0  0  0  0  0  0  0  0  0
   27.9513   37.2234   20.2783 C   0  0  2  0  0  0  0  0  0  0  0  0
   25.9009   39.3285   22.5581 C   0  0  0  0  0  0  0  0  0  0  0  0
   24.6069   39.1038   23.0709 C   0  0  0  0  0  0  0  0  0  0  0  0
   24.0532   39.8360   24.0913 C   0  0  0  0  0  0  0  0  0  0  0  0
   24.1580   41.6994   25.7498 C   0  0  0  0  0  0  0  0  0  0  0  0
   28.7387   43.2367   25.3756 C   0  0  0  0  0  0  0  0  0  0  0  0
   28.7896   41.2335   23.7306 C   0  0  0  0  0  0  0  0  0  0  0  0
   26.6510   40.3701   23.1735 C   0  0  0  0  0  0  0  0  0  0  0  0
   24.3456   43.3432   28.5052 O   0  0  0  0  0  0  0  0  0  0  0  0
   24.4296   43.6999   27.3280 C   0  0  0  0  0  0  0  0  0  0  0  0
   24.0070   44.8868   26.9098 O   0  0  0  0  0  0  0  0  0  0  0  0
   25.0016   42.7936   26.2970 C   0  0  1  0  0  0  0  0  0  0  0  0
   23.0232   41.4561   26.1742 O   0  0  0  0  0  0  0  0  0  0  0  0
   26.3282   42.9684   25.8663 C   0  0  0  0  0  0  0  0  0  0  0  0
   28.2050   42.2615   24.6338 C   0  0  0  0  0  0  0  0  0  0  0  0
   27.5967   43.9821   26.4156 S   0  0  0  0  0  0  0  0  0  0  0  0
   26.0901   41.1099   24.2391 C   0  0  0  0  0  0  0  0  0  0  0  0
   24.7810   40.8680   24.6834 C   0  0  0  0  0  0  0  0  0  0  0  0
   23.8696   38.0987   22.5573 F   0  0  0  0  0  0  0  0  0  0  0  0
   27.9213   40.7174   22.6877 N   0  0  0  0  0  0  0  0  0  0  0  0
   27.8171   41.5359   21.4985 C   0  0  0  0  0  0  0  0  0  0  0  0
   25.6556   37.6856   20.6305 C   0  0  0  0  0  0  0  0  0  0  0  0
   28.9828   37.6555   19.3899 O   0  0  0  0  0  0  0  0  0  0  0  0
   26.6451   37.4101   19.5108 C   0  0  2  0  0  0  0  0  0  0  0  0
   26.4054   36.1984   18.7039 N   0  0  0  0  0  0  0  0  0  0  0  0
   25.0111   35.9977   18.2691 C   0  0  0  0  0  0  0  0  0  0  0  0
   27.3647   36.0380   17.6004 C   0  0  0  0  0  0  0  0  0  0  0  0
  1  5  1  0  0  0  0
  2 17  1  0  0  0  0
  3  1  1  0  0  0  0
  4  3  1  0  0  0  0
  4 26  1  6  0  0  0
  5 11  2  0  0  0  0
  5  6  1  0  0  0  0
  6  7  2  0  0  0  0
  7 21  1  0  0  0  0
  8 15  1  0  0  0  0
  8 16  2  0  0  0  0
  9 19  1  0  0  0  0
 10 18  1  0  0  0  0
 11 20  1  0  0  0  0
 13 14  1  0  0  0  0
 13 12  2  0  0  0  0
 15 13  1  1  0  0  0
 17 19  2  0  0  0  0
 17 15  1  0  0  0  0
 18  2  1  0  0  0  0
 18  9  2  0  0  0  0
 20 21  2  0  0  0  0
 20  2  1  0  0  0  0
 21  8  1  0  0  0  0
 22  6  1  0  0  0  0
 23 11  1  0  0  0  0
 23 10  1  0  0  0  0
 24 23  1  0  0  0  0
 25  1  1  0  0  0  0
 27  4  1  0  0  0  0
 27 25  1  0  0  0  0
 27 28  1  1  0  0  0
 29 28  1  0  0  0  0
 30 28  1  0  0  0  0
M  END
>  <CHROM.1>
-137.15362427,175.28115742,78.58163076,67.39447591,160.02964747,26.22092409
40.42266984,23.33448069,1.43431433,-0.31494973,-2.33565992

>  <Name>
lig.pdb

>  <RI>
0

>  <Rbt.Current_Directory>
/home/itssahil/PROJECTS/Mol_Feturizer/New_Systems/rnas/6bfb

>  <Rbt.Executable>
rbdock ($Id: //depot/dev/client3/rdock/2013.1/src/exe/rbdock.cxx#4 $)

>  <Rbt.Library>
libRbt.so (2013.1, Build901 2013/11/27)

>  <Rbt.Parameter_File>
/export/apps/rDock/src/rDock_2013.1_src/data/scripts/dock_solv.prm

>  <Rbt.Receptor>
prm/pocket_docking_3.prm

>  <SCORE>
-40.958

>  <SCORE.INTER>
-37.3254

>  <SCORE.INTER.CONST>
1

>  <SCORE.INTER.POLAR>
-1.73574

>  <SCORE.INTER.ROT>
3

>  <SCORE.INTER.SOLV>
10.4646

>  <SCORE.INTER.VDW>
-28.186

>  <SCORE.INTER.norm>
-1.24418

>  <SCORE.INTRA>
-3.63259

>  <SCORE.INTRA.DIHEDRAL>
-6.9791

>  <SCORE.INTRA.DIHEDRAL.0>
9.41909

>  <SCORE.INTRA.POLAR>
0

>  <SCORE.INTRA.POLAR.0>
0

>  <SCORE.INTRA.REPUL>
0

>  <SCORE.INTRA.REPUL.0>
0

>  <SCORE.INTRA.SOLV>
-0.155576

>  <SCORE.INTRA.SOLV.lig_0>
-26.2491

>  <SCORE.INTRA.VDW>
-0.0652534

>  <SCORE.INTRA.VDW.0>
2.57239

>  <SCORE.INTRA.norm>
-0.121086

>  <SCORE.RESTR>
0

>  <SCORE.RESTR.CAVITY>
0

>  <SCORE.RESTR.norm>
0

>  <SCORE.SYSTEM>
0

>  <SCORE.SYSTEM.CONST>
0

>  <SCORE.SYSTEM.DIHEDRAL>
0

>  <SCORE.SYSTEM.SOLV>
0

>  <SCORE.SYSTEM.norm>
0

>  <SCORE.heavy>
30

>  <SCORE.norm>
-1.36527

>  <RMSD>
1.029

$$$$
lig.pdb
 OpenBabel11021811523D
libRbt.so/2013.1/901 2013/11/27
 30 34  0  0  0  0  0  0  0  0999 V2000
   26.5044   38.3856   21.2884 N   0  0  0  0  0  0  0  0  0  0  0  0
   26.7495   41.9371   24.7284 N   0  0  0  0  0  0  0  0  0  0  0  0
   27.9043   37.9592   21.3766 C   0  0  0  0  0  0  0  0  0  0  0  0
   28.0309   37.0596   20.1563 C   0  0  2  0  0  0  0  0  0  0  0  0
   25.8944   39.1461   22.3733 C   0  0  0  0  0  0  0  0  0  0  0  0
   24.5840   38.9220   22.8428 C   0  0  0  0  0  0  0  0  0  0  0  0
   23.9969   39.6545   23.8441 C   0  0  0  0  0  0  0  0  0  0  0  0
   24.0471   41.5183   25.5048 C   0  0  0  0  0  0  0  0  0  0  0  0
   28.6384   43.0539   25.2829 C   0  0  0  0  0  0  0  0  0  0  0  0
   28.7432   41.0503   23.6409 C   0  0  0  0  0  0  0  0  0  0  0  0
   26.6240   40.1875   23.0131 C   0  0  0  0  0  0  0  0  0  0  0  0
   24.0635   43.1323   28.2437 O   0  0  0  0  0  0  0  0  0  0  0  0
   24.2669   43.5190   27.0908 C   0  0  0  0  0  0  0  0  0  0  0  0
   23.9485   44.7407   26.6810 O   0  0  0  0  0  0  0  0  0  0  0  0
   24.8725   42.6123   26.0796 C   0  0  1  0  0  0  0  0  0  0  0  0
   22.8988   41.2754   25.8913 O   0  0  0  0  0  0  0  0  0  0  0  0
   26.2128   42.7865   25.6932 C   0  0  0  0  0  0  0  0  0  0  0  0
   28.1292   42.0787   24.5240 C   0  0  0  0  0  0  0  0  0  0  0  0
   27.4627   43.7999   26.2842 S   0  0  0  0  0  0  0  0  0  0  0  0
   26.0282   40.9277   24.0594 C   0  0  0  0  0  0  0  0  0  0  0  0
   24.7050   40.6864   24.4599 C   0  0  0  0  0  0  0  0  0  0  0  0
   23.8638   37.9170   22.3052 F   0  0  0  0  0  0  0  0  0  0  0  0
   27.9098   40.5343   22.5698 N   0  0  0  0  0  0  0  0  0  0  0  0
   27.8456   41.3526   21.3776 C   0  0  0  0  0  0  0  0  0  0  0  0
   25.7197   37.4748   20.4625 C   0  0  0  0  0  0  0  0  0  0  0  0
   29.0681   37.5038   19.2807 O   0  0  0  0  0  0  0  0  0  0  0  0
   26.7346   37.2078   19.3638 C   0  0  2  0  0  0  0  0  0  0  0  0
   26.5361   35.9813   18.5682 N   0  0  0  0  0  0  0  0  0  0  0  0
   26.3149   34.7521   19.3515 C   0  0  0  0  0  0  0  0  0  0  0  0
   25.5487   36.1436   17.4900 C   0  0  0  0  0  0  0  0  0  0  0  0
  1  5  1  0  0  0  0
  2 17  1  0  0  0  0
  3  1  1  0  0  0  0
  4  3  1  0  0  0  0
  4 26  1  6  0  0  0
  5 11  2  0  0  0  0
  5  6  1  0  0  0  0
  6  7  2  0  0  0  0
  7 21  1  0  0  0  0
  8 15  1  0  0  0  0
  8 16  2  0  0  0  0
  9 19  1  0  0  0  0
 10 18  1  0  0  0  0
 11 20  1  0  0  0  0
 13 14  1  0  0  0  0
 13 12  2  0  0  0  0
 15 13  1  1  0  0  0
 17 19  2  0  0  0  0
 17 15  1  0  0  0  0
 18  2  1  0  0  0  0
 18  9  2  0  0  0  0
 20 21  2  0  0  0  0
 20  2  1  0  0  0  0
 21  8  1  0  0  0  0
 22  6  1  0  0  0  0
 23 11  1  0  0  0  0
 23 10  1  0  0  0  0
 24 23  1  0  0  0  0
 25  1  1  0  0  0  0
 27  4  1  0  0  0  0
 27 25  1  0  0  0  0
 27 28  1  1  0  0  0
 29 28  1  0  0  0  0
 30 28  1  0  0  0  0
M  END
>  <CHROM.1>
-138.87456913,174.87223935,73.81086524,65.67693372,64.98146015,26.16239215
40.21424455,23.20567534,1.42632145,-0.30646578,-2.36501486

>  <Name>
lig.pdb

>  <RI>
0

>  <Rbt.Current_Directory>
/home/itssahil/PROJECTS/Mol_Feturizer/New_Systems/rnas/6bfb

>  <Rbt.Executable>
rbdock ($Id: //depot/dev/client3/rdock/2013.1/src/exe/rbdock.cxx#4 $)

>  <Rbt.Library>
libRbt.so (2013.1, Build901 2013/11/27)

>  <Rbt.Parameter_File>
/export/apps/rDock/src/rDock_2013.1_src/data/scripts/dock_solv.prm

>  <Rbt.Receptor>
prm/pocket_docking_6.prm

>  <SCORE>
-42.1249

>  <SCORE.INTER>
-38.146

>  <SCORE.INTER.CONST>
1

>  <SCORE.INTER.POLAR>
-1.79029

>  <SCORE.INTER.ROT>
3

>  <SCORE.INTER.SOLV>
10.3243

>  <SCORE.INTER.VDW>
-28.5045

>  <SCORE.INTER.norm>
-1.27153

>  <SCORE.INTRA>
-3.97891

>  <SCORE.INTRA.DIHEDRAL>
-7.18654

>  <SCORE.INTRA.DIHEDRAL.0>
9.41909

>  <SCORE.INTRA.POLAR>
0

>  <SCORE.INTRA.POLAR.0>
0

>  <SCORE.INTRA.REPUL>
0

>  <SCORE.INTRA.REPUL.0>
0

>  <SCORE.INTRA.SOLV>
-0.260169

>  <SCORE.INTRA.SOLV.lig_0>
-26.2491

>  <SCORE.INTRA.VDW>
-0.255554

>  <SCORE.INTRA.VDW.0>
2.57239

>  <SCORE.INTRA.norm>
-0.13263

>  <SCORE.RESTR>
0

>  <SCORE.RESTR.CAVITY>
0

>  <SCORE.RESTR.norm>
0

>  <SCORE.SYSTEM>
0

>  <SCORE.SYSTEM.CONST>
0

>  <SCORE.SYSTEM.DIHEDRAL>
0

>  <SCORE.SYSTEM.SOLV>
0

>  <SCORE.SYSTEM.norm>
0

>  <SCORE.heavy>
30

>  <SCORE.norm>
-1.40416

>  <RMSD>
1.036

$$$$
lig.pdb
 OpenBabel11021811523D
libRbt.so/2013.1/901 2013/11/27
 30 34  0  0  0  0  0  0  0  0999 V2000
   26.5935   38.2510   21.1468 N   0  0  0  0  0  0  0  0  0  0  0  0
   27.0912   41.9345   24.4165 N   0  0  0  0  0  0  0  0  0  0  0  0
   27.9496   37.6989   21.2217 C   0  0  0  0  0  0  0  0  0  0  0  0
   27.9846   36.7979   19.9965 C   0  0  2  0  0  0  0  0  0  0  0  0
   26.0634   39.0581   22.2400 C   0  0  0  0  0  0  0  0  0  0  0  0
   24.7879   38.8616   22.8077 C   0  0  0  0  0  0  0  0  0  0  0  0
   24.2747   39.6373   23.8171 C   0  0  0  0  0  0  0  0  0  0  0  0
   24.4476   41.5651   25.3943 C   0  0  0  0  0  0  0  0  0  0  0  0
   29.0185   43.0596   24.7936 C   0  0  0  0  0  0  0  0  0  0  0  0
   29.0010   40.9918   23.2299 C   0  0  0  0  0  0  0  0  0  0  0  0
   26.8398   40.1191   22.7854 C   0  0  0  0  0  0  0  0  0  0  0  0
   23.8391   44.3700   26.6129 O   0  0  0  0  0  0  0  0  0  0  0  0
   24.7850   43.6257   26.8798 C   0  0  0  0  0  0  0  0  0  0  0  0
   25.3907   43.6365   28.0609 O   0  0  0  0  0  0  0  0  0  0  0  0
   25.3153   42.6755   25.8663 C   0  0  1  0  0  0  0  0  0  0  0  0
   23.3280   41.3456   25.8689 O   0  0  0  0  0  0  0  0  0  0  0  0
   26.6262   42.8251   25.3813 C   0  0  0  0  0  0  0  0  0  0  0  0
   28.4539   42.0586   24.1114 C   0  0  0  0  0  0  0  0  0  0  0  0
   27.9182   43.8527   25.8432 S   0  0  0  0  0  0  0  0  0  0  0  0
   26.3211   40.9043   23.8400 C   0  0  0  0  0  0  0  0  0  0  0  0
   25.0280   40.6880   24.3405 C   0  0  0  0  0  0  0  0  0  0  0  0
   24.0281   37.8410   22.3620 F   0  0  0  0  0  0  0  0  0  0  0  0
   28.0932   40.4393   22.2406 N   0  0  0  0  0  0  0  0  0  0  0  0
   27.9495   41.2100   21.0239 C   0  0  0  0  0  0  0  0  0  0  0  0
   25.7231   37.4193   20.3233 C   0  0  0  0  0  0  0  0  0  0  0  0
   29.0511   37.1506   19.1145 O   0  0  0  0  0  0  0  0  0  0  0  0
   26.7011   37.0671   19.2152 C   0  0  2  0  0  0  0  0  0  0  0  0
   26.3860   35.8678   18.4158 N   0  0  0  0  0  0  0  0  0  0  0  0
   27.2423   35.6561   17.2345 C   0  0  0  0  0  0  0  0  0  0  0  0
   26.2430   34.6504   19.2291 C   0  0  0  0  0  0  0  0  0  0  0  0
  1  5  1  0  0  0  0
  2 17  1  0  0  0  0
  3  1  1  0  0  0  0
  4  3  1  0  0  0  0
  4 26  1  6  0  0  0
  5 11  2  0  0  0  0
  5  6  1  0  0  0  0
  6  7  2  0  0  0  0
  7 21  1  0  0  0  0
  8 15  1  0  0  0  0
  8 16  2  0  0  0  0
  9 19  1  0  0  0  0
 10 18  1  0  0  0  0
 11 20  1  0  0  0  0
 13 14  1  0  0  0  0
 13 12  2  0  0  0  0
 15 13  1  1  0  0  0
 17 19  2  0  0  0  0
 17 15  1  0  0  0  0
 18  2  1  0  0  0  0
 18  9  2  0  0  0  0
 20 21  2  0  0  0  0
 20  2  1  0  0  0  0
 21  8  1  0  0  0  0
 22  6  1  0  0  0  0
 23 11  1  0  0  0  0
 23 10  1  0  0  0  0
 24 23  1  0  0  0  0
 25  1  1  0  0  0  0
 27  4  1  0  0  0  0
 27 25  1  0  0  0  0
 27 28  1  1  0  0  0
 29 28  1  0  0  0  0
 30 28  1  0  0  0  0
M  END
>  <CHROM.1>
-132.32046039,1.16797877,-65.26783982,65.02960904,-73.95005504,26.45977945
40.14582546,23.00682009,1.44776754,-0.35260237,-2.38573015

>  <Name>
lig.pdb

>  <RI>
0

>  <Rbt.Current_Directory>
/home/itssahil/PROJECTS/Mol_Feturizer/New_Systems/rnas/6bfb

>  <Rbt.Executable>
rbdock ($Id: //depot/dev/client3/rdock/2013.1/src/exe/rbdock.cxx#4 $)

>  <Rbt.Library>
libRbt.so (2013.1, Build901 2013/11/27)

>  <Rbt.Parameter_File>
/export/apps/rDock/src/rDock_2013.1_src/data/scripts/dock_solv.prm

>  <Rbt.Receptor>
prm/pocket_docking_3.prm

>  <SCORE>
-38.2649

>  <SCORE.INTER>
-34.5474

>  <SCORE.INTER.CONST>
1

>  <SCORE.INTER.POLAR>
-0.953061

>  <SCORE.INTER.ROT>
3

>  <SCORE.INTER.SOLV>
10.2054

>  <SCORE.INTER.VDW>
-28.8565

>  <SCORE.INTER.norm>
-1.15158

>  <SCORE.INTRA>
-3.71748

>  <SCORE.INTRA.DIHEDRAL>
-7.51057

>  <SCORE.INTRA.DIHEDRAL.0>
9.41909

>  <SCORE.INTRA.POLAR>
0

>  <SCORE.INTRA.POLAR.0>
0

>  <SCORE.INTRA.REPUL>
0

>  <SCORE.INTRA.REPUL.0>
0

>  <SCORE.INTRA.SOLV>
0.0451989

>  <SCORE.INTRA.SOLV.lig_0>
-26.2491

>  <SCORE.INTRA.VDW>
0.0152018

>  <SCORE.INTRA.VDW.0>
2.57239

>  <SCORE.INTRA.norm>
-0.123916

>  <SCORE.RESTR>
0

>  <SCORE.RESTR.CAVITY>
0

>  <SCORE.RESTR.norm>
0

>  <SCORE.SYSTEM>
0

>  <SCORE.SYSTEM.CONST>
0

>  <SCORE.SYSTEM.DIHEDRAL>
0

>  <SCORE.SYSTEM.SOLV>
0

>  <SCORE.SYSTEM.norm>
0

>  <SCORE.heavy>
30

>  <SCORE.norm>
-1.2755

>  <RMSD>
1.038

$$$$
lig.pdb
 OpenBabel11021811523D
libRbt.so/2013.1/901 2013/11/27
 30 34  0  0  0  0  0  0  0  0999 V2000
   26.5287   38.5146   21.3933 N   0  0  0  0  0  0  0  0  0  0  0  0
   26.8372   42.0589   24.8356 N   0  0  0  0  0  0  0  0  0  0  0  0
   27.9287   38.0822   21.4447 C   0  0  0  0  0  0  0  0  0  0  0  0
   28.0253   37.2001   20.2091 C   0  0  2  0  0  0  0  0  0  0  0  0
   25.9452   39.2613   22.5021 C   0  0  0  0  0  0  0  0  0  0  0  0
   24.6564   39.0136   23.0172 C   0  0  0  0  0  0  0  0  0  0  0  0
   24.0933   39.7331   24.0415 C   0  0  0  0  0  0  0  0  0  0  0  0
   24.1717   41.5922   25.7063 C   0  0  0  0  0  0  0  0  0  0  0  0
   28.7258   43.2055   25.3265 C   0  0  0  0  0  0  0  0  0  0  0  0
   28.8053   41.2092   23.6743 C   0  0  0  0  0  0  0  0  0  0  0  0
   26.6797   40.3128   23.1193 C   0  0  0  0  0  0  0  0  0  0  0  0
   24.9613   43.7281   28.3875 O   0  0  0  0  0  0  0  0  0  0  0  0
   24.4145   43.5913   27.2910 C   0  0  0  0  0  0  0  0  0  0  0  0
   23.2815   44.2072   26.9763 O   0  0  0  0  0  0  0  0  0  0  0  0
   24.9987   42.6981   26.2554 C   0  0  1  0  0  0  0  0  0  0  0  0
   23.0422   41.3288   26.1327 O   0  0  0  0  0  0  0  0  0  0  0  0
   26.3213   42.8960   25.8221 C   0  0  0  0  0  0  0  0  0  0  0  0
   28.2062   42.2243   24.5826 C   0  0  0  0  0  0  0  0  0  0  0  0
   27.5744   43.9285   26.3719 S   0  0  0  0  0  0  0  0  0  0  0  0
   26.1095   41.0396   24.1889 C   0  0  0  0  0  0  0  0  0  0  0  0
   24.8056   40.7748   24.6355 C   0  0  0  0  0  0  0  0  0  0  0  0
   23.9344   37.9984   22.5018 F   0  0  0  0  0  0  0  0  0  0  0  0
   27.9430   40.6826   22.6317 N   0  0  0  0  0  0  0  0  0  0  0  0
   27.8225   41.5034   21.4457 C   0  0  0  0  0  0  0  0  0  0  0  0
   25.7229   37.6185   20.5716 C   0  0  0  0  0  0  0  0  0  0  0  0
   29.0450   37.6534   19.3176 O   0  0  0  0  0  0  0  0  0  0  0  0
   26.7127   37.3641   19.4473 C   0  0  2  0  0  0  0  0  0  0  0  0
   26.4924   36.1500   18.6385 N   0  0  0  0  0  0  0  0  0  0  0  0
   26.2581   34.9149   19.4086 C   0  0  0  0  0  0  0  0  0  0  0  0
   25.5014   36.3388   17.5680 C   0  0  0  0  0  0  0  0  0  0  0  0
  1  5  1  0  0  0  0
  2 17  1  0  0  0  0
  3  1  1  0  0  0  0
  4  3  1  0  0  0  0
  4 26  1  6  0  0  0
  5 11  2  0  0  0  0
  5  6  1  0  0  0  0
  6  7  2  0  0  0  0
  7 21  1  0  0  0  0
  8 15  1  0  0  0  0
  8 16  2  0  0  0  0
  9 19  1  0  0  0  0
 10 18  1  0  0  0  0
 11 20  1  0  0  0  0
 13 14  1  0  0  0  0
 13 12  2  0  0  0  0
 15 13  1  1  0  0  0
 17 19  2  0  0  0  0
 17 15  1  0  0  0  0
 18  2  1  0  0  0  0
 18  9  2  0  0  0  0
 20 21  2  0  0  0  0
 20  2  1  0  0  0  0
 21  8  1  0  0  0  0
 22  6  1  0  0  0  0
 23 11  1  0  0  0  0
 23 10  1  0  0  0  0
 24 23  1  0  0  0  0
 25  1  1  0  0  0  0
 27  4  1  0  0  0  0
 27 25  1  0  0  0  0
 27 28  1  1  0  0  0
 29 28  1  0  0  0  0
 30 28  1  0  0  0  0
M  END
>  <CHROM.1>
-137.32764952,1.22697152,123.03794507,66.18918197,66.09962566,26.21660566
40.33117231,23.32957422,1.44016744,-0.31733001,-2.34864324

>  <Name>
lig.pdb

>  <RI>
0

>  <Rbt.Current_Directory>
/home/itssahil/PROJECTS/Mol_Feturizer/New_Systems/rnas/6bfb

>  <Rbt.Executable>
rbdock ($Id: //depot/dev/client3/rdock/2013.1/src/exe/rbdock.cxx#4 $)

>  <Rbt.Library>
libRbt.so (2013.1, Build901 2013/11/27)

>  <Rbt.Parameter_File>
/export/apps/rDock/src/rDock_2013.1_src/data/scripts/dock_solv.prm

>  <Rbt.Receptor>
prm/pocket_docking_5.prm

>  <SCORE>
-39.1764

>  <SCORE.INTER>
-34.6939

>  <SCORE.INTER.CONST>
1

>  <SCORE.INTER.POLAR>
-0.949202

>  <SCORE.INTER.ROT>
3

>  <SCORE.INTER.SOLV>
10.2761

>  <SCORE.INTER.VDW>
-28.9906

>  <SCORE.INTER.norm>
-1.15646

>  <SCORE.INTRA>
-4.48247

>  <SCORE.INTRA.DIHEDRAL>
-7.34409

>  <SCORE.INTRA.DIHEDRAL.0>
9.41909

>  <SCORE.INTRA.POLAR>
0

>  <SCORE.INTRA.POLAR.0>
0

>  <SCORE.INTRA.REPUL>
0

>  <SCORE.INTRA.REPUL.0>
0

>  <SCORE.INTRA.SOLV>
-0.18547

>  <SCORE.INTRA.SOLV.lig_0>
-26.2491

>  <SCORE.INTRA.VDW>
-0.717691

>  <SCORE.INTRA.VDW.0>
2.57239

>  <SCORE.INTRA.norm>
-0.149416

>  <SCORE.RESTR>
0

>  <SCORE.RESTR.CAVITY>
0

>  <SCORE.RESTR.norm>
0

>  <SCORE.SYSTEM>
0

>  <SCORE.SYSTEM.CONST>
0

>  <SCORE.SYSTEM.DIHEDRAL>
0

>  <SCORE.SYSTEM.SOLV>
0

>  <SCORE.SYSTEM.norm>
0

>  <SCORE.heavy>
30

>  <SCORE.norm>
-1.30588

>  <RMSD>
1.040

$$$$
lig.pdb
 OpenBabel11021811523D
libRbt.so/2013.1/901 2013/11/27
 30 34  0  0  0  0  0  0  0  0999 V2000
   26.5880   38.2518   21.1495 N   0  0  0  0  0  0  0  0  0  0  0  0
   27.0735   41.9535   24.4005 N   0  0  0  0  0  0  0  0  0  0  0  0
   27.9535   37.7221   21.2139 C   0  0  0  0  0  0  0  0  0  0  0  0
   27.9895   36.8113   19.9960 C   0  0  2  0  0  0  0  0  0  0  0  0
   26.0571   39.0596   22.2418 C   0  0  0  0  0  0  0  0  0  0  0  0
   24.7859   38.8560   22.8166 C   0  0  0  0  0  0  0  0  0  0  0  0
   24.2718   39.6322   23.8252 C   0  0  0  0  0  0  0  0  0  0  0  0
   24.4377   41.5683   25.3930 C   0  0  0  0  0  0  0  0  0  0  0  0
   28.9940   43.0949   24.7631 C   0  0  0  0  0  0  0  0  0  0  0  0
   28.9846   41.0201   23.2087 C   0  0  0  0  0  0  0  0  0  0  0  0
   26.8280   40.1290   22.7787 C   0  0  0  0  0  0  0  0  0  0  0  0
   23.8043   44.3633   26.6071 O   0  0  0  0  0  0  0  0  0  0  0  0
   24.7666   43.6379   26.8678 C   0  0  0  0  0  0  0  0  0  0  0  0
   25.3883   43.6704   28.0401 O   0  0  0  0  0  0  0  0  0  0  0  0
   25.2992   42.6873   25.8558 C   0  0  1  0  0  0  0  0  0  0  0  0
   23.3221   41.3423   25.8740 O   0  0  0  0  0  0  0  0  0  0  0  0
   26.6065   42.8448   25.3637 C   0  0  0  0  0  0  0  0  0  0  0  0
   28.4338   42.0865   24.0882 C   0  0  0  0  0  0  0  0  0  0  0  0
   27.8928   43.8842   25.8147 S   0  0  0  0  0  0  0  0  0  0  0  0
   26.3086   40.9148   23.8323 C   0  0  0  0  0  0  0  0  0  0  0  0
   25.0196   40.6910   24.3402 C   0  0  0  0  0  0  0  0  0  0  0  0
   24.0318   37.8277   22.3791 F   0  0  0  0  0  0  0  0  0  0  0  0
   28.0762   40.4563   22.2263 N   0  0  0  0  0  0  0  0  0  0  0  0
   27.9207   41.2205   21.0070 C   0  0  0  0  0  0  0  0  0  0  0  0
   25.7220   37.3993   20.3428 C   0  0  0  0  0  0  0  0  0  0  0  0
   29.0404   37.1734   19.0992 O   0  0  0  0  0  0  0  0  0  0  0  0
   26.6933   37.0533   19.2268 C   0  0  2  0  0  0  0  0  0  0  0  0
   26.3887   35.8423   18.4411 N   0  0  0  0  0  0  0  0  0  0  0  0
   27.2243   35.6428   17.2431 C   0  0  0  0  0  0  0  0  0  0  0  0
   26.2906   34.6270   19.2641 C   0  0  0  0  0  0  0  0  0  0  0  0
  1  5  1  0  0  0  0
  2 17  1  0  0  0  0
  3  1  1  0  0  0  0
  4  3  1  0  0  0  0
  4 26  1  6  0  0  0
  5 11  2  0  0  0  0
  5  6  1  0  0  0  0
  6  7  2  0  0  0  0
  7 21  1  0  0  0  0
  8 15  1  0  0  0  0
  8 16  2  0  0  0  0
  9 19  1  0  0  0  0
 10 18  1  0  0  0  0
 11 20  1  0  0  0  0
 13 14  1  0  0  0  0
 13 12  2  0  0  0  0
 15 13  1  1  0  0  0
 17 19  2  0  0  0  0
 17 15  1  0  0  0  0
 18  2  1  0  0  0  0
 18  9  2  0  0  0  0
 20 21  2  0  0  0  0
 20  2  1  0  0  0  0
 21  8  1  0  0  0  0
 22  6  1  0  0  0  0
 23 11  1  0  0  0  0
 23 10  1  0  0  0  0
 24 23  1  0  0  0  0
 25  1  1  0  0  0  0
 27  4  1  0  0  0  0
 27 25  1  0  0  0  0
 27 28  1  1  0  0  0
 29 28  1  0  0  0  0
 30 28  1  0  0  0  0
M  END
>  <CHROM.1>
-132.96088705,-179.19895419,-64.45932173,63.48246256,-74.66216680,26.45274922
40.15052361,23.00093418,1.44635438,-0.36176492,-2.39084983

>  <Name>
lig.pdb

>  <RI>
0

>  <Rbt.Current_Directory>
/home/itssahil/PROJECTS/Mol_Feturizer/New_Systems/rnas/6bfb

>  <Rbt.Executable>
rbdock ($Id: //depot/dev/client3/rdock/2013.1/src/exe/rbdock.cxx#4 $)

>  <Rbt.Library>
libRbt.so (2013.1, Build901 2013/11/27)

>  <Rbt.Parameter_File>
/export/apps/rDock/src/rDock_2013.1_src/data/scripts/dock_solv.prm

>  <Rbt.Receptor>
prm/pocket_docking_7.prm

>  <SCORE>
-38.4633

>  <SCORE.INTER>
-35.1061

>  <SCORE.INTER.CONST>
1

>  <SCORE.INTER.POLAR>
-0.959166

>  <SCORE.INTER.ROT>
3

>  <SCORE.INTER.SOLV>
10.1445

>  <SCORE.INTER.VDW>
-29.1883

>  <SCORE.INTER.norm>
-1.1702

>  <SCORE.INTRA>
-3.35724

>  <SCORE.INTRA.DIHEDRAL>
-7.55799

>  <SCORE.INTRA.DIHEDRAL.0>
9.41909

>  <SCORE.INTRA.POLAR>
0

>  <SCORE.INTRA.POLAR.0>
0

>  <SCORE.INTRA.REPUL>
0

>  <SCORE.INTRA.REPUL.0>
0

>  <SCORE.INTRA.SOLV>
-0.0142734

>  <SCORE.INTRA.SOLV.lig_0>
-26.2491

>  <SCORE.INTRA.VDW>
0.428885

>  <SCORE.INTRA.VDW.0>
2.57239

>  <SCORE.INTRA.norm>
-0.111908

>  <SCORE.RESTR>
0

>  <SCORE.RESTR.CAVITY>
0

>  <SCORE.RESTR.norm>
0

>  <SCORE.SYSTEM>
0

>  <SCORE.SYSTEM.CONST>
0

>  <SCORE.SYSTEM.DIHEDRAL>
0

>  <SCORE.SYSTEM.SOLV>
0

>  <SCORE.SYSTEM.norm>
0

>  <SCORE.heavy>
30

>  <SCORE.norm>
-1.28211

>  <RMSD>
1.043

$$$$
lig.pdb
 OpenBabel11021811523D
libRbt.so/2013.1/901 2013/11/27
 30 34  0  0  0  0  0  0  0  0999 V2000
   26.5762   38.2868   21.1760 N   0  0  0  0  0  0  0  0  0  0  0  0
   27.0678   41.9812   24.4344 N   0  0  0  0  0  0  0  0  0  0  0  0
   27.9388   37.7501   21.2441 C   0  0  0  0  0  0  0  0  0  0  0  0
   27.9745   36.8416   20.0245 C   0  0  2  0  0  0  0  0  0  0  0  0
   26.0455   39.0951   22.2681 C   0  0  0  0  0  0  0  0  0  0  0  0
   24.7719   38.8959   22.8389 C   0  0  0  0  0  0  0  0  0  0  0  0
   24.2581   39.6726   23.8472 C   0  0  0  0  0  0  0  0  0  0  0  0
   24.4276   41.6054   25.4186 C   0  0  0  0  0  0  0  0  0  0  0  0
   28.9920   43.1139   24.8044 C   0  0  0  0  0  0  0  0  0  0  0  0
   28.9784   41.0417   23.2466 C   0  0  0  0  0  0  0  0  0  0  0  0
   26.8194   40.1603   22.8090 C   0  0  0  0  0  0  0  0  0  0  0  0
   23.7742   44.3684   26.6515 O   0  0  0  0  0  0  0  0  0  0  0  0
   24.7608   43.6713   26.8978 C   0  0  0  0  0  0  0  0  0  0  0  0
   25.4103   43.7361   28.0536 O   0  0  0  0  0  0  0  0  0  0  0  0
   25.2924   42.7201   25.8857 C   0  0  1  0  0  0  0  0  0  0  0  0
   23.3097   41.3833   25.8961 O   0  0  0  0  0  0  0  0  0  0  0  0
   26.6018   42.8729   25.3977 C   0  0  0  0  0  0  0  0  0  0  0  0
   28.4295   42.1090   24.1262 C   0  0  0  0  0  0  0  0  0  0  0  0
   27.8911   43.9062   25.8541 S   0  0  0  0  0  0  0  0  0  0  0  0
   26.3002   40.9467   23.8623 C   0  0  0  0  0  0  0  0  0  0  0  0
   25.0088   40.7274   24.3661 C   0  0  0  0  0  0  0  0  0  0  0  0
   24.0147   37.8714   22.3976 F   0  0  0  0  0  0  0  0  0  0  0  0
   28.0705   40.4833   22.2607 N   0  0  0  0  0  0  0  0  0  0  0  0
   27.9217   41.2501   21.0422 C   0  0  0  0  0  0  0  0  0  0  0  0
   25.7088   37.4404   20.3645 C   0  0  0  0  0  0  0  0  0  0  0  0
   29.0304   37.2002   19.1321 O   0  0  0  0  0  0  0  0  0  0  0  0
   26.6822   37.0917   19.2513 C   0  0  2  0  0  0  0  0  0  0  0  0
   26.3743   35.8839   18.4620 N   0  0  0  0  0  0  0  0  0  0  0  0
   27.2130   35.6827   17.2664 C   0  0  0  0  0  0  0  0  0  0  0  0
   26.2674   34.6674   19.2821 C   0  0  0  0  0  0  0  0  0  0  0  0
  1  5  1  0  0  0  0
  2 17  1  0  0  0  0
  3  1  1  0  0  0  0
  4  3  1  0  0  0  0
  4 26  1  6  0  0  0
  5 11  2  0  0  0  0
  5  6  1  0  0  0  0
  6  7  2  0  0  0  0
  7 21  1  0  0  0  0
  8 15  1  0  0  0  0
  8 16  2  0  0  0  0
  9 19  1  0  0  0  0
 10 18  1  0  0  0  0
 11 20  1  0  0  0  0
 13 14  1  0  0  0  0
 13 12  2  0  0  0  0
 15 13  1  1  0  0  0
 17 19  2  0  0  0  0
 17 15  1  0  0  0  0
 18  2  1  0  0  0  0
 18  9  2  0  0  0  0
 20 21  2  0  0  0  0
 20  2  1  0  0  0  0
 21  8  1  0  0  0  0
 22  6  1  0  0  0  0
 23 11  1  0  0  0  0
 23 10  1  0  0  0  0
 24 23  1  0  0  0  0
 25  1  1  0  0  0  0
 27  4  1  0  0  0  0
 27 25  1  0  0  0  0
 27 28  1  1  0  0  0
 29 28  1  0  0  0  0
 30 28  1  0  0  0  0
M  END
>  <CHROM.1>
-132.89522121,1.72476424,-61.96986566,63.06349083,-74.66953593,26.44091736
40.18642192,23.03128541,1.44646625,-0.35605924,-2.38932441

>  <Name>
lig.pdb

>  <RI>
0

>  <Rbt.Current_Directory>
/home/itssahil/PROJECTS/Mol_Feturizer/New_Systems/rnas/6bfb

>  <Rbt.Executable>
rbdock ($Id: //depot/dev/client3/rdock/2013.1/src/exe/rbdock.cxx#4 $)

>  <Rbt.Library>
libRbt.so (2013.1, Build901 2013/11/27)

>  <Rbt.Parameter_File>
/export/apps/rDock/src/rDock_2013.1_src/data/scripts/dock_solv.prm

>  <Rbt.Receptor>
prm/pocket_docking_6.prm

>  <SCORE>
-38.3146

>  <SCORE.INTER>
-34.6549

>  <SCORE.INTER.CONST>
1

>  <SCORE.INTER.POLAR>
-0.950587

>  <SCORE.INTER.ROT>
3

>  <SCORE.INTER.SOLV>
10.0877

>  <SCORE.INTER.VDW>
-28.8972

>  <SCORE.INTER.norm>
-1.15516

>  <SCORE.INTRA>
-3.65976

>  <SCORE.INTRA.DIHEDRAL>
-7.55855

>  <SCORE.INTRA.DIHEDRAL.0>
9.41909

>  <SCORE.INTRA.POLAR>
0

>  <SCORE.INTRA.POLAR.0>
0

>  <SCORE.INTRA.REPUL>
0

>  <SCORE.INTRA.REPUL.0>
0

>  <SCORE.INTRA.SOLV>
0.0519864

>  <SCORE.INTRA.SOLV.lig_0>
-26.2491

>  <SCORE.INTRA.VDW>
0.0935223

>  <SCORE.INTRA.VDW.0>
2.57239

>  <SCORE.INTRA.norm>
-0.121992

>  <SCORE.RESTR>
0

>  <SCORE.RESTR.CAVITY>
0

>  <SCORE.RESTR.norm>
0

>  <SCORE.SYSTEM>
0

>  <SCORE.SYSTEM.CONST>
0

>  <SCORE.SYSTEM.DIHEDRAL>
0

>  <SCORE.SYSTEM.SOLV>
0

>  <SCORE.SYSTEM.norm>
0

>  <SCORE.heavy>
30

>  <SCORE.norm>
-1.27715

>  <RMSD>
1.050

$$$$
lig.pdb
 OpenBabel11021811523D
libRbt.so/2013.1/901 2013/11/27
 30 34  0  0  0  0  0  0  0  0999 V2000
   26.4351   38.1390   21.1623 N   0  0  0  0  0  0  0  0  0  0  0  0
   26.5063   41.6381   24.6634 N   0  0  0  0  0  0  0  0  0  0  0  0
   27.8415   37.7458   21.2924 C   0  0  0  0  0  0  0  0  0  0  0  0
   28.0278   36.8559   20.0727 C   0  0  2  0  0  0  0  0  0  0  0  0
   25.7733   38.8790   22.2309 C   0  0  0  0  0  0  0  0  0  0  0  0
   24.4451   38.6398   22.6391 C   0  0  0  0  0  0  0  0  0  0  0  0
   23.8101   39.3533   23.6248 C   0  0  0  0  0  0  0  0  0  0  0  0
   23.7754   41.1913   25.3143 C   0  0  0  0  0  0  0  0  0  0  0  0
   28.3618   42.7573   25.3169 C   0  0  0  0  0  0  0  0  0  0  0  0
   28.5514   40.7801   23.6508 C   0  0  0  0  0  0  0  0  0  0  0  0
   26.4674   39.9146   22.9177 C   0  0  0  0  0  0  0  0  0  0  0  0
   23.3675   42.6983   27.9397 O   0  0  0  0  0  0  0  0  0  0  0  0
   23.9125   43.1685   26.9387 C   0  0  0  0  0  0  0  0  0  0  0  0
   23.9341   44.4708   26.6827 O   0  0  0  0  0  0  0  0  0  0  0  0
   24.5677   42.2811   25.9412 C   0  0  1  0  0  0  0  0  0  0  0  0
   22.6130   40.9357   25.6464 O   0  0  0  0  0  0  0  0  0  0  0  0
   25.9224   42.4692   25.6166 C   0  0  0  0  0  0  0  0  0  0  0  0
   27.8927   41.7911   24.5217 C   0  0  0  0  0  0  0  0  0  0  0  0
   27.1386   43.4807   26.2771 S   0  0  0  0  0  0  0  0  0  0  0  0
   25.8216   40.6350   23.9481 C   0  0  0  0  0  0  0  0  0  0  0  0
   24.4838   40.3797   24.2866 C   0  0  0  0  0  0  0  0  0  0  0  0
   23.7558   37.6391   22.0552 F   0  0  0  0  0  0  0  0  0  0  0  0
   27.7691   40.2759   22.5365 N   0  0  0  0  0  0  0  0  0  0  0  0
   27.7515   41.1121   21.3553 C   0  0  0  0  0  0  0  0  0  0  0  0
   25.6988   37.2140   20.3080 C   0  0  0  0  0  0  0  0  0  0  0  0
   29.0809   37.3294   19.2321 O   0  0  0  0  0  0  0  0  0  0  0  0
   26.7538   36.9772   19.2406 C   0  0  2  0  0  0  0  0  0  0  0  0
   26.6099   35.7505   18.4336 N   0  0  0  0  0  0  0  0  0  0  0  0
   26.3367   34.5214   19.2004 C   0  0  0  0  0  0  0  0  0  0  0  0
   25.6975   35.9122   17.2912 C   0  0  0  0  0  0  0  0  0  0  0  0
  1  5  1  0  0  0  0
  2 17  1  0  0  0  0
  3  1  1  0  0  0  0
  4  3  1  0  0  0  0
  4 26  1  6  0  0  0
  5 11  2  0  0  0  0
  5  6  1  0  0  0  0
  6  7  2  0  0  0  0
  7 21  1  0  0  0  0
  8 15  1  0  0  0  0
  8 16  2  0  0  0  0
  9 19  1  0  0  0  0
 10 18  1  0  0  0  0
 11 20  1  0  0  0  0
 13 14  1  0  0  0  0
 13 12  2  0  0  0  0
 15 13  1  1  0  0  0
 17 19  2  0  0  0  0
 17 15  1  0  0  0  0
 18  2  1  0  0  0  0
 18  9  2  0  0  0  0
 20 21  2  0  0  0  0
 20  2  1  0  0  0  0
 21  8  1  0  0  0  0
 22  6  1  0  0  0  0
 23 11  1  0  0  0  0
 23 10  1  0  0  0  0
 24 23  1  0  0  0  0
 25  1  1  0  0  0  0
 27  4  1  0  0  0  0
 27 25  1  0  0  0  0
 27 28  1  1  0  0  0
 29 28  1  0  0  0  0
 30 28  1  0  0  0  0
M  END
>  <CHROM.1>
-140.25302398,-175.88206126,55.87354213,67.10470892,67.47748238,26.00117888
39.93474762,23.09260692,1.38989073,-0.29107616,-2.36369170

>  <Name>
lig.pdb

>  <RI>
0

>  <Rbt.Current_Directory>
/home/itssahil/PROJECTS/Mol_Feturizer/New_Systems/rnas/6bfb

>  <Rbt.Executable>
rbdock ($Id: //depot/dev/client3/rdock/2013.1/src/exe/rbdock.cxx#4 $)

>  <Rbt.Library>
libRbt.so (2013.1, Build901 2013/11/27)

>  <Rbt.Parameter_File>
/export/apps/rDock/src/rDock_2013.1_src/data/scripts/dock_solv.prm

>  <Rbt.Receptor>
prm/blind_docking_100.prm

>  <SCORE>
-41.6494

>  <SCORE.INTER>
-37.8273

>  <SCORE.INTER.CONST>
1

>  <SCORE.INTER.POLAR>
-1.79315

>  <SCORE.INTER.ROT>
3

>  <SCORE.INTER.SOLV>
10.2771

>  <SCORE.INTER.VDW>
-28.2667

>  <SCORE.INTER.norm>
-1.26091

>  <SCORE.INTRA>
-3.82215

>  <SCORE.INTRA.DIHEDRAL>
-7.14578

>  <SCORE.INTRA.DIHEDRAL.0>
9.41909

>  <SCORE.INTRA.POLAR>
0

>  <SCORE.INTRA.POLAR.0>
0

>  <SCORE.INTRA.REPUL>
0

>  <SCORE.INTRA.REPUL.0>
0

>  <SCORE.INTRA.SOLV>
-0.246958

>  <SCORE.INTRA.SOLV.lig_0>
-26.2491

>  <SCORE.INTRA.VDW>
-0.12578

>  <SCORE.INTRA.VDW.0>
2.57239

>  <SCORE.INTRA.norm>
-0.127405

>  <SCORE.RESTR>
0

>  <SCORE.RESTR.CAVITY>
0

>  <SCORE.RESTR.norm>
0

>  <SCORE.SYSTEM>
0

>  <SCORE.SYSTEM.CONST>
0

>  <SCORE.SYSTEM.DIHEDRAL>
0

>  <SCORE.SYSTEM.SOLV>
0

>  <SCORE.SYSTEM.norm>
0

>  <SCORE.heavy>
30

>  <SCORE.norm>
-1.38831

>  <RMSD>
1.051

$$$$
lig.pdb
 OpenBabel11021811523D
libRbt.so/2013.1/901 2013/11/27
 30 34  0  0  0  0  0  0  0  0999 V2000
   26.5865   38.3053   21.2072 N   0  0  0  0  0  0  0  0  0  0  0  0
   27.1360   41.9904   24.4669 N   0  0  0  0  0  0  0  0  0  0  0  0
   27.9541   37.7792   21.2549 C   0  0  0  0  0  0  0  0  0  0  0  0
   27.9742   36.8603   20.0427 C   0  0  2  0  0  0  0  0  0  0  0  0
   26.0698   39.1193   22.3018 C   0  0  0  0  0  0  0  0  0  0  0  0
   24.7958   38.9356   22.8769 C   0  0  0  0  0  0  0  0  0  0  0  0
   24.2954   39.7179   23.8877 C   0  0  0  0  0  0  0  0  0  0  0  0
   24.4947   41.6470   25.4601 C   0  0  0  0  0  0  0  0  0  0  0  0
   29.0756   43.0985   24.8310 C   0  0  0  0  0  0  0  0  0  0  0  0
   29.0305   41.0280   23.2715 C   0  0  0  0  0  0  0  0  0  0  0  0
   26.8590   40.1742   22.8408 C   0  0  0  0  0  0  0  0  0  0  0  0
   23.9223   44.4637   26.6747 O   0  0  0  0  0  0  0  0  0  0  0  0
   24.8592   43.7073   26.9397 C   0  0  0  0  0  0  0  0  0  0  0  0
   25.4675   43.7103   28.1195 O   0  0  0  0  0  0  0  0  0  0  0  0
   25.3751   42.7503   25.9251 C   0  0  1  0  0  0  0  0  0  0  0  0
   23.3758   41.4387   25.9413 O   0  0  0  0  0  0  0  0  0  0  0  0
   26.6846   42.8870   25.4325 C   0  0  0  0  0  0  0  0  0  0  0  0
   28.4981   42.1014   24.1540 C   0  0  0  0  0  0  0  0  0  0  0  0
   27.9885   43.9036   25.8852 S   0  0  0  0  0  0  0  0  0  0  0  0
   26.3534   40.9661   23.8967 C   0  0  0  0  0  0  0  0  0  0  0  0
   25.0611   40.7627   24.4048 C   0  0  0  0  0  0  0  0  0  0  0  0
   24.0243   37.9212   22.4374 F   0  0  0  0  0  0  0  0  0  0  0  0
   28.1122   40.4819   22.2884 N   0  0  0  0  0  0  0  0  0  0  0  0
   27.9687   41.2516   21.0710 C   0  0  0  0  0  0  0  0  0  0  0  0
   25.7107   37.4455   20.4191 C   0  0  0  0  0  0  0  0  0  0  0  0
   29.0108   37.2188   19.1280 O   0  0  0  0  0  0  0  0  0  0  0  0
   26.6662   37.0941   19.2912 C   0  0  2  0  0  0  0  0  0  0  0  0
   26.3528   35.8772   18.5182 N   0  0  0  0  0  0  0  0  0  0  0  0
   26.0551   34.6792   19.3240 C   0  0  0  0  0  0  0  0  0  0  0  0
   25.3553   36.1031   17.4610 C   0  0  0  0  0  0  0  0  0  0  0  0
  1  5  1  0  0  0  0
  2 17  1  0  0  0  0
  3  1  1  0  0  0  0
  4  3  1  0  0  0  0
  4 26  1  6  0  0  0
  5 11  2  0  0  0  0
  5  6  1  0  0  0  0
  6  7  2  0  0  0  0
  7 21  1  0  0  0  0
  8 15  1  0  0  0  0
  8 16  2  0  0  0  0
  9 19  1  0  0  0  0
 10 18  1  0  0  0  0
 11 20  1  0  0  0  0
 13 14  1  0  0  0  0
 13 12  2  0  0  0  0
 15 13  1  1  0  0  0
 17 19  2  0  0  0  0
 17 15  1  0  0  0  0
 18  2  1  0  0  0  0
 18  9  2  0  0  0  0
 20 21  2  0  0  0  0
 20  2  1  0  0  0  0
 21  8  1  0  0  0  0
 22  6  1  0  0  0  0
 23 11  1  0  0  0  0
 23 10  1  0  0  0  0
 24 23  1  0  0  0  0
 25  1  1  0  0  0  0
 27  4  1  0  0  0  0
 27 25  1  0  0  0  0
 27 28  1  1  0  0  0
 29 28  1  0  0  0  0
 30 28  1  0  0  0  0
M  END
>  <CHROM.1>
-134.42281771,2.28933046,-65.57604995,65.50868089,65.63160688,26.41298472
40.21840713,23.07099875,1.49808204,-0.32752011,-2.36963906

>  <Name>
lig.pdb

>  <RI>
0

>  <Rbt.Current_Directory>
/home/itssahil/PROJECTS/Mol_Feturizer/New_Systems/rnas/6bfb

>  <Rbt.Executable>
rbdock ($Id: //depot/dev/client3/rdock/2013.1/src/exe/rbdock.cxx#4 $)

>  <Rbt.Library>
libRbt.so (2013.1, Build901 2013/11/27)

>  <Rbt.Parameter_File>
/export/apps/rDock/src/rDock_2013.1_src/data/scripts/dock_solv.prm

>  <Rbt.Receptor>
prm/blind_docking_80.prm

>  <SCORE>
-39.9046

>  <SCORE.INTER>
-35.0655

>  <SCORE.INTER.CONST>
1

>  <SCORE.INTER.POLAR>
-0.958411

>  <SCORE.INTER.ROT>
3

>  <SCORE.INTER.SOLV>
10.6187

>  <SCORE.INTER.VDW>
-29.3219

>  <SCORE.INTER.norm>
-1.16885

>  <SCORE.INTRA>
-4.83904

>  <SCORE.INTRA.DIHEDRAL>
-7.37981

>  <SCORE.INTRA.DIHEDRAL.0>
9.41909

>  <SCORE.INTRA.POLAR>
0

>  <SCORE.INTRA.POLAR.0>
0

>  <SCORE.INTRA.REPUL>
0

>  <SCORE.INTRA.REPUL.0>
0

>  <SCORE.INTRA.SOLV>
-0.22118

>  <SCORE.INTRA.SOLV.lig_0>
-26.2491

>  <SCORE.INTRA.VDW>
-1.03855

>  <SCORE.INTRA.VDW.0>
2.57239

>  <SCORE.INTRA.norm>
-0.161301

>  <SCORE.RESTR>
0

>  <SCORE.RESTR.CAVITY>
0

>  <SCORE.RESTR.norm>
0

>  <SCORE.SYSTEM>
0

>  <SCORE.SYSTEM.CONST>
0

>  <SCORE.SYSTEM.DIHEDRAL>
0

>  <SCORE.SYSTEM.SOLV>
0

>  <SCORE.SYSTEM.norm>
0

>  <SCORE.heavy>
30

>  <SCORE.norm>
-1.33015

>  <RMSD>
1.052

$$$$
lig.pdb
 OpenBabel11021811523D
libRbt.so/2013.1/901 2013/11/27
 30 34  0  0  0  0  0  0  0  0999 V2000
   26.6302   38.2861   21.1335 N   0  0  0  0  0  0  0  0  0  0  0  0
   27.1547   42.0045   24.3593 N   0  0  0  0  0  0  0  0  0  0  0  0
   27.9753   37.7084   21.2145 C   0  0  0  0  0  0  0  0  0  0  0  0
   27.9988   36.8073   19.9890 C   0  0  2  0  0  0  0  0  0  0  0  0
   26.1105   39.1028   22.2246 C   0  0  0  0  0  0  0  0  0  0  0  0
   24.8424   38.9082   22.8094 C   0  0  0  0  0  0  0  0  0  0  0  0
   24.3387   39.6926   23.8168 C   0  0  0  0  0  0  0  0  0  0  0  0
   24.5241   41.6370   25.3720 C   0  0  0  0  0  0  0  0  0  0  0  0
   29.0827   43.1393   24.7021 C   0  0  0  0  0  0  0  0  0  0  0  0
   29.0533   41.0556   23.1599 C   0  0  0  0  0  0  0  0  0  0  0  0
   26.8899   40.1717   22.7500 C   0  0  0  0  0  0  0  0  0  0  0  0
   23.9022   44.4314   26.5794 O   0  0  0  0  0  0  0  0  0  0  0  0
   24.8723   43.7138   26.8324 C   0  0  0  0  0  0  0  0  0  0  0  0
   25.5125   43.7622   27.9942 O   0  0  0  0  0  0  0  0  0  0  0  0
   25.3937   42.7548   25.8224 C   0  0  1  0  0  0  0  0  0  0  0  0
   23.4108   41.4189   25.8620 O   0  0  0  0  0  0  0  0  0  0  0  0
   26.6983   42.9035   25.3204 C   0  0  0  0  0  0  0  0  0  0  0  0
   28.5133   42.1296   24.0369 C   0  0  0  0  0  0  0  0  0  0  0  0
   27.9923   43.9398   25.7565 S   0  0  0  0  0  0  0  0  0  0  0  0
   26.3812   40.9661   23.8025 C   0  0  0  0  0  0  0  0  0  0  0  0
   25.0947   40.7510   24.3205 C   0  0  0  0  0  0  0  0  0  0  0  0
   24.0807   37.8807   22.3831 F   0  0  0  0  0  0  0  0  0  0  0  0
   28.1357   40.4902   22.1871 N   0  0  0  0  0  0  0  0  0  0  0  0
   27.9752   41.2479   20.9644 C   0  0  0  0  0  0  0  0  0  0  0  0
   25.7480   37.4715   20.3056 C   0  0  0  0  0  0  0  0  0  0  0  0
   29.0760   37.1401   19.1121 O   0  0  0  0  0  0  0  0  0  0  0  0
   26.7243   37.1011   19.2019 C   0  0  2  0  0  0  0  0  0  0  0  0
   26.3902   35.9083   18.4005 N   0  0  0  0  0  0  0  0  0  0  0  0
   27.2347   35.6923   17.2115 C   0  0  0  0  0  0  0  0  0  0  0  0
   26.2410   34.6894   19.2103 C   0  0  0  0  0  0  0  0  0  0  0  0
  1  5  1  0  0  0  0
  2 17  1  0  0  0  0
  3  1  1  0  0  0  0
  4  3  1  0  0  0  0
  4 26  1  6  0  0  0
  5 11  2  0  0  0  0
  5  6  1  0  0  0  0
  6  7  2  0  0  0  0
  7 21  1  0  0  0  0
  8 15  1  0  0  0  0
  8 16  2  0  0  0  0
  9 19  1  0  0  0  0
 10 18  1  0  0  0  0
 11 20  1  0  0  0  0
 13 14  1  0  0  0  0
 13 12  2  0  0  0  0
 15 13  1  1  0  0  0
 17 19  2  0  0  0  0
 17 15  1  0  0  0  0
 18  2  1  0  0  0  0
 18  9  2  0  0  0  0
 20 21  2  0  0  0  0
 20  2  1  0  0  0  0
 21  8  1  0  0  0  0
 22  6  1  0  0  0  0
 23 11  1  0  0  0  0
 23 10  1  0  0  0  0
 24 23  1  0  0  0  0
 25  1  1  0  0  0  0
 27  4  1  0  0  0  0
 27 25  1  0  0  0  0
 27 28  1  1  0  0  0
 29 28  1  0  0  0  0
 30 28  1  0  0  0  0
M  END
>  <CHROM.1>
-130.62718660,2.75907875,-63.64571681,63.64526586,-74.84998572,26.51053083
40.20157103,22.97275143,1.45494077,-0.36028059,-2.39154180

>  <Name>
lig.pdb

>  <RI>
0

>  <Rbt.Current_Directory>
/home/itssahil/PROJECTS/Mol_Feturizer/New_Systems/rnas/6bfb

>  <Rbt.Executable>
rbdock ($Id: //depot/dev/client3/rdock/2013.1/src/exe/rbdock.cxx#4 $)

>  <Rbt.Library>
libRbt.so (2013.1, Build901 2013/11/27)

>  <Rbt.Parameter_File>
/export/apps/rDock/src/rDock_2013.1_src/data/scripts/dock_solv.prm

>  <Rbt.Receptor>
prm/pocket_docking_5.prm

>  <SCORE>
-38.1626

>  <SCORE.INTER>
-34.3293

>  <SCORE.INTER.CONST>
1

>  <SCORE.INTER.POLAR>
-0.95737

>  <SCORE.INTER.ROT>
3

>  <SCORE.INTER.SOLV>
10.252

>  <SCORE.INTER.VDW>
-28.7123

>  <SCORE.INTER.norm>
-1.14431

>  <SCORE.INTRA>
-3.83337

>  <SCORE.INTRA.DIHEDRAL>
-7.50992

>  <SCORE.INTRA.DIHEDRAL.0>
9.41909

>  <SCORE.INTRA.POLAR>
0

>  <SCORE.INTRA.POLAR.0>
0

>  <SCORE.INTRA.REPUL>
0.00291459

>  <SCORE.INTRA.REPUL.0>
0

>  <SCORE.INTRA.SOLV>
0.0386899

>  <SCORE.INTRA.SOLV.lig_0>
-26.2491

>  <SCORE.INTRA.VDW>
-0.11233

>  <SCORE.INTRA.VDW.0>
2.57239

>  <SCORE.INTRA.norm>
-0.127779

>  <SCORE.RESTR>
0

>  <SCORE.RESTR.CAVITY>
0

>  <SCORE.RESTR.norm>
0

>  <SCORE.SYSTEM>
0

>  <SCORE.SYSTEM.CONST>
0

>  <SCORE.SYSTEM.DIHEDRAL>
0

>  <SCORE.SYSTEM.SOLV>
0

>  <SCORE.SYSTEM.norm>
0

>  <SCORE.heavy>
30

>  <SCORE.norm>
-1.27209

>  <RMSD>
1.062

$$$$
lig.pdb
 OpenBabel11021811523D
libRbt.so/2013.1/901 2013/11/27
 30 34  0  0  0  0  0  0  0  0999 V2000
   26.5050   38.2646   21.3499 N   0  0  0  0  0  0  0  0  0  0  0  0
   26.8159   41.8987   24.6971 N   0  0  0  0  0  0  0  0  0  0  0  0
   27.9285   37.9157   21.3888 C   0  0  0  0  0  0  0  0  0  0  0  0
   28.0414   36.9473   20.2211 C   0  0  2  0  0  0  0  0  0  0  0  0
   25.9106   39.0614   22.4172 C   0  0  0  0  0  0  0  0  0  0  0  0
   24.5990   38.8686   22.8971 C   0  0  0  0  0  0  0  0  0  0  0  0
   24.0268   39.6350   23.8815 C   0  0  0  0  0  0  0  0  0  0  0  0
   24.1109   41.5396   25.4938 C   0  0  0  0  0  0  0  0  0  0  0  0
   28.7232   43.0013   25.2159 C   0  0  0  0  0  0  0  0  0  0  0  0
   28.7921   40.9552   23.6253 C   0  0  0  0  0  0  0  0  0  0  0  0
   26.6579   40.1080   23.0275 C   0  0  0  0  0  0  0  0  0  0  0  0
   23.4084   44.2920   26.7261 O   0  0  0  0  0  0  0  0  0  0  0  0
   24.3663   43.5767   27.0274 C   0  0  0  0  0  0  0  0  0  0  0  0
   24.9345   43.6121   28.2265 O   0  0  0  0  0  0  0  0  0  0  0  0
   24.9545   42.6356   26.0375 C   0  0  1  0  0  0  0  0  0  0  0  0
   22.9608   41.3236   25.8906 O   0  0  0  0  0  0  0  0  0  0  0  0
   26.2956   42.7802   25.6418 C   0  0  0  0  0  0  0  0  0  0  0  0
   28.1968   42.0147   24.4840 C   0  0  0  0  0  0  0  0  0  0  0  0
   27.5626   43.7898   26.2021 S   0  0  0  0  0  0  0  0  0  0  0  0
   26.0773   40.8833   24.0567 C   0  0  0  0  0  0  0  0  0  0  0  0
   24.7523   40.6718   24.4681 C   0  0  0  0  0  0  0  0  0  0  0  0
   23.8621   37.8610   22.3880 F   0  0  0  0  0  0  0  0  0  0  0  0
   27.9470   40.4244   22.5708 N   0  0  0  0  0  0  0  0  0  0  0  0
   27.8898   41.2129   21.3583 C   0  0  0  0  0  0  0  0  0  0  0  0
   25.7297   37.2644   20.6248 C   0  0  0  0  0  0  0  0  0  0  0  0
   29.0080   37.3860   19.2654 O   0  0  0  0  0  0  0  0  0  0  0  0
   26.7008   36.9790   19.4916 C   0  0  2  0  0  0  0  0  0  0  0  0
   26.5285   35.6956   18.7846 N   0  0  0  0  0  0  0  0  0  0  0  0
   27.3447   35.5330   17.5678 C   0  0  0  0  0  0  0  0  0  0  0  0
   26.6120   34.5277   19.6751 C   0  0  0  0  0  0  0  0  0  0  0  0
  1  5  1  0  0  0  0
  2 17  1  0  0  0  0
  3  1  1  0  0  0  0
  4  3  1  0  0  0  0
  4 26  1  6  0  0  0
  5 11  2  0  0  0  0
  5  6  1  0  0  0  0
  6  7  2  0  0  0  0
  7 21  1  0  0  0  0
  8 15  1  0  0  0  0
  8 16  2  0  0  0  0
  9 19  1  0  0  0  0
 10 18  1  0  0  0  0
 11 20  1  0  0  0  0
 13 14  1  0  0  0  0
 13 12  2  0  0  0  0
 15 13  1  1  0  0  0
 17 19  2  0  0  0  0
 17 15  1  0  0  0  0
 18  2  1  0  0  0  0
 18  9  2  0  0  0  0
 20 21  2  0  0  0  0
 20  2  1  0  0  0  0
 21  8  1  0  0  0  0
 22  6  1  0  0  0  0
 23 11  1  0  0  0  0
 23 10  1  0  0  0  0
 24 23  1  0  0  0  0
 25  1  1  0  0  0  0
 27  4  1  0  0  0  0
 27 25  1  0  0  0  0
 27 28  1  1  0  0  0
 29 28  1  0  0  0  0
 30 28  1  0  0  0  0
M  END
>  <CHROM.1>
-144.05260602,0.04239678,-62.13049161,65.12986746,-74.60864826,26.28079171
40.12589640,23.23940529,1.39926433,-0.31489776,-2.39891855

>  <Name>
lig.pdb

>  <RI>
0

>  <Rbt.Current_Directory>
/home/itssahil/PROJECTS/Mol_Feturizer/New_Systems/rnas/6bfb

>  <Rbt.Executable>
rbdock ($Id: //depot/dev/client3/rdock/2013.1/src/exe/rbdock.cxx#4 $)

>  <Rbt.Library>
libRbt.so (2013.1, Build901 2013/11/27)

>  <Rbt.Parameter_File>
/export/apps/rDock/src/rDock_2013.1_src/data/scripts/dock_solv.prm

>  <Rbt.Receptor>
prm/pocket_docking_3.prm

>  <SCORE>
-37.6431

>  <SCORE.INTER>
-35.1293

>  <SCORE.INTER.CONST>
1

>  <SCORE.INTER.POLAR>
-0.953952

>  <SCORE.INTER.ROT>
3

>  <SCORE.INTER.SOLV>
9.92384

>  <SCORE.INTER.VDW>
-29.1476

>  <SCORE.INTER.norm>
-1.17098

>  <SCORE.INTRA>
-2.51377

>  <SCORE.INTRA.DIHEDRAL>
-7.48708

>  <SCORE.INTRA.DIHEDRAL.0>
9.41909

>  <SCORE.INTRA.POLAR>
0

>  <SCORE.INTRA.POLAR.0>
0

>  <SCORE.INTRA.REPUL>
0

>  <SCORE.INTRA.REPUL.0>
0

>  <SCORE.INTRA.SOLV>
0.10504

>  <SCORE.INTRA.SOLV.lig_0>
-26.2491

>  <SCORE.INTRA.VDW>
1.17725

>  <SCORE.INTRA.VDW.0>
2.57239

>  <SCORE.INTRA.norm>
-0.0837925

>  <SCORE.RESTR>
0

>  <SCORE.RESTR.CAVITY>
0

>  <SCORE.RESTR.norm>
0

>  <SCORE.SYSTEM>
0

>  <SCORE.SYSTEM.CONST>
0

>  <SCORE.SYSTEM.DIHEDRAL>
0

>  <SCORE.SYSTEM.SOLV>
0

>  <SCORE.SYSTEM.norm>
0

>  <SCORE.heavy>
30

>  <SCORE.norm>
-1.25477

>  <RMSD>
1.168

$$$$
lig.pdb
 OpenBabel11021811523D
libRbt.so/2013.1/901 2013/11/27
 30 34  0  0  0  0  0  0  0  0999 V2000
   25.1152   38.4849   20.9365 N   0  0  0  0  0  0  0  0  0  0  0  0
   26.9561   41.8973   24.0144 N   0  0  0  0  0  0  0  0  0  0  0  0
   26.3957   37.9420   20.4726 C   0  0  0  0  0  0  0  0  0  0  0  0
   25.9598   37.0894   19.2905 C   0  0  2  0  0  0  0  0  0  0  0  0
   25.0421   39.2445   22.1795 C   0  0  0  0  0  0  0  0  0  0  0  0
   24.0148   39.0854   23.1320 C   0  0  0  0  0  0  0  0  0  0  0  0
   23.9275   39.8186   24.2891 C   0  0  0  0  0  0  0  0  0  0  0  0
   24.7643   41.6190   25.8031 C   0  0  0  0  0  0  0  0  0  0  0  0
   28.9823   42.8771   23.7750 C   0  0  0  0  0  0  0  0  0  0  0  0
   28.2850   40.9271   22.2153 C   0  0  0  0  0  0  0  0  0  0  0  0
   26.0366   40.2172   22.4810 C   0  0  0  0  0  0  0  0  0  0  0  0
   26.4101   43.3393   28.1927 O   0  0  0  0  0  0  0  0  0  0  0  0
   25.7359   43.5482   27.1818 C   0  0  0  0  0  0  0  0  0  0  0  0
   24.8910   44.5674   27.0851 O   0  0  0  0  0  0  0  0  0  0  0  0
   25.8242   42.6405   26.0071 C   0  0  1  0  0  0  0  0  0  0  0  0
   23.8510   41.4341   26.6146 O   0  0  0  0  0  0  0  0  0  0  0  0
   26.9084   42.7451   25.1185 C   0  0  0  0  0  0  0  0  0  0  0  0
   28.1465   41.9609   23.2766 C   0  0  0  0  0  0  0  0  0  0  0  0
   28.3574   43.6597   25.1673 S   0  0  0  0  0  0  0  0  0  0  0  0
   25.9598   40.9570   23.6828 C   0  0  0  0  0  0  0  0  0  0  0  0
   24.8921   40.7839   24.5771 C   0  0  0  0  0  0  0  0  0  0  0  0
   23.0722   38.1451   22.9205 F   0  0  0  0  0  0  0  0  0  0  0  0
   27.0604   40.4993   21.5631 N   0  0  0  0  0  0  0  0  0  0  0  0
   26.5838   41.3594   20.5011 C   0  0  0  0  0  0  0  0  0  0  0  0
   23.9929   37.6782   20.4704 C   0  0  0  0  0  0  0  0  0  0  0  0
   26.6170   37.4851   18.0858 O   0  0  0  0  0  0  0  0  0  0  0  0
   24.4782   37.3775   19.0624 C   0  0  2  0  0  0  0  0  0  0  0  0
   23.8769   36.2073   18.3948 N   0  0  0  0  0  0  0  0  0  0  0  0
   24.0912   34.9164   19.0738 C   0  0  0  0  0  0  0  0  0  0  0  0
   22.4703   36.4148   18.0175 C   0  0  0  0  0  0  0  0  0  0  0  0
  1  5  1  0  0  0  0
  2 17  1  0  0  0  0
  3  1  1  0  0  0  0
  4  3  1  0  0  0  0
  4 26  1  6  0  0  0
  5 11  2  0  0  0  0
  5  6  1  0  0  0  0
  6  7  2  0  0  0  0
  7 21  1  0  0  0  0
  8 15  1  0  0  0  0
  8 16  2  0  0  0  0
  9 19  1  0  0  0  0
 10 18  1  0  0  0  0
 11 20  1  0  0  0  0
 13 14  1  0  0  0  0
 13 12  2  0  0  0  0
 15 13  1  1  0  0  0
 17 19  2  0  0  0  0
 17 15  1  0  0  0  0
 18  2  1  0  0  0  0
 18  9  2  0  0  0  0
 20 21  2  0  0  0  0
 20  2  1  0  0  0  0
 21  8  1  0  0  0  0
 22  6  1  0  0  0  0
 23 11  1  0  0  0  0
 23 10  1  0  0  0  0
 24 23  1  0  0  0  0
 25  1  1  0  0  0  0
 27  4  1  0  0  0  0
 27 25  1  0  0  0  0
 27 28  1  1  0  0  0
 29 28  1  0  0  0  0
 30 28  1  0  0  0  0
M  END
>  <CHROM.1>
-137.33444887,168.31940851,100.55769490,62.68083074,53.64641420,25.69131861
40.26235179,22.84542593,1.81011810,-0.50118886,-2.19208906

>  <Name>
lig.pdb

>  <RI>
0

>  <Rbt.Current_Directory>
/home/itssahil/PROJECTS/Mol_Feturizer/New_Systems/rnas/6bfb

>  <Rbt.Executable>
rbdock ($Id: //depot/dev/client3/rdock/2013.1/src/exe/rbdock.cxx#4 $)

>  <Rbt.Library>
libRbt.so (2013.1, Build901 2013/11/27)

>  <Rbt.Parameter_File>
/export/apps/rDock/src/rDock_2013.1_src/data/scripts/dock_solv.prm

>  <Rbt.Receptor>
prm/pocket_docking_6.prm

>  <SCORE>
-37.0263

>  <SCORE.INTER>
-33.8066

>  <SCORE.INTER.CONST>
1

>  <SCORE.INTER.POLAR>
-0.549493

>  <SCORE.INTER.ROT>
3

>  <SCORE.INTER.SOLV>
12.1008

>  <SCORE.INTER.VDW>
-30.3397

>  <SCORE.INTER.norm>
-1.12689

>  <SCORE.INTRA>
-3.21967

>  <SCORE.INTRA.DIHEDRAL>
-6.66966

>  <SCORE.INTRA.DIHEDRAL.0>
9.41909

>  <SCORE.INTRA.POLAR>
0

>  <SCORE.INTRA.POLAR.0>
0

>  <SCORE.INTRA.REPUL>
0

>  <SCORE.INTRA.REPUL.0>
0

>  <SCORE.INTRA.SOLV>
-0.224021

>  <SCORE.INTRA.SOLV.lig_0>
-26.2491

>  <SCORE.INTRA.VDW>
0.227165

>  <SCORE.INTRA.VDW.0>
2.57239

>  <SCORE.INTRA.norm>
-0.107322

>  <SCORE.RESTR>
0

>  <SCORE.RESTR.CAVITY>
0

>  <SCORE.RESTR.norm>
0

>  <SCORE.SYSTEM>
0

>  <SCORE.SYSTEM.CONST>
0

>  <SCORE.SYSTEM.DIHEDRAL>
0

>  <SCORE.SYSTEM.SOLV>
0

>  <SCORE.SYSTEM.norm>
0

>  <SCORE.heavy>
30

>  <SCORE.norm>
-1.23421

>  <RMSD>
1.185

$$$$
lig.pdb
 OpenBabel11021811523D
libRbt.so/2013.1/901 2013/11/27
 30 34  0  0  0  0  0  0  0  0999 V2000
   26.3876   38.5054   21.6252 N   0  0  0  0  0  0  0  0  0  0  0  0
   26.7619   42.0491   25.0616 N   0  0  0  0  0  0  0  0  0  0  0  0
   27.7814   38.0561   21.6968 C   0  0  0  0  0  0  0  0  0  0  0  0
   27.8744   37.1429   20.4836 C   0  0  2  0  0  0  0  0  0  0  0  0
   25.8068   39.2864   22.7115 C   0  0  0  0  0  0  0  0  0  0  0  0
   24.4913   39.1062   23.1855 C   0  0  0  0  0  0  0  0  0  0  0  0
   23.9322   39.8585   24.1882 C   0  0  0  0  0  0  0  0  0  0  0  0
   24.0498   41.7206   25.8473 C   0  0  0  0  0  0  0  0  0  0  0  0
   28.6887   43.1029   25.6089 C   0  0  0  0  0  0  0  0  0  0  0  0
   28.7215   41.0959   23.9681 C   0  0  0  0  0  0  0  0  0  0  0  0
   26.5727   40.3035   23.3480 C   0  0  0  0  0  0  0  0  0  0  0  0
   24.8799   43.8576   28.5306 O   0  0  0  0  0  0  0  0  0  0  0  0
   24.3411   43.7140   27.4310 C   0  0  0  0  0  0  0  0  0  0  0  0
   23.2274   44.3523   27.0929 O   0  0  0  0  0  0  0  0  0  0  0  0
   24.9129   42.7870   26.4185 C   0  0  1  0  0  0  0  0  0  0  0  0
   22.8954   41.5163   26.2378 O   0  0  0  0  0  0  0  0  0  0  0  0
   26.2570   42.9164   26.0275 C   0  0  0  0  0  0  0  0  0  0  0  0
   28.1449   42.1447   24.8524 C   0  0  0  0  0  0  0  0  0  0  0  0
   27.5418   43.8882   26.6135 S   0  0  0  0  0  0  0  0  0  0  0  0
   26.0054   41.0637   24.3957 C   0  0  0  0  0  0  0  0  0  0  0  0
   24.6762   40.8667   24.8008 C   0  0  0  0  0  0  0  0  0  0  0  0
   23.7365   38.1253   22.6511 F   0  0  0  0  0  0  0  0  0  0  0  0
   27.8679   40.6071   22.9002 N   0  0  0  0  0  0  0  0  0  0  0  0
   27.8268   41.4263   21.7076 C   0  0  0  0  0  0  0  0  0  0  0  0
   25.5754   37.6003   20.8199 C   0  0  0  0  0  0  0  0  0  0  0  0
   28.9059   37.5610   19.5885 O   0  0  0  0  0  0  0  0  0  0  0  0
   26.5692   37.3056   19.7089 C   0  0  2  0  0  0  0  0  0  0  0  0
   26.3381   36.0752   18.9283 N   0  0  0  0  0  0  0  0  0  0  0  0
   26.1230   34.8546   19.7266 C   0  0  0  0  0  0  0  0  0  0  0  0
   25.3264   36.2398   17.8733 C   0  0  0  0  0  0  0  0  0  0  0  0
  1  5  1  0  0  0  0
  2 17  1  0  0  0  0
  3  1  1  0  0  0  0
  4  3  1  0  0  0  0
  4 26  1  6  0  0  0
  5 11  2  0  0  0  0
  5  6  1  0  0  0  0
  6  7  2  0  0  0  0
  7 21  1  0  0  0  0
  8 15  1  0  0  0  0
  8 16  2  0  0  0  0
  9 19  1  0  0  0  0
 10 18  1  0  0  0  0
 11 20  1  0  0  0  0
 13 14  1  0  0  0  0
 13 12  2  0  0  0  0
 15 13  1  1  0  0  0
 17 19  2  0  0  0  0
 17 15  1  0  0  0  0
 18  2  1  0  0  0  0
 18  9  2  0  0  0  0
 20 21  2  0  0  0  0
 20  2  1  0  0  0  0
 21  8  1  0  0  0  0
 22  6  1  0  0  0  0
 23 11  1  0  0  0  0
 23 10  1  0  0  0  0
 24 23  1  0  0  0  0
 25  1  1  0  0  0  0
 27  4  1  0  0  0  0
 27 25  1  0  0  0  0
 27 28  1  1  0  0  0
 29 28  1  0  0  0  0
 30 28  1  0  0  0  0
M  END
>  <CHROM.1>
-140.12285714,1.53775690,125.08306315,-57.48463681,64.31967736,26.10566532
40.34271718,23.54781516,1.45220135,-0.26704148,-2.35409337

>  <Name>
lig.pdb

>  <RI>
0

>  <Rbt.Current_Directory>
/home/itssahil/PROJECTS/Mol_Feturizer/New_Systems/rnas/6bfb

>  <Rbt.Executable>
rbdock ($Id: //depot/dev/client3/rdock/2013.1/src/exe/rbdock.cxx#4 $)

>  <Rbt.Library>
libRbt.so (2013.1, Build901 2013/11/27)

>  <Rbt.Parameter_File>
/export/apps/rDock/src/rDock_2013.1_src/data/scripts/dock_solv.prm

>  <Rbt.Receptor>
prm/pocket_docking_6.prm

>  <SCORE>
-34.3308

>  <SCORE.INTER>
-30.4976

>  <SCORE.INTER.CONST>
1

>  <SCORE.INTER.POLAR>
0

>  <SCORE.INTER.ROT>
3

>  <SCORE.INTER.SOLV>
10.6997

>  <SCORE.INTER.VDW>
-29.4983

>  <SCORE.INTER.norm>
-1.01659

>  <SCORE.INTRA>
-3.83317

>  <SCORE.INTRA.DIHEDRAL>
-7.54978

>  <SCORE.INTRA.DIHEDRAL.0>
9.41909

>  <SCORE.INTRA.POLAR>
0

>  <SCORE.INTRA.POLAR.0>
0

>  <SCORE.INTRA.REPUL>
0

>  <SCORE.INTRA.REPUL.0>
0

>  <SCORE.INTRA.SOLV>
-0.141246

>  <SCORE.INTRA.SOLV.lig_0>
-26.2491

>  <SCORE.INTRA.VDW>
0.0123404

>  <SCORE.INTRA.VDW.0>
2.57239

>  <SCORE.INTRA.norm>
-0.127772

>  <SCORE.RESTR>
0

>  <SCORE.RESTR.CAVITY>
0

>  <SCORE.RESTR.norm>
0

>  <SCORE.SYSTEM>
0

>  <SCORE.SYSTEM.CONST>
0

>  <SCORE.SYSTEM.DIHEDRAL>
0

>  <SCORE.SYSTEM.SOLV>
0

>  <SCORE.SYSTEM.norm>
0

>  <SCORE.heavy>
30

>  <SCORE.norm>
-1.14436

>  <RMSD>
1.185

$$$$
lig.pdb
 OpenBabel11021811523D
libRbt.so/2013.1/901 2013/11/27
 30 34  0  0  0  0  0  0  0  0999 V2000
   26.5090   38.5124   21.5249 N   0  0  0  0  0  0  0  0  0  0  0  0
   26.8032   42.1154   24.9071 N   0  0  0  0  0  0  0  0  0  0  0  0
   27.9313   38.1583   21.5585 C   0  0  0  0  0  0  0  0  0  0  0  0
   28.0430   37.2149   20.3703 C   0  0  2  0  0  0  0  0  0  0  0  0
   25.9153   39.2879   22.6083 C   0  0  0  0  0  0  0  0  0  0  0  0
   24.6133   39.0683   23.1026 C   0  0  0  0  0  0  0  0  0  0  0  0
   24.0413   39.8146   24.1025 C   0  0  0  0  0  0  0  0  0  0  0  0
   24.1149   41.7030   25.7341 C   0  0  0  0  0  0  0  0  0  0  0  0
   28.6986   43.2438   25.4136 C   0  0  0  0  0  0  0  0  0  0  0  0
   28.7806   41.2162   23.8001 C   0  0  0  0  0  0  0  0  0  0  0  0
   26.6531   40.3401   23.2203 C   0  0  0  0  0  0  0  0  0  0  0  0
   24.6359   44.9284   27.2844 O   0  0  0  0  0  0  0  0  0  0  0  0
   24.3564   43.7276   27.2864 C   0  0  0  0  0  0  0  0  0  0  0  0
   23.5393   43.1862   28.1814 O   0  0  0  0  0  0  0  0  0  0  0  0
   24.9473   42.8071   26.2789 C   0  0  1  0  0  0  0  0  0  0  0  0
   22.9736   41.4638   26.1432 O   0  0  0  0  0  0  0  0  0  0  0  0
   26.2807   42.9780   25.8679 C   0  0  0  0  0  0  0  0  0  0  0  0
   28.1790   42.2565   24.6778 C   0  0  0  0  0  0  0  0  0  0  0  0
   27.5380   44.0025   26.4230 S   0  0  0  0  0  0  0  0  0  0  0  0
   26.0731   41.0947   24.2652 C   0  0  0  0  0  0  0  0  0  0  0  0
   24.7572   40.8569   24.6910 C   0  0  0  0  0  0  0  0  0  0  0  0
   23.8866   38.0541   22.5920 F   0  0  0  0  0  0  0  0  0  0  0  0
   27.9308   40.6827   22.7507 N   0  0  0  0  0  0  0  0  0  0  0  0
   27.8451   41.4829   21.5478 C   0  0  0  0  0  0  0  0  0  0  0  0
   25.7316   37.5306   20.7771 C   0  0  0  0  0  0  0  0  0  0  0  0
   29.0125   37.6711   19.4258 O   0  0  0  0  0  0  0  0  0  0  0  0
   26.7037   37.2666   19.6396 C   0  0  2  0  0  0  0  0  0  0  0  0
   26.5285   35.9993   18.9048 N   0  0  0  0  0  0  0  0  0  0  0  0
   27.3598   35.8527   17.6962 C   0  0  0  0  0  0  0  0  0  0  0  0
   26.5881   34.8132   19.7727 C   0  0  0  0  0  0  0  0  0  0  0  0
  1  5  1  0  0  0  0
  2 17  1  0  0  0  0
  3  1  1  0  0  0  0
  4  3  1  0  0  0  0
  4 26  1  6  0  0  0
  5 11  2  0  0  0  0
  5  6  1  0  0  0  0
  6  7  2  0  0  0  0
  7 21  1  0  0  0  0
  8 15  1  0  0  0  0
  8 16  2  0  0  0  0
  9 19  1  0  0  0  0
 10 18  1  0  0  0  0
 11 20  1  0  0  0  0
 13 14  1  0  0  0  0
 13 12  2  0  0  0  0
 15 13  1  1  0  0  0
 17 19  2  0  0  0  0
 17 15  1  0  0  0  0
 18  2  1  0  0  0  0
 18  9  2  0  0  0  0
 20 21  2  0  0  0  0
 20  2  1  0  0  0  0
 21  8  1  0  0  0  0
 22  6  1  0  0  0  0
 23 11  1  0  0  0  0
 23 10  1  0  0  0  0
 24 23  1  0  0  0  0
 25  1  1  0  0  0  0
 27  4  1  0  0  0  0
 27 25  1  0  0  0  0
 27 28  1  1  0  0  0
 29 28  1  0  0  0  0
 30 28  1  0  0  0  0
M  END
>  <CHROM.1>
-142.52602123,-179.09570409,-143.20667162,67.00565850,-73.80187232,26.26812024
40.34237349,23.43252822,1.39076725,-0.36378916,-2.39522420

>  <Name>
lig.pdb

>  <RI>
0

>  <Rbt.Current_Directory>
/home/itssahil/PROJECTS/Mol_Feturizer/New_Systems/rnas/6bfb

>  <Rbt.Executable>
rbdock ($Id: //depot/dev/client3/rdock/2013.1/src/exe/rbdock.cxx#4 $)

>  <Rbt.Library>
libRbt.so (2013.1, Build901 2013/11/27)

>  <Rbt.Parameter_File>
/export/apps/rDock/src/rDock_2013.1_src/data/scripts/dock_solv.prm

>  <Rbt.Receptor>
prm/pocket_docking_7.prm

>  <SCORE>
-36.252

>  <SCORE.INTER>
-34.5624

>  <SCORE.INTER.CONST>
1

>  <SCORE.INTER.POLAR>
-0.911795

>  <SCORE.INTER.ROT>
3

>  <SCORE.INTER.SOLV>
10.2634

>  <SCORE.INTER.VDW>
-29.0234

>  <SCORE.INTER.norm>
-1.15208

>  <SCORE.INTRA>
-1.6896

>  <SCORE.INTRA.DIHEDRAL>
-7.38619

>  <SCORE.INTRA.DIHEDRAL.0>
9.41909

>  <SCORE.INTRA.POLAR>
0

>  <SCORE.INTRA.POLAR.0>
0

>  <SCORE.INTRA.REPUL>
0

>  <SCORE.INTRA.REPUL.0>
0

>  <SCORE.INTRA.SOLV>
0.160683

>  <SCORE.INTRA.SOLV.lig_0>
-26.2491

>  <SCORE.INTRA.VDW>
1.92316

>  <SCORE.INTRA.VDW.0>
2.57239

>  <SCORE.INTRA.norm>
-0.0563199

>  <SCORE.RESTR>
0

>  <SCORE.RESTR.CAVITY>
0

>  <SCORE.RESTR.norm>
0

>  <SCORE.SYSTEM>
0

>  <SCORE.SYSTEM.CONST>
0

>  <SCORE.SYSTEM.DIHEDRAL>
0

>  <SCORE.SYSTEM.SOLV>
0

>  <SCORE.SYSTEM.norm>
0

>  <SCORE.heavy>
30

>  <SCORE.norm>
-1.2084

>  <RMSD>
1.198

$$$$
lig.pdb
 OpenBabel11021811523D
libRbt.so/2013.1/901 2013/11/27
 30 34  0  0  0  0  0  0  0  0999 V2000
   26.3817   38.5143   21.6335 N   0  0  0  0  0  0  0  0  0  0  0  0
   26.7295   42.0541   25.0768 N   0  0  0  0  0  0  0  0  0  0  0  0
   27.7684   38.0474   21.7259 C   0  0  0  0  0  0  0  0  0  0  0  0
   27.8712   37.1412   20.5083 C   0  0  2  0  0  0  0  0  0  0  0  0
   25.7920   39.2954   22.7150 C   0  0  0  0  0  0  0  0  0  0  0  0
   24.4717   39.1170   23.1763 C   0  0  0  0  0  0  0  0  0  0  0  0
   23.9044   39.8693   24.1743 C   0  0  0  0  0  0  0  0  0  0  0  0
   24.0094   41.7297   25.8362 C   0  0  0  0  0  0  0  0  0  0  0  0
   28.6528   43.1040   25.6434 C   0  0  0  0  0  0  0  0  0  0  0  0
   28.6977   41.0985   24.0011 C   0  0  0  0  0  0  0  0  0  0  0  0
   26.5535   40.3105   23.3598 C   0  0  0  0  0  0  0  0  0  0  0  0
   24.7762   43.8104   28.5537 O   0  0  0  0  0  0  0  0  0  0  0  0
   24.2891   43.7210   27.4246 C   0  0  0  0  0  0  0  0  0  0  0  0
   23.2253   44.4204   27.0486 O   0  0  0  0  0  0  0  0  0  0  0  0
   24.8689   42.7940   26.4167 C   0  0  1  0  0  0  0  0  0  0  0  0
   22.8509   41.5270   26.2155 O   0  0  0  0  0  0  0  0  0  0  0  0
   26.2169   42.9214   26.0387 C   0  0  0  0  0  0  0  0  0  0  0  0
   28.1146   42.1475   24.8809 C   0  0  0  0  0  0  0  0  0  0  0  0
   27.4977   43.8903   26.6379 S   0  0  0  0  0  0  0  0  0  0  0  0
   25.9775   41.0707   24.4027 C   0  0  0  0  0  0  0  0  0  0  0  0
   24.6443   40.8757   24.7950 C   0  0  0  0  0  0  0  0  0  0  0  0
   23.7202   38.1380   22.6337 F   0  0  0  0  0  0  0  0  0  0  0  0
   27.8535   40.6123   22.9246 N   0  0  0  0  0  0  0  0  0  0  0  0
   27.8252   41.4326   21.7325 C   0  0  0  0  0  0  0  0  0  0  0  0
   25.5725   37.6246   20.8084 C   0  0  0  0  0  0  0  0  0  0  0  0
   28.9228   37.5523   19.6338 O   0  0  0  0  0  0  0  0  0  0  0  0
   26.5815   37.3250   19.7126 C   0  0  2  0  0  0  0  0  0  0  0  0
   26.3488   36.1027   18.9199 N   0  0  0  0  0  0  0  0  0  0  0  0
   26.1357   34.8739   19.7060 C   0  0  0  0  0  0  0  0  0  0  0  0
   25.3347   36.2779   17.8689 C   0  0  0  0  0  0  0  0  0  0  0  0
  1  5  1  0  0  0  0
  2 17  1  0  0  0  0
  3  1  1  0  0  0  0
  4  3  1  0  0  0  0
  4 26  1  6  0  0  0
  5 11  2  0  0  0  0
  5  6  1  0  0  0  0
  6  7  2  0  0  0  0
  7 21  1  0  0  0  0
  8 15  1  0  0  0  0
  8 16  2  0  0  0  0
  9 19  1  0  0  0  0
 10 18  1  0  0  0  0
 11 20  1  0  0  0  0
 13 14  1  0  0  0  0
 13 12  2  0  0  0  0
 15 13  1  1  0  0  0
 17 19  2  0  0  0  0
 17 15  1  0  0  0  0
 18  2  1  0  0  0  0
 18  9  2  0  0  0  0
 20 21  2  0  0  0  0
 20  2  1  0  0  0  0
 21  8  1  0  0  0  0
 22  6  1  0  0  0  0
 23 11  1  0  0  0  0
 23 10  1  0  0  0  0
 24 23  1  0  0  0  0
 25  1  1  0  0  0  0
 27  4  1  0  0  0  0
 27 25  1  0  0  0  0
 27 28  1  1  0  0  0
 29 28  1  0  0  0  0
 30 28  1  0  0  0  0
M  END
>  <CHROM.1>
-139.31203298,0.71129479,121.24828228,176.56752862,62.98591479,26.08474460
40.34788431,23.55295208,1.44612504,-0.25578971,-2.35429808

>  <Name>
lig.pdb

>  <RI>
0

>  <Rbt.Current_Directory>
/home/itssahil/PROJECTS/Mol_Feturizer/New_Systems/rnas/6bfb

>  <Rbt.Executable>
rbdock ($Id: //depot/dev/client3/rdock/2013.1/src/exe/rbdock.cxx#4 $)

>  <Rbt.Library>
libRbt.so (2013.1, Build901 2013/11/27)

>  <Rbt.Parameter_File>
/export/apps/rDock/src/rDock_2013.1_src/data/scripts/dock_solv.prm

>  <Rbt.Receptor>
prm/pocket_docking_5.prm

>  <SCORE>
-34.9154

>  <SCORE.INTER>
-30.5417

>  <SCORE.INTER.CONST>
1

>  <SCORE.INTER.POLAR>
0

>  <SCORE.INTER.ROT>
3

>  <SCORE.INTER.SOLV>
10.7678

>  <SCORE.INTER.VDW>
-29.5504

>  <SCORE.INTER.norm>
-1.01806

>  <SCORE.INTRA>
-4.37376

>  <SCORE.INTRA.DIHEDRAL>
-7.56588

>  <SCORE.INTRA.DIHEDRAL.0>
9.41909

>  <SCORE.INTRA.POLAR>
0

>  <SCORE.INTRA.POLAR.0>
0

>  <SCORE.INTRA.REPUL>
0

>  <SCORE.INTRA.REPUL.0>
0

>  <SCORE.INTRA.SOLV>
-0.117436

>  <SCORE.INTRA.SOLV.lig_0>
-26.2491

>  <SCORE.INTRA.VDW>
-0.532105

>  <SCORE.INTRA.VDW.0>
2.57239

>  <SCORE.INTRA.norm>
-0.145792

>  <SCORE.RESTR>
0

>  <SCORE.RESTR.CAVITY>
0

>  <SCORE.RESTR.norm>
0

>  <SCORE.SYSTEM>
0

>  <SCORE.SYSTEM.CONST>
0

>  <SCORE.SYSTEM.DIHEDRAL>
0

>  <SCORE.SYSTEM.SOLV>
0

>  <SCORE.SYSTEM.norm>
0

>  <SCORE.heavy>
30

>  <SCORE.norm>
-1.16385

>  <RMSD>
1.200

$$$$
lig.pdb
 OpenBabel11021811523D
libRbt.so/2013.1/901 2013/11/27
 30 34  0  0  0  0  0  0  0  0999 V2000
   26.3655   38.5202   21.6160 N   0  0  0  0  0  0  0  0  0  0  0  0
   26.7050   42.0801   25.0392 N   0  0  0  0  0  0  0  0  0  0  0  0
   27.7505   38.0507   21.7200 C   0  0  0  0  0  0  0  0  0  0  0  0
   27.8580   37.1346   20.5102 C   0  0  2  0  0  0  0  0  0  0  0  0
   25.7715   39.3112   22.6879 C   0  0  0  0  0  0  0  0  0  0  0  0
   24.4467   39.1426   23.1400 C   0  0  0  0  0  0  0  0  0  0  0  0
   23.8757   39.9042   24.1288 C   0  0  0  0  0  0  0  0  0  0  0  0
   23.9775   41.7746   25.7796 C   0  0  0  0  0  0  0  0  0  0  0  0
   28.6293   43.1237   25.6141 C   0  0  0  0  0  0  0  0  0  0  0  0
   28.6765   41.1076   23.9850 C   0  0  0  0  0  0  0  0  0  0  0  0
   26.5333   40.3264   23.3321 C   0  0  0  0  0  0  0  0  0  0  0  0
   24.4497   44.9890   27.2716 O   0  0  0  0  0  0  0  0  0  0  0  0
   24.2552   43.7746   27.3574 C   0  0  0  0  0  0  0  0  0  0  0  0
   23.5411   43.2333   28.3367 O   0  0  0  0  0  0  0  0  0  0  0  0
   24.8380   42.8382   26.3599 C   0  0  1  0  0  0  0  0  0  0  0  0
   22.8151   41.5803   26.1512 O   0  0  0  0  0  0  0  0  0  0  0  0
   26.1895   42.9562   25.9916 C   0  0  0  0  0  0  0  0  0  0  0  0
   28.0920   42.1651   24.8535 C   0  0  0  0  0  0  0  0  0  0  0  0
   27.4707   43.9223   26.5945 S   0  0  0  0  0  0  0  0  0  0  0  0
   25.9532   41.0963   24.3657 C   0  0  0  0  0  0  0  0  0  0  0  0
   24.6159   40.9107   24.7487 C   0  0  0  0  0  0  0  0  0  0  0  0
   23.6944   38.1640   22.5978 F   0  0  0  0  0  0  0  0  0  0  0  0
   27.8381   40.6188   22.9051 N   0  0  0  0  0  0  0  0  0  0  0  0
   27.8233   41.4316   21.7076 C   0  0  0  0  0  0  0  0  0  0  0  0
   25.5588   37.6259   20.7933 C   0  0  0  0  0  0  0  0  0  0  0  0
   28.9156   37.5363   19.6385 O   0  0  0  0  0  0  0  0  0  0  0  0
   26.5733   37.3152   19.7057 C   0  0  2  0  0  0  0  0  0  0  0  0
   26.3422   36.0872   18.9213 N   0  0  0  0  0  0  0  0  0  0  0  0
   26.1078   34.8678   19.7160 C   0  0  0  0  0  0  0  0  0  0  0  0
   25.3448   36.2604   17.8541 C   0  0  0  0  0  0  0  0  0  0  0  0
  1  5  1  0  0  0  0
  2 17  1  0  0  0  0
  3  1  1  0  0  0  0
  4  3  1  0  0  0  0
  4 26  1  6  0  0  0
  5 11  2  0  0  0  0
  5  6  1  0  0  0  0
  6  7  2  0  0  0  0
  7 21  1  0  0  0  0
  8 15  1  0  0  0  0
  8 16  2  0  0  0  0
  9 19  1  0  0  0  0
 10 18  1  0  0  0  0
 11 20  1  0  0  0  0
 13 14  1  0  0  0  0
 13 12  2  0  0  0  0
 15 13  1  1  0  0  0
 17 19  2  0  0  0  0
 17 15  1  0  0  0  0
 18  2  1  0  0  0  0
 18  9  2  0  0  0  0
 20 21  2  0  0  0  0
 20  2  1  0  0  0  0
 21  8  1  0  0  0  0
 22  6  1  0  0  0  0
 23 11  1  0  0  0  0
 23 10  1  0  0  0  0
 24 23  1  0  0  0  0
 25  1  1  0  0  0  0
 27  4  1  0  0  0  0
 27 25  1  0  0  0  0
 27 28  1  1  0  0  0
 29 28  1  0  0  0  0
 30 28  1  0  0  0  0
M  END
>  <CHROM.1>
-139.52758863,0.30963827,-133.88606991,176.83495420,63.58922421,26.06627241
40.36011159,23.52995355,1.44340596,-0.28578962,-2.36327806

>  <Name>
lig.pdb

>  <RI>
0

>  <Rbt.Current_Directory>
/home/itssahil/PROJECTS/Mol_Feturizer/New_Systems/rnas/6bfb

>  <Rbt.Executable>
rbdock ($Id: //depot/dev/client3/rdock/2013.1/src/exe/rbdock.cxx#4 $)

>  <Rbt.Library>
libRbt.so (2013.1, Build901 2013/11/27)

>  <Rbt.Parameter_File>
/export/apps/rDock/src/rDock_2013.1_src/data/scripts/dock_solv.prm

>  <Rbt.Receptor>
prm/pocket_docking_5.prm

>  <SCORE>
-34.5356

>  <SCORE.INTER>
-30.289

>  <SCORE.INTER.CONST>
1

>  <SCORE.INTER.POLAR>
0

>  <SCORE.INTER.ROT>
3

>  <SCORE.INTER.SOLV>
10.7226

>  <SCORE.INTER.VDW>
-29.3669

>  <SCORE.INTER.norm>
-1.00963

>  <SCORE.INTRA>
-4.24656

>  <SCORE.INTRA.DIHEDRAL>
-7.55028

>  <SCORE.INTRA.DIHEDRAL.0>
9.41909

>  <SCORE.INTRA.POLAR>
0

>  <SCORE.INTRA.POLAR.0>
0

>  <SCORE.INTRA.REPUL>
0

>  <SCORE.INTRA.REPUL.0>
0

>  <SCORE.INTRA.SOLV>
-0.0990415

>  <SCORE.INTRA.SOLV.lig_0>
-26.2491

>  <SCORE.INTRA.VDW>
-0.421896

>  <SCORE.INTRA.VDW.0>
2.57239

>  <SCORE.INTRA.norm>
-0.141552

>  <SCORE.RESTR>
0

>  <SCORE.RESTR.CAVITY>
0

>  <SCORE.RESTR.norm>
0

>  <SCORE.SYSTEM>
0

>  <SCORE.SYSTEM.CONST>
0

>  <SCORE.SYSTEM.DIHEDRAL>
0

>  <SCORE.SYSTEM.SOLV>
0

>  <SCORE.SYSTEM.norm>
0

>  <SCORE.heavy>
30

>  <SCORE.norm>
-1.15119

>  <RMSD>
1.204

$$$$
lig.pdb
 OpenBabel11021811523D
libRbt.so/2013.1/901 2013/11/27
 30 34  0  0  0  0  0  0  0  0999 V2000
   26.4682   38.5180   21.5471 N   0  0  0  0  0  0  0  0  0  0  0  0
   26.7646   42.1129   24.9377 N   0  0  0  0  0  0  0  0  0  0  0  0
   27.8926   38.1724   21.5826 C   0  0  0  0  0  0  0  0  0  0  0  0
   28.0090   37.2197   20.4022 C   0  0  2  0  0  0  0  0  0  0  0  0
   25.8709   39.2991   22.6243 C   0  0  0  0  0  0  0  0  0  0  0  0
   24.5605   39.0944   23.1027 C   0  0  0  0  0  0  0  0  0  0  0  0
   23.9854   39.8462   24.0966 C   0  0  0  0  0  0  0  0  0  0  0  0
   24.0618   41.7316   25.7317 C   0  0  0  0  0  0  0  0  0  0  0  0
   28.6670   43.2180   25.4685 C   0  0  0  0  0  0  0  0  0  0  0  0
   28.7443   41.1916   23.8533 C   0  0  0  0  0  0  0  0  0  0  0  0
   26.6137   40.3417   23.2467 C   0  0  0  0  0  0  0  0  0  0  0  0
   24.6015   44.9488   27.2919 O   0  0  0  0  0  0  0  0  0  0  0  0
   24.3087   43.7512   27.2896 C   0  0  0  0  0  0  0  0  0  0  0  0
   23.4755   43.2182   28.1749 O   0  0  0  0  0  0  0  0  0  0  0  0
   24.9007   42.8249   26.2880 C   0  0  1  0  0  0  0  0  0  0  0  0
   22.9129   41.5054   26.1266 O   0  0  0  0  0  0  0  0  0  0  0  0
   26.2408   42.9805   25.8933 C   0  0  0  0  0  0  0  0  0  0  0  0
   28.1447   42.2379   24.7251 C   0  0  0  0  0  0  0  0  0  0  0  0
   27.5035   43.9891   26.4649 S   0  0  0  0  0  0  0  0  0  0  0  0
   26.0302   41.1018   24.2855 C   0  0  0  0  0  0  0  0  0  0  0  0
   24.7065   40.8792   24.6952 C   0  0  0  0  0  0  0  0  0  0  0  0
   23.8279   38.0896   22.5819 F   0  0  0  0  0  0  0  0  0  0  0  0
   27.9009   40.6696   22.7930 N   0  0  0  0  0  0  0  0  0  0  0  0
   27.8393   41.4723   21.5902 C   0  0  0  0  0  0  0  0  0  0  0  0
   25.6961   37.5253   20.8082 C   0  0  0  0  0  0  0  0  0  0  0  0
   28.9751   37.6736   19.4533 O   0  0  0  0  0  0  0  0  0  0  0  0
   26.6689   37.2574   19.6722 C   0  0  2  0  0  0  0  0  0  0  0  0
   26.5005   35.9830   18.9482 N   0  0  0  0  0  0  0  0  0  0  0  0
   27.3109   35.8426   17.7247 C   0  0  0  0  0  0  0  0  0  0  0  0
   26.5963   34.8033   19.8217 C   0  0  0  0  0  0  0  0  0  0  0  0
  1  5  1  0  0  0  0
  2 17  1  0  0  0  0
  3  1  1  0  0  0  0
  4  3  1  0  0  0  0
  4 26  1  6  0  0  0
  5 11  2  0  0  0  0
  5  6  1  0  0  0  0
  6  7  2  0  0  0  0
  7 21  1  0  0  0  0
  8 15  1  0  0  0  0
  8 16  2  0  0  0  0
  9 19  1  0  0  0  0
 10 18  1  0  0  0  0
 11 20  1  0  0  0  0
 13 14  1  0  0  0  0
 13 12  2  0  0  0  0
 15 13  1  1  0  0  0
 17 19  2  0  0  0  0
 17 15  1  0  0  0  0
 18  2  1  0  0  0  0
 18  9  2  0  0  0  0
 20 21  2  0  0  0  0
 20  2  1  0  0  0  0
 21  8  1  0  0  0  0
 22  6  1  0  0  0  0
 23 11  1  0  0  0  0
 23 10  1  0  0  0  0
 24 23  1  0  0  0  0
 25  1  1  0  0  0  0
 27  4  1  0  0  0  0
 27 25  1  0  0  0  0
 27 28  1  1  0  0  0
 29 28  1  0  0  0  0
 30 28  1  0  0  0  0
M  END
>  <CHROM.1>
-143.89867880,179.84101384,-143.13726038,69.44838805,-75.02870892,26.22855009
40.34756220,23.45533024,1.39023921,-0.34849847,-2.39501636

>  <Name>
lig.pdb

>  <RI>
0

>  <Rbt.Current_Directory>
/home/itssahil/PROJECTS/Mol_Feturizer/New_Systems/rnas/6bfb

>  <Rbt.Executable>
rbdock ($Id: //depot/dev/client3/rdock/2013.1/src/exe/rbdock.cxx#4 $)

>  <Rbt.Library>
libRbt.so (2013.1, Build901 2013/11/27)

>  <Rbt.Parameter_File>
/export/apps/rDock/src/rDock_2013.1_src/data/scripts/dock_solv.prm

>  <Rbt.Receptor>
prm/pocket_docking_3.prm

>  <SCORE>
-36.2626

>  <SCORE.INTER>
-34.8086

>  <SCORE.INTER.CONST>
1

>  <SCORE.INTER.POLAR>
-0.889688

>  <SCORE.INTER.ROT>
3

>  <SCORE.INTER.SOLV>
10.1708

>  <SCORE.INTER.VDW>
-29.2304

>  <SCORE.INTER.norm>
-1.16029

>  <SCORE.INTRA>
-1.45403

>  <SCORE.INTRA.DIHEDRAL>
-7.16472

>  <SCORE.INTRA.DIHEDRAL.0>
9.41909

>  <SCORE.INTRA.POLAR>
0

>  <SCORE.INTRA.POLAR.0>
0

>  <SCORE.INTRA.REPUL>
0

>  <SCORE.INTRA.REPUL.0>
0

>  <SCORE.INTRA.SOLV>
0.167185

>  <SCORE.INTRA.SOLV.lig_0>
-26.2491

>  <SCORE.INTRA.VDW>
2.04474

>  <SCORE.INTRA.VDW.0>
2.57239

>  <SCORE.INTRA.norm>
-0.0484677

>  <SCORE.RESTR>
0

>  <SCORE.RESTR.CAVITY>
0

>  <SCORE.RESTR.norm>
0

>  <SCORE.SYSTEM>
0

>  <SCORE.SYSTEM.CONST>
0

>  <SCORE.SYSTEM.DIHEDRAL>
0

>  <SCORE.SYSTEM.SOLV>
0

>  <SCORE.SYSTEM.norm>
0

>  <SCORE.heavy>
30

>  <SCORE.norm>
-1.20875

>  <RMSD>
1.212

$$$$
lig.pdb
 OpenBabel11021811523D
libRbt.so/2013.1/901 2013/11/27
 30 34  0  0  0  0  0  0  0  0999 V2000
   26.5027   38.5108   21.5182 N   0  0  0  0  0  0  0  0  0  0  0  0
   26.7943   42.1077   24.9071 N   0  0  0  0  0  0  0  0  0  0  0  0
   27.9257   38.1594   21.5537 C   0  0  0  0  0  0  0  0  0  0  0  0
   28.0402   37.2140   20.3673 C   0  0  2  0  0  0  0  0  0  0  0  0
   25.9067   39.2871   22.5996 C   0  0  0  0  0  0  0  0  0  0  0  0
   24.6012   39.0722   23.0869 C   0  0  0  0  0  0  0  0  0  0  0  0
   24.0271   39.8195   24.0849 C   0  0  0  0  0  0  0  0  0  0  0  0
   24.1001   41.7052   25.7196 C   0  0  0  0  0  0  0  0  0  0  0  0
   28.6917   43.2276   25.4249 C   0  0  0  0  0  0  0  0  0  0  0  0
   28.7737   41.2019   23.8090 C   0  0  0  0  0  0  0  0  0  0  0  0
   26.6457   40.3354   23.2170 C   0  0  0  0  0  0  0  0  0  0  0  0
   24.2218   43.3823   28.4537 O   0  0  0  0  0  0  0  0  0  0  0  0
   24.3419   43.7266   27.2760 C   0  0  0  0  0  0  0  0  0  0  0  0
   23.9421   44.9129   26.8346 O   0  0  0  0  0  0  0  0  0  0  0  0
   24.9342   42.8050   26.2702 C   0  0  1  0  0  0  0  0  0  0  0  0
   22.9557   41.4701   26.1224 O   0  0  0  0  0  0  0  0  0  0  0  0
   26.2704   42.9711   25.8663 C   0  0  0  0  0  0  0  0  0  0  0  0
   28.1719   42.2434   24.6850 C   0  0  0  0  0  0  0  0  0  0  0  0
   27.5290   43.9896   26.4294 S   0  0  0  0  0  0  0  0  0  0  0  0
   26.0634   41.0910   24.2599 C   0  0  0  0  0  0  0  0  0  0  0  0
   24.7443   40.8580   24.6786 C   0  0  0  0  0  0  0  0  0  0  0  0
   23.8730   38.0617   22.5710 F   0  0  0  0  0  0  0  0  0  0  0  0
   27.9271   40.6734   22.7544 N   0  0  0  0  0  0  0  0  0  0  0  0
   27.8509   41.4757   21.5522 C   0  0  0  0  0  0  0  0  0  0  0  0
   25.7279   37.5261   20.7716 C   0  0  0  0  0  0  0  0  0  0  0  0
   29.0096   37.6703   19.4228 O   0  0  0  0  0  0  0  0  0  0  0  0
   26.7015   37.2618   19.6354 C   0  0  2  0  0  0  0  0  0  0  0  0
   26.5292   35.9928   18.9028 N   0  0  0  0  0  0  0  0  0  0  0  0
   27.3627   35.8450   17.6957 C   0  0  0  0  0  0  0  0  0  0  0  0
   26.5893   34.8085   19.7732 C   0  0  0  0  0  0  0  0  0  0  0  0
  1  5  1  0  0  0  0
  2 17  1  0  0  0  0
  3  1  1  0  0  0  0
  4  3  1  0  0  0  0
  4 26  1  6  0  0  0
  5 11  2  0  0  0  0
  5  6  1  0  0  0  0
  6  7  2  0  0  0  0
  7 21  1  0  0  0  0
  8 15  1  0  0  0  0
  8 16  2  0  0  0  0
  9 19  1  0  0  0  0
 10 18  1  0  0  0  0
 11 20  1  0  0  0  0
 13 14  1  0  0  0  0
 13 12  2  0  0  0  0
 15 13  1  1  0  0  0
 17 19  2  0  0  0  0
 17 15  1  0  0  0  0
 18  2  1  0  0  0  0
 18  9  2  0  0  0  0
 20 21  2  0  0  0  0
 20  2  1  0  0  0  0
 21  8  1  0  0  0  0
 22  6  1  0  0  0  0
 23 11  1  0  0  0  0
 23 10  1  0  0  0  0
 24 23  1  0  0  0  0
 25  1  1  0  0  0  0
 27  4  1  0  0  0  0
 27 25  1  0  0  0  0
 27 28  1  1  0  0  0
 29 28  1  0  0  0  0
 30 28  1  0  0  0  0
M  END
>  <CHROM.1>
-142.99017541,175.45422215,78.01454396,68.95779201,-73.75552688,26.26277057
40.35189248,23.41707402,1.39182098,-0.34189993,-2.39677841

>  <Name>
lig.pdb

>  <RI>
0

>  <Rbt.Current_Directory>
/home/itssahil/PROJECTS/Mol_Feturizer/New_Systems/rnas/6bfb

>  <Rbt.Executable>
rbdock ($Id: //depot/dev/client3/rdock/2013.1/src/exe/rbdock.cxx#4 $)

>  <Rbt.Library>
libRbt.so (2013.1, Build901 2013/11/27)

>  <Rbt.Parameter_File>
/export/apps/rDock/src/rDock_2013.1_src/data/scripts/dock_solv.prm

>  <Rbt.Receptor>
prm/blind_docking_60.prm

>  <SCORE>
-40.8343

>  <SCORE.INTER>
-38.6971

>  <SCORE.INTER.CONST>
1

>  <SCORE.INTER.POLAR>
-1.75477

>  <SCORE.INTER.ROT>
3

>  <SCORE.INTER.SOLV>
10.403

>  <SCORE.INTER.VDW>
-29.0165

>  <SCORE.INTER.norm>
-1.2899

>  <SCORE.INTRA>
-2.13721

>  <SCORE.INTRA.DIHEDRAL>
-7.06968

>  <SCORE.INTRA.DIHEDRAL.0>
9.41909

>  <SCORE.INTRA.POLAR>
0

>  <SCORE.INTRA.POLAR.0>
0

>  <SCORE.INTRA.REPUL>
0

>  <SCORE.INTRA.REPUL.0>
0

>  <SCORE.INTRA.SOLV>
0.0338554

>  <SCORE.INTRA.SOLV.lig_0>
-26.2491

>  <SCORE.INTRA.VDW>
1.3807

>  <SCORE.INTRA.VDW.0>
2.57239

>  <SCORE.INTRA.norm>
-0.0712404

>  <SCORE.RESTR>
0

>  <SCORE.RESTR.CAVITY>
0

>  <SCORE.RESTR.norm>
0

>  <SCORE.SYSTEM>
0

>  <SCORE.SYSTEM.CONST>
0

>  <SCORE.SYSTEM.DIHEDRAL>
0

>  <SCORE.SYSTEM.SOLV>
0

>  <SCORE.SYSTEM.norm>
0

>  <SCORE.heavy>
30

>  <SCORE.norm>
-1.36114

>  <RMSD>
1.230

$$$$
lig.pdb
 OpenBabel11021811523D
libRbt.so/2013.1/901 2013/11/27
 30 34  0  0  0  0  0  0  0  0999 V2000
   26.4146   38.5258   21.6437 N   0  0  0  0  0  0  0  0  0  0  0  0
   26.7416   42.0760   25.0783 N   0  0  0  0  0  0  0  0  0  0  0  0
   27.8019   38.0637   21.7502 C   0  0  0  0  0  0  0  0  0  0  0  0
   27.9153   37.1453   20.5427 C   0  0  2  0  0  0  0  0  0  0  0  0
   25.8155   39.3163   22.7132 C   0  0  0  0  0  0  0  0  0  0  0  0
   24.4869   39.1514   23.1550 C   0  0  0  0  0  0  0  0  0  0  0  0
   23.9112   39.9126   24.1415 C   0  0  0  0  0  0  0  0  0  0  0  0
   24.0076   41.7786   25.7977 C   0  0  0  0  0  0  0  0  0  0  0  0
   28.6654   43.1112   25.6700 C   0  0  0  0  0  0  0  0  0  0  0  0
   28.7173   41.0989   24.0363 C   0  0  0  0  0  0  0  0  0  0  0  0
   26.5762   40.3272   23.3655 C   0  0  0  0  0  0  0  0  0  0  0  0
   24.5451   44.9774   27.3489 O   0  0  0  0  0  0  0  0  0  0  0  0
   24.2808   43.7737   27.3825 C   0  0  0  0  0  0  0  0  0  0  0  0
   23.4843   43.2429   28.3023 O   0  0  0  0  0  0  0  0  0  0  0  0
   24.8676   42.8376   26.3870 C   0  0  1  0  0  0  0  0  0  0  0  0
   22.8418   41.5876   26.1601 O   0  0  0  0  0  0  0  0  0  0  0  0
   26.2222   42.9516   26.0290 C   0  0  0  0  0  0  0  0  0  0  0  0
   28.1303   42.1564   24.9031 C   0  0  0  0  0  0  0  0  0  0  0  0
   27.5024   43.9116   26.6438 S   0  0  0  0  0  0  0  0  0  0  0  0
   25.9913   41.0966   24.3967 C   0  0  0  0  0  0  0  0  0  0  0  0
   24.6505   40.9149   24.7694 C   0  0  0  0  0  0  0  0  0  0  0  0
   23.7351   38.1769   22.6049 F   0  0  0  0  0  0  0  0  0  0  0  0
   27.8852   40.6158   22.9489 N   0  0  0  0  0  0  0  0  0  0  0  0
   27.8822   41.4317   21.7534 C   0  0  0  0  0  0  0  0  0  0  0  0
   25.6133   37.6254   20.8224 C   0  0  0  0  0  0  0  0  0  0  0  0
   28.9717   37.5504   19.6711 O   0  0  0  0  0  0  0  0  0  0  0  0
   26.6305   37.3174   19.7365 C   0  0  2  0  0  0  0  0  0  0  0  0
   26.4064   36.0863   18.9549 N   0  0  0  0  0  0  0  0  0  0  0  0
   26.1711   34.8688   19.7522 C   0  0  0  0  0  0  0  0  0  0  0  0
   25.4140   36.2536   17.8822 C   0  0  0  0  0  0  0  0  0  0  0  0
  1  5  1  0  0  0  0
  2 17  1  0  0  0  0
  3  1  1  0  0  0  0
  4  3  1  0  0  0  0
  4 26  1  6  0  0  0
  5 11  2  0  0  0  0
  5  6  1  0  0  0  0
  6  7  2  0  0  0  0
  7 21  1  0  0  0  0
  8 15  1  0  0  0  0
  8 16  2  0  0  0  0
  9 19  1  0  0  0  0
 10 18  1  0  0  0  0
 11 20  1  0  0  0  0
 13 14  1  0  0  0  0
 13 12  2  0  0  0  0
 15 13  1  1  0  0  0
 17 19  2  0  0  0  0
 17 15  1  0  0  0  0
 18  2  1  0  0  0  0
 18  9  2  0  0  0  0
 20 21  2  0  0  0  0
 20  2  1  0  0  0  0
 21  8  1  0  0  0  0
 22  6  1  0  0  0  0
 23 11  1  0  0  0  0
 23 10  1  0  0  0  0
 24 23  1  0  0  0  0
 25  1  1  0  0  0  0
 27  4  1  0  0  0  0
 27 25  1  0  0  0  0
 27 28  1  1  0  0  0
 29 28  1  0  0  0  0
 30 28  1  0  0  0  0
M  END
>  <CHROM.1>
-140.21068119,179.13494368,-138.27547690,177.07465897,63.86936291,26.10869800
40.35713223,23.55918105,1.44096722,-0.28056434,-2.36252907

>  <Name>
lig.pdb

>  <RI>
0

>  <Rbt.Current_Directory>
/home/itssahil/PROJECTS/Mol_Feturizer/New_Systems/rnas/6bfb

>  <Rbt.Executable>
rbdock ($Id: //depot/dev/client3/rdock/2013.1/src/exe/rbdock.cxx#4 $)

>  <Rbt.Library>
libRbt.so (2013.1, Build901 2013/11/27)

>  <Rbt.Parameter_File>
/export/apps/rDock/src/rDock_2013.1_src/data/scripts/dock_solv.prm

>  <Rbt.Receptor>
prm/pocket_docking_3.prm

>  <SCORE>
-33.896

>  <SCORE.INTER>
-30.3601

>  <SCORE.INTER.CONST>
1

>  <SCORE.INTER.POLAR>
0

>  <SCORE.INTER.ROT>
3

>  <SCORE.INTER.SOLV>
10.9665

>  <SCORE.INTER.VDW>
-29.4956

>  <SCORE.INTER.norm>
-1.012

>  <SCORE.INTRA>
-3.53597

>  <SCORE.INTRA.DIHEDRAL>
-7.53601

>  <SCORE.INTRA.DIHEDRAL.0>
9.41909

>  <SCORE.INTRA.POLAR>
0

>  <SCORE.INTRA.POLAR.0>
0

>  <SCORE.INTRA.REPUL>
0

>  <SCORE.INTRA.REPUL.0>
0

>  <SCORE.INTRA.SOLV>
-0.0759378

>  <SCORE.INTRA.SOLV.lig_0>
-26.2491

>  <SCORE.INTRA.VDW>
0.27001

>  <SCORE.INTRA.VDW.0>
2.57239

>  <SCORE.INTRA.norm>
-0.117866

>  <SCORE.RESTR>
0

>  <SCORE.RESTR.CAVITY>
0

>  <SCORE.RESTR.norm>
0

>  <SCORE.SYSTEM>
0

>  <SCORE.SYSTEM.CONST>
0

>  <SCORE.SYSTEM.DIHEDRAL>
0

>  <SCORE.SYSTEM.SOLV>
0

>  <SCORE.SYSTEM.norm>
0

>  <SCORE.heavy>
30

>  <SCORE.norm>
-1.12987

>  <RMSD>
1.234

$$$$
lig.pdb
 OpenBabel11021811523D
libRbt.so/2013.1/901 2013/11/27
 30 34  0  0  0  0  0  0  0  0999 V2000
   26.4759   38.5192   21.5352 N   0  0  0  0  0  0  0  0  0  0  0  0
   26.7594   42.1279   24.9122 N   0  0  0  0  0  0  0  0  0  0  0  0
   27.8973   38.1618   21.5756 C   0  0  0  0  0  0  0  0  0  0  0  0
   28.0124   37.2179   20.3882 C   0  0  2  0  0  0  0  0  0  0  0  0
   25.8790   39.2963   22.6156 C   0  0  0  0  0  0  0  0  0  0  0  0
   24.5756   39.0772   23.1065 C   0  0  0  0  0  0  0  0  0  0  0  0
   24.0005   39.8251   24.1035 C   0  0  0  0  0  0  0  0  0  0  0  0
   24.0689   41.7162   25.7322 C   0  0  0  0  0  0  0  0  0  0  0  0
   28.6531   43.2577   25.4222 C   0  0  0  0  0  0  0  0  0  0  0  0
   28.7403   41.2274   23.8124 C   0  0  0  0  0  0  0  0  0  0  0  0
   26.6147   40.3498   23.2280 C   0  0  0  0  0  0  0  0  0  0  0  0
   24.1618   43.3913   28.4544 O   0  0  0  0  0  0  0  0  0  0  0  0
   24.3055   43.7435   27.2817 C   0  0  0  0  0  0  0  0  0  0  0  0
   23.9305   44.9394   26.8442 O   0  0  0  0  0  0  0  0  0  0  0  0
   24.8994   42.8214   26.2775 C   0  0  1  0  0  0  0  0  0  0  0  0
   22.9265   41.4774   26.1383 O   0  0  0  0  0  0  0  0  0  0  0  0
   26.2340   42.9920   25.8700 C   0  0  0  0  0  0  0  0  0  0  0  0
   28.1359   42.2690   24.6866 C   0  0  0  0  0  0  0  0  0  0  0  0
   27.4894   44.0177   26.4270 S   0  0  0  0  0  0  0  0  0  0  0  0
   26.0315   41.1060   24.2699 C   0  0  0  0  0  0  0  0  0  0  0  0
   24.7145   40.8686   24.6923 C   0  0  0  0  0  0  0  0  0  0  0  0
   23.8506   38.0619   22.5955 F   0  0  0  0  0  0  0  0  0  0  0  0
   27.8937   40.6919   22.7615 N   0  0  0  0  0  0  0  0  0  0  0  0
   27.8112   41.4901   21.5569 C   0  0  0  0  0  0  0  0  0  0  0  0
   25.6999   37.5389   20.7841 C   0  0  0  0  0  0  0  0  0  0  0  0
   28.9874   37.6716   19.4482 O   0  0  0  0  0  0  0  0  0  0  0  0
   26.6767   37.2724   19.6512 C   0  0  2  0  0  0  0  0  0  0  0  0
   26.5021   36.0053   18.9159 N   0  0  0  0  0  0  0  0  0  0  0  0
   27.3187   35.8679   17.6962 C   0  0  0  0  0  0  0  0  0  0  0  0
   26.5825   34.8179   19.7803 C   0  0  0  0  0  0  0  0  0  0  0  0
  1  5  1  0  0  0  0
  2 17  1  0  0  0  0
  3  1  1  0  0  0  0
  4  3  1  0  0  0  0
  4 26  1  6  0  0  0
  5 11  2  0  0  0  0
  5  6  1  0  0  0  0
  6  7  2  0  0  0  0
  7 21  1  0  0  0  0
  8 15  1  0  0  0  0
  8 16  2  0  0  0  0
  9 19  1  0  0  0  0
 10 18  1  0  0  0  0
 11 20  1  0  0  0  0
 13 14  1  0  0  0  0
 13 12  2  0  0  0  0
 15 13  1  1  0  0  0
 17 19  2  0  0  0  0
 17 15  1  0  0  0  0
 18  2  1  0  0  0  0
 18  9  2  0  0  0  0
 20 21  2  0  0  0  0
 20  2  1  0  0  0  0
 21  8  1  0  0  0  0
 22  6  1  0  0  0  0
 23 11  1  0  0  0  0
 23 10  1  0  0  0  0
 24 23  1  0  0  0  0
 25  1  1  0  0  0  0
 27  4  1  0  0  0  0
 27 25  1  0  0  0  0
 27 28  1  1  0  0  0
 29 28  1  0  0  0  0
 30 28  1  0  0  0  0
M  END
>  <CHROM.1>
-142.32856525,176.07568384,76.36050631,68.65511309,-74.98779575,26.23175010
40.36610699,23.42738942,1.39053245,-0.34623612,-2.39951564

>  <Name>
lig.pdb

>  <RI>
0

>  <Rbt.Current_Directory>
/home/itssahil/PROJECTS/Mol_Feturizer/New_Systems/rnas/6bfb

>  <Rbt.Executable>
rbdock ($Id: //depot/dev/client3/rdock/2013.1/src/exe/rbdock.cxx#4 $)

>  <Rbt.Library>
libRbt.so (2013.1, Build901 2013/11/27)

>  <Rbt.Parameter_File>
/export/apps/rDock/src/rDock_2013.1_src/data/scripts/dock_solv.prm

>  <Rbt.Receptor>
prm/pocket_docking_3.prm

>  <SCORE>
-40.7791

>  <SCORE.INTER>
-38.5388

>  <SCORE.INTER.CONST>
1

>  <SCORE.INTER.POLAR>
-1.73991

>  <SCORE.INTER.ROT>
3

>  <SCORE.INTER.SOLV>
10.3431

>  <SCORE.INTER.VDW>
-28.9406

>  <SCORE.INTER.norm>
-1.28463

>  <SCORE.INTRA>
-2.2403

>  <SCORE.INTRA.DIHEDRAL>
-7.10451

>  <SCORE.INTRA.DIHEDRAL.0>
9.41909

>  <SCORE.INTRA.POLAR>
0

>  <SCORE.INTRA.POLAR.0>
0

>  <SCORE.INTRA.REPUL>
0

>  <SCORE.INTRA.REPUL.0>
0

>  <SCORE.INTRA.SOLV>
0.031434

>  <SCORE.INTRA.SOLV.lig_0>
-26.2491

>  <SCORE.INTRA.VDW>
1.29624

>  <SCORE.INTRA.VDW.0>
2.57239

>  <SCORE.INTRA.norm>
-0.0746766

>  <SCORE.RESTR>
0

>  <SCORE.RESTR.CAVITY>
0

>  <SCORE.RESTR.norm>
0

>  <SCORE.SYSTEM>
0

>  <SCORE.SYSTEM.CONST>
0

>  <SCORE.SYSTEM.DIHEDRAL>
0

>  <SCORE.SYSTEM.SOLV>
0

>  <SCORE.SYSTEM.norm>
0

>  <SCORE.heavy>
30

>  <SCORE.norm>
-1.3593

>  <RMSD>
1.236

$$$$
lig.pdb
 OpenBabel11021811523D
libRbt.so/2013.1/901 2013/11/27
 30 34  0  0  0  0  0  0  0  0999 V2000
   26.4956   38.5217   21.5418 N   0  0  0  0  0  0  0  0  0  0  0  0
   26.7823   42.1139   24.9361 N   0  0  0  0  0  0  0  0  0  0  0  0
   27.9209   38.1797   21.5761 C   0  0  0  0  0  0  0  0  0  0  0  0
   28.0392   37.2298   20.3938 C   0  0  2  0  0  0  0  0  0  0  0  0
   25.8967   39.2991   22.6209 C   0  0  0  0  0  0  0  0  0  0  0  0
   24.5879   39.0885   23.1010 C   0  0  0  0  0  0  0  0  0  0  0  0
   24.0112   39.8368   24.0967 C   0  0  0  0  0  0  0  0  0  0  0  0
   24.0824   41.7205   25.7339 C   0  0  0  0  0  0  0  0  0  0  0  0
   28.6810   43.2263   25.4653 C   0  0  0  0  0  0  0  0  0  0  0  0
   28.7642   41.2021   23.8476 C   0  0  0  0  0  0  0  0  0  0  0  0
   26.6362   40.3440   23.2433 C   0  0  0  0  0  0  0  0  0  0  0  0
   24.1966   43.3946   28.4706 O   0  0  0  0  0  0  0  0  0  0  0  0
   24.3234   43.7393   27.2937 C   0  0  0  0  0  0  0  0  0  0  0  0
   23.9293   44.9272   26.8513 O   0  0  0  0  0  0  0  0  0  0  0  0
   24.9176   42.8167   26.2901 C   0  0  1  0  0  0  0  0  0  0  0  0
   22.9351   41.4892   26.1303 O   0  0  0  0  0  0  0  0  0  0  0  0
   26.2565   42.9782   25.8935 C   0  0  0  0  0  0  0  0  0  0  0  0
   28.1616   42.2449   24.7216 C   0  0  0  0  0  0  0  0  0  0  0  0
   27.5158   43.9915   26.4644 S   0  0  0  0  0  0  0  0  0  0  0  0
   26.0511   41.1006   24.2839 C   0  0  0  0  0  0  0  0  0  0  0  0
   24.7290   40.8720   24.6954 C   0  0  0  0  0  0  0  0  0  0  0  0
   23.8587   38.0812   22.5802 F   0  0  0  0  0  0  0  0  0  0  0  0
   27.9213   40.6778   22.7880 N   0  0  0  0  0  0  0  0  0  0  0  0
   27.8545   41.4817   21.5862 C   0  0  0  0  0  0  0  0  0  0  0  0
   25.7258   37.5286   20.8013 C   0  0  0  0  0  0  0  0  0  0  0  0
   29.0038   37.6880   19.4453 O   0  0  0  0  0  0  0  0  0  0  0  0
   26.6988   37.2655   19.6643 C   0  0  2  0  0  0  0  0  0  0  0  0
   26.5333   35.9921   18.9378 N   0  0  0  0  0  0  0  0  0  0  0  0
   27.3612   35.8466   17.7267 C   0  0  0  0  0  0  0  0  0  0  0  0
   26.6085   34.8119   19.8126 C   0  0  0  0  0  0  0  0  0  0  0  0
  1  5  1  0  0  0  0
  2 17  1  0  0  0  0
  3  1  1  0  0  0  0
  4  3  1  0  0  0  0
  4 26  1  6  0  0  0
  5 11  2  0  0  0  0
  5  6  1  0  0  0  0
  6  7  2  0  0  0  0
  7 21  1  0  0  0  0
  8 15  1  0  0  0  0
  8 16  2  0  0  0  0
  9 19  1  0  0  0  0
 10 18  1  0  0  0  0
 11 20  1  0  0  0  0
 13 14  1  0  0  0  0
 13 12  2  0  0  0  0
 15 13  1  1  0  0  0
 17 19  2  0  0  0  0
 17 15  1  0  0  0  0
 18  2  1  0  0  0  0
 18  9  2  0  0  0  0
 20 21  2  0  0  0  0
 20  2  1  0  0  0  0
 21  8  1  0  0  0  0
 22  6  1  0  0  0  0
 23 11  1  0  0  0  0
 23 10  1  0  0  0  0
 24 23  1  0  0  0  0
 25  1  1  0  0  0  0
 27  4  1  0  0  0  0
 27 25  1  0  0  0  0
 27 28  1  1  0  0  0
 29 28  1  0  0  0  0
 30 28  1  0  0  0  0
M  END
>  <CHROM.1>
-143.77544914,175.79486400,78.06364496,67.44574214,-74.00039444,26.25352502
40.36127350,23.44233529,1.39024231,-0.33661828,-2.39691688

>  <Name>
lig.pdb

>  <RI>
0

>  <Rbt.Current_Directory>
/home/itssahil/PROJECTS/Mol_Feturizer/New_Systems/rnas/6bfb

>  <Rbt.Executable>
rbdock ($Id: //depot/dev/client3/rdock/2013.1/src/exe/rbdock.cxx#4 $)

>  <Rbt.Library>
libRbt.so (2013.1, Build901 2013/11/27)

>  <Rbt.Parameter_File>
/export/apps/rDock/src/rDock_2013.1_src/data/scripts/dock_solv.prm

>  <Rbt.Receptor>
prm/pocket_docking_5.prm

>  <SCORE>
-40.7595

>  <SCORE.INTER>
-38.6604

>  <SCORE.INTER.CONST>
1

>  <SCORE.INTER.POLAR>
-1.74606

>  <SCORE.INTER.ROT>
3

>  <SCORE.INTER.SOLV>
10.4238

>  <SCORE.INTER.VDW>
-29.028

>  <SCORE.INTER.norm>
-1.28868

>  <SCORE.INTRA>
-2.09904

>  <SCORE.INTRA.DIHEDRAL>
-7.20308

>  <SCORE.INTRA.DIHEDRAL.0>
9.41909

>  <SCORE.INTRA.POLAR>
0

>  <SCORE.INTRA.POLAR.0>
0

>  <SCORE.INTRA.REPUL>
0

>  <SCORE.INTRA.REPUL.0>
0

>  <SCORE.INTRA.SOLV>
0.0375952

>  <SCORE.INTRA.SOLV.lig_0>
-26.2491

>  <SCORE.INTRA.VDW>
1.4837

>  <SCORE.INTRA.VDW.0>
2.57239

>  <SCORE.INTRA.norm>
-0.0699681

>  <SCORE.RESTR>
0

>  <SCORE.RESTR.CAVITY>
0

>  <SCORE.RESTR.norm>
0

>  <SCORE.SYSTEM>
0

>  <SCORE.SYSTEM.CONST>
0

>  <SCORE.SYSTEM.DIHEDRAL>
0

>  <SCORE.SYSTEM.SOLV>
0

>  <SCORE.SYSTEM.norm>
0

>  <SCORE.heavy>
30

>  <SCORE.norm>
-1.35865

>  <RMSD>
1.252

$$$$
lig.pdb
 OpenBabel11021811523D
libRbt.so/2013.1/901 2013/11/27
 30 34  0  0  0  0  0  0  0  0999 V2000
   25.0257   38.6140   20.8307 N   0  0  0  0  0  0  0  0  0  0  0  0
   26.8869   42.0111   23.9134 N   0  0  0  0  0  0  0  0  0  0  0  0
   26.3083   38.2253   20.2361 C   0  0  0  0  0  0  0  0  0  0  0  0
   25.8582   37.3557   19.0719 C   0  0  2  0  0  0  0  0  0  0  0  0
   24.9876   39.3339   22.0987 C   0  0  0  0  0  0  0  0  0  0  0  0
   24.0194   39.1046   23.0975 C   0  0  0  0  0  0  0  0  0  0  0  0
   23.9636   39.7999   24.2796 C   0  0  0  0  0  0  0  0  0  0  0  0
   24.8056   41.5898   25.8032 C   0  0  0  0  0  0  0  0  0  0  0  0
   28.8563   43.0816   23.6002 C   0  0  0  0  0  0  0  0  0  0  0  0
   28.1572   41.1495   22.0192 C   0  0  0  0  0  0  0  0  0  0  0  0
   25.9565   40.3385   22.3784 C   0  0  0  0  0  0  0  0  0  0  0  0
   26.4634   43.2750   28.1788 O   0  0  0  0  0  0  0  0  0  0  0  0
   25.7698   43.5178   27.1889 C   0  0  0  0  0  0  0  0  0  0  0  0
   24.9254   44.5410   27.1422 O   0  0  0  0  0  0  0  0  0  0  0  0
   25.8326   42.6486   25.9838 C   0  0  1  0  0  0  0  0  0  0  0  0
   23.9446   41.3435   26.6547 O   0  0  0  0  0  0  0  0  0  0  0  0
   26.8633   42.8242   25.0441 C   0  0  0  0  0  0  0  0  0  0  0  0
   28.0332   42.1458   23.1175 C   0  0  0  0  0  0  0  0  0  0  0  0
   28.2747   43.7970   25.0463 S   0  0  0  0  0  0  0  0  0  0  0  0
   25.9133   41.0397   23.6048 C   0  0  0  0  0  0  0  0  0  0  0  0
   24.9022   40.7963   24.5472 C   0  0  0  0  0  0  0  0  0  0  0  0
   23.1057   38.1319   22.9060 F   0  0  0  0  0  0  0  0  0  0  0  0
   26.9182   40.6895   21.4181 N   0  0  0  0  0  0  0  0  0  0  0  0
   26.3519   41.5590   20.4091 C   0  0  0  0  0  0  0  0  0  0  0  0
   23.9581   37.6992   20.4426 C   0  0  0  0  0  0  0  0  0  0  0  0
   26.3539   37.8472   17.8258 O   0  0  0  0  0  0  0  0  0  0  0  0
   24.3395   37.4841   18.9877 C   0  0  2  0  0  0  0  0  0  0  0  0
   23.8077   36.2697   18.3404 N   0  0  0  0  0  0  0  0  0  0  0  0
   24.1041   35.0045   19.0366 C   0  0  0  0  0  0  0  0  0  0  0  0
   22.3892   36.3852   17.9685 C   0  0  0  0  0  0  0  0  0  0  0  0
  1  5  1  0  0  0  0
  2 17  1  0  0  0  0
  3  1  1  0  0  0  0
  4  3  1  0  0  0  0
  4 26  1  6  0  0  0
  5 11  2  0  0  0  0
  5  6  1  0  0  0  0
  6  7  2  0  0  0  0
  7 21  1  0  0  0  0
  8 15  1  0  0  0  0
  8 16  2  0  0  0  0
  9 19  1  0  0  0  0
 10 18  1  0  0  0  0
 11 20  1  0  0  0  0
 13 14  1  0  0  0  0
 13 12  2  0  0  0  0
 15 13  1  1  0  0  0
 17 19  2  0  0  0  0
 17 15  1  0  0  0  0
 18  2  1  0  0  0  0
 18  9  2  0  0  0  0
 20 21  2  0  0  0  0
 20  2  1  0  0  0  0
 21  8  1  0  0  0  0
 22  6  1  0  0  0  0
 23 11  1  0  0  0  0
 23 10  1  0  0  0  0
 24 23  1  0  0  0  0
 25  1  1  0  0  0  0
 27  4  1  0  0  0  0
 27 25  1  0  0  0  0
 27 28  1  1  0  0  0
 29 28  1  0  0  0  0
 30 28  1  0  0  0  0
M  END
>  <CHROM.1>
-141.84312909,167.96546817,97.46047024,178.01064547,59.78559725,25.63306253
40.35202738,22.76235801,1.83365623,-0.58019797,-2.14999982

>  <Name>
lig.pdb

>  <RI>
0

>  <Rbt.Current_Directory>
/home/itssahil/PROJECTS/Mol_Feturizer/New_Systems/rnas/6bfb

>  <Rbt.Executable>
rbdock ($Id: //depot/dev/client3/rdock/2013.1/src/exe/rbdock.cxx#4 $)

>  <Rbt.Library>
libRbt.so (2013.1, Build901 2013/11/27)

>  <Rbt.Parameter_File>
/export/apps/rDock/src/rDock_2013.1_src/data/scripts/dock_solv.prm

>  <Rbt.Receptor>
prm/pocket_docking_7.prm

>  <SCORE>
-37.4984

>  <SCORE.INTER>
-34.3018

>  <SCORE.INTER.CONST>
1

>  <SCORE.INTER.POLAR>
-0.584595

>  <SCORE.INTER.ROT>
3

>  <SCORE.INTER.SOLV>
13.0642

>  <SCORE.INTER.VDW>
-30.8739

>  <SCORE.INTER.norm>
-1.14339

>  <SCORE.INTRA>
-3.19658

>  <SCORE.INTRA.DIHEDRAL>
-6.57959

>  <SCORE.INTRA.DIHEDRAL.0>
9.41909

>  <SCORE.INTRA.POLAR>
0

>  <SCORE.INTRA.POLAR.0>
0

>  <SCORE.INTRA.REPUL>
0

>  <SCORE.INTRA.REPUL.0>
0

>  <SCORE.INTRA.SOLV>
-0.161127

>  <SCORE.INTRA.SOLV.lig_0>
-26.2491

>  <SCORE.INTRA.VDW>
0.17378

>  <SCORE.INTRA.VDW.0>
2.57239

>  <SCORE.INTRA.norm>
-0.106553

>  <SCORE.RESTR>
0

>  <SCORE.RESTR.CAVITY>
0

>  <SCORE.RESTR.norm>
0

>  <SCORE.SYSTEM>
0

>  <SCORE.SYSTEM.CONST>
0

>  <SCORE.SYSTEM.DIHEDRAL>
0

>  <SCORE.SYSTEM.SOLV>
0

>  <SCORE.SYSTEM.norm>
0

>  <SCORE.heavy>
30

>  <SCORE.norm>
-1.24995

>  <RMSD>
1.259

$$$$
lig.pdb
 OpenBabel11021811523D
libRbt.so/2013.1/901 2013/11/27
 30 34  0  0  0  0  0  0  0  0999 V2000
   25.1133   38.3791   20.7867 N   0  0  0  0  0  0  0  0  0  0  0  0
   26.9239   41.9022   23.7560 N   0  0  0  0  0  0  0  0  0  0  0  0
   26.3798   37.7914   20.3395 C   0  0  0  0  0  0  0  0  0  0  0  0
   25.9274   36.9423   19.1611 C   0  0  2  0  0  0  0  0  0  0  0  0
   25.0535   39.1521   22.0222 C   0  0  0  0  0  0  0  0  0  0  0  0
   24.0670   38.9660   23.0121 C   0  0  0  0  0  0  0  0  0  0  0  0
   23.9910   39.7108   24.1625 C   0  0  0  0  0  0  0  0  0  0  0  0
   24.8082   41.5629   25.6240 C   0  0  0  0  0  0  0  0  0  0  0  0
   28.9003   42.9568   23.4335 C   0  0  0  0  0  0  0  0  0  0  0  0
   28.2268   40.9602   21.9233 C   0  0  0  0  0  0  0  0  0  0  0  0
   26.0187   40.1669   22.2766 C   0  0  0  0  0  0  0  0  0  0  0  0
   24.7964   44.3175   27.0732 O   0  0  0  0  0  0  0  0  0  0  0  0
   25.7502   43.5470   26.9441 C   0  0  0  0  0  0  0  0  0  0  0  0
   26.7538   43.5014   27.8117 O   0  0  0  0  0  0  0  0  0  0  0  0
   25.8334   42.6276   25.7782 C   0  0  1  0  0  0  0  0  0  0  0  0
   23.9316   41.3535   26.4695 O   0  0  0  0  0  0  0  0  0  0  0  0
   26.8812   42.7624   24.8508 C   0  0  0  0  0  0  0  0  0  0  0  0
   28.0846   42.0021   22.9761 C   0  0  0  0  0  0  0  0  0  0  0  0
   28.2938   43.7333   24.8373 S   0  0  0  0  0  0  0  0  0  0  0  0
   25.9545   40.9194   23.4713 C   0  0  0  0  0  0  0  0  0  0  0  0
   24.9262   40.7169   24.4046 C   0  0  0  0  0  0  0  0  0  0  0  0
   23.1554   37.9869   22.8454 F   0  0  0  0  0  0  0  0  0  0  0  0
   26.9981   40.4762   21.3198 N   0  0  0  0  0  0  0  0  0  0  0  0
   26.4514   41.3026   20.2649 C   0  0  0  0  0  0  0  0  0  0  0  0
   23.9699   37.6046   20.3175 C   0  0  0  0  0  0  0  0  0  0  0  0
   26.6077   37.3057   17.9590 O   0  0  0  0  0  0  0  0  0  0  0  0
   24.4579   37.2755   18.9167 C   0  0  2  0  0  0  0  0  0  0  0  0
   23.8253   36.1191   18.2540 N   0  0  0  0  0  0  0  0  0  0  0  0
   23.9127   34.8458   18.9918 C   0  0  0  0  0  0  0  0  0  0  0  0
   22.4616   36.3984   17.7785 C   0  0  0  0  0  0  0  0  0  0  0  0
  1  5  1  0  0  0  0
  2 17  1  0  0  0  0
  3  1  1  0  0  0  0
  4  3  1  0  0  0  0
  4 26  1  6  0  0  0
  5 11  2  0  0  0  0
  5  6  1  0  0  0  0
  6  7  2  0  0  0  0
  7 21  1  0  0  0  0
  8 15  1  0  0  0  0
  8 16  2  0  0  0  0
  9 19  1  0  0  0  0
 10 18  1  0  0  0  0
 11 20  1  0  0  0  0
 13 14  1  0  0  0  0
 13 12  2  0  0  0  0
 15 13  1  1  0  0  0
 17 19  2  0  0  0  0
 17 15  1  0  0  0  0
 18  2  1  0  0  0  0
 18  9  2  0  0  0  0
 20 21  2  0  0  0  0
 20  2  1  0  0  0  0
 21  8  1  0  0  0  0
 22  6  1  0  0  0  0
 23 11  1  0  0  0  0
 23 10  1  0  0  0  0
 24 23  1  0  0  0  0
 25  1  1  0  0  0  0
 27  4  1  0  0  0  0
 27 25  1  0  0  0  0
 27 28  1  1  0  0  0
 29 28  1  0  0  0  0
 30 28  1  0  0  0  0
M  END
>  <CHROM.1>
-132.52857597,2.01010734,-64.47236969,63.53052620,57.64605761,25.68713201
40.20930881,22.65441435,1.82573994,-0.54302631,-2.18856721

>  <Name>
lig.pdb

>  <RI>
0

>  <Rbt.Current_Directory>
/home/itssahil/PROJECTS/Mol_Feturizer/New_Systems/rnas/6bfb

>  <Rbt.Executable>
rbdock ($Id: //depot/dev/client3/rdock/2013.1/src/exe/rbdock.cxx#4 $)

>  <Rbt.Library>
libRbt.so (2013.1, Build901 2013/11/27)

>  <Rbt.Parameter_File>
/export/apps/rDock/src/rDock_2013.1_src/data/scripts/dock_solv.prm

>  <Rbt.Receptor>
prm/pocket_docking_8.prm

>  <SCORE>
-36.4745

>  <SCORE.INTER>
-31.6676

>  <SCORE.INTER.CONST>
1

>  <SCORE.INTER.POLAR>
0

>  <SCORE.INTER.ROT>
3

>  <SCORE.INTER.SOLV>
11.8281

>  <SCORE.INTER.VDW>
-30.6544

>  <SCORE.INTER.norm>
-1.05559

>  <SCORE.INTRA>
-4.8069

>  <SCORE.INTRA.DIHEDRAL>
-7.64452

>  <SCORE.INTRA.DIHEDRAL.0>
9.41909

>  <SCORE.INTRA.POLAR>
0

>  <SCORE.INTRA.POLAR.0>
0

>  <SCORE.INTRA.REPUL>
0

>  <SCORE.INTRA.REPUL.0>
0

>  <SCORE.INTRA.SOLV>
-0.21882

>  <SCORE.INTRA.SOLV.lig_0>
-26.2491

>  <SCORE.INTRA.VDW>
-0.875229

>  <SCORE.INTRA.VDW.0>
2.57239

>  <SCORE.INTRA.norm>
-0.16023

>  <SCORE.RESTR>
0

>  <SCORE.RESTR.CAVITY>
0

>  <SCORE.RESTR.norm>
0

>  <SCORE.SYSTEM>
0

>  <SCORE.SYSTEM.CONST>
0

>  <SCORE.SYSTEM.DIHEDRAL>
0

>  <SCORE.SYSTEM.SOLV>
0

>  <SCORE.SYSTEM.norm>
0

>  <SCORE.heavy>
30

>  <SCORE.norm>
-1.21582

>  <RMSD>
1.312

$$$$
lig.pdb
 OpenBabel11021811523D
libRbt.so/2013.1/901 2013/11/27
 30 34  0  0  0  0  0  0  0  0999 V2000
   25.1175   38.4022   20.8301 N   0  0  0  0  0  0  0  0  0  0  0  0
   26.9330   41.9317   23.7887 N   0  0  0  0  0  0  0  0  0  0  0  0
   26.3771   37.7788   20.4126 C   0  0  0  0  0  0  0  0  0  0  0  0
   25.9266   36.9326   19.2314 C   0  0  2  0  0  0  0  0  0  0  0  0
   25.0531   39.1858   22.0586 C   0  0  0  0  0  0  0  0  0  0  0  0
   24.0550   39.0174   23.0401 C   0  0  0  0  0  0  0  0  0  0  0  0
   23.9750   39.7723   24.1837 C   0  0  0  0  0  0  0  0  0  0  0  0
   24.7957   41.6282   25.6383 C   0  0  0  0  0  0  0  0  0  0  0  0
   28.9227   42.9645   23.4774 C   0  0  0  0  0  0  0  0  0  0  0  0
   28.2447   40.9621   21.9767 C   0  0  0  0  0  0  0  0  0  0  0  0
   26.0256   40.1932   22.3144 C   0  0  0  0  0  0  0  0  0  0  0  0
   24.7729   44.3606   27.0905 O   0  0  0  0  0  0  0  0  0  0  0  0
   25.7440   43.6138   26.9515 C   0  0  0  0  0  0  0  0  0  0  0  0
   26.7644   43.6040   27.8005 O   0  0  0  0  0  0  0  0  0  0  0  0
   25.8297   42.6841   25.7940 C   0  0  1  0  0  0  0  0  0  0  0  0
   23.9088   41.4343   26.4766 O   0  0  0  0  0  0  0  0  0  0  0  0
   26.8879   42.8012   24.8760 C   0  0  0  0  0  0  0  0  0  0  0  0
   28.1023   42.0140   23.0196 C   0  0  0  0  0  0  0  0  0  0  0  0
   28.3100   43.7582   24.8688 S   0  0  0  0  0  0  0  0  0  0  0  0
   25.9569   40.9560   23.5023 C   0  0  0  0  0  0  0  0  0  0  0  0
   24.9175   40.7712   24.4270 C   0  0  0  0  0  0  0  0  0  0  0  0
   23.1356   38.0457   22.8723 F   0  0  0  0  0  0  0  0  0  0  0  0
   27.0174   40.4851   21.3650 N   0  0  0  0  0  0  0  0  0  0  0  0
   26.4892   41.3082   20.2980 C   0  0  0  0  0  0  0  0  0  0  0  0
   23.9642   37.6536   20.3435 C   0  0  0  0  0  0  0  0  0  0  0  0
   26.6398   37.2693   18.0407 O   0  0  0  0  0  0  0  0  0  0  0  0
   24.4713   37.3015   18.9552 C   0  0  2  0  0  0  0  0  0  0  0  0
   23.8224   36.1567   18.2881 N   0  0  0  0  0  0  0  0  0  0  0  0
   23.8768   34.8833   19.0289 C   0  0  0  0  0  0  0  0  0  0  0  0
   22.4694   36.4622   17.7983 C   0  0  0  0  0  0  0  0  0  0  0  0
  1  5  1  0  0  0  0
  2 17  1  0  0  0  0
  3  1  1  0  0  0  0
  4  3  1  0  0  0  0
  4 26  1  6  0  0  0
  5 11  2  0  0  0  0
  5  6  1  0  0  0  0
  6  7  2  0  0  0  0
  7 21  1  0  0  0  0
  8 15  1  0  0  0  0
  8 16  2  0  0  0  0
  9 19  1  0  0  0  0
 10 18  1  0  0  0  0
 11 20  1  0  0  0  0
 13 14  1  0  0  0  0
 13 12  2  0  0  0  0
 15 13  1  1  0  0  0
 17 19  2  0  0  0  0
 17 15  1  0  0  0  0
 18  2  1  0  0  0  0
 18  9  2  0  0  0  0
 20 21  2  0  0  0  0
 20  2  1  0  0  0  0
 21  8  1  0  0  0  0
 22  6  1  0  0  0  0
 23 11  1  0  0  0  0
 23 10  1  0  0  0  0
 24 23  1  0  0  0  0
 25  1  1  0  0  0  0
 27  4  1  0  0  0  0
 27 25  1  0  0  0  0
 27 28  1  1  0  0  0
 29 28  1  0  0  0  0
 30 28  1  0  0  0  0
M  END
>  <CHROM.1>
-131.44535875,-179.23905568,-61.83704194,177.56876620,56.92008743,25.68827336
40.24002468,22.68279563,1.82568037,-0.52753535,-2.19591162

>  <Name>
lig.pdb

>  <RI>
0

>  <Rbt.Current_Directory>
/home/itssahil/PROJECTS/Mol_Feturizer/New_Systems/rnas/6bfb

>  <Rbt.Executable>
rbdock ($Id: //depot/dev/client3/rdock/2013.1/src/exe/rbdock.cxx#4 $)

>  <Rbt.Library>
libRbt.so (2013.1, Build901 2013/11/27)

>  <Rbt.Parameter_File>
/export/apps/rDock/src/rDock_2013.1_src/data/scripts/dock_solv.prm

>  <Rbt.Receptor>
prm/blind_docking_80.prm

>  <SCORE>
-36.4175

>  <SCORE.INTER>
-31.805

>  <SCORE.INTER.CONST>
1

>  <SCORE.INTER.POLAR>
0

>  <SCORE.INTER.ROT>
3

>  <SCORE.INTER.SOLV>
11.6957

>  <SCORE.INTER.VDW>
-30.7019

>  <SCORE.INTER.norm>
-1.06017

>  <SCORE.INTRA>
-4.61243

>  <SCORE.INTRA.DIHEDRAL>
-7.69829

>  <SCORE.INTRA.DIHEDRAL.0>
9.41909

>  <SCORE.INTRA.POLAR>
0

>  <SCORE.INTRA.POLAR.0>
0

>  <SCORE.INTRA.REPUL>
0.000741336

>  <SCORE.INTRA.REPUL.0>
0

>  <SCORE.INTRA.SOLV>
-0.228732

>  <SCORE.INTRA.SOLV.lig_0>
-26.2491

>  <SCORE.INTRA.VDW>
-0.652628

>  <SCORE.INTRA.VDW.0>
2.57239

>  <SCORE.INTRA.norm>
-0.153748

>  <SCORE.RESTR>
0

>  <SCORE.RESTR.CAVITY>
0

>  <SCORE.RESTR.norm>
0

>  <SCORE.SYSTEM>
0

>  <SCORE.SYSTEM.CONST>
0

>  <SCORE.SYSTEM.DIHEDRAL>
0

>  <SCORE.SYSTEM.SOLV>
0

>  <SCORE.SYSTEM.norm>
0

>  <SCORE.heavy>
30

>  <SCORE.norm>
-1.21392

>  <RMSD>
1.315

$$$$
lig.pdb
 OpenBabel11021811523D
libRbt.so/2013.1/901 2013/11/27
 30 34  0  0  0  0  0  0  0  0999 V2000
   25.0615   38.4305   20.7571 N   0  0  0  0  0  0  0  0  0  0  0  0
   26.9334   41.8508   23.8075 N   0  0  0  0  0  0  0  0  0  0  0  0
   26.3380   37.9416   20.2272 C   0  0  0  0  0  0  0  0  0  0  0  0
   25.8792   37.0881   19.0544 C   0  0  2  0  0  0  0  0  0  0  0  0
   25.0185   39.1712   22.0129 C   0  0  0  0  0  0  0  0  0  0  0  0
   24.0353   38.9715   23.0034 C   0  0  0  0  0  0  0  0  0  0  0  0
   23.9753   39.6865   24.1735 C   0  0  0  0  0  0  0  0  0  0  0  0
   24.8241   41.4888   25.6785 C   0  0  0  0  0  0  0  0  0  0  0  0
   28.9213   42.8886   23.5011 C   0  0  0  0  0  0  0  0  0  0  0  0
   28.2139   40.9412   21.9428 C   0  0  0  0  0  0  0  0  0  0  0  0
   25.9980   40.1667   22.2882 C   0  0  0  0  0  0  0  0  0  0  0  0
   24.8571   44.2062   27.1984 O   0  0  0  0  0  0  0  0  0  0  0  0
   25.7987   43.4253   27.0447 C   0  0  0  0  0  0  0  0  0  0  0  0
   26.8049   43.3419   27.9065 O   0  0  0  0  0  0  0  0  0  0  0  0
   25.8637   42.5361   25.8545 C   0  0  1  0  0  0  0  0  0  0  0  0
   23.9497   41.2682   26.5233 O   0  0  0  0  0  0  0  0  0  0  0  0
   26.9078   42.6822   24.9248 C   0  0  0  0  0  0  0  0  0  0  0  0
   28.0909   41.9567   23.0235 C   0  0  0  0  0  0  0  0  0  0  0  0
   28.3326   43.6352   24.9285 S   0  0  0  0  0  0  0  0  0  0  0  0
   25.9500   40.8881   23.5027 C   0  0  0  0  0  0  0  0  0  0  0  0
   24.9245   40.6739   24.4365 C   0  0  0  0  0  0  0  0  0  0  0  0
   23.1104   38.0086   22.8164 F   0  0  0  0  0  0  0  0  0  0  0  0
   26.9758   40.4888   21.3341 N   0  0  0  0  0  0  0  0  0  0  0  0
   26.4338   41.3497   20.3046 C   0  0  0  0  0  0  0  0  0  0  0  0
   23.9491   37.5885   20.3317 C   0  0  0  0  0  0  0  0  0  0  0  0
   26.4648   37.5231   17.8265 O   0  0  0  0  0  0  0  0  0  0  0  0
   24.3791   37.3238   18.8987 C   0  0  2  0  0  0  0  0  0  0  0  0
   23.7906   36.1405   18.2428 N   0  0  0  0  0  0  0  0  0  0  0  0
   23.9740   34.8664   18.9614 C   0  0  0  0  0  0  0  0  0  0  0  0
   22.3981   36.3472   17.8159 C   0  0  0  0  0  0  0  0  0  0  0  0
  1  5  1  0  0  0  0
  2 17  1  0  0  0  0
  3  1  1  0  0  0  0
  4  3  1  0  0  0  0
  4 26  1  6  0  0  0
  5 11  2  0  0  0  0
  5  6  1  0  0  0  0
  6  7  2  0  0  0  0
  7 21  1  0  0  0  0
  8 15  1  0  0  0  0
  8 16  2  0  0  0  0
  9 19  1  0  0  0  0
 10 18  1  0  0  0  0
 11 20  1  0  0  0  0
 13 14  1  0  0  0  0
 13 12  2  0  0  0  0
 15 13  1  1  0  0  0
 17 19  2  0  0  0  0
 17 15  1  0  0  0  0
 18  2  1  0  0  0  0
 18  9  2  0  0  0  0
 20 21  2  0  0  0  0
 20  2  1  0  0  0  0
 21  8  1  0  0  0  0
 22  6  1  0  0  0  0
 23 11  1  0  0  0  0
 23 10  1  0  0  0  0
 24 23  1  0  0  0  0
 25  1  1  0  0  0  0
 27  4  1  0  0  0  0
 27 25  1  0  0  0  0
 27 28  1  1  0  0  0
 29 28  1  0  0  0  0
 30 28  1  0  0  0  0
M  END
>  <CHROM.1>
-137.99288160,1.59547205,-64.63190887,177.17561889,59.23769600,25.67542969
40.19238576,22.67309859,1.83839926,-0.55030097,-2.15783391

>  <Name>
lig.pdb

>  <RI>
0

>  <Rbt.Current_Directory>
/home/itssahil/PROJECTS/Mol_Feturizer/New_Systems/rnas/6bfb

>  <Rbt.Executable>
rbdock ($Id: //depot/dev/client3/rdock/2013.1/src/exe/rbdock.cxx#4 $)

>  <Rbt.Library>
libRbt.so (2013.1, Build901 2013/11/27)

>  <Rbt.Parameter_File>
/export/apps/rDock/src/rDock_2013.1_src/data/scripts/dock_solv.prm

>  <Rbt.Receptor>
prm/pocket_docking_5.prm

>  <SCORE>
-36.7607

>  <SCORE.INTER>
-32.3016

>  <SCORE.INTER.CONST>
1

>  <SCORE.INTER.POLAR>
0

>  <SCORE.INTER.ROT>
3

>  <SCORE.INTER.SOLV>
12.1688

>  <SCORE.INTER.VDW>
-31.1907

>  <SCORE.INTER.norm>
-1.07672

>  <SCORE.INTRA>
-4.45914

>  <SCORE.INTRA.DIHEDRAL>
-7.65324

>  <SCORE.INTRA.DIHEDRAL.0>
9.41909

>  <SCORE.INTRA.POLAR>
0

>  <SCORE.INTRA.POLAR.0>
0

>  <SCORE.INTRA.REPUL>
0

>  <SCORE.INTRA.REPUL.0>
0

>  <SCORE.INTRA.SOLV>
-0.135996

>  <SCORE.INTRA.SOLV.lig_0>
-26.2491

>  <SCORE.INTRA.VDW>
-0.564524

>  <SCORE.INTRA.VDW.0>
2.57239

>  <SCORE.INTRA.norm>
-0.148638

>  <SCORE.RESTR>
0

>  <SCORE.RESTR.CAVITY>
0

>  <SCORE.RESTR.norm>
0

>  <SCORE.SYSTEM>
0

>  <SCORE.SYSTEM.CONST>
0

>  <SCORE.SYSTEM.DIHEDRAL>
0

>  <SCORE.SYSTEM.SOLV>
0

>  <SCORE.SYSTEM.norm>
0

>  <SCORE.heavy>
30

>  <SCORE.norm>
-1.22536

>  <RMSD>
1.324

$$$$
lig.pdb
 OpenBabel11021811523D
libRbt.so/2013.1/901 2013/11/27
 30 34  0  0  0  0  0  0  0  0999 V2000
   25.0627   38.4061   20.7349 N   0  0  0  0  0  0  0  0  0  0  0  0
   26.9336   41.8780   23.7270 N   0  0  0  0  0  0  0  0  0  0  0  0
   26.3315   37.8765   20.2256 C   0  0  0  0  0  0  0  0  0  0  0  0
   25.8632   37.0237   19.0561 C   0  0  2  0  0  0  0  0  0  0  0  0
   25.0253   39.1610   21.9823 C   0  0  0  0  0  0  0  0  0  0  0  0
   24.0535   38.9642   22.9847 C   0  0  0  0  0  0  0  0  0  0  0  0
   23.9984   39.6922   24.1469 C   0  0  0  0  0  0  0  0  0  0  0  0
   24.8458   41.5194   25.6226 C   0  0  0  0  0  0  0  0  0  0  0  0
   28.9091   42.9296   23.3892 C   0  0  0  0  0  0  0  0  0  0  0  0
   28.2040   40.9580   21.8605 C   0  0  0  0  0  0  0  0  0  0  0  0
   25.9985   40.1682   22.2366 C   0  0  0  0  0  0  0  0  0  0  0  0
   24.9269   44.3281   27.0572 O   0  0  0  0  0  0  0  0  0  0  0  0
   25.8163   43.4802   26.9567 C   0  0  0  0  0  0  0  0  0  0  0  0
   26.7684   43.3325   27.8698 O   0  0  0  0  0  0  0  0  0  0  0  0
   25.8776   42.5777   25.7763 C   0  0  1  0  0  0  0  0  0  0  0  0
   23.9815   41.3010   26.4784 O   0  0  0  0  0  0  0  0  0  0  0  0
   26.9114   42.7221   24.8348 C   0  0  0  0  0  0  0  0  0  0  0  0
   28.0824   41.9849   22.9306 C   0  0  0  0  0  0  0  0  0  0  0  0
   28.3277   43.6876   24.8136 S   0  0  0  0  0  0  0  0  0  0  0  0
   25.9559   40.9032   23.4430 C   0  0  0  0  0  0  0  0  0  0  0  0
   24.9414   40.6910   24.3892 C   0  0  0  0  0  0  0  0  0  0  0  0
   23.1354   37.9911   22.8179 F   0  0  0  0  0  0  0  0  0  0  0  0
   26.9642   40.4877   21.2693 N   0  0  0  0  0  0  0  0  0  0  0  0
   26.4046   41.3317   20.2352 C   0  0  0  0  0  0  0  0  0  0  0  0
   23.9325   37.5907   20.3046 C   0  0  0  0  0  0  0  0  0  0  0  0
   26.4752   37.4294   17.8310 O   0  0  0  0  0  0  0  0  0  0  0  0
   24.3721   37.2989   18.8797 C   0  0  2  0  0  0  0  0  0  0  0  0
   23.7589   36.1255   18.2289 N   0  0  0  0  0  0  0  0  0  0  0  0
   23.9112   34.8518   18.9556 C   0  0  0  0  0  0  0  0  0  0  0  0
   22.3729   36.3611   17.7963 C   0  0  0  0  0  0  0  0  0  0  0  0
  1  5  1  0  0  0  0
  2 17  1  0  0  0  0
  3  1  1  0  0  0  0
  4  3  1  0  0  0  0
  4 26  1  6  0  0  0
  5 11  2  0  0  0  0
  5  6  1  0  0  0  0
  6  7  2  0  0  0  0
  7 21  1  0  0  0  0
  8 15  1  0  0  0  0
  8 16  2  0  0  0  0
  9 19  1  0  0  0  0
 10 18  1  0  0  0  0
 11 20  1  0  0  0  0
 13 14  1  0  0  0  0
 13 12  2  0  0  0  0
 15 13  1  1  0  0  0
 17 19  2  0  0  0  0
 17 15  1  0  0  0  0
 18  2  1  0  0  0  0
 18  9  2  0  0  0  0
 20 21  2  0  0  0  0
 20  2  1  0  0  0  0
 21  8  1  0  0  0  0
 22  6  1  0  0  0  0
 23 11  1  0  0  0  0
 23 10  1  0  0  0  0
 24 23  1  0  0  0  0
 25  1  1  0  0  0  0
 27  4  1  0  0  0  0
 27 25  1  0  0  0  0
 27 28  1  1  0  0  0
 29 28  1  0  0  0  0
 30 28  1  0  0  0  0
M  END
>  <CHROM.1>
-135.55808675,0.96931000,-70.45747063,61.85398220,58.59887318,25.67777287
40.20047685,22.62381913,1.84224347,-0.55791424,-2.16605694

>  <Name>
lig.pdb

>  <RI>
0

>  <Rbt.Current_Directory>
/home/itssahil/PROJECTS/Mol_Feturizer/New_Systems/rnas/6bfb

>  <Rbt.Executable>
rbdock ($Id: //depot/dev/client3/rdock/2013.1/src/exe/rbdock.cxx#4 $)

>  <Rbt.Library>
libRbt.so (2013.1, Build901 2013/11/27)

>  <Rbt.Parameter_File>
/export/apps/rDock/src/rDock_2013.1_src/data/scripts/dock_solv.prm

>  <Rbt.Receptor>
prm/blind_docking_100.prm

>  <SCORE>
-36.5823

>  <SCORE.INTER>
-31.9678

>  <SCORE.INTER.CONST>
1

>  <SCORE.INTER.POLAR>
0

>  <SCORE.INTER.ROT>
3

>  <SCORE.INTER.SOLV>
12.2141

>  <SCORE.INTER.VDW>
-30.9832

>  <SCORE.INTER.norm>
-1.06559

>  <SCORE.INTRA>
-4.6145

>  <SCORE.INTRA.DIHEDRAL>
-7.69557

>  <SCORE.INTRA.DIHEDRAL.0>
9.41909

>  <SCORE.INTRA.POLAR>
0

>  <SCORE.INTRA.POLAR.0>
0

>  <SCORE.INTRA.REPUL>
0

>  <SCORE.INTRA.REPUL.0>
0

>  <SCORE.INTRA.SOLV>
-0.211032

>  <SCORE.INTRA.SOLV.lig_0>
-26.2491

>  <SCORE.INTRA.VDW>
-0.661196

>  <SCORE.INTRA.VDW.0>
2.57239

>  <SCORE.INTRA.norm>
-0.153817

>  <SCORE.RESTR>
0

>  <SCORE.RESTR.CAVITY>
0

>  <SCORE.RESTR.norm>
0

>  <SCORE.SYSTEM>
0

>  <SCORE.SYSTEM.CONST>
0

>  <SCORE.SYSTEM.DIHEDRAL>
0

>  <SCORE.SYSTEM.SOLV>
0

>  <SCORE.SYSTEM.norm>
0

>  <SCORE.heavy>
30

>  <SCORE.norm>
-1.21941

>  <RMSD>
1.342

$$$$
lig.pdb
 OpenBabel11021811523D
libRbt.so/2013.1/901 2013/11/27
 30 34  0  0  0  0  0  0  0  0999 V2000
   26.5051   37.3470   20.3886 N   0  0  0  0  0  0  0  0  0  0  0  0
   26.5282   40.9327   23.8017 N   0  0  0  0  0  0  0  0  0  0  0  0
   27.6027   36.4467   20.7549 C   0  0  0  0  0  0  0  0  0  0  0  0
   27.8586   35.7214   19.4424 C   0  0  2  0  0  0  0  0  0  0  0  0
   25.8207   38.1309   21.4106 C   0  0  0  0  0  0  0  0  0  0  0  0
   24.4714   37.9362   21.7701 C   0  0  0  0  0  0  0  0  0  0  0  0
   23.8164   38.6909   22.7111 C   0  0  0  0  0  0  0  0  0  0  0  0
   23.7626   40.5723   24.3516 C   0  0  0  0  0  0  0  0  0  0  0  0
   28.3849   42.0209   24.5024 C   0  0  0  0  0  0  0  0  0  0  0  0
   28.5889   39.9971   22.8950 C   0  0  0  0  0  0  0  0  0  0  0  0
   26.5138   39.1661   22.0993 C   0  0  0  0  0  0  0  0  0  0  0  0
   23.3789   43.6370   25.5314 O   0  0  0  0  0  0  0  0  0  0  0  0
   23.8865   42.5868   25.9306 C   0  0  0  0  0  0  0  0  0  0  0  0
   23.8821   42.2327   27.2099 O   0  0  0  0  0  0  0  0  0  0  0  0
   24.5575   41.6576   24.9831 C   0  0  1  0  0  0  0  0  0  0  0  0
   22.5814   40.3550   24.6423 O   0  0  0  0  0  0  0  0  0  0  0  0
   25.9287   41.8027   24.7093 C   0  0  0  0  0  0  0  0  0  0  0  0
   27.9227   41.0466   23.7129 C   0  0  0  0  0  0  0  0  0  0  0  0
   27.1437   42.7998   25.3935 S   0  0  0  0  0  0  0  0  0  0  0  0
   25.8465   39.9291   23.0842 C   0  0  0  0  0  0  0  0  0  0  0  0
   24.4899   39.7166   23.3741 C   0  0  0  0  0  0  0  0  0  0  0  0
   23.7799   36.9386   21.1837 F   0  0  0  0  0  0  0  0  0  0  0  0
   27.8388   39.4842   21.7626 N   0  0  0  0  0  0  0  0  0  0  0  0
   27.8908   40.2897   20.5612 C   0  0  0  0  0  0  0  0  0  0  0  0
   25.8102   36.8830   19.1931 C   0  0  0  0  0  0  0  0  0  0  0  0
   29.2109   35.8774   19.0102 O   0  0  0  0  0  0  0  0  0  0  0  0
   27.0073   36.4156   18.3824 C   0  0  2  0  0  0  0  0  0  0  0  0
   26.7338   35.4484   17.3025 N   0  0  0  0  0  0  0  0  0  0  0  0
   25.9156   34.2854   17.6917 C   0  0  0  0  0  0  0  0  0  0  0  0
   26.2532   36.0822   16.0651 C   0  0  0  0  0  0  0  0  0  0  0  0
  1  5  1  0  0  0  0
  2 17  1  0  0  0  0
  3  1  1  0  0  0  0
  4  3  1  0  0  0  0
  4 26  1  6  0  0  0
  5 11  2  0  0  0  0
  5  6  1  0  0  0  0
  6  7  2  0  0  0  0
  7 21  1  0  0  0  0
  8 15  1  0  0  0  0
  8 16  2  0  0  0  0
  9 19  1  0  0  0  0
 10 18  1  0  0  0  0
 11 20  1  0  0  0  0
 13 14  1  0  0  0  0
 13 12  2  0  0  0  0
 15 13  1  1  0  0  0
 17 19  2  0  0  0  0
 17 15  1  0  0  0  0
 18  2  1  0  0  0  0
 18  9  2  0  0  0  0
 20 21  2  0  0  0  0
 20  2  1  0  0  0  0
 21  8  1  0  0  0  0
 22  6  1  0  0  0  0
 23 11  1  0  0  0  0
 23 10  1  0  0  0  0
 24 23  1  0  0  0  0
 25  1  1  0  0  0  0
 27  4  1  0  0  0  0
 27 25  1  0  0  0  0
 27 28  1  6  0  0  0
 29 28  1  0  0  0  0
 30 28  1  0  0  0  0
M  END
>  <CHROM.1>
-113.62242513,-175.65687174,-91.19808194,179.06084844,64.74386791,26.02640559
39.24323376,22.21332618,1.38263489,-0.20470990,-2.34032444

>  <Name>
lig.pdb

>  <RI>
0

>  <Rbt.Current_Directory>
/home/itssahil/PROJECTS/Mol_Feturizer/New_Systems/rnas/6bfb

>  <Rbt.Executable>
rbdock ($Id: //depot/dev/client3/rdock/2013.1/src/exe/rbdock.cxx#4 $)

>  <Rbt.Library>
libRbt.so (2013.1, Build901 2013/11/27)

>  <Rbt.Parameter_File>
/export/apps/rDock/src/rDock_2013.1_src/data/scripts/dock_solv.prm

>  <Rbt.Receptor>
prm/pocket_docking_7.prm

>  <SCORE>
-36.2271

>  <SCORE.INTER>
-30.5038

>  <SCORE.INTER.CONST>
1

>  <SCORE.INTER.POLAR>
-0.813335

>  <SCORE.INTER.ROT>
3

>  <SCORE.INTER.SOLV>
11.2846

>  <SCORE.INTER.VDW>
-26.9863

>  <SCORE.INTER.norm>
-1.01679

>  <SCORE.INTRA>
-5.72327

>  <SCORE.INTRA.DIHEDRAL>
-7.47829

>  <SCORE.INTRA.DIHEDRAL.0>
9.41909

>  <SCORE.INTRA.POLAR>
0

>  <SCORE.INTRA.POLAR.0>
0

>  <SCORE.INTRA.REPUL>
0.0462911

>  <SCORE.INTRA.REPUL.0>
0

>  <SCORE.INTRA.SOLV>
-0.295018

>  <SCORE.INTRA.SOLV.lig_0>
-26.2491

>  <SCORE.INTRA.VDW>
-2.06808

>  <SCORE.INTRA.VDW.0>
2.57239

>  <SCORE.INTRA.norm>
-0.190776

>  <SCORE.RESTR>
0

>  <SCORE.RESTR.CAVITY>
0

>  <SCORE.RESTR.norm>
0

>  <SCORE.SYSTEM>
0

>  <SCORE.SYSTEM.CONST>
0

>  <SCORE.SYSTEM.DIHEDRAL>
0

>  <SCORE.SYSTEM.SOLV>
0

>  <SCORE.SYSTEM.norm>
0

>  <SCORE.heavy>
30

>  <SCORE.norm>
-1.20757

>  <RMSD>
1.345

$$$$
lig.pdb
 OpenBabel11021811523D
libRbt.so/2013.1/901 2013/11/27
 30 34  0  0  0  0  0  0  0  0999 V2000
   26.4287   37.3064   20.3868 N   0  0  0  0  0  0  0  0  0  0  0  0
   26.5012   40.9055   23.7850 N   0  0  0  0  0  0  0  0  0  0  0  0
   27.4777   36.3520   20.7583 C   0  0  0  0  0  0  0  0  0  0  0  0
   27.7307   35.6410   19.4373 C   0  0  2  0  0  0  0  0  0  0  0  0
   25.7567   38.1002   21.4095 C   0  0  0  0  0  0  0  0  0  0  0  0
   24.4079   37.9182   21.7775 C   0  0  0  0  0  0  0  0  0  0  0  0
   23.7646   38.6820   22.7191 C   0  0  0  0  0  0  0  0  0  0  0  0
   23.7358   40.5705   24.3521 C   0  0  0  0  0  0  0  0  0  0  0  0
   28.3708   41.9811   24.4706 C   0  0  0  0  0  0  0  0  0  0  0  0
   28.5488   39.9491   22.8704 C   0  0  0  0  0  0  0  0  0  0  0  0
   26.4623   39.1323   22.0900 C   0  0  0  0  0  0  0  0  0  0  0  0
   23.3447   43.6210   25.5159 O   0  0  0  0  0  0  0  0  0  0  0  0
   23.8856   42.5902   25.9221 C   0  0  0  0  0  0  0  0  0  0  0  0
   23.9299   42.2666   27.2087 O   0  0  0  0  0  0  0  0  0  0  0  0
   24.5434   41.6516   24.9746 C   0  0  1  0  0  0  0  0  0  0  0  0
   22.5545   40.3642   24.6504 O   0  0  0  0  0  0  0  0  0  0  0  0
   25.9141   41.7842   24.6925 C   0  0  0  0  0  0  0  0  0  0  0  0
   27.8960   41.0075   23.6878 C   0  0  0  0  0  0  0  0  0  0  0  0
   27.1413   42.7739   25.3657 S   0  0  0  0  0  0  0  0  0  0  0  0
   25.8070   39.9047   23.0756 C   0  0  0  0  0  0  0  0  0  0  0  0
   24.4504   39.7048   23.3740 C   0  0  0  0  0  0  0  0  0  0  0  0
   23.7048   36.9239   21.1991 F   0  0  0  0  0  0  0  0  0  0  0  0
   27.7880   39.4379   21.7444 N   0  0  0  0  0  0  0  0  0  0  0  0
   27.8398   40.2381   20.5395 C   0  0  0  0  0  0  0  0  0  0  0  0
   25.7408   36.8962   19.1678 C   0  0  0  0  0  0  0  0  0  0  0  0
   29.0977   35.7456   19.0371 O   0  0  0  0  0  0  0  0  0  0  0  0
   26.9340   36.3920   18.3736 C   0  0  2  0  0  0  0  0  0  0  0  0
   26.6425   35.4584   17.2690 N   0  0  0  0  0  0  0  0  0  0  0  0
   25.7471   34.3384   17.6115 C   0  0  0  0  0  0  0  0  0  0  0  0
   26.2403   36.1372   16.0275 C   0  0  0  0  0  0  0  0  0  0  0  0
  1  5  1  0  0  0  0
  2 17  1  0  0  0  0
  3  1  1  0  0  0  0
  4  3  1  0  0  0  0
  4 26  1  6  0  0  0
  5 11  2  0  0  0  0
  5  6  1  0  0  0  0
  6  7  2  0  0  0  0
  7 21  1  0  0  0  0
  8 15  1  0  0  0  0
  8 16  2  0  0  0  0
  9 19  1  0  0  0  0
 10 18  1  0  0  0  0
 11 20  1  0  0  0  0
 13 14  1  0  0  0  0
 13 12  2  0  0  0  0
 15 13  1  1  0  0  0
 17 19  2  0  0  0  0
 17 15  1  0  0  0  0
 18  2  1  0  0  0  0
 18  9  2  0  0  0  0
 20 21  2  0  0  0  0
 20  2  1  0  0  0  0
 21  8  1  0  0  0  0
 22  6  1  0  0  0  0
 23 11  1  0  0  0  0
 23 10  1  0  0  0  0
 24 23  1  0  0  0  0
 25  1  1  0  0  0  0
 27  4  1  0  0  0  0
 27 25  1  0  0  0  0
 27 28  1  6  0  0  0
 29 28  1  0  0  0  0
 30 28  1  0  0  0  0
M  END
>  <CHROM.1>
-110.72448056,-177.65714314,-88.72088448,-55.62567971,65.76305646,25.97731351
39.22482518,22.20290115,1.39204826,-0.20140354,-2.33758080

>  <Name>
lig.pdb

>  <RI>
0

>  <Rbt.Current_Directory>
/home/itssahil/PROJECTS/Mol_Feturizer/New_Systems/rnas/6bfb

>  <Rbt.Executable>
rbdock ($Id: //depot/dev/client3/rdock/2013.1/src/exe/rbdock.cxx#4 $)

>  <Rbt.Library>
libRbt.so (2013.1, Build901 2013/11/27)

>  <Rbt.Parameter_File>
/export/apps/rDock/src/rDock_2013.1_src/data/scripts/dock_solv.prm

>  <Rbt.Receptor>
prm/pocket_docking_8.prm

>  <SCORE>
-35.7848

>  <SCORE.INTER>
-30.4185

>  <SCORE.INTER.CONST>
1

>  <SCORE.INTER.POLAR>
-0.794761

>  <SCORE.INTER.ROT>
3

>  <SCORE.INTER.SOLV>
11.2661

>  <SCORE.INTER.VDW>
-26.9852

>  <SCORE.INTER.norm>
-1.01395

>  <SCORE.INTRA>
-5.36622

>  <SCORE.INTRA.DIHEDRAL>
-7.44074

>  <SCORE.INTRA.DIHEDRAL.0>
9.41909

>  <SCORE.INTRA.POLAR>
0

>  <SCORE.INTRA.POLAR.0>
0

>  <SCORE.INTRA.REPUL>
0.053189

>  <SCORE.INTRA.REPUL.0>
0

>  <SCORE.INTRA.SOLV>
-0.332858

>  <SCORE.INTRA.SOLV.lig_0>
-26.2491

>  <SCORE.INTRA.VDW>
-1.74537

>  <SCORE.INTRA.VDW.0>
2.57239

>  <SCORE.INTRA.norm>
-0.178874

>  <SCORE.RESTR>
0

>  <SCORE.RESTR.CAVITY>
0

>  <SCORE.RESTR.norm>
0

>  <SCORE.SYSTEM>
0

>  <SCORE.SYSTEM.CONST>
0

>  <SCORE.SYSTEM.DIHEDRAL>
0

>  <SCORE.SYSTEM.SOLV>
0

>  <SCORE.SYSTEM.norm>
0

>  <SCORE.heavy>
30

>  <SCORE.norm>
-1.19283

>  <RMSD>
1.347

$$$$
lig.pdb
 OpenBabel11021811523D
libRbt.so/2013.1/901 2013/11/27
 30 34  0  0  0  0  0  0  0  0999 V2000
   26.4178   37.7985   20.6622 N   0  0  0  0  0  0  0  0  0  0  0  0
   26.1526   40.9198   24.4955 N   0  0  0  0  0  0  0  0  0  0  0  0
   27.7485   37.2382   20.9164 C   0  0  0  0  0  0  0  0  0  0  0  0
   28.0494   36.5451   19.5960 C   0  0  2  0  0  0  0  0  0  0  0  0
   25.6602   38.4212   21.7420 C   0  0  0  0  0  0  0  0  0  0  0  0
   24.3065   38.1342   22.0119 C   0  0  0  0  0  0  0  0  0  0  0  0
   23.5828   38.7392   23.0089 C   0  0  0  0  0  0  0  0  0  0  0  0
   23.3840   40.3938   24.8682 C   0  0  0  0  0  0  0  0  0  0  0  0
   27.9325   41.9759   25.4117 C   0  0  0  0  0  0  0  0  0  0  0  0
   28.2857   40.1814   23.5742 C   0  0  0  0  0  0  0  0  0  0  0  0
   26.2811   39.3845   22.5861 C   0  0  0  0  0  0  0  0  0  0  0  0
   22.1374   42.3338   26.6102 O   0  0  0  0  0  0  0  0  0  0  0  0
   23.3597   42.1943   26.6914 C   0  0  0  0  0  0  0  0  0  0  0  0
   24.0763   42.7327   27.6706 O   0  0  0  0  0  0  0  0  0  0  0  0
   24.1069   41.4177   25.6667 C   0  0  1  0  0  0  0  0  0  0  0  0
   22.2018   40.0991   25.0748 O   0  0  0  0  0  0  0  0  0  0  0  0
   25.4810   41.6454   25.4766 C   0  0  0  0  0  0  0  0  0  0  0  0
   27.5437   41.0939   24.4858 C   0  0  0  0  0  0  0  0  0  0  0  0
   26.6246   42.5903   26.3355 S   0  0  0  0  0  0  0  0  0  0  0  0
   25.5430   39.9918   23.6273 C   0  0  0  0  0  0  0  0  0  0  0  0
   24.1856   39.6958   23.8256 C   0  0  0  0  0  0  0  0  0  0  0  0
   23.6814   37.1951   21.2738 F   0  0  0  0  0  0  0  0  0  0  0  0
   27.6046   39.7900   22.3532 N   0  0  0  0  0  0  0  0  0  0  0  0
   27.6725   40.7431   21.2660 C   0  0  0  0  0  0  0  0  0  0  0  0
   25.7504   37.1118   19.5620 C   0  0  0  0  0  0  0  0  0  0  0  0
   29.2573   37.0321   19.0096 O   0  0  0  0  0  0  0  0  0  0  0  0
   26.9366   36.9393   18.6283 C   0  0  2  0  0  0  0  0  0  0  0  0
   26.8196   35.8845   17.6034 N   0  0  0  0  0  0  0  0  0  0  0  0
   25.5238   35.8290   16.9026 C   0  0  0  0  0  0  0  0  0  0  0  0
   27.9602   35.8494   16.6752 C   0  0  0  0  0  0  0  0  0  0  0  0
  1  5  1  0  0  0  0
  2 17  1  0  0  0  0
  3  1  1  0  0  0  0
  4  3  1  0  0  0  0
  4 26  1  6  0  0  0
  5 11  2  0  0  0  0
  5  6  1  0  0  0  0
  6  7  2  0  0  0  0
  7 21  1  0  0  0  0
  8 15  1  0  0  0  0
  8 16  2  0  0  0  0
  9 19  1  0  0  0  0
 10 18  1  0  0  0  0
 11 20  1  0  0  0  0
 13 14  1  0  0  0  0
 13 12  2  0  0  0  0
 15 13  1  1  0  0  0
 17 19  2  0  0  0  0
 17 15  1  0  0  0  0
 18  2  1  0  0  0  0
 18  9  2  0  0  0  0
 20 21  2  0  0  0  0
 20  2  1  0  0  0  0
 21  8  1  0  0  0  0
 22  6  1  0  0  0  0
 23 11  1  0  0  0  0
 23 10  1  0  0  0  0
 24 23  1  0  0  0  0
 25  1  1  0  0  0  0
 27  4  1  0  0  0  0
 27 25  1  0  0  0  0
 27 28  1  6  0  0  0
 29 28  1  0  0  0  0
 30 28  1  0  0  0  0
M  END
>  <CHROM.1>
-131.97595406,0.57734639,-23.58675341,64.86571733,158.43180398,25.83274905
39.42361158,22.68655856,1.30759134,-0.19952030,-2.23677798

>  <Name>
lig.pdb

>  <RI>
0

>  <Rbt.Current_Directory>
/home/itssahil/PROJECTS/Mol_Feturizer/New_Systems/rnas/6bfb

>  <Rbt.Executable>
rbdock ($Id: //depot/dev/client3/rdock/2013.1/src/exe/rbdock.cxx#4 $)

>  <Rbt.Library>
libRbt.so (2013.1, Build901 2013/11/27)

>  <Rbt.Parameter_File>
/export/apps/rDock/src/rDock_2013.1_src/data/scripts/dock_solv.prm

>  <Rbt.Receptor>
prm/blind_docking_80.prm

>  <SCORE>
-35.9266

>  <SCORE.INTER>
-32.1257

>  <SCORE.INTER.CONST>
1

>  <SCORE.INTER.POLAR>
-0.956338

>  <SCORE.INTER.ROT>
3

>  <SCORE.INTER.SOLV>
11.2919

>  <SCORE.INTER.VDW>
-27.5933

>  <SCORE.INTER.norm>
-1.07086

>  <SCORE.INTRA>
-3.80107

>  <SCORE.INTRA.DIHEDRAL>
-7.24657

>  <SCORE.INTRA.DIHEDRAL.0>
9.41909

>  <SCORE.INTRA.POLAR>
0

>  <SCORE.INTRA.POLAR.0>
0

>  <SCORE.INTRA.REPUL>
0

>  <SCORE.INTRA.REPUL.0>
0

>  <SCORE.INTRA.SOLV>
-0.0545751

>  <SCORE.INTRA.SOLV.lig_0>
-26.2491

>  <SCORE.INTRA.VDW>
-0.150499

>  <SCORE.INTRA.VDW.0>
2.57239

>  <SCORE.INTRA.norm>
-0.126702

>  <SCORE.RESTR>
0.000105439

>  <SCORE.RESTR.CAVITY>
0.000105439

>  <SCORE.RESTR.norm>
3.51465e-06

>  <SCORE.SYSTEM>
0

>  <SCORE.SYSTEM.CONST>
0

>  <SCORE.SYSTEM.DIHEDRAL>
0

>  <SCORE.SYSTEM.SOLV>
0

>  <SCORE.SYSTEM.norm>
0

>  <SCORE.heavy>
30

>  <SCORE.norm>
-1.19755

>  <RMSD>
1.354

$$$$
lig.pdb
 OpenBabel11021811523D
libRbt.so/2013.1/901 2013/11/27
 30 34  0  0  0  0  0  0  0  0999 V2000
   26.6170   37.5211   20.3736 N   0  0  0  0  0  0  0  0  0  0  0  0
   26.4070   41.0761   23.8123 N   0  0  0  0  0  0  0  0  0  0  0  0
   27.9287   36.9328   20.6614 C   0  0  0  0  0  0  0  0  0  0  0  0
   28.1978   36.1409   19.3907 C   0  0  2  0  0  0  0  0  0  0  0  0
   25.8878   38.2425   21.4105 C   0  0  0  0  0  0  0  0  0  0  0  0
   24.5630   37.9403   21.7868 C   0  0  0  0  0  0  0  0  0  0  0  0
   23.8642   38.6354   22.7420 C   0  0  0  0  0  0  0  0  0  0  0  0
   23.6861   40.4965   24.3968 C   0  0  0  0  0  0  0  0  0  0  0  0
   28.1824   42.3023   24.4958 C   0  0  0  0  0  0  0  0  0  0  0  0
   28.5218   40.3108   22.8710 C   0  0  0  0  0  0  0  0  0  0  0  0
   26.5072   39.3245   22.0973 C   0  0  0  0  0  0  0  0  0  0  0  0
   23.0363   43.4846   25.5978 O   0  0  0  0  0  0  0  0  0  0  0  0
   23.6740   42.5045   25.9888 C   0  0  0  0  0  0  0  0  0  0  0  0
   23.7642   42.1770   27.2720 O   0  0  0  0  0  0  0  0  0  0  0  0
   24.4024   41.6368   25.0255 C   0  0  1  0  0  0  0  0  0  0  0  0
   22.5298   40.1854   24.7019 O   0  0  0  0  0  0  0  0  0  0  0  0
   25.7540   41.8908   24.7343 C   0  0  0  0  0  0  0  0  0  0  0  0
   27.7869   41.2997   23.7055 C   0  0  0  0  0  0  0  0  0  0  0  0
   26.8966   42.9758   25.4093 S   0  0  0  0  0  0  0  0  0  0  0  0
   25.7960   40.0266   23.0968 C   0  0  0  0  0  0  0  0  0  0  0  0
   24.4645   39.7066   23.4034 C   0  0  0  0  0  0  0  0  0  0  0  0
   23.9436   36.8952   21.2024 F   0  0  0  0  0  0  0  0  0  0  0  0
   27.7984   39.7477   21.7451 N   0  0  0  0  0  0  0  0  0  0  0  0
   27.7702   40.5623   20.5491 C   0  0  0  0  0  0  0  0  0  0  0  0
   25.9200   36.7848   19.3251 C   0  0  0  0  0  0  0  0  0  0  0  0
   29.4188   36.5437   18.7686 O   0  0  0  0  0  0  0  0  0  0  0  0
   27.0942   36.5071   18.4017 C   0  0  2  0  0  0  0  0  0  0  0  0
   26.9346   35.3895   17.4519 N   0  0  0  0  0  0  0  0  0  0  0  0
   26.4246   34.1355   18.0357 C   0  0  0  0  0  0  0  0  0  0  0  0
   26.2161   35.7692   16.2258 C   0  0  0  0  0  0  0  0  0  0  0  0
  1  5  1  0  0  0  0
  2 17  1  0  0  0  0
  3  1  1  0  0  0  0
  4  3  1  0  0  0  0
  4 26  1  6  0  0  0
  5 11  2  0  0  0  0
  5  6  1  0  0  0  0
  6  7  2  0  0  0  0
  7 21  1  0  0  0  0
  8 15  1  0  0  0  0
  8 16  2  0  0  0  0
  9 19  1  0  0  0  0
 10 18  1  0  0  0  0
 11 20  1  0  0  0  0
 13 14  1  0  0  0  0
 13 12  2  0  0  0  0
 15 13  1  1  0  0  0
 17 19  2  0  0  0  0
 17 15  1  0  0  0  0
 18  2  1  0  0  0  0
 18  9  2  0  0  0  0
 20 21  2  0  0  0  0
 20  2  1  0  0  0  0
 21  8  1  0  0  0  0
 22  6  1  0  0  0  0
 23 11  1  0  0  0  0
 23 10  1  0  0  0  0
 24 23  1  0  0  0  0
 25  1  1  0  0  0  0
 27  4  1  0  0  0  0
 27 25  1  0  0  0  0
 27 28  1  6  0  0  0
 29 28  1  0  0  0  0
 30 28  1  0  0  0  0
M  END
>  <CHROM.1>
-125.98713050,-178.17093265,-88.31411756,61.70110424,66.36493690,26.02392004
39.33682450,22.24401933,1.33705585,-0.27648461,-2.36261940

>  <Name>
lig.pdb

>  <RI>
0

>  <Rbt.Current_Directory>
/home/itssahil/PROJECTS/Mol_Feturizer/New_Systems/rnas/6bfb

>  <Rbt.Executable>
rbdock ($Id: //depot/dev/client3/rdock/2013.1/src/exe/rbdock.cxx#4 $)

>  <Rbt.Library>
libRbt.so (2013.1, Build901 2013/11/27)

>  <Rbt.Parameter_File>
/export/apps/rDock/src/rDock_2013.1_src/data/scripts/dock_solv.prm

>  <Rbt.Receptor>
prm/blind_docking_100.prm

>  <SCORE>
-39.9026

>  <SCORE.INTER>
-34.7562

>  <SCORE.INTER.CONST>
1

>  <SCORE.INTER.POLAR>
-1.805

>  <SCORE.INTER.ROT>
3

>  <SCORE.INTER.SOLV>
10.4641

>  <SCORE.INTER.VDW>
-26.2422

>  <SCORE.INTER.norm>
-1.15854

>  <SCORE.INTRA>
-5.14642

>  <SCORE.INTRA.DIHEDRAL>
-7.5085

>  <SCORE.INTRA.DIHEDRAL.0>
9.41909

>  <SCORE.INTRA.POLAR>
0

>  <SCORE.INTRA.POLAR.0>
0

>  <SCORE.INTRA.REPUL>
0.0151226

>  <SCORE.INTRA.REPUL.0>
0

>  <SCORE.INTRA.SOLV>
-0.32

>  <SCORE.INTRA.SOLV.lig_0>
-26.2491

>  <SCORE.INTRA.VDW>
-1.30779

>  <SCORE.INTRA.VDW.0>
2.57239

>  <SCORE.INTRA.norm>
-0.171547

>  <SCORE.RESTR>
0

>  <SCORE.RESTR.CAVITY>
0

>  <SCORE.RESTR.norm>
0

>  <SCORE.SYSTEM>
0

>  <SCORE.SYSTEM.CONST>
0

>  <SCORE.SYSTEM.DIHEDRAL>
0

>  <SCORE.SYSTEM.SOLV>
0

>  <SCORE.SYSTEM.norm>
0

>  <SCORE.heavy>
30

>  <SCORE.norm>
-1.33009

>  <RMSD>
1.359

$$$$
lig.pdb
 OpenBabel11021811523D
libRbt.so/2013.1/901 2013/11/27
 30 34  0  0  0  0  0  0  0  0999 V2000
   26.5384   37.3383   20.3648 N   0  0  0  0  0  0  0  0  0  0  0  0
   26.5423   40.9400   23.7612 N   0  0  0  0  0  0  0  0  0  0  0  0
   27.6722   36.4802   20.7220 C   0  0  0  0  0  0  0  0  0  0  0  0
   27.9223   35.7395   19.4169 C   0  0  2  0  0  0  0  0  0  0  0  0
   25.8519   38.1187   21.3882 C   0  0  0  0  0  0  0  0  0  0  0  0
   24.5077   37.9093   21.7583 C   0  0  0  0  0  0  0  0  0  0  0  0
   23.8503   38.6603   22.7005 C   0  0  0  0  0  0  0  0  0  0  0  0
   23.7853   40.5486   24.3326 C   0  0  0  0  0  0  0  0  0  0  0  0
   28.3906   42.0539   24.4435 C   0  0  0  0  0  0  0  0  0  0  0  0
   28.6077   40.0252   22.8440 C   0  0  0  0  0  0  0  0  0  0  0  0
   26.5372   39.1654   22.0670 C   0  0  0  0  0  0  0  0  0  0  0  0
   23.3384   43.5940   25.4962 O   0  0  0  0  0  0  0  0  0  0  0  0
   23.8960   42.5718   25.9015 C   0  0  0  0  0  0  0  0  0  0  0  0
   23.9433   42.2464   27.1875 O   0  0  0  0  0  0  0  0  0  0  0  0
   24.5715   41.6463   24.9534 C   0  0  1  0  0  0  0  0  0  0  0  0
   22.6089   40.3183   24.6329 O   0  0  0  0  0  0  0  0  0  0  0  0
   25.9388   41.8069   24.6692 C   0  0  0  0  0  0  0  0  0  0  0  0
   27.9346   41.0704   23.6618 C   0  0  0  0  0  0  0  0  0  0  0  0
   27.1464   42.8218   25.3400 S   0  0  0  0  0  0  0  0  0  0  0  0
   25.8677   39.9248   23.0533 C   0  0  0  0  0  0  0  0  0  0  0  0
   24.5159   39.6973   23.3539 C   0  0  0  0  0  0  0  0  0  0  0  0
   23.8242   36.9006   21.1814 F   0  0  0  0  0  0  0  0  0  0  0  0
   27.8559   39.4979   21.7193 N   0  0  0  0  0  0  0  0  0  0  0  0
   27.8894   40.2985   20.5140 C   0  0  0  0  0  0  0  0  0  0  0  0
   25.8327   36.8309   19.1936 C   0  0  0  0  0  0  0  0  0  0  0  0
   29.2591   35.9304   18.9516 O   0  0  0  0  0  0  0  0  0  0  0  0
   27.0260   36.3869   18.3645 C   0  0  2  0  0  0  0  0  0  0  0  0
   26.7600   35.3920   17.3080 N   0  0  0  0  0  0  0  0  0  0  0  0
   25.9463   34.2351   17.7238 C   0  0  0  0  0  0  0  0  0  0  0  0
   26.2797   35.9927   16.0541 C   0  0  0  0  0  0  0  0  0  0  0  0
  1  5  1  0  0  0  0
  2 17  1  0  0  0  0
  3  1  1  0  0  0  0
  4  3  1  0  0  0  0
  4 26  1  6  0  0  0
  5 11  2  0  0  0  0
  5  6  1  0  0  0  0
  6  7  2  0  0  0  0
  7 21  1  0  0  0  0
  8 15  1  0  0  0  0
  8 16  2  0  0  0  0
  9 19  1  0  0  0  0
 10 18  1  0  0  0  0
 11 20  1  0  0  0  0
 13 14  1  0  0  0  0
 13 12  2  0  0  0  0
 15 13  1  1  0  0  0
 17 19  2  0  0  0  0
 17 15  1  0  0  0  0
 18  2  1  0  0  0  0
 18  9  2  0  0  0  0
 20 21  2  0  0  0  0
 20  2  1  0  0  0  0
 21  8  1  0  0  0  0
 22  6  1  0  0  0  0
 23 11  1  0  0  0  0
 23 10  1  0  0  0  0
 24 23  1  0  0  0  0
 25  1  1  0  0  0  0
 27  4  1  0  0  0  0
 27 25  1  0  0  0  0
 27 28  1  6  0  0  0
 29 28  1  0  0  0  0
 30 28  1  0  0  0  0
M  END
>  <CHROM.1>
-115.23756021,-177.99268175,-89.03214986,177.22825541,66.89233399,26.05023677
39.23448443,22.18619603,1.37970272,-0.21855549,-2.34699661

>  <Name>
lig.pdb

>  <RI>
0

>  <Rbt.Current_Directory>
/home/itssahil/PROJECTS/Mol_Feturizer/New_Systems/rnas/6bfb

>  <Rbt.Executable>
rbdock ($Id: //depot/dev/client3/rdock/2013.1/src/exe/rbdock.cxx#4 $)

>  <Rbt.Library>
libRbt.so (2013.1, Build901 2013/11/27)

>  <Rbt.Parameter_File>
/export/apps/rDock/src/rDock_2013.1_src/data/scripts/dock_solv.prm

>  <Rbt.Receptor>
prm/pocket_docking_3.prm

>  <SCORE>
-36.1658

>  <SCORE.INTER>
-30.4484

>  <SCORE.INTER.CONST>
1

>  <SCORE.INTER.POLAR>
-0.79134

>  <SCORE.INTER.ROT>
3

>  <SCORE.INTER.SOLV>
11.161

>  <SCORE.INTER.VDW>
-26.9814

>  <SCORE.INTER.norm>
-1.01495

>  <SCORE.INTRA>
-5.71746

>  <SCORE.INTRA.DIHEDRAL>
-7.46513

>  <SCORE.INTRA.DIHEDRAL.0>
9.41909

>  <SCORE.INTRA.POLAR>
0

>  <SCORE.INTRA.POLAR.0>
0

>  <SCORE.INTRA.REPUL>
0.0423665

>  <SCORE.INTRA.REPUL.0>
0

>  <SCORE.INTRA.SOLV>
-0.294676

>  <SCORE.INTRA.SOLV.lig_0>
-26.2491

>  <SCORE.INTRA.VDW>
-2.04939

>  <SCORE.INTRA.VDW.0>
2.57239

>  <SCORE.INTRA.norm>
-0.190582

>  <SCORE.RESTR>
0

>  <SCORE.RESTR.CAVITY>
0

>  <SCORE.RESTR.norm>
0

>  <SCORE.SYSTEM>
0

>  <SCORE.SYSTEM.CONST>
0

>  <SCORE.SYSTEM.DIHEDRAL>
0

>  <SCORE.SYSTEM.SOLV>
0

>  <SCORE.SYSTEM.norm>
0

>  <SCORE.heavy>
30

>  <SCORE.norm>
-1.20553

>  <RMSD>
1.364

$$$$
lig.pdb
 OpenBabel11021811523D
libRbt.so/2013.1/901 2013/11/27
 30 34  0  0  0  0  0  0  0  0999 V2000
   24.9859   38.2657   20.7908 N   0  0  0  0  0  0  0  0  0  0  0  0
   26.9263   41.6933   23.7898 N   0  0  0  0  0  0  0  0  0  0  0  0
   26.2335   37.6357   20.3481 C   0  0  0  0  0  0  0  0  0  0  0  0
   25.7572   36.8033   19.1671 C   0  0  2  0  0  0  0  0  0  0  0  0
   24.9474   39.0394   22.0267 C   0  0  0  0  0  0  0  0  0  0  0  0
   23.9400   38.9004   23.0033 C   0  0  0  0  0  0  0  0  0  0  0  0
   23.8852   39.6468   24.1539 C   0  0  0  0  0  0  0  0  0  0  0  0
   24.7721   41.4553   25.6292 C   0  0  0  0  0  0  0  0  0  0  0  0
   28.9558   42.6508   23.4951 C   0  0  0  0  0  0  0  0  0  0  0  0
   28.2060   40.6909   21.9727 C   0  0  0  0  0  0  0  0  0  0  0  0
   25.9574   40.0057   22.2956 C   0  0  0  0  0  0  0  0  0  0  0  0
   24.8390   44.1563   27.1202 O   0  0  0  0  0  0  0  0  0  0  0  0
   25.7921   43.3898   26.9650 C   0  0  0  0  0  0  0  0  0  0  0  0
   26.8204   43.3502   27.8035 O   0  0  0  0  0  0  0  0  0  0  0  0
   25.8458   42.4687   25.7987 C   0  0  1  0  0  0  0  0  0  0  0  0
   23.8753   41.2879   26.4627 O   0  0  0  0  0  0  0  0  0  0  0  0
   26.9111   42.5533   24.8854 C   0  0  0  0  0  0  0  0  0  0  0  0
   28.1007   41.7375   23.0253 C   0  0  0  0  0  0  0  0  0  0  0  0
   28.3693   43.4543   24.8922 S   0  0  0  0  0  0  0  0  0  0  0  0
   25.9141   40.7591   23.4906 C   0  0  0  0  0  0  0  0  0  0  0  0
   24.8650   40.6059   24.4100 C   0  0  0  0  0  0  0  0  0  0  0  0
   22.9842   37.9670   22.8230 F   0  0  0  0  0  0  0  0  0  0  0  0
   26.9633   40.2680   21.3523 N   0  0  0  0  0  0  0  0  0  0  0  0
   26.4714   41.1212   20.2917 C   0  0  0  0  0  0  0  0  0  0  0  0
   23.8188   37.5308   20.3164 C   0  0  0  0  0  0  0  0  0  0  0  0
   26.4542   37.1443   17.9681 O   0  0  0  0  0  0  0  0  0  0  0  0
   24.3008   37.1864   18.9172 C   0  0  2  0  0  0  0  0  0  0  0  0
   23.6320   36.0527   18.2510 N   0  0  0  0  0  0  0  0  0  0  0  0
   23.6382   34.7865   19.0061 C   0  0  0  0  0  0  0  0  0  0  0  0
   22.2966   36.3900   17.7345 C   0  0  0  0  0  0  0  0  0  0  0  0
  1  5  1  0  0  0  0
  2 17  1  0  0  0  0
  3  1  1  0  0  0  0
  4  3  1  0  0  0  0
  4 26  1  6  0  0  0
  5 11  2  0  0  0  0
  5  6  1  0  0  0  0
  6  7  2  0  0  0  0
  7 21  1  0  0  0  0
  8 15  1  0  0  0  0
  8 16  2  0  0  0  0
  9 19  1  0  0  0  0
 10 18  1  0  0  0  0
 11 20  1  0  0  0  0
 13 14  1  0  0  0  0
 13 12  2  0  0  0  0
 15 13  1  1  0  0  0
 17 19  2  0  0  0  0
 17 15  1  0  0  0  0
 18  2  1  0  0  0  0
 18  9  2  0  0  0  0
 20 21  2  0  0  0  0
 20  2  1  0  0  0  0
 21  8  1  0  0  0  0
 22  6  1  0  0  0  0
 23 11  1  0  0  0  0
 23 10  1  0  0  0  0
 24 23  1  0  0  0  0
 25  1  1  0  0  0  0
 27  4  1  0  0  0  0
 27 25  1  0  0  0  0
 27 28  1  1  0  0  0
 29 28  1  0  0  0  0
 30 28  1  0  0  0  0
M  END
>  <CHROM.1>
-133.52303101,2.02357587,-60.59343138,-57.65745768,59.38758498,25.62198645
40.06570650,22.66878022,1.84752950,-0.50037474,-2.17535932

>  <Name>
lig.pdb

>  <RI>
0

>  <Rbt.Current_Directory>
/home/itssahil/PROJECTS/Mol_Feturizer/New_Systems/rnas/6bfb

>  <Rbt.Executable>
rbdock ($Id: //depot/dev/client3/rdock/2013.1/src/exe/rbdock.cxx#4 $)

>  <Rbt.Library>
libRbt.so (2013.1, Build901 2013/11/27)

>  <Rbt.Parameter_File>
/export/apps/rDock/src/rDock_2013.1_src/data/scripts/dock_solv.prm

>  <Rbt.Receptor>
prm/blind_docking_80.prm

>  <SCORE>
-36.1321

>  <SCORE.INTER>
-31.702

>  <SCORE.INTER.CONST>
1

>  <SCORE.INTER.POLAR>
0

>  <SCORE.INTER.ROT>
3

>  <SCORE.INTER.SOLV>
11.91

>  <SCORE.INTER.VDW>
-30.7047

>  <SCORE.INTER.norm>
-1.05673

>  <SCORE.INTRA>
-4.43009

>  <SCORE.INTRA.DIHEDRAL>
-7.65327

>  <SCORE.INTRA.DIHEDRAL.0>
9.41909

>  <SCORE.INTRA.POLAR>
0

>  <SCORE.INTRA.POLAR.0>
0

>  <SCORE.INTRA.REPUL>
0

>  <SCORE.INTRA.REPUL.0>
0

>  <SCORE.INTRA.SOLV>
-0.185946

>  <SCORE.INTRA.SOLV.lig_0>
-26.2491

>  <SCORE.INTRA.VDW>
-0.510488

>  <SCORE.INTRA.VDW.0>
2.57239

>  <SCORE.INTRA.norm>
-0.14767

>  <SCORE.RESTR>
0

>  <SCORE.RESTR.CAVITY>
0

>  <SCORE.RESTR.norm>
0

>  <SCORE.SYSTEM>
0

>  <SCORE.SYSTEM.CONST>
0

>  <SCORE.SYSTEM.DIHEDRAL>
0

>  <SCORE.SYSTEM.SOLV>
0

>  <SCORE.SYSTEM.norm>
0

>  <SCORE.heavy>
30

>  <SCORE.norm>
-1.2044

>  <RMSD>
1.367

$$$$
lig.pdb
 OpenBabel11021811523D
libRbt.so/2013.1/901 2013/11/27
 30 34  0  0  0  0  0  0  0  0999 V2000
   26.6505   37.4469   20.2588 N   0  0  0  0  0  0  0  0  0  0  0  0
   26.5845   41.0392   23.6644 N   0  0  0  0  0  0  0  0  0  0  0  0
   27.9317   36.7921   20.5401 C   0  0  0  0  0  0  0  0  0  0  0  0
   28.1613   36.0002   19.2616 C   0  0  2  0  0  0  0  0  0  0  0  0
   25.9578   38.1934   21.3031 C   0  0  0  0  0  0  0  0  0  0  0  0
   24.6354   37.9221   21.7098 C   0  0  0  0  0  0  0  0  0  0  0  0
   23.9709   38.6407   22.6721 C   0  0  0  0  0  0  0  0  0  0  0  0
   23.8653   40.5213   24.3110 C   0  0  0  0  0  0  0  0  0  0  0  0
   28.3983   42.2354   24.2984 C   0  0  0  0  0  0  0  0  0  0  0  0
   28.6632   40.2214   22.6875 C   0  0  0  0  0  0  0  0  0  0  0  0
   26.6133   39.2691   21.9658 C   0  0  0  0  0  0  0  0  0  0  0  0
   23.4219   43.6071   25.5128 O   0  0  0  0  0  0  0  0  0  0  0  0
   23.9271   42.5448   25.8821 C   0  0  0  0  0  0  0  0  0  0  0  0
   23.9030   42.1446   27.1475 O   0  0  0  0  0  0  0  0  0  0  0  0
   24.6175   41.6528   24.9129 C   0  0  1  0  0  0  0  0  0  0  0  0
   22.7094   40.2370   24.6430 O   0  0  0  0  0  0  0  0  0  0  0  0
   25.9676   41.8762   24.5913 C   0  0  0  0  0  0  0  0  0  0  0  0
   27.9662   41.2334   23.5268 C   0  0  0  0  0  0  0  0  0  0  0  0
   27.1459   42.9441   25.2314 S   0  0  0  0  0  0  0  0  0  0  0  0
   25.9376   39.9955   22.9725 C   0  0  0  0  0  0  0  0  0  0  0  0
   24.6065   39.7059   23.3098 C   0  0  0  0  0  0  0  0  0  0  0  0
   23.9828   36.8842   21.1491 F   0  0  0  0  0  0  0  0  0  0  0  0
   27.9052   39.6622   21.5826 N   0  0  0  0  0  0  0  0  0  0  0  0
   27.8686   40.4655   20.3791 C   0  0  0  0  0  0  0  0  0  0  0  0
   25.9178   36.7560   19.2038 C   0  0  0  0  0  0  0  0  0  0  0  0
   29.4004   36.3483   18.6425 O   0  0  0  0  0  0  0  0  0  0  0  0
   27.0767   36.4297   18.2769 C   0  0  2  0  0  0  0  0  0  0  0  0
   26.8622   35.3305   17.3165 N   0  0  0  0  0  0  0  0  0  0  0  0
   26.3287   34.0841   17.8957 C   0  0  0  0  0  0  0  0  0  0  0  0
   26.1272   35.7480   16.1127 C   0  0  0  0  0  0  0  0  0  0  0  0
  1  5  1  0  0  0  0
  2 17  1  0  0  0  0
  3  1  1  0  0  0  0
  4  3  1  0  0  0  0
  4 26  1  6  0  0  0
  5 11  2  0  0  0  0
  5  6  1  0  0  0  0
  6  7  2  0  0  0  0
  7 21  1  0  0  0  0
  8 15  1  0  0  0  0
  8 16  2  0  0  0  0
  9 19  1  0  0  0  0
 10 18  1  0  0  0  0
 11 20  1  0  0  0  0
 13 14  1  0  0  0  0
 13 12  2  0  0  0  0
 15 13  1  1  0  0  0
 17 19  2  0  0  0  0
 17 15  1  0  0  0  0
 18  2  1  0  0  0  0
 18  9  2  0  0  0  0
 20 21  2  0  0  0  0
 20  2  1  0  0  0  0
 21  8  1  0  0  0  0
 22  6  1  0  0  0  0
 23 11  1  0  0  0  0
 23 10  1  0  0  0  0
 24 23  1  0  0  0  0
 25  1  1  0  0  0  0
 27  4  1  0  0  0  0
 27 25  1  0  0  0  0
 27 28  1  6  0  0  0
 29 28  1  0  0  0  0
 30 28  1  0  0  0  0
M  END
>  <CHROM.1>
-123.67256213,-175.65395097,-96.01474034,60.00235115,64.62280127,26.13115766
39.29619857,22.11873933,1.36673099,-0.27846290,-2.36237722

>  <Name>
lig.pdb

>  <RI>
0

>  <Rbt.Current_Directory>
/home/itssahil/PROJECTS/Mol_Feturizer/New_Systems/rnas/6bfb

>  <Rbt.Executable>
rbdock ($Id: //depot/dev/client3/rdock/2013.1/src/exe/rbdock.cxx#4 $)

>  <Rbt.Library>
libRbt.so (2013.1, Build901 2013/11/27)

>  <Rbt.Parameter_File>
/export/apps/rDock/src/rDock_2013.1_src/data/scripts/dock_solv.prm

>  <Rbt.Receptor>
prm/pocket_docking_3.prm

>  <SCORE>
-39.8497

>  <SCORE.INTER>
-34.6507

>  <SCORE.INTER.CONST>
1

>  <SCORE.INTER.POLAR>
-1.74483

>  <SCORE.INTER.ROT>
3

>  <SCORE.INTER.SOLV>
10.594

>  <SCORE.INTER.VDW>
-26.4157

>  <SCORE.INTER.norm>
-1.15502

>  <SCORE.INTRA>
-5.19896

>  <SCORE.INTRA.DIHEDRAL>
-7.48381

>  <SCORE.INTRA.DIHEDRAL.0>
9.41909

>  <SCORE.INTRA.POLAR>
0

>  <SCORE.INTRA.POLAR.0>
0

>  <SCORE.INTRA.REPUL>
0.0211264

>  <SCORE.INTRA.REPUL.0>
0

>  <SCORE.INTRA.SOLV>
-0.318918

>  <SCORE.INTRA.SOLV.lig_0>
-26.2491

>  <SCORE.INTRA.VDW>
-1.40322

>  <SCORE.INTRA.VDW.0>
2.57239

>  <SCORE.INTRA.norm>
-0.173299

>  <SCORE.RESTR>
0

>  <SCORE.RESTR.CAVITY>
0

>  <SCORE.RESTR.norm>
0

>  <SCORE.SYSTEM>
0

>  <SCORE.SYSTEM.CONST>
0

>  <SCORE.SYSTEM.DIHEDRAL>
0

>  <SCORE.SYSTEM.SOLV>
0

>  <SCORE.SYSTEM.norm>
0

>  <SCORE.heavy>
30

>  <SCORE.norm>
-1.32832

>  <RMSD>
1.371

$$$$
lig.pdb
 OpenBabel11021811523D
libRbt.so/2013.1/901 2013/11/27
 30 34  0  0  0  0  0  0  0  0999 V2000
   26.6789   37.5389   20.2821 N   0  0  0  0  0  0  0  0  0  0  0  0
   26.4621   41.0715   23.7435 N   0  0  0  0  0  0  0  0  0  0  0  0
   27.9821   36.9324   20.5705 C   0  0  0  0  0  0  0  0  0  0  0  0
   28.2531   36.1584   19.2893 C   0  0  2  0  0  0  0  0  0  0  0  0
   25.9489   38.2511   21.3249 C   0  0  0  0  0  0  0  0  0  0  0  0
   24.6260   37.9416   21.7018 C   0  0  0  0  0  0  0  0  0  0  0  0
   23.9264   38.6280   22.6626 C   0  0  0  0  0  0  0  0  0  0  0  0
   23.7445   40.4781   24.3294 C   0  0  0  0  0  0  0  0  0  0  0  0
   28.2342   42.3000   24.4313 C   0  0  0  0  0  0  0  0  0  0  0  0
   28.5779   40.3200   22.7934 C   0  0  0  0  0  0  0  0  0  0  0  0
   26.5656   39.3311   22.0173 C   0  0  0  0  0  0  0  0  0  0  0  0
   23.1059   43.4701   25.5531 O   0  0  0  0  0  0  0  0  0  0  0  0
   23.7279   42.4760   25.9339 C   0  0  0  0  0  0  0  0  0  0  0  0
   23.7993   42.1249   27.2121 O   0  0  0  0  0  0  0  0  0  0  0  0
   24.4577   41.6171   24.9639 C   0  0  1  0  0  0  0  0  0  0  0  0
   22.5899   40.1607   24.6346 O   0  0  0  0  0  0  0  0  0  0  0  0
   25.8078   41.8780   24.6718 C   0  0  0  0  0  0  0  0  0  0  0  0
   27.8409   41.3009   23.6355 C   0  0  0  0  0  0  0  0  0  0  0  0
   26.9476   42.9630   25.3515 S   0  0  0  0  0  0  0  0  0  0  0  0
   25.8537   40.0243   23.0225 C   0  0  0  0  0  0  0  0  0  0  0  0
   24.5239   39.6974   23.3296 C   0  0  0  0  0  0  0  0  0  0  0  0
   24.0094   36.8978   21.1120 F   0  0  0  0  0  0  0  0  0  0  0  0
   27.8545   39.7613   21.6653 N   0  0  0  0  0  0  0  0  0  0  0  0
   27.8210   40.5833   20.4745 C   0  0  0  0  0  0  0  0  0  0  0  0
   25.9826   36.8270   19.2165 C   0  0  0  0  0  0  0  0  0  0  0  0
   29.4830   36.5583   18.6832 O   0  0  0  0  0  0  0  0  0  0  0  0
   27.1612   36.5519   18.2978 C   0  0  2  0  0  0  0  0  0  0  0  0
   26.9976   35.4515   17.3288 N   0  0  0  0  0  0  0  0  0  0  0  0
   26.4802   34.1904   17.8903 C   0  0  0  0  0  0  0  0  0  0  0  0
   26.2833   35.8557   16.1081 C   0  0  0  0  0  0  0  0  0  0  0  0
  1  5  1  0  0  0  0
  2 17  1  0  0  0  0
  3  1  1  0  0  0  0
  4  3  1  0  0  0  0
  4 26  1  6  0  0  0
  5 11  2  0  0  0  0
  5  6  1  0  0  0  0
  6  7  2  0  0  0  0
  7 21  1  0  0  0  0
  8 15  1  0  0  0  0
  8 16  2  0  0  0  0
  9 19  1  0  0  0  0
 10 18  1  0  0  0  0
 11 20  1  0  0  0  0
 13 14  1  0  0  0  0
 13 12  2  0  0  0  0
 15 13  1  1  0  0  0
 17 19  2  0  0  0  0
 17 15  1  0  0  0  0
 18  2  1  0  0  0  0
 18  9  2  0  0  0  0
 20 21  2  0  0  0  0
 20  2  1  0  0  0  0
 21  8  1  0  0  0  0
 22  6  1  0  0  0  0
 23 11  1  0  0  0  0
 23 10  1  0  0  0  0
 24 23  1  0  0  0  0
 25  1  1  0  0  0  0
 27  4  1  0  0  0  0
 27 25  1  0  0  0  0
 27 28  1  6  0  0  0
 29 28  1  0  0  0  0
 30 28  1  0  0  0  0
M  END
>  <CHROM.1>
-124.85366402,-177.30378237,-89.64794003,64.63296702,65.89843968,26.08162352
39.34258157,22.16303357,1.33567915,-0.27971535,-2.35519564

>  <Name>
lig.pdb

>  <RI>
0

>  <Rbt.Current_Directory>
/home/itssahil/PROJECTS/Mol_Feturizer/New_Systems/rnas/6bfb

>  <Rbt.Executable>
rbdock ($Id: //depot/dev/client3/rdock/2013.1/src/exe/rbdock.cxx#4 $)

>  <Rbt.Library>
libRbt.so (2013.1, Build901 2013/11/27)

>  <Rbt.Parameter_File>
/export/apps/rDock/src/rDock_2013.1_src/data/scripts/dock_solv.prm

>  <Rbt.Receptor>
prm/pocket_docking_3.prm

>  <SCORE>
-39.9399

>  <SCORE.INTER>
-34.7448

>  <SCORE.INTER.CONST>
1

>  <SCORE.INTER.POLAR>
-1.78993

>  <SCORE.INTER.ROT>
3

>  <SCORE.INTER.SOLV>
10.4045

>  <SCORE.INTER.VDW>
-26.2649

>  <SCORE.INTER.norm>
-1.15816

>  <SCORE.INTRA>
-5.19508

>  <SCORE.INTRA.DIHEDRAL>
-7.41246

>  <SCORE.INTRA.DIHEDRAL.0>
9.41909

>  <SCORE.INTRA.POLAR>
0

>  <SCORE.INTRA.POLAR.0>
0

>  <SCORE.INTRA.REPUL>
0.0180706

>  <SCORE.INTRA.REPUL.0>
0

>  <SCORE.INTRA.SOLV>
-0.323152

>  <SCORE.INTRA.SOLV.lig_0>
-26.2491

>  <SCORE.INTRA.VDW>
-1.41763

>  <SCORE.INTRA.VDW.0>
2.57239

>  <SCORE.INTRA.norm>
-0.173169

>  <SCORE.RESTR>
0

>  <SCORE.RESTR.CAVITY>
0

>  <SCORE.RESTR.norm>
0

>  <SCORE.SYSTEM>
0

>  <SCORE.SYSTEM.CONST>
0

>  <SCORE.SYSTEM.DIHEDRAL>
0

>  <SCORE.SYSTEM.SOLV>
0

>  <SCORE.SYSTEM.norm>
0

>  <SCORE.heavy>
30

>  <SCORE.norm>
-1.33133

>  <RMSD>
1.387

$$$$
lig.pdb
 OpenBabel11021811523D
libRbt.so/2013.1/901 2013/11/27
 30 34  0  0  0  0  0  0  0  0999 V2000
   26.3859   37.7767   20.7833 N   0  0  0  0  0  0  0  0  0  0  0  0
   26.1026   40.9589   24.5649 N   0  0  0  0  0  0  0  0  0  0  0  0
   27.7594   37.3276   21.0308 C   0  0  0  0  0  0  0  0  0  0  0  0
   28.0679   36.5591   19.7547 C   0  0  2  0  0  0  0  0  0  0  0  0
   25.6196   38.4266   21.8406 C   0  0  0  0  0  0  0  0  0  0  0  0
   24.2575   38.1634   22.0917 C   0  0  0  0  0  0  0  0  0  0  0  0
   23.5262   38.7937   23.0673 C   0  0  0  0  0  0  0  0  0  0  0  0
   23.3207   40.4788   24.8982 C   0  0  0  0  0  0  0  0  0  0  0  0
   27.8823   42.0028   25.4954 C   0  0  0  0  0  0  0  0  0  0  0  0
   28.2397   40.1758   23.6910 C   0  0  0  0  0  0  0  0  0  0  0  0
   26.2404   39.3934   22.6809 C   0  0  0  0  0  0  0  0  0  0  0  0
   22.0832   42.5075   26.5610 O   0  0  0  0  0  0  0  0  0  0  0  0
   23.2924   42.3068   26.6939 C   0  0  0  0  0  0  0  0  0  0  0  0
   23.9905   42.7994   27.7098 O   0  0  0  0  0  0  0  0  0  0  0  0
   24.0451   41.5040   25.6936 C   0  0  1  0  0  0  0  0  0  0  0  0
   22.1310   40.2045   25.0890 O   0  0  0  0  0  0  0  0  0  0  0  0
   25.4254   41.7089   25.5235 C   0  0  0  0  0  0  0  0  0  0  0  0
   27.4961   41.1127   24.5762 C   0  0  0  0  0  0  0  0  0  0  0  0
   26.5684   42.6499   26.3877 S   0  0  0  0  0  0  0  0  0  0  0  0
   25.4940   40.0269   23.7002 C   0  0  0  0  0  0  0  0  0  0  0  0
   24.1292   39.7537   23.8798 C   0  0  0  0  0  0  0  0  0  0  0  0
   23.6310   37.2224   21.3571 F   0  0  0  0  0  0  0  0  0  0  0  0
   27.5735   39.7761   22.4645 N   0  0  0  0  0  0  0  0  0  0  0  0
   27.6737   40.7116   21.3646 C   0  0  0  0  0  0  0  0  0  0  0  0
   25.7352   36.9662   19.7600 C   0  0  0  0  0  0  0  0  0  0  0  0
   29.2210   37.0805   19.0924 O   0  0  0  0  0  0  0  0  0  0  0  0
   26.9019   36.8040   18.8004 C   0  0  2  0  0  0  0  0  0  0  0  0
   26.8278   35.6698   17.8598 N   0  0  0  0  0  0  0  0  0  0  0  0
   26.4872   34.3702   18.4668 C   0  0  0  0  0  0  0  0  0  0  0  0
   26.0190   35.9592   16.6657 C   0  0  0  0  0  0  0  0  0  0  0  0
  1  5  1  0  0  0  0
  2 17  1  0  0  0  0
  3  1  1  0  0  0  0
  4  3  1  0  0  0  0
  4 26  1  6  0  0  0
  5 11  2  0  0  0  0
  5  6  1  0  0  0  0
  6  7  2  0  0  0  0
  7 21  1  0  0  0  0
  8 15  1  0  0  0  0
  8 16  2  0  0  0  0
  9 19  1  0  0  0  0
 10 18  1  0  0  0  0
 11 20  1  0  0  0  0
 13 14  1  0  0  0  0
 13 12  2  0  0  0  0
 15 13  1  1  0  0  0
 17 19  2  0  0  0  0
 17 15  1  0  0  0  0
 18  2  1  0  0  0  0
 18  9  2  0  0  0  0
 20 21  2  0  0  0  0
 20  2  1  0  0  0  0
 21  8  1  0  0  0  0
 22  6  1  0  0  0  0
 23 11  1  0  0  0  0
 23 10  1  0  0  0  0
 24 23  1  0  0  0  0
 25  1  1  0  0  0  0
 27  4  1  0  0  0  0
 27 25  1  0  0  0  0
 27 28  1  6  0  0  0
 29 28  1  0  0  0  0
 30 28  1  0  0  0  0
M  END
>  <CHROM.1>
-138.46504355,1.14360139,-26.51013076,66.01130594,65.49082048,25.75961120
39.40046499,22.81757555,1.32190453,-0.19378873,-2.28108518

>  <Name>
lig.pdb

>  <RI>
0

>  <Rbt.Current_Directory>
/home/itssahil/PROJECTS/Mol_Feturizer/New_Systems/rnas/6bfb

>  <Rbt.Executable>
rbdock ($Id: //depot/dev/client3/rdock/2013.1/src/exe/rbdock.cxx#4 $)

>  <Rbt.Library>
libRbt.so (2013.1, Build901 2013/11/27)

>  <Rbt.Parameter_File>
/export/apps/rDock/src/rDock_2013.1_src/data/scripts/dock_solv.prm

>  <Rbt.Receptor>
prm/blind_docking_80.prm

>  <SCORE>
-36.895

>  <SCORE.INTER>
-33.1424

>  <SCORE.INTER.CONST>
1

>  <SCORE.INTER.POLAR>
-0.954516

>  <SCORE.INTER.ROT>
3

>  <SCORE.INTER.SOLV>
11.3886

>  <SCORE.INTER.VDW>
-28.3094

>  <SCORE.INTER.norm>
-1.10475

>  <SCORE.INTRA>
-3.75262

>  <SCORE.INTRA.DIHEDRAL>
-7.3615

>  <SCORE.INTRA.DIHEDRAL.0>
9.41909

>  <SCORE.INTRA.POLAR>
0

>  <SCORE.INTRA.POLAR.0>
0

>  <SCORE.INTRA.REPUL>
0

>  <SCORE.INTRA.REPUL.0>
0

>  <SCORE.INTRA.SOLV>
-0.136532

>  <SCORE.INTRA.SOLV.lig_0>
-26.2491

>  <SCORE.INTRA.VDW>
-0.00360471

>  <SCORE.INTRA.VDW.0>
2.57239

>  <SCORE.INTRA.norm>
-0.125087

>  <SCORE.RESTR>
0

>  <SCORE.RESTR.CAVITY>
0

>  <SCORE.RESTR.norm>
0

>  <SCORE.SYSTEM>
0

>  <SCORE.SYSTEM.CONST>
0

>  <SCORE.SYSTEM.DIHEDRAL>
0

>  <SCORE.SYSTEM.SOLV>
0

>  <SCORE.SYSTEM.norm>
0

>  <SCORE.heavy>
30

>  <SCORE.norm>
-1.22983

>  <RMSD>
1.391

$$$$
lig.pdb
 OpenBabel11021811523D
libRbt.so/2013.1/901 2013/11/27
 30 34  0  0  0  0  0  0  0  0999 V2000
   26.3957   37.8523   20.8404 N   0  0  0  0  0  0  0  0  0  0  0  0
   26.0587   40.9701   24.6710 N   0  0  0  0  0  0  0  0  0  0  0  0
   27.7738   37.4177   21.0882 C   0  0  0  0  0  0  0  0  0  0  0  0
   28.0978   36.6701   19.8036 C   0  0  2  0  0  0  0  0  0  0  0  0
   25.6166   38.4783   21.9027 C   0  0  0  0  0  0  0  0  0  0  0  0
   24.2550   38.1995   22.1398 C   0  0  0  0  0  0  0  0  0  0  0  0
   23.5115   38.8077   23.1203 C   0  0  0  0  0  0  0  0  0  0  0  0
   23.2788   40.4609   24.9767 C   0  0  0  0  0  0  0  0  0  0  0  0
   27.8228   42.0138   25.6309 C   0  0  0  0  0  0  0  0  0  0  0  0
   28.2085   40.2195   23.7997 C   0  0  0  0  0  0  0  0  0  0  0  0
   26.2231   39.4366   22.7629 C   0  0  0  0  0  0  0  0  0  0  0  0
   22.3922   41.7081   27.5278 O   0  0  0  0  0  0  0  0  0  0  0  0
   23.2223   42.2591   26.8016 C   0  0  0  0  0  0  0  0  0  0  0  0
   23.4682   43.5623   26.8594 O   0  0  0  0  0  0  0  0  0  0  0  0
   23.9888   41.4792   25.7938 C   0  0  1  0  0  0  0  0  0  0  0  0
   22.0902   40.1734   25.1546 O   0  0  0  0  0  0  0  0  0  0  0  0
   25.3684   41.6986   25.6369 C   0  0  0  0  0  0  0  0  0  0  0  0
   27.4507   41.1355   24.6947 C   0  0  0  0  0  0  0  0  0  0  0  0
   26.4972   42.6350   26.5242 S   0  0  0  0  0  0  0  0  0  0  0  0
   25.4642   40.0471   23.7870 C   0  0  0  0  0  0  0  0  0  0  0  0
   24.1006   39.7594   23.9525 C   0  0  0  0  0  0  0  0  0  0  0  0
   23.6419   37.2653   21.3856 F   0  0  0  0  0  0  0  0  0  0  0  0
   27.5543   39.8341   22.5622 N   0  0  0  0  0  0  0  0  0  0  0  0
   27.6541   40.7882   21.4784 C   0  0  0  0  0  0  0  0  0  0  0  0
   25.7600   37.0470   19.8038 C   0  0  0  0  0  0  0  0  0  0  0  0
   29.2469   37.2149   19.1534 O   0  0  0  0  0  0  0  0  0  0  0  0
   26.9329   36.9124   18.8473 C   0  0  2  0  0  0  0  0  0  0  0  0
   26.8775   35.7897   17.8917 N   0  0  0  0  0  0  0  0  0  0  0  0
   26.5260   34.4827   18.4762 C   0  0  0  0  0  0  0  0  0  0  0  0
   26.0918   36.0934   16.6859 C   0  0  0  0  0  0  0  0  0  0  0  0
  1  5  1  0  0  0  0
  2 17  1  0  0  0  0
  3  1  1  0  0  0  0
  4  3  1  0  0  0  0
  4 26  1  6  0  0  0
  5 11  2  0  0  0  0
  5  6  1  0  0  0  0
  6  7  2  0  0  0  0
  7 21  1  0  0  0  0
  8 15  1  0  0  0  0
  8 16  2  0  0  0  0
  9 19  1  0  0  0  0
 10 18  1  0  0  0  0
 11 20  1  0  0  0  0
 13 14  1  0  0  0  0
 13 12  2  0  0  0  0
 15 13  1  1  0  0  0
 17 19  2  0  0  0  0
 17 15  1  0  0  0  0
 18  2  1  0  0  0  0
 18  9  2  0  0  0  0
 20 21  2  0  0  0  0
 20  2  1  0  0  0  0
 21  8  1  0  0  0  0
 22  6  1  0  0  0  0
 23 11  1  0  0  0  0
 23 10  1  0  0  0  0
 24 23  1  0  0  0  0
 25  1  1  0  0  0  0
 27  4  1  0  0  0  0
 27 25  1  0  0  0  0
 27 28  1  6  0  0  0
 29 28  1  0  0  0  0
 30 28  1  0  0  0  0
M  END
>  <CHROM.1>
-138.80889735,1.96657343,42.61759274,64.72866937,66.60782683,25.73837879
39.44187688,22.89036259,1.30640555,-0.22008926,-2.27865028

>  <Name>
lig.pdb

>  <RI>
0

>  <Rbt.Current_Directory>
/home/itssahil/PROJECTS/Mol_Feturizer/New_Systems/rnas/6bfb

>  <Rbt.Executable>
rbdock ($Id: //depot/dev/client3/rdock/2013.1/src/exe/rbdock.cxx#4 $)

>  <Rbt.Library>
libRbt.so (2013.1, Build901 2013/11/27)

>  <Rbt.Parameter_File>
/export/apps/rDock/src/rDock_2013.1_src/data/scripts/dock_solv.prm

>  <Rbt.Receptor>
prm/pocket_docking_7.prm

>  <SCORE>
-37.5236

>  <SCORE.INTER>
-33.2763

>  <SCORE.INTER.CONST>
1

>  <SCORE.INTER.POLAR>
-0.959166

>  <SCORE.INTER.ROT>
3

>  <SCORE.INTER.SOLV>
11.5461

>  <SCORE.INTER.VDW>
-28.4357

>  <SCORE.INTER.norm>
-1.10921

>  <SCORE.INTRA>
-4.24729

>  <SCORE.INTRA.DIHEDRAL>
-7.39781

>  <SCORE.INTRA.DIHEDRAL.0>
9.41909

>  <SCORE.INTRA.POLAR>
0

>  <SCORE.INTRA.POLAR.0>
0

>  <SCORE.INTRA.REPUL>
0

>  <SCORE.INTRA.REPUL.0>
0

>  <SCORE.INTRA.SOLV>
-0.171784

>  <SCORE.INTRA.SOLV.lig_0>
-26.2491

>  <SCORE.INTRA.VDW>
-0.462494

>  <SCORE.INTRA.VDW.0>
2.57239

>  <SCORE.INTRA.norm>
-0.141576

>  <SCORE.RESTR>
0

>  <SCORE.RESTR.CAVITY>
0

>  <SCORE.RESTR.norm>
0

>  <SCORE.SYSTEM>
0

>  <SCORE.SYSTEM.CONST>
0

>  <SCORE.SYSTEM.DIHEDRAL>
0

>  <SCORE.SYSTEM.SOLV>
0

>  <SCORE.SYSTEM.norm>
0

>  <SCORE.heavy>
30

>  <SCORE.norm>
-1.25079

>  <RMSD>
1.400

$$$$
lig.pdb
 OpenBabel11021811523D
libRbt.so/2013.1/901 2013/11/27
 30 34  0  0  0  0  0  0  0  0999 V2000
   26.6525   37.5143   20.3486 N   0  0  0  0  0  0  0  0  0  0  0  0
   26.3065   41.0724   23.7731 N   0  0  0  0  0  0  0  0  0  0  0  0
   27.9811   36.9771   20.6578 C   0  0  0  0  0  0  0  0  0  0  0  0
   28.2902   36.1755   19.4023 C   0  0  2  0  0  0  0  0  0  0  0  0
   25.8883   38.2256   21.3672 C   0  0  0  0  0  0  0  0  0  0  0  0
   24.5607   37.9022   21.7145 C   0  0  0  0  0  0  0  0  0  0  0  0
   23.8292   38.5874   22.6521 C   0  0  0  0  0  0  0  0  0  0  0  0
   23.5832   40.4487   24.2980 C   0  0  0  0  0  0  0  0  0  0  0  0
   28.0455   42.3294   24.4931 C   0  0  0  0  0  0  0  0  0  0  0  0
   28.4542   40.3405   22.8812 C   0  0  0  0  0  0  0  0  0  0  0  0
   26.4742   39.3192   22.0651 C   0  0  0  0  0  0  0  0  0  0  0  0
   23.8641   42.5856   27.0562 O   0  0  0  0  0  0  0  0  0  0  0  0
   23.5021   42.4596   25.8844 C   0  0  0  0  0  0  0  0  0  0  0  0
   22.4178   43.0560   25.4041 O   0  0  0  0  0  0  0  0  0  0  0  0
   24.2662   41.6021   24.9398 C   0  0  1  0  0  0  0  0  0  0  0  0
   22.4256   40.1190   24.5779 O   0  0  0  0  0  0  0  0  0  0  0  0
   25.6196   41.8780   24.6783 C   0  0  0  0  0  0  0  0  0  0  0  0
   27.6846   41.3187   23.6967 C   0  0  0  0  0  0  0  0  0  0  0  0
   26.7286   42.9832   25.3761 S   0  0  0  0  0  0  0  0  0  0  0  0
   25.7292   40.0114   23.0466 C   0  0  0  0  0  0  0  0  0  0  0  0
   24.3966   39.6699   23.3242 C   0  0  0  0  0  0  0  0  0  0  0  0
   23.9720   36.8456   21.1189 F   0  0  0  0  0  0  0  0  0  0  0  0
   27.7657   39.7631   21.7407 N   0  0  0  0  0  0  0  0  0  0  0  0
   27.7508   40.5747   20.5424 C   0  0  0  0  0  0  0  0  0  0  0  0
   25.9920   36.7378   19.3055 C   0  0  0  0  0  0  0  0  0  0  0  0
   29.5023   36.6112   18.7852 O   0  0  0  0  0  0  0  0  0  0  0  0
   27.1841   36.4873   18.3975 C   0  0  2  0  0  0  0  0  0  0  0  0
   27.0732   35.3501   17.4641 N   0  0  0  0  0  0  0  0  0  0  0  0
   26.6506   34.0755   18.0726 C   0  0  0  0  0  0  0  0  0  0  0  0
   26.3093   35.6707   16.2485 C   0  0  0  0  0  0  0  0  0  0  0  0
  1  5  1  0  0  0  0
  2 17  1  0  0  0  0
  3  1  1  0  0  0  0
  4  3  1  0  0  0  0
  4 26  1  6  0  0  0
  5 11  2  0  0  0  0
  5  6  1  0  0  0  0
  6  7  2  0  0  0  0
  7 21  1  0  0  0  0
  8 15  1  0  0  0  0
  8 16  2  0  0  0  0
  9 19  1  0  0  0  0
 10 18  1  0  0  0  0
 11 20  1  0  0  0  0
 13 14  1  0  0  0  0
 13 12  2  0  0  0  0
 15 13  1  1  0  0  0
 17 19  2  0  0  0  0
 17 15  1  0  0  0  0
 18  2  1  0  0  0  0
 18  9  2  0  0  0  0
 20 21  2  0  0  0  0
 20  2  1  0  0  0  0
 21  8  1  0  0  0  0
 22  6  1  0  0  0  0
 23 11  1  0  0  0  0
 23 10  1  0  0  0  0
 24 23  1  0  0  0  0
 25  1  1  0  0  0  0
 27  4  1  0  0  0  0
 27 25  1  0  0  0  0
 27 28  1  6  0  0  0
 29 28  1  0  0  0  0
 30 28  1  0  0  0  0
M  END
>  <CHROM.1>
-127.48995674,-177.35339070,120.05570036,62.39175397,64.15403217,25.97909121
39.32601541,22.19135517,1.30634052,-0.25026445,-2.37532407

>  <Name>
lig.pdb

>  <RI>
0

>  <Rbt.Current_Directory>
/home/itssahil/PROJECTS/Mol_Feturizer/New_Systems/rnas/6bfb

>  <Rbt.Executable>
rbdock ($Id: //depot/dev/client3/rdock/2013.1/src/exe/rbdock.cxx#4 $)

>  <Rbt.Library>
libRbt.so (2013.1, Build901 2013/11/27)

>  <Rbt.Parameter_File>
/export/apps/rDock/src/rDock_2013.1_src/data/scripts/dock_solv.prm

>  <Rbt.Receptor>
prm/pocket_docking_3.prm

>  <SCORE>
-39.9734

>  <SCORE.INTER>
-35.0976

>  <SCORE.INTER.CONST>
1

>  <SCORE.INTER.POLAR>
-1.83095

>  <SCORE.INTER.ROT>
3

>  <SCORE.INTER.SOLV>
10.1896

>  <SCORE.INTER.VDW>
-26.2918

>  <SCORE.INTER.norm>
-1.16992

>  <SCORE.INTRA>
-4.87577

>  <SCORE.INTRA.DIHEDRAL>
-7.53136

>  <SCORE.INTRA.DIHEDRAL.0>
9.41909

>  <SCORE.INTRA.POLAR>
0

>  <SCORE.INTRA.POLAR.0>
0

>  <SCORE.INTRA.REPUL>
0.0111921

>  <SCORE.INTRA.REPUL.0>
0

>  <SCORE.INTRA.SOLV>
-0.241779

>  <SCORE.INTRA.SOLV.lig_0>
-26.2491

>  <SCORE.INTRA.VDW>
-1.04516

>  <SCORE.INTRA.VDW.0>
2.57239

>  <SCORE.INTRA.norm>
-0.162526

>  <SCORE.RESTR>
0

>  <SCORE.RESTR.CAVITY>
0

>  <SCORE.RESTR.norm>
0

>  <SCORE.SYSTEM>
0

>  <SCORE.SYSTEM.CONST>
0

>  <SCORE.SYSTEM.DIHEDRAL>
0

>  <SCORE.SYSTEM.SOLV>
0

>  <SCORE.SYSTEM.norm>
0

>  <SCORE.heavy>
30

>  <SCORE.norm>
-1.33245

>  <RMSD>
1.404

$$$$
lig.pdb
 OpenBabel11021811523D
libRbt.so/2013.1/901 2013/11/27
 30 34  0  0  0  0  0  0  0  0999 V2000
   26.6901   37.5896   20.2192 N   0  0  0  0  0  0  0  0  0  0  0  0
   26.3404   41.0738   23.7185 N   0  0  0  0  0  0  0  0  0  0  0  0
   27.9758   36.9584   20.5328 C   0  0  0  0  0  0  0  0  0  0  0  0
   28.2866   36.2287   19.2347 C   0  0  2  0  0  0  0  0  0  0  0  0
   25.9289   38.2713   21.2599 C   0  0  0  0  0  0  0  0  0  0  0  0
   24.6088   37.9256   21.6145 C   0  0  0  0  0  0  0  0  0  0  0  0
   23.8797   38.5833   22.5735 C   0  0  0  0  0  0  0  0  0  0  0  0
   23.6302   40.4082   24.2592 C   0  0  0  0  0  0  0  0  0  0  0  0
   28.0727   42.3361   24.4455 C   0  0  0  0  0  0  0  0  0  0  0  0
   28.4867   40.3849   22.7894 C   0  0  0  0  0  0  0  0  0  0  0  0
   26.5097   39.3574   21.9736 C   0  0  0  0  0  0  0  0  0  0  0  0
   23.9005   42.4696   27.0637 O   0  0  0  0  0  0  0  0  0  0  0  0
   23.5432   42.3856   25.8867 C   0  0  0  0  0  0  0  0  0  0  0  0
   22.4646   43.0043   25.4221 O   0  0  0  0  0  0  0  0  0  0  0  0
   24.3069   41.5562   24.9169 C   0  0  1  0  0  0  0  0  0  0  0  0
   22.4795   40.0595   24.5444 O   0  0  0  0  0  0  0  0  0  0  0  0
   25.6541   41.8529   24.6469 C   0  0  0  0  0  0  0  0  0  0  0  0
   27.7147   41.3375   23.6326 C   0  0  0  0  0  0  0  0  0  0  0  0
   26.7580   42.9567   25.3553 S   0  0  0  0  0  0  0  0  0  0  0  0
   25.7675   40.0210   22.9767 C   0  0  0  0  0  0  0  0  0  0  0  0
   24.4419   39.6586   23.2613 C   0  0  0  0  0  0  0  0  0  0  0  0
   24.0258   36.8745   21.0039 F   0  0  0  0  0  0  0  0  0  0  0  0
   27.7926   39.8226   21.6448 N   0  0  0  0  0  0  0  0  0  0  0  0
   27.7556   40.6579   20.4634 C   0  0  0  0  0  0  0  0  0  0  0  0
   26.0271   36.9248   19.1030 C   0  0  0  0  0  0  0  0  0  0  0  0
   29.5421   36.6367   18.6896 O   0  0  0  0  0  0  0  0  0  0  0  0
   27.2362   36.6703   18.2189 C   0  0  2  0  0  0  0  0  0  0  0  0
   27.0981   35.6079   17.2046 N   0  0  0  0  0  0  0  0  0  0  0  0
   25.8266   35.6116   16.4586 C   0  0  0  0  0  0  0  0  0  0  0  0
   28.2670   35.4973   16.3184 C   0  0  0  0  0  0  0  0  0  0  0  0
  1  5  1  0  0  0  0
  2 17  1  0  0  0  0
  3  1  1  0  0  0  0
  4  3  1  0  0  0  0
  4 26  1  6  0  0  0
  5 11  2  0  0  0  0
  5  6  1  0  0  0  0
  6  7  2  0  0  0  0
  7 21  1  0  0  0  0
  8 15  1  0  0  0  0
  8 16  2  0  0  0  0
  9 19  1  0  0  0  0
 10 18  1  0  0  0  0
 11 20  1  0  0  0  0
 13 14  1  0  0  0  0
 13 12  2  0  0  0  0
 15 13  1  1  0  0  0
 17 19  2  0  0  0  0
 17 15  1  0  0  0  0
 18  2  1  0  0  0  0
 18  9  2  0  0  0  0
 20 21  2  0  0  0  0
 20  2  1  0  0  0  0
 21  8  1  0  0  0  0
 22  6  1  0  0  0  0
 23 11  1  0  0  0  0
 23 10  1  0  0  0  0
 24 23  1  0  0  0  0
 25  1  1  0  0  0  0
 27  4  1  0  0  0  0
 27 25  1  0  0  0  0
 27 28  1  6  0  0  0
 29 28  1  0  0  0  0
 30 28  1  0  0  0  0
M  END
>  <CHROM.1>
-122.07863758,178.90121721,118.52142243,59.65845271,158.16926439,26.05082566
39.39302648,22.06300276,1.28496253,-0.24987785,-2.32885658

>  <Name>
lig.pdb

>  <RI>
0

>  <Rbt.Current_Directory>
/home/itssahil/PROJECTS/Mol_Feturizer/New_Systems/rnas/6bfb

>  <Rbt.Executable>
rbdock ($Id: //depot/dev/client3/rdock/2013.1/src/exe/rbdock.cxx#4 $)

>  <Rbt.Library>
libRbt.so (2013.1, Build901 2013/11/27)

>  <Rbt.Parameter_File>
/export/apps/rDock/src/rDock_2013.1_src/data/scripts/dock_solv.prm

>  <Rbt.Receptor>
prm/pocket_docking_6.prm

>  <SCORE>
-38.7835

>  <SCORE.INTER>
-34.0821

>  <SCORE.INTER.CONST>
1

>  <SCORE.INTER.POLAR>
-1.83095

>  <SCORE.INTER.ROT>
3

>  <SCORE.INTER.SOLV>
10.0158

>  <SCORE.INTER.VDW>
-25.5569

>  <SCORE.INTER.norm>
-1.13607

>  <SCORE.INTRA>
-4.7014

>  <SCORE.INTRA.DIHEDRAL>
-7.34514

>  <SCORE.INTRA.DIHEDRAL.0>
9.41909

>  <SCORE.INTRA.POLAR>
0

>  <SCORE.INTRA.POLAR.0>
0

>  <SCORE.INTRA.REPUL>
0.0252223

>  <SCORE.INTRA.REPUL.0>
0

>  <SCORE.INTRA.SOLV>
-0.161709

>  <SCORE.INTRA.SOLV.lig_0>
-26.2491

>  <SCORE.INTRA.VDW>
-1.07409

>  <SCORE.INTRA.VDW.0>
2.57239

>  <SCORE.INTRA.norm>
-0.156713

>  <SCORE.RESTR>
0

>  <SCORE.RESTR.CAVITY>
0

>  <SCORE.RESTR.norm>
0

>  <SCORE.SYSTEM>
0

>  <SCORE.SYSTEM.CONST>
0

>  <SCORE.SYSTEM.DIHEDRAL>
0

>  <SCORE.SYSTEM.SOLV>
0

>  <SCORE.SYSTEM.norm>
0

>  <SCORE.heavy>
30

>  <SCORE.norm>
-1.29278

>  <RMSD>
1.409

$$$$
lig.pdb
 OpenBabel11021811523D
libRbt.so/2013.1/901 2013/11/27
 30 34  0  0  0  0  0  0  0  0999 V2000
   26.3865   37.8638   20.8462 N   0  0  0  0  0  0  0  0  0  0  0  0
   26.0317   40.9652   24.6884 N   0  0  0  0  0  0  0  0  0  0  0  0
   27.7607   37.4185   21.0968 C   0  0  0  0  0  0  0  0  0  0  0  0
   28.0886   36.6858   19.8045 C   0  0  2  0  0  0  0  0  0  0  0  0
   25.6042   38.4802   21.9118 C   0  0  0  0  0  0  0  0  0  0  0  0
   24.2451   38.1905   22.1497 C   0  0  0  0  0  0  0  0  0  0  0  0
   23.4985   38.7897   23.1334 C   0  0  0  0  0  0  0  0  0  0  0  0
   23.2561   40.4345   24.9961 C   0  0  0  0  0  0  0  0  0  0  0  0
   27.7894   42.0185   25.6497 C   0  0  0  0  0  0  0  0  0  0  0  0
   28.1858   40.2337   23.8116 C   0  0  0  0  0  0  0  0  0  0  0  0
   26.2049   39.4399   22.7746 C   0  0  0  0  0  0  0  0  0  0  0  0
   22.3698   41.6645   27.5584 O   0  0  0  0  0  0  0  0  0  0  0  0
   23.1888   42.2257   26.8274 C   0  0  0  0  0  0  0  0  0  0  0  0
   23.4183   43.5319   26.8832 O   0  0  0  0  0  0  0  0  0  0  0  0
   23.9596   41.4550   25.8158 C   0  0  1  0  0  0  0  0  0  0  0  0
   22.0699   40.1376   25.1745 O   0  0  0  0  0  0  0  0  0  0  0  0
   25.3374   41.6852   25.6578 C   0  0  0  0  0  0  0  0  0  0  0  0
   27.4225   41.1408   24.7109 C   0  0  0  0  0  0  0  0  0  0  0  0
   26.4604   42.6268   26.5470 S   0  0  0  0  0  0  0  0  0  0  0  0
   25.4428   40.0410   23.8020 C   0  0  0  0  0  0  0  0  0  0  0  0
   24.0816   39.7427   23.9682 C   0  0  0  0  0  0  0  0  0  0  0  0
   23.6378   37.2545   21.3930 F   0  0  0  0  0  0  0  0  0  0  0  0
   27.5328   39.8479   22.5736 N   0  0  0  0  0  0  0  0  0  0  0  0
   27.6240   40.8066   21.4930 C   0  0  0  0  0  0  0  0  0  0  0  0
   25.7529   37.0754   19.7954 C   0  0  0  0  0  0  0  0  0  0  0  0
   29.2445   37.2327   19.1685 O   0  0  0  0  0  0  0  0  0  0  0  0
   26.9309   36.9468   18.8444 C   0  0  2  0  0  0  0  0  0  0  0  0
   26.8754   35.8369   17.8741 N   0  0  0  0  0  0  0  0  0  0  0  0
   26.5061   34.5259   18.4381 C   0  0  0  0  0  0  0  0  0  0  0  0
   26.1049   36.1630   16.6642 C   0  0  0  0  0  0  0  0  0  0  0  0
  1  5  1  0  0  0  0
  2 17  1  0  0  0  0
  3  1  1  0  0  0  0
  4  3  1  0  0  0  0
  4 26  1  6  0  0  0
  5 11  2  0  0  0  0
  5  6  1  0  0  0  0
  6  7  2  0  0  0  0
  7 21  1  0  0  0  0
  8 15  1  0  0  0  0
  8 16  2  0  0  0  0
  9 19  1  0  0  0  0
 10 18  1  0  0  0  0
 11 20  1  0  0  0  0
 13 14  1  0  0  0  0
 13 12  2  0  0  0  0
 15 13  1  1  0  0  0
 17 19  2  0  0  0  0
 17 15  1  0  0  0  0
 18  2  1  0  0  0  0
 18  9  2  0  0  0  0
 20 21  2  0  0  0  0
 20  2  1  0  0  0  0
 21  8  1  0  0  0  0
 22  6  1  0  0  0  0
 23 11  1  0  0  0  0
 23 10  1  0  0  0  0
 24 23  1  0  0  0  0
 25  1  1  0  0  0  0
 27  4  1  0  0  0  0
 27 25  1  0  0  0  0
 27 28  1  6  0  0  0
 29 28  1  0  0  0  0
 30 28  1  0  0  0  0
M  END
>  <CHROM.1>
-137.80432090,2.09592884,43.07324413,66.45074608,66.92351195,25.71920313
39.44315418,22.90067360,1.30291577,-0.22511749,-2.27400269

>  <Name>
lig.pdb

>  <RI>
0

>  <Rbt.Current_Directory>
/home/itssahil/PROJECTS/Mol_Feturizer/New_Systems/rnas/6bfb

>  <Rbt.Executable>
rbdock ($Id: //depot/dev/client3/rdock/2013.1/src/exe/rbdock.cxx#4 $)

>  <Rbt.Library>
libRbt.so (2013.1, Build901 2013/11/27)

>  <Rbt.Parameter_File>
/export/apps/rDock/src/rDock_2013.1_src/data/scripts/dock_solv.prm

>  <Rbt.Receptor>
prm/blind_docking_100.prm

>  <SCORE>
-37.5048

>  <SCORE.INTER>
-33.1783

>  <SCORE.INTER.CONST>
1

>  <SCORE.INTER.POLAR>
-0.954796

>  <SCORE.INTER.ROT>
3

>  <SCORE.INTER.SOLV>
11.5916

>  <SCORE.INTER.VDW>
-28.4001

>  <SCORE.INTER.norm>
-1.10594

>  <SCORE.INTRA>
-4.32656

>  <SCORE.INTRA.DIHEDRAL>
-7.29182

>  <SCORE.INTRA.DIHEDRAL.0>
9.41909

>  <SCORE.INTRA.POLAR>
0

>  <SCORE.INTRA.POLAR.0>
0

>  <SCORE.INTRA.REPUL>
0

>  <SCORE.INTRA.REPUL.0>
0

>  <SCORE.INTRA.SOLV>
-0.177547

>  <SCORE.INTRA.SOLV.lig_0>
-26.2491

>  <SCORE.INTRA.VDW>
-0.591874

>  <SCORE.INTRA.VDW.0>
2.57239

>  <SCORE.INTRA.norm>
-0.144219

>  <SCORE.RESTR>
0

>  <SCORE.RESTR.CAVITY>
0

>  <SCORE.RESTR.norm>
0

>  <SCORE.SYSTEM>
0

>  <SCORE.SYSTEM.CONST>
0

>  <SCORE.SYSTEM.DIHEDRAL>
0

>  <SCORE.SYSTEM.SOLV>
0

>  <SCORE.SYSTEM.norm>
0

>  <SCORE.heavy>
30

>  <SCORE.norm>
-1.25016

>  <RMSD>
1.410

$$$$
lig.pdb
 OpenBabel11021811523D
libRbt.so/2013.1/901 2013/11/27
 30 34  0  0  0  0  0  0  0  0999 V2000
   26.7025   37.5261   20.3812 N   0  0  0  0  0  0  0  0  0  0  0  0
   26.3125   41.0884   23.7967 N   0  0  0  0  0  0  0  0  0  0  0  0
   27.7622   36.5921   20.7739 C   0  0  0  0  0  0  0  0  0  0  0  0
   28.1362   35.9693   19.4373 C   0  0  2  0  0  0  0  0  0  0  0  0
   25.9282   38.2331   21.3952 C   0  0  0  0  0  0  0  0  0  0  0  0
   24.6020   37.8990   21.7379 C   0  0  0  0  0  0  0  0  0  0  0  0
   23.8609   38.5800   22.6712 C   0  0  0  0  0  0  0  0  0  0  0  0
   23.5925   40.4427   24.3120 C   0  0  0  0  0  0  0  0  0  0  0  0
   28.0379   42.3616   24.5209 C   0  0  0  0  0  0  0  0  0  0  0  0
   28.4699   40.3729   22.9149 C   0  0  0  0  0  0  0  0  0  0  0  0
   26.5019   39.3331   22.0930 C   0  0  0  0  0  0  0  0  0  0  0  0
   23.8683   42.6229   27.0546 O   0  0  0  0  0  0  0  0  0  0  0  0
   23.4879   42.4561   25.8938 C   0  0  0  0  0  0  0  0  0  0  0  0
   22.3741   43.0026   25.4219 O   0  0  0  0  0  0  0  0  0  0  0  0
   24.2631   41.6031   24.9540 C   0  0  1  0  0  0  0  0  0  0  0  0
   22.4367   40.1037   24.5880 O   0  0  0  0  0  0  0  0  0  0  0  0
   25.6151   41.8900   24.6974 C   0  0  0  0  0  0  0  0  0  0  0  0
   27.6887   41.3462   23.7252 C   0  0  0  0  0  0  0  0  0  0  0  0
   26.7119   43.0061   25.3972 S   0  0  0  0  0  0  0  0  0  0  0  0
   25.7472   40.0210   23.0702 C   0  0  0  0  0  0  0  0  0  0  0  0
   24.4164   39.6687   23.3431 C   0  0  0  0  0  0  0  0  0  0  0  0
   24.0247   36.8363   21.1423 F   0  0  0  0  0  0  0  0  0  0  0  0
   27.7909   39.7872   21.7729 N   0  0  0  0  0  0  0  0  0  0  0  0
   27.7739   40.5961   20.5728 C   0  0  0  0  0  0  0  0  0  0  0  0
   26.1191   37.1617   19.0951 C   0  0  0  0  0  0  0  0  0  0  0  0
   29.5222   36.1487   19.1429 O   0  0  0  0  0  0  0  0  0  0  0  0
   27.3848   36.7501   18.3622 C   0  0  2  0  0  0  0  0  0  0  0  0
   27.2104   35.8719   17.1895 N   0  0  0  0  0  0  0  0  0  0  0  0
   26.1071   36.2424   16.2845 C   0  0  0  0  0  0  0  0  0  0  0  0
   28.4653   35.6147   16.4665 C   0  0  0  0  0  0  0  0  0  0  0  0
  1  5  1  0  0  0  0
  2 17  1  0  0  0  0
  3  1  1  0  0  0  0
  4  3  1  0  0  0  0
  4 26  1  6  0  0  0
  5 11  2  0  0  0  0
  5  6  1  0  0  0  0
  6  7  2  0  0  0  0
  7 21  1  0  0  0  0
  8 15  1  0  0  0  0
  8 16  2  0  0  0  0
  9 19  1  0  0  0  0
 10 18  1  0  0  0  0
 11 20  1  0  0  0  0
 13 14  1  0  0  0  0
 13 12  2  0  0  0  0
 15 13  1  1  0  0  0
 17 19  2  0  0  0  0
 17 15  1  0  0  0  0
 18  2  1  0  0  0  0
 18  9  2  0  0  0  0
 20 21  2  0  0  0  0
 20  2  1  0  0  0  0
 21  8  1  0  0  0  0
 22  6  1  0  0  0  0
 23 11  1  0  0  0  0
 23 10  1  0  0  0  0
 24 23  1  0  0  0  0
 25  1  1  0  0  0  0
 27  4  1  0  0  0  0
 27 25  1  0  0  0  0
 27 28  1  6  0  0  0
 29 28  1  0  0  0  0
 30 28  1  0  0  0  0
M  END
>  <CHROM.1>
-104.81594668,-176.65045112,122.45639131,-56.77539171,157.86203780,26.04571505
39.40929978,22.15332544,1.26800750,-0.23129114,-2.33305236

>  <Name>
lig.pdb

>  <RI>
0

>  <Rbt.Current_Directory>
/home/itssahil/PROJECTS/Mol_Feturizer/New_Systems/rnas/6bfb

>  <Rbt.Executable>
rbdock ($Id: //depot/dev/client3/rdock/2013.1/src/exe/rbdock.cxx#4 $)

>  <Rbt.Library>
libRbt.so (2013.1, Build901 2013/11/27)

>  <Rbt.Parameter_File>
/export/apps/rDock/src/rDock_2013.1_src/data/scripts/dock_solv.prm

>  <Rbt.Receptor>
prm/blind_docking_80.prm

>  <SCORE>
-34.7058

>  <SCORE.INTER>
-29.8983

>  <SCORE.INTER.CONST>
1

>  <SCORE.INTER.POLAR>
-0.87178

>  <SCORE.INTER.ROT>
3

>  <SCORE.INTER.SOLV>
10.8963

>  <SCORE.INTER.VDW>
-26.2583

>  <SCORE.INTER.norm>
-0.996609

>  <SCORE.INTRA>
-4.8075

>  <SCORE.INTRA.DIHEDRAL>
-7.24209

>  <SCORE.INTRA.DIHEDRAL.0>
9.41909

>  <SCORE.INTRA.POLAR>
0

>  <SCORE.INTRA.POLAR.0>
0

>  <SCORE.INTRA.REPUL>
0.0665618

>  <SCORE.INTRA.REPUL.0>
0

>  <SCORE.INTRA.SOLV>
-0.166348

>  <SCORE.INTRA.SOLV.lig_0>
-26.2491

>  <SCORE.INTRA.VDW>
-1.43609

>  <SCORE.INTRA.VDW.0>
2.57239

>  <SCORE.INTRA.norm>
-0.16025

>  <SCORE.RESTR>
0

>  <SCORE.RESTR.CAVITY>
0

>  <SCORE.RESTR.norm>
0

>  <SCORE.SYSTEM>
0

>  <SCORE.SYSTEM.CONST>
0

>  <SCORE.SYSTEM.DIHEDRAL>
0

>  <SCORE.SYSTEM.SOLV>
0

>  <SCORE.SYSTEM.norm>
0

>  <SCORE.heavy>
30

>  <SCORE.norm>
-1.15686

>  <RMSD>
1.450

$$$$
lig.pdb
 OpenBabel11021811523D
libRbt.so/2013.1/901 2013/11/27
 30 34  0  0  0  0  0  0  0  0999 V2000
   24.8987   37.9523   20.8663 N   0  0  0  0  0  0  0  0  0  0  0  0
   26.9722   41.2710   23.8984 N   0  0  0  0  0  0  0  0  0  0  0  0
   26.0703   37.1190   20.5789 C   0  0  0  0  0  0  0  0  0  0  0  0
   25.5948   36.3226   19.3731 C   0  0  2  0  0  0  0  0  0  0  0  0
   24.8537   38.7726   22.0715 C   0  0  0  0  0  0  0  0  0  0  0  0
   23.7690   38.7774   22.9721 C   0  0  0  0  0  0  0  0  0  0  0  0
   23.7111   39.5691   24.0919 C   0  0  0  0  0  0  0  0  0  0  0  0
   24.6771   41.3304   25.5746 C   0  0  0  0  0  0  0  0  0  0  0  0
   29.1086   41.9991   23.7302 C   0  0  0  0  0  0  0  0  0  0  0  0
   28.2657   40.0713   22.2156 C   0  0  0  0  0  0  0  0  0  0  0  0
   25.9392   39.6377   22.3869 C   0  0  0  0  0  0  0  0  0  0  0  0
   24.8840   44.0185   27.0214 O   0  0  0  0  0  0  0  0  0  0  0  0
   25.7987   43.1976   26.9246 C   0  0  0  0  0  0  0  0  0  0  0  0
   26.7976   43.1354   27.7966 O   0  0  0  0  0  0  0  0  0  0  0  0
   25.8380   42.2317   25.7945 C   0  0  1  0  0  0  0  0  0  0  0  0
   23.7094   41.2898   26.3420 O   0  0  0  0  0  0  0  0  0  0  0  0
   26.9697   42.1694   24.9628 C   0  0  0  0  0  0  0  0  0  0  0  0
   28.1970   41.1627   23.2247 C   0  0  0  0  0  0  0  0  0  0  0  0
   28.5117   42.9126   25.0533 S   0  0  0  0  0  0  0  0  0  0  0  0
   25.8902   40.4369   23.5516 C   0  0  0  0  0  0  0  0  0  0  0  0
   24.7667   40.4297   24.3926 C   0  0  0  0  0  0  0  0  0  0  0  0
   22.7343   37.9427   22.7480 F   0  0  0  0  0  0  0  0  0  0  0  0
   27.0332   39.7570   21.5155 N   0  0  0  0  0  0  0  0  0  0  0  0
   26.7138   40.6155   20.3949 C   0  0  0  0  0  0  0  0  0  0  0  0
   23.6863   37.3880   20.2840 C   0  0  0  0  0  0  0  0  0  0  0  0
   26.4590   36.5020   18.2503 O   0  0  0  0  0  0  0  0  0  0  0  0
   24.2519   36.9160   18.9552 C   0  0  2  0  0  0  0  0  0  0  0  0
   23.4857   35.8731   18.2469 N   0  0  0  0  0  0  0  0  0  0  0  0
   23.2631   34.6299   19.0074 C   0  0  0  0  0  0  0  0  0  0  0  0
   22.2507   36.3803   17.6292 C   0  0  0  0  0  0  0  0  0  0  0  0
  1  5  1  0  0  0  0
  2 17  1  0  0  0  0
  3  1  1  0  0  0  0
  4  3  1  0  0  0  0
  4 26  1  6  0  0  0
  5 11  2  0  0  0  0
  5  6  1  0  0  0  0
  6  7  2  0  0  0  0
  7 21  1  0  0  0  0
  8 15  1  0  0  0  0
  8 16  2  0  0  0  0
  9 19  1  0  0  0  0
 10 18  1  0  0  0  0
 11 20  1  0  0  0  0
 13 14  1  0  0  0  0
 13 12  2  0  0  0  0
 15 13  1  1  0  0  0
 17 19  2  0  0  0  0
 17 15  1  0  0  0  0
 18  2  1  0  0  0  0
 18  9  2  0  0  0  0
 20 21  2  0  0  0  0
 20  2  1  0  0  0  0
 21  8  1  0  0  0  0
 22  6  1  0  0  0  0
 23 11  1  0  0  0  0
 23 10  1  0  0  0  0
 24 23  1  0  0  0  0
 25  1  1  0  0  0  0
 27  4  1  0  0  0  0
 27 25  1  0  0  0  0
 27 28  1  1  0  0  0
 29 28  1  0  0  0  0
 30 28  1  0  0  0  0
M  END
>  <CHROM.1>
-130.00154035,1.38960764,-56.67186847,-58.82827881,56.81033405,25.58256473
39.75351274,22.72681640,1.84921673,-0.36170814,-2.20814130

>  <Name>
lig.pdb

>  <RI>
0

>  <Rbt.Current_Directory>
/home/itssahil/PROJECTS/Mol_Feturizer/New_Systems/rnas/6bfb

>  <Rbt.Executable>
rbdock ($Id: //depot/dev/client3/rdock/2013.1/src/exe/rbdock.cxx#4 $)

>  <Rbt.Library>
libRbt.so (2013.1, Build901 2013/11/27)

>  <Rbt.Parameter_File>
/export/apps/rDock/src/rDock_2013.1_src/data/scripts/dock_solv.prm

>  <Rbt.Receptor>
prm/blind_docking_80.prm

>  <SCORE>
-36.1787

>  <SCORE.INTER>
-31.6273

>  <SCORE.INTER.CONST>
1

>  <SCORE.INTER.POLAR>
0

>  <SCORE.INTER.ROT>
3

>  <SCORE.INTER.SOLV>
11.951

>  <SCORE.INTER.VDW>
-30.6685

>  <SCORE.INTER.norm>
-1.05424

>  <SCORE.INTRA>
-4.55138

>  <SCORE.INTRA.DIHEDRAL>
-7.71245

>  <SCORE.INTRA.DIHEDRAL.0>
9.41909

>  <SCORE.INTRA.POLAR>
0

>  <SCORE.INTRA.POLAR.0>
0

>  <SCORE.INTRA.REPUL>
0.00457258

>  <SCORE.INTRA.REPUL.0>
0

>  <SCORE.INTRA.SOLV>
-0.193295

>  <SCORE.INTRA.SOLV.lig_0>
-26.2491

>  <SCORE.INTRA.VDW>
-0.621368

>  <SCORE.INTRA.VDW.0>
2.57239

>  <SCORE.INTRA.norm>
-0.151713

>  <SCORE.RESTR>
0

>  <SCORE.RESTR.CAVITY>
0

>  <SCORE.RESTR.norm>
0

>  <SCORE.SYSTEM>
0

>  <SCORE.SYSTEM.CONST>
0

>  <SCORE.SYSTEM.DIHEDRAL>
0

>  <SCORE.SYSTEM.SOLV>
0

>  <SCORE.SYSTEM.norm>
0

>  <SCORE.heavy>
30

>  <SCORE.norm>
-1.20596

>  <RMSD>
1.453

$$$$
lig.pdb
 OpenBabel11021811523D
libRbt.so/2013.1/901 2013/11/27
 30 34  0  0  0  0  0  0  0  0999 V2000
   26.6358   37.5168   20.3689 N   0  0  0  0  0  0  0  0  0  0  0  0
   26.2966   41.0825   23.7862 N   0  0  0  0  0  0  0  0  0  0  0  0
   27.9674   36.9857   20.6758 C   0  0  0  0  0  0  0  0  0  0  0  0
   28.2742   36.1783   19.4235 C   0  0  2  0  0  0  0  0  0  0  0  0
   25.8732   38.2312   21.3865 C   0  0  0  0  0  0  0  0  0  0  0  0
   24.5454   37.9101   21.7355 C   0  0  0  0  0  0  0  0  0  0  0  0
   23.8155   38.5982   22.6722 C   0  0  0  0  0  0  0  0  0  0  0  0
   23.5730   40.4633   24.3144 C   0  0  0  0  0  0  0  0  0  0  0  0
   28.0377   42.3389   24.5022 C   0  0  0  0  0  0  0  0  0  0  0  0
   28.4428   40.3461   22.8942 C   0  0  0  0  0  0  0  0  0  0  0  0
   26.4609   39.3255   22.0817 C   0  0  0  0  0  0  0  0  0  0  0  0
   23.8868   42.6463   27.0535 O   0  0  0  0  0  0  0  0  0  0  0  0
   23.4955   42.4776   25.8966 C   0  0  0  0  0  0  0  0  0  0  0  0
   22.3805   43.0284   25.4325 O   0  0  0  0  0  0  0  0  0  0  0  0
   24.2578   41.6171   24.9532 C   0  0  1  0  0  0  0  0  0  0  0  0
   22.4152   40.1356   24.5958 O   0  0  0  0  0  0  0  0  0  0  0  0
   25.6113   41.8908   24.6902 C   0  0  0  0  0  0  0  0  0  0  0  0
   27.6749   41.3270   23.7082 C   0  0  0  0  0  0  0  0  0  0  0  0
   26.7222   42.9962   25.3848 S   0  0  0  0  0  0  0  0  0  0  0  0
   25.7175   40.0207   23.0623 C   0  0  0  0  0  0  0  0  0  0  0  0
   24.3847   39.6814   23.3416 C   0  0  0  0  0  0  0  0  0  0  0  0
   23.9550   36.8530   21.1426 F   0  0  0  0  0  0  0  0  0  0  0  0
   27.7527   39.7671   21.7555 N   0  0  0  0  0  0  0  0  0  0  0  0
   27.7379   40.5762   20.5555 C   0  0  0  0  0  0  0  0  0  0  0  0
   25.9737   36.7323   19.3327 C   0  0  0  0  0  0  0  0  0  0  0  0
   29.4825   36.6146   18.7992 O   0  0  0  0  0  0  0  0  0  0  0  0
   27.1632   36.4808   18.4214 C   0  0  2  0  0  0  0  0  0  0  0  0
   27.0523   35.3381   17.4947 N   0  0  0  0  0  0  0  0  0  0  0  0
   28.1245   35.2383   16.4878 C   0  0  0  0  0  0  0  0  0  0  0  0
   26.8055   34.0594   18.1785 C   0  0  0  0  0  0  0  0  0  0  0  0
  1  5  1  0  0  0  0
  2 17  1  0  0  0  0
  3  1  1  0  0  0  0
  4  3  1  0  0  0  0
  4 26  1  6  0  0  0
  5 11  2  0  0  0  0
  5  6  1  0  0  0  0
  6  7  2  0  0  0  0
  7 21  1  0  0  0  0
  8 15  1  0  0  0  0
  8 16  2  0  0  0  0
  9 19  1  0  0  0  0
 10 18  1  0  0  0  0
 11 20  1  0  0  0  0
 13 14  1  0  0  0  0
 13 12  2  0  0  0  0
 15 13  1  1  0  0  0
 17 19  2  0  0  0  0
 17 15  1  0  0  0  0
 18  2  1  0  0  0  0
 18  9  2  0  0  0  0
 20 21  2  0  0  0  0
 20  2  1  0  0  0  0
 21  8  1  0  0  0  0
 22  6  1  0  0  0  0
 23 11  1  0  0  0  0
 23 10  1  0  0  0  0
 24 23  1  0  0  0  0
 25  1  1  0  0  0  0
 27  4  1  0  0  0  0
 27 25  1  0  0  0  0
 27 28  1  6  0  0  0
 29 28  1  0  0  0  0
 30 28  1  0  0  0  0
M  END
>  <CHROM.1>
-127.86369788,-178.98430672,122.85087299,62.82925001,-74.58873382,26.03577722
39.31766937,22.21867402,1.26821746,-0.27477914,-2.40055033

>  <Name>
lig.pdb

>  <RI>
0

>  <Rbt.Current_Directory>
/home/itssahil/PROJECTS/Mol_Feturizer/New_Systems/rnas/6bfb

>  <Rbt.Executable>
rbdock ($Id: //depot/dev/client3/rdock/2013.1/src/exe/rbdock.cxx#4 $)

>  <Rbt.Library>
libRbt.so (2013.1, Build901 2013/11/27)

>  <Rbt.Parameter_File>
/export/apps/rDock/src/rDock_2013.1_src/data/scripts/dock_solv.prm

>  <Rbt.Receptor>
prm/pocket_docking_3.prm

>  <SCORE>
-38.0515

>  <SCORE.INTER>
-34.5345

>  <SCORE.INTER.CONST>
1

>  <SCORE.INTER.POLAR>
-1.83095

>  <SCORE.INTER.ROT>
3

>  <SCORE.INTER.SOLV>
9.88399

>  <SCORE.INTER.VDW>
-25.8145

>  <SCORE.INTER.norm>
-1.15115

>  <SCORE.INTRA>
-3.51692

>  <SCORE.INTRA.DIHEDRAL>
-7.57858

>  <SCORE.INTRA.DIHEDRAL.0>
9.41909

>  <SCORE.INTRA.POLAR>
0

>  <SCORE.INTRA.POLAR.0>
0

>  <SCORE.INTRA.REPUL>
0.0102109

>  <SCORE.INTRA.REPUL.0>
0

>  <SCORE.INTRA.SOLV>
0.0443068

>  <SCORE.INTRA.SOLV.lig_0>
-26.2491

>  <SCORE.INTRA.VDW>
0.19916

>  <SCORE.INTRA.VDW.0>
2.57239

>  <SCORE.INTRA.norm>
-0.117231

>  <SCORE.RESTR>
0

>  <SCORE.RESTR.CAVITY>
0

>  <SCORE.RESTR.norm>
0

>  <SCORE.SYSTEM>
0

>  <SCORE.SYSTEM.CONST>
0

>  <SCORE.SYSTEM.DIHEDRAL>
0

>  <SCORE.SYSTEM.SOLV>
0

>  <SCORE.SYSTEM.norm>
0

>  <SCORE.heavy>
30

>  <SCORE.norm>
-1.26838

>  <RMSD>
1.453

$$$$
lig.pdb
 OpenBabel11021811523D
libRbt.so/2013.1/901 2013/11/27
 30 34  0  0  0  0  0  0  0  0999 V2000
   26.3808   38.6815   21.8450 N   0  0  0  0  0  0  0  0  0  0  0  0
   26.6346   42.2179   25.3000 N   0  0  0  0  0  0  0  0  0  0  0  0
   27.7983   38.3137   21.9147 C   0  0  0  0  0  0  0  0  0  0  0  0
   27.9337   37.3781   20.7228 C   0  0  2  0  0  0  0  0  0  0  0  0
   25.7649   39.4546   22.9177 C   0  0  0  0  0  0  0  0  0  0  0  0
   24.4388   39.2622   23.3561 C   0  0  0  0  0  0  0  0  0  0  0  0
   23.8472   40.0069   24.3457 C   0  0  0  0  0  0  0  0  0  0  0  0
   23.9053   41.8650   26.0124 C   0  0  0  0  0  0  0  0  0  0  0  0
   28.5374   43.2857   25.9012 C   0  0  0  0  0  0  0  0  0  0  0  0
   28.6302   41.2840   24.2564 C   0  0  0  0  0  0  0  0  0  0  0  0
   26.5053   40.4759   23.5772 C   0  0  0  0  0  0  0  0  0  0  0  0
   23.9032   43.4733   28.7571 O   0  0  0  0  0  0  0  0  0  0  0  0
   24.1381   43.8559   27.6089 C   0  0  0  0  0  0  0  0  0  0  0  0
   23.8545   45.0844   27.1937 O   0  0  0  0  0  0  0  0  0  0  0  0
   24.7442   42.9367   26.6093 C   0  0  1  0  0  0  0  0  0  0  0  0
   22.7427   41.6500   26.3716 O   0  0  0  0  0  0  0  0  0  0  0  0
   26.0970   43.0782   26.2546 C   0  0  0  0  0  0  0  0  0  0  0  0
   28.0218   42.3254   25.1279 C   0  0  0  0  0  0  0  0  0  0  0  0
   27.3578   44.0586   26.8772 S   0  0  0  0  0  0  0  0  0  0  0  0
   25.9041   41.2284   24.6115 C   0  0  0  0  0  0  0  0  0  0  0  0
   24.5663   41.0193   24.9806 C   0  0  0  0  0  0  0  0  0  0  0  0
   23.7065   38.2768   22.7991 F   0  0  0  0  0  0  0  0  0  0  0  0
   27.8094   40.7915   23.1647 N   0  0  0  0  0  0  0  0  0  0  0  0
   27.7932   41.6138   21.9738 C   0  0  0  0  0  0  0  0  0  0  0  0
   25.6151   37.7126   21.0689 C   0  0  0  0  0  0  0  0  0  0  0  0
   28.9328   37.8321   19.8087 O   0  0  0  0  0  0  0  0  0  0  0  0
   26.6155   37.4479   19.9563 C   0  0  2  0  0  0  0  0  0  0  0  0
   26.4486   36.1878   19.2073 N   0  0  0  0  0  0  0  0  0  0  0  0
   26.3877   34.9682   20.0332 C   0  0  0  0  0  0  0  0  0  0  0  0
   25.3673   36.2444   18.2116 C   0  0  0  0  0  0  0  0  0  0  0  0
  1  5  1  0  0  0  0
  2 17  1  0  0  0  0
  3  1  1  0  0  0  0
  4  3  1  0  0  0  0
  4 26  1  6  0  0  0
  5 11  2  0  0  0  0
  5  6  1  0  0  0  0
  6  7  2  0  0  0  0
  7 21  1  0  0  0  0
  8 15  1  0  0  0  0
  8 16  2  0  0  0  0
  9 19  1  0  0  0  0
 10 18  1  0  0  0  0
 11 20  1  0  0  0  0
 13 14  1  0  0  0  0
 13 12  2  0  0  0  0
 15 13  1  1  0  0  0
 17 19  2  0  0  0  0
 17 15  1  0  0  0  0
 18  2  1  0  0  0  0
 18  9  2  0  0  0  0
 20 21  2  0  0  0  0
 20  2  1  0  0  0  0
 21  8  1  0  0  0  0
 22  6  1  0  0  0  0
 23 11  1  0  0  0  0
 23 10  1  0  0  0  0
 24 23  1  0  0  0  0
 25  1  1  0  0  0  0
 27  4  1  0  0  0  0
 27 25  1  0  0  0  0
 27 28  1  1  0  0  0
 29 28  1  0  0  0  0
 30 28  1  0  0  0  0
M  END
>  <CHROM.1>
-143.88042840,-177.92567361,74.09259954,-59.07326693,60.92886387,26.04466423
40.50603729,23.76912398,1.42546489,-0.28369015,-2.37098523

>  <Name>
lig.pdb

>  <RI>
0

>  <Rbt.Current_Directory>
/home/itssahil/PROJECTS/Mol_Feturizer/New_Systems/rnas/6bfb

>  <Rbt.Executable>
rbdock ($Id: //depot/dev/client3/rdock/2013.1/src/exe/rbdock.cxx#4 $)

>  <Rbt.Library>
libRbt.so (2013.1, Build901 2013/11/27)

>  <Rbt.Parameter_File>
/export/apps/rDock/src/rDock_2013.1_src/data/scripts/dock_solv.prm

>  <Rbt.Receptor>
prm/blind_docking_60.prm

>  <SCORE>
-37.7833

>  <SCORE.INTER>
-34.6956

>  <SCORE.INTER.CONST>
1

>  <SCORE.INTER.POLAR>
-0.848528

>  <SCORE.INTER.ROT>
3

>  <SCORE.INTER.SOLV>
11.3137

>  <SCORE.INTER.VDW>
-29.6732

>  <SCORE.INTER.norm>
-1.15652

>  <SCORE.INTRA>
-3.08772

>  <SCORE.INTRA.DIHEDRAL>
-7.6367

>  <SCORE.INTRA.DIHEDRAL.0>
9.41909

>  <SCORE.INTRA.POLAR>
0

>  <SCORE.INTRA.POLAR.0>
0

>  <SCORE.INTRA.REPUL>
0

>  <SCORE.INTRA.REPUL.0>
0

>  <SCORE.INTRA.SOLV>
-0.202968

>  <SCORE.INTRA.SOLV.lig_0>
-26.2491

>  <SCORE.INTRA.VDW>
0.832118

>  <SCORE.INTRA.VDW.0>
2.57239

>  <SCORE.INTRA.norm>
-0.102924

>  <SCORE.RESTR>
0

>  <SCORE.RESTR.CAVITY>
0

>  <SCORE.RESTR.norm>
0

>  <SCORE.SYSTEM>
0

>  <SCORE.SYSTEM.CONST>
0

>  <SCORE.SYSTEM.DIHEDRAL>
0

>  <SCORE.SYSTEM.SOLV>
0

>  <SCORE.SYSTEM.norm>
0

>  <SCORE.heavy>
30

>  <SCORE.norm>
-1.25944

>  <RMSD>
1.490

$$$$
lig.pdb
 OpenBabel11021811523D
libRbt.so/2013.1/901 2013/11/27
 30 34  0  0  0  0  0  0  0  0999 V2000
   26.3391   38.6331   21.8374 N   0  0  0  0  0  0  0  0  0  0  0  0
   26.5250   42.1783   25.2877 N   0  0  0  0  0  0  0  0  0  0  0  0
   27.7571   38.2735   21.9344 C   0  0  0  0  0  0  0  0  0  0  0  0
   27.9179   37.3286   20.7530 C   0  0  2  0  0  0  0  0  0  0  0  0
   25.7010   39.4118   22.8928 C   0  0  0  0  0  0  0  0  0  0  0  0
   24.3638   39.2264   23.2996 C   0  0  0  0  0  0  0  0  0  0  0  0
   23.7518   39.9765   24.2725 C   0  0  0  0  0  0  0  0  0  0  0  0
   23.7778   41.8392   25.9350 C   0  0  0  0  0  0  0  0  0  0  0  0
   28.4174   43.2397   25.9316 C   0  0  0  0  0  0  0  0  0  0  0  0
   28.5411   41.2328   24.2951 C   0  0  0  0  0  0  0  0  0  0  0  0
   26.4296   40.4319   23.5671 C   0  0  0  0  0  0  0  0  0  0  0  0
   23.6949   43.4487   28.6669 O   0  0  0  0  0  0  0  0  0  0  0  0
   23.9807   43.8337   27.5311 C   0  0  0  0  0  0  0  0  0  0  0  0
   23.7369   45.0700   27.1138 O   0  0  0  0  0  0  0  0  0  0  0  0
   24.6067   42.9089   26.5490 C   0  0  1  0  0  0  0  0  0  0  0  0
   22.6059   41.6303   26.2666 O   0  0  0  0  0  0  0  0  0  0  0  0
   25.9684   43.0436   26.2266 C   0  0  0  0  0  0  0  0  0  0  0  0
   27.9164   42.2793   25.1488 C   0  0  0  0  0  0  0  0  0  0  0  0
   27.2180   44.0204   26.8767 S   0  0  0  0  0  0  0  0  0  0  0  0
   25.8070   41.1899   24.5845 C   0  0  0  0  0  0  0  0  0  0  0  0
   24.4598   40.9877   24.9218 C   0  0  0  0  0  0  0  0  0  0  0  0
   23.6409   38.2426   22.7278 F   0  0  0  0  0  0  0  0  0  0  0  0
   27.7447   40.7406   23.1854 N   0  0  0  0  0  0  0  0  0  0  0  0
   27.7608   41.5596   21.9921 C   0  0  0  0  0  0  0  0  0  0  0  0
   25.5920   37.6535   21.0567 C   0  0  0  0  0  0  0  0  0  0  0  0
   28.9300   37.7802   19.8522 O   0  0  0  0  0  0  0  0  0  0  0  0
   26.6125   37.3847   19.9636 C   0  0  2  0  0  0  0  0  0  0  0  0
   26.4651   36.1174   19.2228 N   0  0  0  0  0  0  0  0  0  0  0  0
   26.4081   34.9035   20.0574 C   0  0  0  0  0  0  0  0  0  0  0  0
   25.3930   36.1559   18.2164 C   0  0  0  0  0  0  0  0  0  0  0  0
  1  5  1  0  0  0  0
  2 17  1  0  0  0  0
  3  1  1  0  0  0  0
  4  3  1  0  0  0  0
  4 26  1  6  0  0  0
  5 11  2  0  0  0  0
  5  6  1  0  0  0  0
  6  7  2  0  0  0  0
  7 21  1  0  0  0  0
  8 15  1  0  0  0  0
  8 16  2  0  0  0  0
  9 19  1  0  0  0  0
 10 18  1  0  0  0  0
 11 20  1  0  0  0  0
 13 14  1  0  0  0  0
 13 12  2  0  0  0  0
 15 13  1  1  0  0  0
 17 19  2  0  0  0  0
 17 15  1  0  0  0  0
 18  2  1  0  0  0  0
 18  9  2  0  0  0  0
 20 21  2  0  0  0  0
 20  2  1  0  0  0  0
 21  8  1  0  0  0  0
 22  6  1  0  0  0  0
 23 11  1  0  0  0  0
 23 10  1  0  0  0  0
 24 23  1  0  0  0  0
 25  1  1  0  0  0  0
 27  4  1  0  0  0  0
 27 25  1  0  0  0  0
 27 28  1  1  0  0  0
 29 28  1  0  0  0  0
 30 28  1  0  0  0  0
M  END
>  <CHROM.1>
-144.64174872,-179.08929886,72.80077841,-60.19928375,60.43326328,25.96602476
40.46321706,23.74960026,1.41084937,-0.26535235,-2.37925302

>  <Name>
lig.pdb

>  <RI>
0

>  <Rbt.Current_Directory>
/home/itssahil/PROJECTS/Mol_Feturizer/New_Systems/rnas/6bfb

>  <Rbt.Executable>
rbdock ($Id: //depot/dev/client3/rdock/2013.1/src/exe/rbdock.cxx#4 $)

>  <Rbt.Library>
libRbt.so (2013.1, Build901 2013/11/27)

>  <Rbt.Parameter_File>
/export/apps/rDock/src/rDock_2013.1_src/data/scripts/dock_solv.prm

>  <Rbt.Receptor>
prm/pocket_docking_5.prm

>  <SCORE>
-37.8393

>  <SCORE.INTER>
-34.8562

>  <SCORE.INTER.CONST>
1

>  <SCORE.INTER.POLAR>
-0.848528

>  <SCORE.INTER.ROT>
3

>  <SCORE.INTER.SOLV>
11.0939

>  <SCORE.INTER.VDW>
-29.707

>  <SCORE.INTER.norm>
-1.16187

>  <SCORE.INTRA>
-2.98314

>  <SCORE.INTRA.DIHEDRAL>
-7.66811

>  <SCORE.INTRA.DIHEDRAL.0>
9.41909

>  <SCORE.INTRA.POLAR>
0

>  <SCORE.INTRA.POLAR.0>
0

>  <SCORE.INTRA.REPUL>
0

>  <SCORE.INTRA.REPUL.0>
0

>  <SCORE.INTRA.SOLV>
-0.197533

>  <SCORE.INTRA.SOLV.lig_0>
-26.2491

>  <SCORE.INTRA.VDW>
0.94968

>  <SCORE.INTRA.VDW.0>
2.57239

>  <SCORE.INTRA.norm>
-0.0994381

>  <SCORE.RESTR>
0

>  <SCORE.RESTR.CAVITY>
0

>  <SCORE.RESTR.norm>
0

>  <SCORE.SYSTEM>
0

>  <SCORE.SYSTEM.CONST>
0

>  <SCORE.SYSTEM.DIHEDRAL>
0

>  <SCORE.SYSTEM.SOLV>
0

>  <SCORE.SYSTEM.norm>
0

>  <SCORE.heavy>
30

>  <SCORE.norm>
-1.26131

>  <RMSD>
1.490

$$$$
lig.pdb
 OpenBabel11021811523D
libRbt.so/2013.1/901 2013/11/27
 30 34  0  0  0  0  0  0  0  0999 V2000
   24.7879   38.2974   21.4867 N   0  0  0  0  0  0  0  0  0  0  0  0
   26.9800   41.8560   24.1396 N   0  0  0  0  0  0  0  0  0  0  0  0
   25.9953   37.5501   21.1216 C   0  0  0  0  0  0  0  0  0  0  0  0
   25.4676   36.6194   20.0401 C   0  0  2  0  0  0  0  0  0  0  0  0
   24.7986   39.2058   22.6278 C   0  0  0  0  0  0  0  0  0  0  0  0
   23.7660   39.2676   23.5857 C   0  0  0  0  0  0  0  0  0  0  0  0
   23.7594   40.1409   24.6446 C   0  0  0  0  0  0  0  0  0  0  0  0
   24.7814   42.0187   25.9343 C   0  0  0  0  0  0  0  0  0  0  0  0
   29.0930   42.5908   23.7965 C   0  0  0  0  0  0  0  0  0  0  0  0
   28.1944   40.5458   22.4805 C   0  0  0  0  0  0  0  0  0  0  0  0
   25.8876   40.1031   22.8156 C   0  0  0  0  0  0  0  0  0  0  0  0
   26.9787   44.2428   27.7070 O   0  0  0  0  0  0  0  0  0  0  0  0
   25.9499   43.9936   27.0750 C   0  0  0  0  0  0  0  0  0  0  0  0
   24.8023   44.6205   27.3032 O   0  0  0  0  0  0  0  0  0  0  0  0
   25.9398   42.9457   26.0199 C   0  0  1  0  0  0  0  0  0  0  0  0
   23.8588   42.0264   26.7563 O   0  0  0  0  0  0  0  0  0  0  0  0
   27.0240   42.8321   25.1323 C   0  0  0  0  0  0  0  0  0  0  0  0
   28.1666   41.7096   23.4075 C   0  0  0  0  0  0  0  0  0  0  0  0
   28.5579   43.5955   25.0793 S   0  0  0  0  0  0  0  0  0  0  0  0
   25.8923   40.9873   23.9181 C   0  0  0  0  0  0  0  0  0  0  0  0
   24.8177   41.0323   24.8197 C   0  0  0  0  0  0  0  0  0  0  0  0
   22.7324   38.4081   23.4837 F   0  0  0  0  0  0  0  0  0  0  0  0
   26.9293   40.1672   21.8770 N   0  0  0  0  0  0  0  0  0  0  0  0
   26.5357   40.9356   20.7153 C   0  0  0  0  0  0  0  0  0  0  0  0
   23.5785   37.5829   21.0940 C   0  0  0  0  0  0  0  0  0  0  0  0
   26.1793   36.7826   18.8126 O   0  0  0  0  0  0  0  0  0  0  0  0
   24.0351   37.0562   19.7440 C   0  0  2  0  0  0  0  0  0  0  0  0
   23.2993   35.8956   19.2071 N   0  0  0  0  0  0  0  0  0  0  0  0
   21.8589   35.8644   19.5197 C   0  0  0  0  0  0  0  0  0  0  0  0
   23.5686   35.6472   17.7825 C   0  0  0  0  0  0  0  0  0  0  0  0
  1  5  1  0  0  0  0
  2 17  1  0  0  0  0
  3  1  1  0  0  0  0
  4  3  1  0  0  0  0
  4 26  1  6  0  0  0
  5 11  2  0  0  0  0
  5  6  1  0  0  0  0
  6  7  2  0  0  0  0
  7 21  1  0  0  0  0
  8 15  1  0  0  0  0
  8 16  2  0  0  0  0
  9 19  1  0  0  0  0
 10 18  1  0  0  0  0
 11 20  1  0  0  0  0
 13 14  1  0  0  0  0
 13 12  2  0  0  0  0
 15 13  1  1  0  0  0
 17 19  2  0  0  0  0
 17 15  1  0  0  0  0
 18  2  1  0  0  0  0
 18  9  2  0  0  0  0
 20 21  2  0  0  0  0
 20  2  1  0  0  0  0
 21  8  1  0  0  0  0
 22  6  1  0  0  0  0
 23 11  1  0  0  0  0
 23 10  1  0  0  0  0
 24 23  1  0  0  0  0
 25  1  1  0  0  0  0
 27  4  1  0  0  0  0
 27 25  1  0  0  0  0
 27 28  1  1  0  0  0
 29 28  1  0  0  0  0
 30 28  1  0  0  0  0
M  END
>  <CHROM.1>
-135.75358581,1.41932716,137.93254801,162.51362756,148.96645860,25.54922317
40.24778415,23.11978083,1.86787235,-0.40374427,-2.26164960

>  <Name>
lig.pdb

>  <RI>
0

>  <Rbt.Current_Directory>
/home/itssahil/PROJECTS/Mol_Feturizer/New_Systems/rnas/6bfb

>  <Rbt.Executable>
rbdock ($Id: //depot/dev/client3/rdock/2013.1/src/exe/rbdock.cxx#4 $)

>  <Rbt.Library>
libRbt.so (2013.1, Build901 2013/11/27)

>  <Rbt.Parameter_File>
/export/apps/rDock/src/rDock_2013.1_src/data/scripts/dock_solv.prm

>  <Rbt.Receptor>
prm/blind_docking_60.prm

>  <SCORE>
-37.133

>  <SCORE.INTER>
-34.7805

>  <SCORE.INTER.CONST>
1

>  <SCORE.INTER.POLAR>
0

>  <SCORE.INTER.ROT>
3

>  <SCORE.INTER.SOLV>
12.2245

>  <SCORE.INTER.VDW>
-32.8618

>  <SCORE.INTER.norm>
-1.15935

>  <SCORE.INTRA>
-2.35244

>  <SCORE.INTRA.DIHEDRAL>
-5.51019

>  <SCORE.INTRA.DIHEDRAL.0>
9.41909

>  <SCORE.INTRA.POLAR>
0

>  <SCORE.INTRA.POLAR.0>
0

>  <SCORE.INTRA.REPUL>
0

>  <SCORE.INTRA.REPUL.0>
0

>  <SCORE.INTRA.SOLV>
-0.0365347

>  <SCORE.INTRA.SOLV.lig_0>
-26.2491

>  <SCORE.INTRA.VDW>
0.420921

>  <SCORE.INTRA.VDW.0>
2.57239

>  <SCORE.INTRA.norm>
-0.0784148

>  <SCORE.RESTR>
0

>  <SCORE.RESTR.CAVITY>
0

>  <SCORE.RESTR.norm>
0

>  <SCORE.SYSTEM>
0

>  <SCORE.SYSTEM.CONST>
0

>  <SCORE.SYSTEM.DIHEDRAL>
0

>  <SCORE.SYSTEM.SOLV>
0

>  <SCORE.SYSTEM.norm>
0

>  <SCORE.heavy>
30

>  <SCORE.norm>
-1.23777

>  <RMSD>
1.504

$$$$
lig.pdb
 OpenBabel11021811523D
libRbt.so/2013.1/901 2013/11/27
 30 34  0  0  0  0  0  0  0  0999 V2000
   26.4279   38.7075   21.8659 N   0  0  0  0  0  0  0  0  0  0  0  0
   26.6881   42.2657   25.2979 N   0  0  0  0  0  0  0  0  0  0  0  0
   27.8464   38.3424   21.9309 C   0  0  0  0  0  0  0  0  0  0  0  0
   27.9781   37.4017   20.7426 C   0  0  2  0  0  0  0  0  0  0  0  0
   25.8155   39.4843   22.9378 C   0  0  0  0  0  0  0  0  0  0  0  0
   24.4931   39.2887   23.3859 C   0  0  0  0  0  0  0  0  0  0  0  0
   23.9045   40.0368   24.3747 C   0  0  0  0  0  0  0  0  0  0  0  0
   23.9651   41.9051   26.0299 C   0  0  0  0  0  0  0  0  0  0  0  0
   28.5900   43.3456   25.8804 C   0  0  0  0  0  0  0  0  0  0  0  0
   28.6812   41.3344   24.2470 C   0  0  0  0  0  0  0  0  0  0  0  0
   26.5555   40.5128   23.5864 C   0  0  0  0  0  0  0  0  0  0  0  0
   24.0941   43.5755   28.7958 O   0  0  0  0  0  0  0  0  0  0  0  0
   24.1992   43.9067   27.6128 C   0  0  0  0  0  0  0  0  0  0  0  0
   23.7726   45.0789   27.1590 O   0  0  0  0  0  0  0  0  0  0  0  0
   24.8030   42.9841   26.6149 C   0  0  1  0  0  0  0  0  0  0  0  0
   22.8057   41.6873   26.3978 O   0  0  0  0  0  0  0  0  0  0  0  0
   26.1529   43.1294   26.2506 C   0  0  0  0  0  0  0  0  0  0  0  0
   28.0737   42.3783   25.1162 C   0  0  0  0  0  0  0  0  0  0  0  0
   27.4132   44.1191   26.8593 S   0  0  0  0  0  0  0  0  0  0  0  0
   25.9576   41.2689   24.6200 C   0  0  0  0  0  0  0  0  0  0  0  0
   24.6232   41.0562   24.9990 C   0  0  0  0  0  0  0  0  0  0  0  0
   23.7616   38.2968   22.8395 F   0  0  0  0  0  0  0  0  0  0  0  0
   27.8555   40.8316   23.1637 N   0  0  0  0  0  0  0  0  0  0  0  0
   27.8281   41.6467   21.9680 C   0  0  0  0  0  0  0  0  0  0  0  0
   25.6605   37.7339   21.0975 C   0  0  0  0  0  0  0  0  0  0  0  0
   28.9724   37.8533   19.8220 O   0  0  0  0  0  0  0  0  0  0  0  0
   26.6563   37.4658   19.9816 C   0  0  2  0  0  0  0  0  0  0  0  0
   26.4883   36.2021   19.2390 N   0  0  0  0  0  0  0  0  0  0  0  0
   26.4392   34.9856   20.0702 C   0  0  0  0  0  0  0  0  0  0  0  0
   25.3985   36.2505   18.2522 C   0  0  0  0  0  0  0  0  0  0  0  0
  1  5  1  0  0  0  0
  2 17  1  0  0  0  0
  3  1  1  0  0  0  0
  4  3  1  0  0  0  0
  4 26  1  6  0  0  0
  5 11  2  0  0  0  0
  5  6  1  0  0  0  0
  6  7  2  0  0  0  0
  7 21  1  0  0  0  0
  8 15  1  0  0  0  0
  8 16  2  0  0  0  0
  9 19  1  0  0  0  0
 10 18  1  0  0  0  0
 11 20  1  0  0  0  0
 13 14  1  0  0  0  0
 13 12  2  0  0  0  0
 15 13  1  1  0  0  0
 17 19  2  0  0  0  0
 17 15  1  0  0  0  0
 18  2  1  0  0  0  0
 18  9  2  0  0  0  0
 20 21  2  0  0  0  0
 20  2  1  0  0  0  0
 21  8  1  0  0  0  0
 22  6  1  0  0  0  0
 23 11  1  0  0  0  0
 23 10  1  0  0  0  0
 24 23  1  0  0  0  0
 25  1  1  0  0  0  0
 27  4  1  0  0  0  0
 27 25  1  0  0  0  0
 27 28  1  1  0  0  0
 29 28  1  0  0  0  0
 30 28  1  0  0  0  0
M  END
>  <CHROM.1>
-143.66789656,178.05067705,81.27518589,-59.03843241,60.66849946,26.09490146
40.54196237,23.78064531,1.42667667,-0.28663939,-2.37550020

>  <Name>
lig.pdb

>  <RI>
0

>  <Rbt.Current_Directory>
/home/itssahil/PROJECTS/Mol_Feturizer/New_Systems/rnas/6bfb

>  <Rbt.Executable>
rbdock ($Id: //depot/dev/client3/rdock/2013.1/src/exe/rbdock.cxx#4 $)

>  <Rbt.Library>
libRbt.so (2013.1, Build901 2013/11/27)

>  <Rbt.Parameter_File>
/export/apps/rDock/src/rDock_2013.1_src/data/scripts/dock_solv.prm

>  <Rbt.Receptor>
prm/pocket_docking_5.prm

>  <SCORE>
-37.7514

>  <SCORE.INTER>
-34.6641

>  <SCORE.INTER.CONST>
1

>  <SCORE.INTER.POLAR>
-0.848528

>  <SCORE.INTER.ROT>
3

>  <SCORE.INTER.SOLV>
11.4167

>  <SCORE.INTER.VDW>
-29.6865

>  <SCORE.INTER.norm>
-1.15547

>  <SCORE.INTRA>
-3.08732

>  <SCORE.INTRA.DIHEDRAL>
-7.6183

>  <SCORE.INTRA.DIHEDRAL.0>
9.41909

>  <SCORE.INTRA.POLAR>
0

>  <SCORE.INTRA.POLAR.0>
0

>  <SCORE.INTRA.REPUL>
0

>  <SCORE.INTRA.REPUL.0>
0

>  <SCORE.INTRA.SOLV>
-0.204122

>  <SCORE.INTRA.SOLV.lig_0>
-26.2491

>  <SCORE.INTRA.VDW>
0.823891

>  <SCORE.INTRA.VDW.0>
2.57239

>  <SCORE.INTRA.norm>
-0.102911

>  <SCORE.RESTR>
0

>  <SCORE.RESTR.CAVITY>
0

>  <SCORE.RESTR.norm>
0

>  <SCORE.SYSTEM>
0

>  <SCORE.SYSTEM.CONST>
0

>  <SCORE.SYSTEM.DIHEDRAL>
0

>  <SCORE.SYSTEM.SOLV>
0

>  <SCORE.SYSTEM.norm>
0

>  <SCORE.heavy>
30

>  <SCORE.norm>
-1.25838

>  <RMSD>
1.509

$$$$
lig.pdb
 OpenBabel11021811523D
libRbt.so/2013.1/901 2013/11/27
 30 34  0  0  0  0  0  0  0  0999 V2000
   26.7396   37.6236   20.2363 N   0  0  0  0  0  0  0  0  0  0  0  0
   26.2948   41.0576   23.7742 N   0  0  0  0  0  0  0  0  0  0  0  0
   28.0189   36.9832   20.5568 C   0  0  0  0  0  0  0  0  0  0  0  0
   28.3550   36.2905   19.2447 C   0  0  2  0  0  0  0  0  0  0  0  0
   25.9582   38.2758   21.2811 C   0  0  0  0  0  0  0  0  0  0  0  0
   24.6445   37.8965   21.6248 C   0  0  0  0  0  0  0  0  0  0  0  0
   23.8961   38.5264   22.5877 C   0  0  0  0  0  0  0  0  0  0  0  0
   23.5976   40.3252   24.2933 C   0  0  0  0  0  0  0  0  0  0  0  0
   27.9948   42.3497   24.5248 C   0  0  0  0  0  0  0  0  0  0  0  0
   28.4605   40.4279   22.8482 C   0  0  0  0  0  0  0  0  0  0  0  0
   26.5110   39.3661   22.0103 C   0  0  0  0  0  0  0  0  0  0  0  0
   22.6693   43.1464   25.5584 O   0  0  0  0  0  0  0  0  0  0  0  0
   23.4584   42.2809   25.9433 C   0  0  0  0  0  0  0  0  0  0  0  0
   23.6656   42.0246   27.2292 O   0  0  0  0  0  0  0  0  0  0  0  0
   24.2452   41.4802   24.9678 C   0  0  1  0  0  0  0  0  0  0  0  0
   22.4537   39.9475   24.5686 O   0  0  0  0  0  0  0  0  0  0  0  0
   25.5867   41.8102   24.7082 C   0  0  0  0  0  0  0  0  0  0  0  0
   27.6632   41.3530   23.6984 C   0  0  0  0  0  0  0  0  0  0  0  0
   26.6621   42.9300   25.4350 S   0  0  0  0  0  0  0  0  0  0  0  0
   25.7493   40.0011   23.0173 C   0  0  0  0  0  0  0  0  0  0  0  0
   24.4308   39.6058   23.2909 C   0  0  0  0  0  0  0  0  0  0  0  0
   24.0882   36.8399   20.9990 F   0  0  0  0  0  0  0  0  0  0  0  0
   27.7847   39.8638   21.6935 N   0  0  0  0  0  0  0  0  0  0  0  0
   27.7347   40.7119   20.5218 C   0  0  0  0  0  0  0  0  0  0  0  0
   26.0983   36.9910   19.0891 C   0  0  0  0  0  0  0  0  0  0  0  0
   29.6208   36.7133   18.7359 O   0  0  0  0  0  0  0  0  0  0  0  0
   27.3245   36.7613   18.2217 C   0  0  2  0  0  0  0  0  0  0  0  0
   27.2062   35.7281   17.1752 N   0  0  0  0  0  0  0  0  0  0  0  0
   25.9863   35.8043   16.3509 C   0  0  0  0  0  0  0  0  0  0  0  0
   28.4235   35.5852   16.3619 C   0  0  0  0  0  0  0  0  0  0  0  0
  1  5  1  0  0  0  0
  2 17  1  0  0  0  0
  3  1  1  0  0  0  0
  4  3  1  0  0  0  0
  4 26  1  6  0  0  0
  5 11  2  0  0  0  0
  5  6  1  0  0  0  0
  6  7  2  0  0  0  0
  7 21  1  0  0  0  0
  8 15  1  0  0  0  0
  8 16  2  0  0  0  0
  9 19  1  0  0  0  0
 10 18  1  0  0  0  0
 11 20  1  0  0  0  0
 13 14  1  0  0  0  0
 13 12  2  0  0  0  0
 15 13  1  1  0  0  0
 17 19  2  0  0  0  0
 17 15  1  0  0  0  0
 18  2  1  0  0  0  0
 18  9  2  0  0  0  0
 20 21  2  0  0  0  0
 20  2  1  0  0  0  0
 21  8  1  0  0  0  0
 22  6  1  0  0  0  0
 23 11  1  0  0  0  0
 23 10  1  0  0  0  0
 24 23  1  0  0  0  0
 25  1  1  0  0  0  0
 27  4  1  0  0  0  0
 27 25  1  0  0  0  0
 27 28  1  6  0  0  0
 29 28  1  0  0  0  0
 30 28  1  0  0  0  0
M  END
>  <CHROM.1>
-120.27014776,-179.93922884,-80.53056517,61.30268292,161.72797908,26.06405886
39.38787043,22.10888320,1.26680006,-0.27620608,-2.31893585

>  <Name>
lig.pdb

>  <RI>
0

>  <Rbt.Current_Directory>
/home/itssahil/PROJECTS/Mol_Feturizer/New_Systems/rnas/6bfb

>  <Rbt.Executable>
rbdock ($Id: //depot/dev/client3/rdock/2013.1/src/exe/rbdock.cxx#4 $)

>  <Rbt.Library>
libRbt.so (2013.1, Build901 2013/11/27)

>  <Rbt.Parameter_File>
/export/apps/rDock/src/rDock_2013.1_src/data/scripts/dock_solv.prm

>  <Rbt.Receptor>
prm/pocket_docking_6.prm

>  <SCORE>
-38.7845

>  <SCORE.INTER>
-33.8233

>  <SCORE.INTER.CONST>
1

>  <SCORE.INTER.POLAR>
-1.8388

>  <SCORE.INTER.ROT>
3

>  <SCORE.INTER.SOLV>
10.3714

>  <SCORE.INTER.VDW>
-25.4767

>  <SCORE.INTER.norm>
-1.12744

>  <SCORE.INTRA>
-4.96117

>  <SCORE.INTRA.DIHEDRAL>
-7.50638

>  <SCORE.INTRA.DIHEDRAL.0>
9.41909

>  <SCORE.INTRA.POLAR>
0

>  <SCORE.INTRA.POLAR.0>
0

>  <SCORE.INTRA.REPUL>
0.0298273

>  <SCORE.INTRA.REPUL.0>
0

>  <SCORE.INTRA.SOLV>
-0.228517

>  <SCORE.INTRA.SOLV.lig_0>
-26.2491

>  <SCORE.INTRA.VDW>
-1.24285

>  <SCORE.INTRA.VDW.0>
2.57239

>  <SCORE.INTRA.norm>
-0.165372

>  <SCORE.RESTR>
0

>  <SCORE.RESTR.CAVITY>
0

>  <SCORE.RESTR.norm>
0

>  <SCORE.SYSTEM>
0

>  <SCORE.SYSTEM.CONST>
0

>  <SCORE.SYSTEM.DIHEDRAL>
0

>  <SCORE.SYSTEM.SOLV>
0

>  <SCORE.SYSTEM.norm>
0

>  <SCORE.heavy>
30

>  <SCORE.norm>
-1.29282

>  <RMSD>
1.514

$$$$
lig.pdb
 OpenBabel11021811523D
libRbt.so/2013.1/901 2013/11/27
 30 34  0  0  0  0  0  0  0  0999 V2000
   24.8491   38.2942   21.5642 N   0  0  0  0  0  0  0  0  0  0  0  0
   27.1077   41.6852   24.3762 N   0  0  0  0  0  0  0  0  0  0  0  0
   26.0662   37.5927   21.1448 C   0  0  0  0  0  0  0  0  0  0  0  0
   25.5352   36.6807   20.0490 C   0  0  2  0  0  0  0  0  0  0  0  0
   24.8656   39.1676   22.7323 C   0  0  0  0  0  0  0  0  0  0  0  0
   23.8122   39.2414   23.6664 C   0  0  0  0  0  0  0  0  0  0  0  0
   23.8121   40.0828   24.7508 C   0  0  0  0  0  0  0  0  0  0  0  0
   24.8723   41.8805   26.1213 C   0  0  0  0  0  0  0  0  0  0  0  0
   29.2553   42.3469   24.1066 C   0  0  0  0  0  0  0  0  0  0  0  0
   28.3128   40.3781   22.7079 C   0  0  0  0  0  0  0  0  0  0  0  0
   25.9830   40.0159   22.9735 C   0  0  0  0  0  0  0  0  0  0  0  0
   26.8858   43.6807   28.2831 O   0  0  0  0  0  0  0  0  0  0  0  0
   26.0861   43.7740   27.3494 C   0  0  0  0  0  0  0  0  0  0  0  0
   25.1997   44.7584   27.2642 O   0  0  0  0  0  0  0  0  0  0  0  0
   26.0627   42.7588   26.2629 C   0  0  1  0  0  0  0  0  0  0  0  0
   23.9301   41.9001   26.9206 O   0  0  0  0  0  0  0  0  0  0  0  0
   27.1639   42.6293   25.3988 C   0  0  0  0  0  0  0  0  0  0  0  0
   28.3060   41.5143   23.6688 C   0  0  0  0  0  0  0  0  0  0  0  0
   28.7267   43.3336   25.4061 S   0  0  0  0  0  0  0  0  0  0  0  0
   25.9936   40.8665   24.1021 C   0  0  0  0  0  0  0  0  0  0  0  0
   24.8991   40.9267   24.9785 C   0  0  0  0  0  0  0  0  0  0  0  0
   22.7494   38.4262   23.5134 F   0  0  0  0  0  0  0  0  0  0  0  0
   27.0498   40.0670   22.0627 N   0  0  0  0  0  0  0  0  0  0  0  0
   26.7154   40.8839   20.9157 C   0  0  0  0  0  0  0  0  0  0  0  0
   23.6496   37.5582   21.1811 C   0  0  0  0  0  0  0  0  0  0  0  0
   26.2090   36.9009   18.8090 O   0  0  0  0  0  0  0  0  0  0  0  0
   24.0840   37.0857   19.8040 C   0  0  2  0  0  0  0  0  0  0  0  0
   23.3660   35.9217   19.2507 N   0  0  0  0  0  0  0  0  0  0  0  0
   21.9006   35.9528   19.4090 C   0  0  0  0  0  0  0  0  0  0  0  0
   23.7738   35.5886   17.8772 C   0  0  0  0  0  0  0  0  0  0  0  0
  1  5  1  0  0  0  0
  2 17  1  0  0  0  0
  3  1  1  0  0  0  0
  4  3  1  0  0  0  0
  4 26  1  6  0  0  0
  5 11  2  0  0  0  0
  5  6  1  0  0  0  0
  6  7  2  0  0  0  0
  7 21  1  0  0  0  0
  8 15  1  0  0  0  0
  8 16  2  0  0  0  0
  9 19  1  0  0  0  0
 10 18  1  0  0  0  0
 11 20  1  0  0  0  0
 13 14  1  0  0  0  0
 13 12  2  0  0  0  0
 15 13  1  1  0  0  0
 17 19  2  0  0  0  0
 17 15  1  0  0  0  0
 18  2  1  0  0  0  0
 18  9  2  0  0  0  0
 20 21  2  0  0  0  0
 20  2  1  0  0  0  0
 21  8  1  0  0  0  0
 22  6  1  0  0  0  0
 23 11  1  0  0  0  0
 23 10  1  0  0  0  0
 24 23  1  0  0  0  0
 25  1  1  0  0  0  0
 27  4  1  0  0  0  0
 27 25  1  0  0  0  0
 27 28  1  1  0  0  0
 29 28  1  0  0  0  0
 30 28  1  0  0  0  0
M  END
>  <CHROM.1>
-140.55621033,170.17594259,113.41712194,62.91272598,158.60081811,25.65370985
40.15660579,23.27199746,1.87030723,-0.36687027,-2.23475061

>  <Name>
lig.pdb

>  <RI>
0

>  <Rbt.Current_Directory>
/home/itssahil/PROJECTS/Mol_Feturizer/New_Systems/rnas/6bfb

>  <Rbt.Executable>
rbdock ($Id: //depot/dev/client3/rdock/2013.1/src/exe/rbdock.cxx#4 $)

>  <Rbt.Library>
libRbt.so (2013.1, Build901 2013/11/27)

>  <Rbt.Parameter_File>
/export/apps/rDock/src/rDock_2013.1_src/data/scripts/dock_solv.prm

>  <Rbt.Receptor>
prm/pocket_docking_3.prm

>  <SCORE>
-40.0718

>  <SCORE.INTER>
-37.0714

>  <SCORE.INTER.CONST>
1

>  <SCORE.INTER.POLAR>
-0.494113

>  <SCORE.INTER.ROT>
3

>  <SCORE.INTER.SOLV>
13.2218

>  <SCORE.INTER.VDW>
-33.0745

>  <SCORE.INTER.norm>
-1.23571

>  <SCORE.INTRA>
-3.00038

>  <SCORE.INTRA.DIHEDRAL>
-6.59808

>  <SCORE.INTRA.DIHEDRAL.0>
9.41909

>  <SCORE.INTRA.POLAR>
0

>  <SCORE.INTRA.POLAR.0>
0

>  <SCORE.INTRA.REPUL>
0

>  <SCORE.INTRA.REPUL.0>
0

>  <SCORE.INTRA.SOLV>
-0.0871735

>  <SCORE.INTRA.SOLV.lig_0>
-26.2491

>  <SCORE.INTRA.VDW>
0.342244

>  <SCORE.INTRA.VDW.0>
2.57239

>  <SCORE.INTRA.norm>
-0.100013

>  <SCORE.RESTR>
0

>  <SCORE.RESTR.CAVITY>
0

>  <SCORE.RESTR.norm>
0

>  <SCORE.SYSTEM>
0

>  <SCORE.SYSTEM.CONST>
0

>  <SCORE.SYSTEM.DIHEDRAL>
0

>  <SCORE.SYSTEM.SOLV>
0

>  <SCORE.SYSTEM.norm>
0

>  <SCORE.heavy>
30

>  <SCORE.norm>
-1.33573

>  <RMSD>
1.516

$$$$
lig.pdb
 OpenBabel11021811523D
libRbt.so/2013.1/901 2013/11/27
 30 34  0  0  0  0  0  0  0  0999 V2000
   26.5331   37.3843   20.4418 N   0  0  0  0  0  0  0  0  0  0  0  0
   26.2967   40.9174   23.9014 N   0  0  0  0  0  0  0  0  0  0  0  0
   27.8996   36.9249   20.7085 C   0  0  0  0  0  0  0  0  0  0  0  0
   28.1831   36.0703   19.4823 C   0  0  2  0  0  0  0  0  0  0  0  0
   25.7879   38.1156   21.4604 C   0  0  0  0  0  0  0  0  0  0  0  0
   24.4447   37.8431   21.7908 C   0  0  0  0  0  0  0  0  0  0  0  0
   23.7320   38.5478   22.7286 C   0  0  0  0  0  0  0  0  0  0  0  0
   23.5449   40.4001   24.3922 C   0  0  0  0  0  0  0  0  0  0  0  0
   28.0780   42.0945   24.6526 C   0  0  0  0  0  0  0  0  0  0  0  0
   28.4220   40.1076   23.0231 C   0  0  0  0  0  0  0  0  0  0  0  0
   26.4106   39.1769   22.1761 C   0  0  0  0  0  0  0  0  0  0  0  0
   22.8431   43.3330   25.5862 O   0  0  0  0  0  0  0  0  0  0  0  0
   23.5293   42.3958   25.9996 C   0  0  0  0  0  0  0  0  0  0  0  0
   23.6647   42.1259   27.2922 O   0  0  0  0  0  0  0  0  0  0  0  0
   24.2677   41.5178   25.0533 C   0  0  1  0  0  0  0  0  0  0  0  0
   22.3720   40.1151   24.6568 O   0  0  0  0  0  0  0  0  0  0  0  0
   25.6338   41.7408   24.8085 C   0  0  0  0  0  0  0  0  0  0  0  0
   27.6844   41.1079   23.8415 C   0  0  0  0  0  0  0  0  0  0  0  0
   26.7797   42.7924   25.5294 S   0  0  0  0  0  0  0  0  0  0  0  0
   25.6843   39.8886   23.1576 C   0  0  0  0  0  0  0  0  0  0  0  0
   24.3360   39.5990   23.4181 C   0  0  0  0  0  0  0  0  0  0  0  0
   23.8196   36.8178   21.1779 F   0  0  0  0  0  0  0  0  0  0  0  0
   27.7225   39.5709   21.8696 N   0  0  0  0  0  0  0  0  0  0  0  0
   27.7532   40.3950   20.6801 C   0  0  0  0  0  0  0  0  0  0  0  0
   25.8587   36.5230   19.4771 C   0  0  0  0  0  0  0  0  0  0  0  0
   29.3407   36.5253   18.7803 O   0  0  0  0  0  0  0  0  0  0  0  0
   27.0145   36.2766   18.5221 C   0  0  2  0  0  0  0  0  0  0  0  0
   26.9110   35.0861   17.6568 N   0  0  0  0  0  0  0  0  0  0  0  0
   27.9348   34.9849   16.6008 C   0  0  0  0  0  0  0  0  0  0  0  0
   26.7592   33.8327   18.4115 C   0  0  0  0  0  0  0  0  0  0  0  0
  1  5  1  0  0  0  0
  2 17  1  0  0  0  0
  3  1  1  0  0  0  0
  4  3  1  0  0  0  0
  4 26  1  6  0  0  0
  5 11  2  0  0  0  0
  5  6  1  0  0  0  0
  6  7  2  0  0  0  0
  7 21  1  0  0  0  0
  8 15  1  0  0  0  0
  8 16  2  0  0  0  0
  9 19  1  0  0  0  0
 10 18  1  0  0  0  0
 11 20  1  0  0  0  0
 13 14  1  0  0  0  0
 13 12  2  0  0  0  0
 15 13  1  1  0  0  0
 17 19  2  0  0  0  0
 17 15  1  0  0  0  0
 18  2  1  0  0  0  0
 18  9  2  0  0  0  0
 20 21  2  0  0  0  0
 20  2  1  0  0  0  0
 21  8  1  0  0  0  0
 22  6  1  0  0  0  0
 23 11  1  0  0  0  0
 23 10  1  0  0  0  0
 24 23  1  0  0  0  0
 25  1  1  0  0  0  0
 27  4  1  0  0  0  0
 27 25  1  0  0  0  0
 27 28  1  1  0  0  0
 29 28  1  0  0  0  0
 30 28  1  0  0  0  0
M  END
>  <CHROM.1>
-134.63241431,-177.60385197,-82.59720207,62.57631743,-74.86825865,26.00163845
39.17161744,22.33191935,1.28949437,-0.26773049,-2.39110251

>  <Name>
lig.pdb

>  <RI>
0

>  <Rbt.Current_Directory>
/home/itssahil/PROJECTS/Mol_Feturizer/New_Systems/rnas/6bfb

>  <Rbt.Executable>
rbdock ($Id: //depot/dev/client3/rdock/2013.1/src/exe/rbdock.cxx#4 $)

>  <Rbt.Library>
libRbt.so (2013.1, Build901 2013/11/27)

>  <Rbt.Parameter_File>
/export/apps/rDock/src/rDock_2013.1_src/data/scripts/dock_solv.prm

>  <Rbt.Receptor>
prm/blind_docking_60.prm

>  <SCORE>
-38.1232

>  <SCORE.INTER>
-34.9286

>  <SCORE.INTER.CONST>
1

>  <SCORE.INTER.POLAR>
-1.86323

>  <SCORE.INTER.ROT>
3

>  <SCORE.INTER.SOLV>
10.6335

>  <SCORE.INTER.VDW>
-26.2195

>  <SCORE.INTER.norm>
-1.16429

>  <SCORE.INTRA>
-3.19461

>  <SCORE.INTRA.DIHEDRAL>
-7.56032

>  <SCORE.INTRA.DIHEDRAL.0>
9.41909

>  <SCORE.INTRA.POLAR>
0

>  <SCORE.INTRA.POLAR.0>
0

>  <SCORE.INTRA.REPUL>
0

>  <SCORE.INTRA.REPUL.0>
0

>  <SCORE.INTRA.SOLV>
-0.00377594

>  <SCORE.INTRA.SOLV.lig_0>
-26.2491

>  <SCORE.INTRA.VDW>
0.587436

>  <SCORE.INTRA.VDW.0>
2.57239

>  <SCORE.INTRA.norm>
-0.106487

>  <SCORE.RESTR>
0

>  <SCORE.RESTR.CAVITY>
0

>  <SCORE.RESTR.norm>
0

>  <SCORE.SYSTEM>
0

>  <SCORE.SYSTEM.CONST>
0

>  <SCORE.SYSTEM.DIHEDRAL>
0

>  <SCORE.SYSTEM.SOLV>
0

>  <SCORE.SYSTEM.norm>
0

>  <SCORE.heavy>
30

>  <SCORE.norm>
-1.27077

>  <RMSD>
1.526

$$$$
lig.pdb
 OpenBabel11021811523D
libRbt.so/2013.1/901 2013/11/27
 30 34  0  0  0  0  0  0  0  0999 V2000
   26.6757   39.2457   21.3060 N   0  0  0  0  0  0  0  0  0  0  0  0
   26.7445   42.4316   25.0945 N   0  0  0  0  0  0  0  0  0  0  0  0
   27.4139   37.9974   21.5209 C   0  0  0  0  0  0  0  0  0  0  0  0
   27.7544   37.5903   20.0952 C   0  0  2  0  0  0  0  0  0  0  0  0
   26.0060   39.9086   22.4193 C   0  0  0  0  0  0  0  0  0  0  0  0
   24.6632   39.6691   22.7765 C   0  0  0  0  0  0  0  0  0  0  0  0
   24.0216   40.3119   23.8056 C   0  0  0  0  0  0  0  0  0  0  0  0
   23.9893   41.9999   25.6450 C   0  0  0  0  0  0  0  0  0  0  0  0
   28.6094   43.4441   25.8817 C   0  0  0  0  0  0  0  0  0  0  0  0
   28.7928   41.6116   24.0570 C   0  0  0  0  0  0  0  0  0  0  0  0
   26.7073   40.8643   23.2073 C   0  0  0  0  0  0  0  0  0  0  0  0
   23.9776   43.3800   28.5734 O   0  0  0  0  0  0  0  0  0  0  0  0
   24.1334   43.8277   27.4353 C   0  0  0  0  0  0  0  0  0  0  0  0
   23.7162   45.0369   27.0804 O   0  0  0  0  0  0  0  0  0  0  0  0
   24.7914   43.0122   26.3801 C   0  0  1  0  0  0  0  0  0  0  0  0
   22.8136   41.7463   25.9286 O   0  0  0  0  0  0  0  0  0  0  0  0
   26.1575   43.1931   26.1023 C   0  0  0  0  0  0  0  0  0  0  0  0
   28.1371   42.5611   24.9966 C   0  0  0  0  0  0  0  0  0  0  0  0
   27.3808   44.1138   26.8733 S   0  0  0  0  0  0  0  0  0  0  0  0
   26.0540   41.5105   24.2812 C   0  0  0  0  0  0  0  0  0  0  0  0
   24.7029   41.2610   24.5673 C   0  0  0  0  0  0  0  0  0  0  0  0
   23.9650   38.7393   22.0942 F   0  0  0  0  0  0  0  0  0  0  0  0
   28.0258   41.2238   22.8868 N   0  0  0  0  0  0  0  0  0  0  0  0
   28.0558   42.1576   21.7814 C   0  0  0  0  0  0  0  0  0  0  0  0
   26.1569   39.3319   19.9455 C   0  0  0  0  0  0  0  0  0  0  0  0
   29.1632   37.4422   19.9127 O   0  0  0  0  0  0  0  0  0  0  0  0
   27.3450   38.7535   19.1955 C   0  0  2  0  0  0  0  0  0  0  0  0
   27.0759   38.2219   17.8458 N   0  0  0  0  0  0  0  0  0  0  0  0
   26.0096   37.2068   17.7704 C   0  0  0  0  0  0  0  0  0  0  0  0
   26.9207   39.2737   16.8292 C   0  0  0  0  0  0  0  0  0  0  0  0
  1  5  1  0  0  0  0
  2 17  1  0  0  0  0
  3  1  1  0  0  0  0
  4  3  1  0  0  0  0
  4 26  1  1  0  0  0
  5 11  2  0  0  0  0
  5  6  1  0  0  0  0
  6  7  2  0  0  0  0
  7 21  1  0  0  0  0
  8 15  1  0  0  0  0
  8 16  2  0  0  0  0
  9 19  1  0  0  0  0
 10 18  1  0  0  0  0
 11 20  1  0  0  0  0
 13 14  1  0  0  0  0
 13 12  2  0  0  0  0
 15 13  1  1  0  0  0
 17 19  2  0  0  0  0
 17 15  1  0  0  0  0
 18  2  1  0  0  0  0
 18  9  2  0  0  0  0
 20 21  2  0  0  0  0
 20  2  1  0  0  0  0
 21  8  1  0  0  0  0
 22  6  1  0  0  0  0
 23 11  1  0  0  0  0
 23 10  1  0  0  0  0
 24 23  1  0  0  0  0
 25  1  1  0  0  0  0
 27  4  1  0  0  0  0
 27 25  1  0  0  0  0
 27 28  1  6  0  0  0
 29 28  1  0  0  0  0
 30 28  1  0  0  0  0
M  END
>  <CHROM.1>
-91.40029528,-179.43195850,81.77128788,176.14963110,59.61132580,26.22697434
40.99336945,23.29832669,1.37800684,-0.22549945,-2.21302104

>  <Name>
lig.pdb

>  <RI>
0

>  <Rbt.Current_Directory>
/home/itssahil/PROJECTS/Mol_Feturizer/New_Systems/rnas/6bfb

>  <Rbt.Executable>
rbdock ($Id: //depot/dev/client3/rdock/2013.1/src/exe/rbdock.cxx#4 $)

>  <Rbt.Library>
libRbt.so (2013.1, Build901 2013/11/27)

>  <Rbt.Parameter_File>
/export/apps/rDock/src/rDock_2013.1_src/data/scripts/dock_solv.prm

>  <Rbt.Receptor>
prm/pocket_docking_7.prm

>  <SCORE>
-35.1043

>  <SCORE.INTER>
-29.1055

>  <SCORE.INTER.CONST>
1

>  <SCORE.INTER.POLAR>
-0.848528

>  <SCORE.INTER.ROT>
3

>  <SCORE.INTER.SOLV>
11.1653

>  <SCORE.INTER.VDW>
-25.897

>  <SCORE.INTER.norm>
-0.970183

>  <SCORE.INTRA>
-5.9988

>  <SCORE.INTRA.DIHEDRAL>
-7.61485

>  <SCORE.INTRA.DIHEDRAL.0>
9.41909

>  <SCORE.INTRA.POLAR>
0

>  <SCORE.INTRA.POLAR.0>
0

>  <SCORE.INTRA.REPUL>
0.0917241

>  <SCORE.INTRA.REPUL.0>
0

>  <SCORE.INTRA.SOLV>
-0.330972

>  <SCORE.INTRA.SOLV.lig_0>
-26.2491

>  <SCORE.INTRA.VDW>
-2.48451

>  <SCORE.INTRA.VDW.0>
2.57239

>  <SCORE.INTRA.norm>
-0.19996

>  <SCORE.RESTR>
0

>  <SCORE.RESTR.CAVITY>
0

>  <SCORE.RESTR.norm>
0

>  <SCORE.SYSTEM>
0

>  <SCORE.SYSTEM.CONST>
0

>  <SCORE.SYSTEM.DIHEDRAL>
0

>  <SCORE.SYSTEM.SOLV>
0

>  <SCORE.SYSTEM.norm>
0

>  <SCORE.heavy>
30

>  <SCORE.norm>
-1.17014

>  <RMSD>
1.570

$$$$
lig.pdb
 OpenBabel11021811523D
libRbt.so/2013.1/901 2013/11/27
 30 34  0  0  0  0  0  0  0  0999 V2000
   24.7576   38.2841   21.5819 N   0  0  0  0  0  0  0  0  0  0  0  0
   27.1068   41.6306   24.3728 N   0  0  0  0  0  0  0  0  0  0  0  0
   25.9658   37.5821   21.1381 C   0  0  0  0  0  0  0  0  0  0  0  0
   25.4116   36.6660   20.0574 C   0  0  2  0  0  0  0  0  0  0  0  0
   24.7991   39.1614   22.7464 C   0  0  0  0  0  0  0  0  0  0  0  0
   23.7509   39.2644   23.6836 C   0  0  0  0  0  0  0  0  0  0  0  0
   23.7747   40.1098   24.7646 C   0  0  0  0  0  0  0  0  0  0  0  0
   24.8825   41.8868   26.1244 C   0  0  0  0  0  0  0  0  0  0  0  0
   29.2688   42.2391   24.0937 C   0  0  0  0  0  0  0  0  0  0  0  0
   28.2744   40.2881   22.7060 C   0  0  0  0  0  0  0  0  0  0  0  0
   25.9374   39.9834   22.9805 C   0  0  0  0  0  0  0  0  0  0  0  0
   26.9704   43.6656   28.2530 O   0  0  0  0  0  0  0  0  0  0  0  0
   26.1458   43.7553   27.3408 C   0  0  0  0  0  0  0  0  0  0  0  0
   25.2564   44.7386   27.2764 O   0  0  0  0  0  0  0  0  0  0  0  0
   26.0943   42.7366   26.2586 C   0  0  1  0  0  0  0  0  0  0  0  0
   23.9437   41.9323   26.9266 O   0  0  0  0  0  0  0  0  0  0  0  0
   27.1892   42.5770   25.3915 C   0  0  0  0  0  0  0  0  0  0  0  0
   28.2983   41.4279   23.6623 C   0  0  0  0  0  0  0  0  0  0  0  0
   28.7685   43.2434   25.3909 S   0  0  0  0  0  0  0  0  0  0  0  0
   25.9723   40.8379   24.1057 C   0  0  0  0  0  0  0  0  0  0  0  0
   24.8825   40.9281   24.9853 C   0  0  0  0  0  0  0  0  0  0  0  0
   22.6682   38.4744   23.5374 F   0  0  0  0  0  0  0  0  0  0  0  0
   27.0022   40.0051   22.0662 N   0  0  0  0  0  0  0  0  0  0  0  0
   26.6837   40.8252   20.9169 C   0  0  0  0  0  0  0  0  0  0  0  0
   23.5506   37.5457   21.2279 C   0  0  0  0  0  0  0  0  0  0  0  0
   26.0576   36.8826   18.8021 O   0  0  0  0  0  0  0  0  0  0  0  0
   23.9549   37.0689   19.8431 C   0  0  2  0  0  0  0  0  0  0  0  0
   23.2260   35.9024   19.3097 N   0  0  0  0  0  0  0  0  0  0  0  0
   21.7607   35.9516   19.4644 C   0  0  0  0  0  0  0  0  0  0  0  0
   23.6330   35.5400   17.9434 C   0  0  0  0  0  0  0  0  0  0  0  0
  1  5  1  0  0  0  0
  2 17  1  0  0  0  0
  3  1  1  0  0  0  0
  4  3  1  0  0  0  0
  4 26  1  6  0  0  0
  5 11  2  0  0  0  0
  5  6  1  0  0  0  0
  6  7  2  0  0  0  0
  7 21  1  0  0  0  0
  8 15  1  0  0  0  0
  8 16  2  0  0  0  0
  9 19  1  0  0  0  0
 10 18  1  0  0  0  0
 11 20  1  0  0  0  0
 13 14  1  0  0  0  0
 13 12  2  0  0  0  0
 15 13  1  1  0  0  0
 17 19  2  0  0  0  0
 17 15  1  0  0  0  0
 18  2  1  0  0  0  0
 18  9  2  0  0  0  0
 20 21  2  0  0  0  0
 20  2  1  0  0  0  0
 21  8  1  0  0  0  0
 22  6  1  0  0  0  0
 23 11  1  0  0  0  0
 23 10  1  0  0  0  0
 24 23  1  0  0  0  0
 25  1  1  0  0  0  0
 27  4  1  0  0  0  0
 27 25  1  0  0  0  0
 27 28  1  1  0  0  0
 29 28  1  0  0  0  0
 30 28  1  0  0  0  0
M  END
>  <CHROM.1>
-142.35117310,169.77546527,115.39041053,63.92700494,160.34824492,25.61474976
40.12959236,23.28134210,1.88832258,-0.35345890,-2.23322172

>  <Name>
lig.pdb

>  <RI>
0

>  <Rbt.Current_Directory>
/home/itssahil/PROJECTS/Mol_Feturizer/New_Systems/rnas/6bfb

>  <Rbt.Executable>
rbdock ($Id: //depot/dev/client3/rdock/2013.1/src/exe/rbdock.cxx#4 $)

>  <Rbt.Library>
libRbt.so (2013.1, Build901 2013/11/27)

>  <Rbt.Parameter_File>
/export/apps/rDock/src/rDock_2013.1_src/data/scripts/dock_solv.prm

>  <Rbt.Receptor>
prm/pocket_docking_6.prm

>  <SCORE>
-40.2039

>  <SCORE.INTER>
-37.4268

>  <SCORE.INTER.CONST>
1

>  <SCORE.INTER.POLAR>
-0.493061

>  <SCORE.INTER.ROT>
3

>  <SCORE.INTER.SOLV>
13.5511

>  <SCORE.INTER.VDW>
-33.4247

>  <SCORE.INTER.norm>
-1.24756

>  <SCORE.INTRA>
-2.77702

>  <SCORE.INTRA.DIHEDRAL>
-6.57904

>  <SCORE.INTRA.DIHEDRAL.0>
9.41909

>  <SCORE.INTRA.POLAR>
0

>  <SCORE.INTRA.POLAR.0>
0

>  <SCORE.INTRA.REPUL>
0

>  <SCORE.INTRA.REPUL.0>
0

>  <SCORE.INTRA.SOLV>
-0.0699456

>  <SCORE.INTRA.SOLV.lig_0>
-26.2491

>  <SCORE.INTRA.VDW>
0.547469

>  <SCORE.INTRA.VDW.0>
2.57239

>  <SCORE.INTRA.norm>
-0.0925675

>  <SCORE.RESTR>
0

>  <SCORE.RESTR.CAVITY>
0

>  <SCORE.RESTR.norm>
0

>  <SCORE.SYSTEM>
0

>  <SCORE.SYSTEM.CONST>
0

>  <SCORE.SYSTEM.DIHEDRAL>
0

>  <SCORE.SYSTEM.SOLV>
0

>  <SCORE.SYSTEM.norm>
0

>  <SCORE.heavy>
30

>  <SCORE.norm>
-1.34013

>  <RMSD>
1.590

$$$$
lig.pdb
 OpenBabel11021811523D
libRbt.so/2013.1/901 2013/11/27
 30 34  0  0  0  0  0  0  0  0999 V2000
   24.6735   38.4811   21.8147 N   0  0  0  0  0  0  0  0  0  0  0  0
   26.6130   42.0305   24.6690 N   0  0  0  0  0  0  0  0  0  0  0  0
   25.9389   37.8329   21.4568 C   0  0  0  0  0  0  0  0  0  0  0  0
   25.5010   36.8940   20.3428 C   0  0  2  0  0  0  0  0  0  0  0  0
   24.5963   39.3588   22.9770 C   0  0  0  0  0  0  0  0  0  0  0  0
   23.5133   39.3650   23.8797 C   0  0  0  0  0  0  0  0  0  0  0  0
   23.4242   40.2093   24.9582 C   0  0  0  0  0  0  0  0  0  0  0  0
   24.3191   42.0811   26.3472 C   0  0  0  0  0  0  0  0  0  0  0  0
   28.7177   42.8356   24.4576 C   0  0  0  0  0  0  0  0  0  0  0  0
   27.9526   40.8009   23.0449 C   0  0  0  0  0  0  0  0  0  0  0  0
   25.6459   40.2822   23.2451 C   0  0  0  0  0  0  0  0  0  0  0  0
   25.9557   43.8910   28.6668 O   0  0  0  0  0  0  0  0  0  0  0  0
   25.3650   44.0583   27.5976 C   0  0  0  0  0  0  0  0  0  0  0  0
   24.6218   45.1306   27.3528 O   0  0  0  0  0  0  0  0  0  0  0  0
   25.4425   43.0390   26.5176 C   0  0  1  0  0  0  0  0  0  0  0  0
   23.3547   42.0401   27.1186 O   0  0  0  0  0  0  0  0  0  0  0  0
   26.5749   42.9808   25.6867 C   0  0  0  0  0  0  0  0  0  0  0  0
   27.8404   41.9383   23.9978 C   0  0  0  0  0  0  0  0  0  0  0  0
   28.0854   43.7898   25.7347 S   0  0  0  0  0  0  0  0  0  0  0  0
   25.5656   41.1366   24.3680 C   0  0  0  0  0  0  0  0  0  0  0  0
   24.4442   41.1262   25.2118 C   0  0  0  0  0  0  0  0  0  0  0  0
   22.5133   38.4786   23.7012 F   0  0  0  0  0  0  0  0  0  0  0  0
   26.7332   40.4017   22.3653 N   0  0  0  0  0  0  0  0  0  0  0  0
   26.3779   41.1888   21.2038 C   0  0  0  0  0  0  0  0  0  0  0  0
   23.5271   37.6908   21.3804 C   0  0  0  0  0  0  0  0  0  0  0  0
   26.2217   37.1393   19.1344 O   0  0  0  0  0  0  0  0  0  0  0  0
   24.0463   37.2328   20.0278 C   0  0  2  0  0  0  0  0  0  0  0  0
   23.4074   36.0358   19.4485 N   0  0  0  0  0  0  0  0  0  0  0  0
   21.9344   36.0188   19.5055 C   0  0  0  0  0  0  0  0  0  0  0  0
   23.9201   35.6946   18.1126 C   0  0  0  0  0  0  0  0  0  0  0  0
  1  5  1  0  0  0  0
  2 17  1  0  0  0  0
  3  1  1  0  0  0  0
  4  3  1  0  0  0  0
  4 26  1  6  0  0  0
  5 11  2  0  0  0  0
  5  6  1  0  0  0  0
  6  7  2  0  0  0  0
  7 21  1  0  0  0  0
  8 15  1  0  0  0  0
  8 16  2  0  0  0  0
  9 19  1  0  0  0  0
 10 18  1  0  0  0  0
 11 20  1  0  0  0  0
 13 14  1  0  0  0  0
 13 12  2  0  0  0  0
 15 13  1  1  0  0  0
 17 19  2  0  0  0  0
 17 15  1  0  0  0  0
 18  2  1  0  0  0  0
 18  9  2  0  0  0  0
 20 21  2  0  0  0  0
 20  2  1  0  0  0  0
 21  8  1  0  0  0  0
 22  6  1  0  0  0  0
 23 11  1  0  0  0  0
 23 10  1  0  0  0  0
 24 23  1  0  0  0  0
 25  1  1  0  0  0  0
 27  4  1  0  0  0  0
 27 25  1  0  0  0  0
 27 28  1  1  0  0  0
 29 28  1  0  0  0  0
 30 28  1  0  0  0  0
M  END
>  <CHROM.1>
-138.87475871,168.35891251,99.62725175,-60.27612712,160.17489277,25.29758266
40.40813445,23.52803683,1.80139155,-0.40538292,-2.26307930

>  <Name>
lig.pdb

>  <RI>
0

>  <Rbt.Current_Directory>
/home/itssahil/PROJECTS/Mol_Feturizer/New_Systems/rnas/6bfb

>  <Rbt.Executable>
rbdock ($Id: //depot/dev/client3/rdock/2013.1/src/exe/rbdock.cxx#4 $)

>  <Rbt.Library>
libRbt.so (2013.1, Build901 2013/11/27)

>  <Rbt.Parameter_File>
/export/apps/rDock/src/rDock_2013.1_src/data/scripts/dock_solv.prm

>  <Rbt.Receptor>
prm/pocket_docking_3.prm

>  <SCORE>
-40.3638

>  <SCORE.INTER>
-37.6179

>  <SCORE.INTER.CONST>
1

>  <SCORE.INTER.POLAR>
-0.634334

>  <SCORE.INTER.ROT>
3

>  <SCORE.INTER.SOLV>
12.8824

>  <SCORE.INTER.VDW>
-32.8583

>  <SCORE.INTER.norm>
-1.25393

>  <SCORE.INTRA>
-2.74588

>  <SCORE.INTRA.DIHEDRAL>
-6.41824

>  <SCORE.INTRA.DIHEDRAL.0>
9.41909

>  <SCORE.INTRA.POLAR>
0

>  <SCORE.INTRA.POLAR.0>
0

>  <SCORE.INTRA.REPUL>
0

>  <SCORE.INTRA.REPUL.0>
0

>  <SCORE.INTRA.SOLV>
-0.103016

>  <SCORE.INTRA.SOLV.lig_0>
-26.2491

>  <SCORE.INTRA.VDW>
0.514741

>  <SCORE.INTRA.VDW.0>
2.57239

>  <SCORE.INTRA.norm>
-0.0915295

>  <SCORE.RESTR>
0

>  <SCORE.RESTR.CAVITY>
0

>  <SCORE.RESTR.norm>
0

>  <SCORE.SYSTEM>
0

>  <SCORE.SYSTEM.CONST>
0

>  <SCORE.SYSTEM.DIHEDRAL>
0

>  <SCORE.SYSTEM.SOLV>
0

>  <SCORE.SYSTEM.norm>
0

>  <SCORE.heavy>
30

>  <SCORE.norm>
-1.34546

>  <RMSD>
1.602

$$$$
lig.pdb
 OpenBabel11021811523D
libRbt.so/2013.1/901 2013/11/27
 30 34  0  0  0  0  0  0  0  0999 V2000
   25.3768   36.9315   20.2967 N   0  0  0  0  0  0  0  0  0  0  0  0
   26.3116   40.2503   23.8490 N   0  0  0  0  0  0  0  0  0  0  0  0
   26.5637   36.0842   20.4476 C   0  0  0  0  0  0  0  0  0  0  0  0
   26.5294   35.2723   19.1615 C   0  0  2  0  0  0  0  0  0  0  0  0
   24.9241   37.7715   21.3998 C   0  0  0  0  0  0  0  0  0  0  0  0
   23.5890   37.8148   21.8508 C   0  0  0  0  0  0  0  0  0  0  0  0
   23.1542   38.6251   22.8697 C   0  0  0  0  0  0  0  0  0  0  0  0
   23.5703   40.3875   24.5887 C   0  0  0  0  0  0  0  0  0  0  0  0
   28.3845   40.9277   24.4544 C   0  0  0  0  0  0  0  0  0  0  0  0
   28.0903   38.9955   22.7510 C   0  0  0  0  0  0  0  0  0  0  0  0
   25.8467   38.6169   22.0783 C   0  0  0  0  0  0  0  0  0  0  0  0
   23.5745   41.8860   27.2481 O   0  0  0  0  0  0  0  0  0  0  0  0
   24.1819   42.2501   26.2389 C   0  0  0  0  0  0  0  0  0  0  0  0
   24.4823   43.5220   26.0064 O   0  0  0  0  0  0  0  0  0  0  0  0
   24.5985   41.2660   25.2048 C   0  0  1  0  0  0  0  0  0  0  0  0
   22.3909   40.3807   24.9576 O   0  0  0  0  0  0  0  0  0  0  0  0
   25.9511   41.1652   24.8355 C   0  0  0  0  0  0  0  0  0  0  0  0
   27.6931   40.1041   23.6608 C   0  0  0  0  0  0  0  0  0  0  0  0
   27.3771   41.8751   25.4687 S   0  0  0  0  0  0  0  0  0  0  0  0
   25.4043   39.4353   23.1423 C   0  0  0  0  0  0  0  0  0  0  0  0
   24.0541   39.4665   23.5237 C   0  0  0  0  0  0  0  0  0  0  0  0
   22.6819   37.0001   21.2757 F   0  0  0  0  0  0  0  0  0  0  0  0
   27.1833   38.6979   21.6570 N   0  0  0  0  0  0  0  0  0  0  0  0
   27.3102   39.5456   20.4908 C   0  0  0  0  0  0  0  0  0  0  0  0
   24.4371   36.3677   19.3341 C   0  0  0  0  0  0  0  0  0  0  0  0
   27.7339   35.4265   18.4098 O   0  0  0  0  0  0  0  0  0  0  0  0
   25.4253   35.8698   18.2930 C   0  0  2  0  0  0  0  0  0  0  0  0
   24.9413   34.8218   17.3742 N   0  0  0  0  0  0  0  0  0  0  0  0
   23.4805   34.7809   17.1799 C   0  0  0  0  0  0  0  0  0  0  0  0
   25.6769   34.7827   16.1009 C   0  0  0  0  0  0  0  0  0  0  0  0
  1  5  1  0  0  0  0
  2 17  1  0  0  0  0
  3  1  1  0  0  0  0
  4  3  1  0  0  0  0
  4 26  1  6  0  0  0
  5 11  2  0  0  0  0
  5  6  1  0  0  0  0
  6  7  2  0  0  0  0
  7 21  1  0  0  0  0
  8 15  1  0  0  0  0
  8 16  2  0  0  0  0
  9 19  1  0  0  0  0
 10 18  1  0  0  0  0
 11 20  1  0  0  0  0
 13 14  1  0  0  0  0
 13 12  2  0  0  0  0
 15 13  1  1  0  0  0
 17 19  2  0  0  0  0
 17 15  1  0  0  0  0
 18  2  1  0  0  0  0
 18  9  2  0  0  0  0
 20 21  2  0  0  0  0
 20  2  1  0  0  0  0
 21  8  1  0  0  0  0
 22  6  1  0  0  0  0
 23 11  1  0  0  0  0
 23 10  1  0  0  0  0
 24 23  1  0  0  0  0
 25  1  1  0  0  0  0
 27  4  1  0  0  0  0
 27 25  1  0  0  0  0
 27 28  1  6  0  0  0
 29 28  1  0  0  0  0
 30 28  1  0  0  0  0
M  END
>  <CHROM.1>
-131.00233764,-178.05395343,55.56270699,167.92605847,138.88545452,25.41856975
38.76906395,22.21670702,1.55437983,-0.13635571,-2.27639438

>  <Name>
lig.pdb

>  <RI>
0

>  <Rbt.Current_Directory>
/home/itssahil/PROJECTS/Mol_Feturizer/New_Systems/rnas/6bfb

>  <Rbt.Executable>
rbdock ($Id: //depot/dev/client3/rdock/2013.1/src/exe/rbdock.cxx#4 $)

>  <Rbt.Library>
libRbt.so (2013.1, Build901 2013/11/27)

>  <Rbt.Parameter_File>
/export/apps/rDock/src/rDock_2013.1_src/data/scripts/dock_solv.prm

>  <Rbt.Receptor>
prm/pocket_docking_4.prm

>  <SCORE>
-33.4808

>  <SCORE.INTER>
-30.7548

>  <SCORE.INTER.CONST>
1

>  <SCORE.INTER.POLAR>
-0.145001

>  <SCORE.INTER.ROT>
3

>  <SCORE.INTER.SOLV>
12.0869

>  <SCORE.INTER.VDW>
-29.6489

>  <SCORE.INTER.norm>
-1.02516

>  <SCORE.INTRA>
-2.726

>  <SCORE.INTRA.DIHEDRAL>
-5.61282

>  <SCORE.INTRA.DIHEDRAL.0>
9.41909

>  <SCORE.INTRA.POLAR>
0

>  <SCORE.INTRA.POLAR.0>
0

>  <SCORE.INTRA.REPUL>
0.0019188

>  <SCORE.INTRA.REPUL.0>
0

>  <SCORE.INTRA.SOLV>
-0.189103

>  <SCORE.INTRA.SOLV.lig_0>
-26.2491

>  <SCORE.INTRA.VDW>
0.165363

>  <SCORE.INTRA.VDW.0>
2.57239

>  <SCORE.INTRA.norm>
-0.0908667

>  <SCORE.RESTR>
0

>  <SCORE.RESTR.CAVITY>
0

>  <SCORE.RESTR.norm>
0

>  <SCORE.SYSTEM>
0

>  <SCORE.SYSTEM.CONST>
0

>  <SCORE.SYSTEM.DIHEDRAL>
0

>  <SCORE.SYSTEM.SOLV>
0

>  <SCORE.SYSTEM.norm>
0

>  <SCORE.heavy>
30

>  <SCORE.norm>
-1.11603

>  <RMSD>
1.605

$$$$
lig.pdb
 OpenBabel11021811523D
libRbt.so/2013.1/901 2013/11/27
 30 34  0  0  0  0  0  0  0  0999 V2000
   24.7457   38.2816   21.5748 N   0  0  0  0  0  0  0  0  0  0  0  0
   27.1202   41.6358   24.3349 N   0  0  0  0  0  0  0  0  0  0  0  0
   25.9485   37.5703   21.1312 C   0  0  0  0  0  0  0  0  0  0  0  0
   25.3856   36.6510   20.0577 C   0  0  2  0  0  0  0  0  0  0  0  0
   24.7959   39.1656   22.7340 C   0  0  0  0  0  0  0  0  0  0  0  0
   23.7526   39.2777   23.6756 C   0  0  0  0  0  0  0  0  0  0  0  0
   23.7847   40.1293   24.7516 C   0  0  0  0  0  0  0  0  0  0  0  0
   24.9054   41.9102   26.0956 C   0  0  0  0  0  0  0  0  0  0  0  0
   29.2831   42.2349   24.0419 C   0  0  0  0  0  0  0  0  0  0  0  0
   28.2750   40.2795   22.6703 C   0  0  0  0  0  0  0  0  0  0  0  0
   25.9383   39.9847   22.9579 C   0  0  0  0  0  0  0  0  0  0  0  0
   26.9990   44.7023   27.2439 O   0  0  0  0  0  0  0  0  0  0  0  0
   26.1812   43.7811   27.2951 C   0  0  0  0  0  0  0  0  0  0  0  0
   25.3298   43.6374   28.3033 O   0  0  0  0  0  0  0  0  0  0  0  0
   26.1208   42.7564   26.2191 C   0  0  1  0  0  0  0  0  0  0  0  0
   23.9706   41.9637   26.9021 O   0  0  0  0  0  0  0  0  0  0  0  0
   27.2109   42.5878   25.3477 C   0  0  0  0  0  0  0  0  0  0  0  0
   28.3075   41.4247   23.6199 C   0  0  0  0  0  0  0  0  0  0  0  0
   28.7926   43.2485   25.3356 S   0  0  0  0  0  0  0  0  0  0  0  0
   25.9817   40.8457   24.0779 C   0  0  0  0  0  0  0  0  0  0  0  0
   24.8964   40.9449   24.9622 C   0  0  0  0  0  0  0  0  0  0  0  0
   22.6664   38.4909   23.5391 F   0  0  0  0  0  0  0  0  0  0  0  0
   26.9987   39.9973   22.0383 N   0  0  0  0  0  0  0  0  0  0  0  0
   26.6777   40.8119   20.8858 C   0  0  0  0  0  0  0  0  0  0  0  0
   23.5334   37.5480   21.2292 C   0  0  0  0  0  0  0  0  0  0  0  0
   26.0286   36.8566   18.7991 O   0  0  0  0  0  0  0  0  0  0  0  0
   23.9305   37.0608   19.8459 C   0  0  2  0  0  0  0  0  0  0  0  0
   23.1933   35.8952   19.3218 N   0  0  0  0  0  0  0  0  0  0  0  0
   21.7313   35.9406   19.5061 C   0  0  0  0  0  0  0  0  0  0  0  0
   23.5734   35.5400   17.9459 C   0  0  0  0  0  0  0  0  0  0  0  0
  1  5  1  0  0  0  0
  2 17  1  0  0  0  0
  3  1  1  0  0  0  0
  4  3  1  0  0  0  0
  4 26  1  6  0  0  0
  5 11  2  0  0  0  0
  5  6  1  0  0  0  0
  6  7  2  0  0  0  0
  7 21  1  0  0  0  0
  8 15  1  0  0  0  0
  8 16  2  0  0  0  0
  9 19  1  0  0  0  0
 10 18  1  0  0  0  0
 11 20  1  0  0  0  0
 13 14  1  0  0  0  0
 13 12  2  0  0  0  0
 15 13  1  1  0  0  0
 17 19  2  0  0  0  0
 17 15  1  0  0  0  0
 18  2  1  0  0  0  0
 18  9  2  0  0  0  0
 20 21  2  0  0  0  0
 20  2  1  0  0  0  0
 21  8  1  0  0  0  0
 22  6  1  0  0  0  0
 23 11  1  0  0  0  0
 23 10  1  0  0  0  0
 24 23  1  0  0  0  0
 25  1  1  0  0  0  0
 27  4  1  0  0  0  0
 27 25  1  0  0  0  0
 27 28  1  1  0  0  0
 29 28  1  0  0  0  0
 30 28  1  0  0  0  0
M  END
>  <CHROM.1>
-142.20840098,1.34354977,-162.42403849,64.17391796,159.13063214,25.61916394
40.12884158,23.26998313,1.89821274,-0.38002824,-2.22430972

>  <Name>
lig.pdb

>  <RI>
0

>  <Rbt.Current_Directory>
/home/itssahil/PROJECTS/Mol_Feturizer/New_Systems/rnas/6bfb

>  <Rbt.Executable>
rbdock ($Id: //depot/dev/client3/rdock/2013.1/src/exe/rbdock.cxx#4 $)

>  <Rbt.Library>
libRbt.so (2013.1, Build901 2013/11/27)

>  <Rbt.Parameter_File>
/export/apps/rDock/src/rDock_2013.1_src/data/scripts/dock_solv.prm

>  <Rbt.Receptor>
prm/pocket_docking_5.prm

>  <SCORE>
-38.1162

>  <SCORE.INTER>
-35.4462

>  <SCORE.INTER.CONST>
1

>  <SCORE.INTER.POLAR>
0

>  <SCORE.INTER.ROT>
3

>  <SCORE.INTER.SOLV>
13.4071

>  <SCORE.INTER.VDW>
-33.6998

>  <SCORE.INTER.norm>
-1.18154

>  <SCORE.INTRA>
-2.66998

>  <SCORE.INTRA.DIHEDRAL>
-7.29968

>  <SCORE.INTRA.DIHEDRAL.0>
9.41909

>  <SCORE.INTRA.POLAR>
0

>  <SCORE.INTRA.POLAR.0>
0

>  <SCORE.INTRA.REPUL>
0

>  <SCORE.INTRA.REPUL.0>
0

>  <SCORE.INTRA.SOLV>
0.0336145

>  <SCORE.INTRA.SOLV.lig_0>
-26.2491

>  <SCORE.INTRA.VDW>
0.963047

>  <SCORE.INTRA.VDW.0>
2.57239

>  <SCORE.INTRA.norm>
-0.0889995

>  <SCORE.RESTR>
0

>  <SCORE.RESTR.CAVITY>
0

>  <SCORE.RESTR.norm>
0

>  <SCORE.SYSTEM>
0

>  <SCORE.SYSTEM.CONST>
0

>  <SCORE.SYSTEM.DIHEDRAL>
0

>  <SCORE.SYSTEM.SOLV>
0

>  <SCORE.SYSTEM.norm>
0

>  <SCORE.heavy>
30

>  <SCORE.norm>
-1.27054

>  <RMSD>
1.607

$$$$
lig.pdb
 OpenBabel11021811523D
libRbt.so/2013.1/901 2013/11/27
 30 34  0  0  0  0  0  0  0  0999 V2000
   25.2599   38.5384   21.4400 N   0  0  0  0  0  0  0  0  0  0  0  0
   27.0463   41.9660   24.5331 N   0  0  0  0  0  0  0  0  0  0  0  0
   24.6660   38.9675   20.1701 C   0  0  0  0  0  0  0  0  0  0  0  0
   25.2187   37.9302   19.2043 C   0  0  2  0  0  0  0  0  0  0  0  0
   25.1245   39.3640   22.6348 C   0  0  0  0  0  0  0  0  0  0  0  0
   24.0011   39.3267   23.4859 C   0  0  0  0  0  0  0  0  0  0  0  0
   23.8578   40.1225   24.5950 C   0  0  0  0  0  0  0  0  0  0  0  0
   24.6775   41.9347   26.1042 C   0  0  0  0  0  0  0  0  0  0  0  0
   29.1540   42.7871   24.4545 C   0  0  0  0  0  0  0  0  0  0  0  0
   28.4659   40.8136   22.9204 C   0  0  0  0  0  0  0  0  0  0  0  0
   26.1555   40.2784   22.9911 C   0  0  0  0  0  0  0  0  0  0  0  0
   26.2820   43.7022   28.5360 O   0  0  0  0  0  0  0  0  0  0  0  0
   25.6537   43.8588   27.4868 C   0  0  0  0  0  0  0  0  0  0  0  0
   24.8209   44.8752   27.2983 O   0  0  0  0  0  0  0  0  0  0  0  0
   25.7865   42.8882   26.3680 C   0  0  1  0  0  0  0  0  0  0  0  0
   23.6789   41.8565   26.8278 O   0  0  0  0  0  0  0  0  0  0  0  0
   26.9562   42.8705   25.5885 C   0  0  0  0  0  0  0  0  0  0  0  0
   28.3038   41.9077   23.9159 C   0  0  0  0  0  0  0  0  0  0  0  0
   28.4583   43.6821   25.7415 S   0  0  0  0  0  0  0  0  0  0  0  0
   26.0188   41.0824   24.1454 C   0  0  0  0  0  0  0  0  0  0  0  0
   24.8599   41.0310   24.9352 C   0  0  0  0  0  0  0  0  0  0  0  0
   23.0153   38.4454   23.2229 F   0  0  0  0  0  0  0  0  0  0  0  0
   27.2813   40.4403   22.1685 N   0  0  0  0  0  0  0  0  0  0  0  0
   26.9754   41.2763   21.0273 C   0  0  0  0  0  0  0  0  0  0  0  0
   26.4325   37.6983   21.2243 C   0  0  0  0  0  0  0  0  0  0  0  0
   24.1729   37.2344   18.5246 O   0  0  0  0  0  0  0  0  0  0  0  0
   25.9297   36.8764   20.0495 C   0  0  2  0  0  0  0  0  0  0  0  0
   26.9569   36.2279   19.2123 N   0  0  0  0  0  0  0  0  0  0  0  0
   26.4404   35.4581   18.0660 C   0  0  0  0  0  0  0  0  0  0  0  0
   28.0506   37.1346   18.8307 C   0  0  0  0  0  0  0  0  0  0  0  0
  1  5  1  0  0  0  0
  2 17  1  0  0  0  0
  3  1  1  0  0  0  0
  4  3  1  0  0  0  0
  4 26  1  1  0  0  0
  5 11  2  0  0  0  0
  5  6  1  0  0  0  0
  6  7  2  0  0  0  0
  7 21  1  0  0  0  0
  8 15  1  0  0  0  0
  8 16  2  0  0  0  0
  9 19  1  0  0  0  0
 10 18  1  0  0  0  0
 11 20  1  0  0  0  0
 13 14  1  0  0  0  0
 13 12  2  0  0  0  0
 15 13  1  1  0  0  0
 17 19  2  0  0  0  0
 17 15  1  0  0  0  0
 18  2  1  0  0  0  0
 18  9  2  0  0  0  0
 20 21  2  0  0  0  0
 20  2  1  0  0  0  0
 21  8  1  0  0  0  0
 22  6  1  0  0  0  0
 23 11  1  0  0  0  0
 23 10  1  0  0  0  0
 24 23  1  0  0  0  0
 25  1  1  0  0  0  0
 27  4  1  0  0  0  0
 27 25  1  0  0  0  0
 27 28  1  6  0  0  0
 29 28  1  0  0  0  0
 30 28  1  0  0  0  0
M  END
>  <CHROM.1>
84.22385337,170.69324555,105.54364731,60.06617316,-64.69277773,26.04505246
40.44938259,23.24798157,1.62058120,-0.34057051,-2.26682118

>  <Name>
lig.pdb

>  <RI>
0

>  <Rbt.Current_Directory>
/home/itssahil/PROJECTS/Mol_Feturizer/New_Systems/rnas/6bfb

>  <Rbt.Executable>
rbdock ($Id: //depot/dev/client3/rdock/2013.1/src/exe/rbdock.cxx#4 $)

>  <Rbt.Library>
libRbt.so (2013.1, Build901 2013/11/27)

>  <Rbt.Parameter_File>
/export/apps/rDock/src/rDock_2013.1_src/data/scripts/dock_solv.prm

>  <Rbt.Receptor>
prm/pocket_docking_2.prm

>  <SCORE>
-39.7587

>  <SCORE.INTER>
-35.7908

>  <SCORE.INTER.CONST>
1

>  <SCORE.INTER.POLAR>
-1.75953

>  <SCORE.INTER.ROT>
3

>  <SCORE.INTER.SOLV>
11.6656

>  <SCORE.INTER.VDW>
-27.484

>  <SCORE.INTER.norm>
-1.19303

>  <SCORE.INTRA>
-3.97033

>  <SCORE.INTRA.DIHEDRAL>
-7.05942

>  <SCORE.INTRA.DIHEDRAL.0>
9.41909

>  <SCORE.INTRA.POLAR>
0

>  <SCORE.INTRA.POLAR.0>
0

>  <SCORE.INTRA.REPUL>
0

>  <SCORE.INTRA.REPUL.0>
0

>  <SCORE.INTRA.SOLV>
0.086134

>  <SCORE.INTRA.SOLV.lig_0>
-26.2491

>  <SCORE.INTRA.VDW>
-0.483687

>  <SCORE.INTRA.VDW.0>
2.57239

>  <SCORE.INTRA.norm>
-0.132344

>  <SCORE.RESTR>
0.00242742

>  <SCORE.RESTR.CAVITY>
0.00242742

>  <SCORE.RESTR.norm>
8.09141e-05

>  <SCORE.SYSTEM>
0

>  <SCORE.SYSTEM.CONST>
0

>  <SCORE.SYSTEM.DIHEDRAL>
0

>  <SCORE.SYSTEM.SOLV>
0

>  <SCORE.SYSTEM.norm>
0

>  <SCORE.heavy>
30

>  <SCORE.norm>
-1.32529

>  <RMSD>
1.614

$$$$
lig.pdb
 OpenBabel11021811523D
libRbt.so/2013.1/901 2013/11/27
 30 34  0  0  0  0  0  0  0  0999 V2000
   25.3099   38.2343   21.2836 N   0  0  0  0  0  0  0  0  0  0  0  0
   27.0707   41.6469   24.4079 N   0  0  0  0  0  0  0  0  0  0  0  0
   24.7344   38.6351   19.9961 C   0  0  0  0  0  0  0  0  0  0  0  0
   25.3100   37.5834   19.0595 C   0  0  2  0  0  0  0  0  0  0  0  0
   25.1492   39.0815   22.4600 C   0  0  0  0  0  0  0  0  0  0  0  0
   23.9884   39.0937   23.2601 C   0  0  0  0  0  0  0  0  0  0  0  0
   23.8227   39.9101   24.3509 C   0  0  0  0  0  0  0  0  0  0  0  0
   24.6346   41.7167   25.8712 C   0  0  0  0  0  0  0  0  0  0  0  0
   29.2061   42.3970   24.4132 C   0  0  0  0  0  0  0  0  0  0  0  0
   28.5213   40.4247   22.8762 C   0  0  0  0  0  0  0  0  0  0  0  0
   26.1934   39.9668   22.8500 C   0  0  0  0  0  0  0  0  0  0  0  0
   26.4498   43.7019   28.1721 O   0  0  0  0  0  0  0  0  0  0  0  0
   25.6121   43.6280   27.2705 C   0  0  0  0  0  0  0  0  0  0  0  0
   24.5341   44.4015   27.2323 O   0  0  0  0  0  0  0  0  0  0  0  0
   25.7620   42.6370   26.1719 C   0  0  1  0  0  0  0  0  0  0  0  0
   23.6026   41.6820   26.5501 O   0  0  0  0  0  0  0  0  0  0  0  0
   26.9640   42.5694   25.4461 C   0  0  0  0  0  0  0  0  0  0  0  0
   28.3517   41.5382   23.8487 C   0  0  0  0  0  0  0  0  0  0  0  0
   28.4842   43.3333   25.6556 S   0  0  0  0  0  0  0  0  0  0  0  0
   26.0325   40.7919   23.9862 C   0  0  0  0  0  0  0  0  0  0  0  0
   24.8385   40.7902   24.7237 C   0  0  0  0  0  0  0  0  0  0  0  0
   22.9864   38.2415   22.9648 F   0  0  0  0  0  0  0  0  0  0  0  0
   27.3595   40.0794   22.0769 N   0  0  0  0  0  0  0  0  0  0  0  0
   27.1328   40.9080   20.9120 C   0  0  0  0  0  0  0  0  0  0  0  0
   26.4916   37.3985   21.1034 C   0  0  0  0  0  0  0  0  0  0  0  0
   24.2803   36.8675   18.3762 O   0  0  0  0  0  0  0  0  0  0  0  0
   26.0139   36.5509   19.9363 C   0  0  2  0  0  0  0  0  0  0  0  0
   27.0591   35.8937   19.1288 N   0  0  0  0  0  0  0  0  0  0  0  0
   28.2391   36.7254   18.8299 C   0  0  0  0  0  0  0  0  0  0  0  0
   27.4262   34.5605   19.6303 C   0  0  0  0  0  0  0  0  0  0  0  0
  1  5  1  0  0  0  0
  2 17  1  0  0  0  0
  3  1  1  0  0  0  0
  4  3  1  0  0  0  0
  4 26  1  1  0  0  0
  5 11  2  0  0  0  0
  5  6  1  0  0  0  0
  6  7  2  0  0  0  0
  7 21  1  0  0  0  0
  8 15  1  0  0  0  0
  8 16  2  0  0  0  0
  9 19  1  0  0  0  0
 10 18  1  0  0  0  0
 11 20  1  0  0  0  0
 13 14  1  0  0  0  0
 13 12  2  0  0  0  0
 15 13  1  1  0  0  0
 17 19  2  0  0  0  0
 17 15  1  0  0  0  0
 18  2  1  0  0  0  0
 18  9  2  0  0  0  0
 20 21  2  0  0  0  0
 20  2  1  0  0  0  0
 21  8  1  0  0  0  0
 22  6  1  0  0  0  0
 23 11  1  0  0  0  0
 23 10  1  0  0  0  0
 24 23  1  0  0  0  0
 25  1  1  0  0  0  0
 27  4  1  0  0  0  0
 27 25  1  0  0  0  0
 27 28  1  6  0  0  0
 29 28  1  0  0  0  0
 30 28  1  0  0  0  0
M  END
>  <CHROM.1>
81.40511890,0.48385574,127.00275128,64.35598680,72.18115072,26.10854350,40.12825923
23.16077559,1.59172379,-0.25530791,-2.31021363

>  <Name>
lig.pdb

>  <RI>
0

>  <Rbt.Current_Directory>
/home/itssahil/PROJECTS/Mol_Feturizer/New_Systems/rnas/6bfb

>  <Rbt.Executable>
rbdock ($Id: //depot/dev/client3/rdock/2013.1/src/exe/rbdock.cxx#4 $)

>  <Rbt.Library>
libRbt.so (2013.1, Build901 2013/11/27)

>  <Rbt.Parameter_File>
/export/apps/rDock/src/rDock_2013.1_src/data/scripts/dock_solv.prm

>  <Rbt.Receptor>
prm/pocket_docking_3.prm

>  <SCORE>
-41.1288

>  <SCORE.INTER>
-34.9136

>  <SCORE.INTER.CONST>
1

>  <SCORE.INTER.POLAR>
-0.894427

>  <SCORE.INTER.ROT>
3

>  <SCORE.INTER.SOLV>
11.725

>  <SCORE.INTER.VDW>
-29.8027

>  <SCORE.INTER.norm>
-1.16379

>  <SCORE.INTRA>
-6.21561

>  <SCORE.INTRA.DIHEDRAL>
-7.19272

>  <SCORE.INTRA.DIHEDRAL.0>
9.41909

>  <SCORE.INTRA.POLAR>
0

>  <SCORE.INTRA.POLAR.0>
0

>  <SCORE.INTRA.REPUL>
0

>  <SCORE.INTRA.REPUL.0>
0

>  <SCORE.INTRA.SOLV>
-0.140329

>  <SCORE.INTRA.SOLV.lig_0>
-26.2491

>  <SCORE.INTRA.VDW>
-2.54909

>  <SCORE.INTRA.VDW.0>
2.57239

>  <SCORE.INTRA.norm>
-0.207187

>  <SCORE.RESTR>
0.000455216

>  <SCORE.RESTR.CAVITY>
0.000455216

>  <SCORE.RESTR.norm>
1.51739e-05

>  <SCORE.SYSTEM>
0

>  <SCORE.SYSTEM.CONST>
0

>  <SCORE.SYSTEM.DIHEDRAL>
0

>  <SCORE.SYSTEM.SOLV>
0

>  <SCORE.SYSTEM.norm>
0

>  <SCORE.heavy>
30

>  <SCORE.norm>
-1.37096

>  <RMSD>
1.617

$$$$
lig.pdb
 OpenBabel11021811523D
libRbt.so/2013.1/901 2013/11/27
 30 34  0  0  0  0  0  0  0  0999 V2000
   24.6118   38.3183   21.5696 N   0  0  0  0  0  0  0  0  0  0  0  0
   26.8634   41.8776   24.1714 N   0  0  0  0  0  0  0  0  0  0  0  0
   25.8290   37.6374   21.1176 C   0  0  0  0  0  0  0  0  0  0  0  0
   25.2783   36.6851   20.0668 C   0  0  2  0  0  0  0  0  0  0  0  0
   24.6525   39.2210   22.7146 C   0  0  0  0  0  0  0  0  0  0  0  0
   23.6501   39.2712   23.7048 C   0  0  0  0  0  0  0  0  0  0  0  0
   23.6712   40.1390   24.7680 C   0  0  0  0  0  0  0  0  0  0  0  0
   24.7213   42.0167   26.0350 C   0  0  0  0  0  0  0  0  0  0  0  0
   28.9599   42.6279   23.7661 C   0  0  0  0  0  0  0  0  0  0  0  0
   28.0334   40.5838   22.4681 C   0  0  0  0  0  0  0  0  0  0  0  0
   25.7411   40.1243   22.8729 C   0  0  0  0  0  0  0  0  0  0  0  0
   26.9563   44.2379   27.7577 O   0  0  0  0  0  0  0  0  0  0  0  0
   25.9124   43.9933   27.1490 C   0  0  0  0  0  0  0  0  0  0  0  0
   24.7715   44.6206   27.4074 O   0  0  0  0  0  0  0  0  0  0  0  0
   25.8759   42.9507   26.0891 C   0  0  1  0  0  0  0  0  0  0  0  0
   23.8249   42.0142   26.8855 O   0  0  0  0  0  0  0  0  0  0  0  0
   26.9324   42.8488   25.1674 C   0  0  0  0  0  0  0  0  0  0  0  0
   28.0273   41.7426   23.4016 C   0  0  0  0  0  0  0  0  0  0  0  0
   28.4590   43.6225   25.0704 S   0  0  0  0  0  0  0  0  0  0  0  0
   25.7748   41.0029   23.9795 C   0  0  0  0  0  0  0  0  0  0  0  0
   24.7289   41.0363   24.9146 C   0  0  0  0  0  0  0  0  0  0  0  0
   22.6193   38.4054   23.6307 F   0  0  0  0  0  0  0  0  0  0  0  0
   26.7524   40.2001   21.9025 N   0  0  0  0  0  0  0  0  0  0  0  0
   26.3176   40.9718   20.7578 C   0  0  0  0  0  0  0  0  0  0  0  0
   23.4175   37.5428   21.2540 C   0  0  0  0  0  0  0  0  0  0  0  0
   25.8953   36.8910   18.7953 O   0  0  0  0  0  0  0  0  0  0  0  0
   23.8081   37.0469   19.8719 C   0  0  2  0  0  0  0  0  0  0  0  0
   23.0992   35.8516   19.3768 N   0  0  0  0  0  0  0  0  0  0  0  0
   21.6321   35.8870   19.5169 C   0  0  0  0  0  0  0  0  0  0  0  0
   23.5232   35.4433   18.0287 C   0  0  0  0  0  0  0  0  0  0  0  0
  1  5  1  0  0  0  0
  2 17  1  0  0  0  0
  3  1  1  0  0  0  0
  4  3  1  0  0  0  0
  4 26  1  6  0  0  0
  5 11  2  0  0  0  0
  5  6  1  0  0  0  0
  6  7  2  0  0  0  0
  7 21  1  0  0  0  0
  8 15  1  0  0  0  0
  8 16  2  0  0  0  0
  9 19  1  0  0  0  0
 10 18  1  0  0  0  0
 11 20  1  0  0  0  0
 13 14  1  0  0  0  0
 13 12  2  0  0  0  0
 15 13  1  1  0  0  0
 17 19  2  0  0  0  0
 17 15  1  0  0  0  0
 18  2  1  0  0  0  0
 18  9  2  0  0  0  0
 20 21  2  0  0  0  0
 20  2  1  0  0  0  0
 21  8  1  0  0  0  0
 22  6  1  0  0  0  0
 23 11  1  0  0  0  0
 23 10  1  0  0  0  0
 24 23  1  0  0  0  0
 25  1  1  0  0  0  0
 27  4  1  0  0  0  0
 27 25  1  0  0  0  0
 27 28  1  1  0  0  0
 29 28  1  0  0  0  0
 30 28  1  0  0  0  0
M  END
>  <CHROM.1>
-139.12848751,-0.36156995,137.30267058,-58.69177910,162.31922063,25.42093109
40.26192308,23.18771903,1.88622847,-0.43310451,-2.24986942

>  <Name>
lig.pdb

>  <RI>
0

>  <Rbt.Current_Directory>
/home/itssahil/PROJECTS/Mol_Feturizer/New_Systems/rnas/6bfb

>  <Rbt.Executable>
rbdock ($Id: //depot/dev/client3/rdock/2013.1/src/exe/rbdock.cxx#4 $)

>  <Rbt.Library>
libRbt.so (2013.1, Build901 2013/11/27)

>  <Rbt.Parameter_File>
/export/apps/rDock/src/rDock_2013.1_src/data/scripts/dock_solv.prm

>  <Rbt.Receptor>
prm/pocket_docking_6.prm

>  <SCORE>
-38.906

>  <SCORE.INTER>
-35.6273

>  <SCORE.INTER.CONST>
1

>  <SCORE.INTER.POLAR>
0

>  <SCORE.INTER.ROT>
3

>  <SCORE.INTER.SOLV>
12.7195

>  <SCORE.INTER.VDW>
-33.5913

>  <SCORE.INTER.norm>
-1.18758

>  <SCORE.INTRA>
-3.27875

>  <SCORE.INTRA.DIHEDRAL>
-7.51811

>  <SCORE.INTRA.DIHEDRAL.0>
9.41909

>  <SCORE.INTRA.POLAR>
0

>  <SCORE.INTRA.POLAR.0>
0

>  <SCORE.INTRA.REPUL>
0

>  <SCORE.INTRA.REPUL.0>
0

>  <SCORE.INTRA.SOLV>
-0.00822789

>  <SCORE.INTRA.SOLV.lig_0>
-26.2491

>  <SCORE.INTRA.VDW>
0.484419

>  <SCORE.INTRA.VDW.0>
2.57239

>  <SCORE.INTRA.norm>
-0.109292

>  <SCORE.RESTR>
0

>  <SCORE.RESTR.CAVITY>
0

>  <SCORE.RESTR.norm>
0

>  <SCORE.SYSTEM>
0

>  <SCORE.SYSTEM.CONST>
0

>  <SCORE.SYSTEM.DIHEDRAL>
0

>  <SCORE.SYSTEM.SOLV>
0

>  <SCORE.SYSTEM.norm>
0

>  <SCORE.heavy>
30

>  <SCORE.norm>
-1.29687

>  <RMSD>
1.620

$$$$
lig.pdb
 OpenBabel11021811523D
libRbt.so/2013.1/901 2013/11/27
 30 34  0  0  0  0  0  0  0  0999 V2000
   26.5681   38.1098   20.8473 N   0  0  0  0  0  0  0  0  0  0  0  0
   26.0963   41.0946   24.7685 N   0  0  0  0  0  0  0  0  0  0  0  0
   26.8349   36.6687   20.8083 C   0  0  0  0  0  0  0  0  0  0  0  0
   27.5209   36.5178   19.4589 C   0  0  2  0  0  0  0  0  0  0  0  0
   25.7578   38.6822   21.9166 C   0  0  0  0  0  0  0  0  0  0  0  0
   24.4004   38.3623   22.1237 C   0  0  0  0  0  0  0  0  0  0  0  0
   23.6276   38.9203   23.1113 C   0  0  0  0  0  0  0  0  0  0  0  0
   23.3259   40.5072   25.0151 C   0  0  0  0  0  0  0  0  0  0  0  0
   27.8192   42.1505   25.7880 C   0  0  0  0  0  0  0  0  0  0  0  0
   28.2769   40.4257   23.9074 C   0  0  0  0  0  0  0  0  0  0  0  0
   26.3274   39.6273   22.8158 C   0  0  0  0  0  0  0  0  0  0  0  0
   23.3746   43.4480   27.0944 O   0  0  0  0  0  0  0  0  0  0  0  0
   23.1973   42.2444   26.8946 C   0  0  0  0  0  0  0  0  0  0  0  0
   22.3094   41.5307   27.5759 O   0  0  0  0  0  0  0  0  0  0  0  0
   23.9980   41.5162   25.8746 C   0  0  1  0  0  0  0  0  0  0  0  0
   22.1425   40.1848   25.1654 O   0  0  0  0  0  0  0  0  0  0  0  0
   25.3737   41.7746   25.7461 C   0  0  0  0  0  0  0  0  0  0  0  0
   27.4832   41.2936   24.8190 C   0  0  0  0  0  0  0  0  0  0  0  0
   26.4654   42.7099   26.6798 S   0  0  0  0  0  0  0  0  0  0  0  0
   25.5383   40.1858   23.8469 C   0  0  0  0  0  0  0  0  0  0  0  0
   24.1801   39.8593   23.9821 C   0  0  0  0  0  0  0  0  0  0  0  0
   23.8222   37.4377   21.3311 F   0  0  0  0  0  0  0  0  0  0  0  0
   27.6509   40.0638   22.6483 N   0  0  0  0  0  0  0  0  0  0  0  0
   27.7424   41.0541   21.5968 C   0  0  0  0  0  0  0  0  0  0  0  0
   26.5850   38.6924   19.5102 C   0  0  0  0  0  0  0  0  0  0  0  0
   28.8166   35.9315   19.5903 O   0  0  0  0  0  0  0  0  0  0  0  0
   27.7618   37.9283   18.9273 C   0  0  2  0  0  0  0  0  0  0  0  0
   27.8388   37.8610   17.4555 N   0  0  0  0  0  0  0  0  0  0  0  0
   29.0899   37.2977   16.9160 C   0  0  0  0  0  0  0  0  0  0  0  0
   26.6442   37.2634   16.8394 C   0  0  0  0  0  0  0  0  0  0  0  0
  1  5  1  0  0  0  0
  2 17  1  0  0  0  0
  3  1  1  0  0  0  0
  4  3  1  0  0  0  0
  4 26  1  1  0  0  0
  5 11  2  0  0  0  0
  5  6  1  0  0  0  0
  6  7  2  0  0  0  0
  7 21  1  0  0  0  0
  8 15  1  0  0  0  0
  8 16  2  0  0  0  0
  9 19  1  0  0  0  0
 10 18  1  0  0  0  0
 11 20  1  0  0  0  0
 13 14  1  0  0  0  0
 13 12  2  0  0  0  0
 15 13  1  1  0  0  0
 17 19  2  0  0  0  0
 17 15  1  0  0  0  0
 18  2  1  0  0  0  0
 18  9  2  0  0  0  0
 20 21  2  0  0  0  0
 20  2  1  0  0  0  0
 21  8  1  0  0  0  0
 22  6  1  0  0  0  0
 23 11  1  0  0  0  0
 23 10  1  0  0  0  0
 24 23  1  0  0  0  0
 25  1  1  0  0  0  0
 27  4  1  0  0  0  0
 27 25  1  0  0  0  0
 27 28  1  6  0  0  0
 29 28  1  0  0  0  0
 30 28  1  0  0  0  0
M  END
>  <CHROM.1>
-63.17647458,-0.47518992,-139.73364144,63.39957694,-74.77309684,25.89638289
39.72179068,22.87370048,1.21722841,-0.27737056,-2.21694133

>  <Name>
lig.pdb

>  <RI>
0

>  <Rbt.Current_Directory>
/home/itssahil/PROJECTS/Mol_Feturizer/New_Systems/rnas/6bfb

>  <Rbt.Executable>
rbdock ($Id: //depot/dev/client3/rdock/2013.1/src/exe/rbdock.cxx#4 $)

>  <Rbt.Library>
libRbt.so (2013.1, Build901 2013/11/27)

>  <Rbt.Parameter_File>
/export/apps/rDock/src/rDock_2013.1_src/data/scripts/dock_solv.prm

>  <Rbt.Receptor>
prm/blind_docking_60.prm

>  <SCORE>
-30.4504

>  <SCORE.INTER>
-25.9726

>  <SCORE.INTER.CONST>
1

>  <SCORE.INTER.POLAR>
0

>  <SCORE.INTER.ROT>
3

>  <SCORE.INTER.SOLV>
11.8174

>  <SCORE.INTER.VDW>
-26.8542

>  <SCORE.INTER.norm>
-0.865753

>  <SCORE.INTRA>
-4.47783

>  <SCORE.INTRA.DIHEDRAL>
-7.53693

>  <SCORE.INTRA.DIHEDRAL.0>
9.41909

>  <SCORE.INTRA.POLAR>
0

>  <SCORE.INTRA.POLAR.0>
0

>  <SCORE.INTRA.REPUL>
0.0966608

>  <SCORE.INTRA.REPUL.0>
0

>  <SCORE.INTRA.SOLV>
0.0154637

>  <SCORE.INTRA.SOLV.lig_0>
-26.2491

>  <SCORE.INTRA.VDW>
-1.20039

>  <SCORE.INTRA.VDW.0>
2.57239

>  <SCORE.INTRA.norm>
-0.149261

>  <SCORE.RESTR>
0

>  <SCORE.RESTR.CAVITY>
0

>  <SCORE.RESTR.norm>
0

>  <SCORE.SYSTEM>
0

>  <SCORE.SYSTEM.CONST>
0

>  <SCORE.SYSTEM.DIHEDRAL>
0

>  <SCORE.SYSTEM.SOLV>
0

>  <SCORE.SYSTEM.norm>
0

>  <SCORE.heavy>
30

>  <SCORE.norm>
-1.01501

>  <RMSD>
1.625

$$$$
lig.pdb
 OpenBabel11021811523D
libRbt.so/2013.1/901 2013/11/27
 30 34  0  0  0  0  0  0  0  0999 V2000
   25.2528   38.5326   21.4708 N   0  0  0  0  0  0  0  0  0  0  0  0
   27.0475   41.9658   24.5529 N   0  0  0  0  0  0  0  0  0  0  0  0
   24.6345   38.9477   20.2079 C   0  0  0  0  0  0  0  0  0  0  0  0
   25.1904   37.9160   19.2379 C   0  0  2  0  0  0  0  0  0  0  0  0
   25.1208   39.3601   22.6647 C   0  0  0  0  0  0  0  0  0  0  0  0
   24.0000   39.3238   23.5192 C   0  0  0  0  0  0  0  0  0  0  0  0
   23.8598   40.1214   24.6275 C   0  0  0  0  0  0  0  0  0  0  0  0
   24.6835   41.9363   26.1313 C   0  0  0  0  0  0  0  0  0  0  0  0
   29.1547   42.7874   24.4667 C   0  0  0  0  0  0  0  0  0  0  0  0
   28.4626   40.8113   22.9379 C   0  0  0  0  0  0  0  0  0  0  0  0
   26.1526   40.2755   23.0164 C   0  0  0  0  0  0  0  0  0  0  0  0
   26.2730   43.6932   28.5658 O   0  0  0  0  0  0  0  0  0  0  0  0
   25.6632   43.8630   27.5078 C   0  0  0  0  0  0  0  0  0  0  0  0
   24.8536   44.8958   27.3081 O   0  0  0  0  0  0  0  0  0  0  0  0
   25.7929   42.8905   26.3902 C   0  0  1  0  0  0  0  0  0  0  0  0
   23.6870   41.8589   26.8580 O   0  0  0  0  0  0  0  0  0  0  0  0
   26.9603   42.8720   25.6072 C   0  0  0  0  0  0  0  0  0  0  0  0
   28.3031   41.9069   23.9321 C   0  0  0  0  0  0  0  0  0  0  0  0
   28.4626   43.6842   25.7543 S   0  0  0  0  0  0  0  0  0  0  0  0
   26.0191   41.0813   24.1698 C   0  0  0  0  0  0  0  0  0  0  0  0
   24.8627   41.0308   24.9632 C   0  0  0  0  0  0  0  0  0  0  0  0
   23.0137   38.4418   23.2607 F   0  0  0  0  0  0  0  0  0  0  0  0
   27.2759   40.4363   22.1902 N   0  0  0  0  0  0  0  0  0  0  0  0
   26.9663   41.2704   21.0485 C   0  0  0  0  0  0  0  0  0  0  0  0
   26.4358   37.7108   21.2415 C   0  0  0  0  0  0  0  0  0  0  0  0
   24.1466   37.2010   18.5752 O   0  0  0  0  0  0  0  0  0  0  0  0
   25.9300   36.8768   20.0765 C   0  0  2  0  0  0  0  0  0  0  0  0
   26.9558   36.2420   19.2272 N   0  0  0  0  0  0  0  0  0  0  0  0
   26.4361   35.4655   18.0869 C   0  0  0  0  0  0  0  0  0  0  0  0
   28.0328   37.1631   18.8329 C   0  0  0  0  0  0  0  0  0  0  0  0
  1  5  1  0  0  0  0
  2 17  1  0  0  0  0
  3  1  1  0  0  0  0
  4  3  1  0  0  0  0
  4 26  1  1  0  0  0
  5 11  2  0  0  0  0
  5  6  1  0  0  0  0
  6  7  2  0  0  0  0
  7 21  1  0  0  0  0
  8 15  1  0  0  0  0
  8 16  2  0  0  0  0
  9 19  1  0  0  0  0
 10 18  1  0  0  0  0
 11 20  1  0  0  0  0
 13 14  1  0  0  0  0
 13 12  2  0  0  0  0
 15 13  1  1  0  0  0
 17 19  2  0  0  0  0
 17 15  1  0  0  0  0
 18  2  1  0  0  0  0
 18  9  2  0  0  0  0
 20 21  2  0  0  0  0
 20  2  1  0  0  0  0
 21  8  1  0  0  0  0
 22  6  1  0  0  0  0
 23 11  1  0  0  0  0
 23 10  1  0  0  0  0
 24 23  1  0  0  0  0
 25  1  1  0  0  0  0
 27  4  1  0  0  0  0
 27 25  1  0  0  0  0
 27 28  1  6  0  0  0
 29 28  1  0  0  0  0
 30 28  1  0  0  0  0
M  END
>  <CHROM.1>
83.11561084,170.32848776,104.00623021,60.88299724,-64.40331332,26.04286381
40.44900625,23.27186637,1.62294785,-0.34409604,-2.26661691

>  <Name>
lig.pdb

>  <RI>
0

>  <Rbt.Current_Directory>
/home/itssahil/PROJECTS/Mol_Feturizer/New_Systems/rnas/6bfb

>  <Rbt.Executable>
rbdock ($Id: //depot/dev/client3/rdock/2013.1/src/exe/rbdock.cxx#4 $)

>  <Rbt.Library>
libRbt.so (2013.1, Build901 2013/11/27)

>  <Rbt.Parameter_File>
/export/apps/rDock/src/rDock_2013.1_src/data/scripts/dock_solv.prm

>  <Rbt.Receptor>
prm/pocket_docking_2.prm

>  <SCORE>
-39.7024

>  <SCORE.INTER>
-35.7842

>  <SCORE.INTER.CONST>
1

>  <SCORE.INTER.POLAR>
-1.82216

>  <SCORE.INTER.ROT>
3

>  <SCORE.INTER.SOLV>
11.7306

>  <SCORE.INTER.VDW>
-27.2925

>  <SCORE.INTER.norm>
-1.19281

>  <SCORE.INTRA>
-3.92273

>  <SCORE.INTRA.DIHEDRAL>
-7.00381

>  <SCORE.INTRA.DIHEDRAL.0>
9.41909

>  <SCORE.INTRA.POLAR>
0

>  <SCORE.INTRA.POLAR.0>
0

>  <SCORE.INTRA.REPUL>
0

>  <SCORE.INTRA.REPUL.0>
0

>  <SCORE.INTRA.SOLV>
0.0837731

>  <SCORE.INTRA.SOLV.lig_0>
-26.2491

>  <SCORE.INTRA.VDW>
-0.462713

>  <SCORE.INTRA.VDW.0>
2.57239

>  <SCORE.INTRA.norm>
-0.130758

>  <SCORE.RESTR>
0.00459914

>  <SCORE.RESTR.CAVITY>
0.00459914

>  <SCORE.RESTR.norm>
0.000153305

>  <SCORE.SYSTEM>
0

>  <SCORE.SYSTEM.CONST>
0

>  <SCORE.SYSTEM.DIHEDRAL>
0

>  <SCORE.SYSTEM.SOLV>
0

>  <SCORE.SYSTEM.norm>
0

>  <SCORE.heavy>
30

>  <SCORE.norm>
-1.32341

>  <RMSD>
1.629

$$$$
lig.pdb
 OpenBabel11021811523D
libRbt.so/2013.1/901 2013/11/27
 30 34  0  0  0  0  0  0  0  0999 V2000
   24.7937   38.2533   21.5279 N   0  0  0  0  0  0  0  0  0  0  0  0
   27.0972   41.6397   24.3088 N   0  0  0  0  0  0  0  0  0  0  0  0
   25.9888   37.4995   21.1366 C   0  0  0  0  0  0  0  0  0  0  0  0
   25.4418   36.6022   20.0366 C   0  0  2  0  0  0  0  0  0  0  0  0
   24.8238   39.1336   22.6904 C   0  0  0  0  0  0  0  0  0  0  0  0
   23.7753   39.2233   23.6287 C   0  0  0  0  0  0  0  0  0  0  0  0
   23.7881   40.0713   24.7079 C   0  0  0  0  0  0  0  0  0  0  0  0
   24.8715   41.8672   26.0625 C   0  0  0  0  0  0  0  0  0  0  0  0
   29.2498   42.2790   24.0258 C   0  0  0  0  0  0  0  0  0  0  0  0
   28.2822   40.3107   22.6434 C   0  0  0  0  0  0  0  0  0  0  0  0
   25.9503   39.9726   22.9214 C   0  0  0  0  0  0  0  0  0  0  0  0
   25.2127   44.5966   27.3790 O   0  0  0  0  0  0  0  0  0  0  0  0
   26.1088   43.7564   27.2734 C   0  0  0  0  0  0  0  0  0  0  0  0
   27.1542   43.7210   28.0907 O   0  0  0  0  0  0  0  0  0  0  0  0
   26.0709   42.7348   26.1934 C   0  0  1  0  0  0  0  0  0  0  0  0
   23.9331   41.9007   26.8657 O   0  0  0  0  0  0  0  0  0  0  0  0
   27.1669   42.5894   25.3253 C   0  0  0  0  0  0  0  0  0  0  0  0
   28.2906   41.4528   23.5972 C   0  0  0  0  0  0  0  0  0  0  0  0
   28.7364   43.2787   25.3213 S   0  0  0  0  0  0  0  0  0  0  0  0
   25.9740   40.8300   24.0448 C   0  0  0  0  0  0  0  0  0  0  0  0
   24.8841   40.9061   24.9255 C   0  0  0  0  0  0  0  0  0  0  0  0
   22.7041   38.4174   23.4854 F   0  0  0  0  0  0  0  0  0  0  0  0
   27.0135   40.0078   22.0057 N   0  0  0  0  0  0  0  0  0  0  0  0
   26.6818   40.8208   20.8551 C   0  0  0  0  0  0  0  0  0  0  0  0
   23.5725   37.5642   21.1264 C   0  0  0  0  0  0  0  0  0  0  0  0
   26.1475   36.7857   18.8085 O   0  0  0  0  0  0  0  0  0  0  0  0
   24.0133   37.0644   19.7610 C   0  0  2  0  0  0  0  0  0  0  0  0
   23.2588   35.9267   19.2014 N   0  0  0  0  0  0  0  0  0  0  0  0
   21.8110   35.9345   19.4788 C   0  0  0  0  0  0  0  0  0  0  0  0
   23.5558   35.6762   17.7826 C   0  0  0  0  0  0  0  0  0  0  0  0
  1  5  1  0  0  0  0
  2 17  1  0  0  0  0
  3  1  1  0  0  0  0
  4  3  1  0  0  0  0
  4 26  1  6  0  0  0
  5 11  2  0  0  0  0
  5  6  1  0  0  0  0
  6  7  2  0  0  0  0
  7 21  1  0  0  0  0
  8 15  1  0  0  0  0
  8 16  2  0  0  0  0
  9 19  1  0  0  0  0
 10 18  1  0  0  0  0
 11 20  1  0  0  0  0
 13 14  1  0  0  0  0
 13 12  2  0  0  0  0
 15 13  1  1  0  0  0
 17 19  2  0  0  0  0
 17 15  1  0  0  0  0
 18  2  1  0  0  0  0
 18  9  2  0  0  0  0
 20 21  2  0  0  0  0
 20  2  1  0  0  0  0
 21  8  1  0  0  0  0
 22  6  1  0  0  0  0
 23 11  1  0  0  0  0
 23 10  1  0  0  0  0
 24 23  1  0  0  0  0
 25  1  1  0  0  0  0
 27  4  1  0  0  0  0
 27 25  1  0  0  0  0
 27 28  1  1  0  0  0
 29 28  1  0  0  0  0
 30 28  1  0  0  0  0
M  END
>  <CHROM.1>
-138.30565407,-0.50370919,-55.09068529,161.53019523,151.24639162,25.62944608
40.11777745,23.22769727,1.88900113,-0.36273252,-2.22831575

>  <Name>
lig.pdb

>  <RI>
0

>  <Rbt.Current_Directory>
/home/itssahil/PROJECTS/Mol_Feturizer/New_Systems/rnas/6bfb

>  <Rbt.Executable>
rbdock ($Id: //depot/dev/client3/rdock/2013.1/src/exe/rbdock.cxx#4 $)

>  <Rbt.Library>
libRbt.so (2013.1, Build901 2013/11/27)

>  <Rbt.Parameter_File>
/export/apps/rDock/src/rDock_2013.1_src/data/scripts/dock_solv.prm

>  <Rbt.Receptor>
prm/pocket_docking_4.prm

>  <SCORE>
-37.5863

>  <SCORE.INTER>
-35.376

>  <SCORE.INTER.CONST>
1

>  <SCORE.INTER.POLAR>
0

>  <SCORE.INTER.ROT>
3

>  <SCORE.INTER.SOLV>
13.252

>  <SCORE.INTER.VDW>
-33.6013

>  <SCORE.INTER.norm>
-1.1792

>  <SCORE.INTRA>
-2.21026

>  <SCORE.INTRA.DIHEDRAL>
-5.47748

>  <SCORE.INTRA.DIHEDRAL.0>
9.41909

>  <SCORE.INTRA.POLAR>
0

>  <SCORE.INTRA.POLAR.0>
0

>  <SCORE.INTRA.REPUL>
0

>  <SCORE.INTRA.REPUL.0>
0

>  <SCORE.INTRA.SOLV>
-0.058158

>  <SCORE.INTRA.SOLV.lig_0>
-26.2491

>  <SCORE.INTRA.VDW>
0.55756

>  <SCORE.INTRA.VDW.0>
2.57239

>  <SCORE.INTRA.norm>
-0.0736753

>  <SCORE.RESTR>
0

>  <SCORE.RESTR.CAVITY>
0

>  <SCORE.RESTR.norm>
0

>  <SCORE.SYSTEM>
0

>  <SCORE.SYSTEM.CONST>
0

>  <SCORE.SYSTEM.DIHEDRAL>
0

>  <SCORE.SYSTEM.SOLV>
0

>  <SCORE.SYSTEM.norm>
0

>  <SCORE.heavy>
30

>  <SCORE.norm>
-1.25288

>  <RMSD>
1.631

$$$$
lig.pdb
 OpenBabel11021811523D
libRbt.so/2013.1/901 2013/11/27
 30 34  0  0  0  0  0  0  0  0999 V2000
   24.6391   38.2892   21.5771 N   0  0  0  0  0  0  0  0  0  0  0  0
   26.9298   41.8491   24.1436 N   0  0  0  0  0  0  0  0  0  0  0  0
   25.8423   37.5664   21.1535 C   0  0  0  0  0  0  0  0  0  0  0  0
   25.2801   36.6180   20.1052 C   0  0  2  0  0  0  0  0  0  0  0  0
   24.6886   39.2044   22.7117 C   0  0  0  0  0  0  0  0  0  0  0  0
   23.6845   39.2787   23.6987 C   0  0  0  0  0  0  0  0  0  0  0  0
   23.7141   40.1584   24.7519 C   0  0  0  0  0  0  0  0  0  0  0  0
   24.7851   42.0370   26.0000 C   0  0  0  0  0  0  0  0  0  0  0  0
   29.0367   42.5678   23.7351 C   0  0  0  0  0  0  0  0  0  0  0  0
   28.0873   40.5210   22.4583 C   0  0  0  0  0  0  0  0  0  0  0  0
   25.7883   40.0955   22.8625 C   0  0  0  0  0  0  0  0  0  0  0  0
   27.0329   44.2209   27.7318 O   0  0  0  0  0  0  0  0  0  0  0  0
   25.9987   44.0109   27.0943 C   0  0  0  0  0  0  0  0  0  0  0  0
   24.8772   44.6874   27.3100 O   0  0  0  0  0  0  0  0  0  0  0  0
   25.9514   42.9568   26.0463 C   0  0  1  0  0  0  0  0  0  0  0  0
   23.8866   42.0558   26.8481 O   0  0  0  0  0  0  0  0  0  0  0  0
   27.0088   42.8308   25.1286 C   0  0  0  0  0  0  0  0  0  0  0  0
   28.0938   41.6904   23.3785 C   0  0  0  0  0  0  0  0  0  0  0  0
   28.5454   43.5837   25.0266 S   0  0  0  0  0  0  0  0  0  0  0  0
   25.8306   40.9863   23.9589 C   0  0  0  0  0  0  0  0  0  0  0  0
   24.7828   41.0438   24.8909 C   0  0  0  0  0  0  0  0  0  0  0  0
   22.6429   38.4255   23.6318 F   0  0  0  0  0  0  0  0  0  0  0  0
   26.8029   40.1471   21.8938 N   0  0  0  0  0  0  0  0  0  0  0  0
   26.3808   40.9111   20.7393 C   0  0  0  0  0  0  0  0  0  0  0  0
   23.4271   37.5461   21.2510 C   0  0  0  0  0  0  0  0  0  0  0  0
   25.9236   36.7895   18.8417 O   0  0  0  0  0  0  0  0  0  0  0  0
   23.8249   37.0216   19.8816 C   0  0  2  0  0  0  0  0  0  0  0  0
   23.0882   35.8420   19.3891 N   0  0  0  0  0  0  0  0  0  0  0  0
   21.6206   35.9248   19.5013 C   0  0  0  0  0  0  0  0  0  0  0  0
   23.5238   35.4024   18.0546 C   0  0  0  0  0  0  0  0  0  0  0  0
  1  5  1  0  0  0  0
  2 17  1  0  0  0  0
  3  1  1  0  0  0  0
  4  3  1  0  0  0  0
  4 26  1  6  0  0  0
  5 11  2  0  0  0  0
  5  6  1  0  0  0  0
  6  7  2  0  0  0  0
  7 21  1  0  0  0  0
  8 15  1  0  0  0  0
  8 16  2  0  0  0  0
  9 19  1  0  0  0  0
 10 18  1  0  0  0  0
 11 20  1  0  0  0  0
 13 14  1  0  0  0  0
 13 12  2  0  0  0  0
 15 13  1  1  0  0  0
 17 19  2  0  0  0  0
 17 15  1  0  0  0  0
 18  2  1  0  0  0  0
 18  9  2  0  0  0  0
 20 21  2  0  0  0  0
 20  2  1  0  0  0  0
 21  8  1  0  0  0  0
 22  6  1  0  0  0  0
 23 11  1  0  0  0  0
 23 10  1  0  0  0  0
 24 23  1  0  0  0  0
 25  1  1  0  0  0  0
 27  4  1  0  0  0  0
 27 25  1  0  0  0  0
 27 28  1  1  0  0  0
 29 28  1  0  0  0  0
 30 28  1  0  0  0  0
M  END
>  <CHROM.1>
-137.85047838,0.55742696,135.03244610,-57.74812668,162.46376541,25.46829529
40.24319332,23.17284540,1.89266137,-0.41789689,-2.25841413

>  <Name>
lig.pdb

>  <RI>
0

>  <Rbt.Current_Directory>
/home/itssahil/PROJECTS/Mol_Feturizer/New_Systems/rnas/6bfb

>  <Rbt.Executable>
rbdock ($Id: //depot/dev/client3/rdock/2013.1/src/exe/rbdock.cxx#4 $)

>  <Rbt.Library>
libRbt.so (2013.1, Build901 2013/11/27)

>  <Rbt.Parameter_File>
/export/apps/rDock/src/rDock_2013.1_src/data/scripts/dock_solv.prm

>  <Rbt.Receptor>
prm/pocket_docking_8.prm

>  <SCORE>
-38.8516

>  <SCORE.INTER>
-35.3951

>  <SCORE.INTER.CONST>
1

>  <SCORE.INTER.POLAR>
0

>  <SCORE.INTER.ROT>
3

>  <SCORE.INTER.SOLV>
12.8183

>  <SCORE.INTER.VDW>
-33.4695

>  <SCORE.INTER.norm>
-1.17984

>  <SCORE.INTRA>
-3.45646

>  <SCORE.INTRA.DIHEDRAL>
-7.51038

>  <SCORE.INTRA.DIHEDRAL.0>
9.41909

>  <SCORE.INTRA.POLAR>
0

>  <SCORE.INTRA.POLAR.0>
0

>  <SCORE.INTRA.REPUL>
0

>  <SCORE.INTRA.REPUL.0>
0

>  <SCORE.INTRA.SOLV>
-0.0204031

>  <SCORE.INTRA.SOLV.lig_0>
-26.2491

>  <SCORE.INTRA.VDW>
0.308931

>  <SCORE.INTRA.VDW.0>
2.57239

>  <SCORE.INTRA.norm>
-0.115215

>  <SCORE.RESTR>
0

>  <SCORE.RESTR.CAVITY>
0

>  <SCORE.RESTR.norm>
0

>  <SCORE.SYSTEM>
0

>  <SCORE.SYSTEM.CONST>
0

>  <SCORE.SYSTEM.DIHEDRAL>
0

>  <SCORE.SYSTEM.SOLV>
0

>  <SCORE.SYSTEM.norm>
0

>  <SCORE.heavy>
30

>  <SCORE.norm>
-1.29505

>  <RMSD>
1.633

$$$$
lig.pdb
 OpenBabel11021811523D
libRbt.so/2013.1/901 2013/11/27
 30 34  0  0  0  0  0  0  0  0999 V2000
   25.4178   38.2314   21.3431 N   0  0  0  0  0  0  0  0  0  0  0  0
   26.9576   41.7803   24.4321 N   0  0  0  0  0  0  0  0  0  0  0  0
   24.8399   38.5518   20.0344 C   0  0  0  0  0  0  0  0  0  0  0  0
   25.4935   37.5060   19.1436 C   0  0  2  0  0  0  0  0  0  0  0  0
   25.1867   39.1069   22.4866 C   0  0  0  0  0  0  0  0  0  0  0  0
   23.9947   39.1090   23.2396 C   0  0  0  0  0  0  0  0  0  0  0  0
   23.7630   39.9512   24.2983 C   0  0  0  0  0  0  0  0  0  0  0  0
   24.4634   41.8226   25.7953 C   0  0  0  0  0  0  0  0  0  0  0  0
   29.0698   42.5905   24.4996 C   0  0  0  0  0  0  0  0  0  0  0  0
   28.5015   40.5566   22.9958 C   0  0  0  0  0  0  0  0  0  0  0  0
   26.1899   40.0322   22.8912 C   0  0  0  0  0  0  0  0  0  0  0  0
   26.1093   43.8980   28.1264 O   0  0  0  0  0  0  0  0  0  0  0  0
   25.3314   43.8000   27.1749 C   0  0  0  0  0  0  0  0  0  0  0  0
   24.2574   44.5698   27.0485 O   0  0  0  0  0  0  0  0  0  0  0  0
   25.5524   42.7827   26.1129 C   0  0  1  0  0  0  0  0  0  0  0  0
   23.4063   41.7780   26.4336 O   0  0  0  0  0  0  0  0  0  0  0  0
   26.7840   42.7286   25.4374 C   0  0  0  0  0  0  0  0  0  0  0  0
   28.2626   41.6921   23.9275 C   0  0  0  0  0  0  0  0  0  0  0  0
   28.2732   43.5410   25.6842 S   0  0  0  0  0  0  0  0  0  0  0  0
   25.9609   40.8845   23.9952 C   0  0  0  0  0  0  0  0  0  0  0  0
   24.7386   40.8700   24.6847 C   0  0  0  0  0  0  0  0  0  0  0  0
   23.0290   38.2206   22.9303 F   0  0  0  0  0  0  0  0  0  0  0  0
   27.3827   40.1557   22.1618 N   0  0  0  0  0  0  0  0  0  0  0  0
   27.1807   40.9441   20.9648 C   0  0  0  0  0  0  0  0  0  0  0  0
   26.6509   37.4640   21.2091 C   0  0  0  0  0  0  0  0  0  0  0  0
   24.5205   36.7053   18.4713 O   0  0  0  0  0  0  0  0  0  0  0  0
   26.2446   36.5492   20.0660 C   0  0  2  0  0  0  0  0  0  0  0  0
   27.3409   35.9302   19.2968 N   0  0  0  0  0  0  0  0  0  0  0  0
   28.4785   36.8184   18.9965 C   0  0  0  0  0  0  0  0  0  0  0  0
   27.7714   34.6338   19.8425 C   0  0  0  0  0  0  0  0  0  0  0  0
  1  5  1  0  0  0  0
  2 17  1  0  0  0  0
  3  1  1  0  0  0  0
  4  3  1  0  0  0  0
  4 26  1  1  0  0  0
  5 11  2  0  0  0  0
  5  6  1  0  0  0  0
  6  7  2  0  0  0  0
  7 21  1  0  0  0  0
  8 15  1  0  0  0  0
  8 16  2  0  0  0  0
  9 19  1  0  0  0  0
 10 18  1  0  0  0  0
 11 20  1  0  0  0  0
 13 14  1  0  0  0  0
 13 12  2  0  0  0  0
 15 13  1  1  0  0  0
 17 19  2  0  0  0  0
 17 15  1  0  0  0  0
 18  2  1  0  0  0  0
 18  9  2  0  0  0  0
 20 21  2  0  0  0  0
 20  2  1  0  0  0  0
 21  8  1  0  0  0  0
 22  6  1  0  0  0  0
 23 11  1  0  0  0  0
 23 10  1  0  0  0  0
 24 23  1  0  0  0  0
 25  1  1  0  0  0  0
 27  4  1  0  0  0  0
 27 25  1  0  0  0  0
 27 28  1  6  0  0  0
 29 28  1  0  0  0  0
 30 28  1  0  0  0  0
M  END
>  <CHROM.1>
79.00293604,0.90231097,124.93613296,-57.78616351,72.73714395,26.08943908
40.20298405,23.19255858,1.54129884,-0.25086090,-2.35092112

>  <Name>
lig.pdb

>  <RI>
0

>  <Rbt.Current_Directory>
/home/itssahil/PROJECTS/Mol_Feturizer/New_Systems/rnas/6bfb

>  <Rbt.Executable>
rbdock ($Id: //depot/dev/client3/rdock/2013.1/src/exe/rbdock.cxx#4 $)

>  <Rbt.Library>
libRbt.so (2013.1, Build901 2013/11/27)

>  <Rbt.Parameter_File>
/export/apps/rDock/src/rDock_2013.1_src/data/scripts/dock_solv.prm

>  <Rbt.Receptor>
prm/pocket_docking_4.prm

>  <SCORE>
-36.353

>  <SCORE.INTER>
-30.5679

>  <SCORE.INTER.CONST>
1

>  <SCORE.INTER.POLAR>
0

>  <SCORE.INTER.ROT>
3

>  <SCORE.INTER.SOLV>
10.9014

>  <SCORE.INTER.VDW>
-29.6124

>  <SCORE.INTER.norm>
-1.01893

>  <SCORE.INTRA>
-5.78513

>  <SCORE.INTRA.DIHEDRAL>
-7.23128

>  <SCORE.INTRA.DIHEDRAL.0>
9.41909

>  <SCORE.INTRA.POLAR>
0

>  <SCORE.INTRA.POLAR.0>
0

>  <SCORE.INTRA.REPUL>
0

>  <SCORE.INTRA.REPUL.0>
0

>  <SCORE.INTRA.SOLV>
-0.10681

>  <SCORE.INTRA.SOLV.lig_0>
-26.2491

>  <SCORE.INTRA.VDW>
-2.11609

>  <SCORE.INTRA.VDW.0>
2.57239

>  <SCORE.INTRA.norm>
-0.192838

>  <SCORE.RESTR>
0

>  <SCORE.RESTR.CAVITY>
0

>  <SCORE.RESTR.norm>
0

>  <SCORE.SYSTEM>
0

>  <SCORE.SYSTEM.CONST>
0

>  <SCORE.SYSTEM.DIHEDRAL>
0

>  <SCORE.SYSTEM.SOLV>
0

>  <SCORE.SYSTEM.norm>
0

>  <SCORE.heavy>
30

>  <SCORE.norm>
-1.21177

>  <RMSD>
1.639

$$$$
lig.pdb
 OpenBabel11021811523D
libRbt.so/2013.1/901 2013/11/27
 30 34  0  0  0  0  0  0  0  0999 V2000
   25.3833   38.2280   21.3565 N   0  0  0  0  0  0  0  0  0  0  0  0
   27.0528   41.7310   24.4304 N   0  0  0  0  0  0  0  0  0  0  0  0
   24.8057   38.5825   20.0564 C   0  0  0  0  0  0  0  0  0  0  0  0
   25.4137   37.5237   19.1489 C   0  0  2  0  0  0  0  0  0  0  0  0
   25.1937   39.0990   22.5110 C   0  0  0  0  0  0  0  0  0  0  0  0
   24.0205   39.1143   23.2926 C   0  0  0  0  0  0  0  0  0  0  0  0
   23.8276   39.9526   24.3622 C   0  0  0  0  0  0  0  0  0  0  0  0
   24.5933   41.8025   25.8540 C   0  0  0  0  0  0  0  0  0  0  0  0
   29.1784   42.5080   24.4519 C   0  0  0  0  0  0  0  0  0  0  0  0
   28.5422   40.4936   22.9490 C   0  0  0  0  0  0  0  0  0  0  0  0
   26.2207   40.0058   22.8972 C   0  0  0  0  0  0  0  0  0  0  0  0
   26.3163   43.8230   28.1684 O   0  0  0  0  0  0  0  0  0  0  0  0
   25.5252   43.7566   27.2251 C   0  0  0  0  0  0  0  0  0  0  0  0
   24.4728   44.5584   27.1181 O   0  0  0  0  0  0  0  0  0  0  0  0
   25.7045   42.7434   26.1513 C   0  0  1  0  0  0  0  0  0  0  0  0
   23.5513   41.7699   26.5175 O   0  0  0  0  0  0  0  0  0  0  0  0
   26.9184   42.6749   25.4459 C   0  0  0  0  0  0  0  0  0  0  0  0
   28.3437   41.6261   23.8937 C   0  0  0  0  0  0  0  0  0  0  0  0
   28.4256   43.4624   25.6617 S   0  0  0  0  0  0  0  0  0  0  0  0
   26.0319   40.8538   24.0120 C   0  0  0  0  0  0  0  0  0  0  0  0
   24.8266   40.8535   24.7308 C   0  0  0  0  0  0  0  0  0  0  0  0
   23.0337   38.2432   23.0010 F   0  0  0  0  0  0  0  0  0  0  0  0
   27.3974   40.1159   22.1398 N   0  0  0  0  0  0  0  0  0  0  0  0
   27.1789   40.9156   20.9533 C   0  0  0  0  0  0  0  0  0  0  0  0
   26.5871   37.4188   21.2032 C   0  0  0  0  0  0  0  0  0  0  0  0
   24.4069   36.7652   18.4775 O   0  0  0  0  0  0  0  0  0  0  0  0
   26.1384   36.5312   20.0545 C   0  0  2  0  0  0  0  0  0  0  0  0
   27.2050   35.8818   19.2690 N   0  0  0  0  0  0  0  0  0  0  0  0
   28.3185   36.7623   18.8712 C   0  0  0  0  0  0  0  0  0  0  0  0
   27.6736   34.6192   19.8607 C   0  0  0  0  0  0  0  0  0  0  0  0
  1  5  1  0  0  0  0
  2 17  1  0  0  0  0
  3  1  1  0  0  0  0
  4  3  1  0  0  0  0
  4 26  1  1  0  0  0
  5 11  2  0  0  0  0
  5  6  1  0  0  0  0
  6  7  2  0  0  0  0
  7 21  1  0  0  0  0
  8 15  1  0  0  0  0
  8 16  2  0  0  0  0
  9 19  1  0  0  0  0
 10 18  1  0  0  0  0
 11 20  1  0  0  0  0
 13 14  1  0  0  0  0
 13 12  2  0  0  0  0
 15 13  1  1  0  0  0
 17 19  2  0  0  0  0
 17 15  1  0  0  0  0
 18  2  1  0  0  0  0
 18  9  2  0  0  0  0
 20 21  2  0  0  0  0
 20  2  1  0  0  0  0
 21  8  1  0  0  0  0
 22  6  1  0  0  0  0
 23 11  1  0  0  0  0
 23 10  1  0  0  0  0
 24 23  1  0  0  0  0
 25  1  1  0  0  0  0
 27  4  1  0  0  0  0
 27 25  1  0  0  0  0
 27 28  1  6  0  0  0
 29 28  1  0  0  0  0
 30 28  1  0  0  0  0
M  END
>  <CHROM.1>
80.45736121,-0.37885562,123.85811874,63.15908365,67.85433197,26.13056281
40.17810002,23.20014220,1.57024031,-0.25452492,-2.33544603

>  <Name>
lig.pdb

>  <RI>
0

>  <Rbt.Current_Directory>
/home/itssahil/PROJECTS/Mol_Feturizer/New_Systems/rnas/6bfb

>  <Rbt.Executable>
rbdock ($Id: //depot/dev/client3/rdock/2013.1/src/exe/rbdock.cxx#4 $)

>  <Rbt.Library>
libRbt.so (2013.1, Build901 2013/11/27)

>  <Rbt.Parameter_File>
/export/apps/rDock/src/rDock_2013.1_src/data/scripts/dock_solv.prm

>  <Rbt.Receptor>
prm/blind_docking_100.prm

>  <SCORE>
-41.3834

>  <SCORE.INTER>
-35.0337

>  <SCORE.INTER.CONST>
1

>  <SCORE.INTER.POLAR>
-0.894427

>  <SCORE.INTER.ROT>
3

>  <SCORE.INTER.SOLV>
11.4575

>  <SCORE.INTER.VDW>
-29.7935

>  <SCORE.INTER.norm>
-1.16779

>  <SCORE.INTRA>
-6.34967

>  <SCORE.INTRA.DIHEDRAL>
-7.41368

>  <SCORE.INTRA.DIHEDRAL.0>
9.41909

>  <SCORE.INTRA.POLAR>
0

>  <SCORE.INTRA.POLAR.0>
0

>  <SCORE.INTRA.REPUL>
0

>  <SCORE.INTRA.REPUL.0>
0

>  <SCORE.INTRA.SOLV>
-0.14512

>  <SCORE.INTRA.SOLV.lig_0>
-26.2491

>  <SCORE.INTRA.VDW>
-2.57027

>  <SCORE.INTRA.VDW.0>
2.57239

>  <SCORE.INTRA.norm>
-0.211656

>  <SCORE.RESTR>
0

>  <SCORE.RESTR.CAVITY>
0

>  <SCORE.RESTR.norm>
0

>  <SCORE.SYSTEM>
0

>  <SCORE.SYSTEM.CONST>
0

>  <SCORE.SYSTEM.DIHEDRAL>
0

>  <SCORE.SYSTEM.SOLV>
0

>  <SCORE.SYSTEM.norm>
0

>  <SCORE.heavy>
30

>  <SCORE.norm>
-1.37945

>  <RMSD>
1.648

$$$$
lig.pdb
 OpenBabel11021811523D
libRbt.so/2013.1/901 2013/11/27
 30 34  0  0  0  0  0  0  0  0999 V2000
   25.2012   38.4017   21.4274 N   0  0  0  0  0  0  0  0  0  0  0  0
   27.0936   41.7993   24.4905 N   0  0  0  0  0  0  0  0  0  0  0  0
   24.6504   38.8474   20.1439 C   0  0  0  0  0  0  0  0  0  0  0  0
   25.1644   37.7732   19.1972 C   0  0  2  0  0  0  0  0  0  0  0  0
   25.0894   39.2456   22.6119 C   0  0  0  0  0  0  0  0  0  0  0  0
   23.9612   39.2584   23.4572 C   0  0  0  0  0  0  0  0  0  0  0  0
   23.8409   40.0717   24.5563 C   0  0  0  0  0  0  0  0  0  0  0  0
   24.7173   41.8711   26.0490 C   0  0  0  0  0  0  0  0  0  0  0  0
   29.2297   42.5436   24.4139 C   0  0  0  0  0  0  0  0  0  0  0  0
   28.4792   40.5782   22.8989 C   0  0  0  0  0  0  0  0  0  0  0  0
   26.1507   40.1267   22.9632 C   0  0  0  0  0  0  0  0  0  0  0  0
   26.5857   43.7917   28.3253 O   0  0  0  0  0  0  0  0  0  0  0  0
   25.7548   43.7751   27.4146 C   0  0  0  0  0  0  0  0  0  0  0  0
   24.7241   44.6106   27.3731 O   0  0  0  0  0  0  0  0  0  0  0  0
   25.8584   42.7873   26.3078 C   0  0  1  0  0  0  0  0  0  0  0  0
   23.7129   41.8370   26.7680 O   0  0  0  0  0  0  0  0  0  0  0  0
   27.0306   42.7188   25.5349 C   0  0  0  0  0  0  0  0  0  0  0  0
   28.3513   41.6889   23.8808 C   0  0  0  0  0  0  0  0  0  0  0  0
   28.5600   43.4778   25.6867 S   0  0  0  0  0  0  0  0  0  0  0  0
   26.0371   40.9485   24.1074 C   0  0  0  0  0  0  0  0  0  0  0  0
   24.8732   40.9478   24.8915 C   0  0  0  0  0  0  0  0  0  0  0  0
   22.9458   38.4099   23.1990 F   0  0  0  0  0  0  0  0  0  0  0  0
   27.2858   40.2386   22.1450 N   0  0  0  0  0  0  0  0  0  0  0  0
   27.0157   41.0716   20.9926 C   0  0  0  0  0  0  0  0  0  0  0  0
   26.3325   37.5006   21.2390 C   0  0  0  0  0  0  0  0  0  0  0  0
   24.0951   37.1247   18.5073 O   0  0  0  0  0  0  0  0  0  0  0  0
   25.8069   36.6933   20.0640 C   0  0  2  0  0  0  0  0  0  0  0  0
   26.8126   35.9844   19.2500 N   0  0  0  0  0  0  0  0  0  0  0  0
   27.8296   35.2398   20.0146 C   0  0  0  0  0  0  0  0  0  0  0  0
   26.2210   35.1776   18.1716 C   0  0  0  0  0  0  0  0  0  0  0  0
  1  5  1  0  0  0  0
  2 17  1  0  0  0  0
  3  1  1  0  0  0  0
  4  3  1  0  0  0  0
  4 26  1  1  0  0  0
  5 11  2  0  0  0  0
  5  6  1  0  0  0  0
  6  7  2  0  0  0  0
  7 21  1  0  0  0  0
  8 15  1  0  0  0  0
  8 16  2  0  0  0  0
  9 19  1  0  0  0  0
 10 18  1  0  0  0  0
 11 20  1  0  0  0  0
 13 14  1  0  0  0  0
 13 12  2  0  0  0  0
 15 13  1  1  0  0  0
 17 19  2  0  0  0  0
 17 15  1  0  0  0  0
 18  2  1  0  0  0  0
 18  9  2  0  0  0  0
 20 21  2  0  0  0  0
 20  2  1  0  0  0  0
 21  8  1  0  0  0  0
 22  6  1  0  0  0  0
 23 11  1  0  0  0  0
 23 10  1  0  0  0  0
 24 23  1  0  0  0  0
 25  1  1  0  0  0  0
 27  4  1  0  0  0  0
 27 25  1  0  0  0  0
 27 28  1  6  0  0  0
 29 28  1  0  0  0  0
 30 28  1  0  0  0  0
M  END
>  <CHROM.1>
85.31274083,1.34978490,122.71182549,57.16771726,160.26863454,26.03837463
40.24555296,23.26587210,1.64208407,-0.26589943,-2.30320952

>  <Name>
lig.pdb

>  <RI>
0

>  <Rbt.Current_Directory>
/home/itssahil/PROJECTS/Mol_Feturizer/New_Systems/rnas/6bfb

>  <Rbt.Executable>
rbdock ($Id: //depot/dev/client3/rdock/2013.1/src/exe/rbdock.cxx#4 $)

>  <Rbt.Library>
libRbt.so (2013.1, Build901 2013/11/27)

>  <Rbt.Parameter_File>
/export/apps/rDock/src/rDock_2013.1_src/data/scripts/dock_solv.prm

>  <Rbt.Receptor>
prm/pocket_docking_5.prm

>  <SCORE>
-40.6259

>  <SCORE.INTER>
-34.8762

>  <SCORE.INTER.CONST>
1

>  <SCORE.INTER.POLAR>
-1.16677

>  <SCORE.INTER.ROT>
3

>  <SCORE.INTER.SOLV>
12.1521

>  <SCORE.INTER.VDW>
-29.0122

>  <SCORE.INTER.norm>
-1.16254

>  <SCORE.INTRA>
-5.7497

>  <SCORE.INTRA.DIHEDRAL>
-7.39973

>  <SCORE.INTRA.DIHEDRAL.0>
9.41909

>  <SCORE.INTRA.POLAR>
0

>  <SCORE.INTRA.POLAR.0>
0

>  <SCORE.INTRA.REPUL>
0

>  <SCORE.INTRA.REPUL.0>
0

>  <SCORE.INTRA.SOLV>
-0.0278623

>  <SCORE.INTRA.SOLV.lig_0>
-26.2491

>  <SCORE.INTRA.VDW>
-2.03591

>  <SCORE.INTRA.VDW.0>
2.57239

>  <SCORE.INTRA.norm>
-0.191657

>  <SCORE.RESTR>
0

>  <SCORE.RESTR.CAVITY>
0

>  <SCORE.RESTR.norm>
0

>  <SCORE.SYSTEM>
0

>  <SCORE.SYSTEM.CONST>
0

>  <SCORE.SYSTEM.DIHEDRAL>
0

>  <SCORE.SYSTEM.SOLV>
0

>  <SCORE.SYSTEM.norm>
0

>  <SCORE.heavy>
30

>  <SCORE.norm>
-1.3542

>  <RMSD>
1.650

$$$$
lig.pdb
 OpenBabel11021811523D
libRbt.so/2013.1/901 2013/11/27
 30 34  0  0  0  0  0  0  0  0999 V2000
   26.8947   39.2894   21.3104 N   0  0  0  0  0  0  0  0  0  0  0  0
   26.7149   42.2809   25.2507 N   0  0  0  0  0  0  0  0  0  0  0  0
   27.7996   38.1405   21.4139 C   0  0  0  0  0  0  0  0  0  0  0  0
   28.1166   37.8640   19.9519 C   0  0  2  0  0  0  0  0  0  0  0  0
   26.2023   39.7927   22.4913 C   0  0  0  0  0  0  0  0  0  0  0  0
   24.9355   39.3346   22.9076 C   0  0  0  0  0  0  0  0  0  0  0  0
   24.2687   39.8261   24.0020 C   0  0  0  0  0  0  0  0  0  0  0  0
   24.0952   41.4078   25.9260 C   0  0  0  0  0  0  0  0  0  0  0  0
   28.4505   43.5326   25.9877 C   0  0  0  0  0  0  0  0  0  0  0  0
   28.7957   41.8308   24.0626 C   0  0  0  0  0  0  0  0  0  0  0  0
   26.7986   40.8097   23.2890 C   0  0  0  0  0  0  0  0  0  0  0  0
   24.7027   43.7212   28.6951 O   0  0  0  0  0  0  0  0  0  0  0  0
   24.0717   43.1568   27.7988 C   0  0  0  0  0  0  0  0  0  0  0  0
   22.7462   43.0867   27.7939 O   0  0  0  0  0  0  0  0  0  0  0  0
   24.7792   42.4985   26.6685 C   0  0  1  0  0  0  0  0  0  0  0  0
   22.9908   40.9647   26.2591 O   0  0  0  0  0  0  0  0  0  0  0  0
   26.0828   42.8988   26.3271 C   0  0  0  0  0  0  0  0  0  0  0  0
   28.0633   42.6267   25.0846 C   0  0  0  0  0  0  0  0  0  0  0  0
   27.1982   43.9621   27.0778 S   0  0  0  0  0  0  0  0  0  0  0  0
   26.1225   41.3007   24.4289 C   0  0  0  0  0  0  0  0  0  0  0  0
   24.8446   40.8347   24.7743 C   0  0  0  0  0  0  0  0  0  0  0  0
   24.3449   38.3391   22.2165 F   0  0  0  0  0  0  0  0  0  0  0  0
   28.0256   41.3808   22.9170 N   0  0  0  0  0  0  0  0  0  0  0  0
   27.8467   42.3552   21.8618 C   0  0  0  0  0  0  0  0  0  0  0  0
   26.2999   39.3827   19.9819 C   0  0  0  0  0  0  0  0  0  0  0  0
   29.5214   37.9158   19.6993 O   0  0  0  0  0  0  0  0  0  0  0  0
   27.5132   39.0115   19.1460 C   0  0  2  0  0  0  0  0  0  0  0  0
   27.2468   38.5263   17.7784 N   0  0  0  0  0  0  0  0  0  0  0  0
   26.2920   37.4070   17.6827 C   0  0  0  0  0  0  0  0  0  0  0  0
   26.9390   39.6074   16.8296 C   0  0  0  0  0  0  0  0  0  0  0  0
  1  5  1  0  0  0  0
  2 17  1  0  0  0  0
  3  1  1  0  0  0  0
  4  3  1  0  0  0  0
  4 26  1  1  0  0  0
  5 11  2  0  0  0  0
  5  6  1  0  0  0  0
  6  7  2  0  0  0  0
  7 21  1  0  0  0  0
  8 15  1  0  0  0  0
  8 16  2  0  0  0  0
  9 19  1  0  0  0  0
 10 18  1  0  0  0  0
 11 20  1  0  0  0  0
 13 14  1  0  0  0  0
 13 12  2  0  0  0  0
 15 13  1  1  0  0  0
 17 19  2  0  0  0  0
 17 15  1  0  0  0  0
 18  2  1  0  0  0  0
 18  9  2  0  0  0  0
 20 21  2  0  0  0  0
 20  2  1  0  0  0  0
 21  8  1  0  0  0  0
 22  6  1  0  0  0  0
 23 11  1  0  0  0  0
 23 10  1  0  0  0  0
 24 23  1  0  0  0  0
 25  1  1  0  0  0  0
 27  4  1  0  0  0  0
 27 25  1  0  0  0  0
 27 28  1  6  0  0  0
 29 28  1  0  0  0  0
 30 28  1  0  0  0  0
M  END
>  <CHROM.1>
-89.91442085,2.22070905,156.01465008,176.82962522,61.16237383,26.30667824
40.85713037,23.41691824,1.33215549,-0.37341485,-2.17105668

>  <Name>
lig.pdb

>  <RI>
0

>  <Rbt.Current_Directory>
/home/itssahil/PROJECTS/Mol_Feturizer/New_Systems/rnas/6bfb

>  <Rbt.Executable>
rbdock ($Id: //depot/dev/client3/rdock/2013.1/src/exe/rbdock.cxx#4 $)

>  <Rbt.Library>
libRbt.so (2013.1, Build901 2013/11/27)

>  <Rbt.Parameter_File>
/export/apps/rDock/src/rDock_2013.1_src/data/scripts/dock_solv.prm

>  <Rbt.Receptor>
prm/pocket_docking_8.prm

>  <SCORE>
-32.5237

>  <SCORE.INTER>
-26.8892

>  <SCORE.INTER.CONST>
1

>  <SCORE.INTER.POLAR>
0

>  <SCORE.INTER.ROT>
3

>  <SCORE.INTER.SOLV>
11.6672

>  <SCORE.INTER.VDW>
-27.4152

>  <SCORE.INTER.norm>
-0.896308

>  <SCORE.INTRA>
-5.63442

>  <SCORE.INTRA.DIHEDRAL>
-7.60893

>  <SCORE.INTRA.DIHEDRAL.0>
9.41909

>  <SCORE.INTRA.POLAR>
0

>  <SCORE.INTRA.POLAR.0>
0

>  <SCORE.INTRA.REPUL>
0.0938824

>  <SCORE.INTRA.REPUL.0>
0

>  <SCORE.INTRA.SOLV>
-0.177155

>  <SCORE.INTRA.SOLV.lig_0>
-26.2491

>  <SCORE.INTRA.VDW>
-2.21079

>  <SCORE.INTRA.VDW.0>
2.57239

>  <SCORE.INTRA.norm>
-0.187814

>  <SCORE.RESTR>
0

>  <SCORE.RESTR.CAVITY>
0

>  <SCORE.RESTR.norm>
0

>  <SCORE.SYSTEM>
0

>  <SCORE.SYSTEM.CONST>
0

>  <SCORE.SYSTEM.DIHEDRAL>
0

>  <SCORE.SYSTEM.SOLV>
0

>  <SCORE.SYSTEM.norm>
0

>  <SCORE.heavy>
30

>  <SCORE.norm>
-1.08412

>  <RMSD>
1.652

$$$$
lig.pdb
 OpenBabel11021811523D
libRbt.so/2013.1/901 2013/11/27
 30 34  0  0  0  0  0  0  0  0999 V2000
   25.1953   38.4039   21.4570 N   0  0  0  0  0  0  0  0  0  0  0  0
   27.0898   41.7829   24.5393 N   0  0  0  0  0  0  0  0  0  0  0  0
   24.6370   38.8504   20.1770 C   0  0  0  0  0  0  0  0  0  0  0  0
   25.1539   37.7823   19.2250 C   0  0  2  0  0  0  0  0  0  0  0  0
   25.0828   39.2432   22.6446 C   0  0  0  0  0  0  0  0  0  0  0  0
   23.9522   39.2562   23.4868 C   0  0  0  0  0  0  0  0  0  0  0  0
   23.8315   40.0654   24.5888 C   0  0  0  0  0  0  0  0  0  0  0  0
   24.7094   41.8559   26.0913 C   0  0  0  0  0  0  0  0  0  0  0  0
   29.2284   42.5206   24.4717 C   0  0  0  0  0  0  0  0  0  0  0  0
   28.4760   40.5638   22.9467 C   0  0  0  0  0  0  0  0  0  0  0  0
   26.1459   40.1195   23.0025 C   0  0  0  0  0  0  0  0  0  0  0  0
   26.6026   43.7914   28.3564 O   0  0  0  0  0  0  0  0  0  0  0  0
   25.7490   43.7510   27.4676 C   0  0  0  0  0  0  0  0  0  0  0  0
   24.6936   44.5559   27.4542 O   0  0  0  0  0  0  0  0  0  0  0  0
   25.8526   42.7674   26.3571 C   0  0  1  0  0  0  0  0  0  0  0  0
   23.7028   41.8221   26.8073 O   0  0  0  0  0  0  0  0  0  0  0  0
   27.0268   42.6982   25.5873 C   0  0  0  0  0  0  0  0  0  0  0  0
   28.3488   41.6709   23.9327 C   0  0  0  0  0  0  0  0  0  0  0  0
   28.5582   43.4518   25.7465 S   0  0  0  0  0  0  0  0  0  0  0  0
   26.0317   40.9370   24.1497 C   0  0  0  0  0  0  0  0  0  0  0  0
   24.8655   40.9368   24.9305 C   0  0  0  0  0  0  0  0  0  0  0  0
   22.9349   38.4120   23.2223 F   0  0  0  0  0  0  0  0  0  0  0  0
   27.2836   40.2311   22.1879 N   0  0  0  0  0  0  0  0  0  0  0  0
   27.0195   41.0697   21.0382 C   0  0  0  0  0  0  0  0  0  0  0  0
   26.3312   37.5101   21.2615 C   0  0  0  0  0  0  0  0  0  0  0  0
   24.0860   37.1296   18.5368 O   0  0  0  0  0  0  0  0  0  0  0  0
   25.8061   36.7035   20.0859 C   0  0  2  0  0  0  0  0  0  0  0  0
   26.8130   36.0032   19.2659 N   0  0  0  0  0  0  0  0  0  0  0  0
   27.8192   35.2372   20.0236 C   0  0  0  0  0  0  0  0  0  0  0  0
   26.2240   35.2212   18.1680 C   0  0  0  0  0  0  0  0  0  0  0  0
  1  5  1  0  0  0  0
  2 17  1  0  0  0  0
  3  1  1  0  0  0  0
  4  3  1  0  0  0  0
  4 26  1  1  0  0  0
  5 11  2  0  0  0  0
  5  6  1  0  0  0  0
  6  7  2  0  0  0  0
  7 21  1  0  0  0  0
  8 15  1  0  0  0  0
  8 16  2  0  0  0  0
  9 19  1  0  0  0  0
 10 18  1  0  0  0  0
 11 20  1  0  0  0  0
 13 14  1  0  0  0  0
 13 12  2  0  0  0  0
 15 13  1  1  0  0  0
 17 19  2  0  0  0  0
 17 15  1  0  0  0  0
 18  2  1  0  0  0  0
 18  9  2  0  0  0  0
 20 21  2  0  0  0  0
 20  2  1  0  0  0  0
 21  8  1  0  0  0  0
 22  6  1  0  0  0  0
 23 11  1  0  0  0  0
 23 10  1  0  0  0  0
 24 23  1  0  0  0  0
 25  1  1  0  0  0  0
 27  4  1  0  0  0  0
 27 25  1  0  0  0  0
 27 28  1  6  0  0  0
 29 28  1  0  0  0  0
 30 28  1  0  0  0  0
M  END
>  <CHROM.1>
84.66568122,1.01174727,125.21065032,59.58245175,161.59611464,26.03310616
40.23837768,23.30404583,1.64182736,-0.26143436,-2.29823108

>  <Name>
lig.pdb

>  <RI>
0

>  <Rbt.Current_Directory>
/home/itssahil/PROJECTS/Mol_Feturizer/New_Systems/rnas/6bfb

>  <Rbt.Executable>
rbdock ($Id: //depot/dev/client3/rdock/2013.1/src/exe/rbdock.cxx#4 $)

>  <Rbt.Library>
libRbt.so (2013.1, Build901 2013/11/27)

>  <Rbt.Parameter_File>
/export/apps/rDock/src/rDock_2013.1_src/data/scripts/dock_solv.prm

>  <Rbt.Receptor>
prm/blind_docking_80.prm

>  <SCORE>
-40.6137

>  <SCORE.INTER>
-34.8416

>  <SCORE.INTER.CONST>
1

>  <SCORE.INTER.POLAR>
-1.16403

>  <SCORE.INTER.ROT>
3

>  <SCORE.INTER.SOLV>
12.2852

>  <SCORE.INTER.VDW>
-29.0427

>  <SCORE.INTER.norm>
-1.16139

>  <SCORE.INTRA>
-5.77212

>  <SCORE.INTRA.DIHEDRAL>
-7.49272

>  <SCORE.INTRA.DIHEDRAL.0>
9.41909

>  <SCORE.INTRA.POLAR>
0

>  <SCORE.INTRA.POLAR.0>
0

>  <SCORE.INTRA.REPUL>
0

>  <SCORE.INTRA.REPUL.0>
0

>  <SCORE.INTRA.SOLV>
-0.0202308

>  <SCORE.INTRA.SOLV.lig_0>
-26.2491

>  <SCORE.INTRA.VDW>
-2.01564

>  <SCORE.INTRA.VDW.0>
2.57239

>  <SCORE.INTRA.norm>
-0.192404

>  <SCORE.RESTR>
0

>  <SCORE.RESTR.CAVITY>
0

>  <SCORE.RESTR.norm>
0

>  <SCORE.SYSTEM>
0

>  <SCORE.SYSTEM.CONST>
0

>  <SCORE.SYSTEM.DIHEDRAL>
0

>  <SCORE.SYSTEM.SOLV>
0

>  <SCORE.SYSTEM.norm>
0

>  <SCORE.heavy>
30

>  <SCORE.norm>
-1.35379

>  <RMSD>
1.659

$$$$
lig.pdb
 OpenBabel11021811523D
libRbt.so/2013.1/901 2013/11/27
 30 34  0  0  0  0  0  0  0  0999 V2000
   25.2394   38.5964   21.6060 N   0  0  0  0  0  0  0  0  0  0  0  0
   26.8198   42.0674   24.7623 N   0  0  0  0  0  0  0  0  0  0  0  0
   24.6400   38.9778   20.3235 C   0  0  0  0  0  0  0  0  0  0  0  0
   25.2699   37.9683   19.3757 C   0  0  2  0  0  0  0  0  0  0  0  0
   25.0355   39.4221   22.7910 C   0  0  0  0  0  0  0  0  0  0  0  0
   23.8770   39.3641   23.5925 C   0  0  0  0  0  0  0  0  0  0  0  0
   23.6696   40.1596   24.6916 C   0  0  0  0  0  0  0  0  0  0  0  0
   24.3859   41.9919   26.2290 C   0  0  0  0  0  0  0  0  0  0  0  0
   28.9119   42.9309   24.7727 C   0  0  0  0  0  0  0  0  0  0  0  0
   28.3314   40.9400   23.2168 C   0  0  0  0  0  0  0  0  0  0  0  0
   26.0313   40.3582   23.1887 C   0  0  0  0  0  0  0  0  0  0  0  0
   26.0805   44.0269   28.5639 O   0  0  0  0  0  0  0  0  0  0  0  0
   25.2619   43.9389   27.6462 C   0  0  0  0  0  0  0  0  0  0  0  0
   24.1606   44.6784   27.5984 O   0  0  0  0  0  0  0  0  0  0  0  0
   25.4629   42.9683   26.5375 C   0  0  1  0  0  0  0  0  0  0  0  0
   23.3585   41.8952   26.9087 O   0  0  0  0  0  0  0  0  0  0  0  0
   26.6655   42.9725   25.8097 C   0  0  0  0  0  0  0  0  0  0  0  0
   28.1039   42.0331   24.2006 C   0  0  0  0  0  0  0  0  0  0  0  0
   28.1429   43.8148   26.0252 S   0  0  0  0  0  0  0  0  0  0  0  0
   25.8283   41.1621   24.3332 C   0  0  0  0  0  0  0  0  0  0  0  0
   24.6373   41.0891   25.0721 C   0  0  0  0  0  0  0  0  0  0  0  0
   22.9216   38.4623   23.2899 F   0  0  0  0  0  0  0  0  0  0  0  0
   27.1884   40.5408   22.4154 N   0  0  0  0  0  0  0  0  0  0  0  0
   26.9157   41.3676   21.2591 C   0  0  0  0  0  0  0  0  0  0  0  0
   26.4645   37.8281   21.4155 C   0  0  0  0  0  0  0  0  0  0  0  0
   24.2792   37.2040   18.6871 O   0  0  0  0  0  0  0  0  0  0  0  0
   26.0310   36.9671   20.2410 C   0  0  2  0  0  0  0  0  0  0  0  0
   27.1087   36.3759   19.4252 N   0  0  0  0  0  0  0  0  0  0  0  0
   26.6648   35.4231   18.3915 C   0  0  0  0  0  0  0  0  0  0  0  0
   28.0511   37.3748   18.8982 C   0  0  0  0  0  0  0  0  0  0  0  0
  1  5  1  0  0  0  0
  2 17  1  0  0  0  0
  3  1  1  0  0  0  0
  4  3  1  0  0  0  0
  4 26  1  1  0  0  0
  5 11  2  0  0  0  0
  5  6  1  0  0  0  0
  6  7  2  0  0  0  0
  7 21  1  0  0  0  0
  8 15  1  0  0  0  0
  8 16  2  0  0  0  0
  9 19  1  0  0  0  0
 10 18  1  0  0  0  0
 11 20  1  0  0  0  0
 13 14  1  0  0  0  0
 13 12  2  0  0  0  0
 15 13  1  1  0  0  0
 17 19  2  0  0  0  0
 17 15  1  0  0  0  0
 18  2  1  0  0  0  0
 18  9  2  0  0  0  0
 20 21  2  0  0  0  0
 20  2  1  0  0  0  0
 21  8  1  0  0  0  0
 22  6  1  0  0  0  0
 23 11  1  0  0  0  0
 23 10  1  0  0  0  0
 24 23  1  0  0  0  0
 25  1  1  0  0  0  0
 27  4  1  0  0  0  0
 27 25  1  0  0  0  0
 27 28  1  6  0  0  0
 29 28  1  0  0  0  0
 30 28  1  0  0  0  0
M  END
>  <CHROM.1>
81.34310002,-0.16183021,125.31074670,63.80775133,-72.54574882,25.90128871
40.52819306,23.44006410,1.57186864,-0.32904436,-2.28335512

>  <Name>
lig.pdb

>  <RI>
0

>  <Rbt.Current_Directory>
/home/itssahil/PROJECTS/Mol_Feturizer/New_Systems/rnas/6bfb

>  <Rbt.Executable>
rbdock ($Id: //depot/dev/client3/rdock/2013.1/src/exe/rbdock.cxx#4 $)

>  <Rbt.Library>
libRbt.so (2013.1, Build901 2013/11/27)

>  <Rbt.Parameter_File>
/export/apps/rDock/src/rDock_2013.1_src/data/scripts/dock_solv.prm

>  <Rbt.Receptor>
prm/blind_docking_60.prm

>  <SCORE>
-39.0166

>  <SCORE.INTER>
-33.9862

>  <SCORE.INTER.CONST>
1

>  <SCORE.INTER.POLAR>
-1.09109

>  <SCORE.INTER.ROT>
3

>  <SCORE.INTER.SOLV>
11.0561

>  <SCORE.INTER.VDW>
-28.3059

>  <SCORE.INTER.norm>
-1.13287

>  <SCORE.INTRA>
-5.03038

>  <SCORE.INTRA.DIHEDRAL>
-7.59048

>  <SCORE.INTRA.DIHEDRAL.0>
9.41909

>  <SCORE.INTRA.POLAR>
0

>  <SCORE.INTRA.POLAR.0>
0

>  <SCORE.INTRA.REPUL>
0

>  <SCORE.INTRA.REPUL.0>
0

>  <SCORE.INTRA.SOLV>
0.135596

>  <SCORE.INTRA.SOLV.lig_0>
-26.2491

>  <SCORE.INTRA.VDW>
-1.30294

>  <SCORE.INTRA.VDW.0>
2.57239

>  <SCORE.INTRA.norm>
-0.167679

>  <SCORE.RESTR>
0

>  <SCORE.RESTR.CAVITY>
0

>  <SCORE.RESTR.norm>
0

>  <SCORE.SYSTEM>
0

>  <SCORE.SYSTEM.CONST>
0

>  <SCORE.SYSTEM.DIHEDRAL>
0

>  <SCORE.SYSTEM.SOLV>
0

>  <SCORE.SYSTEM.norm>
0

>  <SCORE.heavy>
30

>  <SCORE.norm>
-1.30055

>  <RMSD>
1.665

$$$$
lig.pdb
 OpenBabel11021811523D
libRbt.so/2013.1/901 2013/11/27
 30 34  0  0  0  0  0  0  0  0999 V2000
   27.0440   39.3343   21.0672 N   0  0  0  0  0  0  0  0  0  0  0  0
   26.8195   42.2484   25.0629 N   0  0  0  0  0  0  0  0  0  0  0  0
   27.9518   38.1850   21.1333 C   0  0  0  0  0  0  0  0  0  0  0  0
   28.2703   37.9578   19.6632 C   0  0  2  0  0  0  0  0  0  0  0  0
   26.3495   39.7965   22.2638 C   0  0  0  0  0  0  0  0  0  0  0  0
   25.1004   39.2953   22.6837 C   0  0  0  0  0  0  0  0  0  0  0  0
   24.4310   39.7480   23.7932 C   0  0  0  0  0  0  0  0  0  0  0  0
   24.2325   41.2895   25.7472 C   0  0  0  0  0  0  0  0  0  0  0  0
   28.5265   43.5355   25.8059 C   0  0  0  0  0  0  0  0  0  0  0  0
   28.9002   41.8789   23.8470 C   0  0  0  0  0  0  0  0  0  0  0  0
   26.9249   40.8156   23.0741 C   0  0  0  0  0  0  0  0  0  0  0  0
   24.7920   43.6550   28.4995 O   0  0  0  0  0  0  0  0  0  0  0  0
   24.1785   43.0032   27.6517 C   0  0  0  0  0  0  0  0  0  0  0  0
   22.8684   42.7999   27.7177 O   0  0  0  0  0  0  0  0  0  0  0  0
   24.8928   42.3856   26.5028 C   0  0  1  0  0  0  0  0  0  0  0  0
   23.1444   40.8093   26.0828 O   0  0  0  0  0  0  0  0  0  0  0  0
   26.1811   42.8288   26.1564 C   0  0  0  0  0  0  0  0  0  0  0  0
   28.1559   42.6353   24.8902 C   0  0  0  0  0  0  0  0  0  0  0  0
   27.2736   43.9097   26.9156 S   0  0  0  0  0  0  0  0  0  0  0  0
   26.2468   41.2668   24.2291 C   0  0  0  0  0  0  0  0  0  0  0  0
   24.9861   40.7585   24.5781 C   0  0  0  0  0  0  0  0  0  0  0  0
   24.5312   38.2960   21.9802 F   0  0  0  0  0  0  0  0  0  0  0  0
   28.1315   41.4279   22.7007 N   0  0  0  0  0  0  0  0  0  0  0  0
   27.9146   42.4156   21.6652 C   0  0  0  0  0  0  0  0  0  0  0  0
   26.4496   39.4699   19.7422 C   0  0  0  0  0  0  0  0  0  0  0  0
   29.6751   38.0216   19.4134 O   0  0  0  0  0  0  0  0  0  0  0  0
   27.6643   39.1297   18.8952 C   0  0  2  0  0  0  0  0  0  0  0  0
   27.3999   38.6892   17.5122 N   0  0  0  0  0  0  0  0  0  0  0  0
   26.4922   37.5348   17.3822 C   0  0  0  0  0  0  0  0  0  0  0  0
   27.0337   39.7937   16.6123 C   0  0  0  0  0  0  0  0  0  0  0  0
  1  5  1  0  0  0  0
  2 17  1  0  0  0  0
  3  1  1  0  0  0  0
  4  3  1  0  0  0  0
  4 26  1  1  0  0  0
  5 11  2  0  0  0  0
  5  6  1  0  0  0  0
  6  7  2  0  0  0  0
  7 21  1  0  0  0  0
  8 15  1  0  0  0  0
  8 16  2  0  0  0  0
  9 19  1  0  0  0  0
 10 18  1  0  0  0  0
 11 20  1  0  0  0  0
 13 14  1  0  0  0  0
 13 12  2  0  0  0  0
 15 13  1  1  0  0  0
 17 19  2  0  0  0  0
 17 15  1  0  0  0  0
 18  2  1  0  0  0  0
 18  9  2  0  0  0  0
 20 21  2  0  0  0  0
 20  2  1  0  0  0  0
 21  8  1  0  0  0  0
 22  6  1  0  0  0  0
 23 11  1  0  0  0  0
 23 10  1  0  0  0  0
 24 23  1  0  0  0  0
 25  1  1  0  0  0  0
 27  4  1  0  0  0  0
 27 25  1  0  0  0  0
 27 28  1  6  0  0  0
 29 28  1  0  0  0  0
 30 28  1  0  0  0  0
M  END
>  <CHROM.1>
-88.11139277,0.54844145,161.49455193,67.34186966,58.70429385,26.43445917
40.84832685,23.21038791,1.32243487,-0.40641111,-2.15715219

>  <Name>
lig.pdb

>  <RI>
0

>  <Rbt.Current_Directory>
/home/itssahil/PROJECTS/Mol_Feturizer/New_Systems/rnas/6bfb

>  <Rbt.Executable>
rbdock ($Id: //depot/dev/client3/rdock/2013.1/src/exe/rbdock.cxx#4 $)

>  <Rbt.Library>
libRbt.so (2013.1, Build901 2013/11/27)

>  <Rbt.Parameter_File>
/export/apps/rDock/src/rDock_2013.1_src/data/scripts/dock_solv.prm

>  <Rbt.Receptor>
prm/blind_docking_60.prm

>  <SCORE>
-36.4027

>  <SCORE.INTER>
-31.1577

>  <SCORE.INTER.CONST>
1

>  <SCORE.INTER.POLAR>
-0.959166

>  <SCORE.INTER.ROT>
3

>  <SCORE.INTER.SOLV>
11.6613

>  <SCORE.INTER.VDW>
-27.0617

>  <SCORE.INTER.norm>
-1.03859

>  <SCORE.INTRA>
-5.24497

>  <SCORE.INTRA.DIHEDRAL>
-7.4616

>  <SCORE.INTRA.DIHEDRAL.0>
9.41909

>  <SCORE.INTRA.POLAR>
0

>  <SCORE.INTRA.POLAR.0>
0

>  <SCORE.INTRA.REPUL>
0.0962851

>  <SCORE.INTRA.REPUL.0>
0

>  <SCORE.INTRA.SOLV>
-0.21708

>  <SCORE.INTRA.SOLV.lig_0>
-26.2491

>  <SCORE.INTRA.VDW>
-1.88706

>  <SCORE.INTRA.VDW.0>
2.57239

>  <SCORE.INTRA.norm>
-0.174832

>  <SCORE.RESTR>
0

>  <SCORE.RESTR.CAVITY>
0

>  <SCORE.RESTR.norm>
0

>  <SCORE.SYSTEM>
0

>  <SCORE.SYSTEM.CONST>
0

>  <SCORE.SYSTEM.DIHEDRAL>
0

>  <SCORE.SYSTEM.SOLV>
0

>  <SCORE.SYSTEM.norm>
0

>  <SCORE.heavy>
30

>  <SCORE.norm>
-1.21342

>  <RMSD>
1.665

$$$$
lig.pdb
 OpenBabel11021811523D
libRbt.so/2013.1/901 2013/11/27
 30 34  0  0  0  0  0  0  0  0999 V2000
   24.5224   38.4286   21.6866 N   0  0  0  0  0  0  0  0  0  0  0  0
   26.6908   42.0111   24.3269 N   0  0  0  0  0  0  0  0  0  0  0  0
   25.7599   37.7994   21.2154 C   0  0  0  0  0  0  0  0  0  0  0  0
   25.2350   36.8362   20.1614 C   0  0  2  0  0  0  0  0  0  0  0  0
   24.5408   39.3216   22.8398 C   0  0  0  0  0  0  0  0  0  0  0  0
   23.5347   39.3417   23.8273 C   0  0  0  0  0  0  0  0  0  0  0  0
   23.5344   40.2002   24.8982 C   0  0  0  0  0  0  0  0  0  0  0  0
   24.5410   42.0882   26.1851 C   0  0  0  0  0  0  0  0  0  0  0  0
   28.7722   42.8091   23.9347 C   0  0  0  0  0  0  0  0  0  0  0  0
   27.8928   40.7577   22.6157 C   0  0  0  0  0  0  0  0  0  0  0  0
   25.6096   40.2463   23.0094 C   0  0  0  0  0  0  0  0  0  0  0  0
   26.6196   44.1457   28.1238 O   0  0  0  0  0  0  0  0  0  0  0  0
   25.6868   44.0795   27.3203 C   0  0  0  0  0  0  0  0  0  0  0  0
   24.6442   44.8996   27.3675 O   0  0  0  0  0  0  0  0  0  0  0  0
   25.6754   43.0460   26.2511 C   0  0  1  0  0  0  0  0  0  0  0  0
   23.6423   42.0592   27.0328 O   0  0  0  0  0  0  0  0  0  0  0  0
   26.7364   42.9746   25.3317 C   0  0  0  0  0  0  0  0  0  0  0  0
   27.8596   41.9077   23.5595 C   0  0  0  0  0  0  0  0  0  0  0  0
   28.2466   43.7812   25.2462 S   0  0  0  0  0  0  0  0  0  0  0  0
   25.6215   41.1155   24.1239 C   0  0  0  0  0  0  0  0  0  0  0  0
   24.5724   41.1183   25.0560 C   0  0  0  0  0  0  0  0  0  0  0  0
   22.5226   38.4551   23.7423 F   0  0  0  0  0  0  0  0  0  0  0  0
   26.6219   40.3521   22.0428 N   0  0  0  0  0  0  0  0  0  0  0  0
   26.1741   41.1246   20.9037 C   0  0  0  0  0  0  0  0  0  0  0  0
   23.3555   37.6105   21.3762 C   0  0  0  0  0  0  0  0  0  0  0  0
   25.8298   37.0774   18.8855 O   0  0  0  0  0  0  0  0  0  0  0  0
   23.7499   37.1428   19.9854 C   0  0  2  0  0  0  0  0  0  0  0  0
   23.0823   35.9255   19.4863 N   0  0  0  0  0  0  0  0  0  0  0  0
   21.6155   35.9070   19.6336 C   0  0  0  0  0  0  0  0  0  0  0  0
   23.5141   35.5409   18.1338 C   0  0  0  0  0  0  0  0  0  0  0  0
  1  5  1  0  0  0  0
  2 17  1  0  0  0  0
  3  1  1  0  0  0  0
  4  3  1  0  0  0  0
  4 26  1  6  0  0  0
  5 11  2  0  0  0  0
  5  6  1  0  0  0  0
  6  7  2  0  0  0  0
  7 21  1  0  0  0  0
  8 15  1  0  0  0  0
  8 16  2  0  0  0  0
  9 19  1  0  0  0  0
 10 18  1  0  0  0  0
 11 20  1  0  0  0  0
 13 14  1  0  0  0  0
 13 12  2  0  0  0  0
 15 13  1  1  0  0  0
 17 19  2  0  0  0  0
 17 15  1  0  0  0  0
 18  2  1  0  0  0  0
 18  9  2  0  0  0  0
 20 21  2  0  0  0  0
 20  2  1  0  0  0  0
 21  8  1  0  0  0  0
 22  6  1  0  0  0  0
 23 11  1  0  0  0  0
 23 10  1  0  0  0  0
 24 23  1  0  0  0  0
 25  1  1  0  0  0  0
 27  4  1  0  0  0  0
 27 25  1  0  0  0  0
 27 28  1  1  0  0  0
 29 28  1  0  0  0  0
 30 28  1  0  0  0  0
M  END
>  <CHROM.1>
-140.39826887,1.89095371,121.51010658,63.51126110,162.73043666,25.29035710
40.37085163,23.32537520,1.86713059,-0.44836792,-2.25159342

>  <Name>
lig.pdb

>  <RI>
0

>  <Rbt.Current_Directory>
/home/itssahil/PROJECTS/Mol_Feturizer/New_Systems/rnas/6bfb

>  <Rbt.Executable>
rbdock ($Id: //depot/dev/client3/rdock/2013.1/src/exe/rbdock.cxx#4 $)

>  <Rbt.Library>
libRbt.so (2013.1, Build901 2013/11/27)

>  <Rbt.Parameter_File>
/export/apps/rDock/src/rDock_2013.1_src/data/scripts/dock_solv.prm

>  <Rbt.Receptor>
prm/pocket_docking_4.prm

>  <SCORE>
-39.2035

>  <SCORE.INTER>
-35.5279

>  <SCORE.INTER.CONST>
1

>  <SCORE.INTER.POLAR>
0

>  <SCORE.INTER.ROT>
3

>  <SCORE.INTER.SOLV>
13.0022

>  <SCORE.INTER.VDW>
-33.6194

>  <SCORE.INTER.norm>
-1.18426

>  <SCORE.INTRA>
-3.67555

>  <SCORE.INTRA.DIHEDRAL>
-7.46109

>  <SCORE.INTRA.DIHEDRAL.0>
9.41909

>  <SCORE.INTRA.POLAR>
0

>  <SCORE.INTRA.POLAR.0>
0

>  <SCORE.INTRA.REPUL>
0

>  <SCORE.INTRA.REPUL.0>
0

>  <SCORE.INTRA.SOLV>
-0.0523664

>  <SCORE.INTRA.SOLV.lig_0>
-26.2491

>  <SCORE.INTRA.VDW>
0.0811822

>  <SCORE.INTRA.VDW.0>
2.57239

>  <SCORE.INTRA.norm>
-0.122518

>  <SCORE.RESTR>
0

>  <SCORE.RESTR.CAVITY>
0

>  <SCORE.RESTR.norm>
0

>  <SCORE.SYSTEM>
0

>  <SCORE.SYSTEM.CONST>
0

>  <SCORE.SYSTEM.DIHEDRAL>
0

>  <SCORE.SYSTEM.SOLV>
0

>  <SCORE.SYSTEM.norm>
0

>  <SCORE.heavy>
30

>  <SCORE.norm>
-1.30678

>  <RMSD>
1.683

$$$$
lig.pdb
 OpenBabel11021811523D
libRbt.so/2013.1/901 2013/11/27
 30 34  0  0  0  0  0  0  0  0999 V2000
   24.6118   38.2707   21.6386 N   0  0  0  0  0  0  0  0  0  0  0  0
   27.0319   41.6104   24.3766 N   0  0  0  0  0  0  0  0  0  0  0  0
   25.8076   37.5557   21.1821 C   0  0  0  0  0  0  0  0  0  0  0  0
   25.2301   36.6371   20.1157 C   0  0  2  0  0  0  0  0  0  0  0  0
   24.6775   39.1553   22.7964 C   0  0  0  0  0  0  0  0  0  0  0  0
   23.6424   39.2759   23.7461 C   0  0  0  0  0  0  0  0  0  0  0  0
   23.6891   40.1282   24.8210 C   0  0  0  0  0  0  0  0  0  0  0  0
   24.8331   41.9023   26.1544 C   0  0  0  0  0  0  0  0  0  0  0  0
   29.1966   42.1938   24.0659 C   0  0  0  0  0  0  0  0  0  0  0  0
   28.1638   40.2443   22.7043 C   0  0  0  0  0  0  0  0  0  0  0  0
   25.8274   39.9665   23.0105 C   0  0  0  0  0  0  0  0  0  0  0  0
   26.9601   43.6674   28.2497 O   0  0  0  0  0  0  0  0  0  0  0  0
   26.1316   43.7651   27.3419 C   0  0  0  0  0  0  0  0  0  0  0  0
   25.2593   44.7635   27.2758 O   0  0  0  0  0  0  0  0  0  0  0  0
   26.0554   42.7398   26.2674 C   0  0  1  0  0  0  0  0  0  0  0  0
   23.9051   41.9632   26.9681 O   0  0  0  0  0  0  0  0  0  0  0  0
   27.1374   42.5627   25.3876 C   0  0  0  0  0  0  0  0  0  0  0  0
   28.2120   41.3902   23.6524 C   0  0  0  0  0  0  0  0  0  0  0  0
   28.7236   43.2120   25.3624 S   0  0  0  0  0  0  0  0  0  0  0  0
   25.8857   40.8282   24.1293 C   0  0  0  0  0  0  0  0  0  0  0  0
   24.8082   40.9360   25.0220 C   0  0  0  0  0  0  0  0  0  0  0  0
   22.5496   38.4966   23.6190 F   0  0  0  0  0  0  0  0  0  0  0  0
   26.8806   39.9706   22.0826 N   0  0  0  0  0  0  0  0  0  0  0  0
   26.5563   40.7865   20.9319 C   0  0  0  0  0  0  0  0  0  0  0  0
   23.3937   37.5402   21.3071 C   0  0  0  0  0  0  0  0  0  0  0  0
   25.8596   36.8400   18.8498 O   0  0  0  0  0  0  0  0  0  0  0  0
   23.7739   37.0508   19.9198 C   0  0  2  0  0  0  0  0  0  0  0  0
   23.0276   35.8870   19.4050 N   0  0  0  0  0  0  0  0  0  0  0  0
   21.5593   36.0016   19.4711 C   0  0  0  0  0  0  0  0  0  0  0  0
   23.4951   35.4366   18.0850 C   0  0  0  0  0  0  0  0  0  0  0  0
  1  5  1  0  0  0  0
  2 17  1  0  0  0  0
  3  1  1  0  0  0  0
  4  3  1  0  0  0  0
  4 26  1  6  0  0  0
  5 11  2  0  0  0  0
  5  6  1  0  0  0  0
  6  7  2  0  0  0  0
  7 21  1  0  0  0  0
  8 15  1  0  0  0  0
  8 16  2  0  0  0  0
  9 19  1  0  0  0  0
 10 18  1  0  0  0  0
 11 20  1  0  0  0  0
 13 14  1  0  0  0  0
 13 12  2  0  0  0  0
 15 13  1  1  0  0  0
 17 19  2  0  0  0  0
 17 15  1  0  0  0  0
 18  2  1  0  0  0  0
 18  9  2  0  0  0  0
 20 21  2  0  0  0  0
 20  2  1  0  0  0  0
 21  8  1  0  0  0  0
 22  6  1  0  0  0  0
 23 11  1  0  0  0  0
 23 10  1  0  0  0  0
 24 23  1  0  0  0  0
 25  1  1  0  0  0  0
 27  4  1  0  0  0  0
 27 25  1  0  0  0  0
 27 28  1  1  0  0  0
 29 28  1  0  0  0  0
 30 28  1  0  0  0  0
M  END
>  <CHROM.1>
-142.52278894,170.72019882,114.84257418,61.67034256,165.56167794,25.51305755
40.11724465,23.31249643,1.90403754,-0.35119831,-2.23503470

>  <Name>
lig.pdb

>  <RI>
0

>  <Rbt.Current_Directory>
/home/itssahil/PROJECTS/Mol_Feturizer/New_Systems/rnas/6bfb

>  <Rbt.Executable>
rbdock ($Id: //depot/dev/client3/rdock/2013.1/src/exe/rbdock.cxx#4 $)

>  <Rbt.Library>
libRbt.so (2013.1, Build901 2013/11/27)

>  <Rbt.Parameter_File>
/export/apps/rDock/src/rDock_2013.1_src/data/scripts/dock_solv.prm

>  <Rbt.Receptor>
prm/pocket_docking_4.prm

>  <SCORE>
-40.085

>  <SCORE.INTER>
-37.4033

>  <SCORE.INTER.CONST>
1

>  <SCORE.INTER.POLAR>
-0.475329

>  <SCORE.INTER.ROT>
3

>  <SCORE.INTER.SOLV>
13.8893

>  <SCORE.INTER.VDW>
-33.5809

>  <SCORE.INTER.norm>
-1.24678

>  <SCORE.INTRA>
-2.68169

>  <SCORE.INTRA.DIHEDRAL>
-6.94276

>  <SCORE.INTRA.DIHEDRAL.0>
9.41909

>  <SCORE.INTRA.POLAR>
0

>  <SCORE.INTRA.POLAR.0>
0

>  <SCORE.INTRA.REPUL>
0

>  <SCORE.INTRA.REPUL.0>
0

>  <SCORE.INTRA.SOLV>
-0.0570039

>  <SCORE.INTRA.SOLV.lig_0>
-26.2491

>  <SCORE.INTRA.VDW>
0.818188

>  <SCORE.INTRA.VDW.0>
2.57239

>  <SCORE.INTRA.norm>
-0.0893897

>  <SCORE.RESTR>
0

>  <SCORE.RESTR.CAVITY>
0

>  <SCORE.RESTR.norm>
0

>  <SCORE.SYSTEM>
0

>  <SCORE.SYSTEM.CONST>
0

>  <SCORE.SYSTEM.DIHEDRAL>
0

>  <SCORE.SYSTEM.SOLV>
0

>  <SCORE.SYSTEM.norm>
0

>  <SCORE.heavy>
30

>  <SCORE.norm>
-1.33617

>  <RMSD>
1.687

$$$$
lig.pdb
 OpenBabel11021811523D
libRbt.so/2013.1/901 2013/11/27
 30 34  0  0  0  0  0  0  0  0999 V2000
   24.6286   38.2995   21.5658 N   0  0  0  0  0  0  0  0  0  0  0  0
   27.0007   41.8510   24.0692 N   0  0  0  0  0  0  0  0  0  0  0  0
   25.8223   37.5849   21.1032 C   0  0  0  0  0  0  0  0  0  0  0  0
   25.2322   36.6294   20.0770 C   0  0  2  0  0  0  0  0  0  0  0  0
   24.7096   39.2181   22.6959 C   0  0  0  0  0  0  0  0  0  0  0  0
   23.7278   39.3033   23.7042 C   0  0  0  0  0  0  0  0  0  0  0  0
   23.7868   40.1862   24.7534 C   0  0  0  0  0  0  0  0  0  0  0  0
   24.8985   42.0611   25.9712 C   0  0  0  0  0  0  0  0  0  0  0  0
   29.1034   42.5528   23.6123 C   0  0  0  0  0  0  0  0  0  0  0  0
   28.1114   40.5087   22.3637 C   0  0  0  0  0  0  0  0  0  0  0  0
   25.8188   40.1016   22.8194 C   0  0  0  0  0  0  0  0  0  0  0  0
   27.2311   44.3381   27.5380 O   0  0  0  0  0  0  0  0  0  0  0  0
   26.1501   44.0297   27.0317 C   0  0  0  0  0  0  0  0  0  0  0  0
   25.0056   44.5983   27.3904 O   0  0  0  0  0  0  0  0  0  0  0  0
   26.0723   42.9724   25.9888 C   0  0  1  0  0  0  0  0  0  0  0  0
   24.0189   42.0894   26.8386 O   0  0  0  0  0  0  0  0  0  0  0  0
   27.1084   42.8355   25.0487 C   0  0  0  0  0  0  0  0  0  0  0  0
   28.1465   41.6812   23.2794 C   0  0  0  0  0  0  0  0  0  0  0  0
   28.6479   43.5766   24.9106 S   0  0  0  0  0  0  0  0  0  0  0  0
   25.8915   40.9958   23.9116 C   0  0  0  0  0  0  0  0  0  0  0  0
   24.8648   41.0641   24.8659 C   0  0  0  0  0  0  0  0  0  0  0  0
   22.6788   38.4575   23.6631 F   0  0  0  0  0  0  0  0  0  0  0  0
   26.8123   40.1425   21.8287 N   0  0  0  0  0  0  0  0  0  0  0  0
   26.3707   40.9056   20.6809 C   0  0  0  0  0  0  0  0  0  0  0  0
   23.4121   37.5462   21.2831 C   0  0  0  0  0  0  0  0  0  0  0  0
   25.8309   36.8023   18.7919 O   0  0  0  0  0  0  0  0  0  0  0  0
   23.7671   37.0210   19.9022 C   0  0  2  0  0  0  0  0  0  0  0  0
   23.0234   35.8344   19.4380 N   0  0  0  0  0  0  0  0  0  0  0  0
   21.5641   35.8875   19.6406 C   0  0  0  0  0  0  0  0  0  0  0  0
   23.3845   35.4215   18.0731 C   0  0  0  0  0  0  0  0  0  0  0  0
  1  5  1  0  0  0  0
  2 17  1  0  0  0  0
  3  1  1  0  0  0  0
  4  3  1  0  0  0  0
  4 26  1  6  0  0  0
  5 11  2  0  0  0  0
  5  6  1  0  0  0  0
  6  7  2  0  0  0  0
  7 21  1  0  0  0  0
  8 15  1  0  0  0  0
  8 16  2  0  0  0  0
  9 19  1  0  0  0  0
 10 18  1  0  0  0  0
 11 20  1  0  0  0  0
 13 14  1  0  0  0  0
 13 12  2  0  0  0  0
 15 13  1  1  0  0  0
 17 19  2  0  0  0  0
 17 15  1  0  0  0  0
 18  2  1  0  0  0  0
 18  9  2  0  0  0  0
 20 21  2  0  0  0  0
 20  2  1  0  0  0  0
 21  8  1  0  0  0  0
 22  6  1  0  0  0  0
 23 11  1  0  0  0  0
 23 10  1  0  0  0  0
 24 23  1  0  0  0  0
 25  1  1  0  0  0  0
 27  4  1  0  0  0  0
 27 25  1  0  0  0  0
 27 28  1  1  0  0  0
 29 28  1  0  0  0  0
 30 28  1  0  0  0  0
M  END
>  <CHROM.1>
-138.96902294,-0.25773297,143.31741847,-59.20974061,160.53794496,25.50646392
40.25030160,23.13925257,1.91759927,-0.43121126,-2.25114445

>  <Name>
lig.pdb

>  <RI>
0

>  <Rbt.Current_Directory>
/home/itssahil/PROJECTS/Mol_Feturizer/New_Systems/rnas/6bfb

>  <Rbt.Executable>
rbdock ($Id: //depot/dev/client3/rdock/2013.1/src/exe/rbdock.cxx#4 $)

>  <Rbt.Library>
libRbt.so (2013.1, Build901 2013/11/27)

>  <Rbt.Parameter_File>
/export/apps/rDock/src/rDock_2013.1_src/data/scripts/dock_solv.prm

>  <Rbt.Receptor>
prm/pocket_docking_8.prm

>  <SCORE>
-38.846

>  <SCORE.INTER>
-35.6653

>  <SCORE.INTER.CONST>
1

>  <SCORE.INTER.POLAR>
0

>  <SCORE.INTER.ROT>
3

>  <SCORE.INTER.SOLV>
13.1014

>  <SCORE.INTER.VDW>
-33.744

>  <SCORE.INTER.norm>
-1.18884

>  <SCORE.INTRA>
-3.18064

>  <SCORE.INTRA.DIHEDRAL>
-7.46137

>  <SCORE.INTRA.DIHEDRAL.0>
9.41909

>  <SCORE.INTRA.POLAR>
0

>  <SCORE.INTRA.POLAR.0>
0

>  <SCORE.INTRA.REPUL>
0

>  <SCORE.INTRA.REPUL.0>
0

>  <SCORE.INTRA.SOLV>
0.00039302

>  <SCORE.INTRA.SOLV.lig_0>
-26.2491

>  <SCORE.INTRA.VDW>
0.549848

>  <SCORE.INTRA.VDW.0>
2.57239

>  <SCORE.INTRA.norm>
-0.106021

>  <SCORE.RESTR>
0

>  <SCORE.RESTR.CAVITY>
0

>  <SCORE.RESTR.norm>
0

>  <SCORE.SYSTEM>
0

>  <SCORE.SYSTEM.CONST>
0

>  <SCORE.SYSTEM.DIHEDRAL>
0

>  <SCORE.SYSTEM.SOLV>
0

>  <SCORE.SYSTEM.norm>
0

>  <SCORE.heavy>
30

>  <SCORE.norm>
-1.29487

>  <RMSD>
1.692

$$$$
lig.pdb
 OpenBabel11021811523D
libRbt.so/2013.1/901 2013/11/27
 30 34  0  0  0  0  0  0  0  0999 V2000
   24.8100   38.3098   21.4880 N   0  0  0  0  0  0  0  0  0  0  0  0
   27.1194   41.8593   24.0522 N   0  0  0  0  0  0  0  0  0  0  0  0
   25.9902   37.5359   21.0910 C   0  0  0  0  0  0  0  0  0  0  0  0
   25.4135   36.6193   20.0225 C   0  0  2  0  0  0  0  0  0  0  0  0
   24.8709   39.2159   22.6294 C   0  0  0  0  0  0  0  0  0  0  0  0
   23.8801   39.2776   23.6305 C   0  0  0  0  0  0  0  0  0  0  0  0
   23.9201   40.1487   24.6905 C   0  0  0  0  0  0  0  0  0  0  0  0
   24.9996   42.0220   25.9392 C   0  0  0  0  0  0  0  0  0  0  0  0
   29.2172   42.5912   23.6208 C   0  0  0  0  0  0  0  0  0  0  0  0
   28.2597   40.5505   22.3403 C   0  0  0  0  0  0  0  0  0  0  0  0
   25.9685   40.1109   22.7724 C   0  0  0  0  0  0  0  0  0  0  0  0
   25.2035   44.6053   27.3695 O   0  0  0  0  0  0  0  0  0  0  0  0
   26.2191   43.9926   27.0330 C   0  0  0  0  0  0  0  0  0  0  0  0
   27.4092   44.2342   27.5689 O   0  0  0  0  0  0  0  0  0  0  0  0
   26.1622   42.9469   25.9772 C   0  0  1  0  0  0  0  0  0  0  0  0
   24.1128   42.0297   26.7997 O   0  0  0  0  0  0  0  0  0  0  0  0
   27.2074   42.8333   25.0440 C   0  0  0  0  0  0  0  0  0  0  0  0
   28.2735   41.7124   23.2699 C   0  0  0  0  0  0  0  0  0  0  0  0
   28.7390   43.5942   24.9272 S   0  0  0  0  0  0  0  0  0  0  0  0
   26.0217   40.9929   23.8755 C   0  0  0  0  0  0  0  0  0  0  0  0
   24.9866   41.0379   24.8221 C   0  0  0  0  0  0  0  0  0  0  0  0
   22.8416   38.4200   23.5710 F   0  0  0  0  0  0  0  0  0  0  0  0
   26.9694   40.1753   21.7904 N   0  0  0  0  0  0  0  0  0  0  0  0
   26.5280   40.9466   20.6480 C   0  0  0  0  0  0  0  0  0  0  0  0
   23.5748   37.6238   21.1260 C   0  0  0  0  0  0  0  0  0  0  0  0
   26.0968   36.7681   18.7771 O   0  0  0  0  0  0  0  0  0  0  0  0
   23.9843   37.0890   19.7640 C   0  0  2  0  0  0  0  0  0  0  0  0
   23.2085   35.9464   19.2452 N   0  0  0  0  0  0  0  0  0  0  0  0
   21.7758   35.9487   19.5929 C   0  0  0  0  0  0  0  0  0  0  0  0
   23.4370   35.6928   17.8143 C   0  0  0  0  0  0  0  0  0  0  0  0
  1  5  1  0  0  0  0
  2 17  1  0  0  0  0
  3  1  1  0  0  0  0
  4  3  1  0  0  0  0
  4 26  1  6  0  0  0
  5 11  2  0  0  0  0
  5  6  1  0  0  0  0
  6  7  2  0  0  0  0
  7 21  1  0  0  0  0
  8 15  1  0  0  0  0
  8 16  2  0  0  0  0
  9 19  1  0  0  0  0
 10 18  1  0  0  0  0
 11 20  1  0  0  0  0
 13 14  1  0  0  0  0
 13 12  2  0  0  0  0
 15 13  1  1  0  0  0
 17 19  2  0  0  0  0
 17 15  1  0  0  0  0
 18  2  1  0  0  0  0
 18  9  2  0  0  0  0
 20 21  2  0  0  0  0
 20  2  1  0  0  0  0
 21  8  1  0  0  0  0
 22  6  1  0  0  0  0
 23 11  1  0  0  0  0
 23 10  1  0  0  0  0
 24 23  1  0  0  0  0
 25  1  1  0  0  0  0
 27  4  1  0  0  0  0
 27 25  1  0  0  0  0
 27 28  1  1  0  0  0
 29 28  1  0  0  0  0
 30 28  1  0  0  0  0
M  END
>  <CHROM.1>
-134.21139462,-0.17695567,-39.83435906,163.18444313,149.06798454,25.65691103
40.25690743,23.08952200,1.91249521,-0.42899840,-2.23910547

>  <Name>
lig.pdb

>  <RI>
0

>  <Rbt.Current_Directory>
/home/itssahil/PROJECTS/Mol_Feturizer/New_Systems/rnas/6bfb

>  <Rbt.Executable>
rbdock ($Id: //depot/dev/client3/rdock/2013.1/src/exe/rbdock.cxx#4 $)

>  <Rbt.Library>
libRbt.so (2013.1, Build901 2013/11/27)

>  <Rbt.Parameter_File>
/export/apps/rDock/src/rDock_2013.1_src/data/scripts/dock_solv.prm

>  <Rbt.Receptor>
prm/pocket_docking_5.prm

>  <SCORE>
-37.682

>  <SCORE.INTER>
-35.2373

>  <SCORE.INTER.CONST>
1

>  <SCORE.INTER.POLAR>
0

>  <SCORE.INTER.ROT>
3

>  <SCORE.INTER.SOLV>
13.1074

>  <SCORE.INTER.VDW>
-33.4607

>  <SCORE.INTER.norm>
-1.17458

>  <SCORE.INTRA>
-2.44474

>  <SCORE.INTRA.DIHEDRAL>
-5.598

>  <SCORE.INTRA.DIHEDRAL.0>
9.41909

>  <SCORE.INTRA.POLAR>
0

>  <SCORE.INTRA.POLAR.0>
0

>  <SCORE.INTRA.REPUL>
0

>  <SCORE.INTRA.REPUL.0>
0

>  <SCORE.INTRA.SOLV>
-0.0580393

>  <SCORE.INTRA.SOLV.lig_0>
-26.2491

>  <SCORE.INTRA.VDW>
0.383284

>  <SCORE.INTRA.VDW.0>
2.57239

>  <SCORE.INTRA.norm>
-0.0814913

>  <SCORE.RESTR>
0

>  <SCORE.RESTR.CAVITY>
0

>  <SCORE.RESTR.norm>
0

>  <SCORE.SYSTEM>
0

>  <SCORE.SYSTEM.CONST>
0

>  <SCORE.SYSTEM.DIHEDRAL>
0

>  <SCORE.SYSTEM.SOLV>
0

>  <SCORE.SYSTEM.norm>
0

>  <SCORE.heavy>
30

>  <SCORE.norm>
-1.25607

>  <RMSD>
1.693

$$$$
lig.pdb
 OpenBabel11021811523D
libRbt.so/2013.1/901 2013/11/27
 30 34  0  0  0  0  0  0  0  0999 V2000
   25.2348   38.6428   21.4930 N   0  0  0  0  0  0  0  0  0  0  0  0
   26.8667   42.0729   24.6676 N   0  0  0  0  0  0  0  0  0  0  0  0
   24.5570   39.0037   20.2441 C   0  0  0  0  0  0  0  0  0  0  0  0
   25.1854   38.0298   19.2587 C   0  0  2  0  0  0  0  0  0  0  0  0
   25.0513   39.4513   22.6930 C   0  0  0  0  0  0  0  0  0  0  0  0
   23.9082   39.3793   23.5152 C   0  0  0  0  0  0  0  0  0  0  0  0
   23.7197   40.1589   24.6291 C   0  0  0  0  0  0  0  0  0  0  0  0
   24.4609   41.9711   26.1783 C   0  0  0  0  0  0  0  0  0  0  0  0
   28.9568   42.9412   24.6510 C   0  0  0  0  0  0  0  0  0  0  0  0
   28.3514   40.9710   23.0784 C   0  0  0  0  0  0  0  0  0  0  0  0
   26.0525   40.3841   23.0851 C   0  0  0  0  0  0  0  0  0  0  0  0
   26.0021   44.9512   27.6526 O   0  0  0  0  0  0  0  0  0  0  0  0
   25.3592   43.9002   27.6061 C   0  0  0  0  0  0  0  0  0  0  0  0
   24.4922   43.5513   28.5488 O   0  0  0  0  0  0  0  0  0  0  0  0
   25.5414   42.9457   26.4804 C   0  0  1  0  0  0  0  0  0  0  0  0
   23.4465   41.8625   26.8757 O   0  0  0  0  0  0  0  0  0  0  0  0
   26.7302   42.9629   25.7303 C   0  0  0  0  0  0  0  0  0  0  0  0
   28.1402   42.0496   24.0816 C   0  0  0  0  0  0  0  0  0  0  0  0
   28.2096   43.8056   25.9300 S   0  0  0  0  0  0  0  0  0  0  0  0
   25.8692   41.1715   24.2445 C   0  0  0  0  0  0  0  0  0  0  0  0
   24.6925   41.0853   25.0043 C   0  0  0  0  0  0  0  0  0  0  0  0
   22.9492   38.4797   23.2178 F   0  0  0  0  0  0  0  0  0  0  0  0
   27.1945   40.5803   22.2930 N   0  0  0  0  0  0  0  0  0  0  0  0
   26.8985   41.4226   21.1538 C   0  0  0  0  0  0  0  0  0  0  0  0
   26.4829   37.9326   21.2373 C   0  0  0  0  0  0  0  0  0  0  0  0
   24.1981   37.2249   18.6127 O   0  0  0  0  0  0  0  0  0  0  0  0
   26.0324   37.0596   20.0782 C   0  0  2  0  0  0  0  0  0  0  0  0
   27.0949   36.5232   19.2065 N   0  0  0  0  0  0  0  0  0  0  0  0
   28.2309   35.9000   19.9097 C   0  0  0  0  0  0  0  0  0  0  0  0
   26.5798   35.6795   18.1171 C   0  0  0  0  0  0  0  0  0  0  0  0
  1  5  1  0  0  0  0
  2 17  1  0  0  0  0
  3  1  1  0  0  0  0
  4  3  1  0  0  0  0
  4 26  1  1  0  0  0
  5 11  2  0  0  0  0
  5  6  1  0  0  0  0
  6  7  2  0  0  0  0
  7 21  1  0  0  0  0
  8 15  1  0  0  0  0
  8 16  2  0  0  0  0
  9 19  1  0  0  0  0
 10 18  1  0  0  0  0
 11 20  1  0  0  0  0
 13 14  1  0  0  0  0
 13 12  2  0  0  0  0
 15 13  1  1  0  0  0
 17 19  2  0  0  0  0
 17 15  1  0  0  0  0
 18  2  1  0  0  0  0
 18  9  2  0  0  0  0
 20 21  2  0  0  0  0
 20  2  1  0  0  0  0
 21  8  1  0  0  0  0
 22  6  1  0  0  0  0
 23 11  1  0  0  0  0
 23 10  1  0  0  0  0
 24 23  1  0  0  0  0
 25  1  1  0  0  0  0
 27  4  1  0  0  0  0
 27 25  1  0  0  0  0
 27 28  1  6  0  0  0
 29 28  1  0  0  0  0
 30 28  1  0  0  0  0
M  END
>  <CHROM.1>
78.29437197,1.76445202,-158.19603443,58.39143246,162.38680447,25.93455217
40.49540026,23.38508043,1.58436298,-0.33203340,-2.28625291

>  <Name>
lig.pdb

>  <RI>
0

>  <Rbt.Current_Directory>
/home/itssahil/PROJECTS/Mol_Feturizer/New_Systems/rnas/6bfb

>  <Rbt.Executable>
rbdock ($Id: //depot/dev/client3/rdock/2013.1/src/exe/rbdock.cxx#4 $)

>  <Rbt.Library>
libRbt.so (2013.1, Build901 2013/11/27)

>  <Rbt.Parameter_File>
/export/apps/rDock/src/rDock_2013.1_src/data/scripts/dock_solv.prm

>  <Rbt.Receptor>
prm/pocket_docking_2.prm

>  <SCORE>
-38.731

>  <SCORE.INTER>
-33.8235

>  <SCORE.INTER.CONST>
1

>  <SCORE.INTER.POLAR>
-1.22474

>  <SCORE.INTER.ROT>
3

>  <SCORE.INTER.SOLV>
11.686

>  <SCORE.INTER.VDW>
-27.9619

>  <SCORE.INTER.norm>
-1.12745

>  <SCORE.INTRA>
-4.92564

>  <SCORE.INTRA.DIHEDRAL>
-7.48401

>  <SCORE.INTRA.DIHEDRAL.0>
9.41909

>  <SCORE.INTRA.POLAR>
0

>  <SCORE.INTRA.POLAR.0>
0

>  <SCORE.INTRA.REPUL>
0

>  <SCORE.INTRA.REPUL.0>
0

>  <SCORE.INTRA.SOLV>
0.0524139

>  <SCORE.INTRA.SOLV.lig_0>
-26.2491

>  <SCORE.INTRA.VDW>
-1.20984

>  <SCORE.INTRA.VDW.0>
2.57239

>  <SCORE.INTRA.norm>
-0.164188

>  <SCORE.RESTR>
0.0180754

>  <SCORE.RESTR.CAVITY>
0.0180754

>  <SCORE.RESTR.norm>
0.000602515

>  <SCORE.SYSTEM>
0

>  <SCORE.SYSTEM.CONST>
0

>  <SCORE.SYSTEM.DIHEDRAL>
0

>  <SCORE.SYSTEM.SOLV>
0

>  <SCORE.SYSTEM.norm>
0

>  <SCORE.heavy>
30

>  <SCORE.norm>
-1.29103

>  <RMSD>
1.694

$$$$
lig.pdb
 OpenBabel11021811523D
libRbt.so/2013.1/901 2013/11/27
 30 34  0  0  0  0  0  0  0  0999 V2000
   24.5039   38.4125   21.7280 N   0  0  0  0  0  0  0  0  0  0  0  0
   26.6473   42.0389   24.3283 N   0  0  0  0  0  0  0  0  0  0  0  0
   25.7390   37.7503   21.2973 C   0  0  0  0  0  0  0  0  0  0  0  0
   25.2199   36.7820   20.2450 C   0  0  2  0  0  0  0  0  0  0  0  0
   24.5128   39.3227   22.8677 C   0  0  0  0  0  0  0  0  0  0  0  0
   23.5002   39.3553   23.8482 C   0  0  0  0  0  0  0  0  0  0  0  0
   23.4910   40.2298   24.9061 C   0  0  0  0  0  0  0  0  0  0  0  0
   24.4851   42.1391   26.1711 C   0  0  0  0  0  0  0  0  0  0  0  0
   28.7295   42.8356   23.9378 C   0  0  0  0  0  0  0  0  0  0  0  0
   27.8632   40.7627   22.6440 C   0  0  0  0  0  0  0  0  0  0  0  0
   25.5785   40.2521   23.0304 C   0  0  0  0  0  0  0  0  0  0  0  0
   26.5737   44.2670   28.0554 O   0  0  0  0  0  0  0  0  0  0  0  0
   25.6193   44.1496   27.2838 C   0  0  0  0  0  0  0  0  0  0  0  0
   24.5451   44.9263   27.3535 O   0  0  0  0  0  0  0  0  0  0  0  0
   25.6171   43.1002   26.2301 C   0  0  1  0  0  0  0  0  0  0  0  0
   23.5810   42.1208   27.0133 O   0  0  0  0  0  0  0  0  0  0  0  0
   26.6843   43.0175   25.3189 C   0  0  0  0  0  0  0  0  0  0  0  0
   27.8213   41.9266   23.5702 C   0  0  0  0  0  0  0  0  0  0  0  0
   28.1933   43.8260   25.2312 S   0  0  0  0  0  0  0  0  0  0  0  0
   25.5813   41.1379   24.1318 C   0  0  0  0  0  0  0  0  0  0  0  0
   24.5261   41.1524   25.0569 C   0  0  0  0  0  0  0  0  0  0  0  0
   22.4906   38.4653   23.7699 F   0  0  0  0  0  0  0  0  0  0  0  0
   26.5969   40.3457   22.0690 N   0  0  0  0  0  0  0  0  0  0  0  0
   26.1550   41.1001   20.9155 C   0  0  0  0  0  0  0  0  0  0  0  0
   23.3279   37.6142   21.4007 C   0  0  0  0  0  0  0  0  0  0  0  0
   25.8510   36.9909   18.9809 O   0  0  0  0  0  0  0  0  0  0  0  0
   23.7465   37.1168   20.0274 C   0  0  2  0  0  0  0  0  0  0  0  0
   23.0656   35.9061   19.5301 N   0  0  0  0  0  0  0  0  0  0  0  0
   21.5944   35.9294   19.6212 C   0  0  0  0  0  0  0  0  0  0  0  0
   23.5378   35.4792   18.2040 C   0  0  0  0  0  0  0  0  0  0  0  0
  1  5  1  0  0  0  0
  2 17  1  0  0  0  0
  3  1  1  0  0  0  0
  4  3  1  0  0  0  0
  4 26  1  6  0  0  0
  5 11  2  0  0  0  0
  5  6  1  0  0  0  0
  6  7  2  0  0  0  0
  7 21  1  0  0  0  0
  8 15  1  0  0  0  0
  8 16  2  0  0  0  0
  9 19  1  0  0  0  0
 10 18  1  0  0  0  0
 11 20  1  0  0  0  0
 13 14  1  0  0  0  0
 13 12  2  0  0  0  0
 15 13  1  1  0  0  0
 17 19  2  0  0  0  0
 17 15  1  0  0  0  0
 18  2  1  0  0  0  0
 18  9  2  0  0  0  0
 20 21  2  0  0  0  0
 20  2  1  0  0  0  0
 21  8  1  0  0  0  0
 22  6  1  0  0  0  0
 23 11  1  0  0  0  0
 23 10  1  0  0  0  0
 24 23  1  0  0  0  0
 25  1  1  0  0  0  0
 27  4  1  0  0  0  0
 27 25  1  0  0  0  0
 27 28  1  1  0  0  0
 29 28  1  0  0  0  0
 30 28  1  0  0  0  0
M  END
>  <CHROM.1>
-138.70168883,1.95900493,124.69518683,-59.30627919,163.65440093,25.25299619
40.38579025,23.33913940,1.86116032,-0.44322979,-2.26703859

>  <Name>
lig.pdb

>  <RI>
0

>  <Rbt.Current_Directory>
/home/itssahil/PROJECTS/Mol_Feturizer/New_Systems/rnas/6bfb

>  <Rbt.Executable>
rbdock ($Id: //depot/dev/client3/rdock/2013.1/src/exe/rbdock.cxx#4 $)

>  <Rbt.Library>
libRbt.so (2013.1, Build901 2013/11/27)

>  <Rbt.Parameter_File>
/export/apps/rDock/src/rDock_2013.1_src/data/scripts/dock_solv.prm

>  <Rbt.Receptor>
prm/pocket_docking_7.prm

>  <SCORE>
-38.9277

>  <SCORE.INTER>
-35.4762

>  <SCORE.INTER.CONST>
1

>  <SCORE.INTER.POLAR>
0

>  <SCORE.INTER.ROT>
3

>  <SCORE.INTER.SOLV>
12.9166

>  <SCORE.INTER.VDW>
-33.5563

>  <SCORE.INTER.norm>
-1.18254

>  <SCORE.INTRA>
-3.45154

>  <SCORE.INTRA.DIHEDRAL>
-7.54897

>  <SCORE.INTRA.DIHEDRAL.0>
9.41909

>  <SCORE.INTRA.POLAR>
0

>  <SCORE.INTRA.POLAR.0>
0

>  <SCORE.INTRA.REPUL>
0

>  <SCORE.INTRA.REPUL.0>
0

>  <SCORE.INTRA.SOLV>
-0.0327256

>  <SCORE.INTRA.SOLV.lig_0>
-26.2491

>  <SCORE.INTRA.VDW>
0.339307

>  <SCORE.INTRA.VDW.0>
2.57239

>  <SCORE.INTRA.norm>
-0.115051

>  <SCORE.RESTR>
0

>  <SCORE.RESTR.CAVITY>
0

>  <SCORE.RESTR.norm>
0

>  <SCORE.SYSTEM>
0

>  <SCORE.SYSTEM.CONST>
0

>  <SCORE.SYSTEM.DIHEDRAL>
0

>  <SCORE.SYSTEM.SOLV>
0

>  <SCORE.SYSTEM.norm>
0

>  <SCORE.heavy>
30

>  <SCORE.norm>
-1.29759

>  <RMSD>
1.702

$$$$
lig.pdb
 OpenBabel11021811523D
libRbt.so/2013.1/901 2013/11/27
 30 34  0  0  0  0  0  0  0  0999 V2000
   25.2107   38.3578   21.4328 N   0  0  0  0  0  0  0  0  0  0  0  0
   27.2849   41.7286   24.4066 N   0  0  0  0  0  0  0  0  0  0  0  0
   24.6427   38.7984   20.1551 C   0  0  0  0  0  0  0  0  0  0  0  0
   25.1022   37.6939   19.2153 C   0  0  2  0  0  0  0  0  0  0  0  0
   25.1521   39.2240   22.6049 C   0  0  0  0  0  0  0  0  0  0  0  0
   24.0402   39.2935   23.4690 C   0  0  0  0  0  0  0  0  0  0  0  0
   23.9705   40.1283   24.5563 C   0  0  0  0  0  0  0  0  0  0  0  0
   24.9409   41.9162   26.0039 C   0  0  0  0  0  0  0  0  0  0  0  0
   29.4460   42.3891   24.2813 C   0  0  0  0  0  0  0  0  0  0  0  0
   28.5947   40.4301   22.8121 C   0  0  0  0  0  0  0  0  0  0  0  0
   26.2522   40.0693   22.9234 C   0  0  0  0  0  0  0  0  0  0  0  0
   26.8989   44.7156   27.3691 O   0  0  0  0  0  0  0  0  0  0  0  0
   26.0741   43.8005   27.3199 C   0  0  0  0  0  0  0  0  0  0  0  0
   25.1203   43.6493   28.2307 O   0  0  0  0  0  0  0  0  0  0  0  0
   26.1204   42.7920   26.2280 C   0  0  1  0  0  0  0  0  0  0  0  0
   23.9488   41.9321   26.7404 O   0  0  0  0  0  0  0  0  0  0  0  0
   27.2754   42.6663   25.4365 C   0  0  0  0  0  0  0  0  0  0  0  0
   28.5265   41.5604   23.7775 C   0  0  0  0  0  0  0  0  0  0  0  0
   28.8350   43.3684   25.5497 S   0  0  0  0  0  0  0  0  0  0  0  0
   26.1902   40.9130   24.0557 C   0  0  0  0  0  0  0  0  0  0  0  0
   25.0411   40.9693   24.8593 C   0  0  0  0  0  0  0  0  0  0  0  0
   22.9889   38.4806   23.2423 F   0  0  0  0  0  0  0  0  0  0  0  0
   27.3760   40.1246   22.0843 N   0  0  0  0  0  0  0  0  0  0  0  0
   27.1176   40.9489   20.9230 C   0  0  0  0  0  0  0  0  0  0  0  0
   26.3103   37.4205   21.2335 C   0  0  0  0  0  0  0  0  0  0  0  0
   23.9982   37.0662   18.5618 O   0  0  0  0  0  0  0  0  0  0  0  0
   25.7333   36.6099   20.0852 C   0  0  2  0  0  0  0  0  0  0  0  0
   26.6980   35.8581   19.2602 N   0  0  0  0  0  0  0  0  0  0  0  0
   27.7154   35.1023   20.0134 C   0  0  0  0  0  0  0  0  0  0  0  0
   26.0570   35.0457   18.2148 C   0  0  0  0  0  0  0  0  0  0  0  0
  1  5  1  0  0  0  0
  2 17  1  0  0  0  0
  3  1  1  0  0  0  0
  4  3  1  0  0  0  0
  4 26  1  1  0  0  0
  5 11  2  0  0  0  0
  5  6  1  0  0  0  0
  6  7  2  0  0  0  0
  7 21  1  0  0  0  0
  8 15  1  0  0  0  0
  8 16  2  0  0  0  0
  9 19  1  0  0  0  0
 10 18  1  0  0  0  0
 11 20  1  0  0  0  0
 13 14  1  0  0  0  0
 13 12  2  0  0  0  0
 15 13  1  1  0  0  0
 17 19  2  0  0  0  0
 17 15  1  0  0  0  0
 18  2  1  0  0  0  0
 18  9  2  0  0  0  0
 20 21  2  0  0  0  0
 20  2  1  0  0  0  0
 21  8  1  0  0  0  0
 22  6  1  0  0  0  0
 23 11  1  0  0  0  0
 23 10  1  0  0  0  0
 24 23  1  0  0  0  0
 25  1  1  0  0  0  0
 27  4  1  0  0  0  0
 27 25  1  0  0  0  0
 27 28  1  6  0  0  0
 29 28  1  0  0  0  0
 30 28  1  0  0  0  0
M  END
>  <CHROM.1>
84.69395087,0.10031450,-165.12585071,62.04826682,159.94714022,26.15167889
40.19191560,23.23111346,1.68304823,-0.28527444,-2.30165858

>  <Name>
lig.pdb

>  <RI>
0

>  <Rbt.Current_Directory>
/home/itssahil/PROJECTS/Mol_Feturizer/New_Systems/rnas/6bfb

>  <Rbt.Executable>
rbdock ($Id: //depot/dev/client3/rdock/2013.1/src/exe/rbdock.cxx#4 $)

>  <Rbt.Library>
libRbt.so (2013.1, Build901 2013/11/27)

>  <Rbt.Parameter_File>
/export/apps/rDock/src/rDock_2013.1_src/data/scripts/dock_solv.prm

>  <Rbt.Receptor>
prm/pocket_docking_3.prm

>  <SCORE>
-39.6267

>  <SCORE.INTER>
-34.7103

>  <SCORE.INTER.CONST>
1

>  <SCORE.INTER.POLAR>
-1.14346

>  <SCORE.INTER.ROT>
3

>  <SCORE.INTER.SOLV>
12.5952

>  <SCORE.INTER.VDW>
-29.1271

>  <SCORE.INTER.norm>
-1.15701

>  <SCORE.INTRA>
-4.9164

>  <SCORE.INTRA.DIHEDRAL>
-7.40076

>  <SCORE.INTRA.DIHEDRAL.0>
9.41909

>  <SCORE.INTRA.POLAR>
0

>  <SCORE.INTRA.POLAR.0>
0

>  <SCORE.INTRA.REPUL>
0

>  <SCORE.INTRA.REPUL.0>
0

>  <SCORE.INTRA.SOLV>
0.0604625

>  <SCORE.INTRA.SOLV.lig_0>
-26.2491

>  <SCORE.INTRA.VDW>
-1.24625

>  <SCORE.INTRA.VDW.0>
2.57239

>  <SCORE.INTRA.norm>
-0.16388

>  <SCORE.RESTR>
0

>  <SCORE.RESTR.CAVITY>
0

>  <SCORE.RESTR.norm>
0

>  <SCORE.SYSTEM>
0

>  <SCORE.SYSTEM.CONST>
0

>  <SCORE.SYSTEM.DIHEDRAL>
0

>  <SCORE.SYSTEM.SOLV>
0

>  <SCORE.SYSTEM.norm>
0

>  <SCORE.heavy>
30

>  <SCORE.norm>
-1.32089

>  <RMSD>
1.705

$$$$
lig.pdb
 OpenBabel11021811523D
libRbt.so/2013.1/901 2013/11/27
 30 34  0  0  0  0  0  0  0  0999 V2000
   25.3613   38.2454   21.3110 N   0  0  0  0  0  0  0  0  0  0  0  0
   27.1008   41.6688   24.4355 N   0  0  0  0  0  0  0  0  0  0  0  0
   24.7837   38.6391   20.0223 C   0  0  0  0  0  0  0  0  0  0  0  0
   25.3673   37.5894   19.0885 C   0  0  2  0  0  0  0  0  0  0  0  0
   25.1939   39.0942   22.4853 C   0  0  0  0  0  0  0  0  0  0  0  0
   24.0303   39.1043   23.2814 C   0  0  0  0  0  0  0  0  0  0  0  0
   23.8583   39.9222   24.3702 C   0  0  0  0  0  0  0  0  0  0  0  0
   24.6594   41.7338   25.8901 C   0  0  0  0  0  0  0  0  0  0  0  0
   29.2339   42.4254   24.4470 C   0  0  0  0  0  0  0  0  0  0  0  0
   28.5605   40.4483   22.9110 C   0  0  0  0  0  0  0  0  0  0  0  0
   26.2340   39.9833   22.8775 C   0  0  0  0  0  0  0  0  0  0  0  0
   24.7060   44.4707   27.2713 O   0  0  0  0  0  0  0  0  0  0  0  0
   25.6263   43.6505   27.2895 C   0  0  0  0  0  0  0  0  0  0  0  0
   26.5295   43.6122   28.2614 O   0  0  0  0  0  0  0  0  0  0  0  0
   25.7830   42.6580   26.1931 C   0  0  1  0  0  0  0  0  0  0  0  0
   23.6252   41.6971   26.5655 O   0  0  0  0  0  0  0  0  0  0  0  0
   26.9877   42.5928   25.4716 C   0  0  0  0  0  0  0  0  0  0  0  0
   28.3841   41.5630   23.8810 C   0  0  0  0  0  0  0  0  0  0  0  0
   28.5048   43.3617   25.6852 S   0  0  0  0  0  0  0  0  0  0  0  0
   26.0667   40.8099   24.0116 C   0  0  0  0  0  0  0  0  0  0  0  0
   24.8701   40.8060   24.7450 C   0  0  0  0  0  0  0  0  0  0  0  0
   23.0319   38.2486   22.9841 F   0  0  0  0  0  0  0  0  0  0  0  0
   27.4025   40.0981   22.1082 N   0  0  0  0  0  0  0  0  0  0  0  0
   27.1775   40.9240   20.9411 C   0  0  0  0  0  0  0  0  0  0  0  0
   26.5490   37.4177   21.1334 C   0  0  0  0  0  0  0  0  0  0  0  0
   24.3430   36.8646   18.4063 O   0  0  0  0  0  0  0  0  0  0  0  0
   26.0780   36.5640   19.9681 C   0  0  2  0  0  0  0  0  0  0  0  0
   27.1284   35.9124   19.1626 N   0  0  0  0  0  0  0  0  0  0  0  0
   28.2384   36.7896   18.7480 C   0  0  0  0  0  0  0  0  0  0  0  0
   27.6019   34.6464   19.7429 C   0  0  0  0  0  0  0  0  0  0  0  0
  1  5  1  0  0  0  0
  2 17  1  0  0  0  0
  3  1  1  0  0  0  0
  4  3  1  0  0  0  0
  4 26  1  1  0  0  0
  5 11  2  0  0  0  0
  5  6  1  0  0  0  0
  6  7  2  0  0  0  0
  7 21  1  0  0  0  0
  8 15  1  0  0  0  0
  8 16  2  0  0  0  0
  9 19  1  0  0  0  0
 10 18  1  0  0  0  0
 11 20  1  0  0  0  0
 13 14  1  0  0  0  0
 13 12  2  0  0  0  0
 15 13  1  1  0  0  0
 17 19  2  0  0  0  0
 17 15  1  0  0  0  0
 18  2  1  0  0  0  0
 18  9  2  0  0  0  0
 20 21  2  0  0  0  0
 20  2  1  0  0  0  0
 21  8  1  0  0  0  0
 22  6  1  0  0  0  0
 23 11  1  0  0  0  0
 23 10  1  0  0  0  0
 24 23  1  0  0  0  0
 25  1  1  0  0  0  0
 27  4  1  0  0  0  0
 27 25  1  0  0  0  0
 27 28  1  6  0  0  0
 29 28  1  0  0  0  0
 30 28  1  0  0  0  0
M  END
>  <CHROM.1>
81.11140710,0.87969190,-57.62082369,64.89202851,66.31377391,26.16172421,40.14509124
23.19144558,1.59278800,-0.25915243,-2.30637251

>  <Name>
lig.pdb

>  <RI>
0

>  <Rbt.Current_Directory>
/home/itssahil/PROJECTS/Mol_Feturizer/New_Systems/rnas/6bfb

>  <Rbt.Executable>
rbdock ($Id: //depot/dev/client3/rdock/2013.1/src/exe/rbdock.cxx#4 $)

>  <Rbt.Library>
libRbt.so (2013.1, Build901 2013/11/27)

>  <Rbt.Parameter_File>
/export/apps/rDock/src/rDock_2013.1_src/data/scripts/dock_solv.prm

>  <Rbt.Receptor>
prm/pocket_docking_5.prm

>  <SCORE>
-42.0392

>  <SCORE.INTER>
-35.6208

>  <SCORE.INTER.CONST>
1

>  <SCORE.INTER.POLAR>
-0.894427

>  <SCORE.INTER.ROT>
3

>  <SCORE.INTER.SOLV>
11.714

>  <SCORE.INTER.VDW>
-30.2704

>  <SCORE.INTER.norm>
-1.18736

>  <SCORE.INTRA>
-6.41838

>  <SCORE.INTRA.DIHEDRAL>
-7.40137

>  <SCORE.INTRA.DIHEDRAL.0>
9.41909

>  <SCORE.INTRA.POLAR>
0

>  <SCORE.INTRA.POLAR.0>
0

>  <SCORE.INTRA.REPUL>
0

>  <SCORE.INTRA.REPUL.0>
0

>  <SCORE.INTRA.SOLV>
-0.158271

>  <SCORE.INTRA.SOLV.lig_0>
-26.2491

>  <SCORE.INTRA.VDW>
-2.63856

>  <SCORE.INTRA.VDW.0>
2.57239

>  <SCORE.INTRA.norm>
-0.213946

>  <SCORE.RESTR>
0

>  <SCORE.RESTR.CAVITY>
0

>  <SCORE.RESTR.norm>
0

>  <SCORE.SYSTEM>
0

>  <SCORE.SYSTEM.CONST>
0

>  <SCORE.SYSTEM.DIHEDRAL>
0

>  <SCORE.SYSTEM.SOLV>
0

>  <SCORE.SYSTEM.norm>
0

>  <SCORE.heavy>
30

>  <SCORE.norm>
-1.40131

>  <RMSD>
1.716

$$$$
lig.pdb
 OpenBabel11021811523D
libRbt.so/2013.1/901 2013/11/27
 30 34  0  0  0  0  0  0  0  0999 V2000
   25.1314   38.5589   21.6047 N   0  0  0  0  0  0  0  0  0  0  0  0
   26.7626   42.0780   24.6808 N   0  0  0  0  0  0  0  0  0  0  0  0
   24.5756   38.9657   20.3105 C   0  0  0  0  0  0  0  0  0  0  0  0
   25.1692   37.9212   19.3772 C   0  0  2  0  0  0  0  0  0  0  0  0
   24.9493   39.3987   22.7833 C   0  0  0  0  0  0  0  0  0  0  0  0
   23.8091   39.3451   23.6110 C   0  0  0  0  0  0  0  0  0  0  0  0
   23.6218   40.1536   24.7042 C   0  0  0  0  0  0  0  0  0  0  0  0
   24.3622   42.0090   26.2019 C   0  0  0  0  0  0  0  0  0  0  0  0
   28.8498   42.9521   24.6339 C   0  0  0  0  0  0  0  0  0  0  0  0
   28.2456   40.9386   23.1167 C   0  0  0  0  0  0  0  0  0  0  0  0
   25.9486   40.3448   23.1469 C   0  0  0  0  0  0  0  0  0  0  0  0
   26.0894   44.0716   28.4809 O   0  0  0  0  0  0  0  0  0  0  0  0
   25.2589   43.9785   27.5745 C   0  0  0  0  0  0  0  0  0  0  0  0
   24.1613   44.7238   27.5323 O   0  0  0  0  0  0  0  0  0  0  0  0
   25.4405   42.9948   26.4741 C   0  0  1  0  0  0  0  0  0  0  0  0
   23.3505   41.9158   26.9054 O   0  0  0  0  0  0  0  0  0  0  0  0
   26.6267   42.9957   25.7198 C   0  0  0  0  0  0  0  0  0  0  0  0
   28.0342   42.0430   24.0913 C   0  0  0  0  0  0  0  0  0  0  0  0
   28.1040   43.8481   25.8918 S   0  0  0  0  0  0  0  0  0  0  0  0
   25.7667   41.1623   24.2854 C   0  0  0  0  0  0  0  0  0  0  0  0
   24.5927   41.0928   25.0513 C   0  0  0  0  0  0  0  0  0  0  0  0
   22.8521   38.4347   23.3411 F   0  0  0  0  0  0  0  0  0  0  0  0
   27.0874   40.5233   22.3459 N   0  0  0  0  0  0  0  0  0  0  0  0
   26.7848   41.3338   21.1856 C   0  0  0  0  0  0  0  0  0  0  0  0
   26.3182   37.7275   21.4387 C   0  0  0  0  0  0  0  0  0  0  0  0
   24.1527   37.2065   18.6730 O   0  0  0  0  0  0  0  0  0  0  0  0
   25.8619   36.8855   20.2591 C   0  0  2  0  0  0  0  0  0  0  0  0
   26.9219   36.2361   19.4647 N   0  0  0  0  0  0  0  0  0  0  0  0
   27.9470   35.5222   20.2476 C   0  0  0  0  0  0  0  0  0  0  0  0
   26.3993   35.4246   18.3546 C   0  0  0  0  0  0  0  0  0  0  0  0
  1  5  1  0  0  0  0
  2 17  1  0  0  0  0
  3  1  1  0  0  0  0
  4  3  1  0  0  0  0
  4 26  1  1  0  0  0
  5 11  2  0  0  0  0
  5  6  1  0  0  0  0
  6  7  2  0  0  0  0
  7 21  1  0  0  0  0
  8 15  1  0  0  0  0
  8 16  2  0  0  0  0
  9 19  1  0  0  0  0
 10 18  1  0  0  0  0
 11 20  1  0  0  0  0
 13 14  1  0  0  0  0
 13 12  2  0  0  0  0
 15 13  1  1  0  0  0
 17 19  2  0  0  0  0
 17 15  1  0  0  0  0
 18  2  1  0  0  0  0
 18  9  2  0  0  0  0
 20 21  2  0  0  0  0
 20  2  1  0  0  0  0
 21  8  1  0  0  0  0
 22  6  1  0  0  0  0
 23 11  1  0  0  0  0
 23 10  1  0  0  0  0
 24 23  1  0  0  0  0
 25  1  1  0  0  0  0
 27  4  1  0  0  0  0
 27 25  1  0  0  0  0
 27 28  1  6  0  0  0
 29 28  1  0  0  0  0
 30 28  1  0  0  0  0
M  END
>  <CHROM.1>
85.36978775,-0.11830990,124.46552364,62.64176363,162.06847372,25.82364918
40.45723539,23.44638921,1.58683370,-0.30153389,-2.32243772

>  <Name>
lig.pdb

>  <RI>
0

>  <Rbt.Current_Directory>
/home/itssahil/PROJECTS/Mol_Feturizer/New_Systems/rnas/6bfb

>  <Rbt.Executable>
rbdock ($Id: //depot/dev/client3/rdock/2013.1/src/exe/rbdock.cxx#4 $)

>  <Rbt.Library>
libRbt.so (2013.1, Build901 2013/11/27)

>  <Rbt.Parameter_File>
/export/apps/rDock/src/rDock_2013.1_src/data/scripts/dock_solv.prm

>  <Rbt.Receptor>
prm/pocket_docking_3.prm

>  <SCORE>
-40.8577

>  <SCORE.INTER>
-35.0759

>  <SCORE.INTER.CONST>
1

>  <SCORE.INTER.POLAR>
-1.19695

>  <SCORE.INTER.ROT>
3

>  <SCORE.INTER.SOLV>
11.7024

>  <SCORE.INTER.VDW>
-28.8949

>  <SCORE.INTER.norm>
-1.1692

>  <SCORE.INTRA>
-5.78178

>  <SCORE.INTRA.DIHEDRAL>
-7.47657

>  <SCORE.INTRA.DIHEDRAL.0>
9.41909

>  <SCORE.INTRA.POLAR>
0

>  <SCORE.INTRA.POLAR.0>
0

>  <SCORE.INTRA.REPUL>
0

>  <SCORE.INTRA.REPUL.0>
0

>  <SCORE.INTRA.SOLV>
-0.0205068

>  <SCORE.INTRA.SOLV.lig_0>
-26.2491

>  <SCORE.INTRA.VDW>
-2.03324

>  <SCORE.INTRA.VDW.0>
2.57239

>  <SCORE.INTRA.norm>
-0.192726

>  <SCORE.RESTR>
0

>  <SCORE.RESTR.CAVITY>
0

>  <SCORE.RESTR.norm>
0

>  <SCORE.SYSTEM>
0

>  <SCORE.SYSTEM.CONST>
0

>  <SCORE.SYSTEM.DIHEDRAL>
0

>  <SCORE.SYSTEM.SOLV>
0

>  <SCORE.SYSTEM.norm>
0

>  <SCORE.heavy>
30

>  <SCORE.norm>
-1.36192

>  <RMSD>
1.721

$$$$
lig.pdb
 OpenBabel11021811523D
libRbt.so/2013.1/901 2013/11/27
 30 34  0  0  0  0  0  0  0  0999 V2000
   25.3175   38.2447   21.3230 N   0  0  0  0  0  0  0  0  0  0  0  0
   27.1146   41.6662   24.4166 N   0  0  0  0  0  0  0  0  0  0  0  0
   24.7256   38.6370   20.0403 C   0  0  0  0  0  0  0  0  0  0  0  0
   25.2923   37.5814   19.1027 C   0  0  2  0  0  0  0  0  0  0  0  0
   25.1690   39.0980   22.4965 C   0  0  0  0  0  0  0  0  0  0  0  0
   24.0147   39.1180   23.3059 C   0  0  0  0  0  0  0  0  0  0  0  0
   23.8605   39.9402   24.3940 C   0  0  0  0  0  0  0  0  0  0  0  0
   24.6906   41.7512   25.8990 C   0  0  0  0  0  0  0  0  0  0  0  0
   29.2525   42.4091   24.4012 C   0  0  0  0  0  0  0  0  0  0  0  0
   28.5488   40.4318   22.8793 C   0  0  0  0  0  0  0  0  0  0  0  0
   26.2192   39.9816   22.8739 C   0  0  0  0  0  0  0  0  0  0  0  0
   24.7618   44.4823   27.2788 O   0  0  0  0  0  0  0  0  0  0  0  0
   25.6857   43.6659   27.2812 C   0  0  0  0  0  0  0  0  0  0  0  0
   26.6094   43.6358   28.2341 O   0  0  0  0  0  0  0  0  0  0  0  0
   25.8235   42.6692   26.1862 C   0  0  1  0  0  0  0  0  0  0  0  0
   23.6640   41.7233   26.5863 O   0  0  0  0  0  0  0  0  0  0  0  0
   27.0193   42.5940   25.4511 C   0  0  0  0  0  0  0  0  0  0  0  0
   28.3908   41.5505   23.8477 C   0  0  0  0  0  0  0  0  0  0  0  0
   28.5437   43.3538   25.6448 S   0  0  0  0  0  0  0  0  0  0  0  0
   26.0702   40.8127   24.0074 C   0  0  0  0  0  0  0  0  0  0  0  0
   24.8822   40.8186   24.7544 C   0  0  0  0  0  0  0  0  0  0  0  0
   23.0075   38.2678   23.0227 F   0  0  0  0  0  0  0  0  0  0  0  0
   27.3795   40.0866   22.0909 N   0  0  0  0  0  0  0  0  0  0  0  0
   27.1463   40.9104   20.9240 C   0  0  0  0  0  0  0  0  0  0  0  0
   26.4988   37.4104   21.1332 C   0  0  0  0  0  0  0  0  0  0  0  0
   24.2560   36.8595   18.4358 O   0  0  0  0  0  0  0  0  0  0  0  0
   26.0089   36.5554   19.9767 C   0  0  2  0  0  0  0  0  0  0  0  0
   27.0458   35.8960   19.1602 N   0  0  0  0  0  0  0  0  0  0  0  0
   28.1643   36.7618   18.7445 C   0  0  0  0  0  0  0  0  0  0  0  0
   27.5068   34.6201   19.7290 C   0  0  0  0  0  0  0  0  0  0  0  0
  1  5  1  0  0  0  0
  2 17  1  0  0  0  0
  3  1  1  0  0  0  0
  4  3  1  0  0  0  0
  4 26  1  1  0  0  0
  5 11  2  0  0  0  0
  5  6  1  0  0  0  0
  6  7  2  0  0  0  0
  7 21  1  0  0  0  0
  8 15  1  0  0  0  0
  8 16  2  0  0  0  0
  9 19  1  0  0  0  0
 10 18  1  0  0  0  0
 11 20  1  0  0  0  0
 13 14  1  0  0  0  0
 13 12  2  0  0  0  0
 15 13  1  1  0  0  0
 17 19  2  0  0  0  0
 17 15  1  0  0  0  0
 18  2  1  0  0  0  0
 18  9  2  0  0  0  0
 20 21  2  0  0  0  0
 20  2  1  0  0  0  0
 21  8  1  0  0  0  0
 22  6  1  0  0  0  0
 23 11  1  0  0  0  0
 23 10  1  0  0  0  0
 24 23  1  0  0  0  0
 25  1  1  0  0  0  0
 27  4  1  0  0  0  0
 27 25  1  0  0  0  0
 27 28  1  6  0  0  0
 29 28  1  0  0  0  0
 30 28  1  0  0  0  0
M  END
>  <CHROM.1>
81.00951999,1.41001478,-56.80077282,65.87135980,67.12348157,26.15154422,40.14461412
23.18815656,1.60616294,-0.26197049,-2.30617063

>  <Name>
lig.pdb

>  <RI>
0

>  <Rbt.Current_Directory>
/home/itssahil/PROJECTS/Mol_Feturizer/New_Systems/rnas/6bfb

>  <Rbt.Executable>
rbdock ($Id: //depot/dev/client3/rdock/2013.1/src/exe/rbdock.cxx#4 $)

>  <Rbt.Library>
libRbt.so (2013.1, Build901 2013/11/27)

>  <Rbt.Parameter_File>
/export/apps/rDock/src/rDock_2013.1_src/data/scripts/dock_solv.prm

>  <Rbt.Receptor>
prm/pocket_docking_6.prm

>  <SCORE>
-41.9817

>  <SCORE.INTER>
-35.595

>  <SCORE.INTER.CONST>
1

>  <SCORE.INTER.POLAR>
-0.894427

>  <SCORE.INTER.ROT>
3

>  <SCORE.INTER.SOLV>
11.7687

>  <SCORE.INTER.VDW>
-30.2714

>  <SCORE.INTER.norm>
-1.1865

>  <SCORE.INTRA>
-6.38671

>  <SCORE.INTRA.DIHEDRAL>
-7.31653

>  <SCORE.INTRA.DIHEDRAL.0>
9.41909

>  <SCORE.INTRA.POLAR>
0

>  <SCORE.INTRA.POLAR.0>
0

>  <SCORE.INTRA.REPUL>
0

>  <SCORE.INTRA.REPUL.0>
0

>  <SCORE.INTRA.SOLV>
-0.157055

>  <SCORE.INTRA.SOLV.lig_0>
-26.2491

>  <SCORE.INTRA.VDW>
-2.64991

>  <SCORE.INTRA.VDW.0>
2.57239

>  <SCORE.INTRA.norm>
-0.21289

>  <SCORE.RESTR>
0

>  <SCORE.RESTR.CAVITY>
0

>  <SCORE.RESTR.norm>
0

>  <SCORE.SYSTEM>
0

>  <SCORE.SYSTEM.CONST>
0

>  <SCORE.SYSTEM.DIHEDRAL>
0

>  <SCORE.SYSTEM.SOLV>
0

>  <SCORE.SYSTEM.norm>
0

>  <SCORE.heavy>
30

>  <SCORE.norm>
-1.39939

>  <RMSD>
1.726

$$$$
lig.pdb
 OpenBabel11021811523D
libRbt.so/2013.1/901 2013/11/27
 30 34  0  0  0  0  0  0  0  0999 V2000
   25.1888   38.3822   21.4059 N   0  0  0  0  0  0  0  0  0  0  0  0
   27.0972   41.7970   24.4398 N   0  0  0  0  0  0  0  0  0  0  0  0
   24.6201   38.8262   20.1296 C   0  0  0  0  0  0  0  0  0  0  0  0
   25.1273   37.7550   19.1759 C   0  0  2  0  0  0  0  0  0  0  0  0
   25.0878   39.2248   22.5922 C   0  0  0  0  0  0  0  0  0  0  0  0
   23.9729   39.2268   23.4552 C   0  0  0  0  0  0  0  0  0  0  0  0
   23.8624   40.0388   24.5563 C   0  0  0  0  0  0  0  0  0  0  0  0
   24.7452   41.8461   26.0356 C   0  0  0  0  0  0  0  0  0  0  0  0
   29.2247   42.5613   24.3299 C   0  0  0  0  0  0  0  0  0  0  0  0
   28.4690   40.5892   22.8263 C   0  0  0  0  0  0  0  0  0  0  0  0
   26.1462   40.1158   22.9270 C   0  0  0  0  0  0  0  0  0  0  0  0
   24.8684   44.5821   27.4207 O   0  0  0  0  0  0  0  0  0  0  0  0
   25.7862   43.7596   27.3853 C   0  0  0  0  0  0  0  0  0  0  0  0
   26.7398   43.7138   28.3075 O   0  0  0  0  0  0  0  0  0  0  0  0
   25.8816   42.7730   26.2767 C   0  0  1  0  0  0  0  0  0  0  0  0
   23.7526   41.8025   26.7703 O   0  0  0  0  0  0  0  0  0  0  0  0
   27.0420   42.7156   25.4854 C   0  0  0  0  0  0  0  0  0  0  0  0
   28.3461   41.6985   23.8104 C   0  0  0  0  0  0  0  0  0  0  0  0
   28.5665   43.4890   25.6134 S   0  0  0  0  0  0  0  0  0  0  0  0
   26.0429   40.9364   24.0732 C   0  0  0  0  0  0  0  0  0  0  0  0
   24.8915   40.9245   24.8755 C   0  0  0  0  0  0  0  0  0  0  0  0
   22.9616   38.3689   23.2128 F   0  0  0  0  0  0  0  0  0  0  0  0
   27.2671   40.2385   22.0911 N   0  0  0  0  0  0  0  0  0  0  0  0
   26.9711   41.0691   20.9434 C   0  0  0  0  0  0  0  0  0  0  0  0
   26.3219   37.4865   21.2028 C   0  0  0  0  0  0  0  0  0  0  0  0
   24.0526   37.1020   18.4988 O   0  0  0  0  0  0  0  0  0  0  0  0
   25.7855   36.6775   20.0339 C   0  0  2  0  0  0  0  0  0  0  0  0
   26.7843   35.9738   19.2070 N   0  0  0  0  0  0  0  0  0  0  0  0
   27.8243   35.2477   19.9585 C   0  0  0  0  0  0  0  0  0  0  0  0
   26.1826   35.1512   18.1464 C   0  0  0  0  0  0  0  0  0  0  0  0
  1  5  1  0  0  0  0
  2 17  1  0  0  0  0
  3  1  1  0  0  0  0
  4  3  1  0  0  0  0
  4 26  1  1  0  0  0
  5 11  2  0  0  0  0
  5  6  1  0  0  0  0
  6  7  2  0  0  0  0
  7 21  1  0  0  0  0
  8 15  1  0  0  0  0
  8 16  2  0  0  0  0
  9 19  1  0  0  0  0
 10 18  1  0  0  0  0
 11 20  1  0  0  0  0
 13 14  1  0  0  0  0
 13 12  2  0  0  0  0
 15 13  1  1  0  0  0
 17 19  2  0  0  0  0
 17 15  1  0  0  0  0
 18  2  1  0  0  0  0
 18  9  2  0  0  0  0
 20 21  2  0  0  0  0
 20  2  1  0  0  0  0
 21  8  1  0  0  0  0
 22  6  1  0  0  0  0
 23 11  1  0  0  0  0
 23 10  1  0  0  0  0
 24 23  1  0  0  0  0
 25  1  1  0  0  0  0
 27  4  1  0  0  0  0
 27 25  1  0  0  0  0
 27 28  1  6  0  0  0
 29 28  1  0  0  0  0
 30 28  1  0  0  0  0
M  END
>  <CHROM.1>
85.64605659,1.42710533,-58.08542811,57.88994118,159.52001960,26.05026636
40.22835881,23.23747281,1.65442232,-0.28679243,-2.29686434

>  <Name>
lig.pdb

>  <RI>
0

>  <Rbt.Current_Directory>
/home/itssahil/PROJECTS/Mol_Feturizer/New_Systems/rnas/6bfb

>  <Rbt.Executable>
rbdock ($Id: //depot/dev/client3/rdock/2013.1/src/exe/rbdock.cxx#4 $)

>  <Rbt.Library>
libRbt.so (2013.1, Build901 2013/11/27)

>  <Rbt.Parameter_File>
/export/apps/rDock/src/rDock_2013.1_src/data/scripts/dock_solv.prm

>  <Rbt.Receptor>
prm/pocket_docking_3.prm

>  <SCORE>
-41.1974

>  <SCORE.INTER>
-35.3788

>  <SCORE.INTER.CONST>
1

>  <SCORE.INTER.POLAR>
-1.16248

>  <SCORE.INTER.ROT>
3

>  <SCORE.INTER.SOLV>
12.1318

>  <SCORE.INTER.VDW>
-29.3549

>  <SCORE.INTER.norm>
-1.17929

>  <SCORE.INTRA>
-5.81862

>  <SCORE.INTRA.DIHEDRAL>
-7.38318

>  <SCORE.INTRA.DIHEDRAL.0>
9.41909

>  <SCORE.INTRA.POLAR>
0

>  <SCORE.INTRA.POLAR.0>
0

>  <SCORE.INTRA.REPUL>
0

>  <SCORE.INTRA.REPUL.0>
0

>  <SCORE.INTRA.SOLV>
-0.0422141

>  <SCORE.INTRA.SOLV.lig_0>
-26.2491

>  <SCORE.INTRA.VDW>
-2.10592

>  <SCORE.INTRA.VDW.0>
2.57239

>  <SCORE.INTRA.norm>
-0.193954

>  <SCORE.RESTR>
0

>  <SCORE.RESTR.CAVITY>
0

>  <SCORE.RESTR.norm>
0

>  <SCORE.SYSTEM>
0

>  <SCORE.SYSTEM.CONST>
0

>  <SCORE.SYSTEM.DIHEDRAL>
0

>  <SCORE.SYSTEM.SOLV>
0

>  <SCORE.SYSTEM.norm>
0

>  <SCORE.heavy>
30

>  <SCORE.norm>
-1.37325

>  <RMSD>
1.727

$$$$
lig.pdb
 OpenBabel11021811523D
libRbt.so/2013.1/901 2013/11/27
 30 34  0  0  0  0  0  0  0  0999 V2000
   24.5626   38.5405   21.8897 N   0  0  0  0  0  0  0  0  0  0  0  0
   26.5878   42.0617   24.7194 N   0  0  0  0  0  0  0  0  0  0  0  0
   25.8273   37.9305   21.4678 C   0  0  0  0  0  0  0  0  0  0  0  0
   25.3629   36.9825   20.3724 C   0  0  2  0  0  0  0  0  0  0  0  0
   24.5169   39.4122   23.0582 C   0  0  0  0  0  0  0  0  0  0  0  0
   23.4542   39.4202   23.9848 C   0  0  0  0  0  0  0  0  0  0  0  0
   23.3946   40.2590   25.0695 C   0  0  0  0  0  0  0  0  0  0  0  0
   24.3321   42.1174   26.4484 C   0  0  0  0  0  0  0  0  0  0  0  0
   28.6924   42.8546   24.4657 C   0  0  0  0  0  0  0  0  0  0  0  0
   27.8830   40.8327   23.0593 C   0  0  0  0  0  0  0  0  0  0  0  0
   25.5781   40.3274   23.3079 C   0  0  0  0  0  0  0  0  0  0  0  0
   26.0186   43.8968   28.7470 O   0  0  0  0  0  0  0  0  0  0  0  0
   25.4181   44.0809   27.6860 C   0  0  0  0  0  0  0  0  0  0  0  0
   24.6907   45.1673   27.4566 O   0  0  0  0  0  0  0  0  0  0  0  0
   25.4651   43.0672   26.5990 C   0  0  1  0  0  0  0  0  0  0  0  0
   23.3847   42.0781   27.2409 O   0  0  0  0  0  0  0  0  0  0  0  0
   26.5784   43.0065   25.7428 C   0  0  0  0  0  0  0  0  0  0  0  0
   27.7994   41.9655   24.0206 C   0  0  0  0  0  0  0  0  0  0  0  0
   28.0947   43.8057   25.7617 S   0  0  0  0  0  0  0  0  0  0  0  0
   25.5282   41.1761   24.4370 C   0  0  0  0  0  0  0  0  0  0  0  0
   24.4258   41.1680   25.3054 C   0  0  0  0  0  0  0  0  0  0  0  0
   22.4448   38.5411   23.8238 F   0  0  0  0  0  0  0  0  0  0  0  0
   26.6463   40.4450   22.4049 N   0  0  0  0  0  0  0  0  0  0  0  0
   26.2704   41.2407   21.2558 C   0  0  0  0  0  0  0  0  0  0  0  0
   23.4198   37.7184   21.5083 C   0  0  0  0  0  0  0  0  0  0  0  0
   26.0164   37.2522   19.1314 O   0  0  0  0  0  0  0  0  0  0  0  0
   23.8853   37.2797   20.1301 C   0  0  2  0  0  0  0  0  0  0  0  0
   23.2539   36.0663   19.5774 N   0  0  0  0  0  0  0  0  0  0  0  0
   21.7840   36.0192   19.6803 C   0  0  0  0  0  0  0  0  0  0  0  0
   23.7319   35.7277   18.2281 C   0  0  0  0  0  0  0  0  0  0  0  0
  1  5  1  0  0  0  0
  2 17  1  0  0  0  0
  3  1  1  0  0  0  0
  4  3  1  0  0  0  0
  4 26  1  6  0  0  0
  5 11  2  0  0  0  0
  5  6  1  0  0  0  0
  6  7  2  0  0  0  0
  7 21  1  0  0  0  0
  8 15  1  0  0  0  0
  8 16  2  0  0  0  0
  9 19  1  0  0  0  0
 10 18  1  0  0  0  0
 11 20  1  0  0  0  0
 13 14  1  0  0  0  0
 13 12  2  0  0  0  0
 15 13  1  1  0  0  0
 17 19  2  0  0  0  0
 17 15  1  0  0  0  0
 18  2  1  0  0  0  0
 18  9  2  0  0  0  0
 20 21  2  0  0  0  0
 20  2  1  0  0  0  0
 21  8  1  0  0  0  0
 22  6  1  0  0  0  0
 23 11  1  0  0  0  0
 23 10  1  0  0  0  0
 24 23  1  0  0  0  0
 25  1  1  0  0  0  0
 27  4  1  0  0  0  0
 27 25  1  0  0  0  0
 27 28  1  1  0  0  0
 29 28  1  0  0  0  0
 30 28  1  0  0  0  0
M  END
>  <CHROM.1>
-141.41483368,167.83095893,98.76946593,64.21654005,161.41557044,25.24265560
40.44688982,23.60294190,1.82262024,-0.41851943,-2.25182279

>  <Name>
lig.pdb

>  <RI>
0

>  <Rbt.Current_Directory>
/home/itssahil/PROJECTS/Mol_Feturizer/New_Systems/rnas/6bfb

>  <Rbt.Executable>
rbdock ($Id: //depot/dev/client3/rdock/2013.1/src/exe/rbdock.cxx#4 $)

>  <Rbt.Library>
libRbt.so (2013.1, Build901 2013/11/27)

>  <Rbt.Parameter_File>
/export/apps/rDock/src/rDock_2013.1_src/data/scripts/dock_solv.prm

>  <Rbt.Receptor>
prm/pocket_docking_7.prm

>  <SCORE>
-40.9479

>  <SCORE.INTER>
-38.1731

>  <SCORE.INTER.CONST>
1

>  <SCORE.INTER.POLAR>
-0.689838

>  <SCORE.INTER.ROT>
3

>  <SCORE.INTER.SOLV>
13.3998

>  <SCORE.INTER.VDW>
-33.2159

>  <SCORE.INTER.norm>
-1.27244

>  <SCORE.INTRA>
-2.77473

>  <SCORE.INTRA.DIHEDRAL>
-6.28981

>  <SCORE.INTRA.DIHEDRAL.0>
9.41909

>  <SCORE.INTRA.POLAR>
0

>  <SCORE.INTRA.POLAR.0>
0

>  <SCORE.INTRA.REPUL>
0

>  <SCORE.INTRA.REPUL.0>
0

>  <SCORE.INTRA.SOLV>
-0.1086

>  <SCORE.INTRA.SOLV.lig_0>
-26.2491

>  <SCORE.INTRA.VDW>
0.424473

>  <SCORE.INTRA.VDW.0>
2.57239

>  <SCORE.INTRA.norm>
-0.0924911

>  <SCORE.RESTR>
0

>  <SCORE.RESTR.CAVITY>
0

>  <SCORE.RESTR.norm>
0

>  <SCORE.SYSTEM>
0

>  <SCORE.SYSTEM.CONST>
0

>  <SCORE.SYSTEM.DIHEDRAL>
0

>  <SCORE.SYSTEM.SOLV>
0

>  <SCORE.SYSTEM.norm>
0

>  <SCORE.heavy>
30

>  <SCORE.norm>
-1.36493

>  <RMSD>
1.727

$$$$
lig.pdb
 OpenBabel11021811523D
libRbt.so/2013.1/901 2013/11/27
 30 34  0  0  0  0  0  0  0  0999 V2000
   25.3784   38.2492   21.3354 N   0  0  0  0  0  0  0  0  0  0  0  0
   27.1142   41.6830   24.4504 N   0  0  0  0  0  0  0  0  0  0  0  0
   24.7751   38.6264   20.0535 C   0  0  0  0  0  0  0  0  0  0  0  0
   25.3658   37.5845   19.1154 C   0  0  2  0  0  0  0  0  0  0  0  0
   25.2110   39.0993   22.5088 C   0  0  0  0  0  0  0  0  0  0  0  0
   24.0493   39.1068   23.3076 C   0  0  0  0  0  0  0  0  0  0  0  0
   23.8772   39.9258   24.3955 C   0  0  0  0  0  0  0  0  0  0  0  0
   24.6761   41.7423   25.9107 C   0  0  0  0  0  0  0  0  0  0  0  0
   29.2449   42.4465   24.4556 C   0  0  0  0  0  0  0  0  0  0  0  0
   28.5742   40.4649   22.9243 C   0  0  0  0  0  0  0  0  0  0  0  0
   26.2492   39.9923   22.8971 C   0  0  0  0  0  0  0  0  0  0  0  0
   24.7048   44.4676   27.2985 O   0  0  0  0  0  0  0  0  0  0  0  0
   25.6401   43.6643   27.3048 C   0  0  0  0  0  0  0  0  0  0  0  0
   26.5592   43.6462   28.2624 O   0  0  0  0  0  0  0  0  0  0  0  0
   25.7974   42.6707   26.2096 C   0  0  1  0  0  0  0  0  0  0  0  0
   23.6436   41.7034   26.5886 O   0  0  0  0  0  0  0  0  0  0  0  0
   27.0006   42.6082   25.4854 C   0  0  0  0  0  0  0  0  0  0  0  0
   28.3966   41.5805   23.8930 C   0  0  0  0  0  0  0  0  0  0  0  0
   28.5157   43.3823   25.6941 S   0  0  0  0  0  0  0  0  0  0  0  0
   26.0819   40.8201   24.0303 C   0  0  0  0  0  0  0  0  0  0  0  0
   24.8871   40.8134   24.7666 C   0  0  0  0  0  0  0  0  0  0  0  0
   23.0529   38.2474   23.0140 F   0  0  0  0  0  0  0  0  0  0  0  0
   27.4155   40.1097   22.1248 N   0  0  0  0  0  0  0  0  0  0  0  0
   27.1850   40.9330   20.9570 C   0  0  0  0  0  0  0  0  0  0  0  0
   26.5794   37.4440   21.1440 C   0  0  0  0  0  0  0  0  0  0  0  0
   24.3464   36.8372   18.4505 O   0  0  0  0  0  0  0  0  0  0  0  0
   26.1087   36.5767   19.9887 C   0  0  2  0  0  0  0  0  0  0  0  0
   27.1601   35.9424   19.1708 N   0  0  0  0  0  0  0  0  0  0  0  0
   28.2649   36.8311   18.7669 C   0  0  0  0  0  0  0  0  0  0  0  0
   27.6411   34.6700   19.7306 C   0  0  0  0  0  0  0  0  0  0  0  0
  1  5  1  0  0  0  0
  2 17  1  0  0  0  0
  3  1  1  0  0  0  0
  4  3  1  0  0  0  0
  4 26  1  1  0  0  0
  5 11  2  0  0  0  0
  5  6  1  0  0  0  0
  6  7  2  0  0  0  0
  7 21  1  0  0  0  0
  8 15  1  0  0  0  0
  8 16  2  0  0  0  0
  9 19  1  0  0  0  0
 10 18  1  0  0  0  0
 11 20  1  0  0  0  0
 13 14  1  0  0  0  0
 13 12  2  0  0  0  0
 15 13  1  1  0  0  0
 17 19  2  0  0  0  0
 17 15  1  0  0  0  0
 18  2  1  0  0  0  0
 18  9  2  0  0  0  0
 20 21  2  0  0  0  0
 20  2  1  0  0  0  0
 21  8  1  0  0  0  0
 22  6  1  0  0  0  0
 23 11  1  0  0  0  0
 23 10  1  0  0  0  0
 24 23  1  0  0  0  0
 25  1  1  0  0  0  0
 27  4  1  0  0  0  0
 27 25  1  0  0  0  0
 27 28  1  6  0  0  0
 29 28  1  0  0  0  0
 30 28  1  0  0  0  0
M  END
>  <CHROM.1>
79.95427244,1.89172015,-56.45607668,64.79738337,67.84993675,26.17750402,40.15619685
23.20939594,1.59224237,-0.26303898,-2.30720378

>  <Name>
lig.pdb

>  <RI>
0

>  <Rbt.Current_Directory>
/home/itssahil/PROJECTS/Mol_Feturizer/New_Systems/rnas/6bfb

>  <Rbt.Executable>
rbdock ($Id: //depot/dev/client3/rdock/2013.1/src/exe/rbdock.cxx#4 $)

>  <Rbt.Library>
libRbt.so (2013.1, Build901 2013/11/27)

>  <Rbt.Parameter_File>
/export/apps/rDock/src/rDock_2013.1_src/data/scripts/dock_solv.prm

>  <Rbt.Receptor>
prm/blind_docking_100.prm

>  <SCORE>
-42.0213

>  <SCORE.INTER>
-35.6601

>  <SCORE.INTER.CONST>
1

>  <SCORE.INTER.POLAR>
-0.894427

>  <SCORE.INTER.ROT>
3

>  <SCORE.INTER.SOLV>
11.7094

>  <SCORE.INTER.VDW>
-30.2951

>  <SCORE.INTER.norm>
-1.18867

>  <SCORE.INTRA>
-6.3612

>  <SCORE.INTRA.DIHEDRAL>
-7.33583

>  <SCORE.INTRA.DIHEDRAL.0>
9.41909

>  <SCORE.INTRA.POLAR>
0

>  <SCORE.INTRA.POLAR.0>
0

>  <SCORE.INTRA.REPUL>
0

>  <SCORE.INTRA.REPUL.0>
0

>  <SCORE.INTRA.SOLV>
-0.156296

>  <SCORE.INTRA.SOLV.lig_0>
-26.2491

>  <SCORE.INTRA.VDW>
-2.61514

>  <SCORE.INTRA.VDW.0>
2.57239

>  <SCORE.INTRA.norm>
-0.21204

>  <SCORE.RESTR>
0

>  <SCORE.RESTR.CAVITY>
0

>  <SCORE.RESTR.norm>
0

>  <SCORE.SYSTEM>
0

>  <SCORE.SYSTEM.CONST>
0

>  <SCORE.SYSTEM.DIHEDRAL>
0

>  <SCORE.SYSTEM.SOLV>
0

>  <SCORE.SYSTEM.norm>
0

>  <SCORE.heavy>
30

>  <SCORE.norm>
-1.40071

>  <RMSD>
1.730

$$$$
lig.pdb
 OpenBabel11021811523D
libRbt.so/2013.1/901 2013/11/27
 30 34  0  0  0  0  0  0  0  0999 V2000
   25.2607   38.5827   21.4514 N   0  0  0  0  0  0  0  0  0  0  0  0
   26.9742   42.0327   24.5608 N   0  0  0  0  0  0  0  0  0  0  0  0
   24.6138   38.9746   20.1955 C   0  0  0  0  0  0  0  0  0  0  0  0
   25.2020   37.9684   19.2178 C   0  0  2  0  0  0  0  0  0  0  0  0
   25.1064   39.4017   22.6484 C   0  0  0  0  0  0  0  0  0  0  0  0
   23.9814   39.3409   23.4960 C   0  0  0  0  0  0  0  0  0  0  0  0
   23.8202   40.1303   24.6072 C   0  0  0  0  0  0  0  0  0  0  0  0
   24.6017   41.9525   26.1247 C   0  0  0  0  0  0  0  0  0  0  0  0
   29.0665   42.8928   24.4913 C   0  0  0  0  0  0  0  0  0  0  0  0
   28.4197   40.9120   22.9488 C   0  0  0  0  0  0  0  0  0  0  0  0
   26.1193   40.3339   23.0107 C   0  0  0  0  0  0  0  0  0  0  0  0
   26.0881   43.6891   28.6013 O   0  0  0  0  0  0  0  0  0  0  0  0
   25.5380   43.8899   27.5163 C   0  0  0  0  0  0  0  0  0  0  0  0
   24.7732   44.9508   27.2891 O   0  0  0  0  0  0  0  0  0  0  0  0
   25.6920   42.9254   26.3948 C   0  0  1  0  0  0  0  0  0  0  0  0
   23.6025   41.8534   26.8449 O   0  0  0  0  0  0  0  0  0  0  0  0
   26.8642   42.9320   25.6189 C   0  0  0  0  0  0  0  0  0  0  0  0
   28.2343   41.9997   23.9473 C   0  0  0  0  0  0  0  0  0  0  0  0
   28.3506   43.7706   25.7790 S   0  0  0  0  0  0  0  0  0  0  0  0
   25.9644   41.1315   24.1672 C   0  0  0  0  0  0  0  0  0  0  0  0
   24.8043   41.0561   24.9533 C   0  0  0  0  0  0  0  0  0  0  0  0
   23.0129   38.4424   23.2272 F   0  0  0  0  0  0  0  0  0  0  0  0
   27.2444   40.5192   22.1922 N   0  0  0  0  0  0  0  0  0  0  0  0
   26.9265   41.3532   21.0527 C   0  0  0  0  0  0  0  0  0  0  0  0
   26.4739   37.8102   21.2089 C   0  0  0  0  0  0  0  0  0  0  0  0
   24.1819   37.2127   18.5634 O   0  0  0  0  0  0  0  0  0  0  0  0
   25.9914   36.9586   20.0468 C   0  0  2  0  0  0  0  0  0  0  0  0
   27.0340   36.3678   19.1863 N   0  0  0  0  0  0  0  0  0  0  0  0
   28.1317   37.2781   18.8125 C   0  0  0  0  0  0  0  0  0  0  0  0
   27.5247   35.0711   19.6777 C   0  0  0  0  0  0  0  0  0  0  0  0
  1  5  1  0  0  0  0
  2 17  1  0  0  0  0
  3  1  1  0  0  0  0
  4  3  1  0  0  0  0
  4 26  1  1  0  0  0
  5 11  2  0  0  0  0
  5  6  1  0  0  0  0
  6  7  2  0  0  0  0
  7 21  1  0  0  0  0
  8 15  1  0  0  0  0
  8 16  2  0  0  0  0
  9 19  1  0  0  0  0
 10 18  1  0  0  0  0
 11 20  1  0  0  0  0
 13 14  1  0  0  0  0
 13 12  2  0  0  0  0
 15 13  1  1  0  0  0
 17 19  2  0  0  0  0
 17 15  1  0  0  0  0
 18  2  1  0  0  0  0
 18  9  2  0  0  0  0
 20 21  2  0  0  0  0
 20  2  1  0  0  0  0
 21  8  1  0  0  0  0
 22  6  1  0  0  0  0
 23 11  1  0  0  0  0
 23 10  1  0  0  0  0
 24 23  1  0  0  0  0
 25  1  1  0  0  0  0
 27  4  1  0  0  0  0
 27 25  1  0  0  0  0
 27 28  1  6  0  0  0
 29 28  1  0  0  0  0
 30 28  1  0  0  0  0
M  END
>  <CHROM.1>
81.53565302,170.80027646,100.13821867,58.98021234,69.90961552,26.04123032
40.48800757,23.32174985,1.58901041,-0.32901661,-2.29532753

>  <Name>
lig.pdb

>  <RI>
0

>  <Rbt.Current_Directory>
/home/itssahil/PROJECTS/Mol_Feturizer/New_Systems/rnas/6bfb

>  <Rbt.Executable>
rbdock ($Id: //depot/dev/client3/rdock/2013.1/src/exe/rbdock.cxx#4 $)

>  <Rbt.Library>
libRbt.so (2013.1, Build901 2013/11/27)

>  <Rbt.Parameter_File>
/export/apps/rDock/src/rDock_2013.1_src/data/scripts/dock_solv.prm

>  <Rbt.Receptor>
prm/pocket_docking_2.prm

>  <SCORE>
-42.2189

>  <SCORE.INTER>
-36.9729

>  <SCORE.INTER.CONST>
1

>  <SCORE.INTER.POLAR>
-1.85982

>  <SCORE.INTER.ROT>
3

>  <SCORE.INTER.SOLV>
12.0056

>  <SCORE.INTER.VDW>
-28.0511

>  <SCORE.INTER.norm>
-1.23243

>  <SCORE.INTRA>
-5.69297

>  <SCORE.INTRA.DIHEDRAL>
-6.71811

>  <SCORE.INTRA.DIHEDRAL.0>
9.41909

>  <SCORE.INTRA.POLAR>
0

>  <SCORE.INTRA.POLAR.0>
0

>  <SCORE.INTRA.REPUL>
0

>  <SCORE.INTRA.REPUL.0>
0

>  <SCORE.INTRA.SOLV>
-0.205685

>  <SCORE.INTRA.SOLV.lig_0>
-26.2491

>  <SCORE.INTRA.VDW>
-2.23107

>  <SCORE.INTRA.VDW.0>
2.57239

>  <SCORE.INTRA.norm>
-0.189766

>  <SCORE.RESTR>
0.446994

>  <SCORE.RESTR.CAVITY>
0.446994

>  <SCORE.RESTR.norm>
0.0148998

>  <SCORE.SYSTEM>
0

>  <SCORE.SYSTEM.CONST>
0

>  <SCORE.SYSTEM.DIHEDRAL>
0

>  <SCORE.SYSTEM.SOLV>
0

>  <SCORE.SYSTEM.norm>
0

>  <SCORE.heavy>
30

>  <SCORE.norm>
-1.4073

>  <RMSD>
1.732

$$$$
lig.pdb
 OpenBabel11021811523D
libRbt.so/2013.1/901 2013/11/27
 30 34  0  0  0  0  0  0  0  0999 V2000
   24.5625   38.5383   21.9058 N   0  0  0  0  0  0  0  0  0  0  0  0
   26.5760   42.0691   24.7317 N   0  0  0  0  0  0  0  0  0  0  0  0
   25.8282   37.9198   21.4996 C   0  0  0  0  0  0  0  0  0  0  0  0
   25.3698   36.9673   20.4056 C   0  0  2  0  0  0  0  0  0  0  0  0
   24.5098   39.4174   23.0685 C   0  0  0  0  0  0  0  0  0  0  0  0
   23.4390   39.4350   23.9855 C   0  0  0  0  0  0  0  0  0  0  0  0
   23.3730   40.2807   25.0645 C   0  0  0  0  0  0  0  0  0  0  0  0
   24.3054   42.1440   26.4402 C   0  0  0  0  0  0  0  0  0  0  0  0
   28.6859   42.8526   24.4918 C   0  0  0  0  0  0  0  0  0  0  0  0
   27.8812   40.8251   23.0907 C   0  0  0  0  0  0  0  0  0  0  0  0
   25.5723   40.3301   23.3219 C   0  0  0  0  0  0  0  0  0  0  0  0
   25.9822   43.9333   28.7409 O   0  0  0  0  0  0  0  0  0  0  0  0
   25.3880   44.1111   27.6754 C   0  0  0  0  0  0  0  0  0  0  0  0
   24.6625   45.1964   27.4349 O   0  0  0  0  0  0  0  0  0  0  0  0
   25.4407   43.0904   26.5951 C   0  0  1  0  0  0  0  0  0  0  0  0
   23.3509   42.1133   27.2245 O   0  0  0  0  0  0  0  0  0  0  0  0
   26.5612   43.0202   25.7492 C   0  0  0  0  0  0  0  0  0  0  0  0
   27.7934   41.9641   24.0442 C   0  0  0  0  0  0  0  0  0  0  0  0
   28.0804   43.8138   25.7766 S   0  0  0  0  0  0  0  0  0  0  0  0
   25.5156   41.1858   24.4453 C   0  0  0  0  0  0  0  0  0  0  0  0
   24.4055   41.1873   25.3039 C   0  0  0  0  0  0  0  0  0  0  0  0
   22.4277   38.5589   23.8209 F   0  0  0  0  0  0  0  0  0  0  0  0
   26.6489   40.4380   22.4277 N   0  0  0  0  0  0  0  0  0  0  0  0
   26.2862   41.2281   21.2705 C   0  0  0  0  0  0  0  0  0  0  0  0
   23.4194   37.7192   21.5185 C   0  0  0  0  0  0  0  0  0  0  0  0
   26.0363   37.2263   19.1693 O   0  0  0  0  0  0  0  0  0  0  0  0
   23.8960   37.2699   20.1475 C   0  0  2  0  0  0  0  0  0  0  0  0
   23.2642   36.0561   19.5962 N   0  0  0  0  0  0  0  0  0  0  0  0
   21.7936   36.0138   19.6908 C   0  0  0  0  0  0  0  0  0  0  0  0
   23.7489   35.7104   18.2511 C   0  0  0  0  0  0  0  0  0  0  0  0
  1  5  1  0  0  0  0
  2 17  1  0  0  0  0
  3  1  1  0  0  0  0
  4  3  1  0  0  0  0
  4 26  1  6  0  0  0
  5 11  2  0  0  0  0
  5  6  1  0  0  0  0
  6  7  2  0  0  0  0
  7 21  1  0  0  0  0
  8 15  1  0  0  0  0
  8 16  2  0  0  0  0
  9 19  1  0  0  0  0
 10 18  1  0  0  0  0
 11 20  1  0  0  0  0
 13 14  1  0  0  0  0
 13 12  2  0  0  0  0
 15 13  1  1  0  0  0
 17 19  2  0  0  0  0
 17 15  1  0  0  0  0
 18  2  1  0  0  0  0
 18  9  2  0  0  0  0
 20 21  2  0  0  0  0
 20  2  1  0  0  0  0
 21  8  1  0  0  0  0
 22  6  1  0  0  0  0
 23 11  1  0  0  0  0
 23 10  1  0  0  0  0
 24 23  1  0  0  0  0
 25  1  1  0  0  0  0
 27  4  1  0  0  0  0
 27 25  1  0  0  0  0
 27 28  1  1  0  0  0
 29 28  1  0  0  0  0
 30 28  1  0  0  0  0
M  END
>  <CHROM.1>
-141.35066217,168.82473109,99.02740187,62.19690174,161.15530944,25.23441435
40.45277828,23.61331205,1.81785488,-0.40976982,-2.25984845

>  <Name>
lig.pdb

>  <RI>
0

>  <Rbt.Current_Directory>
/home/itssahil/PROJECTS/Mol_Feturizer/New_Systems/rnas/6bfb

>  <Rbt.Executable>
rbdock ($Id: //depot/dev/client3/rdock/2013.1/src/exe/rbdock.cxx#4 $)

>  <Rbt.Library>
libRbt.so (2013.1, Build901 2013/11/27)

>  <Rbt.Parameter_File>
/export/apps/rDock/src/rDock_2013.1_src/data/scripts/dock_solv.prm

>  <Rbt.Receptor>
prm/pocket_docking_5.prm

>  <SCORE>
-40.9368

>  <SCORE.INTER>
-38.0711

>  <SCORE.INTER.CONST>
1

>  <SCORE.INTER.POLAR>
-0.66116

>  <SCORE.INTER.ROT>
3

>  <SCORE.INTER.SOLV>
13.3085

>  <SCORE.INTER.VDW>
-33.213

>  <SCORE.INTER.norm>
-1.26904

>  <SCORE.INTRA>
-2.86566

>  <SCORE.INTRA.DIHEDRAL>
-6.50766

>  <SCORE.INTRA.DIHEDRAL.0>
9.41909

>  <SCORE.INTRA.POLAR>
0

>  <SCORE.INTRA.POLAR.0>
0

>  <SCORE.INTRA.REPUL>
0

>  <SCORE.INTRA.REPUL.0>
0

>  <SCORE.INTRA.SOLV>
-0.108506

>  <SCORE.INTRA.SOLV.lig_0>
-26.2491

>  <SCORE.INTRA.VDW>
0.442419

>  <SCORE.INTRA.VDW.0>
2.57239

>  <SCORE.INTRA.norm>
-0.0955221

>  <SCORE.RESTR>
0

>  <SCORE.RESTR.CAVITY>
0

>  <SCORE.RESTR.norm>
0

>  <SCORE.SYSTEM>
0

>  <SCORE.SYSTEM.CONST>
0

>  <SCORE.SYSTEM.DIHEDRAL>
0

>  <SCORE.SYSTEM.SOLV>
0

>  <SCORE.SYSTEM.norm>
0

>  <SCORE.heavy>
30

>  <SCORE.norm>
-1.36456

>  <RMSD>
1.732

$$$$
lig.pdb
 OpenBabel11021811523D
libRbt.so/2013.1/901 2013/11/27
 30 34  0  0  0  0  0  0  0  0999 V2000
   24.6053   38.4565   21.7046 N   0  0  0  0  0  0  0  0  0  0  0  0
   26.7307   42.0225   24.4016 N   0  0  0  0  0  0  0  0  0  0  0  0
   25.8331   37.7649   21.2997 C   0  0  0  0  0  0  0  0  0  0  0  0
   25.3192   36.8348   20.2110 C   0  0  2  0  0  0  0  0  0  0  0  0
   24.6048   39.3427   22.8631 C   0  0  0  0  0  0  0  0  0  0  0  0
   23.5824   39.3575   23.8337 C   0  0  0  0  0  0  0  0  0  0  0  0
   23.5645   40.2097   24.9096 C   0  0  0  0  0  0  0  0  0  0  0  0
   24.5502   42.0897   26.2241 C   0  0  0  0  0  0  0  0  0  0  0  0
   28.8186   42.8218   24.0488 C   0  0  0  0  0  0  0  0  0  0  0  0
   27.9606   40.7786   22.7034 C   0  0  0  0  0  0  0  0  0  0  0  0
   25.6709   40.2659   23.0559 C   0  0  0  0  0  0  0  0  0  0  0  0
   24.7807   44.9174   27.4516 O   0  0  0  0  0  0  0  0  0  0  0  0
   25.6776   44.0737   27.3899 C   0  0  0  0  0  0  0  0  0  0  0  0
   26.6859   44.0393   28.2526 O   0  0  0  0  0  0  0  0  0  0  0  0
   25.6837   43.0465   26.3146 C   0  0  1  0  0  0  0  0  0  0  0  0
   23.6375   42.0562   27.0565 O   0  0  0  0  0  0  0  0  0  0  0  0
   26.7599   42.9801   25.4127 C   0  0  0  0  0  0  0  0  0  0  0  0
   27.9120   41.9230   23.6532 C   0  0  0  0  0  0  0  0  0  0  0  0
   28.2716   43.7864   25.3571 S   0  0  0  0  0  0  0  0  0  0  0  0
   25.6646   41.1285   24.1755 C   0  0  0  0  0  0  0  0  0  0  0  0
   24.6001   41.1264   25.0900 C   0  0  0  0  0  0  0  0  0  0  0  0
   22.5716   38.4719   23.7267 F   0  0  0  0  0  0  0  0  0  0  0  0
   26.6992   40.3769   22.1070 N   0  0  0  0  0  0  0  0  0  0  0  0
   26.2708   41.1563   20.9651 C   0  0  0  0  0  0  0  0  0  0  0  0
   23.4168   37.7022   21.3229 C   0  0  0  0  0  0  0  0  0  0  0  0
   25.9974   37.0495   18.9726 O   0  0  0  0  0  0  0  0  0  0  0  0
   23.8647   37.2198   19.9534 C   0  0  2  0  0  0  0  0  0  0  0  0
   23.1637   36.0414   19.4089 N   0  0  0  0  0  0  0  0  0  0  0  0
   21.7250   35.9651   19.7214 C   0  0  0  0  0  0  0  0  0  0  0  0
   23.4400   35.8106   17.9827 C   0  0  0  0  0  0  0  0  0  0  0  0
  1  5  1  0  0  0  0
  2 17  1  0  0  0  0
  3  1  1  0  0  0  0
  4  3  1  0  0  0  0
  4 26  1  6  0  0  0
  5 11  2  0  0  0  0
  5  6  1  0  0  0  0
  6  7  2  0  0  0  0
  7 21  1  0  0  0  0
  8 15  1  0  0  0  0
  8 16  2  0  0  0  0
  9 19  1  0  0  0  0
 10 18  1  0  0  0  0
 11 20  1  0  0  0  0
 13 14  1  0  0  0  0
 13 12  2  0  0  0  0
 15 13  1  1  0  0  0
 17 19  2  0  0  0  0
 17 15  1  0  0  0  0
 18  2  1  0  0  0  0
 18  9  2  0  0  0  0
 20 21  2  0  0  0  0
 20  2  1  0  0  0  0
 21  8  1  0  0  0  0
 22  6  1  0  0  0  0
 23 11  1  0  0  0  0
 23 10  1  0  0  0  0
 24 23  1  0  0  0  0
 25  1  1  0  0  0  0
 27  4  1  0  0  0  0
 27 25  1  0  0  0  0
 27 28  1  1  0  0  0
 29 28  1  0  0  0  0
 30 28  1  0  0  0  0
M  END
>  <CHROM.1>
-136.62996885,-0.27092990,-61.36807268,160.20256294,150.47886609,25.34764205
40.39051723,23.37034625,1.86490948,-0.43915027,-2.24028323

>  <Name>
lig.pdb

>  <RI>
0

>  <Rbt.Current_Directory>
/home/itssahil/PROJECTS/Mol_Feturizer/New_Systems/rnas/6bfb

>  <Rbt.Executable>
rbdock ($Id: //depot/dev/client3/rdock/2013.1/src/exe/rbdock.cxx#4 $)

>  <Rbt.Library>
libRbt.so (2013.1, Build901 2013/11/27)

>  <Rbt.Parameter_File>
/export/apps/rDock/src/rDock_2013.1_src/data/scripts/dock_solv.prm

>  <Rbt.Receptor>
prm/pocket_docking_6.prm

>  <SCORE>
-37.5511

>  <SCORE.INTER>
-35.0769

>  <SCORE.INTER.CONST>
1

>  <SCORE.INTER.POLAR>
0

>  <SCORE.INTER.ROT>
3

>  <SCORE.INTER.SOLV>
12.9949

>  <SCORE.INTER.VDW>
-33.3163

>  <SCORE.INTER.norm>
-1.16923

>  <SCORE.INTRA>
-2.47422

>  <SCORE.INTRA.DIHEDRAL>
-5.2352

>  <SCORE.INTRA.DIHEDRAL.0>
9.41909

>  <SCORE.INTRA.POLAR>
0

>  <SCORE.INTRA.POLAR.0>
0

>  <SCORE.INTRA.REPUL>
0

>  <SCORE.INTRA.REPUL.0>
0

>  <SCORE.INTRA.SOLV>
-0.0758363

>  <SCORE.INTRA.SOLV.lig_0>
-26.2491

>  <SCORE.INTRA.VDW>
0.181296

>  <SCORE.INTRA.VDW.0>
2.57239

>  <SCORE.INTRA.norm>
-0.082474

>  <SCORE.RESTR>
0

>  <SCORE.RESTR.CAVITY>
0

>  <SCORE.RESTR.norm>
0

>  <SCORE.SYSTEM>
0

>  <SCORE.SYSTEM.CONST>
0

>  <SCORE.SYSTEM.DIHEDRAL>
0

>  <SCORE.SYSTEM.SOLV>
0

>  <SCORE.SYSTEM.norm>
0

>  <SCORE.heavy>
30

>  <SCORE.norm>
-1.2517

>  <RMSD>
1.732

$$$$
lig.pdb
 OpenBabel11021811523D
libRbt.so/2013.1/901 2013/11/27
 30 34  0  0  0  0  0  0  0  0999 V2000
   25.2136   38.3831   21.4722 N   0  0  0  0  0  0  0  0  0  0  0  0
   27.1874   41.7485   24.5195 N   0  0  0  0  0  0  0  0  0  0  0  0
   24.6316   38.8185   20.1989 C   0  0  0  0  0  0  0  0  0  0  0  0
   25.1307   37.7420   19.2468 C   0  0  2  0  0  0  0  0  0  0  0  0
   25.1233   39.2329   22.6542 C   0  0  0  0  0  0  0  0  0  0  0  0
   23.9979   39.2727   23.5025 C   0  0  0  0  0  0  0  0  0  0  0  0
   23.8983   40.0919   24.5993 C   0  0  0  0  0  0  0  0  0  0  0  0
   24.8174   41.8765   26.0840 C   0  0  0  0  0  0  0  0  0  0  0  0
   29.3388   42.4461   24.4349 C   0  0  0  0  0  0  0  0  0  0  0  0
   28.5419   40.4927   22.9281 C   0  0  0  0  0  0  0  0  0  0  0  0
   26.2044   40.0919   22.9999 C   0  0  0  0  0  0  0  0  0  0  0  0
   26.5906   43.6356   28.4540 O   0  0  0  0  0  0  0  0  0  0  0  0
   25.8995   43.7619   27.4408 C   0  0  0  0  0  0  0  0  0  0  0  0
   25.0439   44.7640   27.2805 O   0  0  0  0  0  0  0  0  0  0  0  0
   25.9787   42.7686   26.3369 C   0  0  1  0  0  0  0  0  0  0  0  0
   23.8144   41.8664   26.8057 O   0  0  0  0  0  0  0  0  0  0  0  0
   27.1471   42.6724   25.5611 C   0  0  0  0  0  0  0  0  0  0  0  0
   28.4407   41.6090   23.9069 C   0  0  0  0  0  0  0  0  0  0  0  0
   28.6930   43.3986   25.7065 S   0  0  0  0  0  0  0  0  0  0  0  0
   26.1117   40.9196   24.1419 C   0  0  0  0  0  0  0  0  0  0  0  0
   24.9501   40.9465   24.9290 C   0  0  0  0  0  0  0  0  0  0  0  0
   22.9637   38.4456   23.2497 F   0  0  0  0  0  0  0  0  0  0  0  0
   27.3393   40.1767   22.1784 N   0  0  0  0  0  0  0  0  0  0  0  0
   27.0842   41.0118   21.0241 C   0  0  0  0  0  0  0  0  0  0  0  0
   26.3458   37.4876   21.2634 C   0  0  0  0  0  0  0  0  0  0  0  0
   24.0501   37.0835   18.5845 O   0  0  0  0  0  0  0  0  0  0  0  0
   25.7988   36.6707   20.1049 C   0  0  2  0  0  0  0  0  0  0  0  0
   26.7903   35.9632   19.2724 N   0  0  0  0  0  0  0  0  0  0  0  0
   27.9557   36.7673   18.8618 C   0  0  0  0  0  0  0  0  0  0  0  0
   27.1781   34.6542   19.8200 C   0  0  0  0  0  0  0  0  0  0  0  0
  1  5  1  0  0  0  0
  2 17  1  0  0  0  0
  3  1  1  0  0  0  0
  4  3  1  0  0  0  0
  4 26  1  1  0  0  0
  5 11  2  0  0  0  0
  5  6  1  0  0  0  0
  6  7  2  0  0  0  0
  7 21  1  0  0  0  0
  8 15  1  0  0  0  0
  8 16  2  0  0  0  0
  9 19  1  0  0  0  0
 10 18  1  0  0  0  0
 11 20  1  0  0  0  0
 13 14  1  0  0  0  0
 13 12  2  0  0  0  0
 15 13  1  1  0  0  0
 17 19  2  0  0  0  0
 17 15  1  0  0  0  0
 18  2  1  0  0  0  0
 18  9  2  0  0  0  0
 20 21  2  0  0  0  0
 20  2  1  0  0  0  0
 21  8  1  0  0  0  0
 22  6  1  0  0  0  0
 23 11  1  0  0  0  0
 23 10  1  0  0  0  0
 24 23  1  0  0  0  0
 25  1  1  0  0  0  0
 27  4  1  0  0  0  0
 27 25  1  0  0  0  0
 27 28  1  6  0  0  0
 29 28  1  0  0  0  0
 30 28  1  0  0  0  0
M  END
>  <CHROM.1>
83.36785660,169.54983995,110.89353401,58.00784869,67.60428237,26.13658493
40.25334018,23.31123376,1.64191706,-0.26760009,-2.29895504

>  <Name>
lig.pdb

>  <RI>
0

>  <Rbt.Current_Directory>
/home/itssahil/PROJECTS/Mol_Feturizer/New_Systems/rnas/6bfb

>  <Rbt.Executable>
rbdock ($Id: //depot/dev/client3/rdock/2013.1/src/exe/rbdock.cxx#4 $)

>  <Rbt.Library>
libRbt.so (2013.1, Build901 2013/11/27)

>  <Rbt.Parameter_File>
/export/apps/rDock/src/rDock_2013.1_src/data/scripts/dock_solv.prm

>  <Rbt.Receptor>
prm/pocket_docking_3.prm

>  <SCORE>
-42.983

>  <SCORE.INTER>
-37.3853

>  <SCORE.INTER.CONST>
1

>  <SCORE.INTER.POLAR>
-1.79728

>  <SCORE.INTER.ROT>
3

>  <SCORE.INTER.SOLV>
12.654

>  <SCORE.INTER.VDW>
-28.7506

>  <SCORE.INTER.norm>
-1.24618

>  <SCORE.INTRA>
-5.59876

>  <SCORE.INTRA.DIHEDRAL>
-6.62363

>  <SCORE.INTRA.DIHEDRAL.0>
9.41909

>  <SCORE.INTRA.POLAR>
0

>  <SCORE.INTRA.POLAR.0>
0

>  <SCORE.INTRA.REPUL>
0

>  <SCORE.INTRA.REPUL.0>
0

>  <SCORE.INTRA.SOLV>
-0.184817

>  <SCORE.INTRA.SOLV.lig_0>
-26.2491

>  <SCORE.INTRA.VDW>
-2.19454

>  <SCORE.INTRA.VDW.0>
2.57239

>  <SCORE.INTRA.norm>
-0.186625

>  <SCORE.RESTR>
0.00108962

>  <SCORE.RESTR.CAVITY>
0.00108962

>  <SCORE.RESTR.norm>
3.63207e-05

>  <SCORE.SYSTEM>
0

>  <SCORE.SYSTEM.CONST>
0

>  <SCORE.SYSTEM.DIHEDRAL>
0

>  <SCORE.SYSTEM.SOLV>
0

>  <SCORE.SYSTEM.norm>
0

>  <SCORE.heavy>
30

>  <SCORE.norm>
-1.43277

>  <RMSD>
1.734

$$$$
lig.pdb
 OpenBabel11021811523D
libRbt.so/2013.1/901 2013/11/27
 30 34  0  0  0  0  0  0  0  0999 V2000
   25.1771   38.3898   21.4447 N   0  0  0  0  0  0  0  0  0  0  0  0
   27.0753   41.8105   24.4783 N   0  0  0  0  0  0  0  0  0  0  0  0
   24.6164   38.8313   20.1640 C   0  0  0  0  0  0  0  0  0  0  0  0
   25.1266   37.7562   19.2163 C   0  0  2  0  0  0  0  0  0  0  0  0
   25.0713   39.2361   22.6280 C   0  0  0  0  0  0  0  0  0  0  0  0
   23.9520   39.2424   23.4853 C   0  0  0  0  0  0  0  0  0  0  0  0
   23.8371   40.0579   24.5834 C   0  0  0  0  0  0  0  0  0  0  0  0
   24.7152   41.8681   26.0618 C   0  0  0  0  0  0  0  0  0  0  0  0
   29.2046   42.5711   24.3770 C   0  0  0  0  0  0  0  0  0  0  0  0
   28.4534   40.5957   22.8754 C   0  0  0  0  0  0  0  0  0  0  0  0
   26.1294   40.1264   22.9656 C   0  0  0  0  0  0  0  0  0  0  0  0
   24.8174   44.5865   27.4571 O   0  0  0  0  0  0  0  0  0  0  0  0
   25.7523   43.7840   27.4112 C   0  0  0  0  0  0  0  0  0  0  0  0
   26.7211   43.7637   28.3184 O   0  0  0  0  0  0  0  0  0  0  0  0
   25.8518   42.7939   26.3060 C   0  0  1  0  0  0  0  0  0  0  0  0
   23.7188   41.8283   26.7915 O   0  0  0  0  0  0  0  0  0  0  0  0
   27.0162   42.7323   25.5209 C   0  0  0  0  0  0  0  0  0  0  0  0
   28.3273   41.7082   23.8557 C   0  0  0  0  0  0  0  0  0  0  0  0
   28.5413   43.5037   25.6544 S   0  0  0  0  0  0  0  0  0  0  0  0
   26.0215   40.9505   24.1088 C   0  0  0  0  0  0  0  0  0  0  0  0
   24.8660   40.9429   24.9052 C   0  0  0  0  0  0  0  0  0  0  0  0
   22.9406   38.3854   23.2402 F   0  0  0  0  0  0  0  0  0  0  0  0
   27.2547   40.2448   22.1351 N   0  0  0  0  0  0  0  0  0  0  0  0
   26.9660   41.0725   20.9834 C   0  0  0  0  0  0  0  0  0  0  0  0
   26.3093   37.4911   21.2506 C   0  0  0  0  0  0  0  0  0  0  0  0
   24.0542   37.1035   18.5351 O   0  0  0  0  0  0  0  0  0  0  0  0
   25.7776   36.6798   20.0810 C   0  0  2  0  0  0  0  0  0  0  0  0
   26.7795   35.9716   19.2618 N   0  0  0  0  0  0  0  0  0  0  0  0
   27.8113   35.2420   20.0211 C   0  0  0  0  0  0  0  0  0  0  0  0
   26.1820   35.1504   18.1976 C   0  0  0  0  0  0  0  0  0  0  0  0
  1  5  1  0  0  0  0
  2 17  1  0  0  0  0
  3  1  1  0  0  0  0
  4  3  1  0  0  0  0
  4 26  1  1  0  0  0
  5 11  2  0  0  0  0
  5  6  1  0  0  0  0
  6  7  2  0  0  0  0
  7 21  1  0  0  0  0
  8 15  1  0  0  0  0
  8 16  2  0  0  0  0
  9 19  1  0  0  0  0
 10 18  1  0  0  0  0
 11 20  1  0  0  0  0
 13 14  1  0  0  0  0
 13 12  2  0  0  0  0
 15 13  1  1  0  0  0
 17 19  2  0  0  0  0
 17 15  1  0  0  0  0
 18  2  1  0  0  0  0
 18  9  2  0  0  0  0
 20 21  2  0  0  0  0
 20  2  1  0  0  0  0
 21  8  1  0  0  0  0
 22  6  1  0  0  0  0
 23 11  1  0  0  0  0
 23 10  1  0  0  0  0
 24 23  1  0  0  0  0
 25  1  1  0  0  0  0
 27  4  1  0  0  0  0
 27 25  1  0  0  0  0
 27 28  1  6  0  0  0
 29 28  1  0  0  0  0
 30 28  1  0  0  0  0
M  END
>  <CHROM.1>
85.68597209,1.06949027,-56.28363472,58.52284638,159.69995968,26.03206288
40.24008805,23.27503218,1.65166184,-0.28205512,-2.30072595

>  <Name>
lig.pdb

>  <RI>
0

>  <Rbt.Current_Directory>
/home/itssahil/PROJECTS/Mol_Feturizer/New_Systems/rnas/6bfb

>  <Rbt.Executable>
rbdock ($Id: //depot/dev/client3/rdock/2013.1/src/exe/rbdock.cxx#4 $)

>  <Rbt.Library>
libRbt.so (2013.1, Build901 2013/11/27)

>  <Rbt.Parameter_File>
/export/apps/rDock/src/rDock_2013.1_src/data/scripts/dock_solv.prm

>  <Rbt.Receptor>
prm/blind_docking_100.prm

>  <SCORE>
-41.2632

>  <SCORE.INTER>
-35.4522

>  <SCORE.INTER.CONST>
1

>  <SCORE.INTER.POLAR>
-1.17538

>  <SCORE.INTER.ROT>
3

>  <SCORE.INTER.SOLV>
12.1495

>  <SCORE.INTER.VDW>
-29.3667

>  <SCORE.INTER.norm>
-1.18174

>  <SCORE.INTRA>
-5.81093

>  <SCORE.INTRA.DIHEDRAL>
-7.40454

>  <SCORE.INTRA.DIHEDRAL.0>
9.41909

>  <SCORE.INTRA.POLAR>
0

>  <SCORE.INTRA.POLAR.0>
0

>  <SCORE.INTRA.REPUL>
0

>  <SCORE.INTRA.REPUL.0>
0

>  <SCORE.INTRA.SOLV>
-0.0396604

>  <SCORE.INTRA.SOLV.lig_0>
-26.2491

>  <SCORE.INTRA.VDW>
-2.08883

>  <SCORE.INTRA.VDW.0>
2.57239

>  <SCORE.INTRA.norm>
-0.193698

>  <SCORE.RESTR>
0

>  <SCORE.RESTR.CAVITY>
0

>  <SCORE.RESTR.norm>
0

>  <SCORE.SYSTEM>
0

>  <SCORE.SYSTEM.CONST>
0

>  <SCORE.SYSTEM.DIHEDRAL>
0

>  <SCORE.SYSTEM.SOLV>
0

>  <SCORE.SYSTEM.norm>
0

>  <SCORE.heavy>
30

>  <SCORE.norm>
-1.37544

>  <RMSD>
1.740

$$$$
lig.pdb
 OpenBabel11021811523D
libRbt.so/2013.1/901 2013/11/27
 30 34  0  0  0  0  0  0  0  0999 V2000
   25.1862   38.4106   21.4440 N   0  0  0  0  0  0  0  0  0  0  0  0
   27.0805   41.8085   24.5057 N   0  0  0  0  0  0  0  0  0  0  0  0
   24.6194   38.8457   20.1639 C   0  0  0  0  0  0  0  0  0  0  0  0
   25.1385   37.7749   19.2161 C   0  0  2  0  0  0  0  0  0  0  0  0
   25.0740   39.2567   22.6269 C   0  0  0  0  0  0  0  0  0  0  0  0
   23.9440   39.2736   23.4698 C   0  0  0  0  0  0  0  0  0  0  0  0
   23.8235   40.0890   24.5673 C   0  0  0  0  0  0  0  0  0  0  0  0
   24.7011   41.8886   26.0590 C   0  0  0  0  0  0  0  0  0  0  0  0
   29.2186   42.5474   24.4324 C   0  0  0  0  0  0  0  0  0  0  0  0
   28.4664   40.5814   22.9190 C   0  0  0  0  0  0  0  0  0  0  0  0
   26.1367   40.1358   22.9790 C   0  0  0  0  0  0  0  0  0  0  0  0
   24.8235   44.6162   27.4490 O   0  0  0  0  0  0  0  0  0  0  0  0
   25.7404   43.7923   27.4238 C   0  0  0  0  0  0  0  0  0  0  0  0
   26.6861   43.7477   28.3542 O   0  0  0  0  0  0  0  0  0  0  0  0
   25.8439   42.8024   26.3188 C   0  0  1  0  0  0  0  0  0  0  0  0
   23.6951   41.8581   26.7759 O   0  0  0  0  0  0  0  0  0  0  0  0
   27.0175   42.7298   25.5485 C   0  0  0  0  0  0  0  0  0  0  0  0
   28.3392   41.6940   23.8989 C   0  0  0  0  0  0  0  0  0  0  0  0
   28.5485   43.4853   25.7023 S   0  0  0  0  0  0  0  0  0  0  0  0
   26.0227   40.9597   24.1217 C   0  0  0  0  0  0  0  0  0  0  0  0
   24.8571   40.9631   24.9033 C   0  0  0  0  0  0  0  0  0  0  0  0
   22.9271   38.4272   23.2109 F   0  0  0  0  0  0  0  0  0  0  0  0
   27.2738   40.2435   22.1631 N   0  0  0  0  0  0  0  0  0  0  0  0
   27.0082   41.0754   21.0088 C   0  0  0  0  0  0  0  0  0  0  0  0
   26.3268   37.5227   21.2489 C   0  0  0  0  0  0  0  0  0  0  0  0
   24.0716   37.1115   18.5370 O   0  0  0  0  0  0  0  0  0  0  0  0
   25.8013   36.7056   20.0807 C   0  0  2  0  0  0  0  0  0  0  0  0
   26.8088   36.0064   19.2604 N   0  0  0  0  0  0  0  0  0  0  0  0
   27.8313   35.2628   20.0184 C   0  0  0  0  0  0  0  0  0  0  0  0
   26.2189   35.2028   18.1787 C   0  0  0  0  0  0  0  0  0  0  0  0
  1  5  1  0  0  0  0
  2 17  1  0  0  0  0
  3  1  1  0  0  0  0
  4  3  1  0  0  0  0
  4 26  1  1  0  0  0
  5 11  2  0  0  0  0
  5  6  1  0  0  0  0
  6  7  2  0  0  0  0
  7 21  1  0  0  0  0
  8 15  1  0  0  0  0
  8 16  2  0  0  0  0
  9 19  1  0  0  0  0
 10 18  1  0  0  0  0
 11 20  1  0  0  0  0
 13 14  1  0  0  0  0
 13 12  2  0  0  0  0
 15 13  1  1  0  0  0
 17 19  2  0  0  0  0
 17 15  1  0  0  0  0
 18  2  1  0  0  0  0
 18  9  2  0  0  0  0
 20 21  2  0  0  0  0
 20  2  1  0  0  0  0
 21  8  1  0  0  0  0
 22  6  1  0  0  0  0
 23 11  1  0  0  0  0
 23 10  1  0  0  0  0
 24 23  1  0  0  0  0
 25  1  1  0  0  0  0
 27  4  1  0  0  0  0
 27 25  1  0  0  0  0
 27 28  1  6  0  0  0
 29 28  1  0  0  0  0
 30 28  1  0  0  0  0
M  END
>  <CHROM.1>
84.28086846,0.89037193,-57.28347704,56.90787484,160.99404179,26.03749096
40.25246750,23.28516054,1.64819975,-0.26506391,-2.29903052

>  <Name>
lig.pdb

>  <RI>
0

>  <Rbt.Current_Directory>
/home/itssahil/PROJECTS/Mol_Feturizer/New_Systems/rnas/6bfb

>  <Rbt.Executable>
rbdock ($Id: //depot/dev/client3/rdock/2013.1/src/exe/rbdock.cxx#4 $)

>  <Rbt.Library>
libRbt.so (2013.1, Build901 2013/11/27)

>  <Rbt.Parameter_File>
/export/apps/rDock/src/rDock_2013.1_src/data/scripts/dock_solv.prm

>  <Rbt.Receptor>
prm/pocket_docking_7.prm

>  <SCORE>
-41.2543

>  <SCORE.INTER>
-35.4836

>  <SCORE.INTER.CONST>
1

>  <SCORE.INTER.POLAR>
-1.19803

>  <SCORE.INTER.ROT>
3

>  <SCORE.INTER.SOLV>
12.102

>  <SCORE.INTER.VDW>
-29.2963

>  <SCORE.INTER.norm>
-1.18279

>  <SCORE.INTRA>
-5.77073

>  <SCORE.INTRA.DIHEDRAL>
-7.42116

>  <SCORE.INTRA.DIHEDRAL.0>
9.41909

>  <SCORE.INTRA.POLAR>
0

>  <SCORE.INTRA.POLAR.0>
0

>  <SCORE.INTRA.REPUL>
0

>  <SCORE.INTRA.REPUL.0>
0

>  <SCORE.INTRA.SOLV>
-0.0367895

>  <SCORE.INTRA.SOLV.lig_0>
-26.2491

>  <SCORE.INTRA.VDW>
-2.04175

>  <SCORE.INTRA.VDW.0>
2.57239

>  <SCORE.INTRA.norm>
-0.192358

>  <SCORE.RESTR>
0

>  <SCORE.RESTR.CAVITY>
0

>  <SCORE.RESTR.norm>
0

>  <SCORE.SYSTEM>
0

>  <SCORE.SYSTEM.CONST>
0

>  <SCORE.SYSTEM.DIHEDRAL>
0

>  <SCORE.SYSTEM.SOLV>
0

>  <SCORE.SYSTEM.norm>
0

>  <SCORE.heavy>
30

>  <SCORE.norm>
-1.37514

>  <RMSD>
1.740

$$$$
lig.pdb
 OpenBabel11021811523D
libRbt.so/2013.1/901 2013/11/27
 30 34  0  0  0  0  0  0  0  0999 V2000
   25.5471   38.6527   21.6576 N   0  0  0  0  0  0  0  0  0  0  0  0
   26.7401   42.1724   24.9281 N   0  0  0  0  0  0  0  0  0  0  0  0
   24.9638   38.9603   20.3482 C   0  0  0  0  0  0  0  0  0  0  0  0
   25.7245   38.0066   19.4393 C   0  0  2  0  0  0  0  0  0  0  0  0
   25.2186   39.4674   22.8221 C   0  0  0  0  0  0  0  0  0  0  0  0
   24.0028   39.3644   23.5286 C   0  0  0  0  0  0  0  0  0  0  0  0
   23.6788   40.1490   24.6071 C   0  0  0  0  0  0  0  0  0  0  0  0
   24.2013   42.0029   26.1958 C   0  0  0  0  0  0  0  0  0  0  0  0
   28.7910   43.1131   25.1051 C   0  0  0  0  0  0  0  0  0  0  0  0
   28.4111   41.1058   23.5090 C   0  0  0  0  0  0  0  0  0  0  0  0
   26.1439   40.4389   23.2975 C   0  0  0  0  0  0  0  0  0  0  0  0
   25.5067   43.9553   28.7437 O   0  0  0  0  0  0  0  0  0  0  0  0
   24.8882   43.9777   27.6774 C   0  0  0  0  0  0  0  0  0  0  0  0
   23.8998   44.8321   27.4431 O   0  0  0  0  0  0  0  0  0  0  0  0
   25.2131   43.0180   26.5888 C   0  0  1  0  0  0  0  0  0  0  0  0
   23.1272   41.8664   26.7913 O   0  0  0  0  0  0  0  0  0  0  0  0
   26.4690   43.0686   25.9594 C   0  0  0  0  0  0  0  0  0  0  0  0
   28.0653   42.1872   24.4708 C   0  0  0  0  0  0  0  0  0  0  0  0
   27.8921   43.9647   26.2917 S   0  0  0  0  0  0  0  0  0  0  0  0
   25.8203   41.2320   24.4218 C   0  0  0  0  0  0  0  0  0  0  0  0
   24.5778   41.1129   25.0631 C   0  0  0  0  0  0  0  0  0  0  0  0
   23.1089   38.4285   23.1511 F   0  0  0  0  0  0  0  0  0  0  0  0
   27.3515   40.6663   22.6190 N   0  0  0  0  0  0  0  0  0  0  0  0
   27.1413   41.4852   21.4442 C   0  0  0  0  0  0  0  0  0  0  0  0
   26.8471   38.0049   21.5244 C   0  0  0  0  0  0  0  0  0  0  0  0
   24.8397   37.1424   18.7251 O   0  0  0  0  0  0  0  0  0  0  0  0
   26.5446   37.0934   20.3470 C   0  0  2  0  0  0  0  0  0  0  0  0
   27.7052   36.6008   19.5808 N   0  0  0  0  0  0  0  0  0  0  0  0
   27.4023   35.5655   18.5759 C   0  0  0  0  0  0  0  0  0  0  0  0
   28.5412   37.6818   19.0364 C   0  0  0  0  0  0  0  0  0  0  0  0
  1  5  1  0  0  0  0
  2 17  1  0  0  0  0
  3  1  1  0  0  0  0
  4  3  1  0  0  0  0
  4 26  1  1  0  0  0
  5 11  2  0  0  0  0
  5  6  1  0  0  0  0
  6  7  2  0  0  0  0
  7 21  1  0  0  0  0
  8 15  1  0  0  0  0
  8 16  2  0  0  0  0
  9 19  1  0  0  0  0
 10 18  1  0  0  0  0
 11 20  1  0  0  0  0
 13 14  1  0  0  0  0
 13 12  2  0  0  0  0
 15 13  1  1  0  0  0
 17 19  2  0  0  0  0
 17 15  1  0  0  0  0
 18  2  1  0  0  0  0
 18  9  2  0  0  0  0
 20 21  2  0  0  0  0
 20  2  1  0  0  0  0
 21  8  1  0  0  0  0
 22  6  1  0  0  0  0
 23 11  1  0  0  0  0
 23 10  1  0  0  0  0
 24 23  1  0  0  0  0
 25  1  1  0  0  0  0
 27  4  1  0  0  0  0
 27 25  1  0  0  0  0
 27 28  1  6  0  0  0
 29 28  1  0  0  0  0
 30 28  1  0  0  0  0
M  END
>  <CHROM.1>
77.09665244,-0.83653671,114.32356705,63.37203271,-74.50592474,25.98644660
40.61024259,23.53132364,1.48347445,-0.31041224,-2.30774086

>  <Name>
lig.pdb

>  <RI>
0

>  <Rbt.Current_Directory>
/home/itssahil/PROJECTS/Mol_Feturizer/New_Systems/rnas/6bfb

>  <Rbt.Executable>
rbdock ($Id: //depot/dev/client3/rdock/2013.1/src/exe/rbdock.cxx#4 $)

>  <Rbt.Library>
libRbt.so (2013.1, Build901 2013/11/27)

>  <Rbt.Parameter_File>
/export/apps/rDock/src/rDock_2013.1_src/data/scripts/dock_solv.prm

>  <Rbt.Receptor>
prm/blind_docking_80.prm

>  <SCORE>
-39.038

>  <SCORE.INTER>
-34.0568

>  <SCORE.INTER.CONST>
1

>  <SCORE.INTER.POLAR>
-0.894427

>  <SCORE.INTER.ROT>
3

>  <SCORE.INTER.SOLV>
10.6936

>  <SCORE.INTER.VDW>
-28.8877

>  <SCORE.INTER.norm>
-1.13523

>  <SCORE.INTRA>
-4.98144

>  <SCORE.INTRA.DIHEDRAL>
-7.54407

>  <SCORE.INTRA.DIHEDRAL.0>
9.41909

>  <SCORE.INTRA.POLAR>
0

>  <SCORE.INTRA.POLAR.0>
0

>  <SCORE.INTRA.REPUL>
0

>  <SCORE.INTRA.REPUL.0>
0

>  <SCORE.INTRA.SOLV>
0.119174

>  <SCORE.INTRA.SOLV.lig_0>
-26.2491

>  <SCORE.INTRA.VDW>
-1.26899

>  <SCORE.INTRA.VDW.0>
2.57239

>  <SCORE.INTRA.norm>
-0.166048

>  <SCORE.RESTR>
0.000215026

>  <SCORE.RESTR.CAVITY>
0.000215026

>  <SCORE.RESTR.norm>
7.16754e-06

>  <SCORE.SYSTEM>
0

>  <SCORE.SYSTEM.CONST>
0

>  <SCORE.SYSTEM.DIHEDRAL>
0

>  <SCORE.SYSTEM.SOLV>
0

>  <SCORE.SYSTEM.norm>
0

>  <SCORE.heavy>
30

>  <SCORE.norm>
-1.30127

>  <RMSD>
1.741

$$$$
lig.pdb
 OpenBabel11021811523D
libRbt.so/2013.1/901 2013/11/27
 30 34  0  0  0  0  0  0  0  0999 V2000
   25.2225   38.5843   21.5986 N   0  0  0  0  0  0  0  0  0  0  0  0
   26.8166   42.0412   24.7635 N   0  0  0  0  0  0  0  0  0  0  0  0
   24.6267   38.9722   20.3164 C   0  0  0  0  0  0  0  0  0  0  0  0
   25.2522   37.9616   19.3667 C   0  0  2  0  0  0  0  0  0  0  0  0
   25.0216   39.4082   22.7854 C   0  0  0  0  0  0  0  0  0  0  0  0
   23.8626   39.3533   23.5863 C   0  0  0  0  0  0  0  0  0  0  0  0
   23.6581   40.1472   24.6872 C   0  0  0  0  0  0  0  0  0  0  0  0
   24.3817   41.9729   26.2290 C   0  0  0  0  0  0  0  0  0  0  0  0
   28.9124   42.8956   24.7767 C   0  0  0  0  0  0  0  0  0  0  0  0
   28.3238   40.9109   23.2161 C   0  0  0  0  0  0  0  0  0  0  0  0
   26.0213   40.3390   23.1856 C   0  0  0  0  0  0  0  0  0  0  0  0
   24.2885   44.6647   27.6665 O   0  0  0  0  0  0  0  0  0  0  0  0
   25.2656   43.9128   27.6510 C   0  0  0  0  0  0  0  0  0  0  0  0
   26.1958   43.9314   28.5978 O   0  0  0  0  0  0  0  0  0  0  0  0
   25.4628   42.9439   26.5402 C   0  0  1  0  0  0  0  0  0  0  0  0
   23.3536   41.8790   26.9080 O   0  0  0  0  0  0  0  0  0  0  0  0
   26.6657   42.9446   25.8129 C   0  0  0  0  0  0  0  0  0  0  0  0
   28.1007   42.0026   24.2022 C   0  0  0  0  0  0  0  0  0  0  0  0
   28.1467   43.7799   26.0309 S   0  0  0  0  0  0  0  0  0  0  0  0
   25.8213   41.1412   24.3319 C   0  0  0  0  0  0  0  0  0  0  0  0
   24.6297   41.0717   25.0701 C   0  0  0  0  0  0  0  0  0  0  0  0
   22.9034   38.4564   23.2812 F   0  0  0  0  0  0  0  0  0  0  0  0
   27.1795   40.5184   22.4132 N   0  0  0  0  0  0  0  0  0  0  0  0
   26.9109   41.3490   21.2588 C   0  0  0  0  0  0  0  0  0  0  0  0
   26.4435   37.8097   21.4077 C   0  0  0  0  0  0  0  0  0  0  0  0
   24.2581   37.2045   18.6750 O   0  0  0  0  0  0  0  0  0  0  0  0
   26.0067   36.9541   20.2305 C   0  0  2  0  0  0  0  0  0  0  0  0
   27.0821   36.3589   19.4145 N   0  0  0  0  0  0  0  0  0  0  0  0
   26.6304   35.4576   18.3389 C   0  0  0  0  0  0  0  0  0  0  0  0
   28.0649   37.3462   18.9420 C   0  0  0  0  0  0  0  0  0  0  0  0
  1  5  1  0  0  0  0
  2 17  1  0  0  0  0
  3  1  1  0  0  0  0
  4  3  1  0  0  0  0
  4 26  1  1  0  0  0
  5 11  2  0  0  0  0
  5  6  1  0  0  0  0
  6  7  2  0  0  0  0
  7 21  1  0  0  0  0
  8 15  1  0  0  0  0
  8 16  2  0  0  0  0
  9 19  1  0  0  0  0
 10 18  1  0  0  0  0
 11 20  1  0  0  0  0
 13 14  1  0  0  0  0
 13 12  2  0  0  0  0
 15 13  1  1  0  0  0
 17 19  2  0  0  0  0
 17 15  1  0  0  0  0
 18  2  1  0  0  0  0
 18  9  2  0  0  0  0
 20 21  2  0  0  0  0
 20  2  1  0  0  0  0
 21  8  1  0  0  0  0
 22  6  1  0  0  0  0
 23 11  1  0  0  0  0
 23 10  1  0  0  0  0
 24 23  1  0  0  0  0
 25  1  1  0  0  0  0
 27  4  1  0  0  0  0
 27 25  1  0  0  0  0
 27 28  1  6  0  0  0
 29 28  1  0  0  0  0
 30 28  1  0  0  0  0
M  END
>  <CHROM.1>
81.42623219,3.15856765,-55.63158688,62.36551507,-69.93348625,25.90589579
40.50653939,23.44341830,1.58098980,-0.32779747,-2.27517959

>  <Name>
lig.pdb

>  <RI>
0

>  <Rbt.Current_Directory>
/home/itssahil/PROJECTS/Mol_Feturizer/New_Systems/rnas/6bfb

>  <Rbt.Executable>
rbdock ($Id: //depot/dev/client3/rdock/2013.1/src/exe/rbdock.cxx#4 $)

>  <Rbt.Library>
libRbt.so (2013.1, Build901 2013/11/27)

>  <Rbt.Parameter_File>
/export/apps/rDock/src/rDock_2013.1_src/data/scripts/dock_solv.prm

>  <Rbt.Receptor>
prm/pocket_docking_4.prm

>  <SCORE>
-39.3803

>  <SCORE.INTER>
-34.4109

>  <SCORE.INTER.CONST>
1

>  <SCORE.INTER.POLAR>
-1.11735

>  <SCORE.INTER.ROT>
3

>  <SCORE.INTER.SOLV>
11.0876

>  <SCORE.INTER.VDW>
-28.512

>  <SCORE.INTER.norm>
-1.14703

>  <SCORE.INTRA>
-4.9694

>  <SCORE.INTRA.DIHEDRAL>
-7.62092

>  <SCORE.INTRA.DIHEDRAL.0>
9.41909

>  <SCORE.INTRA.POLAR>
0

>  <SCORE.INTRA.POLAR.0>
0

>  <SCORE.INTRA.REPUL>
0

>  <SCORE.INTRA.REPUL.0>
0

>  <SCORE.INTRA.SOLV>
0.122224

>  <SCORE.INTRA.SOLV.lig_0>
-26.2491

>  <SCORE.INTRA.VDW>
-1.22005

>  <SCORE.INTRA.VDW.0>
2.57239

>  <SCORE.INTRA.norm>
-0.165647

>  <SCORE.RESTR>
0

>  <SCORE.RESTR.CAVITY>
0

>  <SCORE.RESTR.norm>
0

>  <SCORE.SYSTEM>
0

>  <SCORE.SYSTEM.CONST>
0

>  <SCORE.SYSTEM.DIHEDRAL>
0

>  <SCORE.SYSTEM.SOLV>
0

>  <SCORE.SYSTEM.norm>
0

>  <SCORE.heavy>
30

>  <SCORE.norm>
-1.31268

>  <RMSD>
1.745

$$$$
lig.pdb
 OpenBabel11021811523D
libRbt.so/2013.1/901 2013/11/27
 30 34  0  0  0  0  0  0  0  0999 V2000
   25.5422   38.6576   21.6685 N   0  0  0  0  0  0  0  0  0  0  0  0
   26.7155   42.1609   24.9635 N   0  0  0  0  0  0  0  0  0  0  0  0
   24.9494   38.9574   20.3616 C   0  0  0  0  0  0  0  0  0  0  0  0
   25.7202   38.0153   19.4491 C   0  0  2  0  0  0  0  0  0  0  0  0
   25.2065   39.4667   22.8348 C   0  0  0  0  0  0  0  0  0  0  0  0
   23.9862   39.3608   23.5329 C   0  0  0  0  0  0  0  0  0  0  0  0
   23.6555   40.1403   24.6132 C   0  0  0  0  0  0  0  0  0  0  0  0
   24.1686   41.9864   26.2140 C   0  0  0  0  0  0  0  0  0  0  0  0
   28.7656   43.0999   25.1582 C   0  0  0  0  0  0  0  0  0  0  0  0
   28.3952   41.1005   23.5499 C   0  0  0  0  0  0  0  0  0  0  0  0
   26.1291   40.4355   23.3208 C   0  0  0  0  0  0  0  0  0  0  0  0
   25.5761   44.0604   28.6978 O   0  0  0  0  0  0  0  0  0  0  0  0
   24.8468   43.9538   27.7095 C   0  0  0  0  0  0  0  0  0  0  0  0
   23.7308   44.6581   27.5664 O   0  0  0  0  0  0  0  0  0  0  0  0
   25.1782   42.9991   26.6184 C   0  0  1  0  0  0  0  0  0  0  0  0
   23.0907   41.8474   26.8020 O   0  0  0  0  0  0  0  0  0  0  0  0
   26.4382   43.0523   25.9973 C   0  0  0  0  0  0  0  0  0  0  0  0
   28.0436   42.1775   24.5148 C   0  0  0  0  0  0  0  0  0  0  0  0
   27.8594   43.9462   26.3430 S   0  0  0  0  0  0  0  0  0  0  0  0
   25.7986   41.2233   24.4467 C   0  0  0  0  0  0  0  0  0  0  0  0
   24.5519   41.1017   25.0796 C   0  0  0  0  0  0  0  0  0  0  0  0
   23.0943   38.4271   23.1452 F   0  0  0  0  0  0  0  0  0  0  0  0
   27.3411   40.6657   22.6511 N   0  0  0  0  0  0  0  0  0  0  0  0
   27.1388   41.4903   21.4790 C   0  0  0  0  0  0  0  0  0  0  0  0
   26.8508   38.0286   21.5298 C   0  0  0  0  0  0  0  0  0  0  0  0
   24.8451   37.1388   18.7378 O   0  0  0  0  0  0  0  0  0  0  0  0
   26.5569   37.1135   20.3530 C   0  0  2  0  0  0  0  0  0  0  0  0
   27.7214   36.6382   19.5820 N   0  0  0  0  0  0  0  0  0  0  0  0
   27.4276   35.6075   18.5696 C   0  0  0  0  0  0  0  0  0  0  0  0
   28.5463   37.7314   19.0450 C   0  0  0  0  0  0  0  0  0  0  0  0
  1  5  1  0  0  0  0
  2 17  1  0  0  0  0
  3  1  1  0  0  0  0
  4  3  1  0  0  0  0
  4 26  1  1  0  0  0
  5 11  2  0  0  0  0
  5  6  1  0  0  0  0
  6  7  2  0  0  0  0
  7 21  1  0  0  0  0
  8 15  1  0  0  0  0
  8 16  2  0  0  0  0
  9 19  1  0  0  0  0
 10 18  1  0  0  0  0
 11 20  1  0  0  0  0
 13 14  1  0  0  0  0
 13 12  2  0  0  0  0
 15 13  1  1  0  0  0
 17 19  2  0  0  0  0
 17 15  1  0  0  0  0
 18  2  1  0  0  0  0
 18  9  2  0  0  0  0
 20 21  2  0  0  0  0
 20  2  1  0  0  0  0
 21  8  1  0  0  0  0
 22  6  1  0  0  0  0
 23 11  1  0  0  0  0
 23 10  1  0  0  0  0
 24 23  1  0  0  0  0
 25  1  1  0  0  0  0
 27  4  1  0  0  0  0
 27 25  1  0  0  0  0
 27 28  1  6  0  0  0
 29 28  1  0  0  0  0
 30 28  1  0  0  0  0
M  END
>  <CHROM.1>
76.03523291,0.05016133,124.96971657,63.98796248,-74.00086747,25.96924173
40.60691739,23.55372679,1.47867076,-0.30478042,-2.30284603

>  <Name>
lig.pdb

>  <RI>
0

>  <Rbt.Current_Directory>
/home/itssahil/PROJECTS/Mol_Feturizer/New_Systems/rnas/6bfb

>  <Rbt.Executable>
rbdock ($Id: //depot/dev/client3/rdock/2013.1/src/exe/rbdock.cxx#4 $)

>  <Rbt.Library>
libRbt.so (2013.1, Build901 2013/11/27)

>  <Rbt.Parameter_File>
/export/apps/rDock/src/rDock_2013.1_src/data/scripts/dock_solv.prm

>  <Rbt.Receptor>
prm/blind_docking_60.prm

>  <SCORE>
-39.1097

>  <SCORE.INTER>
-34.2257

>  <SCORE.INTER.CONST>
1

>  <SCORE.INTER.POLAR>
-0.894427

>  <SCORE.INTER.ROT>
3

>  <SCORE.INTER.SOLV>
10.5886

>  <SCORE.INTER.VDW>
-28.9652

>  <SCORE.INTER.norm>
-1.14086

>  <SCORE.INTRA>
-4.88394

>  <SCORE.INTRA.DIHEDRAL>
-7.55179

>  <SCORE.INTRA.DIHEDRAL.0>
9.41909

>  <SCORE.INTRA.POLAR>
0

>  <SCORE.INTRA.POLAR.0>
0

>  <SCORE.INTRA.REPUL>
0

>  <SCORE.INTRA.REPUL.0>
0

>  <SCORE.INTRA.SOLV>
0.135853

>  <SCORE.INTRA.SOLV.lig_0>
-26.2491

>  <SCORE.INTRA.VDW>
-1.17598

>  <SCORE.INTRA.VDW.0>
2.57239

>  <SCORE.INTRA.norm>
-0.162798

>  <SCORE.RESTR>
0

>  <SCORE.RESTR.CAVITY>
0

>  <SCORE.RESTR.norm>
0

>  <SCORE.SYSTEM>
0

>  <SCORE.SYSTEM.CONST>
0

>  <SCORE.SYSTEM.DIHEDRAL>
0

>  <SCORE.SYSTEM.SOLV>
0

>  <SCORE.SYSTEM.norm>
0

>  <SCORE.heavy>
30

>  <SCORE.norm>
-1.30366

>  <RMSD>
1.746

$$$$
lig.pdb
 OpenBabel11021811523D
libRbt.so/2013.1/901 2013/11/27
 30 34  0  0  0  0  0  0  0  0999 V2000
   25.1926   38.3801   21.4997 N   0  0  0  0  0  0  0  0  0  0  0  0
   27.1857   41.7504   24.5289 N   0  0  0  0  0  0  0  0  0  0  0  0
   24.5981   38.8072   20.2294 C   0  0  0  0  0  0  0  0  0  0  0  0
   25.0942   37.7287   19.2780 C   0  0  2  0  0  0  0  0  0  0  0  0
   25.1083   39.2347   22.6787 C   0  0  0  0  0  0  0  0  0  0  0  0
   23.9851   39.2817   23.5297 C   0  0  0  0  0  0  0  0  0  0  0  0
   23.8911   40.1055   24.6235 C   0  0  0  0  0  0  0  0  0  0  0  0
   24.8202   41.8926   26.0990 C   0  0  0  0  0  0  0  0  0  0  0  0
   29.3393   42.4402   24.4362 C   0  0  0  0  0  0  0  0  0  0  0  0
   28.5318   40.4838   22.9391 C   0  0  0  0  0  0  0  0  0  0  0  0
   26.1931   40.0914   23.0183 C   0  0  0  0  0  0  0  0  0  0  0  0
   26.6226   43.6675   28.4472 O   0  0  0  0  0  0  0  0  0  0  0  0
   25.9123   43.7795   27.4458 C   0  0  0  0  0  0  0  0  0  0  0  0
   25.0408   44.7694   27.2956 O   0  0  0  0  0  0  0  0  0  0  0  0
   25.9852   42.7817   26.3455 C   0  0  1  0  0  0  0  0  0  0  0  0
   23.8190   41.8887   26.8233 O   0  0  0  0  0  0  0  0  0  0  0  0
   27.1512   42.6784   25.5671 C   0  0  0  0  0  0  0  0  0  0  0  0
   28.4370   41.6042   23.9137 C   0  0  0  0  0  0  0  0  0  0  0  0
   28.7000   43.3998   25.7058 S   0  0  0  0  0  0  0  0  0  0  0  0
   26.1062   40.9238   24.1573 C   0  0  0  0  0  0  0  0  0  0  0  0
   24.9467   40.9577   24.9472 C   0  0  0  0  0  0  0  0  0  0  0  0
   22.9475   38.4572   23.2827 F   0  0  0  0  0  0  0  0  0  0  0  0
   27.3263   40.1691   22.1936 N   0  0  0  0  0  0  0  0  0  0  0  0
   27.0711   41.0006   21.0367 C   0  0  0  0  0  0  0  0  0  0  0  0
   26.3270   37.4887   21.2855 C   0  0  0  0  0  0  0  0  0  0  0  0
   24.0112   37.0625   18.6275 O   0  0  0  0  0  0  0  0  0  0  0  0
   25.7742   36.6643   20.1352 C   0  0  2  0  0  0  0  0  0  0  0  0
   26.7619   35.9575   19.2976 N   0  0  0  0  0  0  0  0  0  0  0  0
   27.9298   36.7594   18.8897 C   0  0  0  0  0  0  0  0  0  0  0  0
   27.1456   34.6442   19.8378 C   0  0  0  0  0  0  0  0  0  0  0  0
  1  5  1  0  0  0  0
  2 17  1  0  0  0  0
  3  1  1  0  0  0  0
  4  3  1  0  0  0  0
  4 26  1  1  0  0  0
  5 11  2  0  0  0  0
  5  6  1  0  0  0  0
  6  7  2  0  0  0  0
  7 21  1  0  0  0  0
  8 15  1  0  0  0  0
  8 16  2  0  0  0  0
  9 19  1  0  0  0  0
 10 18  1  0  0  0  0
 11 20  1  0  0  0  0
 13 14  1  0  0  0  0
 13 12  2  0  0  0  0
 15 13  1  1  0  0  0
 17 19  2  0  0  0  0
 17 15  1  0  0  0  0
 18  2  1  0  0  0  0
 18  9  2  0  0  0  0
 20 21  2  0  0  0  0
 20  2  1  0  0  0  0
 21  8  1  0  0  0  0
 22  6  1  0  0  0  0
 23 11  1  0  0  0  0
 23 10  1  0  0  0  0
 24 23  1  0  0  0  0
 25  1  1  0  0  0  0
 27  4  1  0  0  0  0
 27 25  1  0  0  0  0
 27 28  1  6  0  0  0
 29 28  1  0  0  0  0
 30 28  1  0  0  0  0
M  END
>  <CHROM.1>
82.80604611,170.19379618,112.17743714,56.56110572,68.43387762,26.12670694
40.25490055,23.32861032,1.64610674,-0.26602305,-2.30127475

>  <Name>
lig.pdb

>  <RI>
0

>  <Rbt.Current_Directory>
/home/itssahil/PROJECTS/Mol_Feturizer/New_Systems/rnas/6bfb

>  <Rbt.Executable>
rbdock ($Id: //depot/dev/client3/rdock/2013.1/src/exe/rbdock.cxx#4 $)

>  <Rbt.Library>
libRbt.so (2013.1, Build901 2013/11/27)

>  <Rbt.Parameter_File>
/export/apps/rDock/src/rDock_2013.1_src/data/scripts/dock_solv.prm

>  <Rbt.Receptor>
prm/pocket_docking_6.prm

>  <SCORE>
-42.9922

>  <SCORE.INTER>
-37.4184

>  <SCORE.INTER.CONST>
1

>  <SCORE.INTER.POLAR>
-1.83659

>  <SCORE.INTER.ROT>
3

>  <SCORE.INTER.SOLV>
12.6849

>  <SCORE.INTER.VDW>
-28.6519

>  <SCORE.INTER.norm>
-1.24728

>  <SCORE.INTRA>
-5.5738

>  <SCORE.INTRA.DIHEDRAL>
-6.64847

>  <SCORE.INTRA.DIHEDRAL.0>
9.41909

>  <SCORE.INTRA.POLAR>
0

>  <SCORE.INTRA.POLAR.0>
0

>  <SCORE.INTRA.REPUL>
0

>  <SCORE.INTRA.REPUL.0>
0

>  <SCORE.INTRA.SOLV>
-0.181021

>  <SCORE.INTRA.SOLV.lig_0>
-26.2491

>  <SCORE.INTRA.VDW>
-2.15905

>  <SCORE.INTRA.VDW.0>
2.57239

>  <SCORE.INTRA.norm>
-0.185793

>  <SCORE.RESTR>
0

>  <SCORE.RESTR.CAVITY>
0

>  <SCORE.RESTR.norm>
0

>  <SCORE.SYSTEM>
0

>  <SCORE.SYSTEM.CONST>
0

>  <SCORE.SYSTEM.DIHEDRAL>
0

>  <SCORE.SYSTEM.SOLV>
0

>  <SCORE.SYSTEM.norm>
0

>  <SCORE.heavy>
30

>  <SCORE.norm>
-1.43307

>  <RMSD>
1.748

$$$$
lig.pdb
 OpenBabel11021811523D
libRbt.so/2013.1/901 2013/11/27
 30 34  0  0  0  0  0  0  0  0999 V2000
   24.5280   38.4298   21.6769 N   0  0  0  0  0  0  0  0  0  0  0  0
   26.6779   42.0148   24.3288 N   0  0  0  0  0  0  0  0  0  0  0  0
   25.7666   37.7985   21.2112 C   0  0  0  0  0  0  0  0  0  0  0  0
   25.2453   36.8403   20.1508 C   0  0  2  0  0  0  0  0  0  0  0  0
   24.5419   39.3190   22.8330 C   0  0  0  0  0  0  0  0  0  0  0  0
   23.5360   39.3304   23.8209 C   0  0  0  0  0  0  0  0  0  0  0  0
   23.5314   40.1852   24.8947 C   0  0  0  0  0  0  0  0  0  0  0  0
   24.5282   42.0742   26.1878 C   0  0  0  0  0  0  0  0  0  0  0  0
   28.7549   42.8252   23.9388 C   0  0  0  0  0  0  0  0  0  0  0  0
   27.8862   40.7736   22.6131 C   0  0  0  0  0  0  0  0  0  0  0  0
   25.6058   40.2487   23.0056 C   0  0  0  0  0  0  0  0  0  0  0  0
   24.7792   44.9247   27.3864 O   0  0  0  0  0  0  0  0  0  0  0  0
   25.6637   44.0676   27.3294 C   0  0  0  0  0  0  0  0  0  0  0  0
   26.6689   44.0203   28.1951 O   0  0  0  0  0  0  0  0  0  0  0  0
   25.6575   43.0377   26.2567 C   0  0  1  0  0  0  0  0  0  0  0  0
   23.6299   42.0375   27.0356 O   0  0  0  0  0  0  0  0  0  0  0  0
   26.7187   42.9752   25.3369 C   0  0  0  0  0  0  0  0  0  0  0  0
   27.8470   41.9202   23.5608 C   0  0  0  0  0  0  0  0  0  0  0  0
   28.2245   43.7900   25.2538 S   0  0  0  0  0  0  0  0  0  0  0  0
   25.6134   41.1142   24.1230 C   0  0  0  0  0  0  0  0  0  0  0  0
   24.5645   41.1083   25.0554 C   0  0  0  0  0  0  0  0  0  0  0  0
   22.5286   38.4387   23.7331 F   0  0  0  0  0  0  0  0  0  0  0  0
   26.6172   40.3632   22.0391 N   0  0  0  0  0  0  0  0  0  0  0  0
   26.1651   41.1372   20.9027 C   0  0  0  0  0  0  0  0  0  0  0  0
   23.3607   37.6161   21.3566 C   0  0  0  0  0  0  0  0  0  0  0  0
   25.8486   37.0840   18.8794 O   0  0  0  0  0  0  0  0  0  0  0  0
   23.7622   37.1518   19.9668 C   0  0  2  0  0  0  0  0  0  0  0  0
   23.0941   35.9381   19.4596 N   0  0  0  0  0  0  0  0  0  0  0  0
   21.6250   35.9309   19.5818 C   0  0  0  0  0  0  0  0  0  0  0  0
   23.5461   35.5465   18.1157 C   0  0  0  0  0  0  0  0  0  0  0  0
  1  5  1  0  0  0  0
  2 17  1  0  0  0  0
  3  1  1  0  0  0  0
  4  3  1  0  0  0  0
  4 26  1  6  0  0  0
  5 11  2  0  0  0  0
  5  6  1  0  0  0  0
  6  7  2  0  0  0  0
  7 21  1  0  0  0  0
  8 15  1  0  0  0  0
  8 16  2  0  0  0  0
  9 19  1  0  0  0  0
 10 18  1  0  0  0  0
 11 20  1  0  0  0  0
 13 14  1  0  0  0  0
 13 12  2  0  0  0  0
 15 13  1  1  0  0  0
 17 19  2  0  0  0  0
 17 15  1  0  0  0  0
 18  2  1  0  0  0  0
 18  9  2  0  0  0  0
 20 21  2  0  0  0  0
 20  2  1  0  0  0  0
 21  8  1  0  0  0  0
 22  6  1  0  0  0  0
 23 11  1  0  0  0  0
 23 10  1  0  0  0  0
 24 23  1  0  0  0  0
 25  1  1  0  0  0  0
 27  4  1  0  0  0  0
 27 25  1  0  0  0  0
 27 28  1  1  0  0  0
 29 28  1  0  0  0  0
 30 28  1  0  0  0  0
M  END
>  <CHROM.1>
-139.80124220,0.51715216,-63.00703167,64.02094279,163.49288363,25.29892603
40.36683438,23.32529088,1.87013669,-0.45617044,-2.24253425

>  <Name>
lig.pdb

>  <RI>
0

>  <Rbt.Current_Directory>
/home/itssahil/PROJECTS/Mol_Feturizer/New_Systems/rnas/6bfb

>  <Rbt.Executable>
rbdock ($Id: //depot/dev/client3/rdock/2013.1/src/exe/rbdock.cxx#4 $)

>  <Rbt.Library>
libRbt.so (2013.1, Build901 2013/11/27)

>  <Rbt.Parameter_File>
/export/apps/rDock/src/rDock_2013.1_src/data/scripts/dock_solv.prm

>  <Rbt.Receptor>
prm/pocket_docking_7.prm

>  <SCORE>
-39.7008

>  <SCORE.INTER>
-35.9128

>  <SCORE.INTER.CONST>
1

>  <SCORE.INTER.POLAR>
0

>  <SCORE.INTER.ROT>
3

>  <SCORE.INTER.SOLV>
13.0468

>  <SCORE.INTER.VDW>
-33.8908

>  <SCORE.INTER.norm>
-1.19709

>  <SCORE.INTRA>
-3.78793

>  <SCORE.INTRA.DIHEDRAL>
-7.4835

>  <SCORE.INTRA.DIHEDRAL.0>
9.41909

>  <SCORE.INTRA.POLAR>
0

>  <SCORE.INTRA.POLAR.0>
0

>  <SCORE.INTRA.REPUL>
0

>  <SCORE.INTRA.REPUL.0>
0

>  <SCORE.INTRA.SOLV>
-0.0690019

>  <SCORE.INTRA.SOLV.lig_0>
-26.2491

>  <SCORE.INTRA.VDW>
-0.0116798

>  <SCORE.INTRA.VDW.0>
2.57239

>  <SCORE.INTRA.norm>
-0.126264

>  <SCORE.RESTR>
0

>  <SCORE.RESTR.CAVITY>
0

>  <SCORE.RESTR.norm>
0

>  <SCORE.SYSTEM>
0

>  <SCORE.SYSTEM.CONST>
0

>  <SCORE.SYSTEM.DIHEDRAL>
0

>  <SCORE.SYSTEM.SOLV>
0

>  <SCORE.SYSTEM.norm>
0

>  <SCORE.heavy>
30

>  <SCORE.norm>
-1.32336

>  <RMSD>
1.751

$$$$
lig.pdb
 OpenBabel11021811523D
libRbt.so/2013.1/901 2013/11/27
 30 34  0  0  0  0  0  0  0  0999 V2000
   25.9171   36.7138   20.0972 N   0  0  0  0  0  0  0  0  0  0  0  0
   26.5225   40.4274   23.3144 N   0  0  0  0  0  0  0  0  0  0  0  0
   26.5283   35.4365   20.4773 C   0  0  0  0  0  0  0  0  0  0  0  0
   26.7459   34.7823   19.1212 C   0  0  2  0  0  0  0  0  0  0  0  0
   25.3830   37.6093   21.1171 C   0  0  0  0  0  0  0  0  0  0  0  0
   24.0473   37.5715   21.5669 C   0  0  0  0  0  0  0  0  0  0  0  0
   23.5341   38.4312   22.5057 C   0  0  0  0  0  0  0  0  0  0  0  0
   23.7765   40.3798   24.0478 C   0  0  0  0  0  0  0  0  0  0  0  0
   28.5207   41.3482   23.8450 C   0  0  0  0  0  0  0  0  0  0  0  0
   28.4153   39.2441   22.3341 C   0  0  0  0  0  0  0  0  0  0  0  0
   26.2199   38.5971   21.7087 C   0  0  0  0  0  0  0  0  0  0  0  0
   24.4083   42.3484   26.7237 O   0  0  0  0  0  0  0  0  0  0  0  0
   24.2046   42.4394   25.5111 C   0  0  0  0  0  0  0  0  0  0  0  0
   23.5144   43.4391   24.9761 O   0  0  0  0  0  0  0  0  0  0  0  0
   24.7158   41.4043   24.5737 C   0  0  1  0  0  0  0  0  0  0  0  0
   22.6009   40.2990   24.4200 O   0  0  0  0  0  0  0  0  0  0  0  0
   26.0738   41.3945   24.2107 C   0  0  0  0  0  0  0  0  0  0  0  0
   27.9126   40.3925   23.1358 C   0  0  0  0  0  0  0  0  0  0  0  0
   27.4247   42.2903   24.7683 S   0  0  0  0  0  0  0  0  0  0  0  0
   25.6982   39.4684   22.6917 C   0  0  0  0  0  0  0  0  0  0  0  0
   24.3489   39.4106   23.0734 C   0  0  0  0  0  0  0  0  0  0  0  0
   23.2224   36.6253   21.0751 F   0  0  0  0  0  0  0  0  0  0  0  0
   27.5453   38.7611   21.2768 N   0  0  0  0  0  0  0  0  0  0  0  0
   27.5993   39.5023   20.0348 C   0  0  0  0  0  0  0  0  0  0  0  0
   25.3378   36.6517   18.7600 C   0  0  0  0  0  0  0  0  0  0  0  0
   28.1189   34.4490   18.9124 O   0  0  0  0  0  0  0  0  0  0  0  0
   26.4151   35.8350   18.0664 C   0  0  2  0  0  0  0  0  0  0  0  0
   26.0184   35.1395   16.8273 N   0  0  0  0  0  0  0  0  0  0  0  0
   24.6926   34.4958   16.8639 C   0  0  0  0  0  0  0  0  0  0  0  0
   26.2120   35.9544   15.6180 C   0  0  0  0  0  0  0  0  0  0  0  0
  1  5  1  0  0  0  0
  2 17  1  0  0  0  0
  3  1  1  0  0  0  0
  4  3  1  0  0  0  0
  4 26  1  1  0  0  0
  5 11  2  0  0  0  0
  5  6  1  0  0  0  0
  6  7  2  0  0  0  0
  7 21  1  0  0  0  0
  8 15  1  0  0  0  0
  8 16  2  0  0  0  0
  9 19  1  0  0  0  0
 10 18  1  0  0  0  0
 11 20  1  0  0  0  0
 13 14  1  0  0  0  0
 13 12  2  0  0  0  0
 15 13  1  1  0  0  0
 17 19  2  0  0  0  0
 17 15  1  0  0  0  0
 18  2  1  0  0  0  0
 18  9  2  0  0  0  0
 20 21  2  0  0  0  0
 20  2  1  0  0  0  0
 21  8  1  0  0  0  0
 22  6  1  0  0  0  0
 23 11  1  0  0  0  0
 23 10  1  0  0  0  0
 24 23  1  0  0  0  0
 25  1  1  0  0  0  0
 27  4  1  0  0  0  0
 27 25  1  0  0  0  0
 27 28  1  6  0  0  0
 29 28  1  0  0  0  0
 30 28  1  0  0  0  0
M  END
>  <CHROM.1>
-90.68746015,175.03252340,101.75415966,64.43625700,72.57048117,25.76397454
38.79414319,21.79673686,1.48223818,-0.16889823,-2.34598931

>  <Name>
lig.pdb

>  <RI>
0

>  <Rbt.Current_Directory>
/home/itssahil/PROJECTS/Mol_Feturizer/New_Systems/rnas/6bfb

>  <Rbt.Executable>
rbdock ($Id: //depot/dev/client3/rdock/2013.1/src/exe/rbdock.cxx#4 $)

>  <Rbt.Library>
libRbt.so (2013.1, Build901 2013/11/27)

>  <Rbt.Parameter_File>
/export/apps/rDock/src/rDock_2013.1_src/data/scripts/dock_solv.prm

>  <Rbt.Receptor>
prm/pocket_docking_7.prm

>  <SCORE>
-35.0829

>  <SCORE.INTER>
-29.3422

>  <SCORE.INTER.CONST>
1

>  <SCORE.INTER.POLAR>
-0.627222

>  <SCORE.INTER.ROT>
3

>  <SCORE.INTER.SOLV>
11.2361

>  <SCORE.INTER.VDW>
-26.8161

>  <SCORE.INTER.norm>
-0.978073

>  <SCORE.INTRA>
-5.74075

>  <SCORE.INTRA.DIHEDRAL>
-6.96036

>  <SCORE.INTRA.DIHEDRAL.0>
9.41909

>  <SCORE.INTRA.POLAR>
0

>  <SCORE.INTRA.POLAR.0>
0

>  <SCORE.INTRA.REPUL>
0.0927789

>  <SCORE.INTRA.REPUL.0>
0

>  <SCORE.INTRA.SOLV>
-0.37532

>  <SCORE.INTRA.SOLV.lig_0>
-26.2491

>  <SCORE.INTRA.VDW>
-2.5368

>  <SCORE.INTRA.VDW.0>
2.57239

>  <SCORE.INTRA.norm>
-0.191358

>  <SCORE.RESTR>
0

>  <SCORE.RESTR.CAVITY>
0

>  <SCORE.RESTR.norm>
0

>  <SCORE.SYSTEM>
0

>  <SCORE.SYSTEM.CONST>
0

>  <SCORE.SYSTEM.DIHEDRAL>
0

>  <SCORE.SYSTEM.SOLV>
0

>  <SCORE.SYSTEM.norm>
0

>  <SCORE.heavy>
30

>  <SCORE.norm>
-1.16943

>  <RMSD>
1.752

$$$$
lig.pdb
 OpenBabel11021811523D
libRbt.so/2013.1/901 2013/11/27
 30 34  0  0  0  0  0  0  0  0999 V2000
   24.5440   38.5440   21.9246 N   0  0  0  0  0  0  0  0  0  0  0  0
   26.5727   42.0630   24.7546 N   0  0  0  0  0  0  0  0  0  0  0  0
   25.8097   37.9340   21.5061 C   0  0  0  0  0  0  0  0  0  0  0  0
   25.3474   36.9813   20.4139 C   0  0  2  0  0  0  0  0  0  0  0  0
   24.4962   39.4201   23.0898 C   0  0  0  0  0  0  0  0  0  0  0  0
   23.4279   39.4377   24.0097 C   0  0  0  0  0  0  0  0  0  0  0  0
   23.3666   40.2807   25.0911 C   0  0  0  0  0  0  0  0  0  0  0  0
   24.3066   42.1383   26.4694 C   0  0  0  0  0  0  0  0  0  0  0  0
   28.6835   42.8424   24.5113 C   0  0  0  0  0  0  0  0  0  0  0  0
   27.8708   40.8204   23.1069 C   0  0  0  0  0  0  0  0  0  0  0  0
   25.5614   40.3298   23.3429 C   0  0  0  0  0  0  0  0  0  0  0  0
   25.9936   43.9179   28.7702 O   0  0  0  0  0  0  0  0  0  0  0  0
   25.3968   44.0996   27.7069 C   0  0  0  0  0  0  0  0  0  0  0  0
   24.6727   45.1870   27.4713 O   0  0  0  0  0  0  0  0  0  0  0  0
   25.4444   43.0818   26.6237 C   0  0  1  0  0  0  0  0  0  0  0  0
   23.3542   42.1075   27.2560 O   0  0  0  0  0  0  0  0  0  0  0  0
   26.5626   43.0114   25.7747 C   0  0  0  0  0  0  0  0  0  0  0  0
   27.7880   41.9570   24.0637 C   0  0  0  0  0  0  0  0  0  0  0  0
   28.0836   43.8016   25.8002 S   0  0  0  0  0  0  0  0  0  0  0  0
   25.5095   41.1827   24.4687 C   0  0  0  0  0  0  0  0  0  0  0  0
   24.4017   41.1844   25.3302 C   0  0  0  0  0  0  0  0  0  0  0  0
   22.4143   38.5642   23.8455 F   0  0  0  0  0  0  0  0  0  0  0  0
   26.6359   40.4378   22.4461 N   0  0  0  0  0  0  0  0  0  0  0  0
   26.2719   41.2317   21.2920 C   0  0  0  0  0  0  0  0  0  0  0  0
   23.4024   37.7191   21.5454 C   0  0  0  0  0  0  0  0  0  0  0  0
   26.0016   37.2471   19.1724 O   0  0  0  0  0  0  0  0  0  0  0  0
   23.8696   37.2758   20.1693 C   0  0  2  0  0  0  0  0  0  0  0  0
   23.2402   36.0595   19.6207 N   0  0  0  0  0  0  0  0  0  0  0  0
   21.7692   36.0174   19.7096 C   0  0  0  0  0  0  0  0  0  0  0  0
   23.7303   35.7082   18.2790 C   0  0  0  0  0  0  0  0  0  0  0  0
  1  5  1  0  0  0  0
  2 17  1  0  0  0  0
  3  1  1  0  0  0  0
  4  3  1  0  0  0  0
  4 26  1  6  0  0  0
  5 11  2  0  0  0  0
  5  6  1  0  0  0  0
  6  7  2  0  0  0  0
  7 21  1  0  0  0  0
  8 15  1  0  0  0  0
  8 16  2  0  0  0  0
  9 19  1  0  0  0  0
 10 18  1  0  0  0  0
 11 20  1  0  0  0  0
 13 14  1  0  0  0  0
 13 12  2  0  0  0  0
 15 13  1  1  0  0  0
 17 19  2  0  0  0  0
 17 15  1  0  0  0  0
 18  2  1  0  0  0  0
 18  9  2  0  0  0  0
 20 21  2  0  0  0  0
 20  2  1  0  0  0  0
 21  8  1  0  0  0  0
 22  6  1  0  0  0  0
 23 11  1  0  0  0  0
 23 10  1  0  0  0  0
 24 23  1  0  0  0  0
 25  1  1  0  0  0  0
 27  4  1  0  0  0  0
 27 25  1  0  0  0  0
 27 28  1  1  0  0  0
 29 28  1  0  0  0  0
 30 28  1  0  0  0  0
M  END
>  <CHROM.1>
-141.93055137,167.27638587,99.04587511,-60.46898099,162.03678596,25.22278816
40.45400824,23.63496975,1.82283945,-0.41378102,-2.25411434

>  <Name>
lig.pdb

>  <RI>
0

>  <Rbt.Current_Directory>
/home/itssahil/PROJECTS/Mol_Feturizer/New_Systems/rnas/6bfb

>  <Rbt.Executable>
rbdock ($Id: //depot/dev/client3/rdock/2013.1/src/exe/rbdock.cxx#4 $)

>  <Rbt.Library>
libRbt.so (2013.1, Build901 2013/11/27)

>  <Rbt.Parameter_File>
/export/apps/rDock/src/rDock_2013.1_src/data/scripts/dock_solv.prm

>  <Rbt.Receptor>
prm/blind_docking_60.prm

>  <SCORE>
-40.6385

>  <SCORE.INTER>
-38.3353

>  <SCORE.INTER.CONST>
1

>  <SCORE.INTER.POLAR>
-0.701881

>  <SCORE.INTER.ROT>
3

>  <SCORE.INTER.SOLV>
13.4441

>  <SCORE.INTER.VDW>
-33.2986

>  <SCORE.INTER.norm>
-1.27784

>  <SCORE.INTRA>
-2.30323

>  <SCORE.INTRA.DIHEDRAL>
-6.29926

>  <SCORE.INTRA.DIHEDRAL.0>
9.41909

>  <SCORE.INTRA.POLAR>
0

>  <SCORE.INTRA.POLAR.0>
0

>  <SCORE.INTRA.REPUL>
0

>  <SCORE.INTRA.REPUL.0>
0

>  <SCORE.INTRA.SOLV>
-0.0848498

>  <SCORE.INTRA.SOLV.lig_0>
-26.2491

>  <SCORE.INTRA.VDW>
0.888821

>  <SCORE.INTRA.VDW.0>
2.57239

>  <SCORE.INTRA.norm>
-0.0767745

>  <SCORE.RESTR>
0

>  <SCORE.RESTR.CAVITY>
0

>  <SCORE.RESTR.norm>
0

>  <SCORE.SYSTEM>
0

>  <SCORE.SYSTEM.CONST>
0

>  <SCORE.SYSTEM.DIHEDRAL>
0

>  <SCORE.SYSTEM.SOLV>
0

>  <SCORE.SYSTEM.norm>
0

>  <SCORE.heavy>
30

>  <SCORE.norm>
-1.35462

>  <RMSD>
1.754

$$$$
lig.pdb
 OpenBabel11021811523D
libRbt.so/2013.1/901 2013/11/27
 30 34  0  0  0  0  0  0  0  0999 V2000
   25.1374   38.5701   21.6308 N   0  0  0  0  0  0  0  0  0  0  0  0
   26.7373   42.1064   24.7036 N   0  0  0  0  0  0  0  0  0  0  0  0
   24.5667   38.9610   20.3381 C   0  0  0  0  0  0  0  0  0  0  0  0
   25.1743   37.9237   19.4057 C   0  0  2  0  0  0  0  0  0  0  0  0
   24.9465   39.4114   22.8069 C   0  0  0  0  0  0  0  0  0  0  0  0
   23.8043   39.3525   23.6314 C   0  0  0  0  0  0  0  0  0  0  0  0
   23.6086   40.1622   24.7222 C   0  0  0  0  0  0  0  0  0  0  0  0
   24.3328   42.0257   26.2178 C   0  0  0  0  0  0  0  0  0  0  0  0
   28.8190   42.9936   24.6607 C   0  0  0  0  0  0  0  0  0  0  0  0
   28.2321   40.9729   23.1464 C   0  0  0  0  0  0  0  0  0  0  0  0
   25.9388   40.3646   23.1713 C   0  0  0  0  0  0  0  0  0  0  0  0
   25.6838   43.7988   28.7094 O   0  0  0  0  0  0  0  0  0  0  0  0
   25.2131   44.0039   27.5885 C   0  0  0  0  0  0  0  0  0  0  0  0
   24.5041   45.0883   27.2993 O   0  0  0  0  0  0  0  0  0  0  0  0
   25.4041   43.0189   26.4908 C   0  0  1  0  0  0  0  0  0  0  0  0
   23.3197   41.9278   26.9185 O   0  0  0  0  0  0  0  0  0  0  0  0
   26.5925   43.0256   25.7400 C   0  0  0  0  0  0  0  0  0  0  0  0
   28.0107   42.0781   24.1178 C   0  0  0  0  0  0  0  0  0  0  0  0
   28.0638   43.8877   25.9144 S   0  0  0  0  0  0  0  0  0  0  0  0
   25.7483   41.1836   24.3073 C   0  0  0  0  0  0  0  0  0  0  0  0
   24.5726   41.1084   25.0700 C   0  0  0  0  0  0  0  0  0  0  0  0
   22.8538   38.4354   23.3608 F   0  0  0  0  0  0  0  0  0  0  0  0
   27.0787   40.5485   22.3732 N   0  0  0  0  0  0  0  0  0  0  0  0
   26.7744   41.3545   21.2101 C   0  0  0  0  0  0  0  0  0  0  0  0
   26.3384   37.7601   21.4614 C   0  0  0  0  0  0  0  0  0  0  0  0
   24.1672   37.1873   18.7105 O   0  0  0  0  0  0  0  0  0  0  0  0
   25.8910   36.9048   20.2880 C   0  0  2  0  0  0  0  0  0  0  0  0
   26.9583   36.2717   19.4901 N   0  0  0  0  0  0  0  0  0  0  0  0
   27.9934   35.5683   20.2694 C   0  0  0  0  0  0  0  0  0  0  0  0
   26.4448   35.4573   18.3779 C   0  0  0  0  0  0  0  0  0  0  0  0
  1  5  1  0  0  0  0
  2 17  1  0  0  0  0
  3  1  1  0  0  0  0
  4  3  1  0  0  0  0
  4 26  1  1  0  0  0
  5 11  2  0  0  0  0
  5  6  1  0  0  0  0
  6  7  2  0  0  0  0
  7 21  1  0  0  0  0
  8 15  1  0  0  0  0
  8 16  2  0  0  0  0
  9 19  1  0  0  0  0
 10 18  1  0  0  0  0
 11 20  1  0  0  0  0
 13 14  1  0  0  0  0
 13 12  2  0  0  0  0
 15 13  1  1  0  0  0
 17 19  2  0  0  0  0
 17 15  1  0  0  0  0
 18  2  1  0  0  0  0
 18  9  2  0  0  0  0
 20 21  2  0  0  0  0
 20  2  1  0  0  0  0
 21  8  1  0  0  0  0
 22  6  1  0  0  0  0
 23 11  1  0  0  0  0
 23 10  1  0  0  0  0
 24 23  1  0  0  0  0
 25  1  1  0  0  0  0
 27  4  1  0  0  0  0
 27 25  1  0  0  0  0
 27 28  1  6  0  0  0
 29 28  1  0  0  0  0
 30 28  1  0  0  0  0
M  END
>  <CHROM.1>
84.50648848,168.52370708,96.31062823,62.29656227,162.67290182,25.81482017
40.47957397,23.46311431,1.58089846,-0.31301709,-2.32742562

>  <Name>
lig.pdb

>  <RI>
0

>  <Rbt.Current_Directory>
/home/itssahil/PROJECTS/Mol_Feturizer/New_Systems/rnas/6bfb

>  <Rbt.Executable>
rbdock ($Id: //depot/dev/client3/rdock/2013.1/src/exe/rbdock.cxx#4 $)

>  <Rbt.Library>
libRbt.so (2013.1, Build901 2013/11/27)

>  <Rbt.Parameter_File>
/export/apps/rDock/src/rDock_2013.1_src/data/scripts/dock_solv.prm

>  <Rbt.Receptor>
prm/pocket_docking_3.prm

>  <SCORE>
-42.9526

>  <SCORE.INTER>
-37.9099

>  <SCORE.INTER.CONST>
1

>  <SCORE.INTER.POLAR>
-1.90962

>  <SCORE.INTER.ROT>
3

>  <SCORE.INTER.SOLV>
12.0589

>  <SCORE.INTER.VDW>
-28.5275

>  <SCORE.INTER.norm>
-1.26366

>  <SCORE.INTRA>
-5.04276

>  <SCORE.INTRA.DIHEDRAL>
-6.50719

>  <SCORE.INTRA.DIHEDRAL.0>
9.41909

>  <SCORE.INTRA.POLAR>
0

>  <SCORE.INTRA.POLAR.0>
0

>  <SCORE.INTRA.REPUL>
0

>  <SCORE.INTRA.REPUL.0>
0

>  <SCORE.INTRA.SOLV>
-0.0865155

>  <SCORE.INTRA.SOLV.lig_0>
-26.2491

>  <SCORE.INTRA.VDW>
-1.74591

>  <SCORE.INTRA.VDW.0>
2.57239

>  <SCORE.INTRA.norm>
-0.168092

>  <SCORE.RESTR>
0

>  <SCORE.RESTR.CAVITY>
0

>  <SCORE.RESTR.norm>
0

>  <SCORE.SYSTEM>
0

>  <SCORE.SYSTEM.CONST>
0

>  <SCORE.SYSTEM.DIHEDRAL>
0

>  <SCORE.SYSTEM.SOLV>
0

>  <SCORE.SYSTEM.norm>
0

>  <SCORE.heavy>
30

>  <SCORE.norm>
-1.43175

>  <RMSD>
1.755

$$$$
lig.pdb
 OpenBabel11021811523D
libRbt.so/2013.1/901 2013/11/27
 30 34  0  0  0  0  0  0  0  0999 V2000
   24.6691   38.2968   21.5372 N   0  0  0  0  0  0  0  0  0  0  0  0
   27.0295   41.8417   24.0610 N   0  0  0  0  0  0  0  0  0  0  0  0
   25.8635   37.5818   21.0772 C   0  0  0  0  0  0  0  0  0  0  0  0
   25.2763   36.6323   20.0437 C   0  0  2  0  0  0  0  0  0  0  0  0
   24.7465   39.2100   22.6720 C   0  0  0  0  0  0  0  0  0  0  0  0
   23.7633   39.2877   23.6796 C   0  0  0  0  0  0  0  0  0  0  0  0
   23.8190   40.1655   24.7332 C   0  0  0  0  0  0  0  0  0  0  0  0
   24.9247   42.0371   25.9615 C   0  0  0  0  0  0  0  0  0  0  0  0
   29.1310   42.5509   23.6100 C   0  0  0  0  0  0  0  0  0  0  0  0
   28.1455   40.5106   22.3501 C   0  0  0  0  0  0  0  0  0  0  0  0
   25.8533   40.0956   22.8012 C   0  0  0  0  0  0  0  0  0  0  0  0
   25.1788   44.6769   27.3225 O   0  0  0  0  0  0  0  0  0  0  0  0
   26.1702   44.0034   27.0333 C   0  0  0  0  0  0  0  0  0  0  0  0
   27.3495   44.1825   27.6156 O   0  0  0  0  0  0  0  0  0  0  0  0
   26.0961   42.9512   25.9851 C   0  0  1  0  0  0  0  0  0  0  0  0
   24.0440   42.0589   26.8281 O   0  0  0  0  0  0  0  0  0  0  0  0
   27.1336   42.8215   25.0455 C   0  0  0  0  0  0  0  0  0  0  0  0
   28.1767   41.6786   23.2716 C   0  0  0  0  0  0  0  0  0  0  0  0
   28.6714   43.5671   24.9128 S   0  0  0  0  0  0  0  0  0  0  0  0
   25.9226   40.9845   23.8978 C   0  0  0  0  0  0  0  0  0  0  0  0
   24.8946   41.0455   24.8513 C   0  0  0  0  0  0  0  0  0  0  0  0
   22.7165   38.4395   23.6331 F   0  0  0  0  0  0  0  0  0  0  0  0
   26.8479   40.1438   21.8118 N   0  0  0  0  0  0  0  0  0  0  0  0
   26.4057   40.9115   20.6673 C   0  0  0  0  0  0  0  0  0  0  0  0
   23.4524   37.5474   21.2451 C   0  0  0  0  0  0  0  0  0  0  0  0
   25.8817   36.8099   18.7623 O   0  0  0  0  0  0  0  0  0  0  0  0
   23.8130   37.0278   19.8635 C   0  0  2  0  0  0  0  0  0  0  0  0
   23.0690   35.8450   19.3902 N   0  0  0  0  0  0  0  0  0  0  0  0
   21.6034   35.9274   19.5268 C   0  0  0  0  0  0  0  0  0  0  0  0
   23.4823   35.3982   18.0511 C   0  0  0  0  0  0  0  0  0  0  0  0
  1  5  1  0  0  0  0
  2 17  1  0  0  0  0
  3  1  1  0  0  0  0
  4  3  1  0  0  0  0
  4 26  1  6  0  0  0
  5 11  2  0  0  0  0
  5  6  1  0  0  0  0
  6  7  2  0  0  0  0
  7 21  1  0  0  0  0
  8 15  1  0  0  0  0
  8 16  2  0  0  0  0
  9 19  1  0  0  0  0
 10 18  1  0  0  0  0
 11 20  1  0  0  0  0
 13 14  1  0  0  0  0
 13 12  2  0  0  0  0
 15 13  1  1  0  0  0
 17 19  2  0  0  0  0
 17 15  1  0  0  0  0
 18  2  1  0  0  0  0
 18  9  2  0  0  0  0
 20 21  2  0  0  0  0
 20  2  1  0  0  0  0
 21  8  1  0  0  0  0
 22  6  1  0  0  0  0
 23 11  1  0  0  0  0
 23 10  1  0  0  0  0
 24 23  1  0  0  0  0
 25  1  1  0  0  0  0
 27  4  1  0  0  0  0
 27 25  1  0  0  0  0
 27 28  1  1  0  0  0
 29 28  1  0  0  0  0
 30 28  1  0  0  0  0
M  END
>  <CHROM.1>
-138.62930293,-0.46969150,-43.72591305,63.40108402,163.34474176,25.55850476
40.23777973,23.12110795,1.91917306,-0.42976525,-2.24587598

>  <Name>
lig.pdb

>  <RI>
0

>  <Rbt.Current_Directory>
/home/itssahil/PROJECTS/Mol_Feturizer/New_Systems/rnas/6bfb

>  <Rbt.Executable>
rbdock ($Id: //depot/dev/client3/rdock/2013.1/src/exe/rbdock.cxx#4 $)

>  <Rbt.Library>
libRbt.so (2013.1, Build901 2013/11/27)

>  <Rbt.Parameter_File>
/export/apps/rDock/src/rDock_2013.1_src/data/scripts/dock_solv.prm

>  <Rbt.Receptor>
prm/pocket_docking_5.prm

>  <SCORE>
-39.6541

>  <SCORE.INTER>
-35.9776

>  <SCORE.INTER.CONST>
1

>  <SCORE.INTER.POLAR>
0

>  <SCORE.INTER.ROT>
3

>  <SCORE.INTER.SOLV>
13.2477

>  <SCORE.INTER.VDW>
-34.001

>  <SCORE.INTER.norm>
-1.19925

>  <SCORE.INTRA>
-3.67646

>  <SCORE.INTRA.DIHEDRAL>
-7.48488

>  <SCORE.INTRA.DIHEDRAL.0>
9.41909

>  <SCORE.INTRA.POLAR>
0

>  <SCORE.INTRA.POLAR.0>
0

>  <SCORE.INTRA.REPUL>
0

>  <SCORE.INTRA.REPUL.0>
0

>  <SCORE.INTRA.SOLV>
-0.0482387

>  <SCORE.INTRA.SOLV.lig_0>
-26.2491

>  <SCORE.INTRA.VDW>
0.0901025

>  <SCORE.INTRA.VDW.0>
2.57239

>  <SCORE.INTRA.norm>
-0.122549

>  <SCORE.RESTR>
0

>  <SCORE.RESTR.CAVITY>
0

>  <SCORE.RESTR.norm>
0

>  <SCORE.SYSTEM>
0

>  <SCORE.SYSTEM.CONST>
0

>  <SCORE.SYSTEM.DIHEDRAL>
0

>  <SCORE.SYSTEM.SOLV>
0

>  <SCORE.SYSTEM.norm>
0

>  <SCORE.heavy>
30

>  <SCORE.norm>
-1.3218

>  <RMSD>
1.756

$$$$
lig.pdb
 OpenBabel11021811523D
libRbt.so/2013.1/901 2013/11/27
 30 34  0  0  0  0  0  0  0  0999 V2000
   25.3488   36.9124   20.1177 N   0  0  0  0  0  0  0  0  0  0  0  0
   26.3169   40.0936   23.7851 N   0  0  0  0  0  0  0  0  0  0  0  0
   26.0950   35.6672   20.3229 C   0  0  0  0  0  0  0  0  0  0  0  0
   26.1585   35.1084   18.9094 C   0  0  2  0  0  0  0  0  0  0  0  0
   24.9076   37.7056   21.2595 C   0  0  0  0  0  0  0  0  0  0  0  0
   23.5788   37.7233   21.7306 C   0  0  0  0  0  0  0  0  0  0  0  0
   23.1544   38.4902   22.7868 C   0  0  0  0  0  0  0  0  0  0  0  0
   23.5858   40.1856   24.5683 C   0  0  0  0  0  0  0  0  0  0  0  0
   28.3948   40.7584   24.3877 C   0  0  0  0  0  0  0  0  0  0  0  0
   28.0863   38.8935   22.6134 C   0  0  0  0  0  0  0  0  0  0  0  0
   25.8353   38.5288   21.9579 C   0  0  0  0  0  0  0  0  0  0  0  0
   23.4569   41.6198   27.1863 O   0  0  0  0  0  0  0  0  0  0  0  0
   24.2112   41.9851   26.2821 C   0  0  0  0  0  0  0  0  0  0  0  0
   24.6860   43.2222   26.2045 O   0  0  0  0  0  0  0  0  0  0  0  0
   24.6181   41.0450   25.2041 C   0  0  1  0  0  0  0  0  0  0  0  0
   22.4119   40.1575   24.9532 O   0  0  0  0  0  0  0  0  0  0  0  0
   25.9658   40.9667   24.8121 C   0  0  0  0  0  0  0  0  0  0  0  0
   27.6964   39.9629   23.5719 C   0  0  0  0  0  0  0  0  0  0  0  0
   27.3970   41.6592   25.4528 S   0  0  0  0  0  0  0  0  0  0  0  0
   25.4039   39.3019   23.0596 C   0  0  0  0  0  0  0  0  0  0  0  0
   24.0591   39.3102   23.4609 C   0  0  0  0  0  0  0  0  0  0  0  0
   22.6678   36.9267   21.1365 F   0  0  0  0  0  0  0  0  0  0  0  0
   27.1653   38.6341   21.5214 N   0  0  0  0  0  0  0  0  0  0  0  0
   27.2711   39.5280   20.3880 C   0  0  0  0  0  0  0  0  0  0  0  0
   24.5877   36.8802   18.8738 C   0  0  0  0  0  0  0  0  0  0  0  0
   27.5065   34.8947   18.4884 O   0  0  0  0  0  0  0  0  0  0  0  0
   25.6069   36.1895   17.9834 C   0  0  2  0  0  0  0  0  0  0  0  0
   25.0838   35.5354   16.7689 N   0  0  0  0  0  0  0  0  0  0  0  0
   26.1071   35.0540   15.8231 C   0  0  0  0  0  0  0  0  0  0  0  0
   24.0614   34.5170   17.0538 C   0  0  0  0  0  0  0  0  0  0  0  0
  1  5  1  0  0  0  0
  2 17  1  0  0  0  0
  3  1  1  0  0  0  0
  4  3  1  0  0  0  0
  4 26  1  6  0  0  0
  5 11  2  0  0  0  0
  5  6  1  0  0  0  0
  6  7  2  0  0  0  0
  7 21  1  0  0  0  0
  8 15  1  0  0  0  0
  8 16  2  0  0  0  0
  9 19  1  0  0  0  0
 10 18  1  0  0  0  0
 11 20  1  0  0  0  0
 13 14  1  0  0  0  0
 13 12  2  0  0  0  0
 15 13  1  1  0  0  0
 17 19  2  0  0  0  0
 17 15  1  0  0  0  0
 18  2  1  0  0  0  0
 18  9  2  0  0  0  0
 20 21  2  0  0  0  0
 20  2  1  0  0  0  0
 21  8  1  0  0  0  0
 22  6  1  0  0  0  0
 23 11  1  0  0  0  0
 23 10  1  0  0  0  0
 24 23  1  0  0  0  0
 25  1  1  0  0  0  0
 27  4  1  0  0  0  0
 27 25  1  0  0  0  0
 27 28  1  6  0  0  0
 29 28  1  0  0  0  0
 30 28  1  0  0  0  0
M  END
>  <CHROM.1>
-103.14574143,3.43966061,44.98842036,-57.19635657,-74.68991195,25.43691866
38.67035748,22.11229643,1.54164423,-0.15714812,-2.23909368

>  <Name>
lig.pdb

>  <RI>
0

>  <Rbt.Current_Directory>
/home/itssahil/PROJECTS/Mol_Feturizer/New_Systems/rnas/6bfb

>  <Rbt.Executable>
rbdock ($Id: //depot/dev/client3/rdock/2013.1/src/exe/rbdock.cxx#4 $)

>  <Rbt.Library>
libRbt.so (2013.1, Build901 2013/11/27)

>  <Rbt.Parameter_File>
/export/apps/rDock/src/rDock_2013.1_src/data/scripts/dock_solv.prm

>  <Rbt.Receptor>
prm/blind_docking_60.prm

>  <SCORE>
-34.2587

>  <SCORE.INTER>
-29.8667

>  <SCORE.INTER.CONST>
1

>  <SCORE.INTER.POLAR>
0

>  <SCORE.INTER.ROT>
3

>  <SCORE.INTER.SOLV>
13.0931

>  <SCORE.INTER.VDW>
-29.8755

>  <SCORE.INTER.norm>
-0.995557

>  <SCORE.INTRA>
-4.39202

>  <SCORE.INTRA.DIHEDRAL>
-7.52459

>  <SCORE.INTRA.DIHEDRAL.0>
9.41909

>  <SCORE.INTRA.POLAR>
0

>  <SCORE.INTRA.POLAR.0>
0

>  <SCORE.INTRA.REPUL>
0.0701394

>  <SCORE.INTRA.REPUL.0>
0

>  <SCORE.INTRA.SOLV>
0.00216817

>  <SCORE.INTRA.SOLV.lig_0>
-26.2491

>  <SCORE.INTRA.VDW>
-0.981502

>  <SCORE.INTRA.VDW.0>
2.57239

>  <SCORE.INTRA.norm>
-0.146401

>  <SCORE.RESTR>
0

>  <SCORE.RESTR.CAVITY>
0

>  <SCORE.RESTR.norm>
0

>  <SCORE.SYSTEM>
0

>  <SCORE.SYSTEM.CONST>
0

>  <SCORE.SYSTEM.DIHEDRAL>
0

>  <SCORE.SYSTEM.SOLV>
0

>  <SCORE.SYSTEM.norm>
0

>  <SCORE.heavy>
30

>  <SCORE.norm>
-1.14196

>  <RMSD>
1.757

$$$$
lig.pdb
 OpenBabel11021811523D
libRbt.so/2013.1/901 2013/11/27
 30 34  0  0  0  0  0  0  0  0999 V2000
   25.1405   38.5697   21.6414 N   0  0  0  0  0  0  0  0  0  0  0  0
   26.7523   42.0769   24.7411 N   0  0  0  0  0  0  0  0  0  0  0  0
   24.5678   38.9619   20.3500 C   0  0  0  0  0  0  0  0  0  0  0  0
   25.1767   37.9277   19.4150 C   0  0  2  0  0  0  0  0  0  0  0  0
   24.9489   39.4083   22.8193 C   0  0  0  0  0  0  0  0  0  0  0  0
   23.7995   39.3580   23.6344 C   0  0  0  0  0  0  0  0  0  0  0  0
   23.6035   40.1655   24.7268 C   0  0  0  0  0  0  0  0  0  0  0  0
   24.3350   42.0154   26.2357 C   0  0  0  0  0  0  0  0  0  0  0  0
   28.8435   42.9425   24.7186 C   0  0  0  0  0  0  0  0  0  0  0  0
   28.2477   40.9339   23.1915 C   0  0  0  0  0  0  0  0  0  0  0  0
   25.9481   40.3496   23.1955 C   0  0  0  0  0  0  0  0  0  0  0  0
   25.7230   43.7861   28.7325 O   0  0  0  0  0  0  0  0  0  0  0  0
   25.2247   43.9789   27.6213 C   0  0  0  0  0  0  0  0  0  0  0  0
   24.4864   45.0470   27.3455 O   0  0  0  0  0  0  0  0  0  0  0  0
   25.4143   42.9962   26.5213 C   0  0  1  0  0  0  0  0  0  0  0  0
   23.3153   41.9253   26.9278 O   0  0  0  0  0  0  0  0  0  0  0  0
   26.6088   42.9935   25.7801 C   0  0  0  0  0  0  0  0  0  0  0  0
   28.0301   42.0376   24.1656 C   0  0  0  0  0  0  0  0  0  0  0  0
   28.0875   43.8395   25.9698 S   0  0  0  0  0  0  0  0  0  0  0  0
   25.7570   41.1661   24.3332 C   0  0  0  0  0  0  0  0  0  0  0  0
   24.5744   41.1001   25.0861 C   0  0  0  0  0  0  0  0  0  0  0  0
   22.8418   38.4521   23.3524 F   0  0  0  0  0  0  0  0  0  0  0  0
   27.0963   40.5248   22.4073 N   0  0  0  0  0  0  0  0  0  0  0  0
   26.8099   41.3384   21.2451 C   0  0  0  0  0  0  0  0  0  0  0  0
   26.3432   37.7626   21.4692 C   0  0  0  0  0  0  0  0  0  0  0  0
   24.1705   37.1905   18.7193 O   0  0  0  0  0  0  0  0  0  0  0  0
   25.8964   36.9086   20.2946 C   0  0  2  0  0  0  0  0  0  0  0  0
   26.9644   36.2794   19.4945 N   0  0  0  0  0  0  0  0  0  0  0  0
   28.0118   35.5928   20.2722 C   0  0  0  0  0  0  0  0  0  0  0  0
   26.4512   35.4508   18.3927 C   0  0  0  0  0  0  0  0  0  0  0  0
  1  5  1  0  0  0  0
  2 17  1  0  0  0  0
  3  1  1  0  0  0  0
  4  3  1  0  0  0  0
  4 26  1  1  0  0  0
  5 11  2  0  0  0  0
  5  6  1  0  0  0  0
  6  7  2  0  0  0  0
  7 21  1  0  0  0  0
  8 15  1  0  0  0  0
  8 16  2  0  0  0  0
  9 19  1  0  0  0  0
 10 18  1  0  0  0  0
 11 20  1  0  0  0  0
 13 14  1  0  0  0  0
 13 12  2  0  0  0  0
 15 13  1  1  0  0  0
 17 19  2  0  0  0  0
 17 15  1  0  0  0  0
 18  2  1  0  0  0  0
 18  9  2  0  0  0  0
 20 21  2  0  0  0  0
 20  2  1  0  0  0  0
 21  8  1  0  0  0  0
 22  6  1  0  0  0  0
 23 11  1  0  0  0  0
 23 10  1  0  0  0  0
 24 23  1  0  0  0  0
 25  1  1  0  0  0  0
 27  4  1  0  0  0  0
 27 25  1  0  0  0  0
 27 28  1  6  0  0  0
 29 28  1  0  0  0  0
 30 28  1  0  0  0  0
M  END
>  <CHROM.1>
83.60988114,166.50235004,98.81047162,62.28699346,161.86014438,25.82389147
40.46620365,23.48629687,1.58162546,-0.29710282,-2.32243050

>  <Name>
lig.pdb

>  <RI>
0

>  <Rbt.Current_Directory>
/home/itssahil/PROJECTS/Mol_Feturizer/New_Systems/rnas/6bfb

>  <Rbt.Executable>
rbdock ($Id: //depot/dev/client3/rdock/2013.1/src/exe/rbdock.cxx#4 $)

>  <Rbt.Library>
libRbt.so (2013.1, Build901 2013/11/27)

>  <Rbt.Parameter_File>
/export/apps/rDock/src/rDock_2013.1_src/data/scripts/dock_solv.prm

>  <Rbt.Receptor>
prm/pocket_docking_4.prm

>  <SCORE>
-42.9023

>  <SCORE.INTER>
-38.0175

>  <SCORE.INTER.CONST>
1

>  <SCORE.INTER.POLAR>
-1.92116

>  <SCORE.INTER.ROT>
3

>  <SCORE.INTER.SOLV>
12.1266

>  <SCORE.INTER.VDW>
-28.5833

>  <SCORE.INTER.norm>
-1.26725

>  <SCORE.INTRA>
-4.88477

>  <SCORE.INTRA.DIHEDRAL>
-6.12354

>  <SCORE.INTRA.DIHEDRAL.0>
9.41909

>  <SCORE.INTRA.POLAR>
0

>  <SCORE.INTRA.POLAR.0>
0

>  <SCORE.INTRA.REPUL>
0

>  <SCORE.INTRA.REPUL.0>
0

>  <SCORE.INTRA.SOLV>
-0.0847517

>  <SCORE.INTRA.SOLV.lig_0>
-26.2491

>  <SCORE.INTRA.VDW>
-1.78063

>  <SCORE.INTRA.VDW.0>
2.57239

>  <SCORE.INTRA.norm>
-0.162826

>  <SCORE.RESTR>
0

>  <SCORE.RESTR.CAVITY>
0

>  <SCORE.RESTR.norm>
0

>  <SCORE.SYSTEM>
0

>  <SCORE.SYSTEM.CONST>
0

>  <SCORE.SYSTEM.DIHEDRAL>
0

>  <SCORE.SYSTEM.SOLV>
0

>  <SCORE.SYSTEM.norm>
0

>  <SCORE.heavy>
30

>  <SCORE.norm>
-1.43008

>  <RMSD>
1.758

$$$$
lig.pdb
 OpenBabel11021811523D
libRbt.so/2013.1/901 2013/11/27
 30 34  0  0  0  0  0  0  0  0999 V2000
   25.1507   38.5673   21.6466 N   0  0  0  0  0  0  0  0  0  0  0  0
   26.7952   42.0919   24.7094 N   0  0  0  0  0  0  0  0  0  0  0  0
   24.5724   38.9621   20.3585 C   0  0  0  0  0  0  0  0  0  0  0  0
   25.1668   37.9218   19.4211 C   0  0  2  0  0  0  0  0  0  0  0  0
   24.9737   39.4091   22.8245 C   0  0  0  0  0  0  0  0  0  0  0  0
   23.8372   39.3569   23.6573 C   0  0  0  0  0  0  0  0  0  0  0  0
   23.6546   40.1673   24.7500 C   0  0  0  0  0  0  0  0  0  0  0  0
   24.4015   42.0255   26.2411 C   0  0  0  0  0  0  0  0  0  0  0  0
   28.8821   42.9661   24.6517 C   0  0  0  0  0  0  0  0  0  0  0  0
   28.2714   40.9499   23.1407 C   0  0  0  0  0  0  0  0  0  0  0  0
   25.9746   40.3560   23.1821 C   0  0  0  0  0  0  0  0  0  0  0  0
   25.8250   43.8133   28.7085 O   0  0  0  0  0  0  0  0  0  0  0  0
   25.3040   43.9973   27.6063 C   0  0  0  0  0  0  0  0  0  0  0  0
   24.5518   45.0582   27.3403 O   0  0  0  0  0  0  0  0  0  0  0  0
   25.4809   43.0117   26.5068 C   0  0  1  0  0  0  0  0  0  0  0  0
   23.3929   41.9334   26.9492 O   0  0  0  0  0  0  0  0  0  0  0  0
   26.6638   43.0114   25.7473 C   0  0  0  0  0  0  0  0  0  0  0  0
   28.0641   42.0560   24.1143 C   0  0  0  0  0  0  0  0  0  0  0  0
   28.1417   43.8642   25.9113 S   0  0  0  0  0  0  0  0  0  0  0  0
   25.7976   41.1755   24.3199 C   0  0  0  0  0  0  0  0  0  0  0  0
   24.6270   41.1072   25.0911 C   0  0  0  0  0  0  0  0  0  0  0  0
   22.8791   38.4461   23.3932 F   0  0  0  0  0  0  0  0  0  0  0  0
   27.1098   40.5332   22.3758 N   0  0  0  0  0  0  0  0  0  0  0  0
   26.8021   41.3416   21.2154 C   0  0  0  0  0  0  0  0  0  0  0  0
   26.3458   37.7505   21.4676 C   0  0  0  0  0  0  0  0  0  0  0  0
   24.1502   37.1915   18.7333 O   0  0  0  0  0  0  0  0  0  0  0  0
   25.8844   36.8983   20.2973 C   0  0  2  0  0  0  0  0  0  0  0  0
   26.9419   36.2595   19.4910 N   0  0  0  0  0  0  0  0  0  0  0  0
   27.9894   35.5663   20.2628 C   0  0  0  0  0  0  0  0  0  0  0  0
   26.4147   35.4328   18.3944 C   0  0  0  0  0  0  0  0  0  0  0  0
  1  5  1  0  0  0  0
  2 17  1  0  0  0  0
  3  1  1  0  0  0  0
  4  3  1  0  0  0  0
  4 26  1  1  0  0  0
  5 11  2  0  0  0  0
  5  6  1  0  0  0  0
  6  7  2  0  0  0  0
  7 21  1  0  0  0  0
  8 15  1  0  0  0  0
  8 16  2  0  0  0  0
  9 19  1  0  0  0  0
 10 18  1  0  0  0  0
 11 20  1  0  0  0  0
 13 14  1  0  0  0  0
 13 12  2  0  0  0  0
 15 13  1  1  0  0  0
 17 19  2  0  0  0  0
 17 15  1  0  0  0  0
 18  2  1  0  0  0  0
 18  9  2  0  0  0  0
 20 21  2  0  0  0  0
 20  2  1  0  0  0  0
 21  8  1  0  0  0  0
 22  6  1  0  0  0  0
 23 11  1  0  0  0  0
 23 10  1  0  0  0  0
 24 23  1  0  0  0  0
 25  1  1  0  0  0  0
 27  4  1  0  0  0  0
 27 25  1  0  0  0  0
 27 28  1  6  0  0  0
 29 28  1  0  0  0  0
 30 28  1  0  0  0  0
M  END
>  <CHROM.1>
84.46958927,169.58773079,99.12935738,64.21430073,161.83469245,25.85353980
40.47137742,23.47536394,1.59073614,-0.31123331,-2.32385933

>  <Name>
lig.pdb

>  <RI>
0

>  <Rbt.Current_Directory>
/home/itssahil/PROJECTS/Mol_Feturizer/New_Systems/rnas/6bfb

>  <Rbt.Executable>
rbdock ($Id: //depot/dev/client3/rdock/2013.1/src/exe/rbdock.cxx#4 $)

>  <Rbt.Library>
libRbt.so (2013.1, Build901 2013/11/27)

>  <Rbt.Parameter_File>
/export/apps/rDock/src/rDock_2013.1_src/data/scripts/dock_solv.prm

>  <Rbt.Receptor>
prm/pocket_docking_5.prm

>  <SCORE>
-42.8807

>  <SCORE.INTER>
-37.754

>  <SCORE.INTER.CONST>
1

>  <SCORE.INTER.POLAR>
-1.86117

>  <SCORE.INTER.ROT>
3

>  <SCORE.INTER.SOLV>
12.17

>  <SCORE.INTER.VDW>
-28.6221

>  <SCORE.INTER.norm>
-1.25847

>  <SCORE.INTRA>
-5.12666

>  <SCORE.INTRA.DIHEDRAL>
-6.58524

>  <SCORE.INTRA.DIHEDRAL.0>
9.41909

>  <SCORE.INTRA.POLAR>
0

>  <SCORE.INTRA.POLAR.0>
0

>  <SCORE.INTRA.REPUL>
0

>  <SCORE.INTRA.REPUL.0>
0

>  <SCORE.INTRA.SOLV>
-0.082579

>  <SCORE.INTRA.SOLV.lig_0>
-26.2491

>  <SCORE.INTRA.VDW>
-1.79275

>  <SCORE.INTRA.VDW.0>
2.57239

>  <SCORE.INTRA.norm>
-0.170889

>  <SCORE.RESTR>
0

>  <SCORE.RESTR.CAVITY>
0

>  <SCORE.RESTR.norm>
0

>  <SCORE.SYSTEM>
0

>  <SCORE.SYSTEM.CONST>
0

>  <SCORE.SYSTEM.DIHEDRAL>
0

>  <SCORE.SYSTEM.SOLV>
0

>  <SCORE.SYSTEM.norm>
0

>  <SCORE.heavy>
30

>  <SCORE.norm>
-1.42936

>  <RMSD>
1.760

$$$$
lig.pdb
 OpenBabel11021811523D
libRbt.so/2013.1/901 2013/11/27
 30 34  0  0  0  0  0  0  0  0999 V2000
   25.3605   38.2582   21.4234 N   0  0  0  0  0  0  0  0  0  0  0  0
   27.0590   41.7608   24.4818 N   0  0  0  0  0  0  0  0  0  0  0  0
   24.7335   38.5865   20.1394 C   0  0  0  0  0  0  0  0  0  0  0  0
   25.3445   37.5394   19.2204 C   0  0  2  0  0  0  0  0  0  0  0  0
   25.1805   39.1315   22.5777 C   0  0  0  0  0  0  0  0  0  0  0  0
   24.0121   39.1514   23.3666 C   0  0  0  0  0  0  0  0  0  0  0  0
   23.8283   39.9918   24.4361 C   0  0  0  0  0  0  0  0  0  0  0  0
   24.6086   41.8416   25.9204 C   0  0  0  0  0  0  0  0  0  0  0  0
   29.1870   42.5315   24.4891 C   0  0  0  0  0  0  0  0  0  0  0  0
   28.5357   40.5168   22.9932 C   0  0  0  0  0  0  0  0  0  0  0  0
   26.2125   40.0358   22.9563 C   0  0  0  0  0  0  0  0  0  0  0  0
   24.6144   44.5920   27.2545 O   0  0  0  0  0  0  0  0  0  0  0  0
   25.5546   43.7950   27.2828 C   0  0  0  0  0  0  0  0  0  0  0  0
   26.4684   43.8028   28.2455 O   0  0  0  0  0  0  0  0  0  0  0  0
   25.7243   42.7797   26.2095 C   0  0  1  0  0  0  0  0  0  0  0  0
   23.5706   41.8130   26.5903 O   0  0  0  0  0  0  0  0  0  0  0  0
   26.9337   42.7066   25.4967 C   0  0  0  0  0  0  0  0  0  0  0  0
   28.3463   41.6513   23.9373 C   0  0  0  0  0  0  0  0  0  0  0  0
   28.4445   43.4900   25.7021 S   0  0  0  0  0  0  0  0  0  0  0  0
   26.0330   40.8860   24.0710 C   0  0  0  0  0  0  0  0  0  0  0  0
   24.8321   40.8903   24.7972 C   0  0  0  0  0  0  0  0  0  0  0  0
   23.0211   38.2827   23.0824 F   0  0  0  0  0  0  0  0  0  0  0  0
   27.3848   40.1413   22.1915 N   0  0  0  0  0  0  0  0  0  0  0  0
   27.1614   40.9399   21.0052 C   0  0  0  0  0  0  0  0  0  0  0  0
   26.5823   37.4833   21.2384 C   0  0  0  0  0  0  0  0  0  0  0  0
   24.3404   36.7472   18.5848 O   0  0  0  0  0  0  0  0  0  0  0  0
   26.1251   36.5749   20.1095 C   0  0  2  0  0  0  0  0  0  0  0  0
   27.1861   35.9513   19.2958 N   0  0  0  0  0  0  0  0  0  0  0  0
   28.2739   36.8555   18.8804 C   0  0  0  0  0  0  0  0  0  0  0  0
   27.6910   34.6935   19.8674 C   0  0  0  0  0  0  0  0  0  0  0  0
  1  5  1  0  0  0  0
  2 17  1  0  0  0  0
  3  1  1  0  0  0  0
  4  3  1  0  0  0  0
  4 26  1  1  0  0  0
  5 11  2  0  0  0  0
  5  6  1  0  0  0  0
  6  7  2  0  0  0  0
  7 21  1  0  0  0  0
  8 15  1  0  0  0  0
  8 16  2  0  0  0  0
  9 19  1  0  0  0  0
 10 18  1  0  0  0  0
 11 20  1  0  0  0  0
 13 14  1  0  0  0  0
 13 12  2  0  0  0  0
 15 13  1  1  0  0  0
 17 19  2  0  0  0  0
 17 15  1  0  0  0  0
 18  2  1  0  0  0  0
 18  9  2  0  0  0  0
 20 21  2  0  0  0  0
 20  2  1  0  0  0  0
 21  8  1  0  0  0  0
 22  6  1  0  0  0  0
 23 11  1  0  0  0  0
 23 10  1  0  0  0  0
 24 23  1  0  0  0  0
 25  1  1  0  0  0  0
 27  4  1  0  0  0  0
 27 25  1  0  0  0  0
 27 28  1  6  0  0  0
 29 28  1  0  0  0  0
 30 28  1  0  0  0  0
M  END
>  <CHROM.1>
78.12554921,179.81159971,-56.22132355,177.48789105,68.97096755,26.14268882
40.20320227,23.25985516,1.58322177,-0.26190727,-2.32865532

>  <Name>
lig.pdb

>  <RI>
0

>  <Rbt.Current_Directory>
/home/itssahil/PROJECTS/Mol_Feturizer/New_Systems/rnas/6bfb

>  <Rbt.Executable>
rbdock ($Id: //depot/dev/client3/rdock/2013.1/src/exe/rbdock.cxx#4 $)

>  <Rbt.Library>
libRbt.so (2013.1, Build901 2013/11/27)

>  <Rbt.Parameter_File>
/export/apps/rDock/src/rDock_2013.1_src/data/scripts/dock_solv.prm

>  <Rbt.Receptor>
prm/pocket_docking_4.prm

>  <SCORE>
-37.5044

>  <SCORE.INTER>
-31.4992

>  <SCORE.INTER.CONST>
1

>  <SCORE.INTER.POLAR>
0

>  <SCORE.INTER.ROT>
3

>  <SCORE.INTER.SOLV>
11.3654

>  <SCORE.INTER.VDW>
-30.3879

>  <SCORE.INTER.norm>
-1.04997

>  <SCORE.INTRA>
-6.00518

>  <SCORE.INTRA.DIHEDRAL>
-7.38476

>  <SCORE.INTRA.DIHEDRAL.0>
9.41909

>  <SCORE.INTRA.POLAR>
0

>  <SCORE.INTRA.POLAR.0>
0

>  <SCORE.INTRA.REPUL>
0

>  <SCORE.INTRA.REPUL.0>
0

>  <SCORE.INTRA.SOLV>
-0.16619

>  <SCORE.INTRA.SOLV.lig_0>
-26.2491

>  <SCORE.INTRA.VDW>
-2.2297

>  <SCORE.INTRA.VDW.0>
2.57239

>  <SCORE.INTRA.norm>
-0.200173

>  <SCORE.RESTR>
0

>  <SCORE.RESTR.CAVITY>
0

>  <SCORE.RESTR.norm>
0

>  <SCORE.SYSTEM>
0

>  <SCORE.SYSTEM.CONST>
0

>  <SCORE.SYSTEM.DIHEDRAL>
0

>  <SCORE.SYSTEM.SOLV>
0

>  <SCORE.SYSTEM.norm>
0

>  <SCORE.heavy>
30

>  <SCORE.norm>
-1.25015

>  <RMSD>
1.761

$$$$
lig.pdb
 OpenBabel11021811523D
libRbt.so/2013.1/901 2013/11/27
 30 34  0  0  0  0  0  0  0  0999 V2000
   25.3659   38.2729   21.4201 N   0  0  0  0  0  0  0  0  0  0  0  0
   27.0856   41.7622   24.4819 N   0  0  0  0  0  0  0  0  0  0  0  0
   24.7529   38.6162   20.1333 C   0  0  0  0  0  0  0  0  0  0  0  0
   25.3534   37.5630   19.2142 C   0  0  2  0  0  0  0  0  0  0  0  0
   25.1922   39.1445   22.5767 C   0  0  0  0  0  0  0  0  0  0  0  0
   24.0257   39.1674   23.3683 C   0  0  0  0  0  0  0  0  0  0  0  0
   23.8477   40.0063   24.4399 C   0  0  0  0  0  0  0  0  0  0  0  0
   24.6388   41.8499   25.9263 C   0  0  0  0  0  0  0  0  0  0  0  0
   29.2167   42.5244   24.4859 C   0  0  0  0  0  0  0  0  0  0  0  0
   28.5538   40.5155   22.9872 C   0  0  0  0  0  0  0  0  0  0  0  0
   26.2286   40.0439   22.9547 C   0  0  0  0  0  0  0  0  0  0  0  0
   24.6554   44.5935   27.2693 O   0  0  0  0  0  0  0  0  0  0  0  0
   25.5958   43.7966   27.2906 C   0  0  0  0  0  0  0  0  0  0  0  0
   26.5156   43.8030   28.2477 O   0  0  0  0  0  0  0  0  0  0  0  0
   25.7590   42.7829   26.2148 C   0  0  1  0  0  0  0  0  0  0  0  0
   23.6023   41.8241   26.5986 O   0  0  0  0  0  0  0  0  0  0  0  0
   26.9664   42.7064   25.4990 C   0  0  0  0  0  0  0  0  0  0  0  0
   28.3711   41.6487   23.9342 C   0  0  0  0  0  0  0  0  0  0  0  0
   28.4808   43.4833   25.7026 S   0  0  0  0  0  0  0  0  0  0  0  0
   26.0551   40.8924   24.0716 C   0  0  0  0  0  0  0  0  0  0  0  0
   24.8560   40.9000   24.8006 C   0  0  0  0  0  0  0  0  0  0  0  0
   23.0305   38.3034   23.0845 F   0  0  0  0  0  0  0  0  0  0  0  0
   27.3996   40.1463   22.1875 N   0  0  0  0  0  0  0  0  0  0  0  0
   27.1767   40.9482   21.0034 C   0  0  0  0  0  0  0  0  0  0  0  0
   26.5764   37.4793   21.2402 C   0  0  0  0  0  0  0  0  0  0  0  0
   24.3411   36.7894   18.5688 O   0  0  0  0  0  0  0  0  0  0  0  0
   26.1125   36.5827   20.1047 C   0  0  2  0  0  0  0  0  0  0  0  0
   27.1688   35.9454   19.2956 N   0  0  0  0  0  0  0  0  0  0  0  0
   28.2828   36.8292   18.9065 C   0  0  0  0  0  0  0  0  0  0  0  0
   27.6366   34.6683   19.8558 C   0  0  0  0  0  0  0  0  0  0  0  0
  1  5  1  0  0  0  0
  2 17  1  0  0  0  0
  3  1  1  0  0  0  0
  4  3  1  0  0  0  0
  4 26  1  1  0  0  0
  5 11  2  0  0  0  0
  5  6  1  0  0  0  0
  6  7  2  0  0  0  0
  7 21  1  0  0  0  0
  8 15  1  0  0  0  0
  8 16  2  0  0  0  0
  9 19  1  0  0  0  0
 10 18  1  0  0  0  0
 11 20  1  0  0  0  0
 13 14  1  0  0  0  0
 13 12  2  0  0  0  0
 15 13  1  1  0  0  0
 17 19  2  0  0  0  0
 17 15  1  0  0  0  0
 18  2  1  0  0  0  0
 18  9  2  0  0  0  0
 20 21  2  0  0  0  0
 20  2  1  0  0  0  0
 21  8  1  0  0  0  0
 22  6  1  0  0  0  0
 23 11  1  0  0  0  0
 23 10  1  0  0  0  0
 24 23  1  0  0  0  0
 25  1  1  0  0  0  0
 27  4  1  0  0  0  0
 27 25  1  0  0  0  0
 27 28  1  6  0  0  0
 29 28  1  0  0  0  0
 30 28  1  0  0  0  0
M  END
>  <CHROM.1>
78.99029612,179.56802159,-55.89543260,-59.16325444,69.76812133,26.15730257
40.20890892,23.26354606,1.58919949,-0.25994647,-2.32733244

>  <Name>
lig.pdb

>  <RI>
0

>  <Rbt.Current_Directory>
/home/itssahil/PROJECTS/Mol_Feturizer/New_Systems/rnas/6bfb

>  <Rbt.Executable>
rbdock ($Id: //depot/dev/client3/rdock/2013.1/src/exe/rbdock.cxx#4 $)

>  <Rbt.Library>
libRbt.so (2013.1, Build901 2013/11/27)

>  <Rbt.Parameter_File>
/export/apps/rDock/src/rDock_2013.1_src/data/scripts/dock_solv.prm

>  <Rbt.Receptor>
prm/blind_docking_100.prm

>  <SCORE>
-37.0847

>  <SCORE.INTER>
-31.5573

>  <SCORE.INTER.CONST>
1

>  <SCORE.INTER.POLAR>
0

>  <SCORE.INTER.ROT>
3

>  <SCORE.INTER.SOLV>
11.4125

>  <SCORE.INTER.VDW>
-30.4424

>  <SCORE.INTER.norm>
-1.05191

>  <SCORE.INTRA>
-5.52736

>  <SCORE.INTRA.DIHEDRAL>
-7.37634

>  <SCORE.INTRA.DIHEDRAL.0>
9.41909

>  <SCORE.INTRA.POLAR>
0

>  <SCORE.INTRA.POLAR.0>
0

>  <SCORE.INTRA.REPUL>
0

>  <SCORE.INTRA.REPUL.0>
0

>  <SCORE.INTRA.SOLV>
-0.188317

>  <SCORE.INTRA.SOLV.lig_0>
-26.2491

>  <SCORE.INTRA.VDW>
-1.74503

>  <SCORE.INTRA.VDW.0>
2.57239

>  <SCORE.INTRA.norm>
-0.184245

>  <SCORE.RESTR>
0

>  <SCORE.RESTR.CAVITY>
0

>  <SCORE.RESTR.norm>
0

>  <SCORE.SYSTEM>
0

>  <SCORE.SYSTEM.CONST>
0

>  <SCORE.SYSTEM.DIHEDRAL>
0

>  <SCORE.SYSTEM.SOLV>
0

>  <SCORE.SYSTEM.norm>
0

>  <SCORE.heavy>
30

>  <SCORE.norm>
-1.23616

>  <RMSD>
1.763

$$$$
lig.pdb
 OpenBabel11021811523D
libRbt.so/2013.1/901 2013/11/27
 30 34  0  0  0  0  0  0  0  0999 V2000
   25.1894   38.3871   21.4744 N   0  0  0  0  0  0  0  0  0  0  0  0
   27.1302   41.7587   24.5359 N   0  0  0  0  0  0  0  0  0  0  0  0
   24.6073   38.8087   20.1965 C   0  0  0  0  0  0  0  0  0  0  0  0
   25.1224   37.7328   19.2524 C   0  0  2  0  0  0  0  0  0  0  0  0
   25.0848   39.2423   22.6513 C   0  0  0  0  0  0  0  0  0  0  0  0
   23.9471   39.2898   23.4828 C   0  0  0  0  0  0  0  0  0  0  0  0
   23.8343   40.1141   24.5745 C   0  0  0  0  0  0  0  0  0  0  0  0
   24.7380   41.9019   26.0648 C   0  0  0  0  0  0  0  0  0  0  0  0
   29.2851   42.4484   24.4800 C   0  0  0  0  0  0  0  0  0  0  0  0
   28.5034   40.4912   22.9701 C   0  0  0  0  0  0  0  0  0  0  0  0
   26.1637   40.0990   23.0092 C   0  0  0  0  0  0  0  0  0  0  0  0
   24.9090   43.7201   28.2715 O   0  0  0  0  0  0  0  0  0  0  0  0
   25.8068   43.7893   27.4293 C   0  0  0  0  0  0  0  0  0  0  0  0
   26.7216   44.7511   27.4384 O   0  0  0  0  0  0  0  0  0  0  0  0
   25.8986   42.7910   26.3310 C   0  0  1  0  0  0  0  0  0  0  0  0
   23.7244   41.8984   26.7718 O   0  0  0  0  0  0  0  0  0  0  0  0
   27.0779   42.6872   25.5729 C   0  0  0  0  0  0  0  0  0  0  0  0
   28.3919   41.6121   23.9424 C   0  0  0  0  0  0  0  0  0  0  0  0
   28.6241   43.4086   25.7379 S   0  0  0  0  0  0  0  0  0  0  0  0
   26.0572   40.9320   24.1461 C   0  0  0  0  0  0  0  0  0  0  0  0
   24.8843   40.9664   24.9159 C   0  0  0  0  0  0  0  0  0  0  0  0
   22.9138   38.4653   23.2184 F   0  0  0  0  0  0  0  0  0  0  0  0
   27.3109   40.1762   22.2041 N   0  0  0  0  0  0  0  0  0  0  0  0
   27.0758   41.0072   21.0426 C   0  0  0  0  0  0  0  0  0  0  0  0
   26.3325   37.5035   21.2749 C   0  0  0  0  0  0  0  0  0  0  0  0
   24.0521   37.0583   18.5896 O   0  0  0  0  0  0  0  0  0  0  0  0
   25.7994   36.6740   20.1189 C   0  0  2  0  0  0  0  0  0  0  0  0
   26.8021   35.9733   19.2942 N   0  0  0  0  0  0  0  0  0  0  0  0
   27.8355   35.2401   20.0479 C   0  0  0  0  0  0  0  0  0  0  0  0
   26.2056   35.1586   18.2245 C   0  0  0  0  0  0  0  0  0  0  0  0
  1  5  1  0  0  0  0
  2 17  1  0  0  0  0
  3  1  1  0  0  0  0
  4  3  1  0  0  0  0
  4 26  1  1  0  0  0
  5 11  2  0  0  0  0
  5  6  1  0  0  0  0
  6  7  2  0  0  0  0
  7 21  1  0  0  0  0
  8 15  1  0  0  0  0
  8 16  2  0  0  0  0
  9 19  1  0  0  0  0
 10 18  1  0  0  0  0
 11 20  1  0  0  0  0
 13 14  1  0  0  0  0
 13 12  2  0  0  0  0
 15 13  1  1  0  0  0
 17 19  2  0  0  0  0
 17 15  1  0  0  0  0
 18  2  1  0  0  0  0
 18  9  2  0  0  0  0
 20 21  2  0  0  0  0
 20  2  1  0  0  0  0
 21  8  1  0  0  0  0
 22  6  1  0  0  0  0
 23 11  1  0  0  0  0
 23 10  1  0  0  0  0
 24 23  1  0  0  0  0
 25  1  1  0  0  0  0
 27  4  1  0  0  0  0
 27 25  1  0  0  0  0
 27 28  1  6  0  0  0
 29 28  1  0  0  0  0
 30 28  1  0  0  0  0
M  END
>  <CHROM.1>
82.30365578,-0.40355415,14.03729746,59.12294934,161.04500476,26.06536717
40.22938376,23.30555581,1.65574351,-0.27081629,-2.30323945

>  <Name>
lig.pdb

>  <RI>
0

>  <Rbt.Current_Directory>
/home/itssahil/PROJECTS/Mol_Feturizer/New_Systems/rnas/6bfb

>  <Rbt.Executable>
rbdock ($Id: //depot/dev/client3/rdock/2013.1/src/exe/rbdock.cxx#4 $)

>  <Rbt.Library>
libRbt.so (2013.1, Build901 2013/11/27)

>  <Rbt.Parameter_File>
/export/apps/rDock/src/rDock_2013.1_src/data/scripts/dock_solv.prm

>  <Rbt.Receptor>
prm/pocket_docking_4.prm

>  <SCORE>
-40.0097

>  <SCORE.INTER>
-35.091

>  <SCORE.INTER.CONST>
1

>  <SCORE.INTER.POLAR>
-1.15187

>  <SCORE.INTER.ROT>
3

>  <SCORE.INTER.SOLV>
12.3459

>  <SCORE.INTER.VDW>
-29.2697

>  <SCORE.INTER.norm>
-1.1697

>  <SCORE.INTRA>
-4.92017

>  <SCORE.INTRA.DIHEDRAL>
-7.47175

>  <SCORE.INTRA.DIHEDRAL.0>
9.41909

>  <SCORE.INTRA.POLAR>
0

>  <SCORE.INTRA.POLAR.0>
0

>  <SCORE.INTRA.REPUL>
0

>  <SCORE.INTRA.REPUL.0>
0

>  <SCORE.INTRA.SOLV>
0.0330402

>  <SCORE.INTRA.SOLV.lig_0>
-26.2491

>  <SCORE.INTRA.VDW>
-1.20082

>  <SCORE.INTRA.VDW.0>
2.57239

>  <SCORE.INTRA.norm>
-0.164006

>  <SCORE.RESTR>
0.00142394

>  <SCORE.RESTR.CAVITY>
0.00142394

>  <SCORE.RESTR.norm>
4.74646e-05

>  <SCORE.SYSTEM>
0

>  <SCORE.SYSTEM.CONST>
0

>  <SCORE.SYSTEM.DIHEDRAL>
0

>  <SCORE.SYSTEM.SOLV>
0

>  <SCORE.SYSTEM.norm>
0

>  <SCORE.heavy>
30

>  <SCORE.norm>
-1.33366

>  <RMSD>
1.765

$$$$
lig.pdb
 OpenBabel11021811523D
libRbt.so/2013.1/901 2013/11/27
 30 34  0  0  0  0  0  0  0  0999 V2000
   25.1666   38.5980   21.6373 N   0  0  0  0  0  0  0  0  0  0  0  0
   26.7372   42.1517   24.7051 N   0  0  0  0  0  0  0  0  0  0  0  0
   24.5835   38.9754   20.3461 C   0  0  0  0  0  0  0  0  0  0  0  0
   25.2028   37.9446   19.4143 C   0  0  2  0  0  0  0  0  0  0  0  0
   24.9681   39.4402   22.8115 C   0  0  0  0  0  0  0  0  0  0  0  0
   23.8254   39.3748   23.6346 C   0  0  0  0  0  0  0  0  0  0  0  0
   23.6225   40.1852   24.7236 C   0  0  0  0  0  0  0  0  0  0  0  0
   24.3315   42.0568   26.2164 C   0  0  0  0  0  0  0  0  0  0  0  0
   28.8126   43.0537   24.6632 C   0  0  0  0  0  0  0  0  0  0  0  0
   28.2421   41.0258   23.1521 C   0  0  0  0  0  0  0  0  0  0  0  0
   25.9532   40.4012   23.1752 C   0  0  0  0  0  0  0  0  0  0  0  0
   24.2337   44.8149   27.5719 O   0  0  0  0  0  0  0  0  0  0  0  0
   25.1957   44.0439   27.5843 C   0  0  0  0  0  0  0  0  0  0  0  0
   26.1076   44.0555   28.5489 O   0  0  0  0  0  0  0  0  0  0  0  0
   25.3952   43.0581   26.4889 C   0  0  1  0  0  0  0  0  0  0  0  0
   23.3182   41.9530   26.9160 O   0  0  0  0  0  0  0  0  0  0  0  0
   26.5845   43.0719   25.7396 C   0  0  0  0  0  0  0  0  0  0  0  0
   28.0116   42.1314   24.1211 C   0  0  0  0  0  0  0  0  0  0  0  0
   28.0494   43.9448   25.9141 S   0  0  0  0  0  0  0  0  0  0  0  0
   25.7554   41.2211   24.3094 C   0  0  0  0  0  0  0  0  0  0  0  0
   24.5792   41.1389   25.0707 C   0  0  0  0  0  0  0  0  0  0  0  0
   22.8818   38.4505   23.3646 F   0  0  0  0  0  0  0  0  0  0  0  0
   27.0928   40.5917   22.3782 N   0  0  0  0  0  0  0  0  0  0  0  0
   26.7843   41.3932   21.2132 C   0  0  0  0  0  0  0  0  0  0  0  0
   26.3795   37.8065   21.4646 C   0  0  0  0  0  0  0  0  0  0  0  0
   24.2041   37.1900   18.7265 O   0  0  0  0  0  0  0  0  0  0  0  0
   25.9399   36.9402   20.2963 C   0  0  2  0  0  0  0  0  0  0  0  0
   27.0132   36.3213   19.4953 N   0  0  0  0  0  0  0  0  0  0  0  0
   26.5584   35.3921   18.4450 C   0  0  0  0  0  0  0  0  0  0  0  0
   27.9969   37.2938   18.9949 C   0  0  0  0  0  0  0  0  0  0  0  0
  1  5  1  0  0  0  0
  2 17  1  0  0  0  0
  3  1  1  0  0  0  0
  4  3  1  0  0  0  0
  4 26  1  1  0  0  0
  5 11  2  0  0  0  0
  5  6  1  0  0  0  0
  6  7  2  0  0  0  0
  7 21  1  0  0  0  0
  8 15  1  0  0  0  0
  8 16  2  0  0  0  0
  9 19  1  0  0  0  0
 10 18  1  0  0  0  0
 11 20  1  0  0  0  0
 13 14  1  0  0  0  0
 13 12  2  0  0  0  0
 15 13  1  1  0  0  0
 17 19  2  0  0  0  0
 17 15  1  0  0  0  0
 18  2  1  0  0  0  0
 18  9  2  0  0  0  0
 20 21  2  0  0  0  0
 20  2  1  0  0  0  0
 21  8  1  0  0  0  0
 22  6  1  0  0  0  0
 23 11  1  0  0  0  0
 23 10  1  0  0  0  0
 24 23  1  0  0  0  0
 25  1  1  0  0  0  0
 27  4  1  0  0  0  0
 27 25  1  0  0  0  0
 27 28  1  6  0  0  0
 29 28  1  0  0  0  0
 30 28  1  0  0  0  0
M  END
>  <CHROM.1>
83.88754665,-0.59252289,-58.92535545,64.47739015,-70.99309192,25.83897944
40.56621807,23.43489938,1.57946920,-0.35661037,-2.29730227

>  <Name>
lig.pdb

>  <RI>
0

>  <Rbt.Current_Directory>
/home/itssahil/PROJECTS/Mol_Feturizer/New_Systems/rnas/6bfb

>  <Rbt.Executable>
rbdock ($Id: //depot/dev/client3/rdock/2013.1/src/exe/rbdock.cxx#4 $)

>  <Rbt.Library>
libRbt.so (2013.1, Build901 2013/11/27)

>  <Rbt.Parameter_File>
/export/apps/rDock/src/rDock_2013.1_src/data/scripts/dock_solv.prm

>  <Rbt.Receptor>
prm/pocket_docking_6.prm

>  <SCORE>
-39.4052

>  <SCORE.INTER>
-34.3351

>  <SCORE.INTER.CONST>
1

>  <SCORE.INTER.POLAR>
-1.14165

>  <SCORE.INTER.ROT>
3

>  <SCORE.INTER.SOLV>
10.9441

>  <SCORE.INTER.VDW>
-28.3326

>  <SCORE.INTER.norm>
-1.1445

>  <SCORE.INTRA>
-5.07006

>  <SCORE.INTRA.DIHEDRAL>
-7.5837

>  <SCORE.INTRA.DIHEDRAL.0>
9.41909

>  <SCORE.INTRA.POLAR>
0

>  <SCORE.INTRA.POLAR.0>
0

>  <SCORE.INTRA.REPUL>
0

>  <SCORE.INTRA.REPUL.0>
0

>  <SCORE.INTRA.SOLV>
0.116862

>  <SCORE.INTRA.SOLV.lig_0>
-26.2491

>  <SCORE.INTRA.VDW>
-1.33664

>  <SCORE.INTRA.VDW.0>
2.57239

>  <SCORE.INTRA.norm>
-0.169002

>  <SCORE.RESTR>
0

>  <SCORE.RESTR.CAVITY>
0

>  <SCORE.RESTR.norm>
0

>  <SCORE.SYSTEM>
0

>  <SCORE.SYSTEM.CONST>
0

>  <SCORE.SYSTEM.DIHEDRAL>
0

>  <SCORE.SYSTEM.SOLV>
0

>  <SCORE.SYSTEM.norm>
0

>  <SCORE.heavy>
30

>  <SCORE.norm>
-1.31351

>  <RMSD>
1.766

$$$$
lig.pdb
 OpenBabel11021811523D
libRbt.so/2013.1/901 2013/11/27
 30 34  0  0  0  0  0  0  0  0999 V2000
   25.2430   38.5867   21.5970 N   0  0  0  0  0  0  0  0  0  0  0  0
   26.7896   42.0700   24.7565 N   0  0  0  0  0  0  0  0  0  0  0  0
   24.6661   38.9775   20.3071 C   0  0  0  0  0  0  0  0  0  0  0  0
   25.2998   37.9645   19.3655 C   0  0  2  0  0  0  0  0  0  0  0  0
   25.0299   39.4111   22.7813 C   0  0  0  0  0  0  0  0  0  0  0  0
   23.8699   39.3445   23.5800 C   0  0  0  0  0  0  0  0  0  0  0  0
   23.6538   40.1387   24.6784 C   0  0  0  0  0  0  0  0  0  0  0  0
   24.3526   41.9766   26.2171 C   0  0  0  0  0  0  0  0  0  0  0  0
   28.8751   42.9491   24.7719 C   0  0  0  0  0  0  0  0  0  0  0  0
   28.3133   40.9537   23.2150 C   0  0  0  0  0  0  0  0  0  0  0  0
   26.0177   40.3546   23.1813 C   0  0  0  0  0  0  0  0  0  0  0  0
   25.9965   43.9856   28.5843 O   0  0  0  0  0  0  0  0  0  0  0  0
   25.2106   43.9304   27.6361 C   0  0  0  0  0  0  0  0  0  0  0  0
   24.1363   44.7057   27.5530 O   0  0  0  0  0  0  0  0  0  0  0  0
   25.4215   42.9611   26.5281 C   0  0  1  0  0  0  0  0  0  0  0  0
   23.3242   41.8723   26.8942 O   0  0  0  0  0  0  0  0  0  0  0  0
   26.6259   42.9741   25.8033 C   0  0  0  0  0  0  0  0  0  0  0  0
   28.0753   42.0452   24.1980 C   0  0  0  0  0  0  0  0  0  0  0  0
   28.0964   43.8274   26.0223 S   0  0  0  0  0  0  0  0  0  0  0  0
   25.8059   41.1573   24.3251 C   0  0  0  0  0  0  0  0  0  0  0  0
   24.6137   41.0755   25.0610 C   0  0  0  0  0  0  0  0  0  0  0  0
   22.9221   38.4356   23.2751 F   0  0  0  0  0  0  0  0  0  0  0  0
   27.1754   40.5458   22.4108 N   0  0  0  0  0  0  0  0  0  0  0  0
   26.8994   41.3703   21.2537 C   0  0  0  0  0  0  0  0  0  0  0  0
   26.4631   37.8068   21.4221 C   0  0  0  0  0  0  0  0  0  0  0  0
   24.3117   37.2119   18.6603 O   0  0  0  0  0  0  0  0  0  0  0  0
   26.0383   36.9535   20.2389 C   0  0  2  0  0  0  0  0  0  0  0  0
   27.1219   36.3539   19.4371 N   0  0  0  0  0  0  0  0  0  0  0  0
   28.2133   37.2731   19.0668 C   0  0  0  0  0  0  0  0  0  0  0  0
   27.6213   35.0870   19.9933 C   0  0  0  0  0  0  0  0  0  0  0  0
  1  5  1  0  0  0  0
  2 17  1  0  0  0  0
  3  1  1  0  0  0  0
  4  3  1  0  0  0  0
  4 26  1  1  0  0  0
  5 11  2  0  0  0  0
  5  6  1  0  0  0  0
  6  7  2  0  0  0  0
  7 21  1  0  0  0  0
  8 15  1  0  0  0  0
  8 16  2  0  0  0  0
  9 19  1  0  0  0  0
 10 18  1  0  0  0  0
 11 20  1  0  0  0  0
 13 14  1  0  0  0  0
 13 12  2  0  0  0  0
 15 13  1  1  0  0  0
 17 19  2  0  0  0  0
 17 15  1  0  0  0  0
 18  2  1  0  0  0  0
 18  9  2  0  0  0  0
 20 21  2  0  0  0  0
 20  2  1  0  0  0  0
 21  8  1  0  0  0  0
 22  6  1  0  0  0  0
 23 11  1  0  0  0  0
 23 10  1  0  0  0  0
 24 23  1  0  0  0  0
 25  1  1  0  0  0  0
 27  4  1  0  0  0  0
 27 25  1  0  0  0  0
 27 28  1  6  0  0  0
 29 28  1  0  0  0  0
 30 28  1  0  0  0  0
M  END
>  <CHROM.1>
82.56418681,1.04960799,122.23801728,64.32288253,67.23385763,25.92352154,40.50832330
23.49384591,1.54780828,-0.30052507,-2.31260861

>  <Name>
lig.pdb

>  <RI>
0

>  <Rbt.Current_Directory>
/home/itssahil/PROJECTS/Mol_Feturizer/New_Systems/rnas/6bfb

>  <Rbt.Executable>
rbdock ($Id: //depot/dev/client3/rdock/2013.1/src/exe/rbdock.cxx#4 $)

>  <Rbt.Library>
libRbt.so (2013.1, Build901 2013/11/27)

>  <Rbt.Parameter_File>
/export/apps/rDock/src/rDock_2013.1_src/data/scripts/dock_solv.prm

>  <Rbt.Receptor>
prm/pocket_docking_3.prm

>  <SCORE>
-42.0574

>  <SCORE.INTER>
-35.6725

>  <SCORE.INTER.CONST>
1

>  <SCORE.INTER.POLAR>
-1.06088

>  <SCORE.INTER.ROT>
3

>  <SCORE.INTER.SOLV>
11.6774

>  <SCORE.INTER.VDW>
-29.7379

>  <SCORE.INTER.norm>
-1.18908

>  <SCORE.INTRA>
-6.38487

>  <SCORE.INTRA.DIHEDRAL>
-7.39573

>  <SCORE.INTRA.DIHEDRAL.0>
9.41909

>  <SCORE.INTRA.POLAR>
0

>  <SCORE.INTRA.POLAR.0>
0

>  <SCORE.INTRA.REPUL>
0

>  <SCORE.INTRA.REPUL.0>
0

>  <SCORE.INTRA.SOLV>
-0.149303

>  <SCORE.INTRA.SOLV.lig_0>
-26.2491

>  <SCORE.INTRA.VDW>
-2.61235

>  <SCORE.INTRA.VDW.0>
2.57239

>  <SCORE.INTRA.norm>
-0.212829

>  <SCORE.RESTR>
0

>  <SCORE.RESTR.CAVITY>
0

>  <SCORE.RESTR.norm>
0

>  <SCORE.SYSTEM>
0

>  <SCORE.SYSTEM.CONST>
0

>  <SCORE.SYSTEM.DIHEDRAL>
0

>  <SCORE.SYSTEM.SOLV>
0

>  <SCORE.SYSTEM.norm>
0

>  <SCORE.heavy>
30

>  <SCORE.norm>
-1.40191

>  <RMSD>
1.774

$$$$
lig.pdb
 OpenBabel11021811523D
libRbt.so/2013.1/901 2013/11/27
 30 34  0  0  0  0  0  0  0  0999 V2000
   25.1674   38.5428   21.6245 N   0  0  0  0  0  0  0  0  0  0  0  0
   26.7703   42.0444   24.7352 N   0  0  0  0  0  0  0  0  0  0  0  0
   24.5987   38.9382   20.3323 C   0  0  0  0  0  0  0  0  0  0  0  0
   25.2099   37.9059   19.3968 C   0  0  2  0  0  0  0  0  0  0  0  0
   24.9727   39.3787   22.8038 C   0  0  0  0  0  0  0  0  0  0  0  0
   23.8216   39.3261   23.6162 C   0  0  0  0  0  0  0  0  0  0  0  0
   23.6227   40.1311   24.7100 C   0  0  0  0  0  0  0  0  0  0  0  0
   24.3498   41.9782   26.2243 C   0  0  0  0  0  0  0  0  0  0  0  0
   28.8610   42.9113   24.7191 C   0  0  0  0  0  0  0  0  0  0  0  0
   28.2698   40.9056   23.1864 C   0  0  0  0  0  0  0  0  0  0  0  0
   25.9705   40.3199   23.1841 C   0  0  0  0  0  0  0  0  0  0  0  0
   26.0581   44.0315   28.5296 O   0  0  0  0  0  0  0  0  0  0  0  0
   25.2353   43.9393   27.6161 C   0  0  0  0  0  0  0  0  0  0  0  0
   24.1366   44.6826   27.5671 O   0  0  0  0  0  0  0  0  0  0  0  0
   25.4279   42.9591   26.5144 C   0  0  1  0  0  0  0  0  0  0  0  0
   23.3286   41.8860   26.9140 O   0  0  0  0  0  0  0  0  0  0  0  0
   26.6239   42.9586   25.7758 C   0  0  0  0  0  0  0  0  0  0  0  0
   28.0494   42.0071   24.1623 C   0  0  0  0  0  0  0  0  0  0  0  0
   28.1018   43.8051   25.9705 S   0  0  0  0  0  0  0  0  0  0  0  0
   25.7764   41.1338   24.3232 C   0  0  0  0  0  0  0  0  0  0  0  0
   24.5923   41.0656   25.0733 C   0  0  0  0  0  0  0  0  0  0  0  0
   22.8650   38.4202   23.3303 F   0  0  0  0  0  0  0  0  0  0  0  0
   27.1204   40.4974   22.3988 N   0  0  0  0  0  0  0  0  0  0  0  0
   26.8359   41.3134   21.2377 C   0  0  0  0  0  0  0  0  0  0  0  0
   26.3702   37.7355   21.4540 C   0  0  0  0  0  0  0  0  0  0  0  0
   24.2054   37.1708   18.6964 O   0  0  0  0  0  0  0  0  0  0  0  0
   25.9265   36.8845   20.2761 C   0  0  2  0  0  0  0  0  0  0  0  0
   26.9966   36.2566   19.4777 N   0  0  0  0  0  0  0  0  0  0  0  0
   28.0942   37.1562   19.0786 C   0  0  0  0  0  0  0  0  0  0  0  0
   27.4877   34.9964   20.0562 C   0  0  0  0  0  0  0  0  0  0  0  0
  1  5  1  0  0  0  0
  2 17  1  0  0  0  0
  3  1  1  0  0  0  0
  4  3  1  0  0  0  0
  4 26  1  1  0  0  0
  5 11  2  0  0  0  0
  5  6  1  0  0  0  0
  6  7  2  0  0  0  0
  7 21  1  0  0  0  0
  8 15  1  0  0  0  0
  8 16  2  0  0  0  0
  9 19  1  0  0  0  0
 10 18  1  0  0  0  0
 11 20  1  0  0  0  0
 13 14  1  0  0  0  0
 13 12  2  0  0  0  0
 15 13  1  1  0  0  0
 17 19  2  0  0  0  0
 17 15  1  0  0  0  0
 18  2  1  0  0  0  0
 18  9  2  0  0  0  0
 20 21  2  0  0  0  0
 20  2  1  0  0  0  0
 21  8  1  0  0  0  0
 22  6  1  0  0  0  0
 23 11  1  0  0  0  0
 23 10  1  0  0  0  0
 24 23  1  0  0  0  0
 25  1  1  0  0  0  0
 27  4  1  0  0  0  0
 27 25  1  0  0  0  0
 27 28  1  6  0  0  0
 29 28  1  0  0  0  0
 30 28  1  0  0  0  0
M  END
>  <CHROM.1>
83.68718733,-0.17257763,124.89581514,60.20032243,66.05038795,25.88015855
40.47469908,23.49822689,1.56098178,-0.30393537,-2.31838686

>  <Name>
lig.pdb

>  <RI>
0

>  <Rbt.Current_Directory>
/home/itssahil/PROJECTS/Mol_Feturizer/New_Systems/rnas/6bfb

>  <Rbt.Executable>
rbdock ($Id: //depot/dev/client3/rdock/2013.1/src/exe/rbdock.cxx#4 $)

>  <Rbt.Library>
libRbt.so (2013.1, Build901 2013/11/27)

>  <Rbt.Parameter_File>
/export/apps/rDock/src/rDock_2013.1_src/data/scripts/dock_solv.prm

>  <Rbt.Receptor>
prm/pocket_docking_5.prm

>  <SCORE>
-42.1071

>  <SCORE.INTER>
-35.7317

>  <SCORE.INTER.CONST>
1

>  <SCORE.INTER.POLAR>
-1.17161

>  <SCORE.INTER.ROT>
3

>  <SCORE.INTER.SOLV>
11.7355

>  <SCORE.INTER.VDW>
-29.4276

>  <SCORE.INTER.norm>
-1.19106

>  <SCORE.INTRA>
-6.37544

>  <SCORE.INTRA.DIHEDRAL>
-7.52916

>  <SCORE.INTRA.DIHEDRAL.0>
9.41909

>  <SCORE.INTRA.POLAR>
0

>  <SCORE.INTRA.POLAR.0>
0

>  <SCORE.INTRA.REPUL>
0

>  <SCORE.INTRA.REPUL.0>
0

>  <SCORE.INTRA.SOLV>
-0.145116

>  <SCORE.INTRA.SOLV.lig_0>
-26.2491

>  <SCORE.INTRA.VDW>
-2.5383

>  <SCORE.INTRA.VDW.0>
2.57239

>  <SCORE.INTRA.norm>
-0.212515

>  <SCORE.RESTR>
0

>  <SCORE.RESTR.CAVITY>
0

>  <SCORE.RESTR.norm>
0

>  <SCORE.SYSTEM>
0

>  <SCORE.SYSTEM.CONST>
0

>  <SCORE.SYSTEM.DIHEDRAL>
0

>  <SCORE.SYSTEM.SOLV>
0

>  <SCORE.SYSTEM.norm>
0

>  <SCORE.heavy>
30

>  <SCORE.norm>
-1.40357

>  <RMSD>
1.776

$$$$
lig.pdb
 OpenBabel11021811523D
libRbt.so/2013.1/901 2013/11/27
 30 34  0  0  0  0  0  0  0  0999 V2000
   25.5000   38.6812   21.6882 N   0  0  0  0  0  0  0  0  0  0  0  0
   26.6675   42.1849   24.9849 N   0  0  0  0  0  0  0  0  0  0  0  0
   24.9075   38.9701   20.3786 C   0  0  0  0  0  0  0  0  0  0  0  0
   25.6839   38.0259   19.4730 C   0  0  2  0  0  0  0  0  0  0  0  0
   25.1591   39.4961   22.8489 C   0  0  0  0  0  0  0  0  0  0  0  0
   23.9313   39.4012   23.5354 C   0  0  0  0  0  0  0  0  0  0  0  0
   23.5960   40.1862   24.6103 C   0  0  0  0  0  0  0  0  0  0  0  0
   24.1074   42.0328   26.2111 C   0  0  0  0  0  0  0  0  0  0  0  0
   28.7226   43.1091   25.1970 C   0  0  0  0  0  0  0  0  0  0  0  0
   28.3528   41.1080   23.5906 C   0  0  0  0  0  0  0  0  0  0  0  0
   26.0842   40.4593   23.3412 C   0  0  0  0  0  0  0  0  0  0  0  0
   25.1569   45.1734   27.6481 O   0  0  0  0  0  0  0  0  0  0  0  0
   24.7857   43.9992   27.7077 C   0  0  0  0  0  0  0  0  0  0  0  0
   24.0912   43.5211   28.7330 O   0  0  0  0  0  0  0  0  0  0  0  0
   25.1206   43.0391   26.6225 C   0  0  1  0  0  0  0  0  0  0  0  0
   23.0227   41.9035   26.7889 O   0  0  0  0  0  0  0  0  0  0  0  0
   26.3868   43.0811   26.0136 C   0  0  0  0  0  0  0  0  0  0  0  0
   28.0000   42.1902   24.5491 C   0  0  0  0  0  0  0  0  0  0  0  0
   27.8113   43.9653   26.3707 S   0  0  0  0  0  0  0  0  0  0  0  0
   25.7487   41.2527   24.4618 C   0  0  0  0  0  0  0  0  0  0  0  0
   24.4950   41.1422   25.0828 C   0  0  0  0  0  0  0  0  0  0  0  0
   23.0363   38.4731   23.1416 F   0  0  0  0  0  0  0  0  0  0  0  0
   27.3043   40.6786   22.6828 N   0  0  0  0  0  0  0  0  0  0  0  0
   27.1196   41.5015   21.5065 C   0  0  0  0  0  0  0  0  0  0  0  0
   26.8118   38.0575   21.5550 C   0  0  0  0  0  0  0  0  0  0  0  0
   24.8137   37.1410   18.7662 O   0  0  0  0  0  0  0  0  0  0  0  0
   26.5236   37.1337   20.3836 C   0  0  2  0  0  0  0  0  0  0  0  0
   27.6913   36.6589   19.6170 N   0  0  0  0  0  0  0  0  0  0  0  0
   27.4065   35.6081   18.6230 C   0  0  0  0  0  0  0  0  0  0  0  0
   28.5018   37.7524   19.0592 C   0  0  0  0  0  0  0  0  0  0  0  0
  1  5  1  0  0  0  0
  2 17  1  0  0  0  0
  3  1  1  0  0  0  0
  4  3  1  0  0  0  0
  4 26  1  1  0  0  0
  5 11  2  0  0  0  0
  5  6  1  0  0  0  0
  6  7  2  0  0  0  0
  7 21  1  0  0  0  0
  8 15  1  0  0  0  0
  8 16  2  0  0  0  0
  9 19  1  0  0  0  0
 10 18  1  0  0  0  0
 11 20  1  0  0  0  0
 13 14  1  0  0  0  0
 13 12  2  0  0  0  0
 15 13  1  1  0  0  0
 17 19  2  0  0  0  0
 17 15  1  0  0  0  0
 18  2  1  0  0  0  0
 18  9  2  0  0  0  0
 20 21  2  0  0  0  0
 20  2  1  0  0  0  0
 21  8  1  0  0  0  0
 22  6  1  0  0  0  0
 23 11  1  0  0  0  0
 23 10  1  0  0  0  0
 24 23  1  0  0  0  0
 25  1  1  0  0  0  0
 27  4  1  0  0  0  0
 27 25  1  0  0  0  0
 27 28  1  6  0  0  0
 29 28  1  0  0  0  0
 30 28  1  0  0  0  0
M  END
>  <CHROM.1>
75.16432069,-1.87544664,-141.56246250,63.23377876,-74.76045264,25.92610757
40.62650795,23.57822286,1.47624158,-0.33272288,-2.30570543

>  <Name>
lig.pdb

>  <RI>
0

>  <Rbt.Current_Directory>
/home/itssahil/PROJECTS/Mol_Feturizer/New_Systems/rnas/6bfb

>  <Rbt.Executable>
rbdock ($Id: //depot/dev/client3/rdock/2013.1/src/exe/rbdock.cxx#4 $)

>  <Rbt.Library>
libRbt.so (2013.1, Build901 2013/11/27)

>  <Rbt.Parameter_File>
/export/apps/rDock/src/rDock_2013.1_src/data/scripts/dock_solv.prm

>  <Rbt.Receptor>
prm/blind_docking_60.prm

>  <SCORE>
-38.5451

>  <SCORE.INTER>
-33.9513

>  <SCORE.INTER.CONST>
1

>  <SCORE.INTER.POLAR>
-0.893206

>  <SCORE.INTER.ROT>
3

>  <SCORE.INTER.SOLV>
10.754

>  <SCORE.INTER.VDW>
-28.8415

>  <SCORE.INTER.norm>
-1.13171

>  <SCORE.INTRA>
-4.59374

>  <SCORE.INTRA.DIHEDRAL>
-7.50837

>  <SCORE.INTRA.DIHEDRAL.0>
9.41909

>  <SCORE.INTRA.POLAR>
0

>  <SCORE.INTRA.POLAR.0>
0

>  <SCORE.INTRA.REPUL>
0

>  <SCORE.INTRA.REPUL.0>
0

>  <SCORE.INTRA.SOLV>
0.165363

>  <SCORE.INTRA.SOLV.lig_0>
-26.2491

>  <SCORE.INTRA.VDW>
-0.922233

>  <SCORE.INTRA.VDW.0>
2.57239

>  <SCORE.INTRA.norm>
-0.153125

>  <SCORE.RESTR>
0

>  <SCORE.RESTR.CAVITY>
0

>  <SCORE.RESTR.norm>
0

>  <SCORE.SYSTEM>
0

>  <SCORE.SYSTEM.CONST>
0

>  <SCORE.SYSTEM.DIHEDRAL>
0

>  <SCORE.SYSTEM.SOLV>
0

>  <SCORE.SYSTEM.norm>
0

>  <SCORE.heavy>
30

>  <SCORE.norm>
-1.28484

>  <RMSD>
1.779

$$$$
lig.pdb
 OpenBabel11021811523D
libRbt.so/2013.1/901 2013/11/27
 30 34  0  0  0  0  0  0  0  0999 V2000
   25.2145   38.4244   21.4568 N   0  0  0  0  0  0  0  0  0  0  0  0
   27.0758   41.8283   24.5319 N   0  0  0  0  0  0  0  0  0  0  0  0
   24.6583   38.8661   20.1743 C   0  0  0  0  0  0  0  0  0  0  0  0
   25.1837   37.7991   19.2256 C   0  0  2  0  0  0  0  0  0  0  0  0
   25.0939   39.2650   22.6427 C   0  0  0  0  0  0  0  0  0  0  0  0
   23.9633   39.2684   23.4851 C   0  0  0  0  0  0  0  0  0  0  0  0
   23.8347   40.0786   24.5855 C   0  0  0  0  0  0  0  0  0  0  0  0
   24.6949   41.8807   26.0842 C   0  0  0  0  0  0  0  0  0  0  0  0
   29.2069   42.5871   24.4626 C   0  0  0  0  0  0  0  0  0  0  0  0
   28.4738   40.6198   22.9416 C   0  0  0  0  0  0  0  0  0  0  0  0
   26.1483   40.1525   22.9987 C   0  0  0  0  0  0  0  0  0  0  0  0
   24.7831   44.5943   27.4922 O   0  0  0  0  0  0  0  0  0  0  0  0
   25.7159   43.7889   27.4565 C   0  0  0  0  0  0  0  0  0  0  0  0
   26.6706   43.7608   28.3784 O   0  0  0  0  0  0  0  0  0  0  0  0
   25.8291   42.8041   26.3480 C   0  0  1  0  0  0  0  0  0  0  0  0
   23.6888   41.8384   26.8005 O   0  0  0  0  0  0  0  0  0  0  0  0
   27.0037   42.7451   25.5781 C   0  0  0  0  0  0  0  0  0  0  0  0
   28.3358   41.7277   23.9254 C   0  0  0  0  0  0  0  0  0  0  0  0
   28.5276   43.5142   25.7355 S   0  0  0  0  0  0  0  0  0  0  0  0
   26.0261   40.9712   24.1443 C   0  0  0  0  0  0  0  0  0  0  0  0
   24.8601   40.9609   24.9252 C   0  0  0  0  0  0  0  0  0  0  0  0
   22.9544   38.4136   23.2224 F   0  0  0  0  0  0  0  0  0  0  0  0
   27.2847   40.2738   22.1837 N   0  0  0  0  0  0  0  0  0  0  0  0
   27.0121   41.1074   21.0323 C   0  0  0  0  0  0  0  0  0  0  0  0
   26.3556   37.5361   21.2665 C   0  0  0  0  0  0  0  0  0  0  0  0
   24.1214   37.1401   18.5350 O   0  0  0  0  0  0  0  0  0  0  0  0
   25.8385   36.7250   20.0904 C   0  0  2  0  0  0  0  0  0  0  0  0
   26.8516   36.0286   19.2748 N   0  0  0  0  0  0  0  0  0  0  0  0
   28.0187   36.8433   18.8906 C   0  0  0  0  0  0  0  0  0  0  0  0
   27.2387   34.7203   19.8247 C   0  0  0  0  0  0  0  0  0  0  0  0
  1  5  1  0  0  0  0
  2 17  1  0  0  0  0
  3  1  1  0  0  0  0
  4  3  1  0  0  0  0
  4 26  1  1  0  0  0
  5 11  2  0  0  0  0
  5  6  1  0  0  0  0
  6  7  2  0  0  0  0
  7 21  1  0  0  0  0
  8 15  1  0  0  0  0
  8 16  2  0  0  0  0
  9 19  1  0  0  0  0
 10 18  1  0  0  0  0
 11 20  1  0  0  0  0
 13 14  1  0  0  0  0
 13 12  2  0  0  0  0
 15 13  1  1  0  0  0
 17 19  2  0  0  0  0
 17 15  1  0  0  0  0
 18  2  1  0  0  0  0
 18  9  2  0  0  0  0
 20 21  2  0  0  0  0
 20  2  1  0  0  0  0
 21  8  1  0  0  0  0
 22  6  1  0  0  0  0
 23 11  1  0  0  0  0
 23 10  1  0  0  0  0
 24 23  1  0  0  0  0
 25  1  1  0  0  0  0
 27  4  1  0  0  0  0
 27 25  1  0  0  0  0
 27 28  1  6  0  0  0
 29 28  1  0  0  0  0
 30 28  1  0  0  0  0
M  END
>  <CHROM.1>
85.00968075,1.48991606,-56.46283558,61.09875655,67.34197908,26.08603340,40.30247455
23.32290859,1.62503523,-0.28692762,-2.29616527

>  <Name>
lig.pdb

>  <RI>
0

>  <Rbt.Current_Directory>
/home/itssahil/PROJECTS/Mol_Feturizer/New_Systems/rnas/6bfb

>  <Rbt.Executable>
rbdock ($Id: //depot/dev/client3/rdock/2013.1/src/exe/rbdock.cxx#4 $)

>  <Rbt.Library>
libRbt.so (2013.1, Build901 2013/11/27)

>  <Rbt.Parameter_File>
/export/apps/rDock/src/rDock_2013.1_src/data/scripts/dock_solv.prm

>  <Rbt.Receptor>
prm/pocket_docking_4.prm

>  <SCORE>
-42.0709

>  <SCORE.INTER>
-35.6435

>  <SCORE.INTER.CONST>
1

>  <SCORE.INTER.POLAR>
-1.12178

>  <SCORE.INTER.ROT>
3

>  <SCORE.INTER.SOLV>
12.0952

>  <SCORE.INTER.VDW>
-29.6548

>  <SCORE.INTER.norm>
-1.18812

>  <SCORE.INTRA>
-6.4274

>  <SCORE.INTRA.DIHEDRAL>
-7.46758

>  <SCORE.INTRA.DIHEDRAL.0>
9.41909

>  <SCORE.INTRA.POLAR>
0

>  <SCORE.INTRA.POLAR.0>
0

>  <SCORE.INTRA.REPUL>
0

>  <SCORE.INTRA.REPUL.0>
0

>  <SCORE.INTRA.SOLV>
-0.160366

>  <SCORE.INTRA.SOLV.lig_0>
-26.2491

>  <SCORE.INTRA.VDW>
-2.61343

>  <SCORE.INTRA.VDW.0>
2.57239

>  <SCORE.INTRA.norm>
-0.214247

>  <SCORE.RESTR>
0

>  <SCORE.RESTR.CAVITY>
0

>  <SCORE.RESTR.norm>
0

>  <SCORE.SYSTEM>
0

>  <SCORE.SYSTEM.CONST>
0

>  <SCORE.SYSTEM.DIHEDRAL>
0

>  <SCORE.SYSTEM.SOLV>
0

>  <SCORE.SYSTEM.norm>
0

>  <SCORE.heavy>
30

>  <SCORE.norm>
-1.40236

>  <RMSD>
1.780

$$$$
lig.pdb
 OpenBabel11021811523D
libRbt.so/2013.1/901 2013/11/27
 30 34  0  0  0  0  0  0  0  0999 V2000
   24.5165   38.4651   21.7618 N   0  0  0  0  0  0  0  0  0  0  0  0
   26.6382   42.0461   24.4417 N   0  0  0  0  0  0  0  0  0  0  0  0
   25.7590   37.8250   21.3191 C   0  0  0  0  0  0  0  0  0  0  0  0
   25.2504   36.8684   20.2511 C   0  0  2  0  0  0  0  0  0  0  0  0
   24.5156   39.3561   22.9166 C   0  0  0  0  0  0  0  0  0  0  0  0
   23.4943   39.3730   23.8884 C   0  0  0  0  0  0  0  0  0  0  0  0
   23.4760   40.2295   24.9607 C   0  0  0  0  0  0  0  0  0  0  0  0
   24.4597   42.1167   26.2664 C   0  0  0  0  0  0  0  0  0  0  0  0
   28.7242   42.8478   24.0832 C   0  0  0  0  0  0  0  0  0  0  0  0
   27.8685   40.7975   22.7472 C   0  0  0  0  0  0  0  0  0  0  0  0
   25.5803   40.2820   23.1045 C   0  0  0  0  0  0  0  0  0  0  0  0
   24.7001   44.9651   27.4674 O   0  0  0  0  0  0  0  0  0  0  0  0
   25.5848   44.1076   27.4228 C   0  0  0  0  0  0  0  0  0  0  0  0
   26.5791   44.0613   28.3010 O   0  0  0  0  0  0  0  0  0  0  0  0
   25.5915   43.0760   26.3517 C   0  0  1  0  0  0  0  0  0  0  0  0
   23.5480   42.0849   27.1000 O   0  0  0  0  0  0  0  0  0  0  0  0
   26.6668   43.0079   25.4488 C   0  0  0  0  0  0  0  0  0  0  0  0
   27.8189   41.9457   23.6923 C   0  0  0  0  0  0  0  0  0  0  0  0
   28.1769   43.8168   25.3882 S   0  0  0  0  0  0  0  0  0  0  0  0
   25.5736   41.1492   24.2205 C   0  0  0  0  0  0  0  0  0  0  0  0
   24.5101   41.1489   25.1362 C   0  0  0  0  0  0  0  0  0  0  0  0
   22.4850   38.4850   23.7862 F   0  0  0  0  0  0  0  0  0  0  0  0
   26.6073   40.3910   22.1539 N   0  0  0  0  0  0  0  0  0  0  0  0
   26.1761   41.1650   21.0093 C   0  0  0  0  0  0  0  0  0  0  0  0
   23.3497   37.6585   21.4220 C   0  0  0  0  0  0  0  0  0  0  0  0
   25.8778   37.1061   18.9903 O   0  0  0  0  0  0  0  0  0  0  0  0
   23.7730   37.1893   20.0402 C   0  0  2  0  0  0  0  0  0  0  0  0
   23.1060   35.9791   19.5231 N   0  0  0  0  0  0  0  0  0  0  0  0
   21.6387   35.9606   19.6638 C   0  0  0  0  0  0  0  0  0  0  0  0
   23.5433   35.6109   18.1677 C   0  0  0  0  0  0  0  0  0  0  0  0
  1  5  1  0  0  0  0
  2 17  1  0  0  0  0
  3  1  1  0  0  0  0
  4  3  1  0  0  0  0
  4 26  1  6  0  0  0
  5 11  2  0  0  0  0
  5  6  1  0  0  0  0
  6  7  2  0  0  0  0
  7 21  1  0  0  0  0
  8 15  1  0  0  0  0
  8 16  2  0  0  0  0
  9 19  1  0  0  0  0
 10 18  1  0  0  0  0
 11 20  1  0  0  0  0
 13 14  1  0  0  0  0
 13 12  2  0  0  0  0
 15 13  1  1  0  0  0
 17 19  2  0  0  0  0
 17 15  1  0  0  0  0
 18  2  1  0  0  0  0
 18  9  2  0  0  0  0
 20 21  2  0  0  0  0
 20  2  1  0  0  0  0
 21  8  1  0  0  0  0
 22  6  1  0  0  0  0
 23 11  1  0  0  0  0
 23 10  1  0  0  0  0
 24 23  1  0  0  0  0
 25  1  1  0  0  0  0
 27  4  1  0  0  0  0
 27 25  1  0  0  0  0
 27 28  1  1  0  0  0
 29 28  1  0  0  0  0
 30 28  1  0  0  0  0
M  END
>  <CHROM.1>
-139.60962855,179.99442686,-62.73255240,-59.84614404,161.36348794,25.26640974
40.40163217,23.41680772,1.86309014,-0.44601531,-2.24556959

>  <Name>
lig.pdb

>  <RI>
0

>  <Rbt.Current_Directory>
/home/itssahil/PROJECTS/Mol_Feturizer/New_Systems/rnas/6bfb

>  <Rbt.Executable>
rbdock ($Id: //depot/dev/client3/rdock/2013.1/src/exe/rbdock.cxx#4 $)

>  <Rbt.Library>
libRbt.so (2013.1, Build901 2013/11/27)

>  <Rbt.Parameter_File>
/export/apps/rDock/src/rDock_2013.1_src/data/scripts/dock_solv.prm

>  <Rbt.Receptor>
prm/pocket_docking_7.prm

>  <SCORE>
-39.6783

>  <SCORE.INTER>
-36.4921

>  <SCORE.INTER.CONST>
1

>  <SCORE.INTER.POLAR>
0

>  <SCORE.INTER.ROT>
3

>  <SCORE.INTER.SOLV>
13.0258

>  <SCORE.INTER.VDW>
-34.27

>  <SCORE.INTER.norm>
-1.2164

>  <SCORE.INTRA>
-3.18619

>  <SCORE.INTRA.DIHEDRAL>
-7.48767

>  <SCORE.INTRA.DIHEDRAL.0>
9.41909

>  <SCORE.INTRA.POLAR>
0

>  <SCORE.INTRA.POLAR.0>
0

>  <SCORE.INTRA.REPUL>
0

>  <SCORE.INTRA.REPUL.0>
0

>  <SCORE.INTRA.SOLV>
-0.120696

>  <SCORE.INTRA.SOLV.lig_0>
-26.2491

>  <SCORE.INTRA.VDW>
0.617997

>  <SCORE.INTRA.VDW.0>
2.57239

>  <SCORE.INTRA.norm>
-0.106206

>  <SCORE.RESTR>
0

>  <SCORE.RESTR.CAVITY>
0

>  <SCORE.RESTR.norm>
0

>  <SCORE.SYSTEM>
0

>  <SCORE.SYSTEM.CONST>
0

>  <SCORE.SYSTEM.DIHEDRAL>
0

>  <SCORE.SYSTEM.SOLV>
0

>  <SCORE.SYSTEM.norm>
0

>  <SCORE.heavy>
30

>  <SCORE.norm>
-1.32261

>  <RMSD>
1.783

$$$$
lig.pdb
 OpenBabel11021811523D
libRbt.so/2013.1/901 2013/11/27
 30 34  0  0  0  0  0  0  0  0999 V2000
   25.1630   38.5602   21.6315 N   0  0  0  0  0  0  0  0  0  0  0  0
   26.7757   42.0693   24.7287 N   0  0  0  0  0  0  0  0  0  0  0  0
   24.5882   38.9458   20.3390 C   0  0  0  0  0  0  0  0  0  0  0  0
   25.1995   37.9099   19.4075 C   0  0  2  0  0  0  0  0  0  0  0  0
   24.9697   39.4027   22.8063 C   0  0  0  0  0  0  0  0  0  0  0  0
   23.8167   39.3593   23.6166 C   0  0  0  0  0  0  0  0  0  0  0  0
   23.6193   40.1705   24.7061 C   0  0  0  0  0  0  0  0  0  0  0  0
   24.3519   42.0215   26.2131 C   0  0  0  0  0  0  0  0  0  0  0  0
   28.8704   42.9263   24.7128 C   0  0  0  0  0  0  0  0  0  0  0  0
   28.2731   40.9161   23.1884 C   0  0  0  0  0  0  0  0  0  0  0  0
   25.9711   40.3411   23.1842 C   0  0  0  0  0  0  0  0  0  0  0  0
   26.0078   44.0086   28.5645 O   0  0  0  0  0  0  0  0  0  0  0  0
   25.2435   43.9850   27.5973 C   0  0  0  0  0  0  0  0  0  0  0  0
   24.2110   44.8113   27.4830 O   0  0  0  0  0  0  0  0  0  0  0  0
   25.4339   42.9987   26.5007 C   0  0  1  0  0  0  0  0  0  0  0  0
   23.3289   41.9373   26.9011 O   0  0  0  0  0  0  0  0  0  0  0  0
   26.6314   42.9892   25.7646 C   0  0  0  0  0  0  0  0  0  0  0  0
   28.0558   42.0233   24.1587 C   0  0  0  0  0  0  0  0  0  0  0  0
   28.1128   43.8297   25.9583 S   0  0  0  0  0  0  0  0  0  0  0  0
   25.7785   41.1613   24.3190 C   0  0  0  0  0  0  0  0  0  0  0  0
   24.5925   41.1022   25.0670 C   0  0  0  0  0  0  0  0  0  0  0  0
   22.8565   38.4565   23.3330 F   0  0  0  0  0  0  0  0  0  0  0  0
   27.1234   40.5095   22.4005 N   0  0  0  0  0  0  0  0  0  0  0  0
   26.8451   41.3212   21.2349 C   0  0  0  0  0  0  0  0  0  0  0  0
   26.3678   37.7560   21.4615 C   0  0  0  0  0  0  0  0  0  0  0  0
   24.1949   37.1671   18.7154 O   0  0  0  0  0  0  0  0  0  0  0  0
   25.9228   36.8963   20.2905 C   0  0  2  0  0  0  0  0  0  0  0  0
   26.9920   36.2671   19.4920 N   0  0  0  0  0  0  0  0  0  0  0  0
   28.0822   37.1692   19.0785 C   0  0  0  0  0  0  0  0  0  0  0  0
   27.4935   35.0152   20.0794 C   0  0  0  0  0  0  0  0  0  0  0  0
  1  5  1  0  0  0  0
  2 17  1  0  0  0  0
  3  1  1  0  0  0  0
  4  3  1  0  0  0  0
  4 26  1  1  0  0  0
  5 11  2  0  0  0  0
  5  6  1  0  0  0  0
  6  7  2  0  0  0  0
  7 21  1  0  0  0  0
  8 15  1  0  0  0  0
  8 16  2  0  0  0  0
  9 19  1  0  0  0  0
 10 18  1  0  0  0  0
 11 20  1  0  0  0  0
 13 14  1  0  0  0  0
 13 12  2  0  0  0  0
 15 13  1  1  0  0  0
 17 19  2  0  0  0  0
 17 15  1  0  0  0  0
 18  2  1  0  0  0  0
 18  9  2  0  0  0  0
 20 21  2  0  0  0  0
 20  2  1  0  0  0  0
 21  8  1  0  0  0  0
 22  6  1  0  0  0  0
 23 11  1  0  0  0  0
 23 10  1  0  0  0  0
 24 23  1  0  0  0  0
 25  1  1  0  0  0  0
 27  4  1  0  0  0  0
 27 25  1  0  0  0  0
 27 28  1  6  0  0  0
 29 28  1  0  0  0  0
 30 28  1  0  0  0  0
M  END
>  <CHROM.1>
83.11832536,0.17210886,119.26991972,60.97349513,65.80266243,25.88150028,40.49978199
23.49600126,1.56257611,-0.29967327,-2.32217016

>  <Name>
lig.pdb

>  <RI>
0

>  <Rbt.Current_Directory>
/home/itssahil/PROJECTS/Mol_Feturizer/New_Systems/rnas/6bfb

>  <Rbt.Executable>
rbdock ($Id: //depot/dev/client3/rdock/2013.1/src/exe/rbdock.cxx#4 $)

>  <Rbt.Library>
libRbt.so (2013.1, Build901 2013/11/27)

>  <Rbt.Parameter_File>
/export/apps/rDock/src/rDock_2013.1_src/data/scripts/dock_solv.prm

>  <Rbt.Receptor>
prm/blind_docking_80.prm

>  <SCORE>
-42.0899

>  <SCORE.INTER>
-35.6716

>  <SCORE.INTER.CONST>
1

>  <SCORE.INTER.POLAR>
-1.17143

>  <SCORE.INTER.ROT>
3

>  <SCORE.INTER.SOLV>
11.7236

>  <SCORE.INTER.VDW>
-29.3842

>  <SCORE.INTER.norm>
-1.18905

>  <SCORE.INTRA>
-6.41824

>  <SCORE.INTRA.DIHEDRAL>
-7.53152

>  <SCORE.INTRA.DIHEDRAL.0>
9.41909

>  <SCORE.INTRA.POLAR>
0

>  <SCORE.INTRA.POLAR.0>
0

>  <SCORE.INTRA.REPUL>
0

>  <SCORE.INTRA.REPUL.0>
0

>  <SCORE.INTRA.SOLV>
-0.154691

>  <SCORE.INTRA.SOLV.lig_0>
-26.2491

>  <SCORE.INTRA.VDW>
-2.57513

>  <SCORE.INTRA.VDW.0>
2.57239

>  <SCORE.INTRA.norm>
-0.213941

>  <SCORE.RESTR>
0

>  <SCORE.RESTR.CAVITY>
0

>  <SCORE.RESTR.norm>
0

>  <SCORE.SYSTEM>
0

>  <SCORE.SYSTEM.CONST>
0

>  <SCORE.SYSTEM.DIHEDRAL>
0

>  <SCORE.SYSTEM.SOLV>
0

>  <SCORE.SYSTEM.norm>
0

>  <SCORE.heavy>
30

>  <SCORE.norm>
-1.403

>  <RMSD>
1.788

$$$$
lig.pdb
 OpenBabel11021811523D
libRbt.so/2013.1/901 2013/11/27
 30 34  0  0  0  0  0  0  0  0999 V2000
   25.2167   38.5778   21.6211 N   0  0  0  0  0  0  0  0  0  0  0  0
   26.8111   42.0418   24.7780 N   0  0  0  0  0  0  0  0  0  0  0  0
   24.6218   38.9593   20.3366 C   0  0  0  0  0  0  0  0  0  0  0  0
   25.2486   37.9447   19.3922 C   0  0  2  0  0  0  0  0  0  0  0  0
   25.0143   39.4070   22.8039 C   0  0  0  0  0  0  0  0  0  0  0  0
   23.8523   39.3593   23.6009 C   0  0  0  0  0  0  0  0  0  0  0  0
   23.6466   40.1582   24.6978 C   0  0  0  0  0  0  0  0  0  0  0  0
   24.3709   41.9875   26.2350 C   0  0  0  0  0  0  0  0  0  0  0  0
   28.9098   42.8892   24.7954 C   0  0  0  0  0  0  0  0  0  0  0  0
   28.3201   40.9002   23.2404 C   0  0  0  0  0  0  0  0  0  0  0  0
   26.0158   40.3361   23.2040 C   0  0  0  0  0  0  0  0  0  0  0  0
   25.9351   44.9572   27.7179 O   0  0  0  0  0  0  0  0  0  0  0  0
   25.2562   43.9301   27.6525 C   0  0  0  0  0  0  0  0  0  0  0  0
   24.3344   43.6247   28.5575 O   0  0  0  0  0  0  0  0  0  0  0  0
   25.4541   42.9561   26.5462 C   0  0  1  0  0  0  0  0  0  0  0  0
   23.3400   41.8998   26.9107 O   0  0  0  0  0  0  0  0  0  0  0  0
   26.6596   42.9498   25.8233 C   0  0  0  0  0  0  0  0  0  0  0  0
   28.0972   41.9967   24.2215 C   0  0  0  0  0  0  0  0  0  0  0  0
   28.1426   43.7810   26.0433 S   0  0  0  0  0  0  0  0  0  0  0  0
   25.8143   41.1435   24.3464 C   0  0  0  0  0  0  0  0  0  0  0  0
   24.6199   41.0809   25.0806 C   0  0  0  0  0  0  0  0  0  0  0  0
   22.8912   38.4644   23.2959 F   0  0  0  0  0  0  0  0  0  0  0  0
   27.1773   40.5085   22.4351 N   0  0  0  0  0  0  0  0  0  0  0  0
   26.9157   41.3354   21.2764 C   0  0  0  0  0  0  0  0  0  0  0  0
   26.4383   37.8031   21.4348 C   0  0  0  0  0  0  0  0  0  0  0  0
   24.2556   37.1838   18.7032 O   0  0  0  0  0  0  0  0  0  0  0  0
   26.0030   36.9417   20.2612 C   0  0  2  0  0  0  0  0  0  0  0  0
   27.0795   36.3434   19.4488 N   0  0  0  0  0  0  0  0  0  0  0  0
   28.1524   37.2703   19.0451 C   0  0  0  0  0  0  0  0  0  0  0  0
   27.6047   35.0913   20.0147 C   0  0  0  0  0  0  0  0  0  0  0  0
  1  5  1  0  0  0  0
  2 17  1  0  0  0  0
  3  1  1  0  0  0  0
  4  3  1  0  0  0  0
  4 26  1  1  0  0  0
  5 11  2  0  0  0  0
  5  6  1  0  0  0  0
  6  7  2  0  0  0  0
  7 21  1  0  0  0  0
  8 15  1  0  0  0  0
  8 16  2  0  0  0  0
  9 19  1  0  0  0  0
 10 18  1  0  0  0  0
 11 20  1  0  0  0  0
 13 14  1  0  0  0  0
 13 12  2  0  0  0  0
 15 13  1  1  0  0  0
 17 19  2  0  0  0  0
 17 15  1  0  0  0  0
 18  2  1  0  0  0  0
 18  9  2  0  0  0  0
 20 21  2  0  0  0  0
 20  2  1  0  0  0  0
 21  8  1  0  0  0  0
 22  6  1  0  0  0  0
 23 11  1  0  0  0  0
 23 10  1  0  0  0  0
 24 23  1  0  0  0  0
 25  1  1  0  0  0  0
 27  4  1  0  0  0  0
 27 25  1  0  0  0  0
 27 28  1  6  0  0  0
 29 28  1  0  0  0  0
 30 28  1  0  0  0  0
M  END
>  <CHROM.1>
81.14462972,0.10053393,-160.26973334,63.51327983,66.44442092,25.92578371
40.48884316,23.51994320,1.55718108,-0.32499666,-2.30648081

>  <Name>
lig.pdb

>  <RI>
0

>  <Rbt.Current_Directory>
/home/itssahil/PROJECTS/Mol_Feturizer/New_Systems/rnas/6bfb

>  <Rbt.Executable>
rbdock ($Id: //depot/dev/client3/rdock/2013.1/src/exe/rbdock.cxx#4 $)

>  <Rbt.Library>
libRbt.so (2013.1, Build901 2013/11/27)

>  <Rbt.Parameter_File>
/export/apps/rDock/src/rDock_2013.1_src/data/scripts/dock_solv.prm

>  <Rbt.Receptor>
prm/pocket_docking_4.prm

>  <SCORE>
-41.3896

>  <SCORE.INTER>
-35.782

>  <SCORE.INTER.CONST>
1

>  <SCORE.INTER.POLAR>
-1.10146

>  <SCORE.INTER.ROT>
3

>  <SCORE.INTER.SOLV>
11.7703

>  <SCORE.INTER.VDW>
-29.7065

>  <SCORE.INTER.norm>
-1.19273

>  <SCORE.INTRA>
-5.60758

>  <SCORE.INTRA.DIHEDRAL>
-7.4446

>  <SCORE.INTRA.DIHEDRAL.0>
9.41909

>  <SCORE.INTRA.POLAR>
0

>  <SCORE.INTRA.POLAR.0>
0

>  <SCORE.INTRA.REPUL>
0

>  <SCORE.INTRA.REPUL.0>
0

>  <SCORE.INTRA.SOLV>
-0.0681283

>  <SCORE.INTRA.SOLV.lig_0>
-26.2491

>  <SCORE.INTRA.VDW>
-1.85122

>  <SCORE.INTRA.VDW.0>
2.57239

>  <SCORE.INTRA.norm>
-0.186919

>  <SCORE.RESTR>
0

>  <SCORE.RESTR.CAVITY>
0

>  <SCORE.RESTR.norm>
0

>  <SCORE.SYSTEM>
0

>  <SCORE.SYSTEM.CONST>
0

>  <SCORE.SYSTEM.DIHEDRAL>
0

>  <SCORE.SYSTEM.SOLV>
0

>  <SCORE.SYSTEM.norm>
0

>  <SCORE.heavy>
30

>  <SCORE.norm>
-1.37965

>  <RMSD>
1.789

$$$$
lig.pdb
 OpenBabel11021811523D
libRbt.so/2013.1/901 2013/11/27
 30 34  0  0  0  0  0  0  0  0999 V2000
   25.1847   38.5783   21.6315 N   0  0  0  0  0  0  0  0  0  0  0  0
   26.7711   42.1264   24.6976 N   0  0  0  0  0  0  0  0  0  0  0  0
   24.6153   38.9655   20.3371 C   0  0  0  0  0  0  0  0  0  0  0  0
   25.2263   37.9277   19.4077 C   0  0  2  0  0  0  0  0  0  0  0  0
   24.9903   39.4215   22.8057 C   0  0  0  0  0  0  0  0  0  0  0  0
   23.8478   39.3606   23.6295 C   0  0  0  0  0  0  0  0  0  0  0  0
   23.6488   40.1721   24.7185 C   0  0  0  0  0  0  0  0  0  0  0  0
   24.3660   42.0412   26.2105 C   0  0  0  0  0  0  0  0  0  0  0  0
   28.8500   43.0203   24.6541 C   0  0  0  0  0  0  0  0  0  0  0  0
   28.2706   40.9944   23.1438 C   0  0  0  0  0  0  0  0  0  0  0  0
   25.9793   40.3787   23.1686 C   0  0  0  0  0  0  0  0  0  0  0  0
   26.0371   44.0935   28.5146 O   0  0  0  0  0  0  0  0  0  0  0  0
   25.2389   44.0252   27.5774 C   0  0  0  0  0  0  0  0  0  0  0  0
   24.1651   44.8013   27.4962 O   0  0  0  0  0  0  0  0  0  0  0  0
   25.4338   43.0384   26.4821 C   0  0  1  0  0  0  0  0  0  0  0  0
   23.3528   41.9414   26.9108 O   0  0  0  0  0  0  0  0  0  0  0  0
   26.6227   43.0474   25.7320 C   0  0  0  0  0  0  0  0  0  0  0  0
   28.0451   42.1010   24.1127 C   0  0  0  0  0  0  0  0  0  0  0  0
   28.0911   43.9146   25.9054 S   0  0  0  0  0  0  0  0  0  0  0  0
   25.7854   41.1995   24.3027 C   0  0  0  0  0  0  0  0  0  0  0  0
   24.6095   41.1221   25.0648 C   0  0  0  0  0  0  0  0  0  0  0  0
   22.9005   38.4399   23.3603 F   0  0  0  0  0  0  0  0  0  0  0  0
   27.1191   40.5646   22.3708 N   0  0  0  0  0  0  0  0  0  0  0  0
   26.8130   41.3671   21.2058 C   0  0  0  0  0  0  0  0  0  0  0  0
   26.3876   37.7703   21.4655 C   0  0  0  0  0  0  0  0  0  0  0  0
   24.2217   37.1879   18.7124 O   0  0  0  0  0  0  0  0  0  0  0  0
   25.9436   36.9118   20.2930 C   0  0  2  0  0  0  0  0  0  0  0  0
   27.0135   36.2793   19.4981 N   0  0  0  0  0  0  0  0  0  0  0  0
   28.1213   37.1717   19.1111 C   0  0  0  0  0  0  0  0  0  0  0  0
   27.4900   35.0118   20.0726 C   0  0  0  0  0  0  0  0  0  0  0  0
  1  5  1  0  0  0  0
  2 17  1  0  0  0  0
  3  1  1  0  0  0  0
  4  3  1  0  0  0  0
  4 26  1  1  0  0  0
  5 11  2  0  0  0  0
  5  6  1  0  0  0  0
  6  7  2  0  0  0  0
  7 21  1  0  0  0  0
  8 15  1  0  0  0  0
  8 16  2  0  0  0  0
  9 19  1  0  0  0  0
 10 18  1  0  0  0  0
 11 20  1  0  0  0  0
 13 14  1  0  0  0  0
 13 12  2  0  0  0  0
 15 13  1  1  0  0  0
 17 19  2  0  0  0  0
 17 15  1  0  0  0  0
 18  2  1  0  0  0  0
 18  9  2  0  0  0  0
 20 21  2  0  0  0  0
 20  2  1  0  0  0  0
 21  8  1  0  0  0  0
 22  6  1  0  0  0  0
 23 11  1  0  0  0  0
 23 10  1  0  0  0  0
 24 23  1  0  0  0  0
 25  1  1  0  0  0  0
 27  4  1  0  0  0  0
 27 25  1  0  0  0  0
 27 28  1  6  0  0  0
 29 28  1  0  0  0  0
 30 28  1  0  0  0  0
M  END
>  <CHROM.1>
84.59690843,0.64737387,121.53484167,63.48382389,66.98683280,25.88953908,40.53255342
23.48357615,1.55944102,-0.32040865,-2.32879112

>  <Name>
lig.pdb

>  <RI>
0

>  <Rbt.Current_Directory>
/home/itssahil/PROJECTS/Mol_Feturizer/New_Systems/rnas/6bfb

>  <Rbt.Executable>
rbdock ($Id: //depot/dev/client3/rdock/2013.1/src/exe/rbdock.cxx#4 $)

>  <Rbt.Library>
libRbt.so (2013.1, Build901 2013/11/27)

>  <Rbt.Parameter_File>
/export/apps/rDock/src/rDock_2013.1_src/data/scripts/dock_solv.prm

>  <Rbt.Receptor>
prm/pocket_docking_4.prm

>  <SCORE>
-42.1083

>  <SCORE.INTER>
-35.6927

>  <SCORE.INTER.CONST>
1

>  <SCORE.INTER.POLAR>
-1.13545

>  <SCORE.INTER.ROT>
3

>  <SCORE.INTER.SOLV>
11.6019

>  <SCORE.INTER.VDW>
-29.4776

>  <SCORE.INTER.norm>
-1.18976

>  <SCORE.INTRA>
-6.41565

>  <SCORE.INTRA.DIHEDRAL>
-7.43839

>  <SCORE.INTRA.DIHEDRAL.0>
9.41909

>  <SCORE.INTRA.POLAR>
0

>  <SCORE.INTRA.POLAR.0>
0

>  <SCORE.INTRA.REPUL>
0

>  <SCORE.INTRA.REPUL.0>
0

>  <SCORE.INTRA.SOLV>
-0.151368

>  <SCORE.INTRA.SOLV.lig_0>
-26.2491

>  <SCORE.INTRA.VDW>
-2.62078

>  <SCORE.INTRA.VDW.0>
2.57239

>  <SCORE.INTRA.norm>
-0.213855

>  <SCORE.RESTR>
0

>  <SCORE.RESTR.CAVITY>
0

>  <SCORE.RESTR.norm>
0

>  <SCORE.SYSTEM>
0

>  <SCORE.SYSTEM.CONST>
0

>  <SCORE.SYSTEM.DIHEDRAL>
0

>  <SCORE.SYSTEM.SOLV>
0

>  <SCORE.SYSTEM.norm>
0

>  <SCORE.heavy>
30

>  <SCORE.norm>
-1.40361

>  <RMSD>
1.790

$$$$
lig.pdb
 OpenBabel11021811523D
libRbt.so/2013.1/901 2013/11/27
 30 34  0  0  0  0  0  0  0  0999 V2000
   25.1805   38.5811   21.6273 N   0  0  0  0  0  0  0  0  0  0  0  0
   26.7573   42.1307   24.6968 N   0  0  0  0  0  0  0  0  0  0  0  0
   24.6062   38.9616   20.3331 C   0  0  0  0  0  0  0  0  0  0  0  0
   25.2230   37.9261   19.4049 C   0  0  2  0  0  0  0  0  0  0  0  0
   24.9820   39.4254   22.8001 C   0  0  0  0  0  0  0  0  0  0  0  0
   23.8363   39.3660   23.6195 C   0  0  0  0  0  0  0  0  0  0  0  0
   23.6336   40.1784   24.7070 C   0  0  0  0  0  0  0  0  0  0  0  0
   24.3462   42.0483   26.2003 C   0  0  0  0  0  0  0  0  0  0  0  0
   28.8369   43.0231   24.6608 C   0  0  0  0  0  0  0  0  0  0  0  0
   28.2620   40.9964   23.1498 C   0  0  0  0  0  0  0  0  0  0  0  0
   25.9702   40.3823   23.1661 C   0  0  0  0  0  0  0  0  0  0  0  0
   26.0096   44.1013   28.5093 O   0  0  0  0  0  0  0  0  0  0  0  0
   25.2150   44.0328   27.5691 C   0  0  0  0  0  0  0  0  0  0  0  0
   24.1421   44.8096   27.4830 O   0  0  0  0  0  0  0  0  0  0  0  0
   25.4136   43.0450   26.4753 C   0  0  1  0  0  0  0  0  0  0  0  0
   23.3301   41.9497   26.8967 O   0  0  0  0  0  0  0  0  0  0  0  0
   26.6054   43.0525   25.7299 C   0  0  0  0  0  0  0  0  0  0  0  0
   28.0335   42.1039   24.1170 C   0  0  0  0  0  0  0  0  0  0  0  0
   28.0737   43.9190   25.9083 S   0  0  0  0  0  0  0  0  0  0  0  0
   25.7725   41.2041   24.2988 C   0  0  0  0  0  0  0  0  0  0  0  0
   24.5935   41.1281   25.0563 C   0  0  0  0  0  0  0  0  0  0  0  0
   22.8894   38.4457   23.3473 F   0  0  0  0  0  0  0  0  0  0  0  0
   27.1133   40.5668   22.3726 N   0  0  0  0  0  0  0  0  0  0  0  0
   26.8123   41.3685   21.2058 C   0  0  0  0  0  0  0  0  0  0  0  0
   26.3889   37.7814   21.4610 C   0  0  0  0  0  0  0  0  0  0  0  0
   24.2226   37.1778   18.7128 O   0  0  0  0  0  0  0  0  0  0  0  0
   25.9491   36.9173   20.2911 C   0  0  2  0  0  0  0  0  0  0  0  0
   27.0220   36.2907   19.4957 N   0  0  0  0  0  0  0  0  0  0  0  0
   28.1138   37.1943   19.0895 C   0  0  0  0  0  0  0  0  0  0  0  0
   27.5214   35.0374   20.0818 C   0  0  0  0  0  0  0  0  0  0  0  0
  1  5  1  0  0  0  0
  2 17  1  0  0  0  0
  3  1  1  0  0  0  0
  4  3  1  0  0  0  0
  4 26  1  1  0  0  0
  5 11  2  0  0  0  0
  5  6  1  0  0  0  0
  6  7  2  0  0  0  0
  7 21  1  0  0  0  0
  8 15  1  0  0  0  0
  8 16  2  0  0  0  0
  9 19  1  0  0  0  0
 10 18  1  0  0  0  0
 11 20  1  0  0  0  0
 13 14  1  0  0  0  0
 13 12  2  0  0  0  0
 15 13  1  1  0  0  0
 17 19  2  0  0  0  0
 17 15  1  0  0  0  0
 18  2  1  0  0  0  0
 18  9  2  0  0  0  0
 20 21  2  0  0  0  0
 20  2  1  0  0  0  0
 21  8  1  0  0  0  0
 22  6  1  0  0  0  0
 23 11  1  0  0  0  0
 23 10  1  0  0  0  0
 24 23  1  0  0  0  0
 25  1  1  0  0  0  0
 27  4  1  0  0  0  0
 27 25  1  0  0  0  0
 27 28  1  6  0  0  0
 29 28  1  0  0  0  0
 30 28  1  0  0  0  0
M  END
>  <CHROM.1>
84.04179524,1.04236664,121.53230805,61.75495832,66.19303114,25.87976348,40.53821489
23.47956626,1.55663702,-0.31716356,-2.32951859

>  <Name>
lig.pdb

>  <RI>
0

>  <Rbt.Current_Directory>
/home/itssahil/PROJECTS/Mol_Feturizer/New_Systems/rnas/6bfb

>  <Rbt.Executable>
rbdock ($Id: //depot/dev/client3/rdock/2013.1/src/exe/rbdock.cxx#4 $)

>  <Rbt.Library>
libRbt.so (2013.1, Build901 2013/11/27)

>  <Rbt.Parameter_File>
/export/apps/rDock/src/rDock_2013.1_src/data/scripts/dock_solv.prm

>  <Rbt.Receptor>
prm/pocket_docking_4.prm

>  <SCORE>
-42.1836

>  <SCORE.INTER>
-35.7672

>  <SCORE.INTER.CONST>
1

>  <SCORE.INTER.POLAR>
-1.14233

>  <SCORE.INTER.ROT>
3

>  <SCORE.INTER.SOLV>
11.5492

>  <SCORE.INTER.VDW>
-29.4868

>  <SCORE.INTER.norm>
-1.19224

>  <SCORE.INTRA>
-6.41633

>  <SCORE.INTRA.DIHEDRAL>
-7.5074

>  <SCORE.INTRA.DIHEDRAL.0>
9.41909

>  <SCORE.INTRA.POLAR>
0

>  <SCORE.INTRA.POLAR.0>
0

>  <SCORE.INTRA.REPUL>
0

>  <SCORE.INTRA.REPUL.0>
0

>  <SCORE.INTRA.SOLV>
-0.151024

>  <SCORE.INTRA.SOLV.lig_0>
-26.2491

>  <SCORE.INTRA.VDW>
-2.58712

>  <SCORE.INTRA.VDW.0>
2.57239

>  <SCORE.INTRA.norm>
-0.213878

>  <SCORE.RESTR>
0

>  <SCORE.RESTR.CAVITY>
0

>  <SCORE.RESTR.norm>
0

>  <SCORE.SYSTEM>
0

>  <SCORE.SYSTEM.CONST>
0

>  <SCORE.SYSTEM.DIHEDRAL>
0

>  <SCORE.SYSTEM.SOLV>
0

>  <SCORE.SYSTEM.norm>
0

>  <SCORE.heavy>
30

>  <SCORE.norm>
-1.40612

>  <RMSD>
1.790

$$$$
lig.pdb
 OpenBabel11021811523D
libRbt.so/2013.1/901 2013/11/27
 30 34  0  0  0  0  0  0  0  0999 V2000
   25.1856   38.5906   21.6244 N   0  0  0  0  0  0  0  0  0  0  0  0
   26.7553   42.1373   24.7007 N   0  0  0  0  0  0  0  0  0  0  0  0
   24.6114   38.9714   20.3302 C   0  0  0  0  0  0  0  0  0  0  0  0
   25.2308   37.9381   19.4013 C   0  0  2  0  0  0  0  0  0  0  0  0
   24.9848   39.4333   22.7979 C   0  0  0  0  0  0  0  0  0  0  0  0
   23.8378   39.3721   23.6155 C   0  0  0  0  0  0  0  0  0  0  0  0
   23.6329   40.1830   24.7037 C   0  0  0  0  0  0  0  0  0  0  0  0
   24.3420   42.0514   26.2005 C   0  0  0  0  0  0  0  0  0  0  0  0
   28.8344   43.0312   24.6690 C   0  0  0  0  0  0  0  0  0  0  0  0
   28.2632   41.0060   23.1546 C   0  0  0  0  0  0  0  0  0  0  0  0
   25.9718   40.3904   23.1666 C   0  0  0  0  0  0  0  0  0  0  0  0
   26.0128   44.1181   28.5029 O   0  0  0  0  0  0  0  0  0  0  0  0
   25.2074   44.0348   27.5731 C   0  0  0  0  0  0  0  0  0  0  0  0
   24.1208   44.7936   27.4995 O   0  0  0  0  0  0  0  0  0  0  0  0
   25.4083   43.0485   26.4783 C   0  0  1  0  0  0  0  0  0  0  0  0
   23.3250   41.9513   26.8952 O   0  0  0  0  0  0  0  0  0  0  0  0
   26.6013   43.0578   25.7347 C   0  0  0  0  0  0  0  0  0  0  0  0
   28.0324   42.1122   24.1228 C   0  0  0  0  0  0  0  0  0  0  0  0
   28.0687   43.9250   25.9165 S   0  0  0  0  0  0  0  0  0  0  0  0
   25.7717   41.2106   24.3001 C   0  0  0  0  0  0  0  0  0  0  0  0
   24.5917   41.1329   25.0557 C   0  0  0  0  0  0  0  0  0  0  0  0
   22.8920   38.4515   23.3407 F   0  0  0  0  0  0  0  0  0  0  0  0
   27.1160   40.5766   22.3751 N   0  0  0  0  0  0  0  0  0  0  0  0
   26.8161   41.3796   21.2089 C   0  0  0  0  0  0  0  0  0  0  0  0
   26.3955   37.7933   21.4580 C   0  0  0  0  0  0  0  0  0  0  0  0
   24.2322   37.1886   18.7077 O   0  0  0  0  0  0  0  0  0  0  0  0
   25.9581   36.9297   20.2869 C   0  0  2  0  0  0  0  0  0  0  0  0
   27.0328   36.3060   19.4915 N   0  0  0  0  0  0  0  0  0  0  0  0
   28.1254   37.2110   19.0909 C   0  0  0  0  0  0  0  0  0  0  0  0
   27.5308   35.0505   20.0742 C   0  0  0  0  0  0  0  0  0  0  0  0
  1  5  1  0  0  0  0
  2 17  1  0  0  0  0
  3  1  1  0  0  0  0
  4  3  1  0  0  0  0
  4 26  1  1  0  0  0
  5 11  2  0  0  0  0
  5  6  1  0  0  0  0
  6  7  2  0  0  0  0
  7 21  1  0  0  0  0
  8 15  1  0  0  0  0
  8 16  2  0  0  0  0
  9 19  1  0  0  0  0
 10 18  1  0  0  0  0
 11 20  1  0  0  0  0
 13 14  1  0  0  0  0
 13 12  2  0  0  0  0
 15 13  1  1  0  0  0
 17 19  2  0  0  0  0
 17 15  1  0  0  0  0
 18  2  1  0  0  0  0
 18  9  2  0  0  0  0
 20 21  2  0  0  0  0
 20  2  1  0  0  0  0
 21  8  1  0  0  0  0
 22  6  1  0  0  0  0
 23 11  1  0  0  0  0
 23 10  1  0  0  0  0
 24 23  1  0  0  0  0
 25  1  1  0  0  0  0
 27  4  1  0  0  0  0
 27 25  1  0  0  0  0
 27 28  1  6  0  0  0
 29 28  1  0  0  0  0
 30 28  1  0  0  0  0
M  END
>  <CHROM.1>
83.95581673,-0.72266169,122.76908576,62.33869335,66.39379867,25.88063656
40.54577604,23.48016705,1.55494620,-0.31646743,-2.32864445

>  <Name>
lig.pdb

>  <RI>
0

>  <Rbt.Current_Directory>
/home/itssahil/PROJECTS/Mol_Feturizer/New_Systems/rnas/6bfb

>  <Rbt.Executable>
rbdock ($Id: //depot/dev/client3/rdock/2013.1/src/exe/rbdock.cxx#4 $)

>  <Rbt.Library>
libRbt.so (2013.1, Build901 2013/11/27)

>  <Rbt.Parameter_File>
/export/apps/rDock/src/rDock_2013.1_src/data/scripts/dock_solv.prm

>  <Rbt.Receptor>
prm/pocket_docking_8.prm

>  <SCORE>
-42.161

>  <SCORE.INTER>
-35.7556

>  <SCORE.INTER.CONST>
1

>  <SCORE.INTER.POLAR>
-1.13484

>  <SCORE.INTER.ROT>
3

>  <SCORE.INTER.SOLV>
11.5187

>  <SCORE.INTER.VDW>
-29.4938

>  <SCORE.INTER.norm>
-1.19185

>  <SCORE.INTRA>
-6.40549

>  <SCORE.INTRA.DIHEDRAL>
-7.48318

>  <SCORE.INTRA.DIHEDRAL.0>
9.41909

>  <SCORE.INTRA.POLAR>
0

>  <SCORE.INTRA.POLAR.0>
0

>  <SCORE.INTRA.REPUL>
0

>  <SCORE.INTRA.REPUL.0>
0

>  <SCORE.INTRA.SOLV>
-0.148797

>  <SCORE.INTRA.SOLV.lig_0>
-26.2491

>  <SCORE.INTRA.VDW>
-2.58951

>  <SCORE.INTRA.VDW.0>
2.57239

>  <SCORE.INTRA.norm>
-0.213516

>  <SCORE.RESTR>
0

>  <SCORE.RESTR.CAVITY>
0

>  <SCORE.RESTR.norm>
0

>  <SCORE.SYSTEM>
0

>  <SCORE.SYSTEM.CONST>
0

>  <SCORE.SYSTEM.DIHEDRAL>
0

>  <SCORE.SYSTEM.SOLV>
0

>  <SCORE.SYSTEM.norm>
0

>  <SCORE.heavy>
30

>  <SCORE.norm>
-1.40537

>  <RMSD>
1.790

$$$$
lig.pdb
 OpenBabel11021811523D
libRbt.so/2013.1/901 2013/11/27
 30 34  0  0  0  0  0  0  0  0999 V2000
   25.1786   38.5961   21.6272 N   0  0  0  0  0  0  0  0  0  0  0  0
   26.7667   42.1429   24.6941 N   0  0  0  0  0  0  0  0  0  0  0  0
   24.6153   38.9785   20.3287 C   0  0  0  0  0  0  0  0  0  0  0  0
   25.2283   37.9352   19.4067 C   0  0  2  0  0  0  0  0  0  0  0  0
   24.9808   39.4450   22.7967 C   0  0  0  0  0  0  0  0  0  0  0  0
   23.8310   39.3960   23.6111 C   0  0  0  0  0  0  0  0  0  0  0  0
   23.6291   40.2130   24.6954 C   0  0  0  0  0  0  0  0  0  0  0  0
   24.3482   42.0818   26.1868 C   0  0  0  0  0  0  0  0  0  0  0  0
   28.8527   43.0204   24.6651 C   0  0  0  0  0  0  0  0  0  0  0  0
   28.2703   40.9936   23.1571 C   0  0  0  0  0  0  0  0  0  0  0  0
   25.9742   40.3959   23.1646 C   0  0  0  0  0  0  0  0  0  0  0  0
   26.0271   44.1434   28.4869 O   0  0  0  0  0  0  0  0  0  0  0  0
   25.2250   44.0639   27.5540 C   0  0  0  0  0  0  0  0  0  0  0  0
   24.1456   44.8322   27.4731 O   0  0  0  0  0  0  0  0  0  0  0  0
   25.4215   43.0717   26.4639 C   0  0  1  0  0  0  0  0  0  0  0  0
   23.3284   41.9925   26.8788 O   0  0  0  0  0  0  0  0  0  0  0  0
   26.6167   43.0687   25.7239 C   0  0  0  0  0  0  0  0  0  0  0  0
   28.0453   42.1054   24.1201 C   0  0  0  0  0  0  0  0  0  0  0  0
   28.0903   43.9251   25.9067 S   0  0  0  0  0  0  0  0  0  0  0  0
   25.7771   41.2222   24.2941 C   0  0  0  0  0  0  0  0  0  0  0  0
   24.5942   41.1568   25.0464 C   0  0  0  0  0  0  0  0  0  0  0  0
   22.8788   38.4818   23.3371 F   0  0  0  0  0  0  0  0  0  0  0  0
   27.1221   40.5700   22.3759 N   0  0  0  0  0  0  0  0  0  0  0  0
   26.8321   41.3706   21.2055 C   0  0  0  0  0  0  0  0  0  0  0  0
   26.3807   37.7852   21.4699 C   0  0  0  0  0  0  0  0  0  0  0  0
   24.2252   37.1941   18.7105 O   0  0  0  0  0  0  0  0  0  0  0  0
   25.9400   36.9222   20.2996 C   0  0  2  0  0  0  0  0  0  0  0  0
   27.0120   36.2840   19.5120 N   0  0  0  0  0  0  0  0  0  0  0  0
   28.1101   37.1787   19.1031 C   0  0  0  0  0  0  0  0  0  0  0  0
   27.5024   35.0320   20.1085 C   0  0  0  0  0  0  0  0  0  0  0  0
  1  5  1  0  0  0  0
  2 17  1  0  0  0  0
  3  1  1  0  0  0  0
  4  3  1  0  0  0  0
  4 26  1  1  0  0  0
  5 11  2  0  0  0  0
  5  6  1  0  0  0  0
  6  7  2  0  0  0  0
  7 21  1  0  0  0  0
  8 15  1  0  0  0  0
  8 16  2  0  0  0  0
  9 19  1  0  0  0  0
 10 18  1  0  0  0  0
 11 20  1  0  0  0  0
 13 14  1  0  0  0  0
 13 12  2  0  0  0  0
 15 13  1  1  0  0  0
 17 19  2  0  0  0  0
 17 15  1  0  0  0  0
 18  2  1  0  0  0  0
 18  9  2  0  0  0  0
 20 21  2  0  0  0  0
 20  2  1  0  0  0  0
 21  8  1  0  0  0  0
 22  6  1  0  0  0  0
 23 11  1  0  0  0  0
 23 10  1  0  0  0  0
 24 23  1  0  0  0  0
 25  1  1  0  0  0  0
 27  4  1  0  0  0  0
 27 25  1  0  0  0  0
 27 28  1  6  0  0  0
 29 28  1  0  0  0  0
 30 28  1  0  0  0  0
M  END
>  <CHROM.1>
84.17188809,1.00681025,122.67006466,62.86035384,65.83781242,25.88331835,40.55311867
23.47740071,1.55829454,-0.30883452,-2.33174808

>  <Name>
lig.pdb

>  <RI>
0

>  <Rbt.Current_Directory>
/home/itssahil/PROJECTS/Mol_Feturizer/New_Systems/rnas/6bfb

>  <Rbt.Executable>
rbdock ($Id: //depot/dev/client3/rdock/2013.1/src/exe/rbdock.cxx#4 $)

>  <Rbt.Library>
libRbt.so (2013.1, Build901 2013/11/27)

>  <Rbt.Parameter_File>
/export/apps/rDock/src/rDock_2013.1_src/data/scripts/dock_solv.prm

>  <Rbt.Receptor>
prm/pocket_docking_4.prm

>  <SCORE>
-42.1128

>  <SCORE.INTER>
-35.6996

>  <SCORE.INTER.CONST>
1

>  <SCORE.INTER.POLAR>
-1.1363

>  <SCORE.INTER.ROT>
3

>  <SCORE.INTER.SOLV>
11.4879

>  <SCORE.INTER.VDW>
-29.4413

>  <SCORE.INTER.norm>
-1.18999

>  <SCORE.INTRA>
-6.41325

>  <SCORE.INTRA.DIHEDRAL>
-7.49563

>  <SCORE.INTRA.DIHEDRAL.0>
9.41909

>  <SCORE.INTRA.POLAR>
0

>  <SCORE.INTRA.POLAR.0>
0

>  <SCORE.INTRA.REPUL>
0

>  <SCORE.INTRA.REPUL.0>
0

>  <SCORE.INTRA.SOLV>
-0.148124

>  <SCORE.INTRA.SOLV.lig_0>
-26.2491

>  <SCORE.INTRA.VDW>
-2.59138

>  <SCORE.INTRA.VDW.0>
2.57239

>  <SCORE.INTRA.norm>
-0.213775

>  <SCORE.RESTR>
0

>  <SCORE.RESTR.CAVITY>
0

>  <SCORE.RESTR.norm>
0

>  <SCORE.SYSTEM>
0

>  <SCORE.SYSTEM.CONST>
0

>  <SCORE.SYSTEM.DIHEDRAL>
0

>  <SCORE.SYSTEM.SOLV>
0

>  <SCORE.SYSTEM.norm>
0

>  <SCORE.heavy>
30

>  <SCORE.norm>
-1.40376

>  <RMSD>
1.794

$$$$
lig.pdb
 OpenBabel11021811523D
libRbt.so/2013.1/901 2013/11/27
 30 34  0  0  0  0  0  0  0  0999 V2000
   24.5154   38.4444   21.7966 N   0  0  0  0  0  0  0  0  0  0  0  0
   26.6313   42.0516   24.4457 N   0  0  0  0  0  0  0  0  0  0  0  0
   25.7542   37.7836   21.3743 C   0  0  0  0  0  0  0  0  0  0  0  0
   25.2452   36.8248   20.3085 C   0  0  2  0  0  0  0  0  0  0  0  0
   24.5130   39.3452   22.9437 C   0  0  0  0  0  0  0  0  0  0  0  0
   23.4916   39.3689   23.9153 C   0  0  0  0  0  0  0  0  0  0  0  0
   23.4719   40.2346   24.9802 C   0  0  0  0  0  0  0  0  0  0  0  0
   24.4525   42.1345   26.2696 C   0  0  0  0  0  0  0  0  0  0  0  0
   28.7161   42.8535   24.0805 C   0  0  0  0  0  0  0  0  0  0  0  0
   27.8637   40.7904   22.7621 C   0  0  0  0  0  0  0  0  0  0  0  0
   25.5762   40.2744   23.1237 C   0  0  0  0  0  0  0  0  0  0  0  0
   24.6859   44.9908   27.4487 O   0  0  0  0  0  0  0  0  0  0  0  0
   25.5744   44.1370   27.4089 C   0  0  0  0  0  0  0  0  0  0  0  0
   26.5714   44.1028   28.2846 O   0  0  0  0  0  0  0  0  0  0  0  0
   25.5828   43.0962   26.3467 C   0  0  1  0  0  0  0  0  0  0  0  0
   23.5408   42.1084   27.1034 O   0  0  0  0  0  0  0  0  0  0  0  0
   26.6583   43.0220   25.4445 C   0  0  0  0  0  0  0  0  0  0  0  0
   27.8122   41.9466   23.6974 C   0  0  0  0  0  0  0  0  0  0  0  0
   28.1671   43.8328   25.3771 S   0  0  0  0  0  0  0  0  0  0  0  0
   25.5681   41.1512   24.2322 C   0  0  0  0  0  0  0  0  0  0  0  0
   24.5046   41.1570   25.1478 C   0  0  0  0  0  0  0  0  0  0  0  0
   22.4837   38.4785   23.8206 F   0  0  0  0  0  0  0  0  0  0  0  0
   26.6031   40.3769   22.1722 N   0  0  0  0  0  0  0  0  0  0  0  0
   26.1708   41.1402   21.0211 C   0  0  0  0  0  0  0  0  0  0  0  0
   23.3418   37.6508   21.4497 C   0  0  0  0  0  0  0  0  0  0  0  0
   25.8908   37.0429   19.0533 O   0  0  0  0  0  0  0  0  0  0  0  0
   23.7749   37.1639   20.0771 C   0  0  2  0  0  0  0  0  0  0  0  0
   23.0976   35.9585   19.5623 N   0  0  0  0  0  0  0  0  0  0  0  0
   21.6269   35.9718   19.6629 C   0  0  0  0  0  0  0  0  0  0  0  0
   23.5639   35.5581   18.2259 C   0  0  0  0  0  0  0  0  0  0  0  0
  1  5  1  0  0  0  0
  2 17  1  0  0  0  0
  3  1  1  0  0  0  0
  4  3  1  0  0  0  0
  4 26  1  6  0  0  0
  5 11  2  0  0  0  0
  5  6  1  0  0  0  0
  6  7  2  0  0  0  0
  7 21  1  0  0  0  0
  8 15  1  0  0  0  0
  8 16  2  0  0  0  0
  9 19  1  0  0  0  0
 10 18  1  0  0  0  0
 11 20  1  0  0  0  0
 13 14  1  0  0  0  0
 13 12  2  0  0  0  0
 15 13  1  1  0  0  0
 17 19  2  0  0  0  0
 17 15  1  0  0  0  0
 18  2  1  0  0  0  0
 18  9  2  0  0  0  0
 20 21  2  0  0  0  0
 20  2  1  0  0  0  0
 21  8  1  0  0  0  0
 22  6  1  0  0  0  0
 23 11  1  0  0  0  0
 23 10  1  0  0  0  0
 24 23  1  0  0  0  0
 25  1  1  0  0  0  0
 27  4  1  0  0  0  0
 27 25  1  0  0  0  0
 27 28  1  1  0  0  0
 29 28  1  0  0  0  0
 30 28  1  0  0  0  0
M  END
>  <CHROM.1>
-138.50225303,-179.72730263,-62.49421484,62.86080452,162.43839832,25.26449940
40.39536444,23.43393902,1.85973059,-0.44081776,-2.25675582

>  <Name>
lig.pdb

>  <RI>
0

>  <Rbt.Current_Directory>
/home/itssahil/PROJECTS/Mol_Feturizer/New_Systems/rnas/6bfb

>  <Rbt.Executable>
rbdock ($Id: //depot/dev/client3/rdock/2013.1/src/exe/rbdock.cxx#4 $)

>  <Rbt.Library>
libRbt.so (2013.1, Build901 2013/11/27)

>  <Rbt.Parameter_File>
/export/apps/rDock/src/rDock_2013.1_src/data/scripts/dock_solv.prm

>  <Rbt.Receptor>
prm/pocket_docking_4.prm

>  <SCORE>
-39.9562

>  <SCORE.INTER>
-36.322

>  <SCORE.INTER.CONST>
1

>  <SCORE.INTER.POLAR>
0

>  <SCORE.INTER.ROT>
3

>  <SCORE.INTER.SOLV>
13.032

>  <SCORE.INTER.VDW>
-34.1587

>  <SCORE.INTER.norm>
-1.21073

>  <SCORE.INTRA>
-3.63416

>  <SCORE.INTRA.DIHEDRAL>
-7.48742

>  <SCORE.INTRA.DIHEDRAL.0>
9.41909

>  <SCORE.INTRA.POLAR>
0

>  <SCORE.INTRA.POLAR.0>
0

>  <SCORE.INTRA.REPUL>
0

>  <SCORE.INTRA.REPUL.0>
0

>  <SCORE.INTRA.SOLV>
-0.142293

>  <SCORE.INTRA.SOLV.lig_0>
-26.2491

>  <SCORE.INTRA.VDW>
0.180693

>  <SCORE.INTRA.VDW.0>
2.57239

>  <SCORE.INTRA.norm>
-0.121139

>  <SCORE.RESTR>
0

>  <SCORE.RESTR.CAVITY>
0

>  <SCORE.RESTR.norm>
0

>  <SCORE.SYSTEM>
0

>  <SCORE.SYSTEM.CONST>
0

>  <SCORE.SYSTEM.DIHEDRAL>
0

>  <SCORE.SYSTEM.SOLV>
0

>  <SCORE.SYSTEM.norm>
0

>  <SCORE.heavy>
30

>  <SCORE.norm>
-1.33187

>  <RMSD>
1.798

$$$$
lig.pdb
 OpenBabel11021811523D
libRbt.so/2013.1/901 2013/11/27
 30 34  0  0  0  0  0  0  0  0999 V2000
   25.1697   38.5936   21.6387 N   0  0  0  0  0  0  0  0  0  0  0  0
   26.7373   42.1571   24.6967 N   0  0  0  0  0  0  0  0  0  0  0  0
   24.6141   38.9787   20.3378 C   0  0  0  0  0  0  0  0  0  0  0  0
   25.2287   37.9345   19.4179 C   0  0  2  0  0  0  0  0  0  0  0  0
   24.9685   39.4420   22.8080 C   0  0  0  0  0  0  0  0  0  0  0  0
   23.8218   39.3841   23.6261 C   0  0  0  0  0  0  0  0  0  0  0  0
   23.6164   40.2004   24.7103 C   0  0  0  0  0  0  0  0  0  0  0  0
   24.3244   42.0769   26.1973 C   0  0  0  0  0  0  0  0  0  0  0  0
   28.8157   43.0525   24.6600 C   0  0  0  0  0  0  0  0  0  0  0  0
   28.2458   41.0191   23.1560 C   0  0  0  0  0  0  0  0  0  0  0  0
   25.9548   40.4017   23.1716 C   0  0  0  0  0  0  0  0  0  0  0  0
   25.9761   44.1343   28.5059 O   0  0  0  0  0  0  0  0  0  0  0  0
   25.1885   44.0679   27.5597 C   0  0  0  0  0  0  0  0  0  0  0  0
   24.1207   44.8506   27.4632 O   0  0  0  0  0  0  0  0  0  0  0  0
   25.3900   43.0763   26.4699 C   0  0  1  0  0  0  0  0  0  0  0  0
   23.3075   41.9796   26.8928 O   0  0  0  0  0  0  0  0  0  0  0  0
   26.5828   43.0827   25.7260 C   0  0  0  0  0  0  0  0  0  0  0  0
   28.0143   42.1300   24.1186 C   0  0  0  0  0  0  0  0  0  0  0  0
   28.0495   43.9519   25.9031 S   0  0  0  0  0  0  0  0  0  0  0  0
   25.7544   41.2276   24.3009 C   0  0  0  0  0  0  0  0  0  0  0  0
   24.5745   41.1528   25.0572 C   0  0  0  0  0  0  0  0  0  0  0  0
   22.8766   38.4614   23.3562 F   0  0  0  0  0  0  0  0  0  0  0  0
   27.0987   40.5849   22.3790 N   0  0  0  0  0  0  0  0  0  0  0  0
   26.7980   41.3817   21.2087 C   0  0  0  0  0  0  0  0  0  0  0  0
   26.3703   37.7794   21.4868 C   0  0  0  0  0  0  0  0  0  0  0  0
   24.2271   37.1969   18.7160 O   0  0  0  0  0  0  0  0  0  0  0  0
   25.9331   36.9186   20.3135 C   0  0  2  0  0  0  0  0  0  0  0  0
   27.0072   36.2781   19.5307 N   0  0  0  0  0  0  0  0  0  0  0  0
   28.1202   37.1651   19.1463 C   0  0  0  0  0  0  0  0  0  0  0  0
   27.4761   35.0132   20.1171 C   0  0  0  0  0  0  0  0  0  0  0  0
  1  5  1  0  0  0  0
  2 17  1  0  0  0  0
  3  1  1  0  0  0  0
  4  3  1  0  0  0  0
  4 26  1  1  0  0  0
  5 11  2  0  0  0  0
  5  6  1  0  0  0  0
  6  7  2  0  0  0  0
  7 21  1  0  0  0  0
  8 15  1  0  0  0  0
  8 16  2  0  0  0  0
  9 19  1  0  0  0  0
 10 18  1  0  0  0  0
 11 20  1  0  0  0  0
 13 14  1  0  0  0  0
 13 12  2  0  0  0  0
 15 13  1  1  0  0  0
 17 19  2  0  0  0  0
 17 15  1  0  0  0  0
 18  2  1  0  0  0  0
 18  9  2  0  0  0  0
 20 21  2  0  0  0  0
 20  2  1  0  0  0  0
 21  8  1  0  0  0  0
 22  6  1  0  0  0  0
 23 11  1  0  0  0  0
 23 10  1  0  0  0  0
 24 23  1  0  0  0  0
 25  1  1  0  0  0  0
 27  4  1  0  0  0  0
 27 25  1  0  0  0  0
 27 28  1  6  0  0  0
 29 28  1  0  0  0  0
 30 28  1  0  0  0  0
M  END
>  <CHROM.1>
84.98910552,1.61544638,120.97448089,64.23495196,66.75977611,25.86324029,40.55624041
23.48594673,1.55499779,-0.31758146,-2.33526347

>  <Name>
lig.pdb

>  <RI>
0

>  <Rbt.Current_Directory>
/home/itssahil/PROJECTS/Mol_Feturizer/New_Systems/rnas/6bfb

>  <Rbt.Executable>
rbdock ($Id: //depot/dev/client3/rdock/2013.1/src/exe/rbdock.cxx#4 $)

>  <Rbt.Library>
libRbt.so (2013.1, Build901 2013/11/27)

>  <Rbt.Parameter_File>
/export/apps/rDock/src/rDock_2013.1_src/data/scripts/dock_solv.prm

>  <Rbt.Receptor>
prm/pocket_docking_4.prm

>  <SCORE>
-42.1512

>  <SCORE.INTER>
-35.7385

>  <SCORE.INTER.CONST>
1

>  <SCORE.INTER.POLAR>
-1.12947

>  <SCORE.INTER.ROT>
3

>  <SCORE.INTER.SOLV>
11.5266

>  <SCORE.INTER.VDW>
-29.503

>  <SCORE.INTER.norm>
-1.19128

>  <SCORE.INTRA>
-6.4127

>  <SCORE.INTRA.DIHEDRAL>
-7.40855

>  <SCORE.INTRA.DIHEDRAL.0>
9.41909

>  <SCORE.INTRA.POLAR>
0

>  <SCORE.INTRA.POLAR.0>
0

>  <SCORE.INTRA.REPUL>
0

>  <SCORE.INTRA.REPUL.0>
0

>  <SCORE.INTRA.SOLV>
-0.151876

>  <SCORE.INTRA.SOLV.lig_0>
-26.2491

>  <SCORE.INTRA.VDW>
-2.63248

>  <SCORE.INTRA.VDW.0>
2.57239

>  <SCORE.INTRA.norm>
-0.213757

>  <SCORE.RESTR>
0

>  <SCORE.RESTR.CAVITY>
0

>  <SCORE.RESTR.norm>
0

>  <SCORE.SYSTEM>
0

>  <SCORE.SYSTEM.CONST>
0

>  <SCORE.SYSTEM.DIHEDRAL>
0

>  <SCORE.SYSTEM.SOLV>
0

>  <SCORE.SYSTEM.norm>
0

>  <SCORE.heavy>
30

>  <SCORE.norm>
-1.40504

>  <RMSD>
1.799

$$$$
lig.pdb
 OpenBabel11021811523D
libRbt.so/2013.1/901 2013/11/27
 30 34  0  0  0  0  0  0  0  0999 V2000
   25.1518   38.2794   21.3957 N   0  0  0  0  0  0  0  0  0  0  0  0
   27.3212   41.6529   24.2975 N   0  0  0  0  0  0  0  0  0  0  0  0
   24.5831   38.7259   20.1203 C   0  0  0  0  0  0  0  0  0  0  0  0
   25.0049   37.6034   19.1840 C   0  0  2  0  0  0  0  0  0  0  0  0
   25.1267   39.1548   22.5621 C   0  0  0  0  0  0  0  0  0  0  0  0
   24.0348   39.2410   23.4498 C   0  0  0  0  0  0  0  0  0  0  0  0
   23.9965   40.0844   24.5320 C   0  0  0  0  0  0  0  0  0  0  0  0
   25.0147   41.8740   25.9442 C   0  0  0  0  0  0  0  0  0  0  0  0
   29.4850   42.2924   24.1199 C   0  0  0  0  0  0  0  0  0  0  0  0
   28.5838   40.3304   22.6847 C   0  0  0  0  0  0  0  0  0  0  0  0
   26.2412   39.9922   22.8500 C   0  0  0  0  0  0  0  0  0  0  0  0
   25.3563   43.7054   28.1243 O   0  0  0  0  0  0  0  0  0  0  0  0
   26.1936   43.7575   27.2207 C   0  0  0  0  0  0  0  0  0  0  0  0
   27.1088   44.7164   27.1498 O   0  0  0  0  0  0  0  0  0  0  0  0
   26.2068   42.7405   26.1358 C   0  0  1  0  0  0  0  0  0  0  0  0
   24.0391   41.9046   26.7021 O   0  0  0  0  0  0  0  0  0  0  0  0
   27.3428   42.5982   25.3202 C   0  0  0  0  0  0  0  0  0  0  0  0
   28.5471   41.4685   23.6427 C   0  0  0  0  0  0  0  0  0  0  0  0
   28.9109   43.2868   25.3938 S   0  0  0  0  0  0  0  0  0  0  0  0
   26.2117   40.8448   23.9768 C   0  0  0  0  0  0  0  0  0  0  0  0
   25.0811   40.9178   24.8050 C   0  0  0  0  0  0  0  0  0  0  0  0
   22.9714   38.4362   23.2523 F   0  0  0  0  0  0  0  0  0  0  0  0
   27.3468   40.0308   21.9861 N   0  0  0  0  0  0  0  0  0  0  0  0
   27.0704   40.8489   20.8245 C   0  0  0  0  0  0  0  0  0  0  0  0
   26.2248   37.3126   21.1927 C   0  0  0  0  0  0  0  0  0  0  0  0
   23.8788   37.0001   18.5454 O   0  0  0  0  0  0  0  0  0  0  0  0
   25.6160   36.5094   20.0556 C   0  0  2  0  0  0  0  0  0  0  0  0
   26.5531   35.7272   19.2269 N   0  0  0  0  0  0  0  0  0  0  0  0
   27.5804   34.9793   19.9743 C   0  0  0  0  0  0  0  0  0  0  0  0
   25.8791   34.8962   18.2175 C   0  0  0  0  0  0  0  0  0  0  0  0
  1  5  1  0  0  0  0
  2 17  1  0  0  0  0
  3  1  1  0  0  0  0
  4  3  1  0  0  0  0
  4 26  1  1  0  0  0
  5 11  2  0  0  0  0
  5  6  1  0  0  0  0
  6  7  2  0  0  0  0
  7 21  1  0  0  0  0
  8 15  1  0  0  0  0
  8 16  2  0  0  0  0
  9 19  1  0  0  0  0
 10 18  1  0  0  0  0
 11 20  1  0  0  0  0
 13 14  1  0  0  0  0
 13 12  2  0  0  0  0
 15 13  1  1  0  0  0
 17 19  2  0  0  0  0
 17 15  1  0  0  0  0
 18  2  1  0  0  0  0
 18  9  2  0  0  0  0
 20 21  2  0  0  0  0
 20  2  1  0  0  0  0
 21  8  1  0  0  0  0
 22  6  1  0  0  0  0
 23 11  1  0  0  0  0
 23 10  1  0  0  0  0
 24 23  1  0  0  0  0
 25  1  1  0  0  0  0
 27  4  1  0  0  0  0
 27 25  1  0  0  0  0
 27 28  1  6  0  0  0
 29 28  1  0  0  0  0
 30 28  1  0  0  0  0
M  END
>  <CHROM.1>
85.88831592,-0.46427915,15.57251987,57.04520594,158.36626872,26.15843185
40.12349517,23.15448926,1.71273769,-0.29235505,-2.30692693

>  <Name>
lig.pdb

>  <RI>
0

>  <Rbt.Current_Directory>
/home/itssahil/PROJECTS/Mol_Feturizer/New_Systems/rnas/6bfb

>  <Rbt.Executable>
rbdock ($Id: //depot/dev/client3/rdock/2013.1/src/exe/rbdock.cxx#4 $)

>  <Rbt.Library>
libRbt.so (2013.1, Build901 2013/11/27)

>  <Rbt.Parameter_File>
/export/apps/rDock/src/rDock_2013.1_src/data/scripts/dock_solv.prm

>  <Rbt.Receptor>
prm/pocket_docking_3.prm

>  <SCORE>
-39.9952

>  <SCORE.INTER>
-35.048

>  <SCORE.INTER.CONST>
1

>  <SCORE.INTER.POLAR>
-1.24286

>  <SCORE.INTER.ROT>
3

>  <SCORE.INTER.SOLV>
12.9565

>  <SCORE.INTER.VDW>
-29.1413

>  <SCORE.INTER.norm>
-1.16827

>  <SCORE.INTRA>
-4.94722

>  <SCORE.INTRA.DIHEDRAL>
-7.3254

>  <SCORE.INTRA.DIHEDRAL.0>
9.41909

>  <SCORE.INTRA.POLAR>
0

>  <SCORE.INTRA.POLAR.0>
0

>  <SCORE.INTRA.REPUL>
0

>  <SCORE.INTRA.REPUL.0>
0

>  <SCORE.INTRA.SOLV>
0.0239179

>  <SCORE.INTRA.SOLV.lig_0>
-26.2491

>  <SCORE.INTRA.VDW>
-1.29648

>  <SCORE.INTRA.VDW.0>
2.57239

>  <SCORE.INTRA.norm>
-0.164907

>  <SCORE.RESTR>
0

>  <SCORE.RESTR.CAVITY>
0

>  <SCORE.RESTR.norm>
0

>  <SCORE.SYSTEM>
0

>  <SCORE.SYSTEM.CONST>
0

>  <SCORE.SYSTEM.DIHEDRAL>
0

>  <SCORE.SYSTEM.SOLV>
0

>  <SCORE.SYSTEM.norm>
0

>  <SCORE.heavy>
30

>  <SCORE.norm>
-1.33317

>  <RMSD>
1.801

$$$$
lig.pdb
 OpenBabel11021811523D
libRbt.so/2013.1/901 2013/11/27
 30 34  0  0  0  0  0  0  0  0999 V2000
   25.2897   38.6132   21.4754 N   0  0  0  0  0  0  0  0  0  0  0  0
   26.8804   42.0140   24.7021 N   0  0  0  0  0  0  0  0  0  0  0  0
   24.6664   39.0013   20.2065 C   0  0  0  0  0  0  0  0  0  0  0  0
   25.3021   38.0171   19.2361 C   0  0  2  0  0  0  0  0  0  0  0  0
   25.0864   39.4182   22.6746 C   0  0  0  0  0  0  0  0  0  0  0  0
   23.9241   39.3534   23.4702 C   0  0  0  0  0  0  0  0  0  0  0  0
   23.7175   40.1298   24.5830 C   0  0  0  0  0  0  0  0  0  0  0  0
   24.4398   41.9283   26.1570 C   0  0  0  0  0  0  0  0  0  0  0  0
   28.9783   42.8627   24.7371 C   0  0  0  0  0  0  0  0  0  0  0  0
   28.3908   40.9051   23.1422 C   0  0  0  0  0  0  0  0  0  0  0  0
   26.0869   40.3398   23.0938 C   0  0  0  0  0  0  0  0  0  0  0  0
   24.5225   43.5923   28.5173 O   0  0  0  0  0  0  0  0  0  0  0  0
   25.3231   43.8426   27.6137 C   0  0  0  0  0  0  0  0  0  0  0  0
   26.0328   44.9639   27.5789 O   0  0  0  0  0  0  0  0  0  0  0  0
   25.5221   42.8914   26.4880 C   0  0  1  0  0  0  0  0  0  0  0  0
   23.4088   41.8262   26.8305 O   0  0  0  0  0  0  0  0  0  0  0  0
   26.7279   42.9007   25.7654 C   0  0  0  0  0  0  0  0  0  0  0  0
   28.1666   41.9813   24.1452 C   0  0  0  0  0  0  0  0  0  0  0  0
   28.2101   43.7285   26.0026 S   0  0  0  0  0  0  0  0  0  0  0  0
   25.8845   41.1238   24.2522 C   0  0  0  0  0  0  0  0  0  0  0  0
   24.6899   41.0454   24.9846 C   0  0  0  0  0  0  0  0  0  0  0  0
   22.9639   38.4641   23.1469 F   0  0  0  0  0  0  0  0  0  0  0  0
   27.2485   40.5287   22.3288 N   0  0  0  0  0  0  0  0  0  0  0  0
   26.9865   41.3786   21.1869 C   0  0  0  0  0  0  0  0  0  0  0  0
   26.5261   37.8705   21.2580 C   0  0  0  0  0  0  0  0  0  0  0  0
   24.3165   37.2443   18.5496 O   0  0  0  0  0  0  0  0  0  0  0  0
   26.0929   37.0183   20.0770 C   0  0  2  0  0  0  0  0  0  0  0  0
   27.1704   36.4587   19.2388 N   0  0  0  0  0  0  0  0  0  0  0  0
   28.2858   37.3787   18.9509 C   0  0  0  0  0  0  0  0  0  0  0  0
   27.6357   35.1407   19.6970 C   0  0  0  0  0  0  0  0  0  0  0  0
  1  5  1  0  0  0  0
  2 17  1  0  0  0  0
  3  1  1  0  0  0  0
  4  3  1  0  0  0  0
  4 26  1  1  0  0  0
  5 11  2  0  0  0  0
  5  6  1  0  0  0  0
  6  7  2  0  0  0  0
  7 21  1  0  0  0  0
  8 15  1  0  0  0  0
  8 16  2  0  0  0  0
  9 19  1  0  0  0  0
 10 18  1  0  0  0  0
 11 20  1  0  0  0  0
 13 14  1  0  0  0  0
 13 12  2  0  0  0  0
 15 13  1  1  0  0  0
 17 19  2  0  0  0  0
 17 15  1  0  0  0  0
 18  2  1  0  0  0  0
 18  9  2  0  0  0  0
 20 21  2  0  0  0  0
 20  2  1  0  0  0  0
 21  8  1  0  0  0  0
 22  6  1  0  0  0  0
 23 11  1  0  0  0  0
 23 10  1  0  0  0  0
 24 23  1  0  0  0  0
 25  1  1  0  0  0  0
 27  4  1  0  0  0  0
 27 25  1  0  0  0  0
 27 28  1  6  0  0  0
 29 28  1  0  0  0  0
 30 28  1  0  0  0  0
M  END
>  <CHROM.1>
79.56000392,1.13568996,23.29427542,60.43740444,72.53187927,26.00550444,40.49555619
23.40531273,1.56219600,-0.32368667,-2.29021638

>  <Name>
lig.pdb

>  <RI>
0

>  <Rbt.Current_Directory>
/home/itssahil/PROJECTS/Mol_Feturizer/New_Systems/rnas/6bfb

>  <Rbt.Executable>
rbdock ($Id: //depot/dev/client3/rdock/2013.1/src/exe/rbdock.cxx#4 $)

>  <Rbt.Library>
libRbt.so (2013.1, Build901 2013/11/27)

>  <Rbt.Parameter_File>
/export/apps/rDock/src/rDock_2013.1_src/data/scripts/dock_solv.prm

>  <Rbt.Receptor>
prm/pocket_docking_2.prm

>  <SCORE>
-39.948

>  <SCORE.INTER>
-34.749

>  <SCORE.INTER.CONST>
1

>  <SCORE.INTER.POLAR>
-1.06152

>  <SCORE.INTER.ROT>
3

>  <SCORE.INTER.SOLV>
11.6947

>  <SCORE.INTER.VDW>
-29.1258

>  <SCORE.INTER.norm>
-1.1583

>  <SCORE.INTRA>
-5.6359

>  <SCORE.INTRA.DIHEDRAL>
-7.27007

>  <SCORE.INTRA.DIHEDRAL.0>
9.41909

>  <SCORE.INTRA.POLAR>
0

>  <SCORE.INTRA.POLAR.0>
0

>  <SCORE.INTRA.REPUL>
0

>  <SCORE.INTRA.REPUL.0>
0

>  <SCORE.INTRA.SOLV>
-0.10228

>  <SCORE.INTRA.SOLV.lig_0>
-26.2491

>  <SCORE.INTRA.VDW>
-1.94972

>  <SCORE.INTRA.VDW.0>
2.57239

>  <SCORE.INTRA.norm>
-0.187863

>  <SCORE.RESTR>
0.436885

>  <SCORE.RESTR.CAVITY>
0.436885

>  <SCORE.RESTR.norm>
0.0145628

>  <SCORE.SYSTEM>
0

>  <SCORE.SYSTEM.CONST>
0

>  <SCORE.SYSTEM.DIHEDRAL>
0

>  <SCORE.SYSTEM.SOLV>
0

>  <SCORE.SYSTEM.norm>
0

>  <SCORE.heavy>
30

>  <SCORE.norm>
-1.3316

>  <RMSD>
1.803

$$$$
lig.pdb
 OpenBabel11021811523D
libRbt.so/2013.1/901 2013/11/27
 30 34  0  0  0  0  0  0  0  0999 V2000
   25.1593   38.5662   21.6636 N   0  0  0  0  0  0  0  0  0  0  0  0
   26.7694   42.1183   24.7129 N   0  0  0  0  0  0  0  0  0  0  0  0
   24.5823   38.9430   20.3696 C   0  0  0  0  0  0  0  0  0  0  0  0
   25.1902   37.8995   19.4445 C   0  0  2  0  0  0  0  0  0  0  0  0
   24.9697   39.4176   22.8327 C   0  0  0  0  0  0  0  0  0  0  0  0
   23.8251   39.3709   23.6546 C   0  0  0  0  0  0  0  0  0  0  0  0
   23.6308   40.1902   24.7386 C   0  0  0  0  0  0  0  0  0  0  0  0
   24.3607   42.0616   26.2215 C   0  0  0  0  0  0  0  0  0  0  0  0
   28.8557   42.9946   24.6686 C   0  0  0  0  0  0  0  0  0  0  0  0
   28.2623   40.9650   23.1685 C   0  0  0  0  0  0  0  0  0  0  0  0
   25.9659   40.3687   23.1922 C   0  0  0  0  0  0  0  0  0  0  0  0
   26.0848   44.1659   28.4759 O   0  0  0  0  0  0  0  0  0  0  0  0
   25.2474   44.0460   27.5790 C   0  0  0  0  0  0  0  0  0  0  0  0
   24.1361   44.7708   27.5381 O   0  0  0  0  0  0  0  0  0  0  0  0
   25.4363   43.0514   26.4896 C   0  0  1  0  0  0  0  0  0  0  0  0
   23.3453   41.9742   26.9203 O   0  0  0  0  0  0  0  0  0  0  0  0
   26.6266   43.0463   25.7418 C   0  0  0  0  0  0  0  0  0  0  0  0
   28.0442   42.0790   24.1307 C   0  0  0  0  0  0  0  0  0  0  0  0
   28.1019   43.9022   25.9132 S   0  0  0  0  0  0  0  0  0  0  0  0
   25.7767   41.1974   24.3213 C   0  0  0  0  0  0  0  0  0  0  0  0
   24.5987   41.1341   25.0814 C   0  0  0  0  0  0  0  0  0  0  0  0
   22.8707   38.4567   23.3887 F   0  0  0  0  0  0  0  0  0  0  0  0
   27.1088   40.5406   22.3956 N   0  0  0  0  0  0  0  0  0  0  0  0
   26.8116   41.3389   21.2255 C   0  0  0  0  0  0  0  0  0  0  0  0
   26.3628   37.7592   21.4971 C   0  0  0  0  0  0  0  0  0  0  0  0
   24.1833   37.1529   18.7600 O   0  0  0  0  0  0  0  0  0  0  0  0
   25.9142   36.8914   20.3333 C   0  0  2  0  0  0  0  0  0  0  0  0
   26.9808   36.2550   19.5373 N   0  0  0  0  0  0  0  0  0  0  0  0
   28.0238   37.1694   19.0377 C   0  0  0  0  0  0  0  0  0  0  0  0
   27.5461   35.0576   20.1780 C   0  0  0  0  0  0  0  0  0  0  0  0
  1  5  1  0  0  0  0
  2 17  1  0  0  0  0
  3  1  1  0  0  0  0
  4  3  1  0  0  0  0
  4 26  1  1  0  0  0
  5 11  2  0  0  0  0
  5  6  1  0  0  0  0
  6  7  2  0  0  0  0
  7 21  1  0  0  0  0
  8 15  1  0  0  0  0
  8 16  2  0  0  0  0
  9 19  1  0  0  0  0
 10 18  1  0  0  0  0
 11 20  1  0  0  0  0
 13 14  1  0  0  0  0
 13 12  2  0  0  0  0
 15 13  1  1  0  0  0
 17 19  2  0  0  0  0
 17 15  1  0  0  0  0
 18  2  1  0  0  0  0
 18  9  2  0  0  0  0
 20 21  2  0  0  0  0
 20  2  1  0  0  0  0
 21  8  1  0  0  0  0
 22  6  1  0  0  0  0
 23 11  1  0  0  0  0
 23 10  1  0  0  0  0
 24 23  1  0  0  0  0
 25  1  1  0  0  0  0
 27  4  1  0  0  0  0
 27 25  1  0  0  0  0
 27 28  1  6  0  0  0
 29 28  1  0  0  0  0
 30 28  1  0  0  0  0
M  END
>  <CHROM.1>
83.87321656,-0.90654141,125.77982833,61.40621128,61.84429543,25.87770448
40.52932902,23.50395305,1.56299978,-0.31307981,-2.33035044

>  <Name>
lig.pdb

>  <RI>
0

>  <Rbt.Current_Directory>
/home/itssahil/PROJECTS/Mol_Feturizer/New_Systems/rnas/6bfb

>  <Rbt.Executable>
rbdock ($Id: //depot/dev/client3/rdock/2013.1/src/exe/rbdock.cxx#4 $)

>  <Rbt.Library>
libRbt.so (2013.1, Build901 2013/11/27)

>  <Rbt.Parameter_File>
/export/apps/rDock/src/rDock_2013.1_src/data/scripts/dock_solv.prm

>  <Rbt.Receptor>
prm/pocket_docking_4.prm

>  <SCORE>
-42.02

>  <SCORE.INTER>
-35.6903

>  <SCORE.INTER.CONST>
1

>  <SCORE.INTER.POLAR>
-1.18197

>  <SCORE.INTER.ROT>
3

>  <SCORE.INTER.SOLV>
11.594

>  <SCORE.INTER.VDW>
-29.3183

>  <SCORE.INTER.norm>
-1.18968

>  <SCORE.INTRA>
-6.32968

>  <SCORE.INTRA.DIHEDRAL>
-7.62825

>  <SCORE.INTRA.DIHEDRAL.0>
9.41909

>  <SCORE.INTRA.POLAR>
0

>  <SCORE.INTRA.POLAR.0>
0

>  <SCORE.INTRA.REPUL>
0

>  <SCORE.INTRA.REPUL.0>
0

>  <SCORE.INTRA.SOLV>
-0.137367

>  <SCORE.INTRA.SOLV.lig_0>
-26.2491

>  <SCORE.INTRA.VDW>
-2.44687

>  <SCORE.INTRA.VDW.0>
2.57239

>  <SCORE.INTRA.norm>
-0.210989

>  <SCORE.RESTR>
0

>  <SCORE.RESTR.CAVITY>
0

>  <SCORE.RESTR.norm>
0

>  <SCORE.SYSTEM>
0

>  <SCORE.SYSTEM.CONST>
0

>  <SCORE.SYSTEM.DIHEDRAL>
0

>  <SCORE.SYSTEM.SOLV>
0

>  <SCORE.SYSTEM.norm>
0

>  <SCORE.heavy>
30

>  <SCORE.norm>
-1.40067

>  <RMSD>
1.804

$$$$
lig.pdb
 OpenBabel11021811523D
libRbt.so/2013.1/901 2013/11/27
 30 34  0  0  0  0  0  0  0  0999 V2000
   25.7386   39.1852   21.4400 N   0  0  0  0  0  0  0  0  0  0  0  0
   26.6596   42.3857   25.1027 N   0  0  0  0  0  0  0  0  0  0  0  0
   25.5206   37.7433   21.2884 C   0  0  0  0  0  0  0  0  0  0  0  0
   25.9076   37.5235   19.8337 C   0  0  2  0  0  0  0  0  0  0  0  0
   25.3277   39.8698   22.6606 C   0  0  0  0  0  0  0  0  0  0  0  0
   24.0817   39.6659   23.2880 C   0  0  0  0  0  0  0  0  0  0  0  0
   23.6805   40.3294   24.4206 C   0  0  0  0  0  0  0  0  0  0  0  0
   24.0668   42.0261   26.2111 C   0  0  0  0  0  0  0  0  0  0  0  0
   28.6699   43.3545   25.4806 C   0  0  0  0  0  0  0  0  0  0  0  0
   28.4311   41.5096   23.6749 C   0  0  0  0  0  0  0  0  0  0  0  0
   26.1984   40.8112   23.2786 C   0  0  0  0  0  0  0  0  0  0  0  0
   23.4858   44.3401   27.9788 O   0  0  0  0  0  0  0  0  0  0  0  0
   24.6188   43.8579   27.9159 C   0  0  0  0  0  0  0  0  0  0  0  0
   25.5358   44.0648   28.8531 O   0  0  0  0  0  0  0  0  0  0  0  0
   25.0266   43.0212   26.7561 C   0  0  1  0  0  0  0  0  0  0  0  0
   22.9687   41.8035   26.7324 O   0  0  0  0  0  0  0  0  0  0  0  0
   26.3104   43.1663   26.2022 C   0  0  0  0  0  0  0  0  0  0  0  0
   28.0051   42.4796   24.7199 C   0  0  0  0  0  0  0  0  0  0  0  0
   27.6874   44.0595   26.6968 S   0  0  0  0  0  0  0  0  0  0  0  0
   25.7951   41.4785   24.4574 C   0  0  0  0  0  0  0  0  0  0  0  0
   24.5261   41.2645   25.0171 C   0  0  0  0  0  0  0  0  0  0  0  0
   23.2364   38.7508   22.7726 F   0  0  0  0  0  0  0  0  0  0  0  0
   27.4311   41.1358   22.6909 N   0  0  0  0  0  0  0  0  0  0  0  0
   27.2556   42.0635   21.5939 C   0  0  0  0  0  0  0  0  0  0  0  0
   25.7367   39.8642   20.1491 C   0  0  0  0  0  0  0  0  0  0  0  0
   26.9513   36.5567   19.7074 O   0  0  0  0  0  0  0  0  0  0  0  0
   26.5032   38.8368   19.3332 C   0  0  2  0  0  0  0  0  0  0  0  0
   26.3289   38.8958   17.8694 N   0  0  0  0  0  0  0  0  0  0  0  0
   26.5592   40.2188   17.2611 C   0  0  0  0  0  0  0  0  0  0  0  0
   27.0379   37.8212   17.1577 C   0  0  0  0  0  0  0  0  0  0  0  0
  1  5  1  0  0  0  0
  2 17  1  0  0  0  0
  3  1  1  0  0  0  0
  4  3  1  0  0  0  0
  4 26  1  1  0  0  0
  5 11  2  0  0  0  0
  5  6  1  0  0  0  0
  6  7  2  0  0  0  0
  7 21  1  0  0  0  0
  8 15  1  0  0  0  0
  8 16  2  0  0  0  0
  9 19  1  0  0  0  0
 10 18  1  0  0  0  0
 11 20  1  0  0  0  0
 13 14  1  0  0  0  0
 13 12  2  0  0  0  0
 15 13  1  1  0  0  0
 17 19  2  0  0  0  0
 17 15  1  0  0  0  0
 18  2  1  0  0  0  0
 18  9  2  0  0  0  0
 20 21  2  0  0  0  0
 20  2  1  0  0  0  0
 21  8  1  0  0  0  0
 22  6  1  0  0  0  0
 23 11  1  0  0  0  0
 23 10  1  0  0  0  0
 24 23  1  0  0  0  0
 25  1  1  0  0  0  0
 27  4  1  0  0  0  0
 27 25  1  0  0  0  0
 27 28  1  6  0  0  0
 29 28  1  0  0  0  0
 30 28  1  0  0  0  0
M  END
>  <CHROM.1>
-45.00427439,2.07229604,-41.61442329,61.79447992,166.35844305,25.89288040
41.01990082,23.44242373,1.48612668,-0.47208716,-2.17115758

>  <Name>
lig.pdb

>  <RI>
0

>  <Rbt.Current_Directory>
/home/itssahil/PROJECTS/Mol_Feturizer/New_Systems/rnas/6bfb

>  <Rbt.Executable>
rbdock ($Id: //depot/dev/client3/rdock/2013.1/src/exe/rbdock.cxx#4 $)

>  <Rbt.Library>
libRbt.so (2013.1, Build901 2013/11/27)

>  <Rbt.Parameter_File>
/export/apps/rDock/src/rDock_2013.1_src/data/scripts/dock_solv.prm

>  <Rbt.Receptor>
prm/pocket_docking_8.prm

>  <SCORE>
-32.3854

>  <SCORE.INTER>
-28.4651

>  <SCORE.INTER.CONST>
1

>  <SCORE.INTER.POLAR>
0

>  <SCORE.INTER.ROT>
3

>  <SCORE.INTER.SOLV>
10.14

>  <SCORE.INTER.VDW>
-27.9567

>  <SCORE.INTER.norm>
-0.948835

>  <SCORE.INTRA>
-3.92038

>  <SCORE.INTRA.DIHEDRAL>
-7.59065

>  <SCORE.INTRA.DIHEDRAL.0>
9.41909

>  <SCORE.INTRA.POLAR>
0

>  <SCORE.INTRA.POLAR.0>
0

>  <SCORE.INTRA.REPUL>
0.0671183

>  <SCORE.INTRA.REPUL.0>
0

>  <SCORE.INTRA.SOLV>
-0.117365

>  <SCORE.INTRA.SOLV.lig_0>
-26.2491

>  <SCORE.INTRA.VDW>
-0.401959

>  <SCORE.INTRA.VDW.0>
2.57239

>  <SCORE.INTRA.norm>
-0.130679

>  <SCORE.RESTR>
0

>  <SCORE.RESTR.CAVITY>
0

>  <SCORE.RESTR.norm>
0

>  <SCORE.SYSTEM>
0

>  <SCORE.SYSTEM.CONST>
0

>  <SCORE.SYSTEM.DIHEDRAL>
0

>  <SCORE.SYSTEM.SOLV>
0

>  <SCORE.SYSTEM.norm>
0

>  <SCORE.heavy>
30

>  <SCORE.norm>
-1.07951

>  <RMSD>
1.805

$$$$
lig.pdb
 OpenBabel11021811523D
libRbt.so/2013.1/901 2013/11/27
 30 34  0  0  0  0  0  0  0  0999 V2000
   24.6342   38.2898   21.5567 N   0  0  0  0  0  0  0  0  0  0  0  0
   27.0317   41.8528   24.0192 N   0  0  0  0  0  0  0  0  0  0  0  0
   25.8139   37.5433   21.1089 C   0  0  0  0  0  0  0  0  0  0  0  0
   25.2096   36.5971   20.0823 C   0  0  2  0  0  0  0  0  0  0  0  0
   24.7276   39.2122   22.6826 C   0  0  0  0  0  0  0  0  0  0  0  0
   23.7581   39.2994   23.7025 C   0  0  0  0  0  0  0  0  0  0  0  0
   23.8287   40.1859   24.7480 C   0  0  0  0  0  0  0  0  0  0  0  0
   24.9525   42.0663   25.9460 C   0  0  0  0  0  0  0  0  0  0  0  0
   29.1277   42.5559   23.5344 C   0  0  0  0  0  0  0  0  0  0  0  0
   28.1234   40.5063   22.3048 C   0  0  0  0  0  0  0  0  0  0  0  0
   25.8370   40.0976   22.7898 C   0  0  0  0  0  0  0  0  0  0  0  0
   25.2175   44.6874   27.3125 O   0  0  0  0  0  0  0  0  0  0  0  0
   26.2142   44.0401   26.9847 C   0  0  0  0  0  0  0  0  0  0  0  0
   27.4119   44.2558   27.5149 O   0  0  0  0  0  0  0  0  0  0  0  0
   26.1251   42.9792   25.9463 C   0  0  1  0  0  0  0  0  0  0  0  0
   24.0835   42.0963   26.8240 O   0  0  0  0  0  0  0  0  0  0  0  0
   27.1499   42.8406   24.9941 C   0  0  0  0  0  0  0  0  0  0  0  0
   28.1680   41.6819   23.2161 C   0  0  0  0  0  0  0  0  0  0  0  0
   28.6865   43.5834   24.8348 S   0  0  0  0  0  0  0  0  0  0  0  0
   25.9218   40.9955   23.8780 C   0  0  0  0  0  0  0  0  0  0  0  0
   24.9067   41.0656   24.8445 C   0  0  0  0  0  0  0  0  0  0  0  0
   22.7098   38.4521   23.6771 F   0  0  0  0  0  0  0  0  0  0  0  0
   26.8183   40.1365   21.7869 N   0  0  0  0  0  0  0  0  0  0  0  0
   26.3617   40.8953   20.6420 C   0  0  0  0  0  0  0  0  0  0  0  0
   23.4020   37.5653   21.2666 C   0  0  0  0  0  0  0  0  0  0  0  0
   25.8241   36.7482   18.8018 O   0  0  0  0  0  0  0  0  0  0  0  0
   23.7564   37.0239   19.8919 C   0  0  2  0  0  0  0  0  0  0  0  0
   22.9877   35.8536   19.4270 N   0  0  0  0  0  0  0  0  0  0  0  0
   21.5256   35.9582   19.5845 C   0  0  0  0  0  0  0  0  0  0  0  0
   23.3751   35.4032   18.0814 C   0  0  0  0  0  0  0  0  0  0  0  0
  1  5  1  0  0  0  0
  2 17  1  0  0  0  0
  3  1  1  0  0  0  0
  4  3  1  0  0  0  0
  4 26  1  6  0  0  0
  5 11  2  0  0  0  0
  5  6  1  0  0  0  0
  6  7  2  0  0  0  0
  7 21  1  0  0  0  0
  8 15  1  0  0  0  0
  8 16  2  0  0  0  0
  9 19  1  0  0  0  0
 10 18  1  0  0  0  0
 11 20  1  0  0  0  0
 13 14  1  0  0  0  0
 13 12  2  0  0  0  0
 15 13  1  1  0  0  0
 17 19  2  0  0  0  0
 17 15  1  0  0  0  0
 18  2  1  0  0  0  0
 18  9  2  0  0  0  0
 20 21  2  0  0  0  0
 20  2  1  0  0  0  0
 21  8  1  0  0  0  0
 22  6  1  0  0  0  0
 23 11  1  0  0  0  0
 23 10  1  0  0  0  0
 24 23  1  0  0  0  0
 25  1  1  0  0  0  0
 27  4  1  0  0  0  0
 27 25  1  0  0  0  0
 27 28  1  1  0  0  0
 29 28  1  0  0  0  0
 30 28  1  0  0  0  0
M  END
>  <CHROM.1>
-137.03112805,-0.28545677,-41.34180430,62.46874873,162.02156202,25.54462915
40.24598110,23.11061824,1.93175339,-0.43383818,-2.24846459

>  <Name>
lig.pdb

>  <RI>
0

>  <Rbt.Current_Directory>
/home/itssahil/PROJECTS/Mol_Feturizer/New_Systems/rnas/6bfb

>  <Rbt.Executable>
rbdock ($Id: //depot/dev/client3/rdock/2013.1/src/exe/rbdock.cxx#4 $)

>  <Rbt.Library>
libRbt.so (2013.1, Build901 2013/11/27)

>  <Rbt.Parameter_File>
/export/apps/rDock/src/rDock_2013.1_src/data/scripts/dock_solv.prm

>  <Rbt.Receptor>
prm/pocket_docking_4.prm

>  <SCORE>
-39.7593

>  <SCORE.INTER>
-35.9358

>  <SCORE.INTER.CONST>
1

>  <SCORE.INTER.POLAR>
0

>  <SCORE.INTER.ROT>
3

>  <SCORE.INTER.SOLV>
13.467

>  <SCORE.INTER.VDW>
-34.0462

>  <SCORE.INTER.norm>
-1.19786

>  <SCORE.INTRA>
-3.82352

>  <SCORE.INTRA.DIHEDRAL>
-7.46869

>  <SCORE.INTRA.DIHEDRAL.0>
9.41909

>  <SCORE.INTRA.POLAR>
0

>  <SCORE.INTRA.POLAR.0>
0

>  <SCORE.INTRA.REPUL>
0

>  <SCORE.INTRA.REPUL.0>
0

>  <SCORE.INTRA.SOLV>
-0.0540962

>  <SCORE.INTRA.SOLV.lig_0>
-26.2491

>  <SCORE.INTRA.VDW>
-0.0621311

>  <SCORE.INTRA.VDW.0>
2.57239

>  <SCORE.INTRA.norm>
-0.127451

>  <SCORE.RESTR>
0

>  <SCORE.RESTR.CAVITY>
0

>  <SCORE.RESTR.norm>
0

>  <SCORE.SYSTEM>
0

>  <SCORE.SYSTEM.CONST>
0

>  <SCORE.SYSTEM.DIHEDRAL>
0

>  <SCORE.SYSTEM.SOLV>
0

>  <SCORE.SYSTEM.norm>
0

>  <SCORE.heavy>
30

>  <SCORE.norm>
-1.32531

>  <RMSD>
1.806

$$$$
lig.pdb
 OpenBabel11021811523D
libRbt.so/2013.1/901 2013/11/27
 30 34  0  0  0  0  0  0  0  0999 V2000
   25.4937   38.6664   21.7043 N   0  0  0  0  0  0  0  0  0  0  0  0
   26.5851   42.1932   25.0025 N   0  0  0  0  0  0  0  0  0  0  0  0
   24.9212   38.9475   20.3842 C   0  0  0  0  0  0  0  0  0  0  0  0
   25.7174   38.0043   19.4949 C   0  0  2  0  0  0  0  0  0  0  0  0
   25.1293   39.4835   22.8563 C   0  0  0  0  0  0  0  0  0  0  0  0
   23.8924   39.3820   23.5252 C   0  0  0  0  0  0  0  0  0  0  0  0
   23.5352   40.1688   24.5916 C   0  0  0  0  0  0  0  0  0  0  0  0
   24.0085   42.0262   26.1916 C   0  0  0  0  0  0  0  0  0  0  0  0
   28.6296   43.1343   25.2407 C   0  0  0  0  0  0  0  0  0  0  0  0
   28.2992   41.1236   23.6379 C   0  0  0  0  0  0  0  0  0  0  0  0
   26.0396   40.4561   23.3580 C   0  0  0  0  0  0  0  0  0  0  0  0
   24.7679   43.6954   28.8771 O   0  0  0  0  0  0  0  0  0  0  0  0
   24.6493   44.0042   27.6894 C   0  0  0  0  0  0  0  0  0  0  0  0
   24.1868   45.1865   27.3018 O   0  0  0  0  0  0  0  0  0  0  0  0
   25.0076   43.0422   26.6135 C   0  0  1  0  0  0  0  0  0  0  0  0
   22.9165   41.8909   26.7539 O   0  0  0  0  0  0  0  0  0  0  0  0
   26.2824   43.0916   26.0230 C   0  0  0  0  0  0  0  0  0  0  0  0
   27.9238   42.2071   24.5863 C   0  0  0  0  0  0  0  0  0  0  0  0
   27.6945   43.9885   26.3971 S   0  0  0  0  0  0  0  0  0  0  0  0
   25.6815   41.2516   24.4700 C   0  0  0  0  0  0  0  0  0  0  0  0
   24.4197   41.1339   25.0730 C   0  0  0  0  0  0  0  0  0  0  0  0
   23.0105   38.4452   23.1223 F   0  0  0  0  0  0  0  0  0  0  0  0
   27.2675   40.6821   22.7166 N   0  0  0  0  0  0  0  0  0  0  0  0
   27.0937   41.4985   21.5341 C   0  0  0  0  0  0  0  0  0  0  0  0
   26.8108   38.0494   21.5950 C   0  0  0  0  0  0  0  0  0  0  0  0
   24.8638   37.1121   18.7771 O   0  0  0  0  0  0  0  0  0  0  0  0
   26.5469   37.1199   20.4224 C   0  0  2  0  0  0  0  0  0  0  0  0
   27.7295   36.6487   19.6768 N   0  0  0  0  0  0  0  0  0  0  0  0
   27.4664   35.5943   18.6806 C   0  0  0  0  0  0  0  0  0  0  0  0
   28.5443   37.7447   19.1301 C   0  0  0  0  0  0  0  0  0  0  0  0
  1  5  1  0  0  0  0
  2 17  1  0  0  0  0
  3  1  1  0  0  0  0
  4  3  1  0  0  0  0
  4 26  1  1  0  0  0
  5 11  2  0  0  0  0
  5  6  1  0  0  0  0
  6  7  2  0  0  0  0
  7 21  1  0  0  0  0
  8 15  1  0  0  0  0
  8 16  2  0  0  0  0
  9 19  1  0  0  0  0
 10 18  1  0  0  0  0
 11 20  1  0  0  0  0
 13 14  1  0  0  0  0
 13 12  2  0  0  0  0
 15 13  1  1  0  0  0
 17 19  2  0  0  0  0
 17 15  1  0  0  0  0
 18  2  1  0  0  0  0
 18  9  2  0  0  0  0
 20 21  2  0  0  0  0
 20  2  1  0  0  0  0
 21  8  1  0  0  0  0
 22  6  1  0  0  0  0
 23 11  1  0  0  0  0
 23 10  1  0  0  0  0
 24 23  1  0  0  0  0
 25  1  1  0  0  0  0
 27  4  1  0  0  0  0
 27 25  1  0  0  0  0
 27 28  1  6  0  0  0
 29 28  1  0  0  0  0
 30 28  1  0  0  0  0
M  END
>  <CHROM.1>
75.33922446,175.78431827,83.75670677,62.47250141,-74.67616271,25.87778250
40.63180379,23.57916797,1.46093778,-0.30778347,-2.31875501

>  <Name>
lig.pdb

>  <RI>
0

>  <Rbt.Current_Directory>
/home/itssahil/PROJECTS/Mol_Feturizer/New_Systems/rnas/6bfb

>  <Rbt.Executable>
rbdock ($Id: //depot/dev/client3/rdock/2013.1/src/exe/rbdock.cxx#4 $)

>  <Rbt.Library>
libRbt.so (2013.1, Build901 2013/11/27)

>  <Rbt.Parameter_File>
/export/apps/rDock/src/rDock_2013.1_src/data/scripts/dock_solv.prm

>  <Rbt.Receptor>
prm/pocket_docking_6.prm

>  <SCORE>
-42.0682

>  <SCORE.INTER>
-37.534

>  <SCORE.INTER.CONST>
1

>  <SCORE.INTER.POLAR>
-1.73618

>  <SCORE.INTER.ROT>
3

>  <SCORE.INTER.SOLV>
10.9349

>  <SCORE.INTER.VDW>
-28.4804

>  <SCORE.INTER.norm>
-1.25113

>  <SCORE.INTRA>
-4.53416

>  <SCORE.INTRA.DIHEDRAL>
-7.41669

>  <SCORE.INTRA.DIHEDRAL.0>
9.41909

>  <SCORE.INTRA.POLAR>
0

>  <SCORE.INTRA.POLAR.0>
0

>  <SCORE.INTRA.REPUL>
0

>  <SCORE.INTRA.REPUL.0>
0

>  <SCORE.INTRA.SOLV>
0.0516378

>  <SCORE.INTRA.SOLV.lig_0>
-26.2491

>  <SCORE.INTRA.VDW>
-0.851639

>  <SCORE.INTRA.VDW.0>
2.57239

>  <SCORE.INTRA.norm>
-0.151139

>  <SCORE.RESTR>
0

>  <SCORE.RESTR.CAVITY>
0

>  <SCORE.RESTR.norm>
0

>  <SCORE.SYSTEM>
0

>  <SCORE.SYSTEM.CONST>
0

>  <SCORE.SYSTEM.DIHEDRAL>
0

>  <SCORE.SYSTEM.SOLV>
0

>  <SCORE.SYSTEM.norm>
0

>  <SCORE.heavy>
30

>  <SCORE.norm>
-1.40227

>  <RMSD>
1.808

$$$$
lig.pdb
 OpenBabel11021811523D
libRbt.so/2013.1/901 2013/11/27
 30 34  0  0  0  0  0  0  0  0999 V2000
   24.3930   37.7910   21.1765 N   0  0  0  0  0  0  0  0  0  0  0  0
   26.9041   41.0499   23.9299 N   0  0  0  0  0  0  0  0  0  0  0  0
   25.5562   37.0033   20.7568 C   0  0  0  0  0  0  0  0  0  0  0  0
   24.9550   36.1154   19.6776 C   0  0  2  0  0  0  0  0  0  0  0  0
   24.4789   38.6761   22.3326 C   0  0  0  0  0  0  0  0  0  0  0  0
   23.4395   38.8365   23.2715 C   0  0  0  0  0  0  0  0  0  0  0  0
   23.5060   39.6897   24.3446 C   0  0  0  0  0  0  0  0  0  0  0  0
   24.6995   41.4256   25.6848 C   0  0  0  0  0  0  0  0  0  0  0  0
   29.0912   41.5544   23.6394 C   0  0  0  0  0  0  0  0  0  0  0  0
   28.0028   39.6392   22.2726 C   0  0  0  0  0  0  0  0  0  0  0  0
   25.6550   39.4462   22.5561 C   0  0  0  0  0  0  0  0  0  0  0  0
   25.2264   44.1561   26.9625 O   0  0  0  0  0  0  0  0  0  0  0  0
   26.0522   43.2442   26.8804 C   0  0  0  0  0  0  0  0  0  0  0  0
   27.0761   43.1307   27.7176 O   0  0  0  0  0  0  0  0  0  0  0  0
   25.9500   42.2192   25.8079 C   0  0  1  0  0  0  0  0  0  0  0  0
   23.7663   41.5222   26.4890 O   0  0  0  0  0  0  0  0  0  0  0  0
   27.0336   42.0008   24.9394 C   0  0  0  0  0  0  0  0  0  0  0  0
   28.0826   40.7854   23.2181 C   0  0  0  0  0  0  0  0  0  0  0  0
   28.6423   42.5928   24.9284 S   0  0  0  0  0  0  0  0  0  0  0  0
   25.7331   40.3085   23.6732 C   0  0  0  0  0  0  0  0  0  0  0  0
   24.6513   40.4575   24.5547 C   0  0  0  0  0  0  0  0  0  0  0  0
   22.3207   38.0965   23.1355 F   0  0  0  0  0  0  0  0  0  0  0  0
   26.7168   39.4099   21.6387 N   0  0  0  0  0  0  0  0  0  0  0  0
   26.4334   40.2334   20.4827 C   0  0  0  0  0  0  0  0  0  0  0  0
   23.1431   37.1331   20.8128 C   0  0  0  0  0  0  0  0  0  0  0  0
   25.6311   36.2736   18.4294 O   0  0  0  0  0  0  0  0  0  0  0  0
   23.5324   36.6146   19.4387 C   0  0  2  0  0  0  0  0  0  0  0  0
   22.7324   35.4949   18.9068 N   0  0  0  0  0  0  0  0  0  0  0  0
   21.2740   35.6270   19.0768 C   0  0  0  0  0  0  0  0  0  0  0  0
   23.1043   35.1177   17.5344 C   0  0  0  0  0  0  0  0  0  0  0  0
  1  5  1  0  0  0  0
  2 17  1  0  0  0  0
  3  1  1  0  0  0  0
  4  3  1  0  0  0  0
  4 26  1  6  0  0  0
  5 11  2  0  0  0  0
  5  6  1  0  0  0  0
  6  7  2  0  0  0  0
  7 21  1  0  0  0  0
  8 15  1  0  0  0  0
  8 16  2  0  0  0  0
  9 19  1  0  0  0  0
 10 18  1  0  0  0  0
 11 20  1  0  0  0  0
 13 14  1  0  0  0  0
 13 12  2  0  0  0  0
 15 13  1  1  0  0  0
 17 19  2  0  0  0  0
 17 15  1  0  0  0  0
 18  2  1  0  0  0  0
 18  9  2  0  0  0  0
 20 21  2  0  0  0  0
 20  2  1  0  0  0  0
 21  8  1  0  0  0  0
 22  6  1  0  0  0  0
 23 11  1  0  0  0  0
 23 10  1  0  0  0  0
 24 23  1  0  0  0  0
 25  1  1  0  0  0  0
 27  4  1  0  0  0  0
 27 25  1  0  0  0  0
 27 28  1  1  0  0  0
 29 28  1  0  0  0  0
 30 28  1  0  0  0  0
M  END
>  <CHROM.1>
-140.77615458,1.67952762,-56.76100481,63.51701269,158.57762178,25.35188038
39.60827987,22.86369696,1.92686786,-0.31780791,-2.22447569

>  <Name>
lig.pdb

>  <RI>
0

>  <Rbt.Current_Directory>
/home/itssahil/PROJECTS/Mol_Feturizer/New_Systems/rnas/6bfb

>  <Rbt.Executable>
rbdock ($Id: //depot/dev/client3/rdock/2013.1/src/exe/rbdock.cxx#4 $)

>  <Rbt.Library>
libRbt.so (2013.1, Build901 2013/11/27)

>  <Rbt.Parameter_File>
/export/apps/rDock/src/rDock_2013.1_src/data/scripts/dock_solv.prm

>  <Rbt.Receptor>
prm/pocket_docking_7.prm

>  <SCORE>
-38.9065

>  <SCORE.INTER>
-35.199

>  <SCORE.INTER.CONST>
1

>  <SCORE.INTER.POLAR>
0

>  <SCORE.INTER.ROT>
3

>  <SCORE.INTER.SOLV>
13.1711

>  <SCORE.INTER.VDW>
-33.4564

>  <SCORE.INTER.norm>
-1.1733

>  <SCORE.INTRA>
-3.70751

>  <SCORE.INTRA.DIHEDRAL>
-7.30327

>  <SCORE.INTRA.DIHEDRAL.0>
9.41909

>  <SCORE.INTRA.POLAR>
0

>  <SCORE.INTRA.POLAR.0>
0

>  <SCORE.INTRA.REPUL>
0

>  <SCORE.INTRA.REPUL.0>
0

>  <SCORE.INTRA.SOLV>
-0.0690975

>  <SCORE.INTRA.SOLV.lig_0>
-26.2491

>  <SCORE.INTRA.VDW>
-0.0213266

>  <SCORE.INTRA.VDW.0>
2.57239

>  <SCORE.INTRA.norm>
-0.123584

>  <SCORE.RESTR>
0

>  <SCORE.RESTR.CAVITY>
0

>  <SCORE.RESTR.norm>
0

>  <SCORE.SYSTEM>
0

>  <SCORE.SYSTEM.CONST>
0

>  <SCORE.SYSTEM.DIHEDRAL>
0

>  <SCORE.SYSTEM.SOLV>
0

>  <SCORE.SYSTEM.norm>
0

>  <SCORE.heavy>
30

>  <SCORE.norm>
-1.29688

>  <RMSD>
1.809

$$$$
lig.pdb
 OpenBabel11021811523D
libRbt.so/2013.1/901 2013/11/27
 30 34  0  0  0  0  0  0  0  0999 V2000
   26.5436   39.2868   21.3115 N   0  0  0  0  0  0  0  0  0  0  0  0
   26.7123   42.4544   25.1122 N   0  0  0  0  0  0  0  0  0  0  0  0
   26.7958   37.8431   21.3515 C   0  0  0  0  0  0  0  0  0  0  0  0
   27.2789   37.5744   19.9342 C   0  0  2  0  0  0  0  0  0  0  0  0
   25.8990   39.9552   22.4364 C   0  0  0  0  0  0  0  0  0  0  0  0
   24.5575   39.7353   22.8101 C   0  0  0  0  0  0  0  0  0  0  0  0
   23.9396   40.3836   23.8502 C   0  0  0  0  0  0  0  0  0  0  0  0
   23.9580   42.0637   25.6970 C   0  0  0  0  0  0  0  0  0  0  0  0
   28.6031   43.4339   25.8791 C   0  0  0  0  0  0  0  0  0  0  0  0
   28.7336   41.6068   24.0445 C   0  0  0  0  0  0  0  0  0  0  0  0
   26.6257   40.8962   23.2191 C   0  0  0  0  0  0  0  0  0  0  0  0
   24.0172   43.4352   28.6342 O   0  0  0  0  0  0  0  0  0  0  0  0
   24.1544   43.8811   27.4929 C   0  0  0  0  0  0  0  0  0  0  0  0
   23.7397   45.0932   27.1454 O   0  0  0  0  0  0  0  0  0  0  0  0
   24.7856   43.0600   26.4258 C   0  0  1  0  0  0  0  0  0  0  0  0
   22.7823   41.8275   25.9950 O   0  0  0  0  0  0  0  0  0  0  0  0
   26.1506   43.2206   26.1309 C   0  0  0  0  0  0  0  0  0  0  0  0
   28.1053   42.5623   24.9966 C   0  0  0  0  0  0  0  0  0  0  0  0
   27.3982   44.1185   26.8896 S   0  0  0  0  0  0  0  0  0  0  0  0
   25.9968   41.5479   24.3042 C   0  0  0  0  0  0  0  0  0  0  0  0
   24.6457   41.3185   24.6070 C   0  0  0  0  0  0  0  0  0  0  0  0
   23.8358   38.8197   22.1331 F   0  0  0  0  0  0  0  0  0  0  0  0
   27.9453   41.2363   22.8828 N   0  0  0  0  0  0  0  0  0  0  0  0
   27.9757   42.1744   21.7811 C   0  0  0  0  0  0  0  0  0  0  0  0
   26.3695   39.7609   19.9432 C   0  0  0  0  0  0  0  0  0  0  0  0
   28.5774   36.9798   19.9249 O   0  0  0  0  0  0  0  0  0  0  0  0
   27.4464   38.9341   19.2609 C   0  0  2  0  0  0  0  0  0  0  0  0
   27.3095   38.7488   17.8037 N   0  0  0  0  0  0  0  0  0  0  0  0
   26.9460   39.9605   17.0467 C   0  0  0  0  0  0  0  0  0  0  0  0
   28.4442   38.0318   17.2017 C   0  0  0  0  0  0  0  0  0  0  0  0
  1  5  1  0  0  0  0
  2 17  1  0  0  0  0
  3  1  1  0  0  0  0
  4  3  1  0  0  0  0
  4 26  1  1  0  0  0
  5 11  2  0  0  0  0
  5  6  1  0  0  0  0
  6  7  2  0  0  0  0
  7 21  1  0  0  0  0
  8 15  1  0  0  0  0
  8 16  2  0  0  0  0
  9 19  1  0  0  0  0
 10 18  1  0  0  0  0
 11 20  1  0  0  0  0
 13 14  1  0  0  0  0
 13 12  2  0  0  0  0
 15 13  1  1  0  0  0
 17 19  2  0  0  0  0
 17 15  1  0  0  0  0
 18  2  1  0  0  0  0
 18  9  2  0  0  0  0
 20 21  2  0  0  0  0
 20  2  1  0  0  0  0
 21  8  1  0  0  0  0
 22  6  1  0  0  0  0
 23 11  1  0  0  0  0
 23 10  1  0  0  0  0
 24 23  1  0  0  0  0
 25  1  1  0  0  0  0
 27  4  1  0  0  0  0
 27 25  1  0  0  0  0
 27 28  1  6  0  0  0
 29 28  1  0  0  0  0
 30 28  1  0  0  0  0
M  END
>  <CHROM.1>
-67.28654177,-179.48109778,82.42262471,64.01627945,158.26682829,26.24068995
41.08520401,23.30030681,1.33625507,-0.30168187,-2.21432248

>  <Name>
lig.pdb

>  <RI>
0

>  <Rbt.Current_Directory>
/home/itssahil/PROJECTS/Mol_Feturizer/New_Systems/rnas/6bfb

>  <Rbt.Executable>
rbdock ($Id: //depot/dev/client3/rdock/2013.1/src/exe/rbdock.cxx#4 $)

>  <Rbt.Library>
libRbt.so (2013.1, Build901 2013/11/27)

>  <Rbt.Parameter_File>
/export/apps/rDock/src/rDock_2013.1_src/data/scripts/dock_solv.prm

>  <Rbt.Receptor>
prm/pocket_docking_7.prm

>  <SCORE>
-35.6082

>  <SCORE.INTER>
-30.1988

>  <SCORE.INTER.CONST>
1

>  <SCORE.INTER.POLAR>
-0.848528

>  <SCORE.INTER.ROT>
3

>  <SCORE.INTER.SOLV>
10.2762

>  <SCORE.INTER.VDW>
-26.3295

>  <SCORE.INTER.norm>
-1.00663

>  <SCORE.INTRA>
-5.40941

>  <SCORE.INTRA.DIHEDRAL>
-7.27353

>  <SCORE.INTRA.DIHEDRAL.0>
9.41909

>  <SCORE.INTRA.POLAR>
0

>  <SCORE.INTRA.POLAR.0>
0

>  <SCORE.INTRA.REPUL>
0.0966608

>  <SCORE.INTRA.REPUL.0>
0

>  <SCORE.INTRA.SOLV>
-0.267545

>  <SCORE.INTRA.SOLV.lig_0>
-26.2491

>  <SCORE.INTRA.VDW>
-2.12217

>  <SCORE.INTRA.VDW.0>
2.57239

>  <SCORE.INTRA.norm>
-0.180314

>  <SCORE.RESTR>
0

>  <SCORE.RESTR.CAVITY>
0

>  <SCORE.RESTR.norm>
0

>  <SCORE.SYSTEM>
0

>  <SCORE.SYSTEM.CONST>
0

>  <SCORE.SYSTEM.DIHEDRAL>
0

>  <SCORE.SYSTEM.SOLV>
0

>  <SCORE.SYSTEM.norm>
0

>  <SCORE.heavy>
30

>  <SCORE.norm>
-1.18694

>  <RMSD>
1.817

$$$$
lig.pdb
 OpenBabel11021811523D
libRbt.so/2013.1/901 2013/11/27
 30 34  0  0  0  0  0  0  0  0999 V2000
   25.2374   38.5932   21.6721 N   0  0  0  0  0  0  0  0  0  0  0  0
   26.7810   42.0853   24.8233 N   0  0  0  0  0  0  0  0  0  0  0  0
   24.6674   38.9640   20.3733 C   0  0  0  0  0  0  0  0  0  0  0  0
   25.3089   37.9390   19.4502 C   0  0  2  0  0  0  0  0  0  0  0  0
   25.0155   39.4340   22.8432 C   0  0  0  0  0  0  0  0  0  0  0  0
   23.8395   39.3954   23.6199 C   0  0  0  0  0  0  0  0  0  0  0  0
   23.6156   40.2051   24.7054 C   0  0  0  0  0  0  0  0  0  0  0  0
   24.3153   42.0482   26.2375 C   0  0  0  0  0  0  0  0  0  0  0  0
   28.8802   42.9301   24.8696 C   0  0  0  0  0  0  0  0  0  0  0  0
   28.3152   40.9271   23.3237 C   0  0  0  0  0  0  0  0  0  0  0  0
   26.0110   40.3656   23.2520 C   0  0  0  0  0  0  0  0  0  0  0  0
   25.9528   44.0630   28.6091 O   0  0  0  0  0  0  0  0  0  0  0  0
   25.1783   44.0031   27.6517 C   0  0  0  0  0  0  0  0  0  0  0  0
   24.1124   44.7870   27.5455 O   0  0  0  0  0  0  0  0  0  0  0  0
   25.3943   43.0183   26.5585 C   0  0  1  0  0  0  0  0  0  0  0  0
   23.2725   41.9683   26.8957 O   0  0  0  0  0  0  0  0  0  0  0  0
   26.6124   43.0035   25.8570 C   0  0  0  0  0  0  0  0  0  0  0  0
   28.0766   42.0332   24.2901 C   0  0  0  0  0  0  0  0  0  0  0  0
   28.0924   43.8349   26.0952 S   0  0  0  0  0  0  0  0  0  0  0  0
   25.7907   41.1842   24.3829 C   0  0  0  0  0  0  0  0  0  0  0  0
   24.5834   41.1302   25.0964 C   0  0  0  0  0  0  0  0  0  0  0  0
   22.8826   38.4989   23.3066 F   0  0  0  0  0  0  0  0  0  0  0  0
   27.1862   40.5291   22.5021 N   0  0  0  0  0  0  0  0  0  0  0  0
   26.9462   41.3452   21.3310 C   0  0  0  0  0  0  0  0  0  0  0  0
   26.4603   37.8137   21.5157 C   0  0  0  0  0  0  0  0  0  0  0  0
   24.3267   37.1742   18.7501 O   0  0  0  0  0  0  0  0  0  0  0  0
   26.0444   36.9424   20.3424 C   0  0  2  0  0  0  0  0  0  0  0  0
   27.1341   36.3339   19.5557 N   0  0  0  0  0  0  0  0  0  0  0  0
   28.2254   37.2504   19.1783 C   0  0  0  0  0  0  0  0  0  0  0  0
   27.6334   35.0766   20.1334 C   0  0  0  0  0  0  0  0  0  0  0  0
  1  5  1  0  0  0  0
  2 17  1  0  0  0  0
  3  1  1  0  0  0  0
  4  3  1  0  0  0  0
  4 26  1  1  0  0  0
  5 11  2  0  0  0  0
  5  6  1  0  0  0  0
  6  7  2  0  0  0  0
  7 21  1  0  0  0  0
  8 15  1  0  0  0  0
  8 16  2  0  0  0  0
  9 19  1  0  0  0  0
 10 18  1  0  0  0  0
 11 20  1  0  0  0  0
 13 14  1  0  0  0  0
 13 12  2  0  0  0  0
 15 13  1  1  0  0  0
 17 19  2  0  0  0  0
 17 15  1  0  0  0  0
 18  2  1  0  0  0  0
 18  9  2  0  0  0  0
 20 21  2  0  0  0  0
 20  2  1  0  0  0  0
 21  8  1  0  0  0  0
 22  6  1  0  0  0  0
 23 11  1  0  0  0  0
 23 10  1  0  0  0  0
 24 23  1  0  0  0  0
 25  1  1  0  0  0  0
 27  4  1  0  0  0  0
 27 25  1  0  0  0  0
 27 28  1  6  0  0  0
 29 28  1  0  0  0  0
 30 28  1  0  0  0  0
M  END
>  <CHROM.1>
81.22937266,0.10900868,122.81716208,65.40406174,67.20735339,25.91408984,40.52728788
23.55893431,1.54431439,-0.27539288,-2.32276660

>  <Name>
lig.pdb

>  <RI>
0

>  <Rbt.Current_Directory>
/home/itssahil/PROJECTS/Mol_Feturizer/New_Systems/rnas/6bfb

>  <Rbt.Executable>
rbdock ($Id: //depot/dev/client3/rdock/2013.1/src/exe/rbdock.cxx#4 $)

>  <Rbt.Library>
libRbt.so (2013.1, Build901 2013/11/27)

>  <Rbt.Parameter_File>
/export/apps/rDock/src/rDock_2013.1_src/data/scripts/dock_solv.prm

>  <Rbt.Receptor>
prm/pocket_docking_3.prm

>  <SCORE>
-42.0977

>  <SCORE.INTER>
-35.7325

>  <SCORE.INTER.CONST>
1

>  <SCORE.INTER.POLAR>
-1.04084

>  <SCORE.INTER.ROT>
3

>  <SCORE.INTER.SOLV>
11.6813

>  <SCORE.INTER.VDW>
-29.846

>  <SCORE.INTER.norm>
-1.19108

>  <SCORE.INTRA>
-6.36523

>  <SCORE.INTRA.DIHEDRAL>
-7.34858

>  <SCORE.INTRA.DIHEDRAL.0>
9.41909

>  <SCORE.INTRA.POLAR>
0

>  <SCORE.INTRA.POLAR.0>
0

>  <SCORE.INTRA.REPUL>
0

>  <SCORE.INTRA.REPUL.0>
0

>  <SCORE.INTRA.SOLV>
-0.146779

>  <SCORE.INTRA.SOLV.lig_0>
-26.2491

>  <SCORE.INTRA.VDW>
-2.61755

>  <SCORE.INTRA.VDW.0>
2.57239

>  <SCORE.INTRA.norm>
-0.212174

>  <SCORE.RESTR>
0

>  <SCORE.RESTR.CAVITY>
0

>  <SCORE.RESTR.norm>
0

>  <SCORE.SYSTEM>
0

>  <SCORE.SYSTEM.CONST>
0

>  <SCORE.SYSTEM.DIHEDRAL>
0

>  <SCORE.SYSTEM.SOLV>
0

>  <SCORE.SYSTEM.norm>
0

>  <SCORE.heavy>
30

>  <SCORE.norm>
-1.40326

>  <RMSD>
1.818

$$$$
lig.pdb
 OpenBabel11021811523D
libRbt.so/2013.1/901 2013/11/27
 30 34  0  0  0  0  0  0  0  0999 V2000
   25.2306   38.6350   21.7158 N   0  0  0  0  0  0  0  0  0  0  0  0
   26.7359   42.0689   24.9484 N   0  0  0  0  0  0  0  0  0  0  0  0
   24.5920   38.9777   20.4413 C   0  0  0  0  0  0  0  0  0  0  0  0
   25.2652   38.0035   19.4864 C   0  0  2  0  0  0  0  0  0  0  0  0
   24.9964   39.4509   22.9020 C   0  0  0  0  0  0  0  0  0  0  0  0
   23.8151   39.3915   23.6692 C   0  0  0  0  0  0  0  0  0  0  0  0
   23.5798   40.1780   24.7692 C   0  0  0  0  0  0  0  0  0  0  0  0
   24.2603   41.9925   26.3434 C   0  0  0  0  0  0  0  0  0  0  0  0
   28.8310   42.9215   25.0271 C   0  0  0  0  0  0  0  0  0  0  0  0
   28.2860   40.9480   23.4368 C   0  0  0  0  0  0  0  0  0  0  0  0
   25.9849   40.3782   23.3369 C   0  0  0  0  0  0  0  0  0  0  0  0
   24.2286   43.7157   28.6462 O   0  0  0  0  0  0  0  0  0  0  0  0
   25.1044   43.9220   27.8033 C   0  0  0  0  0  0  0  0  0  0  0  0
   25.8739   45.0034   27.8232 O   0  0  0  0  0  0  0  0  0  0  0  0
   25.3326   42.9605   26.6920 C   0  0  1  0  0  0  0  0  0  0  0  0
   23.2132   41.8948   26.9923 O   0  0  0  0  0  0  0  0  0  0  0  0
   26.5558   42.9652   25.9992 C   0  0  0  0  0  0  0  0  0  0  0  0
   28.0355   42.0332   24.4237 C   0  0  0  0  0  0  0  0  0  0  0  0
   28.0304   43.7979   26.2651 S   0  0  0  0  0  0  0  0  0  0  0  0
   25.7528   41.1727   24.4825 C   0  0  0  0  0  0  0  0  0  0  0  0
   24.5406   41.0990   25.1860 C   0  0  0  0  0  0  0  0  0  0  0  0
   22.8644   38.4974   23.3307 F   0  0  0  0  0  0  0  0  0  0  0  0
   27.1648   40.5619   22.5990 N   0  0  0  0  0  0  0  0  0  0  0  0
   26.9296   41.4006   21.4431 C   0  0  0  0  0  0  0  0  0  0  0  0
   26.4949   37.9378   21.5091 C   0  0  0  0  0  0  0  0  0  0  0  0
   24.3103   37.1817   18.8136 O   0  0  0  0  0  0  0  0  0  0  0  0
   26.0948   37.0501   20.3426 C   0  0  2  0  0  0  0  0  0  0  0  0
   27.1930   36.5195   19.5125 N   0  0  0  0  0  0  0  0  0  0  0  0
   26.7927   35.5246   18.5008 C   0  0  0  0  0  0  0  0  0  0  0  0
   28.0565   37.5707   18.9530 C   0  0  0  0  0  0  0  0  0  0  0  0
  1  5  1  0  0  0  0
  2 17  1  0  0  0  0
  3  1  1  0  0  0  0
  4  3  1  0  0  0  0
  4 26  1  1  0  0  0
  5 11  2  0  0  0  0
  5  6  1  0  0  0  0
  6  7  2  0  0  0  0
  7 21  1  0  0  0  0
  8 15  1  0  0  0  0
  8 16  2  0  0  0  0
  9 19  1  0  0  0  0
 10 18  1  0  0  0  0
 11 20  1  0  0  0  0
 13 14  1  0  0  0  0
 13 12  2  0  0  0  0
 15 13  1  1  0  0  0
 17 19  2  0  0  0  0
 17 15  1  0  0  0  0
 18  2  1  0  0  0  0
 18  9  2  0  0  0  0
 20 21  2  0  0  0  0
 20  2  1  0  0  0  0
 21  8  1  0  0  0  0
 22  6  1  0  0  0  0
 23 11  1  0  0  0  0
 23 10  1  0  0  0  0
 24 23  1  0  0  0  0
 25  1  1  0  0  0  0
 27  4  1  0  0  0  0
 27 25  1  0  0  0  0
 27 28  1  6  0  0  0
 29 28  1  0  0  0  0
 30 28  1  0  0  0  0
M  END
>  <CHROM.1>
76.94018397,-0.60151735,19.07045258,66.02016001,-73.43527390,25.85790568
40.55624677,23.58027290,1.55845512,-0.34248768,-2.27740427

>  <Name>
lig.pdb

>  <RI>
0

>  <Rbt.Current_Directory>
/home/itssahil/PROJECTS/Mol_Feturizer/New_Systems/rnas/6bfb

>  <Rbt.Executable>
rbdock ($Id: //depot/dev/client3/rdock/2013.1/src/exe/rbdock.cxx#4 $)

>  <Rbt.Library>
libRbt.so (2013.1, Build901 2013/11/27)

>  <Rbt.Parameter_File>
/export/apps/rDock/src/rDock_2013.1_src/data/scripts/dock_solv.prm

>  <Rbt.Receptor>
prm/pocket_docking_7.prm

>  <SCORE>
-38.5418

>  <SCORE.INTER>
-34.3302

>  <SCORE.INTER.CONST>
1

>  <SCORE.INTER.POLAR>
-1.0469

>  <SCORE.INTER.ROT>
3

>  <SCORE.INTER.SOLV>
11.3064

>  <SCORE.INTER.VDW>
-28.7659

>  <SCORE.INTER.norm>
-1.14434

>  <SCORE.INTRA>
-4.2116

>  <SCORE.INTRA.DIHEDRAL>
-7.46838

>  <SCORE.INTRA.DIHEDRAL.0>
9.41909

>  <SCORE.INTRA.POLAR>
0

>  <SCORE.INTRA.POLAR.0>
0

>  <SCORE.INTRA.REPUL>
0

>  <SCORE.INTRA.REPUL.0>
0

>  <SCORE.INTRA.SOLV>
0.18344

>  <SCORE.INTRA.SOLV.lig_0>
-26.2491

>  <SCORE.INTRA.VDW>
-0.56913

>  <SCORE.INTRA.VDW.0>
2.57239

>  <SCORE.INTRA.norm>
-0.140387

>  <SCORE.RESTR>
0

>  <SCORE.RESTR.CAVITY>
0

>  <SCORE.RESTR.norm>
0

>  <SCORE.SYSTEM>
0

>  <SCORE.SYSTEM.CONST>
0

>  <SCORE.SYSTEM.DIHEDRAL>
0

>  <SCORE.SYSTEM.SOLV>
0

>  <SCORE.SYSTEM.norm>
0

>  <SCORE.heavy>
30

>  <SCORE.norm>
-1.28473

>  <RMSD>
1.818

$$$$
lig.pdb
 OpenBabel11021811523D
libRbt.so/2013.1/901 2013/11/27
 30 34  0  0  0  0  0  0  0  0999 V2000
   25.5462   38.6535   21.6664 N   0  0  0  0  0  0  0  0  0  0  0  0
   26.7326   42.1677   24.9451 N   0  0  0  0  0  0  0  0  0  0  0  0
   24.9547   38.9556   20.3594 C   0  0  0  0  0  0  0  0  0  0  0  0
   25.7196   38.0083   19.4475 C   0  0  2  0  0  0  0  0  0  0  0  0
   25.2157   39.4656   22.8321 C   0  0  0  0  0  0  0  0  0  0  0  0
   23.9992   39.3602   23.5370 C   0  0  0  0  0  0  0  0  0  0  0  0
   23.6733   40.1424   24.6168 C   0  0  0  0  0  0  0  0  0  0  0  0
   24.1926   41.9937   26.2096 C   0  0  0  0  0  0  0  0  0  0  0  0
   28.7826   43.1097   25.1263 C   0  0  0  0  0  0  0  0  0  0  0  0
   28.4061   41.1052   23.5257 C   0  0  0  0  0  0  0  0  0  0  0  0
   26.1397   40.4369   23.3105 C   0  0  0  0  0  0  0  0  0  0  0  0
   23.8703   44.6760   27.6315 O   0  0  0  0  0  0  0  0  0  0  0  0
   24.8763   43.9661   27.6958 C   0  0  0  0  0  0  0  0  0  0  0  0
   25.7256   44.0219   28.7144 O   0  0  0  0  0  0  0  0  0  0  0  0
   25.2031   43.0088   26.6057 C   0  0  1  0  0  0  0  0  0  0  0  0
   23.1179   41.8551   26.8036 O   0  0  0  0  0  0  0  0  0  0  0  0
   26.4597   43.0617   25.9778 C   0  0  0  0  0  0  0  0  0  0  0  0
   28.0584   42.1845   24.4893 C   0  0  0  0  0  0  0  0  0  0  0  0
   27.8816   43.9583   26.3135 S   0  0  0  0  0  0  0  0  0  0  0  0
   25.8142   41.2275   24.4359 C   0  0  0  0  0  0  0  0  0  0  0  0
   24.5710   41.1062   25.0756 C   0  0  0  0  0  0  0  0  0  0  0  0
   23.1065   38.4243   23.1567 F   0  0  0  0  0  0  0  0  0  0  0  0
   27.3478   40.6666   22.6337 N   0  0  0  0  0  0  0  0  0  0  0  0
   27.1383   41.4876   21.4603 C   0  0  0  0  0  0  0  0  0  0  0  0
   26.8511   38.0168   21.5277 C   0  0  0  0  0  0  0  0  0  0  0  0
   24.8392   37.1363   18.7373 O   0  0  0  0  0  0  0  0  0  0  0  0
   26.5515   37.1025   20.3518 C   0  0  2  0  0  0  0  0  0  0  0  0
   27.7129   36.6196   19.5807 N   0  0  0  0  0  0  0  0  0  0  0  0
   27.4146   35.5814   18.5775 C   0  0  0  0  0  0  0  0  0  0  0  0
   28.5372   37.7076   19.0324 C   0  0  0  0  0  0  0  0  0  0  0  0
  1  5  1  0  0  0  0
  2 17  1  0  0  0  0
  3  1  1  0  0  0  0
  4  3  1  0  0  0  0
  4 26  1  1  0  0  0
  5 11  2  0  0  0  0
  5  6  1  0  0  0  0
  6  7  2  0  0  0  0
  7 21  1  0  0  0  0
  8 15  1  0  0  0  0
  8 16  2  0  0  0  0
  9 19  1  0  0  0  0
 10 18  1  0  0  0  0
 11 20  1  0  0  0  0
 13 14  1  0  0  0  0
 13 12  2  0  0  0  0
 15 13  1  1  0  0  0
 17 19  2  0  0  0  0
 17 15  1  0  0  0  0
 18  2  1  0  0  0  0
 18  9  2  0  0  0  0
 20 21  2  0  0  0  0
 20  2  1  0  0  0  0
 21  8  1  0  0  0  0
 22  6  1  0  0  0  0
 23 11  1  0  0  0  0
 23 10  1  0  0  0  0
 24 23  1  0  0  0  0
 25  1  1  0  0  0  0
 27  4  1  0  0  0  0
 27 25  1  0  0  0  0
 27 28  1  6  0  0  0
 29 28  1  0  0  0  0
 30 28  1  0  0  0  0
M  END
>  <CHROM.1>
76.53861611,0.59839851,-55.62617767,62.49785609,-74.51184033,25.99353143
40.60450656,23.55089122,1.48851277,-0.31276671,-2.30092689

>  <Name>
lig.pdb

>  <RI>
0

>  <Rbt.Current_Directory>
/home/itssahil/PROJECTS/Mol_Feturizer/New_Systems/rnas/6bfb

>  <Rbt.Executable>
rbdock ($Id: //depot/dev/client3/rdock/2013.1/src/exe/rbdock.cxx#4 $)

>  <Rbt.Library>
libRbt.so (2013.1, Build901 2013/11/27)

>  <Rbt.Parameter_File>
/export/apps/rDock/src/rDock_2013.1_src/data/scripts/dock_solv.prm

>  <Rbt.Receptor>
prm/pocket_docking_3.prm

>  <SCORE>
-39.4713

>  <SCORE.INTER>
-34.5325

>  <SCORE.INTER.CONST>
1

>  <SCORE.INTER.POLAR>
-0.894427

>  <SCORE.INTER.ROT>
3

>  <SCORE.INTER.SOLV>
10.5187

>  <SCORE.INTER.VDW>
-29.1465

>  <SCORE.INTER.norm>
-1.15108

>  <SCORE.INTRA>
-4.93879

>  <SCORE.INTRA.DIHEDRAL>
-7.58048

>  <SCORE.INTRA.DIHEDRAL.0>
9.41909

>  <SCORE.INTRA.POLAR>
0

>  <SCORE.INTRA.POLAR.0>
0

>  <SCORE.INTRA.REPUL>
0

>  <SCORE.INTRA.REPUL.0>
0

>  <SCORE.INTRA.SOLV>
0.122914

>  <SCORE.INTRA.SOLV.lig_0>
-26.2491

>  <SCORE.INTRA.VDW>
-1.21

>  <SCORE.INTRA.VDW.0>
2.57239

>  <SCORE.INTRA.norm>
-0.164626

>  <SCORE.RESTR>
0

>  <SCORE.RESTR.CAVITY>
0

>  <SCORE.RESTR.norm>
0

>  <SCORE.SYSTEM>
0

>  <SCORE.SYSTEM.CONST>
0

>  <SCORE.SYSTEM.DIHEDRAL>
0

>  <SCORE.SYSTEM.SOLV>
0

>  <SCORE.SYSTEM.norm>
0

>  <SCORE.heavy>
30

>  <SCORE.norm>
-1.31571

>  <RMSD>
1.820

$$$$
lig.pdb
 OpenBabel11021811523D
libRbt.so/2013.1/901 2013/11/27
 30 34  0  0  0  0  0  0  0  0999 V2000
   25.5463   38.6481   21.6661 N   0  0  0  0  0  0  0  0  0  0  0  0
   26.7157   42.1560   24.9576 N   0  0  0  0  0  0  0  0  0  0  0  0
   24.9485   38.9432   20.3603 C   0  0  0  0  0  0  0  0  0  0  0  0
   25.7212   38.0034   19.4472 C   0  0  2  0  0  0  0  0  0  0  0  0
   25.2100   39.4575   22.8320 C   0  0  0  0  0  0  0  0  0  0  0  0
   23.9905   39.3497   23.5313 C   0  0  0  0  0  0  0  0  0  0  0  0
   23.6593   40.1294   24.6113 C   0  0  0  0  0  0  0  0  0  0  0  0
   24.1702   41.9775   26.2104 C   0  0  0  0  0  0  0  0  0  0  0  0
   28.7642   43.0991   25.1499 C   0  0  0  0  0  0  0  0  0  0  0  0
   28.3962   41.0978   23.5434 C   0  0  0  0  0  0  0  0  0  0  0  0
   26.1312   40.4284   23.3166 C   0  0  0  0  0  0  0  0  0  0  0  0
   23.8459   44.6647   27.6314 O   0  0  0  0  0  0  0  0  0  0  0  0
   24.8459   43.9472   27.7039 C   0  0  0  0  0  0  0  0  0  0  0  0
   25.6838   43.9921   28.7325 O   0  0  0  0  0  0  0  0  0  0  0  0
   25.1782   42.9925   26.6133 C   0  0  1  0  0  0  0  0  0  0  0  0
   23.0930   41.8370   26.7994 O   0  0  0  0  0  0  0  0  0  0  0  0
   26.4376   43.0476   25.9910 C   0  0  0  0  0  0  0  0  0  0  0  0
   28.0434   42.1748   24.5078 C   0  0  0  0  0  0  0  0  0  0  0  0
   27.8574   43.9444   26.3350 S   0  0  0  0  0  0  0  0  0  0  0  0
   25.8002   41.2163   24.4423 C   0  0  0  0  0  0  0  0  0  0  0  0
   24.5543   41.0928   25.0762 C   0  0  0  0  0  0  0  0  0  0  0  0
   23.1001   38.4141   23.1450 F   0  0  0  0  0  0  0  0  0  0  0  0
   27.3422   40.6604   22.6458 N   0  0  0  0  0  0  0  0  0  0  0  0
   27.1373   41.4838   21.4732 C   0  0  0  0  0  0  0  0  0  0  0  0
   26.8575   38.0252   21.5246 C   0  0  0  0  0  0  0  0  0  0  0  0
   24.8482   37.1217   18.7396 O   0  0  0  0  0  0  0  0  0  0  0  0
   26.5646   37.1069   20.3501 C   0  0  2  0  0  0  0  0  0  0  0  0
   27.7292   36.6358   19.5765 N   0  0  0  0  0  0  0  0  0  0  0  0
   27.4383   35.5984   18.5703 C   0  0  0  0  0  0  0  0  0  0  0  0
   28.5443   37.7321   19.0310 C   0  0  0  0  0  0  0  0  0  0  0  0
  1  5  1  0  0  0  0
  2 17  1  0  0  0  0
  3  1  1  0  0  0  0
  4  3  1  0  0  0  0
  4 26  1  1  0  0  0
  5 11  2  0  0  0  0
  5  6  1  0  0  0  0
  6  7  2  0  0  0  0
  7 21  1  0  0  0  0
  8 15  1  0  0  0  0
  8 16  2  0  0  0  0
  9 19  1  0  0  0  0
 10 18  1  0  0  0  0
 11 20  1  0  0  0  0
 13 14  1  0  0  0  0
 13 12  2  0  0  0  0
 15 13  1  1  0  0  0
 17 19  2  0  0  0  0
 17 15  1  0  0  0  0
 18  2  1  0  0  0  0
 18  9  2  0  0  0  0
 20 21  2  0  0  0  0
 20  2  1  0  0  0  0
 21  8  1  0  0  0  0
 22  6  1  0  0  0  0
 23 11  1  0  0  0  0
 23 10  1  0  0  0  0
 24 23  1  0  0  0  0
 25  1  1  0  0  0  0
 27  4  1  0  0  0  0
 27 25  1  0  0  0  0
 27 28  1  6  0  0  0
 29 28  1  0  0  0  0
 30 28  1  0  0  0  0
M  END
>  <CHROM.1>
75.83514141,1.14696228,-56.25310602,64.00202509,-74.23596147,25.98361646
40.59661281,23.55591011,1.48454121,-0.31111357,-2.29933585

>  <Name>
lig.pdb

>  <RI>
0

>  <Rbt.Current_Directory>
/home/itssahil/PROJECTS/Mol_Feturizer/New_Systems/rnas/6bfb

>  <Rbt.Executable>
rbdock ($Id: //depot/dev/client3/rdock/2013.1/src/exe/rbdock.cxx#4 $)

>  <Rbt.Library>
libRbt.so (2013.1, Build901 2013/11/27)

>  <Rbt.Parameter_File>
/export/apps/rDock/src/rDock_2013.1_src/data/scripts/dock_solv.prm

>  <Rbt.Receptor>
prm/pocket_docking_4.prm

>  <SCORE>
-39.4326

>  <SCORE.INTER>
-34.5228

>  <SCORE.INTER.CONST>
1

>  <SCORE.INTER.POLAR>
-0.894427

>  <SCORE.INTER.ROT>
3

>  <SCORE.INTER.SOLV>
10.5314

>  <SCORE.INTER.VDW>
-29.1443

>  <SCORE.INTER.norm>
-1.15076

>  <SCORE.INTRA>
-4.90981

>  <SCORE.INTRA.DIHEDRAL>
-7.53729

>  <SCORE.INTRA.DIHEDRAL.0>
9.41909

>  <SCORE.INTRA.POLAR>
0

>  <SCORE.INTRA.POLAR.0>
0

>  <SCORE.INTRA.REPUL>
0

>  <SCORE.INTRA.REPUL.0>
0

>  <SCORE.INTRA.SOLV>
0.122026

>  <SCORE.INTRA.SOLV.lig_0>
-26.2491

>  <SCORE.INTRA.VDW>
-1.20218

>  <SCORE.INTRA.VDW.0>
2.57239

>  <SCORE.INTRA.norm>
-0.16366

>  <SCORE.RESTR>
0

>  <SCORE.RESTR.CAVITY>
0

>  <SCORE.RESTR.norm>
0

>  <SCORE.SYSTEM>
0

>  <SCORE.SYSTEM.CONST>
0

>  <SCORE.SYSTEM.DIHEDRAL>
0

>  <SCORE.SYSTEM.SOLV>
0

>  <SCORE.SYSTEM.norm>
0

>  <SCORE.heavy>
30

>  <SCORE.norm>
-1.31442

>  <RMSD>
1.821

$$$$
lig.pdb
 OpenBabel11021811523D
libRbt.so/2013.1/901 2013/11/27
 30 34  0  0  0  0  0  0  0  0999 V2000
   25.1847   38.4627   21.5453 N   0  0  0  0  0  0  0  0  0  0  0  0
   27.0475   41.8662   24.6198 N   0  0  0  0  0  0  0  0  0  0  0  0
   24.6179   38.8831   20.2602 C   0  0  0  0  0  0  0  0  0  0  0  0
   25.1529   37.8122   19.3213 C   0  0  2  0  0  0  0  0  0  0  0  0
   25.0582   39.3149   22.7223 C   0  0  0  0  0  0  0  0  0  0  0  0
   23.9153   39.3411   23.5475 C   0  0  0  0  0  0  0  0  0  0  0  0
   23.7817   40.1624   24.6391 C   0  0  0  0  0  0  0  0  0  0  0  0
   24.6447   41.9650   26.1357 C   0  0  0  0  0  0  0  0  0  0  0  0
   29.1899   42.5947   24.5763 C   0  0  0  0  0  0  0  0  0  0  0  0
   28.4519   40.6250   23.0607 C   0  0  0  0  0  0  0  0  0  0  0  0
   26.1195   40.1906   23.0867 C   0  0  0  0  0  0  0  0  0  0  0  0
   24.7628   44.7032   27.5108 O   0  0  0  0  0  0  0  0  0  0  0  0
   25.6718   43.8703   27.5074 C   0  0  0  0  0  0  0  0  0  0  0  0
   26.5981   43.8205   28.4569 O   0  0  0  0  0  0  0  0  0  0  0  0
   25.7876   42.8747   26.4088 C   0  0  1  0  0  0  0  0  0  0  0  0
   23.6275   41.9427   26.8370 O   0  0  0  0  0  0  0  0  0  0  0  0
   26.9727   42.7928   25.6572 C   0  0  0  0  0  0  0  0  0  0  0  0
   28.3148   41.7430   24.0332 C   0  0  0  0  0  0  0  0  0  0  0  0
   28.5047   43.5419   25.8312 S   0  0  0  0  0  0  0  0  0  0  0  0
   25.9917   41.0206   24.2235 C   0  0  0  0  0  0  0  0  0  0  0  0
   24.8142   41.0332   24.9869 C   0  0  0  0  0  0  0  0  0  0  0  0
   22.8985   38.4983   23.2768 F   0  0  0  0  0  0  0  0  0  0  0  0
   27.2695   40.2892   22.2879 N   0  0  0  0  0  0  0  0  0  0  0  0
   27.0258   41.1167   21.1257 C   0  0  0  0  0  0  0  0  0  0  0  0
   26.3360   37.5866   21.3602 C   0  0  0  0  0  0  0  0  0  0  0  0
   24.0962   37.1323   18.6424 O   0  0  0  0  0  0  0  0  0  0  0  0
   25.8245   36.7561   20.1953 C   0  0  2  0  0  0  0  0  0  0  0  0
   26.8430   36.0633   19.3834 N   0  0  0  0  0  0  0  0  0  0  0  0
   27.9784   36.8987   18.9515 C   0  0  0  0  0  0  0  0  0  0  0  0
   27.2784   34.7852   19.9672 C   0  0  0  0  0  0  0  0  0  0  0  0
  1  5  1  0  0  0  0
  2 17  1  0  0  0  0
  3  1  1  0  0  0  0
  4  3  1  0  0  0  0
  4 26  1  1  0  0  0
  5 11  2  0  0  0  0
  5  6  1  0  0  0  0
  6  7  2  0  0  0  0
  7 21  1  0  0  0  0
  8 15  1  0  0  0  0
  8 16  2  0  0  0  0
  9 19  1  0  0  0  0
 10 18  1  0  0  0  0
 11 20  1  0  0  0  0
 13 14  1  0  0  0  0
 13 12  2  0  0  0  0
 15 13  1  1  0  0  0
 17 19  2  0  0  0  0
 17 15  1  0  0  0  0
 18  2  1  0  0  0  0
 18  9  2  0  0  0  0
 20 21  2  0  0  0  0
 20  2  1  0  0  0  0
 21  8  1  0  0  0  0
 22  6  1  0  0  0  0
 23 11  1  0  0  0  0
 23 10  1  0  0  0  0
 24 23  1  0  0  0  0
 25  1  1  0  0  0  0
 27  4  1  0  0  0  0
 27 25  1  0  0  0  0
 27 28  1  6  0  0  0
 29 28  1  0  0  0  0
 30 28  1  0  0  0  0
M  END
>  <CHROM.1>
83.13556194,0.13381702,-57.67823998,56.98465651,65.59672336,26.05604068,40.34946183
23.40545526,1.62207889,-0.26630045,-2.30239617

>  <Name>
lig.pdb

>  <RI>
0

>  <Rbt.Current_Directory>
/home/itssahil/PROJECTS/Mol_Feturizer/New_Systems/rnas/6bfb

>  <Rbt.Executable>
rbdock ($Id: //depot/dev/client3/rdock/2013.1/src/exe/rbdock.cxx#4 $)

>  <Rbt.Library>
libRbt.so (2013.1, Build901 2013/11/27)

>  <Rbt.Parameter_File>
/export/apps/rDock/src/rDock_2013.1_src/data/scripts/dock_solv.prm

>  <Rbt.Receptor>
prm/blind_docking_80.prm

>  <SCORE>
-42.1162

>  <SCORE.INTER>
-35.7581

>  <SCORE.INTER.CONST>
1

>  <SCORE.INTER.POLAR>
-1.27055

>  <SCORE.INTER.ROT>
3

>  <SCORE.INTER.SOLV>
12.1266

>  <SCORE.INTER.VDW>
-29.2458

>  <SCORE.INTER.norm>
-1.19194

>  <SCORE.INTRA>
-6.35813

>  <SCORE.INTRA.DIHEDRAL>
-7.49774

>  <SCORE.INTRA.DIHEDRAL.0>
9.41909

>  <SCORE.INTRA.POLAR>
0

>  <SCORE.INTRA.POLAR.0>
0

>  <SCORE.INTRA.REPUL>
0

>  <SCORE.INTRA.REPUL.0>
0

>  <SCORE.INTRA.SOLV>
-0.160613

>  <SCORE.INTRA.SOLV.lig_0>
-26.2491

>  <SCORE.INTRA.VDW>
-2.52895

>  <SCORE.INTRA.VDW.0>
2.57239

>  <SCORE.INTRA.norm>
-0.211938

>  <SCORE.RESTR>
0

>  <SCORE.RESTR.CAVITY>
0

>  <SCORE.RESTR.norm>
0

>  <SCORE.SYSTEM>
0

>  <SCORE.SYSTEM.CONST>
0

>  <SCORE.SYSTEM.DIHEDRAL>
0

>  <SCORE.SYSTEM.SOLV>
0

>  <SCORE.SYSTEM.norm>
0

>  <SCORE.heavy>
30

>  <SCORE.norm>
-1.40387

>  <RMSD>
1.823

$$$$
lig.pdb
 OpenBabel11021811523D
libRbt.so/2013.1/901 2013/11/27
 30 34  0  0  0  0  0  0  0  0999 V2000
   24.3116   37.6121   21.0556 N   0  0  0  0  0  0  0  0  0  0  0  0
   26.8704   40.8247   23.8194 N   0  0  0  0  0  0  0  0  0  0  0  0
   25.4599   36.7910   20.6599 C   0  0  0  0  0  0  0  0  0  0  0  0
   24.8513   35.9082   19.5807 C   0  0  2  0  0  0  0  0  0  0  0  0
   24.4040   38.5061   22.2044 C   0  0  0  0  0  0  0  0  0  0  0  0
   23.3542   38.7060   23.1240 C   0  0  0  0  0  0  0  0  0  0  0  0
   23.4278   39.5679   24.1897 C   0  0  0  0  0  0  0  0  0  0  0  0
   24.6489   41.2819   25.5331 C   0  0  0  0  0  0  0  0  0  0  0  0
   29.0759   41.2627   23.5611 C   0  0  0  0  0  0  0  0  0  0  0  0
   27.9549   39.3660   22.1946 C   0  0  0  0  0  0  0  0  0  0  0  0
   25.5981   39.2440   22.4403 C   0  0  0  0  0  0  0  0  0  0  0  0
   26.9651   43.0460   27.5415 O   0  0  0  0  0  0  0  0  0  0  0  0
   26.0340   43.0727   26.7338 C   0  0  0  0  0  0  0  0  0  0  0  0
   25.0820   43.9969   26.7719 O   0  0  0  0  0  0  0  0  0  0  0  0
   25.9197   42.0402   25.6696 C   0  0  1  0  0  0  0  0  0  0  0  0
   23.7057   41.4137   26.3205 O   0  0  0  0  0  0  0  0  0  0  0  0
   27.0108   41.7817   24.8218 C   0  0  0  0  0  0  0  0  0  0  0  0
   28.0524   40.5190   23.1303 C   0  0  0  0  0  0  0  0  0  0  0  0
   28.6360   42.3266   24.8322 S   0  0  0  0  0  0  0  0  0  0  0  0
   25.6828   40.1150   23.5501 C   0  0  0  0  0  0  0  0  0  0  0  0
   24.5913   40.3042   24.4118 C   0  0  0  0  0  0  0  0  0  0  0  0
   22.2168   37.9975   22.9763 F   0  0  0  0  0  0  0  0  0  0  0  0
   26.6735   39.1676   21.5414 N   0  0  0  0  0  0  0  0  0  0  0  0
   26.4335   39.9873   20.3729 C   0  0  0  0  0  0  0  0  0  0  0  0
   23.0504   36.9827   20.6806 C   0  0  0  0  0  0  0  0  0  0  0  0
   25.5485   36.0369   18.3408 O   0  0  0  0  0  0  0  0  0  0  0  0
   23.4453   36.4411   19.3170 C   0  0  2  0  0  0  0  0  0  0  0  0
   22.6245   35.3369   18.7844 N   0  0  0  0  0  0  0  0  0  0  0  0
   21.1674   35.5112   18.9257 C   0  0  0  0  0  0  0  0  0  0  0  0
   23.0107   34.9318   17.4241 C   0  0  0  0  0  0  0  0  0  0  0  0
  1  5  1  0  0  0  0
  2 17  1  0  0  0  0
  3  1  1  0  0  0  0
  4  3  1  0  0  0  0
  4 26  1  6  0  0  0
  5 11  2  0  0  0  0
  5  6  1  0  0  0  0
  6  7  2  0  0  0  0
  7 21  1  0  0  0  0
  8 15  1  0  0  0  0
  8 16  2  0  0  0  0
  9 19  1  0  0  0  0
 10 18  1  0  0  0  0
 11 20  1  0  0  0  0
 13 14  1  0  0  0  0
 13 12  2  0  0  0  0
 15 13  1  1  0  0  0
 17 19  2  0  0  0  0
 17 15  1  0  0  0  0
 18  2  1  0  0  0  0
 18  9  2  0  0  0  0
 20 21  2  0  0  0  0
 20  2  1  0  0  0  0
 21  8  1  0  0  0  0
 22  6  1  0  0  0  0
 23 11  1  0  0  0  0
 23 10  1  0  0  0  0
 24 23  1  0  0  0  0
 25  1  1  0  0  0  0
 27  4  1  0  0  0  0
 27 25  1  0  0  0  0
 27 28  1  1  0  0  0
 29 28  1  0  0  0  0
 30 28  1  0  0  0  0
M  END
>  <CHROM.1>
-141.03351668,1.22809150,126.47648226,62.81194824,158.91007041,25.28255856
39.42329786,22.73701279,1.92548930,-0.28088749,-2.23943961

>  <Name>
lig.pdb

>  <RI>
0

>  <Rbt.Current_Directory>
/home/itssahil/PROJECTS/Mol_Feturizer/New_Systems/rnas/6bfb

>  <Rbt.Executable>
rbdock ($Id: //depot/dev/client3/rdock/2013.1/src/exe/rbdock.cxx#4 $)

>  <Rbt.Library>
libRbt.so (2013.1, Build901 2013/11/27)

>  <Rbt.Parameter_File>
/export/apps/rDock/src/rDock_2013.1_src/data/scripts/dock_solv.prm

>  <Rbt.Receptor>
prm/pocket_docking_6.prm

>  <SCORE>
-37.9611

>  <SCORE.INTER>
-34.3407

>  <SCORE.INTER.CONST>
1

>  <SCORE.INTER.POLAR>
0

>  <SCORE.INTER.ROT>
3

>  <SCORE.INTER.SOLV>
13.536

>  <SCORE.INTER.VDW>
-33.0058

>  <SCORE.INTER.norm>
-1.14469

>  <SCORE.INTRA>
-3.62048

>  <SCORE.INTRA.DIHEDRAL>
-7.35139

>  <SCORE.INTRA.DIHEDRAL.0>
9.41909

>  <SCORE.INTRA.POLAR>
0

>  <SCORE.INTRA.POLAR.0>
0

>  <SCORE.INTRA.REPUL>
0

>  <SCORE.INTRA.REPUL.0>
0

>  <SCORE.INTRA.SOLV>
-0.0495952

>  <SCORE.INTRA.SOLV.lig_0>
-26.2491

>  <SCORE.INTRA.VDW>
0.0800156

>  <SCORE.INTRA.VDW.0>
2.57239

>  <SCORE.INTRA.norm>
-0.120683

>  <SCORE.RESTR>
0

>  <SCORE.RESTR.CAVITY>
0

>  <SCORE.RESTR.norm>
0

>  <SCORE.SYSTEM>
0

>  <SCORE.SYSTEM.CONST>
0

>  <SCORE.SYSTEM.DIHEDRAL>
0

>  <SCORE.SYSTEM.SOLV>
0

>  <SCORE.SYSTEM.norm>
0

>  <SCORE.heavy>
30

>  <SCORE.norm>
-1.26537

>  <RMSD>
1.827

$$$$
lig.pdb
 OpenBabel11021811523D
libRbt.so/2013.1/901 2013/11/27
 30 34  0  0  0  0  0  0  0  0999 V2000
   25.5310   38.6536   21.6812 N   0  0  0  0  0  0  0  0  0  0  0  0
   26.7191   42.1649   24.9625 N   0  0  0  0  0  0  0  0  0  0  0  0
   24.9116   38.9299   20.3814 C   0  0  0  0  0  0  0  0  0  0  0  0
   25.6848   37.9934   19.4653 C   0  0  2  0  0  0  0  0  0  0  0  0
   25.1993   39.4677   22.8452 C   0  0  0  0  0  0  0  0  0  0  0  0
   23.9798   39.3676   23.5456 C   0  0  0  0  0  0  0  0  0  0  0  0
   23.6530   40.1517   24.6237 C   0  0  0  0  0  0  0  0  0  0  0  0
   24.1736   42.0017   26.2174 C   0  0  0  0  0  0  0  0  0  0  0  0
   28.7721   43.0989   25.1508 C   0  0  0  0  0  0  0  0  0  0  0  0
   28.3937   41.0950   23.5500 C   0  0  0  0  0  0  0  0  0  0  0  0
   26.1254   40.4356   23.3265 C   0  0  0  0  0  0  0  0  0  0  0  0
   23.8552   44.6842   27.6380 O   0  0  0  0  0  0  0  0  0  0  0  0
   24.8595   43.9723   27.7051 C   0  0  0  0  0  0  0  0  0  0  0  0
   25.7068   44.0274   28.7255 O   0  0  0  0  0  0  0  0  0  0  0  0
   25.1867   43.0130   26.6169 C   0  0  1  0  0  0  0  0  0  0  0  0
   23.0962   41.8678   26.8075 O   0  0  0  0  0  0  0  0  0  0  0  0
   26.4458   43.0606   25.9937 C   0  0  0  0  0  0  0  0  0  0  0  0
   28.0466   42.1762   24.5117 C   0  0  0  0  0  0  0  0  0  0  0  0
   27.8701   43.9517   26.3342 S   0  0  0  0  0  0  0  0  0  0  0  0
   25.7989   41.2281   24.4503 C   0  0  0  0  0  0  0  0  0  0  0  0
   24.5528   41.1122   25.0854 C   0  0  0  0  0  0  0  0  0  0  0  0
   23.0848   38.4351   23.1624 F   0  0  0  0  0  0  0  0  0  0  0  0
   27.3370   40.6601   22.6542 N   0  0  0  0  0  0  0  0  0  0  0  0
   27.1352   41.4813   21.4796 C   0  0  0  0  0  0  0  0  0  0  0  0
   26.8487   38.0476   21.5269 C   0  0  0  0  0  0  0  0  0  0  0  0
   24.8147   37.0941   18.7767 O   0  0  0  0  0  0  0  0  0  0  0  0
   26.5527   37.1160   20.3637 C   0  0  2  0  0  0  0  0  0  0  0  0
   27.7132   36.6547   19.5781 N   0  0  0  0  0  0  0  0  0  0  0  0
   27.4253   35.5974   18.5919 C   0  0  0  0  0  0  0  0  0  0  0  0
   28.4992   37.7574   19.0035 C   0  0  0  0  0  0  0  0  0  0  0  0
  1  5  1  0  0  0  0
  2 17  1  0  0  0  0
  3  1  1  0  0  0  0
  4  3  1  0  0  0  0
  4 26  1  1  0  0  0
  5 11  2  0  0  0  0
  5  6  1  0  0  0  0
  6  7  2  0  0  0  0
  7 21  1  0  0  0  0
  8 15  1  0  0  0  0
  8 16  2  0  0  0  0
  9 19  1  0  0  0  0
 10 18  1  0  0  0  0
 11 20  1  0  0  0  0
 13 14  1  0  0  0  0
 13 12  2  0  0  0  0
 15 13  1  1  0  0  0
 17 19  2  0  0  0  0
 17 15  1  0  0  0  0
 18  2  1  0  0  0  0
 18  9  2  0  0  0  0
 20 21  2  0  0  0  0
 20  2  1  0  0  0  0
 21  8  1  0  0  0  0
 22  6  1  0  0  0  0
 23 11  1  0  0  0  0
 23 10  1  0  0  0  0
 24 23  1  0  0  0  0
 25  1  1  0  0  0  0
 27  4  1  0  0  0  0
 27 25  1  0  0  0  0
 27 28  1  6  0  0  0
 29 28  1  0  0  0  0
 30 28  1  0  0  0  0
M  END
>  <CHROM.1>
74.50862306,2.56060796,-55.47771792,64.54770920,-74.71677916,25.97797716
40.60704922,23.56368782,1.48855093,-0.30962093,-2.29995865

>  <Name>
lig.pdb

>  <RI>
0

>  <Rbt.Current_Directory>
/home/itssahil/PROJECTS/Mol_Feturizer/New_Systems/rnas/6bfb

>  <Rbt.Executable>
rbdock ($Id: //depot/dev/client3/rdock/2013.1/src/exe/rbdock.cxx#4 $)

>  <Rbt.Library>
libRbt.so (2013.1, Build901 2013/11/27)

>  <Rbt.Parameter_File>
/export/apps/rDock/src/rDock_2013.1_src/data/scripts/dock_solv.prm

>  <Rbt.Receptor>
prm/pocket_docking_3.prm

>  <SCORE>
-39.3779

>  <SCORE.INTER>
-34.5472

>  <SCORE.INTER.CONST>
1

>  <SCORE.INTER.POLAR>
-0.894427

>  <SCORE.INTER.ROT>
3

>  <SCORE.INTER.SOLV>
10.5024

>  <SCORE.INTER.VDW>
-29.1508

>  <SCORE.INTER.norm>
-1.15157

>  <SCORE.INTRA>
-4.8307

>  <SCORE.INTRA.DIHEDRAL>
-7.47334

>  <SCORE.INTRA.DIHEDRAL.0>
9.41909

>  <SCORE.INTRA.POLAR>
0

>  <SCORE.INTRA.POLAR.0>
0

>  <SCORE.INTRA.REPUL>
0

>  <SCORE.INTRA.REPUL.0>
0

>  <SCORE.INTRA.SOLV>
0.123292

>  <SCORE.INTRA.SOLV.lig_0>
-26.2491

>  <SCORE.INTRA.VDW>
-1.15568

>  <SCORE.INTRA.VDW.0>
2.57239

>  <SCORE.INTRA.norm>
-0.161023

>  <SCORE.RESTR>
0

>  <SCORE.RESTR.CAVITY>
0

>  <SCORE.RESTR.norm>
0

>  <SCORE.SYSTEM>
0

>  <SCORE.SYSTEM.CONST>
0

>  <SCORE.SYSTEM.DIHEDRAL>
0

>  <SCORE.SYSTEM.SOLV>
0

>  <SCORE.SYSTEM.norm>
0

>  <SCORE.heavy>
30

>  <SCORE.norm>
-1.3126

>  <RMSD>
1.829

$$$$
lig.pdb
 OpenBabel11021811523D
libRbt.so/2013.1/901 2013/11/27
 30 34  0  0  0  0  0  0  0  0999 V2000
   25.3476   38.5567   21.5489 N   0  0  0  0  0  0  0  0  0  0  0  0
   26.8155   42.1164   24.6603 N   0  0  0  0  0  0  0  0  0  0  0  0
   24.7992   38.9319   20.2420 C   0  0  0  0  0  0  0  0  0  0  0  0
   25.4491   37.9044   19.3276 C   0  0  2  0  0  0  0  0  0  0  0  0
   25.1125   39.3975   22.7173 C   0  0  0  0  0  0  0  0  0  0  0  0
   23.9474   39.3266   23.5081 C   0  0  0  0  0  0  0  0  0  0  0  0
   23.7105   40.1357   24.5912 C   0  0  0  0  0  0  0  0  0  0  0  0
   24.3688   42.0100   26.1037 C   0  0  0  0  0  0  0  0  0  0  0  0
   28.8871   43.0278   24.6767 C   0  0  0  0  0  0  0  0  0  0  0  0
   28.3683   40.9979   23.1498 C   0  0  0  0  0  0  0  0  0  0  0  0
   26.0826   40.3629   23.1087 C   0  0  0  0  0  0  0  0  0  0  0  0
   24.1841   44.7198   27.4914 O   0  0  0  0  0  0  0  0  0  0  0  0
   25.1854   44.0005   27.4957 C   0  0  0  0  0  0  0  0  0  0  0  0
   26.1097   44.0691   28.4459 O   0  0  0  0  0  0  0  0  0  0  0  0
   25.4200   43.0160   26.4061 C   0  0  1  0  0  0  0  0  0  0  0  0
   23.3368   41.9013   26.7746 O   0  0  0  0  0  0  0  0  0  0  0  0
   26.6297   43.0355   25.6904 C   0  0  0  0  0  0  0  0  0  0  0  0
   28.1058   42.1021   24.1122 C   0  0  0  0  0  0  0  0  0  0  0  0
   28.0852   43.9150   25.9060 S   0  0  0  0  0  0  0  0  0  0  0  0
   25.8494   41.1814   24.2371 C   0  0  0  0  0  0  0  0  0  0  0  0
   24.6528   41.0937   24.9651 C   0  0  0  0  0  0  0  0  0  0  0  0
   23.0161   38.3981   23.2115 F   0  0  0  0  0  0  0  0  0  0  0  0
   27.2432   40.5589   22.3440 N   0  0  0  0  0  0  0  0  0  0  0  0
   26.9637   41.3594   21.1709 C   0  0  0  0  0  0  0  0  0  0  0  0
   26.5684   37.7707   21.4101 C   0  0  0  0  0  0  0  0  0  0  0  0
   24.4734   37.1455   18.6119 O   0  0  0  0  0  0  0  0  0  0  0  0
   26.1656   36.9029   20.2297 C   0  0  2  0  0  0  0  0  0  0  0  0
   27.2637   36.2892   19.4589 N   0  0  0  0  0  0  0  0  0  0  0  0
   28.3902   37.1868   19.1447 C   0  0  0  0  0  0  0  0  0  0  0  0
   27.7111   35.0018   20.0124 C   0  0  0  0  0  0  0  0  0  0  0  0
  1  5  1  0  0  0  0
  2 17  1  0  0  0  0
  3  1  1  0  0  0  0
  4  3  1  0  0  0  0
  4 26  1  1  0  0  0
  5 11  2  0  0  0  0
  5  6  1  0  0  0  0
  6  7  2  0  0  0  0
  7 21  1  0  0  0  0
  8 15  1  0  0  0  0
  8 16  2  0  0  0  0
  9 19  1  0  0  0  0
 10 18  1  0  0  0  0
 11 20  1  0  0  0  0
 13 14  1  0  0  0  0
 13 12  2  0  0  0  0
 15 13  1  1  0  0  0
 17 19  2  0  0  0  0
 17 15  1  0  0  0  0
 18  2  1  0  0  0  0
 18  9  2  0  0  0  0
 20 21  2  0  0  0  0
 20  2  1  0  0  0  0
 21  8  1  0  0  0  0
 22  6  1  0  0  0  0
 23 11  1  0  0  0  0
 23 10  1  0  0  0  0
 24 23  1  0  0  0  0
 25  1  1  0  0  0  0
 27  4  1  0  0  0  0
 27 25  1  0  0  0  0
 27 28  1  6  0  0  0
 29 28  1  0  0  0  0
 30 28  1  0  0  0  0
M  END
>  <CHROM.1>
83.89256413,179.28191386,-55.18741204,176.38492983,69.51247531,25.99985326
40.50646536,23.42442755,1.53877845,-0.31063974,-2.33275651

>  <Name>
lig.pdb

>  <RI>
0

>  <Rbt.Current_Directory>
/home/itssahil/PROJECTS/Mol_Feturizer/New_Systems/rnas/6bfb

>  <Rbt.Executable>
rbdock ($Id: //depot/dev/client3/rdock/2013.1/src/exe/rbdock.cxx#4 $)

>  <Rbt.Library>
libRbt.so (2013.1, Build901 2013/11/27)

>  <Rbt.Parameter_File>
/export/apps/rDock/src/rDock_2013.1_src/data/scripts/dock_solv.prm

>  <Rbt.Receptor>
prm/pocket_docking_7.prm

>  <SCORE>
-37.4629

>  <SCORE.INTER>
-31.4015

>  <SCORE.INTER.CONST>
1

>  <SCORE.INTER.POLAR>
0

>  <SCORE.INTER.ROT>
3

>  <SCORE.INTER.SOLV>
11.1088

>  <SCORE.INTER.VDW>
-30.2372

>  <SCORE.INTER.norm>
-1.04672

>  <SCORE.INTRA>
-6.06148

>  <SCORE.INTRA.DIHEDRAL>
-7.32319

>  <SCORE.INTRA.DIHEDRAL.0>
9.41909

>  <SCORE.INTRA.POLAR>
0

>  <SCORE.INTRA.POLAR.0>
0

>  <SCORE.INTRA.REPUL>
0

>  <SCORE.INTRA.REPUL.0>
0

>  <SCORE.INTRA.SOLV>
-0.170032

>  <SCORE.INTRA.SOLV.lig_0>
-26.2491

>  <SCORE.INTRA.VDW>
-2.31487

>  <SCORE.INTRA.VDW.0>
2.57239

>  <SCORE.INTRA.norm>
-0.202049

>  <SCORE.RESTR>
0

>  <SCORE.RESTR.CAVITY>
0

>  <SCORE.RESTR.norm>
0

>  <SCORE.SYSTEM>
0

>  <SCORE.SYSTEM.CONST>
0

>  <SCORE.SYSTEM.DIHEDRAL>
0

>  <SCORE.SYSTEM.SOLV>
0

>  <SCORE.SYSTEM.norm>
0

>  <SCORE.heavy>
30

>  <SCORE.norm>
-1.24876

>  <RMSD>
1.829

$$$$
lig.pdb
 OpenBabel11021811523D
libRbt.so/2013.1/901 2013/11/27
 30 34  0  0  0  0  0  0  0  0999 V2000
   25.5291   38.7220   21.6322 N   0  0  0  0  0  0  0  0  0  0  0  0
   26.7770   42.1475   24.9813 N   0  0  0  0  0  0  0  0  0  0  0  0
   24.8518   39.0072   20.3636 C   0  0  0  0  0  0  0  0  0  0  0  0
   25.6143   38.1124   19.3981 C   0  0  2  0  0  0  0  0  0  0  0  0
   25.2208   39.5020   22.8255 C   0  0  0  0  0  0  0  0  0  0  0  0
   24.0182   39.3765   23.5506 C   0  0  0  0  0  0  0  0  0  0  0  0
   23.7128   40.1289   24.6572 C   0  0  0  0  0  0  0  0  0  0  0  0
   24.2619   41.9369   26.2892 C   0  0  0  0  0  0  0  0  0  0  0  0
   28.8296   43.0862   25.1483 C   0  0  0  0  0  0  0  0  0  0  0  0
   28.4233   41.1254   23.5017 C   0  0  0  0  0  0  0  0  0  0  0  0
   26.1534   40.4610   23.3121 C   0  0  0  0  0  0  0  0  0  0  0  0
   23.8610   44.3915   27.9159 O   0  0  0  0  0  0  0  0  0  0  0  0
   24.9732   43.8692   27.8148 C   0  0  0  0  0  0  0  0  0  0  0  0
   25.9557   44.1096   28.6744 O   0  0  0  0  0  0  0  0  0  0  0  0
   25.2794   42.9419   26.6932 C   0  0  1  0  0  0  0  0  0  0  0  0
   23.1989   41.7813   26.8999 O   0  0  0  0  0  0  0  0  0  0  0  0
   26.5236   43.0130   26.0428 C   0  0  0  0  0  0  0  0  0  0  0  0
   28.0937   42.1779   24.5007 C   0  0  0  0  0  0  0  0  0  0  0  0
   27.9514   43.9015   26.3752 S   0  0  0  0  0  0  0  0  0  0  0  0
   25.8493   41.2205   24.4646 C   0  0  0  0  0  0  0  0  0  0  0  0
   24.6188   41.0808   25.1246 C   0  0  0  0  0  0  0  0  0  0  0  0
   23.1187   38.4504   23.1624 F   0  0  0  0  0  0  0  0  0  0  0  0
   27.3482   40.7100   22.6187 N   0  0  0  0  0  0  0  0  0  0  0  0
   27.1157   41.5622   21.4722 C   0  0  0  0  0  0  0  0  0  0  0  0
   26.8561   38.1574   21.4140 C   0  0  0  0  0  0  0  0  0  0  0  0
   24.7433   37.2030   18.7242 O   0  0  0  0  0  0  0  0  0  0  0  0
   26.5409   37.2419   20.2430 C   0  0  2  0  0  0  0  0  0  0  0  0
   27.6821   36.8304   19.4034 N   0  0  0  0  0  0  0  0  0  0  0  0
   27.3536   35.9019   18.3064 C   0  0  0  0  0  0  0  0  0  0  0  0
   28.5066   37.9616   18.9516 C   0  0  0  0  0  0  0  0  0  0  0  0
  1  5  1  0  0  0  0
  2 17  1  0  0  0  0
  3  1  1  0  0  0  0
  4  3  1  0  0  0  0
  4 26  1  1  0  0  0
  5 11  2  0  0  0  0
  5  6  1  0  0  0  0
  6  7  2  0  0  0  0
  7 21  1  0  0  0  0
  8 15  1  0  0  0  0
  8 16  2  0  0  0  0
  9 19  1  0  0  0  0
 10 18  1  0  0  0  0
 11 20  1  0  0  0  0
 13 14  1  0  0  0  0
 13 12  2  0  0  0  0
 15 13  1  1  0  0  0
 17 19  2  0  0  0  0
 17 15  1  0  0  0  0
 18  2  1  0  0  0  0
 18  9  2  0  0  0  0
 20 21  2  0  0  0  0
 20  2  1  0  0  0  0
 21  8  1  0  0  0  0
 22  6  1  0  0  0  0
 23 11  1  0  0  0  0
 23 10  1  0  0  0  0
 24 23  1  0  0  0  0
 25  1  1  0  0  0  0
 27  4  1  0  0  0  0
 27 25  1  0  0  0  0
 27 28  1  6  0  0  0
 29 28  1  0  0  0  0
 30 28  1  0  0  0  0
M  END
>  <CHROM.1>
72.83985251,2.50031329,-42.08209529,67.72717367,-67.99450803,26.01254381
40.63289183,23.55522190,1.50396952,-0.32840149,-2.26560734

>  <Name>
lig.pdb

>  <RI>
0

>  <Rbt.Current_Directory>
/home/itssahil/PROJECTS/Mol_Feturizer/New_Systems/rnas/6bfb

>  <Rbt.Executable>
rbdock ($Id: //depot/dev/client3/rdock/2013.1/src/exe/rbdock.cxx#4 $)

>  <Rbt.Library>
libRbt.so (2013.1, Build901 2013/11/27)

>  <Rbt.Parameter_File>
/export/apps/rDock/src/rDock_2013.1_src/data/scripts/dock_solv.prm

>  <Rbt.Receptor>
prm/pocket_docking_2.prm

>  <SCORE>
-38.7412

>  <SCORE.INTER>
-34.4653

>  <SCORE.INTER.CONST>
1

>  <SCORE.INTER.POLAR>
-0.894427

>  <SCORE.INTER.ROT>
3

>  <SCORE.INTER.SOLV>
10.59

>  <SCORE.INTER.VDW>
-29.1254

>  <SCORE.INTER.norm>
-1.14884

>  <SCORE.INTRA>
-4.2759

>  <SCORE.INTRA.DIHEDRAL>
-7.39716

>  <SCORE.INTRA.DIHEDRAL.0>
9.41909

>  <SCORE.INTRA.POLAR>
0

>  <SCORE.INTRA.POLAR.0>
0

>  <SCORE.INTRA.REPUL>
0

>  <SCORE.INTRA.REPUL.0>
0

>  <SCORE.INTRA.SOLV>
0.149578

>  <SCORE.INTRA.SOLV.lig_0>
-26.2491

>  <SCORE.INTRA.VDW>
-0.652113

>  <SCORE.INTRA.VDW.0>
2.57239

>  <SCORE.INTRA.norm>
-0.14253

>  <SCORE.RESTR>
0

>  <SCORE.RESTR.CAVITY>
0

>  <SCORE.RESTR.norm>
0

>  <SCORE.SYSTEM>
0

>  <SCORE.SYSTEM.CONST>
0

>  <SCORE.SYSTEM.DIHEDRAL>
0

>  <SCORE.SYSTEM.SOLV>
0

>  <SCORE.SYSTEM.norm>
0

>  <SCORE.heavy>
30

>  <SCORE.norm>
-1.29137

>  <RMSD>
1.838

$$$$
lig.pdb
 OpenBabel11021811523D
libRbt.so/2013.1/901 2013/11/27
 30 34  0  0  0  0  0  0  0  0999 V2000
   25.2135   38.6569   21.6353 N   0  0  0  0  0  0  0  0  0  0  0  0
   26.8019   42.0383   24.8835 N   0  0  0  0  0  0  0  0  0  0  0  0
   24.5297   39.0062   20.3864 C   0  0  0  0  0  0  0  0  0  0  0  0
   25.1831   38.0513   19.3988 C   0  0  2  0  0  0  0  0  0  0  0  0
   25.0084   39.4563   22.8380 C   0  0  0  0  0  0  0  0  0  0  0  0
   23.8438   39.3898   23.6299 C   0  0  0  0  0  0  0  0  0  0  0  0
   23.6355   40.1611   24.7460 C   0  0  0  0  0  0  0  0  0  0  0  0
   24.3570   41.9502   26.3311 C   0  0  0  0  0  0  0  0  0  0  0  0
   28.9014   42.8826   24.9287 C   0  0  0  0  0  0  0  0  0  0  0  0
   28.3144   40.9342   23.3223 C   0  0  0  0  0  0  0  0  0  0  0  0
   26.0096   40.3738   23.2646 C   0  0  0  0  0  0  0  0  0  0  0  0
   24.1674   44.4454   27.9462 O   0  0  0  0  0  0  0  0  0  0  0  0
   25.2400   43.8554   27.7999 C   0  0  0  0  0  0  0  0  0  0  0  0
   26.2714   44.0362   28.6157 O   0  0  0  0  0  0  0  0  0  0  0  0
   25.4403   42.9094   26.6700 C   0  0  1  0  0  0  0  0  0  0  0  0
   23.3239   41.8467   27.0012 O   0  0  0  0  0  0  0  0  0  0  0  0
   26.6481   42.9199   25.9509 C   0  0  0  0  0  0  0  0  0  0  0  0
   28.0896   42.0058   24.3300 C   0  0  0  0  0  0  0  0  0  0  0  0
   28.1313   43.7436   26.1963 S   0  0  0  0  0  0  0  0  0  0  0  0
   25.8055   41.1524   24.4263 C   0  0  0  0  0  0  0  0  0  0  0  0
   24.6087   41.0727   25.1550 C   0  0  0  0  0  0  0  0  0  0  0  0
   22.8827   38.5041   23.2995 F   0  0  0  0  0  0  0  0  0  0  0  0
   27.1737   40.5642   22.5038 N   0  0  0  0  0  0  0  0  0  0  0  0
   26.9166   41.4204   21.3655 C   0  0  0  0  0  0  0  0  0  0  0  0
   26.4787   37.9778   21.3796 C   0  0  0  0  0  0  0  0  0  0  0  0
   24.2167   37.2254   18.7477 O   0  0  0  0  0  0  0  0  0  0  0  0
   26.0516   37.0986   20.2163 C   0  0  2  0  0  0  0  0  0  0  0  0
   27.1283   36.5910   19.3448 N   0  0  0  0  0  0  0  0  0  0  0  0
   28.2377   35.9165   20.0431 C   0  0  0  0  0  0  0  0  0  0  0  0
   26.6294   35.8110   18.2018 C   0  0  0  0  0  0  0  0  0  0  0  0
  1  5  1  0  0  0  0
  2 17  1  0  0  0  0
  3  1  1  0  0  0  0
  4  3  1  0  0  0  0
  4 26  1  1  0  0  0
  5 11  2  0  0  0  0
  5  6  1  0  0  0  0
  6  7  2  0  0  0  0
  7 21  1  0  0  0  0
  8 15  1  0  0  0  0
  8 16  2  0  0  0  0
  9 19  1  0  0  0  0
 10 18  1  0  0  0  0
 11 20  1  0  0  0  0
 13 14  1  0  0  0  0
 13 12  2  0  0  0  0
 15 13  1  1  0  0  0
 17 19  2  0  0  0  0
 17 15  1  0  0  0  0
 18  2  1  0  0  0  0
 18  9  2  0  0  0  0
 20 21  2  0  0  0  0
 20  2  1  0  0  0  0
 21  8  1  0  0  0  0
 22  6  1  0  0  0  0
 23 11  1  0  0  0  0
 23 10  1  0  0  0  0
 24 23  1  0  0  0  0
 25  1  1  0  0  0  0
 27  4  1  0  0  0  0
 27 25  1  0  0  0  0
 27 28  1  6  0  0  0
 29 28  1  0  0  0  0
 30 28  1  0  0  0  0
M  END
>  <CHROM.1>
75.83477576,3.40905751,-43.27143892,66.31771061,166.08645670,25.89711196
40.49192345,23.55635625,1.57776354,-0.27314436,-2.27723892

>  <Name>
lig.pdb

>  <RI>
0

>  <Rbt.Current_Directory>
/home/itssahil/PROJECTS/Mol_Feturizer/New_Systems/rnas/6bfb

>  <Rbt.Executable>
rbdock ($Id: //depot/dev/client3/rdock/2013.1/src/exe/rbdock.cxx#4 $)

>  <Rbt.Library>
libRbt.so (2013.1, Build901 2013/11/27)

>  <Rbt.Parameter_File>
/export/apps/rDock/src/rDock_2013.1_src/data/scripts/dock_solv.prm

>  <Rbt.Receptor>
prm/pocket_docking_2.prm

>  <SCORE>
-40.1859

>  <SCORE.INTER>
-34.9593

>  <SCORE.INTER.CONST>
1

>  <SCORE.INTER.POLAR>
-1.15824

>  <SCORE.INTER.ROT>
3

>  <SCORE.INTER.SOLV>
11.8697

>  <SCORE.INTER.VDW>
-29.0019

>  <SCORE.INTER.norm>
-1.16531

>  <SCORE.INTRA>
-5.23413

>  <SCORE.INTRA.DIHEDRAL>
-7.36485

>  <SCORE.INTRA.DIHEDRAL.0>
9.41909

>  <SCORE.INTRA.POLAR>
0

>  <SCORE.INTRA.POLAR.0>
0

>  <SCORE.INTRA.REPUL>
0

>  <SCORE.INTRA.REPUL.0>
0

>  <SCORE.INTRA.SOLV>
-0.0023165

>  <SCORE.INTRA.SOLV.lig_0>
-26.2491

>  <SCORE.INTRA.VDW>
-1.55055

>  <SCORE.INTRA.VDW.0>
2.57239

>  <SCORE.INTRA.norm>
-0.174471

>  <SCORE.RESTR>
0.00747687

>  <SCORE.RESTR.CAVITY>
0.00747687

>  <SCORE.RESTR.norm>
0.000249229

>  <SCORE.SYSTEM>
0

>  <SCORE.SYSTEM.CONST>
0

>  <SCORE.SYSTEM.DIHEDRAL>
0

>  <SCORE.SYSTEM.SOLV>
0

>  <SCORE.SYSTEM.norm>
0

>  <SCORE.heavy>
30

>  <SCORE.norm>
-1.33953

>  <RMSD>
1.843

$$$$
lig.pdb
 OpenBabel11021811523D
libRbt.so/2013.1/901 2013/11/27
 30 34  0  0  0  0  0  0  0  0999 V2000
   25.2099   38.6528   21.6373 N   0  0  0  0  0  0  0  0  0  0  0  0
   26.8492   42.0314   24.8629 N   0  0  0  0  0  0  0  0  0  0  0  0
   24.5136   38.9999   20.3946 C   0  0  0  0  0  0  0  0  0  0  0  0
   25.1532   38.0395   19.4033 C   0  0  2  0  0  0  0  0  0  0  0  0
   25.0203   39.4569   22.8393 C   0  0  0  0  0  0  0  0  0  0  0  0
   23.8617   39.4012   23.6408 C   0  0  0  0  0  0  0  0  0  0  0  0
   23.6682   40.1770   24.7564 C   0  0  0  0  0  0  0  0  0  0  0  0
   24.4155   41.9652   26.3305 C   0  0  0  0  0  0  0  0  0  0  0  0
   28.9551   42.8604   24.8888 C   0  0  0  0  0  0  0  0  0  0  0  0
   28.3409   40.9119   23.2927 C   0  0  0  0  0  0  0  0  0  0  0  0
   26.0316   40.3683   23.2552 C   0  0  0  0  0  0  0  0  0  0  0  0
   24.2870   44.5254   27.8950 O   0  0  0  0  0  0  0  0  0  0  0  0
   25.3243   43.8679   27.7867 C   0  0  0  0  0  0  0  0  0  0  0  0
   26.3314   43.9766   28.6446 O   0  0  0  0  0  0  0  0  0  0  0  0
   25.5085   42.9174   26.6580 C   0  0  1  0  0  0  0  0  0  0  0  0
   23.3872   41.8711   27.0092 O   0  0  0  0  0  0  0  0  0  0  0  0
   26.7105   42.9170   25.9290 C   0  0  0  0  0  0  0  0  0  0  0  0
   28.1321   41.9879   24.2992 C   0  0  0  0  0  0  0  0  0  0  0  0
   28.2016   43.7305   26.1602 S   0  0  0  0  0  0  0  0  0  0  0  0
   25.8426   41.1515   24.4164 C   0  0  0  0  0  0  0  0  0  0  0  0
   24.6513   41.0826   25.1549 C   0  0  0  0  0  0  0  0  0  0  0  0
   22.8915   38.5216   23.3207 F   0  0  0  0  0  0  0  0  0  0  0  0
   27.1909   40.5480   22.4845 N   0  0  0  0  0  0  0  0  0  0  0  0
   26.9308   41.4029   21.3459 C   0  0  0  0  0  0  0  0  0  0  0  0
   26.4701   37.9687   21.3702 C   0  0  0  0  0  0  0  0  0  0  0  0
   24.1772   37.2145   18.7657 O   0  0  0  0  0  0  0  0  0  0  0  0
   26.0275   37.0869   20.2147 C   0  0  2  0  0  0  0  0  0  0  0  0
   27.0932   36.5729   19.3333 N   0  0  0  0  0  0  0  0  0  0  0  0
   28.2173   35.9143   20.0232 C   0  0  0  0  0  0  0  0  0  0  0  0
   26.5806   35.7741   18.2095 C   0  0  0  0  0  0  0  0  0  0  0  0
  1  5  1  0  0  0  0
  2 17  1  0  0  0  0
  3  1  1  0  0  0  0
  4  3  1  0  0  0  0
  4 26  1  1  0  0  0
  5 11  2  0  0  0  0
  5  6  1  0  0  0  0
  6  7  2  0  0  0  0
  7 21  1  0  0  0  0
  8 15  1  0  0  0  0
  8 16  2  0  0  0  0
  9 19  1  0  0  0  0
 10 18  1  0  0  0  0
 11 20  1  0  0  0  0
 13 14  1  0  0  0  0
 13 12  2  0  0  0  0
 15 13  1  1  0  0  0
 17 19  2  0  0  0  0
 17 15  1  0  0  0  0
 18  2  1  0  0  0  0
 18  9  2  0  0  0  0
 20 21  2  0  0  0  0
 20  2  1  0  0  0  0
 21  8  1  0  0  0  0
 22  6  1  0  0  0  0
 23 11  1  0  0  0  0
 23 10  1  0  0  0  0
 24 23  1  0  0  0  0
 25  1  1  0  0  0  0
 27  4  1  0  0  0  0
 27 25  1  0  0  0  0
 27 28  1  6  0  0  0
 29 28  1  0  0  0  0
 30 28  1  0  0  0  0
M  END
>  <CHROM.1>
75.54692220,3.43253065,-47.61313680,65.38515405,165.24633036,25.92275118
40.48816626,23.54799021,1.58873923,-0.27202806,-2.27666883

>  <Name>
lig.pdb

>  <RI>
0

>  <Rbt.Current_Directory>
/home/itssahil/PROJECTS/Mol_Feturizer/New_Systems/rnas/6bfb

>  <Rbt.Executable>
rbdock ($Id: //depot/dev/client3/rdock/2013.1/src/exe/rbdock.cxx#4 $)

>  <Rbt.Library>
libRbt.so (2013.1, Build901 2013/11/27)

>  <Rbt.Parameter_File>
/export/apps/rDock/src/rDock_2013.1_src/data/scripts/dock_solv.prm

>  <Rbt.Receptor>
prm/pocket_docking_2.prm

>  <SCORE>
-40.1937

>  <SCORE.INTER>
-34.8601

>  <SCORE.INTER.CONST>
1

>  <SCORE.INTER.POLAR>
-1.2068

>  <SCORE.INTER.ROT>
3

>  <SCORE.INTER.SOLV>
11.9764

>  <SCORE.INTER.VDW>
-28.8095

>  <SCORE.INTER.norm>
-1.162

>  <SCORE.INTRA>
-5.34975

>  <SCORE.INTRA.DIHEDRAL>
-7.39641

>  <SCORE.INTRA.DIHEDRAL.0>
9.41909

>  <SCORE.INTRA.POLAR>
0

>  <SCORE.INTRA.POLAR.0>
0

>  <SCORE.INTRA.REPUL>
0

>  <SCORE.INTRA.REPUL.0>
0

>  <SCORE.INTRA.SOLV>
-0.0122071

>  <SCORE.INTRA.SOLV.lig_0>
-26.2491

>  <SCORE.INTRA.VDW>
-1.64544

>  <SCORE.INTRA.VDW.0>
2.57239

>  <SCORE.INTRA.norm>
-0.178325

>  <SCORE.RESTR>
0.0161499

>  <SCORE.RESTR.CAVITY>
0.0161499

>  <SCORE.RESTR.norm>
0.00053833

>  <SCORE.SYSTEM>
0

>  <SCORE.SYSTEM.CONST>
0

>  <SCORE.SYSTEM.DIHEDRAL>
0

>  <SCORE.SYSTEM.SOLV>
0

>  <SCORE.SYSTEM.norm>
0

>  <SCORE.heavy>
30

>  <SCORE.norm>
-1.33979

>  <RMSD>
1.843

$$$$
lig.pdb
 OpenBabel11021811523D
libRbt.so/2013.1/901 2013/11/27
 30 34  0  0  0  0  0  0  0  0999 V2000
   25.1253   36.7312   20.2199 N   0  0  0  0  0  0  0  0  0  0  0  0
   26.2982   40.0583   23.6930 N   0  0  0  0  0  0  0  0  0  0  0  0
   26.2702   35.8241   20.3461 C   0  0  0  0  0  0  0  0  0  0  0  0
   26.1644   35.0127   19.0636 C   0  0  2  0  0  0  0  0  0  0  0  0
   24.7421   37.5955   21.3306 C   0  0  0  0  0  0  0  0  0  0  0  0
   23.4282   37.6821   21.8346 C   0  0  0  0  0  0  0  0  0  0  0  0
   23.0585   38.5153   22.8608 C   0  0  0  0  0  0  0  0  0  0  0  0
   23.5943   40.2826   24.5411 C   0  0  0  0  0  0  0  0  0  0  0  0
   28.4126   40.6814   24.2064 C   0  0  0  0  0  0  0  0  0  0  0  0
   27.9943   38.7411   22.5387 C   0  0  0  0  0  0  0  0  0  0  0  0
   25.7153   38.4207   21.9615 C   0  0  0  0  0  0  0  0  0  0  0  0
   23.6266   41.8368   27.1118 O   0  0  0  0  0  0  0  0  0  0  0  0
   24.3256   42.1438   26.1436 C   0  0  0  0  0  0  0  0  0  0  0  0
   24.7912   43.3733   25.9604 O   0  0  0  0  0  0  0  0  0  0  0  0
   24.6714   41.1373   25.1050 C   0  0  1  0  0  0  0  0  0  0  0  0
   22.4313   40.3139   24.9574 O   0  0  0  0  0  0  0  0  0  0  0  0
   26.0045   40.9935   24.6826 C   0  0  0  0  0  0  0  0  0  0  0  0
   27.6663   39.8700   23.4509 C   0  0  0  0  0  0  0  0  0  0  0  0
   27.4748   41.6682   25.2495 S   0  0  0  0  0  0  0  0  0  0  0  0
   25.3401   39.2626   23.0329 C   0  0  0  0  0  0  0  0  0  0  0  0
   24.0080   39.3369   23.4682 C   0  0  0  0  0  0  0  0  0  0  0  0
   22.4755   36.8882   21.3060 F   0  0  0  0  0  0  0  0  0  0  0  0
   27.0354   38.4585   21.4858 N   0  0  0  0  0  0  0  0  0  0  0  0
   27.1390   39.2901   20.3057 C   0  0  0  0  0  0  0  0  0  0  0  0
   24.1359   36.2150   19.2808 C   0  0  0  0  0  0  0  0  0  0  0  0
   27.3577   35.1033   18.2840 O   0  0  0  0  0  0  0  0  0  0  0  0
   25.0729   35.6648   18.2188 C   0  0  2  0  0  0  0  0  0  0  0  0
   24.5145   34.6416   17.3145 N   0  0  0  0  0  0  0  0  0  0  0  0
   23.0595   34.7249   17.0921 C   0  0  0  0  0  0  0  0  0  0  0  0
   25.2663   34.5069   16.0573 C   0  0  0  0  0  0  0  0  0  0  0  0
  1  5  1  0  0  0  0
  2 17  1  0  0  0  0
  3  1  1  0  0  0  0
  4  3  1  0  0  0  0
  4 26  1  6  0  0  0
  5 11  2  0  0  0  0
  5  6  1  0  0  0  0
  6  7  2  0  0  0  0
  7 21  1  0  0  0  0
  8 15  1  0  0  0  0
  8 16  2  0  0  0  0
  9 19  1  0  0  0  0
 10 18  1  0  0  0  0
 11 20  1  0  0  0  0
 13 14  1  0  0  0  0
 13 12  2  0  0  0  0
 15 13  1  1  0  0  0
 17 19  2  0  0  0  0
 17 15  1  0  0  0  0
 18  2  1  0  0  0  0
 18  9  2  0  0  0  0
 20 21  2  0  0  0  0
 20  2  1  0  0  0  0
 21  8  1  0  0  0  0
 22  6  1  0  0  0  0
 23 11  1  0  0  0  0
 23 10  1  0  0  0  0
 24 23  1  0  0  0  0
 25  1  1  0  0  0  0
 27  4  1  0  0  0  0
 27 25  1  0  0  0  0
 27 28  1  6  0  0  0
 29 28  1  0  0  0  0
 30 28  1  0  0  0  0
M  END
>  <CHROM.1>
-129.28361803,1.28152029,47.77349695,167.10805533,142.30287250,25.29926205
38.59102034,22.11590583,1.60213477,-0.13655085,-2.27844877

>  <Name>
lig.pdb

>  <RI>
0

>  <Rbt.Current_Directory>
/home/itssahil/PROJECTS/Mol_Feturizer/New_Systems/rnas/6bfb

>  <Rbt.Executable>
rbdock ($Id: //depot/dev/client3/rdock/2013.1/src/exe/rbdock.cxx#4 $)

>  <Rbt.Library>
libRbt.so (2013.1, Build901 2013/11/27)

>  <Rbt.Parameter_File>
/export/apps/rDock/src/rDock_2013.1_src/data/scripts/dock_solv.prm

>  <Rbt.Receptor>
prm/pocket_docking_7.prm

>  <SCORE>
-33.0468

>  <SCORE.INTER>
-29.8923

>  <SCORE.INTER.CONST>
1

>  <SCORE.INTER.POLAR>
0

>  <SCORE.INTER.ROT>
3

>  <SCORE.INTER.SOLV>
12.5751

>  <SCORE.INTER.VDW>
-29.7199

>  <SCORE.INTER.norm>
-0.996409

>  <SCORE.INTRA>
-3.15452

>  <SCORE.INTRA.DIHEDRAL>
-5.73175

>  <SCORE.INTRA.DIHEDRAL.0>
9.41909

>  <SCORE.INTRA.POLAR>
0

>  <SCORE.INTRA.POLAR.0>
0

>  <SCORE.INTRA.REPUL>
0.00647081

>  <SCORE.INTRA.REPUL.0>
0

>  <SCORE.INTRA.SOLV>
-0.115895

>  <SCORE.INTRA.SOLV.lig_0>
-26.2491

>  <SCORE.INTRA.VDW>
-0.26305

>  <SCORE.INTRA.VDW.0>
2.57239

>  <SCORE.INTRA.norm>
-0.105151

>  <SCORE.RESTR>
0

>  <SCORE.RESTR.CAVITY>
0

>  <SCORE.RESTR.norm>
0

>  <SCORE.SYSTEM>
0

>  <SCORE.SYSTEM.CONST>
0

>  <SCORE.SYSTEM.DIHEDRAL>
0

>  <SCORE.SYSTEM.SOLV>
0

>  <SCORE.SYSTEM.norm>
0

>  <SCORE.heavy>
30

>  <SCORE.norm>
-1.10156

>  <RMSD>
1.843

$$$$
lig.pdb
 OpenBabel11021811523D
libRbt.so/2013.1/901 2013/11/27
 30 34  0  0  0  0  0  0  0  0999 V2000
   25.2160   38.6079   21.6818 N   0  0  0  0  0  0  0  0  0  0  0  0
   26.7759   42.0966   24.8287 N   0  0  0  0  0  0  0  0  0  0  0  0
   24.6330   38.9726   20.3869 C   0  0  0  0  0  0  0  0  0  0  0  0
   25.2730   37.9494   19.4607 C   0  0  2  0  0  0  0  0  0  0  0  0
   24.9987   39.4499   22.8528 C   0  0  0  0  0  0  0  0  0  0  0  0
   23.8239   39.4153   23.6317 C   0  0  0  0  0  0  0  0  0  0  0  0
   23.6045   40.2262   24.7171 C   0  0  0  0  0  0  0  0  0  0  0  0
   24.3126   42.0678   26.2472 C   0  0  0  0  0  0  0  0  0  0  0  0
   28.8778   42.9350   24.8709 C   0  0  0  0  0  0  0  0  0  0  0  0
   28.3038   40.9331   23.3268 C   0  0  0  0  0  0  0  0  0  0  0  0
   25.9978   40.3786   23.2595 C   0  0  0  0  0  0  0  0  0  0  0  0
   25.6082   43.8026   28.7960 O   0  0  0  0  0  0  0  0  0  0  0  0
   25.1841   44.0207   27.6590 C   0  0  0  0  0  0  0  0  0  0  0  0
   24.5096   45.1207   27.3474 O   0  0  0  0  0  0  0  0  0  0  0  0
   25.3951   43.0347   26.5659 C   0  0  1  0  0  0  0  0  0  0  0  0
   23.2708   41.9914   26.9073 O   0  0  0  0  0  0  0  0  0  0  0  0
   26.6119   43.0159   25.8622 C   0  0  0  0  0  0  0  0  0  0  0  0
   28.0703   42.0403   24.2932 C   0  0  0  0  0  0  0  0  0  0  0  0
   28.0950   43.8428   26.0975 S   0  0  0  0  0  0  0  0  0  0  0  0
   25.7820   41.1984   24.3904 C   0  0  0  0  0  0  0  0  0  0  0  0
   24.5758   41.1485   25.1060 C   0  0  0  0  0  0  0  0  0  0  0  0
   22.8637   38.5216   23.3204 F   0  0  0  0  0  0  0  0  0  0  0  0
   27.1722   40.5382   22.5074 N   0  0  0  0  0  0  0  0  0  0  0  0
   26.9326   41.3545   21.3364 C   0  0  0  0  0  0  0  0  0  0  0  0
   26.4421   37.8354   21.5168 C   0  0  0  0  0  0  0  0  0  0  0  0
   24.2896   37.1772   18.7704 O   0  0  0  0  0  0  0  0  0  0  0  0
   26.0218   36.9592   20.3489 C   0  0  2  0  0  0  0  0  0  0  0  0
   27.1086   36.3554   19.5545 N   0  0  0  0  0  0  0  0  0  0  0  0
   28.1969   37.2750   19.1759 C   0  0  0  0  0  0  0  0  0  0  0  0
   27.6122   35.0963   20.1244 C   0  0  0  0  0  0  0  0  0  0  0  0
  1  5  1  0  0  0  0
  2 17  1  0  0  0  0
  3  1  1  0  0  0  0
  4  3  1  0  0  0  0
  4 26  1  1  0  0  0
  5 11  2  0  0  0  0
  5  6  1  0  0  0  0
  6  7  2  0  0  0  0
  7 21  1  0  0  0  0
  8 15  1  0  0  0  0
  8 16  2  0  0  0  0
  9 19  1  0  0  0  0
 10 18  1  0  0  0  0
 11 20  1  0  0  0  0
 13 14  1  0  0  0  0
 13 12  2  0  0  0  0
 15 13  1  1  0  0  0
 17 19  2  0  0  0  0
 17 15  1  0  0  0  0
 18  2  1  0  0  0  0
 18  9  2  0  0  0  0
 20 21  2  0  0  0  0
 20  2  1  0  0  0  0
 21  8  1  0  0  0  0
 22  6  1  0  0  0  0
 23 11  1  0  0  0  0
 23 10  1  0  0  0  0
 24 23  1  0  0  0  0
 25  1  1  0  0  0  0
 27  4  1  0  0  0  0
 27 25  1  0  0  0  0
 27 28  1  6  0  0  0
 29 28  1  0  0  0  0
 30 28  1  0  0  0  0
M  END
>  <CHROM.1>
80.58183373,171.01767192,96.47340966,65.23035654,67.70800789,25.90427661
40.54283962,23.56007931,1.54891315,-0.28352174,-2.32331098

>  <Name>
lig.pdb

>  <RI>
0

>  <Rbt.Current_Directory>
/home/itssahil/PROJECTS/Mol_Feturizer/New_Systems/rnas/6bfb

>  <Rbt.Executable>
rbdock ($Id: //depot/dev/client3/rdock/2013.1/src/exe/rbdock.cxx#4 $)

>  <Rbt.Library>
libRbt.so (2013.1, Build901 2013/11/27)

>  <Rbt.Parameter_File>
/export/apps/rDock/src/rDock_2013.1_src/data/scripts/dock_solv.prm

>  <Rbt.Receptor>
prm/pocket_docking_3.prm

>  <SCORE>
-44.3642

>  <SCORE.INTER>
-38.6019

>  <SCORE.INTER.CONST>
1

>  <SCORE.INTER.POLAR>
-1.80621

>  <SCORE.INTER.ROT>
3

>  <SCORE.INTER.SOLV>
12.0556

>  <SCORE.INTER.VDW>
-29.3324

>  <SCORE.INTER.norm>
-1.28673

>  <SCORE.INTRA>
-5.76233

>  <SCORE.INTRA.DIHEDRAL>
-6.70712

>  <SCORE.INTRA.DIHEDRAL.0>
9.41909

>  <SCORE.INTRA.POLAR>
0

>  <SCORE.INTRA.POLAR.0>
0

>  <SCORE.INTRA.REPUL>
0

>  <SCORE.INTRA.REPUL.0>
0

>  <SCORE.INTRA.SOLV>
-0.209139

>  <SCORE.INTRA.SOLV.lig_0>
-26.2491

>  <SCORE.INTRA.VDW>
-2.30421

>  <SCORE.INTRA.VDW.0>
2.57239

>  <SCORE.INTRA.norm>
-0.192078

>  <SCORE.RESTR>
0

>  <SCORE.RESTR.CAVITY>
0

>  <SCORE.RESTR.norm>
0

>  <SCORE.SYSTEM>
0

>  <SCORE.SYSTEM.CONST>
0

>  <SCORE.SYSTEM.DIHEDRAL>
0

>  <SCORE.SYSTEM.SOLV>
0

>  <SCORE.SYSTEM.norm>
0

>  <SCORE.heavy>
30

>  <SCORE.norm>
-1.47881

>  <RMSD>
1.844

$$$$
lig.pdb
 OpenBabel11021811523D
libRbt.so/2013.1/901 2013/11/27
 30 34  0  0  0  0  0  0  0  0999 V2000
   25.3181   38.6751   21.6862 N   0  0  0  0  0  0  0  0  0  0  0  0
   26.6879   42.1295   24.9570 N   0  0  0  0  0  0  0  0  0  0  0  0
   24.7616   39.0648   20.3870 C   0  0  0  0  0  0  0  0  0  0  0  0
   25.4522   38.0863   19.4489 C   0  0  2  0  0  0  0  0  0  0  0  0
   25.0478   39.4754   22.8753 C   0  0  0  0  0  0  0  0  0  0  0  0
   23.8609   39.3757   23.6298 C   0  0  0  0  0  0  0  0  0  0  0  0
   23.5912   40.1472   24.7325 C   0  0  0  0  0  0  0  0  0  0  0  0
   24.2015   41.9701   26.3258 C   0  0  0  0  0  0  0  0  0  0  0  0
   28.7558   43.0432   25.0632 C   0  0  0  0  0  0  0  0  0  0  0  0
   28.2858   41.0655   23.4542 C   0  0  0  0  0  0  0  0  0  0  0  0
   26.0038   40.4285   23.3266 C   0  0  0  0  0  0  0  0  0  0  0  0
   25.7990   44.0777   28.7076 O   0  0  0  0  0  0  0  0  0  0  0  0
   24.9731   43.9135   27.8072 C   0  0  0  0  0  0  0  0  0  0  0  0
   23.8062   44.5460   27.7846 O   0  0  0  0  0  0  0  0  0  0  0  0
   25.2410   42.9670   26.6919 C   0  0  1  0  0  0  0  0  0  0  0  0
   23.1512   41.8370   26.9630 O   0  0  0  0  0  0  0  0  0  0  0  0
   26.4705   43.0127   26.0119 C   0  0  0  0  0  0  0  0  0  0  0  0
   27.9932   42.1359   24.4456 C   0  0  0  0  0  0  0  0  0  0  0  0
   27.9170   43.8868   26.2986 S   0  0  0  0  0  0  0  0  0  0  0  0
   25.7365   41.2078   24.4750 C   0  0  0  0  0  0  0  0  0  0  0  0
   24.5200   41.0934   25.1653 C   0  0  0  0  0  0  0  0  0  0  0  0
   22.9408   38.4563   23.2755 F   0  0  0  0  0  0  0  0  0  0  0  0
   27.1851   40.6523   22.6023 N   0  0  0  0  0  0  0  0  0  0  0  0
   26.9370   41.4917   21.4496 C   0  0  0  0  0  0  0  0  0  0  0  0
   26.5673   37.9381   21.5327 C   0  0  0  0  0  0  0  0  0  0  0  0
   24.5078   37.3118   18.7086 O   0  0  0  0  0  0  0  0  0  0  0  0
   26.2013   37.0879   20.3278 C   0  0  2  0  0  0  0  0  0  0  0  0
   27.3241   36.5353   19.5465 N   0  0  0  0  0  0  0  0  0  0  0  0
   28.4318   37.4730   19.2870 C   0  0  0  0  0  0  0  0  0  0  0  0
   27.7965   35.2364   20.0499 C   0  0  0  0  0  0  0  0  0  0  0  0
  1  5  1  0  0  0  0
  2 17  1  0  0  0  0
  3  1  1  0  0  0  0
  4  3  1  0  0  0  0
  4 26  1  1  0  0  0
  5 11  2  0  0  0  0
  5  6  1  0  0  0  0
  6  7  2  0  0  0  0
  7 21  1  0  0  0  0
  8 15  1  0  0  0  0
  8 16  2  0  0  0  0
  9 19  1  0  0  0  0
 10 18  1  0  0  0  0
 11 20  1  0  0  0  0
 13 14  1  0  0  0  0
 13 12  2  0  0  0  0
 15 13  1  1  0  0  0
 17 19  2  0  0  0  0
 17 15  1  0  0  0  0
 18  2  1  0  0  0  0
 18  9  2  0  0  0  0
 20 21  2  0  0  0  0
 20  2  1  0  0  0  0
 21  8  1  0  0  0  0
 22  6  1  0  0  0  0
 23 11  1  0  0  0  0
 23 10  1  0  0  0  0
 24 23  1  0  0  0  0
 25  1  1  0  0  0  0
 27  4  1  0  0  0  0
 27 25  1  0  0  0  0
 27 28  1  6  0  0  0
 29 28  1  0  0  0  0
 30 28  1  0  0  0  0
M  END
>  <CHROM.1>
81.45784076,1.96283803,130.65698066,176.70830197,70.79285405,25.89755749
40.57214138,23.63754970,1.50660432,-0.29069596,-2.30807360

>  <Name>
lig.pdb

>  <RI>
0

>  <Rbt.Current_Directory>
/home/itssahil/PROJECTS/Mol_Feturizer/New_Systems/rnas/6bfb

>  <Rbt.Executable>
rbdock ($Id: //depot/dev/client3/rdock/2013.1/src/exe/rbdock.cxx#4 $)

>  <Rbt.Library>
libRbt.so (2013.1, Build901 2013/11/27)

>  <Rbt.Parameter_File>
/export/apps/rDock/src/rDock_2013.1_src/data/scripts/dock_solv.prm

>  <Rbt.Receptor>
prm/blind_docking_60.prm

>  <SCORE>
-36.9822

>  <SCORE.INTER>
-30.6731

>  <SCORE.INTER.CONST>
1

>  <SCORE.INTER.POLAR>
0

>  <SCORE.INTER.ROT>
3

>  <SCORE.INTER.SOLV>
11.5936

>  <SCORE.INTER.VDW>
-29.9133

>  <SCORE.INTER.norm>
-1.02244

>  <SCORE.INTRA>
-6.30907

>  <SCORE.INTRA.DIHEDRAL>
-7.28047

>  <SCORE.INTRA.DIHEDRAL.0>
9.41909

>  <SCORE.INTRA.POLAR>
0

>  <SCORE.INTRA.POLAR.0>
0

>  <SCORE.INTRA.REPUL>
0

>  <SCORE.INTRA.REPUL.0>
0

>  <SCORE.INTRA.SOLV>
-0.0747773

>  <SCORE.INTRA.SOLV.lig_0>
-26.2491

>  <SCORE.INTRA.VDW>
-2.63144

>  <SCORE.INTRA.VDW.0>
2.57239

>  <SCORE.INTRA.norm>
-0.210302

>  <SCORE.RESTR>
0

>  <SCORE.RESTR.CAVITY>
0

>  <SCORE.RESTR.norm>
0

>  <SCORE.SYSTEM>
0

>  <SCORE.SYSTEM.CONST>
0

>  <SCORE.SYSTEM.DIHEDRAL>
0

>  <SCORE.SYSTEM.SOLV>
0

>  <SCORE.SYSTEM.norm>
0

>  <SCORE.heavy>
30

>  <SCORE.norm>
-1.23274

>  <RMSD>
1.848

$$$$
lig.pdb
 OpenBabel11021811523D
libRbt.so/2013.1/901 2013/11/27
 30 34  0  0  0  0  0  0  0  0999 V2000
   24.2235   37.8432   21.0184 N   0  0  0  0  0  0  0  0  0  0  0  0
   26.8607   41.0457   23.7196 N   0  0  0  0  0  0  0  0  0  0  0  0
   25.4016   37.2351   20.3925 C   0  0  0  0  0  0  0  0  0  0  0  0
   24.7638   36.3088   19.3681 C   0  0  2  0  0  0  0  0  0  0  0  0
   24.3685   38.6943   22.1941 C   0  0  0  0  0  0  0  0  0  0  0  0
   23.3842   38.8150   23.1963 C   0  0  0  0  0  0  0  0  0  0  0  0
   23.5053   39.6365   24.2891 C   0  0  0  0  0  0  0  0  0  0  0  0
   24.7589   41.3445   25.6101 C   0  0  0  0  0  0  0  0  0  0  0  0
   29.0225   41.5827   23.3182 C   0  0  0  0  0  0  0  0  0  0  0  0
   27.8738   39.6974   21.9591 C   0  0  0  0  0  0  0  0  0  0  0  0
   25.5484   39.4702   22.3723 C   0  0  0  0  0  0  0  0  0  0  0  0
   27.1593   43.1305   27.5053 O   0  0  0  0  0  0  0  0  0  0  0  0
   26.1622   43.1413   26.7802 C   0  0  0  0  0  0  0  0  0  0  0  0
   25.1737   44.0130   26.9386 O   0  0  0  0  0  0  0  0  0  0  0  0
   26.0071   42.1477   25.6846 C   0  0  1  0  0  0  0  0  0  0  0  0
   23.8734   41.4067   26.4697 O   0  0  0  0  0  0  0  0  0  0  0  0
   27.0401   41.9674   24.7485 C   0  0  0  0  0  0  0  0  0  0  0  0
   27.9981   40.8156   22.9329 C   0  0  0  0  0  0  0  0  0  0  0  0
   28.6399   42.5770   24.6622 S   0  0  0  0  0  0  0  0  0  0  0  0
   25.6836   40.2996   23.5088 C   0  0  0  0  0  0  0  0  0  0  0  0
   24.6538   40.4102   24.4558 C   0  0  0  0  0  0  0  0  0  0  0  0
   22.2663   38.0673   23.1029 F   0  0  0  0  0  0  0  0  0  0  0  0
   26.5552   39.4730   21.3942 N   0  0  0  0  0  0  0  0  0  0  0  0
   26.1973   40.3276   20.2823 C   0  0  0  0  0  0  0  0  0  0  0  0
   23.0289   37.0333   20.8079 C   0  0  0  0  0  0  0  0  0  0  0  0
   25.2159   36.5975   18.0445 O   0  0  0  0  0  0  0  0  0  0  0  0
   23.2687   36.6170   19.3665 C   0  0  2  0  0  0  0  0  0  0  0  0
   22.5494   35.4164   18.8997 N   0  0  0  0  0  0  0  0  0  0  0  0
   21.0963   35.4170   19.1487 C   0  0  0  0  0  0  0  0  0  0  0  0
   22.8802   35.0443   17.5156 C   0  0  0  0  0  0  0  0  0  0  0  0
  1  5  1  0  0  0  0
  2 17  1  0  0  0  0
  3  1  1  0  0  0  0
  4  3  1  0  0  0  0
  4 26  1  6  0  0  0
  5 11  2  0  0  0  0
  5  6  1  0  0  0  0
  6  7  2  0  0  0  0
  7 21  1  0  0  0  0
  8 15  1  0  0  0  0
  8 16  2  0  0  0  0
  9 19  1  0  0  0  0
 10 18  1  0  0  0  0
 11 20  1  0  0  0  0
 13 14  1  0  0  0  0
 13 12  2  0  0  0  0
 15 13  1  1  0  0  0
 17 19  2  0  0  0  0
 17 15  1  0  0  0  0
 18  2  1  0  0  0  0
 18  9  2  0  0  0  0
 20 21  2  0  0  0  0
 20  2  1  0  0  0  0
 21  8  1  0  0  0  0
 22  6  1  0  0  0  0
 23 11  1  0  0  0  0
 23 10  1  0  0  0  0
 24 23  1  0  0  0  0
 25  1  1  0  0  0  0
 27  4  1  0  0  0  0
 27 25  1  0  0  0  0
 27 28  1  1  0  0  0
 29 28  1  0  0  0  0
 30 28  1  0  0  0  0
M  END
>  <CHROM.1>
-149.64326649,0.88885799,127.32505170,-65.22336415,165.50645224,25.25780573
39.61114777,22.70545773,1.96347822,-0.38057591,-2.18623544

>  <Name>
lig.pdb

>  <RI>
0

>  <Rbt.Current_Directory>
/home/itssahil/PROJECTS/Mol_Feturizer/New_Systems/rnas/6bfb

>  <Rbt.Executable>
rbdock ($Id: //depot/dev/client3/rdock/2013.1/src/exe/rbdock.cxx#4 $)

>  <Rbt.Library>
libRbt.so (2013.1, Build901 2013/11/27)

>  <Rbt.Parameter_File>
/export/apps/rDock/src/rDock_2013.1_src/data/scripts/dock_solv.prm

>  <Rbt.Receptor>
prm/pocket_docking_8.prm

>  <SCORE>
-38.7107

>  <SCORE.INTER>
-36.7926

>  <SCORE.INTER.CONST>
1

>  <SCORE.INTER.POLAR>
-0.517081

>  <SCORE.INTER.ROT>
3

>  <SCORE.INTER.SOLV>
13.8112

>  <SCORE.INTER.VDW>
-33.0085

>  <SCORE.INTER.norm>
-1.22642

>  <SCORE.INTRA>
-1.91808

>  <SCORE.INTRA.DIHEDRAL>
-7.48693

>  <SCORE.INTRA.DIHEDRAL.0>
9.41909

>  <SCORE.INTRA.POLAR>
0

>  <SCORE.INTRA.POLAR.0>
0

>  <SCORE.INTRA.REPUL>
0

>  <SCORE.INTRA.REPUL.0>
0

>  <SCORE.INTRA.SOLV>
0.0309282

>  <SCORE.INTRA.SOLV.lig_0>
-26.2491

>  <SCORE.INTRA.VDW>
1.80992

>  <SCORE.INTRA.VDW.0>
2.57239

>  <SCORE.INTRA.norm>
-0.0639358

>  <SCORE.RESTR>
0

>  <SCORE.RESTR.CAVITY>
0

>  <SCORE.RESTR.norm>
0

>  <SCORE.SYSTEM>
0

>  <SCORE.SYSTEM.CONST>
0

>  <SCORE.SYSTEM.DIHEDRAL>
0

>  <SCORE.SYSTEM.SOLV>
0

>  <SCORE.SYSTEM.norm>
0

>  <SCORE.heavy>
30

>  <SCORE.norm>
-1.29036

>  <RMSD>
1.850

$$$$
lig.pdb
 OpenBabel11021811523D
libRbt.so/2013.1/901 2013/11/27
 30 34  0  0  0  0  0  0  0  0999 V2000
   25.2007   38.5998   21.7167 N   0  0  0  0  0  0  0  0  0  0  0  0
   26.7882   42.0924   24.8454 N   0  0  0  0  0  0  0  0  0  0  0  0
   24.6034   38.9608   20.4274 C   0  0  0  0  0  0  0  0  0  0  0  0
   25.2361   37.9375   19.4964 C   0  0  2  0  0  0  0  0  0  0  0  0
   24.9936   39.4434   22.8885 C   0  0  0  0  0  0  0  0  0  0  0  0
   23.8256   39.4099   23.6775 C   0  0  0  0  0  0  0  0  0  0  0  0
   23.6157   40.2223   24.7638 C   0  0  0  0  0  0  0  0  0  0  0  0
   24.3373   42.0658   26.2852 C   0  0  0  0  0  0  0  0  0  0  0  0
   28.8905   42.9305   24.8684 C   0  0  0  0  0  0  0  0  0  0  0  0
   28.3030   40.9266   23.3320 C   0  0  0  0  0  0  0  0  0  0  0  0
   25.9964   40.3724   23.2853 C   0  0  0  0  0  0  0  0  0  0  0  0
   25.6649   43.8089   28.8175 O   0  0  0  0  0  0  0  0  0  0  0  0
   25.2212   44.0205   27.6868 C   0  0  0  0  0  0  0  0  0  0  0  0
   24.5333   45.1143   27.3829 O   0  0  0  0  0  0  0  0  0  0  0  0
   25.4226   43.0330   26.5932 C   0  0  1  0  0  0  0  0  0  0  0  0
   23.3011   41.9905   26.9544 O   0  0  0  0  0  0  0  0  0  0  0  0
   26.6333   43.0130   25.8792 C   0  0  0  0  0  0  0  0  0  0  0  0
   28.0780   42.0352   24.2988 C   0  0  0  0  0  0  0  0  0  0  0  0
   28.1184   43.8400   26.1004 S   0  0  0  0  0  0  0  0  0  0  0  0
   25.7904   41.1938   24.4169 C   0  0  0  0  0  0  0  0  0  0  0  0
   24.5905   41.1449   25.1430 C   0  0  0  0  0  0  0  0  0  0  0  0
   22.8627   38.5160   23.3758 F   0  0  0  0  0  0  0  0  0  0  0  0
   27.1642   40.5308   22.5229 N   0  0  0  0  0  0  0  0  0  0  0  0
   26.9147   41.3456   21.3529 C   0  0  0  0  0  0  0  0  0  0  0  0
   26.4268   37.8298   21.5404 C   0  0  0  0  0  0  0  0  0  0  0  0
   24.2474   37.1618   18.8176 O   0  0  0  0  0  0  0  0  0  0  0  0
   25.9964   36.9505   20.3785 C   0  0  2  0  0  0  0  0  0  0  0  0
   27.0762   36.3478   19.5739 N   0  0  0  0  0  0  0  0  0  0  0  0
   28.1447   37.2751   19.1593 C   0  0  0  0  0  0  0  0  0  0  0  0
   27.6076   35.1054   20.1552 C   0  0  0  0  0  0  0  0  0  0  0  0
  1  5  1  0  0  0  0
  2 17  1  0  0  0  0
  3  1  1  0  0  0  0
  4  3  1  0  0  0  0
  4 26  1  1  0  0  0
  5 11  2  0  0  0  0
  5  6  1  0  0  0  0
  6  7  2  0  0  0  0
  7 21  1  0  0  0  0
  8 15  1  0  0  0  0
  8 16  2  0  0  0  0
  9 19  1  0  0  0  0
 10 18  1  0  0  0  0
 11 20  1  0  0  0  0
 13 14  1  0  0  0  0
 13 12  2  0  0  0  0
 15 13  1  1  0  0  0
 17 19  2  0  0  0  0
 17 15  1  0  0  0  0
 18  2  1  0  0  0  0
 18  9  2  0  0  0  0
 20 21  2  0  0  0  0
 20  2  1  0  0  0  0
 21  8  1  0  0  0  0
 22  6  1  0  0  0  0
 23 11  1  0  0  0  0
 23 10  1  0  0  0  0
 24 23  1  0  0  0  0
 25  1  1  0  0  0  0
 27  4  1  0  0  0  0
 27 25  1  0  0  0  0
 27 28  1  6  0  0  0
 29 28  1  0  0  0  0
 30 28  1  0  0  0  0
M  END
>  <CHROM.1>
80.40926182,169.52981907,97.09214811,66.82934281,66.52412629,25.90570898
40.53815790,23.58586555,1.55536531,-0.28916514,-2.32214547

>  <Name>
lig.pdb

>  <RI>
0

>  <Rbt.Current_Directory>
/home/itssahil/PROJECTS/Mol_Feturizer/New_Systems/rnas/6bfb

>  <Rbt.Executable>
rbdock ($Id: //depot/dev/client3/rdock/2013.1/src/exe/rbdock.cxx#4 $)

>  <Rbt.Library>
libRbt.so (2013.1, Build901 2013/11/27)

>  <Rbt.Parameter_File>
/export/apps/rDock/src/rDock_2013.1_src/data/scripts/dock_solv.prm

>  <Rbt.Receptor>
prm/blind_docking_60.prm

>  <SCORE>
-44.3809

>  <SCORE.INTER>
-38.7345

>  <SCORE.INTER.CONST>
1

>  <SCORE.INTER.POLAR>
-1.85777

>  <SCORE.INTER.ROT>
3

>  <SCORE.INTER.SOLV>
12.1893

>  <SCORE.INTER.VDW>
-29.2935

>  <SCORE.INTER.norm>
-1.29115

>  <SCORE.INTRA>
-5.64644

>  <SCORE.INTRA.DIHEDRAL>
-6.44914

>  <SCORE.INTRA.DIHEDRAL.0>
9.41909

>  <SCORE.INTRA.POLAR>
0

>  <SCORE.INTRA.POLAR.0>
0

>  <SCORE.INTRA.REPUL>
0

>  <SCORE.INTRA.REPUL.0>
0

>  <SCORE.INTRA.SOLV>
-0.20793

>  <SCORE.INTRA.SOLV.lig_0>
-26.2491

>  <SCORE.INTRA.VDW>
-2.3179

>  <SCORE.INTRA.VDW.0>
2.57239

>  <SCORE.INTRA.norm>
-0.188215

>  <SCORE.RESTR>
0

>  <SCORE.RESTR.CAVITY>
0

>  <SCORE.RESTR.norm>
0

>  <SCORE.SYSTEM>
0

>  <SCORE.SYSTEM.CONST>
0

>  <SCORE.SYSTEM.DIHEDRAL>
0

>  <SCORE.SYSTEM.SOLV>
0

>  <SCORE.SYSTEM.norm>
0

>  <SCORE.heavy>
30

>  <SCORE.norm>
-1.47936

>  <RMSD>
1.860

$$$$
lig.pdb
 OpenBabel11021811523D
libRbt.so/2013.1/901 2013/11/27
 30 34  0  0  0  0  0  0  0  0999 V2000
   25.2158   38.5795   21.6196 N   0  0  0  0  0  0  0  0  0  0  0  0
   26.7713   42.0911   24.7431 N   0  0  0  0  0  0  0  0  0  0  0  0
   24.6414   38.9709   20.3287 C   0  0  0  0  0  0  0  0  0  0  0  0
   25.2669   37.9503   19.3899 C   0  0  2  0  0  0  0  0  0  0  0  0
   25.0095   39.4089   22.8016 C   0  0  0  0  0  0  0  0  0  0  0  0
   23.8587   39.3386   23.6130 C   0  0  0  0  0  0  0  0  0  0  0  0
   23.6487   40.1373   24.7093 C   0  0  0  0  0  0  0  0  0  0  0  0
   24.3508   41.9886   26.2303 C   0  0  0  0  0  0  0  0  0  0  0  0
   28.8505   42.9850   24.7313 C   0  0  0  0  0  0  0  0  0  0  0  0
   28.2863   40.9770   23.1915 C   0  0  0  0  0  0  0  0  0  0  0  0
   25.9948   40.3616   23.1857 C   0  0  0  0  0  0  0  0  0  0  0  0
   24.2297   44.7040   27.6367 O   0  0  0  0  0  0  0  0  0  0  0  0
   25.2100   43.9562   27.6293 C   0  0  0  0  0  0  0  0  0  0  0  0
   26.1361   43.9836   28.5799 O   0  0  0  0  0  0  0  0  0  0  0  0
   25.4160   42.9823   26.5245 C   0  0  1  0  0  0  0  0  0  0  0  0
   23.3305   41.8808   26.9191 O   0  0  0  0  0  0  0  0  0  0  0  0
   26.6124   42.9998   25.7867 C   0  0  0  0  0  0  0  0  0  0  0  0
   28.0511   42.0723   24.1710 C   0  0  0  0  0  0  0  0  0  0  0  0
   28.0790   43.8647   25.9852 S   0  0  0  0  0  0  0  0  0  0  0  0
   25.7895   41.1691   24.3274 C   0  0  0  0  0  0  0  0  0  0  0  0
   24.6059   41.0830   25.0765 C   0  0  0  0  0  0  0  0  0  0  0  0
   22.9141   38.4213   23.3234 F   0  0  0  0  0  0  0  0  0  0  0  0
   27.1428   40.5566   22.4018 N   0  0  0  0  0  0  0  0  0  0  0  0
   26.8486   41.3727   21.2433 C   0  0  0  0  0  0  0  0  0  0  0  0
   26.4298   37.7898   21.4464 C   0  0  0  0  0  0  0  0  0  0  0  0
   24.2727   37.2034   18.6873 O   0  0  0  0  0  0  0  0  0  0  0  0
   25.9980   36.9363   20.2659 C   0  0  2  0  0  0  0  0  0  0  0  0
   27.0766   36.3260   19.4654 N   0  0  0  0  0  0  0  0  0  0  0  0
   28.1400   37.2511   19.0334 C   0  0  0  0  0  0  0  0  0  0  0  0
   27.6146   35.0938   20.0619 C   0  0  0  0  0  0  0  0  0  0  0  0
  1  5  1  0  0  0  0
  2 17  1  0  0  0  0
  3  1  1  0  0  0  0
  4  3  1  0  0  0  0
  4 26  1  1  0  0  0
  5 11  2  0  0  0  0
  5  6  1  0  0  0  0
  6  7  2  0  0  0  0
  7 21  1  0  0  0  0
  8 15  1  0  0  0  0
  8 16  2  0  0  0  0
  9 19  1  0  0  0  0
 10 18  1  0  0  0  0
 11 20  1  0  0  0  0
 13 14  1  0  0  0  0
 13 12  2  0  0  0  0
 15 13  1  1  0  0  0
 17 19  2  0  0  0  0
 17 15  1  0  0  0  0
 18  2  1  0  0  0  0
 18  9  2  0  0  0  0
 20 21  2  0  0  0  0
 20  2  1  0  0  0  0
 21  8  1  0  0  0  0
 22  6  1  0  0  0  0
 23 11  1  0  0  0  0
 23 10  1  0  0  0  0
 24 23  1  0  0  0  0
 25  1  1  0  0  0  0
 27  4  1  0  0  0  0
 27 25  1  0  0  0  0
 27 28  1  6  0  0  0
 29 28  1  0  0  0  0
 30 28  1  0  0  0  0
M  END
>  <CHROM.1>
83.60738882,-177.56369430,-56.76251117,64.47440011,64.22843352,25.91790906
40.50887710,23.50299875,1.55908984,-0.31555367,-2.31214105

>  <Name>
lig.pdb

>  <RI>
0

>  <Rbt.Current_Directory>
/home/itssahil/PROJECTS/Mol_Feturizer/New_Systems/rnas/6bfb

>  <Rbt.Executable>
rbdock ($Id: //depot/dev/client3/rdock/2013.1/src/exe/rbdock.cxx#4 $)

>  <Rbt.Library>
libRbt.so (2013.1, Build901 2013/11/27)

>  <Rbt.Parameter_File>
/export/apps/rDock/src/rDock_2013.1_src/data/scripts/dock_solv.prm

>  <Rbt.Receptor>
prm/pocket_docking_5.prm

>  <SCORE>
-42.6128

>  <SCORE.INTER>
-36.5914

>  <SCORE.INTER.CONST>
1

>  <SCORE.INTER.POLAR>
-1.09304

>  <SCORE.INTER.ROT>
3

>  <SCORE.INTER.SOLV>
11.5957

>  <SCORE.INTER.VDW>
-30.216

>  <SCORE.INTER.norm>
-1.21971

>  <SCORE.INTRA>
-6.02141

>  <SCORE.INTRA.DIHEDRAL>
-7.45846

>  <SCORE.INTRA.DIHEDRAL.0>
9.41909

>  <SCORE.INTRA.POLAR>
0

>  <SCORE.INTRA.POLAR.0>
0

>  <SCORE.INTRA.REPUL>
0

>  <SCORE.INTRA.REPUL.0>
0

>  <SCORE.INTRA.SOLV>
-0.225736

>  <SCORE.INTRA.SOLV.lig_0>
-26.2491

>  <SCORE.INTRA.VDW>
-2.17931

>  <SCORE.INTRA.VDW.0>
2.57239

>  <SCORE.INTRA.norm>
-0.200714

>  <SCORE.RESTR>
0

>  <SCORE.RESTR.CAVITY>
0

>  <SCORE.RESTR.norm>
0

>  <SCORE.SYSTEM>
0

>  <SCORE.SYSTEM.CONST>
0

>  <SCORE.SYSTEM.DIHEDRAL>
0

>  <SCORE.SYSTEM.SOLV>
0

>  <SCORE.SYSTEM.norm>
0

>  <SCORE.heavy>
30

>  <SCORE.norm>
-1.42043

>  <RMSD>
1.861

$$$$
lig.pdb
 OpenBabel11021811523D
libRbt.so/2013.1/901 2013/11/27
 30 34  0  0  0  0  0  0  0  0999 V2000
   25.1736   38.5639   21.6343 N   0  0  0  0  0  0  0  0  0  0  0  0
   26.7517   42.0733   24.7489 N   0  0  0  0  0  0  0  0  0  0  0  0
   24.6087   38.9561   20.3394 C   0  0  0  0  0  0  0  0  0  0  0  0
   25.2273   37.9252   19.4073 C   0  0  2  0  0  0  0  0  0  0  0  0
   24.9711   39.4002   22.8120 C   0  0  0  0  0  0  0  0  0  0  0  0
   23.8166   39.3446   23.6195 C   0  0  0  0  0  0  0  0  0  0  0  0
   23.6104   40.1499   24.7117 C   0  0  0  0  0  0  0  0  0  0  0  0
   24.3250   42.0006   26.2276 C   0  0  0  0  0  0  0  0  0  0  0  0
   28.8396   42.9469   24.7410 C   0  0  0  0  0  0  0  0  0  0  0  0
   28.2615   40.9381   23.2075 C   0  0  0  0  0  0  0  0  0  0  0  0
   25.9642   40.3450   23.1958 C   0  0  0  0  0  0  0  0  0  0  0  0
   24.2228   44.7199   27.6244 O   0  0  0  0  0  0  0  0  0  0  0  0
   25.1981   43.9657   27.6215 C   0  0  0  0  0  0  0  0  0  0  0  0
   26.1235   43.9916   28.5727 O   0  0  0  0  0  0  0  0  0  0  0  0
   25.3986   42.9852   26.5215 C   0  0  1  0  0  0  0  0  0  0  0  0
   23.3011   41.9057   26.9130 O   0  0  0  0  0  0  0  0  0  0  0  0
   26.5979   42.9880   25.7881 C   0  0  0  0  0  0  0  0  0  0  0  0
   28.0333   42.0397   24.1816 C   0  0  0  0  0  0  0  0  0  0  0  0
   28.0721   43.8394   25.9884 S   0  0  0  0  0  0  0  0  0  0  0  0
   25.7625   41.1592   24.3334 C   0  0  0  0  0  0  0  0  0  0  0  0
   24.5754   41.0878   25.0784 C   0  0  0  0  0  0  0  0  0  0  0  0
   22.8642   38.4353   23.3302 F   0  0  0  0  0  0  0  0  0  0  0  0
   27.1168   40.5255   22.4154 N   0  0  0  0  0  0  0  0  0  0  0  0
   26.8348   41.3396   21.2524 C   0  0  0  0  0  0  0  0  0  0  0  0
   26.3799   37.7609   21.4694 C   0  0  0  0  0  0  0  0  0  0  0  0
   24.2284   37.1858   18.7036 O   0  0  0  0  0  0  0  0  0  0  0  0
   25.9441   36.9071   20.2905 C   0  0  2  0  0  0  0  0  0  0  0  0
   27.0196   36.2824   19.4970 N   0  0  0  0  0  0  0  0  0  0  0  0
   28.1143   37.1862   19.0993 C   0  0  0  0  0  0  0  0  0  0  0  0
   27.5147   35.0259   20.0801 C   0  0  0  0  0  0  0  0  0  0  0  0
  1  5  1  0  0  0  0
  2 17  1  0  0  0  0
  3  1  1  0  0  0  0
  4  3  1  0  0  0  0
  4 26  1  1  0  0  0
  5 11  2  0  0  0  0
  5  6  1  0  0  0  0
  6  7  2  0  0  0  0
  7 21  1  0  0  0  0
  8 15  1  0  0  0  0
  8 16  2  0  0  0  0
  9 19  1  0  0  0  0
 10 18  1  0  0  0  0
 11 20  1  0  0  0  0
 13 14  1  0  0  0  0
 13 12  2  0  0  0  0
 15 13  1  1  0  0  0
 17 19  2  0  0  0  0
 17 15  1  0  0  0  0
 18  2  1  0  0  0  0
 18  9  2  0  0  0  0
 20 21  2  0  0  0  0
 20  2  1  0  0  0  0
 21  8  1  0  0  0  0
 22  6  1  0  0  0  0
 23 11  1  0  0  0  0
 23 10  1  0  0  0  0
 24 23  1  0  0  0  0
 25  1  1  0  0  0  0
 27  4  1  0  0  0  0
 27 25  1  0  0  0  0
 27 28  1  6  0  0  0
 29 28  1  0  0  0  0
 30 28  1  0  0  0  0
M  END
>  <CHROM.1>
83.65998759,0.99026836,-56.51807494,62.90155934,65.94035312,25.88502845,40.49629075
23.51479684,1.56235624,-0.30663115,-2.31612919

>  <Name>
lig.pdb

>  <RI>
0

>  <Rbt.Current_Directory>
/home/itssahil/PROJECTS/Mol_Feturizer/New_Systems/rnas/6bfb

>  <Rbt.Executable>
rbdock ($Id: //depot/dev/client3/rdock/2013.1/src/exe/rbdock.cxx#4 $)

>  <Rbt.Library>
libRbt.so (2013.1, Build901 2013/11/27)

>  <Rbt.Parameter_File>
/export/apps/rDock/src/rDock_2013.1_src/data/scripts/dock_solv.prm

>  <Rbt.Receptor>
prm/pocket_docking_3.prm

>  <SCORE>
-42.4909

>  <SCORE.INTER>
-36.0492

>  <SCORE.INTER.CONST>
1

>  <SCORE.INTER.POLAR>
-1.13225

>  <SCORE.INTER.ROT>
3

>  <SCORE.INTER.SOLV>
11.6432

>  <SCORE.INTER.VDW>
-29.7397

>  <SCORE.INTER.norm>
-1.20164

>  <SCORE.INTRA>
-6.4417

>  <SCORE.INTRA.DIHEDRAL>
-7.48737

>  <SCORE.INTRA.DIHEDRAL.0>
9.41909

>  <SCORE.INTRA.POLAR>
0

>  <SCORE.INTRA.POLAR.0>
0

>  <SCORE.INTRA.REPUL>
0

>  <SCORE.INTRA.REPUL.0>
0

>  <SCORE.INTRA.SOLV>
-0.158234

>  <SCORE.INTRA.SOLV.lig_0>
-26.2491

>  <SCORE.INTRA.VDW>
-2.6189

>  <SCORE.INTRA.VDW.0>
2.57239

>  <SCORE.INTRA.norm>
-0.214723

>  <SCORE.RESTR>
0

>  <SCORE.RESTR.CAVITY>
0

>  <SCORE.RESTR.norm>
0

>  <SCORE.SYSTEM>
0

>  <SCORE.SYSTEM.CONST>
0

>  <SCORE.SYSTEM.DIHEDRAL>
0

>  <SCORE.SYSTEM.SOLV>
0

>  <SCORE.SYSTEM.norm>
0

>  <SCORE.heavy>
30

>  <SCORE.norm>
-1.41636

>  <RMSD>
1.864

$$$$
lig.pdb
 OpenBabel11021811523D
libRbt.so/2013.1/901 2013/11/27
 30 34  0  0  0  0  0  0  0  0999 V2000
   25.1622   38.5563   21.6370 N   0  0  0  0  0  0  0  0  0  0  0  0
   26.7645   42.0656   24.7394 N   0  0  0  0  0  0  0  0  0  0  0  0
   24.5914   38.9475   20.3445 C   0  0  0  0  0  0  0  0  0  0  0  0
   25.2033   37.9139   19.4109 C   0  0  2  0  0  0  0  0  0  0  0  0
   24.9674   39.3949   22.8144 C   0  0  0  0  0  0  0  0  0  0  0  0
   23.8164   39.3438   23.6272 C   0  0  0  0  0  0  0  0  0  0  0  0
   23.6175   40.1513   24.7191 C   0  0  0  0  0  0  0  0  0  0  0  0
   24.3442   42.0022   26.2290 C   0  0  0  0  0  0  0  0  0  0  0  0
   28.8549   42.9331   24.7209 C   0  0  0  0  0  0  0  0  0  0  0  0
   28.2641   40.9237   23.1930 C   0  0  0  0  0  0  0  0  0  0  0  0
   25.9650   40.3373   23.1924 C   0  0  0  0  0  0  0  0  0  0  0  0
   24.2657   44.7358   27.6132 O   0  0  0  0  0  0  0  0  0  0  0  0
   25.2293   43.9667   27.6161 C   0  0  0  0  0  0  0  0  0  0  0  0
   26.1487   43.9777   28.5735 O   0  0  0  0  0  0  0  0  0  0  0  0
   25.4220   42.9840   26.5167 C   0  0  1  0  0  0  0  0  0  0  0  0
   23.3232   41.9112   26.9191 O   0  0  0  0  0  0  0  0  0  0  0  0
   26.6180   42.9822   25.7779 C   0  0  0  0  0  0  0  0  0  0  0  0
   28.0435   42.0274   24.1664 C   0  0  0  0  0  0  0  0  0  0  0  0
   28.0956   43.8296   25.9704 S   0  0  0  0  0  0  0  0  0  0  0  0
   25.7708   41.1538   24.3297 C   0  0  0  0  0  0  0  0  0  0  0  0
   24.5868   41.0869   25.0801 C   0  0  0  0  0  0  0  0  0  0  0  0
   22.8601   38.4369   23.3434 F   0  0  0  0  0  0  0  0  0  0  0  0
   27.1146   40.5134   22.4066 N   0  0  0  0  0  0  0  0  0  0  0  0
   26.8298   41.3265   21.2436 C   0  0  0  0  0  0  0  0  0  0  0  0
   26.3661   37.7506   21.4673 C   0  0  0  0  0  0  0  0  0  0  0  0
   24.1992   37.1754   18.7135 O   0  0  0  0  0  0  0  0  0  0  0  0
   25.9225   36.8958   20.2921 C   0  0  2  0  0  0  0  0  0  0  0  0
   26.9927   36.2676   19.4941 N   0  0  0  0  0  0  0  0  0  0  0  0
   28.0743   37.1741   19.0677 C   0  0  0  0  0  0  0  0  0  0  0  0
   27.5061   35.0246   20.0899 C   0  0  0  0  0  0  0  0  0  0  0  0
  1  5  1  0  0  0  0
  2 17  1  0  0  0  0
  3  1  1  0  0  0  0
  4  3  1  0  0  0  0
  4 26  1  1  0  0  0
  5 11  2  0  0  0  0
  5  6  1  0  0  0  0
  6  7  2  0  0  0  0
  7 21  1  0  0  0  0
  8 15  1  0  0  0  0
  8 16  2  0  0  0  0
  9 19  1  0  0  0  0
 10 18  1  0  0  0  0
 11 20  1  0  0  0  0
 13 14  1  0  0  0  0
 13 12  2  0  0  0  0
 15 13  1  1  0  0  0
 17 19  2  0  0  0  0
 17 15  1  0  0  0  0
 18  2  1  0  0  0  0
 18  9  2  0  0  0  0
 20 21  2  0  0  0  0
 20  2  1  0  0  0  0
 21  8  1  0  0  0  0
 22  6  1  0  0  0  0
 23 11  1  0  0  0  0
 23 10  1  0  0  0  0
 24 23  1  0  0  0  0
 25  1  1  0  0  0  0
 27  4  1  0  0  0  0
 27 25  1  0  0  0  0
 27 28  1  6  0  0  0
 29 28  1  0  0  0  0
 30 28  1  0  0  0  0
M  END
>  <CHROM.1>
83.59466163,2.28183612,-57.48328434,61.84086851,64.83531021,25.88781634,40.49002673
23.51125600,1.56766158,-0.30775606,-2.31544909

>  <Name>
lig.pdb

>  <RI>
0

>  <Rbt.Current_Directory>
/home/itssahil/PROJECTS/Mol_Feturizer/New_Systems/rnas/6bfb

>  <Rbt.Executable>
rbdock ($Id: //depot/dev/client3/rdock/2013.1/src/exe/rbdock.cxx#4 $)

>  <Rbt.Library>
libRbt.so (2013.1, Build901 2013/11/27)

>  <Rbt.Parameter_File>
/export/apps/rDock/src/rDock_2013.1_src/data/scripts/dock_solv.prm

>  <Rbt.Receptor>
prm/pocket_docking_4.prm

>  <SCORE>
-42.4438

>  <SCORE.INTER>
-36.01

>  <SCORE.INTER.CONST>
1

>  <SCORE.INTER.POLAR>
-1.16558

>  <SCORE.INTER.ROT>
3

>  <SCORE.INTER.SOLV>
11.6891

>  <SCORE.INTER.VDW>
-29.6178

>  <SCORE.INTER.norm>
-1.20033

>  <SCORE.INTRA>
-6.43386

>  <SCORE.INTRA.DIHEDRAL>
-7.52535

>  <SCORE.INTRA.DIHEDRAL.0>
9.41909

>  <SCORE.INTRA.POLAR>
0

>  <SCORE.INTRA.POLAR.0>
0

>  <SCORE.INTRA.REPUL>
0

>  <SCORE.INTRA.REPUL.0>
0

>  <SCORE.INTRA.SOLV>
-0.158444

>  <SCORE.INTRA.SOLV.lig_0>
-26.2491

>  <SCORE.INTRA.VDW>
-2.59197

>  <SCORE.INTRA.VDW.0>
2.57239

>  <SCORE.INTRA.norm>
-0.214462

>  <SCORE.RESTR>
0

>  <SCORE.RESTR.CAVITY>
0

>  <SCORE.RESTR.norm>
0

>  <SCORE.SYSTEM>
0

>  <SCORE.SYSTEM.CONST>
0

>  <SCORE.SYSTEM.DIHEDRAL>
0

>  <SCORE.SYSTEM.SOLV>
0

>  <SCORE.SYSTEM.norm>
0

>  <SCORE.heavy>
30

>  <SCORE.norm>
-1.41479

>  <RMSD>
1.864

$$$$
lig.pdb
 OpenBabel11021811523D
libRbt.so/2013.1/901 2013/11/27
 30 34  0  0  0  0  0  0  0  0999 V2000
   25.1748   38.6077   21.7413 N   0  0  0  0  0  0  0  0  0  0  0  0
   26.7376   42.0306   24.9582 N   0  0  0  0  0  0  0  0  0  0  0  0
   24.5670   38.9652   20.4559 C   0  0  0  0  0  0  0  0  0  0  0  0
   25.2200   37.9631   19.5159 C   0  0  2  0  0  0  0  0  0  0  0  0
   24.9517   39.4377   22.9198 C   0  0  0  0  0  0  0  0  0  0  0  0
   23.7644   39.4112   23.6796 C   0  0  0  0  0  0  0  0  0  0  0  0
   23.5401   40.2112   24.7721 C   0  0  0  0  0  0  0  0  0  0  0  0
   24.2519   42.0215   26.3373 C   0  0  0  0  0  0  0  0  0  0  0  0
   28.8511   42.8357   25.0445 C   0  0  0  0  0  0  0  0  0  0  0  0
   28.2713   40.8631   23.4653 C   0  0  0  0  0  0  0  0  0  0  0  0
   25.9584   40.3454   23.3544 C   0  0  0  0  0  0  0  0  0  0  0  0
   25.8694   44.9208   27.9172 O   0  0  0  0  0  0  0  0  0  0  0  0
   25.1306   43.9422   27.7884 C   0  0  0  0  0  0  0  0  0  0  0  0
   24.1269   43.6910   28.6200 O   0  0  0  0  0  0  0  0  0  0  0  0
   25.3438   42.9674   26.6858 C   0  0  1  0  0  0  0  0  0  0  0  0
   23.1986   41.9528   26.9799 O   0  0  0  0  0  0  0  0  0  0  0  0
   26.5713   42.9388   26.0012 C   0  0  0  0  0  0  0  0  0  0  0  0
   28.0394   41.9612   24.4424 C   0  0  0  0  0  0  0  0  0  0  0  0
   28.0628   43.7395   26.2706 S   0  0  0  0  0  0  0  0  0  0  0  0
   25.7372   41.1537   24.4925 C   0  0  0  0  0  0  0  0  0  0  0  0
   24.5191   41.1131   25.1884 C   0  0  0  0  0  0  0  0  0  0  0  0
   22.7957   38.5366   23.3415 F   0  0  0  0  0  0  0  0  0  0  0  0
   27.1469   40.4965   22.6230 N   0  0  0  0  0  0  0  0  0  0  0  0
   26.9385   41.3315   21.4594 C   0  0  0  0  0  0  0  0  0  0  0  0
   26.4171   37.8661   21.5568 C   0  0  0  0  0  0  0  0  0  0  0  0
   24.2471   37.1710   18.8332 O   0  0  0  0  0  0  0  0  0  0  0  0
   26.0036   36.9864   20.3890 C   0  0  2  0  0  0  0  0  0  0  0  0
   27.0947   36.4135   19.5778 N   0  0  0  0  0  0  0  0  0  0  0  0
   28.1453   37.3657   19.1741 C   0  0  0  0  0  0  0  0  0  0  0  0
   27.6495   35.1749   20.1449 C   0  0  0  0  0  0  0  0  0  0  0  0
  1  5  1  0  0  0  0
  2 17  1  0  0  0  0
  3  1  1  0  0  0  0
  4  3  1  0  0  0  0
  4 26  1  1  0  0  0
  5 11  2  0  0  0  0
  5  6  1  0  0  0  0
  6  7  2  0  0  0  0
  7 21  1  0  0  0  0
  8 15  1  0  0  0  0
  8 16  2  0  0  0  0
  9 19  1  0  0  0  0
 10 18  1  0  0  0  0
 11 20  1  0  0  0  0
 13 14  1  0  0  0  0
 13 12  2  0  0  0  0
 15 13  1  1  0  0  0
 17 19  2  0  0  0  0
 17 15  1  0  0  0  0
 18  2  1  0  0  0  0
 18  9  2  0  0  0  0
 20 21  2  0  0  0  0
 20  2  1  0  0  0  0
 21  8  1  0  0  0  0
 22  6  1  0  0  0  0
 23 11  1  0  0  0  0
 23 10  1  0  0  0  0
 24 23  1  0  0  0  0
 25  1  1  0  0  0  0
 27  4  1  0  0  0  0
 27 25  1  0  0  0  0
 27 28  1  6  0  0  0
 29 28  1  0  0  0  0
 30 28  1  0  0  0  0
M  END
>  <CHROM.1>
77.76336579,179.34135397,-163.87292262,66.84864252,66.83048034,25.86182126
40.50357706,23.65994877,1.54561118,-0.28853417,-2.30282096

>  <Name>
lig.pdb

>  <RI>
0

>  <Rbt.Current_Directory>
/home/itssahil/PROJECTS/Mol_Feturizer/New_Systems/rnas/6bfb

>  <Rbt.Executable>
rbdock ($Id: //depot/dev/client3/rdock/2013.1/src/exe/rbdock.cxx#4 $)

>  <Rbt.Library>
libRbt.so (2013.1, Build901 2013/11/27)

>  <Rbt.Parameter_File>
/export/apps/rDock/src/rDock_2013.1_src/data/scripts/dock_solv.prm

>  <Rbt.Receptor>
prm/pocket_docking_3.prm

>  <SCORE>
-40.2859

>  <SCORE.INTER>
-36.0214

>  <SCORE.INTER.CONST>
1

>  <SCORE.INTER.POLAR>
-1.10139

>  <SCORE.INTER.ROT>
3

>  <SCORE.INTER.SOLV>
12.0465

>  <SCORE.INTER.VDW>
-29.9585

>  <SCORE.INTER.norm>
-1.20071

>  <SCORE.INTRA>
-4.26447

>  <SCORE.INTRA.DIHEDRAL>
-7.2594

>  <SCORE.INTRA.DIHEDRAL.0>
9.41909

>  <SCORE.INTRA.POLAR>
0

>  <SCORE.INTRA.POLAR.0>
0

>  <SCORE.INTRA.REPUL>
0

>  <SCORE.INTRA.REPUL.0>
0

>  <SCORE.INTRA.SOLV>
-0.0570974

>  <SCORE.INTRA.SOLV.lig_0>
-26.2491

>  <SCORE.INTRA.VDW>
-0.606223

>  <SCORE.INTRA.VDW.0>
2.57239

>  <SCORE.INTRA.norm>
-0.142149

>  <SCORE.RESTR>
0

>  <SCORE.RESTR.CAVITY>
0

>  <SCORE.RESTR.norm>
0

>  <SCORE.SYSTEM>
0

>  <SCORE.SYSTEM.CONST>
0

>  <SCORE.SYSTEM.DIHEDRAL>
0

>  <SCORE.SYSTEM.SOLV>
0

>  <SCORE.SYSTEM.norm>
0

>  <SCORE.heavy>
30

>  <SCORE.norm>
-1.34286

>  <RMSD>
1.865

$$$$
lig.pdb
 OpenBabel11021811523D
libRbt.so/2013.1/901 2013/11/27
 30 34  0  0  0  0  0  0  0  0999 V2000
   25.1747   38.5695   21.6328 N   0  0  0  0  0  0  0  0  0  0  0  0
   26.7688   42.1133   24.7001 N   0  0  0  0  0  0  0  0  0  0  0  0
   24.6019   38.9516   20.3385 C   0  0  0  0  0  0  0  0  0  0  0  0
   25.2138   37.9126   19.4109 C   0  0  2  0  0  0  0  0  0  0  0  0
   24.9804   39.4155   22.8050 C   0  0  0  0  0  0  0  0  0  0  0  0
   23.8342   39.3623   23.6244 C   0  0  0  0  0  0  0  0  0  0  0  0
   23.6354   40.1766   24.7113 C   0  0  0  0  0  0  0  0  0  0  0  0
   24.3571   42.0438   26.2034 C   0  0  0  0  0  0  0  0  0  0  0  0
   28.8528   42.9954   24.6637 C   0  0  0  0  0  0  0  0  0  0  0  0
   28.2681   40.9704   23.1540 C   0  0  0  0  0  0  0  0  0  0  0  0
   25.9732   40.3678   23.1705 C   0  0  0  0  0  0  0  0  0  0  0  0
   24.2834   44.8077   27.5519 O   0  0  0  0  0  0  0  0  0  0  0  0
   25.2357   44.0249   27.5709 C   0  0  0  0  0  0  0  0  0  0  0  0
   26.1419   44.0264   28.5409 O   0  0  0  0  0  0  0  0  0  0  0  0
   25.4295   43.0354   26.4778 C   0  0  1  0  0  0  0  0  0  0  0  0
   23.3406   41.9508   26.8997 O   0  0  0  0  0  0  0  0  0  0  0  0
   26.6214   43.0366   25.7325 C   0  0  0  0  0  0  0  0  0  0  0  0
   28.0449   42.0798   24.1204 C   0  0  0  0  0  0  0  0  0  0  0  0
   28.0939   43.8958   25.9105 S   0  0  0  0  0  0  0  0  0  0  0  0
   25.7794   41.1913   24.3026 C   0  0  0  0  0  0  0  0  0  0  0  0
   24.6000   41.1217   25.0600 C   0  0  0  0  0  0  0  0  0  0  0  0
   22.8828   38.4466   23.3527 F   0  0  0  0  0  0  0  0  0  0  0  0
   27.1173   40.5460   22.3770 N   0  0  0  0  0  0  0  0  0  0  0  0
   26.8204   41.3484   21.2096 C   0  0  0  0  0  0  0  0  0  0  0  0
   26.3794   37.7642   21.4669 C   0  0  0  0  0  0  0  0  0  0  0  0
   24.2099   37.1683   18.7196 O   0  0  0  0  0  0  0  0  0  0  0  0
   25.9355   36.9012   20.2977 C   0  0  2  0  0  0  0  0  0  0  0  0
   27.0054   36.2692   19.5025 N   0  0  0  0  0  0  0  0  0  0  0  0
   28.1258   37.1554   19.1382 C   0  0  0  0  0  0  0  0  0  0  0  0
   27.4638   34.9884   20.0623 C   0  0  0  0  0  0  0  0  0  0  0  0
  1  5  1  0  0  0  0
  2 17  1  0  0  0  0
  3  1  1  0  0  0  0
  4  3  1  0  0  0  0
  4 26  1  1  0  0  0
  5 11  2  0  0  0  0
  5  6  1  0  0  0  0
  6  7  2  0  0  0  0
  7 21  1  0  0  0  0
  8 15  1  0  0  0  0
  8 16  2  0  0  0  0
  9 19  1  0  0  0  0
 10 18  1  0  0  0  0
 11 20  1  0  0  0  0
 13 14  1  0  0  0  0
 13 12  2  0  0  0  0
 15 13  1  1  0  0  0
 17 19  2  0  0  0  0
 17 15  1  0  0  0  0
 18  2  1  0  0  0  0
 18  9  2  0  0  0  0
 20 21  2  0  0  0  0
 20  2  1  0  0  0  0
 21  8  1  0  0  0  0
 22  6  1  0  0  0  0
 23 11  1  0  0  0  0
 23 10  1  0  0  0  0
 24 23  1  0  0  0  0
 25  1  1  0  0  0  0
 27  4  1  0  0  0  0
 27 25  1  0  0  0  0
 27 28  1  6  0  0  0
 29 28  1  0  0  0  0
 30 28  1  0  0  0  0
M  END
>  <CHROM.1>
84.01105968,1.25934365,-59.14738449,60.65129636,68.37477725,25.89581107,40.51909425
23.49026880,1.56732284,-0.31655785,-2.32472882

>  <Name>
lig.pdb

>  <RI>
0

>  <Rbt.Current_Directory>
/home/itssahil/PROJECTS/Mol_Feturizer/New_Systems/rnas/6bfb

>  <Rbt.Executable>
rbdock ($Id: //depot/dev/client3/rdock/2013.1/src/exe/rbdock.cxx#4 $)

>  <Rbt.Library>
libRbt.so (2013.1, Build901 2013/11/27)

>  <Rbt.Parameter_File>
/export/apps/rDock/src/rDock_2013.1_src/data/scripts/dock_solv.prm

>  <Rbt.Receptor>
prm/pocket_docking_7.prm

>  <SCORE>
-42.4556

>  <SCORE.INTER>
-36.0309

>  <SCORE.INTER.CONST>
1

>  <SCORE.INTER.POLAR>
-1.16356

>  <SCORE.INTER.ROT>
3

>  <SCORE.INTER.SOLV>
11.5603

>  <SCORE.INTER.VDW>
-29.5955

>  <SCORE.INTER.norm>
-1.20103

>  <SCORE.INTRA>
-6.42468

>  <SCORE.INTRA.DIHEDRAL>
-7.4369

>  <SCORE.INTRA.DIHEDRAL.0>
9.41909

>  <SCORE.INTRA.POLAR>
0

>  <SCORE.INTRA.POLAR.0>
0

>  <SCORE.INTRA.REPUL>
0

>  <SCORE.INTRA.REPUL.0>
0

>  <SCORE.INTRA.SOLV>
-0.164631

>  <SCORE.INTRA.SOLV.lig_0>
-26.2491

>  <SCORE.INTRA.VDW>
-2.62392

>  <SCORE.INTRA.VDW.0>
2.57239

>  <SCORE.INTRA.norm>
-0.214156

>  <SCORE.RESTR>
0

>  <SCORE.RESTR.CAVITY>
0

>  <SCORE.RESTR.norm>
0

>  <SCORE.SYSTEM>
0

>  <SCORE.SYSTEM.CONST>
0

>  <SCORE.SYSTEM.DIHEDRAL>
0

>  <SCORE.SYSTEM.SOLV>
0

>  <SCORE.SYSTEM.norm>
0

>  <SCORE.heavy>
30

>  <SCORE.norm>
-1.41519

>  <RMSD>
1.865

$$$$
lig.pdb
 OpenBabel11021811523D
libRbt.so/2013.1/901 2013/11/27
 30 34  0  0  0  0  0  0  0  0999 V2000
   25.1893   38.6086   21.7401 N   0  0  0  0  0  0  0  0  0  0  0  0
   26.7074   42.0605   24.9475 N   0  0  0  0  0  0  0  0  0  0  0  0
   24.6084   38.9603   20.4407 C   0  0  0  0  0  0  0  0  0  0  0  0
   25.2719   37.9465   19.5209 C   0  0  2  0  0  0  0  0  0  0  0  0
   24.9499   39.4492   22.9078 C   0  0  0  0  0  0  0  0  0  0  0  0
   23.7520   39.4296   23.6511 C   0  0  0  0  0  0  0  0  0  0  0  0
   23.5126   40.2394   24.7331 C   0  0  0  0  0  0  0  0  0  0  0  0
   24.2026   42.0638   26.2917 C   0  0  0  0  0  0  0  0  0  0  0  0
   28.8196   42.8662   25.0561 C   0  0  0  0  0  0  0  0  0  0  0  0
   28.2617   40.8795   23.4868 C   0  0  0  0  0  0  0  0  0  0  0  0
   25.9505   40.3608   23.3482 C   0  0  0  0  0  0  0  0  0  0  0  0
   25.7894   44.9849   27.8590 O   0  0  0  0  0  0  0  0  0  0  0  0
   25.0612   43.9975   27.7375 C   0  0  0  0  0  0  0  0  0  0  0  0
   24.0560   43.7453   28.5670 O   0  0  0  0  0  0  0  0  0  0  0  0
   25.2897   43.0128   26.6468 C   0  0  1  0  0  0  0  0  0  0  0  0
   23.1404   42.0009   26.9201 O   0  0  0  0  0  0  0  0  0  0  0  0
   26.5266   42.9780   25.9798 C   0  0  0  0  0  0  0  0  0  0  0  0
   28.0163   41.9864   24.4506 C   0  0  0  0  0  0  0  0  0  0  0  0
   28.0144   43.7811   26.2628 S   0  0  0  0  0  0  0  0  0  0  0  0
   25.7135   41.1793   24.4757 C   0  0  0  0  0  0  0  0  0  0  0  0
   24.4858   41.1451   25.1549 C   0  0  0  0  0  0  0  0  0  0  0  0
   22.7881   38.5520   23.3074 F   0  0  0  0  0  0  0  0  0  0  0  0
   27.1492   40.5053   22.6322 N   0  0  0  0  0  0  0  0  0  0  0  0
   26.9572   41.3298   21.4583 C   0  0  0  0  0  0  0  0  0  0  0  0
   26.4297   37.8572   21.5847 C   0  0  0  0  0  0  0  0  0  0  0  0
   24.3066   37.1558   18.8261 O   0  0  0  0  0  0  0  0  0  0  0  0
   26.0322   36.9713   20.4160 C   0  0  2  0  0  0  0  0  0  0  0  0
   27.1343   36.3848   19.6300 N   0  0  0  0  0  0  0  0  0  0  0  0
   28.2022   37.3252   19.2445 C   0  0  0  0  0  0  0  0  0  0  0  0
   27.6653   35.1432   20.2133 C   0  0  0  0  0  0  0  0  0  0  0  0
  1  5  1  0  0  0  0
  2 17  1  0  0  0  0
  3  1  1  0  0  0  0
  4  3  1  0  0  0  0
  4 26  1  1  0  0  0
  5 11  2  0  0  0  0
  5  6  1  0  0  0  0
  6  7  2  0  0  0  0
  7 21  1  0  0  0  0
  8 15  1  0  0  0  0
  8 16  2  0  0  0  0
  9 19  1  0  0  0  0
 10 18  1  0  0  0  0
 11 20  1  0  0  0  0
 13 14  1  0  0  0  0
 13 12  2  0  0  0  0
 15 13  1  1  0  0  0
 17 19  2  0  0  0  0
 17 15  1  0  0  0  0
 18  2  1  0  0  0  0
 18  9  2  0  0  0  0
 20 21  2  0  0  0  0
 20  2  1  0  0  0  0
 21  8  1  0  0  0  0
 22  6  1  0  0  0  0
 23 11  1  0  0  0  0
 23 10  1  0  0  0  0
 24 23  1  0  0  0  0
 25  1  1  0  0  0  0
 27  4  1  0  0  0  0
 27 25  1  0  0  0  0
 27 28  1  6  0  0  0
 29 28  1  0  0  0  0
 30 28  1  0  0  0  0
M  END
>  <CHROM.1>
78.24697469,179.83055815,-163.08010958,65.88941229,67.11639257,25.84951521
40.52037839,23.65190354,1.53509197,-0.27930595,-2.31548468

>  <Name>
lig.pdb

>  <RI>
0

>  <Rbt.Current_Directory>
/home/itssahil/PROJECTS/Mol_Feturizer/New_Systems/rnas/6bfb

>  <Rbt.Executable>
rbdock ($Id: //depot/dev/client3/rdock/2013.1/src/exe/rbdock.cxx#4 $)

>  <Rbt.Library>
libRbt.so (2013.1, Build901 2013/11/27)

>  <Rbt.Parameter_File>
/export/apps/rDock/src/rDock_2013.1_src/data/scripts/dock_solv.prm

>  <Rbt.Receptor>
prm/pocket_docking_3.prm

>  <SCORE>
-40.1233

>  <SCORE.INTER>
-35.7764

>  <SCORE.INTER.CONST>
1

>  <SCORE.INTER.POLAR>
-1.0488

>  <SCORE.INTER.ROT>
3

>  <SCORE.INTER.SOLV>
11.8478

>  <SCORE.INTER.VDW>
-29.9042

>  <SCORE.INTER.norm>
-1.19255

>  <SCORE.INTRA>
-4.34695

>  <SCORE.INTRA.DIHEDRAL>
-7.31279

>  <SCORE.INTRA.DIHEDRAL.0>
9.41909

>  <SCORE.INTRA.POLAR>
0

>  <SCORE.INTRA.POLAR.0>
0

>  <SCORE.INTRA.REPUL>
0

>  <SCORE.INTRA.REPUL.0>
0

>  <SCORE.INTRA.SOLV>
-0.0590521

>  <SCORE.INTRA.SOLV.lig_0>
-26.2491

>  <SCORE.INTRA.VDW>
-0.661028

>  <SCORE.INTRA.VDW.0>
2.57239

>  <SCORE.INTRA.norm>
-0.144898

>  <SCORE.RESTR>
0

>  <SCORE.RESTR.CAVITY>
0

>  <SCORE.RESTR.norm>
0

>  <SCORE.SYSTEM>
0

>  <SCORE.SYSTEM.CONST>
0

>  <SCORE.SYSTEM.DIHEDRAL>
0

>  <SCORE.SYSTEM.SOLV>
0

>  <SCORE.SYSTEM.norm>
0

>  <SCORE.heavy>
30

>  <SCORE.norm>
-1.33744

>  <RMSD>
1.866

$$$$
lig.pdb
 OpenBabel11021811523D
libRbt.so/2013.1/901 2013/11/27
 30 34  0  0  0  0  0  0  0  0999 V2000
   25.1818   38.5691   21.6329 N   0  0  0  0  0  0  0  0  0  0  0  0
   26.7740   42.0829   24.7354 N   0  0  0  0  0  0  0  0  0  0  0  0
   24.6035   38.9532   20.3415 C   0  0  0  0  0  0  0  0  0  0  0  0
   25.2209   37.9230   19.4078 C   0  0  2  0  0  0  0  0  0  0  0  0
   24.9839   39.4082   22.8094 C   0  0  0  0  0  0  0  0  0  0  0  0
   23.8318   39.3559   23.6203 C   0  0  0  0  0  0  0  0  0  0  0  0
   23.6298   40.1638   24.7114 C   0  0  0  0  0  0  0  0  0  0  0  0
   24.3514   42.0168   26.2212 C   0  0  0  0  0  0  0  0  0  0  0  0
   28.8631   42.9535   24.7196 C   0  0  0  0  0  0  0  0  0  0  0  0
   28.2777   40.9422   23.1921 C   0  0  0  0  0  0  0  0  0  0  0  0
   25.9795   40.3524   23.1883 C   0  0  0  0  0  0  0  0  0  0  0  0
   24.2489   44.7284   27.6208 O   0  0  0  0  0  0  0  0  0  0  0  0
   25.2314   43.9836   27.6084 C   0  0  0  0  0  0  0  0  0  0  0  0
   26.1686   44.0224   28.5476 O   0  0  0  0  0  0  0  0  0  0  0  0
   25.4273   43.0005   26.5099 C   0  0  1  0  0  0  0  0  0  0  0  0
   23.3295   41.9248   26.9098 O   0  0  0  0  0  0  0  0  0  0  0  0
   26.6244   43.0000   25.7730 C   0  0  0  0  0  0  0  0  0  0  0  0
   28.0539   42.0462   24.1644 C   0  0  0  0  0  0  0  0  0  0  0  0
   28.1005   43.8497   25.9672 S   0  0  0  0  0  0  0  0  0  0  0  0
   25.7823   41.1693   24.3247 C   0  0  0  0  0  0  0  0  0  0  0  0
   24.5972   41.1011   25.0733 C   0  0  0  0  0  0  0  0  0  0  0  0
   22.8772   38.4474   23.3357 F   0  0  0  0  0  0  0  0  0  0  0  0
   27.1301   40.5296   22.4041 N   0  0  0  0  0  0  0  0  0  0  0  0
   26.8458   41.3416   21.2402 C   0  0  0  0  0  0  0  0  0  0  0  0
   26.3918   37.7732   21.4606 C   0  0  0  0  0  0  0  0  0  0  0  0
   24.2208   37.1748   18.7150 O   0  0  0  0  0  0  0  0  0  0  0  0
   25.9515   36.9126   20.2884 C   0  0  2  0  0  0  0  0  0  0  0  0
   27.0243   36.2919   19.4880 N   0  0  0  0  0  0  0  0  0  0  0  0
   28.1030   37.2041   19.0665 C   0  0  0  0  0  0  0  0  0  0  0  0
   27.5417   35.0478   20.0781 C   0  0  0  0  0  0  0  0  0  0  0  0
  1  5  1  0  0  0  0
  2 17  1  0  0  0  0
  3  1  1  0  0  0  0
  4  3  1  0  0  0  0
  4 26  1  1  0  0  0
  5 11  2  0  0  0  0
  5  6  1  0  0  0  0
  6  7  2  0  0  0  0
  7 21  1  0  0  0  0
  8 15  1  0  0  0  0
  8 16  2  0  0  0  0
  9 19  1  0  0  0  0
 10 18  1  0  0  0  0
 11 20  1  0  0  0  0
 13 14  1  0  0  0  0
 13 12  2  0  0  0  0
 15 13  1  1  0  0  0
 17 19  2  0  0  0  0
 17 15  1  0  0  0  0
 18  2  1  0  0  0  0
 18  9  2  0  0  0  0
 20 21  2  0  0  0  0
 20  2  1  0  0  0  0
 21  8  1  0  0  0  0
 22  6  1  0  0  0  0
 23 11  1  0  0  0  0
 23 10  1  0  0  0  0
 24 23  1  0  0  0  0
 25  1  1  0  0  0  0
 27  4  1  0  0  0  0
 27 25  1  0  0  0  0
 27 28  1  6  0  0  0
 29 28  1  0  0  0  0
 30 28  1  0  0  0  0
M  END
>  <CHROM.1>
83.10731679,0.22240444,-55.65857426,61.60456590,65.35722445,25.90187076,40.50621907
23.50612131,1.56541328,-0.30741559,-2.31651786

>  <Name>
lig.pdb

>  <RI>
0

>  <Rbt.Current_Directory>
/home/itssahil/PROJECTS/Mol_Feturizer/New_Systems/rnas/6bfb

>  <Rbt.Executable>
rbdock ($Id: //depot/dev/client3/rdock/2013.1/src/exe/rbdock.cxx#4 $)

>  <Rbt.Library>
libRbt.so (2013.1, Build901 2013/11/27)

>  <Rbt.Parameter_File>
/export/apps/rDock/src/rDock_2013.1_src/data/scripts/dock_solv.prm

>  <Rbt.Receptor>
prm/pocket_docking_4.prm

>  <SCORE>
-42.483

>  <SCORE.INTER>
-36.0663

>  <SCORE.INTER.CONST>
1

>  <SCORE.INTER.POLAR>
-1.14831

>  <SCORE.INTER.ROT>
3

>  <SCORE.INTER.SOLV>
11.6032

>  <SCORE.INTER.VDW>
-29.6842

>  <SCORE.INTER.norm>
-1.20221

>  <SCORE.INTRA>
-6.41671

>  <SCORE.INTRA.DIHEDRAL>
-7.53601

>  <SCORE.INTRA.DIHEDRAL.0>
9.41909

>  <SCORE.INTRA.POLAR>
0

>  <SCORE.INTRA.POLAR.0>
0

>  <SCORE.INTRA.REPUL>
0

>  <SCORE.INTRA.REPUL.0>
0

>  <SCORE.INTRA.SOLV>
-0.156865

>  <SCORE.INTRA.SOLV.lig_0>
-26.2491

>  <SCORE.INTRA.VDW>
-2.57027

>  <SCORE.INTRA.VDW.0>
2.57239

>  <SCORE.INTRA.norm>
-0.21389

>  <SCORE.RESTR>
0

>  <SCORE.RESTR.CAVITY>
0

>  <SCORE.RESTR.norm>
0

>  <SCORE.SYSTEM>
0

>  <SCORE.SYSTEM.CONST>
0

>  <SCORE.SYSTEM.DIHEDRAL>
0

>  <SCORE.SYSTEM.SOLV>
0

>  <SCORE.SYSTEM.norm>
0

>  <SCORE.heavy>
30

>  <SCORE.norm>
-1.4161

>  <RMSD>
1.866

$$$$
lig.pdb
 OpenBabel11021811523D
libRbt.so/2013.1/901 2013/11/27
 30 34  0  0  0  0  0  0  0  0999 V2000
   25.6143   38.7111   21.6907 N   0  0  0  0  0  0  0  0  0  0  0  0
   26.6880   42.1823   25.0530 N   0  0  0  0  0  0  0  0  0  0  0  0
   25.0435   39.0312   20.3787 C   0  0  0  0  0  0  0  0  0  0  0  0
   25.8380   38.1118   19.4634 C   0  0  2  0  0  0  0  0  0  0  0  0
   25.2511   39.4958   22.8653 C   0  0  0  0  0  0  0  0  0  0  0  0
   24.0250   39.3576   23.5476 C   0  0  0  0  0  0  0  0  0  0  0  0
   23.6684   40.1141   24.6359 C   0  0  0  0  0  0  0  0  0  0  0  0
   24.1306   41.9435   26.2710 C   0  0  0  0  0  0  0  0  0  0  0  0
   28.7188   43.1538   25.2860 C   0  0  0  0  0  0  0  0  0  0  0  0
   28.4021   41.1737   23.6428 C   0  0  0  0  0  0  0  0  0  0  0  0
   26.1509   40.4729   23.3770 C   0  0  0  0  0  0  0  0  0  0  0  0
   23.6971   44.5284   27.7770 O   0  0  0  0  0  0  0  0  0  0  0  0
   24.7568   43.8987   27.8046 C   0  0  0  0  0  0  0  0  0  0  0  0
   25.6353   44.0222   28.7920 O   0  0  0  0  0  0  0  0  0  0  0  0
   25.1174   42.9673   26.7028 C   0  0  1  0  0  0  0  0  0  0  0  0
   23.0486   41.7765   26.8442 O   0  0  0  0  0  0  0  0  0  0  0  0
   26.3832   43.0523   26.0972 C   0  0  0  0  0  0  0  0  0  0  0  0
   28.0206   42.2291   24.6201 C   0  0  0  0  0  0  0  0  0  0  0  0
   27.7844   43.9654   26.4733 S   0  0  0  0  0  0  0  0  0  0  0  0
   25.7938   41.2370   24.5111 C   0  0  0  0  0  0  0  0  0  0  0  0
   24.5423   41.0836   25.1275 C   0  0  0  0  0  0  0  0  0  0  0  0
   23.1543   38.4146   23.1351 F   0  0  0  0  0  0  0  0  0  0  0  0
   27.3661   40.7347   22.7251 N   0  0  0  0  0  0  0  0  0  0  0  0
   27.1626   41.5740   21.5637 C   0  0  0  0  0  0  0  0  0  0  0  0
   26.9299   38.0941   21.5646 C   0  0  0  0  0  0  0  0  0  0  0  0
   24.9827   37.2428   18.7197 O   0  0  0  0  0  0  0  0  0  0  0  0
   26.6645   37.1992   20.3657 C   0  0  2  0  0  0  0  0  0  0  0  0
   27.8466   36.7466   19.6078 N   0  0  0  0  0  0  0  0  0  0  0  0
   27.5819   35.7206   18.5828 C   0  0  0  0  0  0  0  0  0  0  0  0
   28.6637   37.8557   19.0919 C   0  0  0  0  0  0  0  0  0  0  0  0
  1  5  1  0  0  0  0
  2 17  1  0  0  0  0
  3  1  1  0  0  0  0
  4  3  1  0  0  0  0
  4 26  1  1  0  0  0
  5 11  2  0  0  0  0
  5  6  1  0  0  0  0
  6  7  2  0  0  0  0
  7 21  1  0  0  0  0
  8 15  1  0  0  0  0
  8 16  2  0  0  0  0
  9 19  1  0  0  0  0
 10 18  1  0  0  0  0
 11 20  1  0  0  0  0
 13 14  1  0  0  0  0
 13 12  2  0  0  0  0
 15 13  1  1  0  0  0
 17 19  2  0  0  0  0
 17 15  1  0  0  0  0
 18  2  1  0  0  0  0
 18  9  2  0  0  0  0
 20 21  2  0  0  0  0
 20  2  1  0  0  0  0
 21  8  1  0  0  0  0
 22  6  1  0  0  0  0
 23 11  1  0  0  0  0
 23 10  1  0  0  0  0
 24 23  1  0  0  0  0
 25  1  1  0  0  0  0
 27  4  1  0  0  0  0
 27 25  1  0  0  0  0
 27 28  1  6  0  0  0
 29 28  1  0  0  0  0
 30 28  1  0  0  0  0
M  END
>  <CHROM.1>
76.77668868,1.97126137,-50.86887501,-58.74658467,-74.74405919,25.99836062
40.63090448,23.62087663,1.46401414,-0.31535887,-2.29220342

>  <Name>
lig.pdb

>  <RI>
0

>  <Rbt.Current_Directory>
/home/itssahil/PROJECTS/Mol_Feturizer/New_Systems/rnas/6bfb

>  <Rbt.Executable>
rbdock ($Id: //depot/dev/client3/rdock/2013.1/src/exe/rbdock.cxx#4 $)

>  <Rbt.Library>
libRbt.so (2013.1, Build901 2013/11/27)

>  <Rbt.Parameter_File>
/export/apps/rDock/src/rDock_2013.1_src/data/scripts/dock_solv.prm

>  <Rbt.Receptor>
prm/blind_docking_100.prm

>  <SCORE>
-34.3297

>  <SCORE.INTER>
-29.828

>  <SCORE.INTER.CONST>
1

>  <SCORE.INTER.POLAR>
0

>  <SCORE.INTER.ROT>
3

>  <SCORE.INTER.SOLV>
10.5208

>  <SCORE.INTER.VDW>
-28.9923

>  <SCORE.INTER.norm>
-0.994268

>  <SCORE.INTRA>
-4.50165

>  <SCORE.INTRA.DIHEDRAL>
-7.57746

>  <SCORE.INTRA.DIHEDRAL.0>
9.41909

>  <SCORE.INTRA.POLAR>
0

>  <SCORE.INTRA.POLAR.0>
0

>  <SCORE.INTRA.REPUL>
0

>  <SCORE.INTRA.REPUL.0>
0

>  <SCORE.INTRA.SOLV>
0.153392

>  <SCORE.INTRA.SOLV.lig_0>
-26.2491

>  <SCORE.INTRA.VDW>
-0.789617

>  <SCORE.INTRA.VDW.0>
2.57239

>  <SCORE.INTRA.norm>
-0.150055

>  <SCORE.RESTR>
0

>  <SCORE.RESTR.CAVITY>
0

>  <SCORE.RESTR.norm>
0

>  <SCORE.SYSTEM>
0

>  <SCORE.SYSTEM.CONST>
0

>  <SCORE.SYSTEM.DIHEDRAL>
0

>  <SCORE.SYSTEM.SOLV>
0

>  <SCORE.SYSTEM.norm>
0

>  <SCORE.heavy>
30

>  <SCORE.norm>
-1.14432

>  <RMSD>
1.868

$$$$
lig.pdb
 OpenBabel11021811523D
libRbt.so/2013.1/901 2013/11/27
 30 34  0  0  0  0  0  0  0  0999 V2000
   24.7807   38.1787   21.4136 N   0  0  0  0  0  0  0  0  0  0  0  0
   27.3870   41.6057   23.8570 N   0  0  0  0  0  0  0  0  0  0  0  0
   25.9052   37.3406   20.9864 C   0  0  0  0  0  0  0  0  0  0  0  0
   25.2435   36.4368   19.9571 C   0  0  2  0  0  0  0  0  0  0  0  0
   24.9299   39.0989   22.5354 C   0  0  0  0  0  0  0  0  0  0  0  0
   23.9690   39.2470   23.5564 C   0  0  0  0  0  0  0  0  0  0  0  0
   24.0932   40.1323   24.5979 C   0  0  0  0  0  0  0  0  0  0  0  0
   25.3273   41.9487   25.7859 C   0  0  0  0  0  0  0  0  0  0  0  0
   29.5197   42.1828   23.3660 C   0  0  0  0  0  0  0  0  0  0  0  0
   28.3950   40.1903   22.1468 C   0  0  0  0  0  0  0  0  0  0  0  0
   26.0894   39.9183   22.6370 C   0  0  0  0  0  0  0  0  0  0  0  0
   25.7309   44.5018   27.1983 O   0  0  0  0  0  0  0  0  0  0  0  0
   26.7042   43.8497   26.8142 C   0  0  0  0  0  0  0  0  0  0  0  0
   27.9308   44.0578   27.2770 O   0  0  0  0  0  0  0  0  0  0  0  0
   26.5513   42.7915   25.7805 C   0  0  1  0  0  0  0  0  0  0  0  0
   24.4631   42.0333   26.6651 O   0  0  0  0  0  0  0  0  0  0  0  0
   27.5645   42.5890   24.8274 C   0  0  0  0  0  0  0  0  0  0  0  0
   28.5099   41.3651   23.0529 C   0  0  0  0  0  0  0  0  0  0  0  0
   29.1418   43.2399   24.6625 S   0  0  0  0  0  0  0  0  0  0  0  0
   26.2285   40.8143   23.7211 C   0  0  0  0  0  0  0  0  0  0  0  0
   25.2210   40.9478   24.6889 C   0  0  0  0  0  0  0  0  0  0  0  0
   22.8729   38.4624   23.5362 F   0  0  0  0  0  0  0  0  0  0  0  0
   27.0696   39.8954   21.6325 N   0  0  0  0  0  0  0  0  0  0  0  0
   26.6562   40.6747   20.4850 C   0  0  0  0  0  0  0  0  0  0  0  0
   23.5002   37.5492   21.1108 C   0  0  0  0  0  0  0  0  0  0  0  0
   25.8848   36.5313   18.6844 O   0  0  0  0  0  0  0  0  0  0  0  0
   23.8302   36.9729   19.7442 C   0  0  2  0  0  0  0  0  0  0  0  0
   22.9798   35.8621   19.2756 N   0  0  0  0  0  0  0  0  0  0  0  0
   21.5666   35.9337   19.6893 C   0  0  0  0  0  0  0  0  0  0  0  0
   23.1292   35.5843   17.8388 C   0  0  0  0  0  0  0  0  0  0  0  0
  1  5  1  0  0  0  0
  2 17  1  0  0  0  0
  3  1  1  0  0  0  0
  4  3  1  0  0  0  0
  4 26  1  6  0  0  0
  5 11  2  0  0  0  0
  5  6  1  0  0  0  0
  6  7  2  0  0  0  0
  7 21  1  0  0  0  0
  8 15  1  0  0  0  0
  8 16  2  0  0  0  0
  9 19  1  0  0  0  0
 10 18  1  0  0  0  0
 11 20  1  0  0  0  0
 13 14  1  0  0  0  0
 13 12  2  0  0  0  0
 15 13  1  1  0  0  0
 17 19  2  0  0  0  0
 17 15  1  0  0  0  0
 18  2  1  0  0  0  0
 18  9  2  0  0  0  0
 20 21  2  0  0  0  0
 20  2  1  0  0  0  0
 21  8  1  0  0  0  0
 22  6  1  0  0  0  0
 23 11  1  0  0  0  0
 23 10  1  0  0  0  0
 24 23  1  0  0  0  0
 25  1  1  0  0  0  0
 27  4  1  0  0  0  0
 27 25  1  0  0  0  0
 27 28  1  1  0  0  0
 29 28  1  0  0  0  0
 30 28  1  0  0  0  0
M  END
>  <CHROM.1>
-135.65253558,-8.27833624,-36.98177319,162.83813951,148.42516523,25.79683844
40.08891937,22.95980932,1.97895867,-0.39285477,-2.23211648

>  <Name>
lig.pdb

>  <RI>
0

>  <Rbt.Current_Directory>
/home/itssahil/PROJECTS/Mol_Feturizer/New_Systems/rnas/6bfb

>  <Rbt.Executable>
rbdock ($Id: //depot/dev/client3/rdock/2013.1/src/exe/rbdock.cxx#4 $)

>  <Rbt.Library>
libRbt.so (2013.1, Build901 2013/11/27)

>  <Rbt.Parameter_File>
/export/apps/rDock/src/rDock_2013.1_src/data/scripts/dock_solv.prm

>  <Rbt.Receptor>
prm/pocket_docking_5.prm

>  <SCORE>
-38.1355

>  <SCORE.INTER>
-36.1289

>  <SCORE.INTER.CONST>
1

>  <SCORE.INTER.POLAR>
-0.236974

>  <SCORE.INTER.ROT>
3

>  <SCORE.INTER.SOLV>
14.0002

>  <SCORE.INTER.VDW>
-33.5628

>  <SCORE.INTER.norm>
-1.2043

>  <SCORE.INTRA>
-2.00658

>  <SCORE.INTRA.DIHEDRAL>
-4.98222

>  <SCORE.INTRA.DIHEDRAL.0>
9.41909

>  <SCORE.INTRA.POLAR>
0

>  <SCORE.INTRA.POLAR.0>
0

>  <SCORE.INTRA.REPUL>
0

>  <SCORE.INTRA.REPUL.0>
0

>  <SCORE.INTRA.SOLV>
-0.046904

>  <SCORE.INTRA.SOLV.lig_0>
-26.2491

>  <SCORE.INTRA.VDW>
0.50798

>  <SCORE.INTRA.VDW.0>
2.57239

>  <SCORE.INTRA.norm>
-0.0668861

>  <SCORE.RESTR>
0

>  <SCORE.RESTR.CAVITY>
0

>  <SCORE.RESTR.norm>
0

>  <SCORE.SYSTEM>
0

>  <SCORE.SYSTEM.CONST>
0

>  <SCORE.SYSTEM.DIHEDRAL>
0

>  <SCORE.SYSTEM.SOLV>
0

>  <SCORE.SYSTEM.norm>
0

>  <SCORE.heavy>
30

>  <SCORE.norm>
-1.27118

>  <RMSD>
1.868

$$$$
lig.pdb
 OpenBabel11021811523D
libRbt.so/2013.1/901 2013/11/27
 30 34  0  0  0  0  0  0  0  0999 V2000
   25.1537   38.5698   21.6365 N   0  0  0  0  0  0  0  0  0  0  0  0
   26.7630   42.0693   24.7463 N   0  0  0  0  0  0  0  0  0  0  0  0
   24.5644   38.9513   20.3494 C   0  0  0  0  0  0  0  0  0  0  0  0
   25.1804   37.9246   19.4109 C   0  0  2  0  0  0  0  0  0  0  0  0
   24.9598   39.4075   22.8147 C   0  0  0  0  0  0  0  0  0  0  0  0
   23.8073   39.3593   23.6253 C   0  0  0  0  0  0  0  0  0  0  0  0
   23.6093   40.1660   24.7180 C   0  0  0  0  0  0  0  0  0  0  0  0
   24.3400   42.0123   26.2317 C   0  0  0  0  0  0  0  0  0  0  0  0
   28.8565   42.9294   24.7325 C   0  0  0  0  0  0  0  0  0  0  0  0
   28.2612   40.9242   23.2009 C   0  0  0  0  0  0  0  0  0  0  0  0
   25.9601   40.3458   23.1956 C   0  0  0  0  0  0  0  0  0  0  0  0
   24.2478   44.7174   27.6398 O   0  0  0  0  0  0  0  0  0  0  0  0
   25.2296   43.9719   27.6229 C   0  0  0  0  0  0  0  0  0  0  0  0
   26.1702   44.0087   28.5588 O   0  0  0  0  0  0  0  0  0  0  0  0
   25.4207   42.9900   26.5225 C   0  0  1  0  0  0  0  0  0  0  0  0
   23.3175   41.9240   26.9199 O   0  0  0  0  0  0  0  0  0  0  0  0
   26.6179   42.9850   25.7858 C   0  0  0  0  0  0  0  0  0  0  0  0
   28.0428   42.0273   24.1754 C   0  0  0  0  0  0  0  0  0  0  0  0
   28.0982   43.8269   25.9819 S   0  0  0  0  0  0  0  0  0  0  0  0
   25.7669   41.1614   24.3336 C   0  0  0  0  0  0  0  0  0  0  0  0
   24.5813   41.0977   25.0820 C   0  0  0  0  0  0  0  0  0  0  0  0
   22.8483   38.4562   23.3388 F   0  0  0  0  0  0  0  0  0  0  0  0
   27.1117   40.5189   22.4119 N   0  0  0  0  0  0  0  0  0  0  0  0
   26.8317   41.3346   21.2496 C   0  0  0  0  0  0  0  0  0  0  0  0
   26.3665   37.7800   21.4554 C   0  0  0  0  0  0  0  0  0  0  0  0
   24.1792   37.1715   18.7250 O   0  0  0  0  0  0  0  0  0  0  0  0
   25.9224   36.9176   20.2860 C   0  0  2  0  0  0  0  0  0  0  0  0
   26.9926   36.3026   19.4778 N   0  0  0  0  0  0  0  0  0  0  0  0
   28.0769   37.2148   19.0709 C   0  0  0  0  0  0  0  0  0  0  0  0
   27.5023   35.0472   20.0504 C   0  0  0  0  0  0  0  0  0  0  0  0
  1  5  1  0  0  0  0
  2 17  1  0  0  0  0
  3  1  1  0  0  0  0
  4  3  1  0  0  0  0
  4 26  1  1  0  0  0
  5 11  2  0  0  0  0
  5  6  1  0  0  0  0
  6  7  2  0  0  0  0
  7 21  1  0  0  0  0
  8 15  1  0  0  0  0
  8 16  2  0  0  0  0
  9 19  1  0  0  0  0
 10 18  1  0  0  0  0
 11 20  1  0  0  0  0
 13 14  1  0  0  0  0
 13 12  2  0  0  0  0
 15 13  1  1  0  0  0
 17 19  2  0  0  0  0
 17 15  1  0  0  0  0
 18  2  1  0  0  0  0
 18  9  2  0  0  0  0
 20 21  2  0  0  0  0
 20  2  1  0  0  0  0
 21  8  1  0  0  0  0
 22  6  1  0  0  0  0
 23 11  1  0  0  0  0
 23 10  1  0  0  0  0
 24 23  1  0  0  0  0
 25  1  1  0  0  0  0
 27  4  1  0  0  0  0
 27 25  1  0  0  0  0
 27 28  1  6  0  0  0
 29 28  1  0  0  0  0
 30 28  1  0  0  0  0
M  END
>  <CHROM.1>
82.39196741,-179.29704586,-55.33488819,61.14668106,66.47833549,25.88551880
40.49737068,23.51083785,1.56983451,-0.30249283,-2.31256133

>  <Name>
lig.pdb

>  <RI>
0

>  <Rbt.Current_Directory>
/home/itssahil/PROJECTS/Mol_Feturizer/New_Systems/rnas/6bfb

>  <Rbt.Executable>
rbdock ($Id: //depot/dev/client3/rdock/2013.1/src/exe/rbdock.cxx#4 $)

>  <Rbt.Library>
libRbt.so (2013.1, Build901 2013/11/27)

>  <Rbt.Parameter_File>
/export/apps/rDock/src/rDock_2013.1_src/data/scripts/dock_solv.prm

>  <Rbt.Receptor>
prm/blind_docking_60.prm

>  <SCORE>
-42.6322

>  <SCORE.INTER>
-36.6324

>  <SCORE.INTER.CONST>
1

>  <SCORE.INTER.POLAR>
-1.19489

>  <SCORE.INTER.ROT>
3

>  <SCORE.INTER.SOLV>
11.6091

>  <SCORE.INTER.VDW>
-29.9083

>  <SCORE.INTER.norm>
-1.22108

>  <SCORE.INTRA>
-5.99982

>  <SCORE.INTRA.DIHEDRAL>
-7.50436

>  <SCORE.INTRA.DIHEDRAL.0>
9.41909

>  <SCORE.INTRA.POLAR>
0

>  <SCORE.INTRA.POLAR.0>
0

>  <SCORE.INTRA.REPUL>
0

>  <SCORE.INTRA.REPUL.0>
0

>  <SCORE.INTRA.SOLV>
-0.227978

>  <SCORE.INTRA.SOLV.lig_0>
-26.2491

>  <SCORE.INTRA.VDW>
-2.13365

>  <SCORE.INTRA.VDW.0>
2.57239

>  <SCORE.INTRA.norm>
-0.199994

>  <SCORE.RESTR>
0

>  <SCORE.RESTR.CAVITY>
0

>  <SCORE.RESTR.norm>
0

>  <SCORE.SYSTEM>
0

>  <SCORE.SYSTEM.CONST>
0

>  <SCORE.SYSTEM.DIHEDRAL>
0

>  <SCORE.SYSTEM.SOLV>
0

>  <SCORE.SYSTEM.norm>
0

>  <SCORE.heavy>
30

>  <SCORE.norm>
-1.42107

>  <RMSD>
1.869

$$$$
lig.pdb
 OpenBabel11021811523D
libRbt.so/2013.1/901 2013/11/27
 30 34  0  0  0  0  0  0  0  0999 V2000
   25.1762   38.5891   21.6369 N   0  0  0  0  0  0  0  0  0  0  0  0
   26.7755   42.1316   24.7028 N   0  0  0  0  0  0  0  0  0  0  0  0
   24.5752   38.9565   20.3511 C   0  0  0  0  0  0  0  0  0  0  0  0
   25.1924   37.9273   19.4161 C   0  0  2  0  0  0  0  0  0  0  0  0
   24.9842   39.4341   22.8101 C   0  0  0  0  0  0  0  0  0  0  0  0
   23.8400   39.3797   23.6322 C   0  0  0  0  0  0  0  0  0  0  0  0
   23.6433   40.1931   24.7201 C   0  0  0  0  0  0  0  0  0  0  0  0
   24.3675   42.0597   26.2118 C   0  0  0  0  0  0  0  0  0  0  0  0
   28.8590   43.0149   24.6621 C   0  0  0  0  0  0  0  0  0  0  0  0
   28.2718   40.9907   23.1524 C   0  0  0  0  0  0  0  0  0  0  0  0
   25.9774   40.3867   23.1739 C   0  0  0  0  0  0  0  0  0  0  0  0
   24.2756   44.7980   27.5812 O   0  0  0  0  0  0  0  0  0  0  0  0
   25.2482   44.0403   27.5787 C   0  0  0  0  0  0  0  0  0  0  0  0
   26.1783   44.0693   28.5253 O   0  0  0  0  0  0  0  0  0  0  0  0
   25.4400   43.0517   26.4844 C   0  0  1  0  0  0  0  0  0  0  0  0
   23.3527   41.9656   26.9105 O   0  0  0  0  0  0  0  0  0  0  0  0
   26.6301   43.0541   25.7363 C   0  0  0  0  0  0  0  0  0  0  0  0
   28.0503   42.0993   24.1201 C   0  0  0  0  0  0  0  0  0  0  0  0
   28.1026   43.9140   25.9114 S   0  0  0  0  0  0  0  0  0  0  0  0
   25.7858   41.2093   24.3071 C   0  0  0  0  0  0  0  0  0  0  0  0
   24.6082   41.1385   25.0673 C   0  0  0  0  0  0  0  0  0  0  0  0
   22.8885   38.4636   23.3621 F   0  0  0  0  0  0  0  0  0  0  0  0
   27.1195   40.5662   22.3778 N   0  0  0  0  0  0  0  0  0  0  0  0
   26.8192   41.3692   21.2117 C   0  0  0  0  0  0  0  0  0  0  0  0
   26.3937   37.8071   21.4533 C   0  0  0  0  0  0  0  0  0  0  0  0
   24.1923   37.1617   18.7428 O   0  0  0  0  0  0  0  0  0  0  0  0
   25.9480   36.9326   20.2935 C   0  0  2  0  0  0  0  0  0  0  0  0
   27.0172   36.3196   19.4825 N   0  0  0  0  0  0  0  0  0  0  0  0
   28.0534   37.2507   19.0002 C   0  0  0  0  0  0  0  0  0  0  0  0
   27.5912   35.1128   20.0974 C   0  0  0  0  0  0  0  0  0  0  0  0
  1  5  1  0  0  0  0
  2 17  1  0  0  0  0
  3  1  1  0  0  0  0
  4  3  1  0  0  0  0
  4 26  1  1  0  0  0
  5 11  2  0  0  0  0
  5  6  1  0  0  0  0
  6  7  2  0  0  0  0
  7 21  1  0  0  0  0
  8 15  1  0  0  0  0
  8 16  2  0  0  0  0
  9 19  1  0  0  0  0
 10 18  1  0  0  0  0
 11 20  1  0  0  0  0
 13 14  1  0  0  0  0
 13 12  2  0  0  0  0
 15 13  1  1  0  0  0
 17 19  2  0  0  0  0
 17 15  1  0  0  0  0
 18  2  1  0  0  0  0
 18  9  2  0  0  0  0
 20 21  2  0  0  0  0
 20  2  1  0  0  0  0
 21  8  1  0  0  0  0
 22  6  1  0  0  0  0
 23 11  1  0  0  0  0
 23 10  1  0  0  0  0
 24 23  1  0  0  0  0
 25  1  1  0  0  0  0
 27  4  1  0  0  0  0
 27 25  1  0  0  0  0
 27 28  1  6  0  0  0
 29 28  1  0  0  0  0
 30 28  1  0  0  0  0
M  END
>  <CHROM.1>
82.65269213,0.38980059,-57.16788452,60.56970162,63.31984783,25.90214432,40.54417043
23.49030336,1.56778239,-0.31868456,-2.32050723

>  <Name>
lig.pdb

>  <RI>
0

>  <Rbt.Current_Directory>
/home/itssahil/PROJECTS/Mol_Feturizer/New_Systems/rnas/6bfb

>  <Rbt.Executable>
rbdock ($Id: //depot/dev/client3/rdock/2013.1/src/exe/rbdock.cxx#4 $)

>  <Rbt.Library>
libRbt.so (2013.1, Build901 2013/11/27)

>  <Rbt.Parameter_File>
/export/apps/rDock/src/rDock_2013.1_src/data/scripts/dock_solv.prm

>  <Rbt.Receptor>
prm/pocket_docking_5.prm

>  <SCORE>
-42.4217

>  <SCORE.INTER>
-36.0128

>  <SCORE.INTER.CONST>
1

>  <SCORE.INTER.POLAR>
-1.18618

>  <SCORE.INTER.ROT>
3

>  <SCORE.INTER.SOLV>
11.534

>  <SCORE.INTER.VDW>
-29.4992

>  <SCORE.INTER.norm>
-1.20043

>  <SCORE.INTRA>
-6.40888

>  <SCORE.INTRA.DIHEDRAL>
-7.60738

>  <SCORE.INTRA.DIHEDRAL.0>
9.41909

>  <SCORE.INTRA.POLAR>
0

>  <SCORE.INTRA.POLAR.0>
0

>  <SCORE.INTRA.REPUL>
0

>  <SCORE.INTRA.REPUL.0>
0

>  <SCORE.INTRA.SOLV>
-0.156443

>  <SCORE.INTRA.SOLV.lig_0>
-26.2491

>  <SCORE.INTRA.VDW>
-2.52697

>  <SCORE.INTRA.VDW.0>
2.57239

>  <SCORE.INTRA.norm>
-0.213629

>  <SCORE.RESTR>
0

>  <SCORE.RESTR.CAVITY>
0

>  <SCORE.RESTR.norm>
0

>  <SCORE.SYSTEM>
0

>  <SCORE.SYSTEM.CONST>
0

>  <SCORE.SYSTEM.DIHEDRAL>
0

>  <SCORE.SYSTEM.SOLV>
0

>  <SCORE.SYSTEM.norm>
0

>  <SCORE.heavy>
30

>  <SCORE.norm>
-1.41406

>  <RMSD>
1.876

$$$$
lig.pdb
 OpenBabel11021811523D
libRbt.so/2013.1/901 2013/11/27
 30 34  0  0  0  0  0  0  0  0999 V2000
   25.8266   36.6532   20.1360 N   0  0  0  0  0  0  0  0  0  0  0  0
   26.3304   40.1225   23.6314 N   0  0  0  0  0  0  0  0  0  0  0  0
   26.4886   35.3935   20.4887 C   0  0  0  0  0  0  0  0  0  0  0  0
   26.7377   34.7811   19.1186 C   0  0  2  0  0  0  0  0  0  0  0  0
   25.2526   37.5016   21.1744 C   0  0  0  0  0  0  0  0  0  0  0  0
   23.8873   37.4889   21.5262 C   0  0  0  0  0  0  0  0  0  0  0  0
   23.3387   38.3060   22.4828 C   0  0  0  0  0  0  0  0  0  0  0  0
   23.5386   40.1390   24.1663 C   0  0  0  0  0  0  0  0  0  0  0  0
   28.3168   40.9250   24.3613 C   0  0  0  0  0  0  0  0  0  0  0  0
   28.2456   38.9294   22.7080 C   0  0  0  0  0  0  0  0  0  0  0  0
   26.0794   38.4141   21.8884 C   0  0  0  0  0  0  0  0  0  0  0  0
   23.2347   43.0205   25.4074 O   0  0  0  0  0  0  0  0  0  0  0  0
   23.9334   42.0802   25.7919 C   0  0  0  0  0  0  0  0  0  0  0  0
   24.2567   41.9058   27.0675 O   0  0  0  0  0  0  0  0  0  0  0  0
   24.4736   41.0882   24.8247 C   0  0  1  0  0  0  0  0  0  0  0  0
   22.3370   40.0820   24.4492 O   0  0  0  0  0  0  0  0  0  0  0  0
   25.8531   41.0469   24.5575 C   0  0  0  0  0  0  0  0  0  0  0  0
   27.7277   40.0428   23.5484 C   0  0  0  0  0  0  0  0  0  0  0  0
   27.1914   41.8490   25.2675 S   0  0  0  0  0  0  0  0  0  0  0  0
   25.5195   39.2402   22.8893 C   0  0  0  0  0  0  0  0  0  0  0  0
   24.1449   39.2126   23.1710 C   0  0  0  0  0  0  0  0  0  0  0  0
   23.0667   36.6109   20.9151 F   0  0  0  0  0  0  0  0  0  0  0  0
   27.4376   38.5518   21.5622 N   0  0  0  0  0  0  0  0  0  0  0  0
   27.6080   39.3692   20.3800 C   0  0  0  0  0  0  0  0  0  0  0  0
   25.2550   36.5989   18.7953 C   0  0  0  0  0  0  0  0  0  0  0  0
   28.1240   34.5095   18.9079 O   0  0  0  0  0  0  0  0  0  0  0  0
   26.3674   35.8439   18.0874 C   0  0  2  0  0  0  0  0  0  0  0  0
   26.0039   35.1622   16.8305 N   0  0  0  0  0  0  0  0  0  0  0  0
   24.6945   34.4848   16.8380 C   0  0  0  0  0  0  0  0  0  0  0  0
   26.1917   36.0044   15.6392 C   0  0  0  0  0  0  0  0  0  0  0  0
  1  5  1  0  0  0  0
  2 17  1  0  0  0  0
  3  1  1  0  0  0  0
  4  3  1  0  0  0  0
  4 26  1  1  0  0  0
  5 11  2  0  0  0  0
  5  6  1  0  0  0  0
  6  7  2  0  0  0  0
  7 21  1  0  0  0  0
  8 15  1  0  0  0  0
  8 16  2  0  0  0  0
  9 19  1  0  0  0  0
 10 18  1  0  0  0  0
 11 20  1  0  0  0  0
 13 14  1  0  0  0  0
 13 12  2  0  0  0  0
 15 13  1  1  0  0  0
 17 19  2  0  0  0  0
 17 15  1  0  0  0  0
 18  2  1  0  0  0  0
 18  9  2  0  0  0  0
 20 21  2  0  0  0  0
 20  2  1  0  0  0  0
 21  8  1  0  0  0  0
 22  6  1  0  0  0  0
 23 11  1  0  0  0  0
 23 10  1  0  0  0  0
 24 23  1  0  0  0  0
 25  1  1  0  0  0  0
 27  4  1  0  0  0  0
 27 25  1  0  0  0  0
 27 28  1  6  0  0  0
 29 28  1  0  0  0  0
 30 28  1  0  0  0  0
M  END
>  <CHROM.1>
-97.14170179,-178.80717482,-70.06163037,60.62579441,73.64850843,25.62591477
38.60000176,21.97855524,1.46516394,-0.08878757,-2.28182889

>  <Name>
lig.pdb

>  <RI>
0

>  <Rbt.Current_Directory>
/home/itssahil/PROJECTS/Mol_Feturizer/New_Systems/rnas/6bfb

>  <Rbt.Executable>
rbdock ($Id: //depot/dev/client3/rdock/2013.1/src/exe/rbdock.cxx#4 $)

>  <Rbt.Library>
libRbt.so (2013.1, Build901 2013/11/27)

>  <Rbt.Parameter_File>
/export/apps/rDock/src/rDock_2013.1_src/data/scripts/dock_solv.prm

>  <Rbt.Receptor>
prm/pocket_docking_5.prm

>  <SCORE>
-36.3798

>  <SCORE.INTER>
-30.5165

>  <SCORE.INTER.CONST>
1

>  <SCORE.INTER.POLAR>
-0.635763

>  <SCORE.INTER.ROT>
3

>  <SCORE.INTER.SOLV>
12.7853

>  <SCORE.INTER.VDW>
-28.0869

>  <SCORE.INTER.norm>
-1.01722

>  <SCORE.INTRA>
-5.86326

>  <SCORE.INTRA.DIHEDRAL>
-7.21831

>  <SCORE.INTRA.DIHEDRAL.0>
9.41909

>  <SCORE.INTRA.POLAR>
0

>  <SCORE.INTRA.POLAR.0>
0

>  <SCORE.INTRA.REPUL>
0.0820616

>  <SCORE.INTRA.REPUL.0>
0

>  <SCORE.INTRA.SOLV>
-0.406888

>  <SCORE.INTRA.SOLV.lig_0>
-26.2491

>  <SCORE.INTRA.VDW>
-2.46098

>  <SCORE.INTRA.VDW.0>
2.57239

>  <SCORE.INTRA.norm>
-0.195442

>  <SCORE.RESTR>
0

>  <SCORE.RESTR.CAVITY>
0

>  <SCORE.RESTR.norm>
0

>  <SCORE.SYSTEM>
0

>  <SCORE.SYSTEM.CONST>
0

>  <SCORE.SYSTEM.DIHEDRAL>
0

>  <SCORE.SYSTEM.SOLV>
0

>  <SCORE.SYSTEM.norm>
0

>  <SCORE.heavy>
30

>  <SCORE.norm>
-1.21266

>  <RMSD>
1.883

$$$$
lig.pdb
 OpenBabel11021811523D
libRbt.so/2013.1/901 2013/11/27
 30 34  0  0  0  0  0  0  0  0999 V2000
   25.1723   38.5764   21.6662 N   0  0  0  0  0  0  0  0  0  0  0  0
   26.7656   42.1376   24.7136 N   0  0  0  0  0  0  0  0  0  0  0  0
   24.5862   38.9487   20.3749 C   0  0  0  0  0  0  0  0  0  0  0  0
   25.1996   37.9113   19.4465 C   0  0  2  0  0  0  0  0  0  0  0  0
   24.9801   39.4253   22.8366 C   0  0  0  0  0  0  0  0  0  0  0  0
   23.8385   39.3694   23.6621 C   0  0  0  0  0  0  0  0  0  0  0  0
   23.6415   40.1862   24.7474 C   0  0  0  0  0  0  0  0  0  0  0  0
   24.3621   42.0617   26.2297 C   0  0  0  0  0  0  0  0  0  0  0  0
   28.8452   43.0294   24.6635 C   0  0  0  0  0  0  0  0  0  0  0  0
   28.2622   40.9968   23.1634 C   0  0  0  0  0  0  0  0  0  0  0  0
   25.9703   40.3834   23.1938 C   0  0  0  0  0  0  0  0  0  0  0  0
   24.2809   44.8278   27.5710 O   0  0  0  0  0  0  0  0  0  0  0  0
   25.2384   44.0514   27.5862 C   0  0  0  0  0  0  0  0  0  0  0  0
   26.1512   44.0622   28.5499 O   0  0  0  0  0  0  0  0  0  0  0  0
   25.4312   43.0592   26.4953 C   0  0  1  0  0  0  0  0  0  0  0  0
   23.3496   41.9662   26.9316 O   0  0  0  0  0  0  0  0  0  0  0  0
   26.6192   43.0636   25.7438 C   0  0  0  0  0  0  0  0  0  0  0  0
   28.0388   42.1082   24.1274 C   0  0  0  0  0  0  0  0  0  0  0  0
   28.0886   43.9303   25.9113 S   0  0  0  0  0  0  0  0  0  0  0  0
   25.7785   41.2097   24.3242 C   0  0  0  0  0  0  0  0  0  0  0  0
   24.6034   41.1370   25.0880 C   0  0  0  0  0  0  0  0  0  0  0  0
   22.8900   38.4483   23.3983 F   0  0  0  0  0  0  0  0  0  0  0  0
   27.1094   40.5645   22.3938 N   0  0  0  0  0  0  0  0  0  0  0  0
   26.8026   41.3616   21.2254 C   0  0  0  0  0  0  0  0  0  0  0  0
   26.3823   37.7804   21.4938 C   0  0  0  0  0  0  0  0  0  0  0  0
   24.1965   37.1560   18.7659 O   0  0  0  0  0  0  0  0  0  0  0  0
   25.9365   36.9093   20.3315 C   0  0  2  0  0  0  0  0  0  0  0  0
   27.0054   36.2831   19.5304 N   0  0  0  0  0  0  0  0  0  0  0  0
   28.0856   37.1910   19.1032 C   0  0  0  0  0  0  0  0  0  0  0  0
   27.5209   35.0395   20.1232 C   0  0  0  0  0  0  0  0  0  0  0  0
  1  5  1  0  0  0  0
  2 17  1  0  0  0  0
  3  1  1  0  0  0  0
  4  3  1  0  0  0  0
  4 26  1  1  0  0  0
  5 11  2  0  0  0  0
  5  6  1  0  0  0  0
  6  7  2  0  0  0  0
  7 21  1  0  0  0  0
  8 15  1  0  0  0  0
  8 16  2  0  0  0  0
  9 19  1  0  0  0  0
 10 18  1  0  0  0  0
 11 20  1  0  0  0  0
 13 14  1  0  0  0  0
 13 12  2  0  0  0  0
 15 13  1  1  0  0  0
 17 19  2  0  0  0  0
 17 15  1  0  0  0  0
 18  2  1  0  0  0  0
 18  9  2  0  0  0  0
 20 21  2  0  0  0  0
 20  2  1  0  0  0  0
 21  8  1  0  0  0  0
 22  6  1  0  0  0  0
 23 11  1  0  0  0  0
 23 10  1  0  0  0  0
 24 23  1  0  0  0  0
 25  1  1  0  0  0  0
 27  4  1  0  0  0  0
 27 25  1  0  0  0  0
 27 28  1  6  0  0  0
 29 28  1  0  0  0  0
 30 28  1  0  0  0  0
M  END
>  <CHROM.1>
83.75555341,-179.36272134,-59.00413423,61.92068974,65.77654611,25.89654384
40.53438530,23.51040535,1.56851370,-0.32291725,-2.32624539

>  <Name>
lig.pdb

>  <RI>
0

>  <Rbt.Current_Directory>
/home/itssahil/PROJECTS/Mol_Feturizer/New_Systems/rnas/6bfb

>  <Rbt.Executable>
rbdock ($Id: //depot/dev/client3/rdock/2013.1/src/exe/rbdock.cxx#4 $)

>  <Rbt.Library>
libRbt.so (2013.1, Build901 2013/11/27)

>  <Rbt.Parameter_File>
/export/apps/rDock/src/rDock_2013.1_src/data/scripts/dock_solv.prm

>  <Rbt.Receptor>
prm/pocket_docking_4.prm

>  <SCORE>
-42.7665

>  <SCORE.INTER>
-36.6533

>  <SCORE.INTER.CONST>
1

>  <SCORE.INTER.POLAR>
-1.16916

>  <SCORE.INTER.ROT>
3

>  <SCORE.INTER.SOLV>
11.5753

>  <SCORE.INTER.VDW>
-29.9967

>  <SCORE.INTER.norm>
-1.22178

>  <SCORE.INTRA>
-6.11325

>  <SCORE.INTRA.DIHEDRAL>
-7.51915

>  <SCORE.INTRA.DIHEDRAL.0>
9.41909

>  <SCORE.INTRA.POLAR>
0

>  <SCORE.INTRA.POLAR.0>
0

>  <SCORE.INTRA.REPUL>
0

>  <SCORE.INTRA.REPUL.0>
0

>  <SCORE.INTRA.SOLV>
-0.229097

>  <SCORE.INTRA.SOLV.lig_0>
-26.2491

>  <SCORE.INTRA.VDW>
-2.23912

>  <SCORE.INTRA.VDW.0>
2.57239

>  <SCORE.INTRA.norm>
-0.203775

>  <SCORE.RESTR>
0

>  <SCORE.RESTR.CAVITY>
0

>  <SCORE.RESTR.norm>
0

>  <SCORE.SYSTEM>
0

>  <SCORE.SYSTEM.CONST>
0

>  <SCORE.SYSTEM.DIHEDRAL>
0

>  <SCORE.SYSTEM.SOLV>
0

>  <SCORE.SYSTEM.norm>
0

>  <SCORE.heavy>
30

>  <SCORE.norm>
-1.42555

>  <RMSD>
1.885

$$$$
lig.pdb
 OpenBabel11021811523D
libRbt.so/2013.1/901 2013/11/27
 30 34  0  0  0  0  0  0  0  0999 V2000
   25.2310   38.6072   21.6584 N   0  0  0  0  0  0  0  0  0  0  0  0
   26.7865   42.0823   24.8224 N   0  0  0  0  0  0  0  0  0  0  0  0
   24.6238   38.9666   20.3732 C   0  0  0  0  0  0  0  0  0  0  0  0
   25.2696   37.9594   19.4338 C   0  0  2  0  0  0  0  0  0  0  0  0
   25.0144   39.4401   22.8360 C   0  0  0  0  0  0  0  0  0  0  0  0
   23.8432   39.3941   23.6196 C   0  0  0  0  0  0  0  0  0  0  0  0
   23.6242   40.1964   24.7115 C   0  0  0  0  0  0  0  0  0  0  0  0
   24.3294   42.0311   26.2511 C   0  0  0  0  0  0  0  0  0  0  0  0
   28.8842   42.9312   24.8615 C   0  0  0  0  0  0  0  0  0  0  0  0
   28.3139   40.9369   23.3062 C   0  0  0  0  0  0  0  0  0  0  0  0
   26.0105   40.3711   23.2448 C   0  0  0  0  0  0  0  0  0  0  0  0
   24.2333   44.7476   27.6573 O   0  0  0  0  0  0  0  0  0  0  0  0
   25.1970   43.9788   27.6726 C   0  0  0  0  0  0  0  0  0  0  0  0
   26.1003   43.9854   28.6452 O   0  0  0  0  0  0  0  0  0  0  0  0
   25.4084   43.0014   26.5719 C   0  0  1  0  0  0  0  0  0  0  0  0
   23.2908   41.9449   26.9151 O   0  0  0  0  0  0  0  0  0  0  0  0
   26.6222   42.9936   25.8630 C   0  0  0  0  0  0  0  0  0  0  0  0
   28.0789   42.0363   24.2811 C   0  0  0  0  0  0  0  0  0  0  0  0
   28.1020   43.8265   26.0976 S   0  0  0  0  0  0  0  0  0  0  0  0
   25.7953   41.1820   24.3822 C   0  0  0  0  0  0  0  0  0  0  0  0
   24.5925   41.1210   25.1026 C   0  0  0  0  0  0  0  0  0  0  0  0
   22.8863   38.4976   23.3063 F   0  0  0  0  0  0  0  0  0  0  0  0
   27.1809   40.5418   22.4889 N   0  0  0  0  0  0  0  0  0  0  0  0
   26.9321   41.3648   21.3246 C   0  0  0  0  0  0  0  0  0  0  0  0
   26.4687   37.8580   21.4733 C   0  0  0  0  0  0  0  0  0  0  0  0
   24.2912   37.1722   18.7534 O   0  0  0  0  0  0  0  0  0  0  0  0
   26.0485   36.9792   20.3072 C   0  0  2  0  0  0  0  0  0  0  0  0
   27.1352   36.3989   19.4954 N   0  0  0  0  0  0  0  0  0  0  0  0
   28.1761   37.3501   19.0652 C   0  0  0  0  0  0  0  0  0  0  0  0
   27.7029   35.1734   20.0783 C   0  0  0  0  0  0  0  0  0  0  0  0
  1  5  1  0  0  0  0
  2 17  1  0  0  0  0
  3  1  1  0  0  0  0
  4  3  1  0  0  0  0
  4 26  1  1  0  0  0
  5 11  2  0  0  0  0
  5  6  1  0  0  0  0
  6  7  2  0  0  0  0
  7 21  1  0  0  0  0
  8 15  1  0  0  0  0
  8 16  2  0  0  0  0
  9 19  1  0  0  0  0
 10 18  1  0  0  0  0
 11 20  1  0  0  0  0
 13 14  1  0  0  0  0
 13 12  2  0  0  0  0
 15 13  1  1  0  0  0
 17 19  2  0  0  0  0
 17 15  1  0  0  0  0
 18  2  1  0  0  0  0
 18  9  2  0  0  0  0
 20 21  2  0  0  0  0
 20  2  1  0  0  0  0
 21  8  1  0  0  0  0
 22  6  1  0  0  0  0
 23 11  1  0  0  0  0
 23 10  1  0  0  0  0
 24 23  1  0  0  0  0
 25  1  1  0  0  0  0
 27  4  1  0  0  0  0
 27 25  1  0  0  0  0
 27 28  1  6  0  0  0
 29 28  1  0  0  0  0
 30 28  1  0  0  0  0
M  END
>  <CHROM.1>
79.64454847,1.77024877,-56.77169951,64.45393972,65.59545496,25.92864950,40.53139111
23.55642463,1.55367898,-0.28464584,-2.30840872

>  <Name>
lig.pdb

>  <RI>
0

>  <Rbt.Current_Directory>
/home/itssahil/PROJECTS/Mol_Feturizer/New_Systems/rnas/6bfb

>  <Rbt.Executable>
rbdock ($Id: //depot/dev/client3/rdock/2013.1/src/exe/rbdock.cxx#4 $)

>  <Rbt.Library>
libRbt.so (2013.1, Build901 2013/11/27)

>  <Rbt.Parameter_File>
/export/apps/rDock/src/rDock_2013.1_src/data/scripts/dock_solv.prm

>  <Rbt.Receptor>
prm/pocket_docking_3.prm

>  <SCORE>
-42.4008

>  <SCORE.INTER>
-36.024

>  <SCORE.INTER.CONST>
1

>  <SCORE.INTER.POLAR>
-1.0649

>  <SCORE.INTER.ROT>
3

>  <SCORE.INTER.SOLV>
11.6354

>  <SCORE.INTER.VDW>
-29.9448

>  <SCORE.INTER.norm>
-1.2008

>  <SCORE.INTRA>
-6.37881

>  <SCORE.INTRA.DIHEDRAL>
-7.43296

>  <SCORE.INTRA.DIHEDRAL.0>
9.41909

>  <SCORE.INTRA.POLAR>
0

>  <SCORE.INTRA.POLAR.0>
0

>  <SCORE.INTRA.REPUL>
0

>  <SCORE.INTRA.REPUL.0>
0

>  <SCORE.INTRA.SOLV>
-0.15601

>  <SCORE.INTRA.SOLV.lig_0>
-26.2491

>  <SCORE.INTRA.VDW>
-2.58432

>  <SCORE.INTRA.VDW.0>
2.57239

>  <SCORE.INTRA.norm>
-0.212627

>  <SCORE.RESTR>
0.00199733

>  <SCORE.RESTR.CAVITY>
0.00199733

>  <SCORE.RESTR.norm>
6.65777e-05

>  <SCORE.SYSTEM>
0

>  <SCORE.SYSTEM.CONST>
0

>  <SCORE.SYSTEM.DIHEDRAL>
0

>  <SCORE.SYSTEM.SOLV>
0

>  <SCORE.SYSTEM.norm>
0

>  <SCORE.heavy>
30

>  <SCORE.norm>
-1.41336

>  <RMSD>
1.892

$$$$
lig.pdb
 OpenBabel11021811523D
libRbt.so/2013.1/901 2013/11/27
 30 34  0  0  0  0  0  0  0  0999 V2000
   25.2817   38.7112   21.7585 N   0  0  0  0  0  0  0  0  0  0  0  0
   26.7033   42.1539   25.0196 N   0  0  0  0  0  0  0  0  0  0  0  0
   24.7307   39.1068   20.4587 C   0  0  0  0  0  0  0  0  0  0  0  0
   25.4060   38.1161   19.5223 C   0  0  2  0  0  0  0  0  0  0  0  0
   25.0240   39.5178   22.9461 C   0  0  0  0  0  0  0  0  0  0  0  0
   23.8370   39.4362   23.7024 C   0  0  0  0  0  0  0  0  0  0  0  0
   23.5794   40.2138   24.8037 C   0  0  0  0  0  0  0  0  0  0  0  0
   24.2169   42.0317   26.3920 C   0  0  0  0  0  0  0  0  0  0  0  0
   28.7837   43.0394   25.1209 C   0  0  0  0  0  0  0  0  0  0  0  0
   28.2844   41.0647   23.5170 C   0  0  0  0  0  0  0  0  0  0  0  0
   25.9937   40.4588   23.3940 C   0  0  0  0  0  0  0  0  0  0  0  0
   25.8801   44.1850   28.7211 O   0  0  0  0  0  0  0  0  0  0  0  0
   25.0171   43.9678   27.8679 C   0  0  0  0  0  0  0  0  0  0  0  0
   23.8225   44.5459   27.8973 O   0  0  0  0  0  0  0  0  0  0  0  0
   25.2705   43.0151   26.7544 C   0  0  1  0  0  0  0  0  0  0  0  0
   23.1657   41.9145   27.0310 O   0  0  0  0  0  0  0  0  0  0  0  0
   26.4995   43.0424   26.0727 C   0  0  0  0  0  0  0  0  0  0  0  0
   28.0079   42.1412   24.5064 C   0  0  0  0  0  0  0  0  0  0  0  0
   27.9582   43.8972   26.3554 S   0  0  0  0  0  0  0  0  0  0  0  0
   25.7387   41.2443   24.5410 C   0  0  0  0  0  0  0  0  0  0  0  0
   24.5217   41.1482   25.2332 C   0  0  0  0  0  0  0  0  0  0  0  0
   22.9038   38.5287   23.3516 F   0  0  0  0  0  0  0  0  0  0  0  0
   27.1770   40.6646   22.6675 N   0  0  0  0  0  0  0  0  0  0  0  0
   26.9388   41.5047   21.5133 C   0  0  0  0  0  0  0  0  0  0  0  0
   26.5195   37.9550   21.6060 C   0  0  0  0  0  0  0  0  0  0  0  0
   24.4496   37.3546   18.7838 O   0  0  0  0  0  0  0  0  0  0  0  0
   26.1401   37.1082   20.4029 C   0  0  2  0  0  0  0  0  0  0  0  0
   27.2542   36.5371   19.6223 N   0  0  0  0  0  0  0  0  0  0  0  0
   28.3691   37.4617   19.3477 C   0  0  0  0  0  0  0  0  0  0  0  0
   27.7169   35.2392   20.1372 C   0  0  0  0  0  0  0  0  0  0  0  0
  1  5  1  0  0  0  0
  2 17  1  0  0  0  0
  3  1  1  0  0  0  0
  4  3  1  0  0  0  0
  4 26  1  1  0  0  0
  5 11  2  0  0  0  0
  5  6  1  0  0  0  0
  6  7  2  0  0  0  0
  7 21  1  0  0  0  0
  8 15  1  0  0  0  0
  8 16  2  0  0  0  0
  9 19  1  0  0  0  0
 10 18  1  0  0  0  0
 11 20  1  0  0  0  0
 13 14  1  0  0  0  0
 13 12  2  0  0  0  0
 15 13  1  1  0  0  0
 17 19  2  0  0  0  0
 17 15  1  0  0  0  0
 18  2  1  0  0  0  0
 18  9  2  0  0  0  0
 20 21  2  0  0  0  0
 20  2  1  0  0  0  0
 21  8  1  0  0  0  0
 22  6  1  0  0  0  0
 23 11  1  0  0  0  0
 23 10  1  0  0  0  0
 24 23  1  0  0  0  0
 25  1  1  0  0  0  0
 27  4  1  0  0  0  0
 27 25  1  0  0  0  0
 27 28  1  6  0  0  0
 29 28  1  0  0  0  0
 30 28  1  0  0  0  0
M  END
>  <CHROM.1>
81.56054289,0.61644067,135.22464765,177.36689125,70.14317288,25.88969410
40.60418791,23.70512830,1.51714690,-0.28227396,-2.30710768

>  <Name>
lig.pdb

>  <RI>
0

>  <Rbt.Current_Directory>
/home/itssahil/PROJECTS/Mol_Feturizer/New_Systems/rnas/6bfb

>  <Rbt.Executable>
rbdock ($Id: //depot/dev/client3/rdock/2013.1/src/exe/rbdock.cxx#4 $)

>  <Rbt.Library>
libRbt.so (2013.1, Build901 2013/11/27)

>  <Rbt.Parameter_File>
/export/apps/rDock/src/rDock_2013.1_src/data/scripts/dock_solv.prm

>  <Rbt.Receptor>
prm/blind_docking_60.prm

>  <SCORE>
-37.1986

>  <SCORE.INTER>
-30.9349

>  <SCORE.INTER.CONST>
1

>  <SCORE.INTER.POLAR>
0

>  <SCORE.INTER.ROT>
3

>  <SCORE.INTER.SOLV>
11.7431

>  <SCORE.INTER.VDW>
-30.1376

>  <SCORE.INTER.norm>
-1.03116

>  <SCORE.INTRA>
-6.26367

>  <SCORE.INTRA.DIHEDRAL>
-7.34633

>  <SCORE.INTRA.DIHEDRAL.0>
9.41909

>  <SCORE.INTRA.POLAR>
0

>  <SCORE.INTRA.POLAR.0>
0

>  <SCORE.INTRA.REPUL>
0

>  <SCORE.INTRA.REPUL.0>
0

>  <SCORE.INTRA.SOLV>
-0.0650013

>  <SCORE.INTRA.SOLV.lig_0>
-26.2491

>  <SCORE.INTRA.VDW>
-2.558

>  <SCORE.INTRA.VDW.0>
2.57239

>  <SCORE.INTRA.norm>
-0.208789

>  <SCORE.RESTR>
0

>  <SCORE.RESTR.CAVITY>
0

>  <SCORE.RESTR.norm>
0

>  <SCORE.SYSTEM>
0

>  <SCORE.SYSTEM.CONST>
0

>  <SCORE.SYSTEM.DIHEDRAL>
0

>  <SCORE.SYSTEM.SOLV>
0

>  <SCORE.SYSTEM.norm>
0

>  <SCORE.heavy>
30

>  <SCORE.norm>
-1.23995

>  <RMSD>
1.893

$$$$
lig.pdb
 OpenBabel11021811523D
libRbt.so/2013.1/901 2013/11/27
 30 34  0  0  0  0  0  0  0  0999 V2000
   25.2430   38.7420   21.7094 N   0  0  0  0  0  0  0  0  0  0  0  0
   26.7078   42.1506   24.9870 N   0  0  0  0  0  0  0  0  0  0  0  0
   24.5106   39.0427   20.4754 C   0  0  0  0  0  0  0  0  0  0  0  0
   25.2083   38.1356   19.4730 C   0  0  2  0  0  0  0  0  0  0  0  0
   25.0078   39.5251   22.9172 C   0  0  0  0  0  0  0  0  0  0  0  0
   23.8438   39.4138   23.7050 C   0  0  0  0  0  0  0  0  0  0  0  0
   23.6066   40.1693   24.8260 C   0  0  0  0  0  0  0  0  0  0  0  0
   24.2631   41.9699   26.4263 C   0  0  0  0  0  0  0  0  0  0  0  0
   28.7777   43.0644   25.0449 C   0  0  0  0  0  0  0  0  0  0  0  0
   28.2610   41.1093   23.4225 C   0  0  0  0  0  0  0  0  0  0  0  0
   25.9764   40.4724   23.3535 C   0  0  0  0  0  0  0  0  0  0  0  0
   25.9573   44.0995   28.7504 O   0  0  0  0  0  0  0  0  0  0  0  0
   25.0775   43.8927   27.9117 C   0  0  0  0  0  0  0  0  0  0  0  0
   23.8806   44.4628   27.9771 O   0  0  0  0  0  0  0  0  0  0  0  0
   25.3127   42.9623   26.7756 C   0  0  1  0  0  0  0  0  0  0  0  0
   23.2322   41.8269   27.0924 O   0  0  0  0  0  0  0  0  0  0  0  0
   26.5215   43.0186   26.0603 C   0  0  0  0  0  0  0  0  0  0  0  0
   27.9975   42.1653   24.4373 C   0  0  0  0  0  0  0  0  0  0  0  0
   27.9755   43.8897   26.3164 S   0  0  0  0  0  0  0  0  0  0  0  0
   25.7430   41.2351   24.5203 C   0  0  0  0  0  0  0  0  0  0  0  0
   24.5475   41.1100   25.2446 C   0  0  0  0  0  0  0  0  0  0  0  0
   22.9139   38.4987   23.3651 F   0  0  0  0  0  0  0  0  0  0  0  0
   27.1357   40.7074   22.5978 N   0  0  0  0  0  0  0  0  0  0  0  0
   26.8532   41.5628   21.4650 C   0  0  0  0  0  0  0  0  0  0  0  0
   26.5469   38.1527   21.4264 C   0  0  0  0  0  0  0  0  0  0  0  0
   24.2885   37.2443   18.8410 O   0  0  0  0  0  0  0  0  0  0  0  0
   26.1580   37.2458   20.2710 C   0  0  2  0  0  0  0  0  0  0  0  0
   27.2491   36.8146   19.3765 N   0  0  0  0  0  0  0  0  0  0  0  0
   28.0679   37.9032   18.8127 C   0  0  0  0  0  0  0  0  0  0  0  0
   28.0693   35.7328   19.9429 C   0  0  0  0  0  0  0  0  0  0  0  0
  1  5  1  0  0  0  0
  2 17  1  0  0  0  0
  3  1  1  0  0  0  0
  4  3  1  0  0  0  0
  4 26  1  1  0  0  0
  5 11  2  0  0  0  0
  5  6  1  0  0  0  0
  6  7  2  0  0  0  0
  7 21  1  0  0  0  0
  8 15  1  0  0  0  0
  8 16  2  0  0  0  0
  9 19  1  0  0  0  0
 10 18  1  0  0  0  0
 11 20  1  0  0  0  0
 13 14  1  0  0  0  0
 13 12  2  0  0  0  0
 15 13  1  1  0  0  0
 17 19  2  0  0  0  0
 17 15  1  0  0  0  0
 18  2  1  0  0  0  0
 18  9  2  0  0  0  0
 20 21  2  0  0  0  0
 20  2  1  0  0  0  0
 21  8  1  0  0  0  0
 22  6  1  0  0  0  0
 23 11  1  0  0  0  0
 23 10  1  0  0  0  0
 24 23  1  0  0  0  0
 25  1  1  0  0  0  0
 27  4  1  0  0  0  0
 27 25  1  0  0  0  0
 27 28  1  6  0  0  0
 29 28  1  0  0  0  0
 30 28  1  0  0  0  0
M  END
>  <CHROM.1>
73.31994046,0.34582993,134.59784106,60.89927782,60.82319465,25.87903383,40.63985148
23.65516185,1.52787082,-0.31454317,-2.27300367

>  <Name>
lig.pdb

>  <RI>
0

>  <Rbt.Current_Directory>
/home/itssahil/PROJECTS/Mol_Feturizer/New_Systems/rnas/6bfb

>  <Rbt.Executable>
rbdock ($Id: //depot/dev/client3/rdock/2013.1/src/exe/rbdock.cxx#4 $)

>  <Rbt.Library>
libRbt.so (2013.1, Build901 2013/11/27)

>  <Rbt.Parameter_File>
/export/apps/rDock/src/rDock_2013.1_src/data/scripts/dock_solv.prm

>  <Rbt.Receptor>
prm/pocket_docking_2.prm

>  <SCORE>
-40.5265

>  <SCORE.INTER>
-34.8172

>  <SCORE.INTER.CONST>
1

>  <SCORE.INTER.POLAR>
-1.16334

>  <SCORE.INTER.ROT>
3

>  <SCORE.INTER.SOLV>
11.8637

>  <SCORE.INTER.VDW>
-28.8882

>  <SCORE.INTER.norm>
-1.16057

>  <SCORE.INTRA>
-5.88196

>  <SCORE.INTRA.DIHEDRAL>
-7.67189

>  <SCORE.INTRA.DIHEDRAL.0>
9.41909

>  <SCORE.INTRA.POLAR>
0

>  <SCORE.INTRA.POLAR.0>
0

>  <SCORE.INTRA.REPUL>
0

>  <SCORE.INTRA.REPUL.0>
0

>  <SCORE.INTRA.SOLV>
-0.118026

>  <SCORE.INTRA.SOLV.lig_0>
-26.2491

>  <SCORE.INTRA.VDW>
-1.987

>  <SCORE.INTRA.VDW.0>
2.57239

>  <SCORE.INTRA.norm>
-0.196065

>  <SCORE.RESTR>
0.172693

>  <SCORE.RESTR.CAVITY>
0.172693

>  <SCORE.RESTR.norm>
0.00575643

>  <SCORE.SYSTEM>
0

>  <SCORE.SYSTEM.CONST>
0

>  <SCORE.SYSTEM.DIHEDRAL>
0

>  <SCORE.SYSTEM.SOLV>
0

>  <SCORE.SYSTEM.norm>
0

>  <SCORE.heavy>
30

>  <SCORE.norm>
-1.35088

>  <RMSD>
1.894

$$$$
lig.pdb
 OpenBabel11021811523D
libRbt.so/2013.1/901 2013/11/27
 30 34  0  0  0  0  0  0  0  0999 V2000
   25.2811   38.7179   21.7563 N   0  0  0  0  0  0  0  0  0  0  0  0
   26.7023   42.1533   25.0252 N   0  0  0  0  0  0  0  0  0  0  0  0
   24.7307   39.1158   20.4570 C   0  0  0  0  0  0  0  0  0  0  0  0
   25.4064   38.1267   19.5192 C   0  0  2  0  0  0  0  0  0  0  0  0
   25.0230   39.5225   22.9452 C   0  0  0  0  0  0  0  0  0  0  0  0
   23.8352   39.4402   23.7003 C   0  0  0  0  0  0  0  0  0  0  0  0
   23.5772   40.2160   24.8029 C   0  0  0  0  0  0  0  0  0  0  0  0
   24.2146   42.0304   26.3952 C   0  0  0  0  0  0  0  0  0  0  0  0
   28.7833   43.0371   25.1300 C   0  0  0  0  0  0  0  0  0  0  0  0
   28.2840   41.0658   23.5220 C   0  0  0  0  0  0  0  0  0  0  0  0
   25.9929   40.4618   23.3957 C   0  0  0  0  0  0  0  0  0  0  0  0
   25.8667   44.1568   28.7455 O   0  0  0  0  0  0  0  0  0  0  0  0
   25.0149   43.9631   27.8754 C   0  0  0  0  0  0  0  0  0  0  0  0
   23.8324   44.5659   27.8871 O   0  0  0  0  0  0  0  0  0  0  0  0
   25.2686   43.0124   26.7604 C   0  0  1  0  0  0  0  0  0  0  0  0
   23.1628   41.9127   27.0330 O   0  0  0  0  0  0  0  0  0  0  0  0
   26.4983   43.0400   26.0798 C   0  0  0  0  0  0  0  0  0  0  0  0
   28.0074   42.1406   24.5132 C   0  0  0  0  0  0  0  0  0  0  0  0
   27.9574   43.8932   26.3654 S   0  0  0  0  0  0  0  0  0  0  0  0
   25.7375   41.2453   24.5440 C   0  0  0  0  0  0  0  0  0  0  0  0
   24.5198   41.1488   25.2349 C   0  0  0  0  0  0  0  0  0  0  0  0
   22.9016   38.5341   23.3469 F   0  0  0  0  0  0  0  0  0  0  0  0
   27.1770   40.6682   22.6707 N   0  0  0  0  0  0  0  0  0  0  0  0
   26.9405   41.5106   21.5179 C   0  0  0  0  0  0  0  0  0  0  0  0
   26.5190   37.9618   21.6031 C   0  0  0  0  0  0  0  0  0  0  0  0
   24.4503   37.3665   18.7789 O   0  0  0  0  0  0  0  0  0  0  0  0
   26.1400   37.1171   20.3983 C   0  0  2  0  0  0  0  0  0  0  0  0
   27.2544   36.5473   19.6172 N   0  0  0  0  0  0  0  0  0  0  0  0
   28.3718   37.4708   19.3491 C   0  0  0  0  0  0  0  0  0  0  0  0
   27.7134   35.2460   20.1269 C   0  0  0  0  0  0  0  0  0  0  0  0
  1  5  1  0  0  0  0
  2 17  1  0  0  0  0
  3  1  1  0  0  0  0
  4  3  1  0  0  0  0
  4 26  1  1  0  0  0
  5 11  2  0  0  0  0
  5  6  1  0  0  0  0
  6  7  2  0  0  0  0
  7 21  1  0  0  0  0
  8 15  1  0  0  0  0
  8 16  2  0  0  0  0
  9 19  1  0  0  0  0
 10 18  1  0  0  0  0
 11 20  1  0  0  0  0
 13 14  1  0  0  0  0
 13 12  2  0  0  0  0
 15 13  1  1  0  0  0
 17 19  2  0  0  0  0
 17 15  1  0  0  0  0
 18  2  1  0  0  0  0
 18  9  2  0  0  0  0
 20 21  2  0  0  0  0
 20  2  1  0  0  0  0
 21  8  1  0  0  0  0
 22  6  1  0  0  0  0
 23 11  1  0  0  0  0
 23 10  1  0  0  0  0
 24 23  1  0  0  0  0
 25  1  1  0  0  0  0
 27  4  1  0  0  0  0
 27 25  1  0  0  0  0
 27 28  1  6  0  0  0
 29 28  1  0  0  0  0
 30 28  1  0  0  0  0
M  END
>  <CHROM.1>
81.51415889,-0.75770015,133.68241634,176.66389014,70.36562840,25.88880102
40.60682385,23.70694515,1.51699492,-0.28081154,-2.30529141

>  <Name>
lig.pdb

>  <RI>
0

>  <Rbt.Current_Directory>
/home/itssahil/PROJECTS/Mol_Feturizer/New_Systems/rnas/6bfb

>  <Rbt.Executable>
rbdock ($Id: //depot/dev/client3/rdock/2013.1/src/exe/rbdock.cxx#4 $)

>  <Rbt.Library>
libRbt.so (2013.1, Build901 2013/11/27)

>  <Rbt.Parameter_File>
/export/apps/rDock/src/rDock_2013.1_src/data/scripts/dock_solv.prm

>  <Rbt.Receptor>
prm/pocket_docking_8.prm

>  <SCORE>
-37.1176

>  <SCORE.INTER>
-30.8322

>  <SCORE.INTER.CONST>
1

>  <SCORE.INTER.POLAR>
0

>  <SCORE.INTER.ROT>
3

>  <SCORE.INTER.SOLV>
11.7683

>  <SCORE.INTER.VDW>
-30.0776

>  <SCORE.INTER.norm>
-1.02774

>  <SCORE.INTRA>
-6.28538

>  <SCORE.INTRA.DIHEDRAL>
-7.30618

>  <SCORE.INTRA.DIHEDRAL.0>
9.41909

>  <SCORE.INTRA.POLAR>
0

>  <SCORE.INTRA.POLAR.0>
0

>  <SCORE.INTRA.REPUL>
0

>  <SCORE.INTRA.REPUL.0>
0

>  <SCORE.INTRA.SOLV>
-0.0679403

>  <SCORE.INTRA.SOLV.lig_0>
-26.2491

>  <SCORE.INTRA.VDW>
-2.59832

>  <SCORE.INTRA.VDW.0>
2.57239

>  <SCORE.INTRA.norm>
-0.209513

>  <SCORE.RESTR>
0

>  <SCORE.RESTR.CAVITY>
0

>  <SCORE.RESTR.norm>
0

>  <SCORE.SYSTEM>
0

>  <SCORE.SYSTEM.CONST>
0

>  <SCORE.SYSTEM.DIHEDRAL>
0

>  <SCORE.SYSTEM.SOLV>
0

>  <SCORE.SYSTEM.norm>
0

>  <SCORE.heavy>
30

>  <SCORE.norm>
-1.23725

>  <RMSD>
1.894

$$$$
lig.pdb
 OpenBabel11021811523D
libRbt.so/2013.1/901 2013/11/27
 30 34  0  0  0  0  0  0  0  0999 V2000
   27.0190   39.6925   20.9522 N   0  0  0  0  0  0  0  0  0  0  0  0
   26.7688   42.5083   25.0162 N   0  0  0  0  0  0  0  0  0  0  0  0
   27.8927   38.5264   21.1144 C   0  0  0  0  0  0  0  0  0  0  0  0
   28.2877   38.2335   19.6748 C   0  0  2  0  0  0  0  0  0  0  0  0
   26.2701   40.2178   22.0883 C   0  0  0  0  0  0  0  0  0  0  0  0
   24.9262   39.8870   22.3572 C   0  0  0  0  0  0  0  0  0  0  0  0
   24.2100   40.4015   23.4090 C   0  0  0  0  0  0  0  0  0  0  0  0
   24.0161   41.9062   25.3920 C   0  0  0  0  0  0  0  0  0  0  0  0
   28.5466   43.5232   25.9816 C   0  0  0  0  0  0  0  0  0  0  0  0
   28.8975   41.8801   24.0072 C   0  0  0  0  0  0  0  0  0  0  0  0
   26.8896   41.1251   22.9934 C   0  0  0  0  0  0  0  0  0  0  0  0
   23.4250   42.9115   28.2266 O   0  0  0  0  0  0  0  0  0  0  0  0
   23.9937   43.5623   27.3474 C   0  0  0  0  0  0  0  0  0  0  0  0
   23.9663   44.8889   27.3104 O   0  0  0  0  0  0  0  0  0  0  0  0
   24.7357   42.8792   26.2545 C   0  0  1  0  0  0  0  0  0  0  0  0
   22.8428   41.5757   25.5944 O   0  0  0  0  0  0  0  0  0  0  0  0
   26.1023   43.1452   26.0604 C   0  0  0  0  0  0  0  0  0  0  0  0
   28.1564   42.7074   24.9976 C   0  0  0  0  0  0  0  0  0  0  0  0
   27.2450   44.0422   26.9705 S   0  0  0  0  0  0  0  0  0  0  0  0
   26.1596   41.6382   24.0896 C   0  0  0  0  0  0  0  0  0  0  0  0
   24.8109   41.3039   24.2865 C   0  0  0  0  0  0  0  0  0  0  0  0
   24.3041   38.9957   21.5597 F   0  0  0  0  0  0  0  0  0  0  0  0
   28.2019   41.5706   22.7709 N   0  0  0  0  0  0  0  0  0  0  0  0
   28.2352   42.6046   21.7587 C   0  0  0  0  0  0  0  0  0  0  0  0
   26.5038   39.7886   19.5911 C   0  0  0  0  0  0  0  0  0  0  0  0
   29.7055   38.2553   19.5035 O   0  0  0  0  0  0  0  0  0  0  0  0
   27.7554   39.3872   18.8288 C   0  0  2  0  0  0  0  0  0  0  0  0
   27.5583   38.8980   17.4509 N   0  0  0  0  0  0  0  0  0  0  0  0
   26.6848   37.7176   17.3212 C   0  0  0  0  0  0  0  0  0  0  0  0
   27.2026   39.9648   16.5026 C   0  0  0  0  0  0  0  0  0  0  0  0
  1  5  1  0  0  0  0
  2 17  1  0  0  0  0
  3  1  1  0  0  0  0
  4  3  1  0  0  0  0
  4 26  1  1  0  0  0
  5 11  2  0  0  0  0
  5  6  1  0  0  0  0
  6  7  2  0  0  0  0
  7 21  1  0  0  0  0
  8 15  1  0  0  0  0
  8 16  2  0  0  0  0
  9 19  1  0  0  0  0
 10 18  1  0  0  0  0
 11 20  1  0  0  0  0
 13 14  1  0  0  0  0
 13 12  2  0  0  0  0
 15 13  1  1  0  0  0
 17 19  2  0  0  0  0
 17 15  1  0  0  0  0
 18  2  1  0  0  0  0
 18  9  2  0  0  0  0
 20 21  2  0  0  0  0
 20  2  1  0  0  0  0
 21  8  1  0  0  0  0
 22  6  1  0  0  0  0
 23 11  1  0  0  0  0
 23 10  1  0  0  0  0
 24 23  1  0  0  0  0
 25  1  1  0  0  0  0
 27  4  1  0  0  0  0
 27 25  1  0  0  0  0
 27 28  1  6  0  0  0
 29 28  1  0  0  0  0
 30 28  1  0  0  0  0
M  END
>  <CHROM.1>
-96.41027546,-175.51487865,57.49472589,73.63765251,55.72685577,26.39921815
41.20751167,23.08229105,1.31789103,-0.24039474,-2.14364624

>  <Name>
lig.pdb

>  <RI>
0

>  <Rbt.Current_Directory>
/home/itssahil/PROJECTS/Mol_Feturizer/New_Systems/rnas/6bfb

>  <Rbt.Executable>
rbdock ($Id: //depot/dev/client3/rdock/2013.1/src/exe/rbdock.cxx#4 $)

>  <Rbt.Library>
libRbt.so (2013.1, Build901 2013/11/27)

>  <Rbt.Parameter_File>
/export/apps/rDock/src/rDock_2013.1_src/data/scripts/dock_solv.prm

>  <Rbt.Receptor>
prm/pocket_docking_8.prm

>  <SCORE>
-37.9201

>  <SCORE.INTER>
-32.6261

>  <SCORE.INTER.CONST>
1

>  <SCORE.INTER.POLAR>
-1.79832

>  <SCORE.INTER.ROT>
3

>  <SCORE.INTER.SOLV>
10.7808

>  <SCORE.INTER.VDW>
-24.9499

>  <SCORE.INTER.norm>
-1.08754

>  <SCORE.INTRA>
-5.29397

>  <SCORE.INTRA.DIHEDRAL>
-6.75837

>  <SCORE.INTRA.DIHEDRAL.0>
9.41909

>  <SCORE.INTRA.POLAR>
0

>  <SCORE.INTRA.POLAR.0>
0

>  <SCORE.INTRA.REPUL>
0.0833978

>  <SCORE.INTRA.REPUL.0>
0

>  <SCORE.INTRA.SOLV>
-0.369921

>  <SCORE.INTRA.SOLV.lig_0>
-26.2491

>  <SCORE.INTRA.VDW>
-2.14682

>  <SCORE.INTRA.VDW.0>
2.57239

>  <SCORE.INTRA.norm>
-0.176466

>  <SCORE.RESTR>
0

>  <SCORE.RESTR.CAVITY>
0

>  <SCORE.RESTR.norm>
0

>  <SCORE.SYSTEM>
0

>  <SCORE.SYSTEM.CONST>
0

>  <SCORE.SYSTEM.DIHEDRAL>
0

>  <SCORE.SYSTEM.SOLV>
0

>  <SCORE.SYSTEM.norm>
0

>  <SCORE.heavy>
30

>  <SCORE.norm>
-1.264

>  <RMSD>
1.895

$$$$
lig.pdb
 OpenBabel11021811523D
libRbt.so/2013.1/901 2013/11/27
 30 34  0  0  0  0  0  0  0  0999 V2000
   25.2995   38.7358   21.7527 N   0  0  0  0  0  0  0  0  0  0  0  0
   26.6965   42.1762   25.0268 N   0  0  0  0  0  0  0  0  0  0  0  0
   24.7666   39.1458   20.4499 C   0  0  0  0  0  0  0  0  0  0  0  0
   25.4432   38.1557   19.5138 C   0  0  2  0  0  0  0  0  0  0  0  0
   25.0360   39.5363   22.9433 C   0  0  0  0  0  0  0  0  0  0  0  0
   23.8494   39.4435   23.6990 C   0  0  0  0  0  0  0  0  0  0  0  0
   23.5862   40.2153   24.8031 C   0  0  0  0  0  0  0  0  0  0  0  0
   24.2107   42.0317   26.3983 C   0  0  0  0  0  0  0  0  0  0  0  0
   28.7707   43.0757   25.1319 C   0  0  0  0  0  0  0  0  0  0  0  0
   28.2854   41.1035   23.5206 C   0  0  0  0  0  0  0  0  0  0  0  0
   25.9990   40.4822   23.3948 C   0  0  0  0  0  0  0  0  0  0  0  0
   25.8346   44.1415   28.7695 O   0  0  0  0  0  0  0  0  0  0  0  0
   24.9971   43.9678   27.8815 C   0  0  0  0  0  0  0  0  0  0  0  0
   23.8244   44.5896   27.8746 O   0  0  0  0  0  0  0  0  0  0  0  0
   25.2574   43.0211   26.7646 C   0  0  1  0  0  0  0  0  0  0  0  0
   23.1602   41.9048   27.0366 O   0  0  0  0  0  0  0  0  0  0  0  0
   26.4864   43.0594   26.0832 C   0  0  0  0  0  0  0  0  0  0  0  0
   28.0012   42.1745   24.5139 C   0  0  0  0  0  0  0  0  0  0  0  0
   27.9390   43.9233   26.3694 S   0  0  0  0  0  0  0  0  0  0  0  0
   25.7384   41.2617   24.5446 C   0  0  0  0  0  0  0  0  0  0  0  0
   24.5219   41.1546   25.2362 C   0  0  0  0  0  0  0  0  0  0  0  0
   22.9226   38.5309   23.3446 F   0  0  0  0  0  0  0  0  0  0  0  0
   27.1810   40.6990   22.6694 N   0  0  0  0  0  0  0  0  0  0  0  0
   26.9371   41.5417   21.5182 C   0  0  0  0  0  0  0  0  0  0  0  0
   26.5320   37.9694   21.6085 C   0  0  0  0  0  0  0  0  0  0  0  0
   24.4882   37.4084   18.7592 O   0  0  0  0  0  0  0  0  0  0  0  0
   26.1582   37.1347   20.3951 C   0  0  2  0  0  0  0  0  0  0  0  0
   27.2756   36.5590   19.6227 N   0  0  0  0  0  0  0  0  0  0  0  0
   28.4106   37.4692   19.3842 C   0  0  0  0  0  0  0  0  0  0  0  0
   27.7076   35.2441   20.1210 C   0  0  0  0  0  0  0  0  0  0  0  0
  1  5  1  0  0  0  0
  2 17  1  0  0  0  0
  3  1  1  0  0  0  0
  4  3  1  0  0  0  0
  4 26  1  1  0  0  0
  5 11  2  0  0  0  0
  5  6  1  0  0  0  0
  6  7  2  0  0  0  0
  7 21  1  0  0  0  0
  8 15  1  0  0  0  0
  8 16  2  0  0  0  0
  9 19  1  0  0  0  0
 10 18  1  0  0  0  0
 11 20  1  0  0  0  0
 13 14  1  0  0  0  0
 13 12  2  0  0  0  0
 15 13  1  1  0  0  0
 17 19  2  0  0  0  0
 17 15  1  0  0  0  0
 18  2  1  0  0  0  0
 18  9  2  0  0  0  0
 20 21  2  0  0  0  0
 20  2  1  0  0  0  0
 21  8  1  0  0  0  0
 22  6  1  0  0  0  0
 23 11  1  0  0  0  0
 23 10  1  0  0  0  0
 24 23  1  0  0  0  0
 25  1  1  0  0  0  0
 27  4  1  0  0  0  0
 27 25  1  0  0  0  0
 27 28  1  6  0  0  0
 29 28  1  0  0  0  0
 30 28  1  0  0  0  0
M  END
>  <CHROM.1>
82.69457197,-0.42124326,131.86482190,177.53409133,71.00093772,25.89324152
40.62276803,23.70815508,1.51274564,-0.28644726,-2.30644837

>  <Name>
lig.pdb

>  <RI>
0

>  <Rbt.Current_Directory>
/home/itssahil/PROJECTS/Mol_Feturizer/New_Systems/rnas/6bfb

>  <Rbt.Executable>
rbdock ($Id: //depot/dev/client3/rdock/2013.1/src/exe/rbdock.cxx#4 $)

>  <Rbt.Library>
libRbt.so (2013.1, Build901 2013/11/27)

>  <Rbt.Parameter_File>
/export/apps/rDock/src/rDock_2013.1_src/data/scripts/dock_solv.prm

>  <Rbt.Receptor>
prm/pocket_docking_4.prm

>  <SCORE>
-37.0617

>  <SCORE.INTER>
-30.7657

>  <SCORE.INTER.CONST>
1

>  <SCORE.INTER.POLAR>
0

>  <SCORE.INTER.ROT>
3

>  <SCORE.INTER.SOLV>
11.7667

>  <SCORE.INTER.VDW>
-30.0327

>  <SCORE.INTER.norm>
-1.02552

>  <SCORE.INTRA>
-6.29597

>  <SCORE.INTRA.DIHEDRAL>
-7.30664

>  <SCORE.INTRA.DIHEDRAL.0>
9.41909

>  <SCORE.INTRA.POLAR>
0

>  <SCORE.INTRA.POLAR.0>
0

>  <SCORE.INTRA.REPUL>
0

>  <SCORE.INTRA.REPUL.0>
0

>  <SCORE.INTRA.SOLV>
-0.0737272

>  <SCORE.INTRA.SOLV.lig_0>
-26.2491

>  <SCORE.INTRA.VDW>
-2.60578

>  <SCORE.INTRA.VDW.0>
2.57239

>  <SCORE.INTRA.norm>
-0.209866

>  <SCORE.RESTR>
0

>  <SCORE.RESTR.CAVITY>
0

>  <SCORE.RESTR.norm>
0

>  <SCORE.SYSTEM>
0

>  <SCORE.SYSTEM.CONST>
0

>  <SCORE.SYSTEM.DIHEDRAL>
0

>  <SCORE.SYSTEM.SOLV>
0

>  <SCORE.SYSTEM.norm>
0

>  <SCORE.heavy>
30

>  <SCORE.norm>
-1.23539

>  <RMSD>
1.896

$$$$
lig.pdb
 OpenBabel11021811523D
libRbt.so/2013.1/901 2013/11/27
 30 34  0  0  0  0  0  0  0  0999 V2000
   25.2237   38.5980   21.6746 N   0  0  0  0  0  0  0  0  0  0  0  0
   26.7786   42.0799   24.8315 N   0  0  0  0  0  0  0  0  0  0  0  0
   24.6409   38.9680   20.3812 C   0  0  0  0  0  0  0  0  0  0  0  0
   25.2813   37.9489   19.4508 C   0  0  2  0  0  0  0  0  0  0  0  0
   25.0059   39.4350   22.8491 C   0  0  0  0  0  0  0  0  0  0  0  0
   23.8327   39.3940   23.6300 C   0  0  0  0  0  0  0  0  0  0  0  0
   23.6128   40.2002   24.7188 C   0  0  0  0  0  0  0  0  0  0  0  0
   24.3181   42.0383   26.2544 C   0  0  0  0  0  0  0  0  0  0  0  0
   28.8780   42.9245   24.8730 C   0  0  0  0  0  0  0  0  0  0  0  0
   28.3074   40.9265   23.3226 C   0  0  0  0  0  0  0  0  0  0  0  0
   26.0030   40.3653   23.2574 C   0  0  0  0  0  0  0  0  0  0  0  0
   24.2088   44.7401   27.6661 O   0  0  0  0  0  0  0  0  0  0  0  0
   25.1862   43.9886   27.6718 C   0  0  0  0  0  0  0  0  0  0  0  0
   26.1040   44.0183   28.6303 O   0  0  0  0  0  0  0  0  0  0  0  0
   25.3982   43.0074   26.5746 C   0  0  1  0  0  0  0  0  0  0  0  0
   23.2776   41.9563   26.9160 O   0  0  0  0  0  0  0  0  0  0  0  0
   26.6138   42.9948   25.8688 C   0  0  0  0  0  0  0  0  0  0  0  0
   28.0723   42.0295   24.2935 C   0  0  0  0  0  0  0  0  0  0  0  0
   28.0947   43.8254   26.1043 S   0  0  0  0  0  0  0  0  0  0  0  0
   25.7867   41.1802   24.3917 C   0  0  0  0  0  0  0  0  0  0  0  0
   24.5820   41.1240   25.1094 C   0  0  0  0  0  0  0  0  0  0  0  0
   22.8747   38.4985   23.3172 F   0  0  0  0  0  0  0  0  0  0  0  0
   27.1755   40.5312   22.5038 N   0  0  0  0  0  0  0  0  0  0  0  0
   26.9313   41.3510   21.3363 C   0  0  0  0  0  0  0  0  0  0  0  0
   26.4500   37.8264   21.5067 C   0  0  0  0  0  0  0  0  0  0  0  0
   24.2983   37.1793   18.7570 O   0  0  0  0  0  0  0  0  0  0  0  0
   26.0301   36.9550   20.3350 C   0  0  2  0  0  0  0  0  0  0  0  0
   27.1172   36.3548   19.5384 N   0  0  0  0  0  0  0  0  0  0  0  0
   28.1919   37.2823   19.1406 C   0  0  0  0  0  0  0  0  0  0  0  0
   27.6398   35.1079   20.1179 C   0  0  0  0  0  0  0  0  0  0  0  0
  1  5  1  0  0  0  0
  2 17  1  0  0  0  0
  3  1  1  0  0  0  0
  4  3  1  0  0  0  0
  4 26  1  1  0  0  0
  5 11  2  0  0  0  0
  5  6  1  0  0  0  0
  6  7  2  0  0  0  0
  7 21  1  0  0  0  0
  8 15  1  0  0  0  0
  8 16  2  0  0  0  0
  9 19  1  0  0  0  0
 10 18  1  0  0  0  0
 11 20  1  0  0  0  0
 13 14  1  0  0  0  0
 13 12  2  0  0  0  0
 15 13  1  1  0  0  0
 17 19  2  0  0  0  0
 17 15  1  0  0  0  0
 18  2  1  0  0  0  0
 18  9  2  0  0  0  0
 20 21  2  0  0  0  0
 20  2  1  0  0  0  0
 21  8  1  0  0  0  0
 22  6  1  0  0  0  0
 23 11  1  0  0  0  0
 23 10  1  0  0  0  0
 24 23  1  0  0  0  0
 25  1  1  0  0  0  0
 27  4  1  0  0  0  0
 27 25  1  0  0  0  0
 27 28  1  6  0  0  0
 29 28  1  0  0  0  0
 30 28  1  0  0  0  0
M  END
>  <CHROM.1>
80.78657257,0.97409274,-55.22712492,64.44106642,66.52196907,25.92019157,40.52364301
23.57025454,1.55379884,-0.28090120,-2.31339241

>  <Name>
lig.pdb

>  <RI>
0

>  <Rbt.Current_Directory>
/home/itssahil/PROJECTS/Mol_Feturizer/New_Systems/rnas/6bfb

>  <Rbt.Executable>
rbdock ($Id: //depot/dev/client3/rdock/2013.1/src/exe/rbdock.cxx#4 $)

>  <Rbt.Library>
libRbt.so (2013.1, Build901 2013/11/27)

>  <Rbt.Parameter_File>
/export/apps/rDock/src/rDock_2013.1_src/data/scripts/dock_solv.prm

>  <Rbt.Receptor>
prm/pocket_docking_6.prm

>  <SCORE>
-42.5258

>  <SCORE.INTER>
-36.1419

>  <SCORE.INTER.CONST>
1

>  <SCORE.INTER.POLAR>
-1.0644

>  <SCORE.INTER.ROT>
3

>  <SCORE.INTER.SOLV>
11.6617

>  <SCORE.INTER.VDW>
-30.0338

>  <SCORE.INTER.norm>
-1.20473

>  <SCORE.INTRA>
-6.38386

>  <SCORE.INTRA.DIHEDRAL>
-7.41224

>  <SCORE.INTRA.DIHEDRAL.0>
9.41909

>  <SCORE.INTRA.POLAR>
0

>  <SCORE.INTRA.POLAR.0>
0

>  <SCORE.INTRA.REPUL>
0

>  <SCORE.INTRA.REPUL.0>
0

>  <SCORE.INTRA.SOLV>
-0.155145

>  <SCORE.INTRA.SOLV.lig_0>
-26.2491

>  <SCORE.INTRA.VDW>
-2.60017

>  <SCORE.INTRA.VDW.0>
2.57239

>  <SCORE.INTRA.norm>
-0.212795

>  <SCORE.RESTR>
0

>  <SCORE.RESTR.CAVITY>
0

>  <SCORE.RESTR.norm>
0

>  <SCORE.SYSTEM>
0

>  <SCORE.SYSTEM.CONST>
0

>  <SCORE.SYSTEM.DIHEDRAL>
0

>  <SCORE.SYSTEM.SOLV>
0

>  <SCORE.SYSTEM.norm>
0

>  <SCORE.heavy>
30

>  <SCORE.norm>
-1.41753

>  <RMSD>
1.896

$$$$
lig.pdb
 OpenBabel11021811523D
libRbt.so/2013.1/901 2013/11/27
 30 34  0  0  0  0  0  0  0  0999 V2000
   25.1900   38.6480   21.7326 N   0  0  0  0  0  0  0  0  0  0  0  0
   26.6179   42.1472   24.9300 N   0  0  0  0  0  0  0  0  0  0  0  0
   24.6038   38.9865   20.4320 C   0  0  0  0  0  0  0  0  0  0  0  0
   25.2913   37.9873   19.5137 C   0  0  2  0  0  0  0  0  0  0  0  0
   24.9300   39.4834   22.8996 C   0  0  0  0  0  0  0  0  0  0  0  0
   23.7352   39.4308   23.6464 C   0  0  0  0  0  0  0  0  0  0  0  0
   23.4758   40.2353   24.7278 C   0  0  0  0  0  0  0  0  0  0  0  0
   24.1179   42.0813   26.2815 C   0  0  0  0  0  0  0  0  0  0  0  0
   28.7065   43.0132   25.0313 C   0  0  0  0  0  0  0  0  0  0  0  0
   28.2011   41.0086   23.4668 C   0  0  0  0  0  0  0  0  0  0  0  0
   25.9053   40.4239   23.3357 C   0  0  0  0  0  0  0  0  0  0  0  0
   25.2494   43.7897   28.8843 O   0  0  0  0  0  0  0  0  0  0  0  0
   24.9249   44.0411   27.7217 C   0  0  0  0  0  0  0  0  0  0  0  0
   24.3241   45.1736   27.3771 O   0  0  0  0  0  0  0  0  0  0  0  0
   25.1784   43.0615   26.6319 C   0  0  1  0  0  0  0  0  0  0  0  0
   23.0597   41.9891   26.9130 O   0  0  0  0  0  0  0  0  0  0  0  0
   26.4139   43.0609   25.9614 C   0  0  0  0  0  0  0  0  0  0  0  0
   27.9269   42.1097   24.4295 C   0  0  0  0  0  0  0  0  0  0  0  0
   27.8789   43.9067   26.2388 S   0  0  0  0  0  0  0  0  0  0  0  0
   25.6482   41.2372   24.4626 C   0  0  0  0  0  0  0  0  0  0  0  0
   24.4240   41.1691   25.1453 C   0  0  0  0  0  0  0  0  0  0  0  0
   22.7958   38.5254   23.3069 F   0  0  0  0  0  0  0  0  0  0  0  0
   27.0973   40.6014   22.6160 N   0  0  0  0  0  0  0  0  0  0  0  0
   26.8786   41.4181   21.4413 C   0  0  0  0  0  0  0  0  0  0  0  0
   26.4469   37.9240   21.5797 C   0  0  0  0  0  0  0  0  0  0  0  0
   24.3448   37.1754   18.8173 O   0  0  0  0  0  0  0  0  0  0  0  0
   26.0711   37.0293   20.4105 C   0  0  2  0  0  0  0  0  0  0  0  0
   27.1873   36.4670   19.6266 N   0  0  0  0  0  0  0  0  0  0  0  0
   28.2529   37.4229   19.2741 C   0  0  0  0  0  0  0  0  0  0  0  0
   27.7202   35.2176   20.1911 C   0  0  0  0  0  0  0  0  0  0  0  0
  1  5  1  0  0  0  0
  2 17  1  0  0  0  0
  3  1  1  0  0  0  0
  4  3  1  0  0  0  0
  4 26  1  1  0  0  0
  5 11  2  0  0  0  0
  5  6  1  0  0  0  0
  6  7  2  0  0  0  0
  7 21  1  0  0  0  0
  8 15  1  0  0  0  0
  8 16  2  0  0  0  0
  9 19  1  0  0  0  0
 10 18  1  0  0  0  0
 11 20  1  0  0  0  0
 13 14  1  0  0  0  0
 13 12  2  0  0  0  0
 15 13  1  1  0  0  0
 17 19  2  0  0  0  0
 17 15  1  0  0  0  0
 18  2  1  0  0  0  0
 18  9  2  0  0  0  0
 20 21  2  0  0  0  0
 20  2  1  0  0  0  0
 21  8  1  0  0  0  0
 22  6  1  0  0  0  0
 23 11  1  0  0  0  0
 23 10  1  0  0  0  0
 24 23  1  0  0  0  0
 25  1  1  0  0  0  0
 27  4  1  0  0  0  0
 27 25  1  0  0  0  0
 27 28  1  6  0  0  0
 29 28  1  0  0  0  0
 30 28  1  0  0  0  0
M  END
>  <CHROM.1>
78.71643266,169.33980222,92.07011263,67.20628484,68.69813686,25.80293267
40.59010303,23.63114513,1.51876389,-0.27817348,-2.32703142

>  <Name>
lig.pdb

>  <RI>
0

>  <Rbt.Current_Directory>
/home/itssahil/PROJECTS/Mol_Feturizer/New_Systems/rnas/6bfb

>  <Rbt.Executable>
rbdock ($Id: //depot/dev/client3/rdock/2013.1/src/exe/rbdock.cxx#4 $)

>  <Rbt.Library>
libRbt.so (2013.1, Build901 2013/11/27)

>  <Rbt.Parameter_File>
/export/apps/rDock/src/rDock_2013.1_src/data/scripts/dock_solv.prm

>  <Rbt.Receptor>
prm/pocket_docking_6.prm

>  <SCORE>
-44.5932

>  <SCORE.INTER>
-39.0328

>  <SCORE.INTER.CONST>
1

>  <SCORE.INTER.POLAR>
-1.84546

>  <SCORE.INTER.ROT>
3

>  <SCORE.INTER.SOLV>
12.022

>  <SCORE.INTER.VDW>
-29.4777

>  <SCORE.INTER.norm>
-1.30109

>  <SCORE.INTRA>
-5.56037

>  <SCORE.INTRA.DIHEDRAL>
-6.31337

>  <SCORE.INTRA.DIHEDRAL.0>
9.41909

>  <SCORE.INTRA.POLAR>
0

>  <SCORE.INTRA.POLAR.0>
0

>  <SCORE.INTRA.REPUL>
0

>  <SCORE.INTRA.REPUL.0>
0

>  <SCORE.INTRA.SOLV>
-0.216391

>  <SCORE.INTRA.SOLV.lig_0>
-26.2491

>  <SCORE.INTRA.VDW>
-2.29549

>  <SCORE.INTRA.VDW.0>
2.57239

>  <SCORE.INTRA.norm>
-0.185346

>  <SCORE.RESTR>
0

>  <SCORE.RESTR.CAVITY>
0

>  <SCORE.RESTR.norm>
0

>  <SCORE.SYSTEM>
0

>  <SCORE.SYSTEM.CONST>
0

>  <SCORE.SYSTEM.DIHEDRAL>
0

>  <SCORE.SYSTEM.SOLV>
0

>  <SCORE.SYSTEM.norm>
0

>  <SCORE.heavy>
30

>  <SCORE.norm>
-1.48644

>  <RMSD>
1.897

$$$$
lig.pdb
 OpenBabel11021811523D
libRbt.so/2013.1/901 2013/11/27
 30 34  0  0  0  0  0  0  0  0999 V2000
   25.7864   36.5958   20.1014 N   0  0  0  0  0  0  0  0  0  0  0  0
   26.3517   40.0205   23.6311 N   0  0  0  0  0  0  0  0  0  0  0  0
   26.4084   35.3115   20.4380 C   0  0  0  0  0  0  0  0  0  0  0  0
   26.6521   34.7154   19.0598 C   0  0  2  0  0  0  0  0  0  0  0  0
   25.2277   37.4428   21.1492 C   0  0  0  0  0  0  0  0  0  0  0  0
   23.8629   37.4489   21.5029 C   0  0  0  0  0  0  0  0  0  0  0  0
   23.3291   38.2651   22.4686 C   0  0  0  0  0  0  0  0  0  0  0  0
   23.5612   40.0772   24.1704 C   0  0  0  0  0  0  0  0  0  0  0  0
   28.3519   40.7829   24.3662 C   0  0  0  0  0  0  0  0  0  0  0  0
   28.2458   38.8057   22.6927 C   0  0  0  0  0  0  0  0  0  0  0  0
   26.0703   38.3343   21.8712 C   0  0  0  0  0  0  0  0  0  0  0  0
   24.4325   42.0404   26.9649 O   0  0  0  0  0  0  0  0  0  0  0  0
   23.9899   41.9950   25.8151 C   0  0  0  0  0  0  0  0  0  0  0  0
   23.0247   42.8007   25.3893 O   0  0  0  0  0  0  0  0  0  0  0  0
   24.5125   41.0042   24.8370 C   0  0  1  0  0  0  0  0  0  0  0  0
   22.3592   40.0370   24.4545 O   0  0  0  0  0  0  0  0  0  0  0  0
   25.8907   40.9431   24.5674 C   0  0  0  0  0  0  0  0  0  0  0  0
   27.7473   39.9188   23.5453 C   0  0  0  0  0  0  0  0  0  0  0  0
   27.2430   41.7159   25.2834 S   0  0  0  0  0  0  0  0  0  0  0  0
   25.5254   39.1592   22.8813 C   0  0  0  0  0  0  0  0  0  0  0  0
   24.1509   39.1512   23.1648 C   0  0  0  0  0  0  0  0  0  0  0  0
   23.0273   36.5907   20.8842 F   0  0  0  0  0  0  0  0  0  0  0  0
   27.4302   38.4531   21.5444 N   0  0  0  0  0  0  0  0  0  0  0  0
   27.6123   39.2797   20.3703 C   0  0  0  0  0  0  0  0  0  0  0  0
   25.2257   36.5809   18.7550 C   0  0  0  0  0  0  0  0  0  0  0  0
   28.0318   34.4072   18.8565 O   0  0  0  0  0  0  0  0  0  0  0  0
   26.3222   35.8060   18.0438 C   0  0  2  0  0  0  0  0  0  0  0  0
   25.9506   35.1565   16.7723 N   0  0  0  0  0  0  0  0  0  0  0  0
   24.6118   34.5397   16.7485 C   0  0  0  0  0  0  0  0  0  0  0  0
   26.1980   36.0033   15.5952 C   0  0  0  0  0  0  0  0  0  0  0  0
  1  5  1  0  0  0  0
  2 17  1  0  0  0  0
  3  1  1  0  0  0  0
  4  3  1  0  0  0  0
  4 26  1  1  0  0  0
  5 11  2  0  0  0  0
  5  6  1  0  0  0  0
  6  7  2  0  0  0  0
  7 21  1  0  0  0  0
  8 15  1  0  0  0  0
  8 16  2  0  0  0  0
  9 19  1  0  0  0  0
 10 18  1  0  0  0  0
 11 20  1  0  0  0  0
 13 14  1  0  0  0  0
 13 12  2  0  0  0  0
 15 13  1  1  0  0  0
 17 19  2  0  0  0  0
 17 15  1  0  0  0  0
 18  2  1  0  0  0  0
 18  9  2  0  0  0  0
 20 21  2  0  0  0  0
 20  2  1  0  0  0  0
 21  8  1  0  0  0  0
 22  6  1  0  0  0  0
 23 11  1  0  0  0  0
 23 10  1  0  0  0  0
 24 23  1  0  0  0  0
 25  1  1  0  0  0  0
 27  4  1  0  0  0  0
 27 25  1  0  0  0  0
 27 28  1  6  0  0  0
 29 28  1  0  0  0  0
 30 28  1  0  0  0  0
M  END
>  <CHROM.1>
-96.12563962,0.18403844,124.23484895,62.00836522,74.76237303,25.61083353
38.53834527,21.95324416,1.47092639,-0.06592306,-2.27377422

>  <Name>
lig.pdb

>  <RI>
0

>  <Rbt.Current_Directory>
/home/itssahil/PROJECTS/Mol_Feturizer/New_Systems/rnas/6bfb

>  <Rbt.Executable>
rbdock ($Id: //depot/dev/client3/rdock/2013.1/src/exe/rbdock.cxx#4 $)

>  <Rbt.Library>
libRbt.so (2013.1, Build901 2013/11/27)

>  <Rbt.Parameter_File>
/export/apps/rDock/src/rDock_2013.1_src/data/scripts/dock_solv.prm

>  <Rbt.Receptor>
prm/blind_docking_100.prm

>  <SCORE>
-33.5893

>  <SCORE.INTER>
-27.5754

>  <SCORE.INTER.CONST>
1

>  <SCORE.INTER.POLAR>
0

>  <SCORE.INTER.ROT>
3

>  <SCORE.INTER.SOLV>
12.9115

>  <SCORE.INTER.VDW>
-28.2874

>  <SCORE.INTER.norm>
-0.91918

>  <SCORE.INTRA>
-6.01391

>  <SCORE.INTRA.DIHEDRAL>
-7.14498

>  <SCORE.INTRA.DIHEDRAL.0>
9.41909

>  <SCORE.INTRA.POLAR>
0

>  <SCORE.INTRA.POLAR.0>
0

>  <SCORE.INTRA.REPUL>
0.0839101

>  <SCORE.INTRA.REPUL.0>
0

>  <SCORE.INTRA.SOLV>
-0.320166

>  <SCORE.INTRA.SOLV.lig_0>
-26.2491

>  <SCORE.INTRA.VDW>
-2.70088

>  <SCORE.INTRA.VDW.0>
2.57239

>  <SCORE.INTRA.norm>
-0.200464

>  <SCORE.RESTR>
0

>  <SCORE.RESTR.CAVITY>
0

>  <SCORE.RESTR.norm>
0

>  <SCORE.SYSTEM>
0

>  <SCORE.SYSTEM.CONST>
0

>  <SCORE.SYSTEM.DIHEDRAL>
0

>  <SCORE.SYSTEM.SOLV>
0

>  <SCORE.SYSTEM.norm>
0

>  <SCORE.heavy>
30

>  <SCORE.norm>
-1.11964

>  <RMSD>
1.899

$$$$
lig.pdb
 OpenBabel11021811523D
libRbt.so/2013.1/901 2013/11/27
 30 34  0  0  0  0  0  0  0  0999 V2000
   25.3827   36.5414   20.2971 N   0  0  0  0  0  0  0  0  0  0  0  0
   26.3282   40.1293   23.5743 N   0  0  0  0  0  0  0  0  0  0  0  0
   26.5509   35.6885   20.5365 C   0  0  0  0  0  0  0  0  0  0  0  0
   26.5197   34.7736   19.3215 C   0  0  2  0  0  0  0  0  0  0  0  0
   24.9302   37.4780   21.3197 C   0  0  0  0  0  0  0  0  0  0  0  0
   23.5902   37.5807   21.7457 C   0  0  0  0  0  0  0  0  0  0  0  0
   23.1561   38.4803   22.6871 C   0  0  0  0  0  0  0  0  0  0  0  0
   23.5801   40.3729   24.2595 C   0  0  0  0  0  0  0  0  0  0  0  0
   28.4046   40.8206   24.1519 C   0  0  0  0  0  0  0  0  0  0  0  0
   28.0991   38.7582   22.6110 C   0  0  0  0  0  0  0  0  0  0  0  0
   25.8584   38.3617   21.9390 C   0  0  0  0  0  0  0  0  0  0  0  0
   23.7466   43.4226   25.3389 O   0  0  0  0  0  0  0  0  0  0  0  0
   24.2024   42.3564   25.7578 C   0  0  0  0  0  0  0  0  0  0  0  0
   24.3671   42.1095   27.0516 O   0  0  0  0  0  0  0  0  0  0  0  0
   24.6154   41.2827   24.8154 C   0  0  1  0  0  0  0  0  0  0  0  0
   22.3960   40.4164   24.6102 O   0  0  0  0  0  0  0  0  0  0  0  0
   25.9708   41.1292   24.4758 C   0  0  0  0  0  0  0  0  0  0  0  0
   27.7094   39.9451   23.4194 C   0  0  0  0  0  0  0  0  0  0  0  0
   27.4005   41.8658   25.0688 S   0  0  0  0  0  0  0  0  0  0  0  0
   25.4163   39.2732   22.9246 C   0  0  0  0  0  0  0  0  0  0  0  0
   24.0619   39.3584   23.2821 C   0  0  0  0  0  0  0  0  0  0  0  0
   22.6765   36.7359   21.2270 F   0  0  0  0  0  0  0  0  0  0  0  0
   27.2017   38.3853   21.5323 N   0  0  0  0  0  0  0  0  0  0  0  0
   27.3591   39.1305   20.3016 C   0  0  0  0  0  0  0  0  0  0  0  0
   24.4464   35.9167   19.3694 C   0  0  0  0  0  0  0  0  0  0  0  0
   27.7378   34.8435   18.5789 O   0  0  0  0  0  0  0  0  0  0  0  0
   25.4400   35.3166   18.3890 C   0  0  2  0  0  0  0  0  0  0  0  0
   24.9494   34.2049   17.5523 N   0  0  0  0  0  0  0  0  0  0  0  0
   23.6336   34.4231   16.9243 C   0  0  0  0  0  0  0  0  0  0  0  0
   25.9524   33.7140   16.5947 C   0  0  0  0  0  0  0  0  0  0  0  0
  1  5  1  0  0  0  0
  2 17  1  0  0  0  0
  3  1  1  0  0  0  0
  4  3  1  0  0  0  0
  4 26  1  6  0  0  0
  5 11  2  0  0  0  0
  5  6  1  0  0  0  0
  6  7  2  0  0  0  0
  7 21  1  0  0  0  0
  8 15  1  0  0  0  0
  8 16  2  0  0  0  0
  9 19  1  0  0  0  0
 10 18  1  0  0  0  0
 11 20  1  0  0  0  0
 13 14  1  0  0  0  0
 13 12  2  0  0  0  0
 15 13  1  1  0  0  0
 17 19  2  0  0  0  0
 17 15  1  0  0  0  0
 18  2  1  0  0  0  0
 18  9  2  0  0  0  0
 20 21  2  0  0  0  0
 20  2  1  0  0  0  0
 21  8  1  0  0  0  0
 22  6  1  0  0  0  0
 23 11  1  0  0  0  0
 23 10  1  0  0  0  0
 24 23  1  0  0  0  0
 25  1  1  0  0  0  0
 27  4  1  0  0  0  0
 27 25  1  0  0  0  0
 27 28  1  1  0  0  0
 29 28  1  0  0  0  0
 30 28  1  0  0  0  0
M  END
>  <CHROM.1>
-130.89221093,-178.66396301,-82.05837899,62.17902588,160.67673175,25.44634485
38.51887822,22.06945984,1.54817649,-0.08615786,-2.35280696

>  <Name>
lig.pdb

>  <RI>
0

>  <Rbt.Current_Directory>
/home/itssahil/PROJECTS/Mol_Feturizer/New_Systems/rnas/6bfb

>  <Rbt.Executable>
rbdock ($Id: //depot/dev/client3/rdock/2013.1/src/exe/rbdock.cxx#4 $)

>  <Rbt.Library>
libRbt.so (2013.1, Build901 2013/11/27)

>  <Rbt.Parameter_File>
/export/apps/rDock/src/rDock_2013.1_src/data/scripts/dock_solv.prm

>  <Rbt.Receptor>
prm/blind_docking_60.prm

>  <SCORE>
-36.471

>  <SCORE.INTER>
-32.1166

>  <SCORE.INTER.CONST>
1

>  <SCORE.INTER.POLAR>
-0.672028

>  <SCORE.INTER.ROT>
3

>  <SCORE.INTER.SOLV>
12.376

>  <SCORE.INTER.VDW>
-28.8963

>  <SCORE.INTER.norm>
-1.07055

>  <SCORE.INTRA>
-4.35437

>  <SCORE.INTRA.DIHEDRAL>
-7.44584

>  <SCORE.INTRA.DIHEDRAL.0>
9.41909

>  <SCORE.INTRA.POLAR>
0

>  <SCORE.INTRA.POLAR.0>
0

>  <SCORE.INTRA.REPUL>
0.00221124

>  <SCORE.INTRA.REPUL.0>
0

>  <SCORE.INTRA.SOLV>
-0.183909

>  <SCORE.INTRA.SOLV.lig_0>
-26.2491

>  <SCORE.INTRA.VDW>
-0.550557

>  <SCORE.INTRA.VDW.0>
2.57239

>  <SCORE.INTRA.norm>
-0.145146

>  <SCORE.RESTR>
0

>  <SCORE.RESTR.CAVITY>
0

>  <SCORE.RESTR.norm>
0

>  <SCORE.SYSTEM>
0

>  <SCORE.SYSTEM.CONST>
0

>  <SCORE.SYSTEM.DIHEDRAL>
0

>  <SCORE.SYSTEM.SOLV>
0

>  <SCORE.SYSTEM.norm>
0

>  <SCORE.heavy>
30

>  <SCORE.norm>
-1.2157

>  <RMSD>
1.900

$$$$
lig.pdb
 OpenBabel11021811523D
libRbt.so/2013.1/901 2013/11/27
 30 34  0  0  0  0  0  0  0  0999 V2000
   25.1946   38.6538   21.7381 N   0  0  0  0  0  0  0  0  0  0  0  0
   26.6191   42.1527   24.9374 N   0  0  0  0  0  0  0  0  0  0  0  0
   24.6067   38.9900   20.4378 C   0  0  0  0  0  0  0  0  0  0  0  0
   25.2961   37.9920   19.5196 C   0  0  2  0  0  0  0  0  0  0  0  0
   24.9333   39.4892   22.9049 C   0  0  0  0  0  0  0  0  0  0  0  0
   23.7377   39.4367   23.6502 C   0  0  0  0  0  0  0  0  0  0  0  0
   23.4771   40.2412   24.7313 C   0  0  0  0  0  0  0  0  0  0  0  0
   24.1174   42.0871   26.2858 C   0  0  0  0  0  0  0  0  0  0  0  0
   28.7077   43.0184   25.0412 C   0  0  0  0  0  0  0  0  0  0  0  0
   28.2040   41.0140   23.4761 C   0  0  0  0  0  0  0  0  0  0  0  0
   25.9083   40.4296   23.3421 C   0  0  0  0  0  0  0  0  0  0  0  0
   25.2225   43.7848   28.8939 O   0  0  0  0  0  0  0  0  0  0  0  0
   24.9230   44.0469   27.7270 C   0  0  0  0  0  0  0  0  0  0  0  0
   24.3490   45.1914   27.3770 O   0  0  0  0  0  0  0  0  0  0  0  0
   25.1777   43.0672   26.6376 C   0  0  1  0  0  0  0  0  0  0  0  0
   23.0585   41.9951   26.9160 O   0  0  0  0  0  0  0  0  0  0  0  0
   26.4140   43.0665   25.9685 C   0  0  0  0  0  0  0  0  0  0  0  0
   27.9288   42.1150   24.4385 C   0  0  0  0  0  0  0  0  0  0  0  0
   27.8788   43.9120   26.2477 S   0  0  0  0  0  0  0  0  0  0  0  0
   25.6499   41.2429   24.4688 C   0  0  0  0  0  0  0  0  0  0  0  0
   24.4248   41.1749   25.1500 C   0  0  0  0  0  0  0  0  0  0  0  0
   22.7985   38.5315   23.3095 F   0  0  0  0  0  0  0  0  0  0  0  0
   27.1012   40.6069   22.6239 N   0  0  0  0  0  0  0  0  0  0  0  0
   26.8840   41.4236   21.4490 C   0  0  0  0  0  0  0  0  0  0  0  0
   26.4533   37.9329   21.5848 C   0  0  0  0  0  0  0  0  0  0  0  0
   24.3512   37.1773   18.8243 O   0  0  0  0  0  0  0  0  0  0  0  0
   26.0790   37.0365   20.4164 C   0  0  2  0  0  0  0  0  0  0  0  0
   27.1961   36.4767   19.6321 N   0  0  0  0  0  0  0  0  0  0  0  0
   28.2632   37.4331   19.2856 C   0  0  0  0  0  0  0  0  0  0  0  0
   27.7268   35.2243   20.1921 C   0  0  0  0  0  0  0  0  0  0  0  0
  1  5  1  0  0  0  0
  2 17  1  0  0  0  0
  3  1  1  0  0  0  0
  4  3  1  0  0  0  0
  4 26  1  1  0  0  0
  5 11  2  0  0  0  0
  5  6  1  0  0  0  0
  6  7  2  0  0  0  0
  7 21  1  0  0  0  0
  8 15  1  0  0  0  0
  8 16  2  0  0  0  0
  9 19  1  0  0  0  0
 10 18  1  0  0  0  0
 11 20  1  0  0  0  0
 13 14  1  0  0  0  0
 13 12  2  0  0  0  0
 15 13  1  1  0  0  0
 17 19  2  0  0  0  0
 17 15  1  0  0  0  0
 18  2  1  0  0  0  0
 18  9  2  0  0  0  0
 20 21  2  0  0  0  0
 20  2  1  0  0  0  0
 21  8  1  0  0  0  0
 22  6  1  0  0  0  0
 23 11  1  0  0  0  0
 23 10  1  0  0  0  0
 24 23  1  0  0  0  0
 25  1  1  0  0  0  0
 27  4  1  0  0  0  0
 27 25  1  0  0  0  0
 27 28  1  6  0  0  0
 29 28  1  0  0  0  0
 30 28  1  0  0  0  0
M  END
>  <CHROM.1>
78.52403172,171.16025161,90.65931958,67.23904463,69.07224857,25.80571931
40.59605643,23.63723464,1.51796839,-0.27818399,-2.32721608

>  <Name>
lig.pdb

>  <RI>
0

>  <Rbt.Current_Directory>
/home/itssahil/PROJECTS/Mol_Feturizer/New_Systems/rnas/6bfb

>  <Rbt.Executable>
rbdock ($Id: //depot/dev/client3/rdock/2013.1/src/exe/rbdock.cxx#4 $)

>  <Rbt.Library>
libRbt.so (2013.1, Build901 2013/11/27)

>  <Rbt.Parameter_File>
/export/apps/rDock/src/rDock_2013.1_src/data/scripts/dock_solv.prm

>  <Rbt.Receptor>
prm/pocket_docking_4.prm

>  <SCORE>
-44.6116

>  <SCORE.INTER>
-38.9461

>  <SCORE.INTER.CONST>
1

>  <SCORE.INTER.POLAR>
-1.83719

>  <SCORE.INTER.ROT>
3

>  <SCORE.INTER.SOLV>
12.0322

>  <SCORE.INTER.VDW>
-29.4508

>  <SCORE.INTER.norm>
-1.2982

>  <SCORE.INTRA>
-5.6655

>  <SCORE.INTRA.DIHEDRAL>
-6.55224

>  <SCORE.INTRA.DIHEDRAL.0>
9.41909

>  <SCORE.INTRA.POLAR>
0

>  <SCORE.INTRA.POLAR.0>
0

>  <SCORE.INTRA.REPUL>
0

>  <SCORE.INTRA.REPUL.0>
0

>  <SCORE.INTRA.SOLV>
-0.217529

>  <SCORE.INTRA.SOLV.lig_0>
-26.2491

>  <SCORE.INTRA.VDW>
-2.28061

>  <SCORE.INTRA.VDW.0>
2.57239

>  <SCORE.INTRA.norm>
-0.18885

>  <SCORE.RESTR>
0

>  <SCORE.RESTR.CAVITY>
0

>  <SCORE.RESTR.norm>
0

>  <SCORE.SYSTEM>
0

>  <SCORE.SYSTEM.CONST>
0

>  <SCORE.SYSTEM.DIHEDRAL>
0

>  <SCORE.SYSTEM.SOLV>
0

>  <SCORE.SYSTEM.norm>
0

>  <SCORE.heavy>
30

>  <SCORE.norm>
-1.48705

>  <RMSD>
1.903

$$$$
lig.pdb
 OpenBabel11021811523D
libRbt.so/2013.1/901 2013/11/27
 30 34  0  0  0  0  0  0  0  0999 V2000
   25.2087   38.5873   21.6875 N   0  0  0  0  0  0  0  0  0  0  0  0
   26.8044   42.0466   24.8488 N   0  0  0  0  0  0  0  0  0  0  0  0
   24.5778   38.9396   20.4118 C   0  0  0  0  0  0  0  0  0  0  0  0
   25.2172   37.9367   19.4633 C   0  0  2  0  0  0  0  0  0  0  0  0
   25.0039   39.4198   22.8674 C   0  0  0  0  0  0  0  0  0  0  0  0
   23.8363   39.3809   23.6568 C   0  0  0  0  0  0  0  0  0  0  0  0
   23.6285   40.1831   24.7510 C   0  0  0  0  0  0  0  0  0  0  0  0
   24.3543   42.0104   26.2898 C   0  0  0  0  0  0  0  0  0  0  0  0
   28.9082   42.8806   24.8786 C   0  0  0  0  0  0  0  0  0  0  0  0
   28.3162   40.8928   23.3233 C   0  0  0  0  0  0  0  0  0  0  0  0
   26.0085   40.3432   23.2726 C   0  0  0  0  0  0  0  0  0  0  0  0
   24.2571   44.6905   27.7265 O   0  0  0  0  0  0  0  0  0  0  0  0
   25.2426   43.9498   27.7097 C   0  0  0  0  0  0  0  0  0  0  0  0
   26.1805   43.9881   28.6482 O   0  0  0  0  0  0  0  0  0  0  0  0
   25.4416   42.9727   26.6065 C   0  0  1  0  0  0  0  0  0  0  0  0
   23.3184   41.9305   26.9588 O   0  0  0  0  0  0  0  0  0  0  0  0
   26.6518   42.9574   25.8915 C   0  0  0  0  0  0  0  0  0  0  0  0
   28.0937   41.9923   24.3009 C   0  0  0  0  0  0  0  0  0  0  0  0
   28.1385   43.7796   26.1199 S   0  0  0  0  0  0  0  0  0  0  0  0
   25.8048   41.1539   24.4122 C   0  0  0  0  0  0  0  0  0  0  0  0
   24.6051   41.1002   25.1386 C   0  0  0  0  0  0  0  0  0  0  0  0
   22.8716   38.4916   23.3470 F   0  0  0  0  0  0  0  0  0  0  0  0
   27.1762   40.5069   22.5110 N   0  0  0  0  0  0  0  0  0  0  0  0
   26.9275   41.3334   21.3492 C   0  0  0  0  0  0  0  0  0  0  0  0
   26.4497   37.8486   21.4834 C   0  0  0  0  0  0  0  0  0  0  0  0
   24.2348   37.1401   18.7998 O   0  0  0  0  0  0  0  0  0  0  0  0
   26.0185   36.9646   20.3253 C   0  0  2  0  0  0  0  0  0  0  0  0
   27.0969   36.3925   19.4968 N   0  0  0  0  0  0  0  0  0  0  0  0
   28.1326   37.3485   19.0644 C   0  0  0  0  0  0  0  0  0  0  0  0
   27.6716   35.1623   20.0625 C   0  0  0  0  0  0  0  0  0  0  0  0
  1  5  1  0  0  0  0
  2 17  1  0  0  0  0
  3  1  1  0  0  0  0
  4  3  1  0  0  0  0
  4 26  1  1  0  0  0
  5 11  2  0  0  0  0
  5  6  1  0  0  0  0
  6  7  2  0  0  0  0
  7 21  1  0  0  0  0
  8 15  1  0  0  0  0
  8 16  2  0  0  0  0
  9 19  1  0  0  0  0
 10 18  1  0  0  0  0
 11 20  1  0  0  0  0
 13 14  1  0  0  0  0
 13 12  2  0  0  0  0
 15 13  1  1  0  0  0
 17 19  2  0  0  0  0
 17 15  1  0  0  0  0
 18  2  1  0  0  0  0
 18  9  2  0  0  0  0
 20 21  2  0  0  0  0
 20  2  1  0  0  0  0
 21  8  1  0  0  0  0
 22  6  1  0  0  0  0
 23 11  1  0  0  0  0
 23 10  1  0  0  0  0
 24 23  1  0  0  0  0
 25  1  1  0  0  0  0
 27  4  1  0  0  0  0
 27 25  1  0  0  0  0
 27 28  1  6  0  0  0
 29 28  1  0  0  0  0
 30 28  1  0  0  0  0
M  END
>  <CHROM.1>
78.53136794,-0.92239901,-53.99142184,61.53375629,66.41398012,25.92981483
40.50610883,23.58309440,1.56246718,-0.28278608,-2.30359438

>  <Name>
lig.pdb

>  <RI>
0

>  <Rbt.Current_Directory>
/home/itssahil/PROJECTS/Mol_Feturizer/New_Systems/rnas/6bfb

>  <Rbt.Executable>
rbdock ($Id: //depot/dev/client3/rdock/2013.1/src/exe/rbdock.cxx#4 $)

>  <Rbt.Library>
libRbt.so (2013.1, Build901 2013/11/27)

>  <Rbt.Parameter_File>
/export/apps/rDock/src/rDock_2013.1_src/data/scripts/dock_solv.prm

>  <Rbt.Receptor>
prm/pocket_docking_8.prm

>  <SCORE>
-42.3852

>  <SCORE.INTER>
-36.0714

>  <SCORE.INTER.CONST>
1

>  <SCORE.INTER.POLAR>
-1.13783

>  <SCORE.INTER.ROT>
3

>  <SCORE.INTER.SOLV>
11.8066

>  <SCORE.INTER.VDW>
-29.7904

>  <SCORE.INTER.norm>
-1.20238

>  <SCORE.INTRA>
-6.31378

>  <SCORE.INTRA.DIHEDRAL>
-7.48826

>  <SCORE.INTRA.DIHEDRAL.0>
9.41909

>  <SCORE.INTRA.POLAR>
0

>  <SCORE.INTRA.POLAR.0>
0

>  <SCORE.INTRA.REPUL>
0

>  <SCORE.INTRA.REPUL.0>
0

>  <SCORE.INTRA.SOLV>
-0.152939

>  <SCORE.INTRA.SOLV.lig_0>
-26.2491

>  <SCORE.INTRA.VDW>
-2.49318

>  <SCORE.INTRA.VDW.0>
2.57239

>  <SCORE.INTRA.norm>
-0.210459

>  <SCORE.RESTR>
0

>  <SCORE.RESTR.CAVITY>
0

>  <SCORE.RESTR.norm>
0

>  <SCORE.SYSTEM>
0

>  <SCORE.SYSTEM.CONST>
0

>  <SCORE.SYSTEM.DIHEDRAL>
0

>  <SCORE.SYSTEM.SOLV>
0

>  <SCORE.SYSTEM.norm>
0

>  <SCORE.heavy>
30

>  <SCORE.norm>
-1.41284

>  <RMSD>
1.904

$$$$
lig.pdb
 OpenBabel11021811523D
libRbt.so/2013.1/901 2013/11/27
 30 34  0  0  0  0  0  0  0  0999 V2000
   25.2024   38.6547   21.7486 N   0  0  0  0  0  0  0  0  0  0  0  0
   26.6277   42.1595   24.9411 N   0  0  0  0  0  0  0  0  0  0  0  0
   24.6201   38.9928   20.4463 C   0  0  0  0  0  0  0  0  0  0  0  0
   25.3076   37.9909   19.5309 C   0  0  2  0  0  0  0  0  0  0  0  0
   24.9414   39.4922   22.9140 C   0  0  0  0  0  0  0  0  0  0  0  0
   23.7460   39.4410   23.6598 C   0  0  0  0  0  0  0  0  0  0  0  0
   23.4857   40.2474   24.7395 C   0  0  0  0  0  0  0  0  0  0  0  0
   24.1265   42.0962   26.2904 C   0  0  0  0  0  0  0  0  0  0  0  0
   28.7163   43.0256   25.0426 C   0  0  0  0  0  0  0  0  0  0  0  0
   28.2122   41.0183   23.4813 C   0  0  0  0  0  0  0  0  0  0  0  0
   25.9165   40.4335   23.3492 C   0  0  0  0  0  0  0  0  0  0  0  0
   25.2397   43.8019   28.8940 O   0  0  0  0  0  0  0  0  0  0  0  0
   24.9324   44.0586   27.7279 C   0  0  0  0  0  0  0  0  0  0  0  0
   24.3500   45.1987   27.3774 O   0  0  0  0  0  0  0  0  0  0  0  0
   25.1868   43.0770   26.6401 C   0  0  1  0  0  0  0  0  0  0  0  0
   23.0678   42.0052   26.9212 O   0  0  0  0  0  0  0  0  0  0  0  0
   26.4229   43.0751   25.9706 C   0  0  0  0  0  0  0  0  0  0  0  0
   27.9372   42.1210   24.4418 C   0  0  0  0  0  0  0  0  0  0  0  0
   27.8877   43.9213   26.2478 S   0  0  0  0  0  0  0  0  0  0  0  0
   25.6584   41.2488   24.4744 C   0  0  0  0  0  0  0  0  0  0  0  0
   24.4335   41.1820   25.1562 C   0  0  0  0  0  0  0  0  0  0  0  0
   22.8068   38.5351   23.3211 F   0  0  0  0  0  0  0  0  0  0  0  0
   27.1091   40.6095   22.6302 N   0  0  0  0  0  0  0  0  0  0  0  0
   26.8914   41.4242   21.4539 C   0  0  0  0  0  0  0  0  0  0  0  0
   26.4580   37.9277   21.5997 C   0  0  0  0  0  0  0  0  0  0  0  0
   24.3610   37.1802   18.8332 O   0  0  0  0  0  0  0  0  0  0  0  0
   26.0831   37.0323   20.4308 C   0  0  2  0  0  0  0  0  0  0  0  0
   27.2000   36.4665   19.6504 N   0  0  0  0  0  0  0  0  0  0  0  0
   28.3061   37.3992   19.3677 C   0  0  0  0  0  0  0  0  0  0  0  0
   27.6754   35.1756   20.1713 C   0  0  0  0  0  0  0  0  0  0  0  0
  1  5  1  0  0  0  0
  2 17  1  0  0  0  0
  3  1  1  0  0  0  0
  4  3  1  0  0  0  0
  4 26  1  1  0  0  0
  5 11  2  0  0  0  0
  5  6  1  0  0  0  0
  6  7  2  0  0  0  0
  7 21  1  0  0  0  0
  8 15  1  0  0  0  0
  8 16  2  0  0  0  0
  9 19  1  0  0  0  0
 10 18  1  0  0  0  0
 11 20  1  0  0  0  0
 13 14  1  0  0  0  0
 13 12  2  0  0  0  0
 15 13  1  1  0  0  0
 17 19  2  0  0  0  0
 17 15  1  0  0  0  0
 18  2  1  0  0  0  0
 18  9  2  0  0  0  0
 20 21  2  0  0  0  0
 20  2  1  0  0  0  0
 21  8  1  0  0  0  0
 22  6  1  0  0  0  0
 23 11  1  0  0  0  0
 23 10  1  0  0  0  0
 24 23  1  0  0  0  0
 25  1  1  0  0  0  0
 27  4  1  0  0  0  0
 27 25  1  0  0  0  0
 27 28  1  6  0  0  0
 29 28  1  0  0  0  0
 30 28  1  0  0  0  0
M  END
>  <CHROM.1>
78.87237373,170.01151034,91.09944889,67.08433274,72.16497022,25.81330383
40.59772900,23.64526331,1.51870845,-0.27756953,-2.33024394

>  <Name>
lig.pdb

>  <RI>
0

>  <Rbt.Current_Directory>
/home/itssahil/PROJECTS/Mol_Feturizer/New_Systems/rnas/6bfb

>  <Rbt.Executable>
rbdock ($Id: //depot/dev/client3/rdock/2013.1/src/exe/rbdock.cxx#4 $)

>  <Rbt.Library>
libRbt.so (2013.1, Build901 2013/11/27)

>  <Rbt.Parameter_File>
/export/apps/rDock/src/rDock_2013.1_src/data/scripts/dock_solv.prm

>  <Rbt.Receptor>
prm/pocket_docking_8.prm

>  <SCORE>
-44.5326

>  <SCORE.INTER>
-39.0049

>  <SCORE.INTER.CONST>
1

>  <SCORE.INTER.POLAR>
-1.82816

>  <SCORE.INTER.ROT>
3

>  <SCORE.INTER.SOLV>
12.0403

>  <SCORE.INTER.VDW>
-29.5228

>  <SCORE.INTER.norm>
-1.30016

>  <SCORE.INTRA>
-5.52766

>  <SCORE.INTRA.DIHEDRAL>
-6.27066

>  <SCORE.INTRA.DIHEDRAL.0>
9.41909

>  <SCORE.INTRA.POLAR>
0

>  <SCORE.INTRA.POLAR.0>
0

>  <SCORE.INTRA.REPUL>
0

>  <SCORE.INTRA.REPUL.0>
0

>  <SCORE.INTRA.SOLV>
-0.218205

>  <SCORE.INTRA.SOLV.lig_0>
-26.2491

>  <SCORE.INTRA.VDW>
-2.28323

>  <SCORE.INTRA.VDW.0>
2.57239

>  <SCORE.INTRA.norm>
-0.184255

>  <SCORE.RESTR>
0

>  <SCORE.RESTR.CAVITY>
0

>  <SCORE.RESTR.norm>
0

>  <SCORE.SYSTEM>
0

>  <SCORE.SYSTEM.CONST>
0

>  <SCORE.SYSTEM.DIHEDRAL>
0

>  <SCORE.SYSTEM.SOLV>
0

>  <SCORE.SYSTEM.norm>
0

>  <SCORE.heavy>
30

>  <SCORE.norm>
-1.48442

>  <RMSD>
1.906

$$$$
lig.pdb
 OpenBabel11021811523D
libRbt.so/2013.1/901 2013/11/27
 30 34  0  0  0  0  0  0  0  0999 V2000
   25.1919   38.6604   21.7405 N   0  0  0  0  0  0  0  0  0  0  0  0
   26.6009   42.1722   24.9326 N   0  0  0  0  0  0  0  0  0  0  0  0
   24.5998   38.9897   20.4403 C   0  0  0  0  0  0  0  0  0  0  0  0
   25.2942   37.9941   19.5234 C   0  0  2  0  0  0  0  0  0  0  0  0
   24.9270   39.4969   22.9056 C   0  0  0  0  0  0  0  0  0  0  0  0
   23.7318   39.4404   23.6513 C   0  0  0  0  0  0  0  0  0  0  0  0
   23.4677   40.2458   24.7309 C   0  0  0  0  0  0  0  0  0  0  0  0
   24.0998   42.0977   26.2816 C   0  0  0  0  0  0  0  0  0  0  0  0
   28.6856   43.0477   25.0343 C   0  0  0  0  0  0  0  0  0  0  0  0
   28.1907   41.0379   23.4732 C   0  0  0  0  0  0  0  0  0  0  0  0
   25.8977   40.4427   23.3409 C   0  0  0  0  0  0  0  0  0  0  0  0
   25.1926   43.8034   28.8870 O   0  0  0  0  0  0  0  0  0  0  0  0
   24.8967   44.0640   27.7189 C   0  0  0  0  0  0  0  0  0  0  0  0
   24.3228   45.2077   27.3658 O   0  0  0  0  0  0  0  0  0  0  0  0
   25.1557   43.0834   26.6313 C   0  0  1  0  0  0  0  0  0  0  0  0
   23.0415   42.0020   26.9122 O   0  0  0  0  0  0  0  0  0  0  0  0
   26.3918   43.0870   25.9619 C   0  0  0  0  0  0  0  0  0  0  0  0
   27.9106   42.1396   24.4335 C   0  0  0  0  0  0  0  0  0  0  0  0
   27.8527   43.9398   26.2392 S   0  0  0  0  0  0  0  0  0  0  0  0
   25.6358   41.2570   24.4659 C   0  0  0  0  0  0  0  0  0  0  0  0
   24.4112   41.1847   25.1475 C   0  0  0  0  0  0  0  0  0  0  0  0
   22.7967   38.5302   23.3126 F   0  0  0  0  0  0  0  0  0  0  0  0
   27.0897   40.6241   22.6220 N   0  0  0  0  0  0  0  0  0  0  0  0
   26.8685   41.4375   21.4455 C   0  0  0  0  0  0  0  0  0  0  0  0
   26.4550   37.9475   21.5868 C   0  0  0  0  0  0  0  0  0  0  0  0
   24.3536   37.1715   18.8316 O   0  0  0  0  0  0  0  0  0  0  0  0
   26.0847   37.0459   20.4212 C   0  0  2  0  0  0  0  0  0  0  0  0
   27.2043   36.4914   19.6364 N   0  0  0  0  0  0  0  0  0  0  0  0
   28.3033   37.4332   19.3560 C   0  0  0  0  0  0  0  0  0  0  0  0
   27.6897   35.2016   20.1508 C   0  0  0  0  0  0  0  0  0  0  0  0
  1  5  1  0  0  0  0
  2 17  1  0  0  0  0
  3  1  1  0  0  0  0
  4  3  1  0  0  0  0
  4 26  1  1  0  0  0
  5 11  2  0  0  0  0
  5  6  1  0  0  0  0
  6  7  2  0  0  0  0
  7 21  1  0  0  0  0
  8 15  1  0  0  0  0
  8 16  2  0  0  0  0
  9 19  1  0  0  0  0
 10 18  1  0  0  0  0
 11 20  1  0  0  0  0
 13 14  1  0  0  0  0
 13 12  2  0  0  0  0
 15 13  1  1  0  0  0
 17 19  2  0  0  0  0
 17 15  1  0  0  0  0
 18  2  1  0  0  0  0
 18  9  2  0  0  0  0
 20 21  2  0  0  0  0
 20  2  1  0  0  0  0
 21  8  1  0  0  0  0
 22  6  1  0  0  0  0
 23 11  1  0  0  0  0
 23 10  1  0  0  0  0
 24 23  1  0  0  0  0
 25  1  1  0  0  0  0
 27  4  1  0  0  0  0
 27 25  1  0  0  0  0
 27 28  1  6  0  0  0
 29 28  1  0  0  0  0
 30 28  1  0  0  0  0
M  END
>  <CHROM.1>
78.38517362,171.11197483,90.36219262,66.95795569,72.62580297,25.79399287
40.60741851,23.63619629,1.51528328,-0.28137460,-2.33094508

>  <Name>
lig.pdb

>  <RI>
0

>  <Rbt.Current_Directory>
/home/itssahil/PROJECTS/Mol_Feturizer/New_Systems/rnas/6bfb

>  <Rbt.Executable>
rbdock ($Id: //depot/dev/client3/rdock/2013.1/src/exe/rbdock.cxx#4 $)

>  <Rbt.Library>
libRbt.so (2013.1, Build901 2013/11/27)

>  <Rbt.Parameter_File>
/export/apps/rDock/src/rDock_2013.1_src/data/scripts/dock_solv.prm

>  <Rbt.Receptor>
prm/pocket_docking_6.prm

>  <SCORE>
-44.5595

>  <SCORE.INTER>
-38.9929

>  <SCORE.INTER.CONST>
1

>  <SCORE.INTER.POLAR>
-1.82684

>  <SCORE.INTER.ROT>
3

>  <SCORE.INTER.SOLV>
11.9694

>  <SCORE.INTER.VDW>
-29.4956

>  <SCORE.INTER.norm>
-1.29976

>  <SCORE.INTRA>
-5.56668

>  <SCORE.INTRA.DIHEDRAL>
-6.40761

>  <SCORE.INTRA.DIHEDRAL.0>
9.41909

>  <SCORE.INTRA.POLAR>
0

>  <SCORE.INTRA.POLAR.0>
0

>  <SCORE.INTRA.REPUL>
0

>  <SCORE.INTRA.REPUL.0>
0

>  <SCORE.INTRA.SOLV>
-0.218388

>  <SCORE.INTRA.SOLV.lig_0>
-26.2491

>  <SCORE.INTRA.VDW>
-2.25368

>  <SCORE.INTRA.VDW.0>
2.57239

>  <SCORE.INTRA.norm>
-0.185556

>  <SCORE.RESTR>
0

>  <SCORE.RESTR.CAVITY>
0

>  <SCORE.RESTR.norm>
0

>  <SCORE.SYSTEM>
0

>  <SCORE.SYSTEM.CONST>
0

>  <SCORE.SYSTEM.DIHEDRAL>
0

>  <SCORE.SYSTEM.SOLV>
0

>  <SCORE.SYSTEM.norm>
0

>  <SCORE.heavy>
30

>  <SCORE.norm>
-1.48532

>  <RMSD>
1.907

$$$$
lig.pdb
 OpenBabel11021811523D
libRbt.so/2013.1/901 2013/11/27
 30 34  0  0  0  0  0  0  0  0999 V2000
   25.1578   38.5769   21.7109 N   0  0  0  0  0  0  0  0  0  0  0  0
   26.7633   42.0095   24.8963 N   0  0  0  0  0  0  0  0  0  0  0  0
   24.5577   38.9477   20.4256 C   0  0  0  0  0  0  0  0  0  0  0  0
   25.1911   37.9338   19.4848 C   0  0  2  0  0  0  0  0  0  0  0  0
   24.9508   39.4099   22.8902 C   0  0  0  0  0  0  0  0  0  0  0  0
   23.7742   39.3846   23.6667 C   0  0  0  0  0  0  0  0  0  0  0  0
   23.5648   40.1874   24.7601 C   0  0  0  0  0  0  0  0  0  0  0  0
   24.2972   42.0025   26.3103 C   0  0  0  0  0  0  0  0  0  0  0  0
   28.8773   42.8162   24.9508 C   0  0  0  0  0  0  0  0  0  0  0  0
   28.2766   40.8390   23.3852 C   0  0  0  0  0  0  0  0  0  0  0  0
   25.9628   40.3194   23.3081 C   0  0  0  0  0  0  0  0  0  0  0  0
   24.3732   43.7125   28.6373 O   0  0  0  0  0  0  0  0  0  0  0  0
   25.1949   43.9276   27.7437 C   0  0  0  0  0  0  0  0  0  0  0  0
   25.9291   45.0326   27.6998 O   0  0  0  0  0  0  0  0  0  0  0  0
   25.3934   42.9500   26.6408 C   0  0  1  0  0  0  0  0  0  0  0  0
   23.2532   41.9347   26.9678 O   0  0  0  0  0  0  0  0  0  0  0  0
   26.6111   42.9203   25.9391 C   0  0  0  0  0  0  0  0  0  0  0  0
   28.0578   41.9395   24.3625 C   0  0  0  0  0  0  0  0  0  0  0  0
   28.1057   43.7227   26.1853 S   0  0  0  0  0  0  0  0  0  0  0  0
   25.7570   41.1306   24.4471 C   0  0  0  0  0  0  0  0  0  0  0  0
   24.5489   41.0912   25.1602 C   0  0  0  0  0  0  0  0  0  0  0  0
   22.8015   38.5085   23.3446 F   0  0  0  0  0  0  0  0  0  0  0  0
   27.1408   40.4693   22.5597 N   0  0  0  0  0  0  0  0  0  0  0  0
   26.9155   41.3011   21.3969 C   0  0  0  0  0  0  0  0  0  0  0  0
   26.3852   37.8110   21.5261 C   0  0  0  0  0  0  0  0  0  0  0  0
   24.2030   37.1619   18.8010 O   0  0  0  0  0  0  0  0  0  0  0  0
   25.9549   36.9409   20.3572 C   0  0  2  0  0  0  0  0  0  0  0  0
   27.0347   36.3474   19.5458 N   0  0  0  0  0  0  0  0  0  0  0  0
   28.0986   37.2814   19.1344 C   0  0  0  0  0  0  0  0  0  0  0  0
   27.5722   35.1032   20.1175 C   0  0  0  0  0  0  0  0  0  0  0  0
  1  5  1  0  0  0  0
  2 17  1  0  0  0  0
  3  1  1  0  0  0  0
  4  3  1  0  0  0  0
  4 26  1  1  0  0  0
  5 11  2  0  0  0  0
  5  6  1  0  0  0  0
  6  7  2  0  0  0  0
  7 21  1  0  0  0  0
  8 15  1  0  0  0  0
  8 16  2  0  0  0  0
  9 19  1  0  0  0  0
 10 18  1  0  0  0  0
 11 20  1  0  0  0  0
 13 14  1  0  0  0  0
 13 12  2  0  0  0  0
 15 13  1  1  0  0  0
 17 19  2  0  0  0  0
 17 15  1  0  0  0  0
 18  2  1  0  0  0  0
 18  9  2  0  0  0  0
 20 21  2  0  0  0  0
 20  2  1  0  0  0  0
 21  8  1  0  0  0  0
 22  6  1  0  0  0  0
 23 11  1  0  0  0  0
 23 10  1  0  0  0  0
 24 23  1  0  0  0  0
 25  1  1  0  0  0  0
 27  4  1  0  0  0  0
 27 25  1  0  0  0  0
 27 28  1  6  0  0  0
 29 28  1  0  0  0  0
 30 28  1  0  0  0  0
M  END
>  <CHROM.1>
79.21384848,1.05331812,23.21555026,63.06077121,66.36228992,25.88064731,40.48761726
23.61308345,1.56210593,-0.29806190,-2.30772757

>  <Name>
lig.pdb

>  <RI>
0

>  <Rbt.Current_Directory>
/home/itssahil/PROJECTS/Mol_Feturizer/New_Systems/rnas/6bfb

>  <Rbt.Executable>
rbdock ($Id: //depot/dev/client3/rdock/2013.1/src/exe/rbdock.cxx#4 $)

>  <Rbt.Library>
libRbt.so (2013.1, Build901 2013/11/27)

>  <Rbt.Parameter_File>
/export/apps/rDock/src/rDock_2013.1_src/data/scripts/dock_solv.prm

>  <Rbt.Receptor>
prm/pocket_docking_7.prm

>  <SCORE>
-41.357

>  <SCORE.INTER>
-35.5851

>  <SCORE.INTER.CONST>
1

>  <SCORE.INTER.POLAR>
-1.15924

>  <SCORE.INTER.ROT>
3

>  <SCORE.INTER.SOLV>
12.1383

>  <SCORE.INTER.VDW>
-29.5054

>  <SCORE.INTER.norm>
-1.18617

>  <SCORE.INTRA>
-5.77189

>  <SCORE.INTRA.DIHEDRAL>
-7.48094

>  <SCORE.INTRA.DIHEDRAL.0>
9.41909

>  <SCORE.INTRA.POLAR>
0

>  <SCORE.INTRA.POLAR.0>
0

>  <SCORE.INTRA.REPUL>
0

>  <SCORE.INTRA.REPUL.0>
0

>  <SCORE.INTRA.SOLV>
-0.100017

>  <SCORE.INTRA.SOLV.lig_0>
-26.2491

>  <SCORE.INTRA.VDW>
-1.98141

>  <SCORE.INTRA.VDW.0>
2.57239

>  <SCORE.INTRA.norm>
-0.192396

>  <SCORE.RESTR>
0

>  <SCORE.RESTR.CAVITY>
0

>  <SCORE.RESTR.norm>
0

>  <SCORE.SYSTEM>
0

>  <SCORE.SYSTEM.CONST>
0

>  <SCORE.SYSTEM.DIHEDRAL>
0

>  <SCORE.SYSTEM.SOLV>
0

>  <SCORE.SYSTEM.norm>
0

>  <SCORE.heavy>
30

>  <SCORE.norm>
-1.37857

>  <RMSD>
1.908

$$$$
lig.pdb
 OpenBabel11021811523D
libRbt.so/2013.1/901 2013/11/27
 30 34  0  0  0  0  0  0  0  0999 V2000
   25.2562   38.7548   21.7303 N   0  0  0  0  0  0  0  0  0  0  0  0
   26.7143   42.1689   25.0053 N   0  0  0  0  0  0  0  0  0  0  0  0
   24.5274   39.0587   20.4950 C   0  0  0  0  0  0  0  0  0  0  0  0
   25.2251   38.1509   19.4933 C   0  0  2  0  0  0  0  0  0  0  0  0
   25.0201   39.5373   22.9384 C   0  0  0  0  0  0  0  0  0  0  0  0
   23.8578   39.4220   23.7281 C   0  0  0  0  0  0  0  0  0  0  0  0
   23.6197   40.1769   24.8494 C   0  0  0  0  0  0  0  0  0  0  0  0
   24.2725   41.9799   26.4484 C   0  0  0  0  0  0  0  0  0  0  0  0
   28.7811   43.0898   25.0598 C   0  0  0  0  0  0  0  0  0  0  0  0
   28.2686   41.1328   23.4385 C   0  0  0  0  0  0  0  0  0  0  0  0
   25.9861   40.4880   23.3731 C   0  0  0  0  0  0  0  0  0  0  0  0
   25.9603   44.1099   28.7737 O   0  0  0  0  0  0  0  0  0  0  0  0
   25.0826   43.9057   27.9323 C   0  0  0  0  0  0  0  0  0  0  0  0
   23.8866   44.4781   27.9948 O   0  0  0  0  0  0  0  0  0  0  0  0
   25.3192   42.9760   26.7960 C   0  0  1  0  0  0  0  0  0  0  0  0
   23.2431   41.8334   27.1162 O   0  0  0  0  0  0  0  0  0  0  0  0
   26.5267   43.0364   26.0788 C   0  0  0  0  0  0  0  0  0  0  0  0
   28.0030   42.1880   24.4536 C   0  0  0  0  0  0  0  0  0  0  0  0
   27.9781   43.9125   26.3325 S   0  0  0  0  0  0  0  0  0  0  0  0
   25.7519   41.2501   24.5402 C   0  0  0  0  0  0  0  0  0  0  0  0
   24.5580   41.1209   25.2664 C   0  0  0  0  0  0  0  0  0  0  0  0
   22.9305   38.5038   23.3897 F   0  0  0  0  0  0  0  0  0  0  0  0
   27.1434   40.7269   22.6156 N   0  0  0  0  0  0  0  0  0  0  0  0
   26.8562   41.5812   21.4831 C   0  0  0  0  0  0  0  0  0  0  0  0
   26.5592   38.1626   21.4497 C   0  0  0  0  0  0  0  0  0  0  0  0
   24.3045   37.2626   18.8582 O   0  0  0  0  0  0  0  0  0  0  0  0
   26.1707   37.2579   20.2925 C   0  0  2  0  0  0  0  0  0  0  0  0
   27.2628   36.8249   19.4001 N   0  0  0  0  0  0  0  0  0  0  0  0
   28.0713   37.9133   18.8211 C   0  0  0  0  0  0  0  0  0  0  0  0
   28.0931   35.7564   19.9768 C   0  0  0  0  0  0  0  0  0  0  0  0
  1  5  1  0  0  0  0
  2 17  1  0  0  0  0
  3  1  1  0  0  0  0
  4  3  1  0  0  0  0
  4 26  1  1  0  0  0
  5 11  2  0  0  0  0
  5  6  1  0  0  0  0
  6  7  2  0  0  0  0
  7 21  1  0  0  0  0
  8 15  1  0  0  0  0
  8 16  2  0  0  0  0
  9 19  1  0  0  0  0
 10 18  1  0  0  0  0
 11 20  1  0  0  0  0
 13 14  1  0  0  0  0
 13 12  2  0  0  0  0
 15 13  1  1  0  0  0
 17 19  2  0  0  0  0
 17 15  1  0  0  0  0
 18  2  1  0  0  0  0
 18  9  2  0  0  0  0
 20 21  2  0  0  0  0
 20  2  1  0  0  0  0
 21  8  1  0  0  0  0
 22  6  1  0  0  0  0
 23 11  1  0  0  0  0
 23 10  1  0  0  0  0
 24 23  1  0  0  0  0
 25  1  1  0  0  0  0
 27  4  1  0  0  0  0
 27 25  1  0  0  0  0
 27 28  1  6  0  0  0
 29 28  1  0  0  0  0
 30 28  1  0  0  0  0
M  END
>  <CHROM.1>
73.73309105,178.10936177,134.19213236,61.25811570,59.82935837,25.88758451
40.65280745,23.67158404,1.52686554,-0.31658958,-2.27377681

>  <Name>
lig.pdb

>  <RI>
0

>  <Rbt.Current_Directory>
/home/itssahil/PROJECTS/Mol_Feturizer/New_Systems/rnas/6bfb

>  <Rbt.Executable>
rbdock ($Id: //depot/dev/client3/rdock/2013.1/src/exe/rbdock.cxx#4 $)

>  <Rbt.Library>
libRbt.so (2013.1, Build901 2013/11/27)

>  <Rbt.Parameter_File>
/export/apps/rDock/src/rDock_2013.1_src/data/scripts/dock_solv.prm

>  <Rbt.Receptor>
prm/pocket_docking_2.prm

>  <SCORE>
-39.9859

>  <SCORE.INTER>
-34.7927

>  <SCORE.INTER.CONST>
1

>  <SCORE.INTER.POLAR>
-1.15147

>  <SCORE.INTER.ROT>
3

>  <SCORE.INTER.SOLV>
11.9074

>  <SCORE.INTER.VDW>
-28.926

>  <SCORE.INTER.norm>
-1.15976

>  <SCORE.INTRA>
-5.3451

>  <SCORE.INTRA.DIHEDRAL>
-7.64803

>  <SCORE.INTRA.DIHEDRAL.0>
9.41909

>  <SCORE.INTRA.POLAR>
0

>  <SCORE.INTRA.POLAR.0>
0

>  <SCORE.INTRA.REPUL>
0

>  <SCORE.INTRA.REPUL.0>
0

>  <SCORE.INTRA.SOLV>
-0.110526

>  <SCORE.INTRA.SOLV.lig_0>
-26.2491

>  <SCORE.INTRA.VDW>
-1.46582

>  <SCORE.INTRA.VDW.0>
2.57239

>  <SCORE.INTRA.norm>
-0.17817

>  <SCORE.RESTR>
0.151847

>  <SCORE.RESTR.CAVITY>
0.151847

>  <SCORE.RESTR.norm>
0.00506158

>  <SCORE.SYSTEM>
0

>  <SCORE.SYSTEM.CONST>
0

>  <SCORE.SYSTEM.DIHEDRAL>
0

>  <SCORE.SYSTEM.SOLV>
0

>  <SCORE.SYSTEM.norm>
0

>  <SCORE.heavy>
30

>  <SCORE.norm>
-1.33286

>  <RMSD>
1.909

$$$$
lig.pdb
 OpenBabel11021811523D
libRbt.so/2013.1/901 2013/11/27
 30 34  0  0  0  0  0  0  0  0999 V2000
   25.1893   38.6495   21.7522 N   0  0  0  0  0  0  0  0  0  0  0  0
   26.6219   42.1501   24.9460 N   0  0  0  0  0  0  0  0  0  0  0  0
   24.5912   38.9831   20.4559 C   0  0  0  0  0  0  0  0  0  0  0  0
   25.2789   37.9884   19.5330 C   0  0  2  0  0  0  0  0  0  0  0  0
   24.9320   39.4837   22.9207 C   0  0  0  0  0  0  0  0  0  0  0  0
   23.7403   39.4280   23.6721 C   0  0  0  0  0  0  0  0  0  0  0  0
   23.4834   40.2313   24.7550 C   0  0  0  0  0  0  0  0  0  0  0  0
   24.1274   42.0778   26.3072 C   0  0  0  0  0  0  0  0  0  0  0  0
   28.7090   43.0206   25.0397 C   0  0  0  0  0  0  0  0  0  0  0  0
   28.2020   41.0159   23.4760 C   0  0  0  0  0  0  0  0  0  0  0  0
   25.9070   40.4261   23.3535 C   0  0  0  0  0  0  0  0  0  0  0  0
   25.2271   43.7704   28.9129 O   0  0  0  0  0  0  0  0  0  0  0  0
   24.9357   44.0387   27.7454 C   0  0  0  0  0  0  0  0  0  0  0  0
   24.3735   45.1894   27.3962 O   0  0  0  0  0  0  0  0  0  0  0  0
   25.1871   43.0602   26.6541 C   0  0  1  0  0  0  0  0  0  0  0  0
   23.0719   41.9829   26.9428 O   0  0  0  0  0  0  0  0  0  0  0  0
   26.4200   43.0628   25.9787 C   0  0  0  0  0  0  0  0  0  0  0  0
   27.9291   42.1158   24.4404 C   0  0  0  0  0  0  0  0  0  0  0  0
   27.8841   43.9116   26.2509 S   0  0  0  0  0  0  0  0  0  0  0  0
   25.6525   41.2382   24.4819 C   0  0  0  0  0  0  0  0  0  0  0  0
   24.4311   41.1670   25.1693 C   0  0  0  0  0  0  0  0  0  0  0  0
   22.8016   38.5207   23.3357 F   0  0  0  0  0  0  0  0  0  0  0  0
   27.0958   40.6066   22.6293 N   0  0  0  0  0  0  0  0  0  0  0  0
   26.8707   41.4235   21.4559 C   0  0  0  0  0  0  0  0  0  0  0  0
   26.4502   37.9344   21.5903 C   0  0  0  0  0  0  0  0  0  0  0  0
   24.3331   37.1693   18.8440 O   0  0  0  0  0  0  0  0  0  0  0  0
   26.0722   37.0364   20.4244 C   0  0  2  0  0  0  0  0  0  0  0  0
   27.1865   36.4817   19.6326 N   0  0  0  0  0  0  0  0  0  0  0  0
   28.2555   37.4388   19.2941 C   0  0  0  0  0  0  0  0  0  0  0  0
   27.7150   35.2223   20.1789 C   0  0  0  0  0  0  0  0  0  0  0  0
  1  5  1  0  0  0  0
  2 17  1  0  0  0  0
  3  1  1  0  0  0  0
  4  3  1  0  0  0  0
  4 26  1  1  0  0  0
  5 11  2  0  0  0  0
  5  6  1  0  0  0  0
  6  7  2  0  0  0  0
  7 21  1  0  0  0  0
  8 15  1  0  0  0  0
  8 16  2  0  0  0  0
  9 19  1  0  0  0  0
 10 18  1  0  0  0  0
 11 20  1  0  0  0  0
 13 14  1  0  0  0  0
 13 12  2  0  0  0  0
 15 13  1  1  0  0  0
 17 19  2  0  0  0  0
 17 15  1  0  0  0  0
 18  2  1  0  0  0  0
 18  9  2  0  0  0  0
 20 21  2  0  0  0  0
 20  2  1  0  0  0  0
 21  8  1  0  0  0  0
 22  6  1  0  0  0  0
 23 11  1  0  0  0  0
 23 10  1  0  0  0  0
 24 23  1  0  0  0  0
 25  1  1  0  0  0  0
 27  4  1  0  0  0  0
 27 25  1  0  0  0  0
 27 28  1  6  0  0  0
 29 28  1  0  0  0  0
 30 28  1  0  0  0  0
M  END
>  <CHROM.1>
78.36605373,171.90508147,89.78810998,67.66648771,69.83788166,25.80562128
40.59215314,23.64908765,1.52024961,-0.28397216,-2.32615702

>  <Name>
lig.pdb

>  <RI>
0

>  <Rbt.Current_Directory>
/home/itssahil/PROJECTS/Mol_Feturizer/New_Systems/rnas/6bfb

>  <Rbt.Executable>
rbdock ($Id: //depot/dev/client3/rdock/2013.1/src/exe/rbdock.cxx#4 $)

>  <Rbt.Library>
libRbt.so (2013.1, Build901 2013/11/27)

>  <Rbt.Parameter_File>
/export/apps/rDock/src/rDock_2013.1_src/data/scripts/dock_solv.prm

>  <Rbt.Receptor>
prm/pocket_docking_5.prm

>  <SCORE>
-44.5731

>  <SCORE.INTER>
-38.8986

>  <SCORE.INTER.CONST>
1

>  <SCORE.INTER.POLAR>
-1.85645

>  <SCORE.INTER.ROT>
3

>  <SCORE.INTER.SOLV>
12.0955

>  <SCORE.INTER.VDW>
-29.3761

>  <SCORE.INTER.norm>
-1.29662

>  <SCORE.INTRA>
-5.67453

>  <SCORE.INTRA.DIHEDRAL>
-6.58246

>  <SCORE.INTRA.DIHEDRAL.0>
9.41909

>  <SCORE.INTRA.POLAR>
0

>  <SCORE.INTRA.POLAR.0>
0

>  <SCORE.INTRA.REPUL>
0

>  <SCORE.INTRA.REPUL.0>
0

>  <SCORE.INTRA.SOLV>
-0.218337

>  <SCORE.INTRA.SOLV.lig_0>
-26.2491

>  <SCORE.INTRA.VDW>
-2.27413

>  <SCORE.INTRA.VDW.0>
2.57239

>  <SCORE.INTRA.norm>
-0.189151

>  <SCORE.RESTR>
0

>  <SCORE.RESTR.CAVITY>
0

>  <SCORE.RESTR.norm>
0

>  <SCORE.SYSTEM>
0

>  <SCORE.SYSTEM.CONST>
0

>  <SCORE.SYSTEM.DIHEDRAL>
0

>  <SCORE.SYSTEM.SOLV>
0

>  <SCORE.SYSTEM.norm>
0

>  <SCORE.heavy>
30

>  <SCORE.norm>
-1.48577

>  <RMSD>
1.909

$$$$
lig.pdb
 OpenBabel11021811523D
libRbt.so/2013.1/901 2013/11/27
 30 34  0  0  0  0  0  0  0  0999 V2000
   25.1186   38.6235   21.7765 N   0  0  0  0  0  0  0  0  0  0  0  0
   26.5998   42.1742   24.8919 N   0  0  0  0  0  0  0  0  0  0  0  0
   24.5033   38.9568   20.4882 C   0  0  0  0  0  0  0  0  0  0  0  0
   25.1685   37.9526   19.5590 C   0  0  2  0  0  0  0  0  0  0  0  0
   24.8863   39.4645   22.9453 C   0  0  0  0  0  0  0  0  0  0  0  0
   23.7202   39.3983   23.7350 C   0  0  0  0  0  0  0  0  0  0  0  0
   23.4859   40.2077   24.8185 C   0  0  0  0  0  0  0  0  0  0  0  0
   24.1514   42.0778   26.3330 C   0  0  0  0  0  0  0  0  0  0  0  0
   28.6755   43.0762   24.9109 C   0  0  0  0  0  0  0  0  0  0  0  0
   28.1489   41.0498   23.3819 C   0  0  0  0  0  0  0  0  0  0  0  0
   25.8603   40.4252   23.3383 C   0  0  0  0  0  0  0  0  0  0  0  0
   25.3205   43.8159   28.8848 O   0  0  0  0  0  0  0  0  0  0  0  0
   24.9757   44.0636   27.7273 C   0  0  0  0  0  0  0  0  0  0  0  0
   24.3717   45.1962   27.3890 O   0  0  0  0  0  0  0  0  0  0  0  0
   25.2068   43.0789   26.6371 C   0  0  1  0  0  0  0  0  0  0  0  0
   23.1183   41.9732   27.0029 O   0  0  0  0  0  0  0  0  0  0  0  0
   26.4172   43.0933   25.9225 C   0  0  0  0  0  0  0  0  0  0  0  0
   27.8905   42.1545   24.3450 C   0  0  0  0  0  0  0  0  0  0  0  0
   27.8764   43.9661   26.1401 S   0  0  0  0  0  0  0  0  0  0  0  0
   25.6298   41.2439   24.4671 C   0  0  0  0  0  0  0  0  0  0  0  0
   24.4322   41.1610   25.1940 C   0  0  0  0  0  0  0  0  0  0  0  0
   22.7849   38.4742   23.4369 F   0  0  0  0  0  0  0  0  0  0  0  0
   27.0225   40.6165   22.5748 N   0  0  0  0  0  0  0  0  0  0  0  0
   26.7477   41.4191   21.4021 C   0  0  0  0  0  0  0  0  0  0  0  0
   26.3709   37.8973   21.5983 C   0  0  0  0  0  0  0  0  0  0  0  0
   24.2055   37.1387   18.8881 O   0  0  0  0  0  0  0  0  0  0  0  0
   25.9675   36.9977   20.4422 C   0  0  2  0  0  0  0  0  0  0  0  0
   27.0649   36.4304   19.6356 N   0  0  0  0  0  0  0  0  0  0  0  0
   28.1149   37.3869   19.2406 C   0  0  0  0  0  0  0  0  0  0  0  0
   27.6202   35.1918   20.2024 C   0  0  0  0  0  0  0  0  0  0  0  0
  1  5  1  0  0  0  0
  2 17  1  0  0  0  0
  3  1  1  0  0  0  0
  4  3  1  0  0  0  0
  4 26  1  1  0  0  0
  5 11  2  0  0  0  0
  5  6  1  0  0  0  0
  6  7  2  0  0  0  0
  7 21  1  0  0  0  0
  8 15  1  0  0  0  0
  8 16  2  0  0  0  0
  9 19  1  0  0  0  0
 10 18  1  0  0  0  0
 11 20  1  0  0  0  0
 13 14  1  0  0  0  0
 13 12  2  0  0  0  0
 15 13  1  1  0  0  0
 17 19  2  0  0  0  0
 17 15  1  0  0  0  0
 18  2  1  0  0  0  0
 18  9  2  0  0  0  0
 20 21  2  0  0  0  0
 20  2  1  0  0  0  0
 21  8  1  0  0  0  0
 22  6  1  0  0  0  0
 23 11  1  0  0  0  0
 23 10  1  0  0  0  0
 24 23  1  0  0  0  0
 25  1  1  0  0  0  0
 27  4  1  0  0  0  0
 27 25  1  0  0  0  0
 27 28  1  6  0  0  0
 29 28  1  0  0  0  0
 30 28  1  0  0  0  0
M  END
>  <CHROM.1>
80.02564897,169.10645959,90.52596043,64.43704052,67.98471385,25.76555125
40.58972444,23.63793184,1.53414364,-0.31599544,-2.33249766

>  <Name>
lig.pdb

>  <RI>
0

>  <Rbt.Current_Directory>
/home/itssahil/PROJECTS/Mol_Feturizer/New_Systems/rnas/6bfb

>  <Rbt.Executable>
rbdock ($Id: //depot/dev/client3/rdock/2013.1/src/exe/rbdock.cxx#4 $)

>  <Rbt.Library>
libRbt.so (2013.1, Build901 2013/11/27)

>  <Rbt.Parameter_File>
/export/apps/rDock/src/rDock_2013.1_src/data/scripts/dock_solv.prm

>  <Rbt.Receptor>
prm/pocket_docking_4.prm

>  <SCORE>
-44.2818

>  <SCORE.INTER>
-38.6402

>  <SCORE.INTER.CONST>
1

>  <SCORE.INTER.POLAR>
-1.96654

>  <SCORE.INTER.ROT>
3

>  <SCORE.INTER.SOLV>
12.1867

>  <SCORE.INTER.VDW>
-28.8673

>  <SCORE.INTER.norm>
-1.28801

>  <SCORE.INTRA>
-5.64154

>  <SCORE.INTRA.DIHEDRAL>
-6.45898

>  <SCORE.INTRA.DIHEDRAL.0>
9.41909

>  <SCORE.INTRA.POLAR>
0

>  <SCORE.INTRA.POLAR.0>
0

>  <SCORE.INTRA.REPUL>
0

>  <SCORE.INTRA.REPUL.0>
0

>  <SCORE.INTRA.SOLV>
-0.220973

>  <SCORE.INTRA.SOLV.lig_0>
-26.2491

>  <SCORE.INTRA.VDW>
-2.30157

>  <SCORE.INTRA.VDW.0>
2.57239

>  <SCORE.INTRA.norm>
-0.188051

>  <SCORE.RESTR>
0

>  <SCORE.RESTR.CAVITY>
0

>  <SCORE.RESTR.norm>
0

>  <SCORE.SYSTEM>
0

>  <SCORE.SYSTEM.CONST>
0

>  <SCORE.SYSTEM.DIHEDRAL>
0

>  <SCORE.SYSTEM.SOLV>
0

>  <SCORE.SYSTEM.norm>
0

>  <SCORE.heavy>
30

>  <SCORE.norm>
-1.47606

>  <RMSD>
1.910

$$$$
lig.pdb
 OpenBabel11021811523D
libRbt.so/2013.1/901 2013/11/27
 30 34  0  0  0  0  0  0  0  0999 V2000
   24.6826   38.1858   21.4998 N   0  0  0  0  0  0  0  0  0  0  0  0
   27.3283   41.6083   23.9067 N   0  0  0  0  0  0  0  0  0  0  0  0
   25.8182   37.3859   21.0306 C   0  0  0  0  0  0  0  0  0  0  0  0
   25.1487   36.4558   20.0301 C   0  0  2  0  0  0  0  0  0  0  0  0
   24.8434   39.1147   22.6128 C   0  0  0  0  0  0  0  0  0  0  0  0
   23.8859   39.2819   23.6341 C   0  0  0  0  0  0  0  0  0  0  0  0
   24.0211   40.1754   24.6672 C   0  0  0  0  0  0  0  0  0  0  0  0
   25.2759   41.9900   25.8362 C   0  0  0  0  0  0  0  0  0  0  0  0
   29.4658   42.1592   23.4065 C   0  0  0  0  0  0  0  0  0  0  0  0
   28.3185   40.1672   22.2078 C   0  0  0  0  0  0  0  0  0  0  0  0
   26.0113   39.9231   22.7047 C   0  0  0  0  0  0  0  0  0  0  0  0
   25.7036   44.5327   27.2448 O   0  0  0  0  0  0  0  0  0  0  0  0
   26.6741   43.8862   26.8444 C   0  0  0  0  0  0  0  0  0  0  0  0
   27.9083   44.1074   27.2801 O   0  0  0  0  0  0  0  0  0  0  0  0
   26.5084   42.8202   25.8208 C   0  0  1  0  0  0  0  0  0  0  0  0
   24.4143   42.0914   26.7162 O   0  0  0  0  0  0  0  0  0  0  0  0
   27.5177   42.5987   24.8677 C   0  0  0  0  0  0  0  0  0  0  0  0
   28.4472   41.3490   23.1028 C   0  0  0  0  0  0  0  0  0  0  0  0
   29.1011   43.2319   24.6940 S   0  0  0  0  0  0  0  0  0  0  0  0
   26.1616   40.8275   23.7803 C   0  0  0  0  0  0  0  0  0  0  0  0
   25.1574   40.9802   24.7487 C   0  0  0  0  0  0  0  0  0  0  0  0
   22.7819   38.5083   23.6232 F   0  0  0  0  0  0  0  0  0  0  0  0
   26.9893   39.8810   21.6986 N   0  0  0  0  0  0  0  0  0  0  0  0
   26.5815   40.6539   20.5448 C   0  0  0  0  0  0  0  0  0  0  0  0
   23.4141   37.5110   21.2488 C   0  0  0  0  0  0  0  0  0  0  0  0
   25.7360   36.5681   18.7330 O   0  0  0  0  0  0  0  0  0  0  0  0
   23.7102   36.9415   19.8717 C   0  0  2  0  0  0  0  0  0  0  0  0
   22.8815   35.8001   19.4392 N   0  0  0  0  0  0  0  0  0  0  0  0
   21.4292   35.9699   19.6273 C   0  0  0  0  0  0  0  0  0  0  0  0
   23.2189   35.3168   18.0915 C   0  0  0  0  0  0  0  0  0  0  0  0
  1  5  1  0  0  0  0
  2 17  1  0  0  0  0
  3  1  1  0  0  0  0
  4  3  1  0  0  0  0
  4 26  1  6  0  0  0
  5 11  2  0  0  0  0
  5  6  1  0  0  0  0
  6  7  2  0  0  0  0
  7 21  1  0  0  0  0
  8 15  1  0  0  0  0
  8 16  2  0  0  0  0
  9 19  1  0  0  0  0
 10 18  1  0  0  0  0
 11 20  1  0  0  0  0
 13 14  1  0  0  0  0
 13 12  2  0  0  0  0
 15 13  1  1  0  0  0
 17 19  2  0  0  0  0
 17 15  1  0  0  0  0
 18  2  1  0  0  0  0
 18  9  2  0  0  0  0
 20 21  2  0  0  0  0
 20  2  1  0  0  0  0
 21  8  1  0  0  0  0
 22  6  1  0  0  0  0
 23 11  1  0  0  0  0
 23 10  1  0  0  0  0
 24 23  1  0  0  0  0
 25  1  1  0  0  0  0
 27  4  1  0  0  0  0
 27 25  1  0  0  0  0
 27 28  1  1  0  0  0
 29 28  1  0  0  0  0
 30 28  1  0  0  0  0
M  END
>  <CHROM.1>
-139.02678285,-6.64039518,-35.45152890,-60.63545753,162.25883170,25.73023805
40.09549051,23.02527238,1.98376492,-0.39083491,-2.24006264

>  <Name>
lig.pdb

>  <RI>
0

>  <Rbt.Current_Directory>
/home/itssahil/PROJECTS/Mol_Feturizer/New_Systems/rnas/6bfb

>  <Rbt.Executable>
rbdock ($Id: //depot/dev/client3/rdock/2013.1/src/exe/rbdock.cxx#4 $)

>  <Rbt.Library>
libRbt.so (2013.1, Build901 2013/11/27)

>  <Rbt.Parameter_File>
/export/apps/rDock/src/rDock_2013.1_src/data/scripts/dock_solv.prm

>  <Rbt.Receptor>
prm/blind_docking_60.prm

>  <SCORE>
-39.9183

>  <SCORE.INTER>
-36.9785

>  <SCORE.INTER.CONST>
1

>  <SCORE.INTER.POLAR>
-0.208962

>  <SCORE.INTER.ROT>
3

>  <SCORE.INTER.SOLV>
14.176

>  <SCORE.INTER.VDW>
-34.2812

>  <SCORE.INTER.norm>
-1.23262

>  <SCORE.INTRA>
-2.93977

>  <SCORE.INTRA.DIHEDRAL>
-7.15521

>  <SCORE.INTRA.DIHEDRAL.0>
9.41909

>  <SCORE.INTRA.POLAR>
0

>  <SCORE.INTRA.POLAR.0>
0

>  <SCORE.INTRA.REPUL>
0

>  <SCORE.INTRA.REPUL.0>
0

>  <SCORE.INTRA.SOLV>
-0.0120005

>  <SCORE.INTRA.SOLV.lig_0>
-26.2491

>  <SCORE.INTRA.VDW>
0.643834

>  <SCORE.INTRA.VDW.0>
2.57239

>  <SCORE.INTRA.norm>
-0.0979923

>  <SCORE.RESTR>
0

>  <SCORE.RESTR.CAVITY>
0

>  <SCORE.RESTR.norm>
0

>  <SCORE.SYSTEM>
0

>  <SCORE.SYSTEM.CONST>
0

>  <SCORE.SYSTEM.DIHEDRAL>
0

>  <SCORE.SYSTEM.SOLV>
0

>  <SCORE.SYSTEM.norm>
0

>  <SCORE.heavy>
30

>  <SCORE.norm>
-1.33061

>  <RMSD>
1.918

$$$$
lig.pdb
 OpenBabel11021811523D
libRbt.so/2013.1/901 2013/11/27
 30 34  0  0  0  0  0  0  0  0999 V2000
   24.6856   38.1828   21.4790 N   0  0  0  0  0  0  0  0  0  0  0  0
   27.3416   41.5987   23.8840 N   0  0  0  0  0  0  0  0  0  0  0  0
   25.8230   37.4030   20.9812 C   0  0  0  0  0  0  0  0  0  0  0  0
   25.1478   36.4733   19.9843 C   0  0  2  0  0  0  0  0  0  0  0  0
   24.8544   39.1033   22.5977 C   0  0  0  0  0  0  0  0  0  0  0  0
   23.9079   39.2573   23.6312 C   0  0  0  0  0  0  0  0  0  0  0  0
   24.0504   40.1429   24.6701 C   0  0  0  0  0  0  0  0  0  0  0  0
   25.3094   41.9542   25.8398 C   0  0  0  0  0  0  0  0  0  0  0  0
   29.4705   42.1644   23.3642 C   0  0  0  0  0  0  0  0  0  0  0  0
   28.3195   40.1765   22.1621 C   0  0  0  0  0  0  0  0  0  0  0  0
   26.0194   39.9168   22.6831 C   0  0  0  0  0  0  0  0  0  0  0  0
   25.7492   44.5232   27.2261 O   0  0  0  0  0  0  0  0  0  0  0  0
   26.7096   43.8490   26.8477 C   0  0  0  0  0  0  0  0  0  0  0  0
   27.9388   44.0325   27.3140 O   0  0  0  0  0  0  0  0  0  0  0  0
   26.5376   42.7906   25.8173 C   0  0  1  0  0  0  0  0  0  0  0  0
   24.4574   42.0440   26.7303 O   0  0  0  0  0  0  0  0  0  0  0  0
   27.5370   42.5820   24.8510 C   0  0  0  0  0  0  0  0  0  0  0  0
   28.4525   41.3516   23.0653 C   0  0  0  0  0  0  0  0  0  0  0  0
   29.1152   43.2247   24.6645 S   0  0  0  0  0  0  0  0  0  0  0  0
   26.1774   40.8131   23.7644 C   0  0  0  0  0  0  0  0  0  0  0  0
   25.1835   40.9527   24.7453 C   0  0  0  0  0  0  0  0  0  0  0  0
   22.8076   38.4783   23.6264 F   0  0  0  0  0  0  0  0  0  0  0  0
   26.9860   39.8879   21.6657 N   0  0  0  0  0  0  0  0  0  0  0  0
   26.5613   40.6682   20.5230 C   0  0  0  0  0  0  0  0  0  0  0  0
   23.4220   37.4929   21.2451 C   0  0  0  0  0  0  0  0  0  0  0  0
   25.7092   36.6059   18.6777 O   0  0  0  0  0  0  0  0  0  0  0  0
   23.7001   36.9406   19.8572 C   0  0  2  0  0  0  0  0  0  0  0  0
   22.8791   35.7919   19.4292 N   0  0  0  0  0  0  0  0  0  0  0  0
   21.4259   35.9519   19.6184 C   0  0  0  0  0  0  0  0  0  0  0  0
   23.2184   35.3069   18.0825 C   0  0  0  0  0  0  0  0  0  0  0  0
  1  5  1  0  0  0  0
  2 17  1  0  0  0  0
  3  1  1  0  0  0  0
  4  3  1  0  0  0  0
  4 26  1  6  0  0  0
  5 11  2  0  0  0  0
  5  6  1  0  0  0  0
  6  7  2  0  0  0  0
  7 21  1  0  0  0  0
  8 15  1  0  0  0  0
  8 16  2  0  0  0  0
  9 19  1  0  0  0  0
 10 18  1  0  0  0  0
 11 20  1  0  0  0  0
 13 14  1  0  0  0  0
 13 12  2  0  0  0  0
 15 13  1  1  0  0  0
 17 19  2  0  0  0  0
 17 15  1  0  0  0  0
 18  2  1  0  0  0  0
 18  9  2  0  0  0  0
 20 21  2  0  0  0  0
 20  2  1  0  0  0  0
 21  8  1  0  0  0  0
 22  6  1  0  0  0  0
 23 11  1  0  0  0  0
 23 10  1  0  0  0  0
 24 23  1  0  0  0  0
 25  1  1  0  0  0  0
 27  4  1  0  0  0  0
 27 25  1  0  0  0  0
 27 28  1  1  0  0  0
 29 28  1  0  0  0  0
 30 28  1  0  0  0  0
M  END
>  <CHROM.1>
-139.68057900,-7.94595524,-38.32602328,62.92007447,163.54881827,25.74479267
40.08064993,23.00961180,1.98786258,-0.39996562,-2.23231428

>  <Name>
lig.pdb

>  <RI>
0

>  <Rbt.Current_Directory>
/home/itssahil/PROJECTS/Mol_Feturizer/New_Systems/rnas/6bfb

>  <Rbt.Executable>
rbdock ($Id: //depot/dev/client3/rdock/2013.1/src/exe/rbdock.cxx#4 $)

>  <Rbt.Library>
libRbt.so (2013.1, Build901 2013/11/27)

>  <Rbt.Parameter_File>
/export/apps/rDock/src/rDock_2013.1_src/data/scripts/dock_solv.prm

>  <Rbt.Receptor>
prm/pocket_docking_5.prm

>  <SCORE>
-40.2413

>  <SCORE.INTER>
-37.0346

>  <SCORE.INTER.CONST>
1

>  <SCORE.INTER.POLAR>
-0.25333

>  <SCORE.INTER.ROT>
3

>  <SCORE.INTER.SOLV>
14.2427

>  <SCORE.INTER.VDW>
-34.1928

>  <SCORE.INTER.norm>
-1.23449

>  <SCORE.INTRA>
-3.20671

>  <SCORE.INTRA.DIHEDRAL>
-7.01811

>  <SCORE.INTRA.DIHEDRAL.0>
9.41909

>  <SCORE.INTRA.POLAR>
0

>  <SCORE.INTRA.POLAR.0>
0

>  <SCORE.INTRA.REPUL>
0

>  <SCORE.INTRA.REPUL.0>
0

>  <SCORE.INTRA.SOLV>
-0.0316741

>  <SCORE.INTRA.SOLV.lig_0>
-26.2491

>  <SCORE.INTRA.VDW>
0.318183

>  <SCORE.INTRA.VDW.0>
2.57239

>  <SCORE.INTRA.norm>
-0.10689

>  <SCORE.RESTR>
0

>  <SCORE.RESTR.CAVITY>
0

>  <SCORE.RESTR.norm>
0

>  <SCORE.SYSTEM>
0

>  <SCORE.SYSTEM.CONST>
0

>  <SCORE.SYSTEM.DIHEDRAL>
0

>  <SCORE.SYSTEM.SOLV>
0

>  <SCORE.SYSTEM.norm>
0

>  <SCORE.heavy>
30

>  <SCORE.norm>
-1.34138

>  <RMSD>
1.921

$$$$
lig.pdb
 OpenBabel11021811523D
libRbt.so/2013.1/901 2013/11/27
 30 34  0  0  0  0  0  0  0  0999 V2000
   26.6227   37.5751   20.1904 N   0  0  0  0  0  0  0  0  0  0  0  0
   25.8049   40.4566   24.1320 N   0  0  0  0  0  0  0  0  0  0  0  0
   27.9317   36.9994   20.5138 C   0  0  0  0  0  0  0  0  0  0  0  0
   28.3820   36.4752   19.1585 C   0  0  2  0  0  0  0  0  0  0  0  0
   25.7446   38.0550   21.2516 C   0  0  0  0  0  0  0  0  0  0  0  0
   24.4212   37.6039   21.4331 C   0  0  0  0  0  0  0  0  0  0  0  0
   23.5829   38.0740   22.4130 C   0  0  0  0  0  0  0  0  0  0  0  0
   23.1003   39.6032   24.3268 C   0  0  0  0  0  0  0  0  0  0  0  0
   27.4021   41.6615   25.1901 C   0  0  0  0  0  0  0  0  0  0  0  0
   28.0529   40.0099   23.3007 C   0  0  0  0  0  0  0  0  0  0  0  0
   26.2064   39.0403   22.1693 C   0  0  0  0  0  0  0  0  0  0  0  0
   23.2353   41.7109   27.2878 O   0  0  0  0  0  0  0  0  0  0  0  0
   22.7758   41.2987   26.2206 C   0  0  0  0  0  0  0  0  0  0  0  0
   21.4853   41.3792   25.9203 O   0  0  0  0  0  0  0  0  0  0  0  0
   23.6587   40.6623   25.2071 C   0  0  1  0  0  0  0  0  0  0  0  0
   21.9512   39.1670   24.4544 O   0  0  0  0  0  0  0  0  0  0  0  0
   25.0051   41.0530   25.1039 C   0  0  0  0  0  0  0  0  0  0  0  0
   27.1652   40.7872   24.2074 C   0  0  0  0  0  0  0  0  0  0  0  0
   25.9869   42.0784   26.0647 S   0  0  0  0  0  0  0  0  0  0  0  0
   25.3513   39.5088   23.1924 C   0  0  0  0  0  0  0  0  0  0  0  0
   24.0289   39.0519   23.3019 C   0  0  0  0  0  0  0  0  0  0  0  0
   23.9470   36.6370   20.6220 F   0  0  0  0  0  0  0  0  0  0  0  0
   27.4843   39.6037   22.0280 N   0  0  0  0  0  0  0  0  0  0  0  0
   27.4965   40.6100   20.9878 C   0  0  0  0  0  0  0  0  0  0  0  0
   26.0874   37.0222   18.9515 C   0  0  0  0  0  0  0  0  0  0  0  0
   29.6334   37.0403   18.7653 O   0  0  0  0  0  0  0  0  0  0  0  0
   27.3671   36.9751   18.1337 C   0  0  2  0  0  0  0  0  0  0  0  0
   27.3790   36.0522   16.9827 N   0  0  0  0  0  0  0  0  0  0  0  0
   26.2168   36.1551   16.0816 C   0  0  0  0  0  0  0  0  0  0  0  0
   28.6558   36.0537   16.2521 C   0  0  0  0  0  0  0  0  0  0  0  0
  1  5  1  0  0  0  0
  2 17  1  0  0  0  0
  3  1  1  0  0  0  0
  4  3  1  0  0  0  0
  4 26  1  6  0  0  0
  5 11  2  0  0  0  0
  5  6  1  0  0  0  0
  6  7  2  0  0  0  0
  7 21  1  0  0  0  0
  8 15  1  0  0  0  0
  8 16  2  0  0  0  0
  9 19  1  0  0  0  0
 10 18  1  0  0  0  0
 11 20  1  0  0  0  0
 13 14  1  0  0  0  0
 13 12  2  0  0  0  0
 15 13  1  1  0  0  0
 17 19  2  0  0  0  0
 17 15  1  0  0  0  0
 18  2  1  0  0  0  0
 18  9  2  0  0  0  0
 20 21  2  0  0  0  0
 20  2  1  0  0  0  0
 21  8  1  0  0  0  0
 22  6  1  0  0  0  0
 23 11  1  0  0  0  0
 23 10  1  0  0  0  0
 24 23  1  0  0  0  0
 25  1  1  0  0  0  0
 27  4  1  0  0  0  0
 27 25  1  0  0  0  0
 27 28  1  6  0  0  0
 29 28  1  0  0  0  0
 30 28  1  0  0  0  0
M  END
>  <CHROM.1>
-124.21202402,-178.74305572,148.82324762,63.39373423,163.54174280,25.74284087
39.03335389,22.22622771,1.18496471,-0.23833327,-2.20232088

>  <Name>
lig.pdb

>  <RI>
0

>  <Rbt.Current_Directory>
/home/itssahil/PROJECTS/Mol_Feturizer/New_Systems/rnas/6bfb

>  <Rbt.Executable>
rbdock ($Id: //depot/dev/client3/rdock/2013.1/src/exe/rbdock.cxx#4 $)

>  <Rbt.Library>
libRbt.so (2013.1, Build901 2013/11/27)

>  <Rbt.Parameter_File>
/export/apps/rDock/src/rDock_2013.1_src/data/scripts/dock_solv.prm

>  <Rbt.Receptor>
prm/pocket_docking_4.prm

>  <SCORE>
-39.5098

>  <SCORE.INTER>
-35.7792

>  <SCORE.INTER.CONST>
1

>  <SCORE.INTER.POLAR>
-1.97374

>  <SCORE.INTER.ROT>
3

>  <SCORE.INTER.SOLV>
12.6393

>  <SCORE.INTER.VDW>
-27.0868

>  <SCORE.INTER.norm>
-1.19264

>  <SCORE.INTRA>
-3.7306

>  <SCORE.INTRA.DIHEDRAL>
-7.51634

>  <SCORE.INTRA.DIHEDRAL.0>
9.41909

>  <SCORE.INTRA.POLAR>
0

>  <SCORE.INTRA.POLAR.0>
0

>  <SCORE.INTRA.REPUL>
0.0197328

>  <SCORE.INTRA.REPUL.0>
0

>  <SCORE.INTRA.SOLV>
-0.0661943

>  <SCORE.INTRA.SOLV.lig_0>
-26.2491

>  <SCORE.INTRA.VDW>
-0.0379952

>  <SCORE.INTRA.VDW.0>
2.57239

>  <SCORE.INTRA.norm>
-0.124353

>  <SCORE.RESTR>
0

>  <SCORE.RESTR.CAVITY>
0

>  <SCORE.RESTR.norm>
0

>  <SCORE.SYSTEM>
0

>  <SCORE.SYSTEM.CONST>
0

>  <SCORE.SYSTEM.DIHEDRAL>
0

>  <SCORE.SYSTEM.SOLV>
0

>  <SCORE.SYSTEM.norm>
0

>  <SCORE.heavy>
30

>  <SCORE.norm>
-1.31699

>  <RMSD>
1.922

$$$$
lig.pdb
 OpenBabel11021811523D
libRbt.so/2013.1/901 2013/11/27
 30 34  0  0  0  0  0  0  0  0999 V2000
   26.6585   37.6450   20.2236 N   0  0  0  0  0  0  0  0  0  0  0  0
   25.7757   40.5051   24.1667 N   0  0  0  0  0  0  0  0  0  0  0  0
   27.9679   37.0744   20.5542 C   0  0  0  0  0  0  0  0  0  0  0  0
   28.4345   36.5656   19.1986 C   0  0  2  0  0  0  0  0  0  0  0  0
   25.7672   38.1096   21.2807 C   0  0  0  0  0  0  0  0  0  0  0  0
   24.4495   37.6389   21.4533 C   0  0  0  0  0  0  0  0  0  0  0  0
   23.5987   38.0945   22.4292 C   0  0  0  0  0  0  0  0  0  0  0  0
   23.0827   39.6121   24.3436 C   0  0  0  0  0  0  0  0  0  0  0  0
   27.3489   41.7306   25.2369 C   0  0  0  0  0  0  0  0  0  0  0  0
   28.0348   40.0930   23.3478 C   0  0  0  0  0  0  0  0  0  0  0  0
   26.2093   39.0993   22.2032 C   0  0  0  0  0  0  0  0  0  0  0  0
   23.1562   41.6485   27.3389 O   0  0  0  0  0  0  0  0  0  0  0  0
   22.7225   41.2984   26.2392 C   0  0  0  0  0  0  0  0  0  0  0  0
   21.4468   41.4347   25.8985 O   0  0  0  0  0  0  0  0  0  0  0  0
   23.6204   40.6772   25.2296 C   0  0  1  0  0  0  0  0  0  0  0  0
   21.9393   39.1590   24.4633 O   0  0  0  0  0  0  0  0  0  0  0  0
   24.9616   41.0876   25.1352 C   0  0  0  0  0  0  0  0  0  0  0  0
   27.1306   40.8553   24.2509 C   0  0  0  0  0  0  0  0  0  0  0  0
   25.9228   42.1249   26.1041 S   0  0  0  0  0  0  0  0  0  0  0  0
   25.3415   39.5530   23.2223 C   0  0  0  0  0  0  0  0  0  0  0  0
   24.0252   39.0767   23.3230 C   0  0  0  0  0  0  0  0  0  0  0  0
   23.9942   36.6672   20.6373 F   0  0  0  0  0  0  0  0  0  0  0  0
   27.4796   39.6816   22.0708 N   0  0  0  0  0  0  0  0  0  0  0  0
   27.4834   40.6904   21.0329 C   0  0  0  0  0  0  0  0  0  0  0  0
   26.1385   37.1002   18.9745 C   0  0  0  0  0  0  0  0  0  0  0  0
   29.6860   37.1420   18.8227 O   0  0  0  0  0  0  0  0  0  0  0  0
   27.4262   37.0686   18.1687 C   0  0  2  0  0  0  0  0  0  0  0  0
   27.4550   36.1565   17.0094 N   0  0  0  0  0  0  0  0  0  0  0  0
   26.2924   36.2483   16.1076 C   0  0  0  0  0  0  0  0  0  0  0  0
   28.7325   36.1856   16.2809 C   0  0  0  0  0  0  0  0  0  0  0  0
  1  5  1  0  0  0  0
  2 17  1  0  0  0  0
  3  1  1  0  0  0  0
  4  3  1  0  0  0  0
  4 26  1  6  0  0  0
  5 11  2  0  0  0  0
  5  6  1  0  0  0  0
  6  7  2  0  0  0  0
  7 21  1  0  0  0  0
  8 15  1  0  0  0  0
  8 16  2  0  0  0  0
  9 19  1  0  0  0  0
 10 18  1  0  0  0  0
 11 20  1  0  0  0  0
 13 14  1  0  0  0  0
 13 12  2  0  0  0  0
 15 13  1  1  0  0  0
 17 19  2  0  0  0  0
 17 15  1  0  0  0  0
 18  2  1  0  0  0  0
 18  9  2  0  0  0  0
 20 21  2  0  0  0  0
 20  2  1  0  0  0  0
 21  8  1  0  0  0  0
 22  6  1  0  0  0  0
 23 11  1  0  0  0  0
 23 10  1  0  0  0  0
 24 23  1  0  0  0  0
 25  1  1  0  0  0  0
 27  4  1  0  0  0  0
 27 25  1  0  0  0  0
 27 28  1  6  0  0  0
 29 28  1  0  0  0  0
 30 28  1  0  0  0  0
M  END
>  <CHROM.1>
-123.55874966,-175.83768028,144.85233385,63.24726553,162.79057810,25.74502796
39.08742176,22.25649659,1.17147648,-0.24455321,-2.20173332

>  <Name>
lig.pdb

>  <RI>
0

>  <Rbt.Current_Directory>
/home/itssahil/PROJECTS/Mol_Feturizer/New_Systems/rnas/6bfb

>  <Rbt.Executable>
rbdock ($Id: //depot/dev/client3/rdock/2013.1/src/exe/rbdock.cxx#4 $)

>  <Rbt.Library>
libRbt.so (2013.1, Build901 2013/11/27)

>  <Rbt.Parameter_File>
/export/apps/rDock/src/rDock_2013.1_src/data/scripts/dock_solv.prm

>  <Rbt.Receptor>
prm/pocket_docking_7.prm

>  <SCORE>
-39.6048

>  <SCORE.INTER>
-35.6985

>  <SCORE.INTER.CONST>
1

>  <SCORE.INTER.POLAR>
-1.97074

>  <SCORE.INTER.ROT>
3

>  <SCORE.INTER.SOLV>
12.5997

>  <SCORE.INTER.VDW>
-27.0297

>  <SCORE.INTER.norm>
-1.18995

>  <SCORE.INTRA>
-3.90629

>  <SCORE.INTRA.DIHEDRAL>
-7.40283

>  <SCORE.INTRA.DIHEDRAL.0>
9.41909

>  <SCORE.INTRA.POLAR>
0

>  <SCORE.INTRA.POLAR.0>
0

>  <SCORE.INTRA.REPUL>
0.02142

>  <SCORE.INTRA.REPUL.0>
0

>  <SCORE.INTRA.SOLV>
-0.0800334

>  <SCORE.INTRA.SOLV.lig_0>
-26.2491

>  <SCORE.INTRA.VDW>
-0.271956

>  <SCORE.INTRA.VDW.0>
2.57239

>  <SCORE.INTRA.norm>
-0.13021

>  <SCORE.RESTR>
0

>  <SCORE.RESTR.CAVITY>
0

>  <SCORE.RESTR.norm>
0

>  <SCORE.SYSTEM>
0

>  <SCORE.SYSTEM.CONST>
0

>  <SCORE.SYSTEM.DIHEDRAL>
0

>  <SCORE.SYSTEM.SOLV>
0

>  <SCORE.SYSTEM.norm>
0

>  <SCORE.heavy>
30

>  <SCORE.norm>
-1.32016

>  <RMSD>
1.931

$$$$
lig.pdb
 OpenBabel11021811523D
libRbt.so/2013.1/901 2013/11/27
 30 34  0  0  0  0  0  0  0  0999 V2000
   25.2006   38.6120   21.7483 N   0  0  0  0  0  0  0  0  0  0  0  0
   26.7312   42.0453   24.9696 N   0  0  0  0  0  0  0  0  0  0  0  0
   24.5843   38.9633   20.4653 C   0  0  0  0  0  0  0  0  0  0  0  0
   25.2475   37.9711   19.5219 C   0  0  2  0  0  0  0  0  0  0  0  0
   24.9703   39.4374   22.9287 C   0  0  0  0  0  0  0  0  0  0  0  0
   23.7843   39.3968   23.6900 C   0  0  0  0  0  0  0  0  0  0  0  0
   23.5530   40.1924   24.7843 C   0  0  0  0  0  0  0  0  0  0  0  0
   24.2476   42.0073   26.3519 C   0  0  0  0  0  0  0  0  0  0  0  0
   28.8362   42.8726   25.0546 C   0  0  0  0  0  0  0  0  0  0  0  0
   28.2753   40.8969   23.4725 C   0  0  0  0  0  0  0  0  0  0  0  0
   25.9679   40.3549   23.3636 C   0  0  0  0  0  0  0  0  0  0  0  0
   24.3376   43.6710   28.7314 O   0  0  0  0  0  0  0  0  0  0  0  0
   25.1078   43.9344   27.8055 C   0  0  0  0  0  0  0  0  0  0  0  0
   25.7628   45.0864   27.7274 O   0  0  0  0  0  0  0  0  0  0  0  0
   25.3300   42.9640   26.7007 C   0  0  1  0  0  0  0  0  0  0  0  0
   23.1960   41.9261   26.9958 O   0  0  0  0  0  0  0  0  0  0  0  0
   26.5567   42.9497   26.0145 C   0  0  0  0  0  0  0  0  0  0  0  0
   28.0330   41.9907   24.4520 C   0  0  0  0  0  0  0  0  0  0  0  0
   28.0400   43.7657   26.2834 S   0  0  0  0  0  0  0  0  0  0  0  0
   25.7396   41.1587   24.5035 C   0  0  0  0  0  0  0  0  0  0  0  0
   24.5230   41.1039   25.2010 C   0  0  0  0  0  0  0  0  0  0  0  0
   22.8245   38.5126   23.3515 F   0  0  0  0  0  0  0  0  0  0  0  0
   27.1537   40.5200   22.6310 N   0  0  0  0  0  0  0  0  0  0  0  0
   26.9349   41.3549   21.4692 C   0  0  0  0  0  0  0  0  0  0  0  0
   26.4519   37.8869   21.5590 C   0  0  0  0  0  0  0  0  0  0  0  0
   24.2829   37.1673   18.8410 O   0  0  0  0  0  0  0  0  0  0  0  0
   26.0464   37.0035   20.3912 C   0  0  2  0  0  0  0  0  0  0  0  0
   27.1424   36.4461   19.5759 N   0  0  0  0  0  0  0  0  0  0  0  0
   28.1713   37.4155   19.1578 C   0  0  0  0  0  0  0  0  0  0  0  0
   27.7252   35.2224   20.1475 C   0  0  0  0  0  0  0  0  0  0  0  0
  1  5  1  0  0  0  0
  2 17  1  0  0  0  0
  3  1  1  0  0  0  0
  4  3  1  0  0  0  0
  4 26  1  1  0  0  0
  5 11  2  0  0  0  0
  5  6  1  0  0  0  0
  6  7  2  0  0  0  0
  7 21  1  0  0  0  0
  8 15  1  0  0  0  0
  8 16  2  0  0  0  0
  9 19  1  0  0  0  0
 10 18  1  0  0  0  0
 11 20  1  0  0  0  0
 13 14  1  0  0  0  0
 13 12  2  0  0  0  0
 15 13  1  1  0  0  0
 17 19  2  0  0  0  0
 17 15  1  0  0  0  0
 18  2  1  0  0  0  0
 18  9  2  0  0  0  0
 20 21  2  0  0  0  0
 20  2  1  0  0  0  0
 21  8  1  0  0  0  0
 22  6  1  0  0  0  0
 23 11  1  0  0  0  0
 23 10  1  0  0  0  0
 24 23  1  0  0  0  0
 25  1  1  0  0  0  0
 27  4  1  0  0  0  0
 27 25  1  0  0  0  0
 27 28  1  6  0  0  0
 29 28  1  0  0  0  0
 30 28  1  0  0  0  0
M  END
>  <CHROM.1>
77.59034062,0.09381806,27.70463095,61.79322685,66.17756600,25.88029990,40.52504189
23.66536619,1.54444982,-0.29850077,-2.30637980

>  <Name>
lig.pdb

>  <RI>
0

>  <Rbt.Current_Directory>
/home/itssahil/PROJECTS/Mol_Feturizer/New_Systems/rnas/6bfb

>  <Rbt.Executable>
rbdock ($Id: //depot/dev/client3/rdock/2013.1/src/exe/rbdock.cxx#4 $)

>  <Rbt.Library>
libRbt.so (2013.1, Build901 2013/11/27)

>  <Rbt.Parameter_File>
/export/apps/rDock/src/rDock_2013.1_src/data/scripts/dock_solv.prm

>  <Rbt.Receptor>
prm/pocket_docking_8.prm

>  <SCORE>
-41.3285

>  <SCORE.INTER>
-35.479

>  <SCORE.INTER.CONST>
1

>  <SCORE.INTER.POLAR>
-1.07553

>  <SCORE.INTER.ROT>
3

>  <SCORE.INTER.SOLV>
12.1812

>  <SCORE.INTER.VDW>
-29.728

>  <SCORE.INTER.norm>
-1.18263

>  <SCORE.INTRA>
-5.84952

>  <SCORE.INTRA.DIHEDRAL>
-7.51962

>  <SCORE.INTRA.DIHEDRAL.0>
9.41909

>  <SCORE.INTRA.POLAR>
0

>  <SCORE.INTRA.POLAR.0>
0

>  <SCORE.INTRA.REPUL>
0

>  <SCORE.INTRA.REPUL.0>
0

>  <SCORE.INTRA.SOLV>
-0.106757

>  <SCORE.INTRA.SOLV.lig_0>
-26.2491

>  <SCORE.INTRA.VDW>
-2.03633

>  <SCORE.INTRA.VDW.0>
2.57239

>  <SCORE.INTRA.norm>
-0.194984

>  <SCORE.RESTR>
0

>  <SCORE.RESTR.CAVITY>
0

>  <SCORE.RESTR.norm>
0

>  <SCORE.SYSTEM>
0

>  <SCORE.SYSTEM.CONST>
0

>  <SCORE.SYSTEM.DIHEDRAL>
0

>  <SCORE.SYSTEM.SOLV>
0

>  <SCORE.SYSTEM.norm>
0

>  <SCORE.heavy>
30

>  <SCORE.norm>
-1.37762

>  <RMSD>
1.938

$$$$
lig.pdb
 OpenBabel11021811523D
libRbt.so/2013.1/901 2013/11/27
 30 34  0  0  0  0  0  0  0  0999 V2000
   24.7012   37.9577   21.2140 N   0  0  0  0  0  0  0  0  0  0  0  0
   27.4123   41.3517   23.5883 N   0  0  0  0  0  0  0  0  0  0  0  0
   25.7881   37.0582   20.8151 C   0  0  0  0  0  0  0  0  0  0  0  0
   25.0947   36.1695   19.7935 C   0  0  2  0  0  0  0  0  0  0  0  0
   24.8826   38.8893   22.3215 C   0  0  0  0  0  0  0  0  0  0  0  0
   23.9341   39.0757   23.3478 C   0  0  0  0  0  0  0  0  0  0  0  0
   24.0889   39.9720   24.3757 C   0  0  0  0  0  0  0  0  0  0  0  0
   25.3777   41.7732   25.5283 C   0  0  0  0  0  0  0  0  0  0  0  0
   29.5547   41.8682   23.0725 C   0  0  0  0  0  0  0  0  0  0  0  0
   28.3706   39.8879   21.8904 C   0  0  0  0  0  0  0  0  0  0  0  0
   26.0631   39.6806   22.4024 C   0  0  0  0  0  0  0  0  0  0  0  0
   26.0284   43.7674   27.4653 O   0  0  0  0  0  0  0  0  0  0  0  0
   26.8101   43.6531   26.5188 C   0  0  0  0  0  0  0  0  0  0  0  0
   27.8400   44.4713   26.3406 O   0  0  0  0  0  0  0  0  0  0  0  0
   26.6223   42.5848   25.5014 C   0  0  1  0  0  0  0  0  0  0  0  0
   24.5231   41.8916   26.4130 O   0  0  0  0  0  0  0  0  0  0  0  0
   27.6223   42.3437   24.5433 C   0  0  0  0  0  0  0  0  0  0  0  0
   28.5223   41.0719   22.7789 C   0  0  0  0  0  0  0  0  0  0  0  0
   29.2139   42.9524   24.3569 S   0  0  0  0  0  0  0  0  0  0  0  0
   26.2334   40.5878   23.4727 C   0  0  0  0  0  0  0  0  0  0  0  0
   25.2375   40.7601   24.4464 C   0  0  0  0  0  0  0  0  0  0  0  0
   22.8186   38.3186   23.3473 F   0  0  0  0  0  0  0  0  0  0  0  0
   27.0341   39.6192   21.3907 N   0  0  0  0  0  0  0  0  0  0  0  0
   26.6309   40.3926   20.2356 C   0  0  0  0  0  0  0  0  0  0  0  0
   23.3950   37.3861   20.9064 C   0  0  0  0  0  0  0  0  0  0  0  0
   25.7543   36.2100   18.5273 O   0  0  0  0  0  0  0  0  0  0  0  0
   23.7118   36.7701   19.5541 C   0  0  2  0  0  0  0  0  0  0  0  0
   22.8134   35.6939   19.0944 N   0  0  0  0  0  0  0  0  0  0  0  0
   21.3960   35.8559   19.4658 C   0  0  0  0  0  0  0  0  0  0  0  0
   22.9852   35.3642   17.6711 C   0  0  0  0  0  0  0  0  0  0  0  0
  1  5  1  0  0  0  0
  2 17  1  0  0  0  0
  3  1  1  0  0  0  0
  4  3  1  0  0  0  0
  4 26  1  6  0  0  0
  5 11  2  0  0  0  0
  5  6  1  0  0  0  0
  6  7  2  0  0  0  0
  7 21  1  0  0  0  0
  8 15  1  0  0  0  0
  8 16  2  0  0  0  0
  9 19  1  0  0  0  0
 10 18  1  0  0  0  0
 11 20  1  0  0  0  0
 13 14  1  0  0  0  0
 13 12  2  0  0  0  0
 15 13  1  1  0  0  0
 17 19  2  0  0  0  0
 17 15  1  0  0  0  0
 18  2  1  0  0  0  0
 18  9  2  0  0  0  0
 20 21  2  0  0  0  0
 20  2  1  0  0  0  0
 21  8  1  0  0  0  0
 22  6  1  0  0  0  0
 23 11  1  0  0  0  0
 23 10  1  0  0  0  0
 24 23  1  0  0  0  0
 25  1  1  0  0  0  0
 27  4  1  0  0  0  0
 27 25  1  0  0  0  0
 27 28  1  1  0  0  0
 29 28  1  0  0  0  0
 30 28  1  0  0  0  0
M  END
>  <CHROM.1>
-133.86532214,11.88420059,8.46159872,160.91206636,149.63344361,25.77540735
39.86959690,22.71859475,2.00381667,-0.39179926,-2.23186818

>  <Name>
lig.pdb

>  <RI>
0

>  <Rbt.Current_Directory>
/home/itssahil/PROJECTS/Mol_Feturizer/New_Systems/rnas/6bfb

>  <Rbt.Executable>
rbdock ($Id: //depot/dev/client3/rdock/2013.1/src/exe/rbdock.cxx#4 $)

>  <Rbt.Library>
libRbt.so (2013.1, Build901 2013/11/27)

>  <Rbt.Parameter_File>
/export/apps/rDock/src/rDock_2013.1_src/data/scripts/dock_solv.prm

>  <Rbt.Receptor>
prm/blind_docking_80.prm

>  <SCORE>
-37.3051

>  <SCORE.INTER>
-36.0408

>  <SCORE.INTER.CONST>
1

>  <SCORE.INTER.POLAR>
-0.471987

>  <SCORE.INTER.ROT>
3

>  <SCORE.INTER.SOLV>
13.608

>  <SCORE.INTER.VDW>
-32.5899

>  <SCORE.INTER.norm>
-1.20136

>  <SCORE.INTRA>
-1.26435

>  <SCORE.INTRA.DIHEDRAL>
-4.39235

>  <SCORE.INTRA.DIHEDRAL.0>
9.41909

>  <SCORE.INTRA.POLAR>
0

>  <SCORE.INTRA.POLAR.0>
0

>  <SCORE.INTRA.REPUL>
0

>  <SCORE.INTRA.REPUL.0>
0

>  <SCORE.INTRA.SOLV>
-0.0103713

>  <SCORE.INTRA.SOLV.lig_0>
-26.2491

>  <SCORE.INTRA.VDW>
0.937016

>  <SCORE.INTRA.VDW.0>
2.57239

>  <SCORE.INTRA.norm>
-0.0421448

>  <SCORE.RESTR>
0

>  <SCORE.RESTR.CAVITY>
0

>  <SCORE.RESTR.norm>
0

>  <SCORE.SYSTEM>
0

>  <SCORE.SYSTEM.CONST>
0

>  <SCORE.SYSTEM.DIHEDRAL>
0

>  <SCORE.SYSTEM.SOLV>
0

>  <SCORE.SYSTEM.norm>
0

>  <SCORE.heavy>
30

>  <SCORE.norm>
-1.2435

>  <RMSD>
1.939

$$$$
lig.pdb
 OpenBabel11021811523D
libRbt.so/2013.1/901 2013/11/27
 30 34  0  0  0  0  0  0  0  0999 V2000
   25.2015   38.6163   21.7365 N   0  0  0  0  0  0  0  0  0  0  0  0
   26.7292   42.0583   24.9499 N   0  0  0  0  0  0  0  0  0  0  0  0
   24.5739   38.9699   20.4596 C   0  0  0  0  0  0  0  0  0  0  0  0
   25.2354   37.9854   19.5070 C   0  0  2  0  0  0  0  0  0  0  0  0
   24.9756   39.4352   22.9222 C   0  0  0  0  0  0  0  0  0  0  0  0
   23.7994   39.3779   23.6976 C   0  0  0  0  0  0  0  0  0  0  0  0
   23.5718   40.1672   24.7972 C   0  0  0  0  0  0  0  0  0  0  0  0
   24.2632   41.9857   26.3621 C   0  0  0  0  0  0  0  0  0  0  0  0
   28.8248   42.9109   25.0122 C   0  0  0  0  0  0  0  0  0  0  0  0
   28.2688   40.9333   23.4307 C   0  0  0  0  0  0  0  0  0  0  0  0
   25.9670   40.3635   23.3480 C   0  0  0  0  0  0  0  0  0  0  0  0
   24.0878   44.5950   27.8646 O   0  0  0  0  0  0  0  0  0  0  0  0
   25.1174   43.9188   27.8112 C   0  0  0  0  0  0  0  0  0  0  0  0
   26.0847   44.0186   28.7148 O   0  0  0  0  0  0  0  0  0  0  0  0
   25.3379   42.9545   26.7008 C   0  0  1  0  0  0  0  0  0  0  0  0
   23.2205   41.8898   27.0183 O   0  0  0  0  0  0  0  0  0  0  0  0
   26.5564   42.9573   25.9997 C   0  0  0  0  0  0  0  0  0  0  0  0
   28.0252   42.0211   24.4165 C   0  0  0  0  0  0  0  0  0  0  0  0
   28.0328   43.7905   26.2533 S   0  0  0  0  0  0  0  0  0  0  0  0
   25.7428   41.1610   24.4931 C   0  0  0  0  0  0  0  0  0  0  0  0
   24.5355   41.0893   25.2050 C   0  0  0  0  0  0  0  0  0  0  0  0
   22.8465   38.4830   23.3680 F   0  0  0  0  0  0  0  0  0  0  0  0
   27.1418   40.5453   22.6016 N   0  0  0  0  0  0  0  0  0  0  0  0
   26.8988   41.3810   21.4452 C   0  0  0  0  0  0  0  0  0  0  0  0
   26.4553   37.8988   21.5348 C   0  0  0  0  0  0  0  0  0  0  0  0
   24.2702   37.1795   18.8297 O   0  0  0  0  0  0  0  0  0  0  0  0
   26.0459   37.0183   20.3661 C   0  0  2  0  0  0  0  0  0  0  0  0
   27.1388   36.4704   19.5403 N   0  0  0  0  0  0  0  0  0  0  0  0
   28.1744   37.4414   19.1425 C   0  0  0  0  0  0  0  0  0  0  0  0
   27.7132   35.2316   20.0873 C   0  0  0  0  0  0  0  0  0  0  0  0
  1  5  1  0  0  0  0
  2 17  1  0  0  0  0
  3  1  1  0  0  0  0
  4  3  1  0  0  0  0
  4 26  1  1  0  0  0
  5 11  2  0  0  0  0
  5  6  1  0  0  0  0
  6  7  2  0  0  0  0
  7 21  1  0  0  0  0
  8 15  1  0  0  0  0
  8 16  2  0  0  0  0
  9 19  1  0  0  0  0
 10 18  1  0  0  0  0
 11 20  1  0  0  0  0
 13 14  1  0  0  0  0
 13 12  2  0  0  0  0
 15 13  1  1  0  0  0
 17 19  2  0  0  0  0
 17 15  1  0  0  0  0
 18  2  1  0  0  0  0
 18  9  2  0  0  0  0
 20 21  2  0  0  0  0
 20  2  1  0  0  0  0
 21  8  1  0  0  0  0
 22  6  1  0  0  0  0
 23 11  1  0  0  0  0
 23 10  1  0  0  0  0
 24 23  1  0  0  0  0
 25  1  1  0  0  0  0
 27  4  1  0  0  0  0
 27 25  1  0  0  0  0
 27 28  1  6  0  0  0
 29 28  1  0  0  0  0
 30 28  1  0  0  0  0
M  END
>  <CHROM.1>
78.07137969,1.76320940,-49.76474532,66.70200991,67.40338346,25.88360398,40.52339236
23.65826098,1.54736381,-0.28203557,-2.29786606

>  <Name>
lig.pdb

>  <RI>
0

>  <Rbt.Current_Directory>
/home/itssahil/PROJECTS/Mol_Feturizer/New_Systems/rnas/6bfb

>  <Rbt.Executable>
rbdock ($Id: //depot/dev/client3/rdock/2013.1/src/exe/rbdock.cxx#4 $)

>  <Rbt.Library>
libRbt.so (2013.1, Build901 2013/11/27)

>  <Rbt.Parameter_File>
/export/apps/rDock/src/rDock_2013.1_src/data/scripts/dock_solv.prm

>  <Rbt.Receptor>
prm/pocket_docking_3.prm

>  <SCORE>
-42.4195

>  <SCORE.INTER>
-36.2182

>  <SCORE.INTER.CONST>
1

>  <SCORE.INTER.POLAR>
-1.08031

>  <SCORE.INTER.ROT>
3

>  <SCORE.INTER.SOLV>
11.9111

>  <SCORE.INTER.VDW>
-30.1148

>  <SCORE.INTER.norm>
-1.20727

>  <SCORE.INTRA>
-6.20128

>  <SCORE.INTRA.DIHEDRAL>
-7.24653

>  <SCORE.INTRA.DIHEDRAL.0>
9.41909

>  <SCORE.INTRA.POLAR>
0

>  <SCORE.INTRA.POLAR.0>
0

>  <SCORE.INTRA.REPUL>
0

>  <SCORE.INTRA.REPUL.0>
0

>  <SCORE.INTRA.SOLV>
-0.145463

>  <SCORE.INTRA.SOLV.lig_0>
-26.2491

>  <SCORE.INTRA.VDW>
-2.50528

>  <SCORE.INTRA.VDW.0>
2.57239

>  <SCORE.INTRA.norm>
-0.206709

>  <SCORE.RESTR>
0

>  <SCORE.RESTR.CAVITY>
0

>  <SCORE.RESTR.norm>
0

>  <SCORE.SYSTEM>
0

>  <SCORE.SYSTEM.CONST>
0

>  <SCORE.SYSTEM.DIHEDRAL>
0

>  <SCORE.SYSTEM.SOLV>
0

>  <SCORE.SYSTEM.norm>
0

>  <SCORE.heavy>
30

>  <SCORE.norm>
-1.41398

>  <RMSD>
1.939

$$$$
lig.pdb
 OpenBabel11021811523D
libRbt.so/2013.1/901 2013/11/27
 30 34  0  0  0  0  0  0  0  0999 V2000
   25.7570   36.5991   20.1080 N   0  0  0  0  0  0  0  0  0  0  0  0
   26.3572   40.0242   23.6316 N   0  0  0  0  0  0  0  0  0  0  0  0
   26.3934   35.3222   20.4454 C   0  0  0  0  0  0  0  0  0  0  0  0
   26.6209   34.7169   19.0683 C   0  0  2  0  0  0  0  0  0  0  0  0
   25.2077   37.4504   21.1574 C   0  0  0  0  0  0  0  0  0  0  0  0
   23.8446   37.4645   21.5171 C   0  0  0  0  0  0  0  0  0  0  0  0
   23.3196   38.2847   22.4844 C   0  0  0  0  0  0  0  0  0  0  0  0
   23.5695   40.0973   24.1832 C   0  0  0  0  0  0  0  0  0  0  0  0
   28.3649   40.7761   24.3570 C   0  0  0  0  0  0  0  0  0  0  0  0
   28.2402   38.7978   22.6861 C   0  0  0  0  0  0  0  0  0  0  0  0
   26.0585   38.3379   21.8747 C   0  0  0  0  0  0  0  0  0  0  0  0
   23.0636   42.7443   25.5419 O   0  0  0  0  0  0  0  0  0  0  0  0
   24.0163   42.0143   25.8239 C   0  0  0  0  0  0  0  0  0  0  0  0
   24.6450   42.0799   26.9912 O   0  0  0  0  0  0  0  0  0  0  0  0
   24.5289   41.0196   24.8445 C   0  0  1  0  0  0  0  0  0  0  0  0
   22.3686   40.0642   24.4726 O   0  0  0  0  0  0  0  0  0  0  0  0
   25.9056   40.9504   24.5689 C   0  0  0  0  0  0  0  0  0  0  0  0
   27.7518   39.9146   23.5397 C   0  0  0  0  0  0  0  0  0  0  0  0
   27.2654   41.7163   25.2781 S   0  0  0  0  0  0  0  0  0  0  0  0
   25.5227   39.1669   22.8863 C   0  0  0  0  0  0  0  0  0  0  0  0
   24.1495   39.1669   23.1759 C   0  0  0  0  0  0  0  0  0  0  0  0
   23.0014   36.6105   20.9030 F   0  0  0  0  0  0  0  0  0  0  0  0
   27.4176   38.4487   21.5418 N   0  0  0  0  0  0  0  0  0  0  0  0
   27.5992   39.2730   20.3660 C   0  0  0  0  0  0  0  0  0  0  0  0
   25.1764   36.5695   18.7703 C   0  0  0  0  0  0  0  0  0  0  0  0
   27.9997   34.4171   18.8468 O   0  0  0  0  0  0  0  0  0  0  0  0
   26.2679   35.7969   18.0489 C   0  0  2  0  0  0  0  0  0  0  0  0
   25.8822   35.1347   16.7882 N   0  0  0  0  0  0  0  0  0  0  0  0
   24.5248   34.5596   16.7692 C   0  0  0  0  0  0  0  0  0  0  0  0
   26.1615   35.9503   15.5963 C   0  0  0  0  0  0  0  0  0  0  0  0
  1  5  1  0  0  0  0
  2 17  1  0  0  0  0
  3  1  1  0  0  0  0
  4  3  1  0  0  0  0
  4 26  1  1  0  0  0
  5 11  2  0  0  0  0
  5  6  1  0  0  0  0
  6  7  2  0  0  0  0
  7 21  1  0  0  0  0
  8 15  1  0  0  0  0
  8 16  2  0  0  0  0
  9 19  1  0  0  0  0
 10 18  1  0  0  0  0
 11 20  1  0  0  0  0
 13 14  1  0  0  0  0
 13 12  2  0  0  0  0
 15 13  1  1  0  0  0
 17 19  2  0  0  0  0
 17 15  1  0  0  0  0
 18  2  1  0  0  0  0
 18  9  2  0  0  0  0
 20 21  2  0  0  0  0
 20  2  1  0  0  0  0
 21  8  1  0  0  0  0
 22  6  1  0  0  0  0
 23 11  1  0  0  0  0
 23 10  1  0  0  0  0
 24 23  1  0  0  0  0
 25  1  1  0  0  0  0
 27  4  1  0  0  0  0
 27 25  1  0  0  0  0
 27 28  1  6  0  0  0
 29 28  1  0  0  0  0
 30 28  1  0  0  0  0
M  END
>  <CHROM.1>
-97.15792212,0.88441733,-50.09400371,175.34565552,77.33665406,25.61045750
38.53990020,21.96465782,1.48326065,-0.07361134,-2.27074324

>  <Name>
lig.pdb

>  <RI>
0

>  <Rbt.Current_Directory>
/home/itssahil/PROJECTS/Mol_Feturizer/New_Systems/rnas/6bfb

>  <Rbt.Executable>
rbdock ($Id: //depot/dev/client3/rdock/2013.1/src/exe/rbdock.cxx#4 $)

>  <Rbt.Library>
libRbt.so (2013.1, Build901 2013/11/27)

>  <Rbt.Parameter_File>
/export/apps/rDock/src/rDock_2013.1_src/data/scripts/dock_solv.prm

>  <Rbt.Receptor>
prm/pocket_docking_8.prm

>  <SCORE>
-33.5552

>  <SCORE.INTER>
-27.6578

>  <SCORE.INTER.CONST>
1

>  <SCORE.INTER.POLAR>
0

>  <SCORE.INTER.ROT>
3

>  <SCORE.INTER.SOLV>
12.818

>  <SCORE.INTER.VDW>
-28.3112

>  <SCORE.INTER.norm>
-0.921925

>  <SCORE.INTRA>
-5.89744

>  <SCORE.INTRA.DIHEDRAL>
-6.91452

>  <SCORE.INTRA.DIHEDRAL.0>
9.41909

>  <SCORE.INTRA.POLAR>
0

>  <SCORE.INTRA.POLAR.0>
0

>  <SCORE.INTRA.REPUL>
0.0820316

>  <SCORE.INTRA.REPUL.0>
0

>  <SCORE.INTRA.SOLV>
-0.265876

>  <SCORE.INTRA.SOLV.lig_0>
-26.2491

>  <SCORE.INTRA.VDW>
-2.7174

>  <SCORE.INTRA.VDW.0>
2.57239

>  <SCORE.INTRA.norm>
-0.196581

>  <SCORE.RESTR>
0

>  <SCORE.RESTR.CAVITY>
0

>  <SCORE.RESTR.norm>
0

>  <SCORE.SYSTEM>
0

>  <SCORE.SYSTEM.CONST>
0

>  <SCORE.SYSTEM.DIHEDRAL>
0

>  <SCORE.SYSTEM.SOLV>
0

>  <SCORE.SYSTEM.norm>
0

>  <SCORE.heavy>
30

>  <SCORE.norm>
-1.11851

>  <RMSD>
1.944

$$$$
lig.pdb
 OpenBabel11021811523D
libRbt.so/2013.1/901 2013/11/27
 30 34  0  0  0  0  0  0  0  0999 V2000
   25.2065   38.6163   21.7662 N   0  0  0  0  0  0  0  0  0  0  0  0
   26.7356   42.0484   24.9895 N   0  0  0  0  0  0  0  0  0  0  0  0
   24.5818   38.9645   20.4863 C   0  0  0  0  0  0  0  0  0  0  0  0
   25.2467   37.9771   19.5392 C   0  0  2  0  0  0  0  0  0  0  0  0
   24.9766   39.4395   22.9482 C   0  0  0  0  0  0  0  0  0  0  0  0
   23.7921   39.3953   23.7116 C   0  0  0  0  0  0  0  0  0  0  0  0
   23.5611   40.1888   24.8075 C   0  0  0  0  0  0  0  0  0  0  0  0
   24.2547   42.0029   26.3765 C   0  0  0  0  0  0  0  0  0  0  0  0
   28.8389   42.8802   25.0719 C   0  0  0  0  0  0  0  0  0  0  0  0
   28.2793   40.9055   23.4879 C   0  0  0  0  0  0  0  0  0  0  0  0
   25.9729   40.3586   23.3826 C   0  0  0  0  0  0  0  0  0  0  0  0
   24.2389   43.7313   28.6773 O   0  0  0  0  0  0  0  0  0  0  0  0
   25.1134   43.9299   27.8312 C   0  0  0  0  0  0  0  0  0  0  0  0
   25.8866   45.0088   27.8431 O   0  0  0  0  0  0  0  0  0  0  0  0
   25.3356   42.9615   26.7246 C   0  0  1  0  0  0  0  0  0  0  0  0
   23.2045   41.9186   27.0222 O   0  0  0  0  0  0  0  0  0  0  0  0
   26.5611   42.9509   26.0360 C   0  0  0  0  0  0  0  0  0  0  0  0
   28.0366   41.9973   24.4694 C   0  0  0  0  0  0  0  0  0  0  0  0
   28.0431   43.7698   26.3034 S   0  0  0  0  0  0  0  0  0  0  0  0
   25.7450   41.1602   24.5241 C   0  0  0  0  0  0  0  0  0  0  0  0
   24.5299   41.1018   25.2237 C   0  0  0  0  0  0  0  0  0  0  0  0
   22.8336   38.5095   23.3737 F   0  0  0  0  0  0  0  0  0  0  0  0
   27.1571   40.5273   22.6480 N   0  0  0  0  0  0  0  0  0  0  0  0
   26.9343   41.3635   21.4878 C   0  0  0  0  0  0  0  0  0  0  0  0
   26.4615   37.8994   21.5704 C   0  0  0  0  0  0  0  0  0  0  0  0
   24.2841   37.1676   18.8625 O   0  0  0  0  0  0  0  0  0  0  0  0
   26.0560   37.0141   20.4041 C   0  0  2  0  0  0  0  0  0  0  0  0
   27.1516   36.4642   19.5831 N   0  0  0  0  0  0  0  0  0  0  0  0
   28.1872   37.4346   19.1843 C   0  0  0  0  0  0  0  0  0  0  0  0
   27.7258   35.2280   20.1363 C   0  0  0  0  0  0  0  0  0  0  0  0
  1  5  1  0  0  0  0
  2 17  1  0  0  0  0
  3  1  1  0  0  0  0
  4  3  1  0  0  0  0
  4 26  1  1  0  0  0
  5 11  2  0  0  0  0
  5  6  1  0  0  0  0
  6  7  2  0  0  0  0
  7 21  1  0  0  0  0
  8 15  1  0  0  0  0
  8 16  2  0  0  0  0
  9 19  1  0  0  0  0
 10 18  1  0  0  0  0
 11 20  1  0  0  0  0
 13 14  1  0  0  0  0
 13 12  2  0  0  0  0
 15 13  1  1  0  0  0
 17 19  2  0  0  0  0
 17 15  1  0  0  0  0
 18  2  1  0  0  0  0
 18  9  2  0  0  0  0
 20 21  2  0  0  0  0
 20  2  1  0  0  0  0
 21  8  1  0  0  0  0
 22  6  1  0  0  0  0
 23 11  1  0  0  0  0
 23 10  1  0  0  0  0
 24 23  1  0  0  0  0
 25  1  1  0  0  0  0
 27  4  1  0  0  0  0
 27 25  1  0  0  0  0
 27 28  1  6  0  0  0
 29 28  1  0  0  0  0
 30 28  1  0  0  0  0
M  END
>  <CHROM.1>
77.29370291,1.24835437,19.58670552,69.62433202,67.40288595,25.88654945,40.52761658
23.68487405,1.54498037,-0.29900666,-2.30443253

>  <Name>
lig.pdb

>  <RI>
0

>  <Rbt.Current_Directory>
/home/itssahil/PROJECTS/Mol_Feturizer/New_Systems/rnas/6bfb

>  <Rbt.Executable>
rbdock ($Id: //depot/dev/client3/rdock/2013.1/src/exe/rbdock.cxx#4 $)

>  <Rbt.Library>
libRbt.so (2013.1, Build901 2013/11/27)

>  <Rbt.Parameter_File>
/export/apps/rDock/src/rDock_2013.1_src/data/scripts/dock_solv.prm

>  <Rbt.Receptor>
prm/pocket_docking_3.prm

>  <SCORE>
-41.504

>  <SCORE.INTER>
-36.0387

>  <SCORE.INTER.CONST>
1

>  <SCORE.INTER.POLAR>
-1.06777

>  <SCORE.INTER.ROT>
3

>  <SCORE.INTER.SOLV>
12.1496

>  <SCORE.INTER.VDW>
-30.1165

>  <SCORE.INTER.norm>
-1.20129

>  <SCORE.INTRA>
-5.46525

>  <SCORE.INTRA.DIHEDRAL>
-7.04651

>  <SCORE.INTRA.DIHEDRAL.0>
9.41909

>  <SCORE.INTRA.POLAR>
0

>  <SCORE.INTRA.POLAR.0>
0

>  <SCORE.INTRA.REPUL>
0

>  <SCORE.INTRA.REPUL.0>
0

>  <SCORE.INTRA.SOLV>
-0.0914363

>  <SCORE.INTRA.SOLV.lig_0>
-26.2491

>  <SCORE.INTRA.VDW>
-1.89627

>  <SCORE.INTRA.VDW.0>
2.57239

>  <SCORE.INTRA.norm>
-0.182175

>  <SCORE.RESTR>
0

>  <SCORE.RESTR.CAVITY>
0

>  <SCORE.RESTR.norm>
0

>  <SCORE.SYSTEM>
0

>  <SCORE.SYSTEM.CONST>
0

>  <SCORE.SYSTEM.DIHEDRAL>
0

>  <SCORE.SYSTEM.SOLV>
0

>  <SCORE.SYSTEM.norm>
0

>  <SCORE.heavy>
30

>  <SCORE.norm>
-1.38347

>  <RMSD>
1.953

$$$$
lig.pdb
 OpenBabel11021811523D
libRbt.so/2013.1/901 2013/11/27
 30 34  0  0  0  0  0  0  0  0999 V2000
   25.3256   36.5631   20.1793 N   0  0  0  0  0  0  0  0  0  0  0  0
   26.3389   40.1163   23.4741 N   0  0  0  0  0  0  0  0  0  0  0  0
   26.3806   35.5809   20.4470 C   0  0  0  0  0  0  0  0  0  0  0  0
   26.3481   34.7394   19.1801 C   0  0  2  0  0  0  0  0  0  0  0  0
   24.8949   37.4870   21.2225 C   0  0  0  0  0  0  0  0  0  0  0  0
   23.5648   37.5816   21.6806 C   0  0  0  0  0  0  0  0  0  0  0  0
   23.1507   38.4695   22.6419 C   0  0  0  0  0  0  0  0  0  0  0  0
   23.6069   40.3453   24.2253 C   0  0  0  0  0  0  0  0  0  0  0  0
   28.4265   40.8062   24.0112 C   0  0  0  0  0  0  0  0  0  0  0  0
   28.0900   38.7604   22.4546 C   0  0  0  0  0  0  0  0  0  0  0  0
   25.8352   38.3660   21.8302 C   0  0  0  0  0  0  0  0  0  0  0  0
   23.7969   43.3854   25.3347 O   0  0  0  0  0  0  0  0  0  0  0  0
   24.2593   42.3135   25.7311 C   0  0  0  0  0  0  0  0  0  0  0  0
   24.4484   42.0499   27.0183 O   0  0  0  0  0  0  0  0  0  0  0  0
   24.6527   41.2514   24.7674 C   0  0  1  0  0  0  0  0  0  0  0  0
   22.4311   40.3819   24.6037 O   0  0  0  0  0  0  0  0  0  0  0  0
   26.0002   41.1051   24.3948 C   0  0  0  0  0  0  0  0  0  0  0  0
   27.7165   39.9373   23.2852 C   0  0  0  0  0  0  0  0  0  0  0  0
   27.4417   41.8385   24.9628 S   0  0  0  0  0  0  0  0  0  0  0  0
   25.4140   39.2653   22.8359 C   0  0  0  0  0  0  0  0  0  0  0  0
   24.0681   39.3431   23.2256 C   0  0  0  0  0  0  0  0  0  0  0  0
   22.6413   36.7404   21.1737 F   0  0  0  0  0  0  0  0  0  0  0  0
   27.1686   38.3975   21.3928 N   0  0  0  0  0  0  0  0  0  0  0  0
   27.2959   39.1569   20.1673 C   0  0  0  0  0  0  0  0  0  0  0  0
   24.4030   36.0897   19.1536 C   0  0  0  0  0  0  0  0  0  0  0  0
   27.6190   34.7199   18.5287 O   0  0  0  0  0  0  0  0  0  0  0  0
   25.4013   35.4409   18.2097 C   0  0  2  0  0  0  0  0  0  0  0  0
   24.8650   34.4323   17.2761 N   0  0  0  0  0  0  0  0  0  0  0  0
   25.7129   34.1452   16.1047 C   0  0  0  0  0  0  0  0  0  0  0  0
   24.4050   33.2073   17.9481 C   0  0  0  0  0  0  0  0  0  0  0  0
  1  5  1  0  0  0  0
  2 17  1  0  0  0  0
  3  1  1  0  0  0  0
  4  3  1  0  0  0  0
  4 26  1  6  0  0  0
  5 11  2  0  0  0  0
  5  6  1  0  0  0  0
  6  7  2  0  0  0  0
  7 21  1  0  0  0  0
  8 15  1  0  0  0  0
  8 16  2  0  0  0  0
  9 19  1  0  0  0  0
 10 18  1  0  0  0  0
 11 20  1  0  0  0  0
 13 14  1  0  0  0  0
 13 12  2  0  0  0  0
 15 13  1  1  0  0  0
 17 19  2  0  0  0  0
 17 15  1  0  0  0  0
 18  2  1  0  0  0  0
 18  9  2  0  0  0  0
 20 21  2  0  0  0  0
 20  2  1  0  0  0  0
 21  8  1  0  0  0  0
 22  6  1  0  0  0  0
 23 11  1  0  0  0  0
 23 10  1  0  0  0  0
 24 23  1  0  0  0  0
 25  1  1  0  0  0  0
 27  4  1  0  0  0  0
 27 25  1  0  0  0  0
 27 28  1  6  0  0  0
 29 28  1  0  0  0  0
 30 28  1  0  0  0  0
M  END
>  <CHROM.1>
-122.34729018,-177.98234405,-82.37381378,166.40924701,-84.99147621,25.44794817
38.48809784,21.99517538,1.55023411,-0.13754635,-2.35837608

>  <Name>
lig.pdb

>  <RI>
0

>  <Rbt.Current_Directory>
/home/itssahil/PROJECTS/Mol_Feturizer/New_Systems/rnas/6bfb

>  <Rbt.Executable>
rbdock ($Id: //depot/dev/client3/rdock/2013.1/src/exe/rbdock.cxx#4 $)

>  <Rbt.Library>
libRbt.so (2013.1, Build901 2013/11/27)

>  <Rbt.Parameter_File>
/export/apps/rDock/src/rDock_2013.1_src/data/scripts/dock_solv.prm

>  <Rbt.Receptor>
prm/blind_docking_100.prm

>  <SCORE>
-34.9452

>  <SCORE.INTER>
-32.2585

>  <SCORE.INTER.CONST>
1

>  <SCORE.INTER.POLAR>
-0.615813

>  <SCORE.INTER.ROT>
3

>  <SCORE.INTER.SOLV>
12.2607

>  <SCORE.INTER.VDW>
-29.1399

>  <SCORE.INTER.norm>
-1.07528

>  <SCORE.INTRA>
-2.6867

>  <SCORE.INTRA.DIHEDRAL>
-6.35012

>  <SCORE.INTRA.DIHEDRAL.0>
9.41909

>  <SCORE.INTRA.POLAR>
0

>  <SCORE.INTRA.POLAR.0>
0

>  <SCORE.INTRA.REPUL>
0.0245343

>  <SCORE.INTRA.REPUL.0>
0

>  <SCORE.INTRA.SOLV>
-0.0489854

>  <SCORE.INTRA.SOLV.lig_0>
-26.2491

>  <SCORE.INTRA.VDW>
0.390179

>  <SCORE.INTRA.VDW.0>
2.57239

>  <SCORE.INTRA.norm>
-0.0895567

>  <SCORE.RESTR>
0

>  <SCORE.RESTR.CAVITY>
0

>  <SCORE.RESTR.norm>
0

>  <SCORE.SYSTEM>
0

>  <SCORE.SYSTEM.CONST>
0

>  <SCORE.SYSTEM.DIHEDRAL>
0

>  <SCORE.SYSTEM.SOLV>
0

>  <SCORE.SYSTEM.norm>
0

>  <SCORE.heavy>
30

>  <SCORE.norm>
-1.16484

>  <RMSD>
1.955

$$$$
lig.pdb
 OpenBabel11021811523D
libRbt.so/2013.1/901 2013/11/27
 30 34  0  0  0  0  0  0  0  0999 V2000
   27.3140   38.9409   20.7650 N   0  0  0  0  0  0  0  0  0  0  0  0
   27.0548   42.0837   24.5811 N   0  0  0  0  0  0  0  0  0  0  0  0
   27.3882   37.4964   20.5252 C   0  0  0  0  0  0  0  0  0  0  0  0
   28.0087   37.4451   19.1371 C   0  0  2  0  0  0  0  0  0  0  0  0
   26.6175   39.4601   21.9367 C   0  0  0  0  0  0  0  0  0  0  0  0
   25.3812   38.9605   22.3945 C   0  0  0  0  0  0  0  0  0  0  0  0
   24.7094   39.4655   23.4797 C   0  0  0  0  0  0  0  0  0  0  0  0
   24.4916   41.1168   25.3397 C   0  0  0  0  0  0  0  0  0  0  0  0
   28.7401   43.4461   25.2340 C   0  0  0  0  0  0  0  0  0  0  0  0
   29.1353   41.6830   23.3748 C   0  0  0  0  0  0  0  0  0  0  0  0
   27.1772   40.5369   22.6807 C   0  0  0  0  0  0  0  0  0  0  0  0
   25.0285   43.3710   28.1174 O   0  0  0  0  0  0  0  0  0  0  0  0
   24.4145   42.9399   27.1389 C   0  0  0  0  0  0  0  0  0  0  0  0
   23.0948   43.0298   27.0277 O   0  0  0  0  0  0  0  0  0  0  0  0
   25.1343   42.2688   26.0240 C   0  0  1  0  0  0  0  0  0  0  0  0
   23.4153   40.6363   25.7110 O   0  0  0  0  0  0  0  0  0  0  0  0
   26.4114   42.7157   25.6426 C   0  0  0  0  0  0  0  0  0  0  0  0
   28.3822   42.4857   24.3763 C   0  0  0  0  0  0  0  0  0  0  0  0
   27.4865   43.8613   26.3283 S   0  0  0  0  0  0  0  0  0  0  0  0
   26.4970   41.0429   23.8115 C   0  0  0  0  0  0  0  0  0  0  0  0
   25.2487   40.5318   24.1991 C   0  0  0  0  0  0  0  0  0  0  0  0
   24.8279   37.9100   21.7560 F   0  0  0  0  0  0  0  0  0  0  0  0
   28.3691   41.1493   22.2630 N   0  0  0  0  0  0  0  0  0  0  0  0
   28.1263   42.0689   21.1719 C   0  0  0  0  0  0  0  0  0  0  0  0
   27.3681   39.6930   19.5165 C   0  0  0  0  0  0  0  0  0  0  0  0
   29.2196   36.6876   19.1300 O   0  0  0  0  0  0  0  0  0  0  0  0
   28.4169   38.8730   18.7842 C   0  0  2  0  0  0  0  0  0  0  0  0
   28.4414   38.9972   17.3143 N   0  0  0  0  0  0  0  0  0  0  0  0
   28.2256   40.3598   16.7943 C   0  0  0  0  0  0  0  0  0  0  0  0
   29.6031   38.3396   16.6965 C   0  0  0  0  0  0  0  0  0  0  0  0
  1  5  1  0  0  0  0
  2 17  1  0  0  0  0
  3  1  1  0  0  0  0
  4  3  1  0  0  0  0
  4 26  1  1  0  0  0
  5 11  2  0  0  0  0
  5  6  1  0  0  0  0
  6  7  2  0  0  0  0
  7 21  1  0  0  0  0
  8 15  1  0  0  0  0
  8 16  2  0  0  0  0
  9 19  1  0  0  0  0
 10 18  1  0  0  0  0
 11 20  1  0  0  0  0
 13 14  1  0  0  0  0
 13 12  2  0  0  0  0
 15 13  1  1  0  0  0
 17 19  2  0  0  0  0
 17 15  1  0  0  0  0
 18  2  1  0  0  0  0
 18  9  2  0  0  0  0
 20 21  2  0  0  0  0
 20  2  1  0  0  0  0
 21  8  1  0  0  0  0
 22  6  1  0  0  0  0
 23 11  1  0  0  0  0
 23 10  1  0  0  0  0
 24 23  1  0  0  0  0
 25  1  1  0  0  0  0
 27  4  1  0  0  0  0
 27 25  1  0  0  0  0
 27 28  1  6  0  0  0
 29 28  1  0  0  0  0
 30 28  1  0  0  0  0
M  END
>  <CHROM.1>
-42.23013724,-0.12217938,143.44326167,-57.17981576,154.19912586,26.80628469
40.67712176,22.80472430,1.20454768,-0.56583423,-2.27163119

>  <Name>
lig.pdb

>  <RI>
0

>  <Rbt.Current_Directory>
/home/itssahil/PROJECTS/Mol_Feturizer/New_Systems/rnas/6bfb

>  <Rbt.Executable>
rbdock ($Id: //depot/dev/client3/rdock/2013.1/src/exe/rbdock.cxx#4 $)

>  <Rbt.Library>
libRbt.so (2013.1, Build901 2013/11/27)

>  <Rbt.Parameter_File>
/export/apps/rDock/src/rDock_2013.1_src/data/scripts/dock_solv.prm

>  <Rbt.Receptor>
prm/pocket_docking_4.prm

>  <SCORE>
-32.7651

>  <SCORE.INTER>
-29.6292

>  <SCORE.INTER.CONST>
1

>  <SCORE.INTER.POLAR>
-0.617609

>  <SCORE.INTER.ROT>
3

>  <SCORE.INTER.SOLV>
11.3011

>  <SCORE.INTER.VDW>
-27.0611

>  <SCORE.INTER.norm>
-0.98764

>  <SCORE.INTRA>
-3.13616

>  <SCORE.INTRA.DIHEDRAL>
-7.13795

>  <SCORE.INTRA.DIHEDRAL.0>
9.41909

>  <SCORE.INTRA.POLAR>
0

>  <SCORE.INTRA.POLAR.0>
0

>  <SCORE.INTRA.REPUL>
0.0609908

>  <SCORE.INTRA.REPUL.0>
0

>  <SCORE.INTRA.SOLV>
-0.087637

>  <SCORE.INTRA.SOLV.lig_0>
-26.2491

>  <SCORE.INTRA.VDW>
0.171679

>  <SCORE.INTRA.VDW.0>
2.57239

>  <SCORE.INTRA.norm>
-0.104539

>  <SCORE.RESTR>
0.000257676

>  <SCORE.RESTR.CAVITY>
0.000257676

>  <SCORE.RESTR.norm>
8.58919e-06

>  <SCORE.SYSTEM>
0

>  <SCORE.SYSTEM.CONST>
0

>  <SCORE.SYSTEM.DIHEDRAL>
0

>  <SCORE.SYSTEM.SOLV>
0

>  <SCORE.SYSTEM.norm>
0

>  <SCORE.heavy>
30

>  <SCORE.norm>
-1.09217

>  <RMSD>
1.966

$$$$
lig.pdb
 OpenBabel11021811523D
libRbt.so/2013.1/901 2013/11/27
 30 34  0  0  0  0  0  0  0  0999 V2000
   25.2899   38.7941   21.7772 N   0  0  0  0  0  0  0  0  0  0  0  0
   26.5795   42.2962   25.0299 N   0  0  0  0  0  0  0  0  0  0  0  0
   24.7732   39.1636   20.4558 C   0  0  0  0  0  0  0  0  0  0  0  0
   25.4869   38.1667   19.5551 C   0  0  2  0  0  0  0  0  0  0  0  0
   24.9883   39.6156   22.9441 C   0  0  0  0  0  0  0  0  0  0  0  0
   23.7788   39.5345   23.6640 C   0  0  0  0  0  0  0  0  0  0  0  0
   23.4802   40.3258   24.7450 C   0  0  0  0  0  0  0  0  0  0  0  0
   24.0522   42.1721   26.3254 C   0  0  0  0  0  0  0  0  0  0  0  0
   28.6482   43.2013   25.1832 C   0  0  0  0  0  0  0  0  0  0  0  0
   28.2161   41.1992   23.5939 C   0  0  0  0  0  0  0  0  0  0  0  0
   25.9355   40.5715   23.4081 C   0  0  0  0  0  0  0  0  0  0  0  0
   24.9919   43.8384   28.9760 O   0  0  0  0  0  0  0  0  0  0  0  0
   24.7895   44.1363   27.7969 C   0  0  0  0  0  0  0  0  0  0  0  0
   24.2874   45.3101   27.4330 O   0  0  0  0  0  0  0  0  0  0  0  0
   25.0857   43.1699   26.7061 C   0  0  1  0  0  0  0  0  0  0  0  0
   22.9825   42.0549   26.9328 O   0  0  0  0  0  0  0  0  0  0  0  0
   26.3353   43.1981   26.0629 C   0  0  0  0  0  0  0  0  0  0  0  0
   27.8997   42.2875   24.5581 C   0  0  0  0  0  0  0  0  0  0  0  0
   27.7772   44.0697   26.3784 S   0  0  0  0  0  0  0  0  0  0  0  0
   25.6381   41.3713   24.5348 C   0  0  0  0  0  0  0  0  0  0  0  0
   24.4007   41.2745   25.1899 C   0  0  0  0  0  0  0  0  0  0  0  0
   22.8647   38.6138   23.2975 F   0  0  0  0  0  0  0  0  0  0  0  0
   27.1393   40.7771   22.7161 N   0  0  0  0  0  0  0  0  0  0  0  0
   26.9305   41.5982   21.5427 C   0  0  0  0  0  0  0  0  0  0  0  0
   26.5401   38.0501   21.6729 C   0  0  0  0  0  0  0  0  0  0  0  0
   24.5613   37.3830   18.8007 O   0  0  0  0  0  0  0  0  0  0  0  0
   26.2058   37.1807   20.4724 C   0  0  2  0  0  0  0  0  0  0  0  0
   27.3487   36.6108   19.7338 N   0  0  0  0  0  0  0  0  0  0  0  0
   28.4571   37.5464   19.4700 C   0  0  0  0  0  0  0  0  0  0  0  0
   27.8163   35.3308   20.2877 C   0  0  0  0  0  0  0  0  0  0  0  0
  1  5  1  0  0  0  0
  2 17  1  0  0  0  0
  3  1  1  0  0  0  0
  4  3  1  0  0  0  0
  4 26  1  1  0  0  0
  5 11  2  0  0  0  0
  5  6  1  0  0  0  0
  6  7  2  0  0  0  0
  7 21  1  0  0  0  0
  8 15  1  0  0  0  0
  8 16  2  0  0  0  0
  9 19  1  0  0  0  0
 10 18  1  0  0  0  0
 11 20  1  0  0  0  0
 13 14  1  0  0  0  0
 13 12  2  0  0  0  0
 15 13  1  1  0  0  0
 17 19  2  0  0  0  0
 17 15  1  0  0  0  0
 18  2  1  0  0  0  0
 18  9  2  0  0  0  0
 20 21  2  0  0  0  0
 20  2  1  0  0  0  0
 21  8  1  0  0  0  0
 22  6  1  0  0  0  0
 23 11  1  0  0  0  0
 23 10  1  0  0  0  0
 24 23  1  0  0  0  0
 25  1  1  0  0  0  0
 27  4  1  0  0  0  0
 27 25  1  0  0  0  0
 27 28  1  6  0  0  0
 29 28  1  0  0  0  0
 30 28  1  0  0  0  0
M  END
>  <CHROM.1>
81.36344301,175.00287859,86.05537523,177.09710638,69.75418125,25.82508378
40.72396633,23.70677210,1.48869550,-0.28272960,-2.33315605

>  <Name>
lig.pdb

>  <RI>
0

>  <Rbt.Current_Directory>
/home/itssahil/PROJECTS/Mol_Feturizer/New_Systems/rnas/6bfb

>  <Rbt.Executable>
rbdock ($Id: //depot/dev/client3/rdock/2013.1/src/exe/rbdock.cxx#4 $)

>  <Rbt.Library>
libRbt.so (2013.1, Build901 2013/11/27)

>  <Rbt.Parameter_File>
/export/apps/rDock/src/rDock_2013.1_src/data/scripts/dock_solv.prm

>  <Rbt.Receptor>
prm/pocket_docking_6.prm

>  <SCORE>
-39.8169

>  <SCORE.INTER>
-33.7719

>  <SCORE.INTER.CONST>
1

>  <SCORE.INTER.POLAR>
-0.847702

>  <SCORE.INTER.ROT>
3

>  <SCORE.INTER.SOLV>
11.9072

>  <SCORE.INTER.VDW>
-29.258

>  <SCORE.INTER.norm>
-1.12573

>  <SCORE.INTRA>
-6.045

>  <SCORE.INTRA.DIHEDRAL>
-7.12877

>  <SCORE.INTRA.DIHEDRAL.0>
9.41909

>  <SCORE.INTRA.POLAR>
0

>  <SCORE.INTRA.POLAR.0>
0

>  <SCORE.INTRA.REPUL>
0

>  <SCORE.INTRA.REPUL.0>
0

>  <SCORE.INTRA.SOLV>
-0.167325

>  <SCORE.INTRA.SOLV.lig_0>
-26.2491

>  <SCORE.INTRA.VDW>
-2.39695

>  <SCORE.INTRA.VDW.0>
2.57239

>  <SCORE.INTRA.norm>
-0.2015

>  <SCORE.RESTR>
0

>  <SCORE.RESTR.CAVITY>
0

>  <SCORE.RESTR.norm>
0

>  <SCORE.SYSTEM>
0

>  <SCORE.SYSTEM.CONST>
0

>  <SCORE.SYSTEM.DIHEDRAL>
0

>  <SCORE.SYSTEM.SOLV>
0

>  <SCORE.SYSTEM.norm>
0

>  <SCORE.heavy>
30

>  <SCORE.norm>
-1.32723

>  <RMSD>
1.973

$$$$
lig.pdb
 OpenBabel11021811523D
libRbt.so/2013.1/901 2013/11/27
 30 34  0  0  0  0  0  0  0  0999 V2000
   25.2829   38.8202   21.8258 N   0  0  0  0  0  0  0  0  0  0  0  0
   26.6142   42.2687   25.1186 N   0  0  0  0  0  0  0  0  0  0  0  0
   24.7522   39.2130   20.5168 C   0  0  0  0  0  0  0  0  0  0  0  0
   25.4534   38.2300   19.5914 C   0  0  2  0  0  0  0  0  0  0  0  0
   24.9963   39.6224   23.0098 C   0  0  0  0  0  0  0  0  0  0  0  0
   23.7961   39.5293   23.7437 C   0  0  0  0  0  0  0  0  0  0  0  0
   23.5114   40.3028   24.8413 C   0  0  0  0  0  0  0  0  0  0  0  0
   24.1037   42.1231   26.4442 C   0  0  0  0  0  0  0  0  0  0  0  0
   28.6848   43.1716   25.2602 C   0  0  0  0  0  0  0  0  0  0  0  0
   28.2322   41.1957   23.6440 C   0  0  0  0  0  0  0  0  0  0  0  0
   25.9494   40.5707   23.4772 C   0  0  0  0  0  0  0  0  0  0  0  0
   25.3497   45.1945   27.9413 O   0  0  0  0  0  0  0  0  0  0  0  0
   24.8599   44.0631   27.9381 C   0  0  0  0  0  0  0  0  0  0  0  0
   24.0779   43.6208   28.9153 O   0  0  0  0  0  0  0  0  0  0  0  0
   25.1420   43.1147   26.8279 C   0  0  1  0  0  0  0  0  0  0  0  0
   23.0419   41.9958   27.0633 O   0  0  0  0  0  0  0  0  0  0  0  0
   26.3833   43.1536   26.1693 C   0  0  0  0  0  0  0  0  0  0  0  0
   27.9282   42.2680   24.6299 C   0  0  0  0  0  0  0  0  0  0  0  0
   27.8292   44.0201   26.4806 S   0  0  0  0  0  0  0  0  0  0  0  0
   25.6665   41.3519   24.6206 C   0  0  0  0  0  0  0  0  0  0  0  0
   24.4376   41.2442   25.2898 C   0  0  0  0  0  0  0  0  0  0  0  0
   22.8773   38.6146   23.3739 F   0  0  0  0  0  0  0  0  0  0  0  0
   27.1443   40.7879   22.7733 N   0  0  0  0  0  0  0  0  0  0  0  0
   26.9205   41.6280   21.6162 C   0  0  0  0  0  0  0  0  0  0  0  0
   26.5301   38.0754   21.6948 C   0  0  0  0  0  0  0  0  0  0  0  0
   24.5176   37.4612   18.8343 O   0  0  0  0  0  0  0  0  0  0  0  0
   26.1804   37.2273   20.4836 C   0  0  2  0  0  0  0  0  0  0  0  0
   27.3136   36.6676   19.7226 N   0  0  0  0  0  0  0  0  0  0  0  0
   28.4134   37.6100   19.4473 C   0  0  0  0  0  0  0  0  0  0  0  0
   27.7958   35.3859   20.2599 C   0  0  0  0  0  0  0  0  0  0  0  0
  1  5  1  0  0  0  0
  2 17  1  0  0  0  0
  3  1  1  0  0  0  0
  4  3  1  0  0  0  0
  4 26  1  1  0  0  0
  5 11  2  0  0  0  0
  5  6  1  0  0  0  0
  6  7  2  0  0  0  0
  7 21  1  0  0  0  0
  8 15  1  0  0  0  0
  8 16  2  0  0  0  0
  9 19  1  0  0  0  0
 10 18  1  0  0  0  0
 11 20  1  0  0  0  0
 13 14  1  0  0  0  0
 13 12  2  0  0  0  0
 15 13  1  1  0  0  0
 17 19  2  0  0  0  0
 17 15  1  0  0  0  0
 18  2  1  0  0  0  0
 18  9  2  0  0  0  0
 20 21  2  0  0  0  0
 20  2  1  0  0  0  0
 21  8  1  0  0  0  0
 22  6  1  0  0  0  0
 23 11  1  0  0  0  0
 23 10  1  0  0  0  0
 24 23  1  0  0  0  0
 25  1  1  0  0  0  0
 27  4  1  0  0  0  0
 27 25  1  0  0  0  0
 27 28  1  6  0  0  0
 29 28  1  0  0  0  0
 30 28  1  0  0  0  0
M  END
>  <CHROM.1>
81.52035243,-0.07392562,-148.74935241,-57.85967323,69.00847984,25.83928172
40.70975552,23.79518787,1.49795987,-0.31540244,-2.31083018

>  <Name>
lig.pdb

>  <RI>
0

>  <Rbt.Current_Directory>
/home/itssahil/PROJECTS/Mol_Feturizer/New_Systems/rnas/6bfb

>  <Rbt.Executable>
rbdock ($Id: //depot/dev/client3/rdock/2013.1/src/exe/rbdock.cxx#4 $)

>  <Rbt.Library>
libRbt.so (2013.1, Build901 2013/11/27)

>  <Rbt.Parameter_File>
/export/apps/rDock/src/rDock_2013.1_src/data/scripts/dock_solv.prm

>  <Rbt.Receptor>
prm/pocket_docking_5.prm

>  <SCORE>
-36.3034

>  <SCORE.INTER>
-30.7796

>  <SCORE.INTER.CONST>
1

>  <SCORE.INTER.POLAR>
0

>  <SCORE.INTER.ROT>
3

>  <SCORE.INTER.SOLV>
11.9699

>  <SCORE.INTER.VDW>
-30.1097

>  <SCORE.INTER.norm>
-1.02599

>  <SCORE.INTRA>
-5.52383

>  <SCORE.INTRA.DIHEDRAL>
-7.38316

>  <SCORE.INTRA.DIHEDRAL.0>
9.41909

>  <SCORE.INTRA.POLAR>
0

>  <SCORE.INTRA.POLAR.0>
0

>  <SCORE.INTRA.REPUL>
0

>  <SCORE.INTRA.REPUL.0>
0

>  <SCORE.INTRA.SOLV>
-0.0623755

>  <SCORE.INTRA.SOLV.lig_0>
-26.2491

>  <SCORE.INTRA.VDW>
-1.80106

>  <SCORE.INTRA.VDW.0>
2.57239

>  <SCORE.INTRA.norm>
-0.184128

>  <SCORE.RESTR>
0

>  <SCORE.RESTR.CAVITY>
0

>  <SCORE.RESTR.norm>
0

>  <SCORE.SYSTEM>
0

>  <SCORE.SYSTEM.CONST>
0

>  <SCORE.SYSTEM.DIHEDRAL>
0

>  <SCORE.SYSTEM.SOLV>
0

>  <SCORE.SYSTEM.norm>
0

>  <SCORE.heavy>
30

>  <SCORE.norm>
-1.21011

>  <RMSD>
1.986

$$$$
lig.pdb
 OpenBabel11021811523D
libRbt.so/2013.1/901 2013/11/27
 30 34  0  0  0  0  0  0  0  0999 V2000
   25.2723   38.7821   21.7167 N   0  0  0  0  0  0  0  0  0  0  0  0
   26.7099   42.1637   25.0341 N   0  0  0  0  0  0  0  0  0  0  0  0
   24.5482   39.0909   20.4799 C   0  0  0  0  0  0  0  0  0  0  0  0
   25.2547   38.1929   19.4756 C   0  0  2  0  0  0  0  0  0  0  0  0
   25.0270   39.5555   22.9288 C   0  0  0  0  0  0  0  0  0  0  0  0
   23.8563   39.4381   23.7057 C   0  0  0  0  0  0  0  0  0  0  0  0
   23.6098   40.1846   24.8308 C   0  0  0  0  0  0  0  0  0  0  0  0
   24.2530   41.9720   26.4512 C   0  0  0  0  0  0  0  0  0  0  0  0
   28.7793   43.0765   25.1170 C   0  0  0  0  0  0  0  0  0  0  0  0
   28.2761   41.1348   23.4745 C   0  0  0  0  0  0  0  0  0  0  0  0
   25.9920   40.4990   23.3810 C   0  0  0  0  0  0  0  0  0  0  0  0
   23.9785   44.4721   28.0744 O   0  0  0  0  0  0  0  0  0  0  0  0
   25.0551   43.8825   27.9589 C   0  0  0  0  0  0  0  0  0  0  0  0
   26.0526   44.0421   28.8201 O   0  0  0  0  0  0  0  0  0  0  0  0
   25.2998   42.9613   26.8174 C   0  0  1  0  0  0  0  0  0  0  0  0
   23.2164   41.8238   27.1073 O   0  0  0  0  0  0  0  0  0  0  0  0
   26.5146   43.0231   26.1128 C   0  0  0  0  0  0  0  0  0  0  0  0
   28.0041   42.1826   24.4956 C   0  0  0  0  0  0  0  0  0  0  0  0
   27.9665   43.8917   26.3883 S   0  0  0  0  0  0  0  0  0  0  0  0
   25.7489   41.2523   24.5519 C   0  0  0  0  0  0  0  0  0  0  0  0
   24.5472   41.1216   25.2650 C   0  0  0  0  0  0  0  0  0  0  0  0
   22.9292   38.5261   23.3506 F   0  0  0  0  0  0  0  0  0  0  0  0
   27.1577   40.7398   22.6370 N   0  0  0  0  0  0  0  0  0  0  0  0
   26.8850   41.6045   21.5089 C   0  0  0  0  0  0  0  0  0  0  0  0
   26.5793   38.1975   21.4385 C   0  0  0  0  0  0  0  0  0  0  0  0
   24.3411   37.3048   18.8302 O   0  0  0  0  0  0  0  0  0  0  0  0
   26.2003   37.2988   20.2734 C   0  0  2  0  0  0  0  0  0  0  0  0
   27.2987   36.8765   19.3835 N   0  0  0  0  0  0  0  0  0  0  0  0
   28.0891   37.9732   18.7955 C   0  0  0  0  0  0  0  0  0  0  0  0
   28.1465   35.8260   19.9679 C   0  0  0  0  0  0  0  0  0  0  0  0
  1  5  1  0  0  0  0
  2 17  1  0  0  0  0
  3  1  1  0  0  0  0
  4  3  1  0  0  0  0
  4 26  1  1  0  0  0
  5 11  2  0  0  0  0
  5  6  1  0  0  0  0
  6  7  2  0  0  0  0
  7 21  1  0  0  0  0
  8 15  1  0  0  0  0
  8 16  2  0  0  0  0
  9 19  1  0  0  0  0
 10 18  1  0  0  0  0
 11 20  1  0  0  0  0
 13 14  1  0  0  0  0
 13 12  2  0  0  0  0
 15 13  1  1  0  0  0
 17 19  2  0  0  0  0
 17 15  1  0  0  0  0
 18  2  1  0  0  0  0
 18  9  2  0  0  0  0
 20 21  2  0  0  0  0
 20  2  1  0  0  0  0
 21  8  1  0  0  0  0
 22  6  1  0  0  0  0
 23 11  1  0  0  0  0
 23 10  1  0  0  0  0
 24 23  1  0  0  0  0
 25  1  1  0  0  0  0
 27  4  1  0  0  0  0
 27 25  1  0  0  0  0
 27 28  1  6  0  0  0
 29 28  1  0  0  0  0
 30 28  1  0  0  0  0
M  END
>  <CHROM.1>
73.17508079,1.76312592,-45.94850247,58.51471343,58.71640355,25.90587011,40.66399372
23.68663969,1.52886659,-0.31162609,-2.26231989

>  <Name>
lig.pdb

>  <RI>
0

>  <Rbt.Current_Directory>
/home/itssahil/PROJECTS/Mol_Feturizer/New_Systems/rnas/6bfb

>  <Rbt.Executable>
rbdock ($Id: //depot/dev/client3/rdock/2013.1/src/exe/rbdock.cxx#4 $)

>  <Rbt.Library>
libRbt.so (2013.1, Build901 2013/11/27)

>  <Rbt.Parameter_File>
/export/apps/rDock/src/rDock_2013.1_src/data/scripts/dock_solv.prm

>  <Rbt.Receptor>
prm/pocket_docking_2.prm

>  <SCORE>
-40.6496

>  <SCORE.INTER>
-34.9806

>  <SCORE.INTER.CONST>
1

>  <SCORE.INTER.POLAR>
-1.17725

>  <SCORE.INTER.ROT>
3

>  <SCORE.INTER.SOLV>
11.8633

>  <SCORE.INTER.VDW>
-28.9506

>  <SCORE.INTER.norm>
-1.16602

>  <SCORE.INTRA>
-5.74306

>  <SCORE.INTRA.DIHEDRAL>
-7.67069

>  <SCORE.INTRA.DIHEDRAL.0>
9.41909

>  <SCORE.INTRA.POLAR>
0

>  <SCORE.INTRA.POLAR.0>
0

>  <SCORE.INTRA.REPUL>
0

>  <SCORE.INTRA.REPUL.0>
0

>  <SCORE.INTRA.SOLV>
-0.134112

>  <SCORE.INTRA.SOLV.lig_0>
-26.2491

>  <SCORE.INTRA.VDW>
-1.84066

>  <SCORE.INTRA.VDW.0>
2.57239

>  <SCORE.INTRA.norm>
-0.191435

>  <SCORE.RESTR>
0.0739753

>  <SCORE.RESTR.CAVITY>
0.0739753

>  <SCORE.RESTR.norm>
0.00246584

>  <SCORE.SYSTEM>
0

>  <SCORE.SYSTEM.CONST>
0

>  <SCORE.SYSTEM.DIHEDRAL>
0

>  <SCORE.SYSTEM.SOLV>
0

>  <SCORE.SYSTEM.norm>
0

>  <SCORE.heavy>
30

>  <SCORE.norm>
-1.35499

>  <RMSD>
1.994

$$$$
lig.pdb
 OpenBabel11021811523D
libRbt.so/2013.1/901 2013/11/27
 30 34  0  0  0  0  0  0  0  0999 V2000
   25.2785   38.8459   21.8315 N   0  0  0  0  0  0  0  0  0  0  0  0
   26.6124   42.2902   25.1276 N   0  0  0  0  0  0  0  0  0  0  0  0
   24.7592   39.2557   20.5231 C   0  0  0  0  0  0  0  0  0  0  0  0
   25.4532   38.2720   19.5931 C   0  0  2  0  0  0  0  0  0  0  0  0
   24.9956   39.6418   23.0206 C   0  0  0  0  0  0  0  0  0  0  0  0
   23.8015   39.5384   23.7629 C   0  0  0  0  0  0  0  0  0  0  0  0
   23.5201   40.3058   24.8655 C   0  0  0  0  0  0  0  0  0  0  0  0
   24.1127   42.1238   26.4710 C   0  0  0  0  0  0  0  0  0  0  0  0
   28.6782   43.2056   25.2574 C   0  0  0  0  0  0  0  0  0  0  0  0
   28.2262   41.2330   23.6370 C   0  0  0  0  0  0  0  0  0  0  0  0
   25.9462   40.5943   23.4846 C   0  0  0  0  0  0  0  0  0  0  0  0
   25.3389   45.2021   27.9636 O   0  0  0  0  0  0  0  0  0  0  0  0
   24.8676   44.0628   27.9667 C   0  0  0  0  0  0  0  0  0  0  0  0
   24.1087   43.6067   28.9556 O   0  0  0  0  0  0  0  0  0  0  0  0
   25.1476   43.1204   26.8508 C   0  0  1  0  0  0  0  0  0  0  0  0
   23.0563   41.9874   27.0974 O   0  0  0  0  0  0  0  0  0  0  0  0
   26.3837   43.1696   26.1833 C   0  0  0  0  0  0  0  0  0  0  0  0
   27.9227   42.2997   24.6292 C   0  0  0  0  0  0  0  0  0  0  0  0
   27.8264   44.0441   26.4873 S   0  0  0  0  0  0  0  0  0  0  0  0
   25.6668   41.3693   24.6330 C   0  0  0  0  0  0  0  0  0  0  0  0
   24.4436   41.2514   25.3108 C   0  0  0  0  0  0  0  0  0  0  0  0
   22.8858   38.6193   23.3964 F   0  0  0  0  0  0  0  0  0  0  0  0
   27.1344   40.8216   22.7728 N   0  0  0  0  0  0  0  0  0  0  0  0
   26.8969   41.6648   21.6206 C   0  0  0  0  0  0  0  0  0  0  0  0
   26.5174   38.0872   21.7005 C   0  0  0  0  0  0  0  0  0  0  0  0
   24.5121   37.5207   18.8252 O   0  0  0  0  0  0  0  0  0  0  0  0
   26.1636   37.2533   20.4807 C   0  0  2  0  0  0  0  0  0  0  0  0
   27.2938   36.6862   19.7207 N   0  0  0  0  0  0  0  0  0  0  0  0
   28.3991   37.6219   19.4446 C   0  0  0  0  0  0  0  0  0  0  0  0
   27.7685   35.4024   20.2597 C   0  0  0  0  0  0  0  0  0  0  0  0
  1  5  1  0  0  0  0
  2 17  1  0  0  0  0
  3  1  1  0  0  0  0
  4  3  1  0  0  0  0
  4 26  1  6  0  0  0
  5 11  2  0  0  0  0
  5  6  1  0  0  0  0
  6  7  2  0  0  0  0
  7 21  1  0  0  0  0
  8 15  1  0  0  0  0
  8 16  2  0  0  0  0
  9 19  1  0  0  0  0
 10 18  1  0  0  0  0
 11 20  1  0  0  0  0
 13 14  1  0  0  0  0
 13 12  2  0  0  0  0
 15 13  1  1  0  0  0
 17 19  2  0  0  0  0
 17 15  1  0  0  0  0
 18  2  1  0  0  0  0
 18  9  2  0  0  0  0
 20 21  2  0  0  0  0
 20  2  1  0  0  0  0
 21  8  1  0  0  0  0
 22  6  1  0  0  0  0
 23 11  1  0  0  0  0
 23 10  1  0  0  0  0
 24 23  1  0  0  0  0
 25  1  1  0  0  0  0
 27  4  1  0  0  0  0
 27 25  1  0  0  0  0
 27 28  1  6  0  0  0
 29 28  1  0  0  0  0
 30 28  1  0  0  0  0
M  END
>  <CHROM.1>
82.81150234,0.30916930,-147.97546704,177.01052560,68.30752260,25.83960703
40.72845755,23.80279285,1.49863808,-0.32600200,-2.30732576

>  <Name>
lig.pdb

>  <RI>
0

>  <Rbt.Current_Directory>
/home/itssahil/PROJECTS/Mol_Feturizer/New_Systems/rnas/6bfb

>  <Rbt.Executable>
rbdock ($Id: //depot/dev/client3/rdock/2013.1/src/exe/rbdock.cxx#4 $)

>  <Rbt.Library>
libRbt.so (2013.1, Build901 2013/11/27)

>  <Rbt.Parameter_File>
/export/apps/rDock/src/rDock_2013.1_src/data/scripts/dock_solv.prm

>  <Rbt.Receptor>
prm/blind_docking_60.prm

>  <SCORE>
-36.6249

>  <SCORE.INTER>
-30.5846

>  <SCORE.INTER.CONST>
1

>  <SCORE.INTER.POLAR>
0

>  <SCORE.INTER.ROT>
3

>  <SCORE.INTER.SOLV>
12.0151

>  <SCORE.INTER.VDW>
-29.9948

>  <SCORE.INTER.norm>
-1.01949

>  <SCORE.INTRA>
-6.04026

>  <SCORE.INTRA.DIHEDRAL>
-7.39175

>  <SCORE.INTRA.DIHEDRAL.0>
9.41909

>  <SCORE.INTRA.POLAR>
0

>  <SCORE.INTRA.POLAR.0>
0

>  <SCORE.INTRA.REPUL>
0

>  <SCORE.INTRA.REPUL.0>
0

>  <SCORE.INTRA.SOLV>
-0.0420281

>  <SCORE.INTRA.SOLV.lig_0>
-26.2491

>  <SCORE.INTRA.VDW>
-2.32337

>  <SCORE.INTRA.VDW.0>
2.57239

>  <SCORE.INTRA.norm>
-0.201342

>  <SCORE.RESTR>
0

>  <SCORE.RESTR.CAVITY>
0

>  <SCORE.RESTR.norm>
0

>  <SCORE.SYSTEM>
0

>  <SCORE.SYSTEM.CONST>
0

>  <SCORE.SYSTEM.DIHEDRAL>
0

>  <SCORE.SYSTEM.SOLV>
0

>  <SCORE.SYSTEM.norm>
0

>  <SCORE.heavy>
30

>  <SCORE.norm>
-1.22083

>  <RMSD>
1.995

$$$$
lig.pdb
 OpenBabel11021811523D
libRbt.so/2013.1/901 2013/11/27
 30 34  0  0  0  0  0  0  0  0999 V2000
   25.2667   38.8254   21.7908 N   0  0  0  0  0  0  0  0  0  0  0  0
   26.5459   42.3131   25.0629 N   0  0  0  0  0  0  0  0  0  0  0  0
   24.7511   39.1985   20.4700 C   0  0  0  0  0  0  0  0  0  0  0  0
   25.4685   38.2066   19.5668 C   0  0  2  0  0  0  0  0  0  0  0  0
   24.9613   39.6419   22.9602 C   0  0  0  0  0  0  0  0  0  0  0  0
   23.7494   39.5578   23.6757 C   0  0  0  0  0  0  0  0  0  0  0  0
   23.4473   40.3445   24.7592 C   0  0  0  0  0  0  0  0  0  0  0  0
   24.0143   42.1839   26.3495 C   0  0  0  0  0  0  0  0  0  0  0  0
   28.6142   43.2173   25.2271 C   0  0  0  0  0  0  0  0  0  0  0  0
   28.1872   41.2221   23.6277 C   0  0  0  0  0  0  0  0  0  0  0  0
   25.9071   40.5956   23.4316 C   0  0  0  0  0  0  0  0  0  0  0  0
   24.9155   43.8273   29.0121 O   0  0  0  0  0  0  0  0  0  0  0  0
   24.7469   44.1416   27.8319 C   0  0  0  0  0  0  0  0  0  0  0  0
   24.2795   45.3298   27.4692 O   0  0  0  0  0  0  0  0  0  0  0  0
   25.0467   43.1798   26.7379 C   0  0  1  0  0  0  0  0  0  0  0  0
   22.9426   42.0642   26.9528 O   0  0  0  0  0  0  0  0  0  0  0  0
   26.2984   43.2106   26.0990 C   0  0  0  0  0  0  0  0  0  0  0  0
   27.8676   42.3063   24.5955 C   0  0  0  0  0  0  0  0  0  0  0  0
   27.7394   44.0806   26.4232 S   0  0  0  0  0  0  0  0  0  0  0  0
   25.6060   41.3905   24.5607 C   0  0  0  0  0  0  0  0  0  0  0  0
   24.3665   41.2911   25.2113 C   0  0  0  0  0  0  0  0  0  0  0  0
   22.8364   38.6389   23.3022 F   0  0  0  0  0  0  0  0  0  0  0  0
   27.1132   40.8040   22.7445 N   0  0  0  0  0  0  0  0  0  0  0  0
   26.9085   41.6303   21.5739 C   0  0  0  0  0  0  0  0  0  0  0  0
   26.5188   38.0848   21.6857 C   0  0  0  0  0  0  0  0  0  0  0  0
   24.5460   37.4235   18.8081 O   0  0  0  0  0  0  0  0  0  0  0  0
   26.1885   37.2191   20.4815 C   0  0  2  0  0  0  0  0  0  0  0  0
   27.3339   36.6546   19.7426 N   0  0  0  0  0  0  0  0  0  0  0  0
   28.4313   37.5992   19.4658 C   0  0  0  0  0  0  0  0  0  0  0  0
   27.8171   35.3842   20.3052 C   0  0  0  0  0  0  0  0  0  0  0  0
  1  5  1  0  0  0  0
  2 17  1  0  0  0  0
  3  1  1  0  0  0  0
  4  3  1  0  0  0  0
  4 26  1  1  0  0  0
  5 11  2  0  0  0  0
  5  6  1  0  0  0  0
  6  7  2  0  0  0  0
  7 21  1  0  0  0  0
  8 15  1  0  0  0  0
  8 16  2  0  0  0  0
  9 19  1  0  0  0  0
 10 18  1  0  0  0  0
 11 20  1  0  0  0  0
 13 14  1  0  0  0  0
 13 12  2  0  0  0  0
 15 13  1  1  0  0  0
 17 19  2  0  0  0  0
 17 15  1  0  0  0  0
 18  2  1  0  0  0  0
 18  9  2  0  0  0  0
 20 21  2  0  0  0  0
 20  2  1  0  0  0  0
 21  8  1  0  0  0  0
 22  6  1  0  0  0  0
 23 11  1  0  0  0  0
 23 10  1  0  0  0  0
 24 23  1  0  0  0  0
 25  1  1  0  0  0  0
 27  4  1  0  0  0  0
 27 25  1  0  0  0  0
 27 28  1  6  0  0  0
 29 28  1  0  0  0  0
 30 28  1  0  0  0  0
M  END
>  <CHROM.1>
81.17970533,176.95087771,84.33063145,-58.12021658,68.85431867,25.79348448
40.74814223,23.73293259,1.48715296,-0.28124312,-2.32977287

>  <Name>
lig.pdb

>  <RI>
0

>  <Rbt.Current_Directory>
/home/itssahil/PROJECTS/Mol_Feturizer/New_Systems/rnas/6bfb

>  <Rbt.Executable>
rbdock ($Id: //depot/dev/client3/rdock/2013.1/src/exe/rbdock.cxx#4 $)

>  <Rbt.Library>
libRbt.so (2013.1, Build901 2013/11/27)

>  <Rbt.Parameter_File>
/export/apps/rDock/src/rDock_2013.1_src/data/scripts/dock_solv.prm

>  <Rbt.Receptor>
prm/pocket_docking_3.prm

>  <SCORE>
-39.5194

>  <SCORE.INTER>
-33.8657

>  <SCORE.INTER.CONST>
1

>  <SCORE.INTER.POLAR>
-0.848203

>  <SCORE.INTER.ROT>
3

>  <SCORE.INTER.SOLV>
11.9528

>  <SCORE.INTER.VDW>
-29.3341

>  <SCORE.INTER.norm>
-1.12886

>  <SCORE.INTRA>
-5.65371

>  <SCORE.INTRA.DIHEDRAL>
-7.31158

>  <SCORE.INTRA.DIHEDRAL.0>
9.41909

>  <SCORE.INTRA.POLAR>
0

>  <SCORE.INTRA.POLAR.0>
0

>  <SCORE.INTRA.REPUL>
0

>  <SCORE.INTRA.REPUL.0>
0

>  <SCORE.INTRA.SOLV>
-0.190744

>  <SCORE.INTRA.SOLV.lig_0>
-26.2491

>  <SCORE.INTRA.VDW>
-1.90255

>  <SCORE.INTRA.VDW.0>
2.57239

>  <SCORE.INTRA.norm>
-0.188457

>  <SCORE.RESTR>
0

>  <SCORE.RESTR.CAVITY>
0

>  <SCORE.RESTR.norm>
0

>  <SCORE.SYSTEM>
0

>  <SCORE.SYSTEM.CONST>
0

>  <SCORE.SYSTEM.DIHEDRAL>
0

>  <SCORE.SYSTEM.SOLV>
0

>  <SCORE.SYSTEM.norm>
0

>  <SCORE.heavy>
30

>  <SCORE.norm>
-1.31731

>  <RMSD>
1.995

$$$$
lig.pdb
 OpenBabel11021811523D
libRbt.so/2013.1/901 2013/11/27
 30 34  0  0  0  0  0  0  0  0999 V2000
   25.2887   38.8198   21.7907 N   0  0  0  0  0  0  0  0  0  0  0  0
   26.5334   42.3187   25.0643 N   0  0  0  0  0  0  0  0  0  0  0  0
   24.7787   39.1929   20.4678 C   0  0  0  0  0  0  0  0  0  0  0  0
   25.5040   38.2046   19.5670 C   0  0  2  0  0  0  0  0  0  0  0  0
   24.9747   39.6338   22.9596 C   0  0  0  0  0  0  0  0  0  0  0  0
   23.7625   39.5395   23.6734 C   0  0  0  0  0  0  0  0  0  0  0  0
   23.4522   40.3236   24.7563 C   0  0  0  0  0  0  0  0  0  0  0  0
   24.0012   42.1680   26.3472 C   0  0  0  0  0  0  0  0  0  0  0  0
   28.5937   43.2405   25.2313 C   0  0  0  0  0  0  0  0  0  0  0  0
   28.1860   41.2416   23.6315 C   0  0  0  0  0  0  0  0  0  0  0  0
   25.9116   40.5956   23.4322 C   0  0  0  0  0  0  0  0  0  0  0  0
   24.8469   43.8059   29.0120 O   0  0  0  0  0  0  0  0  0  0  0  0
   24.7149   44.1320   27.8304 C   0  0  0  0  0  0  0  0  0  0  0  0
   24.2799   45.3317   27.4652 O   0  0  0  0  0  0  0  0  0  0  0  0
   25.0244   43.1728   26.7370 C   0  0  1  0  0  0  0  0  0  0  0  0
   22.9296   42.0392   26.9490 O   0  0  0  0  0  0  0  0  0  0  0  0
   26.2768   43.2141   26.0999 C   0  0  0  0  0  0  0  0  0  0  0  0
   27.8558   42.3231   24.5987 C   0  0  0  0  0  0  0  0  0  0  0  0
   27.7099   44.0965   26.4260 S   0  0  0  0  0  0  0  0  0  0  0  0
   25.6022   41.3881   24.5608 C   0  0  0  0  0  0  0  0  0  0  0  0
   24.3626   41.2782   25.2096 C   0  0  0  0  0  0  0  0  0  0  0  0
   22.8579   38.6128   23.2987 F   0  0  0  0  0  0  0  0  0  0  0  0
   27.1169   40.8143   22.7468 N   0  0  0  0  0  0  0  0  0  0  0  0
   26.9068   41.6386   21.5759 C   0  0  0  0  0  0  0  0  0  0  0  0
   26.5437   38.0834   21.6911 C   0  0  0  0  0  0  0  0  0  0  0  0
   24.5879   37.4194   18.8026 O   0  0  0  0  0  0  0  0  0  0  0  0
   26.2224   37.2182   20.4841 C   0  0  2  0  0  0  0  0  0  0  0  0
   27.3734   36.6584   19.7503 N   0  0  0  0  0  0  0  0  0  0  0  0
   28.4573   37.6136   19.4567 C   0  0  0  0  0  0  0  0  0  0  0  0
   27.8752   35.4031   20.3301 C   0  0  0  0  0  0  0  0  0  0  0  0
  1  5  1  0  0  0  0
  2 17  1  0  0  0  0
  3  1  1  0  0  0  0
  4  3  1  0  0  0  0
  4 26  1  6  0  0  0
  5 11  2  0  0  0  0
  5  6  1  0  0  0  0
  6  7  2  0  0  0  0
  7 21  1  0  0  0  0
  8 15  1  0  0  0  0
  8 16  2  0  0  0  0
  9 19  1  0  0  0  0
 10 18  1  0  0  0  0
 11 20  1  0  0  0  0
 13 14  1  0  0  0  0
 13 12  2  0  0  0  0
 15 13  1  1  0  0  0
 17 19  2  0  0  0  0
 17 15  1  0  0  0  0
 18  2  1  0  0  0  0
 18  9  2  0  0  0  0
 20 21  2  0  0  0  0
 20  2  1  0  0  0  0
 21  8  1  0  0  0  0
 22  6  1  0  0  0  0
 23 11  1  0  0  0  0
 23 10  1  0  0  0  0
 24 23  1  0  0  0  0
 25  1  1  0  0  0  0
 27  4  1  0  0  0  0
 27 25  1  0  0  0  0
 27 28  1  6  0  0  0
 29 28  1  0  0  0  0
 30 28  1  0  0  0  0
M  END
>  <CHROM.1>
81.55754365,178.56946098,82.16852483,-57.53273903,67.67867838,25.79652178
40.74715633,23.73366970,1.48000975,-0.28807251,-2.33217671

>  <Name>
lig.pdb

>  <RI>
0

>  <Rbt.Current_Directory>
/home/itssahil/PROJECTS/Mol_Feturizer/New_Systems/rnas/6bfb

>  <Rbt.Executable>
rbdock ($Id: //depot/dev/client3/rdock/2013.1/src/exe/rbdock.cxx#4 $)

>  <Rbt.Library>
libRbt.so (2013.1, Build901 2013/11/27)

>  <Rbt.Parameter_File>
/export/apps/rDock/src/rDock_2013.1_src/data/scripts/dock_solv.prm

>  <Rbt.Receptor>
prm/pocket_docking_3.prm

>  <SCORE>
-39.4784

>  <SCORE.INTER>
-33.7696

>  <SCORE.INTER.CONST>
1

>  <SCORE.INTER.POLAR>
-0.848528

>  <SCORE.INTER.ROT>
3

>  <SCORE.INTER.SOLV>
11.9576

>  <SCORE.INTER.VDW>
-29.2705

>  <SCORE.INTER.norm>
-1.12565

>  <SCORE.INTRA>
-5.70888

>  <SCORE.INTRA.DIHEDRAL>
-7.40617

>  <SCORE.INTRA.DIHEDRAL.0>
9.41909

>  <SCORE.INTRA.POLAR>
0

>  <SCORE.INTRA.POLAR.0>
0

>  <SCORE.INTRA.REPUL>
0

>  <SCORE.INTRA.REPUL.0>
0

>  <SCORE.INTRA.SOLV>
-0.193042

>  <SCORE.INTRA.SOLV.lig_0>
-26.2491

>  <SCORE.INTRA.VDW>
-1.90928

>  <SCORE.INTRA.VDW.0>
2.57239

>  <SCORE.INTRA.norm>
-0.190296

>  <SCORE.RESTR>
0

>  <SCORE.RESTR.CAVITY>
0

>  <SCORE.RESTR.norm>
0

>  <SCORE.SYSTEM>
0

>  <SCORE.SYSTEM.CONST>
0

>  <SCORE.SYSTEM.DIHEDRAL>
0

>  <SCORE.SYSTEM.SOLV>
0

>  <SCORE.SYSTEM.norm>
0

>  <SCORE.heavy>
30

>  <SCORE.norm>
-1.31595

>  <RMSD>
1.997

$$$$
lig.pdb
 OpenBabel11021811523D
libRbt.so/2013.1/901 2013/11/27
 30 34  0  0  0  0  0  0  0  0999 V2000
   24.6057   37.9258   21.2057 N   0  0  0  0  0  0  0  0  0  0  0  0
   27.3695   41.3021   23.5444 N   0  0  0  0  0  0  0  0  0  0  0  0
   25.7042   37.0726   20.7423 C   0  0  0  0  0  0  0  0  0  0  0  0
   24.9934   36.1659   19.7489 C   0  0  2  0  0  0  0  0  0  0  0  0
   24.8083   38.8549   22.3117 C   0  0  0  0  0  0  0  0  0  0  0  0
   23.8760   39.0448   23.3521 C   0  0  0  0  0  0  0  0  0  0  0  0
   24.0507   39.9388   24.3789 C   0  0  0  0  0  0  0  0  0  0  0  0
   25.3660   41.7315   25.5148 C   0  0  0  0  0  0  0  0  0  0  0  0
   29.5067   41.8080   22.9977 C   0  0  0  0  0  0  0  0  0  0  0  0
   28.2948   39.8356   21.8305 C   0  0  0  0  0  0  0  0  0  0  0  0
   25.9940   39.6399   22.3763 C   0  0  0  0  0  0  0  0  0  0  0  0
   25.8651   44.2134   26.9656 O   0  0  0  0  0  0  0  0  0  0  0  0
   26.8228   43.6023   26.4866 C   0  0  0  0  0  0  0  0  0  0  0  0
   28.0788   43.8631   26.8276 O   0  0  0  0  0  0  0  0  0  0  0  0
   26.6144   42.5365   25.4707 C   0  0  1  0  0  0  0  0  0  0  0  0
   24.5252   41.8531   26.4122 O   0  0  0  0  0  0  0  0  0  0  0  0
   27.5988   42.2915   24.4976 C   0  0  0  0  0  0  0  0  0  0  0  0
   28.4659   41.0175   22.7183 C   0  0  0  0  0  0  0  0  0  0  0  0
   29.1907   42.8921   24.2886 S   0  0  0  0  0  0  0  0  0  0  0  0
   26.1849   40.5446   23.4452 C   0  0  0  0  0  0  0  0  0  0  0  0
   25.2044   40.7207   24.4337 C   0  0  0  0  0  0  0  0  0  0  0  0
   22.7566   38.2937   23.3670 F   0  0  0  0  0  0  0  0  0  0  0  0
   26.9497   39.5748   21.3502 N   0  0  0  0  0  0  0  0  0  0  0  0
   26.5336   40.3520   20.2023 C   0  0  0  0  0  0  0  0  0  0  0  0
   23.3082   37.3064   20.9601 C   0  0  0  0  0  0  0  0  0  0  0  0
   25.5844   36.2422   18.4509 O   0  0  0  0  0  0  0  0  0  0  0  0
   23.5779   36.7140   19.5872 C   0  0  2  0  0  0  0  0  0  0  0  0
   22.6989   35.6075   19.1635 N   0  0  0  0  0  0  0  0  0  0  0  0
   21.2549   35.8494   19.3362 C   0  0  0  0  0  0  0  0  0  0  0  0
   23.0237   35.0891   17.8258 C   0  0  0  0  0  0  0  0  0  0  0  0
  1  5  1  0  0  0  0
  2 17  1  0  0  0  0
  3  1  1  0  0  0  0
  4  3  1  0  0  0  0
  4 26  1  6  0  0  0
  5 11  2  0  0  0  0
  5  6  1  0  0  0  0
  6  7  2  0  0  0  0
  7 21  1  0  0  0  0
  8 15  1  0  0  0  0
  8 16  2  0  0  0  0
  9 19  1  0  0  0  0
 10 18  1  0  0  0  0
 11 20  1  0  0  0  0
 13 14  1  0  0  0  0
 13 12  2  0  0  0  0
 15 13  1  1  0  0  0
 17 19  2  0  0  0  0
 17 15  1  0  0  0  0
 18  2  1  0  0  0  0
 18  9  2  0  0  0  0
 20 21  2  0  0  0  0
 20  2  1  0  0  0  0
 21  8  1  0  0  0  0
 22  6  1  0  0  0  0
 23 11  1  0  0  0  0
 23 10  1  0  0  0  0
 24 23  1  0  0  0  0
 25  1  1  0  0  0  0
 27  4  1  0  0  0  0
 27 25  1  0  0  0  0
 27 28  1  1  0  0  0
 29 28  1  0  0  0  0
 30 28  1  0  0  0  0
M  END
>  <CHROM.1>
-137.18775093,-5.37874653,-30.93960442,64.60300009,162.93521824,25.72460730
39.81940237,22.69972112,2.01274386,-0.38146653,-2.23434281

>  <Name>
lig.pdb

>  <RI>
0

>  <Rbt.Current_Directory>
/home/itssahil/PROJECTS/Mol_Feturizer/New_Systems/rnas/6bfb

>  <Rbt.Executable>
rbdock ($Id: //depot/dev/client3/rdock/2013.1/src/exe/rbdock.cxx#4 $)

>  <Rbt.Library>
libRbt.so (2013.1, Build901 2013/11/27)

>  <Rbt.Parameter_File>
/export/apps/rDock/src/rDock_2013.1_src/data/scripts/dock_solv.prm

>  <Rbt.Receptor>
prm/pocket_docking_7.prm

>  <SCORE>
-40.1352

>  <SCORE.INTER>
-36.7417

>  <SCORE.INTER.CONST>
1

>  <SCORE.INTER.POLAR>
-0.460375

>  <SCORE.INTER.ROT>
3

>  <SCORE.INTER.SOLV>
13.5484

>  <SCORE.INTER.VDW>
-33.076

>  <SCORE.INTER.norm>
-1.22472

>  <SCORE.INTRA>
-3.39348

>  <SCORE.INTRA.DIHEDRAL>
-7.19139

>  <SCORE.INTRA.DIHEDRAL.0>
9.41909

>  <SCORE.INTRA.POLAR>
0

>  <SCORE.INTRA.POLAR.0>
0

>  <SCORE.INTRA.REPUL>
0

>  <SCORE.INTRA.REPUL.0>
0

>  <SCORE.INTRA.SOLV>
-0.0302378

>  <SCORE.INTRA.SOLV.lig_0>
-26.2491

>  <SCORE.INTRA.VDW>
0.217334

>  <SCORE.INTRA.VDW.0>
2.57239

>  <SCORE.INTRA.norm>
-0.113116

>  <SCORE.RESTR>
0

>  <SCORE.RESTR.CAVITY>
0

>  <SCORE.RESTR.norm>
0

>  <SCORE.SYSTEM>
0

>  <SCORE.SYSTEM.CONST>
0

>  <SCORE.SYSTEM.DIHEDRAL>
0

>  <SCORE.SYSTEM.SOLV>
0

>  <SCORE.SYSTEM.norm>
0

>  <SCORE.heavy>
30

>  <SCORE.norm>
-1.33784

>  <RMSD>
1.998

$$$$
lig.pdb
 OpenBabel11021811523D
libRbt.so/2013.1/901 2013/11/27
 30 34  0  0  0  0  0  0  0  0999 V2000
   25.2670   38.8270   21.7975 N   0  0  0  0  0  0  0  0  0  0  0  0
   26.5454   42.3109   25.0739 N   0  0  0  0  0  0  0  0  0  0  0  0
   24.7559   39.2027   20.4757 C   0  0  0  0  0  0  0  0  0  0  0  0
   25.4730   38.2098   19.5734 C   0  0  2  0  0  0  0  0  0  0  0  0
   24.9608   39.6432   22.9669 C   0  0  0  0  0  0  0  0  0  0  0  0
   23.7475   39.5603   23.6803 C   0  0  0  0  0  0  0  0  0  0  0  0
   23.4447   40.3467   24.7638 C   0  0  0  0  0  0  0  0  0  0  0  0
   24.0116   42.1843   26.3561 C   0  0  0  0  0  0  0  0  0  0  0  0
   28.6147   43.2122   25.2421 C   0  0  0  0  0  0  0  0  0  0  0  0
   28.1876   41.2186   23.6407 C   0  0  0  0  0  0  0  0  0  0  0  0
   25.9071   40.5953   23.4404 C   0  0  0  0  0  0  0  0  0  0  0  0
   24.8982   43.8205   29.0217 O   0  0  0  0  0  0  0  0  0  0  0  0
   24.7443   44.1401   27.8409 C   0  0  0  0  0  0  0  0  0  0  0  0
   24.2928   45.3343   27.4775 O   0  0  0  0  0  0  0  0  0  0  0  0
   25.0446   43.1787   26.7469 C   0  0  1  0  0  0  0  0  0  0  0  0
   22.9386   42.0657   26.9576 O   0  0  0  0  0  0  0  0  0  0  0  0
   26.2975   43.2081   26.1101 C   0  0  0  0  0  0  0  0  0  0  0  0
   27.8680   42.3026   24.6087 C   0  0  0  0  0  0  0  0  0  0  0  0
   27.7391   44.0760   26.4372 S   0  0  0  0  0  0  0  0  0  0  0  0
   25.6052   41.3899   24.5695 C   0  0  0  0  0  0  0  0  0  0  0  0
   24.3644   41.2918   25.2179 C   0  0  0  0  0  0  0  0  0  0  0  0
   22.8339   38.6429   23.3047 F   0  0  0  0  0  0  0  0  0  0  0  0
   27.1146   40.8025   22.7555 N   0  0  0  0  0  0  0  0  0  0  0  0
   26.9130   41.6298   21.5851 C   0  0  0  0  0  0  0  0  0  0  0  0
   26.5174   38.0831   21.6949 C   0  0  0  0  0  0  0  0  0  0  0  0
   24.5504   37.4299   18.8115 O   0  0  0  0  0  0  0  0  0  0  0  0
   26.1879   37.2194   20.4890 C   0  0  2  0  0  0  0  0  0  0  0  0
   27.3337   36.6526   19.7525 N   0  0  0  0  0  0  0  0  0  0  0  0
   28.4240   37.6004   19.4589 C   0  0  0  0  0  0  0  0  0  0  0  0
   27.8272   35.3926   20.3294 C   0  0  0  0  0  0  0  0  0  0  0  0
  1  5  1  0  0  0  0
  2 17  1  0  0  0  0
  3  1  1  0  0  0  0
  4  3  1  0  0  0  0
  4 26  1  6  0  0  0
  5 11  2  0  0  0  0
  5  6  1  0  0  0  0
  6  7  2  0  0  0  0
  7 21  1  0  0  0  0
  8 15  1  0  0  0  0
  8 16  2  0  0  0  0
  9 19  1  0  0  0  0
 10 18  1  0  0  0  0
 11 20  1  0  0  0  0
 13 14  1  0  0  0  0
 13 12  2  0  0  0  0
 15 13  1  1  0  0  0
 17 19  2  0  0  0  0
 17 15  1  0  0  0  0
 18  2  1  0  0  0  0
 18  9  2  0  0  0  0
 20 21  2  0  0  0  0
 20  2  1  0  0  0  0
 21  8  1  0  0  0  0
 22  6  1  0  0  0  0
 23 11  1  0  0  0  0
 23 10  1  0  0  0  0
 24 23  1  0  0  0  0
 25  1  1  0  0  0  0
 27  4  1  0  0  0  0
 27 25  1  0  0  0  0
 27 28  1  6  0  0  0
 29 28  1  0  0  0  0
 30 28  1  0  0  0  0
M  END
>  <CHROM.1>
81.27570784,178.11078803,83.62366227,176.32918362,67.83084490,25.79596983
40.74797852,23.73864676,1.48574171,-0.28019541,-2.32848716

>  <Name>
lig.pdb

>  <RI>
0

>  <Rbt.Current_Directory>
/home/itssahil/PROJECTS/Mol_Feturizer/New_Systems/rnas/6bfb

>  <Rbt.Executable>
rbdock ($Id: //depot/dev/client3/rdock/2013.1/src/exe/rbdock.cxx#4 $)

>  <Rbt.Library>
libRbt.so (2013.1, Build901 2013/11/27)

>  <Rbt.Parameter_File>
/export/apps/rDock/src/rDock_2013.1_src/data/scripts/dock_solv.prm

>  <Rbt.Receptor>
prm/pocket_docking_5.prm

>  <SCORE>
-39.8739

>  <SCORE.INTER>
-33.703

>  <SCORE.INTER.CONST>
1

>  <SCORE.INTER.POLAR>
-0.845313

>  <SCORE.INTER.ROT>
3

>  <SCORE.INTER.SOLV>
11.9612

>  <SCORE.INTER.VDW>
-29.238

>  <SCORE.INTER.norm>
-1.12343

>  <SCORE.INTRA>
-6.17097

>  <SCORE.INTRA.DIHEDRAL>
-7.35094

>  <SCORE.INTRA.DIHEDRAL.0>
9.41909

>  <SCORE.INTRA.POLAR>
0

>  <SCORE.INTRA.POLAR.0>
0

>  <SCORE.INTRA.REPUL>
0

>  <SCORE.INTRA.REPUL.0>
0

>  <SCORE.INTRA.SOLV>
-0.167958

>  <SCORE.INTRA.SOLV.lig_0>
-26.2491

>  <SCORE.INTRA.VDW>
-2.41151

>  <SCORE.INTRA.VDW.0>
2.57239

>  <SCORE.INTRA.norm>
-0.205699

>  <SCORE.RESTR>
0

>  <SCORE.RESTR.CAVITY>
0

>  <SCORE.RESTR.norm>
0

>  <SCORE.SYSTEM>
0

>  <SCORE.SYSTEM.CONST>
0

>  <SCORE.SYSTEM.DIHEDRAL>
0

>  <SCORE.SYSTEM.SOLV>
0

>  <SCORE.SYSTEM.norm>
0

>  <SCORE.heavy>
30

>  <SCORE.norm>
-1.32913

>  <RMSD>
1.999

$$$$
lig.pdb
 OpenBabel11021811523D
libRbt.so/2013.1/901 2013/11/27
 30 34  0  0  0  0  0  0  0  0999 V2000
   25.2497   38.8260   21.8005 N   0  0  0  0  0  0  0  0  0  0  0  0
   26.5354   42.3126   25.0713 N   0  0  0  0  0  0  0  0  0  0  0  0
   24.7529   39.2114   20.4761 C   0  0  0  0  0  0  0  0  0  0  0  0
   25.4633   38.2113   19.5764 C   0  0  2  0  0  0  0  0  0  0  0  0
   24.9460   39.6434   22.9697 C   0  0  0  0  0  0  0  0  0  0  0  0
   23.7340   39.5616   23.6855 C   0  0  0  0  0  0  0  0  0  0  0  0
   23.4335   40.3491   24.7687 C   0  0  0  0  0  0  0  0  0  0  0  0
   24.0039   42.1881   26.3583 C   0  0  0  0  0  0  0  0  0  0  0  0
   28.6054   43.2133   25.2347 C   0  0  0  0  0  0  0  0  0  0  0  0
   28.1746   41.2183   23.6360 C   0  0  0  0  0  0  0  0  0  0  0  0
   25.8934   40.5956   23.4406 C   0  0  0  0  0  0  0  0  0  0  0  0
   24.8874   43.8235   29.0210 O   0  0  0  0  0  0  0  0  0  0  0  0
   24.7401   44.1450   27.8399 C   0  0  0  0  0  0  0  0  0  0  0  0
   24.2980   45.3425   27.4758 O   0  0  0  0  0  0  0  0  0  0  0  0
   25.0380   43.1824   26.7462 C   0  0  1  0  0  0  0  0  0  0  0  0
   22.9320   42.0704   26.9619 O   0  0  0  0  0  0  0  0  0  0  0  0
   26.2897   43.2108   26.1071 C   0  0  0  0  0  0  0  0  0  0  0  0
   27.8571   42.3034   24.6036 C   0  0  0  0  0  0  0  0  0  0  0  0
   27.7322   44.0785   26.4307 S   0  0  0  0  0  0  0  0  0  0  0  0
   25.5939   41.3914   24.5695 C   0  0  0  0  0  0  0  0  0  0  0  0
   24.3543   41.2944   25.2203 C   0  0  0  0  0  0  0  0  0  0  0  0
   22.8194   38.6441   23.3124 F   0  0  0  0  0  0  0  0  0  0  0  0
   27.0998   40.8018   22.7532 N   0  0  0  0  0  0  0  0  0  0  0  0
   26.8963   41.6280   21.5824 C   0  0  0  0  0  0  0  0  0  0  0  0
   26.4910   38.0661   21.7049 C   0  0  0  0  0  0  0  0  0  0  0  0
   24.5360   37.4453   18.8063 O   0  0  0  0  0  0  0  0  0  0  0  0
   26.1587   37.2096   20.4946 C   0  0  2  0  0  0  0  0  0  0  0  0
   27.3022   36.6295   19.7648 N   0  0  0  0  0  0  0  0  0  0  0  0
   28.4241   37.5532   19.5164 C   0  0  0  0  0  0  0  0  0  0  0  0
   27.7492   35.3416   20.3174 C   0  0  0  0  0  0  0  0  0  0  0  0
  1  5  1  0  0  0  0
  2 17  1  0  0  0  0
  3  1  1  0  0  0  0
  4  3  1  0  0  0  0
  4 26  1  6  0  0  0
  5 11  2  0  0  0  0
  5  6  1  0  0  0  0
  6  7  2  0  0  0  0
  7 21  1  0  0  0  0
  8 15  1  0  0  0  0
  8 16  2  0  0  0  0
  9 19  1  0  0  0  0
 10 18  1  0  0  0  0
 11 20  1  0  0  0  0
 13 14  1  0  0  0  0
 13 12  2  0  0  0  0
 15 13  1  1  0  0  0
 17 19  2  0  0  0  0
 17 15  1  0  0  0  0
 18  2  1  0  0  0  0
 18  9  2  0  0  0  0
 20 21  2  0  0  0  0
 20  2  1  0  0  0  0
 21  8  1  0  0  0  0
 22  6  1  0  0  0  0
 23 11  1  0  0  0  0
 23 10  1  0  0  0  0
 24 23  1  0  0  0  0
 25  1  1  0  0  0  0
 27  4  1  0  0  0  0
 27 25  1  0  0  0  0
 27 28  1  6  0  0  0
 29 28  1  0  0  0  0
 30 28  1  0  0  0  0
M  END
>  <CHROM.1>
82.18257432,178.32912276,83.12519483,176.62500723,69.57746475,25.78219805
40.74538791,23.74065241,1.48804217,-0.28122469,-2.33056275

>  <Name>
lig.pdb

>  <RI>
0

>  <Rbt.Current_Directory>
/home/itssahil/PROJECTS/Mol_Feturizer/New_Systems/rnas/6bfb

>  <Rbt.Executable>
rbdock ($Id: //depot/dev/client3/rdock/2013.1/src/exe/rbdock.cxx#4 $)

>  <Rbt.Library>
libRbt.so (2013.1, Build901 2013/11/27)

>  <Rbt.Parameter_File>
/export/apps/rDock/src/rDock_2013.1_src/data/scripts/dock_solv.prm

>  <Rbt.Receptor>
prm/pocket_docking_8.prm

>  <SCORE>
-39.8491

>  <SCORE.INTER>
-33.7098

>  <SCORE.INTER.CONST>
1

>  <SCORE.INTER.POLAR>
-0.848528

>  <SCORE.INTER.ROT>
3

>  <SCORE.INTER.SOLV>
11.982

>  <SCORE.INTER.VDW>
-29.2388

>  <SCORE.INTER.norm>
-1.12366

>  <SCORE.INTRA>
-6.13923

>  <SCORE.INTRA.DIHEDRAL>
-7.29846

>  <SCORE.INTRA.DIHEDRAL.0>
9.41909

>  <SCORE.INTRA.POLAR>
0

>  <SCORE.INTRA.POLAR.0>
0

>  <SCORE.INTRA.REPUL>
0

>  <SCORE.INTRA.REPUL.0>
0

>  <SCORE.INTRA.SOLV>
-0.169658

>  <SCORE.INTRA.SOLV.lig_0>
-26.2491

>  <SCORE.INTRA.VDW>
-2.40517

>  <SCORE.INTRA.VDW.0>
2.57239

>  <SCORE.INTRA.norm>
-0.204641

>  <SCORE.RESTR>
0

>  <SCORE.RESTR.CAVITY>
0

>  <SCORE.RESTR.norm>
0

>  <SCORE.SYSTEM>
0

>  <SCORE.SYSTEM.CONST>
0

>  <SCORE.SYSTEM.DIHEDRAL>
0

>  <SCORE.SYSTEM.SOLV>
0

>  <SCORE.SYSTEM.norm>
0

>  <SCORE.heavy>
30

>  <SCORE.norm>
-1.3283

>  <RMSD>
1.999

$$$$
lig.pdb
 OpenBabel11021811523D
libRbt.so/2013.1/901 2013/11/27
 30 34  0  0  0  0  0  0  0  0999 V2000
   24.5873   37.9386   21.2087 N   0  0  0  0  0  0  0  0  0  0  0  0
   27.3612   41.2983   23.5592 N   0  0  0  0  0  0  0  0  0  0  0  0
   25.6823   37.0810   20.7452 C   0  0  0  0  0  0  0  0  0  0  0  0
   24.9688   36.1806   19.7479 C   0  0  2  0  0  0  0  0  0  0  0  0
   24.7925   38.8636   22.3176 C   0  0  0  0  0  0  0  0  0  0  0  0
   23.8602   39.0534   23.3582 C   0  0  0  0  0  0  0  0  0  0  0  0
   24.0374   39.9437   24.3877 C   0  0  0  0  0  0  0  0  0  0  0  0
   25.3581   41.7284   25.5298 C   0  0  0  0  0  0  0  0  0  0  0  0
   29.5004   41.7987   23.0152 C   0  0  0  0  0  0  0  0  0  0  0  0
   28.2824   39.8340   21.8413 C   0  0  0  0  0  0  0  0  0  0  0  0
   25.9807   39.6443   22.3852 C   0  0  0  0  0  0  0  0  0  0  0  0
   25.8662   44.2162   26.9757 O   0  0  0  0  0  0  0  0  0  0  0  0
   26.8207   43.5913   26.5082 C   0  0  0  0  0  0  0  0  0  0  0  0
   28.0761   43.8334   26.8649 O   0  0  0  0  0  0  0  0  0  0  0  0
   26.6092   42.5293   25.4888 C   0  0  1  0  0  0  0  0  0  0  0  0
   24.5172   41.8502   26.4271 O   0  0  0  0  0  0  0  0  0  0  0  0
   27.5934   42.2840   24.5155 C   0  0  0  0  0  0  0  0  0  0  0  0
   28.4571   41.0126   22.7328 C   0  0  0  0  0  0  0  0  0  0  0  0
   29.1874   42.8799   24.3092 S   0  0  0  0  0  0  0  0  0  0  0  0
   26.1741   40.5451   23.4570 C   0  0  0  0  0  0  0  0  0  0  0  0
   25.1937   40.7215   24.4455 C   0  0  0  0  0  0  0  0  0  0  0  0
   22.7383   38.3060   23.3701 F   0  0  0  0  0  0  0  0  0  0  0  0
   26.9367   39.5792   21.3595 N   0  0  0  0  0  0  0  0  0  0  0  0
   26.5239   40.3613   20.2138 C   0  0  0  0  0  0  0  0  0  0  0  0
   23.2871   37.3266   20.9588 C   0  0  0  0  0  0  0  0  0  0  0  0
   25.5628   36.2574   18.4513 O   0  0  0  0  0  0  0  0  0  0  0  0
   23.5565   36.7366   19.5848 C   0  0  2  0  0  0  0  0  0  0  0  0
   22.6727   35.6357   19.1563 N   0  0  0  0  0  0  0  0  0  0  0  0
   21.2289   35.8934   19.3060 C   0  0  0  0  0  0  0  0  0  0  0  0
   23.0117   35.1042   17.8273 C   0  0  0  0  0  0  0  0  0  0  0  0
  1  5  1  0  0  0  0
  2 17  1  0  0  0  0
  3  1  1  0  0  0  0
  4  3  1  0  0  0  0
  4 26  1  6  0  0  0
  5 11  2  0  0  0  0
  5  6  1  0  0  0  0
  6  7  2  0  0  0  0
  7 21  1  0  0  0  0
  8 15  1  0  0  0  0
  8 16  2  0  0  0  0
  9 19  1  0  0  0  0
 10 18  1  0  0  0  0
 11 20  1  0  0  0  0
 13 14  1  0  0  0  0
 13 12  2  0  0  0  0
 15 13  1  1  0  0  0
 17 19  2  0  0  0  0
 17 15  1  0  0  0  0
 18  2  1  0  0  0  0
 18  9  2  0  0  0  0
 20 21  2  0  0  0  0
 20  2  1  0  0  0  0
 21  8  1  0  0  0  0
 22  6  1  0  0  0  0
 23 11  1  0  0  0  0
 23 10  1  0  0  0  0
 24 23  1  0  0  0  0
 25  1  1  0  0  0  0
 27  4  1  0  0  0  0
 27 25  1  0  0  0  0
 27 28  1  1  0  0  0
 29 28  1  0  0  0  0
 30 28  1  0  0  0  0
M  END
>  <CHROM.1>
-137.05092180,-7.33925583,-31.89495706,63.45290457,163.89960936,25.71216869
39.82380177,22.70858404,2.01405336,-0.37753017,-2.23095865

>  <Name>
lig.pdb

>  <RI>
0

>  <Rbt.Current_Directory>
/home/itssahil/PROJECTS/Mol_Feturizer/New_Systems/rnas/6bfb

>  <Rbt.Executable>
rbdock ($Id: //depot/dev/client3/rdock/2013.1/src/exe/rbdock.cxx#4 $)

>  <Rbt.Library>
libRbt.so (2013.1, Build901 2013/11/27)

>  <Rbt.Parameter_File>
/export/apps/rDock/src/rDock_2013.1_src/data/scripts/dock_solv.prm

>  <Rbt.Receptor>
prm/blind_docking_80.prm

>  <SCORE>
-40.1361

>  <SCORE.INTER>
-36.8137

>  <SCORE.INTER.CONST>
1

>  <SCORE.INTER.POLAR>
-0.474602

>  <SCORE.INTER.ROT>
3

>  <SCORE.INTER.SOLV>
13.6262

>  <SCORE.INTER.VDW>
-33.1025

>  <SCORE.INTER.norm>
-1.22712

>  <SCORE.INTRA>
-3.32247

>  <SCORE.INTRA.DIHEDRAL>
-7.08034

>  <SCORE.INTRA.DIHEDRAL.0>
9.41909

>  <SCORE.INTRA.POLAR>
0

>  <SCORE.INTRA.POLAR.0>
0

>  <SCORE.INTRA.REPUL>
0

>  <SCORE.INTRA.REPUL.0>
0

>  <SCORE.INTRA.SOLV>
-0.0305032

>  <SCORE.INTRA.SOLV.lig_0>
-26.2491

>  <SCORE.INTRA.VDW>
0.232959

>  <SCORE.INTRA.VDW.0>
2.57239

>  <SCORE.INTRA.norm>
-0.110749

>  <SCORE.RESTR>
0

>  <SCORE.RESTR.CAVITY>
0

>  <SCORE.RESTR.norm>
0

>  <SCORE.SYSTEM>
0

>  <SCORE.SYSTEM.CONST>
0

>  <SCORE.SYSTEM.DIHEDRAL>
0

>  <SCORE.SYSTEM.SOLV>
0

>  <SCORE.SYSTEM.norm>
0

>  <SCORE.heavy>
30

>  <SCORE.norm>
-1.33787

>  <RMSD>
2.000

$$$$
lig.pdb
 OpenBabel11021811523D
libRbt.so/2013.1/901 2013/11/27
 30 34  0  0  0  0  0  0  0  0999 V2000
   25.2735   38.8270   21.8098 N   0  0  0  0  0  0  0  0  0  0  0  0
   26.5706   42.3106   25.0792 N   0  0  0  0  0  0  0  0  0  0  0  0
   24.7619   39.2005   20.4876 C   0  0  0  0  0  0  0  0  0  0  0  0
   25.4746   38.2026   19.5872 C   0  0  2  0  0  0  0  0  0  0  0  0
   24.9714   39.6476   22.9772 C   0  0  0  0  0  0  0  0  0  0  0  0
   23.7573   39.5735   23.6901 C   0  0  0  0  0  0  0  0  0  0  0  0
   23.4585   40.3641   24.7716 C   0  0  0  0  0  0  0  0  0  0  0  0
   24.0353   42.2019   26.3602 C   0  0  0  0  0  0  0  0  0  0  0  0
   28.6451   43.2000   25.2466 C   0  0  0  0  0  0  0  0  0  0  0  0
   28.2072   41.2054   23.6494 C   0  0  0  0  0  0  0  0  0  0  0  0
   25.9231   40.5951   23.4491 C   0  0  0  0  0  0  0  0  0  0  0  0
   24.9753   43.8552   29.0203 O   0  0  0  0  0  0  0  0  0  0  0  0
   24.7788   44.1566   27.8411 C   0  0  0  0  0  0  0  0  0  0  0  0
   24.2841   45.3337   27.4779 O   0  0  0  0  0  0  0  0  0  0  0  0
   25.0740   43.1909   26.7493 C   0  0  1  0  0  0  0  0  0  0  0  0
   22.9613   42.0910   26.9613 O   0  0  0  0  0  0  0  0  0  0  0  0
   26.3274   43.2116   26.1132 C   0  0  0  0  0  0  0  0  0  0  0  0
   27.8934   42.2935   24.6148 C   0  0  0  0  0  0  0  0  0  0  0  0
   27.7739   44.0716   26.4393 S   0  0  0  0  0  0  0  0  0  0  0  0
   25.6252   41.3941   24.5763 C   0  0  0  0  0  0  0  0  0  0  0  0
   24.3835   41.3047   25.2242 C   0  0  0  0  0  0  0  0  0  0  0  0
   22.8385   38.6606   23.3160 F   0  0  0  0  0  0  0  0  0  0  0  0
   27.1322   40.7937   22.7645 N   0  0  0  0  0  0  0  0  0  0  0  0
   26.9362   41.6195   21.5921 C   0  0  0  0  0  0  0  0  0  0  0  0
   26.5213   38.0787   21.7078 C   0  0  0  0  0  0  0  0  0  0  0  0
   24.5485   37.4235   18.8289 O   0  0  0  0  0  0  0  0  0  0  0  0
   26.1875   37.2126   20.5048 C   0  0  2  0  0  0  0  0  0  0  0  0
   27.3305   36.6399   19.7686 N   0  0  0  0  0  0  0  0  0  0  0  0
   28.4443   37.5712   19.5125 C   0  0  0  0  0  0  0  0  0  0  0  0
   27.7898   35.3556   20.3195 C   0  0  0  0  0  0  0  0  0  0  0  0
  1  5  1  0  0  0  0
  2 17  1  0  0  0  0
  3  1  1  0  0  0  0
  4  3  1  0  0  0  0
  4 26  1  1  0  0  0
  5 11  2  0  0  0  0
  5  6  1  0  0  0  0
  6  7  2  0  0  0  0
  7 21  1  0  0  0  0
  8 15  1  0  0  0  0
  8 16  2  0  0  0  0
  9 19  1  0  0  0  0
 10 18  1  0  0  0  0
 11 20  1  0  0  0  0
 13 14  1  0  0  0  0
 13 12  2  0  0  0  0
 15 13  1  1  0  0  0
 17 19  2  0  0  0  0
 17 15  1  0  0  0  0
 18  2  1  0  0  0  0
 18  9  2  0  0  0  0
 20 21  2  0  0  0  0
 20  2  1  0  0  0  0
 21  8  1  0  0  0  0
 22  6  1  0  0  0  0
 23 11  1  0  0  0  0
 23 10  1  0  0  0  0
 24 23  1  0  0  0  0
 25  1  1  0  0  0  0
 27  4  1  0  0  0  0
 27 25  1  0  0  0  0
 27 28  1  6  0  0  0
 29 28  1  0  0  0  0
 30 28  1  0  0  0  0
M  END
>  <CHROM.1>
81.08309792,175.71564654,86.23022218,-58.47865422,69.90363381,25.80953647
40.74847472,23.75009399,1.49068702,-0.27291461,-2.33047341

>  <Name>
lig.pdb

>  <RI>
0

>  <Rbt.Current_Directory>
/home/itssahil/PROJECTS/Mol_Feturizer/New_Systems/rnas/6bfb

>  <Rbt.Executable>
rbdock ($Id: //depot/dev/client3/rdock/2013.1/src/exe/rbdock.cxx#4 $)

>  <Rbt.Library>
libRbt.so (2013.1, Build901 2013/11/27)

>  <Rbt.Parameter_File>
/export/apps/rDock/src/rDock_2013.1_src/data/scripts/dock_solv.prm

>  <Rbt.Receptor>
prm/pocket_docking_7.prm

>  <SCORE>
-39.4159

>  <SCORE.INTER>
-33.8346

>  <SCORE.INTER.CONST>
1

>  <SCORE.INTER.POLAR>
-0.847165

>  <SCORE.INTER.ROT>
3

>  <SCORE.INTER.SOLV>
11.9876

>  <SCORE.INTER.VDW>
-29.3284

>  <SCORE.INTER.norm>
-1.12782

>  <SCORE.INTRA>
-5.58125

>  <SCORE.INTRA.DIHEDRAL>
-7.20272

>  <SCORE.INTRA.DIHEDRAL.0>
9.41909

>  <SCORE.INTRA.POLAR>
0

>  <SCORE.INTRA.POLAR.0>
0

>  <SCORE.INTRA.REPUL>
0

>  <SCORE.INTRA.REPUL.0>
0

>  <SCORE.INTRA.SOLV>
-0.188692

>  <SCORE.INTRA.SOLV.lig_0>
-26.2491

>  <SCORE.INTRA.VDW>
-1.88555

>  <SCORE.INTRA.VDW.0>
2.57239

>  <SCORE.INTRA.norm>
-0.186042

>  <SCORE.RESTR>
0

>  <SCORE.RESTR.CAVITY>
0

>  <SCORE.RESTR.norm>
0

>  <SCORE.SYSTEM>
0

>  <SCORE.SYSTEM.CONST>
0

>  <SCORE.SYSTEM.DIHEDRAL>
0

>  <SCORE.SYSTEM.SOLV>
0

>  <SCORE.SYSTEM.norm>
0

>  <SCORE.heavy>
30

>  <SCORE.norm>
-1.31386

>  <RMSD>
2.002

$$$$
lig.pdb
 OpenBabel11021811523D
libRbt.so/2013.1/901 2013/11/27
 30 34  0  0  0  0  0  0  0  0999 V2000
   25.4852   36.4633   20.0201 N   0  0  0  0  0  0  0  0  0  0  0  0
   26.3528   39.9847   23.3897 N   0  0  0  0  0  0  0  0  0  0  0  0
   26.5820   35.5257   20.2792 C   0  0  0  0  0  0  0  0  0  0  0  0
   26.5868   34.6957   19.0043 C   0  0  2  0  0  0  0  0  0  0  0  0
   25.0140   37.3574   21.0718 C   0  0  0  0  0  0  0  0  0  0  0  0
   23.6751   37.4090   21.5104 C   0  0  0  0  0  0  0  0  0  0  0  0
   23.2228   38.2689   22.4798 C   0  0  0  0  0  0  0  0  0  0  0  0
   23.6045   40.1286   24.1015 C   0  0  0  0  0  0  0  0  0  0  0  0
   28.4128   40.7202   23.9711 C   0  0  0  0  0  0  0  0  0  0  0  0
   28.1549   38.6933   22.3753 C   0  0  0  0  0  0  0  0  0  0  0  0
   25.9212   38.2503   21.7089 C   0  0  0  0  0  0  0  0  0  0  0  0
   24.7216   42.1813   26.7544 O   0  0  0  0  0  0  0  0  0  0  0  0
   24.1811   42.0870   25.6503 C   0  0  0  0  0  0  0  0  0  0  0  0
   23.1824   42.8766   25.2745 O   0  0  0  0  0  0  0  0  0  0  0  0
   24.6173   41.0525   24.6751 C   0  0  1  0  0  0  0  0  0  0  0  0
   22.4225   40.1276   24.4620 O   0  0  0  0  0  0  0  0  0  0  0  0
   25.9738   40.9482   24.3215 C   0  0  0  0  0  0  0  0  0  0  0  0
   27.7374   39.8454   23.2195 C   0  0  0  0  0  0  0  0  0  0  0  0
   27.3863   41.7096   24.9244 S   0  0  0  0  0  0  0  0  0  0  0  0
   25.4608   39.1207   22.7228 C   0  0  0  0  0  0  0  0  0  0  0  0
   24.1075   39.1562   23.0925 C   0  0  0  0  0  0  0  0  0  0  0  0
   22.7822   36.5525   20.9749 F   0  0  0  0  0  0  0  0  0  0  0  0
   27.2598   38.3245   21.2932 N   0  0  0  0  0  0  0  0  0  0  0  0
   27.3856   39.1080   20.0827 C   0  0  0  0  0  0  0  0  0  0  0  0
   24.5845   35.9599   18.9891 C   0  0  0  0  0  0  0  0  0  0  0  0
   27.8576   34.7381   18.3538 O   0  0  0  0  0  0  0  0  0  0  0  0
   25.6107   35.3645   18.0399 C   0  0  2  0  0  0  0  0  0  0  0  0
   25.1193   34.3424   17.0962 N   0  0  0  0  0  0  0  0  0  0  0  0
   26.0653   33.9626   16.0312 C   0  0  0  0  0  0  0  0  0  0  0  0
   24.5295   33.1724   17.7647 C   0  0  0  0  0  0  0  0  0  0  0  0
  1  5  1  0  0  0  0
  2 17  1  0  0  0  0
  3  1  1  0  0  0  0
  4  3  1  0  0  0  0
  4 26  1  6  0  0  0
  5 11  2  0  0  0  0
  5  6  1  0  0  0  0
  6  7  2  0  0  0  0
  7 21  1  0  0  0  0
  8 15  1  0  0  0  0
  8 16  2  0  0  0  0
  9 19  1  0  0  0  0
 10 18  1  0  0  0  0
 11 20  1  0  0  0  0
 13 14  1  0  0  0  0
 13 12  2  0  0  0  0
 15 13  1  1  0  0  0
 17 19  2  0  0  0  0
 17 15  1  0  0  0  0
 18  2  1  0  0  0  0
 18  9  2  0  0  0  0
 20 21  2  0  0  0  0
 20  2  1  0  0  0  0
 21  8  1  0  0  0  0
 22  6  1  0  0  0  0
 23 11  1  0  0  0  0
 23 10  1  0  0  0  0
 24 23  1  0  0  0  0
 25  1  1  0  0  0  0
 27  4  1  0  0  0  0
 27 25  1  0  0  0  0
 27 28  1  6  0  0  0
 29 28  1  0  0  0  0
 30 28  1  0  0  0  0
M  END
>  <CHROM.1>
-123.71906818,-177.56139270,126.18723954,63.89697252,-76.48503185,25.51719050
38.36362624,21.86622714,1.51811735,-0.12562437,-2.35361361

>  <Name>
lig.pdb

>  <RI>
0

>  <Rbt.Current_Directory>
/home/itssahil/PROJECTS/Mol_Feturizer/New_Systems/rnas/6bfb

>  <Rbt.Executable>
rbdock ($Id: //depot/dev/client3/rdock/2013.1/src/exe/rbdock.cxx#4 $)

>  <Rbt.Library>
libRbt.so (2013.1, Build901 2013/11/27)

>  <Rbt.Parameter_File>
/export/apps/rDock/src/rDock_2013.1_src/data/scripts/dock_solv.prm

>  <Rbt.Receptor>
prm/blind_docking_60.prm

>  <SCORE>
-36.0407

>  <SCORE.INTER>
-32.367

>  <SCORE.INTER.CONST>
1

>  <SCORE.INTER.POLAR>
-0.603748

>  <SCORE.INTER.ROT>
3

>  <SCORE.INTER.SOLV>
11.7157

>  <SCORE.INTER.VDW>
-29.0708

>  <SCORE.INTER.norm>
-1.0789

>  <SCORE.INTRA>
-3.67368

>  <SCORE.INTRA.DIHEDRAL>
-7.46605

>  <SCORE.INTRA.DIHEDRAL.0>
9.41909

>  <SCORE.INTRA.POLAR>
0

>  <SCORE.INTRA.POLAR.0>
0

>  <SCORE.INTRA.REPUL>
0.0210064

>  <SCORE.INTRA.REPUL.0>
0

>  <SCORE.INTRA.SOLV>
0.0337488

>  <SCORE.INTRA.SOLV.lig_0>
-26.2491

>  <SCORE.INTRA.VDW>
-0.0625622

>  <SCORE.INTRA.VDW.0>
2.57239

>  <SCORE.INTRA.norm>
-0.122456

>  <SCORE.RESTR>
0

>  <SCORE.RESTR.CAVITY>
0

>  <SCORE.RESTR.norm>
0

>  <SCORE.SYSTEM>
0

>  <SCORE.SYSTEM.CONST>
0

>  <SCORE.SYSTEM.DIHEDRAL>
0

>  <SCORE.SYSTEM.SOLV>
0

>  <SCORE.SYSTEM.norm>
0

>  <SCORE.heavy>
30

>  <SCORE.norm>
-1.20136

>  <RMSD>
2.034

$$$$
lig.pdb
 OpenBabel11021811523D
libRbt.so/2013.1/901 2013/11/27
 30 34  0  0  0  0  0  0  0  0999 V2000
   24.7851   36.9565   20.4170 N   0  0  0  0  0  0  0  0  0  0  0  0
   26.6321   40.2709   23.5967 N   0  0  0  0  0  0  0  0  0  0  0  0
   24.4332   37.3893   19.0611 C   0  0  0  0  0  0  0  0  0  0  0  0
   24.9505   36.2302   18.2226 C   0  0  2  0  0  0  0  0  0  0  0  0
   24.6156   37.8614   21.5483 C   0  0  0  0  0  0  0  0  0  0  0  0
   23.3957   38.0337   22.2338 C   0  0  0  0  0  0  0  0  0  0  0  0
   23.2256   38.9053   23.2804 C   0  0  0  0  0  0  0  0  0  0  0  0
   24.0967   40.6681   24.8192 C   0  0  0  0  0  0  0  0  0  0  0  0
   28.8298   40.7785   23.7837 C   0  0  0  0  0  0  0  0  0  0  0  0
   28.0671   38.8364   22.2450 C   0  0  0  0  0  0  0  0  0  0  0  0
   25.7142   38.6395   22.0106 C   0  0  0  0  0  0  0  0  0  0  0  0
   24.1879   43.2768   26.2593 O   0  0  0  0  0  0  0  0  0  0  0  0
   25.1546   42.5117   26.2504 C   0  0  0  0  0  0  0  0  0  0  0  0
   26.1274   42.5798   27.1511 O   0  0  0  0  0  0  0  0  0  0  0  0
   25.2898   41.4682   25.1995 C   0  0  1  0  0  0  0  0  0  0  0  0
   23.0099   40.7748   25.3977 O   0  0  0  0  0  0  0  0  0  0  0  0
   26.5373   41.2392   24.5934 C   0  0  0  0  0  0  0  0  0  0  0  0
   27.9379   39.9987   23.1651 C   0  0  0  0  0  0  0  0  0  0  0  0
   28.1094   41.8369   24.9249 S   0  0  0  0  0  0  0  0  0  0  0  0
   25.5457   39.5209   23.1026 C   0  0  0  0  0  0  0  0  0  0  0  0
   24.2971   39.6808   23.7230 C   0  0  0  0  0  0  0  0  0  0  0  0
   22.3339   37.2875   21.8689 F   0  0  0  0  0  0  0  0  0  0  0  0
   26.9512   38.5916   21.3489 N   0  0  0  0  0  0  0  0  0  0  0  0
   26.9281   39.3944   20.1449 C   0  0  0  0  0  0  0  0  0  0  0  0
   25.8402   35.9497   20.3992 C   0  0  0  0  0  0  0  0  0  0  0  0
   23.9130   35.6487   17.4319 O   0  0  0  0  0  0  0  0  0  0  0  0
   25.3819   35.1387   19.1988 C   0  0  2  0  0  0  0  0  0  0  0  0
   26.4044   34.3052   18.5383 N   0  0  0  0  0  0  0  0  0  0  0  0
   25.9041   33.4303   17.4624 C   0  0  0  0  0  0  0  0  0  0  0  0
   27.5977   35.0641   18.1335 C   0  0  0  0  0  0  0  0  0  0  0  0
  1  5  1  0  0  0  0
  2 17  1  0  0  0  0
  3  1  1  0  0  0  0
  4  3  1  0  0  0  0
  4 26  1  6  0  0  0
  5 11  2  0  0  0  0
  5  6  1  0  0  0  0
  6  7  2  0  0  0  0
  7 21  1  0  0  0  0
  8 15  1  0  0  0  0
  8 16  2  0  0  0  0
  9 19  1  0  0  0  0
 10 18  1  0  0  0  0
 11 20  1  0  0  0  0
 13 14  1  0  0  0  0
 13 12  2  0  0  0  0
 15 13  1  1  0  0  0
 17 19  2  0  0  0  0
 17 15  1  0  0  0  0
 18  2  1  0  0  0  0
 18  9  2  0  0  0  0
 20 21  2  0  0  0  0
 20  2  1  0  0  0  0
 21  8  1  0  0  0  0
 22  6  1  0  0  0  0
 23 11  1  0  0  0  0
 23 10  1  0  0  0  0
 24 23  1  0  0  0  0
 25  1  1  0  0  0  0
 27  4  1  0  0  0  0
 27 25  1  0  0  0  0
 27 28  1  6  0  0  0
 29 28  1  0  0  0  0
 30 28  1  0  0  0  0
M  END
>  <CHROM.1>
84.06071625,0.90200213,-43.79496692,75.09624008,-71.52697783,25.60519200
38.83201507,22.25174893,1.61981755,-0.14234684,-2.31319922

>  <Name>
lig.pdb

>  <RI>
0

>  <Rbt.Current_Directory>
/home/itssahil/PROJECTS/Mol_Feturizer/New_Systems/rnas/6bfb

>  <Rbt.Executable>
rbdock ($Id: //depot/dev/client3/rdock/2013.1/src/exe/rbdock.cxx#4 $)

>  <Rbt.Library>
libRbt.so (2013.1, Build901 2013/11/27)

>  <Rbt.Parameter_File>
/export/apps/rDock/src/rDock_2013.1_src/data/scripts/dock_solv.prm

>  <Rbt.Receptor>
prm/pocket_docking_3.prm

>  <SCORE>
-37.4015

>  <SCORE.INTER>
-32.8932

>  <SCORE.INTER.CONST>
1

>  <SCORE.INTER.POLAR>
-0.843802

>  <SCORE.INTER.ROT>
3

>  <SCORE.INTER.SOLV>
12.3385

>  <SCORE.INTER.VDW>
-28.829

>  <SCORE.INTER.norm>
-1.09644

>  <SCORE.INTRA>
-4.50829

>  <SCORE.INTRA.DIHEDRAL>
-6.62029

>  <SCORE.INTRA.DIHEDRAL.0>
9.41909

>  <SCORE.INTRA.POLAR>
0

>  <SCORE.INTRA.POLAR.0>
0

>  <SCORE.INTRA.REPUL>
0

>  <SCORE.INTRA.REPUL.0>
0

>  <SCORE.INTRA.SOLV>
0.139106

>  <SCORE.INTRA.SOLV.lig_0>
-26.2491

>  <SCORE.INTRA.VDW>
-1.2677

>  <SCORE.INTRA.VDW.0>
2.57239

>  <SCORE.INTRA.norm>
-0.150276

>  <SCORE.RESTR>
0

>  <SCORE.RESTR.CAVITY>
0

>  <SCORE.RESTR.norm>
0

>  <SCORE.SYSTEM>
0

>  <SCORE.SYSTEM.CONST>
0

>  <SCORE.SYSTEM.DIHEDRAL>
0

>  <SCORE.SYSTEM.SOLV>
0

>  <SCORE.SYSTEM.norm>
0

>  <SCORE.heavy>
30

>  <SCORE.norm>
-1.24672

>  <RMSD>
2.043

$$$$
lig.pdb
 OpenBabel11021811523D
libRbt.so/2013.1/901 2013/11/27
 30 34  0  0  0  0  0  0  0  0999 V2000
   24.4720   38.0703   21.0567 N   0  0  0  0  0  0  0  0  0  0  0  0
   27.2646   41.4418   23.3678 N   0  0  0  0  0  0  0  0  0  0  0  0
   25.5883   37.3821   20.4012 C   0  0  0  0  0  0  0  0  0  0  0  0
   24.8585   36.4495   19.4462 C   0  0  2  0  0  0  0  0  0  0  0  0
   24.7140   38.9574   22.1889 C   0  0  0  0  0  0  0  0  0  0  0  0
   23.8451   39.0675   23.2937 C   0  0  0  0  0  0  0  0  0  0  0  0
   24.0553   39.9220   24.3470 C   0  0  0  0  0  0  0  0  0  0  0  0
   25.3794   41.7112   25.4782 C   0  0  0  0  0  0  0  0  0  0  0  0
   29.3436   42.0495   22.7110 C   0  0  0  0  0  0  0  0  0  0  0  0
   28.1266   40.0862   21.5339 C   0  0  0  0  0  0  0  0  0  0  0  0
   25.8740   39.7821   22.2142 C   0  0  0  0  0  0  0  0  0  0  0  0
   25.8874   44.1780   26.9734 O   0  0  0  0  0  0  0  0  0  0  0  0
   26.8314   43.5907   26.4404 C   0  0  0  0  0  0  0  0  0  0  0  0
   28.0969   43.8454   26.7496 O   0  0  0  0  0  0  0  0  0  0  0  0
   26.5941   42.5629   25.3921 C   0  0  1  0  0  0  0  0  0  0  0  0
   24.5947   41.7628   26.4315 O   0  0  0  0  0  0  0  0  0  0  0  0
   27.5214   42.3969   24.3487 C   0  0  0  0  0  0  0  0  0  0  0  0
   28.3144   41.2340   22.4620 C   0  0  0  0  0  0  0  0  0  0  0  0
   29.0750   43.0643   24.0672 S   0  0  0  0  0  0  0  0  0  0  0  0
   26.1027   40.6461   23.3091 C   0  0  0  0  0  0  0  0  0  0  0  0
   25.1827   40.7429   24.3645 C   0  0  0  0  0  0  0  0  0  0  0  0
   22.7552   38.2757   23.3449 F   0  0  0  0  0  0  0  0  0  0  0  0
   26.7629   39.7968   21.1280 N   0  0  0  0  0  0  0  0  0  0  0  0
   26.2472   40.6071   20.0453 C   0  0  0  0  0  0  0  0  0  0  0  0
   23.2320   37.3120   20.9355 C   0  0  0  0  0  0  0  0  0  0  0  0
   25.2584   36.6652   18.0921 O   0  0  0  0  0  0  0  0  0  0  0  0
   23.3812   36.8299   19.5023 C   0  0  2  0  0  0  0  0  0  0  0  0
   22.5845   35.6489   19.1188 N   0  0  0  0  0  0  0  0  0  0  0  0
   21.1375   35.7541   19.3803 C   0  0  0  0  0  0  0  0  0  0  0  0
   22.8744   35.1715   17.7580 C   0  0  0  0  0  0  0  0  0  0  0  0
  1  5  1  0  0  0  0
  2 17  1  0  0  0  0
  3  1  1  0  0  0  0
  4  3  1  0  0  0  0
  4 26  1  6  0  0  0
  5 11  2  0  0  0  0
  5  6  1  0  0  0  0
  6  7  2  0  0  0  0
  7 21  1  0  0  0  0
  8 15  1  0  0  0  0
  8 16  2  0  0  0  0
  9 19  1  0  0  0  0
 10 18  1  0  0  0  0
 11 20  1  0  0  0  0
 13 14  1  0  0  0  0
 13 12  2  0  0  0  0
 15 13  1  1  0  0  0
 17 19  2  0  0  0  0
 17 15  1  0  0  0  0
 18  2  1  0  0  0  0
 18  9  2  0  0  0  0
 20 21  2  0  0  0  0
 20  2  1  0  0  0  0
 21  8  1  0  0  0  0
 22  6  1  0  0  0  0
 23 11  1  0  0  0  0
 23 10  1  0  0  0  0
 24 23  1  0  0  0  0
 25  1  1  0  0  0  0
 27  4  1  0  0  0  0
 27 25  1  0  0  0  0
 27 28  1  1  0  0  0
 29 28  1  0  0  0  0
 30 28  1  0  0  0  0
M  END
>  <CHROM.1>
-143.33059001,-5.92251037,-33.46742377,-65.52800275,168.13397815,25.62545532
39.92835668,22.56640342,2.04724940,-0.46392355,-2.17451359

>  <Name>
lig.pdb

>  <RI>
0

>  <Rbt.Current_Directory>
/home/itssahil/PROJECTS/Mol_Feturizer/New_Systems/rnas/6bfb

>  <Rbt.Executable>
rbdock ($Id: //depot/dev/client3/rdock/2013.1/src/exe/rbdock.cxx#4 $)

>  <Rbt.Library>
libRbt.so (2013.1, Build901 2013/11/27)

>  <Rbt.Parameter_File>
/export/apps/rDock/src/rDock_2013.1_src/data/scripts/dock_solv.prm

>  <Rbt.Receptor>
prm/pocket_docking_6.prm

>  <SCORE>
-40.9791

>  <SCORE.INTER>
-38.9526

>  <SCORE.INTER.CONST>
1

>  <SCORE.INTER.POLAR>
-0.97748

>  <SCORE.INTER.ROT>
3

>  <SCORE.INTER.SOLV>
13.9231

>  <SCORE.INTER.VDW>
-32.9512

>  <SCORE.INTER.norm>
-1.29842

>  <SCORE.INTRA>
-2.0265

>  <SCORE.INTRA.DIHEDRAL>
-7.23328

>  <SCORE.INTRA.DIHEDRAL.0>
9.41909

>  <SCORE.INTRA.POLAR>
0

>  <SCORE.INTRA.POLAR.0>
0

>  <SCORE.INTRA.REPUL>
0

>  <SCORE.INTRA.REPUL.0>
0

>  <SCORE.INTRA.SOLV>
0.0324654

>  <SCORE.INTRA.SOLV.lig_0>
-26.2491

>  <SCORE.INTRA.VDW>
1.57391

>  <SCORE.INTRA.VDW.0>
2.57239

>  <SCORE.INTRA.norm>
-0.06755

>  <SCORE.RESTR>
0

>  <SCORE.RESTR.CAVITY>
0

>  <SCORE.RESTR.norm>
0

>  <SCORE.SYSTEM>
0

>  <SCORE.SYSTEM.CONST>
0

>  <SCORE.SYSTEM.DIHEDRAL>
0

>  <SCORE.SYSTEM.SOLV>
0

>  <SCORE.SYSTEM.norm>
0

>  <SCORE.heavy>
30

>  <SCORE.norm>
-1.36597

>  <RMSD>
2.048

$$$$
lig.pdb
 OpenBabel11021811523D
libRbt.so/2013.1/901 2013/11/27
 30 34  0  0  0  0  0  0  0  0999 V2000
   26.6242   38.7902   20.2796 N   0  0  0  0  0  0  0  0  0  0  0  0
   27.2314   42.0328   23.9707 N   0  0  0  0  0  0  0  0  0  0  0  0
   25.9243   39.1634   19.0466 C   0  0  0  0  0  0  0  0  0  0  0  0
   26.8046   38.5210   17.9851 C   0  0  2  0  0  0  0  0  0  0  0  0
   26.2076   39.3461   21.5622 C   0  0  0  0  0  0  0  0  0  0  0  0
   25.1024   38.8702   22.2969 C   0  0  0  0  0  0  0  0  0  0  0  0
   24.6907   39.4093   23.4901 C   0  0  0  0  0  0  0  0  0  0  0  0
   24.8978   41.1101   25.3063 C   0  0  0  0  0  0  0  0  0  0  0  0
   29.0244   43.3956   24.1952 C   0  0  0  0  0  0  0  0  0  0  0  0
   28.9899   41.5815   22.3435 C   0  0  0  0  0  0  0  0  0  0  0  0
   26.9225   40.4363   22.1335 C   0  0  0  0  0  0  0  0  0  0  0  0
   24.0518   43.3185   27.1635 O   0  0  0  0  0  0  0  0  0  0  0  0
   25.2293   42.9797   27.0271 C   0  0  0  0  0  0  0  0  0  0  0  0
   26.1561   43.2342   27.9427 O   0  0  0  0  0  0  0  0  0  0  0  0
   25.6807   42.2733   25.7988 C   0  0  1  0  0  0  0  0  0  0  0  0
   23.9295   40.6496   25.9205 O   0  0  0  0  0  0  0  0  0  0  0  0
   26.8424   42.6981   25.1310 C   0  0  0  0  0  0  0  0  0  0  0  0
   28.4814   42.4168   23.4650 C   0  0  0  0  0  0  0  0  0  0  0  0
   28.0472   43.8508   25.5290 S   0  0  0  0  0  0  0  0  0  0  0  0
   26.5127   40.9778   23.3731 C   0  0  0  0  0  0  0  0  0  0  0  0
   25.3802   40.4887   24.0423 C   0  0  0  0  0  0  0  0  0  0  0  0
   24.4173   37.8088   21.8263 F   0  0  0  0  0  0  0  0  0  0  0  0
   27.9937   41.0265   21.4448 N   0  0  0  0  0  0  0  0  0  0  0  0
   27.5175   41.9198   20.4103 C   0  0  0  0  0  0  0  0  0  0  0  0
   28.0153   38.4381   20.0185 C   0  0  0  0  0  0  0  0  0  0  0  0
   26.0652   37.6122   17.1682 O   0  0  0  0  0  0  0  0  0  0  0  0
   27.8312   37.6657   18.7231 C   0  0  2  0  0  0  0  0  0  0  0  0
   29.0225   37.5285   17.8637 N   0  0  0  0  0  0  0  0  0  0  0  0
   29.7948   38.7670   17.6561 C   0  0  0  0  0  0  0  0  0  0  0  0
   29.8778   36.3911   18.2362 C   0  0  0  0  0  0  0  0  0  0  0  0
  1  5  1  0  0  0  0
  2 17  1  0  0  0  0
  3  1  1  0  0  0  0
  4  3  1  0  0  0  0
  4 26  1  6  0  0  0
  5 11  2  0  0  0  0
  5  6  1  0  0  0  0
  6  7  2  0  0  0  0
  7 21  1  0  0  0  0
  8 15  1  0  0  0  0
  8 16  2  0  0  0  0
  9 19  1  0  0  0  0
 10 18  1  0  0  0  0
 11 20  1  0  0  0  0
 13 14  1  0  0  0  0
 13 12  2  0  0  0  0
 15 13  1  1  0  0  0
 17 19  2  0  0  0  0
 17 15  1  0  0  0  0
 18  2  1  0  0  0  0
 18  9  2  0  0  0  0
 20 21  2  0  0  0  0
 20  2  1  0  0  0  0
 21  8  1  0  0  0  0
 22  6  1  0  0  0  0
 23 11  1  0  0  0  0
 23 10  1  0  0  0  0
 24 23  1  0  0  0  0
 25  1  1  0  0  0  0
 27  4  1  0  0  0  0
 27 25  1  0  0  0  0
 27 28  1  6  0  0  0
 29 28  1  0  0  0  0
 30 28  1  0  0  0  0
M  END
>  <CHROM.1>
79.56038134,1.38544480,-48.25753715,-57.63438344,68.09953287,26.80568727
40.51641712,22.46559674,1.35898665,-0.49029500,-2.23159263

>  <Name>
lig.pdb

>  <RI>
0

>  <Rbt.Current_Directory>
/home/itssahil/PROJECTS/Mol_Feturizer/New_Systems/rnas/6bfb

>  <Rbt.Executable>
rbdock ($Id: //depot/dev/client3/rdock/2013.1/src/exe/rbdock.cxx#4 $)

>  <Rbt.Library>
libRbt.so (2013.1, Build901 2013/11/27)

>  <Rbt.Parameter_File>
/export/apps/rDock/src/rDock_2013.1_src/data/scripts/dock_solv.prm

>  <Rbt.Receptor>
prm/pocket_docking_8.prm

>  <SCORE>
-33.4114

>  <SCORE.INTER>
-27.5668

>  <SCORE.INTER.CONST>
1

>  <SCORE.INTER.POLAR>
0

>  <SCORE.INTER.ROT>
3

>  <SCORE.INTER.SOLV>
11.5014

>  <SCORE.INTER.VDW>
-27.8117

>  <SCORE.INTER.norm>
-0.918893

>  <SCORE.INTRA>
-5.84464

>  <SCORE.INTRA.DIHEDRAL>
-7.41421

>  <SCORE.INTRA.DIHEDRAL.0>
9.41909

>  <SCORE.INTRA.POLAR>
0

>  <SCORE.INTRA.POLAR.0>
0

>  <SCORE.INTRA.REPUL>
0

>  <SCORE.INTRA.REPUL.0>
0

>  <SCORE.INTRA.SOLV>
-0.110029

>  <SCORE.INTRA.SOLV.lig_0>
-26.2491

>  <SCORE.INTRA.VDW>
-2.08252

>  <SCORE.INTRA.VDW.0>
2.57239

>  <SCORE.INTRA.norm>
-0.194821

>  <SCORE.RESTR>
0

>  <SCORE.RESTR.CAVITY>
0

>  <SCORE.RESTR.norm>
0

>  <SCORE.SYSTEM>
0

>  <SCORE.SYSTEM.CONST>
0

>  <SCORE.SYSTEM.DIHEDRAL>
0

>  <SCORE.SYSTEM.SOLV>
0

>  <SCORE.SYSTEM.norm>
0

>  <SCORE.heavy>
30

>  <SCORE.norm>
-1.11371

>  <RMSD>
2.048

$$$$
lig.pdb
 OpenBabel11021811523D
libRbt.so/2013.1/901 2013/11/27
 30 34  0  0  0  0  0  0  0  0999 V2000
   25.2892   37.0416   20.3697 N   0  0  0  0  0  0  0  0  0  0  0  0
   26.3068   40.2530   23.9972 N   0  0  0  0  0  0  0  0  0  0  0  0
   25.0801   37.5148   18.9979 C   0  0  0  0  0  0  0  0  0  0  0  0
   25.8394   36.4716   18.1920 C   0  0  2  0  0  0  0  0  0  0  0  0
   24.8612   37.8526   21.5039 C   0  0  0  0  0  0  0  0  0  0  0  0
   23.5345   37.8908   21.9795 C   0  0  0  0  0  0  0  0  0  0  0  0
   23.1227   38.6745   23.0284 C   0  0  0  0  0  0  0  0  0  0  0  0
   23.5798   40.3850   24.7888 C   0  0  0  0  0  0  0  0  0  0  0  0
   28.3943   40.9010   24.5847 C   0  0  0  0  0  0  0  0  0  0  0  0
   28.0582   39.0196   22.8329 C   0  0  0  0  0  0  0  0  0  0  0  0
   25.8008   38.6731   22.1896 C   0  0  0  0  0  0  0  0  0  0  0  0
   23.3516   41.9078   27.2934 O   0  0  0  0  0  0  0  0  0  0  0  0
   24.2319   42.1966   26.4799 C   0  0  0  0  0  0  0  0  0  0  0  0
   24.8622   43.3647   26.4945 O   0  0  0  0  0  0  0  0  0  0  0  0
   24.6241   41.2397   25.4112 C   0  0  1  0  0  0  0  0  0  0  0  0
   22.4071   40.3746   25.1782 O   0  0  0  0  0  0  0  0  0  0  0  0
   25.9694   41.1416   25.0153 C   0  0  0  0  0  0  0  0  0  0  0  0
   27.6839   40.1042   23.7805 C   0  0  0  0  0  0  0  0  0  0  0  0
   27.4107   41.8250   25.6430 S   0  0  0  0  0  0  0  0  0  0  0  0
   25.3822   39.4636   23.2839 C   0  0  0  0  0  0  0  0  0  0  0  0
   24.0391   39.4917   23.6899 C   0  0  0  0  0  0  0  0  0  0  0  0
   22.6124   37.0980   21.3977 F   0  0  0  0  0  0  0  0  0  0  0  0
   27.1303   38.7583   21.7472 N   0  0  0  0  0  0  0  0  0  0  0  0
   27.2421   39.6380   20.6033 C   0  0  0  0  0  0  0  0  0  0  0  0
   26.4464   36.1583   20.4593 C   0  0  0  0  0  0  0  0  0  0  0  0
   24.9956   35.8298   17.2349 O   0  0  0  0  0  0  0  0  0  0  0  0
   26.2555   35.3764   19.1705 C   0  0  2  0  0  0  0  0  0  0  0  0
   27.4493   34.7004   18.6279 N   0  0  0  0  0  0  0  0  0  0  0  0
   28.6480   35.5485   18.4975 C   0  0  0  0  0  0  0  0  0  0  0  0
   27.7395   33.4184   19.2882 C   0  0  0  0  0  0  0  0  0  0  0  0
  1  5  1  0  0  0  0
  2 17  1  0  0  0  0
  3  1  1  0  0  0  0
  4  3  1  0  0  0  0
  4 26  1  6  0  0  0
  5 11  2  0  0  0  0
  5  6  1  0  0  0  0
  6  7  2  0  0  0  0
  7 21  1  0  0  0  0
  8 15  1  0  0  0  0
  8 16  2  0  0  0  0
  9 19  1  0  0  0  0
 10 18  1  0  0  0  0
 11 20  1  0  0  0  0
 13 14  1  0  0  0  0
 13 12  2  0  0  0  0
 15 13  1  1  0  0  0
 17 19  2  0  0  0  0
 17 15  1  0  0  0  0
 18  2  1  0  0  0  0
 18  9  2  0  0  0  0
 20 21  2  0  0  0  0
 20  2  1  0  0  0  0
 21  8  1  0  0  0  0
 22  6  1  0  0  0  0
 23 11  1  0  0  0  0
 23 10  1  0  0  0  0
 24 23  1  0  0  0  0
 25  1  1  0  0  0  0
 27  4  1  0  0  0  0
 27 25  1  0  0  0  0
 27 28  1  6  0  0  0
 29 28  1  0  0  0  0
 30 28  1  0  0  0  0
M  END
>  <CHROM.1>
81.38939631,0.17791401,35.85242391,-58.81940792,63.61591347,25.65576873,38.83239976
22.47797276,1.42822920,-0.09049403,-2.29982048

>  <Name>
lig.pdb

>  <RI>
0

>  <Rbt.Current_Directory>
/home/itssahil/PROJECTS/Mol_Feturizer/New_Systems/rnas/6bfb

>  <Rbt.Executable>
rbdock ($Id: //depot/dev/client3/rdock/2013.1/src/exe/rbdock.cxx#4 $)

>  <Rbt.Library>
libRbt.so (2013.1, Build901 2013/11/27)

>  <Rbt.Parameter_File>
/export/apps/rDock/src/rDock_2013.1_src/data/scripts/dock_solv.prm

>  <Rbt.Receptor>
prm/pocket_docking_4.prm

>  <SCORE>
-35.8918

>  <SCORE.INTER>
-30.1431

>  <SCORE.INTER.CONST>
1

>  <SCORE.INTER.POLAR>
0

>  <SCORE.INTER.ROT>
3

>  <SCORE.INTER.SOLV>
13.6078

>  <SCORE.INTER.VDW>
-30.2314

>  <SCORE.INTER.norm>
-1.00477

>  <SCORE.INTRA>
-5.74865

>  <SCORE.INTRA.DIHEDRAL>
-7.60683

>  <SCORE.INTRA.DIHEDRAL.0>
9.41909

>  <SCORE.INTRA.POLAR>
0

>  <SCORE.INTRA.POLAR.0>
0

>  <SCORE.INTRA.REPUL>
0

>  <SCORE.INTRA.REPUL.0>
0

>  <SCORE.INTRA.SOLV>
-0.0859317

>  <SCORE.INTRA.SOLV.lig_0>
-26.2491

>  <SCORE.INTRA.VDW>
-1.90227

>  <SCORE.INTRA.VDW.0>
2.57239

>  <SCORE.INTRA.norm>
-0.191622

>  <SCORE.RESTR>
0

>  <SCORE.RESTR.CAVITY>
0

>  <SCORE.RESTR.norm>
0

>  <SCORE.SYSTEM>
0

>  <SCORE.SYSTEM.CONST>
0

>  <SCORE.SYSTEM.DIHEDRAL>
0

>  <SCORE.SYSTEM.SOLV>
0

>  <SCORE.SYSTEM.norm>
0

>  <SCORE.heavy>
30

>  <SCORE.norm>
-1.19639

>  <RMSD>
2.053

$$$$
lig.pdb
 OpenBabel11021811523D
libRbt.so/2013.1/901 2013/11/27
 30 34  0  0  0  0  0  0  0  0999 V2000
   25.7997   38.8031   21.9281 N   0  0  0  0  0  0  0  0  0  0  0  0
   26.4841   42.2137   25.4504 N   0  0  0  0  0  0  0  0  0  0  0  0
   25.2287   39.0473   20.6000 C   0  0  0  0  0  0  0  0  0  0  0  0
   26.1490   38.2236   19.7118 C   0  0  2  0  0  0  0  0  0  0  0  0
   25.3168   39.5453   23.0872 C   0  0  0  0  0  0  0  0  0  0  0  0
   24.0439   39.3530   23.6621 C   0  0  0  0  0  0  0  0  0  0  0  0
   23.5756   40.0694   24.7351 C   0  0  0  0  0  0  0  0  0  0  0  0
   23.8443   41.8675   26.4464 C   0  0  0  0  0  0  0  0  0  0  0  0
   28.4574   43.2380   25.8741 C   0  0  0  0  0  0  0  0  0  0  0  0
   28.3390   41.2939   24.1630 C   0  0  0  0  0  0  0  0  0  0  0  0
   26.1404   40.5344   23.6950 C   0  0  0  0  0  0  0  0  0  0  0  0
   25.0178   44.0940   29.0164 O   0  0  0  0  0  0  0  0  0  0  0  0
   24.2807   43.7987   28.0732 C   0  0  0  0  0  0  0  0  0  0  0  0
   23.0303   44.2345   27.9807 O   0  0  0  0  0  0  0  0  0  0  0  0
   24.7597   42.9080   26.9830 C   0  0  1  0  0  0  0  0  0  0  0  0
   22.7248   41.6535   26.9239 O   0  0  0  0  0  0  0  0  0  0  0  0
   26.0675   43.0463   26.4865 C   0  0  0  0  0  0  0  0  0  0  0  0
   27.8456   42.3112   25.1305 C   0  0  0  0  0  0  0  0  0  0  0  0
   27.4037   43.9898   26.9991 S   0  0  0  0  0  0  0  0  0  0  0  0
   25.6676   41.2573   24.8138 C   0  0  0  0  0  0  0  0  0  0  0  0
   24.3753   41.0508   25.3205 C   0  0  0  0  0  0  0  0  0  0  0  0
   23.2401   38.3961   23.1564 F   0  0  0  0  0  0  0  0  0  0  0  0
   27.3961   40.8492   23.1525 N   0  0  0  0  0  0  0  0  0  0  0  0
   27.2622   41.7127   21.9987 C   0  0  0  0  0  0  0  0  0  0  0  0
   27.1815   38.3450   21.8394 C   0  0  0  0  0  0  0  0  0  0  0  0
   25.4212   37.2561   18.9541 O   0  0  0  0  0  0  0  0  0  0  0  0
   27.0540   37.4192   20.6414 C   0  0  2  0  0  0  0  0  0  0  0  0
   28.3001   37.1054   19.9164 N   0  0  0  0  0  0  0  0  0  0  0  0
   28.1814   36.0588   18.8849 C   0  0  0  0  0  0  0  0  0  0  0  0
   29.0000   38.3013   19.4228 C   0  0  0  0  0  0  0  0  0  0  0  0
  1  5  1  0  0  0  0
  2 17  1  0  0  0  0
  3  1  1  0  0  0  0
  4  3  1  0  0  0  0
  4 26  1  1  0  0  0
  5 11  2  0  0  0  0
  5  6  1  0  0  0  0
  6  7  2  0  0  0  0
  7 21  1  0  0  0  0
  8 15  1  0  0  0  0
  8 16  2  0  0  0  0
  9 19  1  0  0  0  0
 10 18  1  0  0  0  0
 11 20  1  0  0  0  0
 13 14  1  0  0  0  0
 13 12  2  0  0  0  0
 15 13  1  1  0  0  0
 17 19  2  0  0  0  0
 17 15  1  0  0  0  0
 18  2  1  0  0  0  0
 18  9  2  0  0  0  0
 20 21  2  0  0  0  0
 20  2  1  0  0  0  0
 21  8  1  0  0  0  0
 22  6  1  0  0  0  0
 23 11  1  0  0  0  0
 23 10  1  0  0  0  0
 24 23  1  0  0  0  0
 25  1  1  0  0  0  0
 27  4  1  0  0  0  0
 27 25  1  0  0  0  0
 27 28  1  6  0  0  0
 29 28  1  0  0  0  0
 30 28  1  0  0  0  0
M  END
>  <CHROM.1>
70.50679105,1.24399730,138.62566354,-58.02035946,-74.21910655,25.94792045
40.69301609,23.91496309,1.37147657,-0.28904949,-2.29166429

>  <Name>
lig.pdb

>  <RI>
0

>  <Rbt.Current_Directory>
/home/itssahil/PROJECTS/Mol_Feturizer/New_Systems/rnas/6bfb

>  <Rbt.Executable>
rbdock ($Id: //depot/dev/client3/rdock/2013.1/src/exe/rbdock.cxx#4 $)

>  <Rbt.Library>
libRbt.so (2013.1, Build901 2013/11/27)

>  <Rbt.Parameter_File>
/export/apps/rDock/src/rDock_2013.1_src/data/scripts/dock_solv.prm

>  <Rbt.Receptor>
prm/pocket_docking_5.prm

>  <SCORE>
-34.0799

>  <SCORE.INTER>
-30.1114

>  <SCORE.INTER.CONST>
1

>  <SCORE.INTER.POLAR>
0

>  <SCORE.INTER.ROT>
3

>  <SCORE.INTER.SOLV>
11.2416

>  <SCORE.INTER.VDW>
-29.4215

>  <SCORE.INTER.norm>
-1.00371

>  <SCORE.INTRA>
-3.96847

>  <SCORE.INTRA.DIHEDRAL>
-7.60734

>  <SCORE.INTRA.DIHEDRAL.0>
9.41909

>  <SCORE.INTRA.POLAR>
0

>  <SCORE.INTRA.POLAR.0>
0

>  <SCORE.INTRA.REPUL>
0

>  <SCORE.INTRA.REPUL.0>
0

>  <SCORE.INTRA.SOLV>
0.189633

>  <SCORE.INTRA.SOLV.lig_0>
-26.2491

>  <SCORE.INTRA.VDW>
-0.259613

>  <SCORE.INTRA.VDW.0>
2.57239

>  <SCORE.INTRA.norm>
-0.132282

>  <SCORE.RESTR>
0

>  <SCORE.RESTR.CAVITY>
0

>  <SCORE.RESTR.norm>
0

>  <SCORE.SYSTEM>
0

>  <SCORE.SYSTEM.CONST>
0

>  <SCORE.SYSTEM.DIHEDRAL>
0

>  <SCORE.SYSTEM.SOLV>
0

>  <SCORE.SYSTEM.norm>
0

>  <SCORE.heavy>
30

>  <SCORE.norm>
-1.136

>  <RMSD>
2.053

$$$$
lig.pdb
 OpenBabel11021811523D
libRbt.so/2013.1/901 2013/11/27
 30 34  0  0  0  0  0  0  0  0999 V2000
   24.4750   38.0688   21.0543 N   0  0  0  0  0  0  0  0  0  0  0  0
   27.2733   41.4398   23.3594 N   0  0  0  0  0  0  0  0  0  0  0  0
   25.5905   37.3895   20.3883 C   0  0  0  0  0  0  0  0  0  0  0  0
   24.8592   36.4543   19.4371 C   0  0  2  0  0  0  0  0  0  0  0  0
   24.7202   38.9551   22.1866 C   0  0  0  0  0  0  0  0  0  0  0  0
   23.8549   39.0636   23.2943 C   0  0  0  0  0  0  0  0  0  0  0  0
   24.0680   39.9173   24.3478 C   0  0  0  0  0  0  0  0  0  0  0  0
   25.3949   41.7061   25.4762 C   0  0  0  0  0  0  0  0  0  0  0  0
   29.3497   42.0493   22.6963 C   0  0  0  0  0  0  0  0  0  0  0  0
   28.1300   40.0863   21.5213 C   0  0  0  0  0  0  0  0  0  0  0  0
   25.8798   39.7804   22.2088 C   0  0  0  0  0  0  0  0  0  0  0  0
   25.9066   44.1756   26.9683 O   0  0  0  0  0  0  0  0  0  0  0  0
   26.8490   43.5855   26.4354 C   0  0  0  0  0  0  0  0  0  0  0  0
   28.1152   43.8364   26.7450 O   0  0  0  0  0  0  0  0  0  0  0  0
   26.6088   42.5586   25.3870 C   0  0  1  0  0  0  0  0  0  0  0  0
   24.6133   41.7564   26.4321 O   0  0  0  0  0  0  0  0  0  0  0  0
   27.5327   42.3941   24.3403 C   0  0  0  0  0  0  0  0  0  0  0  0
   28.3202   41.2334   22.4500 C   0  0  0  0  0  0  0  0  0  0  0  0
   29.0850   43.0626   24.0543 S   0  0  0  0  0  0  0  0  0  0  0  0
   26.1116   40.6435   23.3038 C   0  0  0  0  0  0  0  0  0  0  0  0
   25.1951   40.7388   24.3623 C   0  0  0  0  0  0  0  0  0  0  0  0
   22.7656   38.2711   23.3484 F   0  0  0  0  0  0  0  0  0  0  0  0
   26.7651   39.7966   21.1197 N   0  0  0  0  0  0  0  0  0  0  0  0
   26.2454   40.6076   20.0395 C   0  0  0  0  0  0  0  0  0  0  0  0
   23.2390   37.3027   20.9413 C   0  0  0  0  0  0  0  0  0  0  0  0
   25.2468   36.6756   18.0803 O   0  0  0  0  0  0  0  0  0  0  0  0
   23.3800   36.8247   19.5060 C   0  0  2  0  0  0  0  0  0  0  0  0
   22.5880   35.6393   19.1262 N   0  0  0  0  0  0  0  0  0  0  0  0
   21.1401   35.7407   19.3846 C   0  0  0  0  0  0  0  0  0  0  0  0
   22.8820   35.1570   17.7680 C   0  0  0  0  0  0  0  0  0  0  0  0
  1  5  1  0  0  0  0
  2 17  1  0  0  0  0
  3  1  1  0  0  0  0
  4  3  1  0  0  0  0
  4 26  1  6  0  0  0
  5 11  2  0  0  0  0
  5  6  1  0  0  0  0
  6  7  2  0  0  0  0
  7 21  1  0  0  0  0
  8 15  1  0  0  0  0
  8 16  2  0  0  0  0
  9 19  1  0  0  0  0
 10 18  1  0  0  0  0
 11 20  1  0  0  0  0
 13 14  1  0  0  0  0
 13 12  2  0  0  0  0
 15 13  1  1  0  0  0
 17 19  2  0  0  0  0
 17 15  1  0  0  0  0
 18  2  1  0  0  0  0
 18  9  2  0  0  0  0
 20 21  2  0  0  0  0
 20  2  1  0  0  0  0
 21  8  1  0  0  0  0
 22  6  1  0  0  0  0
 23 11  1  0  0  0  0
 23 10  1  0  0  0  0
 24 23  1  0  0  0  0
 25  1  1  0  0  0  0
 27  4  1  0  0  0  0
 27 25  1  0  0  0  0
 27 28  1  1  0  0  0
 29 28  1  0  0  0  0
 30 28  1  0  0  0  0
M  END
>  <CHROM.1>
-143.77582757,-5.40392110,-33.76380826,-65.52370970,168.83837888,25.63314774
39.92522791,22.56219450,2.04969321,-0.46712017,-2.17251962

>  <Name>
lig.pdb

>  <RI>
0

>  <Rbt.Current_Directory>
/home/itssahil/PROJECTS/Mol_Feturizer/New_Systems/rnas/6bfb

>  <Rbt.Executable>
rbdock ($Id: //depot/dev/client3/rdock/2013.1/src/exe/rbdock.cxx#4 $)

>  <Rbt.Library>
libRbt.so (2013.1, Build901 2013/11/27)

>  <Rbt.Parameter_File>
/export/apps/rDock/src/rDock_2013.1_src/data/scripts/dock_solv.prm

>  <Rbt.Receptor>
prm/blind_docking_100.prm

>  <SCORE>
-40.932

>  <SCORE.INTER>
-38.9748

>  <SCORE.INTER.CONST>
1

>  <SCORE.INTER.POLAR>
-1.00186

>  <SCORE.INTER.ROT>
3

>  <SCORE.INTER.SOLV>
13.9567

>  <SCORE.INTER.VDW>
-32.8959

>  <SCORE.INTER.norm>
-1.29916

>  <SCORE.INTRA>
-1.95718

>  <SCORE.INTRA.DIHEDRAL>
-7.29011

>  <SCORE.INTRA.DIHEDRAL.0>
9.41909

>  <SCORE.INTRA.POLAR>
0

>  <SCORE.INTRA.POLAR.0>
0

>  <SCORE.INTRA.REPUL>
0

>  <SCORE.INTRA.REPUL.0>
0

>  <SCORE.INTRA.SOLV>
0.0359592

>  <SCORE.INTRA.SOLV.lig_0>
-26.2491

>  <SCORE.INTRA.VDW>
1.6699

>  <SCORE.INTRA.VDW.0>
2.57239

>  <SCORE.INTRA.norm>
-0.0652392

>  <SCORE.RESTR>
0

>  <SCORE.RESTR.CAVITY>
0

>  <SCORE.RESTR.norm>
0

>  <SCORE.SYSTEM>
0

>  <SCORE.SYSTEM.CONST>
0

>  <SCORE.SYSTEM.DIHEDRAL>
0

>  <SCORE.SYSTEM.SOLV>
0

>  <SCORE.SYSTEM.norm>
0

>  <SCORE.heavy>
30

>  <SCORE.norm>
-1.3644

>  <RMSD>
2.054

$$$$
lig.pdb
 OpenBabel11021811523D
libRbt.so/2013.1/901 2013/11/27
 30 34  0  0  0  0  0  0  0  0999 V2000
   25.0370   36.7742   20.2449 N   0  0  0  0  0  0  0  0  0  0  0  0
   26.3620   40.0952   23.6687 N   0  0  0  0  0  0  0  0  0  0  0  0
   24.7703   37.1980   18.8670 C   0  0  0  0  0  0  0  0  0  0  0  0
   25.4474   36.0948   18.0678 C   0  0  2  0  0  0  0  0  0  0  0  0
   24.7001   37.6468   21.3641 C   0  0  0  0  0  0  0  0  0  0  0  0
   23.4039   37.7526   21.9085 C   0  0  0  0  0  0  0  0  0  0  0  0
   23.0775   38.5937   22.9429 C   0  0  0  0  0  0  0  0  0  0  0  0
   23.6890   40.3585   24.5998 C   0  0  0  0  0  0  0  0  0  0  0  0
   28.4995   40.6913   24.1140 C   0  0  0  0  0  0  0  0  0  0  0  0
   28.0034   38.7519   22.4666 C   0  0  0  0  0  0  0  0  0  0  0  0
   25.7035   38.4607   21.9617 C   0  0  0  0  0  0  0  0  0  0  0  0
   25.2822   42.4170   27.0993 O   0  0  0  0  0  0  0  0  0  0  0  0
   24.4947   42.2143   26.1726 C   0  0  0  0  0  0  0  0  0  0  0  0
   23.3424   42.8635   26.0600 O   0  0  0  0  0  0  0  0  0  0  0  0
   24.7945   41.2002   25.1270 C   0  0  1  0  0  0  0  0  0  0  0  0
   22.5400   40.4067   25.0520 O   0  0  0  0  0  0  0  0  0  0  0  0
   26.1117   41.0371   24.6639 C   0  0  0  0  0  0  0  0  0  0  0  0
   27.7191   39.8878   23.3849 C   0  0  0  0  0  0  0  0  0  0  0  0
   27.6079   41.6936   25.1825 S   0  0  0  0  0  0  0  0  0  0  0  0
   25.3731   39.3106   23.0415 C   0  0  0  0  0  0  0  0  0  0  0  0
   24.0563   39.4042   23.5177 C   0  0  0  0  0  0  0  0  0  0  0  0
   22.4246   36.9701   21.4124 F   0  0  0  0  0  0  0  0  0  0  0  0
   27.0085   38.4793   21.4450 N   0  0  0  0  0  0  0  0  0  0  0  0
   27.0864   39.3059   20.2595 C   0  0  0  0  0  0  0  0  0  0  0  0
   26.1655   35.8526   20.3113 C   0  0  0  0  0  0  0  0  0  0  0  0
   24.5307   35.4461   17.1853 O   0  0  0  0  0  0  0  0  0  0  0  0
   25.8773   35.0260   19.0694 C   0  0  2  0  0  0  0  0  0  0  0  0
   27.0152   34.2839   18.4940 N   0  0  0  0  0  0  0  0  0  0  0  0
   26.6730   33.3555   17.4011 C   0  0  0  0  0  0  0  0  0  0  0  0
   28.1592   35.1458   18.1590 C   0  0  0  0  0  0  0  0  0  0  0  0
  1  5  1  0  0  0  0
  2 17  1  0  0  0  0
  3  1  1  0  0  0  0
  4  3  1  0  0  0  0
  4 26  1  6  0  0  0
  5 11  2  0  0  0  0
  5  6  1  0  0  0  0
  6  7  2  0  0  0  0
  7 21  1  0  0  0  0
  8 15  1  0  0  0  0
  8 16  2  0  0  0  0
  9 19  1  0  0  0  0
 10 18  1  0  0  0  0
 11 20  1  0  0  0  0
 13 14  1  0  0  0  0
 13 12  2  0  0  0  0
 15 13  1  1  0  0  0
 17 19  2  0  0  0  0
 17 15  1  0  0  0  0
 18  2  1  0  0  0  0
 18  9  2  0  0  0  0
 20 21  2  0  0  0  0
 20  2  1  0  0  0  0
 21  8  1  0  0  0  0
 22  6  1  0  0  0  0
 23 11  1  0  0  0  0
 23 10  1  0  0  0  0
 24 23  1  0  0  0  0
 25  1  1  0  0  0  0
 27  4  1  0  0  0  0
 27 25  1  0  0  0  0
 27 28  1  6  0  0  0
 29 28  1  0  0  0  0
 30 28  1  0  0  0  0
M  END
>  <CHROM.1>
81.49303175,-0.19005403,141.33156671,66.70992388,-73.44068650,25.54586942
38.64937597,22.18213642,1.49864894,-0.09794778,-2.30945608

>  <Name>
lig.pdb

>  <RI>
0

>  <Rbt.Current_Directory>
/home/itssahil/PROJECTS/Mol_Feturizer/New_Systems/rnas/6bfb

>  <Rbt.Executable>
rbdock ($Id: //depot/dev/client3/rdock/2013.1/src/exe/rbdock.cxx#4 $)

>  <Rbt.Library>
libRbt.so (2013.1, Build901 2013/11/27)

>  <Rbt.Parameter_File>
/export/apps/rDock/src/rDock_2013.1_src/data/scripts/dock_solv.prm

>  <Rbt.Receptor>
prm/pocket_docking_4.prm

>  <SCORE>
-37.7821

>  <SCORE.INTER>
-33.0421

>  <SCORE.INTER.CONST>
1

>  <SCORE.INTER.POLAR>
-0.848528

>  <SCORE.INTER.ROT>
3

>  <SCORE.INTER.SOLV>
12.6103

>  <SCORE.INTER.VDW>
-29.0031

>  <SCORE.INTER.norm>
-1.1014

>  <SCORE.INTRA>
-4.74001

>  <SCORE.INTRA.DIHEDRAL>
-7.43215

>  <SCORE.INTRA.DIHEDRAL.0>
9.41909

>  <SCORE.INTRA.POLAR>
0

>  <SCORE.INTRA.POLAR.0>
0

>  <SCORE.INTRA.REPUL>
0

>  <SCORE.INTRA.REPUL.0>
0

>  <SCORE.INTRA.SOLV>
0.170884

>  <SCORE.INTRA.SOLV.lig_0>
-26.2491

>  <SCORE.INTRA.VDW>
-1.10938

>  <SCORE.INTRA.VDW.0>
2.57239

>  <SCORE.INTRA.norm>
-0.158

>  <SCORE.RESTR>
0

>  <SCORE.RESTR.CAVITY>
0

>  <SCORE.RESTR.norm>
0

>  <SCORE.SYSTEM>
0

>  <SCORE.SYSTEM.CONST>
0

>  <SCORE.SYSTEM.DIHEDRAL>
0

>  <SCORE.SYSTEM.SOLV>
0

>  <SCORE.SYSTEM.norm>
0

>  <SCORE.heavy>
30

>  <SCORE.norm>
-1.2594

>  <RMSD>
2.083

$$$$
lig.pdb
 OpenBabel11021811523D
libRbt.so/2013.1/901 2013/11/27
 30 34  0  0  0  0  0  0  0  0999 V2000
   24.4747   37.2557   21.2237 N   0  0  0  0  0  0  0  0  0  0  0  0
   26.7758   40.7162   23.9140 N   0  0  0  0  0  0  0  0  0  0  0  0
   23.4441   37.2695   20.1811 C   0  0  0  0  0  0  0  0  0  0  0  0
   23.9650   36.2136   19.2177 C   0  0  2  0  0  0  0  0  0  0  0  0
   24.4614   38.2527   22.2883 C   0  0  0  0  0  0  0  0  0  0  0  0
   23.3287   38.5351   23.0789 C   0  0  0  0  0  0  0  0  0  0  0  0
   23.3045   39.4924   24.0622 C   0  0  0  0  0  0  0  0  0  0  0  0
   24.4016   41.3262   25.3535 C   0  0  0  0  0  0  0  0  0  0  0  0
   28.9989   41.1325   23.8322 C   0  0  0  0  0  0  0  0  0  0  0  0
   28.0026   39.1149   22.5447 C   0  0  0  0  0  0  0  0  0  0  0  0
   25.6322   39.0117   22.5699 C   0  0  0  0  0  0  0  0  0  0  0  0
   24.8035   44.0939   26.4840 O   0  0  0  0  0  0  0  0  0  0  0  0
   25.6761   43.2235   26.5123 C   0  0  0  0  0  0  0  0  0  0  0  0
   26.6783   43.2451   27.3824 O   0  0  0  0  0  0  0  0  0  0  0  0
   25.6585   42.0963   25.5423 C   0  0  1  0  0  0  0  0  0  0  0  0
   23.3873   41.5287   26.0297 O   0  0  0  0  0  0  0  0  0  0  0  0
   26.8249   41.7624   24.8323 C   0  0  0  0  0  0  0  0  0  0  0  0
   28.0169   40.3500   23.3746 C   0  0  0  0  0  0  0  0  0  0  0  0
   28.4452   42.3091   24.9504 S   0  0  0  0  0  0  0  0  0  0  0  0
   25.6148   39.9822   23.5973 C   0  0  0  0  0  0  0  0  0  0  0  0
   24.4462   40.2485   24.3273 C   0  0  0  0  0  0  0  0  0  0  0  0
   22.2061   37.8137   22.8874 F   0  0  0  0  0  0  0  0  0  0  0  0
   26.7893   38.8542   21.7910 N   0  0  0  0  0  0  0  0  0  0  0  0
   26.6697   39.5613   20.5338 C   0  0  0  0  0  0  0  0  0  0  0  0
   25.7231   36.6827   20.7332 C   0  0  0  0  0  0  0  0  0  0  0  0
   23.0094   35.1724   19.0115 O   0  0  0  0  0  0  0  0  0  0  0  0
   25.1572   35.5462   19.8985 C   0  0  2  0  0  0  0  0  0  0  0  0
   26.0392   34.9958   18.8518 N   0  0  0  0  0  0  0  0  0  0  0  0
   26.7154   35.9977   18.0079 C   0  0  0  0  0  0  0  0  0  0  0  0
   26.9661   33.9705   19.3552 C   0  0  0  0  0  0  0  0  0  0  0  0
  1  5  1  0  0  0  0
  2 17  1  0  0  0  0
  3  1  1  0  0  0  0
  4  3  1  0  0  0  0
  4 26  1  1  0  0  0
  5 11  2  0  0  0  0
  5  6  1  0  0  0  0
  6  7  2  0  0  0  0
  7 21  1  0  0  0  0
  8 15  1  0  0  0  0
  8 16  2  0  0  0  0
  9 19  1  0  0  0  0
 10 18  1  0  0  0  0
 11 20  1  0  0  0  0
 13 14  1  0  0  0  0
 13 12  2  0  0  0  0
 15 13  1  1  0  0  0
 17 19  2  0  0  0  0
 17 15  1  0  0  0  0
 18  2  1  0  0  0  0
 18  9  2  0  0  0  0
 20 21  2  0  0  0  0
 20  2  1  0  0  0  0
 21  8  1  0  0  0  0
 22  6  1  0  0  0  0
 23 11  1  0  0  0  0
 23 10  1  0  0  0  0
 24 23  1  0  0  0  0
 25  1  1  0  0  0  0
 27  4  1  0  0  0  0
 27 25  1  0  0  0  0
 27 28  1  6  0  0  0
 29 28  1  0  0  0  0
 30 28  1  0  0  0  0
M  END
>  <CHROM.1>
51.40832667,177.49014073,-49.84983086,-54.87991929,67.53831623,25.59867486
39.27483858,22.80577573,1.70973002,-0.19738096,-2.36229982

>  <Name>
lig.pdb

>  <RI>
0

>  <Rbt.Current_Directory>
/home/itssahil/PROJECTS/Mol_Feturizer/New_Systems/rnas/6bfb

>  <Rbt.Executable>
rbdock ($Id: //depot/dev/client3/rdock/2013.1/src/exe/rbdock.cxx#4 $)

>  <Rbt.Library>
libRbt.so (2013.1, Build901 2013/11/27)

>  <Rbt.Parameter_File>
/export/apps/rDock/src/rDock_2013.1_src/data/scripts/dock_solv.prm

>  <Rbt.Receptor>
prm/pocket_docking_6.prm

>  <SCORE>
-35.5369

>  <SCORE.INTER>
-33.191

>  <SCORE.INTER.CONST>
1

>  <SCORE.INTER.POLAR>
-0.929968

>  <SCORE.INTER.ROT>
3

>  <SCORE.INTER.SOLV>
12.8446

>  <SCORE.INTER.VDW>
-28.909

>  <SCORE.INTER.norm>
-1.10637

>  <SCORE.INTRA>
-2.34586

>  <SCORE.INTRA.DIHEDRAL>
-7.28598

>  <SCORE.INTRA.DIHEDRAL.0>
9.41909

>  <SCORE.INTRA.POLAR>
0

>  <SCORE.INTRA.POLAR.0>
0

>  <SCORE.INTRA.REPUL>
0

>  <SCORE.INTRA.REPUL.0>
0

>  <SCORE.INTRA.SOLV>
-0.18119

>  <SCORE.INTRA.SOLV.lig_0>
-26.2491

>  <SCORE.INTRA.VDW>
1.38772

>  <SCORE.INTRA.VDW.0>
2.57239

>  <SCORE.INTRA.norm>
-0.0781954

>  <SCORE.RESTR>
0

>  <SCORE.RESTR.CAVITY>
0

>  <SCORE.RESTR.norm>
0

>  <SCORE.SYSTEM>
0

>  <SCORE.SYSTEM.CONST>
0

>  <SCORE.SYSTEM.DIHEDRAL>
0

>  <SCORE.SYSTEM.SOLV>
0

>  <SCORE.SYSTEM.norm>
0

>  <SCORE.heavy>
30

>  <SCORE.norm>
-1.18456

>  <RMSD>
2.084

$$$$
lig.pdb
 OpenBabel11021811523D
libRbt.so/2013.1/901 2013/11/27
 30 34  0  0  0  0  0  0  0  0999 V2000
   25.2799   36.9124   20.2597 N   0  0  0  0  0  0  0  0  0  0  0  0
   26.3458   40.1996   23.8044 N   0  0  0  0  0  0  0  0  0  0  0  0
   25.3074   37.4452   18.8941 C   0  0  0  0  0  0  0  0  0  0  0  0
   25.9724   36.3087   18.1323 C   0  0  2  0  0  0  0  0  0  0  0  0
   24.8645   37.7572   21.3737 C   0  0  0  0  0  0  0  0  0  0  0  0
   23.5391   37.8252   21.8497 C   0  0  0  0  0  0  0  0  0  0  0  0
   23.1394   38.6403   22.8791 C   0  0  0  0  0  0  0  0  0  0  0  0
   23.6220   40.3880   24.5956 C   0  0  0  0  0  0  0  0  0  0  0  0
   28.4426   40.8339   24.3732 C   0  0  0  0  0  0  0  0  0  0  0  0
   28.0788   38.9140   22.6695 C   0  0  0  0  0  0  0  0  0  0  0  0
   25.8160   38.5819   22.0376 C   0  0  0  0  0  0  0  0  0  0  0  0
   23.6767   41.8821   27.2439 O   0  0  0  0  0  0  0  0  0  0  0  0
   24.3008   42.2325   26.2400 C   0  0  0  0  0  0  0  0  0  0  0  0
   24.6539   43.4935   26.0228 O   0  0  0  0  0  0  0  0  0  0  0  0
   24.6786   41.2440   25.1952 C   0  0  1  0  0  0  0  0  0  0  0  0
   22.4498   40.4032   24.9864 O   0  0  0  0  0  0  0  0  0  0  0  0
   26.0218   41.1179   24.8004 C   0  0  0  0  0  0  0  0  0  0  0  0
   27.7205   40.0269   23.5901 C   0  0  0  0  0  0  0  0  0  0  0  0
   27.4731   41.7974   25.4092 S   0  0  0  0  0  0  0  0  0  0  0  0
   25.4097   39.4051   23.1122 C   0  0  0  0  0  0  0  0  0  0  0  0
   24.0677   39.4615   23.5189 C   0  0  0  0  0  0  0  0  0  0  0  0
   22.6055   37.0305   21.2890 F   0  0  0  0  0  0  0  0  0  0  0  0
   27.1458   38.6381   21.5917 N   0  0  0  0  0  0  0  0  0  0  0  0
   27.2678   39.4873   20.4260 C   0  0  0  0  0  0  0  0  0  0  0  0
   26.2597   35.8466   20.4370 C   0  0  0  0  0  0  0  0  0  0  0  0
   25.1489   35.8387   17.0642 O   0  0  0  0  0  0  0  0  0  0  0  0
   26.0908   35.1373   19.1039 C   0  0  2  0  0  0  0  0  0  0  0  0
   27.2118   34.2841   18.6656 N   0  0  0  0  0  0  0  0  0  0  0  0
   27.7588   33.3846   19.6976 C   0  0  0  0  0  0  0  0  0  0  0  0
   26.9478   33.5867   17.3976 C   0  0  0  0  0  0  0  0  0  0  0  0
  1  5  1  0  0  0  0
  2 17  1  0  0  0  0
  3  1  1  0  0  0  0
  4  3  1  0  0  0  0
  4 26  1  6  0  0  0
  5 11  2  0  0  0  0
  5  6  1  0  0  0  0
  6  7  2  0  0  0  0
  7 21  1  0  0  0  0
  8 15  1  0  0  0  0
  8 16  2  0  0  0  0
  9 19  1  0  0  0  0
 10 18  1  0  0  0  0
 11 20  1  0  0  0  0
 13 14  1  0  0  0  0
 13 12  2  0  0  0  0
 15 13  1  1  0  0  0
 17 19  2  0  0  0  0
 17 15  1  0  0  0  0
 18  2  1  0  0  0  0
 18  9  2  0  0  0  0
 20 21  2  0  0  0  0
 20  2  1  0  0  0  0
 21  8  1  0  0  0  0
 22  6  1  0  0  0  0
 23 11  1  0  0  0  0
 23 10  1  0  0  0  0
 24 23  1  0  0  0  0
 25  1  1  0  0  0  0
 27  4  1  0  0  0  0
 27 25  1  0  0  0  0
 27 28  1  6  0  0  0
 29 28  1  0  0  0  0
 30 28  1  0  0  0  0
M  END
>  <CHROM.1>
92.74399938,-176.84904828,53.78959715,-59.22803438,160.35212674,25.62177696
38.69246570,22.29950784,1.46447662,-0.07838188,-2.33458124

>  <Name>
lig.pdb

>  <RI>
0

>  <Rbt.Current_Directory>
/home/itssahil/PROJECTS/Mol_Feturizer/New_Systems/rnas/6bfb

>  <Rbt.Executable>
rbdock ($Id: //depot/dev/client3/rdock/2013.1/src/exe/rbdock.cxx#4 $)

>  <Rbt.Library>
libRbt.so (2013.1, Build901 2013/11/27)

>  <Rbt.Parameter_File>
/export/apps/rDock/src/rDock_2013.1_src/data/scripts/dock_solv.prm

>  <Rbt.Receptor>
prm/blind_docking_60.prm

>  <SCORE>
-35.5736

>  <SCORE.INTER>
-30.6202

>  <SCORE.INTER.CONST>
1

>  <SCORE.INTER.POLAR>
-0.106054

>  <SCORE.INTER.ROT>
3

>  <SCORE.INTER.SOLV>
13.4943

>  <SCORE.INTER.VDW>
-30.1581

>  <SCORE.INTER.norm>
-1.02067

>  <SCORE.INTRA>
-4.95332

>  <SCORE.INTRA.DIHEDRAL>
-7.39581

>  <SCORE.INTRA.DIHEDRAL.0>
9.41909

>  <SCORE.INTRA.POLAR>
0

>  <SCORE.INTRA.POLAR.0>
0

>  <SCORE.INTRA.REPUL>
0

>  <SCORE.INTRA.REPUL.0>
0

>  <SCORE.INTRA.SOLV>
-0.0739505

>  <SCORE.INTRA.SOLV.lig_0>
-26.2491

>  <SCORE.INTRA.VDW>
-1.21844

>  <SCORE.INTRA.VDW.0>
2.57239

>  <SCORE.INTRA.norm>
-0.165111

>  <SCORE.RESTR>
0

>  <SCORE.RESTR.CAVITY>
0

>  <SCORE.RESTR.norm>
0

>  <SCORE.SYSTEM>
0

>  <SCORE.SYSTEM.CONST>
0

>  <SCORE.SYSTEM.DIHEDRAL>
0

>  <SCORE.SYSTEM.SOLV>
0

>  <SCORE.SYSTEM.norm>
0

>  <SCORE.heavy>
30

>  <SCORE.norm>
-1.18579

>  <RMSD>
2.085

$$$$
lig.pdb
 OpenBabel11021811523D
libRbt.so/2013.1/901 2013/11/27
 30 34  0  0  0  0  0  0  0  0999 V2000
   25.0285   36.8593   20.2806 N   0  0  0  0  0  0  0  0  0  0  0  0
   26.3760   40.1684   23.7071 N   0  0  0  0  0  0  0  0  0  0  0  0
   24.7173   37.2712   18.9083 C   0  0  0  0  0  0  0  0  0  0  0  0
   25.4004   36.1813   18.0961 C   0  0  2  0  0  0  0  0  0  0  0  0
   24.6990   37.7280   21.4050 C   0  0  0  0  0  0  0  0  0  0  0  0
   23.4064   37.8320   21.9581 C   0  0  0  0  0  0  0  0  0  0  0  0
   23.0868   38.6695   22.9976 C   0  0  0  0  0  0  0  0  0  0  0  0
   23.7093   40.4286   24.6566 C   0  0  0  0  0  0  0  0  0  0  0  0
   28.5164   40.7629   24.1404 C   0  0  0  0  0  0  0  0  0  0  0  0
   28.0095   38.8292   22.4896 C   0  0  0  0  0  0  0  0  0  0  0  0
   25.7063   38.5398   21.9987 C   0  0  0  0  0  0  0  0  0  0  0  0
   25.2951   42.4437   27.1793 O   0  0  0  0  0  0  0  0  0  0  0  0
   24.5253   42.2789   26.2304 C   0  0  0  0  0  0  0  0  0  0  0  0
   23.3983   42.9675   26.0974 O   0  0  0  0  0  0  0  0  0  0  0  0
   24.8182   41.2684   25.1794 C   0  0  1  0  0  0  0  0  0  0  0  0
   22.5632   40.4753   25.1164 O   0  0  0  0  0  0  0  0  0  0  0  0
   26.1323   41.1069   24.7071 C   0  0  0  0  0  0  0  0  0  0  0  0
   27.7313   39.9620   23.4136 C   0  0  0  0  0  0  0  0  0  0  0  0
   27.6319   41.7616   25.2182 S   0  0  0  0  0  0  0  0  0  0  0  0
   25.3831   39.3861   23.0836 C   0  0  0  0  0  0  0  0  0  0  0  0
   24.0694   39.4780   23.5688 C   0  0  0  0  0  0  0  0  0  0  0  0
   22.4238   37.0512   21.4658 F   0  0  0  0  0  0  0  0  0  0  0  0
   27.0079   38.5602   21.4736 N   0  0  0  0  0  0  0  0  0  0  0  0
   27.0781   39.3909   20.2904 C   0  0  0  0  0  0  0  0  0  0  0  0
   26.1800   35.9651   20.3216 C   0  0  0  0  0  0  0  0  0  0  0  0
   24.4776   35.5075   17.2391 O   0  0  0  0  0  0  0  0  0  0  0  0
   25.8807   35.1270   19.0901 C   0  0  2  0  0  0  0  0  0  0  0  0
   27.0212   34.4099   18.4888 N   0  0  0  0  0  0  0  0  0  0  0  0
   28.2154   35.2339   18.2273 C   0  0  0  0  0  0  0  0  0  0  0  0
   27.3480   33.1551   19.1833 C   0  0  0  0  0  0  0  0  0  0  0  0
  1  5  1  0  0  0  0
  2 17  1  0  0  0  0
  3  1  1  0  0  0  0
  4  3  1  0  0  0  0
  4 26  1  6  0  0  0
  5 11  2  0  0  0  0
  5  6  1  0  0  0  0
  6  7  2  0  0  0  0
  7 21  1  0  0  0  0
  8 15  1  0  0  0  0
  8 16  2  0  0  0  0
  9 19  1  0  0  0  0
 10 18  1  0  0  0  0
 11 20  1  0  0  0  0
 13 14  1  0  0  0  0
 13 12  2  0  0  0  0
 15 13  1  1  0  0  0
 17 19  2  0  0  0  0
 17 15  1  0  0  0  0
 18  2  1  0  0  0  0
 18  9  2  0  0  0  0
 20 21  2  0  0  0  0
 20  2  1  0  0  0  0
 21  8  1  0  0  0  0
 22  6  1  0  0  0  0
 23 11  1  0  0  0  0
 23 10  1  0  0  0  0
 24 23  1  0  0  0  0
 25  1  1  0  0  0  0
 27  4  1  0  0  0  0
 27 25  1  0  0  0  0
 27 28  1  6  0  0  0
 29 28  1  0  0  0  0
 30 28  1  0  0  0  0
M  END
>  <CHROM.1>
79.71212361,179.30089605,138.63966290,68.97797526,63.70124953,25.57584937
38.71580547,22.27991461,1.49060085,-0.06774145,-2.32454686

>  <Name>
lig.pdb

>  <RI>
0

>  <Rbt.Current_Directory>
/home/itssahil/PROJECTS/Mol_Feturizer/New_Systems/rnas/6bfb

>  <Rbt.Executable>
rbdock ($Id: //depot/dev/client3/rdock/2013.1/src/exe/rbdock.cxx#4 $)

>  <Rbt.Library>
libRbt.so (2013.1, Build901 2013/11/27)

>  <Rbt.Parameter_File>
/export/apps/rDock/src/rDock_2013.1_src/data/scripts/dock_solv.prm

>  <Rbt.Receptor>
prm/pocket_docking_4.prm

>  <SCORE>
-39.0556

>  <SCORE.INTER>
-33.6027

>  <SCORE.INTER.CONST>
1

>  <SCORE.INTER.POLAR>
-0.848528

>  <SCORE.INTER.ROT>
3

>  <SCORE.INTER.SOLV>
13.1026

>  <SCORE.INTER.VDW>
-29.5409

>  <SCORE.INTER.norm>
-1.12009

>  <SCORE.INTRA>
-5.45289

>  <SCORE.INTRA.DIHEDRAL>
-7.21751

>  <SCORE.INTRA.DIHEDRAL.0>
9.41909

>  <SCORE.INTRA.POLAR>
0

>  <SCORE.INTRA.POLAR.0>
0

>  <SCORE.INTRA.REPUL>
0

>  <SCORE.INTRA.REPUL.0>
0

>  <SCORE.INTRA.SOLV>
-0.103471

>  <SCORE.INTRA.SOLV.lig_0>
-26.2491

>  <SCORE.INTRA.VDW>
-1.7924

>  <SCORE.INTRA.VDW.0>
2.57239

>  <SCORE.INTRA.norm>
-0.181763

>  <SCORE.RESTR>
0

>  <SCORE.RESTR.CAVITY>
0

>  <SCORE.RESTR.norm>
0

>  <SCORE.SYSTEM>
0

>  <SCORE.SYSTEM.CONST>
0

>  <SCORE.SYSTEM.DIHEDRAL>
0

>  <SCORE.SYSTEM.SOLV>
0

>  <SCORE.SYSTEM.norm>
0

>  <SCORE.heavy>
30

>  <SCORE.norm>
-1.30185

>  <RMSD>
2.089

$$$$
lig.pdb
 OpenBabel11021811523D
libRbt.so/2013.1/901 2013/11/27
 30 34  0  0  0  0  0  0  0  0999 V2000
   25.2040   36.8585   20.1867 N   0  0  0  0  0  0  0  0  0  0  0  0
   26.3213   40.0919   23.7650 N   0  0  0  0  0  0  0  0  0  0  0  0
   24.8565   37.2715   18.8236 C   0  0  0  0  0  0  0  0  0  0  0  0
   25.6238   36.2576   17.9884 C   0  0  2  0  0  0  0  0  0  0  0  0
   24.8081   37.6745   21.3291 C   0  0  0  0  0  0  0  0  0  0  0  0
   23.4962   37.7116   21.8442 C   0  0  0  0  0  0  0  0  0  0  0  0
   23.1139   38.4998   22.9009 C   0  0  0  0  0  0  0  0  0  0  0  0
   23.6190   40.2208   24.6378 C   0  0  0  0  0  0  0  0  0  0  0  0
   28.4236   40.7486   24.2860 C   0  0  0  0  0  0  0  0  0  0  0  0
   28.0403   38.8570   22.5550 C   0  0  0  0  0  0  0  0  0  0  0  0
   25.7656   38.5011   21.9818 C   0  0  0  0  0  0  0  0  0  0  0  0
   25.1606   42.4308   27.1097 O   0  0  0  0  0  0  0  0  0  0  0  0
   24.3166   42.0432   26.2989 C   0  0  0  0  0  0  0  0  0  0  0  0
   23.0500   42.4380   26.3428 O   0  0  0  0  0  0  0  0  0  0  0  0
   24.6791   41.0817   25.2238 C   0  0  1  0  0  0  0  0  0  0  0  0
   22.4585   40.2094   25.0623 O   0  0  0  0  0  0  0  0  0  0  0  0
   26.0122   40.9851   24.7882 C   0  0  0  0  0  0  0  0  0  0  0  0
   27.6917   39.9456   23.5078 C   0  0  0  0  0  0  0  0  0  0  0  0
   27.4698   41.6757   25.3686 S   0  0  0  0  0  0  0  0  0  0  0  0
   25.3779   39.2962   23.0841 C   0  0  0  0  0  0  0  0  0  0  0  0
   24.0475   39.3230   23.5302 C   0  0  0  0  0  0  0  0  0  0  0  0
   22.5592   36.9132   21.2946 F   0  0  0  0  0  0  0  0  0  0  0  0
   27.0808   38.5875   21.4992 N   0  0  0  0  0  0  0  0  0  0  0  0
   27.1557   39.4613   20.3478 C   0  0  0  0  0  0  0  0  0  0  0  0
   26.4247   36.0605   20.2081 C   0  0  0  0  0  0  0  0  0  0  0  0
   24.7565   35.5284   17.1188 O   0  0  0  0  0  0  0  0  0  0  0  0
   26.1912   35.2260   18.9600 C   0  0  2  0  0  0  0  0  0  0  0  0
   27.3846   34.6166   18.3429 N   0  0  0  0  0  0  0  0  0  0  0  0
   28.5104   35.5384   18.1056 C   0  0  0  0  0  0  0  0  0  0  0  0
   27.8088   33.3736   19.0053 C   0  0  0  0  0  0  0  0  0  0  0  0
  1  5  1  0  0  0  0
  2 17  1  0  0  0  0
  3  1  1  0  0  0  0
  4  3  1  0  0  0  0
  4 26  1  6  0  0  0
  5 11  2  0  0  0  0
  5  6  1  0  0  0  0
  6  7  2  0  0  0  0
  7 21  1  0  0  0  0
  8 15  1  0  0  0  0
  8 16  2  0  0  0  0
  9 19  1  0  0  0  0
 10 18  1  0  0  0  0
 11 20  1  0  0  0  0
 13 14  1  0  0  0  0
 13 12  2  0  0  0  0
 15 13  1  1  0  0  0
 17 19  2  0  0  0  0
 17 15  1  0  0  0  0
 18  2  1  0  0  0  0
 18  9  2  0  0  0  0
 20 21  2  0  0  0  0
 20  2  1  0  0  0  0
 21  8  1  0  0  0  0
 22  6  1  0  0  0  0
 23 11  1  0  0  0  0
 23 10  1  0  0  0  0
 24 23  1  0  0  0  0
 25  1  1  0  0  0  0
 27  4  1  0  0  0  0
 27 25  1  0  0  0  0
 27 28  1  6  0  0  0
 29 28  1  0  0  0  0
 30 28  1  0  0  0  0
M  END
>  <CHROM.1>
76.43463994,1.18194988,155.12318455,67.91189325,64.10890516,25.62276182,38.67020619
22.26493505,1.44067032,-0.08420881,-2.29002200

>  <Name>
lig.pdb

>  <RI>
0

>  <Rbt.Current_Directory>
/home/itssahil/PROJECTS/Mol_Feturizer/New_Systems/rnas/6bfb

>  <Rbt.Executable>
rbdock ($Id: //depot/dev/client3/rdock/2013.1/src/exe/rbdock.cxx#4 $)

>  <Rbt.Library>
libRbt.so (2013.1, Build901 2013/11/27)

>  <Rbt.Parameter_File>
/export/apps/rDock/src/rDock_2013.1_src/data/scripts/dock_solv.prm

>  <Rbt.Receptor>
prm/blind_docking_80.prm

>  <SCORE>
-39.6751

>  <SCORE.INTER>
-34.1634

>  <SCORE.INTER.CONST>
1

>  <SCORE.INTER.POLAR>
-0.848528

>  <SCORE.INTER.ROT>
3

>  <SCORE.INTER.SOLV>
13.37

>  <SCORE.INTER.VDW>
-30.0038

>  <SCORE.INTER.norm>
-1.13878

>  <SCORE.INTRA>
-5.51176

>  <SCORE.INTRA.DIHEDRAL>
-7.29692

>  <SCORE.INTRA.DIHEDRAL.0>
9.41909

>  <SCORE.INTRA.POLAR>
0

>  <SCORE.INTRA.POLAR.0>
0

>  <SCORE.INTRA.REPUL>
0

>  <SCORE.INTRA.REPUL.0>
0

>  <SCORE.INTRA.SOLV>
-0.0663845

>  <SCORE.INTRA.SOLV.lig_0>
-26.2491

>  <SCORE.INTRA.VDW>
-1.83011

>  <SCORE.INTRA.VDW.0>
2.57239

>  <SCORE.INTRA.norm>
-0.183725

>  <SCORE.RESTR>
0

>  <SCORE.RESTR.CAVITY>
0

>  <SCORE.RESTR.norm>
0

>  <SCORE.SYSTEM>
0

>  <SCORE.SYSTEM.CONST>
0

>  <SCORE.SYSTEM.DIHEDRAL>
0

>  <SCORE.SYSTEM.SOLV>
0

>  <SCORE.SYSTEM.norm>
0

>  <SCORE.heavy>
30

>  <SCORE.norm>
-1.3225

>  <RMSD>
2.120

$$$$
lig.pdb
 OpenBabel11021811523D
libRbt.so/2013.1/901 2013/11/27
 30 34  0  0  0  0  0  0  0  0999 V2000
   25.1077   36.8400   20.2076 N   0  0  0  0  0  0  0  0  0  0  0  0
   26.3060   40.1261   23.7108 N   0  0  0  0  0  0  0  0  0  0  0  0
   24.7782   37.2479   18.8384 C   0  0  0  0  0  0  0  0  0  0  0  0
   25.5144   36.1996   18.0179 C   0  0  2  0  0  0  0  0  0  0  0  0
   24.7352   37.6820   21.3388 C   0  0  0  0  0  0  0  0  0  0  0  0
   23.4300   37.7448   21.8684 C   0  0  0  0  0  0  0  0  0  0  0  0
   23.0698   38.5573   22.9144 C   0  0  0  0  0  0  0  0  0  0  0  0
   23.6160   40.3043   24.6124 C   0  0  0  0  0  0  0  0  0  0  0  0
   28.4221   40.7667   24.1948 C   0  0  0  0  0  0  0  0  0  0  0  0
   27.9956   38.8479   22.5045 C   0  0  0  0  0  0  0  0  0  0  0  0
   25.7102   38.5090   21.9646 C   0  0  0  0  0  0  0  0  0  0  0  0
   25.1660   42.4248   27.1172 O   0  0  0  0  0  0  0  0  0  0  0  0
   24.3550   42.1488   26.2305 C   0  0  0  0  0  0  0  0  0  0  0  0
   23.1444   42.6905   26.1765 O   0  0  0  0  0  0  0  0  0  0  0  0
   24.6933   41.1630   25.1697 C   0  0  1  0  0  0  0  0  0  0  0  0
   22.4606   40.3150   25.0506 O   0  0  0  0  0  0  0  0  0  0  0  0
   26.0198   41.0420   24.7205 C   0  0  0  0  0  0  0  0  0  0  0  0
   27.6714   39.9583   23.4405 C   0  0  0  0  0  0  0  0  0  0  0  0
   27.4923   41.7255   25.2707 S   0  0  0  0  0  0  0  0  0  0  0  0
   25.3452   39.3294   23.0561 C   0  0  0  0  0  0  0  0  0  0  0  0
   24.0206   39.3807   23.5171 C   0  0  0  0  0  0  0  0  0  0  0  0
   22.4771   36.9478   21.3449 F   0  0  0  0  0  0  0  0  0  0  0  0
   27.0206   38.5703   21.4652 N   0  0  0  0  0  0  0  0  0  0  0  0
   27.0922   39.4214   20.2967 C   0  0  0  0  0  0  0  0  0  0  0  0
   26.3015   36.0028   20.2426 C   0  0  0  0  0  0  0  0  0  0  0  0
   24.6265   35.4889   17.1540 O   0  0  0  0  0  0  0  0  0  0  0  0
   26.0447   35.1616   19.0037 C   0  0  2  0  0  0  0  0  0  0  0  0
   27.2195   34.5062   18.3979 N   0  0  0  0  0  0  0  0  0  0  0  0
   28.3560   35.3981   18.1045 C   0  0  0  0  0  0  0  0  0  0  0  0
   27.6336   33.2869   19.1091 C   0  0  0  0  0  0  0  0  0  0  0  0
  1  5  1  0  0  0  0
  2 17  1  0  0  0  0
  3  1  1  0  0  0  0
  4  3  1  0  0  0  0
  4 26  1  6  0  0  0
  5 11  2  0  0  0  0
  5  6  1  0  0  0  0
  6  7  2  0  0  0  0
  7 21  1  0  0  0  0
  8 15  1  0  0  0  0
  8 16  2  0  0  0  0
  9 19  1  0  0  0  0
 10 18  1  0  0  0  0
 11 20  1  0  0  0  0
 13 14  1  0  0  0  0
 13 12  2  0  0  0  0
 15 13  1  1  0  0  0
 17 19  2  0  0  0  0
 17 15  1  0  0  0  0
 18  2  1  0  0  0  0
 18  9  2  0  0  0  0
 20 21  2  0  0  0  0
 20  2  1  0  0  0  0
 21  8  1  0  0  0  0
 22  6  1  0  0  0  0
 23 11  1  0  0  0  0
 23 10  1  0  0  0  0
 24 23  1  0  0  0  0
 25  1  1  0  0  0  0
 27  4  1  0  0  0  0
 27 25  1  0  0  0  0
 27 28  1  6  0  0  0
 29 28  1  0  0  0  0
 30 28  1  0  0  0  0
M  END
>  <CHROM.1>
77.95337974,1.88179300,146.65073947,64.27490611,61.78940194,25.57216816,38.68378588
22.24722444,1.45803399,-0.07805681,-2.30827007

>  <Name>
lig.pdb

>  <RI>
0

>  <Rbt.Current_Directory>
/home/itssahil/PROJECTS/Mol_Feturizer/New_Systems/rnas/6bfb

>  <Rbt.Executable>
rbdock ($Id: //depot/dev/client3/rdock/2013.1/src/exe/rbdock.cxx#4 $)

>  <Rbt.Library>
libRbt.so (2013.1, Build901 2013/11/27)

>  <Rbt.Parameter_File>
/export/apps/rDock/src/rDock_2013.1_src/data/scripts/dock_solv.prm

>  <Rbt.Receptor>
prm/pocket_docking_4.prm

>  <SCORE>
-39.7014

>  <SCORE.INTER>
-33.8714

>  <SCORE.INTER.CONST>
1

>  <SCORE.INTER.POLAR>
-0.848528

>  <SCORE.INTER.ROT>
3

>  <SCORE.INTER.SOLV>
13.1211

>  <SCORE.INTER.VDW>
-29.7262

>  <SCORE.INTER.norm>
-1.12905

>  <SCORE.INTRA>
-5.83009

>  <SCORE.INTRA.DIHEDRAL>
-7.55602

>  <SCORE.INTRA.DIHEDRAL.0>
9.41909

>  <SCORE.INTRA.POLAR>
0

>  <SCORE.INTRA.POLAR.0>
0

>  <SCORE.INTRA.REPUL>
0

>  <SCORE.INTRA.REPUL.0>
0

>  <SCORE.INTRA.SOLV>
-0.0886973

>  <SCORE.INTRA.SOLV.lig_0>
-26.2491

>  <SCORE.INTRA.VDW>
-2.00773

>  <SCORE.INTRA.VDW.0>
2.57239

>  <SCORE.INTRA.norm>
-0.194336

>  <SCORE.RESTR>
0

>  <SCORE.RESTR.CAVITY>
0

>  <SCORE.RESTR.norm>
0

>  <SCORE.SYSTEM>
0

>  <SCORE.SYSTEM.CONST>
0

>  <SCORE.SYSTEM.DIHEDRAL>
0

>  <SCORE.SYSTEM.SOLV>
0

>  <SCORE.SYSTEM.norm>
0

>  <SCORE.heavy>
30

>  <SCORE.norm>
-1.32338

>  <RMSD>
2.120

$$$$
lig.pdb
 OpenBabel11021811523D
libRbt.so/2013.1/901 2013/11/27
 30 34  0  0  0  0  0  0  0  0999 V2000
   25.2031   36.8486   20.1719 N   0  0  0  0  0  0  0  0  0  0  0  0
   26.3466   40.1057   23.7203 N   0  0  0  0  0  0  0  0  0  0  0  0
   24.8676   37.2592   18.8050 C   0  0  0  0  0  0  0  0  0  0  0  0
   25.6234   36.2296   17.9787 C   0  0  2  0  0  0  0  0  0  0  0  0
   24.8143   37.6766   21.3080 C   0  0  0  0  0  0  0  0  0  0  0  0
   23.5037   37.7258   21.8255 C   0  0  0  0  0  0  0  0  0  0  0  0
   23.1282   38.5251   22.8762 C   0  0  0  0  0  0  0  0  0  0  0  0
   23.6470   40.2579   24.5974 C   0  0  0  0  0  0  0  0  0  0  0  0
   28.4539   40.7544   24.2314 C   0  0  0  0  0  0  0  0  0  0  0  0
   28.0559   38.8505   22.5173 C   0  0  0  0  0  0  0  0  0  0  0  0
   25.7779   38.5031   21.9518 C   0  0  0  0  0  0  0  0  0  0  0  0
   25.1640   42.3716   27.1316 O   0  0  0  0  0  0  0  0  0  0  0  0
   24.3586   42.0901   26.2415 C   0  0  0  0  0  0  0  0  0  0  0  0
   23.1401   42.6140   26.1893 O   0  0  0  0  0  0  0  0  0  0  0  0
   24.7134   41.1174   25.1739 C   0  0  1  0  0  0  0  0  0  0  0  0
   22.4873   40.2569   25.0244 O   0  0  0  0  0  0  0  0  0  0  0  0
   26.0449   41.0093   24.7364 C   0  0  0  0  0  0  0  0  0  0  0  0
   27.7156   39.9492   23.4615 C   0  0  0  0  0  0  0  0  0  0  0  0
   27.5077   41.6962   25.3080 S   0  0  0  0  0  0  0  0  0  0  0  0
   25.3972   39.3098   23.0480 C   0  0  0  0  0  0  0  0  0  0  0  0
   24.0680   39.3481   23.4966 C   0  0  0  0  0  0  0  0  0  0  0  0
   22.5609   36.9283   21.2846 F   0  0  0  0  0  0  0  0  0  0  0  0
   27.0927   38.5776   21.4658 N   0  0  0  0  0  0  0  0  0  0  0  0
   27.1703   39.4412   20.3069 C   0  0  0  0  0  0  0  0  0  0  0  0
   26.4117   36.0328   20.2030 C   0  0  0  0  0  0  0  0  0  0  0  0
   24.7493   35.5085   17.1093 O   0  0  0  0  0  0  0  0  0  0  0  0
   26.1713   35.1950   18.9584 C   0  0  2  0  0  0  0  0  0  0  0  0
   27.3583   34.5648   18.3498 N   0  0  0  0  0  0  0  0  0  0  0  0
   28.4947   35.4708   18.1025 C   0  0  0  0  0  0  0  0  0  0  0  0
   27.7678   33.3251   19.0276 C   0  0  0  0  0  0  0  0  0  0  0  0
  1  5  1  0  0  0  0
  2 17  1  0  0  0  0
  3  1  1  0  0  0  0
  4  3  1  0  0  0  0
  4 26  1  6  0  0  0
  5 11  2  0  0  0  0
  5  6  1  0  0  0  0
  6  7  2  0  0  0  0
  7 21  1  0  0  0  0
  8 15  1  0  0  0  0
  8 16  2  0  0  0  0
  9 19  1  0  0  0  0
 10 18  1  0  0  0  0
 11 20  1  0  0  0  0
 13 14  1  0  0  0  0
 13 12  2  0  0  0  0
 15 13  1  1  0  0  0
 17 19  2  0  0  0  0
 17 15  1  0  0  0  0
 18  2  1  0  0  0  0
 18  9  2  0  0  0  0
 20 21  2  0  0  0  0
 20  2  1  0  0  0  0
 21  8  1  0  0  0  0
 22  6  1  0  0  0  0
 23 11  1  0  0  0  0
 23 10  1  0  0  0  0
 24 23  1  0  0  0  0
 25  1  1  0  0  0  0
 27  4  1  0  0  0  0
 27 25  1  0  0  0  0
 27 28  1  6  0  0  0
 29 28  1  0  0  0  0
 30 28  1  0  0  0  0
M  END
>  <CHROM.1>
77.08691465,0.60022127,147.34821849,65.55167834,63.63780303,25.63642438,38.67489537
22.23405156,1.44645048,-0.07690511,-2.29847702

>  <Name>
lig.pdb

>  <RI>
0

>  <Rbt.Current_Directory>
/home/itssahil/PROJECTS/Mol_Feturizer/New_Systems/rnas/6bfb

>  <Rbt.Executable>
rbdock ($Id: //depot/dev/client3/rdock/2013.1/src/exe/rbdock.cxx#4 $)

>  <Rbt.Library>
libRbt.so (2013.1, Build901 2013/11/27)

>  <Rbt.Parameter_File>
/export/apps/rDock/src/rDock_2013.1_src/data/scripts/dock_solv.prm

>  <Rbt.Receptor>
prm/pocket_docking_6.prm

>  <SCORE>
-39.8451

>  <SCORE.INTER>
-34.0357

>  <SCORE.INTER.CONST>
1

>  <SCORE.INTER.POLAR>
-0.848528

>  <SCORE.INTER.ROT>
3

>  <SCORE.INTER.SOLV>
13.2205

>  <SCORE.INTER.VDW>
-29.8688

>  <SCORE.INTER.norm>
-1.13452

>  <SCORE.INTRA>
-5.80949

>  <SCORE.INTRA.DIHEDRAL>
-7.46502

>  <SCORE.INTRA.DIHEDRAL.0>
9.41909

>  <SCORE.INTRA.POLAR>
0

>  <SCORE.INTRA.POLAR.0>
0

>  <SCORE.INTRA.REPUL>
0

>  <SCORE.INTRA.REPUL.0>
0

>  <SCORE.INTRA.SOLV>
-0.0872567

>  <SCORE.INTRA.SOLV.lig_0>
-26.2491

>  <SCORE.INTRA.VDW>
-2.03335

>  <SCORE.INTRA.VDW.0>
2.57239

>  <SCORE.INTRA.norm>
-0.19365

>  <SCORE.RESTR>
0

>  <SCORE.RESTR.CAVITY>
0

>  <SCORE.RESTR.norm>
0

>  <SCORE.SYSTEM>
0

>  <SCORE.SYSTEM.CONST>
0

>  <SCORE.SYSTEM.DIHEDRAL>
0

>  <SCORE.SYSTEM.SOLV>
0

>  <SCORE.SYSTEM.norm>
0

>  <SCORE.heavy>
30

>  <SCORE.norm>
-1.32817

>  <RMSD>
2.122

$$$$
lig.pdb
 OpenBabel11021811523D
libRbt.so/2013.1/901 2013/11/27
 30 34  0  0  0  0  0  0  0  0999 V2000
   25.2081   36.8676   20.1737 N   0  0  0  0  0  0  0  0  0  0  0  0
   26.3455   40.1220   23.7264 N   0  0  0  0  0  0  0  0  0  0  0  0
   24.8656   37.2742   18.8074 C   0  0  0  0  0  0  0  0  0  0  0  0
   25.6256   36.2486   17.9799 C   0  0  2  0  0  0  0  0  0  0  0  0
   24.8174   37.6943   21.3100 C   0  0  0  0  0  0  0  0  0  0  0  0
   23.5062   37.7425   21.8258 C   0  0  0  0  0  0  0  0  0  0  0  0
   23.1289   38.5408   22.8767 C   0  0  0  0  0  0  0  0  0  0  0  0
   23.6446   40.2722   24.6001 C   0  0  0  0  0  0  0  0  0  0  0  0
   28.4518   40.7712   24.2409 C   0  0  0  0  0  0  0  0  0  0  0  0
   28.0569   38.8686   22.5247 C   0  0  0  0  0  0  0  0  0  0  0  0
   25.7799   38.5207   21.9558 C   0  0  0  0  0  0  0  0  0  0  0  0
   24.7953   43.2541   26.2260 O   0  0  0  0  0  0  0  0  0  0  0  0
   24.3533   42.1033   26.2467 C   0  0  0  0  0  0  0  0  0  0  0  0
   23.5598   41.6606   27.2144 O   0  0  0  0  0  0  0  0  0  0  0  0
   24.7099   41.1317   25.1788 C   0  0  1  0  0  0  0  0  0  0  0  0
   22.4844   40.2703   25.0255 O   0  0  0  0  0  0  0  0  0  0  0  0
   26.0420   41.0246   24.7430 C   0  0  0  0  0  0  0  0  0  0  0  0
   27.7149   39.9663   23.4694 C   0  0  0  0  0  0  0  0  0  0  0  0
   27.5038   41.7117   25.3171 S   0  0  0  0  0  0  0  0  0  0  0  0
   25.3973   39.3263   23.0522 C   0  0  0  0  0  0  0  0  0  0  0  0
   24.0675   39.3637   23.4991 C   0  0  0  0  0  0  0  0  0  0  0  0
   22.5644   36.9451   21.2829 F   0  0  0  0  0  0  0  0  0  0  0  0
   27.0952   38.5963   21.4716 N   0  0  0  0  0  0  0  0  0  0  0  0
   27.1740   39.4609   20.3136 C   0  0  0  0  0  0  0  0  0  0  0  0
   26.4222   36.0598   20.2019 C   0  0  0  0  0  0  0  0  0  0  0  0
   24.7535   35.5206   17.1142 O   0  0  0  0  0  0  0  0  0  0  0  0
   26.1834   35.2189   18.9591 C   0  0  2  0  0  0  0  0  0  0  0  0
   27.3727   34.5958   18.3476 N   0  0  0  0  0  0  0  0  0  0  0  0
   28.4967   35.5119   18.0818 C   0  0  0  0  0  0  0  0  0  0  0  0
   27.8015   33.3679   19.0348 C   0  0  0  0  0  0  0  0  0  0  0  0
  1  5  1  0  0  0  0
  2 17  1  0  0  0  0
  3  1  1  0  0  0  0
  4  3  1  0  0  0  0
  4 26  1  6  0  0  0
  5 11  2  0  0  0  0
  5  6  1  0  0  0  0
  6  7  2  0  0  0  0
  7 21  1  0  0  0  0
  8 15  1  0  0  0  0
  8 16  2  0  0  0  0
  9 19  1  0  0  0  0
 10 18  1  0  0  0  0
 11 20  1  0  0  0  0
 13 14  1  0  0  0  0
 13 12  2  0  0  0  0
 15 13  1  1  0  0  0
 17 19  2  0  0  0  0
 17 15  1  0  0  0  0
 18  2  1  0  0  0  0
 18  9  2  0  0  0  0
 20 21  2  0  0  0  0
 20  2  1  0  0  0  0
 21  8  1  0  0  0  0
 22  6  1  0  0  0  0
 23 11  1  0  0  0  0
 23 10  1  0  0  0  0
 24 23  1  0  0  0  0
 25  1  1  0  0  0  0
 27  4  1  0  0  0  0
 27 25  1  0  0  0  0
 27 28  1  6  0  0  0
 29 28  1  0  0  0  0
 30 28  1  0  0  0  0
M  END
>  <CHROM.1>
76.63135159,0.51229546,-136.16199405,65.90897588,62.98902779,25.64167378
38.68803916,22.24342417,1.44547159,-0.11238734,-2.29820569

>  <Name>
lig.pdb

>  <RI>
0

>  <Rbt.Current_Directory>
/home/itssahil/PROJECTS/Mol_Feturizer/New_Systems/rnas/6bfb

>  <Rbt.Executable>
rbdock ($Id: //depot/dev/client3/rdock/2013.1/src/exe/rbdock.cxx#4 $)

>  <Rbt.Library>
libRbt.so (2013.1, Build901 2013/11/27)

>  <Rbt.Parameter_File>
/export/apps/rDock/src/rDock_2013.1_src/data/scripts/dock_solv.prm

>  <Rbt.Receptor>
prm/pocket_docking_4.prm

>  <SCORE>
-40.1946

>  <SCORE.INTER>
-34.1243

>  <SCORE.INTER.CONST>
1

>  <SCORE.INTER.POLAR>
-0.848528

>  <SCORE.INTER.ROT>
3

>  <SCORE.INTER.SOLV>
13.3455

>  <SCORE.INTER.VDW>
-29.9696

>  <SCORE.INTER.norm>
-1.13748

>  <SCORE.INTRA>
-6.0703

>  <SCORE.INTRA.DIHEDRAL>
-7.44204

>  <SCORE.INTRA.DIHEDRAL.0>
9.41909

>  <SCORE.INTRA.POLAR>
0

>  <SCORE.INTRA.POLAR.0>
0

>  <SCORE.INTRA.REPUL>
0

>  <SCORE.INTRA.REPUL.0>
0

>  <SCORE.INTRA.SOLV>
-0.121261

>  <SCORE.INTRA.SOLV.lig_0>
-26.2491

>  <SCORE.INTRA.VDW>
-2.28865

>  <SCORE.INTRA.VDW.0>
2.57239

>  <SCORE.INTRA.norm>
-0.202343

>  <SCORE.RESTR>
0

>  <SCORE.RESTR.CAVITY>
0

>  <SCORE.RESTR.norm>
0

>  <SCORE.SYSTEM>
0

>  <SCORE.SYSTEM.CONST>
0

>  <SCORE.SYSTEM.DIHEDRAL>
0

>  <SCORE.SYSTEM.SOLV>
0

>  <SCORE.SYSTEM.norm>
0

>  <SCORE.heavy>
30

>  <SCORE.norm>
-1.33982

>  <RMSD>
2.123

$$$$
lig.pdb
 OpenBabel11021811523D
libRbt.so/2013.1/901 2013/11/27
 30 34  0  0  0  0  0  0  0  0999 V2000
   24.1870   37.6297   20.6943 N   0  0  0  0  0  0  0  0  0  0  0  0
   27.0572   40.7641   23.2330 N   0  0  0  0  0  0  0  0  0  0  0  0
   25.3080   36.9351   20.0537 C   0  0  0  0  0  0  0  0  0  0  0  0
   24.5873   36.0349   19.0614 C   0  0  2  0  0  0  0  0  0  0  0  0
   24.4148   38.4897   21.8502 C   0  0  0  0  0  0  0  0  0  0  0  0
   23.4802   38.6606   22.8919 C   0  0  0  0  0  0  0  0  0  0  0  0
   23.6794   39.4908   23.9666 C   0  0  0  0  0  0  0  0  0  0  0  0
   25.0524   41.1667   25.2077 C   0  0  0  0  0  0  0  0  0  0  0  0
   29.2180   41.2133   22.7314 C   0  0  0  0  0  0  0  0  0  0  0  0
   27.9416   39.3557   21.4502 C   0  0  0  0  0  0  0  0  0  0  0  0
   25.6296   39.2224   21.9663 C   0  0  0  0  0  0  0  0  0  0  0  0
   27.3139   43.8892   26.0983 O   0  0  0  0  0  0  0  0  0  0  0  0
   26.5714   42.9238   26.2902 C   0  0  0  0  0  0  0  0  0  0  0  0
   25.9635   42.7102   27.4507 O   0  0  0  0  0  0  0  0  0  0  0  0
   26.3317   41.9228   25.2168 C   0  0  1  0  0  0  0  0  0  0  0  0
   24.2080   41.2736   26.1035 O   0  0  0  0  0  0  0  0  0  0  0  0
   27.3156   41.6913   24.2398 C   0  0  0  0  0  0  0  0  0  0  0  0
   28.1499   40.4808   22.4016 C   0  0  0  0  0  0  0  0  0  0  0  0
   28.9318   42.2386   24.0760 S   0  0  0  0  0  0  0  0  0  0  0  0
   25.8450   40.0605   23.0838 C   0  0  0  0  0  0  0  0  0  0  0  0
   24.8622   40.2223   24.0725 C   0  0  0  0  0  0  0  0  0  0  0  0
   22.3321   37.9547   22.8575 F   0  0  0  0  0  0  0  0  0  0  0  0
   26.5922   39.1744   20.9459 N   0  0  0  0  0  0  0  0  0  0  0  0
   26.2185   40.0276   19.8382 C   0  0  0  0  0  0  0  0  0  0  0  0
   22.9377   36.8962   20.5259 C   0  0  0  0  0  0  0  0  0  0  0  0
   25.0259   36.2705   17.7227 O   0  0  0  0  0  0  0  0  0  0  0  0
   23.1158   36.4402   19.0875 C   0  0  2  0  0  0  0  0  0  0  0  0
   22.3091   35.2814   18.6596 N   0  0  0  0  0  0  0  0  0  0  0  0
   20.8830   35.3367   19.0290 C   0  0  0  0  0  0  0  0  0  0  0  0
   22.5081   34.9273   17.2458 C   0  0  0  0  0  0  0  0  0  0  0  0
  1  5  1  0  0  0  0
  2 17  1  0  0  0  0
  3  1  1  0  0  0  0
  4  3  1  0  0  0  0
  4 26  1  6  0  0  0
  5 11  2  0  0  0  0
  5  6  1  0  0  0  0
  6  7  2  0  0  0  0
  7 21  1  0  0  0  0
  8 15  1  0  0  0  0
  8 16  2  0  0  0  0
  9 19  1  0  0  0  0
 10 18  1  0  0  0  0
 11 20  1  0  0  0  0
 13 14  1  0  0  0  0
 13 12  2  0  0  0  0
 15 13  1  1  0  0  0
 17 19  2  0  0  0  0
 17 15  1  0  0  0  0
 18  2  1  0  0  0  0
 18  9  2  0  0  0  0
 20 21  2  0  0  0  0
 20  2  1  0  0  0  0
 21  8  1  0  0  0  0
 22  6  1  0  0  0  0
 23 11  1  0  0  0  0
 23 10  1  0  0  0  0
 24 23  1  0  0  0  0
 25  1  1  0  0  0  0
 27  4  1  0  0  0  0
 27 25  1  0  0  0  0
 27 28  1  1  0  0  0
 29 28  1  0  0  0  0
 30 28  1  0  0  0  0
M  END
>  <CHROM.1>
-147.66718760,-0.88014365,-152.69244665,-64.52208351,161.19991677,25.35809680
39.37578667,22.31517418,2.03285723,-0.39975645,-2.15829358

>  <Name>
lig.pdb

>  <RI>
0

>  <Rbt.Current_Directory>
/home/itssahil/PROJECTS/Mol_Feturizer/New_Systems/rnas/6bfb

>  <Rbt.Executable>
rbdock ($Id: //depot/dev/client3/rdock/2013.1/src/exe/rbdock.cxx#4 $)

>  <Rbt.Library>
libRbt.so (2013.1, Build901 2013/11/27)

>  <Rbt.Parameter_File>
/export/apps/rDock/src/rDock_2013.1_src/data/scripts/dock_solv.prm

>  <Rbt.Receptor>
prm/pocket_docking_5.prm

>  <SCORE>
-38.1814

>  <SCORE.INTER>
-36.3572

>  <SCORE.INTER.CONST>
1

>  <SCORE.INTER.POLAR>
-0.562368

>  <SCORE.INTER.ROT>
3

>  <SCORE.INTER.SOLV>
14.1818

>  <SCORE.INTER.VDW>
-32.6908

>  <SCORE.INTER.norm>
-1.21191

>  <SCORE.INTRA>
-1.82425

>  <SCORE.INTRA.DIHEDRAL>
-7.3571

>  <SCORE.INTRA.DIHEDRAL.0>
9.41909

>  <SCORE.INTRA.POLAR>
0

>  <SCORE.INTRA.POLAR.0>
0

>  <SCORE.INTRA.REPUL>
0

>  <SCORE.INTRA.REPUL.0>
0

>  <SCORE.INTRA.SOLV>
0.0594153

>  <SCORE.INTRA.SOLV.lig_0>
-26.2491

>  <SCORE.INTRA.VDW>
1.8246

>  <SCORE.INTRA.VDW.0>
2.57239

>  <SCORE.INTRA.norm>
-0.0608083

>  <SCORE.RESTR>
0

>  <SCORE.RESTR.CAVITY>
0

>  <SCORE.RESTR.norm>
0

>  <SCORE.SYSTEM>
0

>  <SCORE.SYSTEM.CONST>
0

>  <SCORE.SYSTEM.DIHEDRAL>
0

>  <SCORE.SYSTEM.SOLV>
0

>  <SCORE.SYSTEM.norm>
0

>  <SCORE.heavy>
30

>  <SCORE.norm>
-1.27271

>  <RMSD>
2.131

$$$$
lig.pdb
 OpenBabel11021811523D
libRbt.so/2013.1/901 2013/11/27
 30 34  0  0  0  0  0  0  0  0999 V2000
   25.2115   36.8541   20.1655 N   0  0  0  0  0  0  0  0  0  0  0  0
   26.3262   40.0888   23.7434 N   0  0  0  0  0  0  0  0  0  0  0  0
   24.8726   37.2678   18.8003 C   0  0  0  0  0  0  0  0  0  0  0  0
   25.6389   36.2494   17.9696 C   0  0  2  0  0  0  0  0  0  0  0  0
   24.8140   37.6729   21.3052 C   0  0  0  0  0  0  0  0  0  0  0  0
   23.5004   37.7151   21.8155 C   0  0  0  0  0  0  0  0  0  0  0  0
   23.1168   38.5059   22.8697 C   0  0  0  0  0  0  0  0  0  0  0  0
   23.6212   40.2277   24.6061 C   0  0  0  0  0  0  0  0  0  0  0  0
   28.4288   40.7393   24.2712 C   0  0  0  0  0  0  0  0  0  0  0  0
   28.0456   38.8466   22.5414 C   0  0  0  0  0  0  0  0  0  0  0  0
   25.7718   38.4973   21.9603 C   0  0  0  0  0  0  0  0  0  0  0  0
   24.7977   43.1859   26.2833 O   0  0  0  0  0  0  0  0  0  0  0  0
   24.3186   42.0500   26.2672 C   0  0  0  0  0  0  0  0  0  0  0  0
   23.4771   41.6168   27.1980 O   0  0  0  0  0  0  0  0  0  0  0  0
   24.6820   41.0859   25.1949 C   0  0  1  0  0  0  0  0  0  0  0  0
   22.4591   40.2206   25.0264 O   0  0  0  0  0  0  0  0  0  0  0  0
   26.0163   40.9843   24.7642 C   0  0  0  0  0  0  0  0  0  0  0  0
   27.6970   39.9376   23.4914 C   0  0  0  0  0  0  0  0  0  0  0  0
   27.4740   41.6709   25.3490 S   0  0  0  0  0  0  0  0  0  0  0  0
   25.3827   39.2952   23.0601 C   0  0  0  0  0  0  0  0  0  0  0  0
   24.0508   39.3269   23.5013 C   0  0  0  0  0  0  0  0  0  0  0  0
   22.5628   36.9190   21.2636 F   0  0  0  0  0  0  0  0  0  0  0  0
   27.0891   38.5788   21.4824 N   0  0  0  0  0  0  0  0  0  0  0  0
   27.1710   39.4508   20.3302 C   0  0  0  0  0  0  0  0  0  0  0  0
   26.4280   36.0501   20.1934 C   0  0  0  0  0  0  0  0  0  0  0  0
   24.7723   35.5238   17.0965 O   0  0  0  0  0  0  0  0  0  0  0  0
   26.1965   35.2158   18.9448 C   0  0  2  0  0  0  0  0  0  0  0  0
   27.3899   34.6000   18.3339 N   0  0  0  0  0  0  0  0  0  0  0  0
   28.5182   35.5179   18.0935 C   0  0  0  0  0  0  0  0  0  0  0  0
   27.8099   33.3601   19.0048 C   0  0  0  0  0  0  0  0  0  0  0  0
  1  5  1  0  0  0  0
  2 17  1  0  0  0  0
  3  1  1  0  0  0  0
  4  3  1  0  0  0  0
  4 26  1  6  0  0  0
  5 11  2  0  0  0  0
  5  6  1  0  0  0  0
  6  7  2  0  0  0  0
  7 21  1  0  0  0  0
  8 15  1  0  0  0  0
  8 16  2  0  0  0  0
  9 19  1  0  0  0  0
 10 18  1  0  0  0  0
 11 20  1  0  0  0  0
 13 14  1  0  0  0  0
 13 12  2  0  0  0  0
 15 13  1  1  0  0  0
 17 19  2  0  0  0  0
 17 15  1  0  0  0  0
 18  2  1  0  0  0  0
 18  9  2  0  0  0  0
 20 21  2  0  0  0  0
 20  2  1  0  0  0  0
 21  8  1  0  0  0  0
 22  6  1  0  0  0  0
 23 11  1  0  0  0  0
 23 10  1  0  0  0  0
 24 23  1  0  0  0  0
 25  1  1  0  0  0  0
 27  4  1  0  0  0  0
 27 25  1  0  0  0  0
 27 28  1  6  0  0  0
 29 28  1  0  0  0  0
 30 28  1  0  0  0  0
M  END
>  <CHROM.1>
76.55629309,1.95325400,-138.91118212,66.34426761,63.73467922,25.63156497
38.66240072,22.24825266,1.44065287,-0.11114321,-2.29278991

>  <Name>
lig.pdb

>  <RI>
0

>  <Rbt.Current_Directory>
/home/itssahil/PROJECTS/Mol_Feturizer/New_Systems/rnas/6bfb

>  <Rbt.Executable>
rbdock ($Id: //depot/dev/client3/rdock/2013.1/src/exe/rbdock.cxx#4 $)

>  <Rbt.Library>
libRbt.so (2013.1, Build901 2013/11/27)

>  <Rbt.Parameter_File>
/export/apps/rDock/src/rDock_2013.1_src/data/scripts/dock_solv.prm

>  <Rbt.Receptor>
prm/blind_docking_100.prm

>  <SCORE>
-40.2079

>  <SCORE.INTER>
-34.2045

>  <SCORE.INTER.CONST>
1

>  <SCORE.INTER.POLAR>
-0.848528

>  <SCORE.INTER.ROT>
3

>  <SCORE.INTER.SOLV>
13.5001

>  <SCORE.INTER.VDW>
-30.0746

>  <SCORE.INTER.norm>
-1.14015

>  <SCORE.INTRA>
-6.00331

>  <SCORE.INTRA.DIHEDRAL>
-7.37933

>  <SCORE.INTRA.DIHEDRAL.0>
9.41909

>  <SCORE.INTRA.POLAR>
0

>  <SCORE.INTRA.POLAR.0>
0

>  <SCORE.INTRA.REPUL>
0

>  <SCORE.INTRA.REPUL.0>
0

>  <SCORE.INTRA.SOLV>
-0.114056

>  <SCORE.INTRA.SOLV.lig_0>
-26.2491

>  <SCORE.INTRA.VDW>
-2.25662

>  <SCORE.INTRA.VDW.0>
2.57239

>  <SCORE.INTRA.norm>
-0.20011

>  <SCORE.RESTR>
0

>  <SCORE.RESTR.CAVITY>
0

>  <SCORE.RESTR.norm>
0

>  <SCORE.SYSTEM>
0

>  <SCORE.SYSTEM.CONST>
0

>  <SCORE.SYSTEM.DIHEDRAL>
0

>  <SCORE.SYSTEM.SOLV>
0

>  <SCORE.SYSTEM.norm>
0

>  <SCORE.heavy>
30

>  <SCORE.norm>
-1.34026

>  <RMSD>
2.139

$$$$
lig.pdb
 OpenBabel11021811523D
libRbt.so/2013.1/901 2013/11/27
 30 34  0  0  0  0  0  0  0  0999 V2000
   26.7790   37.3869   20.0051 N   0  0  0  0  0  0  0  0  0  0  0  0
   25.9116   40.2888   23.9210 N   0  0  0  0  0  0  0  0  0  0  0  0
   28.0782   36.8014   20.3499 C   0  0  0  0  0  0  0  0  0  0  0  0
   28.5469   36.2739   19.0022 C   0  0  2  0  0  0  0  0  0  0  0  0
   25.8872   37.8733   21.0518 C   0  0  0  0  0  0  0  0  0  0  0  0
   24.5606   37.4252   21.2171 C   0  0  0  0  0  0  0  0  0  0  0  0
   23.7097   37.9013   22.1830 C   0  0  0  0  0  0  0  0  0  0  0  0
   23.2032   39.4406   24.0825 C   0  0  0  0  0  0  0  0  0  0  0  0
   27.4960   41.4963   24.9952 C   0  0  0  0  0  0  0  0  0  0  0  0
   28.1701   39.8345   23.1231 C   0  0  0  0  0  0  0  0  0  0  0  0
   26.3379   38.8623   21.9709 C   0  0  0  0  0  0  0  0  0  0  0  0
   21.8361   41.7403   25.6061 O   0  0  0  0  0  0  0  0  0  0  0  0
   22.8554   41.1458   25.9635 C   0  0  0  0  0  0  0  0  0  0  0  0
   23.2213   41.0577   27.2364 O   0  0  0  0  0  0  0  0  0  0  0  0
   23.7511   40.5031   24.9654 C   0  0  1  0  0  0  0  0  0  0  0  0
   22.0518   39.0068   24.1963 O   0  0  0  0  0  0  0  0  0  0  0  0
   25.0994   40.8912   24.8789 C   0  0  0  0  0  0  0  0  0  0  0  0
   27.2713   40.6176   24.0136 C   0  0  0  0  0  0  0  0  0  0  0  0
   26.0696   41.9196   25.8482 S   0  0  0  0  0  0  0  0  0  0  0  0
   25.4695   39.3371   22.9799 C   0  0  0  0  0  0  0  0  0  0  0  0
   24.1450   38.8828   23.0733 C   0  0  0  0  0  0  0  0  0  0  0  0
   24.0961   36.4551   20.4042 F   0  0  0  0  0  0  0  0  0  0  0  0
   27.6185   39.4231   21.8446 N   0  0  0  0  0  0  0  0  0  0  0  0
   27.6467   40.4242   20.7998 C   0  0  0  0  0  0  0  0  0  0  0  0
   26.2601   36.8380   18.7574 C   0  0  0  0  0  0  0  0  0  0  0  0
   29.8088   36.8296   18.6298 O   0  0  0  0  0  0  0  0  0  0  0  0
   27.5527   36.7813   17.9608 C   0  0  2  0  0  0  0  0  0  0  0  0
   27.5768   35.8584   16.8100 N   0  0  0  0  0  0  0  0  0  0  0  0
   26.4080   35.9381   15.9150 C   0  0  0  0  0  0  0  0  0  0  0  0
   28.8494   35.8846   16.0728 C   0  0  0  0  0  0  0  0  0  0  0  0
  1  5  1  0  0  0  0
  2 17  1  0  0  0  0
  3  1  1  0  0  0  0
  4  3  1  0  0  0  0
  4 26  1  6  0  0  0
  5 11  2  0  0  0  0
  5  6  1  0  0  0  0
  6  7  2  0  0  0  0
  7 21  1  0  0  0  0
  8 15  1  0  0  0  0
  8 16  2  0  0  0  0
  9 19  1  0  0  0  0
 10 18  1  0  0  0  0
 11 20  1  0  0  0  0
 13 14  1  0  0  0  0
 13 12  2  0  0  0  0
 15 13  1  1  0  0  0
 17 19  2  0  0  0  0
 17 15  1  0  0  0  0
 18  2  1  0  0  0  0
 18  9  2  0  0  0  0
 20 21  2  0  0  0  0
 20  2  1  0  0  0  0
 21  8  1  0  0  0  0
 22  6  1  0  0  0  0
 23 11  1  0  0  0  0
 23 10  1  0  0  0  0
 24 23  1  0  0  0  0
 25  1  1  0  0  0  0
 27  4  1  0  0  0  0
 27 25  1  0  0  0  0
 27 28  1  6  0  0  0
 29 28  1  0  0  0  0
 30 28  1  0  0  0  0
M  END
>  <CHROM.1>
-123.74640741,-177.17066868,-59.52935096,62.05688667,161.55036386,25.88539192
38.85722489,22.03294714,1.18073162,-0.23246850,-2.20578921

>  <Name>
lig.pdb

>  <RI>
0

>  <Rbt.Current_Directory>
/home/itssahil/PROJECTS/Mol_Feturizer/New_Systems/rnas/6bfb

>  <Rbt.Executable>
rbdock ($Id: //depot/dev/client3/rdock/2013.1/src/exe/rbdock.cxx#4 $)

>  <Rbt.Library>
libRbt.so (2013.1, Build901 2013/11/27)

>  <Rbt.Parameter_File>
/export/apps/rDock/src/rDock_2013.1_src/data/scripts/dock_solv.prm

>  <Rbt.Receptor>
prm/pocket_docking_5.prm

>  <SCORE>
-38.9685

>  <SCORE.INTER>
-34.2506

>  <SCORE.INTER.CONST>
1

>  <SCORE.INTER.POLAR>
-1.73311

>  <SCORE.INTER.ROT>
3

>  <SCORE.INTER.SOLV>
13.2023

>  <SCORE.INTER.VDW>
-27.0575

>  <SCORE.INTER.norm>
-1.14169

>  <SCORE.INTRA>
-4.71783

>  <SCORE.INTRA.DIHEDRAL>
-7.43633

>  <SCORE.INTRA.DIHEDRAL.0>
9.41909

>  <SCORE.INTRA.POLAR>
0

>  <SCORE.INTRA.POLAR.0>
0

>  <SCORE.INTRA.REPUL>
0.0209359

>  <SCORE.INTRA.REPUL.0>
0

>  <SCORE.INTRA.SOLV>
-0.219303

>  <SCORE.INTRA.SOLV.lig_0>
-26.2491

>  <SCORE.INTRA.VDW>
-0.994699

>  <SCORE.INTRA.VDW.0>
2.57239

>  <SCORE.INTRA.norm>
-0.157261

>  <SCORE.RESTR>
0

>  <SCORE.RESTR.CAVITY>
0

>  <SCORE.RESTR.norm>
0

>  <SCORE.SYSTEM>
0

>  <SCORE.SYSTEM.CONST>
0

>  <SCORE.SYSTEM.DIHEDRAL>
0

>  <SCORE.SYSTEM.SOLV>
0

>  <SCORE.SYSTEM.norm>
0

>  <SCORE.heavy>
30

>  <SCORE.norm>
-1.29895

>  <RMSD>
2.148

$$$$
lig.pdb
 OpenBabel11021811523D
libRbt.so/2013.1/901 2013/11/27
 30 34  0  0  0  0  0  0  0  0999 V2000
   24.4768   37.0933   21.0189 N   0  0  0  0  0  0  0  0  0  0  0  0
   26.8889   40.6672   23.4512 N   0  0  0  0  0  0  0  0  0  0  0  0
   23.4469   37.1020   19.9755 C   0  0  0  0  0  0  0  0  0  0  0  0
   23.9210   35.9802   19.0638 C   0  0  2  0  0  0  0  0  0  0  0  0
   24.5074   38.1393   22.0350 C   0  0  0  0  0  0  0  0  0  0  0  0
   23.4072   38.4631   22.8550 C   0  0  0  0  0  0  0  0  0  0  0  0
   23.4236   39.4656   23.7923 C   0  0  0  0  0  0  0  0  0  0  0  0
   24.5744   41.3537   24.9519 C   0  0  0  0  0  0  0  0  0  0  0  0
   29.1081   41.0704   23.2631 C   0  0  0  0  0  0  0  0  0  0  0  0
   28.0577   38.9984   22.1120 C   0  0  0  0  0  0  0  0  0  0  0  0
   25.6900   38.9060   22.2346 C   0  0  0  0  0  0  0  0  0  0  0  0
   26.9783   43.7208   26.3855 O   0  0  0  0  0  0  0  0  0  0  0  0
   25.8974   43.2982   25.9693 C   0  0  0  0  0  0  0  0  0  0  0  0
   24.7369   43.8405   26.3175 O   0  0  0  0  0  0  0  0  0  0  0  0
   25.8393   42.1268   25.0550 C   0  0  1  0  0  0  0  0  0  0  0  0
   23.5878   41.5918   25.6569 O   0  0  0  0  0  0  0  0  0  0  0  0
   26.9763   41.7552   24.3165 C   0  0  0  0  0  0  0  0  0  0  0  0
   28.1072   40.2711   22.8815 C   0  0  0  0  0  0  0  0  0  0  0  0
   28.6012   42.3004   24.3453 S   0  0  0  0  0  0  0  0  0  0  0  0
   25.7149   39.9238   23.2149 C   0  0  0  0  0  0  0  0  0  0  0  0
   24.5764   40.2287   23.9767 C   0  0  0  0  0  0  0  0  0  0  0  0
   22.2763   37.7379   22.7417 F   0  0  0  0  0  0  0  0  0  0  0  0
   26.8152   38.7074   21.4194 N   0  0  0  0  0  0  0  0  0  0  0  0
   26.6480   39.3551   20.1358 C   0  0  0  0  0  0  0  0  0  0  0  0
   25.6989   36.4444   20.5576 C   0  0  0  0  0  0  0  0  0  0  0  0
   22.9212   34.9726   18.9061 O   0  0  0  0  0  0  0  0  0  0  0  0
   25.0838   35.2950   19.7770 C   0  0  2  0  0  0  0  0  0  0  0  0
   25.9404   34.6581   18.7586 N   0  0  0  0  0  0  0  0  0  0  0  0
   27.3369   34.4231   19.1686 C   0  0  0  0  0  0  0  0  0  0  0  0
   25.3281   33.4678   18.1486 C   0  0  0  0  0  0  0  0  0  0  0  0
  1  5  1  0  0  0  0
  2 17  1  0  0  0  0
  3  1  1  0  0  0  0
  4  3  1  0  0  0  0
  4 26  1  1  0  0  0
  5 11  2  0  0  0  0
  5  6  1  0  0  0  0
  6  7  2  0  0  0  0
  7 21  1  0  0  0  0
  8 15  1  0  0  0  0
  8 16  2  0  0  0  0
  9 19  1  0  0  0  0
 10 18  1  0  0  0  0
 11 20  1  0  0  0  0
 13 14  1  0  0  0  0
 13 12  2  0  0  0  0
 15 13  1  1  0  0  0
 17 19  2  0  0  0  0
 17 15  1  0  0  0  0
 18  2  1  0  0  0  0
 18  9  2  0  0  0  0
 20 21  2  0  0  0  0
 20  2  1  0  0  0  0
 21  8  1  0  0  0  0
 22  6  1  0  0  0  0
 23 11  1  0  0  0  0
 23 10  1  0  0  0  0
 24 23  1  0  0  0  0
 25  1  1  0  0  0  0
 27  4  1  0  0  0  0
 27 25  1  0  0  0  0
 27 28  1  6  0  0  0
 29 28  1  0  0  0  0
 30 28  1  0  0  0  0
M  END
>  <CHROM.1>
54.62596041,1.69085848,158.63599161,-56.90275945,156.78500717,25.62450798
39.13400837,22.46957670,1.74167135,-0.20535470,-2.42457812

>  <Name>
lig.pdb

>  <RI>
0

>  <Rbt.Current_Directory>
/home/itssahil/PROJECTS/Mol_Feturizer/New_Systems/rnas/6bfb

>  <Rbt.Executable>
rbdock ($Id: //depot/dev/client3/rdock/2013.1/src/exe/rbdock.cxx#4 $)

>  <Rbt.Library>
libRbt.so (2013.1, Build901 2013/11/27)

>  <Rbt.Parameter_File>
/export/apps/rDock/src/rDock_2013.1_src/data/scripts/dock_solv.prm

>  <Rbt.Receptor>
prm/pocket_docking_6.prm

>  <SCORE>
-36.7793

>  <SCORE.INTER>
-34.4806

>  <SCORE.INTER.CONST>
1

>  <SCORE.INTER.POLAR>
-0.935092

>  <SCORE.INTER.ROT>
3

>  <SCORE.INTER.SOLV>
12.2494

>  <SCORE.INTER.VDW>
-29.5532

>  <SCORE.INTER.norm>
-1.14935

>  <SCORE.INTRA>
-2.29871

>  <SCORE.INTRA.DIHEDRAL>
-7.24842

>  <SCORE.INTRA.DIHEDRAL.0>
9.41909

>  <SCORE.INTRA.POLAR>
0

>  <SCORE.INTRA.POLAR.0>
0

>  <SCORE.INTRA.REPUL>
0

>  <SCORE.INTRA.REPUL.0>
0

>  <SCORE.INTRA.SOLV>
0.0752121

>  <SCORE.INTRA.SOLV.lig_0>
-26.2491

>  <SCORE.INTRA.VDW>
1.28789

>  <SCORE.INTRA.VDW.0>
2.57239

>  <SCORE.INTRA.norm>
-0.0766238

>  <SCORE.RESTR>
0

>  <SCORE.RESTR.CAVITY>
0

>  <SCORE.RESTR.norm>
0

>  <SCORE.SYSTEM>
0

>  <SCORE.SYSTEM.CONST>
0

>  <SCORE.SYSTEM.DIHEDRAL>
0

>  <SCORE.SYSTEM.SOLV>
0

>  <SCORE.SYSTEM.norm>
0

>  <SCORE.heavy>
30

>  <SCORE.norm>
-1.22598

>  <RMSD>
2.153

$$$$
lig.pdb
 OpenBabel11021811523D
libRbt.so/2013.1/901 2013/11/27
 30 34  0  0  0  0  0  0  0  0999 V2000
   25.1947   36.8377   20.1567 N   0  0  0  0  0  0  0  0  0  0  0  0
   26.2652   40.0847   23.7369 N   0  0  0  0  0  0  0  0  0  0  0  0
   24.8706   37.2503   18.7877 C   0  0  0  0  0  0  0  0  0  0  0  0
   25.6467   36.2320   17.9661 C   0  0  2  0  0  0  0  0  0  0  0  0
   24.7842   37.6568   21.2916 C   0  0  0  0  0  0  0  0  0  0  0  0
   23.4664   37.6937   21.7912 C   0  0  0  0  0  0  0  0  0  0  0  0
   23.0705   38.4847   22.8408 C   0  0  0  0  0  0  0  0  0  0  0  0
   23.5527   40.2124   24.5776 C   0  0  0  0  0  0  0  0  0  0  0  0
   28.3603   40.7464   24.2803 C   0  0  0  0  0  0  0  0  0  0  0  0
   28.0001   38.8485   22.5513 C   0  0  0  0  0  0  0  0  0  0  0  0
   25.7328   38.4871   21.9527 C   0  0  0  0  0  0  0  0  0  0  0  0
   24.6644   43.1944   26.2317 O   0  0  0  0  0  0  0  0  0  0  0  0
   24.2280   42.0413   26.2406 C   0  0  0  0  0  0  0  0  0  0  0  0
   23.4231   41.5899   27.1947 O   0  0  0  0  0  0  0  0  0  0  0  0
   24.6046   41.0768   25.1731 C   0  0  1  0  0  0  0  0  0  0  0  0
   22.3874   40.2005   24.9886 O   0  0  0  0  0  0  0  0  0  0  0  0
   25.9428   40.9808   24.7534 C   0  0  0  0  0  0  0  0  0  0  0  0
   27.6387   39.9397   23.4962 C   0  0  0  0  0  0  0  0  0  0  0  0
   27.3924   41.6756   25.3485 S   0  0  0  0  0  0  0  0  0  0  0  0
   25.3310   39.2853   23.0477 C   0  0  0  0  0  0  0  0  0  0  0  0
   23.9955   39.3115   23.4781 C   0  0  0  0  0  0  0  0  0  0  0  0
   22.5370   36.8920   21.2334 F   0  0  0  0  0  0  0  0  0  0  0  0
   27.0535   38.5739   21.4852 N   0  0  0  0  0  0  0  0  0  0  0  0
   27.1404   39.4440   20.3319 C   0  0  0  0  0  0  0  0  0  0  0  0
   26.4115   36.0345   20.1985 C   0  0  0  0  0  0  0  0  0  0  0  0
   24.7902   35.5053   17.0838 O   0  0  0  0  0  0  0  0  0  0  0  0
   26.1942   35.1993   18.9479 C   0  0  2  0  0  0  0  0  0  0  0  0
   27.3947   34.5841   18.3505 N   0  0  0  0  0  0  0  0  0  0  0  0
   28.5201   35.5053   18.1093 C   0  0  0  0  0  0  0  0  0  0  0  0
   27.8163   33.3523   19.0353 C   0  0  0  0  0  0  0  0  0  0  0  0
  1  5  1  0  0  0  0
  2 17  1  0  0  0  0
  3  1  1  0  0  0  0
  4  3  1  0  0  0  0
  4 26  1  6  0  0  0
  5 11  2  0  0  0  0
  5  6  1  0  0  0  0
  6  7  2  0  0  0  0
  7 21  1  0  0  0  0
  8 15  1  0  0  0  0
  8 16  2  0  0  0  0
  9 19  1  0  0  0  0
 10 18  1  0  0  0  0
 11 20  1  0  0  0  0
 13 14  1  0  0  0  0
 13 12  2  0  0  0  0
 15 13  1  1  0  0  0
 17 19  2  0  0  0  0
 17 15  1  0  0  0  0
 18  2  1  0  0  0  0
 18  9  2  0  0  0  0
 20 21  2  0  0  0  0
 20  2  1  0  0  0  0
 21  8  1  0  0  0  0
 22  6  1  0  0  0  0
 23 11  1  0  0  0  0
 23 10  1  0  0  0  0
 24 23  1  0  0  0  0
 25  1  1  0  0  0  0
 27  4  1  0  0  0  0
 27 25  1  0  0  0  0
 27 28  1  6  0  0  0
 29 28  1  0  0  0  0
 30 28  1  0  0  0  0
M  END
>  <CHROM.1>
76.85818847,0.01521292,-136.32123791,65.08168970,63.13915505,25.58960291
38.65160700,22.23968889,1.43160404,-0.10926898,-2.29582395

>  <Name>
lig.pdb

>  <RI>
0

>  <Rbt.Current_Directory>
/home/itssahil/PROJECTS/Mol_Feturizer/New_Systems/rnas/6bfb

>  <Rbt.Executable>
rbdock ($Id: //depot/dev/client3/rdock/2013.1/src/exe/rbdock.cxx#4 $)

>  <Rbt.Library>
libRbt.so (2013.1, Build901 2013/11/27)

>  <Rbt.Parameter_File>
/export/apps/rDock/src/rDock_2013.1_src/data/scripts/dock_solv.prm

>  <Rbt.Receptor>
prm/pocket_docking_4.prm

>  <SCORE>
-40.1806

>  <SCORE.INTER>
-34.0897

>  <SCORE.INTER.CONST>
1

>  <SCORE.INTER.POLAR>
-0.848528

>  <SCORE.INTER.ROT>
3

>  <SCORE.INTER.SOLV>
13.4966

>  <SCORE.INTER.VDW>
-29.9969

>  <SCORE.INTER.norm>
-1.13632

>  <SCORE.INTRA>
-6.09091

>  <SCORE.INTRA.DIHEDRAL>
-7.48048

>  <SCORE.INTRA.DIHEDRAL.0>
9.41909

>  <SCORE.INTRA.POLAR>
0

>  <SCORE.INTRA.POLAR.0>
0

>  <SCORE.INTRA.REPUL>
0

>  <SCORE.INTRA.REPUL.0>
0

>  <SCORE.INTRA.SOLV>
-0.121504

>  <SCORE.INTRA.SOLV.lig_0>
-26.2491

>  <SCORE.INTRA.VDW>
-2.28992

>  <SCORE.INTRA.VDW.0>
2.57239

>  <SCORE.INTRA.norm>
-0.20303

>  <SCORE.RESTR>
0

>  <SCORE.RESTR.CAVITY>
0

>  <SCORE.RESTR.norm>
0

>  <SCORE.SYSTEM>
0

>  <SCORE.SYSTEM.CONST>
0

>  <SCORE.SYSTEM.DIHEDRAL>
0

>  <SCORE.SYSTEM.SOLV>
0

>  <SCORE.SYSTEM.norm>
0

>  <SCORE.heavy>
30

>  <SCORE.norm>
-1.33935

>  <RMSD>
2.161

$$$$
lig.pdb
 OpenBabel11021811523D
libRbt.so/2013.1/901 2013/11/27
 30 34  0  0  0  0  0  0  0  0999 V2000
   24.5189   36.6450   20.2007 N   0  0  0  0  0  0  0  0  0  0  0  0
   26.4330   39.9402   23.3606 N   0  0  0  0  0  0  0  0  0  0  0  0
   25.6041   35.6594   20.1816 C   0  0  0  0  0  0  0  0  0  0  0  0
   25.2495   34.8330   18.9545 C   0  0  2  0  0  0  0  0  0  0  0  0
   24.3690   37.5565   21.3295 C   0  0  0  0  0  0  0  0  0  0  0  0
   23.1551   37.7509   22.0196 C   0  0  0  0  0  0  0  0  0  0  0  0
   23.0036   38.6288   23.0638 C   0  0  0  0  0  0  0  0  0  0  0  0
   23.9097   40.3825   24.5926 C   0  0  0  0  0  0  0  0  0  0  0  0
   28.6394   40.4129   23.5364 C   0  0  0  0  0  0  0  0  0  0  0  0
   27.8388   38.4780   22.0079 C   0  0  0  0  0  0  0  0  0  0  0  0
   25.4820   38.3184   21.7843 C   0  0  0  0  0  0  0  0  0  0  0  0
   24.3284   42.0226   27.0264 O   0  0  0  0  0  0  0  0  0  0  0  0
   25.0035   42.2138   26.0127 C   0  0  0  0  0  0  0  0  0  0  0  0
   25.6461   43.3533   25.7873 O   0  0  0  0  0  0  0  0  0  0  0  0
   25.1172   41.1647   24.9649 C   0  0  1  0  0  0  0  0  0  0  0  0
   22.8273   40.5088   25.1753 O   0  0  0  0  0  0  0  0  0  0  0  0
   26.3582   40.9134   24.3543 C   0  0  0  0  0  0  0  0  0  0  0  0
   27.7324   39.6455   22.9244 C   0  0  0  0  0  0  0  0  0  0  0  0
   27.9412   41.4867   24.6768 S   0  0  0  0  0  0  0  0  0  0  0  0
   25.3326   39.2062   22.8738 C   0  0  0  0  0  0  0  0  0  0  0  0
   24.0894   39.3883   23.4991 C   0  0  0  0  0  0  0  0  0  0  0  0
   22.0798   37.0206   21.6619 F   0  0  0  0  0  0  0  0  0  0  0  0
   26.7152   38.2481   21.1175 N   0  0  0  0  0  0  0  0  0  0  0  0
   26.6998   39.0470   19.9107 C   0  0  0  0  0  0  0  0  0  0  0  0
   23.3654   36.1841   19.4363 C   0  0  0  0  0  0  0  0  0  0  0  0
   26.3144   34.8210   18.0028 O   0  0  0  0  0  0  0  0  0  0  0  0
   24.0905   35.5464   18.2632 C   0  0  2  0  0  0  0  0  0  0  0  0
   23.3322   34.5491   17.4841 N   0  0  0  0  0  0  0  0  0  0  0  0
   21.9713   34.9590   17.0924 C   0  0  0  0  0  0  0  0  0  0  0  0
   24.0955   33.9923   16.3566 C   0  0  0  0  0  0  0  0  0  0  0  0
  1  5  1  0  0  0  0
  2 17  1  0  0  0  0
  3  1  1  0  0  0  0
  4  3  1  0  0  0  0
  4 26  1  6  0  0  0
  5 11  2  0  0  0  0
  5  6  1  0  0  0  0
  6  7  2  0  0  0  0
  7 21  1  0  0  0  0
  8 15  1  0  0  0  0
  8 16  2  0  0  0  0
  9 19  1  0  0  0  0
 10 18  1  0  0  0  0
 11 20  1  0  0  0  0
 13 14  1  0  0  0  0
 13 12  2  0  0  0  0
 15 13  1  1  0  0  0
 17 19  2  0  0  0  0
 17 15  1  0  0  0  0
 18  2  1  0  0  0  0
 18  9  2  0  0  0  0
 20 21  2  0  0  0  0
 20  2  1  0  0  0  0
 21  8  1  0  0  0  0
 22  6  1  0  0  0  0
 23 11  1  0  0  0  0
 23 10  1  0  0  0  0
 24 23  1  0  0  0  0
 25  1  1  0  0  0  0
 27  4  1  0  0  0  0
 27 25  1  0  0  0  0
 27 28  1  1  0  0  0
 29 28  1  0  0  0  0
 30 28  1  0  0  0  0
M  END
>  <CHROM.1>
-129.43061636,1.18444676,40.72321208,-57.70289511,162.13126513,25.11995469
38.52148107,21.98933699,1.76003223,-0.17252939,-2.27898226

>  <Name>
lig.pdb

>  <RI>
0

>  <Rbt.Current_Directory>
/home/itssahil/PROJECTS/Mol_Feturizer/New_Systems/rnas/6bfb

>  <Rbt.Executable>
rbdock ($Id: //depot/dev/client3/rdock/2013.1/src/exe/rbdock.cxx#4 $)

>  <Rbt.Library>
libRbt.so (2013.1, Build901 2013/11/27)

>  <Rbt.Parameter_File>
/export/apps/rDock/src/rDock_2013.1_src/data/scripts/dock_solv.prm

>  <Rbt.Receptor>
prm/blind_docking_100.prm

>  <SCORE>
-34.4427

>  <SCORE.INTER>
-30.2756

>  <SCORE.INTER.CONST>
1

>  <SCORE.INTER.POLAR>
0

>  <SCORE.INTER.ROT>
3

>  <SCORE.INTER.SOLV>
13.649

>  <SCORE.INTER.VDW>
-30.3334

>  <SCORE.INTER.norm>
-1.00919

>  <SCORE.INTRA>
-4.18401

>  <SCORE.INTRA.DIHEDRAL>
-7.49774

>  <SCORE.INTRA.DIHEDRAL.0>
9.41909

>  <SCORE.INTRA.POLAR>
0

>  <SCORE.INTRA.POLAR.0>
0

>  <SCORE.INTRA.REPUL>
0.00608252

>  <SCORE.INTRA.REPUL.0>
0

>  <SCORE.INTRA.SOLV>
-0.0753142

>  <SCORE.INTRA.SOLV.lig_0>
-26.2491

>  <SCORE.INTRA.VDW>
-0.427897

>  <SCORE.INTRA.VDW.0>
2.57239

>  <SCORE.INTRA.norm>
-0.139467

>  <SCORE.RESTR>
0.0169108

>  <SCORE.RESTR.CAVITY>
0.0169108

>  <SCORE.RESTR.norm>
0.000563695

>  <SCORE.SYSTEM>
0

>  <SCORE.SYSTEM.CONST>
0

>  <SCORE.SYSTEM.DIHEDRAL>
0

>  <SCORE.SYSTEM.SOLV>
0

>  <SCORE.SYSTEM.norm>
0

>  <SCORE.heavy>
30

>  <SCORE.norm>
-1.14809

>  <RMSD>
2.183

$$$$
lig.pdb
 OpenBabel11021811523D
libRbt.so/2013.1/901 2013/11/27
 30 34  0  0  0  0  0  0  0  0999 V2000
   27.3994   39.7404   20.9022 N   0  0  0  0  0  0  0  0  0  0  0  0
   26.6336   42.2183   25.1189 N   0  0  0  0  0  0  0  0  0  0  0  0
   28.4779   38.7578   21.0462 C   0  0  0  0  0  0  0  0  0  0  0  0
   28.9375   38.5900   19.6057 C   0  0  2  0  0  0  0  0  0  0  0  0
   26.5514   40.0781   22.0399 C   0  0  0  0  0  0  0  0  0  0  0  0
   25.2622   39.5429   22.2383 C   0  0  0  0  0  0  0  0  0  0  0  0
   24.4505   39.8802   23.2925 C   0  0  0  0  0  0  0  0  0  0  0  0
   23.9870   41.2082   25.3553 C   0  0  0  0  0  0  0  0  0  0  0  0
   28.2192   43.4095   26.2096 C   0  0  0  0  0  0  0  0  0  0  0  0
   28.8577   41.9665   24.1526 C   0  0  0  0  0  0  0  0  0  0  0  0
   27.0084   41.0025   23.0211 C   0  0  0  0  0  0  0  0  0  0  0  0
   22.6231   42.1329   27.6973 O   0  0  0  0  0  0  0  0  0  0  0  0
   23.6720   42.7119   27.4063 C   0  0  0  0  0  0  0  0  0  0  0  0
   24.0824   43.8057   28.0366 O   0  0  0  0  0  0  0  0  0  0  0  0
   24.5347   42.2145   26.3018 C   0  0  1  0  0  0  0  0  0  0  0  0
   22.8683   40.7019   25.4937 O   0  0  0  0  0  0  0  0  0  0  0  0
   25.8536   42.6840   26.1749 C   0  0  0  0  0  0  0  0  0  0  0  0
   27.9781   42.6131   25.1637 C   0  0  0  0  0  0  0  0  0  0  0  0
   26.8295   43.6722   27.1796 S   0  0  0  0  0  0  0  0  0  0  0  0
   26.1820   41.3335   24.1189 C   0  0  0  0  0  0  0  0  0  0  0  0
   24.8906   40.7989   24.2451 C   0  0  0  0  0  0  0  0  0  0  0  0
   24.7973   38.6268   21.3653 F   0  0  0  0  0  0  0  0  0  0  0  0
   28.2485   41.6435   22.8749 N   0  0  0  0  0  0  0  0  0  0  0  0
   28.1606   42.7361   21.9297 C   0  0  0  0  0  0  0  0  0  0  0  0
   26.8904   39.7784   19.5359 C   0  0  0  0  0  0  0  0  0  0  0  0
   30.3268   38.8869   19.4588 O   0  0  0  0  0  0  0  0  0  0  0  0
   28.2039   39.6466   18.7836 C   0  0  2  0  0  0  0  0  0  0  0  0
   28.1192   39.1715   17.3895 N   0  0  0  0  0  0  0  0  0  0  0  0
   29.3654   39.2832   16.6098 C   0  0  0  0  0  0  0  0  0  0  0  0
   27.4990   37.8433   17.2666 C   0  0  0  0  0  0  0  0  0  0  0  0
  1  5  1  0  0  0  0
  2 17  1  0  0  0  0
  3  1  1  0  0  0  0
  4  3  1  0  0  0  0
  4 26  1  1  0  0  0
  5 11  2  0  0  0  0
  5  6  1  0  0  0  0
  6  7  2  0  0  0  0
  7 21  1  0  0  0  0
  8 15  1  0  0  0  0
  8 16  2  0  0  0  0
  9 19  1  0  0  0  0
 10 18  1  0  0  0  0
 11 20  1  0  0  0  0
 13 14  1  0  0  0  0
 13 12  2  0  0  0  0
 15 13  1  1  0  0  0
 17 19  2  0  0  0  0
 17 15  1  0  0  0  0
 18  2  1  0  0  0  0
 18  9  2  0  0  0  0
 20 21  2  0  0  0  0
 20  2  1  0  0  0  0
 21  8  1  0  0  0  0
 22  6  1  0  0  0  0
 23 11  1  0  0  0  0
 23 10  1  0  0  0  0
 24 23  1  0  0  0  0
 25  1  1  0  0  0  0
 27  4  1  0  0  0  0
 27 25  1  0  0  0  0
 27 28  1  6  0  0  0
 29 28  1  0  0  0  0
 30 28  1  0  0  0  0
M  END
>  <CHROM.1>
-99.96481864,1.76564519,13.65039749,73.69639916,-76.33787297,26.57262387
40.96573404,23.11335130,1.18191199,-0.35295753,-2.13934378

>  <Name>
lig.pdb

>  <RI>
0

>  <Rbt.Current_Directory>
/home/itssahil/PROJECTS/Mol_Feturizer/New_Systems/rnas/6bfb

>  <Rbt.Executable>
rbdock ($Id: //depot/dev/client3/rdock/2013.1/src/exe/rbdock.cxx#4 $)

>  <Rbt.Library>
libRbt.so (2013.1, Build901 2013/11/27)

>  <Rbt.Parameter_File>
/export/apps/rDock/src/rDock_2013.1_src/data/scripts/dock_solv.prm

>  <Rbt.Receptor>
prm/pocket_docking_5.prm

>  <SCORE>
-33.1057

>  <SCORE.INTER>
-29.3868

>  <SCORE.INTER.CONST>
1

>  <SCORE.INTER.POLAR>
-0.959166

>  <SCORE.INTER.ROT>
3

>  <SCORE.INTER.SOLV>
10.7519

>  <SCORE.INTER.VDW>
-25.5779

>  <SCORE.INTER.norm>
-0.979559

>  <SCORE.INTRA>
-3.71897

>  <SCORE.INTRA.DIHEDRAL>
-6.69479

>  <SCORE.INTRA.DIHEDRAL.0>
9.41909

>  <SCORE.INTRA.POLAR>
0

>  <SCORE.INTRA.POLAR.0>
0

>  <SCORE.INTRA.REPUL>
0.0766547

>  <SCORE.INTRA.REPUL.0>
0

>  <SCORE.INTRA.SOLV>
0.0301208

>  <SCORE.INTRA.SOLV.lig_0>
-26.2491

>  <SCORE.INTRA.VDW>
-0.769904

>  <SCORE.INTRA.VDW.0>
2.57239

>  <SCORE.INTRA.norm>
-0.123966

>  <SCORE.RESTR>
0

>  <SCORE.RESTR.CAVITY>
0

>  <SCORE.RESTR.norm>
0

>  <SCORE.SYSTEM>
0

>  <SCORE.SYSTEM.CONST>
0

>  <SCORE.SYSTEM.DIHEDRAL>
0

>  <SCORE.SYSTEM.SOLV>
0

>  <SCORE.SYSTEM.norm>
0

>  <SCORE.heavy>
30

>  <SCORE.norm>
-1.10352

>  <RMSD>
2.184

$$$$
lig.pdb
 OpenBabel11021811523D
libRbt.so/2013.1/901 2013/11/27
 30 34  0  0  0  0  0  0  0  0999 V2000
   25.1901   36.8632   20.1835 N   0  0  0  0  0  0  0  0  0  0  0  0
   26.3021   40.0766   23.7813 N   0  0  0  0  0  0  0  0  0  0  0  0
   24.8591   37.2774   18.8166 C   0  0  0  0  0  0  0  0  0  0  0  0
   25.6264   36.2565   17.9899 C   0  0  2  0  0  0  0  0  0  0  0  0
   24.7896   37.6834   21.3211 C   0  0  0  0  0  0  0  0  0  0  0  0
   23.4711   37.7387   21.8176 C   0  0  0  0  0  0  0  0  0  0  0  0
   23.0851   38.5311   22.8697 C   0  0  0  0  0  0  0  0  0  0  0  0
   23.5897   40.2429   24.6157 C   0  0  0  0  0  0  0  0  0  0  0  0
   28.4059   40.7028   24.3330 C   0  0  0  0  0  0  0  0  0  0  0  0
   28.0205   38.8187   22.5944 C   0  0  0  0  0  0  0  0  0  0  0  0
   25.7493   38.4957   21.9884 C   0  0  0  0  0  0  0  0  0  0  0  0
   23.4846   41.7442   27.1701 O   0  0  0  0  0  0  0  0  0  0  0  0
   24.2894   42.0534   26.2889 C   0  0  0  0  0  0  0  0  0  0  0  0
   24.8588   43.2511   26.2303 O   0  0  0  0  0  0  0  0  0  0  0  0
   24.6536   41.0880   25.2179 C   0  0  1  0  0  0  0  0  0  0  0  0
   22.4233   40.2476   25.0237 O   0  0  0  0  0  0  0  0  0  0  0  0
   25.9911   40.9730   24.8011 C   0  0  0  0  0  0  0  0  0  0  0  0
   27.6738   39.9111   23.5434 C   0  0  0  0  0  0  0  0  0  0  0  0
   27.4500   41.6422   25.4031 S   0  0  0  0  0  0  0  0  0  0  0  0
   25.3573   39.2951   23.0860 C   0  0  0  0  0  0  0  0  0  0  0  0
   24.0212   39.3403   23.5132 C   0  0  0  0  0  0  0  0  0  0  0  0
   22.5308   36.9543   21.2537 F   0  0  0  0  0  0  0  0  0  0  0  0
   27.0724   38.5639   21.5246 N   0  0  0  0  0  0  0  0  0  0  0  0
   27.1760   39.4378   20.3756 C   0  0  0  0  0  0  0  0  0  0  0  0
   26.4042   36.0555   20.2175 C   0  0  0  0  0  0  0  0  0  0  0  0
   24.7619   35.5333   17.1127 O   0  0  0  0  0  0  0  0  0  0  0  0
   26.1762   35.2216   18.9681 C   0  0  2  0  0  0  0  0  0  0  0  0
   27.3707   34.6021   18.3631 N   0  0  0  0  0  0  0  0  0  0  0  0
   28.4999   35.5182   18.1203 C   0  0  0  0  0  0  0  0  0  0  0  0
   27.7887   33.3656   19.0416 C   0  0  0  0  0  0  0  0  0  0  0  0
  1  5  1  0  0  0  0
  2 17  1  0  0  0  0
  3  1  1  0  0  0  0
  4  3  1  0  0  0  0
  4 26  1  6  0  0  0
  5 11  2  0  0  0  0
  5  6  1  0  0  0  0
  6  7  2  0  0  0  0
  7 21  1  0  0  0  0
  8 15  1  0  0  0  0
  8 16  2  0  0  0  0
  9 19  1  0  0  0  0
 10 18  1  0  0  0  0
 11 20  1  0  0  0  0
 13 14  1  0  0  0  0
 13 12  2  0  0  0  0
 15 13  1  1  0  0  0
 17 19  2  0  0  0  0
 17 15  1  0  0  0  0
 18  2  1  0  0  0  0
 18  9  2  0  0  0  0
 20 21  2  0  0  0  0
 20  2  1  0  0  0  0
 21  8  1  0  0  0  0
 22  6  1  0  0  0  0
 23 11  1  0  0  0  0
 23 10  1  0  0  0  0
 24 23  1  0  0  0  0
 25  1  1  0  0  0  0
 27  4  1  0  0  0  0
 27 25  1  0  0  0  0
 27 28  1  6  0  0  0
 29 28  1  0  0  0  0
 30 28  1  0  0  0  0
M  END
>  <CHROM.1>
75.97315848,-0.04435854,40.75778252,66.36992656,63.37507351,25.61621599,38.67348802
22.26770656,1.44418024,-0.09258642,-2.29428529

>  <Name>
lig.pdb

>  <RI>
0

>  <Rbt.Current_Directory>
/home/itssahil/PROJECTS/Mol_Feturizer/New_Systems/rnas/6bfb

>  <Rbt.Executable>
rbdock ($Id: //depot/dev/client3/rdock/2013.1/src/exe/rbdock.cxx#4 $)

>  <Rbt.Library>
libRbt.so (2013.1, Build901 2013/11/27)

>  <Rbt.Parameter_File>
/export/apps/rDock/src/rDock_2013.1_src/data/scripts/dock_solv.prm

>  <Rbt.Receptor>
prm/pocket_docking_7.prm

>  <SCORE>
-40.2385

>  <SCORE.INTER>
-34.2071

>  <SCORE.INTER.CONST>
1

>  <SCORE.INTER.POLAR>
-0.844413

>  <SCORE.INTER.ROT>
3

>  <SCORE.INTER.SOLV>
13.6935

>  <SCORE.INTER.VDW>
-30.1545

>  <SCORE.INTER.norm>
-1.14024

>  <SCORE.INTRA>
-6.03147

>  <SCORE.INTRA.DIHEDRAL>
-7.42251

>  <SCORE.INTRA.DIHEDRAL.0>
9.41909

>  <SCORE.INTRA.POLAR>
0

>  <SCORE.INTRA.POLAR.0>
0

>  <SCORE.INTRA.REPUL>
0

>  <SCORE.INTRA.REPUL.0>
0

>  <SCORE.INTRA.SOLV>
-0.129821

>  <SCORE.INTRA.SOLV.lig_0>
-26.2491

>  <SCORE.INTRA.VDW>
-2.2553

>  <SCORE.INTRA.VDW.0>
2.57239

>  <SCORE.INTRA.norm>
-0.201049

>  <SCORE.RESTR>
0

>  <SCORE.RESTR.CAVITY>
0

>  <SCORE.RESTR.norm>
0

>  <SCORE.SYSTEM>
0

>  <SCORE.SYSTEM.CONST>
0

>  <SCORE.SYSTEM.DIHEDRAL>
0

>  <SCORE.SYSTEM.SOLV>
0

>  <SCORE.SYSTEM.norm>
0

>  <SCORE.heavy>
30

>  <SCORE.norm>
-1.34128

>  <RMSD>
2.189

$$$$
lig.pdb
 OpenBabel11021811523D
libRbt.so/2013.1/901 2013/11/27
 30 34  0  0  0  0  0  0  0  0999 V2000
   25.1752   36.7921   20.1478 N   0  0  0  0  0  0  0  0  0  0  0  0
   26.2670   40.0446   23.7166 N   0  0  0  0  0  0  0  0  0  0  0  0
   24.8633   37.2047   18.7760 C   0  0  0  0  0  0  0  0  0  0  0  0
   25.6303   36.1741   17.9612 C   0  0  2  0  0  0  0  0  0  0  0  0
   24.7696   37.6199   21.2781 C   0  0  0  0  0  0  0  0  0  0  0  0
   23.4509   37.6710   21.7744 C   0  0  0  0  0  0  0  0  0  0  0  0
   23.0599   38.4702   22.8196 C   0  0  0  0  0  0  0  0  0  0  0  0
   23.5538   40.2008   24.5502 C   0  0  0  0  0  0  0  0  0  0  0  0
   28.3668   40.6894   24.2621 C   0  0  0  0  0  0  0  0  0  0  0  0
   27.9933   38.7874   22.5404 C   0  0  0  0  0  0  0  0  0  0  0  0
   25.7241   38.4443   21.9379 C   0  0  0  0  0  0  0  0  0  0  0  0
   24.6267   43.2007   26.1531 O   0  0  0  0  0  0  0  0  0  0  0  0
   24.2419   42.0306   26.2069 C   0  0  0  0  0  0  0  0  0  0  0  0
   23.5010   41.5679   27.2064 O   0  0  0  0  0  0  0  0  0  0  0  0
   24.6122   41.0581   25.1445 C   0  0  1  0  0  0  0  0  0  0  0  0
   22.3874   40.2014   24.9584 O   0  0  0  0  0  0  0  0  0  0  0  0
   25.9504   40.9480   24.7284 C   0  0  0  0  0  0  0  0  0  0  0  0
   27.6397   39.8860   23.4798 C   0  0  0  0  0  0  0  0  0  0  0  0
   27.4050   41.6321   25.3240 S   0  0  0  0  0  0  0  0  0  0  0  0
   25.3271   39.2509   23.0285 C   0  0  0  0  0  0  0  0  0  0  0  0
   23.9909   39.2911   23.4556 C   0  0  0  0  0  0  0  0  0  0  0  0
   22.5156   36.8754   21.2178 F   0  0  0  0  0  0  0  0  0  0  0  0
   27.0467   38.5169   21.4733 N   0  0  0  0  0  0  0  0  0  0  0  0
   27.1444   39.3812   20.3164 C   0  0  0  0  0  0  0  0  0  0  0  0
   26.3814   35.9735   20.1981 C   0  0  0  0  0  0  0  0  0  0  0  0
   24.7691   35.4557   17.0769 O   0  0  0  0  0  0  0  0  0  0  0  0
   26.1597   35.1374   18.9489 C   0  0  2  0  0  0  0  0  0  0  0  0
   27.3552   34.5051   18.3594 N   0  0  0  0  0  0  0  0  0  0  0  0
   28.4802   35.4180   18.0867 C   0  0  0  0  0  0  0  0  0  0  0  0
   27.7797   33.2908   19.0729 C   0  0  0  0  0  0  0  0  0  0  0  0
  1  5  1  0  0  0  0
  2 17  1  0  0  0  0
  3  1  1  0  0  0  0
  4  3  1  0  0  0  0
  4 26  1  6  0  0  0
  5 11  2  0  0  0  0
  5  6  1  0  0  0  0
  6  7  2  0  0  0  0
  7 21  1  0  0  0  0
  8 15  1  0  0  0  0
  8 16  2  0  0  0  0
  9 19  1  0  0  0  0
 10 18  1  0  0  0  0
 11 20  1  0  0  0  0
 13 14  1  0  0  0  0
 13 12  2  0  0  0  0
 15 13  1  1  0  0  0
 17 19  2  0  0  0  0
 17 15  1  0  0  0  0
 18  2  1  0  0  0  0
 18  9  2  0  0  0  0
 20 21  2  0  0  0  0
 20  2  1  0  0  0  0
 21  8  1  0  0  0  0
 22  6  1  0  0  0  0
 23 11  1  0  0  0  0
 23 10  1  0  0  0  0
 24 23  1  0  0  0  0
 25  1  1  0  0  0  0
 27  4  1  0  0  0  0
 27 25  1  0  0  0  0
 27 28  1  6  0  0  0
 29 28  1  0  0  0  0
 30 28  1  0  0  0  0
M  END
>  <CHROM.1>
77.12544345,-177.93936132,-132.12614390,63.87843039,61.52875457,25.58232911
38.60765567,22.22235851,1.43622900,-0.10183474,-2.29899083

>  <Name>
lig.pdb

>  <RI>
0

>  <Rbt.Current_Directory>
/home/itssahil/PROJECTS/Mol_Feturizer/New_Systems/rnas/6bfb

>  <Rbt.Executable>
rbdock ($Id: //depot/dev/client3/rdock/2013.1/src/exe/rbdock.cxx#4 $)

>  <Rbt.Library>
libRbt.so (2013.1, Build901 2013/11/27)

>  <Rbt.Parameter_File>
/export/apps/rDock/src/rDock_2013.1_src/data/scripts/dock_solv.prm

>  <Rbt.Receptor>
prm/pocket_docking_5.prm

>  <SCORE>
-39.8006

>  <SCORE.INTER>
-34.1642

>  <SCORE.INTER.CONST>
1

>  <SCORE.INTER.POLAR>
-0.848528

>  <SCORE.INTER.ROT>
3

>  <SCORE.INTER.SOLV>
13.7251

>  <SCORE.INTER.VDW>
-30.1227

>  <SCORE.INTER.norm>
-1.13881

>  <SCORE.INTRA>
-5.63648

>  <SCORE.INTRA.DIHEDRAL>
-7.55454

>  <SCORE.INTRA.DIHEDRAL.0>
9.41909

>  <SCORE.INTRA.POLAR>
0

>  <SCORE.INTRA.POLAR.0>
0

>  <SCORE.INTRA.REPUL>
0

>  <SCORE.INTRA.REPUL.0>
0

>  <SCORE.INTRA.SOLV>
-0.121271

>  <SCORE.INTRA.SOLV.lig_0>
-26.2491

>  <SCORE.INTRA.VDW>
-1.79858

>  <SCORE.INTRA.VDW.0>
2.57239

>  <SCORE.INTRA.norm>
-0.187883

>  <SCORE.RESTR>
0

>  <SCORE.RESTR.CAVITY>
0

>  <SCORE.RESTR.norm>
0

>  <SCORE.SYSTEM>
0

>  <SCORE.SYSTEM.CONST>
0

>  <SCORE.SYSTEM.DIHEDRAL>
0

>  <SCORE.SYSTEM.SOLV>
0

>  <SCORE.SYSTEM.norm>
0

>  <SCORE.heavy>
30

>  <SCORE.norm>
-1.32669

>  <RMSD>
2.193

$$$$
lig.pdb
 OpenBabel11021811523D
libRbt.so/2013.1/901 2013/11/27
 30 34  0  0  0  0  0  0  0  0999 V2000
   25.2195   36.8486   20.1528 N   0  0  0  0  0  0  0  0  0  0  0  0
   26.3282   40.0823   23.7335 N   0  0  0  0  0  0  0  0  0  0  0  0
   24.8748   37.2591   18.7882 C   0  0  0  0  0  0  0  0  0  0  0  0
   25.6446   36.2443   17.9565 C   0  0  2  0  0  0  0  0  0  0  0  0
   24.8203   37.6662   21.2929 C   0  0  0  0  0  0  0  0  0  0  0  0
   23.5064   37.7064   21.8025 C   0  0  0  0  0  0  0  0  0  0  0  0
   23.1212   38.4961   22.8570 C   0  0  0  0  0  0  0  0  0  0  0  0
   23.6225   40.2173   24.5947 C   0  0  0  0  0  0  0  0  0  0  0  0
   28.4296   40.7351   24.2629 C   0  0  0  0  0  0  0  0  0  0  0  0
   28.0498   38.8430   22.5317 C   0  0  0  0  0  0  0  0  0  0  0  0
   25.7768   38.4913   21.9491 C   0  0  0  0  0  0  0  0  0  0  0  0
   23.5002   41.7333   27.1290 O   0  0  0  0  0  0  0  0  0  0  0  0
   24.3167   42.0395   26.2575 C   0  0  0  0  0  0  0  0  0  0  0  0
   24.8985   43.2317   26.2113 O   0  0  0  0  0  0  0  0  0  0  0  0
   24.6819   41.0764   25.1847 C   0  0  1  0  0  0  0  0  0  0  0  0
   22.4602   40.2086   25.0144 O   0  0  0  0  0  0  0  0  0  0  0  0
   26.0165   40.9768   24.7547 C   0  0  0  0  0  0  0  0  0  0  0  0
   27.6993   39.9330   23.4822 C   0  0  0  0  0  0  0  0  0  0  0  0
   27.4731   41.6649   25.3408 S   0  0  0  0  0  0  0  0  0  0  0  0
   25.3860   39.2881   23.0492 C   0  0  0  0  0  0  0  0  0  0  0  0
   24.0539   39.3178   23.4896 C   0  0  0  0  0  0  0  0  0  0  0  0
   22.5701   36.9095   21.2495 F   0  0  0  0  0  0  0  0  0  0  0  0
   27.0942   38.5747   21.4720 N   0  0  0  0  0  0  0  0  0  0  0  0
   27.1757   39.4476   20.3203 C   0  0  0  0  0  0  0  0  0  0  0  0
   26.4406   36.0514   20.1784 C   0  0  0  0  0  0  0  0  0  0  0  0
   24.7799   35.5131   17.0862 O   0  0  0  0  0  0  0  0  0  0  0  0
   26.2105   35.2147   18.9311 C   0  0  2  0  0  0  0  0  0  0  0  0
   27.4058   34.6051   18.3177 N   0  0  0  0  0  0  0  0  0  0  0  0
   28.5271   35.5297   18.0705 C   0  0  0  0  0  0  0  0  0  0  0  0
   27.8364   33.3700   18.9907 C   0  0  0  0  0  0  0  0  0  0  0  0
  1  5  1  0  0  0  0
  2 17  1  0  0  0  0
  3  1  1  0  0  0  0
  4  3  1  0  0  0  0
  4 26  1  6  0  0  0
  5 11  2  0  0  0  0
  5  6  1  0  0  0  0
  6  7  2  0  0  0  0
  7 21  1  0  0  0  0
  8 15  1  0  0  0  0
  8 16  2  0  0  0  0
  9 19  1  0  0  0  0
 10 18  1  0  0  0  0
 11 20  1  0  0  0  0
 13 14  1  0  0  0  0
 13 12  2  0  0  0  0
 15 13  1  1  0  0  0
 17 19  2  0  0  0  0
 17 15  1  0  0  0  0
 18  2  1  0  0  0  0
 18  9  2  0  0  0  0
 20 21  2  0  0  0  0
 20  2  1  0  0  0  0
 21  8  1  0  0  0  0
 22  6  1  0  0  0  0
 23 11  1  0  0  0  0
 23 10  1  0  0  0  0
 24 23  1  0  0  0  0
 25  1  1  0  0  0  0
 27  4  1  0  0  0  0
 27 25  1  0  0  0  0
 27 28  1  6  0  0  0
 29 28  1  0  0  0  0
 30 28  1  0  0  0  0
M  END
>  <CHROM.1>
76.23579583,0.64340194,39.00032599,64.02178554,63.59040280,25.64421700,38.66722520
22.23001843,1.44392936,-0.10816357,-2.29653903

>  <Name>
lig.pdb

>  <RI>
0

>  <Rbt.Current_Directory>
/home/itssahil/PROJECTS/Mol_Feturizer/New_Systems/rnas/6bfb

>  <Rbt.Executable>
rbdock ($Id: //depot/dev/client3/rdock/2013.1/src/exe/rbdock.cxx#4 $)

>  <Rbt.Library>
libRbt.so (2013.1, Build901 2013/11/27)

>  <Rbt.Parameter_File>
/export/apps/rDock/src/rDock_2013.1_src/data/scripts/dock_solv.prm

>  <Rbt.Receptor>
prm/pocket_docking_5.prm

>  <SCORE>
-40.3062

>  <SCORE.INTER>
-34.2595

>  <SCORE.INTER.CONST>
1

>  <SCORE.INTER.POLAR>
-0.848528

>  <SCORE.INTER.ROT>
3

>  <SCORE.INTER.SOLV>
13.4869

>  <SCORE.INTER.VDW>
-30.1069

>  <SCORE.INTER.norm>
-1.14198

>  <SCORE.INTRA>
-6.04668

>  <SCORE.INTRA.DIHEDRAL>
-7.53525

>  <SCORE.INTRA.DIHEDRAL.0>
9.41909

>  <SCORE.INTRA.POLAR>
0

>  <SCORE.INTRA.POLAR.0>
0

>  <SCORE.INTRA.REPUL>
0

>  <SCORE.INTRA.REPUL.0>
0

>  <SCORE.INTRA.SOLV>
-0.127024

>  <SCORE.INTRA.SOLV.lig_0>
-26.2491

>  <SCORE.INTRA.VDW>
-2.21554

>  <SCORE.INTRA.VDW.0>
2.57239

>  <SCORE.INTRA.norm>
-0.201556

>  <SCORE.RESTR>
0

>  <SCORE.RESTR.CAVITY>
0

>  <SCORE.RESTR.norm>
0

>  <SCORE.SYSTEM>
0

>  <SCORE.SYSTEM.CONST>
0

>  <SCORE.SYSTEM.DIHEDRAL>
0

>  <SCORE.SYSTEM.SOLV>
0

>  <SCORE.SYSTEM.norm>
0

>  <SCORE.heavy>
30

>  <SCORE.norm>
-1.34354

>  <RMSD>
2.195

$$$$
lig.pdb
 OpenBabel11021811523D
libRbt.so/2013.1/901 2013/11/27
 30 34  0  0  0  0  0  0  0  0999 V2000
   26.9778   39.1303   20.1966 N   0  0  0  0  0  0  0  0  0  0  0  0
   27.2875   42.1738   24.0886 N   0  0  0  0  0  0  0  0  0  0  0  0
   26.4761   39.7119   18.9478 C   0  0  0  0  0  0  0  0  0  0  0  0
   27.3982   39.0760   17.9183 C   0  0  2  0  0  0  0  0  0  0  0  0
   26.4771   39.6001   21.4834 C   0  0  0  0  0  0  0  0  0  0  0  0
   25.3505   39.0517   22.1298 C   0  0  0  0  0  0  0  0  0  0  0  0
   24.8598   39.5102   23.3269 C   0  0  0  0  0  0  0  0  0  0  0  0
   24.9173   41.1102   25.2427 C   0  0  0  0  0  0  0  0  0  0  0  0
   29.0222   43.5725   24.4849 C   0  0  0  0  0  0  0  0  0  0  0  0
   29.1424   41.8663   22.5366 C   0  0  0  0  0  0  0  0  0  0  0  0
   27.1262   40.6762   22.1520 C   0  0  0  0  0  0  0  0  0  0  0  0
   25.8515   43.2108   28.0011 O   0  0  0  0  0  0  0  0  0  0  0  0
   25.0987   42.8877   27.0797 C   0  0  0  0  0  0  0  0  0  0  0  0
   23.7833   43.0553   27.1402 O   0  0  0  0  0  0  0  0  0  0  0  0
   25.6361   42.2655   25.8404 C   0  0  1  0  0  0  0  0  0  0  0  0
   23.9332   40.5879   25.7772 O   0  0  0  0  0  0  0  0  0  0  0  0
   26.8173   42.7607   25.2611 C   0  0  0  0  0  0  0  0  0  0  0  0
   28.5495   42.6216   23.6734 C   0  0  0  0  0  0  0  0  0  0  0  0
   27.9623   43.9229   25.7869 S   0  0  0  0  0  0  0  0  0  0  0  0
   26.6349   41.1344   23.3955 C   0  0  0  0  0  0  0  0  0  0  0  0
   25.4849   40.5758   23.9743 C   0  0  0  0  0  0  0  0  0  0  0  0
   24.7250   37.9996   21.5648 F   0  0  0  0  0  0  0  0  0  0  0  0
   28.2129   41.3350   21.5560 N   0  0  0  0  0  0  0  0  0  0  0  0
   27.7636   42.2717   20.5482 C   0  0  0  0  0  0  0  0  0  0  0  0
   28.3415   38.6354   20.0453 C   0  0  0  0  0  0  0  0  0  0  0  0
   26.6635   38.3549   16.9283 O   0  0  0  0  0  0  0  0  0  0  0  0
   28.2269   38.0282   18.6572 C   0  0  2  0  0  0  0  0  0  0  0  0
   29.4887   37.8314   17.9185 N   0  0  0  0  0  0  0  0  0  0  0  0
   30.4741   38.9194   18.0553 C   0  0  0  0  0  0  0  0  0  0  0  0
   30.0859   36.5046   18.1350 C   0  0  0  0  0  0  0  0  0  0  0  0
  1  5  1  0  0  0  0
  2 17  1  0  0  0  0
  3  1  1  0  0  0  0
  4  3  1  0  0  0  0
  4 26  1  6  0  0  0
  5 11  2  0  0  0  0
  5  6  1  0  0  0  0
  6  7  2  0  0  0  0
  7 21  1  0  0  0  0
  8 15  1  0  0  0  0
  8 16  2  0  0  0  0
  9 19  1  0  0  0  0
 10 18  1  0  0  0  0
 11 20  1  0  0  0  0
 13 14  1  0  0  0  0
 13 12  2  0  0  0  0
 15 13  1  1  0  0  0
 17 19  2  0  0  0  0
 17 15  1  0  0  0  0
 18  2  1  0  0  0  0
 18  9  2  0  0  0  0
 20 21  2  0  0  0  0
 20  2  1  0  0  0  0
 21  8  1  0  0  0  0
 22  6  1  0  0  0  0
 23 11  1  0  0  0  0
 23 10  1  0  0  0  0
 24 23  1  0  0  0  0
 25  1  1  0  0  0  0
 27  4  1  0  0  0  0
 27 25  1  0  0  0  0
 27 28  1  6  0  0  0
 29 28  1  0  0  0  0
 30 28  1  0  0  0  0
M  END
>  <CHROM.1>
89.29270441,179.31072968,137.20197546,167.65422571,74.28064712,26.97788996
40.70134736,22.47912619,1.28447991,-0.47621807,-2.22344320

>  <Name>
lig.pdb

>  <RI>
0

>  <Rbt.Current_Directory>
/home/itssahil/PROJECTS/Mol_Feturizer/New_Systems/rnas/6bfb

>  <Rbt.Executable>
rbdock ($Id: //depot/dev/client3/rdock/2013.1/src/exe/rbdock.cxx#4 $)

>  <Rbt.Library>
libRbt.so (2013.1, Build901 2013/11/27)

>  <Rbt.Parameter_File>
/export/apps/rDock/src/rDock_2013.1_src/data/scripts/dock_solv.prm

>  <Rbt.Receptor>
prm/blind_docking_100.prm

>  <SCORE>
-36.5699

>  <SCORE.INTER>
-31.3175

>  <SCORE.INTER.CONST>
1

>  <SCORE.INTER.POLAR>
-0.90901

>  <SCORE.INTER.ROT>
3

>  <SCORE.INTER.SOLV>
12.0513

>  <SCORE.INTER.VDW>
-27.4654

>  <SCORE.INTER.norm>
-1.04392

>  <SCORE.INTRA>
-5.25237

>  <SCORE.INTRA.DIHEDRAL>
-6.46587

>  <SCORE.INTRA.DIHEDRAL.0>
9.41909

>  <SCORE.INTRA.POLAR>
0

>  <SCORE.INTRA.POLAR.0>
0

>  <SCORE.INTRA.REPUL>
0

>  <SCORE.INTRA.REPUL.0>
0

>  <SCORE.INTRA.SOLV>
-0.0573517

>  <SCORE.INTRA.SOLV.lig_0>
-26.2491

>  <SCORE.INTRA.VDW>
-1.99076

>  <SCORE.INTRA.VDW.0>
2.57239

>  <SCORE.INTRA.norm>
-0.175079

>  <SCORE.RESTR>
0

>  <SCORE.RESTR.CAVITY>
0

>  <SCORE.RESTR.norm>
0

>  <SCORE.SYSTEM>
0

>  <SCORE.SYSTEM.CONST>
0

>  <SCORE.SYSTEM.DIHEDRAL>
0

>  <SCORE.SYSTEM.SOLV>
0

>  <SCORE.SYSTEM.norm>
0

>  <SCORE.heavy>
30

>  <SCORE.norm>
-1.219

>  <RMSD>
2.196

$$$$
lig.pdb
 OpenBabel11021811523D
libRbt.so/2013.1/901 2013/11/27
 30 34  0  0  0  0  0  0  0  0999 V2000
   27.2701   39.7249   20.8613 N   0  0  0  0  0  0  0  0  0  0  0  0
   26.6510   42.2239   25.0896 N   0  0  0  0  0  0  0  0  0  0  0  0
   28.0816   38.5041   20.8848 C   0  0  0  0  0  0  0  0  0  0  0  0
   28.5820   38.4379   19.4497 C   0  0  2  0  0  0  0  0  0  0  0  0
   26.4512   40.0896   22.0119 C   0  0  0  0  0  0  0  0  0  0  0  0
   25.1483   39.5971   22.2299 C   0  0  0  0  0  0  0  0  0  0  0  0
   24.3643   39.9601   23.2964 C   0  0  0  0  0  0  0  0  0  0  0  0
   23.9764   41.3013   25.3664 C   0  0  0  0  0  0  0  0  0  0  0  0
   28.2914   43.3615   26.1561 C   0  0  0  0  0  0  0  0  0  0  0  0
   28.8506   41.8996   24.0893 C   0  0  0  0  0  0  0  0  0  0  0  0
   26.9533   40.9978   22.9861 C   0  0  0  0  0  0  0  0  0  0  0  0
   24.1081   43.7954   28.0716 O   0  0  0  0  0  0  0  0  0  0  0  0
   23.7426   42.8132   27.4222 C   0  0  0  0  0  0  0  0  0  0  0  0
   22.6157   42.1626   27.6848 O   0  0  0  0  0  0  0  0  0  0  0  0
   24.5715   42.2884   26.3045 C   0  0  1  0  0  0  0  0  0  0  0  0
   22.8439   40.8320   25.5218 O   0  0  0  0  0  0  0  0  0  0  0  0
   25.9030   42.7143   26.1575 C   0  0  0  0  0  0  0  0  0  0  0  0
   28.0083   42.5742   25.1139 C   0  0  0  0  0  0  0  0  0  0  0  0
   26.9261   43.6691   27.1474 S   0  0  0  0  0  0  0  0  0  0  0  0
   26.1553   41.3551   24.0965 C   0  0  0  0  0  0  0  0  0  0  0  0
   24.8490   40.8632   24.2424 C   0  0  0  0  0  0  0  0  0  0  0  0
   24.6401   38.6973   21.3640 F   0  0  0  0  0  0  0  0  0  0  0  0
   28.2116   41.5977   22.8210 N   0  0  0  0  0  0  0  0  0  0  0  0
   28.1453   42.6933   21.8775 C   0  0  0  0  0  0  0  0  0  0  0  0
   26.8728   40.0760   19.5025 C   0  0  0  0  0  0  0  0  0  0  0  0
   30.0088   38.4140   19.3908 O   0  0  0  0  0  0  0  0  0  0  0  0
   28.1663   39.7440   18.7778 C   0  0  2  0  0  0  0  0  0  0  0  0
   28.0644   39.5051   17.3255 N   0  0  0  0  0  0  0  0  0  0  0  0
   27.2024   40.4492   16.5914 C   0  0  0  0  0  0  0  0  0  0  0  0
   29.3710   39.3187   16.6759 C   0  0  0  0  0  0  0  0  0  0  0  0
  1  5  1  0  0  0  0
  2 17  1  0  0  0  0
  3  1  1  0  0  0  0
  4  3  1  0  0  0  0
  4 26  1  1  0  0  0
  5 11  2  0  0  0  0
  5  6  1  0  0  0  0
  6  7  2  0  0  0  0
  7 21  1  0  0  0  0
  8 15  1  0  0  0  0
  8 16  2  0  0  0  0
  9 19  1  0  0  0  0
 10 18  1  0  0  0  0
 11 20  1  0  0  0  0
 13 14  1  0  0  0  0
 13 12  2  0  0  0  0
 15 13  1  1  0  0  0
 17 19  2  0  0  0  0
 17 15  1  0  0  0  0
 18  2  1  0  0  0  0
 18  9  2  0  0  0  0
 20 21  2  0  0  0  0
 20  2  1  0  0  0  0
 21  8  1  0  0  0  0
 22  6  1  0  0  0  0
 23 11  1  0  0  0  0
 23 10  1  0  0  0  0
 24 23  1  0  0  0  0
 25  1  1  0  0  0  0
 27  4  1  0  0  0  0
 27 25  1  0  0  0  0
 27 28  1  6  0  0  0
 29 28  1  0  0  0  0
 30 28  1  0  0  0  0
M  END
>  <CHROM.1>
-85.04250588,1.68422525,-167.02289493,67.57865161,157.35761949,26.50912223
41.06097715,23.06186050,1.19606516,-0.34164345,-2.08908087

>  <Name>
lig.pdb

>  <RI>
0

>  <Rbt.Current_Directory>
/home/itssahil/PROJECTS/Mol_Feturizer/New_Systems/rnas/6bfb

>  <Rbt.Executable>
rbdock ($Id: //depot/dev/client3/rdock/2013.1/src/exe/rbdock.cxx#4 $)

>  <Rbt.Library>
libRbt.so (2013.1, Build901 2013/11/27)

>  <Rbt.Parameter_File>
/export/apps/rDock/src/rDock_2013.1_src/data/scripts/dock_solv.prm

>  <Rbt.Receptor>
prm/pocket_docking_8.prm

>  <SCORE>
-35.2137

>  <SCORE.INTER>
-30.4557

>  <SCORE.INTER.CONST>
1

>  <SCORE.INTER.POLAR>
-0.959166

>  <SCORE.INTER.ROT>
3

>  <SCORE.INTER.SOLV>
10.8559

>  <SCORE.INTER.VDW>
-26.3252

>  <SCORE.INTER.norm>
-1.01519

>  <SCORE.INTRA>
-4.75797

>  <SCORE.INTRA.DIHEDRAL>
-7.03288

>  <SCORE.INTRA.DIHEDRAL.0>
9.41909

>  <SCORE.INTRA.POLAR>
0

>  <SCORE.INTRA.POLAR.0>
0

>  <SCORE.INTRA.REPUL>
0.0966608

>  <SCORE.INTRA.REPUL.0>
0

>  <SCORE.INTRA.SOLV>
-0.114213

>  <SCORE.INTRA.SOLV.lig_0>
-26.2491

>  <SCORE.INTRA.VDW>
-1.66773

>  <SCORE.INTRA.VDW.0>
2.57239

>  <SCORE.INTRA.norm>
-0.158599

>  <SCORE.RESTR>
0

>  <SCORE.RESTR.CAVITY>
0

>  <SCORE.RESTR.norm>
0

>  <SCORE.SYSTEM>
0

>  <SCORE.SYSTEM.CONST>
0

>  <SCORE.SYSTEM.DIHEDRAL>
0

>  <SCORE.SYSTEM.SOLV>
0

>  <SCORE.SYSTEM.norm>
0

>  <SCORE.heavy>
30

>  <SCORE.norm>
-1.17379

>  <RMSD>
2.205

$$$$
lig.pdb
 OpenBabel11021811523D
libRbt.so/2013.1/901 2013/11/27
 30 34  0  0  0  0  0  0  0  0999 V2000
   25.1568   36.8057   20.0047 N   0  0  0  0  0  0  0  0  0  0  0  0
   26.2102   40.6310   22.9652 N   0  0  0  0  0  0  0  0  0  0  0  0
   24.8044   37.0997   18.6122 C   0  0  0  0  0  0  0  0  0  0  0  0
   25.5518   36.0044   17.8665 C   0  0  2  0  0  0  0  0  0  0  0  0
   24.7804   37.7262   21.0717 C   0  0  0  0  0  0  0  0  0  0  0  0
   23.5381   37.6834   21.7371 C   0  0  0  0  0  0  0  0  0  0  0  0
   23.1697   38.5658   22.7218 C   0  0  0  0  0  0  0  0  0  0  0  0
   23.6242   40.5672   24.1438 C   0  0  0  0  0  0  0  0  0  0  0  0
   28.2499   41.5980   23.1304 C   0  0  0  0  0  0  0  0  0  0  0  0
   27.9388   39.4442   21.7212 C   0  0  0  0  0  0  0  0  0  0  0  0
   25.6836   38.7450   21.4870 C   0  0  0  0  0  0  0  0  0  0  0  0
   24.6272   42.6174   26.6251 O   0  0  0  0  0  0  0  0  0  0  0  0
   24.2467   42.6796   25.4541 C   0  0  0  0  0  0  0  0  0  0  0  0
   23.4822   43.6667   25.0032 O   0  0  0  0  0  0  0  0  0  0  0  0
   24.6168   41.6220   24.4763 C   0  0  1  0  0  0  0  0  0  0  0  0
   22.5279   40.4813   24.7075 O   0  0  0  0  0  0  0  0  0  0  0  0
   25.8963   41.6203   23.8942 C   0  0  0  0  0  0  0  0  0  0  0  0
   27.5523   40.6107   22.5604 C   0  0  0  0  0  0  0  0  0  0  0  0
   27.3026   42.5536   24.1937 S   0  0  0  0  0  0  0  0  0  0  0  0
   25.3138   39.6402   22.5164 C   0  0  0  0  0  0  0  0  0  0  0  0
   24.0473   39.5751   23.1175 C   0  0  0  0  0  0  0  0  0  0  0  0
   22.6624   36.7097   21.4170 F   0  0  0  0  0  0  0  0  0  0  0  0
   26.9162   38.9142   20.8372 N   0  0  0  0  0  0  0  0  0  0  0  0
   26.7500   39.6151   19.5818 C   0  0  0  0  0  0  0  0  0  0  0  0
   26.3669   35.9959   20.0898 C   0  0  0  0  0  0  0  0  0  0  0  0
   24.6684   35.2124   17.0714 O   0  0  0  0  0  0  0  0  0  0  0  0
   26.1128   35.0563   18.9232 C   0  0  2  0  0  0  0  0  0  0  0  0
   27.2934   34.3775   18.3556 N   0  0  0  0  0  0  0  0  0  0  0  0
   28.3986   35.2670   17.9549 C   0  0  0  0  0  0  0  0  0  0  0  0
   27.7553   33.2418   19.1684 C   0  0  0  0  0  0  0  0  0  0  0  0
  1  5  1  0  0  0  0
  2 17  1  0  0  0  0
  3  1  1  0  0  0  0
  4  3  1  0  0  0  0
  4 26  1  6  0  0  0
  5 11  2  0  0  0  0
  5  6  1  0  0  0  0
  6  7  2  0  0  0  0
  7 21  1  0  0  0  0
  8 15  1  0  0  0  0
  8 16  2  0  0  0  0
  9 19  1  0  0  0  0
 10 18  1  0  0  0  0
 11 20  1  0  0  0  0
 13 14  1  0  0  0  0
 13 12  2  0  0  0  0
 15 13  1  1  0  0  0
 17 19  2  0  0  0  0
 17 15  1  0  0  0  0
 18  2  1  0  0  0  0
 18  9  2  0  0  0  0
 20 21  2  0  0  0  0
 20  2  1  0  0  0  0
 21  8  1  0  0  0  0
 22  6  1  0  0  0  0
 23 11  1  0  0  0  0
 23 10  1  0  0  0  0
 24 23  1  0  0  0  0
 25  1  1  0  0  0  0
 27  4  1  0  0  0  0
 27 25  1  0  0  0  0
 27 28  1  6  0  0  0
 29 28  1  0  0  0  0
 30 28  1  0  0  0  0
M  END
>  <CHROM.1>
86.99772705,173.30615462,100.30376274,63.61257515,60.62293849,25.54877554
38.91669924,21.77108292,1.43804051,-0.25244561,-2.44347414

>  <Name>
lig.pdb

>  <RI>
0

>  <Rbt.Current_Directory>
/home/itssahil/PROJECTS/Mol_Feturizer/New_Systems/rnas/6bfb

>  <Rbt.Executable>
rbdock ($Id: //depot/dev/client3/rdock/2013.1/src/exe/rbdock.cxx#4 $)

>  <Rbt.Library>
libRbt.so (2013.1, Build901 2013/11/27)

>  <Rbt.Parameter_File>
/export/apps/rDock/src/rDock_2013.1_src/data/scripts/dock_solv.prm

>  <Rbt.Receptor>
prm/pocket_docking_8.prm

>  <SCORE>
-39.2347

>  <SCORE.INTER>
-33.3847

>  <SCORE.INTER.CONST>
1

>  <SCORE.INTER.POLAR>
-1.49272

>  <SCORE.INTER.ROT>
3

>  <SCORE.INTER.SOLV>
11.3894

>  <SCORE.INTER.VDW>
-26.6772

>  <SCORE.INTER.norm>
-1.11282

>  <SCORE.INTRA>
-5.84996

>  <SCORE.INTRA.DIHEDRAL>
-7.24294

>  <SCORE.INTRA.DIHEDRAL.0>
9.41909

>  <SCORE.INTRA.POLAR>
0

>  <SCORE.INTRA.POLAR.0>
0

>  <SCORE.INTRA.REPUL>
0

>  <SCORE.INTRA.REPUL.0>
0

>  <SCORE.INTRA.SOLV>
-0.19446

>  <SCORE.INTRA.SOLV.lig_0>
-26.2491

>  <SCORE.INTRA.VDW>
-2.13126

>  <SCORE.INTRA.VDW.0>
2.57239

>  <SCORE.INTRA.norm>
-0.194999

>  <SCORE.RESTR>
0

>  <SCORE.RESTR.CAVITY>
0

>  <SCORE.RESTR.norm>
0

>  <SCORE.SYSTEM>
0

>  <SCORE.SYSTEM.CONST>
0

>  <SCORE.SYSTEM.DIHEDRAL>
0

>  <SCORE.SYSTEM.SOLV>
0

>  <SCORE.SYSTEM.norm>
0

>  <SCORE.heavy>
30

>  <SCORE.norm>
-1.30782

>  <RMSD>
2.208

$$$$
lig.pdb
 OpenBabel11021811523D
libRbt.so/2013.1/901 2013/11/27
 30 34  0  0  0  0  0  0  0  0999 V2000
   25.0708   36.7666   20.2568 N   0  0  0  0  0  0  0  0  0  0  0  0
   26.3307   40.0621   23.7294 N   0  0  0  0  0  0  0  0  0  0  0  0
   24.9813   37.2602   18.8792 C   0  0  0  0  0  0  0  0  0  0  0  0
   25.6230   36.1217   18.1006 C   0  0  2  0  0  0  0  0  0  0  0  0
   24.7128   37.6311   21.3757 C   0  0  0  0  0  0  0  0  0  0  0  0
   23.4064   37.7335   21.8958 C   0  0  0  0  0  0  0  0  0  0  0  0
   23.0605   38.5671   22.9299 C   0  0  0  0  0  0  0  0  0  0  0  0
   23.6405   40.3195   24.6111 C   0  0  0  0  0  0  0  0  0  0  0  0
   28.4595   40.6541   24.2199 C   0  0  0  0  0  0  0  0  0  0  0  0
   27.9946   38.7270   22.5492 C   0  0  0  0  0  0  0  0  0  0  0  0
   25.7047   38.4403   21.9982 C   0  0  0  0  0  0  0  0  0  0  0  0
   23.6507   41.8890   27.1390 O   0  0  0  0  0  0  0  0  0  0  0  0
   24.4164   42.1635   26.2125 C   0  0  0  0  0  0  0  0  0  0  0  0
   24.9806   43.3580   26.0827 O   0  0  0  0  0  0  0  0  0  0  0  0
   24.7359   41.1569   25.1655 C   0  0  1  0  0  0  0  0  0  0  0  0
   22.4831   40.3649   25.0415 O   0  0  0  0  0  0  0  0  0  0  0  0
   26.0617   40.9968   24.7264 C   0  0  0  0  0  0  0  0  0  0  0  0
   27.6931   39.8563   23.4700 C   0  0  0  0  0  0  0  0  0  0  0  0
   27.5478   41.6490   25.2784 S   0  0  0  0  0  0  0  0  0  0  0  0
   25.3539   39.2825   23.0777 C   0  0  0  0  0  0  0  0  0  0  0  0
   24.0283   39.3730   23.5293 C   0  0  0  0  0  0  0  0  0  0  0  0
   22.4366   36.9549   21.3754 F   0  0  0  0  0  0  0  0  0  0  0  0
   27.0193   38.4621   21.5067 N   0  0  0  0  0  0  0  0  0  0  0  0
   27.1201   39.2973   20.3290 C   0  0  0  0  0  0  0  0  0  0  0  0
   26.0932   35.7349   20.3890 C   0  0  0  0  0  0  0  0  0  0  0  0
   24.7379   35.5976   17.1097 O   0  0  0  0  0  0  0  0  0  0  0  0
   25.8485   34.9828   19.0916 C   0  0  2  0  0  0  0  0  0  0  0  0
   26.9598   34.1498   18.5940 N   0  0  0  0  0  0  0  0  0  0  0  0
   27.6518   33.3466   19.6184 C   0  0  0  0  0  0  0  0  0  0  0  0
   26.6034   33.3569   17.4073 C   0  0  0  0  0  0  0  0  0  0  0  0
  1  5  1  0  0  0  0
  2 17  1  0  0  0  0
  3  1  1  0  0  0  0
  4  3  1  0  0  0  0
  4 26  1  6  0  0  0
  5 11  2  0  0  0  0
  5  6  1  0  0  0  0
  6  7  2  0  0  0  0
  7 21  1  0  0  0  0
  8 15  1  0  0  0  0
  8 16  2  0  0  0  0
  9 19  1  0  0  0  0
 10 18  1  0  0  0  0
 11 20  1  0  0  0  0
 13 14  1  0  0  0  0
 13 12  2  0  0  0  0
 15 13  1  1  0  0  0
 17 19  2  0  0  0  0
 17 15  1  0  0  0  0
 18  2  1  0  0  0  0
 18  9  2  0  0  0  0
 20 21  2  0  0  0  0
 20  2  1  0  0  0  0
 21  8  1  0  0  0  0
 22  6  1  0  0  0  0
 23 11  1  0  0  0  0
 23 10  1  0  0  0  0
 24 23  1  0  0  0  0
 25  1  1  0  0  0  0
 27  4  1  0  0  0  0
 27 25  1  0  0  0  0
 27 28  1  6  0  0  0
 29 28  1  0  0  0  0
 30 28  1  0  0  0  0
M  END
>  <CHROM.1>
88.84094603,1.85657717,42.74871563,-58.36513218,157.46133823,25.52894378
38.56452499,22.26913725,1.50159368,-0.07884230,-2.33790400

>  <Name>
lig.pdb

>  <RI>
0

>  <Rbt.Current_Directory>
/home/itssahil/PROJECTS/Mol_Feturizer/New_Systems/rnas/6bfb

>  <Rbt.Executable>
rbdock ($Id: //depot/dev/client3/rdock/2013.1/src/exe/rbdock.cxx#4 $)

>  <Rbt.Library>
libRbt.so (2013.1, Build901 2013/11/27)

>  <Rbt.Parameter_File>
/export/apps/rDock/src/rDock_2013.1_src/data/scripts/dock_solv.prm

>  <Rbt.Receptor>
prm/blind_docking_80.prm

>  <SCORE>
-35.4676

>  <SCORE.INTER>
-30.1549

>  <SCORE.INTER.CONST>
1

>  <SCORE.INTER.POLAR>
0

>  <SCORE.INTER.ROT>
3

>  <SCORE.INTER.SOLV>
13.8848

>  <SCORE.INTER.VDW>
-30.3315

>  <SCORE.INTER.norm>
-1.00516

>  <SCORE.INTRA>
-5.31273

>  <SCORE.INTRA.DIHEDRAL>
-7.3069

>  <SCORE.INTRA.DIHEDRAL.0>
9.41909

>  <SCORE.INTRA.POLAR>
0

>  <SCORE.INTRA.POLAR.0>
0

>  <SCORE.INTRA.REPUL>
0

>  <SCORE.INTRA.REPUL.0>
0

>  <SCORE.INTRA.SOLV>
-0.00210695

>  <SCORE.INTRA.SOLV.lig_0>
-26.2491

>  <SCORE.INTRA.VDW>
-1.65822

>  <SCORE.INTRA.VDW.0>
2.57239

>  <SCORE.INTRA.norm>
-0.177091

>  <SCORE.RESTR>
0

>  <SCORE.RESTR.CAVITY>
0

>  <SCORE.RESTR.norm>
0

>  <SCORE.SYSTEM>
0

>  <SCORE.SYSTEM.CONST>
0

>  <SCORE.SYSTEM.DIHEDRAL>
0

>  <SCORE.SYSTEM.SOLV>
0

>  <SCORE.SYSTEM.norm>
0

>  <SCORE.heavy>
30

>  <SCORE.norm>
-1.18225

>  <RMSD>
2.211

$$$$
lig.pdb
 OpenBabel11021811523D
libRbt.so/2013.1/901 2013/11/27
 30 34  0  0  0  0  0  0  0  0999 V2000
   24.9162   36.7108   20.2314 N   0  0  0  0  0  0  0  0  0  0  0  0
   26.4182   40.0642   23.5490 N   0  0  0  0  0  0  0  0  0  0  0  0
   24.6576   37.1360   18.8523 C   0  0  0  0  0  0  0  0  0  0  0  0
   25.2713   35.9938   18.0566 C   0  0  2  0  0  0  0  0  0  0  0  0
   24.6340   37.6083   21.3460 C   0  0  0  0  0  0  0  0  0  0  0  0
   23.3595   37.7473   21.9326 C   0  0  0  0  0  0  0  0  0  0  0  0
   23.0842   38.6117   22.9627 C   0  0  0  0  0  0  0  0  0  0  0  0
   23.7842   40.3926   24.5664 C   0  0  0  0  0  0  0  0  0  0  0  0
   28.5801   40.6281   23.9101 C   0  0  0  0  0  0  0  0  0  0  0  0
   27.9927   38.6706   22.3150 C   0  0  0  0  0  0  0  0  0  0  0  0
   25.6718   38.4135   21.8944 C   0  0  0  0  0  0  0  0  0  0  0  0
   25.4729   42.4256   27.0046 O   0  0  0  0  0  0  0  0  0  0  0  0
   24.6769   42.2595   26.0778 C   0  0  0  0  0  0  0  0  0  0  0  0
   23.5623   42.9703   25.9580 O   0  0  0  0  0  0  0  0  0  0  0  0
   24.9222   41.2225   25.0406 C   0  0  1  0  0  0  0  0  0  0  0  0
   22.6526   40.4697   25.0568 O   0  0  0  0  0  0  0  0  0  0  0  0
   26.2194   41.0273   24.5354 C   0  0  0  0  0  0  0  0  0  0  0  0
   27.7608   39.8270   23.2224 C   0  0  0  0  0  0  0  0  0  0  0  0
   27.7441   41.6647   24.9908 S   0  0  0  0  0  0  0  0  0  0  0  0
   25.3943   39.2876   22.9699 C   0  0  0  0  0  0  0  0  0  0  0  0
   24.0967   39.4135   23.4892 C   0  0  0  0  0  0  0  0  0  0  0  0
   22.3498   36.9747   21.4842 F   0  0  0  0  0  0  0  0  0  0  0  0
   26.9583   38.3992   21.3331 N   0  0  0  0  0  0  0  0  0  0  0  0
   27.0099   39.2040   20.1312 C   0  0  0  0  0  0  0  0  0  0  0  0
   25.9981   35.7347   20.2954 C   0  0  0  0  0  0  0  0  0  0  0  0
   24.3150   35.3844   17.1883 O   0  0  0  0  0  0  0  0  0  0  0  0
   25.6573   34.9133   19.0634 C   0  0  2  0  0  0  0  0  0  0  0  0
   26.7513   34.1107   18.4841 N   0  0  0  0  0  0  0  0  0  0  0  0
   27.5877   33.3894   19.4605 C   0  0  0  0  0  0  0  0  0  0  0  0
   26.3129   33.2476   17.3765 C   0  0  0  0  0  0  0  0  0  0  0  0
  1  5  1  0  0  0  0
  2 17  1  0  0  0  0
  3  1  1  0  0  0  0
  4  3  1  0  0  0  0
  4 26  1  6  0  0  0
  5 11  2  0  0  0  0
  5  6  1  0  0  0  0
  6  7  2  0  0  0  0
  7 21  1  0  0  0  0
  8 15  1  0  0  0  0
  8 16  2  0  0  0  0
  9 19  1  0  0  0  0
 10 18  1  0  0  0  0
 11 20  1  0  0  0  0
 13 14  1  0  0  0  0
 13 12  2  0  0  0  0
 15 13  1  1  0  0  0
 17 19  2  0  0  0  0
 17 15  1  0  0  0  0
 18  2  1  0  0  0  0
 18  9  2  0  0  0  0
 20 21  2  0  0  0  0
 20  2  1  0  0  0  0
 21  8  1  0  0  0  0
 22  6  1  0  0  0  0
 23 11  1  0  0  0  0
 23 10  1  0  0  0  0
 24 23  1  0  0  0  0
 25  1  1  0  0  0  0
 27  4  1  0  0  0  0
 27 25  1  0  0  0  0
 27 28  1  6  0  0  0
 29 28  1  0  0  0  0
 30 28  1  0  0  0  0
M  END
>  <CHROM.1>
83.85244239,0.49397848,138.31861637,64.51774085,157.40433216,25.51166352
38.55429217,22.16489116,1.54368328,-0.05776299,-2.34954649

>  <Name>
lig.pdb

>  <RI>
0

>  <Rbt.Current_Directory>
/home/itssahil/PROJECTS/Mol_Feturizer/New_Systems/rnas/6bfb

>  <Rbt.Executable>
rbdock ($Id: //depot/dev/client3/rdock/2013.1/src/exe/rbdock.cxx#4 $)

>  <Rbt.Library>
libRbt.so (2013.1, Build901 2013/11/27)

>  <Rbt.Parameter_File>
/export/apps/rDock/src/rDock_2013.1_src/data/scripts/dock_solv.prm

>  <Rbt.Receptor>
prm/blind_docking_60.prm

>  <SCORE>
-39.9651

>  <SCORE.INTER>
-34.3518

>  <SCORE.INTER.CONST>
1

>  <SCORE.INTER.POLAR>
-0.848528

>  <SCORE.INTER.ROT>
3

>  <SCORE.INTER.SOLV>
13.3783

>  <SCORE.INTER.VDW>
-30.1322

>  <SCORE.INTER.norm>
-1.14506

>  <SCORE.INTRA>
-5.61333

>  <SCORE.INTRA.DIHEDRAL>
-7.23297

>  <SCORE.INTRA.DIHEDRAL.0>
9.41909

>  <SCORE.INTRA.POLAR>
0

>  <SCORE.INTRA.POLAR.0>
0

>  <SCORE.INTRA.REPUL>
0

>  <SCORE.INTRA.REPUL.0>
0

>  <SCORE.INTRA.SOLV>
-0.00285975

>  <SCORE.INTRA.SOLV.lig_0>
-26.2491

>  <SCORE.INTRA.VDW>
-1.99542

>  <SCORE.INTRA.VDW.0>
2.57239

>  <SCORE.INTRA.norm>
-0.187111

>  <SCORE.RESTR>
0

>  <SCORE.RESTR.CAVITY>
0

>  <SCORE.RESTR.norm>
0

>  <SCORE.SYSTEM>
0

>  <SCORE.SYSTEM.CONST>
0

>  <SCORE.SYSTEM.DIHEDRAL>
0

>  <SCORE.SYSTEM.SOLV>
0

>  <SCORE.SYSTEM.norm>
0

>  <SCORE.heavy>
30

>  <SCORE.norm>
-1.33217

>  <RMSD>
2.215

$$$$
lig.pdb
 OpenBabel11021811523D
libRbt.so/2013.1/901 2013/11/27
 30 34  0  0  0  0  0  0  0  0999 V2000
   25.1608   36.7820   20.0803 N   0  0  0  0  0  0  0  0  0  0  0  0
   26.1943   40.3102   23.3956 N   0  0  0  0  0  0  0  0  0  0  0  0
   24.8775   37.1492   18.6895 C   0  0  0  0  0  0  0  0  0  0  0  0
   25.6412   36.0782   17.9253 C   0  0  2  0  0  0  0  0  0  0  0  0
   24.7501   37.6563   21.1732 C   0  0  0  0  0  0  0  0  0  0  0  0
   23.4500   37.6659   21.7184 C   0  0  0  0  0  0  0  0  0  0  0  0
   23.0524   38.5071   22.7275 C   0  0  0  0  0  0  0  0  0  0  0  0
   23.5092   40.3689   24.3272 C   0  0  0  0  0  0  0  0  0  0  0  0
   28.2721   41.1033   23.8151 C   0  0  0  0  0  0  0  0  0  0  0  0
   27.9455   39.0780   22.2299 C   0  0  0  0  0  0  0  0  0  0  0  0
   25.6793   38.5724   21.7420 C   0  0  0  0  0  0  0  0  0  0  0  0
   23.6278   43.3989   25.4998 O   0  0  0  0  0  0  0  0  0  0  0  0
   24.1515   42.3356   25.8392 C   0  0  0  0  0  0  0  0  0  0  0  0
   24.4151   42.0421   27.1067 O   0  0  0  0  0  0  0  0  0  0  0  0
   24.5376   41.3194   24.8244 C   0  0  1  0  0  0  0  0  0  0  0  0
   22.3606   40.3310   24.7815 O   0  0  0  0  0  0  0  0  0  0  0  0
   25.8637   41.2572   24.3620 C   0  0  0  0  0  0  0  0  0  0  0  0
   27.5641   40.2129   23.1136 C   0  0  0  0  0  0  0  0  0  0  0  0
   27.2974   42.0570   24.8552 S   0  0  0  0  0  0  0  0  0  0  0  0
   25.2770   39.4236   22.7962 C   0  0  0  0  0  0  0  0  0  0  0  0
   23.9574   39.4170   23.2737 C   0  0  0  0  0  0  0  0  0  0  0  0
   22.5421   36.7861   21.2500 F   0  0  0  0  0  0  0  0  0  0  0  0
   26.9773   38.6884   21.2206 N   0  0  0  0  0  0  0  0  0  0  0  0
   26.9823   39.4814   20.0099 C   0  0  0  0  0  0  0  0  0  0  0  0
   26.3529   35.9476   20.1801 C   0  0  0  0  0  0  0  0  0  0  0  0
   24.7831   35.3415   17.0531 O   0  0  0  0  0  0  0  0  0  0  0  0
   26.1382   35.0702   18.9583 C   0  0  2  0  0  0  0  0  0  0  0  0
   27.3329   34.3987   18.4120 N   0  0  0  0  0  0  0  0  0  0  0  0
   28.4882   35.2786   18.1579 C   0  0  0  0  0  0  0  0  0  0  0  0
   27.7060   33.1851   19.1547 C   0  0  0  0  0  0  0  0  0  0  0  0
  1  5  1  0  0  0  0
  2 17  1  0  0  0  0
  3  1  1  0  0  0  0
  4  3  1  0  0  0  0
  4 26  1  6  0  0  0
  5 11  2  0  0  0  0
  5  6  1  0  0  0  0
  6  7  2  0  0  0  0
  7 21  1  0  0  0  0
  8 15  1  0  0  0  0
  8 16  2  0  0  0  0
  9 19  1  0  0  0  0
 10 18  1  0  0  0  0
 11 20  1  0  0  0  0
 13 14  1  0  0  0  0
 13 12  2  0  0  0  0
 15 13  1  1  0  0  0
 17 19  2  0  0  0  0
 17 15  1  0  0  0  0
 18  2  1  0  0  0  0
 18  9  2  0  0  0  0
 20 21  2  0  0  0  0
 20  2  1  0  0  0  0
 21  8  1  0  0  0  0
 22  6  1  0  0  0  0
 23 11  1  0  0  0  0
 23 10  1  0  0  0  0
 24 23  1  0  0  0  0
 25  1  1  0  0  0  0
 27  4  1  0  0  0  0
 27 25  1  0  0  0  0
 27 28  1  6  0  0  0
 29 28  1  0  0  0  0
 30 28  1  0  0  0  0
M  END
>  <CHROM.1>
82.53937261,-179.18647195,-83.66051103,67.22186634,63.03046595,25.54202557
38.73351299,22.03150808,1.43219810,-0.14037077,-2.36449718

>  <Name>
lig.pdb

>  <RI>
0

>  <Rbt.Current_Directory>
/home/itssahil/PROJECTS/Mol_Feturizer/New_Systems/rnas/6bfb

>  <Rbt.Executable>
rbdock ($Id: //depot/dev/client3/rdock/2013.1/src/exe/rbdock.cxx#4 $)

>  <Rbt.Library>
libRbt.so (2013.1, Build901 2013/11/27)

>  <Rbt.Parameter_File>
/export/apps/rDock/src/rDock_2013.1_src/data/scripts/dock_solv.prm

>  <Rbt.Receptor>
prm/blind_docking_60.prm

>  <SCORE>
-40.5005

>  <SCORE.INTER>
-34.4241

>  <SCORE.INTER.CONST>
1

>  <SCORE.INTER.POLAR>
-1.42232

>  <SCORE.INTER.ROT>
3

>  <SCORE.INTER.SOLV>
12.5096

>  <SCORE.INTER.VDW>
-27.9782

>  <SCORE.INTER.norm>
-1.14747

>  <SCORE.INTRA>
-6.07642

>  <SCORE.INTRA.DIHEDRAL>
-7.37853

>  <SCORE.INTRA.DIHEDRAL.0>
9.41909

>  <SCORE.INTRA.POLAR>
0

>  <SCORE.INTRA.POLAR.0>
0

>  <SCORE.INTRA.REPUL>
0

>  <SCORE.INTRA.REPUL.0>
0

>  <SCORE.INTRA.SOLV>
-0.221703

>  <SCORE.INTRA.SOLV.lig_0>
-26.2491

>  <SCORE.INTRA.VDW>
-2.2763

>  <SCORE.INTRA.VDW.0>
2.57239

>  <SCORE.INTRA.norm>
-0.202547

>  <SCORE.RESTR>
0

>  <SCORE.RESTR.CAVITY>
0

>  <SCORE.RESTR.norm>
0

>  <SCORE.SYSTEM>
0

>  <SCORE.SYSTEM.CONST>
0

>  <SCORE.SYSTEM.DIHEDRAL>
0

>  <SCORE.SYSTEM.SOLV>
0

>  <SCORE.SYSTEM.norm>
0

>  <SCORE.heavy>
30

>  <SCORE.norm>
-1.35002

>  <RMSD>
2.218

$$$$
lig.pdb
 OpenBabel11021811523D
libRbt.so/2013.1/901 2013/11/27
 30 34  0  0  0  0  0  0  0  0999 V2000
   25.1660   36.7683   20.0843 N   0  0  0  0  0  0  0  0  0  0  0  0
   26.2484   40.2689   23.4132 N   0  0  0  0  0  0  0  0  0  0  0  0
   24.8815   37.1363   18.6939 C   0  0  0  0  0  0  0  0  0  0  0  0
   25.6336   36.0579   17.9286 C   0  0  2  0  0  0  0  0  0  0  0  0
   24.7663   37.6474   21.1774 C   0  0  0  0  0  0  0  0  0  0  0  0
   23.4639   37.6797   21.7164 C   0  0  0  0  0  0  0  0  0  0  0  0
   23.0770   38.5257   22.7256 C   0  0  0  0  0  0  0  0  0  0  0  0
   23.5604   40.3749   24.3321 C   0  0  0  0  0  0  0  0  0  0  0  0
   28.3385   41.0225   23.8446 C   0  0  0  0  0  0  0  0  0  0  0  0
   27.9822   39.0074   22.2528 C   0  0  0  0  0  0  0  0  0  0  0  0
   25.7094   38.5449   21.7528 C   0  0  0  0  0  0  0  0  0  0  0  0
   23.7410   43.4045   25.5120 O   0  0  0  0  0  0  0  0  0  0  0  0
   24.2315   42.3257   25.8521 C   0  0  0  0  0  0  0  0  0  0  0  0
   24.4706   42.0185   27.1212 O   0  0  0  0  0  0  0  0  0  0  0  0
   24.6038   41.3051   24.8366 C   0  0  1  0  0  0  0  0  0  0  0  0
   22.4092   40.3572   24.7808 O   0  0  0  0  0  0  0  0  0  0  0  0
   25.9307   41.2195   24.3804 C   0  0  0  0  0  0  0  0  0  0  0  0
   27.6176   40.1470   23.1375 C   0  0  0  0  0  0  0  0  0  0  0  0
   27.3765   41.9916   24.8824 S   0  0  0  0  0  0  0  0  0  0  0  0
   25.3178   39.4008   22.8072 C   0  0  0  0  0  0  0  0  0  0  0  0
   23.9960   39.4175   23.2784 C   0  0  0  0  0  0  0  0  0  0  0  0
   22.5423   36.8180   21.2414 F   0  0  0  0  0  0  0  0  0  0  0  0
   27.0119   38.6381   21.2379 N   0  0  0  0  0  0  0  0  0  0  0  0
   27.0373   39.4339   20.0292 C   0  0  0  0  0  0  0  0  0  0  0  0
   26.3513   35.9239   20.1813 C   0  0  0  0  0  0  0  0  0  0  0  0
   24.7664   35.3275   17.0601 O   0  0  0  0  0  0  0  0  0  0  0  0
   26.1252   35.0469   18.9613 C   0  0  2  0  0  0  0  0  0  0  0  0
   27.3124   34.3646   18.4120 N   0  0  0  0  0  0  0  0  0  0  0  0
   28.4409   35.2473   18.0648 C   0  0  0  0  0  0  0  0  0  0  0  0
   27.7347   33.2036   19.2106 C   0  0  0  0  0  0  0  0  0  0  0  0
  1  5  1  0  0  0  0
  2 17  1  0  0  0  0
  3  1  1  0  0  0  0
  4  3  1  0  0  0  0
  4 26  1  6  0  0  0
  5 11  2  0  0  0  0
  5  6  1  0  0  0  0
  6  7  2  0  0  0  0
  7 21  1  0  0  0  0
  8 15  1  0  0  0  0
  8 16  2  0  0  0  0
  9 19  1  0  0  0  0
 10 18  1  0  0  0  0
 11 20  1  0  0  0  0
 13 14  1  0  0  0  0
 13 12  2  0  0  0  0
 15 13  1  1  0  0  0
 17 19  2  0  0  0  0
 17 15  1  0  0  0  0
 18  2  1  0  0  0  0
 18  9  2  0  0  0  0
 20 21  2  0  0  0  0
 20  2  1  0  0  0  0
 21  8  1  0  0  0  0
 22  6  1  0  0  0  0
 23 11  1  0  0  0  0
 23 10  1  0  0  0  0
 24 23  1  0  0  0  0
 25  1  1  0  0  0  0
 27  4  1  0  0  0  0
 27 25  1  0  0  0  0
 27 28  1  6  0  0  0
 29 28  1  0  0  0  0
 30 28  1  0  0  0  0
M  END
>  <CHROM.1>
81.78169686,-179.45108489,-84.35250275,64.42362047,58.92791565,25.57506503
38.71187638,22.03988273,1.44093828,-0.12488558,-2.35865236

>  <Name>
lig.pdb

>  <RI>
0

>  <Rbt.Current_Directory>
/home/itssahil/PROJECTS/Mol_Feturizer/New_Systems/rnas/6bfb

>  <Rbt.Executable>
rbdock ($Id: //depot/dev/client3/rdock/2013.1/src/exe/rbdock.cxx#4 $)

>  <Rbt.Library>
libRbt.so (2013.1, Build901 2013/11/27)

>  <Rbt.Parameter_File>
/export/apps/rDock/src/rDock_2013.1_src/data/scripts/dock_solv.prm

>  <Rbt.Receptor>
prm/pocket_docking_6.prm

>  <SCORE>
-40.6452

>  <SCORE.INTER>
-34.6821

>  <SCORE.INTER.CONST>
1

>  <SCORE.INTER.POLAR>
-1.39432

>  <SCORE.INTER.ROT>
3

>  <SCORE.INTER.SOLV>
12.6515

>  <SCORE.INTER.VDW>
-28.2909

>  <SCORE.INTER.norm>
-1.15607

>  <SCORE.INTRA>
-5.96305

>  <SCORE.INTRA.DIHEDRAL>
-7.61624

>  <SCORE.INTRA.DIHEDRAL.0>
9.41909

>  <SCORE.INTRA.POLAR>
0

>  <SCORE.INTRA.POLAR.0>
0

>  <SCORE.INTRA.REPUL>
0

>  <SCORE.INTRA.REPUL.0>
0

>  <SCORE.INTRA.SOLV>
-0.215185

>  <SCORE.INTRA.SOLV.lig_0>
-26.2491

>  <SCORE.INTRA.VDW>
-2.04734

>  <SCORE.INTRA.VDW.0>
2.57239

>  <SCORE.INTRA.norm>
-0.198768

>  <SCORE.RESTR>
0

>  <SCORE.RESTR.CAVITY>
0

>  <SCORE.RESTR.norm>
0

>  <SCORE.SYSTEM>
0

>  <SCORE.SYSTEM.CONST>
0

>  <SCORE.SYSTEM.DIHEDRAL>
0

>  <SCORE.SYSTEM.SOLV>
0

>  <SCORE.SYSTEM.norm>
0

>  <SCORE.heavy>
30

>  <SCORE.norm>
-1.35484

>  <RMSD>
2.219

$$$$
lig.pdb
 OpenBabel11021811523D
libRbt.so/2013.1/901 2013/11/27
 30 34  0  0  0  0  0  0  0  0999 V2000
   27.2769   39.5690   20.8851 N   0  0  0  0  0  0  0  0  0  0  0  0
   26.5433   42.0665   25.0959 N   0  0  0  0  0  0  0  0  0  0  0  0
   28.1306   38.3772   20.9023 C   0  0  0  0  0  0  0  0  0  0  0  0
   28.6339   38.3368   19.4672 C   0  0  2  0  0  0  0  0  0  0  0  0
   26.4451   39.8982   22.0371 C   0  0  0  0  0  0  0  0  0  0  0  0
   25.1722   39.3371   22.2663 C   0  0  0  0  0  0  0  0  0  0  0  0
   24.3749   39.6659   23.3341 C   0  0  0  0  0  0  0  0  0  0  0  0
   23.9247   41.0016   25.3950 C   0  0  0  0  0  0  0  0  0  0  0  0
   28.1245   43.3012   26.1439 C   0  0  0  0  0  0  0  0  0  0  0  0
   28.7523   41.8544   24.0863 C   0  0  0  0  0  0  0  0  0  0  0  0
   26.9017   40.8409   23.0010 C   0  0  0  0  0  0  0  0  0  0  0  0
   22.4712   42.0918   27.5908 O   0  0  0  0  0  0  0  0  0  0  0  0
   23.6189   42.5160   27.4395 C   0  0  0  0  0  0  0  0  0  0  0  0
   24.1530   43.4312   28.2390 O   0  0  0  0  0  0  0  0  0  0  0  0
   24.4695   42.0277   26.3216 C   0  0  1  0  0  0  0  0  0  0  0  0
   22.8203   40.4725   25.5605 O   0  0  0  0  0  0  0  0  0  0  0  0
   25.7751   42.5244   26.1638 C   0  0  0  0  0  0  0  0  0  0  0  0
   27.8795   42.4907   25.1098 C   0  0  0  0  0  0  0  0  0  0  0  0
   26.7494   43.5423   27.1401 S   0  0  0  0  0  0  0  0  0  0  0  0
   26.0909   41.1635   24.1128 C   0  0  0  0  0  0  0  0  0  0  0  0
   24.8142   40.6023   24.2699 C   0  0  0  0  0  0  0  0  0  0  0  0
   24.7096   38.4036   21.4107 F   0  0  0  0  0  0  0  0  0  0  0  0
   28.1244   41.5072   22.8240 N   0  0  0  0  0  0  0  0  0  0  0  0
   27.9935   42.5894   21.8719 C   0  0  0  0  0  0  0  0  0  0  0  0
   26.8683   39.9136   19.5280 C   0  0  0  0  0  0  0  0  0  0  0  0
   30.0607   38.3632   19.4092 O   0  0  0  0  0  0  0  0  0  0  0  0
   28.1730   39.6313   18.8024 C   0  0  2  0  0  0  0  0  0  0  0  0
   28.0804   39.3973   17.3487 N   0  0  0  0  0  0  0  0  0  0  0  0
   27.1573   40.2904   16.6251 C   0  0  0  0  0  0  0  0  0  0  0  0
   29.3934   39.2988   16.6929 C   0  0  0  0  0  0  0  0  0  0  0  0
  1  5  1  0  0  0  0
  2 17  1  0  0  0  0
  3  1  1  0  0  0  0
  4  3  1  0  0  0  0
  4 26  1  1  0  0  0
  5 11  2  0  0  0  0
  5  6  1  0  0  0  0
  6  7  2  0  0  0  0
  7 21  1  0  0  0  0
  8 15  1  0  0  0  0
  8 16  2  0  0  0  0
  9 19  1  0  0  0  0
 10 18  1  0  0  0  0
 11 20  1  0  0  0  0
 13 14  1  0  0  0  0
 13 12  2  0  0  0  0
 15 13  1  1  0  0  0
 17 19  2  0  0  0  0
 17 15  1  0  0  0  0
 18  2  1  0  0  0  0
 18  9  2  0  0  0  0
 20 21  2  0  0  0  0
 20  2  1  0  0  0  0
 21  8  1  0  0  0  0
 22  6  1  0  0  0  0
 23 11  1  0  0  0  0
 23 10  1  0  0  0  0
 24 23  1  0  0  0  0
 25  1  1  0  0  0  0
 27  4  1  0  0  0  0
 27 25  1  0  0  0  0
 27 28  1  6  0  0  0
 29 28  1  0  0  0  0
 30 28  1  0  0  0  0
M  END
>  <CHROM.1>
-83.61554346,2.08634793,-0.89894072,67.78898636,155.71135128,26.46494883
40.89444601,23.08135711,1.17773898,-0.38656083,-2.10463400

>  <Name>
lig.pdb

>  <RI>
0

>  <Rbt.Current_Directory>
/home/itssahil/PROJECTS/Mol_Feturizer/New_Systems/rnas/6bfb

>  <Rbt.Executable>
rbdock ($Id: //depot/dev/client3/rdock/2013.1/src/exe/rbdock.cxx#4 $)

>  <Rbt.Library>
libRbt.so (2013.1, Build901 2013/11/27)

>  <Rbt.Parameter_File>
/export/apps/rDock/src/rDock_2013.1_src/data/scripts/dock_solv.prm

>  <Rbt.Receptor>
prm/pocket_docking_6.prm

>  <SCORE>
-35.0543

>  <SCORE.INTER>
-30.4751

>  <SCORE.INTER.CONST>
1

>  <SCORE.INTER.POLAR>
-0.959166

>  <SCORE.INTER.ROT>
3

>  <SCORE.INTER.SOLV>
11.1017

>  <SCORE.INTER.VDW>
-26.4201

>  <SCORE.INTER.norm>
-1.01584

>  <SCORE.INTRA>
-4.57921

>  <SCORE.INTRA.DIHEDRAL>
-6.93888

>  <SCORE.INTRA.DIHEDRAL.0>
9.41909

>  <SCORE.INTRA.POLAR>
0

>  <SCORE.INTRA.POLAR.0>
0

>  <SCORE.INTRA.REPUL>
0.0966608

>  <SCORE.INTRA.REPUL.0>
0

>  <SCORE.INTRA.SOLV>
-0.137345

>  <SCORE.INTRA.SOLV.lig_0>
-26.2491

>  <SCORE.INTRA.VDW>
-1.5244

>  <SCORE.INTRA.VDW.0>
2.57239

>  <SCORE.INTRA.norm>
-0.15264

>  <SCORE.RESTR>
0

>  <SCORE.RESTR.CAVITY>
0

>  <SCORE.RESTR.norm>
0

>  <SCORE.SYSTEM>
0

>  <SCORE.SYSTEM.CONST>
0

>  <SCORE.SYSTEM.DIHEDRAL>
0

>  <SCORE.SYSTEM.SOLV>
0

>  <SCORE.SYSTEM.norm>
0

>  <SCORE.heavy>
30

>  <SCORE.norm>
-1.16848

>  <RMSD>
2.236

$$$$
lig.pdb
 OpenBabel11021811523D
libRbt.so/2013.1/901 2013/11/27
 30 34  0  0  0  0  0  0  0  0999 V2000
   24.9757   36.6570   20.2106 N   0  0  0  0  0  0  0  0  0  0  0  0
   26.4186   40.0212   23.5434 N   0  0  0  0  0  0  0  0  0  0  0  0
   24.7677   37.0859   18.8242 C   0  0  0  0  0  0  0  0  0  0  0  0
   25.3872   35.9336   18.0479 C   0  0  2  0  0  0  0  0  0  0  0  0
   24.6734   37.5594   21.3159 C   0  0  0  0  0  0  0  0  0  0  0  0
   23.3879   37.7029   21.8770 C   0  0  0  0  0  0  0  0  0  0  0  0
   23.0942   38.5718   22.8981 C   0  0  0  0  0  0  0  0  0  0  0  0
   23.7659   40.3580   24.5081 C   0  0  0  0  0  0  0  0  0  0  0  0
   28.5741   40.5831   23.9443 C   0  0  0  0  0  0  0  0  0  0  0  0
   28.0145   38.6202   22.3459 C   0  0  0  0  0  0  0  0  0  0  0  0
   25.7017   38.3651   21.8812 C   0  0  0  0  0  0  0  0  0  0  0  0
   25.3424   42.3192   27.0330 O   0  0  0  0  0  0  0  0  0  0  0  0
   24.6322   42.2295   26.0292 C   0  0  0  0  0  0  0  0  0  0  0  0
   23.5958   43.0304   25.8139 O   0  0  0  0  0  0  0  0  0  0  0  0
   24.8958   41.1879   25.0010 C   0  0  1  0  0  0  0  0  0  0  0  0
   22.6251   40.4389   24.9761 O   0  0  0  0  0  0  0  0  0  0  0  0
   26.2023   40.9886   24.5220 C   0  0  0  0  0  0  0  0  0  0  0  0
   27.7669   39.7805   23.2439 C   0  0  0  0  0  0  0  0  0  0  0  0
   27.7190   41.6253   25.0044 S   0  0  0  0  0  0  0  0  0  0  0  0
   25.4049   39.2439   22.9476 C   0  0  0  0  0  0  0  0  0  0  0  0
   24.0976   39.3741   23.4411 C   0  0  0  0  0  0  0  0  0  0  0  0
   22.3858   36.9301   21.4121 F   0  0  0  0  0  0  0  0  0  0  0  0
   26.9988   38.3465   21.3450 N   0  0  0  0  0  0  0  0  0  0  0  0
   27.0752   39.1464   20.1413 C   0  0  0  0  0  0  0  0  0  0  0  0
   26.0388   35.6633   20.3084 C   0  0  0  0  0  0  0  0  0  0  0  0
   24.4487   35.3396   17.1498 O   0  0  0  0  0  0  0  0  0  0  0  0
   25.7234   34.8472   19.0662 C   0  0  2  0  0  0  0  0  0  0  0  0
   26.8217   34.0265   18.5214 N   0  0  0  0  0  0  0  0  0  0  0  0
   27.5948   33.2666   19.5206 C   0  0  0  0  0  0  0  0  0  0  0  0
   26.4120   33.1946   17.3795 C   0  0  0  0  0  0  0  0  0  0  0  0
  1  5  1  0  0  0  0
  2 17  1  0  0  0  0
  3  1  1  0  0  0  0
  4  3  1  0  0  0  0
  4 26  1  6  0  0  0
  5 11  2  0  0  0  0
  5  6  1  0  0  0  0
  6  7  2  0  0  0  0
  7 21  1  0  0  0  0
  8 15  1  0  0  0  0
  8 16  2  0  0  0  0
  9 19  1  0  0  0  0
 10 18  1  0  0  0  0
 11 20  1  0  0  0  0
 13 14  1  0  0  0  0
 13 12  2  0  0  0  0
 15 13  1  1  0  0  0
 17 19  2  0  0  0  0
 17 15  1  0  0  0  0
 18  2  1  0  0  0  0
 18  9  2  0  0  0  0
 20 21  2  0  0  0  0
 20  2  1  0  0  0  0
 21  8  1  0  0  0  0
 22  6  1  0  0  0  0
 23 11  1  0  0  0  0
 23 10  1  0  0  0  0
 24 23  1  0  0  0  0
 25  1  1  0  0  0  0
 27  4  1  0  0  0  0
 27 25  1  0  0  0  0
 27 28  1  6  0  0  0
 29 28  1  0  0  0  0
 30 28  1  0  0  0  0
M  END
>  <CHROM.1>
84.96924606,179.97350227,131.74943687,64.56139366,158.80142847,25.53416561
38.50395689,22.14402145,1.53218262,-0.04120056,-2.35522109

>  <Name>
lig.pdb

>  <RI>
0

>  <Rbt.Current_Directory>
/home/itssahil/PROJECTS/Mol_Feturizer/New_Systems/rnas/6bfb

>  <Rbt.Executable>
rbdock ($Id: //depot/dev/client3/rdock/2013.1/src/exe/rbdock.cxx#4 $)

>  <Rbt.Library>
libRbt.so (2013.1, Build901 2013/11/27)

>  <Rbt.Parameter_File>
/export/apps/rDock/src/rDock_2013.1_src/data/scripts/dock_solv.prm

>  <Rbt.Receptor>
prm/blind_docking_80.prm

>  <SCORE>
-39.5992

>  <SCORE.INTER>
-34.3558

>  <SCORE.INTER.CONST>
1

>  <SCORE.INTER.POLAR>
-0.848528

>  <SCORE.INTER.ROT>
3

>  <SCORE.INTER.SOLV>
13.679

>  <SCORE.INTER.VDW>
-30.2351

>  <SCORE.INTER.norm>
-1.14519

>  <SCORE.INTRA>
-5.24339

>  <SCORE.INTRA.DIHEDRAL>
-7.2881

>  <SCORE.INTRA.DIHEDRAL.0>
9.41909

>  <SCORE.INTRA.POLAR>
0

>  <SCORE.INTRA.POLAR.0>
0

>  <SCORE.INTRA.REPUL>
0

>  <SCORE.INTRA.REPUL.0>
0

>  <SCORE.INTRA.SOLV>
-0.00801132

>  <SCORE.INTRA.SOLV.lig_0>
-26.2491

>  <SCORE.INTRA.VDW>
-1.59534

>  <SCORE.INTRA.VDW.0>
2.57239

>  <SCORE.INTRA.norm>
-0.17478

>  <SCORE.RESTR>
0

>  <SCORE.RESTR.CAVITY>
0

>  <SCORE.RESTR.norm>
0

>  <SCORE.SYSTEM>
0

>  <SCORE.SYSTEM.CONST>
0

>  <SCORE.SYSTEM.DIHEDRAL>
0

>  <SCORE.SYSTEM.SOLV>
0

>  <SCORE.SYSTEM.norm>
0

>  <SCORE.heavy>
30

>  <SCORE.norm>
-1.31997

>  <RMSD>
2.252

$$$$
lig.pdb
 OpenBabel11021811523D
libRbt.so/2013.1/901 2013/11/27
 30 34  0  0  0  0  0  0  0  0999 V2000
   26.6830   39.4133   19.5479 N   0  0  0  0  0  0  0  0  0  0  0  0
   26.8593   42.0917   23.7075 N   0  0  0  0  0  0  0  0  0  0  0  0
   26.5330   40.2484   18.3523 C   0  0  0  0  0  0  0  0  0  0  0  0
   27.4479   39.5405   17.3641 C   0  0  2  0  0  0  0  0  0  0  0  0
   26.0947   39.8278   20.8166 C   0  0  0  0  0  0  0  0  0  0  0  0
   24.8602   39.3464   21.2986 C   0  0  0  0  0  0  0  0  0  0  0  0
   24.2903   39.7556   22.4782 C   0  0  0  0  0  0  0  0  0  0  0  0
   24.2925   41.1846   24.5256 C   0  0  0  0  0  0  0  0  0  0  0  0
   28.6642   43.2723   24.3941 C   0  0  0  0  0  0  0  0  0  0  0  0
   28.8315   41.7226   22.3225 C   0  0  0  0  0  0  0  0  0  0  0  0
   26.7660   40.7764   21.6386 C   0  0  0  0  0  0  0  0  0  0  0  0
   23.9611   42.0502   27.3893 O   0  0  0  0  0  0  0  0  0  0  0  0
   24.4421   42.7834   26.5226 C   0  0  0  0  0  0  0  0  0  0  0  0
   24.4351   44.1070   26.6229 O   0  0  0  0  0  0  0  0  0  0  0  0
   25.0476   42.2104   25.2912 C   0  0  1  0  0  0  0  0  0  0  0  0
   23.2134   40.7236   24.9128 O   0  0  0  0  0  0  0  0  0  0  0  0
   26.3241   42.6282   24.8762 C   0  0  0  0  0  0  0  0  0  0  0  0
   28.1941   42.4414   23.4588 C   0  0  0  0  0  0  0  0  0  0  0  0
   27.5095   43.6236   25.6126 S   0  0  0  0  0  0  0  0  0  0  0  0
   26.1905   41.1817   22.8641 C   0  0  0  0  0  0  0  0  0  0  0  0
   24.9391   40.6979   23.2759 C   0  0  0  0  0  0  0  0  0  0  0  0
   24.2035   38.4109   20.5837 F   0  0  0  0  0  0  0  0  0  0  0  0
   27.9657   41.3673   21.2124 N   0  0  0  0  0  0  0  0  0  0  0  0
   27.7139   42.4216   20.2532 C   0  0  0  0  0  0  0  0  0  0  0  0
   27.9100   38.6262   19.4991 C   0  0  0  0  0  0  0  0  0  0  0  0
   26.7443   39.1462   16.1854 O   0  0  0  0  0  0  0  0  0  0  0  0
   27.8929   38.2407   18.0295 C   0  0  2  0  0  0  0  0  0  0  0  0
   29.1837   37.8375   17.4397 N   0  0  0  0  0  0  0  0  0  0  0  0
   30.3184   38.7296   17.7394 C   0  0  0  0  0  0  0  0  0  0  0  0
   29.5087   36.4215   17.6698 C   0  0  0  0  0  0  0  0  0  0  0  0
  1  5  1  0  0  0  0
  2 17  1  0  0  0  0
  3  1  1  0  0  0  0
  4  3  1  0  0  0  0
  4 26  1  6  0  0  0
  5 11  2  0  0  0  0
  5  6  1  0  0  0  0
  6  7  2  0  0  0  0
  7 21  1  0  0  0  0
  8 15  1  0  0  0  0
  8 16  2  0  0  0  0
  9 19  1  0  0  0  0
 10 18  1  0  0  0  0
 11 20  1  0  0  0  0
 13 14  1  0  0  0  0
 13 12  2  0  0  0  0
 15 13  1  1  0  0  0
 17 19  2  0  0  0  0
 17 15  1  0  0  0  0
 18  2  1  0  0  0  0
 18  9  2  0  0  0  0
 20 21  2  0  0  0  0
 20  2  1  0  0  0  0
 21  8  1  0  0  0  0
 22  6  1  0  0  0  0
 23 11  1  0  0  0  0
 23 10  1  0  0  0  0
 24 23  1  0  0  0  0
 25  1  1  0  0  0  0
 27  4  1  0  0  0  0
 27 25  1  0  0  0  0
 27 28  1  6  0  0  0
 29 28  1  0  0  0  0
 30 28  1  0  0  0  0
M  END
>  <CHROM.1>
98.28404633,-174.82967593,48.75036891,99.80235846,66.95738125,26.58958136
40.78088789,21.95644739,1.25772348,-0.38772074,-2.17698159

>  <Name>
lig.pdb

>  <RI>
0

>  <Rbt.Current_Directory>
/home/itssahil/PROJECTS/Mol_Feturizer/New_Systems/rnas/6bfb

>  <Rbt.Executable>
rbdock ($Id: //depot/dev/client3/rdock/2013.1/src/exe/rbdock.cxx#4 $)

>  <Rbt.Library>
libRbt.so (2013.1, Build901 2013/11/27)

>  <Rbt.Parameter_File>
/export/apps/rDock/src/rDock_2013.1_src/data/scripts/dock_solv.prm

>  <Rbt.Receptor>
prm/blind_docking_80.prm

>  <SCORE>
-33.4505

>  <SCORE.INTER>
-30.3574

>  <SCORE.INTER.CONST>
1

>  <SCORE.INTER.POLAR>
-1.82668

>  <SCORE.INTER.ROT>
3

>  <SCORE.INTER.SOLV>
12.4921

>  <SCORE.INTER.VDW>
-23.9134

>  <SCORE.INTER.norm>
-1.01191

>  <SCORE.INTRA>
-3.09305

>  <SCORE.INTRA.DIHEDRAL>
-2.07409

>  <SCORE.INTRA.DIHEDRAL.0>
9.41909

>  <SCORE.INTRA.POLAR>
0

>  <SCORE.INTRA.POLAR.0>
0

>  <SCORE.INTRA.REPUL>
0

>  <SCORE.INTRA.REPUL.0>
0

>  <SCORE.INTRA.SOLV>
-0.184567

>  <SCORE.INTRA.SOLV.lig_0>
-26.2491

>  <SCORE.INTRA.VDW>
-1.96372

>  <SCORE.INTRA.VDW.0>
2.57239

>  <SCORE.INTRA.norm>
-0.103102

>  <SCORE.RESTR>
0

>  <SCORE.RESTR.CAVITY>
0

>  <SCORE.RESTR.norm>
0

>  <SCORE.SYSTEM>
0

>  <SCORE.SYSTEM.CONST>
0

>  <SCORE.SYSTEM.DIHEDRAL>
0

>  <SCORE.SYSTEM.SOLV>
0

>  <SCORE.SYSTEM.norm>
0

>  <SCORE.heavy>
30

>  <SCORE.norm>
-1.11502

>  <RMSD>
2.257

$$$$
lig.pdb
 OpenBabel11021811523D
libRbt.so/2013.1/901 2013/11/27
 30 34  0  0  0  0  0  0  0  0999 V2000
   25.1304   36.7158   20.0763 N   0  0  0  0  0  0  0  0  0  0  0  0
   26.2503   40.2211   23.3878 N   0  0  0  0  0  0  0  0  0  0  0  0
   24.8443   37.0775   18.6846 C   0  0  0  0  0  0  0  0  0  0  0  0
   25.5864   35.9890   17.9237 C   0  0  2  0  0  0  0  0  0  0  0  0
   24.7402   37.6044   21.1652 C   0  0  0  0  0  0  0  0  0  0  0  0
   23.4384   37.6529   21.7045 C   0  0  0  0  0  0  0  0  0  0  0  0
   23.0607   38.5077   22.7097 C   0  0  0  0  0  0  0  0  0  0  0  0
   23.5639   40.3596   24.3070 C   0  0  0  0  0  0  0  0  0  0  0  0
   28.3483   40.9550   23.8148 C   0  0  0  0  0  0  0  0  0  0  0  0
   27.9705   38.9360   22.2331 C   0  0  0  0  0  0  0  0  0  0  0  0
   25.6928   38.4948   21.7360 C   0  0  0  0  0  0  0  0  0  0  0  0
   23.7497   43.3813   25.4742 O   0  0  0  0  0  0  0  0  0  0  0  0
   24.2559   42.3107   25.8172 C   0  0  0  0  0  0  0  0  0  0  0  0
   24.5220   42.0205   27.0849 O   0  0  0  0  0  0  0  0  0  0  0  0
   24.6171   41.2813   24.8066 C   0  0  1  0  0  0  0  0  0  0  0  0
   22.4127   40.3561   24.7561 O   0  0  0  0  0  0  0  0  0  0  0  0
   25.9429   41.1797   24.3505 C   0  0  0  0  0  0  0  0  0  0  0  0
   27.6181   40.0836   23.1123 C   0  0  0  0  0  0  0  0  0  0  0  0
   27.3969   41.9391   24.8482 S   0  0  0  0  0  0  0  0  0  0  0  0
   25.3105   39.3598   22.7863 C   0  0  0  0  0  0  0  0  0  0  0  0
   23.9891   39.3926   23.2579 C   0  0  0  0  0  0  0  0  0  0  0  0
   22.5077   36.7985   21.2340 F   0  0  0  0  0  0  0  0  0  0  0  0
   26.9960   38.5719   21.2203 N   0  0  0  0  0  0  0  0  0  0  0  0
   27.0293   39.3614   20.0077 C   0  0  0  0  0  0  0  0  0  0  0  0
   26.3098   35.8635   20.1750 C   0  0  0  0  0  0  0  0  0  0  0  0
   24.7115   35.2596   17.0621 O   0  0  0  0  0  0  0  0  0  0  0  0
   26.0738   34.9808   18.9610 C   0  0  2  0  0  0  0  0  0  0  0  0
   27.2545   34.2867   18.4124 N   0  0  0  0  0  0  0  0  0  0  0  0
   28.3842   35.1602   18.0463 C   0  0  0  0  0  0  0  0  0  0  0  0
   27.6775   33.1342   19.2227 C   0  0  0  0  0  0  0  0  0  0  0  0
  1  5  1  0  0  0  0
  2 17  1  0  0  0  0
  3  1  1  0  0  0  0
  4  3  1  0  0  0  0
  4 26  1  6  0  0  0
  5 11  2  0  0  0  0
  5  6  1  0  0  0  0
  6  7  2  0  0  0  0
  7 21  1  0  0  0  0
  8 15  1  0  0  0  0
  8 16  2  0  0  0  0
  9 19  1  0  0  0  0
 10 18  1  0  0  0  0
 11 20  1  0  0  0  0
 13 14  1  0  0  0  0
 13 12  2  0  0  0  0
 15 13  1  1  0  0  0
 17 19  2  0  0  0  0
 17 15  1  0  0  0  0
 18  2  1  0  0  0  0
 18  9  2  0  0  0  0
 20 21  2  0  0  0  0
 20  2  1  0  0  0  0
 21  8  1  0  0  0  0
 22  6  1  0  0  0  0
 23 11  1  0  0  0  0
 23 10  1  0  0  0  0
 24 23  1  0  0  0  0
 25  1  1  0  0  0  0
 27  4  1  0  0  0  0
 27 25  1  0  0  0  0
 27 28  1  6  0  0  0
 29 28  1  0  0  0  0
 30 28  1  0  0  0  0
M  END
>  <CHROM.1>
81.53358685,179.22556842,-82.77031229,65.10464595,58.45296399,25.56083895
38.66544623,22.02172567,1.44855268,-0.11682802,-2.36203530

>  <Name>
lig.pdb

>  <RI>
0

>  <Rbt.Current_Directory>
/home/itssahil/PROJECTS/Mol_Feturizer/New_Systems/rnas/6bfb

>  <Rbt.Executable>
rbdock ($Id: //depot/dev/client3/rdock/2013.1/src/exe/rbdock.cxx#4 $)

>  <Rbt.Library>
libRbt.so (2013.1, Build901 2013/11/27)

>  <Rbt.Parameter_File>
/export/apps/rDock/src/rDock_2013.1_src/data/scripts/dock_solv.prm

>  <Rbt.Receptor>
prm/blind_docking_80.prm

>  <SCORE>
-40.5571

>  <SCORE.INTER>
-34.604

>  <SCORE.INTER.CONST>
1

>  <SCORE.INTER.POLAR>
-1.39003

>  <SCORE.INTER.ROT>
3

>  <SCORE.INTER.SOLV>
12.7794

>  <SCORE.INTER.VDW>
-28.2957

>  <SCORE.INTER.norm>
-1.15347

>  <SCORE.INTRA>
-5.95306

>  <SCORE.INTRA.DIHEDRAL>
-7.58099

>  <SCORE.INTRA.DIHEDRAL.0>
9.41909

>  <SCORE.INTRA.POLAR>
0

>  <SCORE.INTRA.POLAR.0>
0

>  <SCORE.INTRA.REPUL>
0

>  <SCORE.INTRA.REPUL.0>
0

>  <SCORE.INTRA.SOLV>
-0.21528

>  <SCORE.INTRA.SOLV.lig_0>
-26.2491

>  <SCORE.INTRA.VDW>
-2.05493

>  <SCORE.INTRA.VDW.0>
2.57239

>  <SCORE.INTRA.norm>
-0.198435

>  <SCORE.RESTR>
0

>  <SCORE.RESTR.CAVITY>
0

>  <SCORE.RESTR.norm>
0

>  <SCORE.SYSTEM>
0

>  <SCORE.SYSTEM.CONST>
0

>  <SCORE.SYSTEM.DIHEDRAL>
0

>  <SCORE.SYSTEM.SOLV>
0

>  <SCORE.SYSTEM.norm>
0

>  <SCORE.heavy>
30

>  <SCORE.norm>
-1.3519

>  <RMSD>
2.257

$$$$
lig.pdb
 OpenBabel11021811523D
libRbt.so/2013.1/901 2013/11/27
 30 34  0  0  0  0  0  0  0  0999 V2000
   24.8636   36.7338   20.2946 N   0  0  0  0  0  0  0  0  0  0  0  0
   26.5035   40.0979   23.5351 N   0  0  0  0  0  0  0  0  0  0  0  0
   24.5971   37.1544   18.9156 C   0  0  0  0  0  0  0  0  0  0  0  0
   25.1655   35.9879   18.1215 C   0  0  2  0  0  0  0  0  0  0  0  0
   24.6241   37.6488   21.4049 C   0  0  0  0  0  0  0  0  0  0  0  0
   23.3667   37.8170   22.0203 C   0  0  0  0  0  0  0  0  0  0  0  0
   23.1316   38.6978   23.0463 C   0  0  0  0  0  0  0  0  0  0  0  0
   23.9011   40.4843   24.6116 C   0  0  0  0  0  0  0  0  0  0  0  0
   28.6831   40.6276   23.8375 C   0  0  0  0  0  0  0  0  0  0  0  0
   28.0233   38.6627   22.2803 C   0  0  0  0  0  0  0  0  0  0  0  0
   25.6887   38.4418   21.9187 C   0  0  0  0  0  0  0  0  0  0  0  0
   23.9003   43.1207   26.0158 O   0  0  0  0  0  0  0  0  0  0  0  0
   24.8625   42.3524   26.0789 C   0  0  0  0  0  0  0  0  0  0  0  0
   25.7723   42.4253   27.0427 O   0  0  0  0  0  0  0  0  0  0  0  0
   25.0644   41.2994   25.0484 C   0  0  1  0  0  0  0  0  0  0  0  0
   22.7832   40.5870   25.1281 O   0  0  0  0  0  0  0  0  0  0  0  0
   26.3455   41.0756   24.5145 C   0  0  0  0  0  0  0  0  0  0  0  0
   27.8335   39.8333   23.1792 C   0  0  0  0  0  0  0  0  0  0  0  0
   27.8916   41.6911   24.9256 S   0  0  0  0  0  0  0  0  0  0  0  0
   25.4526   39.3329   22.9900 C   0  0  0  0  0  0  0  0  0  0  0  0
   24.1703   39.4876   23.5389 C   0  0  0  0  0  0  0  0  0  0  0  0
   22.3332   37.0572   21.6054 F   0  0  0  0  0  0  0  0  0  0  0  0
   26.9607   38.3984   21.3267 N   0  0  0  0  0  0  0  0  0  0  0  0
   26.9972   39.1884   20.1146 C   0  0  0  0  0  0  0  0  0  0  0  0
   25.9174   35.7271   20.3518 C   0  0  0  0  0  0  0  0  0  0  0  0
   24.1791   35.3991   17.2727 O   0  0  0  0  0  0  0  0  0  0  0  0
   25.5347   34.9053   19.1324 C   0  0  2  0  0  0  0  0  0  0  0  0
   26.5962   34.0661   18.5446 N   0  0  0  0  0  0  0  0  0  0  0  0
   27.4263   33.3300   19.5154 C   0  0  0  0  0  0  0  0  0  0  0  0
   26.1164   33.2057   17.4522 C   0  0  0  0  0  0  0  0  0  0  0  0
  1  5  1  0  0  0  0
  2 17  1  0  0  0  0
  3  1  1  0  0  0  0
  4  3  1  0  0  0  0
  4 26  1  6  0  0  0
  5 11  2  0  0  0  0
  5  6  1  0  0  0  0
  6  7  2  0  0  0  0
  7 21  1  0  0  0  0
  8 15  1  0  0  0  0
  8 16  2  0  0  0  0
  9 19  1  0  0  0  0
 10 18  1  0  0  0  0
 11 20  1  0  0  0  0
 13 14  1  0  0  0  0
 13 12  2  0  0  0  0
 15 13  1  1  0  0  0
 17 19  2  0  0  0  0
 17 15  1  0  0  0  0
 18  2  1  0  0  0  0
 18  9  2  0  0  0  0
 20 21  2  0  0  0  0
 20  2  1  0  0  0  0
 21  8  1  0  0  0  0
 22  6  1  0  0  0  0
 23 11  1  0  0  0  0
 23 10  1  0  0  0  0
 24 23  1  0  0  0  0
 25  1  1  0  0  0  0
 27  4  1  0  0  0  0
 27 25  1  0  0  0  0
 27 28  1  6  0  0  0
 29 28  1  0  0  0  0
 30 28  1  0  0  0  0
M  END
>  <CHROM.1>
84.72920823,0.39323453,-44.81150152,65.41099029,157.35633997,25.54935807
38.58381489,22.19795870,1.58032426,-0.06466083,-2.35687112

>  <Name>
lig.pdb

>  <RI>
0

>  <Rbt.Current_Directory>
/home/itssahil/PROJECTS/Mol_Feturizer/New_Systems/rnas/6bfb

>  <Rbt.Executable>
rbdock ($Id: //depot/dev/client3/rdock/2013.1/src/exe/rbdock.cxx#4 $)

>  <Rbt.Library>
libRbt.so (2013.1, Build901 2013/11/27)

>  <Rbt.Parameter_File>
/export/apps/rDock/src/rDock_2013.1_src/data/scripts/dock_solv.prm

>  <Rbt.Receptor>
prm/pocket_docking_6.prm

>  <SCORE>
-40.504

>  <SCORE.INTER>
-34.8347

>  <SCORE.INTER.CONST>
1

>  <SCORE.INTER.POLAR>
-0.848528

>  <SCORE.INTER.ROT>
3

>  <SCORE.INTER.SOLV>
13.321

>  <SCORE.INTER.VDW>
-30.435

>  <SCORE.INTER.norm>
-1.16116

>  <SCORE.INTRA>
-5.66922

>  <SCORE.INTRA.DIHEDRAL>
-7.17019

>  <SCORE.INTRA.DIHEDRAL.0>
9.41909

>  <SCORE.INTRA.POLAR>
0

>  <SCORE.INTRA.POLAR.0>
0

>  <SCORE.INTRA.REPUL>
0

>  <SCORE.INTRA.REPUL.0>
0

>  <SCORE.INTRA.SOLV>
-0.0288114

>  <SCORE.INTRA.SOLV.lig_0>
-26.2491

>  <SCORE.INTRA.VDW>
-2.06972

>  <SCORE.INTRA.VDW.0>
2.57239

>  <SCORE.INTRA.norm>
-0.188974

>  <SCORE.RESTR>
0

>  <SCORE.RESTR.CAVITY>
0

>  <SCORE.RESTR.norm>
0

>  <SCORE.SYSTEM>
0

>  <SCORE.SYSTEM.CONST>
0

>  <SCORE.SYSTEM.DIHEDRAL>
0

>  <SCORE.SYSTEM.SOLV>
0

>  <SCORE.SYSTEM.norm>
0

>  <SCORE.heavy>
30

>  <SCORE.norm>
-1.35013

>  <RMSD>
2.261

$$$$
lig.pdb
 OpenBabel11021811523D
libRbt.so/2013.1/901 2013/11/27
 30 34  0  0  0  0  0  0  0  0999 V2000
   24.9525   36.6199   20.1536 N   0  0  0  0  0  0  0  0  0  0  0  0
   26.4220   39.9706   23.4883 N   0  0  0  0  0  0  0  0  0  0  0  0
   24.7507   37.0598   18.7697 C   0  0  0  0  0  0  0  0  0  0  0  0
   25.3584   35.9056   17.9868 C   0  0  2  0  0  0  0  0  0  0  0  0
   24.6588   37.5185   21.2643 C   0  0  0  0  0  0  0  0  0  0  0  0
   23.3775   37.6611   21.8350 C   0  0  0  0  0  0  0  0  0  0  0  0
   23.0918   38.5266   22.8613 C   0  0  0  0  0  0  0  0  0  0  0  0
   23.7766   40.3063   24.4729 C   0  0  0  0  0  0  0  0  0  0  0  0
   28.5809   40.5290   23.8759 C   0  0  0  0  0  0  0  0  0  0  0  0
   28.0081   38.5724   22.2744 C   0  0  0  0  0  0  0  0  0  0  0  0
   25.6919   38.3212   21.8252 C   0  0  0  0  0  0  0  0  0  0  0  0
   23.6499   42.8829   25.9396 O   0  0  0  0  0  0  0  0  0  0  0  0
   24.6554   42.1715   25.9946 C   0  0  0  0  0  0  0  0  0  0  0  0
   25.5663   42.2957   26.9521 O   0  0  0  0  0  0  0  0  0  0  0  0
   24.9108   41.1334   24.9608 C   0  0  1  0  0  0  0  0  0  0  0  0
   22.6392   40.3866   24.9492 O   0  0  0  0  0  0  0  0  0  0  0  0
   26.2136   40.9347   24.4718 C   0  0  0  0  0  0  0  0  0  0  0  0
   27.7680   39.7298   23.1784 C   0  0  0  0  0  0  0  0  0  0  0  0
   27.7343   41.5682   24.9458 S   0  0  0  0  0  0  0  0  0  0  0  0
   25.4034   39.1965   22.8968 C   0  0  0  0  0  0  0  0  0  0  0  0
   24.0998   39.3260   23.4001 C   0  0  0  0  0  0  0  0  0  0  0  0
   22.3714   36.8909   21.3744 F   0  0  0  0  0  0  0  0  0  0  0  0
   26.9852   38.3033   21.2798 N   0  0  0  0  0  0  0  0  0  0  0  0
   27.0538   39.1075   20.0784 C   0  0  0  0  0  0  0  0  0  0  0  0
   26.0045   35.6139   20.2462 C   0  0  0  0  0  0  0  0  0  0  0  0
   24.4145   35.3277   17.0840 O   0  0  0  0  0  0  0  0  0  0  0  0
   25.6816   34.8092   18.9986 C   0  0  2  0  0  0  0  0  0  0  0  0
   26.7714   33.9799   18.4497 N   0  0  0  0  0  0  0  0  0  0  0  0
   26.3959   33.1188   17.3136 C   0  0  0  0  0  0  0  0  0  0  0  0
   28.0045   34.7397   18.1928 C   0  0  0  0  0  0  0  0  0  0  0  0
  1  5  1  0  0  0  0
  2 17  1  0  0  0  0
  3  1  1  0  0  0  0
  4  3  1  0  0  0  0
  4 26  1  6  0  0  0
  5 11  2  0  0  0  0
  5  6  1  0  0  0  0
  6  7  2  0  0  0  0
  7 21  1  0  0  0  0
  8 15  1  0  0  0  0
  8 16  2  0  0  0  0
  9 19  1  0  0  0  0
 10 18  1  0  0  0  0
 11 20  1  0  0  0  0
 13 14  1  0  0  0  0
 13 12  2  0  0  0  0
 15 13  1  1  0  0  0
 17 19  2  0  0  0  0
 17 15  1  0  0  0  0
 18  2  1  0  0  0  0
 18  9  2  0  0  0  0
 20 21  2  0  0  0  0
 20  2  1  0  0  0  0
 21  8  1  0  0  0  0
 22  6  1  0  0  0  0
 23 11  1  0  0  0  0
 23 10  1  0  0  0  0
 24 23  1  0  0  0  0
 25  1  1  0  0  0  0
 27  4  1  0  0  0  0
 27 25  1  0  0  0  0
 27 28  1  6  0  0  0
 29 28  1  0  0  0  0
 30 28  1  0  0  0  0
M  END
>  <CHROM.1>
85.72600736,0.00538426,-41.26251915,62.66531273,-71.04190744,25.55631312
38.50849822,22.05757823,1.53643271,-0.09608461,-2.32396460

>  <Name>
lig.pdb

>  <RI>
0

>  <Rbt.Current_Directory>
/home/itssahil/PROJECTS/Mol_Feturizer/New_Systems/rnas/6bfb

>  <Rbt.Executable>
rbdock ($Id: //depot/dev/client3/rdock/2013.1/src/exe/rbdock.cxx#4 $)

>  <Rbt.Library>
libRbt.so (2013.1, Build901 2013/11/27)

>  <Rbt.Parameter_File>
/export/apps/rDock/src/rDock_2013.1_src/data/scripts/dock_solv.prm

>  <Rbt.Receptor>
prm/pocket_docking_6.prm

>  <SCORE>
-38.383

>  <SCORE.INTER>
-33.5631

>  <SCORE.INTER.CONST>
1

>  <SCORE.INTER.POLAR>
-0.848523

>  <SCORE.INTER.ROT>
3

>  <SCORE.INTER.SOLV>
12.9126

>  <SCORE.INTER.VDW>
-29.4512

>  <SCORE.INTER.norm>
-1.11877

>  <SCORE.INTRA>
-4.81995

>  <SCORE.INTRA.DIHEDRAL>
-7.64233

>  <SCORE.INTRA.DIHEDRAL.0>
9.41909

>  <SCORE.INTRA.POLAR>
0

>  <SCORE.INTRA.POLAR.0>
0

>  <SCORE.INTRA.REPUL>
0

>  <SCORE.INTRA.REPUL.0>
0

>  <SCORE.INTRA.SOLV>
0.144292

>  <SCORE.INTRA.SOLV.lig_0>
-26.2491

>  <SCORE.INTRA.VDW>
-1.07093

>  <SCORE.INTRA.VDW.0>
2.57239

>  <SCORE.INTRA.norm>
-0.160665

>  <SCORE.RESTR>
0

>  <SCORE.RESTR.CAVITY>
0

>  <SCORE.RESTR.norm>
0

>  <SCORE.SYSTEM>
0

>  <SCORE.SYSTEM.CONST>
0

>  <SCORE.SYSTEM.DIHEDRAL>
0

>  <SCORE.SYSTEM.SOLV>
0

>  <SCORE.SYSTEM.norm>
0

>  <SCORE.heavy>
30

>  <SCORE.norm>
-1.27943

>  <RMSD>
2.278

$$$$
lig.pdb
 OpenBabel11021811523D
libRbt.so/2013.1/901 2013/11/27
 30 34  0  0  0  0  0  0  0  0999 V2000
   25.1512   36.5808   20.2901 N   0  0  0  0  0  0  0  0  0  0  0  0
   26.2951   40.3942   23.2323 N   0  0  0  0  0  0  0  0  0  0  0  0
   24.7594   36.7662   18.8895 C   0  0  0  0  0  0  0  0  0  0  0  0
   25.5210   35.6417   18.2041 C   0  0  2  0  0  0  0  0  0  0  0  0
   24.7725   37.5636   21.2991 C   0  0  0  0  0  0  0  0  0  0  0  0
   23.4818   37.6486   21.8600 C   0  0  0  0  0  0  0  0  0  0  0  0
   23.1143   38.5902   22.7886 C   0  0  0  0  0  0  0  0  0  0  0  0
   23.6270   40.5896   24.1934 C   0  0  0  0  0  0  0  0  0  0  0  0
   28.3920   41.1877   23.5421 C   0  0  0  0  0  0  0  0  0  0  0  0
   28.0072   39.0247   22.1657 C   0  0  0  0  0  0  0  0  0  0  0  0
   25.7254   38.5141   21.7626 C   0  0  0  0  0  0  0  0  0  0  0  0
   24.7131   42.6833   26.6685 O   0  0  0  0  0  0  0  0  0  0  0  0
   24.3254   42.6816   25.4981 C   0  0  0  0  0  0  0  0  0  0  0  0
   23.5677   43.6488   24.9956 O   0  0  0  0  0  0  0  0  0  0  0  0
   24.6786   41.5656   24.5810 C   0  0  1  0  0  0  0  0  0  0  0  0
   22.4856   40.6159   24.6662 O   0  0  0  0  0  0  0  0  0  0  0  0
   25.9957   41.4358   24.1072 C   0  0  0  0  0  0  0  0  0  0  0  0
   27.6585   40.2462   22.9408 C   0  0  0  0  0  0  0  0  0  0  0  0
   27.4499   42.2544   24.4992 S   0  0  0  0  0  0  0  0  0  0  0  0
   25.3541   39.4700   22.7352 C   0  0  0  0  0  0  0  0  0  0  0  0
   24.0426   39.5327   23.2306 C   0  0  0  0  0  0  0  0  0  0  0  0
   22.5525   36.7437   21.4925 F   0  0  0  0  0  0  0  0  0  0  0  0
   27.0164   38.5564   21.2133 N   0  0  0  0  0  0  0  0  0  0  0  0
   27.0141   39.2285   19.9315 C   0  0  0  0  0  0  0  0  0  0  0  0
   26.3857   35.8121   20.4020 C   0  0  0  0  0  0  0  0  0  0  0  0
   24.6431   34.7719   17.4881 O   0  0  0  0  0  0  0  0  0  0  0  0
   26.1327   34.7860   19.3103 C   0  0  2  0  0  0  0  0  0  0  0  0
   27.3192   34.1012   18.7629 N   0  0  0  0  0  0  0  0  0  0  0  0
   28.3860   34.9900   18.2674 C   0  0  0  0  0  0  0  0  0  0  0  0
   27.8363   33.0436   19.6449 C   0  0  0  0  0  0  0  0  0  0  0  0
  1  5  1  0  0  0  0
  2 17  1  0  0  0  0
  3  1  1  0  0  0  0
  4  3  1  0  0  0  0
  4 26  1  1  0  0  0
  5 11  2  0  0  0  0
  5  6  1  0  0  0  0
  6  7  2  0  0  0  0
  7 21  1  0  0  0  0
  8 15  1  0  0  0  0
  8 16  2  0  0  0  0
  9 19  1  0  0  0  0
 10 18  1  0  0  0  0
 11 20  1  0  0  0  0
 13 14  1  0  0  0  0
 13 12  2  0  0  0  0
 15 13  1  1  0  0  0
 17 19  2  0  0  0  0
 17 15  1  0  0  0  0
 18  2  1  0  0  0  0
 18  9  2  0  0  0  0
 20 21  2  0  0  0  0
 20  2  1  0  0  0  0
 21  8  1  0  0  0  0
 22  6  1  0  0  0  0
 23 11  1  0  0  0  0
 23 10  1  0  0  0  0
 24 23  1  0  0  0  0
 25  1  1  0  0  0  0
 27  4  1  0  0  0  0
 27 25  1  0  0  0  0
 27 28  1  6  0  0  0
 29 28  1  0  0  0  0
 30 28  1  0  0  0  0
M  END
>  <CHROM.1>
77.74427864,174.02913902,107.22529504,177.99182019,60.30370131,25.59301059
38.72212525,22.01467956,1.44799584,-0.13347739,-2.45873869

>  <Name>
lig.pdb

>  <RI>
0

>  <Rbt.Current_Directory>
/home/itssahil/PROJECTS/Mol_Feturizer/New_Systems/rnas/6bfb

>  <Rbt.Executable>
rbdock ($Id: //depot/dev/client3/rdock/2013.1/src/exe/rbdock.cxx#4 $)

>  <Rbt.Library>
libRbt.so (2013.1, Build901 2013/11/27)

>  <Rbt.Parameter_File>
/export/apps/rDock/src/rDock_2013.1_src/data/scripts/dock_solv.prm

>  <Rbt.Receptor>
prm/blind_docking_100.prm

>  <SCORE>
-36.1996

>  <SCORE.INTER>
-30.3734

>  <SCORE.INTER.CONST>
1

>  <SCORE.INTER.POLAR>
-0.555206

>  <SCORE.INTER.ROT>
3

>  <SCORE.INTER.SOLV>
12.0154

>  <SCORE.INTER.VDW>
-28.0034

>  <SCORE.INTER.norm>
-1.01245

>  <SCORE.INTRA>
-5.82623

>  <SCORE.INTRA.DIHEDRAL>
-7.36273

>  <SCORE.INTRA.DIHEDRAL.0>
9.41909

>  <SCORE.INTRA.POLAR>
0

>  <SCORE.INTRA.POLAR.0>
0

>  <SCORE.INTRA.REPUL>
0

>  <SCORE.INTRA.REPUL.0>
0

>  <SCORE.INTRA.SOLV>
-0.122023

>  <SCORE.INTRA.SOLV.lig_0>
-26.2491

>  <SCORE.INTRA.VDW>
-2.08385

>  <SCORE.INTRA.VDW.0>
2.57239

>  <SCORE.INTRA.norm>
-0.194208

>  <SCORE.RESTR>
0

>  <SCORE.RESTR.CAVITY>
0

>  <SCORE.RESTR.norm>
0

>  <SCORE.SYSTEM>
0

>  <SCORE.SYSTEM.CONST>
0

>  <SCORE.SYSTEM.DIHEDRAL>
0

>  <SCORE.SYSTEM.SOLV>
0

>  <SCORE.SYSTEM.norm>
0

>  <SCORE.heavy>
30

>  <SCORE.norm>
-1.20665

>  <RMSD>
2.287

$$$$
lig.pdb
 OpenBabel11021811523D
libRbt.so/2013.1/901 2013/11/27
 30 34  0  0  0  0  0  0  0  0999 V2000
   24.3424   37.3000   20.5145 N   0  0  0  0  0  0  0  0  0  0  0  0
   27.1959   40.5232   22.9591 N   0  0  0  0  0  0  0  0  0  0  0  0
   25.2569   36.1729   20.3080 C   0  0  0  0  0  0  0  0  0  0  0  0
   24.5521   35.4016   19.2023 C   0  0  2  0  0  0  0  0  0  0  0  0
   24.5496   38.2257   21.6226 C   0  0  0  0  0  0  0  0  0  0  0  0
   23.5828   38.4824   22.6161 C   0  0  0  0  0  0  0  0  0  0  0  0
   23.7638   39.3740   23.6439 C   0  0  0  0  0  0  0  0  0  0  0  0
   25.1321   41.0937   24.8289 C   0  0  0  0  0  0  0  0  0  0  0  0
   29.3836   40.8919   22.5114 C   0  0  0  0  0  0  0  0  0  0  0  0
   28.1087   38.9862   21.3013 C   0  0  0  0  0  0  0  0  0  0  0  0
   25.7771   38.9371   21.7382 C   0  0  0  0  0  0  0  0  0  0  0  0
   27.2805   43.9044   25.5726 O   0  0  0  0  0  0  0  0  0  0  0  0
   26.6541   42.8811   25.8563 C   0  0  0  0  0  0  0  0  0  0  0  0
   26.1649   42.6567   27.0697 O   0  0  0  0  0  0  0  0  0  0  0  0
   26.4284   41.8202   24.8388 C   0  0  1  0  0  0  0  0  0  0  0  0
   24.2591   41.2753   25.6844 O   0  0  0  0  0  0  0  0  0  0  0  0
   27.4407   41.5059   23.9154 C   0  0  0  0  0  0  0  0  0  0  0  0
   28.3103   40.1640   22.1881 C   0  0  0  0  0  0  0  0  0  0  0  0
   29.0746   42.0058   23.7783 S   0  0  0  0  0  0  0  0  0  0  0  0
   25.9729   39.8388   22.8088 C   0  0  0  0  0  0  0  0  0  0  0  0
   24.9596   40.0842   23.7483 C   0  0  0  0  0  0  0  0  0  0  0  0
   22.4198   37.8015   22.5828 F   0  0  0  0  0  0  0  0  0  0  0  0
   26.7742   38.8036   20.7593 N   0  0  0  0  0  0  0  0  0  0  0  0
   26.4613   39.5936   19.5876 C   0  0  0  0  0  0  0  0  0  0  0  0
   23.0062   37.0028   20.0110 C   0  0  0  0  0  0  0  0  0  0  0  0
   25.3903   35.2396   18.0573 O   0  0  0  0  0  0  0  0  0  0  0  0
   23.3850   36.2680   18.7361 C   0  0  2  0  0  0  0  0  0  0  0  0
   22.3562   35.3845   18.1551 N   0  0  0  0  0  0  0  0  0  0  0  0
   21.4813   34.7103   19.1316 C   0  0  0  0  0  0  0  0  0  0  0  0
   21.5964   36.0178   17.0663 C   0  0  0  0  0  0  0  0  0  0  0  0
  1  5  1  0  0  0  0
  2 17  1  0  0  0  0
  3  1  1  0  0  0  0
  4  3  1  0  0  0  0
  4 26  1  6  0  0  0
  5 11  2  0  0  0  0
  5  6  1  0  0  0  0
  6  7  2  0  0  0  0
  7 21  1  0  0  0  0
  8 15  1  0  0  0  0
  8 16  2  0  0  0  0
  9 19  1  0  0  0  0
 10 18  1  0  0  0  0
 11 20  1  0  0  0  0
 13 14  1  0  0  0  0
 13 12  2  0  0  0  0
 15 13  1  1  0  0  0
 17 19  2  0  0  0  0
 17 15  1  0  0  0  0
 18  2  1  0  0  0  0
 18  9  2  0  0  0  0
 20 21  2  0  0  0  0
 20  2  1  0  0  0  0
 21  8  1  0  0  0  0
 22  6  1  0  0  0  0
 23 11  1  0  0  0  0
 23 10  1  0  0  0  0
 24 23  1  0  0  0  0
 25  1  1  0  0  0  0
 27  4  1  0  0  0  0
 27 25  1  0  0  0  0
 27 28  1  1  0  0  0
 29 28  1  0  0  0  0
 30 28  1  0  0  0  0
M  END
>  <CHROM.1>
-122.58608072,-177.61104828,-142.89166224,63.25015615,80.48221453,25.46339495
39.15592219,22.07433722,2.03237681,-0.32240424,-2.22282324

>  <Name>
lig.pdb

>  <RI>
0

>  <Rbt.Current_Directory>
/home/itssahil/PROJECTS/Mol_Feturizer/New_Systems/rnas/6bfb

>  <Rbt.Executable>
rbdock ($Id: //depot/dev/client3/rdock/2013.1/src/exe/rbdock.cxx#4 $)

>  <Rbt.Library>
libRbt.so (2013.1, Build901 2013/11/27)

>  <Rbt.Parameter_File>
/export/apps/rDock/src/rDock_2013.1_src/data/scripts/dock_solv.prm

>  <Rbt.Receptor>
prm/pocket_docking_5.prm

>  <SCORE>
-35.0747

>  <SCORE.INTER>
-30.9635

>  <SCORE.INTER.CONST>
1

>  <SCORE.INTER.POLAR>
-0.205893

>  <SCORE.INTER.ROT>
3

>  <SCORE.INTER.SOLV>
13.7157

>  <SCORE.INTER.VDW>
-30.1279

>  <SCORE.INTER.norm>
-1.03212

>  <SCORE.INTRA>
-4.11123

>  <SCORE.INTRA.DIHEDRAL>
-6.75962

>  <SCORE.INTRA.DIHEDRAL.0>
9.41909

>  <SCORE.INTRA.POLAR>
0

>  <SCORE.INTRA.POLAR.0>
0

>  <SCORE.INTRA.REPUL>
0.023922

>  <SCORE.INTRA.REPUL.0>
0

>  <SCORE.INTRA.SOLV>
-0.226765

>  <SCORE.INTRA.SOLV.lig_0>
-26.2491

>  <SCORE.INTRA.VDW>
-0.737646

>  <SCORE.INTRA.VDW.0>
2.57239

>  <SCORE.INTRA.norm>
-0.137041

>  <SCORE.RESTR>
0

>  <SCORE.RESTR.CAVITY>
0

>  <SCORE.RESTR.norm>
0

>  <SCORE.SYSTEM>
0

>  <SCORE.SYSTEM.CONST>
0

>  <SCORE.SYSTEM.DIHEDRAL>
0

>  <SCORE.SYSTEM.SOLV>
0

>  <SCORE.SYSTEM.norm>
0

>  <SCORE.heavy>
30

>  <SCORE.norm>
-1.16916

>  <RMSD>
2.307

$$$$
lig.pdb
 OpenBabel11021811523D
libRbt.so/2013.1/901 2013/11/27
 30 34  0  0  0  0  0  0  0  0999 V2000
   24.3437   37.2721   20.5147 N   0  0  0  0  0  0  0  0  0  0  0  0
   27.2205   40.4511   22.9896 N   0  0  0  0  0  0  0  0  0  0  0  0
   25.2437   36.1320   20.3155 C   0  0  0  0  0  0  0  0  0  0  0  0
   24.5382   35.3721   19.2023 C   0  0  2  0  0  0  0  0  0  0  0  0
   24.5539   38.1935   21.6257 C   0  0  0  0  0  0  0  0  0  0  0  0
   23.5817   38.4632   22.6105 C   0  0  0  0  0  0  0  0  0  0  0  0
   23.7659   39.3509   23.6409 C   0  0  0  0  0  0  0  0  0  0  0  0
   25.1477   41.0494   24.8407 C   0  0  0  0  0  0  0  0  0  0  0  0
   29.4174   40.7886   22.5627 C   0  0  0  0  0  0  0  0  0  0  0  0
   28.1265   38.9028   21.3385 C   0  0  0  0  0  0  0  0  0  0  0  0
   25.7904   38.8870   21.7536 C   0  0  0  0  0  0  0  0  0  0  0  0
   27.3366   43.8241   25.6101 O   0  0  0  0  0  0  0  0  0  0  0  0
   26.6857   42.8136   25.8843 C   0  0  0  0  0  0  0  0  0  0  0  0
   26.1739   42.5994   27.0902 O   0  0  0  0  0  0  0  0  0  0  0  0
   26.4543   41.7572   24.8635 C   0  0  1  0  0  0  0  0  0  0  0  0
   24.2694   41.2428   25.6882 O   0  0  0  0  0  0  0  0  0  0  0  0
   27.4705   41.4293   23.9492 C   0  0  0  0  0  0  0  0  0  0  0  0
   28.3368   40.0767   22.2286 C   0  0  0  0  0  0  0  0  0  0  0  0
   29.1127   41.9056   23.8280 S   0  0  0  0  0  0  0  0  0  0  0  0
   25.9892   39.7846   22.8270 C   0  0  0  0  0  0  0  0  0  0  0  0
   24.9708   40.0437   23.7573 C   0  0  0  0  0  0  0  0  0  0  0  0
   22.4093   37.7991   22.5655 F   0  0  0  0  0  0  0  0  0  0  0  0
   26.7946   38.7401   20.7839 N   0  0  0  0  0  0  0  0  0  0  0  0
   26.5042   39.5358   19.6102 C   0  0  0  0  0  0  0  0  0  0  0  0
   23.0081   36.9947   19.9983 C   0  0  0  0  0  0  0  0  0  0  0  0
   25.3847   35.1992   18.0650 O   0  0  0  0  0  0  0  0  0  0  0  0
   23.3882   36.2559   18.7262 C   0  0  2  0  0  0  0  0  0  0  0  0
   22.3522   35.3880   18.1345 N   0  0  0  0  0  0  0  0  0  0  0  0
   21.4720   34.7090   19.1027 C   0  0  0  0  0  0  0  0  0  0  0  0
   21.5975   36.0408   17.0537 C   0  0  0  0  0  0  0  0  0  0  0  0
  1  5  1  0  0  0  0
  2 17  1  0  0  0  0
  3  1  1  0  0  0  0
  4  3  1  0  0  0  0
  4 26  1  6  0  0  0
  5 11  2  0  0  0  0
  5  6  1  0  0  0  0
  6  7  2  0  0  0  0
  7 21  1  0  0  0  0
  8 15  1  0  0  0  0
  8 16  2  0  0  0  0
  9 19  1  0  0  0  0
 10 18  1  0  0  0  0
 11 20  1  0  0  0  0
 13 14  1  0  0  0  0
 13 12  2  0  0  0  0
 15 13  1  1  0  0  0
 17 19  2  0  0  0  0
 17 15  1  0  0  0  0
 18  2  1  0  0  0  0
 18  9  2  0  0  0  0
 20 21  2  0  0  0  0
 20  2  1  0  0  0  0
 21  8  1  0  0  0  0
 22  6  1  0  0  0  0
 23 11  1  0  0  0  0
 23 10  1  0  0  0  0
 24 23  1  0  0  0  0
 25  1  1  0  0  0  0
 27  4  1  0  0  0  0
 27 25  1  0  0  0  0
 27 28  1  1  0  0  0
 29 28  1  0  0  0  0
 30 28  1  0  0  0  0
M  END
>  <CHROM.1>
-122.58067383,-178.44099456,-143.35536928,62.65643960,79.56097709,25.47666675
39.10970541,22.08753788,2.03382395,-0.30513325,-2.22169893

>  <Name>
lig.pdb

>  <RI>
0

>  <Rbt.Current_Directory>
/home/itssahil/PROJECTS/Mol_Feturizer/New_Systems/rnas/6bfb

>  <Rbt.Executable>
rbdock ($Id: //depot/dev/client3/rdock/2013.1/src/exe/rbdock.cxx#4 $)

>  <Rbt.Library>
libRbt.so (2013.1, Build901 2013/11/27)

>  <Rbt.Parameter_File>
/export/apps/rDock/src/rDock_2013.1_src/data/scripts/dock_solv.prm

>  <Rbt.Receptor>
prm/pocket_docking_8.prm

>  <SCORE>
-35.0903

>  <SCORE.INTER>
-30.9447

>  <SCORE.INTER.CONST>
1

>  <SCORE.INTER.POLAR>
-0.227309

>  <SCORE.INTER.ROT>
3

>  <SCORE.INTER.SOLV>
13.9296

>  <SCORE.INTER.VDW>
-30.1153

>  <SCORE.INTER.norm>
-1.03149

>  <SCORE.INTRA>
-4.14557

>  <SCORE.INTRA.DIHEDRAL>
-6.84695

>  <SCORE.INTRA.DIHEDRAL.0>
9.41909

>  <SCORE.INTRA.POLAR>
0

>  <SCORE.INTRA.POLAR.0>
0

>  <SCORE.INTRA.REPUL>
0.0239358

>  <SCORE.INTRA.REPUL.0>
0

>  <SCORE.INTRA.SOLV>
-0.225678

>  <SCORE.INTRA.SOLV.lig_0>
-26.2491

>  <SCORE.INTRA.VDW>
-0.728937

>  <SCORE.INTRA.VDW.0>
2.57239

>  <SCORE.INTRA.norm>
-0.138186

>  <SCORE.RESTR>
0

>  <SCORE.RESTR.CAVITY>
0

>  <SCORE.RESTR.norm>
0

>  <SCORE.SYSTEM>
0

>  <SCORE.SYSTEM.CONST>
0

>  <SCORE.SYSTEM.DIHEDRAL>
0

>  <SCORE.SYSTEM.SOLV>
0

>  <SCORE.SYSTEM.norm>
0

>  <SCORE.heavy>
30

>  <SCORE.norm>
-1.16968

>  <RMSD>
2.325

$$$$
lig.pdb
 OpenBabel11021811523D
libRbt.so/2013.1/901 2013/11/27
 30 34  0  0  0  0  0  0  0  0999 V2000
   24.9201   36.6149   20.1655 N   0  0  0  0  0  0  0  0  0  0  0  0
   26.2941   40.1467   23.3507 N   0  0  0  0  0  0  0  0  0  0  0  0
   24.7195   37.0031   18.7660 C   0  0  0  0  0  0  0  0  0  0  0  0
   25.3530   35.8338   18.0272 C   0  0  2  0  0  0  0  0  0  0  0  0
   24.6031   37.5459   21.2427 C   0  0  0  0  0  0  0  0  0  0  0  0
   23.3223   37.6646   21.8198 C   0  0  0  0  0  0  0  0  0  0  0  0
   23.0137   38.5593   22.8139 C   0  0  0  0  0  0  0  0  0  0  0  0
   23.6464   40.4254   24.3473 C   0  0  0  0  0  0  0  0  0  0  0  0
   28.4342   40.7978   23.6949 C   0  0  0  0  0  0  0  0  0  0  0  0
   27.9200   38.7596   22.1775 C   0  0  0  0  0  0  0  0  0  0  0  0
   25.6108   38.4071   21.7613 C   0  0  0  0  0  0  0  0  0  0  0  0
   24.1330   43.5088   25.4202 O   0  0  0  0  0  0  0  0  0  0  0  0
   24.4692   42.3803   25.7854 C   0  0  0  0  0  0  0  0  0  0  0  0
   24.6131   42.0572   27.0648 O   0  0  0  0  0  0  0  0  0  0  0  0
   24.7537   41.3118   24.7910 C   0  0  1  0  0  0  0  0  0  0  0  0
   22.5109   40.4834   24.8311 O   0  0  0  0  0  0  0  0  0  0  0  0
   26.0588   41.1410   24.2975 C   0  0  0  0  0  0  0  0  0  0  0  0
   27.6453   39.9426   23.0374 C   0  0  0  0  0  0  0  0  0  0  0  0
   27.5592   41.8475   24.7312 S   0  0  0  0  0  0  0  0  0  0  0  0
   25.2995   39.3133   22.8003 C   0  0  0  0  0  0  0  0  0  0  0  0
   23.9963   39.4155   23.3108 C   0  0  0  0  0  0  0  0  0  0  0  0
   22.3412   36.8408   21.3999 F   0  0  0  0  0  0  0  0  0  0  0  0
   26.8993   38.4143   21.2044 N   0  0  0  0  0  0  0  0  0  0  0  0
   26.9284   39.1720   19.9716 C   0  0  0  0  0  0  0  0  0  0  0  0
   25.9894   35.6320   20.2991 C   0  0  0  0  0  0  0  0  0  0  0  0
   24.4255   35.2081   17.1394 O   0  0  0  0  0  0  0  0  0  0  0  0
   25.6892   34.7790   19.0781 C   0  0  2  0  0  0  0  0  0  0  0  0
   26.7973   33.9513   18.5648 N   0  0  0  0  0  0  0  0  0  0  0  0
   27.5753   33.2345   19.5916 C   0  0  0  0  0  0  0  0  0  0  0  0
   26.3993   33.0761   17.4515 C   0  0  0  0  0  0  0  0  0  0  0  0
  1  5  1  0  0  0  0
  2 17  1  0  0  0  0
  3  1  1  0  0  0  0
  4  3  1  0  0  0  0
  4 26  1  6  0  0  0
  5 11  2  0  0  0  0
  5  6  1  0  0  0  0
  6  7  2  0  0  0  0
  7 21  1  0  0  0  0
  8 15  1  0  0  0  0
  8 16  2  0  0  0  0
  9 19  1  0  0  0  0
 10 18  1  0  0  0  0
 11 20  1  0  0  0  0
 13 14  1  0  0  0  0
 13 12  2  0  0  0  0
 15 13  1  1  0  0  0
 17 19  2  0  0  0  0
 17 15  1  0  0  0  0
 18  2  1  0  0  0  0
 18  9  2  0  0  0  0
 20 21  2  0  0  0  0
 20  2  1  0  0  0  0
 21  8  1  0  0  0  0
 22  6  1  0  0  0  0
 23 11  1  0  0  0  0
 23 10  1  0  0  0  0
 24 23  1  0  0  0  0
 25  1  1  0  0  0  0
 27  4  1  0  0  0  0
 27 25  1  0  0  0  0
 27 28  1  6  0  0  0
 29 28  1  0  0  0  0
 30 28  1  0  0  0  0
M  END
>  <CHROM.1>
87.12357482,-177.74429471,-90.43762069,61.54513443,158.30262497,25.44986366
38.53823640,22.03558642,1.52340637,-0.10074734,-2.38970785

>  <Name>
lig.pdb

>  <RI>
0

>  <Rbt.Current_Directory>
/home/itssahil/PROJECTS/Mol_Feturizer/New_Systems/rnas/6bfb

>  <Rbt.Executable>
rbdock ($Id: //depot/dev/client3/rdock/2013.1/src/exe/rbdock.cxx#4 $)

>  <Rbt.Library>
libRbt.so (2013.1, Build901 2013/11/27)

>  <Rbt.Parameter_File>
/export/apps/rDock/src/rDock_2013.1_src/data/scripts/dock_solv.prm

>  <Rbt.Receptor>
prm/pocket_docking_7.prm

>  <SCORE>
-41.4314

>  <SCORE.INTER>
-35.8737

>  <SCORE.INTER.CONST>
1

>  <SCORE.INTER.POLAR>
-1.391

>  <SCORE.INTER.ROT>
3

>  <SCORE.INTER.SOLV>
13.5823

>  <SCORE.INTER.VDW>
-29.4065

>  <SCORE.INTER.norm>
-1.19579

>  <SCORE.INTRA>
-5.55765

>  <SCORE.INTRA.DIHEDRAL>
-7.33857

>  <SCORE.INTRA.DIHEDRAL.0>
9.41909

>  <SCORE.INTRA.POLAR>
0

>  <SCORE.INTRA.POLAR.0>
0

>  <SCORE.INTRA.REPUL>
0

>  <SCORE.INTRA.REPUL.0>
0

>  <SCORE.INTRA.SOLV>
-0.103299

>  <SCORE.INTRA.SOLV.lig_0>
-26.2491

>  <SCORE.INTRA.VDW>
-1.83671

>  <SCORE.INTRA.VDW.0>
2.57239

>  <SCORE.INTRA.norm>
-0.185255

>  <SCORE.RESTR>
0

>  <SCORE.RESTR.CAVITY>
0

>  <SCORE.RESTR.norm>
0

>  <SCORE.SYSTEM>
0

>  <SCORE.SYSTEM.CONST>
0

>  <SCORE.SYSTEM.DIHEDRAL>
0

>  <SCORE.SYSTEM.SOLV>
0

>  <SCORE.SYSTEM.norm>
0

>  <SCORE.heavy>
30

>  <SCORE.norm>
-1.38105

>  <RMSD>
2.328

$$$$
lig.pdb
 OpenBabel11021811523D
libRbt.so/2013.1/901 2013/11/27
 30 34  0  0  0  0  0  0  0  0999 V2000
   24.9860   36.6387   20.1598 N   0  0  0  0  0  0  0  0  0  0  0  0
   26.3863   39.9715   23.5419 N   0  0  0  0  0  0  0  0  0  0  0  0
   24.7664   37.0749   18.7774 C   0  0  0  0  0  0  0  0  0  0  0  0
   25.4042   35.9400   17.9903 C   0  0  2  0  0  0  0  0  0  0  0  0
   24.6707   37.5267   21.2731 C   0  0  0  0  0  0  0  0  0  0  0  0
   23.3803   37.6571   21.8261 C   0  0  0  0  0  0  0  0  0  0  0  0
   23.0744   38.5127   22.8548 C   0  0  0  0  0  0  0  0  0  0  0  0
   23.7247   40.2836   24.4903 C   0  0  0  0  0  0  0  0  0  0  0  0
   28.5357   40.5397   23.9656 C   0  0  0  0  0  0  0  0  0  0  0  0
   27.9984   38.5925   22.3405 C   0  0  0  0  0  0  0  0  0  0  0  0
   25.6905   38.3311   21.8554 C   0  0  0  0  0  0  0  0  0  0  0  0
   23.8335   41.8906   26.9958 O   0  0  0  0  0  0  0  0  0  0  0  0
   24.5699   42.1418   26.0394 C   0  0  0  0  0  0  0  0  0  0  0  0
   25.1384   43.3291   25.8685 O   0  0  0  0  0  0  0  0  0  0  0  0
   24.8466   41.1135   25.0013 C   0  0  1  0  0  0  0  0  0  0  0  0
   22.5800   40.3533   24.9505 O   0  0  0  0  0  0  0  0  0  0  0  0
   26.1577   40.9264   24.5299 C   0  0  0  0  0  0  0  0  0  0  0  0
   27.7380   39.7412   23.2499 C   0  0  0  0  0  0  0  0  0  0  0  0
   27.6673   41.5652   25.0311 S   0  0  0  0  0  0  0  0  0  0  0  0
   25.3811   39.1960   22.9295 C   0  0  0  0  0  0  0  0  0  0  0  0
   24.0695   39.3138   23.4146 C   0  0  0  0  0  0  0  0  0  0  0  0
   22.3858   36.8847   21.3447 F   0  0  0  0  0  0  0  0  0  0  0  0
   26.9917   38.3252   21.3289 N   0  0  0  0  0  0  0  0  0  0  0  0
   27.0730   39.1394   20.1350 C   0  0  0  0  0  0  0  0  0  0  0  0
   26.0670   35.6634   20.2468 C   0  0  0  0  0  0  0  0  0  0  0  0
   24.4740   35.3365   17.0900 O   0  0  0  0  0  0  0  0  0  0  0  0
   25.7627   34.8517   18.9989 C   0  0  2  0  0  0  0  0  0  0  0  0
   26.8740   34.0551   18.4447 N   0  0  0  0  0  0  0  0  0  0  0  0
   27.6838   33.3277   19.4389 C   0  0  0  0  0  0  0  0  0  0  0  0
   26.4685   33.1997   17.3188 C   0  0  0  0  0  0  0  0  0  0  0  0
  1  5  1  0  0  0  0
  2 17  1  0  0  0  0
  3  1  1  0  0  0  0
  4  3  1  0  0  0  0
  4 26  1  6  0  0  0
  5 11  2  0  0  0  0
  5  6  1  0  0  0  0
  6  7  2  0  0  0  0
  7 21  1  0  0  0  0
  8 15  1  0  0  0  0
  8 16  2  0  0  0  0
  9 19  1  0  0  0  0
 10 18  1  0  0  0  0
 11 20  1  0  0  0  0
 13 14  1  0  0  0  0
 13 12  2  0  0  0  0
 15 13  1  1  0  0  0
 17 19  2  0  0  0  0
 17 15  1  0  0  0  0
 18  2  1  0  0  0  0
 18  9  2  0  0  0  0
 20 21  2  0  0  0  0
 20  2  1  0  0  0  0
 21  8  1  0  0  0  0
 22  6  1  0  0  0  0
 23 11  1  0  0  0  0
 23 10  1  0  0  0  0
 24 23  1  0  0  0  0
 25  1  1  0  0  0  0
 27  4  1  0  0  0  0
 27 25  1  0  0  0  0
 27 28  1  6  0  0  0
 29 28  1  0  0  0  0
 30 28  1  0  0  0  0
M  END
>  <CHROM.1>
84.00883743,1.09834031,43.30872463,63.20039647,157.35607924,25.53255378,38.47254624
22.12195543,1.52682084,-0.07921138,-2.34684870

>  <Name>
lig.pdb

>  <RI>
0

>  <Rbt.Current_Directory>
/home/itssahil/PROJECTS/Mol_Feturizer/New_Systems/rnas/6bfb

>  <Rbt.Executable>
rbdock ($Id: //depot/dev/client3/rdock/2013.1/src/exe/rbdock.cxx#4 $)

>  <Rbt.Library>
libRbt.so (2013.1, Build901 2013/11/27)

>  <Rbt.Parameter_File>
/export/apps/rDock/src/rDock_2013.1_src/data/scripts/dock_solv.prm

>  <Rbt.Receptor>
prm/pocket_docking_5.prm

>  <SCORE>
-40.3293

>  <SCORE.INTER>
-34.5918

>  <SCORE.INTER.CONST>
1

>  <SCORE.INTER.POLAR>
-0.848528

>  <SCORE.INTER.ROT>
3

>  <SCORE.INTER.SOLV>
13.8432

>  <SCORE.INTER.VDW>
-30.4472

>  <SCORE.INTER.norm>
-1.15306

>  <SCORE.INTRA>
-5.73743

>  <SCORE.INTRA.DIHEDRAL>
-7.27597

>  <SCORE.INTRA.DIHEDRAL.0>
9.41909

>  <SCORE.INTRA.POLAR>
0

>  <SCORE.INTRA.POLAR.0>
0

>  <SCORE.INTRA.REPUL>
0

>  <SCORE.INTRA.REPUL.0>
0

>  <SCORE.INTRA.SOLV>
-0.0288042

>  <SCORE.INTRA.SOLV.lig_0>
-26.2491

>  <SCORE.INTRA.VDW>
-2.08505

>  <SCORE.INTRA.VDW.0>
2.57239

>  <SCORE.INTRA.norm>
-0.191248

>  <SCORE.RESTR>
0

>  <SCORE.RESTR.CAVITY>
0

>  <SCORE.RESTR.norm>
0

>  <SCORE.SYSTEM>
0

>  <SCORE.SYSTEM.CONST>
0

>  <SCORE.SYSTEM.DIHEDRAL>
0

>  <SCORE.SYSTEM.SOLV>
0

>  <SCORE.SYSTEM.norm>
0

>  <SCORE.heavy>
30

>  <SCORE.norm>
-1.34431

>  <RMSD>
2.329

$$$$
lig.pdb
 OpenBabel11021811523D
libRbt.so/2013.1/901 2013/11/27
 30 34  0  0  0  0  0  0  0  0999 V2000
   24.9037   36.5954   20.1363 N   0  0  0  0  0  0  0  0  0  0  0  0
   26.3972   39.9438   23.4627 N   0  0  0  0  0  0  0  0  0  0  0  0
   24.6354   37.0134   18.7569 C   0  0  0  0  0  0  0  0  0  0  0  0
   25.2563   35.8743   17.9624 C   0  0  2  0  0  0  0  0  0  0  0  0
   24.6179   37.4941   21.2490 C   0  0  0  0  0  0  0  0  0  0  0  0
   23.3402   37.6378   21.8276 C   0  0  0  0  0  0  0  0  0  0  0  0
   23.0617   38.5032   22.8559 C   0  0  0  0  0  0  0  0  0  0  0  0
   23.7582   40.2818   24.4638 C   0  0  0  0  0  0  0  0  0  0  0  0
   28.5589   40.4999   23.8373 C   0  0  0  0  0  0  0  0  0  0  0  0
   27.9744   38.5444   22.2387 C   0  0  0  0  0  0  0  0  0  0  0  0
   25.6552   38.2956   21.8038 C   0  0  0  0  0  0  0  0  0  0  0  0
   25.1427   43.2704   25.8776 O   0  0  0  0  0  0  0  0  0  0  0  0
   24.6482   42.1457   25.9805 C   0  0  0  0  0  0  0  0  0  0  0  0
   23.8913   41.7902   27.0114 O   0  0  0  0  0  0  0  0  0  0  0  0
   24.8962   41.1077   24.9449 C   0  0  1  0  0  0  0  0  0  0  0  0
   22.6238   40.3631   24.9471 O   0  0  0  0  0  0  0  0  0  0  0  0
   26.1958   40.9078   24.4478 C   0  0  0  0  0  0  0  0  0  0  0  0
   27.7409   39.7017   23.1445 C   0  0  0  0  0  0  0  0  0  0  0  0
   27.7200   41.5397   24.9127 S   0  0  0  0  0  0  0  0  0  0  0  0
   25.3742   39.1708   22.8774 C   0  0  0  0  0  0  0  0  0  0  0  0
   24.0738   39.3015   23.3887 C   0  0  0  0  0  0  0  0  0  0  0  0
   22.3305   36.8687   21.3731 F   0  0  0  0  0  0  0  0  0  0  0  0
   26.9450   38.2766   21.2504 N   0  0  0  0  0  0  0  0  0  0  0  0
   27.0070   39.0811   20.0488 C   0  0  0  0  0  0  0  0  0  0  0  0
   25.9950   35.6297   20.1990 C   0  0  0  0  0  0  0  0  0  0  0  0
   24.3021   35.2530   17.1003 O   0  0  0  0  0  0  0  0  0  0  0  0
   25.6566   34.8009   18.9713 C   0  0  2  0  0  0  0  0  0  0  0  0
   26.7556   34.0066   18.3900 N   0  0  0  0  0  0  0  0  0  0  0  0
   27.5952   33.2863   19.3645 C   0  0  0  0  0  0  0  0  0  0  0  0
   26.3232   33.1452   17.2788 C   0  0  0  0  0  0  0  0  0  0  0  0
  1  5  1  0  0  0  0
  2 17  1  0  0  0  0
  3  1  1  0  0  0  0
  4  3  1  0  0  0  0
  4 26  1  6  0  0  0
  5 11  2  0  0  0  0
  5  6  1  0  0  0  0
  6  7  2  0  0  0  0
  7 21  1  0  0  0  0
  8 15  1  0  0  0  0
  8 16  2  0  0  0  0
  9 19  1  0  0  0  0
 10 18  1  0  0  0  0
 11 20  1  0  0  0  0
 13 14  1  0  0  0  0
 13 12  2  0  0  0  0
 15 13  1  1  0  0  0
 17 19  2  0  0  0  0
 17 15  1  0  0  0  0
 18  2  1  0  0  0  0
 18  9  2  0  0  0  0
 20 21  2  0  0  0  0
 20  2  1  0  0  0  0
 21  8  1  0  0  0  0
 22  6  1  0  0  0  0
 23 11  1  0  0  0  0
 23 10  1  0  0  0  0
 24 23  1  0  0  0  0
 25  1  1  0  0  0  0
 27  4  1  0  0  0  0
 27 25  1  0  0  0  0
 27 28  1  6  0  0  0
 29 28  1  0  0  0  0
 30 28  1  0  0  0  0
M  END
>  <CHROM.1>
82.88099619,-1.64483544,-135.80742351,62.89099018,157.95501197,25.49795013
38.43223145,22.07909656,1.54204162,-0.09224563,-2.34672176

>  <Name>
lig.pdb

>  <RI>
0

>  <Rbt.Current_Directory>
/home/itssahil/PROJECTS/Mol_Feturizer/New_Systems/rnas/6bfb

>  <Rbt.Executable>
rbdock ($Id: //depot/dev/client3/rdock/2013.1/src/exe/rbdock.cxx#4 $)

>  <Rbt.Library>
libRbt.so (2013.1, Build901 2013/11/27)

>  <Rbt.Parameter_File>
/export/apps/rDock/src/rDock_2013.1_src/data/scripts/dock_solv.prm

>  <Rbt.Receptor>
prm/blind_docking_80.prm

>  <SCORE>
-40.2181

>  <SCORE.INTER>
-34.5441

>  <SCORE.INTER.CONST>
1

>  <SCORE.INTER.POLAR>
-0.848528

>  <SCORE.INTER.ROT>
3

>  <SCORE.INTER.SOLV>
13.8157

>  <SCORE.INTER.VDW>
-30.4062

>  <SCORE.INTER.norm>
-1.15147

>  <SCORE.INTRA>
-5.67396

>  <SCORE.INTRA.DIHEDRAL>
-7.26683

>  <SCORE.INTRA.DIHEDRAL.0>
9.41909

>  <SCORE.INTRA.POLAR>
0

>  <SCORE.INTRA.POLAR.0>
0

>  <SCORE.INTRA.REPUL>
0

>  <SCORE.INTRA.REPUL.0>
0

>  <SCORE.INTRA.SOLV>
-0.0143949

>  <SCORE.INTRA.SOLV.lig_0>
-26.2491

>  <SCORE.INTRA.VDW>
-2.03335

>  <SCORE.INTRA.VDW.0>
2.57239

>  <SCORE.INTRA.norm>
-0.189132

>  <SCORE.RESTR>
0

>  <SCORE.RESTR.CAVITY>
0

>  <SCORE.RESTR.norm>
0

>  <SCORE.SYSTEM>
0

>  <SCORE.SYSTEM.CONST>
0

>  <SCORE.SYSTEM.DIHEDRAL>
0

>  <SCORE.SYSTEM.SOLV>
0

>  <SCORE.SYSTEM.norm>
0

>  <SCORE.heavy>
30

>  <SCORE.norm>
-1.3406

>  <RMSD>
2.331

$$$$
lig.pdb
 OpenBabel11021811523D
libRbt.so/2013.1/901 2013/11/27
 30 34  0  0  0  0  0  0  0  0999 V2000
   24.9735   36.6293   20.1616 N   0  0  0  0  0  0  0  0  0  0  0  0
   26.3671   39.9613   23.5472 N   0  0  0  0  0  0  0  0  0  0  0  0
   24.7545   37.0665   18.7795 C   0  0  0  0  0  0  0  0  0  0  0  0
   25.3942   35.9331   17.9917 C   0  0  2  0  0  0  0  0  0  0  0  0
   24.6564   37.5158   21.2756 C   0  0  0  0  0  0  0  0  0  0  0  0
   23.3655   37.6437   21.8281 C   0  0  0  0  0  0  0  0  0  0  0  0
   23.0578   38.4978   22.8575 C   0  0  0  0  0  0  0  0  0  0  0  0
   23.7047   40.2684   24.4948 C   0  0  0  0  0  0  0  0  0  0  0  0
   28.5155   40.5325   23.9723 C   0  0  0  0  0  0  0  0  0  0  0  0
   27.9819   38.5859   22.3452 C   0  0  0  0  0  0  0  0  0  0  0  0
   25.6747   38.3212   21.8590 C   0  0  0  0  0  0  0  0  0  0  0  0
   23.9540   41.8281   27.0851 O   0  0  0  0  0  0  0  0  0  0  0  0
   24.5463   42.1266   26.0458 C   0  0  0  0  0  0  0  0  0  0  0  0
   24.9503   43.3637   25.7843 O   0  0  0  0  0  0  0  0  0  0  0  0
   24.8250   41.0996   25.0069 C   0  0  1  0  0  0  0  0  0  0  0  0
   22.5597   40.3358   24.9546 O   0  0  0  0  0  0  0  0  0  0  0  0
   26.1366   40.9150   24.5359 C   0  0  0  0  0  0  0  0  0  0  0  0
   27.7194   39.7334   23.2556 C   0  0  0  0  0  0  0  0  0  0  0  0
   27.6450   41.5557   25.0384 S   0  0  0  0  0  0  0  0  0  0  0  0
   25.3635   39.1848   22.9337 C   0  0  0  0  0  0  0  0  0  0  0  0
   24.0515   39.3000   23.4184 C   0  0  0  0  0  0  0  0  0  0  0  0
   22.3724   36.8701   21.3457 F   0  0  0  0  0  0  0  0  0  0  0  0
   26.9761   38.3179   21.3330 N   0  0  0  0  0  0  0  0  0  0  0  0
   27.0566   39.1333   20.1399 C   0  0  0  0  0  0  0  0  0  0  0  0
   26.0556   35.6551   20.2485 C   0  0  0  0  0  0  0  0  0  0  0  0
   24.4654   35.3295   17.0902 O   0  0  0  0  0  0  0  0  0  0  0  0
   25.7532   34.8443   18.9996 C   0  0  2  0  0  0  0  0  0  0  0  0
   26.8658   34.0496   18.4453 N   0  0  0  0  0  0  0  0  0  0  0  0
   27.6858   33.3353   19.4407 C   0  0  0  0  0  0  0  0  0  0  0  0
   26.4586   33.1824   17.3291 C   0  0  0  0  0  0  0  0  0  0  0  0
  1  5  1  0  0  0  0
  2 17  1  0  0  0  0
  3  1  1  0  0  0  0
  4  3  1  0  0  0  0
  4 26  1  6  0  0  0
  5 11  2  0  0  0  0
  5  6  1  0  0  0  0
  6  7  2  0  0  0  0
  7 21  1  0  0  0  0
  8 15  1  0  0  0  0
  8 16  2  0  0  0  0
  9 19  1  0  0  0  0
 10 18  1  0  0  0  0
 11 20  1  0  0  0  0
 13 14  1  0  0  0  0
 13 12  2  0  0  0  0
 15 13  1  1  0  0  0
 17 19  2  0  0  0  0
 17 15  1  0  0  0  0
 18  2  1  0  0  0  0
 18  9  2  0  0  0  0
 20 21  2  0  0  0  0
 20  2  1  0  0  0  0
 21  8  1  0  0  0  0
 22  6  1  0  0  0  0
 23 11  1  0  0  0  0
 23 10  1  0  0  0  0
 24 23  1  0  0  0  0
 25  1  1  0  0  0  0
 27  4  1  0  0  0  0
 27 25  1  0  0  0  0
 27 28  1  6  0  0  0
 29 28  1  0  0  0  0
 30 28  1  0  0  0  0
M  END
>  <CHROM.1>
84.03966569,178.95839496,52.65000800,64.38614539,156.64081615,25.51716068
38.46112596,22.12175586,1.52550994,-0.07832039,-2.34672213

>  <Name>
lig.pdb

>  <RI>
0

>  <Rbt.Current_Directory>
/home/itssahil/PROJECTS/Mol_Feturizer/New_Systems/rnas/6bfb

>  <Rbt.Executable>
rbdock ($Id: //depot/dev/client3/rdock/2013.1/src/exe/rbdock.cxx#4 $)

>  <Rbt.Library>
libRbt.so (2013.1, Build901 2013/11/27)

>  <Rbt.Parameter_File>
/export/apps/rDock/src/rDock_2013.1_src/data/scripts/dock_solv.prm

>  <Rbt.Receptor>
prm/pocket_docking_8.prm

>  <SCORE>
-40.1758

>  <SCORE.INTER>
-34.7018

>  <SCORE.INTER.CONST>
1

>  <SCORE.INTER.POLAR>
-0.848528

>  <SCORE.INTER.ROT>
3

>  <SCORE.INTER.SOLV>
14.0591

>  <SCORE.INTER.VDW>
-30.5925

>  <SCORE.INTER.norm>
-1.15673

>  <SCORE.INTRA>
-5.47399

>  <SCORE.INTRA.DIHEDRAL>
-7.1832

>  <SCORE.INTRA.DIHEDRAL.0>
9.41909

>  <SCORE.INTRA.POLAR>
0

>  <SCORE.INTRA.POLAR.0>
0

>  <SCORE.INTRA.REPUL>
0

>  <SCORE.INTRA.REPUL.0>
0

>  <SCORE.INTRA.SOLV>
-0.111118

>  <SCORE.INTRA.SOLV.lig_0>
-26.2491

>  <SCORE.INTRA.VDW>
-1.82683

>  <SCORE.INTRA.VDW.0>
2.57239

>  <SCORE.INTRA.norm>
-0.182466

>  <SCORE.RESTR>
0

>  <SCORE.RESTR.CAVITY>
0

>  <SCORE.RESTR.norm>
0

>  <SCORE.SYSTEM>
0

>  <SCORE.SYSTEM.CONST>
0

>  <SCORE.SYSTEM.DIHEDRAL>
0

>  <SCORE.SYSTEM.SOLV>
0

>  <SCORE.SYSTEM.norm>
0

>  <SCORE.heavy>
30

>  <SCORE.norm>
-1.33919

>  <RMSD>
2.332

$$$$
lig.pdb
 OpenBabel11021811523D
libRbt.so/2013.1/901 2013/11/27
 30 34  0  0  0  0  0  0  0  0999 V2000
   24.3592   37.2071   20.5325 N   0  0  0  0  0  0  0  0  0  0  0  0
   27.2547   40.4280   22.9302 N   0  0  0  0  0  0  0  0  0  0  0  0
   25.3636   36.1813   20.2354 C   0  0  0  0  0  0  0  0  0  0  0  0
   24.6411   35.3318   19.2006 C   0  0  2  0  0  0  0  0  0  0  0  0
   24.5731   38.1575   21.6180 C   0  0  0  0  0  0  0  0  0  0  0  0
   23.5991   38.4639   22.5903 C   0  0  0  0  0  0  0  0  0  0  0  0
   23.7871   39.3786   23.5962 C   0  0  0  0  0  0  0  0  0  0  0  0
   25.1795   41.0975   24.7540 C   0  0  0  0  0  0  0  0  0  0  0  0
   29.4565   40.7329   22.5043 C   0  0  0  0  0  0  0  0  0  0  0  0
   28.1534   38.8254   21.3277 C   0  0  0  0  0  0  0  0  0  0  0  0
   25.8155   38.8429   21.7321 C   0  0  0  0  0  0  0  0  0  0  0  0
   27.3200   43.9091   25.4321 O   0  0  0  0  0  0  0  0  0  0  0  0
   26.7293   42.8761   25.7547 C   0  0  0  0  0  0  0  0  0  0  0  0
   26.2903   42.6603   26.9887 O   0  0  0  0  0  0  0  0  0  0  0  0
   26.4925   41.7934   24.7630 C   0  0  1  0  0  0  0  0  0  0  0  0
   24.2993   41.3228   25.5916 O   0  0  0  0  0  0  0  0  0  0  0  0
   27.5096   41.4305   23.8631 C   0  0  0  0  0  0  0  0  0  0  0  0
   28.3708   40.0219   22.1853 C   0  0  0  0  0  0  0  0  0  0  0  0
   29.1567   41.8879   23.7362 S   0  0  0  0  0  0  0  0  0  0  0  0
   26.0179   39.7686   22.7807 C   0  0  0  0  0  0  0  0  0  0  0  0
   24.9979   40.0633   23.6986 C   0  0  0  0  0  0  0  0  0  0  0  0
   22.4207   37.8097   22.5585 F   0  0  0  0  0  0  0  0  0  0  0  0
   26.8225   38.6594   20.7716 N   0  0  0  0  0  0  0  0  0  0  0  0
   26.5447   39.4243   19.5747 C   0  0  0  0  0  0  0  0  0  0  0  0
   23.0196   36.7669   20.1594 C   0  0  0  0  0  0  0  0  0  0  0  0
   25.3775   35.2509   17.9795 O   0  0  0  0  0  0  0  0  0  0  0  0
   23.3495   36.0669   18.8517 C   0  0  2  0  0  0  0  0  0  0  0  0
   22.3687   35.0756   18.3702 N   0  0  0  0  0  0  0  0  0  0  0  0
   20.9721   35.3264   18.7704 C   0  0  0  0  0  0  0  0  0  0  0  0
   22.4959   34.7852   16.9337 C   0  0  0  0  0  0  0  0  0  0  0  0
  1  5  1  0  0  0  0
  2 17  1  0  0  0  0
  3  1  1  0  0  0  0
  4  3  1  0  0  0  0
  4 26  1  6  0  0  0
  5 11  2  0  0  0  0
  5  6  1  0  0  0  0
  6  7  2  0  0  0  0
  7 21  1  0  0  0  0
  8 15  1  0  0  0  0
  8 16  2  0  0  0  0
  9 19  1  0  0  0  0
 10 18  1  0  0  0  0
 11 20  1  0  0  0  0
 13 14  1  0  0  0  0
 13 12  2  0  0  0  0
 15 13  1  1  0  0  0
 17 19  2  0  0  0  0
 17 15  1  0  0  0  0
 18  2  1  0  0  0  0
 18  9  2  0  0  0  0
 20 21  2  0  0  0  0
 20  2  1  0  0  0  0
 21  8  1  0  0  0  0
 22  6  1  0  0  0  0
 23 11  1  0  0  0  0
 23 10  1  0  0  0  0
 24 23  1  0  0  0  0
 25  1  1  0  0  0  0
 27  4  1  0  0  0  0
 27 25  1  0  0  0  0
 27 28  1  1  0  0  0
 29 28  1  0  0  0  0
 30 28  1  0  0  0  0
M  END
>  <CHROM.1>
-132.45991895,-1.09429197,-138.85504528,165.97790862,143.19363482,25.51971329
39.06571472,22.03730635,2.02184334,-0.30105682,-2.24847647

>  <Name>
lig.pdb

>  <RI>
0

>  <Rbt.Current_Directory>
/home/itssahil/PROJECTS/Mol_Feturizer/New_Systems/rnas/6bfb

>  <Rbt.Executable>
rbdock ($Id: //depot/dev/client3/rdock/2013.1/src/exe/rbdock.cxx#4 $)

>  <Rbt.Library>
libRbt.so (2013.1, Build901 2013/11/27)

>  <Rbt.Parameter_File>
/export/apps/rDock/src/rDock_2013.1_src/data/scripts/dock_solv.prm

>  <Rbt.Receptor>
prm/blind_docking_80.prm

>  <SCORE>
-35.6021

>  <SCORE.INTER>
-32.8417

>  <SCORE.INTER.CONST>
1

>  <SCORE.INTER.POLAR>
0

>  <SCORE.INTER.ROT>
3

>  <SCORE.INTER.SOLV>
13.5456

>  <SCORE.INTER.VDW>
-32.0096

>  <SCORE.INTER.norm>
-1.09472

>  <SCORE.INTRA>
-2.76046

>  <SCORE.INTRA.DIHEDRAL>
-5.61904

>  <SCORE.INTRA.DIHEDRAL.0>
9.41909

>  <SCORE.INTRA.POLAR>
0

>  <SCORE.INTRA.POLAR.0>
0

>  <SCORE.INTRA.REPUL>
0

>  <SCORE.INTRA.REPUL.0>
0

>  <SCORE.INTRA.SOLV>
-0.0705748

>  <SCORE.INTRA.SOLV.lig_0>
-26.2491

>  <SCORE.INTRA.VDW>
0.0843524

>  <SCORE.INTRA.VDW.0>
2.57239

>  <SCORE.INTRA.norm>
-0.0920152

>  <SCORE.RESTR>
0

>  <SCORE.RESTR.CAVITY>
0

>  <SCORE.RESTR.norm>
0

>  <SCORE.SYSTEM>
0

>  <SCORE.SYSTEM.CONST>
0

>  <SCORE.SYSTEM.DIHEDRAL>
0

>  <SCORE.SYSTEM.SOLV>
0

>  <SCORE.SYSTEM.norm>
0

>  <SCORE.heavy>
30

>  <SCORE.norm>
-1.18674

>  <RMSD>
2.333

$$$$
lig.pdb
 OpenBabel11021811523D
libRbt.so/2013.1/901 2013/11/27
 30 34  0  0  0  0  0  0  0  0999 V2000
   24.9307   36.5989   20.1479 N   0  0  0  0  0  0  0  0  0  0  0  0
   26.2854   40.1430   23.3277 N   0  0  0  0  0  0  0  0  0  0  0  0
   24.7392   36.9882   18.7474 C   0  0  0  0  0  0  0  0  0  0  0  0
   25.3752   35.8184   18.0117 C   0  0  2  0  0  0  0  0  0  0  0  0
   24.6087   37.5297   21.2237 C   0  0  0  0  0  0  0  0  0  0  0  0
   23.3272   37.6422   21.8007 C   0  0  0  0  0  0  0  0  0  0  0  0
   23.0138   38.5368   22.7935 C   0  0  0  0  0  0  0  0  0  0  0  0
   23.6364   40.4086   24.3240 C   0  0  0  0  0  0  0  0  0  0  0  0
   28.4220   40.8063   23.6707 C   0  0  0  0  0  0  0  0  0  0  0  0
   27.9189   38.7630   22.1564 C   0  0  0  0  0  0  0  0  0  0  0  0
   25.6117   38.3972   21.7409 C   0  0  0  0  0  0  0  0  0  0  0  0
   24.0896   43.4913   25.3928 O   0  0  0  0  0  0  0  0  0  0  0  0
   24.4485   42.3701   25.7591 C   0  0  0  0  0  0  0  0  0  0  0  0
   24.6126   42.0555   27.0382 O   0  0  0  0  0  0  0  0  0  0  0  0
   24.7388   41.3017   24.7663 C   0  0  1  0  0  0  0  0  0  0  0  0
   22.5005   40.4611   24.8079 O   0  0  0  0  0  0  0  0  0  0  0  0
   26.0448   41.1373   24.2729 C   0  0  0  0  0  0  0  0  0  0  0  0
   27.6377   39.9458   23.0146 C   0  0  0  0  0  0  0  0  0  0  0  0
   27.5413   41.8527   24.7055 S   0  0  0  0  0  0  0  0  0  0  0  0
   25.2954   39.3032   22.7786 C   0  0  0  0  0  0  0  0  0  0  0  0
   23.9917   39.3991   23.2890 C   0  0  0  0  0  0  0  0  0  0  0  0
   22.3506   36.8125   21.3821 F   0  0  0  0  0  0  0  0  0  0  0  0
   26.9000   38.4107   21.1839 N   0  0  0  0  0  0  0  0  0  0  0  0
   26.9249   39.1667   19.9500 C   0  0  0  0  0  0  0  0  0  0  0  0
   25.9976   35.6142   20.2874 C   0  0  0  0  0  0  0  0  0  0  0  0
   24.4522   35.1946   17.1179 O   0  0  0  0  0  0  0  0  0  0  0  0
   25.7034   34.7624   19.0641 C   0  0  2  0  0  0  0  0  0  0  0  0
   26.8132   33.9332   18.5570 N   0  0  0  0  0  0  0  0  0  0  0  0
   27.5683   33.1951   19.5858 C   0  0  0  0  0  0  0  0  0  0  0  0
   26.4268   33.0776   17.4245 C   0  0  0  0  0  0  0  0  0  0  0  0
  1  5  1  0  0  0  0
  2 17  1  0  0  0  0
  3  1  1  0  0  0  0
  4  3  1  0  0  0  0
  4 26  1  6  0  0  0
  5 11  2  0  0  0  0
  5  6  1  0  0  0  0
  6  7  2  0  0  0  0
  7 21  1  0  0  0  0
  8 15  1  0  0  0  0
  8 16  2  0  0  0  0
  9 19  1  0  0  0  0
 10 18  1  0  0  0  0
 11 20  1  0  0  0  0
 13 14  1  0  0  0  0
 13 12  2  0  0  0  0
 15 13  1  1  0  0  0
 17 19  2  0  0  0  0
 17 15  1  0  0  0  0
 18  2  1  0  0  0  0
 18  9  2  0  0  0  0
 20 21  2  0  0  0  0
 20  2  1  0  0  0  0
 21  8  1  0  0  0  0
 22  6  1  0  0  0  0
 23 11  1  0  0  0  0
 23 10  1  0  0  0  0
 24 23  1  0  0  0  0
 25  1  1  0  0  0  0
 27  4  1  0  0  0  0
 27 25  1  0  0  0  0
 27 28  1  6  0  0  0
 29 28  1  0  0  0  0
 30 28  1  0  0  0  0
M  END
>  <CHROM.1>
87.67525231,-178.29015581,-89.50740018,63.50936520,159.37431543,25.44904900
38.52697635,22.01484137,1.51991143,-0.10515817,-2.39183060

>  <Name>
lig.pdb

>  <RI>
0

>  <Rbt.Current_Directory>
/home/itssahil/PROJECTS/Mol_Feturizer/New_Systems/rnas/6bfb

>  <Rbt.Executable>
rbdock ($Id: //depot/dev/client3/rdock/2013.1/src/exe/rbdock.cxx#4 $)

>  <Rbt.Library>
libRbt.so (2013.1, Build901 2013/11/27)

>  <Rbt.Parameter_File>
/export/apps/rDock/src/rDock_2013.1_src/data/scripts/dock_solv.prm

>  <Rbt.Receptor>
prm/pocket_docking_5.prm

>  <SCORE>
-41.4456

>  <SCORE.INTER>
-35.8981

>  <SCORE.INTER.CONST>
1

>  <SCORE.INTER.POLAR>
-1.38816

>  <SCORE.INTER.ROT>
3

>  <SCORE.INTER.SOLV>
13.5399

>  <SCORE.INTER.VDW>
-29.4182

>  <SCORE.INTER.norm>
-1.1966

>  <SCORE.INTRA>
-5.54745

>  <SCORE.INTRA.DIHEDRAL>
-7.34801

>  <SCORE.INTRA.DIHEDRAL.0>
9.41909

>  <SCORE.INTRA.POLAR>
0

>  <SCORE.INTRA.POLAR.0>
0

>  <SCORE.INTRA.REPUL>
0

>  <SCORE.INTRA.REPUL.0>
0

>  <SCORE.INTRA.SOLV>
-0.101647

>  <SCORE.INTRA.SOLV.lig_0>
-26.2491

>  <SCORE.INTRA.VDW>
-1.82262

>  <SCORE.INTRA.VDW.0>
2.57239

>  <SCORE.INTRA.norm>
-0.184915

>  <SCORE.RESTR>
0

>  <SCORE.RESTR.CAVITY>
0

>  <SCORE.RESTR.norm>
0

>  <SCORE.SYSTEM>
0

>  <SCORE.SYSTEM.CONST>
0

>  <SCORE.SYSTEM.DIHEDRAL>
0

>  <SCORE.SYSTEM.SOLV>
0

>  <SCORE.SYSTEM.norm>
0

>  <SCORE.heavy>
30

>  <SCORE.norm>
-1.38152

>  <RMSD>
2.341

$$$$
lig.pdb
 OpenBabel11021811523D
libRbt.so/2013.1/901 2013/11/27
 30 34  0  0  0  0  0  0  0  0999 V2000
   24.9162   36.5979   20.1486 N   0  0  0  0  0  0  0  0  0  0  0  0
   26.2777   40.1407   23.3270 N   0  0  0  0  0  0  0  0  0  0  0  0
   24.7063   36.9774   18.7481 C   0  0  0  0  0  0  0  0  0  0  0  0
   25.3471   35.8102   18.0123 C   0  0  2  0  0  0  0  0  0  0  0  0
   24.5954   37.5313   21.2226 C   0  0  0  0  0  0  0  0  0  0  0  0
   23.3132   37.6495   21.7967 C   0  0  0  0  0  0  0  0  0  0  0  0
   23.0011   38.5465   22.7876 C   0  0  0  0  0  0  0  0  0  0  0  0
   23.6275   40.4178   24.3172 C   0  0  0  0  0  0  0  0  0  0  0  0
   28.4160   40.7962   23.6740 C   0  0  0  0  0  0  0  0  0  0  0  0
   27.9083   38.7530   22.1611 C   0  0  0  0  0  0  0  0  0  0  0  0
   25.6006   38.3956   21.7410 C   0  0  0  0  0  0  0  0  0  0  0  0
   24.0827   43.4977   25.3835 O   0  0  0  0  0  0  0  0  0  0  0  0
   24.4441   42.3780   25.7517 C   0  0  0  0  0  0  0  0  0  0  0  0
   24.6125   42.0669   27.0311 O   0  0  0  0  0  0  0  0  0  0  0  0
   24.7324   41.3072   24.7608 C   0  0  1  0  0  0  0  0  0  0  0  0
   22.4908   40.4753   24.7985 O   0  0  0  0  0  0  0  0  0  0  0  0
   26.0388   41.1371   24.2705 C   0  0  0  0  0  0  0  0  0  0  0  0
   27.6299   39.9379   23.0172 C   0  0  0  0  0  0  0  0  0  0  0  0
   27.5371   41.8473   24.7055 S   0  0  0  0  0  0  0  0  0  0  0  0
   25.2857   39.3041   22.7768 C   0  0  0  0  0  0  0  0  0  0  0  0
   23.9812   39.4056   23.2843 C   0  0  0  0  0  0  0  0  0  0  0  0
   22.3343   36.8230   21.3769 F   0  0  0  0  0  0  0  0  0  0  0  0
   26.8903   38.4034   21.1868 N   0  0  0  0  0  0  0  0  0  0  0  0
   26.9208   39.1577   19.9520 C   0  0  0  0  0  0  0  0  0  0  0  0
   25.9948   35.6253   20.2825 C   0  0  0  0  0  0  0  0  0  0  0  0
   24.4215   35.1718   17.1315 O   0  0  0  0  0  0  0  0  0  0  0  0
   25.6971   34.7636   19.0670 C   0  0  2  0  0  0  0  0  0  0  0  0
   26.8104   33.9433   18.5530 N   0  0  0  0  0  0  0  0  0  0  0  0
   27.5777   33.2113   19.5772 C   0  0  0  0  0  0  0  0  0  0  0  0
   26.4238   33.0846   17.4230 C   0  0  0  0  0  0  0  0  0  0  0  0
  1  5  1  0  0  0  0
  2 17  1  0  0  0  0
  3  1  1  0  0  0  0
  4  3  1  0  0  0  0
  4 26  1  6  0  0  0
  5 11  2  0  0  0  0
  5  6  1  0  0  0  0
  6  7  2  0  0  0  0
  7 21  1  0  0  0  0
  8 15  1  0  0  0  0
  8 16  2  0  0  0  0
  9 19  1  0  0  0  0
 10 18  1  0  0  0  0
 11 20  1  0  0  0  0
 13 14  1  0  0  0  0
 13 12  2  0  0  0  0
 15 13  1  1  0  0  0
 17 19  2  0  0  0  0
 17 15  1  0  0  0  0
 18  2  1  0  0  0  0
 18  9  2  0  0  0  0
 20 21  2  0  0  0  0
 20  2  1  0  0  0  0
 21  8  1  0  0  0  0
 22  6  1  0  0  0  0
 23 11  1  0  0  0  0
 23 10  1  0  0  0  0
 24 23  1  0  0  0  0
 25  1  1  0  0  0  0
 27  4  1  0  0  0  0
 27 25  1  0  0  0  0
 27 28  1  6  0  0  0
 29 28  1  0  0  0  0
 30 28  1  0  0  0  0
M  END
>  <CHROM.1>
86.55608729,-177.96990281,-89.08144781,61.61696241,159.79382067,25.43943190
38.52813179,22.01308470,1.52054758,-0.09908873,-2.39194420

>  <Name>
lig.pdb

>  <RI>
0

>  <Rbt.Current_Directory>
/home/itssahil/PROJECTS/Mol_Feturizer/New_Systems/rnas/6bfb

>  <Rbt.Executable>
rbdock ($Id: //depot/dev/client3/rdock/2013.1/src/exe/rbdock.cxx#4 $)

>  <Rbt.Library>
libRbt.so (2013.1, Build901 2013/11/27)

>  <Rbt.Parameter_File>
/export/apps/rDock/src/rDock_2013.1_src/data/scripts/dock_solv.prm

>  <Rbt.Receptor>
prm/blind_docking_100.prm

>  <SCORE>
-41.4528

>  <SCORE.INTER>
-35.8851

>  <SCORE.INTER.CONST>
1

>  <SCORE.INTER.POLAR>
-1.39048

>  <SCORE.INTER.ROT>
3

>  <SCORE.INTER.SOLV>
13.5448

>  <SCORE.INTER.VDW>
-29.4034

>  <SCORE.INTER.norm>
-1.19617

>  <SCORE.INTRA>
-5.56771

>  <SCORE.INTRA.DIHEDRAL>
-7.40523

>  <SCORE.INTRA.DIHEDRAL.0>
9.41909

>  <SCORE.INTRA.POLAR>
0

>  <SCORE.INTRA.POLAR.0>
0

>  <SCORE.INTRA.REPUL>
0

>  <SCORE.INTRA.REPUL.0>
0

>  <SCORE.INTRA.SOLV>
-0.101475

>  <SCORE.INTRA.SOLV.lig_0>
-26.2491

>  <SCORE.INTRA.VDW>
-1.81435

>  <SCORE.INTRA.VDW.0>
2.57239

>  <SCORE.INTRA.norm>
-0.18559

>  <SCORE.RESTR>
0

>  <SCORE.RESTR.CAVITY>
0

>  <SCORE.RESTR.norm>
0

>  <SCORE.SYSTEM>
0

>  <SCORE.SYSTEM.CONST>
0

>  <SCORE.SYSTEM.DIHEDRAL>
0

>  <SCORE.SYSTEM.SOLV>
0

>  <SCORE.SYSTEM.norm>
0

>  <SCORE.heavy>
30

>  <SCORE.norm>
-1.38176

>  <RMSD>
2.346

$$$$
lig.pdb
 OpenBabel11021811523D
libRbt.so/2013.1/901 2013/11/27
 30 34  0  0  0  0  0  0  0  0999 V2000
   24.8814   36.6036   20.1392 N   0  0  0  0  0  0  0  0  0  0  0  0
   26.2940   40.1293   23.3143 N   0  0  0  0  0  0  0  0  0  0  0  0
   24.5684   36.9510   18.7497 C   0  0  0  0  0  0  0  0  0  0  0  0
   25.2246   35.8079   17.9900 C   0  0  2  0  0  0  0  0  0  0  0  0
   24.5767   37.5347   21.2198 C   0  0  0  0  0  0  0  0  0  0  0  0
   23.3014   37.6569   21.8083 C   0  0  0  0  0  0  0  0  0  0  0  0
   23.0043   38.5519   22.8056 C   0  0  0  0  0  0  0  0  0  0  0  0
   23.6561   40.4151   24.3345 C   0  0  0  0  0  0  0  0  0  0  0  0
   28.4390   40.7739   23.6398 C   0  0  0  0  0  0  0  0  0  0  0  0
   27.9053   38.7382   22.1258 C   0  0  0  0  0  0  0  0  0  0  0  0
   25.5915   38.3927   21.7299 C   0  0  0  0  0  0  0  0  0  0  0  0
   24.1669   43.4980   25.4047 O   0  0  0  0  0  0  0  0  0  0  0  0
   24.4974   42.3666   25.7664 C   0  0  0  0  0  0  0  0  0  0  0  0
   24.6453   42.0404   27.0446 O   0  0  0  0  0  0  0  0  0  0  0  0
   24.7699   41.2979   24.7688 C   0  0  1  0  0  0  0  0  0  0  0  0
   22.5251   40.4761   24.8284 O   0  0  0  0  0  0  0  0  0  0  0  0
   26.0700   41.1236   24.2637 C   0  0  0  0  0  0  0  0  0  0  0  0
   27.6417   39.9214   22.9888 C   0  0  0  0  0  0  0  0  0  0  0  0
   27.5763   41.8255   24.6845 S   0  0  0  0  0  0  0  0  0  0  0  0
   25.2921   39.2991   22.7722 C   0  0  0  0  0  0  0  0  0  0  0  0
   23.9938   39.4048   23.2943 C   0  0  0  0  0  0  0  0  0  0  0  0
   22.3142   36.8362   21.3966 F   0  0  0  0  0  0  0  0  0  0  0  0
   26.8750   38.3965   21.1616 N   0  0  0  0  0  0  0  0  0  0  0  0
   26.8954   39.1549   19.9290 C   0  0  0  0  0  0  0  0  0  0  0  0
   26.0158   35.6903   20.2188 C   0  0  0  0  0  0  0  0  0  0  0  0
   24.2829   35.1095   17.1742 O   0  0  0  0  0  0  0  0  0  0  0  0
   25.6916   34.7965   19.0336 C   0  0  2  0  0  0  0  0  0  0  0  0
   26.8139   34.0276   18.4627 N   0  0  0  0  0  0  0  0  0  0  0  0
   27.7024   33.3853   19.4483 C   0  0  0  0  0  0  0  0  0  0  0  0
   26.3996   33.1030   17.3962 C   0  0  0  0  0  0  0  0  0  0  0  0
  1  5  1  0  0  0  0
  2 17  1  0  0  0  0
  3  1  1  0  0  0  0
  4  3  1  0  0  0  0
  4 26  1  6  0  0  0
  5 11  2  0  0  0  0
  5  6  1  0  0  0  0
  6  7  2  0  0  0  0
  7 21  1  0  0  0  0
  8 15  1  0  0  0  0
  8 16  2  0  0  0  0
  9 19  1  0  0  0  0
 10 18  1  0  0  0  0
 11 20  1  0  0  0  0
 13 14  1  0  0  0  0
 13 12  2  0  0  0  0
 15 13  1  1  0  0  0
 17 19  2  0  0  0  0
 17 15  1  0  0  0  0
 18  2  1  0  0  0  0
 18  9  2  0  0  0  0
 20 21  2  0  0  0  0
 20  2  1  0  0  0  0
 21  8  1  0  0  0  0
 22  6  1  0  0  0  0
 23 11  1  0  0  0  0
 23 10  1  0  0  0  0
 24 23  1  0  0  0  0
 25  1  1  0  0  0  0
 27  4  1  0  0  0  0
 27 25  1  0  0  0  0
 27 28  1  6  0  0  0
 29 28  1  0  0  0  0
 30 28  1  0  0  0  0
M  END
>  <CHROM.1>
82.14420506,-178.42738703,-90.75830401,65.32212588,158.01382952,25.44022938
38.53217315,22.00068674,1.52825879,-0.10047461,-2.38426650

>  <Name>
lig.pdb

>  <RI>
0

>  <Rbt.Current_Directory>
/home/itssahil/PROJECTS/Mol_Feturizer/New_Systems/rnas/6bfb

>  <Rbt.Executable>
rbdock ($Id: //depot/dev/client3/rdock/2013.1/src/exe/rbdock.cxx#4 $)

>  <Rbt.Library>
libRbt.so (2013.1, Build901 2013/11/27)

>  <Rbt.Parameter_File>
/export/apps/rDock/src/rDock_2013.1_src/data/scripts/dock_solv.prm

>  <Rbt.Receptor>
prm/pocket_docking_4.prm

>  <SCORE>
-41.1498

>  <SCORE.INTER>
-35.6311

>  <SCORE.INTER.CONST>
1

>  <SCORE.INTER.POLAR>
-1.36636

>  <SCORE.INTER.ROT>
3

>  <SCORE.INTER.SOLV>
13.405

>  <SCORE.INTER.VDW>
-29.2679

>  <SCORE.INTER.norm>
-1.1877

>  <SCORE.INTRA>
-5.5263

>  <SCORE.INTRA.DIHEDRAL>
-7.21487

>  <SCORE.INTRA.DIHEDRAL.0>
9.41909

>  <SCORE.INTRA.POLAR>
0

>  <SCORE.INTRA.POLAR.0>
0

>  <SCORE.INTRA.REPUL>
0

>  <SCORE.INTRA.REPUL.0>
0

>  <SCORE.INTRA.SOLV>
-0.102388

>  <SCORE.INTRA.SOLV.lig_0>
-26.2491

>  <SCORE.INTRA.VDW>
-1.86767

>  <SCORE.INTRA.VDW.0>
2.57239

>  <SCORE.INTRA.norm>
-0.18421

>  <SCORE.RESTR>
0.00760039

>  <SCORE.RESTR.CAVITY>
0.00760039

>  <SCORE.RESTR.norm>
0.000253346

>  <SCORE.SYSTEM>
0

>  <SCORE.SYSTEM.CONST>
0

>  <SCORE.SYSTEM.DIHEDRAL>
0

>  <SCORE.SYSTEM.SOLV>
0

>  <SCORE.SYSTEM.norm>
0

>  <SCORE.heavy>
30

>  <SCORE.norm>
-1.37166

>  <RMSD>
2.350

$$$$
lig.pdb
 OpenBabel11021811523D
libRbt.so/2013.1/901 2013/11/27
 30 34  0  0  0  0  0  0  0  0999 V2000
   26.3031   36.5104   19.5825 N   0  0  0  0  0  0  0  0  0  0  0  0
   26.3405   39.6727   23.3912 N   0  0  0  0  0  0  0  0  0  0  0  0
   27.3637   35.5438   19.8830 C   0  0  0  0  0  0  0  0  0  0  0  0
   27.6382   34.9494   18.5098 C   0  0  2  0  0  0  0  0  0  0  0  0
   25.6108   37.2062   20.6614 C   0  0  0  0  0  0  0  0  0  0  0  0
   24.2387   37.0424   20.9415 C   0  0  0  0  0  0  0  0  0  0  0  0
   23.5780   37.7169   21.9377 C   0  0  0  0  0  0  0  0  0  0  0  0
   23.5387   39.3969   23.7843 C   0  0  0  0  0  0  0  0  0  0  0  0
   28.2128   40.5740   24.2882 C   0  0  0  0  0  0  0  0  0  0  0  0
   28.3937   38.7410   22.4637 C   0  0  0  0  0  0  0  0  0  0  0  0
   26.3201   38.1173   21.4939 C   0  0  0  0  0  0  0  0  0  0  0  0
   23.0756   42.2268   25.2654 O   0  0  0  0  0  0  0  0  0  0  0  0
   23.6858   41.2067   25.5926 C   0  0  0  0  0  0  0  0  0  0  0  0
   23.7978   40.8160   26.8563 O   0  0  0  0  0  0  0  0  0  0  0  0
   24.3546   40.3589   24.5700 C   0  0  1  0  0  0  0  0  0  0  0  0
   22.3364   39.2098   24.0002 O   0  0  0  0  0  0  0  0  0  0  0  0
   25.7422   40.4626   24.3701 C   0  0  0  0  0  0  0  0  0  0  0  0
   27.7414   39.7228   23.3720 C   0  0  0  0  0  0  0  0  0  0  0  0
   26.9706   41.3090   25.2145 S   0  0  0  0  0  0  0  0  0  0  0  0
   25.6454   38.7956   22.5342 C   0  0  0  0  0  0  0  0  0  0  0  0
   24.2684   38.6226   22.7429 C   0  0  0  0  0  0  0  0  0  0  0  0
   23.5282   36.1567   20.2149 F   0  0  0  0  0  0  0  0  0  0  0  0
   27.6727   38.4021   21.2499 N   0  0  0  0  0  0  0  0  0  0  0  0
   27.8176   39.3369   20.1545 C   0  0  0  0  0  0  0  0  0  0  0  0
   25.6316   36.1933   18.3272 C   0  0  0  0  0  0  0  0  0  0  0  0
   29.0067   35.1070   18.1325 O   0  0  0  0  0  0  0  0  0  0  0  0
   26.8387   35.7747   17.5049 C   0  0  2  0  0  0  0  0  0  0  0  0
   26.5706   34.9324   16.3238 N   0  0  0  0  0  0  0  0  0  0  0  0
   25.5638   33.8737   16.5214 C   0  0  0  0  0  0  0  0  0  0  0  0
   26.3311   35.7112   15.0990 C   0  0  0  0  0  0  0  0  0  0  0  0
  1  5  1  0  0  0  0
  2 17  1  0  0  0  0
  3  1  1  0  0  0  0
  4  3  1  0  0  0  0
  4 26  1  6  0  0  0
  5 11  2  0  0  0  0
  5  6  1  0  0  0  0
  6  7  2  0  0  0  0
  7 21  1  0  0  0  0
  8 15  1  0  0  0  0
  8 16  2  0  0  0  0
  9 19  1  0  0  0  0
 10 18  1  0  0  0  0
 11 20  1  0  0  0  0
 13 14  1  0  0  0  0
 13 12  2  0  0  0  0
 15 13  1  1  0  0  0
 17 19  2  0  0  0  0
 17 15  1  0  0  0  0
 18  2  1  0  0  0  0
 18  9  2  0  0  0  0
 20 21  2  0  0  0  0
 20  2  1  0  0  0  0
 21  8  1  0  0  0  0
 22  6  1  0  0  0  0
 23 11  1  0  0  0  0
 23 10  1  0  0  0  0
 24 23  1  0  0  0  0
 25  1  1  0  0  0  0
 27  4  1  0  0  0  0
 27 25  1  0  0  0  0
 27 28  1  6  0  0  0
 29 28  1  0  0  0  0
 30 28  1  0  0  0  0
M  END
>  <CHROM.1>
-115.25665630,-172.40809891,-80.42139009,-179.72266346,72.88716613,25.83479090
38.20727750,21.59606360,1.38368146,-0.13534553,-2.22211431

>  <Name>
lig.pdb

>  <RI>
0

>  <Rbt.Current_Directory>
/home/itssahil/PROJECTS/Mol_Feturizer/New_Systems/rnas/6bfb

>  <Rbt.Executable>
rbdock ($Id: //depot/dev/client3/rdock/2013.1/src/exe/rbdock.cxx#4 $)

>  <Rbt.Library>
libRbt.so (2013.1, Build901 2013/11/27)

>  <Rbt.Parameter_File>
/export/apps/rDock/src/rDock_2013.1_src/data/scripts/dock_solv.prm

>  <Rbt.Receptor>
prm/blind_docking_100.prm

>  <SCORE>
-35.7136

>  <SCORE.INTER>
-30.3089

>  <SCORE.INTER.CONST>
1

>  <SCORE.INTER.POLAR>
-1.14654

>  <SCORE.INTER.ROT>
3

>  <SCORE.INTER.SOLV>
13.4569

>  <SCORE.INTER.VDW>
-26.4697

>  <SCORE.INTER.norm>
-1.0103

>  <SCORE.INTRA>
-5.4047

>  <SCORE.INTRA.DIHEDRAL>
-6.90398

>  <SCORE.INTRA.DIHEDRAL.0>
9.41909

>  <SCORE.INTRA.POLAR>
0

>  <SCORE.INTRA.POLAR.0>
0

>  <SCORE.INTRA.REPUL>
0.0423198

>  <SCORE.INTRA.REPUL.0>
0

>  <SCORE.INTRA.SOLV>
-0.316937

>  <SCORE.INTRA.SOLV.lig_0>
-26.2491

>  <SCORE.INTRA.VDW>
-2.00584

>  <SCORE.INTRA.VDW.0>
2.57239

>  <SCORE.INTRA.norm>
-0.180157

>  <SCORE.RESTR>
0

>  <SCORE.RESTR.CAVITY>
0

>  <SCORE.RESTR.norm>
0

>  <SCORE.SYSTEM>
0

>  <SCORE.SYSTEM.CONST>
0

>  <SCORE.SYSTEM.DIHEDRAL>
0

>  <SCORE.SYSTEM.SOLV>
0

>  <SCORE.SYSTEM.norm>
0

>  <SCORE.heavy>
30

>  <SCORE.norm>
-1.19045

>  <RMSD>
2.366

$$$$
lig.pdb
 OpenBabel11021811523D
libRbt.so/2013.1/901 2013/11/27
 30 34  0  0  0  0  0  0  0  0999 V2000
   26.5230   36.7265   19.6113 N   0  0  0  0  0  0  0  0  0  0  0  0
   26.2216   39.7350   23.5312 N   0  0  0  0  0  0  0  0  0  0  0  0
   27.7322   35.9542   19.9127 C   0  0  0  0  0  0  0  0  0  0  0  0
   28.0716   35.3674   18.5508 C   0  0  2  0  0  0  0  0  0  0  0  0
   25.7491   37.3362   20.6868 C   0  0  0  0  0  0  0  0  0  0  0  0
   24.3806   37.0781   20.9067 C   0  0  0  0  0  0  0  0  0  0  0  0
   23.6426   37.6717   21.9001 C   0  0  0  0  0  0  0  0  0  0  0  0
   23.4299   39.2733   23.8037 C   0  0  0  0  0  0  0  0  0  0  0  0
   27.9994   40.7137   24.5332 C   0  0  0  0  0  0  0  0  0  0  0  0
   28.3620   38.9674   22.6517 C   0  0  0  0  0  0  0  0  0  0  0  0
   26.3687   38.2560   21.5792 C   0  0  0  0  0  0  0  0  0  0  0  0
   22.6369   41.9310   25.3531 O   0  0  0  0  0  0  0  0  0  0  0  0
   23.3966   41.0171   25.6811 C   0  0  0  0  0  0  0  0  0  0  0  0
   23.5965   40.6748   26.9480 O   0  0  0  0  0  0  0  0  0  0  0  0
   24.1544   40.2522   24.6554 C   0  0  1  0  0  0  0  0  0  0  0  0
   22.2346   39.0047   23.9653 O   0  0  0  0  0  0  0  0  0  0  0  0
   25.5392   40.4482   24.5140 C   0  0  0  0  0  0  0  0  0  0  0  0
   27.6164   39.8714   23.5689 C   0  0  0  0  0  0  0  0  0  0  0  0
   26.6802   41.3348   25.4362 S   0  0  0  0  0  0  0  0  0  0  0  0
   25.6149   38.8509   22.6162 C   0  0  0  0  0  0  0  0  0  0  0  0
   24.2447   38.5861   22.7643 C   0  0  0  0  0  0  0  0  0  0  0  0
   23.7542   36.1793   20.1210 F   0  0  0  0  0  0  0  0  0  0  0  0
   27.7089   38.6323   21.3990 N   0  0  0  0  0  0  0  0  0  0  0  0
   27.8354   39.6161   20.3449 C   0  0  0  0  0  0  0  0  0  0  0  0
   25.8864   36.2643   18.3831 C   0  0  0  0  0  0  0  0  0  0  0  0
   29.3883   35.7315   18.1344 O   0  0  0  0  0  0  0  0  0  0  0  0
   27.1285   36.0195   17.5430 C   0  0  2  0  0  0  0  0  0  0  0  0
   26.9765   35.1067   16.3939 N   0  0  0  0  0  0  0  0  0  0  0  0
   26.3620   33.8028   16.7030 C   0  0  0  0  0  0  0  0  0  0  0  0
   26.3656   35.7495   15.2202 C   0  0  0  0  0  0  0  0  0  0  0  0
  1  5  1  0  0  0  0
  2 17  1  0  0  0  0
  3  1  1  0  0  0  0
  4  3  1  0  0  0  0
  4 26  1  6  0  0  0
  5 11  2  0  0  0  0
  5  6  1  0  0  0  0
  6  7  2  0  0  0  0
  7 21  1  0  0  0  0
  8 15  1  0  0  0  0
  8 16  2  0  0  0  0
  9 19  1  0  0  0  0
 10 18  1  0  0  0  0
 11 20  1  0  0  0  0
 13 14  1  0  0  0  0
 13 12  2  0  0  0  0
 15 13  1  1  0  0  0
 17 19  2  0  0  0  0
 17 15  1  0  0  0  0
 18  2  1  0  0  0  0
 18  9  2  0  0  0  0
 20 21  2  0  0  0  0
 20  2  1  0  0  0  0
 21  8  1  0  0  0  0
 22  6  1  0  0  0  0
 23 11  1  0  0  0  0
 23 10  1  0  0  0  0
 24 23  1  0  0  0  0
 25  1  1  0  0  0  0
 27  4  1  0  0  0  0
 27 25  1  0  0  0  0
 27 28  1  6  0  0  0
 29 28  1  0  0  0  0
 30 28  1  0  0  0  0
M  END
>  <CHROM.1>
-123.06138291,-174.63877088,-73.51500512,173.12004343,62.79803083,25.87566717
38.28763052,21.68118561,1.31883984,-0.16022318,-2.20791017

>  <Name>
lig.pdb

>  <RI>
0

>  <Rbt.Current_Directory>
/home/itssahil/PROJECTS/Mol_Feturizer/New_Systems/rnas/6bfb

>  <Rbt.Executable>
rbdock ($Id: //depot/dev/client3/rdock/2013.1/src/exe/rbdock.cxx#4 $)

>  <Rbt.Library>
libRbt.so (2013.1, Build901 2013/11/27)

>  <Rbt.Parameter_File>
/export/apps/rDock/src/rDock_2013.1_src/data/scripts/dock_solv.prm

>  <Rbt.Receptor>
prm/pocket_docking_8.prm

>  <SCORE>
-36.1871

>  <SCORE.INTER>
-30.898

>  <SCORE.INTER.CONST>
1

>  <SCORE.INTER.POLAR>
-1.24145

>  <SCORE.INTER.ROT>
3

>  <SCORE.INTER.SOLV>
13.887

>  <SCORE.INTER.VDW>
-26.6895

>  <SCORE.INTER.norm>
-1.02993

>  <SCORE.INTRA>
-5.28905

>  <SCORE.INTRA.DIHEDRAL>
-7.24012

>  <SCORE.INTRA.DIHEDRAL.0>
9.41909

>  <SCORE.INTRA.POLAR>
0

>  <SCORE.INTRA.POLAR.0>
0

>  <SCORE.INTRA.REPUL>
0.0227009

>  <SCORE.INTRA.REPUL.0>
0

>  <SCORE.INTRA.SOLV>
-0.283241

>  <SCORE.INTRA.SOLV.lig_0>
-26.2491

>  <SCORE.INTRA.VDW>
-1.64088

>  <SCORE.INTRA.VDW.0>
2.57239

>  <SCORE.INTRA.norm>
-0.176302

>  <SCORE.RESTR>
0

>  <SCORE.RESTR.CAVITY>
0

>  <SCORE.RESTR.norm>
0

>  <SCORE.SYSTEM>
0

>  <SCORE.SYSTEM.CONST>
0

>  <SCORE.SYSTEM.DIHEDRAL>
0

>  <SCORE.SYSTEM.SOLV>
0

>  <SCORE.SYSTEM.norm>
0

>  <SCORE.heavy>
30

>  <SCORE.norm>
-1.20624

>  <RMSD>
2.371

$$$$
lig.pdb
 OpenBabel11021811523D
libRbt.so/2013.1/901 2013/11/27
 30 34  0  0  0  0  0  0  0  0999 V2000
   26.2601   38.3742   20.1369 N   0  0  0  0  0  0  0  0  0  0  0  0
   25.6644   40.8986   24.3535 N   0  0  0  0  0  0  0  0  0  0  0  0
   25.9675   39.0052   18.8464 C   0  0  0  0  0  0  0  0  0  0  0  0
   27.1327   38.5233   17.9954 C   0  0  2  0  0  0  0  0  0  0  0  0
   25.4695   38.7055   21.3171 C   0  0  0  0  0  0  0  0  0  0  0  0
   24.2110   38.1358   21.5984 C   0  0  0  0  0  0  0  0  0  0  0  0
   23.4517   38.4664   22.6930 C   0  0  0  0  0  0  0  0  0  0  0  0
   23.0681   39.8144   24.7593 C   0  0  0  0  0  0  0  0  0  0  0  0
   27.2733   42.1545   25.3317 C   0  0  0  0  0  0  0  0  0  0  0  0
   27.8355   40.6968   23.2628 C   0  0  0  0  0  0  0  0  0  0  0  0
   25.9540   39.6595   22.2559 C   0  0  0  0  0  0  0  0  0  0  0  0
   22.2161   40.5529   27.5264 O   0  0  0  0  0  0  0  0  0  0  0  0
   22.8266   41.3423   26.8024 C   0  0  0  0  0  0  0  0  0  0  0  0
   22.7852   42.6565   26.9845 O   0  0  0  0  0  0  0  0  0  0  0  0
   23.6387   40.8523   25.6569 C   0  0  1  0  0  0  0  0  0  0  0  0
   21.9753   39.2775   24.9704 O   0  0  0  0  0  0  0  0  0  0  0  0
   24.9330   41.3585   25.4461 C   0  0  0  0  0  0  0  0  0  0  0  0
   26.9965   41.3339   24.3138 C   0  0  0  0  0  0  0  0  0  0  0  0
   25.9347   42.3920   26.3772 S   0  0  0  0  0  0  0  0  0  0  0  0
   25.1830   39.9841   23.3950 C   0  0  0  0  0  0  0  0  0  0  0  0
   23.9180   39.4136   23.6045 C   0  0  0  0  0  0  0  0  0  0  0  0
   23.7245   37.1917   20.7680 F   0  0  0  0  0  0  0  0  0  0  0  0
   27.1634   40.3345   22.0278 N   0  0  0  0  0  0  0  0  0  0  0  0
   26.9875   41.4080   21.0732 C   0  0  0  0  0  0  0  0  0  0  0  0
   27.6664   38.0022   20.2429 C   0  0  0  0  0  0  0  0  0  0  0  0
   26.6823   37.8216   16.8358 O   0  0  0  0  0  0  0  0  0  0  0  0
   27.8901   37.4929   18.8290 C   0  0  2  0  0  0  0  0  0  0  0  0
   29.2873   37.4528   18.3571 N   0  0  0  0  0  0  0  0  0  0  0  0
   29.5086   36.7004   17.1088 C   0  0  0  0  0  0  0  0  0  0  0  0
   29.9295   38.7760   18.3346 C   0  0  0  0  0  0  0  0  0  0  0  0
  1  5  1  0  0  0  0
  2 17  1  0  0  0  0
  3  1  1  0  0  0  0
  4  3  1  0  0  0  0
  4 26  1  6  0  0  0
  5 11  2  0  0  0  0
  5  6  1  0  0  0  0
  6  7  2  0  0  0  0
  7 21  1  0  0  0  0
  8 15  1  0  0  0  0
  8 16  2  0  0  0  0
  9 19  1  0  0  0  0
 10 18  1  0  0  0  0
 11 20  1  0  0  0  0
 13 14  1  0  0  0  0
 13 12  2  0  0  0  0
 15 13  1  1  0  0  0
 17 19  2  0  0  0  0
 17 15  1  0  0  0  0
 18  2  1  0  0  0  0
 18  9  2  0  0  0  0
 20 21  2  0  0  0  0
 20  2  1  0  0  0  0
 21  8  1  0  0  0  0
 22  6  1  0  0  0  0
 23 11  1  0  0  0  0
 23 10  1  0  0  0  0
 24 23  1  0  0  0  0
 25  1  1  0  0  0  0
 27  4  1  0  0  0  0
 27 25  1  0  0  0  0
 27 28  1  6  0  0  0
 29 28  1  0  0  0  0
 30 28  1  0  0  0  0
M  END
>  <CHROM.1>
81.29042705,0.72457882,44.99356215,151.82111842,-78.08691220,25.71865958
39.70747093,22.47305224,1.09598157,-0.38394121,-2.17208209

>  <Name>
lig.pdb

>  <RI>
0

>  <Rbt.Current_Directory>
/home/itssahil/PROJECTS/Mol_Feturizer/New_Systems/rnas/6bfb

>  <Rbt.Executable>
rbdock ($Id: //depot/dev/client3/rdock/2013.1/src/exe/rbdock.cxx#4 $)

>  <Rbt.Library>
libRbt.so (2013.1, Build901 2013/11/27)

>  <Rbt.Parameter_File>
/export/apps/rDock/src/rDock_2013.1_src/data/scripts/dock_solv.prm

>  <Rbt.Receptor>
prm/pocket_docking_3.prm

>  <SCORE>
-32.8724

>  <SCORE.INTER>
-29.5776

>  <SCORE.INTER.CONST>
1

>  <SCORE.INTER.POLAR>
-0.901428

>  <SCORE.INTER.ROT>
3

>  <SCORE.INTER.SOLV>
11.4841

>  <SCORE.INTER.VDW>
-26.1417

>  <SCORE.INTER.norm>
-0.98592

>  <SCORE.INTRA>
-3.29479

>  <SCORE.INTRA.DIHEDRAL>
-4.31135

>  <SCORE.INTRA.DIHEDRAL.0>
9.41909

>  <SCORE.INTRA.POLAR>
0

>  <SCORE.INTRA.POLAR.0>
0

>  <SCORE.INTRA.REPUL>
0

>  <SCORE.INTRA.REPUL.0>
0

>  <SCORE.INTRA.SOLV>
0.153002

>  <SCORE.INTRA.SOLV.lig_0>
-26.2491

>  <SCORE.INTRA.VDW>
-1.21561

>  <SCORE.INTRA.VDW.0>
2.57239

>  <SCORE.INTRA.norm>
-0.109826

>  <SCORE.RESTR>
0

>  <SCORE.RESTR.CAVITY>
0

>  <SCORE.RESTR.norm>
0

>  <SCORE.SYSTEM>
0

>  <SCORE.SYSTEM.CONST>
0

>  <SCORE.SYSTEM.DIHEDRAL>
0

>  <SCORE.SYSTEM.SOLV>
0

>  <SCORE.SYSTEM.norm>
0

>  <SCORE.heavy>
30

>  <SCORE.norm>
-1.09575

>  <RMSD>
2.376

$$$$
lig.pdb
 OpenBabel11021811523D
libRbt.so/2013.1/901 2013/11/27
 30 34  0  0  0  0  0  0  0  0999 V2000
   26.5315   39.4260   22.5268 N   0  0  0  0  0  0  0  0  0  0  0  0
   26.1882   42.7005   26.2237 N   0  0  0  0  0  0  0  0  0  0  0  0
   27.9540   39.1157   22.6995 C   0  0  0  0  0  0  0  0  0  0  0  0
   28.2549   38.3297   21.4322 C   0  0  2  0  0  0  0  0  0  0  0  0
   25.7736   40.0431   23.6095 C   0  0  0  0  0  0  0  0  0  0  0  0
   24.4572   39.6716   23.9510 C   0  0  0  0  0  0  0  0  0  0  0  0
   23.7310   40.2695   24.9505 C   0  0  0  0  0  0  0  0  0  0  0  0
   23.4840   41.9927   26.7404 C   0  0  0  0  0  0  0  0  0  0  0  0
   27.9195   43.9263   27.0127 C   0  0  0  0  0  0  0  0  0  0  0  0
   28.3317   42.0760   25.2442 C   0  0  0  0  0  0  0  0  0  0  0  0
   26.3542   41.0886   24.3815 C   0  0  0  0  0  0  0  0  0  0  0  0
   23.7984   43.9437   29.6441 O   0  0  0  0  0  0  0  0  0  0  0  0
   23.3985   43.8723   28.4801 C   0  0  0  0  0  0  0  0  0  0  0  0
   22.2751   44.4512   28.0743 O   0  0  0  0  0  0  0  0  0  0  0  0
   24.1598   43.1037   27.4596 C   0  0  1  0  0  0  0  0  0  0  0  0
   22.3365   41.6230   27.0115 O   0  0  0  0  0  0  0  0  0  0  0  0
   25.5042   43.4216   27.1996 C   0  0  0  0  0  0  0  0  0  0  0  0
   27.5609   42.9749   26.1454 C   0  0  0  0  0  0  0  0  0  0  0  0
   26.6077   44.4875   27.9643 S   0  0  0  0  0  0  0  0  0  0  0  0
   25.6153   41.6898   25.4256 C   0  0  0  0  0  0  0  0  0  0  0  0
   24.2929   41.3056   25.6962 C   0  0  0  0  0  0  0  0  0  0  0  0
   23.8749   38.6550   23.2839 F   0  0  0  0  0  0  0  0  0  0  0  0
   27.6332   41.5778   24.0729 N   0  0  0  0  0  0  0  0  0  0  0  0
   27.5857   42.4799   22.9420 C   0  0  0  0  0  0  0  0  0  0  0  0
   25.8988   38.5195   21.5753 C   0  0  0  0  0  0  0  0  0  0  0  0
   29.3105   38.9291   20.6797 O   0  0  0  0  0  0  0  0  0  0  0  0
   27.0145   38.4284   20.5479 C   0  0  2  0  0  0  0  0  0  0  0  0
   26.9904   37.2563   19.6523 N   0  0  0  0  0  0  0  0  0  0  0  0
   26.8749   35.9508   20.3273 C   0  0  0  0  0  0  0  0  0  0  0  0
   26.0392   37.3972   18.5391 C   0  0  0  0  0  0  0  0  0  0  0  0
  1  5  1  0  0  0  0
  2 17  1  0  0  0  0
  3  1  1  0  0  0  0
  4  3  1  0  0  0  0
  4 26  1  6  0  0  0
  5 11  2  0  0  0  0
  5  6  1  0  0  0  0
  6  7  2  0  0  0  0
  7 21  1  0  0  0  0
  8 15  1  0  0  0  0
  8 16  2  0  0  0  0
  9 19  1  0  0  0  0
 10 18  1  0  0  0  0
 11 20  1  0  0  0  0
 13 14  1  0  0  0  0
 13 12  2  0  0  0  0
 15 13  1  1  0  0  0
 17 19  2  0  0  0  0
 17 15  1  0  0  0  0
 18  2  1  0  0  0  0
 18  9  2  0  0  0  0
 20 21  2  0  0  0  0
 20  2  1  0  0  0  0
 21  8  1  0  0  0  0
 22  6  1  0  0  0  0
 23 11  1  0  0  0  0
 23 10  1  0  0  0  0
 24 23  1  0  0  0  0
 25  1  1  0  0  0  0
 27  4  1  0  0  0  0
 27 25  1  0  0  0  0
 27 28  1  1  0  0  0
 29 28  1  0  0  0  0
 30 28  1  0  0  0  0
M  END
>  <CHROM.1>
-138.92203584,1.29839982,122.11147210,178.91231604,62.78659160,25.87146815
41.05468995,24.53829421,1.30113336,-0.29201356,-2.31858117

>  <Name>
lig.pdb

>  <RI>
0

>  <Rbt.Current_Directory>
/home/itssahil/PROJECTS/Mol_Feturizer/New_Systems/rnas/6bfb

>  <Rbt.Executable>
rbdock ($Id: //depot/dev/client3/rdock/2013.1/src/exe/rbdock.cxx#4 $)

>  <Rbt.Library>
libRbt.so (2013.1, Build901 2013/11/27)

>  <Rbt.Parameter_File>
/export/apps/rDock/src/rDock_2013.1_src/data/scripts/dock_solv.prm

>  <Rbt.Receptor>
prm/pocket_docking_4.prm

>  <SCORE>
-34.6916

>  <SCORE.INTER>
-30.2935

>  <SCORE.INTER.CONST>
1

>  <SCORE.INTER.POLAR>
0

>  <SCORE.INTER.ROT>
3

>  <SCORE.INTER.SOLV>
11.7326

>  <SCORE.INTER.VDW>
-29.7065

>  <SCORE.INTER.norm>
-1.00978

>  <SCORE.INTRA>
-4.39803

>  <SCORE.INTRA.DIHEDRAL>
-7.61794

>  <SCORE.INTRA.DIHEDRAL.0>
9.41909

>  <SCORE.INTRA.POLAR>
0

>  <SCORE.INTRA.POLAR.0>
0

>  <SCORE.INTRA.REPUL>
0

>  <SCORE.INTRA.REPUL.0>
0

>  <SCORE.INTRA.SOLV>
-0.118134

>  <SCORE.INTRA.SOLV.lig_0>
-26.2491

>  <SCORE.INTRA.VDW>
-0.529995

>  <SCORE.INTRA.VDW.0>
2.57239

>  <SCORE.INTRA.norm>
-0.146601

>  <SCORE.RESTR>
0

>  <SCORE.RESTR.CAVITY>
0

>  <SCORE.RESTR.norm>
0

>  <SCORE.SYSTEM>
0

>  <SCORE.SYSTEM.CONST>
0

>  <SCORE.SYSTEM.DIHEDRAL>
0

>  <SCORE.SYSTEM.SOLV>
0

>  <SCORE.SYSTEM.norm>
0

>  <SCORE.heavy>
30

>  <SCORE.norm>
-1.15639

>  <RMSD>
2.385

$$$$
lig.pdb
 OpenBabel11021811523D
libRbt.so/2013.1/901 2013/11/27
 30 34  0  0  0  0  0  0  0  0999 V2000
   24.8920   36.5425   20.0433 N   0  0  0  0  0  0  0  0  0  0  0  0
   26.0880   40.3269   23.0022 N   0  0  0  0  0  0  0  0  0  0  0  0
   24.6748   36.8865   18.6347 C   0  0  0  0  0  0  0  0  0  0  0  0
   25.3486   35.7219   17.9247 C   0  0  2  0  0  0  0  0  0  0  0  0
   24.5437   37.4892   21.0968 C   0  0  0  0  0  0  0  0  0  0  0  0
   23.2877   37.5174   21.7366 C   0  0  0  0  0  0  0  0  0  0  0  0
   22.9471   38.4250   22.7083 C   0  0  0  0  0  0  0  0  0  0  0  0
   23.4788   40.4092   24.1274 C   0  0  0  0  0  0  0  0  0  0  0  0
   28.1726   41.1849   23.2037 C   0  0  0  0  0  0  0  0  0  0  0  0
   27.7756   39.0409   21.8011 C   0  0  0  0  0  0  0  0  0  0  0  0
   25.4914   38.4613   21.5246 C   0  0  0  0  0  0  0  0  0  0  0  0
   24.8875   42.6914   26.4326 O   0  0  0  0  0  0  0  0  0  0  0  0
   24.1865   42.4947   25.4377 C   0  0  0  0  0  0  0  0  0  0  0  0
   23.1003   43.2116   25.1765 O   0  0  0  0  0  0  0  0  0  0  0  0
   24.5194   41.4119   24.4741 C   0  0  1  0  0  0  0  0  0  0  0  0
   22.3683   40.3859   24.6689 O   0  0  0  0  0  0  0  0  0  0  0  0
   25.8085   41.3380   23.9185 C   0  0  0  0  0  0  0  0  0  0  0  0
   27.4350   40.2322   22.6253 C   0  0  0  0  0  0  0  0  0  0  0  0
   27.2563   42.1971   24.2415 S   0  0  0  0  0  0  0  0  0  0  0  0
   25.1492   39.3821   22.5407 C   0  0  0  0  0  0  0  0  0  0  0  0
   23.8691   39.3888   23.1160 C   0  0  0  0  0  0  0  0  0  0  0  0
   22.3679   36.5894   21.4043 F   0  0  0  0  0  0  0  0  0  0  0  0
   26.7443   38.5600   20.8994 N   0  0  0  0  0  0  0  0  0  0  0  0
   26.6413   39.2599   19.6367 C   0  0  0  0  0  0  0  0  0  0  0  0
   25.9964   35.6026   20.1992 C   0  0  0  0  0  0  0  0  0  0  0  0
   24.4426   35.0402   17.0562 O   0  0  0  0  0  0  0  0  0  0  0  0
   25.7247   34.7077   19.0018 C   0  0  2  0  0  0  0  0  0  0  0  0
   26.8610   33.9074   18.5069 N   0  0  0  0  0  0  0  0  0  0  0  0
   27.6290   33.1960   19.5449 C   0  0  0  0  0  0  0  0  0  0  0  0
   26.5069   33.0356   17.3762 C   0  0  0  0  0  0  0  0  0  0  0  0
  1  5  1  0  0  0  0
  2 17  1  0  0  0  0
  3  1  1  0  0  0  0
  4  3  1  0  0  0  0
  4 26  1  6  0  0  0
  5 11  2  0  0  0  0
  5  6  1  0  0  0  0
  6  7  2  0  0  0  0
  7 21  1  0  0  0  0
  8 15  1  0  0  0  0
  8 16  2  0  0  0  0
  9 19  1  0  0  0  0
 10 18  1  0  0  0  0
 11 20  1  0  0  0  0
 13 14  1  0  0  0  0
 13 12  2  0  0  0  0
 15 13  1  1  0  0  0
 17 19  2  0  0  0  0
 17 15  1  0  0  0  0
 18  2  1  0  0  0  0
 18  9  2  0  0  0  0
 20 21  2  0  0  0  0
 20  2  1  0  0  0  0
 21  8  1  0  0  0  0
 22  6  1  0  0  0  0
 23 11  1  0  0  0  0
 23 10  1  0  0  0  0
 24 23  1  0  0  0  0
 25  1  1  0  0  0  0
 27  4  1  0  0  0  0
 27 25  1  0  0  0  0
 27 28  1  6  0  0  0
 29 28  1  0  0  0  0
 30 28  1  0  0  0  0
M  END
>  <CHROM.1>
91.52421550,-177.90249929,126.38755188,61.44011282,161.00357937,25.31510029
38.58916693,21.79296776,1.48764068,-0.18653077,-2.44577012

>  <Name>
lig.pdb

>  <RI>
0

>  <Rbt.Current_Directory>
/home/itssahil/PROJECTS/Mol_Feturizer/New_Systems/rnas/6bfb

>  <Rbt.Executable>
rbdock ($Id: //depot/dev/client3/rdock/2013.1/src/exe/rbdock.cxx#4 $)

>  <Rbt.Library>
libRbt.so (2013.1, Build901 2013/11/27)

>  <Rbt.Parameter_File>
/export/apps/rDock/src/rDock_2013.1_src/data/scripts/dock_solv.prm

>  <Rbt.Receptor>
prm/pocket_docking_8.prm

>  <SCORE>
-39.7766

>  <SCORE.INTER>
-34.5958

>  <SCORE.INTER.CONST>
1

>  <SCORE.INTER.POLAR>
-1.64676

>  <SCORE.INTER.ROT>
3

>  <SCORE.INTER.SOLV>
12.1693

>  <SCORE.INTER.VDW>
-27.2311

>  <SCORE.INTER.norm>
-1.15319

>  <SCORE.INTRA>
-5.18079

>  <SCORE.INTRA.DIHEDRAL>
-7.44613

>  <SCORE.INTRA.DIHEDRAL.0>
9.41909

>  <SCORE.INTRA.POLAR>
0

>  <SCORE.INTRA.POLAR.0>
0

>  <SCORE.INTRA.REPUL>
0

>  <SCORE.INTRA.REPUL.0>
0

>  <SCORE.INTRA.SOLV>
-0.01511

>  <SCORE.INTRA.SOLV.lig_0>
-26.2491

>  <SCORE.INTRA.VDW>
-1.45017

>  <SCORE.INTRA.VDW.0>
2.57239

>  <SCORE.INTRA.norm>
-0.172693

>  <SCORE.RESTR>
0

>  <SCORE.RESTR.CAVITY>
0

>  <SCORE.RESTR.norm>
0

>  <SCORE.SYSTEM>
0

>  <SCORE.SYSTEM.CONST>
0

>  <SCORE.SYSTEM.DIHEDRAL>
0

>  <SCORE.SYSTEM.SOLV>
0

>  <SCORE.SYSTEM.norm>
0

>  <SCORE.heavy>
30

>  <SCORE.norm>
-1.32589

>  <RMSD>
2.396

$$$$
lig.pdb
 OpenBabel11021811523D
libRbt.so/2013.1/901 2013/11/27
 30 34  0  0  0  0  0  0  0  0999 V2000
   26.7191   36.8759   19.5981 N   0  0  0  0  0  0  0  0  0  0  0  0
   26.2555   39.8051   23.5619 N   0  0  0  0  0  0  0  0  0  0  0  0
   27.8619   36.0139   19.9151 C   0  0  0  0  0  0  0  0  0  0  0  0
   28.2626   35.5123   18.5359 C   0  0  2  0  0  0  0  0  0  0  0  0
   25.9064   37.4471   20.6662 C   0  0  0  0  0  0  0  0  0  0  0  0
   24.5402   37.1516   20.8503 C   0  0  0  0  0  0  0  0  0  0  0  0
   23.7656   37.7091   21.8368 C   0  0  0  0  0  0  0  0  0  0  0  0
   23.4708   39.2706   23.7626 C   0  0  0  0  0  0  0  0  0  0  0  0
   27.9856   40.8088   24.6211 C   0  0  0  0  0  0  0  0  0  0  0  0
   28.4334   39.1060   22.7182 C   0  0  0  0  0  0  0  0  0  0  0  0
   26.4829   38.3655   21.5883 C   0  0  0  0  0  0  0  0  0  0  0  0
   22.5444   41.8489   25.3357 O   0  0  0  0  0  0  0  0  0  0  0  0
   23.3522   40.9790   25.6689 C   0  0  0  0  0  0  0  0  0  0  0  0
   23.5689   40.6542   26.9375 O   0  0  0  0  0  0  0  0  0  0  0  0
   24.1515   40.2514   24.6475 C   0  0  1  0  0  0  0  0  0  0  0  0
   22.2792   38.9700   23.8922 O   0  0  0  0  0  0  0  0  0  0  0  0
   25.5338   40.4837   24.5412 C   0  0  0  0  0  0  0  0  0  0  0  0
   27.6453   39.9749   23.6337 C   0  0  0  0  0  0  0  0  0  0  0  0
   26.6316   41.3812   25.5045 S   0  0  0  0  0  0  0  0  0  0  0  0
   25.6916   38.9231   22.6181 C   0  0  0  0  0  0  0  0  0  0  0  0
   24.3254   38.6223   22.7302 C   0  0  0  0  0  0  0  0  0  0  0  0
   23.9540   36.2521   20.0349 F   0  0  0  0  0  0  0  0  0  0  0  0
   27.8170   38.7776   21.4453 N   0  0  0  0  0  0  0  0  0  0  0  0
   27.9426   39.7829   20.4117 C   0  0  0  0  0  0  0  0  0  0  0  0
   26.1449   36.5452   18.2988 C   0  0  0  0  0  0  0  0  0  0  0  0
   29.6224   35.8293   18.2355 O   0  0  0  0  0  0  0  0  0  0  0  0
   27.4272   36.2922   17.5239 C   0  0  2  0  0  0  0  0  0  0  0  0
   27.3064   35.4789   16.2989 N   0  0  0  0  0  0  0  0  0  0  0  0
   26.1878   35.8422   15.4101 C   0  0  0  0  0  0  0  0  0  0  0  0
   28.5765   35.3360   15.5708 C   0  0  0  0  0  0  0  0  0  0  0  0
  1  5  1  0  0  0  0
  2 17  1  0  0  0  0
  3  1  1  0  0  0  0
  4  3  1  0  0  0  0
  4 26  1  6  0  0  0
  5 11  2  0  0  0  0
  5  6  1  0  0  0  0
  6  7  2  0  0  0  0
  7 21  1  0  0  0  0
  8 15  1  0  0  0  0
  8 16  2  0  0  0  0
  9 19  1  0  0  0  0
 10 18  1  0  0  0  0
 11 20  1  0  0  0  0
 13 14  1  0  0  0  0
 13 12  2  0  0  0  0
 15 13  1  1  0  0  0
 17 19  2  0  0  0  0
 17 15  1  0  0  0  0
 18  2  1  0  0  0  0
 18  9  2  0  0  0  0
 20 21  2  0  0  0  0
 20  2  1  0  0  0  0
 21  8  1  0  0  0  0
 22  6  1  0  0  0  0
 23 11  1  0  0  0  0
 23 10  1  0  0  0  0
 24 23  1  0  0  0  0
 25  1  1  0  0  0  0
 27  4  1  0  0  0  0
 27 25  1  0  0  0  0
 27 28  1  6  0  0  0
 29 28  1  0  0  0  0
 30 28  1  0  0  0  0
M  END
>  <CHROM.1>
-116.78984286,-177.09742881,-71.04730540,-58.58323206,160.01710523,26.03251157
38.42836772,21.65065640,1.25980349,-0.15018224,-2.16895724

>  <Name>
lig.pdb

>  <RI>
0

>  <Rbt.Current_Directory>
/home/itssahil/PROJECTS/Mol_Feturizer/New_Systems/rnas/6bfb

>  <Rbt.Executable>
rbdock ($Id: //depot/dev/client3/rdock/2013.1/src/exe/rbdock.cxx#4 $)

>  <Rbt.Library>
libRbt.so (2013.1, Build901 2013/11/27)

>  <Rbt.Parameter_File>
/export/apps/rDock/src/rDock_2013.1_src/data/scripts/dock_solv.prm

>  <Rbt.Receptor>
prm/blind_docking_60.prm

>  <SCORE>
-35.1092

>  <SCORE.INTER>
-30.3327

>  <SCORE.INTER.CONST>
1

>  <SCORE.INTER.POLAR>
-1.24908

>  <SCORE.INTER.ROT>
3

>  <SCORE.INTER.SOLV>
14.0139

>  <SCORE.INTER.VDW>
-26.3295

>  <SCORE.INTER.norm>
-1.01109

>  <SCORE.INTRA>
-4.77648

>  <SCORE.INTRA.DIHEDRAL>
-7.39439

>  <SCORE.INTRA.DIHEDRAL.0>
9.41909

>  <SCORE.INTRA.POLAR>
0

>  <SCORE.INTRA.POLAR.0>
0

>  <SCORE.INTRA.REPUL>
0.0385462

>  <SCORE.INTRA.REPUL.0>
0

>  <SCORE.INTRA.SOLV>
-0.22362

>  <SCORE.INTRA.SOLV.lig_0>
-26.2491

>  <SCORE.INTRA.VDW>
-1.1602

>  <SCORE.INTRA.VDW.0>
2.57239

>  <SCORE.INTRA.norm>
-0.159216

>  <SCORE.RESTR>
0

>  <SCORE.RESTR.CAVITY>
0

>  <SCORE.RESTR.norm>
0

>  <SCORE.SYSTEM>
0

>  <SCORE.SYSTEM.CONST>
0

>  <SCORE.SYSTEM.DIHEDRAL>
0

>  <SCORE.SYSTEM.SOLV>
0

>  <SCORE.SYSTEM.norm>
0

>  <SCORE.heavy>
30

>  <SCORE.norm>
-1.17031

>  <RMSD>
2.402

$$$$
lig.pdb
 OpenBabel11021811523D
libRbt.so/2013.1/901 2013/11/27
 30 34  0  0  0  0  0  0  0  0999 V2000
   27.2712   39.9920   21.6658 N   0  0  0  0  0  0  0  0  0  0  0  0
   26.3127   42.6772   25.7128 N   0  0  0  0  0  0  0  0  0  0  0  0
   28.4709   39.2248   22.0143 C   0  0  0  0  0  0  0  0  0  0  0  0
   28.9933   38.8276   20.6418 C   0  0  2  0  0  0  0  0  0  0  0  0
   26.3500   40.4352   22.7062 C   0  0  0  0  0  0  0  0  0  0  0  0
   25.0098   40.0067   22.7960 C   0  0  0  0  0  0  0  0  0  0  0  0
   24.1323   40.4436   23.7568 C   0  0  0  0  0  0  0  0  0  0  0  0
   23.5843   41.8793   25.7246 C   0  0  0  0  0  0  0  0  0  0  0  0
   27.8784   43.7854   26.9140 C   0  0  0  0  0  0  0  0  0  0  0  0
   28.5905   42.2221   24.9723 C   0  0  0  0  0  0  0  0  0  0  0  0
   26.7847   41.3587   23.6983 C   0  0  0  0  0  0  0  0  0  0  0  0
   22.4454   42.7697   28.3607 O   0  0  0  0  0  0  0  0  0  0  0  0
   23.1987   43.4783   27.6896 C   0  0  0  0  0  0  0  0  0  0  0  0
   23.2241   44.8007   27.8027 O   0  0  0  0  0  0  0  0  0  0  0  0
   24.1188   42.8762   26.6884 C   0  0  1  0  0  0  0  0  0  0  0  0
   22.4212   41.4644   25.7703 O   0  0  0  0  0  0  0  0  0  0  0  0
   25.4767   43.2397   26.6745 C   0  0  0  0  0  0  0  0  0  0  0  0
   27.6740   42.9708   25.8744 C   0  0  0  0  0  0  0  0  0  0  0  0
   26.4292   44.1885   27.7379 S   0  0  0  0  0  0  0  0  0  0  0  0
   25.8882   41.7921   24.7013 C   0  0  0  0  0  0  0  0  0  0  0  0
   24.5525   41.3616   24.7191 C   0  0  0  0  0  0  0  0  0  0  0  0
   24.5577   39.0962   21.9106 F   0  0  0  0  0  0  0  0  0  0  0  0
   28.0797   41.8983   23.6524 N   0  0  0  0  0  0  0  0  0  0  0  0
   28.1666   42.9582   22.6706 C   0  0  0  0  0  0  0  0  0  0  0  0
   26.8040   39.6715   20.3217 C   0  0  0  0  0  0  0  0  0  0  0  0
   30.3317   39.2820   20.4368 O   0  0  0  0  0  0  0  0  0  0  0  0
   28.1456   39.5742   19.6151 C   0  0  2  0  0  0  0  0  0  0  0  0
   28.1706   38.8118   18.3523 N   0  0  0  0  0  0  0  0  0  0  0  0
   27.5431   37.4790   18.4094 C   0  0  0  0  0  0  0  0  0  0  0  0
   27.7164   39.5954   17.1932 C   0  0  0  0  0  0  0  0  0  0  0  0
  1  5  1  0  0  0  0
  2 17  1  0  0  0  0
  3  1  1  0  0  0  0
  4  3  1  0  0  0  0
  4 26  1  1  0  0  0
  5 11  2  0  0  0  0
  5  6  1  0  0  0  0
  6  7  2  0  0  0  0
  7 21  1  0  0  0  0
  8 15  1  0  0  0  0
  8 16  2  0  0  0  0
  9 19  1  0  0  0  0
 10 18  1  0  0  0  0
 11 20  1  0  0  0  0
 13 14  1  0  0  0  0
 13 12  2  0  0  0  0
 15 13  1  1  0  0  0
 17 19  2  0  0  0  0
 17 15  1  0  0  0  0
 18  2  1  0  0  0  0
 18  9  2  0  0  0  0
 20 21  2  0  0  0  0
 20  2  1  0  0  0  0
 21  8  1  0  0  0  0
 22  6  1  0  0  0  0
 23 11  1  0  0  0  0
 23 10  1  0  0  0  0
 24 23  1  0  0  0  0
 25  1  1  0  0  0  0
 27  4  1  0  0  0  0
 27 25  1  0  0  0  0
 27 28  1  6  0  0  0
 29 28  1  0  0  0  0
 30 28  1  0  0  0  0
M  END
>  <CHROM.1>
-116.76534049,-178.26402333,48.17304606,-63.46931843,64.79956403,26.28047181
41.35961896,23.74369109,1.17937327,-0.22897306,-2.17665696

>  <Name>
lig.pdb

>  <RI>
0

>  <Rbt.Current_Directory>
/home/itssahil/PROJECTS/Mol_Feturizer/New_Systems/rnas/6bfb

>  <Rbt.Executable>
rbdock ($Id: //depot/dev/client3/rdock/2013.1/src/exe/rbdock.cxx#4 $)

>  <Rbt.Library>
libRbt.so (2013.1, Build901 2013/11/27)

>  <Rbt.Parameter_File>
/export/apps/rDock/src/rDock_2013.1_src/data/scripts/dock_solv.prm

>  <Rbt.Receptor>
prm/pocket_docking_7.prm

>  <SCORE>
-35.0604

>  <SCORE.INTER>
-30.0678

>  <SCORE.INTER.CONST>
1

>  <SCORE.INTER.POLAR>
-0.883189

>  <SCORE.INTER.ROT>
3

>  <SCORE.INTER.SOLV>
11.146

>  <SCORE.INTER.VDW>
-26.4166

>  <SCORE.INTER.norm>
-1.00226

>  <SCORE.INTRA>
-4.99253

>  <SCORE.INTRA.DIHEDRAL>
-7.51355

>  <SCORE.INTRA.DIHEDRAL.0>
9.41909

>  <SCORE.INTRA.POLAR>
0

>  <SCORE.INTRA.POLAR.0>
0

>  <SCORE.INTRA.REPUL>
0.0386069

>  <SCORE.INTRA.REPUL.0>
0

>  <SCORE.INTRA.SOLV>
-0.308249

>  <SCORE.INTRA.SOLV.lig_0>
-26.2491

>  <SCORE.INTRA.VDW>
-1.27466

>  <SCORE.INTRA.VDW.0>
2.57239

>  <SCORE.INTRA.norm>
-0.166418

>  <SCORE.RESTR>
0

>  <SCORE.RESTR.CAVITY>
0

>  <SCORE.RESTR.norm>
0

>  <SCORE.SYSTEM>
0

>  <SCORE.SYSTEM.CONST>
0

>  <SCORE.SYSTEM.DIHEDRAL>
0

>  <SCORE.SYSTEM.SOLV>
0

>  <SCORE.SYSTEM.norm>
0

>  <SCORE.heavy>
30

>  <SCORE.norm>
-1.16868

>  <RMSD>
2.462

$$$$
lig.pdb
 OpenBabel11021811523D
libRbt.so/2013.1/901 2013/11/27
 30 34  0  0  0  0  0  0  0  0999 V2000
   27.2772   40.0131   21.7465 N   0  0  0  0  0  0  0  0  0  0  0  0
   26.4564   42.7554   25.7854 N   0  0  0  0  0  0  0  0  0  0  0  0
   28.4700   39.2141   22.0438 C   0  0  0  0  0  0  0  0  0  0  0  0
   28.9415   38.8317   20.6489 C   0  0  2  0  0  0  0  0  0  0  0  0
   26.3981   40.4562   22.8227 C   0  0  0  0  0  0  0  0  0  0  0  0
   25.0741   40.0000   22.9866 C   0  0  0  0  0  0  0  0  0  0  0  0
   24.2349   40.4362   23.9812 C   0  0  0  0  0  0  0  0  0  0  0  0
   23.7509   41.8978   25.9468 C   0  0  0  0  0  0  0  0  0  0  0  0
   28.0530   43.9214   26.8871 C   0  0  0  0  0  0  0  0  0  0  0  0
   28.7051   42.3363   24.9419 C   0  0  0  0  0  0  0  0  0  0  0  0
   26.8595   41.4084   23.7749 C   0  0  0  0  0  0  0  0  0  0  0  0
   23.8279   43.6963   29.0511 O   0  0  0  0  0  0  0  0  0  0  0  0
   23.4252   43.5263   27.8983 C   0  0  0  0  0  0  0  0  0  0  0  0
   22.1947   43.8469   27.5173 O   0  0  0  0  0  0  0  0  0  0  0  0
   24.3089   42.9251   26.8643 C   0  0  1  0  0  0  0  0  0  0  0  0
   22.6013   41.4583   26.0575 O   0  0  0  0  0  0  0  0  0  0  0  0
   25.6557   43.3181   26.7766 C   0  0  0  0  0  0  0  0  0  0  0  0
   27.8168   43.0822   25.8741 C   0  0  0  0  0  0  0  0  0  0  0  0
   26.6371   44.3084   27.7739 S   0  0  0  0  0  0  0  0  0  0  0  0
   26.0034   41.8415   24.8127 C   0  0  0  0  0  0  0  0  0  0  0  0
   24.6805   41.3820   24.9044 C   0  0  0  0  0  0  0  0  0  0  0  0
   24.6003   39.0625   22.1416 F   0  0  0  0  0  0  0  0  0  0  0  0
   28.1379   41.9754   23.6551 N   0  0  0  0  0  0  0  0  0  0  0  0
   28.1522   43.0175   22.6507 C   0  0  0  0  0  0  0  0  0  0  0  0
   26.7624   39.7278   20.4120 C   0  0  0  0  0  0  0  0  0  0  0  0
   30.2826   39.2614   20.4109 O   0  0  0  0  0  0  0  0  0  0  0  0
   28.0793   39.6153   19.6626 C   0  0  2  0  0  0  0  0  0  0  0  0
   28.0492   38.8763   18.3860 N   0  0  0  0  0  0  0  0  0  0  0  0
   26.9360   39.2237   17.4840 C   0  0  0  0  0  0  0  0  0  0  0  0
   29.3471   38.8621   17.6939 C   0  0  0  0  0  0  0  0  0  0  0  0
  1  5  1  0  0  0  0
  2 17  1  0  0  0  0
  3  1  1  0  0  0  0
  4  3  1  0  0  0  0
  4 26  1  1  0  0  0
  5 11  2  0  0  0  0
  5  6  1  0  0  0  0
  6  7  2  0  0  0  0
  7 21  1  0  0  0  0
  8 15  1  0  0  0  0
  8 16  2  0  0  0  0
  9 19  1  0  0  0  0
 10 18  1  0  0  0  0
 11 20  1  0  0  0  0
 13 14  1  0  0  0  0
 13 12  2  0  0  0  0
 15 13  1  1  0  0  0
 17 19  2  0  0  0  0
 17 15  1  0  0  0  0
 18  2  1  0  0  0  0
 18  9  2  0  0  0  0
 20 21  2  0  0  0  0
 20  2  1  0  0  0  0
 21  8  1  0  0  0  0
 22  6  1  0  0  0  0
 23 11  1  0  0  0  0
 23 10  1  0  0  0  0
 24 23  1  0  0  0  0
 25  1  1  0  0  0  0
 27  4  1  0  0  0  0
 27 25  1  0  0  0  0
 27 28  1  6  0  0  0
 29 28  1  0  0  0  0
 30 28  1  0  0  0  0
M  END
>  <CHROM.1>
-113.28224700,0.79424335,136.72000547,-62.50478039,160.39001260,26.39277723
41.43031104,23.82369331,1.18157823,-0.22972705,-2.15150529

>  <Name>
lig.pdb

>  <RI>
0

>  <Rbt.Current_Directory>
/home/itssahil/PROJECTS/Mol_Feturizer/New_Systems/rnas/6bfb

>  <Rbt.Executable>
rbdock ($Id: //depot/dev/client3/rdock/2013.1/src/exe/rbdock.cxx#4 $)

>  <Rbt.Library>
libRbt.so (2013.1, Build901 2013/11/27)

>  <Rbt.Parameter_File>
/export/apps/rDock/src/rDock_2013.1_src/data/scripts/dock_solv.prm

>  <Rbt.Receptor>
prm/pocket_docking_7.prm

>  <SCORE>
-35.6382

>  <SCORE.INTER>
-30.7541

>  <SCORE.INTER.CONST>
1

>  <SCORE.INTER.POLAR>
-0.888

>  <SCORE.INTER.ROT>
3

>  <SCORE.INTER.SOLV>
11.6952

>  <SCORE.INTER.VDW>
-27.0411

>  <SCORE.INTER.norm>
-1.02514

>  <SCORE.INTRA>
-4.88416

>  <SCORE.INTRA.DIHEDRAL>
-7.43391

>  <SCORE.INTRA.DIHEDRAL.0>
9.41909

>  <SCORE.INTRA.POLAR>
0

>  <SCORE.INTRA.POLAR.0>
0

>  <SCORE.INTRA.REPUL>
0.0471107

>  <SCORE.INTRA.REPUL.0>
0

>  <SCORE.INTRA.SOLV>
-0.11359

>  <SCORE.INTRA.SOLV.lig_0>
-26.2491

>  <SCORE.INTRA.VDW>
-1.34597

>  <SCORE.INTRA.VDW.0>
2.57239

>  <SCORE.INTRA.norm>
-0.162805

>  <SCORE.RESTR>
0

>  <SCORE.RESTR.CAVITY>
0

>  <SCORE.RESTR.norm>
0

>  <SCORE.SYSTEM>
0

>  <SCORE.SYSTEM.CONST>
0

>  <SCORE.SYSTEM.DIHEDRAL>
0

>  <SCORE.SYSTEM.SOLV>
0

>  <SCORE.SYSTEM.norm>
0

>  <SCORE.heavy>
30

>  <SCORE.norm>
-1.18794

>  <RMSD>
2.487

$$$$
lig.pdb
 OpenBabel11021811523D
libRbt.so/2013.1/901 2013/11/27
 30 34  0  0  0  0  0  0  0  0999 V2000
   24.5337   36.5397   19.9848 N   0  0  0  0  0  0  0  0  0  0  0  0
   26.9142   39.8445   22.7989 N   0  0  0  0  0  0  0  0  0  0  0  0
   25.4793   35.4196   19.9625 C   0  0  0  0  0  0  0  0  0  0  0  0
   24.9761   34.6139   18.7742 C   0  0  2  0  0  0  0  0  0  0  0  0
   24.5447   37.4935   21.0882 C   0  0  0  0  0  0  0  0  0  0  0  0
   23.4213   37.7662   21.8953 C   0  0  0  0  0  0  0  0  0  0  0  0
   23.4202   38.6837   22.9161 C   0  0  0  0  0  0  0  0  0  0  0  0
   24.5589   40.4428   24.2737 C   0  0  0  0  0  0  0  0  0  0  0  0
   29.1448   40.2203   22.7223 C   0  0  0  0  0  0  0  0  0  0  0  0
   28.1032   38.2755   21.3606 C   0  0  0  0  0  0  0  0  0  0  0  0
   25.7315   38.2177   21.3939 C   0  0  0  0  0  0  0  0  0  0  0  0
   25.2712   42.1575   26.5696 O   0  0  0  0  0  0  0  0  0  0  0  0
   25.8756   42.2670   25.5006 C   0  0  0  0  0  0  0  0  0  0  0  0
   26.5770   43.3487   25.1845 O   0  0  0  0  0  0  0  0  0  0  0  0
   25.8315   41.1801   24.4866 C   0  0  1  0  0  0  0  0  0  0  0  0
   23.5517   40.6378   24.9626 O   0  0  0  0  0  0  0  0  0  0  0  0
   26.9879   40.8520   23.7579 C   0  0  0  0  0  0  0  0  0  0  0  0
   28.1455   39.4760   22.2389 C   0  0  0  0  0  0  0  0  0  0  0  0
   28.6193   41.3619   23.8893 S   0  0  0  0  0  0  0  0  0  0  0  0
   25.7377   39.1465   22.4591 C   0  0  0  0  0  0  0  0  0  0  0  0
   24.5777   39.4062   23.2052 C   0  0  0  0  0  0  0  0  0  0  0  0
   22.2838   37.0750   21.6810 F   0  0  0  0  0  0  0  0  0  0  0  0
   26.8818   38.0688   20.6034 N   0  0  0  0  0  0  0  0  0  0  0  0
   26.7707   38.8277   19.3759 C   0  0  0  0  0  0  0  0  0  0  0  0
   23.3032   36.2141   19.2726 C   0  0  0  0  0  0  0  0  0  0  0  0
   25.9955   34.4357   17.7899 O   0  0  0  0  0  0  0  0  0  0  0  0
   23.8963   35.4546   18.0979 C   0  0  2  0  0  0  0  0  0  0  0  0
   22.9867   34.5450   17.3754 N   0  0  0  0  0  0  0  0  0  0  0  0
   21.6600   35.1037   17.0573 C   0  0  0  0  0  0  0  0  0  0  0  0
   23.6157   33.8994   16.2129 C   0  0  0  0  0  0  0  0  0  0  0  0
  1  5  1  0  0  0  0
  2 17  1  0  0  0  0
  3  1  1  0  0  0  0
  4  3  1  0  0  0  0
  4 26  1  6  0  0  0
  5 11  2  0  0  0  0
  5  6  1  0  0  0  0
  6  7  2  0  0  0  0
  7 21  1  0  0  0  0
  8 15  1  0  0  0  0
  8 16  2  0  0  0  0
  9 19  1  0  0  0  0
 10 18  1  0  0  0  0
 11 20  1  0  0  0  0
 13 14  1  0  0  0  0
 13 12  2  0  0  0  0
 15 13  1  1  0  0  0
 17 19  2  0  0  0  0
 17 15  1  0  0  0  0
 18  2  1  0  0  0  0
 18  9  2  0  0  0  0
 20 21  2  0  0  0  0
 20  2  1  0  0  0  0
 21  8  1  0  0  0  0
 22  6  1  0  0  0  0
 23 11  1  0  0  0  0
 23 10  1  0  0  0  0
 24 23  1  0  0  0  0
 25  1  1  0  0  0  0
 27  4  1  0  0  0  0
 27 25  1  0  0  0  0
 27 28  1  1  0  0  0
 29 28  1  0  0  0  0
 30 28  1  0  0  0  0
M  END
>  <CHROM.1>
-122.90916443,1.15138786,38.44296179,64.65504988,160.02000634,25.40390209
38.45254630,21.62060791,1.86884430,-0.19419640,-2.29160223

>  <Name>
lig.pdb

>  <RI>
0

>  <Rbt.Current_Directory>
/home/itssahil/PROJECTS/Mol_Feturizer/New_Systems/rnas/6bfb

>  <Rbt.Executable>
rbdock ($Id: //depot/dev/client3/rdock/2013.1/src/exe/rbdock.cxx#4 $)

>  <Rbt.Library>
libRbt.so (2013.1, Build901 2013/11/27)

>  <Rbt.Parameter_File>
/export/apps/rDock/src/rDock_2013.1_src/data/scripts/dock_solv.prm

>  <Rbt.Receptor>
prm/blind_docking_60.prm

>  <SCORE>
-36.1032

>  <SCORE.INTER>
-31.204

>  <SCORE.INTER.CONST>
1

>  <SCORE.INTER.POLAR>
0

>  <SCORE.INTER.ROT>
3

>  <SCORE.INTER.SOLV>
13.1601

>  <SCORE.INTER.VDW>
-30.7894

>  <SCORE.INTER.norm>
-1.04013

>  <SCORE.INTRA>
-4.89922

>  <SCORE.INTRA.DIHEDRAL>
-7.34252

>  <SCORE.INTRA.DIHEDRAL.0>
9.41909

>  <SCORE.INTRA.POLAR>
0

>  <SCORE.INTRA.POLAR.0>
0

>  <SCORE.INTRA.REPUL>
0.0230923

>  <SCORE.INTRA.REPUL.0>
0

>  <SCORE.INTRA.SOLV>
-0.126515

>  <SCORE.INTRA.SOLV.lig_0>
-26.2491

>  <SCORE.INTRA.VDW>
-1.28016

>  <SCORE.INTRA.VDW.0>
2.57239

>  <SCORE.INTRA.norm>
-0.163307

>  <SCORE.RESTR>
0

>  <SCORE.RESTR.CAVITY>
0

>  <SCORE.RESTR.norm>
0

>  <SCORE.SYSTEM>
0

>  <SCORE.SYSTEM.CONST>
0

>  <SCORE.SYSTEM.DIHEDRAL>
0

>  <SCORE.SYSTEM.SOLV>
0

>  <SCORE.SYSTEM.norm>
0

>  <SCORE.heavy>
30

>  <SCORE.norm>
-1.20344

>  <RMSD>
2.499

$$$$
lig.pdb
 OpenBabel11021811523D
libRbt.so/2013.1/901 2013/11/27
 30 34  0  0  0  0  0  0  0  0999 V2000
   26.2600   38.6508   19.9667 N   0  0  0  0  0  0  0  0  0  0  0  0
   25.5926   40.9129   24.3193 N   0  0  0  0  0  0  0  0  0  0  0  0
   26.0733   39.5105   18.7939 C   0  0  0  0  0  0  0  0  0  0  0  0
   27.2060   39.0493   17.8892 C   0  0  2  0  0  0  0  0  0  0  0  0
   25.4742   38.8704   21.1758 C   0  0  0  0  0  0  0  0  0  0  0  0
   24.2597   38.2081   21.4481 C   0  0  0  0  0  0  0  0  0  0  0  0
   23.5035   38.4332   22.5713 C   0  0  0  0  0  0  0  0  0  0  0  0
   23.0780   39.6465   24.7115 C   0  0  0  0  0  0  0  0  0  0  0  0
   27.1391   42.2168   25.3346 C   0  0  0  0  0  0  0  0  0  0  0  0
   27.7496   40.9057   23.1829 C   0  0  0  0  0  0  0  0  0  0  0  0
   25.9169   39.8038   22.1550 C   0  0  0  0  0  0  0  0  0  0  0  0
   22.2979   40.1854   27.5697 O   0  0  0  0  0  0  0  0  0  0  0  0
   22.7826   41.0493   26.8356 C   0  0  0  0  0  0  0  0  0  0  0  0
   22.5949   42.3473   27.0401 O   0  0  0  0  0  0  0  0  0  0  0  0
   23.6005   40.6712   25.6525 C   0  0  1  0  0  0  0  0  0  0  0  0
   22.0255   39.0311   24.9126 O   0  0  0  0  0  0  0  0  0  0  0  0
   24.8561   41.2689   25.4467 C   0  0  0  0  0  0  0  0  0  0  0  0
   26.8937   41.4335   24.2799 C   0  0  0  0  0  0  0  0  0  0  0  0
   25.8097   42.3149   26.4136 S   0  0  0  0  0  0  0  0  0  0  0  0
   25.1501   40.0200   23.3224 C   0  0  0  0  0  0  0  0  0  0  0  0
   23.9278   39.3603   23.5231 C   0  0  0  0  0  0  0  0  0  0  0  0
   23.8166   37.2788   20.5777 F   0  0  0  0  0  0  0  0  0  0  0  0
   27.0768   40.5651   21.9422 N   0  0  0  0  0  0  0  0  0  0  0  0
   26.8147   41.6728   21.0482 C   0  0  0  0  0  0  0  0  0  0  0  0
   27.6158   38.1164   20.0268 C   0  0  0  0  0  0  0  0  0  0  0  0
   26.7188   38.5978   16.6249 O   0  0  0  0  0  0  0  0  0  0  0  0
   27.8262   37.8216   18.5512 C   0  0  2  0  0  0  0  0  0  0  0  0
   29.2248   37.7073   18.0957 N   0  0  0  0  0  0  0  0  0  0  0  0
   30.1418   38.7385   18.6146 C   0  0  0  0  0  0  0  0  0  0  0  0
   29.7714   36.3491   18.2381 C   0  0  0  0  0  0  0  0  0  0  0  0
  1  5  1  0  0  0  0
  2 17  1  0  0  0  0
  3  1  1  0  0  0  0
  4  3  1  0  0  0  0
  4 26  1  6  0  0  0
  5 11  2  0  0  0  0
  5  6  1  0  0  0  0
  6  7  2  0  0  0  0
  7 21  1  0  0  0  0
  8 15  1  0  0  0  0
  8 16  2  0  0  0  0
  9 19  1  0  0  0  0
 10 18  1  0  0  0  0
 11 20  1  0  0  0  0
 13 14  1  0  0  0  0
 13 12  2  0  0  0  0
 15 13  1  1  0  0  0
 17 19  2  0  0  0  0
 17 15  1  0  0  0  0
 18  2  1  0  0  0  0
 18  9  2  0  0  0  0
 20 21  2  0  0  0  0
 20  2  1  0  0  0  0
 21  8  1  0  0  0  0
 22  6  1  0  0  0  0
 23 11  1  0  0  0  0
 23 10  1  0  0  0  0
 24 23  1  0  0  0  0
 25  1  1  0  0  0  0
 27  4  1  0  0  0  0
 27 25  1  0  0  0  0
 27 28  1  1  0  0  0
 29 28  1  0  0  0  0
 30 28  1  0  0  0  0
M  END
>  <CHROM.1>
93.20117658,0.04793444,48.97936250,-58.38487182,70.18618355,25.70205473,39.76532709
22.45011779,1.06944836,-0.40533210,-2.15070140

>  <Name>
lig.pdb

>  <RI>
0

>  <Rbt.Current_Directory>
/home/itssahil/PROJECTS/Mol_Feturizer/New_Systems/rnas/6bfb

>  <Rbt.Executable>
rbdock ($Id: //depot/dev/client3/rdock/2013.1/src/exe/rbdock.cxx#4 $)

>  <Rbt.Library>
libRbt.so (2013.1, Build901 2013/11/27)

>  <Rbt.Parameter_File>
/export/apps/rDock/src/rDock_2013.1_src/data/scripts/dock_solv.prm

>  <Rbt.Receptor>
prm/pocket_docking_4.prm

>  <SCORE>
-30.7344

>  <SCORE.INTER>
-24.9903

>  <SCORE.INTER.CONST>
1

>  <SCORE.INTER.POLAR>
0

>  <SCORE.INTER.ROT>
3

>  <SCORE.INTER.SOLV>
12.4266

>  <SCORE.INTER.VDW>
-26.4024

>  <SCORE.INTER.norm>
-0.833011

>  <SCORE.INTRA>
-5.74408

>  <SCORE.INTRA.DIHEDRAL>
-7.36437

>  <SCORE.INTRA.DIHEDRAL.0>
9.41909

>  <SCORE.INTRA.POLAR>
0

>  <SCORE.INTRA.POLAR.0>
0

>  <SCORE.INTRA.REPUL>
0

>  <SCORE.INTRA.REPUL.0>
0

>  <SCORE.INTRA.SOLV>
-0.116095

>  <SCORE.INTRA.SOLV.lig_0>
-26.2491

>  <SCORE.INTRA.VDW>
-2.00384

>  <SCORE.INTRA.VDW.0>
2.57239

>  <SCORE.INTRA.norm>
-0.191469

>  <SCORE.RESTR>
0

>  <SCORE.RESTR.CAVITY>
0

>  <SCORE.RESTR.norm>
0

>  <SCORE.SYSTEM>
0

>  <SCORE.SYSTEM.CONST>
0

>  <SCORE.SYSTEM.DIHEDRAL>
0

>  <SCORE.SYSTEM.SOLV>
0

>  <SCORE.SYSTEM.norm>
0

>  <SCORE.heavy>
30

>  <SCORE.norm>
-1.02448

>  <RMSD>
2.516

$$$$
lig.pdb
 OpenBabel11021811523D
libRbt.so/2013.1/901 2013/11/27
 30 34  0  0  0  0  0  0  0  0999 V2000
   25.6961   36.7403   19.5556 N   0  0  0  0  0  0  0  0  0  0  0  0
   26.2724   39.7454   23.4472 N   0  0  0  0  0  0  0  0  0  0  0  0
   25.5143   37.3011   18.2132 C   0  0  0  0  0  0  0  0  0  0  0  0
   26.3930   36.3855   17.3742 C   0  0  2  0  0  0  0  0  0  0  0  0
   25.1506   37.4253   20.7221 C   0  0  0  0  0  0  0  0  0  0  0  0
   23.8065   37.3160   21.1335 C   0  0  0  0  0  0  0  0  0  0  0  0
   23.2831   37.9814   22.2138 C   0  0  0  0  0  0  0  0  0  0  0  0
   23.5129   39.5878   24.1114 C   0  0  0  0  0  0  0  0  0  0  0  0
   28.2681   40.5210   24.1809 C   0  0  0  0  0  0  0  0  0  0  0  0
   28.1733   38.7544   22.2858 C   0  0  0  0  0  0  0  0  0  0  0  0
   25.9845   38.2683   21.5094 C   0  0  0  0  0  0  0  0  0  0  0  0
   23.8415   42.5400   25.8367 O   0  0  0  0  0  0  0  0  0  0  0  0
   23.9310   41.3162   25.9565 C   0  0  0  0  0  0  0  0  0  0  0  0
   23.5919   40.6813   27.0719 O   0  0  0  0  0  0  0  0  0  0  0  0
   24.4508   40.4784   24.8432 C   0  0  1  0  0  0  0  0  0  0  0  0
   22.3300   39.4496   24.4410 O   0  0  0  0  0  0  0  0  0  0  0  0
   25.8152   40.5238   24.5079 C   0  0  0  0  0  0  0  0  0  0  0  0
   27.6653   39.7297   23.2884 C   0  0  0  0  0  0  0  0  0  0  0  0
   27.1630   41.2772   25.2525 S   0  0  0  0  0  0  0  0  0  0  0  0
   25.4519   38.9366   22.6352 C   0  0  0  0  0  0  0  0  0  0  0  0
   24.0953   38.8211   22.9757 C   0  0  0  0  0  0  0  0  0  0  0  0
   22.9830   36.4941   20.4523 F   0  0  0  0  0  0  0  0  0  0  0  0
   27.3191   38.4980   21.1401 N   0  0  0  0  0  0  0  0  0  0  0  0
   27.4024   39.4671   20.0683 C   0  0  0  0  0  0  0  0  0  0  0  0
   26.9156   35.9448   19.6414 C   0  0  0  0  0  0  0  0  0  0  0  0
   25.6502   35.7567   16.3288 O   0  0  0  0  0  0  0  0  0  0  0  0
   26.8499   35.2531   18.2902 C   0  0  2  0  0  0  0  0  0  0  0  0
   28.1188   34.7155   17.7635 N   0  0  0  0  0  0  0  0  0  0  0  0
   29.2725   35.6295   17.8477 C   0  0  0  0  0  0  0  0  0  0  0  0
   28.4323   33.3701   18.2689 C   0  0  0  0  0  0  0  0  0  0  0  0
  1  5  1  0  0  0  0
  2 17  1  0  0  0  0
  3  1  1  0  0  0  0
  4  3  1  0  0  0  0
  4 26  1  6  0  0  0
  5 11  2  0  0  0  0
  5  6  1  0  0  0  0
  6  7  2  0  0  0  0
  7 21  1  0  0  0  0
  8 15  1  0  0  0  0
  8 16  2  0  0  0  0
  9 19  1  0  0  0  0
 10 18  1  0  0  0  0
 11 20  1  0  0  0  0
 13 14  1  0  0  0  0
 13 12  2  0  0  0  0
 15 13  1  1  0  0  0
 17 19  2  0  0  0  0
 17 15  1  0  0  0  0
 18  2  1  0  0  0  0
 18  9  2  0  0  0  0
 20 21  2  0  0  0  0
 20  2  1  0  0  0  0
 21  8  1  0  0  0  0
 22  6  1  0  0  0  0
 23 11  1  0  0  0  0
 23 10  1  0  0  0  0
 24 23  1  0  0  0  0
 25  1  1  0  0  0  0
 27  4  1  0  0  0  0
 27 25  1  0  0  0  0
 27 28  1  6  0  0  0
 29 28  1  0  0  0  0
 30 28  1  0  0  0  0
M  END
>  <CHROM.1>
81.87218675,-174.58443532,-109.65658008,178.89262965,67.74515621,25.81267638
38.37372294,21.80462450,1.33462257,-0.12287420,-2.23019117

>  <Name>
lig.pdb

>  <RI>
0

>  <Rbt.Current_Directory>
/home/itssahil/PROJECTS/Mol_Feturizer/New_Systems/rnas/6bfb

>  <Rbt.Executable>
rbdock ($Id: //depot/dev/client3/rdock/2013.1/src/exe/rbdock.cxx#4 $)

>  <Rbt.Library>
libRbt.so (2013.1, Build901 2013/11/27)

>  <Rbt.Parameter_File>
/export/apps/rDock/src/rDock_2013.1_src/data/scripts/dock_solv.prm

>  <Rbt.Receptor>
prm/blind_docking_80.prm

>  <SCORE>
-36.4127

>  <SCORE.INTER>
-30.366

>  <SCORE.INTER.CONST>
1

>  <SCORE.INTER.POLAR>
-0.998779

>  <SCORE.INTER.ROT>
3

>  <SCORE.INTER.SOLV>
14.1697

>  <SCORE.INTER.VDW>
-27.238

>  <SCORE.INTER.norm>
-1.0122

>  <SCORE.INTRA>
-6.04667

>  <SCORE.INTRA.DIHEDRAL>
-7.29284

>  <SCORE.INTRA.DIHEDRAL.0>
9.41909

>  <SCORE.INTRA.POLAR>
0

>  <SCORE.INTRA.POLAR.0>
0

>  <SCORE.INTRA.REPUL>
0

>  <SCORE.INTRA.REPUL.0>
0

>  <SCORE.INTRA.SOLV>
-0.12484

>  <SCORE.INTRA.SOLV.lig_0>
-26.2491

>  <SCORE.INTRA.VDW>
-2.33783

>  <SCORE.INTRA.VDW.0>
2.57239

>  <SCORE.INTRA.norm>
-0.201556

>  <SCORE.RESTR>
0

>  <SCORE.RESTR.CAVITY>
0

>  <SCORE.RESTR.norm>
0

>  <SCORE.SYSTEM>
0

>  <SCORE.SYSTEM.CONST>
0

>  <SCORE.SYSTEM.DIHEDRAL>
0

>  <SCORE.SYSTEM.SOLV>
0

>  <SCORE.SYSTEM.norm>
0

>  <SCORE.heavy>
30

>  <SCORE.norm>
-1.21376

>  <RMSD>
2.522

$$$$
lig.pdb
 OpenBabel11021811523D
libRbt.so/2013.1/901 2013/11/27
 30 34  0  0  0  0  0  0  0  0999 V2000
   24.6944   36.4790   20.0250 N   0  0  0  0  0  0  0  0  0  0  0  0
   26.7091   39.9874   22.8780 N   0  0  0  0  0  0  0  0  0  0  0  0
   24.2787   36.8130   18.6593 C   0  0  0  0  0  0  0  0  0  0  0  0
   24.7519   35.5921   17.8849 C   0  0  2  0  0  0  0  0  0  0  0  0
   24.5821   37.4659   21.0932 C   0  0  0  0  0  0  0  0  0  0  0  0
   23.3935   37.7053   21.8127 C   0  0  0  0  0  0  0  0  0  0  0  0
   23.2767   38.6528   22.7989 C   0  0  0  0  0  0  0  0  0  0  0  0
   24.2308   40.5093   24.1689 C   0  0  0  0  0  0  0  0  0  0  0  0
   28.9185   40.4748   22.9394 C   0  0  0  0  0  0  0  0  0  0  0  0
   28.0705   38.4378   21.5782 C   0  0  0  0  0  0  0  0  0  0  0  0
   25.7079   38.2592   21.4532 C   0  0  0  0  0  0  0  0  0  0  0  0
   26.1480   42.4982   26.3714 O   0  0  0  0  0  0  0  0  0  0  0  0
   25.3682   42.4359   25.4184 C   0  0  0  0  0  0  0  0  0  0  0  0
   24.4144   43.3367   25.2161 O   0  0  0  0  0  0  0  0  0  0  0  0
   25.4479   41.3172   24.4417 C   0  0  1  0  0  0  0  0  0  0  0  0
   23.1701   40.6735   24.7811 O   0  0  0  0  0  0  0  0  0  0  0  0
   26.6667   41.0266   23.8045 C   0  0  0  0  0  0  0  0  0  0  0  0
   27.9929   39.6655   22.4155 C   0  0  0  0  0  0  0  0  0  0  0  0
   28.2580   41.6235   24.0282 S   0  0  0  0  0  0  0  0  0  0  0  0
   25.5947   39.2197   22.4838 C   0  0  0  0  0  0  0  0  0  0  0  0
   24.3745   39.4424   23.1405 C   0  0  0  0  0  0  0  0  0  0  0  0
   22.3089   36.9503   21.5459 F   0  0  0  0  0  0  0  0  0  0  0  0
   26.9160   38.1452   20.7478 N   0  0  0  0  0  0  0  0  0  0  0  0
   26.8530   38.8590   19.4902 C   0  0  0  0  0  0  0  0  0  0  0  0
   25.7447   35.4670   20.0312 C   0  0  0  0  0  0  0  0  0  0  0  0
   23.6758   34.9605   17.1899 O   0  0  0  0  0  0  0  0  0  0  0  0
   25.2268   34.5728   18.9173 C   0  0  2  0  0  0  0  0  0  0  0  0
   26.2141   33.6864   18.2720 N   0  0  0  0  0  0  0  0  0  0  0  0
   27.1995   33.0744   19.1818 C   0  0  0  0  0  0  0  0  0  0  0  0
   25.6037   32.7030   17.3642 C   0  0  0  0  0  0  0  0  0  0  0  0
  1  5  1  0  0  0  0
  2 17  1  0  0  0  0
  3  1  1  0  0  0  0
  4  3  1  0  0  0  0
  4 26  1  1  0  0  0
  5 11  2  0  0  0  0
  5  6  1  0  0  0  0
  6  7  2  0  0  0  0
  7 21  1  0  0  0  0
  8 15  1  0  0  0  0
  8 16  2  0  0  0  0
  9 19  1  0  0  0  0
 10 18  1  0  0  0  0
 11 20  1  0  0  0  0
 13 14  1  0  0  0  0
 13 12  2  0  0  0  0
 15 13  1  1  0  0  0
 17 19  2  0  0  0  0
 17 15  1  0  0  0  0
 18  2  1  0  0  0  0
 18  9  2  0  0  0  0
 20 21  2  0  0  0  0
 20  2  1  0  0  0  0
 21  8  1  0  0  0  0
 22  6  1  0  0  0  0
 23 11  1  0  0  0  0
 23 10  1  0  0  0  0
 24 23  1  0  0  0  0
 25  1  1  0  0  0  0
 27  4  1  0  0  0  0
 27 25  1  0  0  0  0
 27 28  1  6  0  0  0
 29 28  1  0  0  0  0
 30 28  1  0  0  0  0
M  END
>  <CHROM.1>
83.39662661,14.87682024,125.75023189,65.77788082,153.52653703,25.59008078
38.42839625,21.72904903,1.65631551,-0.11181129,-2.41533777

>  <Name>
lig.pdb

>  <RI>
0

>  <Rbt.Current_Directory>
/home/itssahil/PROJECTS/Mol_Feturizer/New_Systems/rnas/6bfb

>  <Rbt.Executable>
rbdock ($Id: //depot/dev/client3/rdock/2013.1/src/exe/rbdock.cxx#4 $)

>  <Rbt.Library>
libRbt.so (2013.1, Build901 2013/11/27)

>  <Rbt.Parameter_File>
/export/apps/rDock/src/rDock_2013.1_src/data/scripts/dock_solv.prm

>  <Rbt.Receptor>
prm/blind_docking_80.prm

>  <SCORE>
-39.9127

>  <SCORE.INTER>
-34.9262

>  <SCORE.INTER.CONST>
1

>  <SCORE.INTER.POLAR>
-1.07727

>  <SCORE.INTER.ROT>
3

>  <SCORE.INTER.SOLV>
13.1858

>  <SCORE.INTER.VDW>
-29.6885

>  <SCORE.INTER.norm>
-1.16421

>  <SCORE.INTRA>
-4.98648

>  <SCORE.INTRA.DIHEDRAL>
-5.53099

>  <SCORE.INTRA.DIHEDRAL.0>
9.41909

>  <SCORE.INTRA.POLAR>
0

>  <SCORE.INTRA.POLAR.0>
0

>  <SCORE.INTRA.REPUL>
0

>  <SCORE.INTRA.REPUL.0>
0

>  <SCORE.INTRA.SOLV>
-0.0401595

>  <SCORE.INTRA.SOLV.lig_0>
-26.2491

>  <SCORE.INTRA.VDW>
-2.2009

>  <SCORE.INTRA.VDW.0>
2.57239

>  <SCORE.INTRA.norm>
-0.166216

>  <SCORE.RESTR>
0

>  <SCORE.RESTR.CAVITY>
0

>  <SCORE.RESTR.norm>
0

>  <SCORE.SYSTEM>
0

>  <SCORE.SYSTEM.CONST>
0

>  <SCORE.SYSTEM.DIHEDRAL>
0

>  <SCORE.SYSTEM.SOLV>
0

>  <SCORE.SYSTEM.norm>
0

>  <SCORE.heavy>
30

>  <SCORE.norm>
-1.33042

>  <RMSD>
2.546

$$$$
lig.pdb
 OpenBabel11021811523D
libRbt.so/2013.1/901 2013/11/27
 30 34  0  0  0  0  0  0  0  0999 V2000
   24.5485   36.5492   20.0559 N   0  0  0  0  0  0  0  0  0  0  0  0
   26.9156   39.8779   22.8531 N   0  0  0  0  0  0  0  0  0  0  0  0
   24.0933   36.9355   18.7168 C   0  0  0  0  0  0  0  0  0  0  0  0
   24.4485   35.7012   17.9016 C   0  0  2  0  0  0  0  0  0  0  0  0
   24.5512   37.5209   21.1437 C   0  0  0  0  0  0  0  0  0  0  0  0
   23.4179   37.8169   21.9284 C   0  0  0  0  0  0  0  0  0  0  0  0
   23.4095   38.7511   22.9340 C   0  0  0  0  0  0  0  0  0  0  0  0
   24.5432   40.5217   24.2807 C   0  0  0  0  0  0  0  0  0  0  0  0
   29.1505   40.2321   22.8057 C   0  0  0  0  0  0  0  0  0  0  0  0
   28.1122   38.2748   21.4595 C   0  0  0  0  0  0  0  0  0  0  0  0
   25.7398   38.2391   21.4563 C   0  0  0  0  0  0  0  0  0  0  0  0
   26.3052   43.4621   25.1961 O   0  0  0  0  0  0  0  0  0  0  0  0
   25.8576   42.3538   25.4983 C   0  0  0  0  0  0  0  0  0  0  0  0
   25.4057   42.0738   26.7146 O   0  0  0  0  0  0  0  0  0  0  0  0
   25.8192   41.2508   24.5016 C   0  0  1  0  0  0  0  0  0  0  0  0
   23.5272   40.7372   24.9503 O   0  0  0  0  0  0  0  0  0  0  0  0
   26.9838   40.9003   23.7966 C   0  0  0  0  0  0  0  0  0  0  0  0
   28.1520   39.4891   22.3187 C   0  0  0  0  0  0  0  0  0  0  0  0
   28.6175   41.3974   23.9455 S   0  0  0  0  0  0  0  0  0  0  0  0
   25.7380   39.1852   22.5062 C   0  0  0  0  0  0  0  0  0  0  0  0
   24.5691   39.4676   23.2296 C   0  0  0  0  0  0  0  0  0  0  0  0
   22.2775   37.1327   21.7074 F   0  0  0  0  0  0  0  0  0  0  0  0
   26.9009   38.0669   20.6865 N   0  0  0  0  0  0  0  0  0  0  0  0
   26.8161   38.8065   19.4453 C   0  0  0  0  0  0  0  0  0  0  0  0
   25.5287   35.4708   19.9963 C   0  0  0  0  0  0  0  0  0  0  0  0
   23.3020   35.1546   17.2483 O   0  0  0  0  0  0  0  0  0  0  0  0
   24.9020   34.6336   18.8941 C   0  0  2  0  0  0  0  0  0  0  0  0
   25.7975   33.6970   18.1888 N   0  0  0  0  0  0  0  0  0  0  0  0
   25.1288   32.7592   17.2687 C   0  0  0  0  0  0  0  0  0  0  0  0
   26.9563   34.3586   17.5695 C   0  0  0  0  0  0  0  0  0  0  0  0
  1  5  1  0  0  0  0
  2 17  1  0  0  0  0
  3  1  1  0  0  0  0
  4  3  1  0  0  0  0
  4 26  1  1  0  0  0
  5 11  2  0  0  0  0
  5  6  1  0  0  0  0
  6  7  2  0  0  0  0
  7 21  1  0  0  0  0
  8 15  1  0  0  0  0
  8 16  2  0  0  0  0
  9 19  1  0  0  0  0
 10 18  1  0  0  0  0
 11 20  1  0  0  0  0
 13 14  1  0  0  0  0
 13 12  2  0  0  0  0
 15 13  1  1  0  0  0
 17 19  2  0  0  0  0
 17 15  1  0  0  0  0
 18  2  1  0  0  0  0
 18  9  2  0  0  0  0
 20 21  2  0  0  0  0
 20  2  1  0  0  0  0
 21  8  1  0  0  0  0
 22  6  1  0  0  0  0
 23 11  1  0  0  0  0
 23 10  1  0  0  0  0
 24 23  1  0  0  0  0
 25  1  1  0  0  0  0
 27  4  1  0  0  0  0
 27 25  1  0  0  0  0
 27 28  1  6  0  0  0
 29 28  1  0  0  0  0
 30 28  1  0  0  0  0
M  END
>  <CHROM.1>
83.86145831,-172.05520503,-128.52235957,69.56008470,-74.49863627,25.65670767
38.44378359,21.69636298,1.73521664,-0.19478102,-2.34321077

>  <Name>
lig.pdb

>  <RI>
0

>  <Rbt.Current_Directory>
/home/itssahil/PROJECTS/Mol_Feturizer/New_Systems/rnas/6bfb

>  <Rbt.Executable>
rbdock ($Id: //depot/dev/client3/rdock/2013.1/src/exe/rbdock.cxx#4 $)

>  <Rbt.Library>
libRbt.so (2013.1, Build901 2013/11/27)

>  <Rbt.Parameter_File>
/export/apps/rDock/src/rDock_2013.1_src/data/scripts/dock_solv.prm

>  <Rbt.Receptor>
prm/pocket_docking_5.prm

>  <SCORE>
-39.0116

>  <SCORE.INTER>
-34.7124

>  <SCORE.INTER.CONST>
1

>  <SCORE.INTER.POLAR>
-1.13926

>  <SCORE.INTER.ROT>
3

>  <SCORE.INTER.SOLV>
13.3024

>  <SCORE.INTER.VDW>
-29.3782

>  <SCORE.INTER.norm>
-1.15708

>  <SCORE.INTRA>
-4.30699

>  <SCORE.INTRA.DIHEDRAL>
-6.77781

>  <SCORE.INTRA.DIHEDRAL.0>
9.41909

>  <SCORE.INTRA.POLAR>
0

>  <SCORE.INTRA.POLAR.0>
0

>  <SCORE.INTRA.REPUL>
0

>  <SCORE.INTRA.REPUL.0>
0

>  <SCORE.INTRA.SOLV>
0.1404

>  <SCORE.INTRA.SOLV.lig_0>
-26.2491

>  <SCORE.INTRA.VDW>
-0.988284

>  <SCORE.INTRA.VDW.0>
2.57239

>  <SCORE.INTRA.norm>
-0.143566

>  <SCORE.RESTR>
0.00779808

>  <SCORE.RESTR.CAVITY>
0.00779808

>  <SCORE.RESTR.norm>
0.000259936

>  <SCORE.SYSTEM>
0

>  <SCORE.SYSTEM.CONST>
0

>  <SCORE.SYSTEM.DIHEDRAL>
0

>  <SCORE.SYSTEM.SOLV>
0

>  <SCORE.SYSTEM.norm>
0

>  <SCORE.heavy>
30

>  <SCORE.norm>
-1.30039

>  <RMSD>
2.548

$$$$
lig.pdb
 OpenBabel11021811523D
libRbt.so/2013.1/901 2013/11/27
 30 34  0  0  0  0  0  0  0  0999 V2000
   24.5404   36.5207   20.0248 N   0  0  0  0  0  0  0  0  0  0  0  0
   26.7146   39.8526   22.9707 N   0  0  0  0  0  0  0  0  0  0  0  0
   24.0621   36.9012   18.6921 C   0  0  0  0  0  0  0  0  0  0  0  0
   24.4989   35.7085   17.8549 C   0  0  2  0  0  0  0  0  0  0  0  0
   24.4777   37.4697   21.1306 C   0  0  0  0  0  0  0  0  0  0  0  0
   23.3092   37.7201   21.8788 C   0  0  0  0  0  0  0  0  0  0  0  0
   23.2394   38.6330   22.9013 C   0  0  0  0  0  0  0  0  0  0  0  0
   24.2757   40.4050   24.3226 C   0  0  0  0  0  0  0  0  0  0  0  0
   28.9394   40.2660   23.0120 C   0  0  0  0  0  0  0  0  0  0  0  0
   28.0034   38.3100   21.5911 C   0  0  0  0  0  0  0  0  0  0  0  0
   25.6345   38.2123   21.5003 C   0  0  0  0  0  0  0  0  0  0  0  0
   26.2448   42.2106   26.6013 O   0  0  0  0  0  0  0  0  0  0  0  0
   25.4956   42.2457   25.6228 C   0  0  0  0  0  0  0  0  0  0  0  0
   24.6208   43.2250   25.4281 O   0  0  0  0  0  0  0  0  0  0  0  0
   25.5228   41.1626   24.6042 C   0  0  1  0  0  0  0  0  0  0  0  0
   23.2308   40.5802   24.9586 O   0  0  0  0  0  0  0  0  0  0  0  0
   26.7211   40.8571   23.9357 C   0  0  0  0  0  0  0  0  0  0  0  0
   27.9795   39.5072   22.4745 C   0  0  0  0  0  0  0  0  0  0  0  0
   28.3345   41.3936   24.1539 S   0  0  0  0  0  0  0  0  0  0  0  0
   25.5694   39.1365   22.5676 C   0  0  0  0  0  0  0  0  0  0  0  0
   24.3679   39.3735   23.2530 C   0  0  0  0  0  0  0  0  0  0  0  0
   22.1963   37.0109   21.6030 F   0  0  0  0  0  0  0  0  0  0  0  0
   26.8268   38.0862   20.7704 N   0  0  0  0  0  0  0  0  0  0  0  0
   26.7670   38.8484   19.5415 C   0  0  0  0  0  0  0  0  0  0  0  0
   25.5898   35.5106   19.9474 C   0  0  0  0  0  0  0  0  0  0  0  0
   23.3919   35.0997   17.1888 O   0  0  0  0  0  0  0  0  0  0  0  0
   25.0209   34.6548   18.8282 C   0  0  2  0  0  0  0  0  0  0  0  0
   25.9772   33.7928   18.1077 N   0  0  0  0  0  0  0  0  0  0  0  0
   27.0259   33.1805   18.9436 C   0  0  0  0  0  0  0  0  0  0  0  0
   25.3239   32.8151   17.2238 C   0  0  0  0  0  0  0  0  0  0  0  0
  1  5  1  0  0  0  0
  2 17  1  0  0  0  0
  3  1  1  0  0  0  0
  4  3  1  0  0  0  0
  4 26  1  1  0  0  0
  5 11  2  0  0  0  0
  5  6  1  0  0  0  0
  6  7  2  0  0  0  0
  7 21  1  0  0  0  0
  8 15  1  0  0  0  0
  8 16  2  0  0  0  0
  9 19  1  0  0  0  0
 10 18  1  0  0  0  0
 11 20  1  0  0  0  0
 13 14  1  0  0  0  0
 13 12  2  0  0  0  0
 15 13  1  1  0  0  0
 17 19  2  0  0  0  0
 17 15  1  0  0  0  0
 18  2  1  0  0  0  0
 18  9  2  0  0  0  0
 20 21  2  0  0  0  0
 20  2  1  0  0  0  0
 21  8  1  0  0  0  0
 22  6  1  0  0  0  0
 23 11  1  0  0  0  0
 23 10  1  0  0  0  0
 24 23  1  0  0  0  0
 25  1  1  0  0  0  0
 27  4  1  0  0  0  0
 27 25  1  0  0  0  0
 27 28  1  6  0  0  0
 29 28  1  0  0  0  0
 30 28  1  0  0  0  0
M  END
>  <CHROM.1>
80.84624381,179.66426283,121.93800638,69.92169669,151.91582209,25.52956449
38.37692127,21.77811453,1.68994499,-0.09963075,-2.37294262

>  <Name>
lig.pdb

>  <RI>
0

>  <Rbt.Current_Directory>
/home/itssahil/PROJECTS/Mol_Feturizer/New_Systems/rnas/6bfb

>  <Rbt.Executable>
rbdock ($Id: //depot/dev/client3/rdock/2013.1/src/exe/rbdock.cxx#4 $)

>  <Rbt.Library>
libRbt.so (2013.1, Build901 2013/11/27)

>  <Rbt.Parameter_File>
/export/apps/rDock/src/rDock_2013.1_src/data/scripts/dock_solv.prm

>  <Rbt.Receptor>
prm/blind_docking_100.prm

>  <SCORE>
-39.6051

>  <SCORE.INTER>
-34.5019

>  <SCORE.INTER.CONST>
1

>  <SCORE.INTER.POLAR>
-0.848528

>  <SCORE.INTER.ROT>
3

>  <SCORE.INTER.SOLV>
13.8282

>  <SCORE.INTER.VDW>
-30.3822

>  <SCORE.INTER.norm>
-1.15006

>  <SCORE.INTRA>
-5.10321

>  <SCORE.INTRA.DIHEDRAL>
-6.57861

>  <SCORE.INTRA.DIHEDRAL.0>
9.41909

>  <SCORE.INTRA.POLAR>
0

>  <SCORE.INTRA.POLAR.0>
0

>  <SCORE.INTRA.REPUL>
0

>  <SCORE.INTRA.REPUL.0>
0

>  <SCORE.INTRA.SOLV>
-0.0506461

>  <SCORE.INTRA.SOLV.lig_0>
-26.2491

>  <SCORE.INTRA.VDW>
-1.78858

>  <SCORE.INTRA.VDW.0>
2.57239

>  <SCORE.INTRA.norm>
-0.170107

>  <SCORE.RESTR>
0

>  <SCORE.RESTR.CAVITY>
0

>  <SCORE.RESTR.norm>
0

>  <SCORE.SYSTEM>
0

>  <SCORE.SYSTEM.CONST>
0

>  <SCORE.SYSTEM.DIHEDRAL>
0

>  <SCORE.SYSTEM.SOLV>
0

>  <SCORE.SYSTEM.norm>
0

>  <SCORE.heavy>
30

>  <SCORE.norm>
-1.32017

>  <RMSD>
2.564

$$$$
lig.pdb
 OpenBabel11021811523D
libRbt.so/2013.1/901 2013/11/27
 30 34  0  0  0  0  0  0  0  0999 V2000
   24.5382   36.5390   20.0491 N   0  0  0  0  0  0  0  0  0  0  0  0
   26.7736   39.8650   22.9557 N   0  0  0  0  0  0  0  0  0  0  0  0
   24.0659   36.9246   18.7158 C   0  0  0  0  0  0  0  0  0  0  0  0
   24.4774   35.7205   17.8820 C   0  0  2  0  0  0  0  0  0  0  0  0
   24.4962   37.4929   21.1518 C   0  0  0  0  0  0  0  0  0  0  0  0
   23.3387   37.7555   21.9127 C   0  0  0  0  0  0  0  0  0  0  0  0
   23.2883   38.6731   22.9323 C   0  0  0  0  0  0  0  0  0  0  0  0
   24.3554   40.4423   24.3340 C   0  0  0  0  0  0  0  0  0  0  0  0
   29.0020   40.2607   22.9690 C   0  0  0  0  0  0  0  0  0  0  0  0
   28.0337   38.3067   21.5671 C   0  0  0  0  0  0  0  0  0  0  0  0
   25.6631   38.2276   21.5048 C   0  0  0  0  0  0  0  0  0  0  0  0
   26.3936   42.2617   26.5601 O   0  0  0  0  0  0  0  0  0  0  0  0
   25.6052   42.2782   25.6123 C   0  0  0  0  0  0  0  0  0  0  0  0
   24.7053   43.2402   25.4489 O   0  0  0  0  0  0  0  0  0  0  0  0
   25.6118   41.1909   24.5978 C   0  0  1  0  0  0  0  0  0  0  0  0
   23.3196   40.6283   24.9817 O   0  0  0  0  0  0  0  0  0  0  0  0
   26.7996   40.8731   23.9165 C   0  0  0  0  0  0  0  0  0  0  0  0
   28.0298   39.5075   22.4460 C   0  0  0  0  0  0  0  0  0  0  0  0
   28.4197   41.3976   24.1134 S   0  0  0  0  0  0  0  0  0  0  0  0
   25.6180   39.1565   22.5690 C   0  0  0  0  0  0  0  0  0  0  0  0
   24.4267   39.4058   23.2676 C   0  0  0  0  0  0  0  0  0  0  0  0
   22.2170   37.0542   21.6529 F   0  0  0  0  0  0  0  0  0  0  0  0
   26.8456   38.0890   20.7613 N   0  0  0  0  0  0  0  0  0  0  0  0
   26.7774   38.8469   19.5301 C   0  0  0  0  0  0  0  0  0  0  0  0
   25.5668   35.5077   19.9738 C   0  0  0  0  0  0  0  0  0  0  0  0
   23.3573   35.1320   17.2194 O   0  0  0  0  0  0  0  0  0  0  0  0
   24.9792   34.6597   18.8583 C   0  0  2  0  0  0  0  0  0  0  0  0
   25.9169   33.7761   18.1396 N   0  0  0  0  0  0  0  0  0  0  0  0
   26.9571   33.1494   18.9754 C   0  0  0  0  0  0  0  0  0  0  0  0
   25.2426   32.8057   17.2635 C   0  0  0  0  0  0  0  0  0  0  0  0
  1  5  1  0  0  0  0
  2 17  1  0  0  0  0
  3  1  1  0  0  0  0
  4  3  1  0  0  0  0
  4 26  1  1  0  0  0
  5 11  2  0  0  0  0
  5  6  1  0  0  0  0
  6  7  2  0  0  0  0
  7 21  1  0  0  0  0
  8 15  1  0  0  0  0
  8 16  2  0  0  0  0
  9 19  1  0  0  0  0
 10 18  1  0  0  0  0
 11 20  1  0  0  0  0
 13 14  1  0  0  0  0
 13 12  2  0  0  0  0
 15 13  1  1  0  0  0
 17 19  2  0  0  0  0
 17 15  1  0  0  0  0
 18  2  1  0  0  0  0
 18  9  2  0  0  0  0
 20 21  2  0  0  0  0
 20  2  1  0  0  0  0
 21  8  1  0  0  0  0
 22  6  1  0  0  0  0
 23 11  1  0  0  0  0
 23 10  1  0  0  0  0
 24 23  1  0  0  0  0
 25  1  1  0  0  0  0
 27  4  1  0  0  0  0
 27 25  1  0  0  0  0
 27 28  1  6  0  0  0
 29 28  1  0  0  0  0
 30 28  1  0  0  0  0
M  END
>  <CHROM.1>
81.77169114,178.81784210,124.16250911,70.07998401,151.70687312,25.56152342
38.39255025,21.78461140,1.70448988,-0.10273593,-2.37619622

>  <Name>
lig.pdb

>  <RI>
0

>  <Rbt.Current_Directory>
/home/itssahil/PROJECTS/Mol_Feturizer/New_Systems/rnas/6bfb

>  <Rbt.Executable>
rbdock ($Id: //depot/dev/client3/rdock/2013.1/src/exe/rbdock.cxx#4 $)

>  <Rbt.Library>
libRbt.so (2013.1, Build901 2013/11/27)

>  <Rbt.Parameter_File>
/export/apps/rDock/src/rDock_2013.1_src/data/scripts/dock_solv.prm

>  <Rbt.Receptor>
prm/pocket_docking_5.prm

>  <SCORE>
-39.5249

>  <SCORE.INTER>
-34.4653

>  <SCORE.INTER.CONST>
1

>  <SCORE.INTER.POLAR>
-0.845078

>  <SCORE.INTER.ROT>
3

>  <SCORE.INTER.SOLV>
13.7758

>  <SCORE.INTER.VDW>
-30.3518

>  <SCORE.INTER.norm>
-1.14884

>  <SCORE.INTRA>
-5.05964

>  <SCORE.INTRA.DIHEDRAL>
-6.54

>  <SCORE.INTRA.DIHEDRAL.0>
9.41909

>  <SCORE.INTRA.POLAR>
0

>  <SCORE.INTRA.POLAR.0>
0

>  <SCORE.INTRA.REPUL>
0

>  <SCORE.INTRA.REPUL.0>
0

>  <SCORE.INTRA.SOLV>
-0.0455072

>  <SCORE.INTRA.SOLV.lig_0>
-26.2491

>  <SCORE.INTRA.VDW>
-1.76689

>  <SCORE.INTRA.VDW.0>
2.57239

>  <SCORE.INTRA.norm>
-0.168655

>  <SCORE.RESTR>
0

>  <SCORE.RESTR.CAVITY>
0

>  <SCORE.RESTR.norm>
0

>  <SCORE.SYSTEM>
0

>  <SCORE.SYSTEM.CONST>
0

>  <SCORE.SYSTEM.DIHEDRAL>
0

>  <SCORE.SYSTEM.SOLV>
0

>  <SCORE.SYSTEM.norm>
0

>  <SCORE.heavy>
30

>  <SCORE.norm>
-1.3175

>  <RMSD>
2.564

$$$$
lig.pdb
 OpenBabel11021811523D
libRbt.so/2013.1/901 2013/11/27
 30 34  0  0  0  0  0  0  0  0999 V2000
   25.5792   36.5871   19.5899 N   0  0  0  0  0  0  0  0  0  0  0  0
   26.2480   39.6667   23.4078 N   0  0  0  0  0  0  0  0  0  0  0  0
   25.2932   37.0480   18.2279 C   0  0  0  0  0  0  0  0  0  0  0  0
   26.1799   36.1312   17.3987 C   0  0  2  0  0  0  0  0  0  0  0  0
   25.0557   37.3144   20.7408 C   0  0  0  0  0  0  0  0  0  0  0  0
   23.7102   37.2520   21.1572 C   0  0  0  0  0  0  0  0  0  0  0  0
   23.2081   37.9572   22.2223 C   0  0  0  0  0  0  0  0  0  0  0  0
   23.4870   39.6012   24.0807 C   0  0  0  0  0  0  0  0  0  0  0  0
   28.2662   40.4040   24.1191 C   0  0  0  0  0  0  0  0  0  0  0  0
   28.1179   38.5962   22.2668 C   0  0  0  0  0  0  0  0  0  0  0  0
   25.9146   38.1525   21.5063 C   0  0  0  0  0  0  0  0  0  0  0  0
   23.7998   42.5697   25.6998 O   0  0  0  0  0  0  0  0  0  0  0  0
   23.9572   41.3607   25.8834 C   0  0  0  0  0  0  0  0  0  0  0  0
   23.7172   40.7788   27.0521 O   0  0  0  0  0  0  0  0  0  0  0  0
   24.4509   40.4827   24.7894 C   0  0  1  0  0  0  0  0  0  0  0  0
   22.3015   39.5036   24.4157 O   0  0  0  0  0  0  0  0  0  0  0  0
   25.8152   40.4824   24.4506 C   0  0  0  0  0  0  0  0  0  0  0  0
   27.6395   39.6087   23.2468 C   0  0  0  0  0  0  0  0  0  0  0  0
   27.1851   41.2157   25.1745 S   0  0  0  0  0  0  0  0  0  0  0  0
   25.4035   38.8618   22.6168 C   0  0  0  0  0  0  0  0  0  0  0  0
   24.0451   38.7920   22.9625 C   0  0  0  0  0  0  0  0  0  0  0  0
   22.8626   36.4373   20.4974 F   0  0  0  0  0  0  0  0  0  0  0  0
   27.2541   38.3363   21.1291 N   0  0  0  0  0  0  0  0  0  0  0  0
   27.3614   39.2771   20.0344 C   0  0  0  0  0  0  0  0  0  0  0  0
   26.8473   35.8695   19.6556 C   0  0  0  0  0  0  0  0  0  0  0  0
   25.4222   35.3944   16.4380 O   0  0  0  0  0  0  0  0  0  0  0  0
   26.7522   35.0887   18.3557 C   0  0  2  0  0  0  0  0  0  0  0  0
   28.0217   34.5911   17.7924 N   0  0  0  0  0  0  0  0  0  0  0  0
   29.1184   35.5752   17.7467 C   0  0  0  0  0  0  0  0  0  0  0  0
   28.4464   33.3056   18.3676 C   0  0  0  0  0  0  0  0  0  0  0  0
  1  5  1  0  0  0  0
  2 17  1  0  0  0  0
  3  1  1  0  0  0  0
  4  3  1  0  0  0  0
  4 26  1  6  0  0  0
  5 11  2  0  0  0  0
  5  6  1  0  0  0  0
  6  7  2  0  0  0  0
  7 21  1  0  0  0  0
  8 15  1  0  0  0  0
  8 16  2  0  0  0  0
  9 19  1  0  0  0  0
 10 18  1  0  0  0  0
 11 20  1  0  0  0  0
 13 14  1  0  0  0  0
 13 12  2  0  0  0  0
 15 13  1  1  0  0  0
 17 19  2  0  0  0  0
 17 15  1  0  0  0  0
 18  2  1  0  0  0  0
 18  9  2  0  0  0  0
 20 21  2  0  0  0  0
 20  2  1  0  0  0  0
 21  8  1  0  0  0  0
 22  6  1  0  0  0  0
 23 11  1  0  0  0  0
 23 10  1  0  0  0  0
 24 23  1  0  0  0  0
 25  1  1  0  0  0  0
 27  4  1  0  0  0  0
 27 25  1  0  0  0  0
 27 28  1  6  0  0  0
 29 28  1  0  0  0  0
 30 28  1  0  0  0  0
M  END
>  <CHROM.1>
75.64420411,-174.47369817,-103.80844301,59.65132331,67.38236685,25.75043779
38.28858129,21.79182738,1.35157888,-0.09929361,-2.24265465

>  <Name>
lig.pdb

>  <RI>
0

>  <Rbt.Current_Directory>
/home/itssahil/PROJECTS/Mol_Feturizer/New_Systems/rnas/6bfb

>  <Rbt.Executable>
rbdock ($Id: //depot/dev/client3/rdock/2013.1/src/exe/rbdock.cxx#4 $)

>  <Rbt.Library>
libRbt.so (2013.1, Build901 2013/11/27)

>  <Rbt.Parameter_File>
/export/apps/rDock/src/rDock_2013.1_src/data/scripts/dock_solv.prm

>  <Rbt.Receptor>
prm/pocket_docking_8.prm

>  <SCORE>
-40.5823

>  <SCORE.INTER>
-34.788

>  <SCORE.INTER.CONST>
1

>  <SCORE.INTER.POLAR>
-1.84175

>  <SCORE.INTER.ROT>
3

>  <SCORE.INTER.SOLV>
14.2949

>  <SCORE.INTER.VDW>
-27.4178

>  <SCORE.INTER.norm>
-1.1596

>  <SCORE.INTRA>
-5.79427

>  <SCORE.INTRA.DIHEDRAL>
-7.30634

>  <SCORE.INTRA.DIHEDRAL.0>
9.41909

>  <SCORE.INTRA.POLAR>
0

>  <SCORE.INTRA.POLAR.0>
0

>  <SCORE.INTRA.REPUL>
0

>  <SCORE.INTRA.REPUL.0>
0

>  <SCORE.INTRA.SOLV>
-0.191773

>  <SCORE.INTRA.SOLV.lig_0>
-26.2491

>  <SCORE.INTRA.VDW>
-2.04521

>  <SCORE.INTRA.VDW.0>
2.57239

>  <SCORE.INTRA.norm>
-0.193142

>  <SCORE.RESTR>
0

>  <SCORE.RESTR.CAVITY>
0

>  <SCORE.RESTR.norm>
0

>  <SCORE.SYSTEM>
0

>  <SCORE.SYSTEM.CONST>
0

>  <SCORE.SYSTEM.DIHEDRAL>
0

>  <SCORE.SYSTEM.SOLV>
0

>  <SCORE.SYSTEM.norm>
0

>  <SCORE.heavy>
30

>  <SCORE.norm>
-1.35274

>  <RMSD>
2.589

$$$$
lig.pdb
 OpenBabel11021811523D
libRbt.so/2013.1/901 2013/11/27
 30 34  0  0  0  0  0  0  0  0999 V2000
   24.5884   36.5327   20.0562 N   0  0  0  0  0  0  0  0  0  0  0  0
   26.8793   39.9448   22.8161 N   0  0  0  0  0  0  0  0  0  0  0  0
   24.1549   36.8907   18.7021 C   0  0  0  0  0  0  0  0  0  0  0  0
   24.5320   35.6433   17.9171 C   0  0  2  0  0  0  0  0  0  0  0  0
   24.5658   37.5248   21.1252 C   0  0  0  0  0  0  0  0  0  0  0  0
   23.4196   37.8209   21.8909 C   0  0  0  0  0  0  0  0  0  0  0  0
   23.3873   38.7738   22.8783 C   0  0  0  0  0  0  0  0  0  0  0  0
   24.4822   40.5845   24.2037 C   0  0  0  0  0  0  0  0  0  0  0  0
   29.1099   40.3273   22.7875 C   0  0  0  0  0  0  0  0  0  0  0  0
   28.1128   38.3313   21.4672 C   0  0  0  0  0  0  0  0  0  0  0  0
   25.7412   38.2644   21.4375 C   0  0  0  0  0  0  0  0  0  0  0  0
   26.6815   42.5798   26.2090 O   0  0  0  0  0  0  0  0  0  0  0  0
   25.7585   42.4564   25.4010 C   0  0  0  0  0  0  0  0  0  0  0  0
   24.7272   43.2914   25.3622 O   0  0  0  0  0  0  0  0  0  0  0  0
   25.7460   41.3343   24.4252 C   0  0  1  0  0  0  0  0  0  0  0  0
   23.4558   40.7993   24.8574 O   0  0  0  0  0  0  0  0  0  0  0  0
   26.9232   40.9857   23.7405 C   0  0  0  0  0  0  0  0  0  0  0  0
   28.1268   39.5621   22.3034 C   0  0  0  0  0  0  0  0  0  0  0  0
   28.5485   41.5070   23.8986 S   0  0  0  0  0  0  0  0  0  0  0  0
   25.7149   39.2302   22.4690 C   0  0  0  0  0  0  0  0  0  0  0  0
   24.5340   39.5110   23.1734 C   0  0  0  0  0  0  0  0  0  0  0  0
   22.2908   37.1177   21.6700 F   0  0  0  0  0  0  0  0  0  0  0  0
   26.9134   38.0928   20.6846 N   0  0  0  0  0  0  0  0  0  0  0  0
   26.8336   38.8075   19.4285 C   0  0  0  0  0  0  0  0  0  0  0  0
   25.5759   35.4596   20.0346 C   0  0  0  0  0  0  0  0  0  0  0  0
   23.4007   35.0772   17.2540 O   0  0  0  0  0  0  0  0  0  0  0  0
   24.9740   34.5977   18.9376 C   0  0  2  0  0  0  0  0  0  0  0  0
   25.8877   33.6535   18.2664 N   0  0  0  0  0  0  0  0  0  0  0  0
   26.8359   32.9567   19.1544 C   0  0  0  0  0  0  0  0  0  0  0  0
   25.1982   32.7322   17.3502 C   0  0  0  0  0  0  0  0  0  0  0  0
  1  5  1  0  0  0  0
  2 17  1  0  0  0  0
  3  1  1  0  0  0  0
  4  3  1  0  0  0  0
  4 26  1  1  0  0  0
  5 11  2  0  0  0  0
  5  6  1  0  0  0  0
  6  7  2  0  0  0  0
  7 21  1  0  0  0  0
  8 15  1  0  0  0  0
  8 16  2  0  0  0  0
  9 19  1  0  0  0  0
 10 18  1  0  0  0  0
 11 20  1  0  0  0  0
 13 14  1  0  0  0  0
 13 12  2  0  0  0  0
 15 13  1  1  0  0  0
 17 19  2  0  0  0  0
 17 15  1  0  0  0  0
 18  2  1  0  0  0  0
 18  9  2  0  0  0  0
 20 21  2  0  0  0  0
 20  2  1  0  0  0  0
 21  8  1  0  0  0  0
 22  6  1  0  0  0  0
 23 11  1  0  0  0  0
 23 10  1  0  0  0  0
 24 23  1  0  0  0  0
 25  1  1  0  0  0  0
 27  4  1  0  0  0  0
 27 25  1  0  0  0  0
 27 28  1  6  0  0  0
 29 28  1  0  0  0  0
 30 28  1  0  0  0  0
M  END
>  <CHROM.1>
84.39224006,14.54785201,135.57139342,68.10788658,155.10096433,25.64002143
38.43699052,21.71859458,1.71927121,-0.11256369,-2.41012472

>  <Name>
lig.pdb

>  <RI>
0

>  <Rbt.Current_Directory>
/home/itssahil/PROJECTS/Mol_Feturizer/New_Systems/rnas/6bfb

>  <Rbt.Executable>
rbdock ($Id: //depot/dev/client3/rdock/2013.1/src/exe/rbdock.cxx#4 $)

>  <Rbt.Library>
libRbt.so (2013.1, Build901 2013/11/27)

>  <Rbt.Parameter_File>
/export/apps/rDock/src/rDock_2013.1_src/data/scripts/dock_solv.prm

>  <Rbt.Receptor>
prm/pocket_docking_6.prm

>  <SCORE>
-40.1393

>  <SCORE.INTER>
-35.2575

>  <SCORE.INTER.CONST>
1

>  <SCORE.INTER.POLAR>
-1.06591

>  <SCORE.INTER.ROT>
3

>  <SCORE.INTER.SOLV>
13.254

>  <SCORE.INTER.VDW>
-29.97

>  <SCORE.INTER.norm>
-1.17525

>  <SCORE.INTRA>
-4.88172

>  <SCORE.INTRA.DIHEDRAL>
-5.52612

>  <SCORE.INTRA.DIHEDRAL.0>
9.41909

>  <SCORE.INTRA.POLAR>
0

>  <SCORE.INTRA.POLAR.0>
0

>  <SCORE.INTRA.REPUL>
0

>  <SCORE.INTRA.REPUL.0>
0

>  <SCORE.INTRA.SOLV>
-0.0174909

>  <SCORE.INTRA.SOLV.lig_0>
-26.2491

>  <SCORE.INTRA.VDW>
-2.10992

>  <SCORE.INTRA.VDW.0>
2.57239

>  <SCORE.INTRA.norm>
-0.162724

>  <SCORE.RESTR>
0

>  <SCORE.RESTR.CAVITY>
0

>  <SCORE.RESTR.norm>
0

>  <SCORE.SYSTEM>
0

>  <SCORE.SYSTEM.CONST>
0

>  <SCORE.SYSTEM.DIHEDRAL>
0

>  <SCORE.SYSTEM.SOLV>
0

>  <SCORE.SYSTEM.norm>
0

>  <SCORE.heavy>
30

>  <SCORE.norm>
-1.33798

>  <RMSD>
2.597

$$$$
lig.pdb
 OpenBabel11021811523D
libRbt.so/2013.1/901 2013/11/27
 30 34  0  0  0  0  0  0  0  0999 V2000
   24.6620   36.3436   19.8087 N   0  0  0  0  0  0  0  0  0  0  0  0
   26.9401   39.7742   22.5561 N   0  0  0  0  0  0  0  0  0  0  0  0
   25.5650   35.1910   19.8838 C   0  0  0  0  0  0  0  0  0  0  0  0
   25.1091   34.3631   18.6917 C   0  0  2  0  0  0  0  0  0  0  0  0
   24.6379   37.3337   20.8795 C   0  0  0  0  0  0  0  0  0  0  0  0
   23.4949   37.6168   21.6549 C   0  0  0  0  0  0  0  0  0  0  0  0
   23.4608   38.5677   22.6441 C   0  0  0  0  0  0  0  0  0  0  0  0
   24.5478   40.3873   23.9638 C   0  0  0  0  0  0  0  0  0  0  0  0
   29.1664   40.1795   22.5104 C   0  0  0  0  0  0  0  0  0  0  0  0
   28.1791   38.1756   21.1947 C   0  0  0  0  0  0  0  0  0  0  0  0
   25.8082   38.0846   21.1837 C   0  0  0  0  0  0  0  0  0  0  0  0
   26.7003   42.3562   26.0073 O   0  0  0  0  0  0  0  0  0  0  0  0
   25.8145   42.2702   25.1541 C   0  0  0  0  0  0  0  0  0  0  0  0
   24.8209   43.1459   25.0657 O   0  0  0  0  0  0  0  0  0  0  0  0
   25.8056   41.1495   24.1765 C   0  0  1  0  0  0  0  0  0  0  0  0
   23.5245   40.5906   24.6260 O   0  0  0  0  0  0  0  0  0  0  0  0
   26.9808   40.8141   23.4819 C   0  0  0  0  0  0  0  0  0  0  0  0
   28.1873   39.4051   22.0328 C   0  0  0  0  0  0  0  0  0  0  0  0
   28.6020   41.3516   23.6279 S   0  0  0  0  0  0  0  0  0  0  0  0
   25.7804   39.0484   22.2171 C   0  0  0  0  0  0  0  0  0  0  0  0
   24.6023   39.3160   22.9313 C   0  0  0  0  0  0  0  0  0  0  0  0
   22.3715   36.9025   21.4418 F   0  0  0  0  0  0  0  0  0  0  0  0
   26.9760   37.9262   20.4212 N   0  0  0  0  0  0  0  0  0  0  0  0
   26.8789   38.6421   19.1670 C   0  0  0  0  0  0  0  0  0  0  0  0
   23.4683   36.0369   19.0287 C   0  0  0  0  0  0  0  0  0  0  0  0
   26.1820   34.1158   17.7819 O   0  0  0  0  0  0  0  0  0  0  0  0
   24.1067   35.2173   17.9199 C   0  0  2  0  0  0  0  0  0  0  0  0
   23.2120   34.3158   17.1692 N   0  0  0  0  0  0  0  0  0  0  0  0
   21.8905   34.8768   16.8339 C   0  0  0  0  0  0  0  0  0  0  0  0
   23.8634   33.6861   16.0104 C   0  0  0  0  0  0  0  0  0  0  0  0
  1  5  1  0  0  0  0
  2 17  1  0  0  0  0
  3  1  1  0  0  0  0
  4  3  1  0  0  0  0
  4 26  1  6  0  0  0
  5 11  2  0  0  0  0
  5  6  1  0  0  0  0
  6  7  2  0  0  0  0
  7 21  1  0  0  0  0
  8 15  1  0  0  0  0
  8 16  2  0  0  0  0
  9 19  1  0  0  0  0
 10 18  1  0  0  0  0
 11 20  1  0  0  0  0
 13 14  1  0  0  0  0
 13 12  2  0  0  0  0
 15 13  1  1  0  0  0
 17 19  2  0  0  0  0
 17 15  1  0  0  0  0
 18  2  1  0  0  0  0
 18  9  2  0  0  0  0
 20 21  2  0  0  0  0
 20  2  1  0  0  0  0
 21  8  1  0  0  0  0
 22  6  1  0  0  0  0
 23 11  1  0  0  0  0
 23 10  1  0  0  0  0
 24 23  1  0  0  0  0
 25  1  1  0  0  0  0
 27  4  1  0  0  0  0
 27 25  1  0  0  0  0
 27 28  1  1  0  0  0
 29 28  1  0  0  0  0
 30 28  1  0  0  0  0
M  END
>  <CHROM.1>
-119.05469080,13.67738899,131.17664985,64.40383944,155.71593320,25.46216437
38.32870753,21.39266302,1.83830107,-0.15086873,-2.33474025

>  <Name>
lig.pdb

>  <RI>
0

>  <Rbt.Current_Directory>
/home/itssahil/PROJECTS/Mol_Feturizer/New_Systems/rnas/6bfb

>  <Rbt.Executable>
rbdock ($Id: //depot/dev/client3/rdock/2013.1/src/exe/rbdock.cxx#4 $)

>  <Rbt.Library>
libRbt.so (2013.1, Build901 2013/11/27)

>  <Rbt.Parameter_File>
/export/apps/rDock/src/rDock_2013.1_src/data/scripts/dock_solv.prm

>  <Rbt.Receptor>
prm/pocket_docking_7.prm

>  <SCORE>
-36.503

>  <SCORE.INTER>
-31.9693

>  <SCORE.INTER.CONST>
1

>  <SCORE.INTER.POLAR>
-0.329093

>  <SCORE.INTER.ROT>
3

>  <SCORE.INTER.SOLV>
12.7606

>  <SCORE.INTER.VDW>
-30.0694

>  <SCORE.INTER.norm>
-1.06564

>  <SCORE.INTRA>
-4.53368

>  <SCORE.INTRA.DIHEDRAL>
-5.94419

>  <SCORE.INTRA.DIHEDRAL.0>
9.41909

>  <SCORE.INTRA.POLAR>
0

>  <SCORE.INTRA.POLAR.0>
0

>  <SCORE.INTRA.REPUL>
0.0328948

>  <SCORE.INTRA.REPUL.0>
0

>  <SCORE.INTRA.SOLV>
-0.149365

>  <SCORE.INTRA.SOLV.lig_0>
-26.2491

>  <SCORE.INTRA.VDW>
-1.65137

>  <SCORE.INTRA.VDW.0>
2.57239

>  <SCORE.INTRA.norm>
-0.151123

>  <SCORE.RESTR>
0

>  <SCORE.RESTR.CAVITY>
0

>  <SCORE.RESTR.norm>
0

>  <SCORE.SYSTEM>
0

>  <SCORE.SYSTEM.CONST>
0

>  <SCORE.SYSTEM.DIHEDRAL>
0

>  <SCORE.SYSTEM.SOLV>
0

>  <SCORE.SYSTEM.norm>
0

>  <SCORE.heavy>
30

>  <SCORE.norm>
-1.21677

>  <RMSD>
2.599

$$$$
lig.pdb
 OpenBabel11021811523D
libRbt.so/2013.1/901 2013/11/27
 30 34  0  0  0  0  0  0  0  0999 V2000
   24.5060   36.6045   20.1014 N   0  0  0  0  0  0  0  0  0  0  0  0
   26.9513   39.9099   22.8585 N   0  0  0  0  0  0  0  0  0  0  0  0
   24.0399   36.9955   18.7675 C   0  0  0  0  0  0  0  0  0  0  0  0
   24.3676   35.7553   17.9498 C   0  0  2  0  0  0  0  0  0  0  0  0
   24.5357   37.5773   21.1878 C   0  0  0  0  0  0  0  0  0  0  0  0
   23.4176   37.8868   21.9890 C   0  0  0  0  0  0  0  0  0  0  0  0
   23.4346   38.8222   22.9933 C   0  0  0  0  0  0  0  0  0  0  0  0
   24.6078   40.5817   24.3205 C   0  0  0  0  0  0  0  0  0  0  0  0
   29.1891   40.2393   22.7772 C   0  0  0  0  0  0  0  0  0  0  0  0
   28.1092   38.2921   21.4493 C   0  0  0  0  0  0  0  0  0  0  0  0
   25.7367   38.2827   21.4816 C   0  0  0  0  0  0  0  0  0  0  0  0
   26.4632   43.4869   25.2208 O   0  0  0  0  0  0  0  0  0  0  0  0
   25.9605   42.4005   25.5160 C   0  0  0  0  0  0  0  0  0  0  0  0
   25.4702   42.1450   26.7228 O   0  0  0  0  0  0  0  0  0  0  0  0
   25.8950   41.2968   24.5214 C   0  0  1  0  0  0  0  0  0  0  0  0
   23.6045   40.8092   25.0050 O   0  0  0  0  0  0  0  0  0  0  0  0
   27.0449   40.9326   23.7996 C   0  0  0  0  0  0  0  0  0  0  0  0
   28.1753   39.5068   22.3062 C   0  0  0  0  0  0  0  0  0  0  0  0
   28.6861   41.4118   23.9234 S   0  0  0  0  0  0  0  0  0  0  0  0
   25.7611   39.2300   22.5302 C   0  0  0  0  0  0  0  0  0  0  0  0
   24.6063   39.5261   23.2706 C   0  0  0  0  0  0  0  0  0  0  0  0
   22.2665   37.2151   21.7859 F   0  0  0  0  0  0  0  0  0  0  0  0
   26.8842   38.0967   20.6948 N   0  0  0  0  0  0  0  0  0  0  0  0
   26.7890   38.8358   19.4540 C   0  0  0  0  0  0  0  0  0  0  0  0
   25.4701   35.5123   20.0313 C   0  0  0  0  0  0  0  0  0  0  0  0
   23.2056   35.2241   17.3113 O   0  0  0  0  0  0  0  0  0  0  0  0
   24.8182   34.6827   18.9380 C   0  0  2  0  0  0  0  0  0  0  0  0
   25.6917   33.7327   18.2232 N   0  0  0  0  0  0  0  0  0  0  0  0
   26.6887   33.0417   19.0611 C   0  0  0  0  0  0  0  0  0  0  0  0
   24.9508   32.8051   17.3546 C   0  0  0  0  0  0  0  0  0  0  0  0
  1  5  1  0  0  0  0
  2 17  1  0  0  0  0
  3  1  1  0  0  0  0
  4  3  1  0  0  0  0
  4 26  1  1  0  0  0
  5 11  2  0  0  0  0
  5  6  1  0  0  0  0
  6  7  2  0  0  0  0
  7 21  1  0  0  0  0
  8 15  1  0  0  0  0
  8 16  2  0  0  0  0
  9 19  1  0  0  0  0
 10 18  1  0  0  0  0
 11 20  1  0  0  0  0
 13 14  1  0  0  0  0
 13 12  2  0  0  0  0
 15 13  1  1  0  0  0
 17 19  2  0  0  0  0
 17 15  1  0  0  0  0
 18  2  1  0  0  0  0
 18  9  2  0  0  0  0
 20 21  2  0  0  0  0
 20  2  1  0  0  0  0
 21  8  1  0  0  0  0
 22  6  1  0  0  0  0
 23 11  1  0  0  0  0
 23 10  1  0  0  0  0
 24 23  1  0  0  0  0
 25  1  1  0  0  0  0
 27  4  1  0  0  0  0
 27 25  1  0  0  0  0
 27 28  1  6  0  0  0
 29 28  1  0  0  0  0
 30 28  1  0  0  0  0
M  END
>  <CHROM.1>
84.09240779,-170.47029142,-131.36549667,72.44145887,152.69843681,25.65182938
38.44197953,21.77533527,1.75746520,-0.15732838,-2.37609130

>  <Name>
lig.pdb

>  <RI>
0

>  <Rbt.Current_Directory>
/home/itssahil/PROJECTS/Mol_Feturizer/New_Systems/rnas/6bfb

>  <Rbt.Executable>
rbdock ($Id: //depot/dev/client3/rdock/2013.1/src/exe/rbdock.cxx#4 $)

>  <Rbt.Library>
libRbt.so (2013.1, Build901 2013/11/27)

>  <Rbt.Parameter_File>
/export/apps/rDock/src/rDock_2013.1_src/data/scripts/dock_solv.prm

>  <Rbt.Receptor>
prm/pocket_docking_4.prm

>  <SCORE>
-40.7107

>  <SCORE.INTER>
-36.0192

>  <SCORE.INTER.CONST>
1

>  <SCORE.INTER.POLAR>
-1.16641

>  <SCORE.INTER.ROT>
3

>  <SCORE.INTER.SOLV>
13.8867

>  <SCORE.INTER.VDW>
-30.3537

>  <SCORE.INTER.norm>
-1.20064

>  <SCORE.INTRA>
-4.69147

>  <SCORE.INTRA.DIHEDRAL>
-5.77801

>  <SCORE.INTRA.DIHEDRAL.0>
9.41909

>  <SCORE.INTRA.POLAR>
0

>  <SCORE.INTRA.POLAR.0>
0

>  <SCORE.INTRA.REPUL>
0

>  <SCORE.INTRA.REPUL.0>
0

>  <SCORE.INTRA.SOLV>
-0.031286

>  <SCORE.INTRA.SOLV.lig_0>
-26.2491

>  <SCORE.INTRA.VDW>
-1.78682

>  <SCORE.INTRA.VDW.0>
2.57239

>  <SCORE.INTRA.norm>
-0.156382

>  <SCORE.RESTR>
0

>  <SCORE.RESTR.CAVITY>
0

>  <SCORE.RESTR.norm>
0

>  <SCORE.SYSTEM>
0

>  <SCORE.SYSTEM.CONST>
0

>  <SCORE.SYSTEM.DIHEDRAL>
0

>  <SCORE.SYSTEM.SOLV>
0

>  <SCORE.SYSTEM.norm>
0

>  <SCORE.heavy>
30

>  <SCORE.norm>
-1.35702

>  <RMSD>
2.607

$$$$
lig.pdb
 OpenBabel11021811523D
libRbt.so/2013.1/901 2013/11/27
 30 34  0  0  0  0  0  0  0  0999 V2000
   24.5379   36.5761   20.0684 N   0  0  0  0  0  0  0  0  0  0  0  0
   26.9310   39.9046   22.8435 N   0  0  0  0  0  0  0  0  0  0  0  0
   24.0567   36.9573   18.7370 C   0  0  0  0  0  0  0  0  0  0  0  0
   24.4089   35.7255   17.9167 C   0  0  2  0  0  0  0  0  0  0  0  0
   24.5505   37.5486   21.1554 C   0  0  0  0  0  0  0  0  0  0  0  0
   23.4239   37.8464   21.9491 C   0  0  0  0  0  0  0  0  0  0  0  0
   23.4246   38.7813   22.9540 C   0  0  0  0  0  0  0  0  0  0  0  0
   24.5710   40.5519   24.2899 C   0  0  0  0  0  0  0  0  0  0  0  0
   29.1658   40.2566   22.7774 C   0  0  0  0  0  0  0  0  0  0  0  0
   28.1146   38.2993   21.4413 C   0  0  0  0  0  0  0  0  0  0  0  0
   25.7422   38.2659   21.4576 C   0  0  0  0  0  0  0  0  0  0  0  0
   26.4965   43.4320   25.2469 O   0  0  0  0  0  0  0  0  0  0  0  0
   25.8971   42.3836   25.4953 C   0  0  0  0  0  0  0  0  0  0  0  0
   25.2821   42.1697   26.6520 O   0  0  0  0  0  0  0  0  0  0  0  0
   25.8495   41.2799   24.4998 C   0  0  1  0  0  0  0  0  0  0  0  0
   23.5608   40.7689   24.9677 O   0  0  0  0  0  0  0  0  0  0  0  0
   27.0079   40.9277   23.7856 C   0  0  0  0  0  0  0  0  0  0  0  0
   28.1627   39.5142   22.2992 C   0  0  0  0  0  0  0  0  0  0  0  0
   28.6433   41.4234   23.9207 S   0  0  0  0  0  0  0  0  0  0  0  0
   25.7500   39.2128   22.5068 C   0  0  0  0  0  0  0  0  0  0  0  0
   24.5873   39.4969   23.2395 C   0  0  0  0  0  0  0  0  0  0  0  0
   22.2811   37.1631   21.7380 F   0  0  0  0  0  0  0  0  0  0  0  0
   26.8968   38.0919   20.6785 N   0  0  0  0  0  0  0  0  0  0  0  0
   26.8026   38.8307   19.4374 C   0  0  0  0  0  0  0  0  0  0  0  0
   25.5264   35.5063   19.9929 C   0  0  0  0  0  0  0  0  0  0  0  0
   23.2564   35.1683   17.2832 O   0  0  0  0  0  0  0  0  0  0  0  0
   24.8885   34.6628   18.9019 C   0  0  2  0  0  0  0  0  0  0  0  0
   25.7802   33.7335   18.1823 N   0  0  0  0  0  0  0  0  0  0  0  0
   26.7794   33.0449   19.0195 C   0  0  0  0  0  0  0  0  0  0  0  0
   25.0586   32.8075   17.2959 C   0  0  0  0  0  0  0  0  0  0  0  0
  1  5  1  0  0  0  0
  2 17  1  0  0  0  0
  3  1  1  0  0  0  0
  4  3  1  0  0  0  0
  4 26  1  1  0  0  0
  5 11  2  0  0  0  0
  5  6  1  0  0  0  0
  6  7  2  0  0  0  0
  7 21  1  0  0  0  0
  8 15  1  0  0  0  0
  8 16  2  0  0  0  0
  9 19  1  0  0  0  0
 10 18  1  0  0  0  0
 11 20  1  0  0  0  0
 13 14  1  0  0  0  0
 13 12  2  0  0  0  0
 15 13  1  1  0  0  0
 17 19  2  0  0  0  0
 17 15  1  0  0  0  0
 18  2  1  0  0  0  0
 18  9  2  0  0  0  0
 20 21  2  0  0  0  0
 20  2  1  0  0  0  0
 21  8  1  0  0  0  0
 22  6  1  0  0  0  0
 23 11  1  0  0  0  0
 23 10  1  0  0  0  0
 24 23  1  0  0  0  0
 25  1  1  0  0  0  0
 27  4  1  0  0  0  0
 27 25  1  0  0  0  0
 27 28  1  6  0  0  0
 29 28  1  0  0  0  0
 30 28  1  0  0  0  0
M  END
>  <CHROM.1>
83.11089813,1.30247034,-137.96038557,71.68452606,153.84973388,25.65443194
38.42990004,21.74987596,1.74405338,-0.15816932,-2.37748368

>  <Name>
lig.pdb

>  <RI>
0

>  <Rbt.Current_Directory>
/home/itssahil/PROJECTS/Mol_Feturizer/New_Systems/rnas/6bfb

>  <Rbt.Executable>
rbdock ($Id: //depot/dev/client3/rdock/2013.1/src/exe/rbdock.cxx#4 $)

>  <Rbt.Library>
libRbt.so (2013.1, Build901 2013/11/27)

>  <Rbt.Parameter_File>
/export/apps/rDock/src/rDock_2013.1_src/data/scripts/dock_solv.prm

>  <Rbt.Receptor>
prm/pocket_docking_7.prm

>  <SCORE>
-39.9549

>  <SCORE.INTER>
-34.5672

>  <SCORE.INTER.CONST>
1

>  <SCORE.INTER.POLAR>
-0.848528

>  <SCORE.INTER.ROT>
3

>  <SCORE.INTER.SOLV>
13.5202

>  <SCORE.INTER.VDW>
-30.3231

>  <SCORE.INTER.norm>
-1.15224

>  <SCORE.INTRA>
-5.38768

>  <SCORE.INTRA.DIHEDRAL>
-6.49326

>  <SCORE.INTRA.DIHEDRAL.0>
9.41909

>  <SCORE.INTRA.POLAR>
0

>  <SCORE.INTRA.POLAR.0>
0

>  <SCORE.INTRA.REPUL>
0

>  <SCORE.INTRA.REPUL.0>
0

>  <SCORE.INTRA.SOLV>
-0.0185591

>  <SCORE.INTRA.SOLV.lig_0>
-26.2491

>  <SCORE.INTRA.VDW>
-2.13177

>  <SCORE.INTRA.VDW.0>
2.57239

>  <SCORE.INTRA.norm>
-0.179589

>  <SCORE.RESTR>
0

>  <SCORE.RESTR.CAVITY>
0

>  <SCORE.RESTR.norm>
0

>  <SCORE.SYSTEM>
0

>  <SCORE.SYSTEM.CONST>
0

>  <SCORE.SYSTEM.DIHEDRAL>
0

>  <SCORE.SYSTEM.SOLV>
0

>  <SCORE.SYSTEM.norm>
0

>  <SCORE.heavy>
30

>  <SCORE.norm>
-1.33183

>  <RMSD>
2.607

$$$$
lig.pdb
 OpenBabel11021811523D
libRbt.so/2013.1/901 2013/11/27
 30 34  0  0  0  0  0  0  0  0999 V2000
   24.5729   36.5360   20.0385 N   0  0  0  0  0  0  0  0  0  0  0  0
   26.8831   39.9356   22.7977 N   0  0  0  0  0  0  0  0  0  0  0  0
   24.1218   36.8917   18.6896 C   0  0  0  0  0  0  0  0  0  0  0  0
   24.4977   35.6470   17.8998 C   0  0  2  0  0  0  0  0  0  0  0  0
   24.5562   37.5276   21.1081 C   0  0  0  0  0  0  0  0  0  0  0  0
   23.4123   37.8286   21.8754 C   0  0  0  0  0  0  0  0  0  0  0  0
   23.3857   38.7810   22.8633 C   0  0  0  0  0  0  0  0  0  0  0  0
   24.4906   40.5858   24.1885 C   0  0  0  0  0  0  0  0  0  0  0  0
   29.1154   40.3077   22.7668 C   0  0  0  0  0  0  0  0  0  0  0  0
   28.1074   38.3172   21.4465 C   0  0  0  0  0  0  0  0  0  0  0  0
   25.7355   38.2614   21.4195 C   0  0  0  0  0  0  0  0  0  0  0  0
   26.7028   42.5709   26.1908 O   0  0  0  0  0  0  0  0  0  0  0  0
   25.7770   42.4510   25.3854 C   0  0  0  0  0  0  0  0  0  0  0  0
   24.7484   43.2892   25.3501 O   0  0  0  0  0  0  0  0  0  0  0  0
   25.7581   41.3295   24.4090 C   0  0  1  0  0  0  0  0  0  0  0  0
   23.4659   40.8050   24.8435 O   0  0  0  0  0  0  0  0  0  0  0  0
   26.9329   40.9758   23.7227 C   0  0  0  0  0  0  0  0  0  0  0  0
   28.1282   39.5474   22.2834 C   0  0  0  0  0  0  0  0  0  0  0  0
   28.5609   41.4893   23.8793 S   0  0  0  0  0  0  0  0  0  0  0  0
   25.7149   39.2268   22.4516 C   0  0  0  0  0  0  0  0  0  0  0  0
   24.5362   39.5126   23.1575 C   0  0  0  0  0  0  0  0  0  0  0  0
   22.2800   37.1308   21.6553 F   0  0  0  0  0  0  0  0  0  0  0  0
   26.9059   38.0848   20.6651 N   0  0  0  0  0  0  0  0  0  0  0  0
   26.8281   38.8006   19.4096 C   0  0  0  0  0  0  0  0  0  0  0  0
   25.5670   35.4692   20.0052 C   0  0  0  0  0  0  0  0  0  0  0  0
   23.3626   35.0739   17.2495 O   0  0  0  0  0  0  0  0  0  0  0  0
   24.9581   34.6039   18.9148 C   0  0  2  0  0  0  0  0  0  0  0  0
   25.8700   33.6658   18.2328 N   0  0  0  0  0  0  0  0  0  0  0  0
   26.8778   33.0266   19.0984 C   0  0  0  0  0  0  0  0  0  0  0  0
   25.1695   32.6951   17.3779 C   0  0  0  0  0  0  0  0  0  0  0  0
  1  5  1  0  0  0  0
  2 17  1  0  0  0  0
  3  1  1  0  0  0  0
  4  3  1  0  0  0  0
  4 26  1  1  0  0  0
  5 11  2  0  0  0  0
  5  6  1  0  0  0  0
  6  7  2  0  0  0  0
  7 21  1  0  0  0  0
  8 15  1  0  0  0  0
  8 16  2  0  0  0  0
  9 19  1  0  0  0  0
 10 18  1  0  0  0  0
 11 20  1  0  0  0  0
 13 14  1  0  0  0  0
 13 12  2  0  0  0  0
 15 13  1  1  0  0  0
 17 19  2  0  0  0  0
 17 15  1  0  0  0  0
 18  2  1  0  0  0  0
 18  9  2  0  0  0  0
 20 21  2  0  0  0  0
 20  2  1  0  0  0  0
 21  8  1  0  0  0  0
 22  6  1  0  0  0  0
 23 11  1  0  0  0  0
 23 10  1  0  0  0  0
 24 23  1  0  0  0  0
 25  1  1  0  0  0  0
 27  4  1  0  0  0  0
 27 25  1  0  0  0  0
 27 28  1  6  0  0  0
 29 28  1  0  0  0  0
 30 28  1  0  0  0  0
M  END
>  <CHROM.1>
83.52765465,15.85923623,135.70458834,68.40304142,152.10630391,25.63796495
38.43582578,21.70111376,1.72272584,-0.10912930,-2.40910366

>  <Name>
lig.pdb

>  <RI>
0

>  <Rbt.Current_Directory>
/home/itssahil/PROJECTS/Mol_Feturizer/New_Systems/rnas/6bfb

>  <Rbt.Executable>
rbdock ($Id: //depot/dev/client3/rdock/2013.1/src/exe/rbdock.cxx#4 $)

>  <Rbt.Library>
libRbt.so (2013.1, Build901 2013/11/27)

>  <Rbt.Parameter_File>
/export/apps/rDock/src/rDock_2013.1_src/data/scripts/dock_solv.prm

>  <Rbt.Receptor>
prm/pocket_docking_5.prm

>  <SCORE>
-40.1404

>  <SCORE.INTER>
-35.4863

>  <SCORE.INTER.CONST>
1

>  <SCORE.INTER.POLAR>
-1.09122

>  <SCORE.INTER.ROT>
3

>  <SCORE.INTER.SOLV>
13.2319

>  <SCORE.INTER.VDW>
-30.0308

>  <SCORE.INTER.norm>
-1.18288

>  <SCORE.INTRA>
-4.65408

>  <SCORE.INTRA.DIHEDRAL>
-5.08702

>  <SCORE.INTRA.DIHEDRAL.0>
9.41909

>  <SCORE.INTRA.POLAR>
0

>  <SCORE.INTRA.POLAR.0>
0

>  <SCORE.INTRA.REPUL>
0

>  <SCORE.INTRA.REPUL.0>
0

>  <SCORE.INTRA.SOLV>
-0.0247202

>  <SCORE.INTRA.SOLV.lig_0>
-26.2491

>  <SCORE.INTRA.VDW>
-2.09821

>  <SCORE.INTRA.VDW.0>
2.57239

>  <SCORE.INTRA.norm>
-0.155136

>  <SCORE.RESTR>
0

>  <SCORE.RESTR.CAVITY>
0

>  <SCORE.RESTR.norm>
0

>  <SCORE.SYSTEM>
0

>  <SCORE.SYSTEM.CONST>
0

>  <SCORE.SYSTEM.DIHEDRAL>
0

>  <SCORE.SYSTEM.SOLV>
0

>  <SCORE.SYSTEM.norm>
0

>  <SCORE.heavy>
30

>  <SCORE.norm>
-1.33801

>  <RMSD>
2.609

$$$$
lig.pdb
 OpenBabel11021811523D
libRbt.so/2013.1/901 2013/11/27
 30 34  0  0  0  0  0  0  0  0999 V2000
   24.5076   36.5235   20.0337 N   0  0  0  0  0  0  0  0  0  0  0  0
   26.7186   39.8359   22.9743 N   0  0  0  0  0  0  0  0  0  0  0  0
   24.0301   36.9098   18.7025 C   0  0  0  0  0  0  0  0  0  0  0  0
   24.4536   35.7138   17.8631 C   0  0  2  0  0  0  0  0  0  0  0  0
   24.4564   37.4721   21.1406 C   0  0  0  0  0  0  0  0  0  0  0  0
   23.2927   37.7308   21.8933 C   0  0  0  0  0  0  0  0  0  0  0  0
   23.2339   38.6434   22.9169 C   0  0  0  0  0  0  0  0  0  0  0  0
   24.2892   40.4061   24.3357 C   0  0  0  0  0  0  0  0  0  0  0  0
   28.9467   40.2320   23.0076 C   0  0  0  0  0  0  0  0  0  0  0  0
   27.9902   38.2845   21.5885 C   0  0  0  0  0  0  0  0  0  0  0  0
   25.6203   38.2053   21.5065 C   0  0  0  0  0  0  0  0  0  0  0  0
   24.6905   43.1393   25.5819 O   0  0  0  0  0  0  0  0  0  0  0  0
   25.5281   42.2362   25.6329 C   0  0  0  0  0  0  0  0  0  0  0  0
   26.4636   42.1821   26.5731 O   0  0  0  0  0  0  0  0  0  0  0  0
   25.5432   41.1537   24.6132 C   0  0  1  0  0  0  0  0  0  0  0  0
   23.2481   40.5888   24.9758 O   0  0  0  0  0  0  0  0  0  0  0  0
   26.7366   40.8395   23.9400 C   0  0  0  0  0  0  0  0  0  0  0  0
   27.9790   39.4811   22.4730 C   0  0  0  0  0  0  0  0  0  0  0  0
   28.3548   41.3633   24.1527 S   0  0  0  0  0  0  0  0  0  0  0  0
   25.5664   39.1291   22.5748 C   0  0  0  0  0  0  0  0  0  0  0  0
   24.3693   39.3748   23.2649 C   0  0  0  0  0  0  0  0  0  0  0  0
   22.1734   37.0305   21.6211 F   0  0  0  0  0  0  0  0  0  0  0  0
   26.8089   38.0706   20.7721 N   0  0  0  0  0  0  0  0  0  0  0  0
   26.7504   38.8343   19.5440 C   0  0  0  0  0  0  0  0  0  0  0  0
   25.5471   35.5035   19.9531 C   0  0  0  0  0  0  0  0  0  0  0  0
   23.3393   35.1163   17.1989 O   0  0  0  0  0  0  0  0  0  0  0  0
   24.9676   34.6542   18.8344 C   0  0  2  0  0  0  0  0  0  0  0  0
   25.9140   33.7837   18.1110 N   0  0  0  0  0  0  0  0  0  0  0  0
   26.9651   33.1693   18.9422 C   0  0  0  0  0  0  0  0  0  0  0  0
   25.2491   32.8060   17.2360 C   0  0  0  0  0  0  0  0  0  0  0  0
  1  5  1  0  0  0  0
  2 17  1  0  0  0  0
  3  1  1  0  0  0  0
  4  3  1  0  0  0  0
  4 26  1  1  0  0  0
  5 11  2  0  0  0  0
  5  6  1  0  0  0  0
  6  7  2  0  0  0  0
  7 21  1  0  0  0  0
  8 15  1  0  0  0  0
  8 16  2  0  0  0  0
  9 19  1  0  0  0  0
 10 18  1  0  0  0  0
 11 20  1  0  0  0  0
 13 14  1  0  0  0  0
 13 12  2  0  0  0  0
 15 13  1  1  0  0  0
 17 19  2  0  0  0  0
 17 15  1  0  0  0  0
 18  2  1  0  0  0  0
 18  9  2  0  0  0  0
 20 21  2  0  0  0  0
 20  2  1  0  0  0  0
 21  8  1  0  0  0  0
 22  6  1  0  0  0  0
 23 11  1  0  0  0  0
 23 10  1  0  0  0  0
 24 23  1  0  0  0  0
 25  1  1  0  0  0  0
 27  4  1  0  0  0  0
 27 25  1  0  0  0  0
 27 28  1  6  0  0  0
 29 28  1  0  0  0  0
 30 28  1  0  0  0  0
M  END
>  <CHROM.1>
80.98405845,2.35363614,-52.12499550,70.93617754,151.44557804,25.53084243
38.36638148,21.79520007,1.70407644,-0.10061013,-2.36638922

>  <Name>
lig.pdb

>  <RI>
0

>  <Rbt.Current_Directory>
/home/itssahil/PROJECTS/Mol_Feturizer/New_Systems/rnas/6bfb

>  <Rbt.Executable>
rbdock ($Id: //depot/dev/client3/rdock/2013.1/src/exe/rbdock.cxx#4 $)

>  <Rbt.Library>
libRbt.so (2013.1, Build901 2013/11/27)

>  <Rbt.Parameter_File>
/export/apps/rDock/src/rDock_2013.1_src/data/scripts/dock_solv.prm

>  <Rbt.Receptor>
prm/blind_docking_60.prm

>  <SCORE>
-40.3931

>  <SCORE.INTER>
-34.9237

>  <SCORE.INTER.CONST>
1

>  <SCORE.INTER.POLAR>
-0.848528

>  <SCORE.INTER.ROT>
3

>  <SCORE.INTER.SOLV>
13.7333

>  <SCORE.INTER.VDW>
-30.6318

>  <SCORE.INTER.norm>
-1.16412

>  <SCORE.INTRA>
-5.4694

>  <SCORE.INTRA.DIHEDRAL>
-6.42744

>  <SCORE.INTRA.DIHEDRAL.0>
9.41909

>  <SCORE.INTRA.POLAR>
0

>  <SCORE.INTRA.POLAR.0>
0

>  <SCORE.INTRA.REPUL>
0

>  <SCORE.INTRA.REPUL.0>
0

>  <SCORE.INTRA.SOLV>
-0.0544015

>  <SCORE.INTRA.SOLV.lig_0>
-26.2491

>  <SCORE.INTRA.VDW>
-2.22847

>  <SCORE.INTRA.VDW.0>
2.57239

>  <SCORE.INTRA.norm>
-0.182313

>  <SCORE.RESTR>
0

>  <SCORE.RESTR.CAVITY>
0

>  <SCORE.RESTR.norm>
0

>  <SCORE.SYSTEM>
0

>  <SCORE.SYSTEM.CONST>
0

>  <SCORE.SYSTEM.DIHEDRAL>
0

>  <SCORE.SYSTEM.SOLV>
0

>  <SCORE.SYSTEM.norm>
0

>  <SCORE.heavy>
30

>  <SCORE.norm>
-1.34644

>  <RMSD>
2.624

$$$$
lig.pdb
 OpenBabel11021811523D
libRbt.so/2013.1/901 2013/11/27
 30 34  0  0  0  0  0  0  0  0999 V2000
   24.4862   36.5832   20.1584 N   0  0  0  0  0  0  0  0  0  0  0  0
   26.8891   39.9431   22.8869 N   0  0  0  0  0  0  0  0  0  0  0  0
   23.8780   36.9212   18.8679 C   0  0  0  0  0  0  0  0  0  0  0  0
   24.2605   35.7166   18.0211 C   0  0  2  0  0  0  0  0  0  0  0  0
   24.5063   37.5581   21.2431 C   0  0  0  0  0  0  0  0  0  0  0  0
   23.3898   37.8457   22.0546 C   0  0  0  0  0  0  0  0  0  0  0  0
   23.3972   38.7828   23.0575 C   0  0  0  0  0  0  0  0  0  0  0  0
   24.5464   40.5684   24.3708 C   0  0  0  0  0  0  0  0  0  0  0  0
   29.1186   40.3186   22.7833 C   0  0  0  0  0  0  0  0  0  0  0  0
   28.0665   38.3473   21.4687 C   0  0  0  0  0  0  0  0  0  0  0  0
   25.6952   38.2887   21.5241 C   0  0  0  0  0  0  0  0  0  0  0  0
   25.0467   43.3316   25.5195 O   0  0  0  0  0  0  0  0  0  0  0  0
   25.8726   42.4167   25.5505 C   0  0  0  0  0  0  0  0  0  0  0  0
   26.8534   42.3701   26.4437 O   0  0  0  0  0  0  0  0  0  0  0  0
   25.8203   41.3104   24.5581 C   0  0  1  0  0  0  0  0  0  0  0  0
   23.5453   40.7761   25.0647 O   0  0  0  0  0  0  0  0  0  0  0  0
   26.9706   40.9690   23.8256 C   0  0  0  0  0  0  0  0  0  0  0  0
   28.1157   39.5646   22.3232 C   0  0  0  0  0  0  0  0  0  0  0  0
   28.6026   41.4822   23.9327 S   0  0  0  0  0  0  0  0  0  0  0  0
   25.7101   39.2380   22.5712 C   0  0  0  0  0  0  0  0  0  0  0  0
   24.5566   39.5113   23.3224 C   0  0  0  0  0  0  0  0  0  0  0  0
   22.2510   37.1498   21.8638 F   0  0  0  0  0  0  0  0  0  0  0  0
   26.8385   38.1254   20.7264 N   0  0  0  0  0  0  0  0  0  0  0  0
   26.7160   38.8603   19.4856 C   0  0  0  0  0  0  0  0  0  0  0  0
   25.5452   35.5919   20.0064 C   0  0  0  0  0  0  0  0  0  0  0  0
   23.1096   35.0703   17.4755 O   0  0  0  0  0  0  0  0  0  0  0  0
   24.8932   34.6976   18.9653 C   0  0  2  0  0  0  0  0  0  0  0  0
   25.7966   33.8365   18.1786 N   0  0  0  0  0  0  0  0  0  0  0  0
   27.0434   33.4437   18.8603 C   0  0  0  0  0  0  0  0  0  0  0  0
   25.1120   32.6910   17.5598 C   0  0  0  0  0  0  0  0  0  0  0  0
  1  5  1  0  0  0  0
  2 17  1  0  0  0  0
  3  1  1  0  0  0  0
  4  3  1  0  0  0  0
  4 26  1  1  0  0  0
  5 11  2  0  0  0  0
  5  6  1  0  0  0  0
  6  7  2  0  0  0  0
  7 21  1  0  0  0  0
  8 15  1  0  0  0  0
  8 16  2  0  0  0  0
  9 19  1  0  0  0  0
 10 18  1  0  0  0  0
 11 20  1  0  0  0  0
 13 14  1  0  0  0  0
 13 12  2  0  0  0  0
 15 13  1  1  0  0  0
 17 19  2  0  0  0  0
 17 15  1  0  0  0  0
 18  2  1  0  0  0  0
 18  9  2  0  0  0  0
 20 21  2  0  0  0  0
 20  2  1  0  0  0  0
 21  8  1  0  0  0  0
 22  6  1  0  0  0  0
 23 11  1  0  0  0  0
 23 10  1  0  0  0  0
 24 23  1  0  0  0  0
 25  1  1  0  0  0  0
 27  4  1  0  0  0  0
 27 25  1  0  0  0  0
 27 28  1  6  0  0  0
 29 28  1  0  0  0  0
 30 28  1  0  0  0  0
M  END
>  <CHROM.1>
78.02566810,178.27687643,-52.66721167,167.24387228,142.42005062,25.63475014
38.45692900,21.81123554,1.74788244,-0.13717296,-2.38382628

>  <Name>
lig.pdb

>  <RI>
0

>  <Rbt.Current_Directory>
/home/itssahil/PROJECTS/Mol_Feturizer/New_Systems/rnas/6bfb

>  <Rbt.Executable>
rbdock ($Id: //depot/dev/client3/rdock/2013.1/src/exe/rbdock.cxx#4 $)

>  <Rbt.Library>
libRbt.so (2013.1, Build901 2013/11/27)

>  <Rbt.Parameter_File>
/export/apps/rDock/src/rDock_2013.1_src/data/scripts/dock_solv.prm

>  <Rbt.Receptor>
prm/pocket_docking_7.prm

>  <SCORE>
-34.397

>  <SCORE.INTER>
-30.6162

>  <SCORE.INTER.CONST>
1

>  <SCORE.INTER.POLAR>
0

>  <SCORE.INTER.ROT>
3

>  <SCORE.INTER.SOLV>
13.2407

>  <SCORE.INTER.VDW>
-30.4244

>  <SCORE.INTER.norm>
-1.02054

>  <SCORE.INTRA>
-3.78072

>  <SCORE.INTRA.DIHEDRAL>
-5.70922

>  <SCORE.INTRA.DIHEDRAL.0>
9.41909

>  <SCORE.INTRA.POLAR>
0

>  <SCORE.INTRA.POLAR.0>
0

>  <SCORE.INTRA.REPUL>
0

>  <SCORE.INTRA.REPUL.0>
0

>  <SCORE.INTRA.SOLV>
-0.108004

>  <SCORE.INTRA.SOLV.lig_0>
-26.2491

>  <SCORE.INTRA.VDW>
-0.872108

>  <SCORE.INTRA.VDW.0>
2.57239

>  <SCORE.INTRA.norm>
-0.126024

>  <SCORE.RESTR>
0

>  <SCORE.RESTR.CAVITY>
0

>  <SCORE.RESTR.norm>
0

>  <SCORE.SYSTEM>
0

>  <SCORE.SYSTEM.CONST>
0

>  <SCORE.SYSTEM.DIHEDRAL>
0

>  <SCORE.SYSTEM.SOLV>
0

>  <SCORE.SYSTEM.norm>
0

>  <SCORE.heavy>
30

>  <SCORE.norm>
-1.14657

>  <RMSD>
2.624

$$$$
lig.pdb
 OpenBabel11021811523D
libRbt.so/2013.1/901 2013/11/27
 30 34  0  0  0  0  0  0  0  0999 V2000
   25.5956   35.9305   19.6677 N   0  0  0  0  0  0  0  0  0  0  0  0
   26.6636   39.6520   22.7527 N   0  0  0  0  0  0  0  0  0  0  0  0
   26.0544   34.5983   20.0729 C   0  0  0  0  0  0  0  0  0  0  0  0
   26.1778   33.8925   18.7308 C   0  0  2  0  0  0  0  0  0  0  0  0
   25.1831   36.9060   20.6706 C   0  0  0  0  0  0  0  0  0  0  0  0
   23.8624   37.0207   21.1507 C   0  0  0  0  0  0  0  0  0  0  0  0
   23.4650   37.9561   22.0732 C   0  0  0  0  0  0  0  0  0  0  0  0
   23.9469   39.9125   23.5477 C   0  0  0  0  0  0  0  0  0  0  0  0
   28.7593   40.3741   23.2099 C   0  0  0  0  0  0  0  0  0  0  0  0
   28.3983   38.2497   21.7685 C   0  0  0  0  0  0  0  0  0  0  0  0
   26.1325   37.8177   21.2123 C   0  0  0  0  0  0  0  0  0  0  0  0
   23.8543   41.7630   25.8800 O   0  0  0  0  0  0  0  0  0  0  0  0
   24.6230   41.9576   24.9359 C   0  0  0  0  0  0  0  0  0  0  0  0
   25.1400   43.1511   24.6705 O   0  0  0  0  0  0  0  0  0  0  0  0
   25.0003   40.8481   24.0204 C   0  0  1  0  0  0  0  0  0  0  0  0
   22.7790   39.9657   23.9482 O   0  0  0  0  0  0  0  0  0  0  0  0
   26.3404   40.6862   23.6280 C   0  0  0  0  0  0  0  0  0  0  0  0
   28.0377   39.4670   22.5447 C   0  0  0  0  0  0  0  0  0  0  0  0
   27.7906   41.4518   24.1272 S   0  0  0  0  0  0  0  0  0  0  0  0
   25.7289   38.7667   22.1788 C   0  0  0  0  0  0  0  0  0  0  0  0
   24.3910   38.8611   22.5918 C   0  0  0  0  0  0  0  0  0  0  0  0
   22.9318   36.1520   20.7072 F   0  0  0  0  0  0  0  0  0  0  0  0
   27.4565   37.8299   20.7463 N   0  0  0  0  0  0  0  0  0  0  0  0
   27.5557   38.5252   19.4808 C   0  0  0  0  0  0  0  0  0  0  0  0
   24.9985   35.9079   18.3372 C   0  0  0  0  0  0  0  0  0  0  0  0
   27.4990   33.3931   18.5187 O   0  0  0  0  0  0  0  0  0  0  0  0
   25.9632   34.9533   17.6542 C   0  0  2  0  0  0  0  0  0  0  0  0
   25.4730   34.2824   16.4351 N   0  0  0  0  0  0  0  0  0  0  0  0
   24.0294   33.9841   16.4183 C   0  0  0  0  0  0  0  0  0  0  0  0
   25.9250   34.9316   15.1949 C   0  0  0  0  0  0  0  0  0  0  0  0
  1  5  1  0  0  0  0
  2 17  1  0  0  0  0
  3  1  1  0  0  0  0
  4  3  1  0  0  0  0
  4 26  1  6  0  0  0
  5 11  2  0  0  0  0
  5  6  1  0  0  0  0
  6  7  2  0  0  0  0
  7 21  1  0  0  0  0
  8 15  1  0  0  0  0
  8 16  2  0  0  0  0
  9 19  1  0  0  0  0
 10 18  1  0  0  0  0
 11 20  1  0  0  0  0
 13 14  1  0  0  0  0
 13 12  2  0  0  0  0
 15 13  1  1  0  0  0
 17 19  2  0  0  0  0
 17 15  1  0  0  0  0
 18  2  1  0  0  0  0
 18  9  2  0  0  0  0
 20 21  2  0  0  0  0
 20  2  1  0  0  0  0
 21  8  1  0  0  0  0
 22  6  1  0  0  0  0
 23 11  1  0  0  0  0
 23 10  1  0  0  0  0
 24 23  1  0  0  0  0
 25  1  1  0  0  0  0
 27  4  1  0  0  0  0
 27 25  1  0  0  0  0
 27 28  1  6  0  0  0
 29 28  1  0  0  0  0
 30 28  1  0  0  0  0
M  END
>  <CHROM.1>
-89.42794159,-1.77313285,43.31613085,138.35925511,81.37383622,25.71380939
38.07131520,21.30187266,1.57165648,-0.15066102,-2.36133798

>  <Name>
lig.pdb

>  <RI>
0

>  <Rbt.Current_Directory>
/home/itssahil/PROJECTS/Mol_Feturizer/New_Systems/rnas/6bfb

>  <Rbt.Executable>
rbdock ($Id: //depot/dev/client3/rdock/2013.1/src/exe/rbdock.cxx#4 $)

>  <Rbt.Library>
libRbt.so (2013.1, Build901 2013/11/27)

>  <Rbt.Parameter_File>
/export/apps/rDock/src/rDock_2013.1_src/data/scripts/dock_solv.prm

>  <Rbt.Receptor>
prm/pocket_docking_8.prm

>  <SCORE>
-31.8743

>  <SCORE.INTER>
-28.8757

>  <SCORE.INTER.CONST>
1

>  <SCORE.INTER.POLAR>
-1.15818

>  <SCORE.INTER.ROT>
3

>  <SCORE.INTER.SOLV>
12.4746

>  <SCORE.INTER.VDW>
-25.148

>  <SCORE.INTER.norm>
-0.962522

>  <SCORE.INTRA>
-2.99858

>  <SCORE.INTRA.DIHEDRAL>
-1.21173

>  <SCORE.INTRA.DIHEDRAL.0>
9.41909

>  <SCORE.INTRA.POLAR>
0

>  <SCORE.INTRA.POLAR.0>
0

>  <SCORE.INTRA.REPUL>
0.0945547

>  <SCORE.INTRA.REPUL.0>
0

>  <SCORE.INTRA.SOLV>
-0.260342

>  <SCORE.INTRA.SOLV.lig_0>
-26.2491

>  <SCORE.INTRA.VDW>
-2.73532

>  <SCORE.INTRA.VDW.0>
2.57239

>  <SCORE.INTRA.norm>
-0.0999527

>  <SCORE.RESTR>
0

>  <SCORE.RESTR.CAVITY>
0

>  <SCORE.RESTR.norm>
0

>  <SCORE.SYSTEM>
0

>  <SCORE.SYSTEM.CONST>
0

>  <SCORE.SYSTEM.DIHEDRAL>
0

>  <SCORE.SYSTEM.SOLV>
0

>  <SCORE.SYSTEM.norm>
0

>  <SCORE.heavy>
30

>  <SCORE.norm>
-1.06248

>  <RMSD>
2.624

$$$$
lig.pdb
 OpenBabel11021811523D
libRbt.so/2013.1/901 2013/11/27
 30 34  0  0  0  0  0  0  0  0999 V2000
   24.5408   36.5381   20.0438 N   0  0  0  0  0  0  0  0  0  0  0  0
   26.8870   39.9325   22.7788 N   0  0  0  0  0  0  0  0  0  0  0  0
   24.0932   36.8984   18.6949 C   0  0  0  0  0  0  0  0  0  0  0  0
   24.4532   35.6487   17.9057 C   0  0  2  0  0  0  0  0  0  0  0  0
   24.5371   37.5305   21.1127 C   0  0  0  0  0  0  0  0  0  0  0  0
   23.4013   37.8356   21.8903 C   0  0  0  0  0  0  0  0  0  0  0  0
   23.3869   38.7889   22.8777 C   0  0  0  0  0  0  0  0  0  0  0  0
   24.5096   40.5912   24.1912 C   0  0  0  0  0  0  0  0  0  0  0  0
   29.1201   40.2976   22.7268 C   0  0  0  0  0  0  0  0  0  0  0  0
   28.0937   38.3093   21.4175 C   0  0  0  0  0  0  0  0  0  0  0  0
   25.7215   38.2609   21.4125 C   0  0  0  0  0  0  0  0  0  0  0  0
   26.7421   42.5658   26.1772 O   0  0  0  0  0  0  0  0  0  0  0  0
   25.8129   42.4533   25.3747 C   0  0  0  0  0  0  0  0  0  0  0  0
   24.7915   43.3004   25.3415 O   0  0  0  0  0  0  0  0  0  0  0  0
   25.7815   41.3311   24.3993 C   0  0  1  0  0  0  0  0  0  0  0  0
   23.4918   40.8141   24.8555 O   0  0  0  0  0  0  0  0  0  0  0  0
   26.9487   40.9733   23.7025 C   0  0  0  0  0  0  0  0  0  0  0  0
   28.1261   39.5401   22.2532 C   0  0  0  0  0  0  0  0  0  0  0  0
   28.5797   41.4818   23.8434 S   0  0  0  0  0  0  0  0  0  0  0  0
   25.7136   39.2270   22.4441 C   0  0  0  0  0  0  0  0  0  0  0  0
   24.5423   39.5171   23.1607 C   0  0  0  0  0  0  0  0  0  0  0  0
   22.2648   37.1413   21.6814 F   0  0  0  0  0  0  0  0  0  0  0  0
   26.8843   38.0800   20.6474 N   0  0  0  0  0  0  0  0  0  0  0  0
   26.7971   38.7952   19.3921 C   0  0  0  0  0  0  0  0  0  0  0  0
   25.5214   35.4590   20.0106 C   0  0  0  0  0  0  0  0  0  0  0  0
   23.3106   35.0893   17.2565 O   0  0  0  0  0  0  0  0  0  0  0  0
   24.9011   34.6005   18.9211 C   0  0  2  0  0  0  0  0  0  0  0  0
   25.8008   33.6507   18.2392 N   0  0  0  0  0  0  0  0  0  0  0  0
   26.7506   32.9429   19.1169 C   0  0  0  0  0  0  0  0  0  0  0  0
   25.0956   32.7383   17.3260 C   0  0  0  0  0  0  0  0  0  0  0  0
  1  5  1  0  0  0  0
  2 17  1  0  0  0  0
  3  1  1  0  0  0  0
  4  3  1  0  0  0  0
  4 26  1  1  0  0  0
  5 11  2  0  0  0  0
  5  6  1  0  0  0  0
  6  7  2  0  0  0  0
  7 21  1  0  0  0  0
  8 15  1  0  0  0  0
  8 16  2  0  0  0  0
  9 19  1  0  0  0  0
 10 18  1  0  0  0  0
 11 20  1  0  0  0  0
 13 14  1  0  0  0  0
 13 12  2  0  0  0  0
 15 13  1  1  0  0  0
 17 19  2  0  0  0  0
 17 15  1  0  0  0  0
 18  2  1  0  0  0  0
 18  9  2  0  0  0  0
 20 21  2  0  0  0  0
 20  2  1  0  0  0  0
 21  8  1  0  0  0  0
 22  6  1  0  0  0  0
 23 11  1  0  0  0  0
 23 10  1  0  0  0  0
 24 23  1  0  0  0  0
 25  1  1  0  0  0  0
 27  4  1  0  0  0  0
 27 25  1  0  0  0  0
 27 28  1  6  0  0  0
 29 28  1  0  0  0  0
 30 28  1  0  0  0  0
M  END
>  <CHROM.1>
84.25704128,14.10602951,135.21802846,69.02715265,155.41468746,25.62468757
38.43450718,21.69426974,1.73208550,-0.11500783,-2.40870624

>  <Name>
lig.pdb

>  <RI>
0

>  <Rbt.Current_Directory>
/home/itssahil/PROJECTS/Mol_Feturizer/New_Systems/rnas/6bfb

>  <Rbt.Executable>
rbdock ($Id: //depot/dev/client3/rdock/2013.1/src/exe/rbdock.cxx#4 $)

>  <Rbt.Library>
libRbt.so (2013.1, Build901 2013/11/27)

>  <Rbt.Parameter_File>
/export/apps/rDock/src/rDock_2013.1_src/data/scripts/dock_solv.prm

>  <Rbt.Receptor>
prm/blind_docking_100.prm

>  <SCORE>
-40.1241

>  <SCORE.INTER>
-35.2156

>  <SCORE.INTER.CONST>
1

>  <SCORE.INTER.POLAR>
-1.05963

>  <SCORE.INTER.ROT>
3

>  <SCORE.INTER.SOLV>
13.2537

>  <SCORE.INTER.VDW>
-29.9629

>  <SCORE.INTER.norm>
-1.17385

>  <SCORE.INTRA>
-4.90849

>  <SCORE.INTRA.DIHEDRAL>
-5.55095

>  <SCORE.INTRA.DIHEDRAL.0>
9.41909

>  <SCORE.INTRA.POLAR>
0

>  <SCORE.INTRA.POLAR.0>
0

>  <SCORE.INTRA.REPUL>
0

>  <SCORE.INTRA.REPUL.0>
0

>  <SCORE.INTRA.SOLV>
-0.0173577

>  <SCORE.INTRA.SOLV.lig_0>
-26.2491

>  <SCORE.INTRA.VDW>
-2.12434

>  <SCORE.INTRA.VDW.0>
2.57239

>  <SCORE.INTRA.norm>
-0.163616

>  <SCORE.RESTR>
0

>  <SCORE.RESTR.CAVITY>
0

>  <SCORE.RESTR.norm>
0

>  <SCORE.SYSTEM>
0

>  <SCORE.SYSTEM.CONST>
0

>  <SCORE.SYSTEM.DIHEDRAL>
0

>  <SCORE.SYSTEM.SOLV>
0

>  <SCORE.SYSTEM.norm>
0

>  <SCORE.heavy>
30

>  <SCORE.norm>
-1.33747

>  <RMSD>
2.625

$$$$
lig.pdb
 OpenBabel11021811523D
libRbt.so/2013.1/901 2013/11/27
 30 34  0  0  0  0  0  0  0  0999 V2000
   24.5126   36.5167   20.0356 N   0  0  0  0  0  0  0  0  0  0  0  0
   26.7169   39.8387   22.9703 N   0  0  0  0  0  0  0  0  0  0  0  0
   24.0568   36.9062   18.6976 C   0  0  0  0  0  0  0  0  0  0  0  0
   24.4760   35.7033   17.8660 C   0  0  2  0  0  0  0  0  0  0  0  0
   24.4591   37.4682   21.1398 C   0  0  0  0  0  0  0  0  0  0  0  0
   23.2942   37.7279   21.8904 C   0  0  0  0  0  0  0  0  0  0  0  0
   23.2332   38.6431   22.9115 C   0  0  0  0  0  0  0  0  0  0  0  0
   24.2852   40.4104   24.3271 C   0  0  0  0  0  0  0  0  0  0  0  0
   28.9446   40.2368   23.0054 C   0  0  0  0  0  0  0  0  0  0  0  0
   27.9917   38.2848   21.5903 C   0  0  0  0  0  0  0  0  0  0  0  0
   25.6219   38.2034   21.5054 C   0  0  0  0  0  0  0  0  0  0  0  0
   24.6934   43.1565   25.5569 O   0  0  0  0  0  0  0  0  0  0  0  0
   25.5209   42.2449   25.6210 C   0  0  0  0  0  0  0  0  0  0  0  0
   26.4433   42.1836   26.5737 O   0  0  0  0  0  0  0  0  0  0  0  0
   25.5382   41.1598   24.6043 C   0  0  1  0  0  0  0  0  0  0  0  0
   23.2431   40.5939   24.9653 O   0  0  0  0  0  0  0  0  0  0  0  0
   26.7327   40.8448   23.9334 C   0  0  0  0  0  0  0  0  0  0  0  0
   27.9782   39.4837   22.4716 C   0  0  0  0  0  0  0  0  0  0  0  0
   28.3503   41.3706   24.1468 S   0  0  0  0  0  0  0  0  0  0  0  0
   25.5658   39.1299   22.5712 C   0  0  0  0  0  0  0  0  0  0  0  0
   24.3676   39.3764   23.2591 C   0  0  0  0  0  0  0  0  0  0  0  0
   22.1758   37.0260   21.6186 F   0  0  0  0  0  0  0  0  0  0  0  0
   26.8115   38.0677   20.7728 N   0  0  0  0  0  0  0  0  0  0  0  0
   26.7540   38.8281   19.5427 C   0  0  0  0  0  0  0  0  0  0  0  0
   25.5402   35.4838   19.9700 C   0  0  0  0  0  0  0  0  0  0  0  0
   23.3629   35.1183   17.1888 O   0  0  0  0  0  0  0  0  0  0  0  0
   24.9645   34.6394   18.8457 C   0  0  2  0  0  0  0  0  0  0  0  0
   25.9091   33.7558   18.1361 N   0  0  0  0  0  0  0  0  0  0  0  0
   26.9360   33.1225   18.9833 C   0  0  0  0  0  0  0  0  0  0  0  0
   25.2438   32.7911   17.2470 C   0  0  0  0  0  0  0  0  0  0  0  0
  1  5  1  0  0  0  0
  2 17  1  0  0  0  0
  3  1  1  0  0  0  0
  4  3  1  0  0  0  0
  4 26  1  1  0  0  0
  5 11  2  0  0  0  0
  5  6  1  0  0  0  0
  6  7  2  0  0  0  0
  7 21  1  0  0  0  0
  8 15  1  0  0  0  0
  8 16  2  0  0  0  0
  9 19  1  0  0  0  0
 10 18  1  0  0  0  0
 11 20  1  0  0  0  0
 13 14  1  0  0  0  0
 13 12  2  0  0  0  0
 15 13  1  1  0  0  0
 17 19  2  0  0  0  0
 17 15  1  0  0  0  0
 18  2  1  0  0  0  0
 18  9  2  0  0  0  0
 20 21  2  0  0  0  0
 20  2  1  0  0  0  0
 21  8  1  0  0  0  0
 22  6  1  0  0  0  0
 23 11  1  0  0  0  0
 23 10  1  0  0  0  0
 24 23  1  0  0  0  0
 25  1  1  0  0  0  0
 27  4  1  0  0  0  0
 27 25  1  0  0  0  0
 27 28  1  6  0  0  0
 29 28  1  0  0  0  0
 30 28  1  0  0  0  0
M  END
>  <CHROM.1>
81.98424738,2.64983249,-53.06131473,70.07297198,151.86650859,25.53032724
38.36343237,21.79470694,1.70316449,-0.10066107,-2.36980867

>  <Name>
lig.pdb

>  <RI>
0

>  <Rbt.Current_Directory>
/home/itssahil/PROJECTS/Mol_Feturizer/New_Systems/rnas/6bfb

>  <Rbt.Executable>
rbdock ($Id: //depot/dev/client3/rdock/2013.1/src/exe/rbdock.cxx#4 $)

>  <Rbt.Library>
libRbt.so (2013.1, Build901 2013/11/27)

>  <Rbt.Parameter_File>
/export/apps/rDock/src/rDock_2013.1_src/data/scripts/dock_solv.prm

>  <Rbt.Receptor>
prm/pocket_docking_4.prm

>  <SCORE>
-40.3501

>  <SCORE.INTER>
-34.8405

>  <SCORE.INTER.CONST>
1

>  <SCORE.INTER.POLAR>
-0.848528

>  <SCORE.INTER.ROT>
3

>  <SCORE.INTER.SOLV>
13.774

>  <SCORE.INTER.VDW>
-30.5899

>  <SCORE.INTER.norm>
-1.16135

>  <SCORE.INTRA>
-5.50958

>  <SCORE.INTRA.DIHEDRAL>
-6.52568

>  <SCORE.INTRA.DIHEDRAL.0>
9.41909

>  <SCORE.INTRA.POLAR>
0

>  <SCORE.INTRA.POLAR.0>
0

>  <SCORE.INTRA.REPUL>
0

>  <SCORE.INTRA.REPUL.0>
0

>  <SCORE.INTRA.SOLV>
-0.0546491

>  <SCORE.INTRA.SOLV.lig_0>
-26.2491

>  <SCORE.INTRA.VDW>
-2.21941

>  <SCORE.INTRA.VDW.0>
2.57239

>  <SCORE.INTRA.norm>
-0.183653

>  <SCORE.RESTR>
0

>  <SCORE.RESTR.CAVITY>
0

>  <SCORE.RESTR.norm>
0

>  <SCORE.SYSTEM>
0

>  <SCORE.SYSTEM.CONST>
0

>  <SCORE.SYSTEM.DIHEDRAL>
0

>  <SCORE.SYSTEM.SOLV>
0

>  <SCORE.SYSTEM.norm>
0

>  <SCORE.heavy>
30

>  <SCORE.norm>
-1.345

>  <RMSD>
2.626

$$$$
lig.pdb
 OpenBabel11021811523D
libRbt.so/2013.1/901 2013/11/27
 30 34  0  0  0  0  0  0  0  0999 V2000
   24.4322   36.5502   20.1477 N   0  0  0  0  0  0  0  0  0  0  0  0
   26.9239   39.8749   22.8394 N   0  0  0  0  0  0  0  0  0  0  0  0
   23.7521   36.8696   18.8887 C   0  0  0  0  0  0  0  0  0  0  0  0
   24.1226   35.6732   18.0252 C   0  0  2  0  0  0  0  0  0  0  0  0
   24.4814   37.5279   21.2290 C   0  0  0  0  0  0  0  0  0  0  0  0
   23.3791   37.8377   22.0517 C   0  0  0  0  0  0  0  0  0  0  0  0
   23.4140   38.7775   23.0514 C   0  0  0  0  0  0  0  0  0  0  0  0
   24.6090   40.5463   24.3465 C   0  0  0  0  0  0  0  0  0  0  0  0
   29.1585   40.2104   22.7104 C   0  0  0  0  0  0  0  0  0  0  0  0
   28.0573   38.2542   21.4135 C   0  0  0  0  0  0  0  0  0  0  0  0
   25.6860   38.2380   21.4949 C   0  0  0  0  0  0  0  0  0  0  0  0
   25.1857   43.3159   25.4659 O   0  0  0  0  0  0  0  0  0  0  0  0
   25.9806   42.3743   25.5058 C   0  0  0  0  0  0  0  0  0  0  0  0
   26.9537   42.2990   26.4055 O   0  0  0  0  0  0  0  0  0  0  0  0
   25.8979   41.2661   24.5176 C   0  0  1  0  0  0  0  0  0  0  0  0
   23.6193   40.7739   25.0505 O   0  0  0  0  0  0  0  0  0  0  0  0
   27.0338   40.9020   23.7738 C   0  0  0  0  0  0  0  0  0  0  0  0
   28.1374   39.4730   22.2636 C   0  0  0  0  0  0  0  0  0  0  0  0
   28.6758   41.3865   23.8616 S   0  0  0  0  0  0  0  0  0  0  0  0
   25.7293   39.1900   22.5386 C   0  0  0  0  0  0  0  0  0  0  0  0
   24.5891   39.4861   23.3014 C   0  0  0  0  0  0  0  0  0  0  0  0
   22.2261   37.1617   21.8754 F   0  0  0  0  0  0  0  0  0  0  0  0
   26.8176   38.0519   20.6854 N   0  0  0  0  0  0  0  0  0  0  0  0
   26.6946   38.7853   19.4436 C   0  0  0  0  0  0  0  0  0  0  0  0
   25.5073   35.5858   19.9443 C   0  0  0  0  0  0  0  0  0  0  0  0
   22.9628   34.9966   17.5384 O   0  0  0  0  0  0  0  0  0  0  0  0
   24.8272   34.6728   18.9379 C   0  0  2  0  0  0  0  0  0  0  0  0
   25.7120   33.8330   18.1081 N   0  0  0  0  0  0  0  0  0  0  0  0
   25.0488   32.7131   17.4157 C   0  0  0  0  0  0  0  0  0  0  0  0
   26.5765   34.6136   17.2097 C   0  0  0  0  0  0  0  0  0  0  0  0
  1  5  1  0  0  0  0
  2 17  1  0  0  0  0
  3  1  1  0  0  0  0
  4  3  1  0  0  0  0
  4 26  1  1  0  0  0
  5 11  2  0  0  0  0
  5  6  1  0  0  0  0
  6  7  2  0  0  0  0
  7 21  1  0  0  0  0
  8 15  1  0  0  0  0
  8 16  2  0  0  0  0
  9 19  1  0  0  0  0
 10 18  1  0  0  0  0
 11 20  1  0  0  0  0
 13 14  1  0  0  0  0
 13 12  2  0  0  0  0
 15 13  1  1  0  0  0
 17 19  2  0  0  0  0
 17 15  1  0  0  0  0
 18  2  1  0  0  0  0
 18  9  2  0  0  0  0
 20 21  2  0  0  0  0
 20  2  1  0  0  0  0
 21  8  1  0  0  0  0
 22  6  1  0  0  0  0
 23 11  1  0  0  0  0
 23 10  1  0  0  0  0
 24 23  1  0  0  0  0
 25  1  1  0  0  0  0
 27  4  1  0  0  0  0
 27 25  1  0  0  0  0
 27 28  1  6  0  0  0
 29 28  1  0  0  0  0
 30 28  1  0  0  0  0
M  END
>  <CHROM.1>
74.68953719,0.72843821,-53.98923429,165.20647922,-81.66756471,25.62015746
38.45844424,21.72218961,1.77000208,-0.18676100,-2.34267370

>  <Name>
lig.pdb

>  <RI>
0

>  <Rbt.Current_Directory>
/home/itssahil/PROJECTS/Mol_Feturizer/New_Systems/rnas/6bfb

>  <Rbt.Executable>
rbdock ($Id: //depot/dev/client3/rdock/2013.1/src/exe/rbdock.cxx#4 $)

>  <Rbt.Library>
libRbt.so (2013.1, Build901 2013/11/27)

>  <Rbt.Parameter_File>
/export/apps/rDock/src/rDock_2013.1_src/data/scripts/dock_solv.prm

>  <Rbt.Receptor>
prm/pocket_docking_7.prm

>  <SCORE>
-33.625

>  <SCORE.INTER>
-30.0478

>  <SCORE.INTER.CONST>
1

>  <SCORE.INTER.POLAR>
0

>  <SCORE.INTER.ROT>
3

>  <SCORE.INTER.SOLV>
12.6871

>  <SCORE.INTER.VDW>
-29.8609

>  <SCORE.INTER.norm>
-1.00159

>  <SCORE.INTRA>
-3.57722

>  <SCORE.INTRA.DIHEDRAL>
-6.34897

>  <SCORE.INTRA.DIHEDRAL.0>
9.41909

>  <SCORE.INTRA.POLAR>
0

>  <SCORE.INTRA.POLAR.0>
0

>  <SCORE.INTRA.REPUL>
0

>  <SCORE.INTRA.REPUL.0>
0

>  <SCORE.INTRA.SOLV>
0.140385

>  <SCORE.INTRA.SOLV.lig_0>
-26.2491

>  <SCORE.INTRA.VDW>
-0.472923

>  <SCORE.INTRA.VDW.0>
2.57239

>  <SCORE.INTRA.norm>
-0.119241

>  <SCORE.RESTR>
0

>  <SCORE.RESTR.CAVITY>
0

>  <SCORE.RESTR.norm>
0

>  <SCORE.SYSTEM>
0

>  <SCORE.SYSTEM.CONST>
0

>  <SCORE.SYSTEM.DIHEDRAL>
0

>  <SCORE.SYSTEM.SOLV>
0

>  <SCORE.SYSTEM.norm>
0

>  <SCORE.heavy>
30

>  <SCORE.norm>
-1.12083

>  <RMSD>
2.628

$$$$
lig.pdb
 OpenBabel11021811523D
libRbt.so/2013.1/901 2013/11/27
 30 34  0  0  0  0  0  0  0  0999 V2000
   24.4366   36.6272   19.9995 N   0  0  0  0  0  0  0  0  0  0  0  0
   26.9127   39.8625   22.8118 N   0  0  0  0  0  0  0  0  0  0  0  0
   23.9552   37.0651   18.6857 C   0  0  0  0  0  0  0  0  0  0  0  0
   24.2695   35.8531   17.8217 C   0  0  2  0  0  0  0  0  0  0  0  0
   24.4823   37.5619   21.1183 C   0  0  0  0  0  0  0  0  0  0  0  0
   23.3807   37.8305   21.9563 C   0  0  0  0  0  0  0  0  0  0  0  0
   23.4121   38.7304   22.9921 C   0  0  0  0  0  0  0  0  0  0  0  0
   24.5983   40.4560   24.3519 C   0  0  0  0  0  0  0  0  0  0  0  0
   29.1442   40.2202   22.6887 C   0  0  0  0  0  0  0  0  0  0  0  0
   28.0532   38.3081   21.3194 C   0  0  0  0  0  0  0  0  0  0  0  0
   25.6824   38.2703   21.4079 C   0  0  0  0  0  0  0  0  0  0  0  0
   25.1177   43.1467   25.6191 O   0  0  0  0  0  0  0  0  0  0  0  0
   25.9601   42.2475   25.5778 C   0  0  0  0  0  0  0  0  0  0  0  0
   26.9813   42.1864   26.4237 O   0  0  0  0  0  0  0  0  0  0  0  0
   25.8823   41.1785   24.5469 C   0  0  1  0  0  0  0  0  0  0  0  0
   23.6095   40.6480   25.0677 O   0  0  0  0  0  0  0  0  0  0  0  0
   27.0182   40.8528   23.7856 C   0  0  0  0  0  0  0  0  0  0  0  0
   28.1271   39.4930   22.2166 C   0  0  0  0  0  0  0  0  0  0  0  0
   28.6567   41.3462   23.8869 S   0  0  0  0  0  0  0  0  0  0  0  0
   25.7222   39.1808   22.4882 C   0  0  0  0  0  0  0  0  0  0  0  0
   24.5826   39.4377   23.2659 C   0  0  0  0  0  0  0  0  0  0  0  0
   22.2322   37.1530   21.7573 F   0  0  0  0  0  0  0  0  0  0  0  0
   26.8124   38.1250   20.5879 N   0  0  0  0  0  0  0  0  0  0  0  0
   26.6793   38.9057   19.3765 C   0  0  0  0  0  0  0  0  0  0  0  0
   25.3968   35.5358   19.8799 C   0  0  0  0  0  0  0  0  0  0  0  0
   23.0983   35.3470   17.1796 O   0  0  0  0  0  0  0  0  0  0  0  0
   24.7292   34.7460   18.7667 C   0  0  2  0  0  0  0  0  0  0  0  0
   25.5913   33.8192   18.0088 N   0  0  0  0  0  0  0  0  0  0  0  0
   26.9793   34.2735   17.8073 C   0  0  0  0  0  0  0  0  0  0  0  0
   25.5210   32.4330   18.4960 C   0  0  0  0  0  0  0  0  0  0  0  0
  1  5  1  0  0  0  0
  2 17  1  0  0  0  0
  3  1  1  0  0  0  0
  4  3  1  0  0  0  0
  4 26  1  1  0  0  0
  5 11  2  0  0  0  0
  5  6  1  0  0  0  0
  6  7  2  0  0  0  0
  7 21  1  0  0  0  0
  8 15  1  0  0  0  0
  8 16  2  0  0  0  0
  9 19  1  0  0  0  0
 10 18  1  0  0  0  0
 11 20  1  0  0  0  0
 13 14  1  0  0  0  0
 13 12  2  0  0  0  0
 15 13  1  1  0  0  0
 17 19  2  0  0  0  0
 17 15  1  0  0  0  0
 18  2  1  0  0  0  0
 18  9  2  0  0  0  0
 20 21  2  0  0  0  0
 20  2  1  0  0  0  0
 21  8  1  0  0  0  0
 22  6  1  0  0  0  0
 23 11  1  0  0  0  0
 23 10  1  0  0  0  0
 24 23  1  0  0  0  0
 25  1  1  0  0  0  0
 27  4  1  0  0  0  0
 27 25  1  0  0  0  0
 27 28  1  6  0  0  0
 29 28  1  0  0  0  0
 30 28  1  0  0  0  0
M  END
>  <CHROM.1>
85.12265781,3.32734497,-50.27563141,77.93615354,79.36930606,25.64824483,38.44638776
21.72185576,1.75720867,-0.15696848,-2.34685003

>  <Name>
lig.pdb

>  <RI>
0

>  <Rbt.Current_Directory>
/home/itssahil/PROJECTS/Mol_Feturizer/New_Systems/rnas/6bfb

>  <Rbt.Executable>
rbdock ($Id: //depot/dev/client3/rdock/2013.1/src/exe/rbdock.cxx#4 $)

>  <Rbt.Library>
libRbt.so (2013.1, Build901 2013/11/27)

>  <Rbt.Parameter_File>
/export/apps/rDock/src/rDock_2013.1_src/data/scripts/dock_solv.prm

>  <Rbt.Receptor>
prm/pocket_docking_4.prm

>  <SCORE>
-38.6831

>  <SCORE.INTER>
-33.4337

>  <SCORE.INTER.CONST>
1

>  <SCORE.INTER.POLAR>
-0.848528

>  <SCORE.INTER.ROT>
3

>  <SCORE.INTER.SOLV>
13.3164

>  <SCORE.INTER.VDW>
-29.4995

>  <SCORE.INTER.norm>
-1.11446

>  <SCORE.INTRA>
-5.2494

>  <SCORE.INTRA.DIHEDRAL>
-5.39143

>  <SCORE.INTRA.DIHEDRAL.0>
9.41909

>  <SCORE.INTRA.POLAR>
0

>  <SCORE.INTRA.POLAR.0>
0

>  <SCORE.INTRA.REPUL>
0

>  <SCORE.INTRA.REPUL.0>
0

>  <SCORE.INTRA.SOLV>
-0.147672

>  <SCORE.INTRA.SOLV.lig_0>
-26.2491

>  <SCORE.INTRA.VDW>
-2.47985

>  <SCORE.INTRA.VDW.0>
2.57239

>  <SCORE.INTRA.norm>
-0.17498

>  <SCORE.RESTR>
0

>  <SCORE.RESTR.CAVITY>
0

>  <SCORE.RESTR.norm>
0

>  <SCORE.SYSTEM>
0

>  <SCORE.SYSTEM.CONST>
0

>  <SCORE.SYSTEM.DIHEDRAL>
0

>  <SCORE.SYSTEM.SOLV>
0

>  <SCORE.SYSTEM.norm>
0

>  <SCORE.heavy>
30

>  <SCORE.norm>
-1.28944

>  <RMSD>
2.648

$$$$
lig.pdb
 OpenBabel11021811523D
libRbt.so/2013.1/901 2013/11/27
 30 34  0  0  0  0  0  0  0  0999 V2000
   24.3954   36.5819   20.1815 N   0  0  0  0  0  0  0  0  0  0  0  0
   26.9499   39.8900   22.8345 N   0  0  0  0  0  0  0  0  0  0  0  0
   23.6976   36.9035   18.9328 C   0  0  0  0  0  0  0  0  0  0  0  0
   24.0478   35.7038   18.0653 C   0  0  2  0  0  0  0  0  0  0  0  0
   24.4670   37.5607   21.2605 C   0  0  0  0  0  0  0  0  0  0  0  0
   23.3784   37.8807   22.0973 C   0  0  0  0  0  0  0  0  0  0  0  0
   23.4342   38.8216   23.0950 C   0  0  0  0  0  0  0  0  0  0  0  0
   24.6608   40.5825   24.3713 C   0  0  0  0  0  0  0  0  0  0  0  0
   29.1852   40.2070   22.6753 C   0  0  0  0  0  0  0  0  0  0  0  0
   28.0509   38.2580   21.3963 C   0  0  0  0  0  0  0  0  0  0  0  0
   25.6809   38.2614   21.5092 C   0  0  0  0  0  0  0  0  0  0  0  0
   26.6336   43.4535   25.2162 O   0  0  0  0  0  0  0  0  0  0  0  0
   26.0626   42.4008   25.5094 C   0  0  0  0  0  0  0  0  0  0  0  0
   25.5300   42.1868   26.7063 O   0  0  0  0  0  0  0  0  0  0  0  0
   25.9577   41.2919   24.5241 C   0  0  1  0  0  0  0  0  0  0  0  0
   23.6825   40.8192   25.0881 O   0  0  0  0  0  0  0  0  0  0  0  0
   27.0806   40.9175   23.7658 C   0  0  0  0  0  0  0  0  0  0  0  0
   28.1522   39.4773   22.2433 C   0  0  0  0  0  0  0  0  0  0  0  0
   28.7275   41.3886   23.8310 S   0  0  0  0  0  0  0  0  0  0  0  0
   25.7457   39.2145   22.5508 C   0  0  0  0  0  0  0  0  0  0  0  0
   24.6183   39.5210   23.3282 C   0  0  0  0  0  0  0  0  0  0  0  0
   22.2176   37.2139   21.9374 F   0  0  0  0  0  0  0  0  0  0  0  0
   26.8000   38.0648   20.6850 N   0  0  0  0  0  0  0  0  0  0  0  0
   26.6664   38.7973   19.4438 C   0  0  0  0  0  0  0  0  0  0  0  0
   25.4617   35.6111   19.9626 C   0  0  0  0  0  0  0  0  0  0  0  0
   22.8767   35.0332   17.5976 O   0  0  0  0  0  0  0  0  0  0  0  0
   24.7609   34.7007   18.9683 C   0  0  2  0  0  0  0  0  0  0  0  0
   25.6279   33.8548   18.1260 N   0  0  0  0  0  0  0  0  0  0  0  0
   26.7686   33.2329   18.8226 C   0  0  0  0  0  0  0  0  0  0  0  0
   24.8774   32.8895   17.3081 C   0  0  0  0  0  0  0  0  0  0  0  0
  1  5  1  0  0  0  0
  2 17  1  0  0  0  0
  3  1  1  0  0  0  0
  4  3  1  0  0  0  0
  4 26  1  1  0  0  0
  5 11  2  0  0  0  0
  5  6  1  0  0  0  0
  6  7  2  0  0  0  0
  7 21  1  0  0  0  0
  8 15  1  0  0  0  0
  8 16  2  0  0  0  0
  9 19  1  0  0  0  0
 10 18  1  0  0  0  0
 11 20  1  0  0  0  0
 13 14  1  0  0  0  0
 13 12  2  0  0  0  0
 15 13  1  1  0  0  0
 17 19  2  0  0  0  0
 17 15  1  0  0  0  0
 18  2  1  0  0  0  0
 18  9  2  0  0  0  0
 20 21  2  0  0  0  0
 20  2  1  0  0  0  0
 21  8  1  0  0  0  0
 22  6  1  0  0  0  0
 23 11  1  0  0  0  0
 23 10  1  0  0  0  0
 24 23  1  0  0  0  0
 25  1  1  0  0  0  0
 27  4  1  0  0  0  0
 27 25  1  0  0  0  0
 27 28  1  6  0  0  0
 29 28  1  0  0  0  0
 30 28  1  0  0  0  0
M  END
>  <CHROM.1>
74.49571146,0.25127932,-135.83412519,-58.76544354,155.98313964,25.61629173
38.43918087,21.79386146,1.77955870,-0.17588420,-2.37159545

>  <Name>
lig.pdb

>  <RI>
0

>  <Rbt.Current_Directory>
/home/itssahil/PROJECTS/Mol_Feturizer/New_Systems/rnas/6bfb

>  <Rbt.Executable>
rbdock ($Id: //depot/dev/client3/rdock/2013.1/src/exe/rbdock.cxx#4 $)

>  <Rbt.Library>
libRbt.so (2013.1, Build901 2013/11/27)

>  <Rbt.Parameter_File>
/export/apps/rDock/src/rDock_2013.1_src/data/scripts/dock_solv.prm

>  <Rbt.Receptor>
prm/pocket_docking_8.prm

>  <SCORE>
-36.1673

>  <SCORE.INTER>
-31.0866

>  <SCORE.INTER.CONST>
1

>  <SCORE.INTER.POLAR>
0

>  <SCORE.INTER.ROT>
3

>  <SCORE.INTER.SOLV>
13.2578

>  <SCORE.INTER.VDW>
-30.7437

>  <SCORE.INTER.norm>
-1.03622

>  <SCORE.INTRA>
-5.08066

>  <SCORE.INTRA.DIHEDRAL>
-7.23883

>  <SCORE.INTRA.DIHEDRAL.0>
9.41909

>  <SCORE.INTRA.POLAR>
0

>  <SCORE.INTRA.POLAR.0>
0

>  <SCORE.INTRA.REPUL>
0

>  <SCORE.INTRA.REPUL.0>
0

>  <SCORE.INTRA.SOLV>
0.00794157

>  <SCORE.INTRA.SOLV.lig_0>
-26.2491

>  <SCORE.INTRA.VDW>
-1.46521

>  <SCORE.INTRA.VDW.0>
2.57239

>  <SCORE.INTRA.norm>
-0.169355

>  <SCORE.RESTR>
0

>  <SCORE.RESTR.CAVITY>
0

>  <SCORE.RESTR.norm>
0

>  <SCORE.SYSTEM>
0

>  <SCORE.SYSTEM.CONST>
0

>  <SCORE.SYSTEM.DIHEDRAL>
0

>  <SCORE.SYSTEM.SOLV>
0

>  <SCORE.SYSTEM.norm>
0

>  <SCORE.heavy>
30

>  <SCORE.norm>
-1.20558

>  <RMSD>
2.654

$$$$
lig.pdb
 OpenBabel11021811523D
libRbt.so/2013.1/901 2013/11/27
 30 34  0  0  0  0  0  0  0  0999 V2000
   24.4247   36.5284   19.9625 N   0  0  0  0  0  0  0  0  0  0  0  0
   26.8678   39.7808   22.7838 N   0  0  0  0  0  0  0  0  0  0  0  0
   23.9614   36.9546   18.6384 C   0  0  0  0  0  0  0  0  0  0  0  0
   24.2862   35.7345   17.7898 C   0  0  2  0  0  0  0  0  0  0  0  0
   24.4561   37.4732   21.0732 C   0  0  0  0  0  0  0  0  0  0  0  0
   23.3423   37.7536   21.8910 C   0  0  0  0  0  0  0  0  0  0  0  0
   23.3605   38.6630   22.9189 C   0  0  0  0  0  0  0  0  0  0  0  0
   24.5315   40.3969   24.2813 C   0  0  0  0  0  0  0  0  0  0  0  0
   29.1023   40.1293   22.6930 C   0  0  0  0  0  0  0  0  0  0  0  0
   28.0261   38.2085   21.3242 C   0  0  0  0  0  0  0  0  0  0  0  0
   25.6541   38.1801   21.3753 C   0  0  0  0  0  0  0  0  0  0  0  0
   26.6817   42.1304   26.4469 O   0  0  0  0  0  0  0  0  0  0  0  0
   25.8803   42.1948   25.5122 C   0  0  0  0  0  0  0  0  0  0  0  0
   25.0285   43.2030   25.3701 O   0  0  0  0  0  0  0  0  0  0  0  0
   25.8148   41.1165   24.4901 C   0  0  1  0  0  0  0  0  0  0  0  0
   23.5321   40.5991   24.9795 O   0  0  0  0  0  0  0  0  0  0  0  0
   26.9615   40.7798   23.7500 C   0  0  0  0  0  0  0  0  0  0  0  0
   28.0901   39.4014   22.2115 C   0  0  0  0  0  0  0  0  0  0  0  0
   28.6000   41.2682   23.8728 S   0  0  0  0  0  0  0  0  0  0  0  0
   25.6801   39.1003   22.4477 C   0  0  0  0  0  0  0  0  0  0  0  0
   24.5292   39.3686   23.2047 C   0  0  0  0  0  0  0  0  0  0  0  0
   22.1946   37.0784   21.6801 F   0  0  0  0  0  0  0  0  0  0  0  0
   26.7964   38.0231   20.5748 N   0  0  0  0  0  0  0  0  0  0  0  0
   26.6855   38.7930   19.3542 C   0  0  0  0  0  0  0  0  0  0  0  0
   25.3855   35.4353   19.8658 C   0  0  0  0  0  0  0  0  0  0  0  0
   23.1234   35.2233   17.1368 O   0  0  0  0  0  0  0  0  0  0  0  0
   24.7323   34.6357   18.7511 C   0  0  2  0  0  0  0  0  0  0  0  0
   25.6038   33.7014   18.0134 N   0  0  0  0  0  0  0  0  0  0  0  0
   26.9818   34.1732   17.7856 C   0  0  0  0  0  0  0  0  0  0  0  0
   25.5619   32.3295   18.5425 C   0  0  0  0  0  0  0  0  0  0  0  0
  1  5  1  0  0  0  0
  2 17  1  0  0  0  0
  3  1  1  0  0  0  0
  4  3  1  0  0  0  0
  4 26  1  1  0  0  0
  5 11  2  0  0  0  0
  5  6  1  0  0  0  0
  6  7  2  0  0  0  0
  7 21  1  0  0  0  0
  8 15  1  0  0  0  0
  8 16  2  0  0  0  0
  9 19  1  0  0  0  0
 10 18  1  0  0  0  0
 11 20  1  0  0  0  0
 13 14  1  0  0  0  0
 13 12  2  0  0  0  0
 15 13  1  1  0  0  0
 17 19  2  0  0  0  0
 17 15  1  0  0  0  0
 18  2  1  0  0  0  0
 18  9  2  0  0  0  0
 20 21  2  0  0  0  0
 20  2  1  0  0  0  0
 21  8  1  0  0  0  0
 22  6  1  0  0  0  0
 23 11  1  0  0  0  0
 23 10  1  0  0  0  0
 24 23  1  0  0  0  0
 25  1  1  0  0  0  0
 27  4  1  0  0  0  0
 27 25  1  0  0  0  0
 27 28  1  6  0  0  0
 29 28  1  0  0  0  0
 30 28  1  0  0  0  0
M  END
>  <CHROM.1>
84.90448005,179.43050033,121.64590640,74.22062589,77.33361457,25.60296924
38.36486702,21.67730897,1.74144796,-0.14026705,-2.36212399

>  <Name>
lig.pdb

>  <RI>
0

>  <Rbt.Current_Directory>
/home/itssahil/PROJECTS/Mol_Feturizer/New_Systems/rnas/6bfb

>  <Rbt.Executable>
rbdock ($Id: //depot/dev/client3/rdock/2013.1/src/exe/rbdock.cxx#4 $)

>  <Rbt.Library>
libRbt.so (2013.1, Build901 2013/11/27)

>  <Rbt.Parameter_File>
/export/apps/rDock/src/rDock_2013.1_src/data/scripts/dock_solv.prm

>  <Rbt.Receptor>
prm/blind_docking_100.prm

>  <SCORE>
-38.1975

>  <SCORE.INTER>
-32.9422

>  <SCORE.INTER.CONST>
1

>  <SCORE.INTER.POLAR>
-0.848528

>  <SCORE.INTER.ROT>
3

>  <SCORE.INTER.SOLV>
13.8155

>  <SCORE.INTER.VDW>
-29.3382

>  <SCORE.INTER.norm>
-1.09807

>  <SCORE.INTRA>
-5.25522

>  <SCORE.INTRA.DIHEDRAL>
-6.07603

>  <SCORE.INTRA.DIHEDRAL.0>
9.41909

>  <SCORE.INTRA.POLAR>
0

>  <SCORE.INTRA.POLAR.0>
0

>  <SCORE.INTRA.REPUL>
0

>  <SCORE.INTRA.REPUL.0>
0

>  <SCORE.INTRA.SOLV>
-0.152031

>  <SCORE.INTRA.SOLV.lig_0>
-26.2491

>  <SCORE.INTRA.VDW>
-2.14119

>  <SCORE.INTRA.VDW.0>
2.57239

>  <SCORE.INTRA.norm>
-0.175174

>  <SCORE.RESTR>
0

>  <SCORE.RESTR.CAVITY>
0

>  <SCORE.RESTR.norm>
0

>  <SCORE.SYSTEM>
0

>  <SCORE.SYSTEM.CONST>
0

>  <SCORE.SYSTEM.DIHEDRAL>
0

>  <SCORE.SYSTEM.SOLV>
0

>  <SCORE.SYSTEM.norm>
0

>  <SCORE.heavy>
30

>  <SCORE.norm>
-1.27325

>  <RMSD>
2.664

$$$$
lig.pdb
 OpenBabel11021811523D
libRbt.so/2013.1/901 2013/11/27
 30 34  0  0  0  0  0  0  0  0999 V2000
   24.4557   36.5711   20.1436 N   0  0  0  0  0  0  0  0  0  0  0  0
   26.9391   39.8865   22.8544 N   0  0  0  0  0  0  0  0  0  0  0  0
   23.8537   36.9224   18.8537 C   0  0  0  0  0  0  0  0  0  0  0  0
   24.2057   35.7082   18.0075 C   0  0  2  0  0  0  0  0  0  0  0  0
   24.5011   37.5463   21.2273 C   0  0  0  0  0  0  0  0  0  0  0  0
   23.3953   37.8558   22.0454 C   0  0  0  0  0  0  0  0  0  0  0  0
   23.4267   38.7933   23.0474 C   0  0  0  0  0  0  0  0  0  0  0  0
   24.6179   40.5577   24.3520 C   0  0  0  0  0  0  0  0  0  0  0  0
   29.1747   40.2193   22.7369 C   0  0  0  0  0  0  0  0  0  0  0  0
   28.0770   38.2675   21.4304 C   0  0  0  0  0  0  0  0  0  0  0  0
   25.7054   38.2543   21.5004 C   0  0  0  0  0  0  0  0  0  0  0  0
   25.1143   43.2515   25.5675 O   0  0  0  0  0  0  0  0  0  0  0  0
   25.9864   42.3812   25.5219 C   0  0  0  0  0  0  0  0  0  0  0  0
   27.0413   42.3847   26.3276 O   0  0  0  0  0  0  0  0  0  0  0  0
   25.9069   41.2753   24.5309 C   0  0  1  0  0  0  0  0  0  0  0  0
   23.6252   40.7850   25.0518 O   0  0  0  0  0  0  0  0  0  0  0  0
   27.0459   40.9114   23.7917 C   0  0  0  0  0  0  0  0  0  0  0  0
   28.1547   39.4842   22.2836 C   0  0  0  0  0  0  0  0  0  0  0  0
   28.6880   41.3935   23.8884 S   0  0  0  0  0  0  0  0  0  0  0  0
   25.7449   39.2039   22.5465 C   0  0  0  0  0  0  0  0  0  0  0  0
   24.6015   39.4998   23.3045 C   0  0  0  0  0  0  0  0  0  0  0  0
   22.2423   37.1817   21.8621 F   0  0  0  0  0  0  0  0  0  0  0  0
   26.8405   38.0684   20.6959 N   0  0  0  0  0  0  0  0  0  0  0  0
   26.7245   38.8047   19.4552 C   0  0  0  0  0  0  0  0  0  0  0  0
   25.4903   35.5544   19.9909 C   0  0  0  0  0  0  0  0  0  0  0  0
   23.0386   35.0893   17.4645 O   0  0  0  0  0  0  0  0  0  0  0  0
   24.8152   34.6752   18.9518 C   0  0  2  0  0  0  0  0  0  0  0  0
   25.6963   33.7918   18.1644 N   0  0  0  0  0  0  0  0  0  0  0  0
   26.9091   33.3282   18.8627 C   0  0  0  0  0  0  0  0  0  0  0  0
   24.9750   32.6923   17.5052 C   0  0  0  0  0  0  0  0  0  0  0  0
  1  5  1  0  0  0  0
  2 17  1  0  0  0  0
  3  1  1  0  0  0  0
  4  3  1  0  0  0  0
  4 26  1  1  0  0  0
  5 11  2  0  0  0  0
  5  6  1  0  0  0  0
  6  7  2  0  0  0  0
  7 21  1  0  0  0  0
  8 15  1  0  0  0  0
  8 16  2  0  0  0  0
  9 19  1  0  0  0  0
 10 18  1  0  0  0  0
 11 20  1  0  0  0  0
 13 14  1  0  0  0  0
 13 12  2  0  0  0  0
 15 13  1  1  0  0  0
 17 19  2  0  0  0  0
 17 15  1  0  0  0  0
 18  2  1  0  0  0  0
 18  9  2  0  0  0  0
 20 21  2  0  0  0  0
 20  2  1  0  0  0  0
 21  8  1  0  0  0  0
 22  6  1  0  0  0  0
 23 11  1  0  0  0  0
 23 10  1  0  0  0  0
 24 23  1  0  0  0  0
 25  1  1  0  0  0  0
 27  4  1  0  0  0  0
 27 25  1  0  0  0  0
 27 28  1  6  0  0  0
 29 28  1  0  0  0  0
 30 28  1  0  0  0  0
M  END
>  <CHROM.1>
78.40798670,1.04885404,-46.52440459,166.28452882,144.65145735,25.64744108
38.42697190,21.78863302,1.76601679,-0.12953737,-2.38273799

>  <Name>
lig.pdb

>  <RI>
0

>  <Rbt.Current_Directory>
/home/itssahil/PROJECTS/Mol_Feturizer/New_Systems/rnas/6bfb

>  <Rbt.Executable>
rbdock ($Id: //depot/dev/client3/rdock/2013.1/src/exe/rbdock.cxx#4 $)

>  <Rbt.Library>
libRbt.so (2013.1, Build901 2013/11/27)

>  <Rbt.Parameter_File>
/export/apps/rDock/src/rDock_2013.1_src/data/scripts/dock_solv.prm

>  <Rbt.Receptor>
prm/blind_docking_60.prm

>  <SCORE>
-35.1532

>  <SCORE.INTER>
-31.0188

>  <SCORE.INTER.CONST>
1

>  <SCORE.INTER.POLAR>
0

>  <SCORE.INTER.ROT>
3

>  <SCORE.INTER.SOLV>
13.2126

>  <SCORE.INTER.VDW>
-30.6834

>  <SCORE.INTER.norm>
-1.03396

>  <SCORE.INTRA>
-4.13439

>  <SCORE.INTRA.DIHEDRAL>
-5.7521

>  <SCORE.INTRA.DIHEDRAL.0>
9.41909

>  <SCORE.INTRA.POLAR>
0

>  <SCORE.INTRA.POLAR.0>
0

>  <SCORE.INTRA.REPUL>
0

>  <SCORE.INTRA.REPUL.0>
0

>  <SCORE.INTRA.SOLV>
-0.0227232

>  <SCORE.INTRA.SOLV.lig_0>
-26.2491

>  <SCORE.INTRA.VDW>
-1.24698

>  <SCORE.INTRA.VDW.0>
2.57239

>  <SCORE.INTRA.norm>
-0.137813

>  <SCORE.RESTR>
0

>  <SCORE.RESTR.CAVITY>
0

>  <SCORE.RESTR.norm>
0

>  <SCORE.SYSTEM>
0

>  <SCORE.SYSTEM.CONST>
0

>  <SCORE.SYSTEM.DIHEDRAL>
0

>  <SCORE.SYSTEM.SOLV>
0

>  <SCORE.SYSTEM.norm>
0

>  <SCORE.heavy>
30

>  <SCORE.norm>
-1.17177

>  <RMSD>
2.676

$$$$
lig.pdb
 OpenBabel11021811523D
libRbt.so/2013.1/901 2013/11/27
 30 34  0  0  0  0  0  0  0  0999 V2000
   24.5349   36.4216   20.1466 N   0  0  0  0  0  0  0  0  0  0  0  0
   26.8797   39.9332   22.7308 N   0  0  0  0  0  0  0  0  0  0  0  0
   23.8078   36.6231   18.8896 C   0  0  0  0  0  0  0  0  0  0  0  0
   24.2495   35.4134   18.0797 C   0  0  2  0  0  0  0  0  0  0  0  0
   24.5323   37.4559   21.1751 C   0  0  0  0  0  0  0  0  0  0  0  0
   23.3993   37.7865   21.9464 C   0  0  0  0  0  0  0  0  0  0  0  0
   23.3856   38.7784   22.8950 C   0  0  0  0  0  0  0  0  0  0  0  0
   24.5068   40.6368   24.1292 C   0  0  0  0  0  0  0  0  0  0  0  0
   29.1106   40.3062   22.6518 C   0  0  0  0  0  0  0  0  0  0  0  0
   28.0867   38.2625   21.4286 C   0  0  0  0  0  0  0  0  0  0  0  0
   25.7148   38.2031   21.4389 C   0  0  0  0  0  0  0  0  0  0  0  0
   26.8210   42.8087   25.8832 O   0  0  0  0  0  0  0  0  0  0  0  0
   25.8076   42.5506   25.2301 C   0  0  0  0  0  0  0  0  0  0  0  0
   24.6947   43.2678   25.3257 O   0  0  0  0  0  0  0  0  0  0  0  0
   25.7762   41.3903   24.3005 C   0  0  1  0  0  0  0  0  0  0  0  0
   23.4916   40.8814   24.7898 O   0  0  0  0  0  0  0  0  0  0  0  0
   26.9414   41.0103   23.6119 C   0  0  0  0  0  0  0  0  0  0  0  0
   28.1177   39.5258   22.2144 C   0  0  0  0  0  0  0  0  0  0  0  0
   28.5706   41.5315   23.7233 S   0  0  0  0  0  0  0  0  0  0  0  0
   25.7078   39.2096   22.4311 C   0  0  0  0  0  0  0  0  0  0  0  0
   24.5391   39.5226   23.1422 C   0  0  0  0  0  0  0  0  0  0  0  0
   22.2650   37.0792   21.7717 F   0  0  0  0  0  0  0  0  0  0  0  0
   26.8743   37.9972   20.6751 N   0  0  0  0  0  0  0  0  0  0  0  0
   26.7767   38.6612   19.3928 C   0  0  0  0  0  0  0  0  0  0  0  0
   25.6750   35.5298   19.9671 C   0  0  0  0  0  0  0  0  0  0  0  0
   23.1342   34.6283   17.6559 O   0  0  0  0  0  0  0  0  0  0  0  0
   25.0454   34.5174   19.0252 C   0  0  2  0  0  0  0  0  0  0  0  0
   25.9739   33.7027   18.2184 N   0  0  0  0  0  0  0  0  0  0  0  0
   27.1538   33.1930   18.9404 C   0  0  0  0  0  0  0  0  0  0  0  0
   25.2976   32.6537   17.4398 C   0  0  0  0  0  0  0  0  0  0  0  0
  1  5  1  0  0  0  0
  2 17  1  0  0  0  0
  3  1  1  0  0  0  0
  4  3  1  0  0  0  0
  4 26  1  1  0  0  0
  5 11  2  0  0  0  0
  5  6  1  0  0  0  0
  6  7  2  0  0  0  0
  7 21  1  0  0  0  0
  8 15  1  0  0  0  0
  8 16  2  0  0  0  0
  9 19  1  0  0  0  0
 10 18  1  0  0  0  0
 11 20  1  0  0  0  0
 13 14  1  0  0  0  0
 13 12  2  0  0  0  0
 15 13  1  1  0  0  0
 17 19  2  0  0  0  0
 17 15  1  0  0  0  0
 18  2  1  0  0  0  0
 18  9  2  0  0  0  0
 20 21  2  0  0  0  0
 20  2  1  0  0  0  0
 21  8  1  0  0  0  0
 22  6  1  0  0  0  0
 23 11  1  0  0  0  0
 23 10  1  0  0  0  0
 24 23  1  0  0  0  0
 25  1  1  0  0  0  0
 27  4  1  0  0  0  0
 27 25  1  0  0  0  0
 27 28  1  6  0  0  0
 29 28  1  0  0  0  0
 30 28  1  0  0  0  0
M  END
>  <CHROM.1>
70.30996877,14.09489408,145.74442600,-57.85080352,156.87328583,25.63269047
38.40513042,21.69717091,1.72504192,-0.12976122,-2.43668966

>  <Name>
lig.pdb

>  <RI>
0

>  <Rbt.Current_Directory>
/home/itssahil/PROJECTS/Mol_Feturizer/New_Systems/rnas/6bfb

>  <Rbt.Executable>
rbdock ($Id: //depot/dev/client3/rdock/2013.1/src/exe/rbdock.cxx#4 $)

>  <Rbt.Library>
libRbt.so (2013.1, Build901 2013/11/27)

>  <Rbt.Parameter_File>
/export/apps/rDock/src/rDock_2013.1_src/data/scripts/dock_solv.prm

>  <Rbt.Receptor>
prm/pocket_docking_6.prm

>  <SCORE>
-36.6691

>  <SCORE.INTER>
-32.7228

>  <SCORE.INTER.CONST>
1

>  <SCORE.INTER.POLAR>
-0.306618

>  <SCORE.INTER.ROT>
3

>  <SCORE.INTER.SOLV>
12.7113

>  <SCORE.INTER.VDW>
-30.6302

>  <SCORE.INTER.norm>
-1.09076

>  <SCORE.INTRA>
-3.94634

>  <SCORE.INTRA.DIHEDRAL>
-5.99046

>  <SCORE.INTRA.DIHEDRAL.0>
9.41909

>  <SCORE.INTRA.POLAR>
0

>  <SCORE.INTRA.POLAR.0>
0

>  <SCORE.INTRA.REPUL>
0

>  <SCORE.INTRA.REPUL.0>
0

>  <SCORE.INTRA.SOLV>
0.0374564

>  <SCORE.INTRA.SOLV.lig_0>
-26.2491

>  <SCORE.INTRA.VDW>
-0.969839

>  <SCORE.INTRA.VDW.0>
2.57239

>  <SCORE.INTRA.norm>
-0.131545

>  <SCORE.RESTR>
0

>  <SCORE.RESTR.CAVITY>
0

>  <SCORE.RESTR.norm>
0

>  <SCORE.SYSTEM>
0

>  <SCORE.SYSTEM.CONST>
0

>  <SCORE.SYSTEM.DIHEDRAL>
0

>  <SCORE.SYSTEM.SOLV>
0

>  <SCORE.SYSTEM.norm>
0

>  <SCORE.heavy>
30

>  <SCORE.norm>
-1.2223

>  <RMSD>
2.686

$$$$
lig.pdb
 OpenBabel11021811523D
libRbt.so/2013.1/901 2013/11/27
 30 34  0  0  0  0  0  0  0  0999 V2000
   24.4667   36.5668   20.0372 N   0  0  0  0  0  0  0  0  0  0  0  0
   26.9358   39.8469   22.8034 N   0  0  0  0  0  0  0  0  0  0  0  0
   23.9662   36.9665   18.7184 C   0  0  0  0  0  0  0  0  0  0  0  0
   24.2931   35.7406   17.8791 C   0  0  2  0  0  0  0  0  0  0  0  0
   24.5066   37.5273   21.1341 C   0  0  0  0  0  0  0  0  0  0  0  0
   23.3970   37.8251   21.9514 C   0  0  0  0  0  0  0  0  0  0  0  0
   23.4233   38.7491   22.9660 C   0  0  0  0  0  0  0  0  0  0  0  0
   24.6076   40.4964   24.2995 C   0  0  0  0  0  0  0  0  0  0  0  0
   29.1717   40.1826   22.7002 C   0  0  0  0  0  0  0  0  0  0  0  0
   28.0811   38.2479   21.3628 C   0  0  0  0  0  0  0  0  0  0  0  0
   25.7092   38.2323   21.4221 C   0  0  0  0  0  0  0  0  0  0  0  0
   25.3959   42.2022   26.5864 O   0  0  0  0  0  0  0  0  0  0  0  0
   25.9696   42.3049   25.4999 C   0  0  0  0  0  0  0  0  0  0  0  0
   26.6630   43.3839   25.1579 O   0  0  0  0  0  0  0  0  0  0  0  0
   25.8953   41.2124   24.4937 C   0  0  1  0  0  0  0  0  0  0  0  0
   23.6116   40.7137   24.9980 O   0  0  0  0  0  0  0  0  0  0  0  0
   27.0377   40.8592   23.7548 C   0  0  0  0  0  0  0  0  0  0  0  0
   28.1542   39.4531   22.2326 C   0  0  0  0  0  0  0  0  0  0  0  0
   28.6791   41.3409   23.8652 S   0  0  0  0  0  0  0  0  0  0  0  0
   25.7435   39.1678   22.4810 C   0  0  0  0  0  0  0  0  0  0  0  0
   24.5965   39.4527   23.2378 C   0  0  0  0  0  0  0  0  0  0  0  0
   22.2453   37.1528   21.7539 F   0  0  0  0  0  0  0  0  0  0  0  0
   26.8480   38.0580   20.6202 N   0  0  0  0  0  0  0  0  0  0  0  0
   26.7370   38.8108   19.3890 C   0  0  0  0  0  0  0  0  0  0  0  0
   25.4442   35.4892   19.9333 C   0  0  0  0  0  0  0  0  0  0  0  0
   23.1250   35.2003   17.2597 O   0  0  0  0  0  0  0  0  0  0  0  0
   24.7801   34.6631   18.8446 C   0  0  2  0  0  0  0  0  0  0  0  0
   25.6510   33.7339   18.0998 N   0  0  0  0  0  0  0  0  0  0  0  0
   26.6188   32.9838   18.9209 C   0  0  0  0  0  0  0  0  0  0  0  0
   24.9115   32.8646   17.1718 C   0  0  0  0  0  0  0  0  0  0  0  0
  1  5  1  0  0  0  0
  2 17  1  0  0  0  0
  3  1  1  0  0  0  0
  4  3  1  0  0  0  0
  4 26  1  1  0  0  0
  5 11  2  0  0  0  0
  5  6  1  0  0  0  0
  6  7  2  0  0  0  0
  7 21  1  0  0  0  0
  8 15  1  0  0  0  0
  8 16  2  0  0  0  0
  9 19  1  0  0  0  0
 10 18  1  0  0  0  0
 11 20  1  0  0  0  0
 13 14  1  0  0  0  0
 13 12  2  0  0  0  0
 15 13  1  1  0  0  0
 17 19  2  0  0  0  0
 17 15  1  0  0  0  0
 18  2  1  0  0  0  0
 18  9  2  0  0  0  0
 20 21  2  0  0  0  0
 20  2  1  0  0  0  0
 21  8  1  0  0  0  0
 22  6  1  0  0  0  0
 23 11  1  0  0  0  0
 23 10  1  0  0  0  0
 24 23  1  0  0  0  0
 25  1  1  0  0  0  0
 27  4  1  0  0  0  0
 27 25  1  0  0  0  0
 27 28  1  6  0  0  0
 29 28  1  0  0  0  0
 30 28  1  0  0  0  0
M  END
>  <CHROM.1>
83.19844033,2.77739273,39.83060486,75.09707632,156.41321926,25.63383212,38.40185029
21.70684028,1.76654102,-0.16378284,-2.36892373

>  <Name>
lig.pdb

>  <RI>
0

>  <Rbt.Current_Directory>
/home/itssahil/PROJECTS/Mol_Feturizer/New_Systems/rnas/6bfb

>  <Rbt.Executable>
rbdock ($Id: //depot/dev/client3/rdock/2013.1/src/exe/rbdock.cxx#4 $)

>  <Rbt.Library>
libRbt.so (2013.1, Build901 2013/11/27)

>  <Rbt.Parameter_File>
/export/apps/rDock/src/rDock_2013.1_src/data/scripts/dock_solv.prm

>  <Rbt.Receptor>
prm/pocket_docking_8.prm

>  <SCORE>
-39.9794

>  <SCORE.INTER>
-34.7297

>  <SCORE.INTER.CONST>
1

>  <SCORE.INTER.POLAR>
-0.848528

>  <SCORE.INTER.ROT>
3

>  <SCORE.INTER.SOLV>
13.5274

>  <SCORE.INTER.VDW>
-30.4339

>  <SCORE.INTER.norm>
-1.15766

>  <SCORE.INTRA>
-5.24965

>  <SCORE.INTRA.DIHEDRAL>
-6.19851

>  <SCORE.INTRA.DIHEDRAL.0>
9.41909

>  <SCORE.INTRA.POLAR>
0

>  <SCORE.INTRA.POLAR.0>
0

>  <SCORE.INTRA.REPUL>
0

>  <SCORE.INTRA.REPUL.0>
0

>  <SCORE.INTRA.SOLV>
-0.0236128

>  <SCORE.INTRA.SOLV.lig_0>
-26.2491

>  <SCORE.INTRA.VDW>
-2.13859

>  <SCORE.INTRA.VDW.0>
2.57239

>  <SCORE.INTRA.norm>
-0.174988

>  <SCORE.RESTR>
0

>  <SCORE.RESTR.CAVITY>
0

>  <SCORE.RESTR.norm>
0

>  <SCORE.SYSTEM>
0

>  <SCORE.SYSTEM.CONST>
0

>  <SCORE.SYSTEM.DIHEDRAL>
0

>  <SCORE.SYSTEM.SOLV>
0

>  <SCORE.SYSTEM.norm>
0

>  <SCORE.heavy>
30

>  <SCORE.norm>
-1.33265

>  <RMSD>
2.695

$$$$
lig.pdb
 OpenBabel11021811523D
libRbt.so/2013.1/901 2013/11/27
 30 34  0  0  0  0  0  0  0  0999 V2000
   24.3699   36.4253   20.0514 N   0  0  0  0  0  0  0  0  0  0  0  0
   26.6986   39.7699   22.8618 N   0  0  0  0  0  0  0  0  0  0  0  0
   23.6922   36.7221   18.7856 C   0  0  0  0  0  0  0  0  0  0  0  0
   24.1284   35.5501   17.9193 C   0  0  2  0  0  0  0  0  0  0  0  0
   24.3600   37.3965   21.1396 C   0  0  0  0  0  0  0  0  0  0  0  0
   23.2206   37.6840   21.9186 C   0  0  0  0  0  0  0  0  0  0  0  0
   23.2004   38.6177   22.9245 C   0  0  0  0  0  0  0  0  0  0  0  0
   24.3144   40.3959   24.2776 C   0  0  0  0  0  0  0  0  0  0  0  0
   28.9311   40.1403   22.8258 C   0  0  0  0  0  0  0  0  0  0  0  0
   27.9138   38.1761   21.4736 C   0  0  0  0  0  0  0  0  0  0  0  0
   25.5418   38.1232   21.4584 C   0  0  0  0  0  0  0  0  0  0  0  0
   26.3291   42.1681   26.5012 O   0  0  0  0  0  0  0  0  0  0  0  0
   25.6093   42.2369   25.5025 C   0  0  0  0  0  0  0  0  0  0  0  0
   24.8128   43.2723   25.2665 O   0  0  0  0  0  0  0  0  0  0  0  0
   25.5839   41.1341   24.5052 C   0  0  1  0  0  0  0  0  0  0  0  0
   23.2935   40.6038   24.9422 O   0  0  0  0  0  0  0  0  0  0  0  0
   26.7546   40.7924   23.8060 C   0  0  0  0  0  0  0  0  0  0  0  0
   27.9405   39.3903   22.3335 C   0  0  0  0  0  0  0  0  0  0  0  0
   28.3839   41.3012   23.9634 S   0  0  0  0  0  0  0  0  0  0  0  0
   25.5278   39.0688   22.5087 C   0  0  0  0  0  0  0  0  0  0  0  0
   24.3532   39.3425   23.2262 C   0  0  0  0  0  0  0  0  0  0  0  0
   22.0863   36.9917   21.6916 F   0  0  0  0  0  0  0  0  0  0  0  0
   26.7079   37.9597   20.6944 N   0  0  0  0  0  0  0  0  0  0  0  0
   26.6240   38.6992   19.4531 C   0  0  0  0  0  0  0  0  0  0  0  0
   25.4907   35.5127   19.8559 C   0  0  0  0  0  0  0  0  0  0  0  0
   23.0074   34.8245   17.4128 O   0  0  0  0  0  0  0  0  0  0  0  0
   24.8665   34.5767   18.8347 C   0  0  2  0  0  0  0  0  0  0  0  0
   25.7996   33.7844   18.0112 N   0  0  0  0  0  0  0  0  0  0  0  0
   26.9819   33.2655   18.7228 C   0  0  0  0  0  0  0  0  0  0  0  0
   25.1293   32.7489   17.2099 C   0  0  0  0  0  0  0  0  0  0  0  0
  1  5  1  0  0  0  0
  2 17  1  0  0  0  0
  3  1  1  0  0  0  0
  4  3  1  0  0  0  0
  4 26  1  1  0  0  0
  5 11  2  0  0  0  0
  5  6  1  0  0  0  0
  6  7  2  0  0  0  0
  7 21  1  0  0  0  0
  8 15  1  0  0  0  0
  8 16  2  0  0  0  0
  9 19  1  0  0  0  0
 10 18  1  0  0  0  0
 11 20  1  0  0  0  0
 13 14  1  0  0  0  0
 13 12  2  0  0  0  0
 15 13  1  1  0  0  0
 17 19  2  0  0  0  0
 17 15  1  0  0  0  0
 18  2  1  0  0  0  0
 18  9  2  0  0  0  0
 20 21  2  0  0  0  0
 20  2  1  0  0  0  0
 21  8  1  0  0  0  0
 22  6  1  0  0  0  0
 23 11  1  0  0  0  0
 23 10  1  0  0  0  0
 24 23  1  0  0  0  0
 25  1  1  0  0  0  0
 27  4  1  0  0  0  0
 27 25  1  0  0  0  0
 27 28  1  6  0  0  0
 29 28  1  0  0  0  0
 30 28  1  0  0  0  0
M  END
>  <CHROM.1>
72.33182854,179.06114768,117.47778705,-58.64380835,153.39608981,25.45776526
38.30678865,21.72630268,1.72172002,-0.11491791,-2.38211997

>  <Name>
lig.pdb

>  <RI>
0

>  <Rbt.Current_Directory>
/home/itssahil/PROJECTS/Mol_Feturizer/New_Systems/rnas/6bfb

>  <Rbt.Executable>
rbdock ($Id: //depot/dev/client3/rdock/2013.1/src/exe/rbdock.cxx#4 $)

>  <Rbt.Library>
libRbt.so (2013.1, Build901 2013/11/27)

>  <Rbt.Parameter_File>
/export/apps/rDock/src/rDock_2013.1_src/data/scripts/dock_solv.prm

>  <Rbt.Receptor>
prm/pocket_docking_8.prm

>  <SCORE>
-35.5354

>  <SCORE.INTER>
-30.8904

>  <SCORE.INTER.CONST>
1

>  <SCORE.INTER.POLAR>
0

>  <SCORE.INTER.ROT>
3

>  <SCORE.INTER.SOLV>
13.6949

>  <SCORE.INTER.VDW>
-30.7586

>  <SCORE.INTER.norm>
-1.02968

>  <SCORE.INTRA>
-4.64505

>  <SCORE.INTRA.DIHEDRAL>
-7.10259

>  <SCORE.INTRA.DIHEDRAL.0>
9.41909

>  <SCORE.INTRA.POLAR>
0

>  <SCORE.INTRA.POLAR.0>
0

>  <SCORE.INTRA.REPUL>
0

>  <SCORE.INTRA.REPUL.0>
0

>  <SCORE.INTRA.SOLV>
-0.0330503

>  <SCORE.INTRA.SOLV.lig_0>
-26.2491

>  <SCORE.INTRA.VDW>
-1.07723

>  <SCORE.INTRA.VDW.0>
2.57239

>  <SCORE.INTRA.norm>
-0.154835

>  <SCORE.RESTR>
0

>  <SCORE.RESTR.CAVITY>
0

>  <SCORE.RESTR.norm>
0

>  <SCORE.SYSTEM>
0

>  <SCORE.SYSTEM.CONST>
0

>  <SCORE.SYSTEM.DIHEDRAL>
0

>  <SCORE.SYSTEM.SOLV>
0

>  <SCORE.SYSTEM.norm>
0

>  <SCORE.heavy>
30

>  <SCORE.norm>
-1.18451

>  <RMSD>
2.700

$$$$
lig.pdb
 OpenBabel11021811523D
libRbt.so/2013.1/901 2013/11/27
 30 34  0  0  0  0  0  0  0  0999 V2000
   24.4297   36.5314   19.9642 N   0  0  0  0  0  0  0  0  0  0  0  0
   26.8676   39.7847   22.7890 N   0  0  0  0  0  0  0  0  0  0  0  0
   23.9589   36.9559   18.6422 C   0  0  0  0  0  0  0  0  0  0  0  0
   24.2881   35.7385   17.7913 C   0  0  2  0  0  0  0  0  0  0  0  0
   24.4594   37.4755   21.0756 C   0  0  0  0  0  0  0  0  0  0  0  0
   23.3449   37.7539   21.8930 C   0  0  0  0  0  0  0  0  0  0  0  0
   23.3616   38.6626   22.9216 C   0  0  0  0  0  0  0  0  0  0  0  0
   24.5297   40.3969   24.2859 C   0  0  0  0  0  0  0  0  0  0  0  0
   29.1017   40.1359   22.6996 C   0  0  0  0  0  0  0  0  0  0  0  0
   28.0284   38.2149   21.3289 C   0  0  0  0  0  0  0  0  0  0  0  0
   25.6564   38.1835   21.3788 C   0  0  0  0  0  0  0  0  0  0  0  0
   25.0292   43.0914   25.5449 O   0  0  0  0  0  0  0  0  0  0  0  0
   25.8758   42.1955   25.5187 C   0  0  0  0  0  0  0  0  0  0  0  0
   26.8892   42.1455   26.3746 O   0  0  0  0  0  0  0  0  0  0  0  0
   25.8121   41.1179   24.4958 C   0  0  1  0  0  0  0  0  0  0  0  0
   23.5298   40.5974   24.9837 O   0  0  0  0  0  0  0  0  0  0  0  0
   26.9596   40.7830   23.7560 C   0  0  0  0  0  0  0  0  0  0  0  0
   28.0906   39.4072   22.2170 C   0  0  0  0  0  0  0  0  0  0  0  0
   28.5975   41.2733   23.8800 S   0  0  0  0  0  0  0  0  0  0  0  0
   25.6808   39.1030   22.4519 C   0  0  0  0  0  0  0  0  0  0  0  0
   24.5292   39.3694   23.2085 C   0  0  0  0  0  0  0  0  0  0  0  0
   22.1981   37.0775   21.6810 F   0  0  0  0  0  0  0  0  0  0  0  0
   26.7993   38.0285   20.5788 N   0  0  0  0  0  0  0  0  0  0  0  0
   26.6881   38.7991   19.3587 C   0  0  0  0  0  0  0  0  0  0  0  0
   25.3968   35.4443   19.8630 C   0  0  0  0  0  0  0  0  0  0  0  0
   23.1260   35.2208   17.1421 O   0  0  0  0  0  0  0  0  0  0  0  0
   24.7444   34.6417   18.7500 C   0  0  2  0  0  0  0  0  0  0  0  0
   25.6188   33.7134   18.0082 N   0  0  0  0  0  0  0  0  0  0  0  0
   26.9894   34.1988   17.7650 C   0  0  0  0  0  0  0  0  0  0  0  0
   25.5968   32.3436   18.5440 C   0  0  0  0  0  0  0  0  0  0  0  0
  1  5  1  0  0  0  0
  2 17  1  0  0  0  0
  3  1  1  0  0  0  0
  4  3  1  0  0  0  0
  4 26  1  1  0  0  0
  5 11  2  0  0  0  0
  5  6  1  0  0  0  0
  6  7  2  0  0  0  0
  7 21  1  0  0  0  0
  8 15  1  0  0  0  0
  8 16  2  0  0  0  0
  9 19  1  0  0  0  0
 10 18  1  0  0  0  0
 11 20  1  0  0  0  0
 13 14  1  0  0  0  0
 13 12  2  0  0  0  0
 15 13  1  1  0  0  0
 17 19  2  0  0  0  0
 17 15  1  0  0  0  0
 18  2  1  0  0  0  0
 18  9  2  0  0  0  0
 20 21  2  0  0  0  0
 20  2  1  0  0  0  0
 21  8  1  0  0  0  0
 22  6  1  0  0  0  0
 23 11  1  0  0  0  0
 23 10  1  0  0  0  0
 24 23  1  0  0  0  0
 25  1  1  0  0  0  0
 27  4  1  0  0  0  0
 27 25  1  0  0  0  0
 27 28  1  6  0  0  0
 29 28  1  0  0  0  0
 30 28  1  0  0  0  0
M  END
>  <CHROM.1>
84.53543002,2.18753996,-49.72032869,74.42831709,76.79788314,25.61922137,38.36495652
21.68916492,1.74632594,-0.14383014,-2.35569968

>  <Name>
lig.pdb

>  <RI>
0

>  <Rbt.Current_Directory>
/home/itssahil/PROJECTS/Mol_Feturizer/New_Systems/rnas/6bfb

>  <Rbt.Executable>
rbdock ($Id: //depot/dev/client3/rdock/2013.1/src/exe/rbdock.cxx#4 $)

>  <Rbt.Library>
libRbt.so (2013.1, Build901 2013/11/27)

>  <Rbt.Parameter_File>
/export/apps/rDock/src/rDock_2013.1_src/data/scripts/dock_solv.prm

>  <Rbt.Receptor>
prm/pocket_docking_6.prm

>  <SCORE>
-38.9902

>  <SCORE.INTER>
-33.3397

>  <SCORE.INTER.CONST>
1

>  <SCORE.INTER.POLAR>
-0.84685

>  <SCORE.INTER.ROT>
3

>  <SCORE.INTER.SOLV>
13.516

>  <SCORE.INTER.VDW>
-29.509

>  <SCORE.INTER.norm>
-1.11132

>  <SCORE.INTRA>
-5.65055

>  <SCORE.INTRA.DIHEDRAL>
-6.05661

>  <SCORE.INTRA.DIHEDRAL.0>
9.41909

>  <SCORE.INTRA.POLAR>
0

>  <SCORE.INTRA.POLAR.0>
0

>  <SCORE.INTRA.REPUL>
0

>  <SCORE.INTRA.REPUL.0>
0

>  <SCORE.INTRA.SOLV>
-0.149828

>  <SCORE.INTRA.SOLV.lig_0>
-26.2491

>  <SCORE.INTRA.VDW>
-2.54732

>  <SCORE.INTRA.VDW.0>
2.57239

>  <SCORE.INTRA.norm>
-0.188352

>  <SCORE.RESTR>
0

>  <SCORE.RESTR.CAVITY>
0

>  <SCORE.RESTR.norm>
0

>  <SCORE.SYSTEM>
0

>  <SCORE.SYSTEM.CONST>
0

>  <SCORE.SYSTEM.DIHEDRAL>
0

>  <SCORE.SYSTEM.SOLV>
0

>  <SCORE.SYSTEM.norm>
0

>  <SCORE.heavy>
30

>  <SCORE.norm>
-1.29967

>  <RMSD>
2.707

$$$$
lig.pdb
 OpenBabel11021811523D
libRbt.so/2013.1/901 2013/11/27
 30 34  0  0  0  0  0  0  0  0999 V2000
   24.3825   36.7273   20.6136 N   0  0  0  0  0  0  0  0  0  0  0  0
   27.2880   40.1985   22.6176 N   0  0  0  0  0  0  0  0  0  0  0  0
   23.2833   36.7759   19.6446 C   0  0  0  0  0  0  0  0  0  0  0  0
   23.5805   35.5607   18.7789 C   0  0  2  0  0  0  0  0  0  0  0  0
   24.5870   37.8235   21.5538 C   0  0  0  0  0  0  0  0  0  0  0  0
   23.5895   38.2951   22.4316 C   0  0  0  0  0  0  0  0  0  0  0  0
   23.7697   39.3448   23.2973 C   0  0  0  0  0  0  0  0  0  0  0  0
   25.1718   41.1827   24.2406 C   0  0  0  0  0  0  0  0  0  0  0  0
   29.5113   40.3829   22.2366 C   0  0  0  0  0  0  0  0  0  0  0  0
   28.1934   38.3535   21.3062 C   0  0  0  0  0  0  0  0  0  0  0  0
   25.8445   38.4878   21.6129 C   0  0  0  0  0  0  0  0  0  0  0  0
   27.5585   43.9052   24.6786 O   0  0  0  0  0  0  0  0  0  0  0  0
   26.7384   43.0525   25.0258 C   0  0  0  0  0  0  0  0  0  0  0  0
   26.0378   43.1513   26.1489 O   0  0  0  0  0  0  0  0  0  0  0  0
   26.5039   41.8401   24.1971 C   0  0  1  0  0  0  0  0  0  0  0  0
   24.2704   41.5518   25.0010 O   0  0  0  0  0  0  0  0  0  0  0  0
   27.5402   41.3224   23.4008 C   0  0  0  0  0  0  0  0  0  0  0  0
   28.4166   39.6588   21.9848 C   0  0  0  0  0  0  0  0  0  0  0  0
   29.2037   41.7157   23.2712 S   0  0  0  0  0  0  0  0  0  0  0  0
   26.0380   39.5544   22.5199 C   0  0  0  0  0  0  0  0  0  0  0  0
   24.9962   40.0074   23.3438 C   0  0  0  0  0  0  0  0  0  0  0  0
   22.3940   37.6723   22.4516 F   0  0  0  0  0  0  0  0  0  0  0  0
   26.8782   38.1388   20.7299 N   0  0  0  0  0  0  0  0  0  0  0  0
   26.6649   38.7231   19.4230 C   0  0  0  0  0  0  0  0  0  0  0  0
   25.5003   35.9348   20.1138 C   0  0  0  0  0  0  0  0  0  0  0  0
   22.4812   34.6492   18.7567 O   0  0  0  0  0  0  0  0  0  0  0  0
   24.7234   34.8076   19.4548 C   0  0  2  0  0  0  0  0  0  0  0  0
   25.4381   34.0300   18.4247 N   0  0  0  0  0  0  0  0  0  0  0  0
   26.8197   33.6488   18.7698 C   0  0  0  0  0  0  0  0  0  0  0  0
   24.6565   32.8956   17.9088 C   0  0  0  0  0  0  0  0  0  0  0  0
  1  5  1  0  0  0  0
  2 17  1  0  0  0  0
  3  1  1  0  0  0  0
  4  3  1  0  0  0  0
  4 26  1  1  0  0  0
  5 11  2  0  0  0  0
  5  6  1  0  0  0  0
  6  7  2  0  0  0  0
  7 21  1  0  0  0  0
  8 15  1  0  0  0  0
  8 16  2  0  0  0  0
  9 19  1  0  0  0  0
 10 18  1  0  0  0  0
 11 20  1  0  0  0  0
 13 14  1  0  0  0  0
 13 12  2  0  0  0  0
 15 13  1  1  0  0  0
 17 19  2  0  0  0  0
 17 15  1  0  0  0  0
 18  2  1  0  0  0  0
 18  9  2  0  0  0  0
 20 21  2  0  0  0  0
 20  2  1  0  0  0  0
 21  8  1  0  0  0  0
 22  6  1  0  0  0  0
 23 11  1  0  0  0  0
 23 10  1  0  0  0  0
 24 23  1  0  0  0  0
 25  1  1  0  0  0  0
 27  4  1  0  0  0  0
 27 25  1  0  0  0  0
 27 28  1  6  0  0  0
 29 28  1  0  0  0  0
 30 28  1  0  0  0  0
M  END
>  <CHROM.1>
55.17062196,-177.89318863,-151.79945892,-60.63876877,158.51511765,25.81843454
38.72573995,21.84076726,1.86669950,-0.23054823,-2.45220279

>  <Name>
lig.pdb

>  <RI>
0

>  <Rbt.Current_Directory>
/home/itssahil/PROJECTS/Mol_Feturizer/New_Systems/rnas/6bfb

>  <Rbt.Executable>
rbdock ($Id: //depot/dev/client3/rdock/2013.1/src/exe/rbdock.cxx#4 $)

>  <Rbt.Library>
libRbt.so (2013.1, Build901 2013/11/27)

>  <Rbt.Parameter_File>
/export/apps/rDock/src/rDock_2013.1_src/data/scripts/dock_solv.prm

>  <Rbt.Receptor>
prm/pocket_docking_7.prm

>  <SCORE>
-38.1193

>  <SCORE.INTER>
-36.245

>  <SCORE.INTER.CONST>
1

>  <SCORE.INTER.POLAR>
-0.938083

>  <SCORE.INTER.ROT>
3

>  <SCORE.INTER.SOLV>
13.9641

>  <SCORE.INTER.VDW>
-31.2911

>  <SCORE.INTER.norm>
-1.20817

>  <SCORE.INTRA>
-1.87431

>  <SCORE.INTRA.DIHEDRAL>
-7.33881

>  <SCORE.INTRA.DIHEDRAL.0>
9.41909

>  <SCORE.INTRA.POLAR>
0

>  <SCORE.INTRA.POLAR.0>
0

>  <SCORE.INTRA.REPUL>
0

>  <SCORE.INTRA.REPUL.0>
0

>  <SCORE.INTRA.SOLV>
0.0595708

>  <SCORE.INTRA.SOLV.lig_0>
-26.2491

>  <SCORE.INTRA.VDW>
1.76531

>  <SCORE.INTRA.VDW.0>
2.57239

>  <SCORE.INTRA.norm>
-0.062477

>  <SCORE.RESTR>
0

>  <SCORE.RESTR.CAVITY>
0

>  <SCORE.RESTR.norm>
0

>  <SCORE.SYSTEM>
0

>  <SCORE.SYSTEM.CONST>
0

>  <SCORE.SYSTEM.DIHEDRAL>
0

>  <SCORE.SYSTEM.SOLV>
0

>  <SCORE.SYSTEM.norm>
0

>  <SCORE.heavy>
30

>  <SCORE.norm>
-1.27064

>  <RMSD>
2.756

$$$$
lig.pdb
 OpenBabel11021811523D
libRbt.so/2013.1/901 2013/11/27
 30 34  0  0  0  0  0  0  0  0999 V2000
   24.3176   36.5494   19.9288 N   0  0  0  0  0  0  0  0  0  0  0  0
   26.8822   39.7238   22.7312 N   0  0  0  0  0  0  0  0  0  0  0  0
   23.7820   36.9835   18.6349 C   0  0  0  0  0  0  0  0  0  0  0  0
   24.0821   35.7785   17.7561 C   0  0  2  0  0  0  0  0  0  0  0  0
   24.3906   37.4817   21.0481 C   0  0  0  0  0  0  0  0  0  0  0  0
   23.2997   37.7751   21.8917 C   0  0  0  0  0  0  0  0  0  0  0  0
   23.3571   38.6731   22.9281 C   0  0  0  0  0  0  0  0  0  0  0  0
   24.5898   40.3695   24.2833 C   0  0  0  0  0  0  0  0  0  0  0  0
   29.1207   40.0296   22.5973 C   0  0  0  0  0  0  0  0  0  0  0  0
   27.9788   38.1446   21.2319 C   0  0  0  0  0  0  0  0  0  0  0  0
   25.6083   38.1618   21.3323 C   0  0  0  0  0  0  0  0  0  0  0  0
   25.4813   41.9864   26.6138 O   0  0  0  0  0  0  0  0  0  0  0  0
   25.9990   42.1277   25.5038 C   0  0  0  0  0  0  0  0  0  0  0  0
   26.6585   43.2266   25.1583 O   0  0  0  0  0  0  0  0  0  0  0  0
   25.8912   41.0617   24.4725 C   0  0  1  0  0  0  0  0  0  0  0  0
   23.6093   40.5838   25.0042 O   0  0  0  0  0  0  0  0  0  0  0  0
   27.0155   40.7105   23.7053 C   0  0  0  0  0  0  0  0  0  0  0  0
   28.0847   39.3266   22.1297 C   0  0  0  0  0  0  0  0  0  0  0  0
   28.6655   41.1655   23.7988 S   0  0  0  0  0  0  0  0  0  0  0  0
   25.6746   39.0701   22.4131 C   0  0  0  0  0  0  0  0  0  0  0  0
   24.5451   39.3528   23.1966 C   0  0  0  0  0  0  0  0  0  0  0  0
   22.1348   37.1246   21.6980 F   0  0  0  0  0  0  0  0  0  0  0  0
   26.7305   37.9911   20.5066 N   0  0  0  0  0  0  0  0  0  0  0  0
   26.6096   38.7757   19.2964 C   0  0  0  0  0  0  0  0  0  0  0  0
   25.2888   35.4727   19.7706 C   0  0  0  0  0  0  0  0  0  0  0  0
   22.8958   35.2567   17.1559 O   0  0  0  0  0  0  0  0  0  0  0  0
   24.5925   34.6759   18.6802 C   0  0  2  0  0  0  0  0  0  0  0  0
   25.4398   33.7640   17.8883 N   0  0  0  0  0  0  0  0  0  0  0  0
   26.7703   34.2906   17.5332 C   0  0  0  0  0  0  0  0  0  0  0  0
   25.5063   32.4043   18.4456 C   0  0  0  0  0  0  0  0  0  0  0  0
  1  5  1  0  0  0  0
  2 17  1  0  0  0  0
  3  1  1  0  0  0  0
  4  3  1  0  0  0  0
  4 26  1  1  0  0  0
  5 11  2  0  0  0  0
  5  6  1  0  0  0  0
  6  7  2  0  0  0  0
  7 21  1  0  0  0  0
  8 15  1  0  0  0  0
  8 16  2  0  0  0  0
  9 19  1  0  0  0  0
 10 18  1  0  0  0  0
 11 20  1  0  0  0  0
 13 14  1  0  0  0  0
 13 12  2  0  0  0  0
 15 13  1  1  0  0  0
 17 19  2  0  0  0  0
 17 15  1  0  0  0  0
 18  2  1  0  0  0  0
 18  9  2  0  0  0  0
 20 21  2  0  0  0  0
 20  2  1  0  0  0  0
 21  8  1  0  0  0  0
 22  6  1  0  0  0  0
 23 11  1  0  0  0  0
 23 10  1  0  0  0  0
 24 23  1  0  0  0  0
 25  1  1  0  0  0  0
 27  4  1  0  0  0  0
 27 25  1  0  0  0  0
 27 28  1  6  0  0  0
 29 28  1  0  0  0  0
 30 28  1  0  0  0  0
M  END
>  <CHROM.1>
82.28108926,2.04575834,42.35410518,81.93627005,74.05509280,25.58214263,38.35387053
21.63326868,1.77372975,-0.17984909,-2.33687119

>  <Name>
lig.pdb

>  <RI>
0

>  <Rbt.Current_Directory>
/home/itssahil/PROJECTS/Mol_Feturizer/New_Systems/rnas/6bfb

>  <Rbt.Executable>
rbdock ($Id: //depot/dev/client3/rdock/2013.1/src/exe/rbdock.cxx#4 $)

>  <Rbt.Library>
libRbt.so (2013.1, Build901 2013/11/27)

>  <Rbt.Parameter_File>
/export/apps/rDock/src/rDock_2013.1_src/data/scripts/dock_solv.prm

>  <Rbt.Receptor>
prm/pocket_docking_4.prm

>  <SCORE>
-38.4422

>  <SCORE.INTER>
-33.2293

>  <SCORE.INTER.CONST>
1

>  <SCORE.INTER.POLAR>
-0.840041

>  <SCORE.INTER.ROT>
3

>  <SCORE.INTER.SOLV>
13.8134

>  <SCORE.INTER.VDW>
-29.5572

>  <SCORE.INTER.norm>
-1.10764

>  <SCORE.INTRA>
-5.21359

>  <SCORE.INTRA.DIHEDRAL>
-5.09262

>  <SCORE.INTRA.DIHEDRAL.0>
9.41909

>  <SCORE.INTRA.POLAR>
0

>  <SCORE.INTRA.POLAR.0>
0

>  <SCORE.INTRA.REPUL>
0

>  <SCORE.INTRA.REPUL.0>
0

>  <SCORE.INTRA.SOLV>
-0.12964

>  <SCORE.INTRA.SOLV.lig_0>
-26.2491

>  <SCORE.INTRA.VDW>
-2.60246

>  <SCORE.INTRA.VDW.0>
2.57239

>  <SCORE.INTRA.norm>
-0.173786

>  <SCORE.RESTR>
0.000676527

>  <SCORE.RESTR.CAVITY>
0.000676527

>  <SCORE.RESTR.norm>
2.25509e-05

>  <SCORE.SYSTEM>
0

>  <SCORE.SYSTEM.CONST>
0

>  <SCORE.SYSTEM.DIHEDRAL>
0

>  <SCORE.SYSTEM.SOLV>
0

>  <SCORE.SYSTEM.norm>
0

>  <SCORE.heavy>
30

>  <SCORE.norm>
-1.28141

>  <RMSD>
2.764

$$$$
lig.pdb
 OpenBabel11021811523D
libRbt.so/2013.1/901 2013/11/27
 30 34  0  0  0  0  0  0  0  0999 V2000
   26.6537   38.9998   20.5592 N   0  0  0  0  0  0  0  0  0  0  0  0
   24.8973   40.9783   24.7435 N   0  0  0  0  0  0  0  0  0  0  0  0
   27.6317   37.9078   20.5381 C   0  0  0  0  0  0  0  0  0  0  0  0
   28.3274   38.1417   19.2056 C   0  0  2  0  0  0  0  0  0  0  0  0
   25.6394   39.0626   21.6055 C   0  0  0  0  0  0  0  0  0  0  0  0
   24.5020   38.2302   21.6406 C   0  0  0  0  0  0  0  0  0  0  0  0
   23.5312   38.3058   22.6079 C   0  0  0  0  0  0  0  0  0  0  0  0
   22.5585   39.3653   24.6488 C   0  0  0  0  0  0  0  0  0  0  0  0
   26.0343   42.4411   26.0435 C   0  0  0  0  0  0  0  0  0  0  0  0
   27.2030   41.3106   24.0242 C   0  0  0  0  0  0  0  0  0  0  0  0
   25.7610   40.0090   22.6617 C   0  0  0  0  0  0  0  0  0  0  0  0
   21.9269   40.4916   27.9019 O   0  0  0  0  0  0  0  0  0  0  0  0
   21.6885   40.6307   26.7003 C   0  0  0  0  0  0  0  0  0  0  0  0
   20.4859   40.9592   26.2444 O   0  0  0  0  0  0  0  0  0  0  0  0
   22.7518   40.4145   25.6834 C   0  0  1  0  0  0  0  0  0  0  0  0
   21.5849   38.6042   24.6444 O   0  0  0  0  0  0  0  0  0  0  0  0
   23.9263   41.1859   25.7204 C   0  0  0  0  0  0  0  0  0  0  0  0
   26.0970   41.6732   24.9514 C   0  0  0  0  0  0  0  0  0  0  0  0
   24.5316   42.3142   26.8602 S   0  0  0  0  0  0  0  0  0  0  0  0
   24.7732   40.0726   23.6705 C   0  0  0  0  0  0  0  0  0  0  0  0
   23.6408   39.2445   23.6337 C   0  0  0  0  0  0  0  0  0  0  0  0
   24.3597   37.2835   20.6913 F   0  0  0  0  0  0  0  0  0  0  0  0
   26.8205   40.9296   22.6764 N   0  0  0  0  0  0  0  0  0  0  0  0
   26.5700   42.0249   21.7640 C   0  0  0  0  0  0  0  0  0  0  0  0
   26.3964   39.5123   19.2181 C   0  0  0  0  0  0  0  0  0  0  0  0
   29.7356   38.3141   19.3706 O   0  0  0  0  0  0  0  0  0  0  0  0
   27.8121   39.4742   18.6678 C   0  0  2  0  0  0  0  0  0  0  0  0
   27.9472   39.4635   17.1987 N   0  0  0  0  0  0  0  0  0  0  0  0
   27.0840   40.4187   16.4805 C   0  0  0  0  0  0  0  0  0  0  0  0
   29.3453   39.5215   16.7450 C   0  0  0  0  0  0  0  0  0  0  0  0
  1  5  1  0  0  0  0
  2 17  1  0  0  0  0
  3  1  1  0  0  0  0
  4  3  1  0  0  0  0
  4 26  1  1  0  0  0
  5 11  2  0  0  0  0
  5  6  1  0  0  0  0
  6  7  2  0  0  0  0
  7 21  1  0  0  0  0
  8 15  1  0  0  0  0
  8 16  2  0  0  0  0
  9 19  1  0  0  0  0
 10 18  1  0  0  0  0
 11 20  1  0  0  0  0
 13 14  1  0  0  0  0
 13 12  2  0  0  0  0
 15 13  1  1  0  0  0
 17 19  2  0  0  0  0
 17 15  1  0  0  0  0
 18  2  1  0  0  0  0
 18  9  2  0  0  0  0
 20 21  2  0  0  0  0
 20  2  1  0  0  0  0
 21  8  1  0  0  0  0
 22  6  1  0  0  0  0
 23 11  1  0  0  0  0
 23 10  1  0  0  0  0
 24 23  1  0  0  0  0
 25  1  1  0  0  0  0
 27  4  1  0  0  0  0
 27 25  1  0  0  0  0
 27 28  1  6  0  0  0
 29 28  1  0  0  0  0
 30 28  1  0  0  0  0
M  END
>  <CHROM.1>
-75.36761460,-176.57429542,119.99589503,60.84627631,158.87695096,25.31657162
39.97606347,22.67845251,0.91522272,-0.50785722,-2.15397640

>  <Name>
lig.pdb

>  <RI>
0

>  <Rbt.Current_Directory>
/home/itssahil/PROJECTS/Mol_Feturizer/New_Systems/rnas/6bfb

>  <Rbt.Executable>
rbdock ($Id: //depot/dev/client3/rdock/2013.1/src/exe/rbdock.cxx#4 $)

>  <Rbt.Library>
libRbt.so (2013.1, Build901 2013/11/27)

>  <Rbt.Parameter_File>
/export/apps/rDock/src/rDock_2013.1_src/data/scripts/dock_solv.prm

>  <Rbt.Receptor>
prm/pocket_docking_7.prm

>  <SCORE>
-38.6603

>  <SCORE.INTER>
-33.3369

>  <SCORE.INTER.CONST>
1

>  <SCORE.INTER.POLAR>
-1.97632

>  <SCORE.INTER.ROT>
3

>  <SCORE.INTER.SOLV>
12.7354

>  <SCORE.INTER.VDW>
-25.482

>  <SCORE.INTER.norm>
-1.11123

>  <SCORE.INTRA>
-5.32347

>  <SCORE.INTRA.DIHEDRAL>
-7.32346

>  <SCORE.INTRA.DIHEDRAL.0>
9.41909

>  <SCORE.INTRA.POLAR>
0

>  <SCORE.INTRA.POLAR.0>
0

>  <SCORE.INTRA.REPUL>
0.0966608

>  <SCORE.INTRA.REPUL.0>
0

>  <SCORE.INTRA.SOLV>
-0.201641

>  <SCORE.INTRA.SOLV.lig_0>
-26.2491

>  <SCORE.INTRA.VDW>
-2.04422

>  <SCORE.INTRA.VDW.0>
2.57239

>  <SCORE.INTRA.norm>
-0.177449

>  <SCORE.RESTR>
0

>  <SCORE.RESTR.CAVITY>
0

>  <SCORE.RESTR.norm>
0

>  <SCORE.SYSTEM>
0

>  <SCORE.SYSTEM.CONST>
0

>  <SCORE.SYSTEM.DIHEDRAL>
0

>  <SCORE.SYSTEM.SOLV>
0

>  <SCORE.SYSTEM.norm>
0

>  <SCORE.heavy>
30

>  <SCORE.norm>
-1.28868

>  <RMSD>
2.806

$$$$
lig.pdb
 OpenBabel11021811523D
libRbt.so/2013.1/901 2013/11/27
 30 34  0  0  0  0  0  0  0  0999 V2000
   26.3884   38.6363   19.9129 N   0  0  0  0  0  0  0  0  0  0  0  0
   25.1368   41.2031   23.9567 N   0  0  0  0  0  0  0  0  0  0  0  0
   25.8776   38.8267   18.5519 C   0  0  0  0  0  0  0  0  0  0  0  0
   27.1478   38.6990   17.7245 C   0  0  2  0  0  0  0  0  0  0  0  0
   25.5179   38.8458   21.0644 C   0  0  0  0  0  0  0  0  0  0  0  0
   24.4193   38.0178   21.3730 C   0  0  0  0  0  0  0  0  0  0  0  0
   23.5812   38.2288   22.4394 C   0  0  0  0  0  0  0  0  0  0  0  0
   22.8531   39.5731   24.4133 C   0  0  0  0  0  0  0  0  0  0  0  0
   26.3912   42.8543   24.8638 C   0  0  0  0  0  0  0  0  0  0  0  0
   27.3184   41.4447   22.8954 C   0  0  0  0  0  0  0  0  0  0  0  0
   25.7491   39.9408   21.9440 C   0  0  0  0  0  0  0  0  0  0  0  0
   21.0060   40.9591   26.2354 O   0  0  0  0  0  0  0  0  0  0  0  0
   22.2222   41.1236   26.3536 C   0  0  0  0  0  0  0  0  0  0  0  0
   22.7703   41.6358   27.4487 O   0  0  0  0  0  0  0  0  0  0  0  0
   23.1495   40.7671   25.2470 C   0  0  1  0  0  0  0  0  0  0  0  0
   21.9096   38.8112   24.6508 O   0  0  0  0  0  0  0  0  0  0  0  0
   24.2961   41.5459   25.0130 C   0  0  0  0  0  0  0  0  0  0  0  0
   26.3329   41.9321   23.8982 C   0  0  0  0  0  0  0  0  0  0  0  0
   25.0122   42.8376   25.8833 S   0  0  0  0  0  0  0  0  0  0  0  0
   24.9000   40.1459   23.0550 C   0  0  0  0  0  0  0  0  0  0  0  0
   23.7968   39.3114   23.2919 C   0  0  0  0  0  0  0  0  0  0  0  0
   24.1816   36.9385   20.6009 F   0  0  0  0  0  0  0  0  0  0  0  0
   26.7745   40.8628   21.6815 N   0  0  0  0  0  0  0  0  0  0  0  0
   26.3756   41.8068   20.6595 C   0  0  0  0  0  0  0  0  0  0  0  0
   27.8222   38.8934   19.9861 C   0  0  0  0  0  0  0  0  0  0  0  0
   27.0382   37.6613   16.7493 O   0  0  0  0  0  0  0  0  0  0  0  0
   28.2514   38.2496   18.6785 C   0  0  2  0  0  0  0  0  0  0  0  0
   29.5475   38.6853   18.1245 N   0  0  0  0  0  0  0  0  0  0  0  0
   30.6014   38.9482   19.1213 C   0  0  0  0  0  0  0  0  0  0  0  0
   30.0205   37.8364   17.0202 C   0  0  0  0  0  0  0  0  0  0  0  0
  1  5  1  0  0  0  0
  2 17  1  0  0  0  0
  3  1  1  0  0  0  0
  4  3  1  0  0  0  0
  4 26  1  6  0  0  0
  5 11  2  0  0  0  0
  5  6  1  0  0  0  0
  6  7  2  0  0  0  0
  7 21  1  0  0  0  0
  8 15  1  0  0  0  0
  8 16  2  0  0  0  0
  9 19  1  0  0  0  0
 10 18  1  0  0  0  0
 11 20  1  0  0  0  0
 13 14  1  0  0  0  0
 13 12  2  0  0  0  0
 15 13  1  1  0  0  0
 17 19  2  0  0  0  0
 17 15  1  0  0  0  0
 18  2  1  0  0  0  0
 18  9  2  0  0  0  0
 20 21  2  0  0  0  0
 20  2  1  0  0  0  0
 21  8  1  0  0  0  0
 22  6  1  0  0  0  0
 23 11  1  0  0  0  0
 23 10  1  0  0  0  0
 24 23  1  0  0  0  0
 25  1  1  0  0  0  0
 27  4  1  0  0  0  0
 27 25  1  0  0  0  0
 27 28  1  6  0  0  0
 29 28  1  0  0  0  0
 30 28  1  0  0  0  0
M  END
>  <CHROM.1>
67.72696356,1.38372140,-36.17195364,149.78573540,151.27988365,25.52984139
39.92110794,22.19343037,0.94239421,-0.49093399,-2.27187744

>  <Name>
lig.pdb

>  <RI>
0

>  <Rbt.Current_Directory>
/home/itssahil/PROJECTS/Mol_Feturizer/New_Systems/rnas/6bfb

>  <Rbt.Executable>
rbdock ($Id: //depot/dev/client3/rdock/2013.1/src/exe/rbdock.cxx#4 $)

>  <Rbt.Library>
libRbt.so (2013.1, Build901 2013/11/27)

>  <Rbt.Parameter_File>
/export/apps/rDock/src/rDock_2013.1_src/data/scripts/dock_solv.prm

>  <Rbt.Receptor>
prm/blind_docking_100.prm

>  <SCORE>
-30.5985

>  <SCORE.INTER>
-27.8287

>  <SCORE.INTER.CONST>
1

>  <SCORE.INTER.POLAR>
-0.959166

>  <SCORE.INTER.ROT>
3

>  <SCORE.INTER.SOLV>
12.2092

>  <SCORE.INTER.VDW>
-25.0249

>  <SCORE.INTER.norm>
-0.927623

>  <SCORE.INTRA>
-2.76982

>  <SCORE.INTRA.DIHEDRAL>
-3.4194

>  <SCORE.INTRA.DIHEDRAL.0>
9.41909

>  <SCORE.INTRA.POLAR>
0

>  <SCORE.INTRA.POLAR.0>
0

>  <SCORE.INTRA.REPUL>
0

>  <SCORE.INTRA.REPUL.0>
0

>  <SCORE.INTRA.SOLV>
0.0148655

>  <SCORE.INTRA.SOLV.lig_0>
-26.2491

>  <SCORE.INTRA.VDW>
-1.06756

>  <SCORE.INTRA.VDW.0>
2.57239

>  <SCORE.INTRA.norm>
-0.0923275

>  <SCORE.RESTR>
0

>  <SCORE.RESTR.CAVITY>
0

>  <SCORE.RESTR.norm>
0

>  <SCORE.SYSTEM>
0

>  <SCORE.SYSTEM.CONST>
0

>  <SCORE.SYSTEM.DIHEDRAL>
0

>  <SCORE.SYSTEM.SOLV>
0

>  <SCORE.SYSTEM.norm>
0

>  <SCORE.heavy>
30

>  <SCORE.norm>
-1.01995

>  <RMSD>
2.826

$$$$
lig.pdb
 OpenBabel11021811523D
libRbt.so/2013.1/901 2013/11/27
 30 34  0  0  0  0  0  0  0  0999 V2000
   24.2708   36.4125   19.8565 N   0  0  0  0  0  0  0  0  0  0  0  0
   26.8291   39.5971   22.6530 N   0  0  0  0  0  0  0  0  0  0  0  0
   23.7615   36.8439   18.5511 C   0  0  0  0  0  0  0  0  0  0  0  0
   24.0577   35.6277   17.6865 C   0  0  2  0  0  0  0  0  0  0  0  0
   24.3400   37.3526   20.9695 C   0  0  0  0  0  0  0  0  0  0  0  0
   23.2447   37.6562   21.8037 C   0  0  0  0  0  0  0  0  0  0  0  0
   23.2987   38.5615   22.8340 C   0  0  0  0  0  0  0  0  0  0  0  0
   24.5291   40.2628   24.1851 C   0  0  0  0  0  0  0  0  0  0  0  0
   29.0697   39.8933   22.5318 C   0  0  0  0  0  0  0  0  0  0  0  0
   27.9295   38.0029   21.1725 C   0  0  0  0  0  0  0  0  0  0  0  0
   25.5585   38.0300   21.2569 C   0  0  0  0  0  0  0  0  0  0  0  0
   25.4409   41.8790   26.5216 O   0  0  0  0  0  0  0  0  0  0  0  0
   25.9370   42.0244   25.4023 C   0  0  0  0  0  0  0  0  0  0  0  0
   26.5697   43.1338   25.0404 O   0  0  0  0  0  0  0  0  0  0  0  0
   25.8319   40.9514   24.3780 C   0  0  1  0  0  0  0  0  0  0  0  0
   23.5447   40.4861   24.8979 O   0  0  0  0  0  0  0  0  0  0  0  0
   26.9598   40.5903   23.6208 C   0  0  0  0  0  0  0  0  0  0  0  0
   28.0340   39.1910   22.0624 C   0  0  0  0  0  0  0  0  0  0  0  0
   28.6110   41.0396   23.7221 S   0  0  0  0  0  0  0  0  0  0  0  0
   25.6211   38.9458   22.3316 C   0  0  0  0  0  0  0  0  0  0  0  0
   24.4876   39.2385   23.1055 C   0  0  0  0  0  0  0  0  0  0  0  0
   22.0786   37.0089   21.6069 F   0  0  0  0  0  0  0  0  0  0  0  0
   26.6854   37.8490   20.4399 N   0  0  0  0  0  0  0  0  0  0  0  0
   26.5756   38.6253   19.2233 C   0  0  0  0  0  0  0  0  0  0  0  0
   25.2286   35.3207   19.7218 C   0  0  0  0  0  0  0  0  0  0  0  0
   22.8734   35.1182   17.0720 O   0  0  0  0  0  0  0  0  0  0  0  0
   24.5377   34.5253   18.6269 C   0  0  2  0  0  0  0  0  0  0  0  0
   25.3839   33.5950   17.8554 N   0  0  0  0  0  0  0  0  0  0  0  0
   26.6537   34.1599   17.3637 C   0  0  0  0  0  0  0  0  0  0  0  0
   25.5688   32.2948   18.5179 C   0  0  0  0  0  0  0  0  0  0  0  0
  1  5  1  0  0  0  0
  2 17  1  0  0  0  0
  3  1  1  0  0  0  0
  4  3  1  0  0  0  0
  4 26  1  1  0  0  0
  5 11  2  0  0  0  0
  5  6  1  0  0  0  0
  6  7  2  0  0  0  0
  7 21  1  0  0  0  0
  8 15  1  0  0  0  0
  8 16  2  0  0  0  0
  9 19  1  0  0  0  0
 10 18  1  0  0  0  0
 11 20  1  0  0  0  0
 13 14  1  0  0  0  0
 13 12  2  0  0  0  0
 15 13  1  1  0  0  0
 17 19  2  0  0  0  0
 17 15  1  0  0  0  0
 18  2  1  0  0  0  0
 18  9  2  0  0  0  0
 20 21  2  0  0  0  0
 20  2  1  0  0  0  0
 21  8  1  0  0  0  0
 22  6  1  0  0  0  0
 23 11  1  0  0  0  0
 23 10  1  0  0  0  0
 24 23  1  0  0  0  0
 25  1  1  0  0  0  0
 27  4  1  0  0  0  0
 27 25  1  0  0  0  0
 27 28  1  6  0  0  0
 29 28  1  0  0  0  0
 30 28  1  0  0  0  0
M  END
>  <CHROM.1>
83.07128099,0.41994943,44.23567734,79.40126279,66.30090536,25.53241682,38.22693575
21.55561032,1.77043174,-0.17333116,-2.34306671

>  <Name>
lig.pdb

>  <RI>
0

>  <Rbt.Current_Directory>
/home/itssahil/PROJECTS/Mol_Feturizer/New_Systems/rnas/6bfb

>  <Rbt.Executable>
rbdock ($Id: //depot/dev/client3/rdock/2013.1/src/exe/rbdock.cxx#4 $)

>  <Rbt.Library>
libRbt.so (2013.1, Build901 2013/11/27)

>  <Rbt.Parameter_File>
/export/apps/rDock/src/rDock_2013.1_src/data/scripts/dock_solv.prm

>  <Rbt.Receptor>
prm/pocket_docking_8.prm

>  <SCORE>
-38.9078

>  <SCORE.INTER>
-33.2497

>  <SCORE.INTER.CONST>
1

>  <SCORE.INTER.POLAR>
-0.837547

>  <SCORE.INTER.ROT>
3

>  <SCORE.INTER.SOLV>
14.2586

>  <SCORE.INTER.VDW>
-29.7275

>  <SCORE.INTER.norm>
-1.10832

>  <SCORE.INTRA>
-5.65808

>  <SCORE.INTRA.DIHEDRAL>
-5.85572

>  <SCORE.INTRA.DIHEDRAL.0>
9.41909

>  <SCORE.INTRA.POLAR>
0

>  <SCORE.INTRA.POLAR.0>
0

>  <SCORE.INTRA.REPUL>
0

>  <SCORE.INTRA.REPUL.0>
0

>  <SCORE.INTRA.SOLV>
-0.134294

>  <SCORE.INTRA.SOLV.lig_0>
-26.2491

>  <SCORE.INTRA.VDW>
-2.66308

>  <SCORE.INTRA.VDW.0>
2.57239

>  <SCORE.INTRA.norm>
-0.188603

>  <SCORE.RESTR>
0

>  <SCORE.RESTR.CAVITY>
0

>  <SCORE.RESTR.norm>
0

>  <SCORE.SYSTEM>
0

>  <SCORE.SYSTEM.CONST>
0

>  <SCORE.SYSTEM.DIHEDRAL>
0

>  <SCORE.SYSTEM.SOLV>
0

>  <SCORE.SYSTEM.norm>
0

>  <SCORE.heavy>
30

>  <SCORE.norm>
-1.29693

>  <RMSD>
2.880

$$$$
lig.pdb
 OpenBabel11021811523D
libRbt.so/2013.1/901 2013/11/27
 30 34  0  0  0  0  0  0  0  0999 V2000
   24.6633   36.1738   19.4643 N   0  0  0  0  0  0  0  0  0  0  0  0
   26.3002   39.4030   22.8406 N   0  0  0  0  0  0  0  0  0  0  0  0
   24.1112   36.5204   18.1511 C   0  0  0  0  0  0  0  0  0  0  0  0
   24.7658   35.4789   17.2559 C   0  0  2  0  0  0  0  0  0  0  0  0
   24.4248   37.0358   20.6164 C   0  0  0  0  0  0  0  0  0  0  0  0
   23.1710   37.1652   21.2480 C   0  0  0  0  0  0  0  0  0  0  0  0
   22.9365   37.9969   22.3144 C   0  0  0  0  0  0  0  0  0  0  0  0
   23.7031   39.7180   23.9527 C   0  0  0  0  0  0  0  0  0  0  0  0
   28.4775   39.9377   23.1503 C   0  0  0  0  0  0  0  0  0  0  0  0
   27.8221   38.0391   21.5112 C   0  0  0  0  0  0  0  0  0  0  0  0
   25.4868   37.8142   21.1574 C   0  0  0  0  0  0  0  0  0  0  0  0
   24.7566   42.7330   25.2605 O   0  0  0  0  0  0  0  0  0  0  0  0
   24.6602   41.5265   25.4954 C   0  0  0  0  0  0  0  0  0  0  0  0
   24.3915   41.0541   26.7064 O   0  0  0  0  0  0  0  0  0  0  0  0
   24.8630   40.5227   24.4171 C   0  0  1  0  0  0  0  0  0  0  0  0
   22.5885   39.7875   24.4816 O   0  0  0  0  0  0  0  0  0  0  0  0
   26.1416   40.3343   23.8642 C   0  0  0  0  0  0  0  0  0  0  0  0
   27.6295   39.1664   22.4632 C   0  0  0  0  0  0  0  0  0  0  0  0
   27.6857   40.9443   24.2910 S   0  0  0  0  0  0  0  0  0  0  0  0
   25.2515   38.6541   22.2695 C   0  0  0  0  0  0  0  0  0  0  0  0
   23.9723   38.7729   22.8343 C   0  0  0  0  0  0  0  0  0  0  0  0
   22.1407   36.4158   20.8071 F   0  0  0  0  0  0  0  0  0  0  0  0
   26.7544   37.8086   20.5547 N   0  0  0  0  0  0  0  0  0  0  0  0
   26.7748   38.6525   19.3790 C   0  0  0  0  0  0  0  0  0  0  0  0
   25.8884   35.3923   19.3391 C   0  0  0  0  0  0  0  0  0  0  0  0
   23.7936   34.7007   16.5565 O   0  0  0  0  0  0  0  0  0  0  0  0
   25.4892   34.4994   18.1764 C   0  0  2  0  0  0  0  0  0  0  0  0
   26.5899   33.8770   17.4162 N   0  0  0  0  0  0  0  0  0  0  0  0
   27.7118   33.3751   18.2304 C   0  0  0  0  0  0  0  0  0  0  0  0
   26.1267   32.8880   16.4308 C   0  0  0  0  0  0  0  0  0  0  0  0
  1  5  1  0  0  0  0
  2 17  1  0  0  0  0
  3  1  1  0  0  0  0
  4  3  1  0  0  0  0
  4 26  1  1  0  0  0
  5 11  2  0  0  0  0
  5  6  1  0  0  0  0
  6  7  2  0  0  0  0
  7 21  1  0  0  0  0
  8 15  1  0  0  0  0
  8 16  2  0  0  0  0
  9 19  1  0  0  0  0
 10 18  1  0  0  0  0
 11 20  1  0  0  0  0
 13 14  1  0  0  0  0
 13 12  2  0  0  0  0
 15 13  1  1  0  0  0
 17 19  2  0  0  0  0
 17 15  1  0  0  0  0
 18  2  1  0  0  0  0
 18  9  2  0  0  0  0
 20 21  2  0  0  0  0
 20  2  1  0  0  0  0
 21  8  1  0  0  0  0
 22  6  1  0  0  0  0
 23 11  1  0  0  0  0
 23 10  1  0  0  0  0
 24 23  1  0  0  0  0
 25  1  1  0  0  0  0
 27  4  1  0  0  0  0
 27 25  1  0  0  0  0
 27 28  1  6  0  0  0
 29 28  1  0  0  0  0
 30 28  1  0  0  0  0
M  END
>  <CHROM.1>
70.85442941,-175.94320652,-112.12388928,65.25616004,155.00297808,25.35880726
37.95925283,21.43072002,1.56784294,-0.10684162,-2.29958227

>  <Name>
lig.pdb

>  <RI>
0

>  <Rbt.Current_Directory>
/home/itssahil/PROJECTS/Mol_Feturizer/New_Systems/rnas/6bfb

>  <Rbt.Executable>
rbdock ($Id: //depot/dev/client3/rdock/2013.1/src/exe/rbdock.cxx#4 $)

>  <Rbt.Library>
libRbt.so (2013.1, Build901 2013/11/27)

>  <Rbt.Parameter_File>
/export/apps/rDock/src/rDock_2013.1_src/data/scripts/dock_solv.prm

>  <Rbt.Receptor>
prm/pocket_docking_4.prm

>  <SCORE>
-40.2087

>  <SCORE.INTER>
-35.2658

>  <SCORE.INTER.CONST>
1

>  <SCORE.INTER.POLAR>
-1.81917

>  <SCORE.INTER.ROT>
3

>  <SCORE.INTER.SOLV>
14.5464

>  <SCORE.INTER.VDW>
-27.8954

>  <SCORE.INTER.norm>
-1.17553

>  <SCORE.INTRA>
-4.94291

>  <SCORE.INTRA.DIHEDRAL>
-6.98615

>  <SCORE.INTRA.DIHEDRAL.0>
9.41909

>  <SCORE.INTRA.POLAR>
0

>  <SCORE.INTRA.POLAR.0>
0

>  <SCORE.INTRA.REPUL>
0

>  <SCORE.INTRA.REPUL.0>
0

>  <SCORE.INTRA.SOLV>
-0.0680012

>  <SCORE.INTRA.SOLV.lig_0>
-26.2491

>  <SCORE.INTRA.VDW>
-1.41584

>  <SCORE.INTRA.VDW.0>
2.57239

>  <SCORE.INTRA.norm>
-0.164764

>  <SCORE.RESTR>
0

>  <SCORE.RESTR.CAVITY>
0

>  <SCORE.RESTR.norm>
0

>  <SCORE.SYSTEM>
0

>  <SCORE.SYSTEM.CONST>
0

>  <SCORE.SYSTEM.DIHEDRAL>
0

>  <SCORE.SYSTEM.SOLV>
0

>  <SCORE.SYSTEM.norm>
0

>  <SCORE.heavy>
30

>  <SCORE.norm>
-1.34029

>  <RMSD>
2.922

$$$$
lig.pdb
 OpenBabel11021811523D
libRbt.so/2013.1/901 2013/11/27
 30 34  0  0  0  0  0  0  0  0999 V2000
   27.1534   38.0310   19.9614 N   0  0  0  0  0  0  0  0  0  0  0  0
   25.8401   40.4757   24.0610 N   0  0  0  0  0  0  0  0  0  0  0  0
   26.9590   38.5372   18.5993 C   0  0  0  0  0  0  0  0  0  0  0  0
   28.2771   38.1618   17.9390 C   0  0  2  0  0  0  0  0  0  0  0  0
   26.1787   38.3272   21.0053 C   0  0  0  0  0  0  0  0  0  0  0  0
   24.9050   37.7269   21.0767 C   0  0  0  0  0  0  0  0  0  0  0  0
   23.9747   38.0242   22.0411 C   0  0  0  0  0  0  0  0  0  0  0  0
   23.2381   39.3312   24.0368 C   0  0  0  0  0  0  0  0  0  0  0  0
   27.2445   41.7493   25.2970 C   0  0  0  0  0  0  0  0  0  0  0  0
   28.1604   40.3365   23.3257 C   0  0  0  0  0  0  0  0  0  0  0  0
   26.4864   39.2761   22.0207 C   0  0  0  0  0  0  0  0  0  0  0  0
   21.5641   41.3078   25.6835 O   0  0  0  0  0  0  0  0  0  0  0  0
   22.6412   40.8213   26.0344 C   0  0  0  0  0  0  0  0  0  0  0  0
   22.9838   40.6905   27.3101 O   0  0  0  0  0  0  0  0  0  0  0  0
   23.6353   40.3665   25.0262 C   0  0  1  0  0  0  0  0  0  0  0  0
   22.1384   38.7684   24.0655 O   0  0  0  0  0  0  0  0  0  0  0  0
   24.9347   40.9030   25.0294 C   0  0  0  0  0  0  0  0  0  0  0  0
   27.1513   40.9393   24.2381 C   0  0  0  0  0  0  0  0  0  0  0  0
   25.7523   41.9423   26.1201 S   0  0  0  0  0  0  0  0  0  0  0  0
   25.5376   39.5666   23.0271 C   0  0  0  0  0  0  0  0  0  0  0  0
   24.2689   38.9665   23.0264 C   0  0  0  0  0  0  0  0  0  0  0  0
   24.5779   36.7861   20.1681 F   0  0  0  0  0  0  0  0  0  0  0  0
   27.7007   39.9797   21.9955 N   0  0  0  0  0  0  0  0  0  0  0  0
   27.6532   41.0643   21.0382 C   0  0  0  0  0  0  0  0  0  0  0  0
   28.5683   37.8554   20.2690 C   0  0  0  0  0  0  0  0  0  0  0  0
   28.0742   37.3367   16.7910 O   0  0  0  0  0  0  0  0  0  0  0  0
   29.0383   37.2938   18.9377 C   0  0  2  0  0  0  0  0  0  0  0  0
   30.4800   37.4097   18.6466 N   0  0  0  0  0  0  0  0  0  0  0  0
   30.9415   36.6789   17.4523 C   0  0  0  0  0  0  0  0  0  0  0  0
   30.9677   38.7972   18.6773 C   0  0  0  0  0  0  0  0  0  0  0  0
  1  5  1  0  0  0  0
  2 17  1  0  0  0  0
  3  1  1  0  0  0  0
  4  3  1  0  0  0  0
  4 26  1  6  0  0  0
  5 11  2  0  0  0  0
  5  6  1  0  0  0  0
  6  7  2  0  0  0  0
  7 21  1  0  0  0  0
  8 15  1  0  0  0  0
  8 16  2  0  0  0  0
  9 19  1  0  0  0  0
 10 18  1  0  0  0  0
 11 20  1  0  0  0  0
 13 14  1  0  0  0  0
 13 12  2  0  0  0  0
 15 13  1  1  0  0  0
 17 19  2  0  0  0  0
 17 15  1  0  0  0  0
 18  2  1  0  0  0  0
 18  9  2  0  0  0  0
 20 21  2  0  0  0  0
 20  2  1  0  0  0  0
 21  8  1  0  0  0  0
 22  6  1  0  0  0  0
 23 11  1  0  0  0  0
 23 10  1  0  0  0  0
 24 23  1  0  0  0  0
 25  1  1  0  0  0  0
 27  4  1  0  0  0  0
 27 25  1  0  0  0  0
 27 28  1  6  0  0  0
 29 28  1  0  0  0  0
 30 28  1  0  0  0  0
M  END
>  <CHROM.1>
73.33234625,-174.09753030,-58.11558107,77.55905603,-74.74765978,26.21979339
39.32339592,22.19759638,0.95365816,-0.29378784,-2.17970592

>  <Name>
lig.pdb

>  <RI>
0

>  <Rbt.Current_Directory>
/home/itssahil/PROJECTS/Mol_Feturizer/New_Systems/rnas/6bfb

>  <Rbt.Executable>
rbdock ($Id: //depot/dev/client3/rdock/2013.1/src/exe/rbdock.cxx#4 $)

>  <Rbt.Library>
libRbt.so (2013.1, Build901 2013/11/27)

>  <Rbt.Parameter_File>
/export/apps/rDock/src/rDock_2013.1_src/data/scripts/dock_solv.prm

>  <Rbt.Receptor>
prm/pocket_docking_8.prm

>  <SCORE>
-38.1729

>  <SCORE.INTER>
-34.3854

>  <SCORE.INTER.CONST>
1

>  <SCORE.INTER.POLAR>
-1.67742

>  <SCORE.INTER.ROT>
3

>  <SCORE.INTER.SOLV>
13.4908

>  <SCORE.INTER.VDW>
-27.4291

>  <SCORE.INTER.norm>
-1.14618

>  <SCORE.INTRA>
-3.78756

>  <SCORE.INTRA.DIHEDRAL>
-6.00222

>  <SCORE.INTRA.DIHEDRAL.0>
9.41909

>  <SCORE.INTRA.POLAR>
0

>  <SCORE.INTRA.POLAR.0>
0

>  <SCORE.INTRA.REPUL>
0

>  <SCORE.INTRA.REPUL.0>
0

>  <SCORE.INTRA.SOLV>
0.0517431

>  <SCORE.INTRA.SOLV.lig_0>
-26.2491

>  <SCORE.INTRA.VDW>
-0.812323

>  <SCORE.INTRA.VDW.0>
2.57239

>  <SCORE.INTRA.norm>
-0.126252

>  <SCORE.RESTR>
0

>  <SCORE.RESTR.CAVITY>
0

>  <SCORE.RESTR.norm>
0

>  <SCORE.SYSTEM>
0

>  <SCORE.SYSTEM.CONST>
0

>  <SCORE.SYSTEM.DIHEDRAL>
0

>  <SCORE.SYSTEM.SOLV>
0

>  <SCORE.SYSTEM.norm>
0

>  <SCORE.heavy>
30

>  <SCORE.norm>
-1.27243

>  <RMSD>
2.922

$$$$
lig.pdb
 OpenBabel11021811523D
libRbt.so/2013.1/901 2013/11/27
 30 34  0  0  0  0  0  0  0  0999 V2000
   24.6938   36.1452   19.4588 N   0  0  0  0  0  0  0  0  0  0  0  0
   26.3207   39.3755   22.8390 N   0  0  0  0  0  0  0  0  0  0  0  0
   24.1150   36.4690   18.1513 C   0  0  0  0  0  0  0  0  0  0  0  0
   24.7814   35.4369   17.2541 C   0  0  2  0  0  0  0  0  0  0  0  0
   24.4513   37.0097   20.6083 C   0  0  0  0  0  0  0  0  0  0  0  0
   23.1943   37.1434   21.2327 C   0  0  0  0  0  0  0  0  0  0  0  0
   22.9562   37.9774   22.2965 C   0  0  0  0  0  0  0  0  0  0  0  0
   23.7183   39.6991   23.9363 C   0  0  0  0  0  0  0  0  0  0  0  0
   28.4977   39.9049   23.1599 C   0  0  0  0  0  0  0  0  0  0  0  0
   27.8463   38.0054   21.5202 C   0  0  0  0  0  0  0  0  0  0  0  0
   25.5123   37.7861   21.1538 C   0  0  0  0  0  0  0  0  0  0  0  0
   24.7966   42.7123   25.2508 O   0  0  0  0  0  0  0  0  0  0  0  0
   24.6717   41.5076   25.4813 C   0  0  0  0  0  0  0  0  0  0  0  0
   24.3680   41.0388   26.6855 O   0  0  0  0  0  0  0  0  0  0  0  0
   24.8778   40.5015   24.4057 C   0  0  1  0  0  0  0  0  0  0  0  0
   22.6010   39.7725   24.4589 O   0  0  0  0  0  0  0  0  0  0  0  0
   26.1589   40.3088   23.8602 C   0  0  0  0  0  0  0  0  0  0  0  0
   27.6514   39.1347   22.4694 C   0  0  0  0  0  0  0  0  0  0  0  0
   27.7023   40.9154   24.2946 S   0  0  0  0  0  0  0  0  0  0  0  0
   25.2732   38.6285   22.2633 C   0  0  0  0  0  0  0  0  0  0  0  0
   23.9912   38.7515   22.8208 C   0  0  0  0  0  0  0  0  0  0  0  0
   22.1645   36.3961   20.7874 F   0  0  0  0  0  0  0  0  0  0  0  0
   26.7832   37.7761   20.5582 N   0  0  0  0  0  0  0  0  0  0  0  0
   26.8123   38.6182   19.3813 C   0  0  0  0  0  0  0  0  0  0  0  0
   25.9353   35.3920   19.3215 C   0  0  0  0  0  0  0  0  0  0  0  0
   23.8182   34.6308   16.5742 O   0  0  0  0  0  0  0  0  0  0  0  0
   25.5409   34.4815   18.1709 C   0  0  2  0  0  0  0  0  0  0  0  0
   26.6452   33.8799   17.3993 N   0  0  0  0  0  0  0  0  0  0  0  0
   27.7931   33.4168   18.2001 C   0  0  0  0  0  0  0  0  0  0  0  0
   26.1925   32.8680   16.4324 C   0  0  0  0  0  0  0  0  0  0  0  0
  1  5  1  0  0  0  0
  2 17  1  0  0  0  0
  3  1  1  0  0  0  0
  4  3  1  0  0  0  0
  4 26  1  1  0  0  0
  5 11  2  0  0  0  0
  5  6  1  0  0  0  0
  6  7  2  0  0  0  0
  7 21  1  0  0  0  0
  8 15  1  0  0  0  0
  8 16  2  0  0  0  0
  9 19  1  0  0  0  0
 10 18  1  0  0  0  0
 11 20  1  0  0  0  0
 13 14  1  0  0  0  0
 13 12  2  0  0  0  0
 15 13  1  1  0  0  0
 17 19  2  0  0  0  0
 17 15  1  0  0  0  0
 18  2  1  0  0  0  0
 18  9  2  0  0  0  0
 20 21  2  0  0  0  0
 20  2  1  0  0  0  0
 21  8  1  0  0  0  0
 22  6  1  0  0  0  0
 23 11  1  0  0  0  0
 23 10  1  0  0  0  0
 24 23  1  0  0  0  0
 25  1  1  0  0  0  0
 27  4  1  0  0  0  0
 27 25  1  0  0  0  0
 27 28  1  6  0  0  0
 29 28  1  0  0  0  0
 30 28  1  0  0  0  0
M  END
>  <CHROM.1>
68.93670142,-176.54533683,-113.46350540,66.17203637,154.70746039,25.38484768
37.93552476,21.42403507,1.56449185,-0.10382783,-2.29986579

>  <Name>
lig.pdb

>  <RI>
0

>  <Rbt.Current_Directory>
/home/itssahil/PROJECTS/Mol_Feturizer/New_Systems/rnas/6bfb

>  <Rbt.Executable>
rbdock ($Id: //depot/dev/client3/rdock/2013.1/src/exe/rbdock.cxx#4 $)

>  <Rbt.Library>
libRbt.so (2013.1, Build901 2013/11/27)

>  <Rbt.Parameter_File>
/export/apps/rDock/src/rDock_2013.1_src/data/scripts/dock_solv.prm

>  <Rbt.Receptor>
prm/blind_docking_100.prm

>  <SCORE>
-40.1823

>  <SCORE.INTER>
-35.3962

>  <SCORE.INTER.CONST>
1

>  <SCORE.INTER.POLAR>
-1.81836

>  <SCORE.INTER.ROT>
3

>  <SCORE.INTER.SOLV>
14.5353

>  <SCORE.INTER.VDW>
-27.9814

>  <SCORE.INTER.norm>
-1.17987

>  <SCORE.INTRA>
-4.78606

>  <SCORE.INTRA.DIHEDRAL>
-6.94913

>  <SCORE.INTRA.DIHEDRAL.0>
9.41909

>  <SCORE.INTRA.POLAR>
0

>  <SCORE.INTRA.POLAR.0>
0

>  <SCORE.INTRA.REPUL>
0

>  <SCORE.INTRA.REPUL.0>
0

>  <SCORE.INTRA.SOLV>
-0.0653023

>  <SCORE.INTRA.SOLV.lig_0>
-26.2491

>  <SCORE.INTRA.VDW>
-1.27885

>  <SCORE.INTRA.VDW.0>
2.57239

>  <SCORE.INTRA.norm>
-0.159535

>  <SCORE.RESTR>
0

>  <SCORE.RESTR.CAVITY>
0

>  <SCORE.RESTR.norm>
0

>  <SCORE.SYSTEM>
0

>  <SCORE.SYSTEM.CONST>
0

>  <SCORE.SYSTEM.DIHEDRAL>
0

>  <SCORE.SYSTEM.SOLV>
0

>  <SCORE.SYSTEM.norm>
0

>  <SCORE.heavy>
30

>  <SCORE.norm>
-1.33941

>  <RMSD>
2.939

$$$$
lig.pdb
 OpenBabel11021811523D
libRbt.so/2013.1/901 2013/11/27
 30 34  0  0  0  0  0  0  0  0999 V2000
   24.0424   36.3756   20.0145 N   0  0  0  0  0  0  0  0  0  0  0  0
   26.8303   39.5715   22.5682 N   0  0  0  0  0  0  0  0  0  0  0  0
   23.2301   36.6907   18.8354 C   0  0  0  0  0  0  0  0  0  0  0  0
   23.5204   35.5008   17.9331 C   0  0  2  0  0  0  0  0  0  0  0  0
   24.1947   37.3508   21.0884 C   0  0  0  0  0  0  0  0  0  0  0  0
   23.1515   37.7177   21.9630 C   0  0  0  0  0  0  0  0  0  0  0  0
   23.2835   38.6558   22.9562 C   0  0  0  0  0  0  0  0  0  0  0  0
   24.6297   40.3626   24.1844 C   0  0  0  0  0  0  0  0  0  0  0  0
   29.0701   39.7918   22.3286 C   0  0  0  0  0  0  0  0  0  0  0  0
   27.8078   37.8930   21.0946 C   0  0  0  0  0  0  0  0  0  0  0  0
   25.4457   37.9985   21.2922 C   0  0  0  0  0  0  0  0  0  0  0  0
   26.6090   43.2062   24.9128 O   0  0  0  0  0  0  0  0  0  0  0  0
   26.1483   42.1193   25.2682 C   0  0  0  0  0  0  0  0  0  0  0  0
   25.8128   41.8632   26.5267 O   0  0  0  0  0  0  0  0  0  0  0  0
   25.9605   41.0155   24.2894 C   0  0  1  0  0  0  0  0  0  0  0  0
   23.6887   40.6415   24.9353 O   0  0  0  0  0  0  0  0  0  0  0  0
   27.0384   40.5928   23.4922 C   0  0  0  0  0  0  0  0  0  0  0  0
   27.9918   39.1071   21.9352 C   0  0  0  0  0  0  0  0  0  0  0  0
   28.7053   40.9925   23.4976 S   0  0  0  0  0  0  0  0  0  0  0  0
   25.5888   38.9484   22.3290 C   0  0  0  0  0  0  0  0  0  0  0  0
   24.5041   39.3035   23.1456 C   0  0  0  0  0  0  0  0  0  0  0  0
   21.9581   37.1015   21.8460 F   0  0  0  0  0  0  0  0  0  0  0  0
   26.5250   37.7536   20.4289 N   0  0  0  0  0  0  0  0  0  0  0  0
   26.3789   38.4907   19.1919 C   0  0  0  0  0  0  0  0  0  0  0  0
   25.1004   35.4237   19.6952 C   0  0  0  0  0  0  0  0  0  0  0  0
   22.3232   34.8127   17.5685 O   0  0  0  0  0  0  0  0  0  0  0  0
   24.3281   34.5060   18.7626 C   0  0  2  0  0  0  0  0  0  0  0  0
   25.1296   33.6784   17.8410 N   0  0  0  0  0  0  0  0  0  0  0  0
   26.2071   34.3910   17.1308 C   0  0  0  0  0  0  0  0  0  0  0  0
   25.5942   32.4210   18.4466 C   0  0  0  0  0  0  0  0  0  0  0  0
  1  5  1  0  0  0  0
  2 17  1  0  0  0  0
  3  1  1  0  0  0  0
  4  3  1  0  0  0  0
  4 26  1  1  0  0  0
  5 11  2  0  0  0  0
  5  6  1  0  0  0  0
  6  7  2  0  0  0  0
  7 21  1  0  0  0  0
  8 15  1  0  0  0  0
  8 16  2  0  0  0  0
  9 19  1  0  0  0  0
 10 18  1  0  0  0  0
 11 20  1  0  0  0  0
 13 14  1  0  0  0  0
 13 12  2  0  0  0  0
 15 13  1  1  0  0  0
 17 19  2  0  0  0  0
 17 15  1  0  0  0  0
 18  2  1  0  0  0  0
 18  9  2  0  0  0  0
 20 21  2  0  0  0  0
 20  2  1  0  0  0  0
 21  8  1  0  0  0  0
 22  6  1  0  0  0  0
 23 11  1  0  0  0  0
 23 10  1  0  0  0  0
 24 23  1  0  0  0  0
 25  1  1  0  0  0  0
 27  4  1  0  0  0  0
 27 25  1  0  0  0  0
 27 28  1  6  0  0  0
 29 28  1  0  0  0  0
 30 28  1  0  0  0  0
M  END
>  <CHROM.1>
69.86379398,-175.84434508,-127.10407041,176.77210496,67.84167767,25.44460307
38.21682935,21.56924100,1.81961729,-0.19073820,-2.34620092

>  <Name>
lig.pdb

>  <RI>
0

>  <Rbt.Current_Directory>
/home/itssahil/PROJECTS/Mol_Feturizer/New_Systems/rnas/6bfb

>  <Rbt.Executable>
rbdock ($Id: //depot/dev/client3/rdock/2013.1/src/exe/rbdock.cxx#4 $)

>  <Rbt.Library>
libRbt.so (2013.1, Build901 2013/11/27)

>  <Rbt.Parameter_File>
/export/apps/rDock/src/rDock_2013.1_src/data/scripts/dock_solv.prm

>  <Rbt.Receptor>
prm/pocket_docking_7.prm

>  <SCORE>
-36.4566

>  <SCORE.INTER>
-31.0258

>  <SCORE.INTER.CONST>
1

>  <SCORE.INTER.POLAR>
-0.204353

>  <SCORE.INTER.ROT>
3

>  <SCORE.INTER.SOLV>
14.3055

>  <SCORE.INTER.VDW>
-30.3712

>  <SCORE.INTER.norm>
-1.03419

>  <SCORE.INTRA>
-5.43082

>  <SCORE.INTRA.DIHEDRAL>
-7.31157

>  <SCORE.INTRA.DIHEDRAL.0>
9.41909

>  <SCORE.INTRA.POLAR>
0

>  <SCORE.INTRA.POLAR.0>
0

>  <SCORE.INTRA.REPUL>
0

>  <SCORE.INTRA.REPUL.0>
0

>  <SCORE.INTRA.SOLV>
-0.076256

>  <SCORE.INTRA.SOLV.lig_0>
-26.2491

>  <SCORE.INTRA.VDW>
-1.73691

>  <SCORE.INTRA.VDW.0>
2.57239

>  <SCORE.INTRA.norm>
-0.181027

>  <SCORE.RESTR>
0

>  <SCORE.RESTR.CAVITY>
0

>  <SCORE.RESTR.norm>
0

>  <SCORE.SYSTEM>
0

>  <SCORE.SYSTEM.CONST>
0

>  <SCORE.SYSTEM.DIHEDRAL>
0

>  <SCORE.SYSTEM.SOLV>
0

>  <SCORE.SYSTEM.norm>
0

>  <SCORE.heavy>
30

>  <SCORE.norm>
-1.21522

>  <RMSD>
2.977

$$$$
lig.pdb
 OpenBabel11021811523D
libRbt.so/2013.1/901 2013/11/27
 30 34  0  0  0  0  0  0  0  0999 V2000
   25.9974   38.8534   19.6550 N   0  0  0  0  0  0  0  0  0  0  0  0
   24.9625   40.6658   24.1440 N   0  0  0  0  0  0  0  0  0  0  0  0
   25.7912   39.8205   18.5725 C   0  0  0  0  0  0  0  0  0  0  0  0
   26.9838   39.5354   17.6721 C   0  0  2  0  0  0  0  0  0  0  0  0
   25.1572   38.8888   20.8468 C   0  0  0  0  0  0  0  0  0  0  0  0
   24.0134   38.0827   21.0194 C   0  0  0  0  0  0  0  0  0  0  0  0
   23.2046   38.1338   22.1272 C   0  0  0  0  0  0  0  0  0  0  0  0
   22.5882   39.1149   24.3388 C   0  0  0  0  0  0  0  0  0  0  0  0
   26.3293   42.0362   25.3173 C   0  0  0  0  0  0  0  0  0  0  0  0
   27.1404   40.9785   23.0937 C   0  0  0  0  0  0  0  0  0  0  0  0
   25.4679   39.7794   21.9128 C   0  0  0  0  0  0  0  0  0  0  0  0
   22.4609   39.9951   27.6873 O   0  0  0  0  0  0  0  0  0  0  0  0
   22.0811   40.2987   26.5543 C   0  0  0  0  0  0  0  0  0  0  0  0
   20.8717   40.7903   26.3145 O   0  0  0  0  0  0  0  0  0  0  0  0
   22.9695   40.1074   25.3771 C   0  0  1  0  0  0  0  0  0  0  0  0
   21.6024   38.3781   24.4504 O   0  0  0  0  0  0  0  0  0  0  0  0
   24.1591   40.8483   25.2671 C   0  0  0  0  0  0  0  0  0  0  0  0
   26.2008   41.3213   24.1954 C   0  0  0  0  0  0  0  0  0  0  0  0
   24.9657   41.9050   26.3493 S   0  0  0  0  0  0  0  0  0  0  0  0
   24.6482   39.8169   23.0636 C   0  0  0  0  0  0  0  0  0  0  0  0
   23.4985   39.0184   23.1647 C   0  0  0  0  0  0  0  0  0  0  0  0
   23.6987   37.1872   20.0621 F   0  0  0  0  0  0  0  0  0  0  0  0
   26.5450   40.6730   21.8052 N   0  0  0  0  0  0  0  0  0  0  0  0
   26.1919   41.8171   20.9922 C   0  0  0  0  0  0  0  0  0  0  0  0
   27.3844   38.4063   19.7147 C   0  0  0  0  0  0  0  0  0  0  0  0
   26.5729   39.1918   16.3481 O   0  0  0  0  0  0  0  0  0  0  0  0
   27.6654   38.2870   18.2262 C   0  0  2  0  0  0  0  0  0  0  0  0
   29.0833   38.3151   17.8197 N   0  0  0  0  0  0  0  0  0  0  0  0
   29.8702   39.4393   18.3585 C   0  0  0  0  0  0  0  0  0  0  0  0
   29.7620   37.0218   17.9948 C   0  0  0  0  0  0  0  0  0  0  0  0
  1  5  1  0  0  0  0
  2 17  1  0  0  0  0
  3  1  1  0  0  0  0
  4  3  1  0  0  0  0
  4 26  1  6  0  0  0
  5 11  2  0  0  0  0
  5  6  1  0  0  0  0
  6  7  2  0  0  0  0
  7 21  1  0  0  0  0
  8 15  1  0  0  0  0
  8 16  2  0  0  0  0
  9 19  1  0  0  0  0
 10 18  1  0  0  0  0
 11 20  1  0  0  0  0
 13 14  1  0  0  0  0
 13 12  2  0  0  0  0
 15 13  1  1  0  0  0
 17 19  2  0  0  0  0
 17 15  1  0  0  0  0
 18  2  1  0  0  0  0
 18  9  2  0  0  0  0
 20 21  2  0  0  0  0
 20  2  1  0  0  0  0
 21  8  1  0  0  0  0
 22  6  1  0  0  0  0
 23 11  1  0  0  0  0
 23 10  1  0  0  0  0
 24 23  1  0  0  0  0
 25  1  1  0  0  0  0
 27  4  1  0  0  0  0
 27 25  1  0  0  0  0
 27 28  1  1  0  0  0
 29 28  1  0  0  0  0
 30 28  1  0  0  0  0
M  END
>  <CHROM.1>
95.85706136,-175.53303451,114.21405462,56.10092106,63.25399049,25.24523791
39.68973958,22.18823233,0.98121368,-0.44912992,-2.08698089

>  <Name>
lig.pdb

>  <RI>
0

>  <Rbt.Current_Directory>
/home/itssahil/PROJECTS/Mol_Feturizer/New_Systems/rnas/6bfb

>  <Rbt.Executable>
rbdock ($Id: //depot/dev/client3/rdock/2013.1/src/exe/rbdock.cxx#4 $)

>  <Rbt.Library>
libRbt.so (2013.1, Build901 2013/11/27)

>  <Rbt.Parameter_File>
/export/apps/rDock/src/rDock_2013.1_src/data/scripts/dock_solv.prm

>  <Rbt.Receptor>
prm/blind_docking_100.prm

>  <SCORE>
-35.4852

>  <SCORE.INTER>
-29.9406

>  <SCORE.INTER.CONST>
1

>  <SCORE.INTER.POLAR>
-1.47943

>  <SCORE.INTER.ROT>
3

>  <SCORE.INTER.SOLV>
14.4477

>  <SCORE.INTER.VDW>
-25.4449

>  <SCORE.INTER.norm>
-0.998021

>  <SCORE.INTRA>
-5.54453

>  <SCORE.INTRA.DIHEDRAL>
-7.42223

>  <SCORE.INTRA.DIHEDRAL.0>
9.41909

>  <SCORE.INTRA.POLAR>
0

>  <SCORE.INTRA.POLAR.0>
0

>  <SCORE.INTRA.REPUL>
0

>  <SCORE.INTRA.REPUL.0>
0

>  <SCORE.INTRA.SOLV>
-0.162094

>  <SCORE.INTRA.SOLV.lig_0>
-26.2491

>  <SCORE.INTRA.VDW>
-1.75237

>  <SCORE.INTRA.VDW.0>
2.57239

>  <SCORE.INTRA.norm>
-0.184818

>  <SCORE.RESTR>
0

>  <SCORE.RESTR.CAVITY>
0

>  <SCORE.RESTR.norm>
0

>  <SCORE.SYSTEM>
0

>  <SCORE.SYSTEM.CONST>
0

>  <SCORE.SYSTEM.DIHEDRAL>
0

>  <SCORE.SYSTEM.SOLV>
0

>  <SCORE.SYSTEM.norm>
0

>  <SCORE.heavy>
30

>  <SCORE.norm>
-1.18284

>  <RMSD>
2.978

$$$$
lig.pdb
 OpenBabel11021811523D
libRbt.so/2013.1/901 2013/11/27
 30 34  0  0  0  0  0  0  0  0999 V2000
   26.5026   36.3509   18.9526 N   0  0  0  0  0  0  0  0  0  0  0  0
   26.2159   39.2883   22.9271 N   0  0  0  0  0  0  0  0  0  0  0  0
   27.6950   35.5437   19.2285 C   0  0  0  0  0  0  0  0  0  0  0  0
   28.0296   35.0041   17.8461 C   0  0  2  0  0  0  0  0  0  0  0  0
   25.7353   36.9330   20.0480 C   0  0  0  0  0  0  0  0  0  0  0  0
   24.3727   36.6551   20.2804 C   0  0  0  0  0  0  0  0  0  0  0  0
   23.6405   37.2230   21.2929 C   0  0  0  0  0  0  0  0  0  0  0  0
   23.4334   38.7893   23.2262 C   0  0  0  0  0  0  0  0  0  0  0  0
   27.9948   40.2706   23.9237 C   0  0  0  0  0  0  0  0  0  0  0  0
   28.3538   38.5610   22.0081 C   0  0  0  0  0  0  0  0  0  0  0  0
   26.3554   37.8447   20.9483 C   0  0  0  0  0  0  0  0  0  0  0  0
   22.7470   39.8947   25.9834 O   0  0  0  0  0  0  0  0  0  0  0  0
   23.4037   40.5003   25.1336 C   0  0  0  0  0  0  0  0  0  0  0  0
   23.4651   41.8256   25.0897 O   0  0  0  0  0  0  0  0  0  0  0  0
   24.1573   39.7620   24.0856 C   0  0  1  0  0  0  0  0  0  0  0  0
   22.2434   38.5040   23.3980 O   0  0  0  0  0  0  0  0  0  0  0  0
   25.5378   39.9766   23.9304 C   0  0  0  0  0  0  0  0  0  0  0  0
   27.6094   39.4404   22.9498 C   0  0  0  0  0  0  0  0  0  0  0  0
   26.6801   40.8607   24.8535 S   0  0  0  0  0  0  0  0  0  0  0  0
   25.6080   38.4129   22.0047 C   0  0  0  0  0  0  0  0  0  0  0  0
   24.2429   38.1295   22.1651 C   0  0  0  0  0  0  0  0  0  0  0  0
   23.7469   35.7626   19.4871 F   0  0  0  0  0  0  0  0  0  0  0  0
   27.6889   38.2397   20.7580 N   0  0  0  0  0  0  0  0  0  0  0  0
   27.7907   39.2427   19.7195 C   0  0  0  0  0  0  0  0  0  0  0  0
   25.8632   35.9497   17.7046 C   0  0  0  0  0  0  0  0  0  0  0  0
   29.3553   35.3584   17.4500 O   0  0  0  0  0  0  0  0  0  0  0  0
   27.1045   35.7137   16.8607 C   0  0  2  0  0  0  0  0  0  0  0  0
   26.9406   34.8499   15.6760 N   0  0  0  0  0  0  0  0  0  0  0  0
   26.2218   33.5850   15.9142 C   0  0  0  0  0  0  0  0  0  0  0  0
   26.4307   35.5707   14.4994 C   0  0  0  0  0  0  0  0  0  0  0  0
  1  5  1  0  0  0  0
  2 17  1  0  0  0  0
  3  1  1  0  0  0  0
  4  3  1  0  0  0  0
  4 26  1  6  0  0  0
  5 11  2  0  0  0  0
  5  6  1  0  0  0  0
  6  7  2  0  0  0  0
  7 21  1  0  0  0  0
  8 15  1  0  0  0  0
  8 16  2  0  0  0  0
  9 19  1  0  0  0  0
 10 18  1  0  0  0  0
 11 20  1  0  0  0  0
 13 14  1  0  0  0  0
 13 12  2  0  0  0  0
 15 13  1  1  0  0  0
 17 19  2  0  0  0  0
 17 15  1  0  0  0  0
 18  2  1  0  0  0  0
 18  9  2  0  0  0  0
 20 21  2  0  0  0  0
 20  2  1  0  0  0  0
 21  8  1  0  0  0  0
 22  6  1  0  0  0  0
 23 11  1  0  0  0  0
 23 10  1  0  0  0  0
 24 23  1  0  0  0  0
 25  1  1  0  0  0  0
 27  4  1  0  0  0  0
 27 25  1  0  0  0  0
 27 28  1  6  0  0  0
 29 28  1  0  0  0  0
 30 28  1  0  0  0  0
M  END
>  <CHROM.1>
-120.65908978,-0.05750086,54.98670153,69.83645769,66.57235874,25.85912181
37.88944060,21.04805128,1.31819118,-0.19237425,-2.19825928

>  <Name>
lig.pdb

>  <RI>
0

>  <Rbt.Current_Directory>
/home/itssahil/PROJECTS/Mol_Feturizer/New_Systems/rnas/6bfb

>  <Rbt.Executable>
rbdock ($Id: //depot/dev/client3/rdock/2013.1/src/exe/rbdock.cxx#4 $)

>  <Rbt.Library>
libRbt.so (2013.1, Build901 2013/11/27)

>  <Rbt.Parameter_File>
/export/apps/rDock/src/rDock_2013.1_src/data/scripts/dock_solv.prm

>  <Rbt.Receptor>
prm/pocket_docking_6.prm

>  <SCORE>
-33.5946

>  <SCORE.INTER>
-27.9941

>  <SCORE.INTER.CONST>
1

>  <SCORE.INTER.POLAR>
-0.834312

>  <SCORE.INTER.ROT>
3

>  <SCORE.INTER.SOLV>
13.1417

>  <SCORE.INTER.VDW>
-25.8623

>  <SCORE.INTER.norm>
-0.933138

>  <SCORE.INTRA>
-5.60043

>  <SCORE.INTRA.DIHEDRAL>
-7.0612

>  <SCORE.INTRA.DIHEDRAL.0>
9.41909

>  <SCORE.INTRA.POLAR>
0

>  <SCORE.INTRA.POLAR.0>
0

>  <SCORE.INTRA.REPUL>
0.0288409

>  <SCORE.INTRA.REPUL.0>
0

>  <SCORE.INTRA.SOLV>
-0.273992

>  <SCORE.INTRA.SOLV.lig_0>
-26.2491

>  <SCORE.INTRA.VDW>
-2.07704

>  <SCORE.INTRA.VDW.0>
2.57239

>  <SCORE.INTRA.norm>
-0.186681

>  <SCORE.RESTR>
0

>  <SCORE.RESTR.CAVITY>
0

>  <SCORE.RESTR.norm>
0

>  <SCORE.SYSTEM>
0

>  <SCORE.SYSTEM.CONST>
0

>  <SCORE.SYSTEM.DIHEDRAL>
0

>  <SCORE.SYSTEM.SOLV>
0

>  <SCORE.SYSTEM.norm>
0

>  <SCORE.heavy>
30

>  <SCORE.norm>
-1.11982

>  <RMSD>
2.985

$$$$
lig.pdb
 OpenBabel11021811523D
libRbt.so/2013.1/901 2013/11/27
 30 34  0  0  0  0  0  0  0  0999 V2000
   27.0865   39.2712   21.1528 N   0  0  0  0  0  0  0  0  0  0  0  0
   24.8910   41.2773   25.1104 N   0  0  0  0  0  0  0  0  0  0  0  0
   28.2903   38.4994   21.4762 C   0  0  0  0  0  0  0  0  0  0  0  0
   29.0597   38.5631   20.1654 C   0  0  2  0  0  0  0  0  0  0  0  0
   25.9726   39.3303   22.0926 C   0  0  0  0  0  0  0  0  0  0  0  0
   24.8516   38.4776   22.0288 C   0  0  0  0  0  0  0  0  0  0  0  0
   23.7887   38.5493   22.8942 C   0  0  0  0  0  0  0  0  0  0  0  0
   22.6008   39.6201   24.8115 C   0  0  0  0  0  0  0  0  0  0  0  0
   25.8686   42.7797   26.4923 C   0  0  0  0  0  0  0  0  0  0  0  0
   27.2506   41.6418   24.6170 C   0  0  0  0  0  0  0  0  0  0  0  0
   25.9730   40.2941   23.1401 C   0  0  0  0  0  0  0  0  0  0  0  0
   20.4105   41.2235   26.2936 O   0  0  0  0  0  0  0  0  0  0  0  0
   21.5105   40.8989   26.7461 C   0  0  0  0  0  0  0  0  0  0  0  0
   21.7284   40.7370   28.0455 O   0  0  0  0  0  0  0  0  0  0  0  0
   22.6728   40.6876   25.8429 C   0  0  1  0  0  0  0  0  0  0  0  0
   21.6455   38.8412   24.7233 O   0  0  0  0  0  0  0  0  0  0  0  0
   23.8247   41.4811   25.9831 C   0  0  0  0  0  0  0  0  0  0  0  0
   26.0522   41.9973   25.4244 C   0  0  0  0  0  0  0  0  0  0  0  0
   24.2948   42.6369   27.1585 S   0  0  0  0  0  0  0  0  0  0  0  0
   24.8892   40.3541   24.0453 C   0  0  0  0  0  0  0  0  0  0  0  0
   23.7802   39.5046   23.9103 C   0  0  0  0  0  0  0  0  0  0  0  0
   24.8201   37.5148   21.0856 F   0  0  0  0  0  0  0  0  0  0  0  0
   27.0100   41.2343   23.2444 N   0  0  0  0  0  0  0  0  0  0  0  0
   26.8325   42.3114   22.2940 C   0  0  0  0  0  0  0  0  0  0  0  0
   26.8715   39.3467   19.7122 C   0  0  0  0  0  0  0  0  0  0  0  0
   30.3588   39.1285   20.3449 O   0  0  0  0  0  0  0  0  0  0  0  0
   28.3099   39.5385   19.2617 C   0  0  2  0  0  0  0  0  0  0  0  0
   28.6117   39.1950   17.8590 N   0  0  0  0  0  0  0  0  0  0  0  0
   27.6789   39.7490   16.8608 C   0  0  0  0  0  0  0  0  0  0  0  0
   30.0192   39.4222   17.4968 C   0  0  0  0  0  0  0  0  0  0  0  0
  1  5  1  0  0  0  0
  2 17  1  0  0  0  0
  3  1  1  0  0  0  0
  4  3  1  0  0  0  0
  4 26  1  1  0  0  0
  5 11  2  0  0  0  0
  5  6  1  0  0  0  0
  6  7  2  0  0  0  0
  7 21  1  0  0  0  0
  8 15  1  0  0  0  0
  8 16  2  0  0  0  0
  9 19  1  0  0  0  0
 10 18  1  0  0  0  0
 11 20  1  0  0  0  0
 13 14  1  0  0  0  0
 13 12  2  0  0  0  0
 15 13  1  1  0  0  0
 17 19  2  0  0  0  0
 17 15  1  0  0  0  0
 18  2  1  0  0  0  0
 18  9  2  0  0  0  0
 20 21  2  0  0  0  0
 20  2  1  0  0  0  0
 21  8  1  0  0  0  0
 22  6  1  0  0  0  0
 23 11  1  0  0  0  0
 23 10  1  0  0  0  0
 24 23  1  0  0  0  0
 25  1  1  0  0  0  0
 27  4  1  0  0  0  0
 27 25  1  0  0  0  0
 27 28  1  6  0  0  0
 29 28  1  0  0  0  0
 30 28  1  0  0  0  0
M  END
>  <CHROM.1>
-95.13009550,-173.91864122,-61.57957319,-70.43544984,162.25714729,25.53398959
40.20931814,23.12166353,0.85230488,-0.42914015,-2.18395342

>  <Name>
lig.pdb

>  <RI>
0

>  <Rbt.Current_Directory>
/home/itssahil/PROJECTS/Mol_Feturizer/New_Systems/rnas/6bfb

>  <Rbt.Executable>
rbdock ($Id: //depot/dev/client3/rdock/2013.1/src/exe/rbdock.cxx#4 $)

>  <Rbt.Library>
libRbt.so (2013.1, Build901 2013/11/27)

>  <Rbt.Parameter_File>
/export/apps/rDock/src/rDock_2013.1_src/data/scripts/dock_solv.prm

>  <Rbt.Receptor>
prm/pocket_docking_6.prm

>  <SCORE>
-32.1105

>  <SCORE.INTER>
-27.5719

>  <SCORE.INTER.CONST>
1

>  <SCORE.INTER.POLAR>
-1.16123

>  <SCORE.INTER.ROT>
3

>  <SCORE.INTER.SOLV>
13.5854

>  <SCORE.INTER.VDW>
-24.6389

>  <SCORE.INTER.norm>
-0.919062

>  <SCORE.INTRA>
-4.53864

>  <SCORE.INTRA.DIHEDRAL>
-6.78505

>  <SCORE.INTRA.DIHEDRAL.0>
9.41909

>  <SCORE.INTRA.POLAR>
0

>  <SCORE.INTRA.POLAR.0>
0

>  <SCORE.INTRA.REPUL>
0.085667

>  <SCORE.INTRA.REPUL.0>
0

>  <SCORE.INTRA.SOLV>
-0.245173

>  <SCORE.INTRA.SOLV.lig_0>
-26.2491

>  <SCORE.INTRA.VDW>
-1.45186

>  <SCORE.INTRA.VDW.0>
2.57239

>  <SCORE.INTRA.norm>
-0.151288

>  <SCORE.RESTR>
0

>  <SCORE.RESTR.CAVITY>
0

>  <SCORE.RESTR.norm>
0

>  <SCORE.SYSTEM>
0

>  <SCORE.SYSTEM.CONST>
0

>  <SCORE.SYSTEM.DIHEDRAL>
0

>  <SCORE.SYSTEM.SOLV>
0

>  <SCORE.SYSTEM.norm>
0

>  <SCORE.heavy>
30

>  <SCORE.norm>
-1.07035

>  <RMSD>
3.000

$$$$
lig.pdb
 OpenBabel11021811523D
libRbt.so/2013.1/901 2013/11/27
 30 34  0  0  0  0  0  0  0  0999 V2000
   27.3331   38.0804   19.8125 N   0  0  0  0  0  0  0  0  0  0  0  0
   26.0248   40.4095   23.9804 N   0  0  0  0  0  0  0  0  0  0  0  0
   27.0906   38.5520   18.4457 C   0  0  0  0  0  0  0  0  0  0  0  0
   28.4156   38.2338   17.7694 C   0  0  2  0  0  0  0  0  0  0  0  0
   26.3613   38.3439   20.8679 C   0  0  0  0  0  0  0  0  0  0  0  0
   25.0910   37.7354   20.9286 C   0  0  0  0  0  0  0  0  0  0  0  0
   24.1633   38.0025   21.9043 C   0  0  0  0  0  0  0  0  0  0  0  0
   23.4285   39.2527   23.9368 C   0  0  0  0  0  0  0  0  0  0  0  0
   27.4280   41.6574   25.2438 C   0  0  0  0  0  0  0  0  0  0  0  0
   28.3427   40.3017   23.2322 C   0  0  0  0  0  0  0  0  0  0  0  0
   26.6685   39.2674   21.9066 C   0  0  0  0  0  0  0  0  0  0  0  0
   21.8805   41.4082   25.6710 O   0  0  0  0  0  0  0  0  0  0  0  0
   22.8326   40.6866   25.9753 C   0  0  0  0  0  0  0  0  0  0  0  0
   23.0394   40.2629   27.2162 O   0  0  0  0  0  0  0  0  0  0  0  0
   23.8248   40.2636   24.9515 C   0  0  1  0  0  0  0  0  0  0  0  0
   22.3318   38.6836   23.9552 O   0  0  0  0  0  0  0  0  0  0  0  0
   25.1214   40.8065   24.9635 C   0  0  0  0  0  0  0  0  0  0  0  0
   27.3344   40.8750   24.1643 C   0  0  0  0  0  0  0  0  0  0  0  0
   25.9384   41.8210   26.0778 S   0  0  0  0  0  0  0  0  0  0  0  0
   25.7225   39.5264   22.9242 C   0  0  0  0  0  0  0  0  0  0  0  0
   24.4569   38.9200   22.9129 C   0  0  0  0  0  0  0  0  0  0  0  0
   24.7648   36.8172   19.9969 F   0  0  0  0  0  0  0  0  0  0  0  0
   27.8792   39.9777   21.8949 N   0  0  0  0  0  0  0  0  0  0  0  0
   27.8221   41.0868   20.9668 C   0  0  0  0  0  0  0  0  0  0  0  0
   28.7600   37.9835   20.0988 C   0  0  0  0  0  0  0  0  0  0  0  0
   28.2373   37.3794   16.6388 O   0  0  0  0  0  0  0  0  0  0  0  0
   29.2369   37.4238   18.7692 C   0  0  2  0  0  0  0  0  0  0  0  0
   30.6658   37.6089   18.4517 N   0  0  0  0  0  0  0  0  0  0  0  0
   31.1324   36.9275   17.2305 C   0  0  0  0  0  0  0  0  0  0  0  0
   31.0941   39.0151   18.5066 C   0  0  0  0  0  0  0  0  0  0  0  0
  1  5  1  0  0  0  0
  2 17  1  0  0  0  0
  3  1  1  0  0  0  0
  4  3  1  0  0  0  0
  4 26  1  6  0  0  0
  5 11  2  0  0  0  0
  5  6  1  0  0  0  0
  6  7  2  0  0  0  0
  7 21  1  0  0  0  0
  8 15  1  0  0  0  0
  8 16  2  0  0  0  0
  9 19  1  0  0  0  0
 10 18  1  0  0  0  0
 11 20  1  0  0  0  0
 13 14  1  0  0  0  0
 13 12  2  0  0  0  0
 15 13  1  1  0  0  0
 17 19  2  0  0  0  0
 17 15  1  0  0  0  0
 18  2  1  0  0  0  0
 18  9  2  0  0  0  0
 20 21  2  0  0  0  0
 20  2  1  0  0  0  0
 21  8  1  0  0  0  0
 22  6  1  0  0  0  0
 23 11  1  0  0  0  0
 23 10  1  0  0  0  0
 24 23  1  0  0  0  0
 25  1  1  0  0  0  0
 27  4  1  0  0  0  0
 27 25  1  0  0  0  0
 27 28  1  6  0  0  0
 29 28  1  0  0  0  0
 30 28  1  0  0  0  0
M  END
>  <CHROM.1>
69.61275046,-179.20283888,-72.58001051,79.88296326,-72.31874962,26.39903831
39.31418447,22.08264142,0.95172533,-0.31048115,-2.15547243

>  <Name>
lig.pdb

>  <RI>
0

>  <Rbt.Current_Directory>
/home/itssahil/PROJECTS/Mol_Feturizer/New_Systems/rnas/6bfb

>  <Rbt.Executable>
rbdock ($Id: //depot/dev/client3/rdock/2013.1/src/exe/rbdock.cxx#4 $)

>  <Rbt.Library>
libRbt.so (2013.1, Build901 2013/11/27)

>  <Rbt.Parameter_File>
/export/apps/rDock/src/rDock_2013.1_src/data/scripts/dock_solv.prm

>  <Rbt.Receptor>
prm/blind_docking_80.prm

>  <SCORE>
-37.9907

>  <SCORE.INTER>
-34.4015

>  <SCORE.INTER.CONST>
1

>  <SCORE.INTER.POLAR>
-2.0292

>  <SCORE.INTER.ROT>
3

>  <SCORE.INTER.SOLV>
13.6228

>  <SCORE.INTER.VDW>
-26.3112

>  <SCORE.INTER.norm>
-1.14672

>  <SCORE.INTRA>
-3.58927

>  <SCORE.INTRA.DIHEDRAL>
-5.92081

>  <SCORE.INTRA.DIHEDRAL.0>
9.41909

>  <SCORE.INTRA.POLAR>
0

>  <SCORE.INTRA.POLAR.0>
0

>  <SCORE.INTRA.REPUL>
0

>  <SCORE.INTRA.REPUL.0>
0

>  <SCORE.INTRA.SOLV>
0.0519443

>  <SCORE.INTRA.SOLV.lig_0>
-26.2491

>  <SCORE.INTRA.VDW>
-0.654838

>  <SCORE.INTRA.VDW.0>
2.57239

>  <SCORE.INTRA.norm>
-0.119642

>  <SCORE.RESTR>
0

>  <SCORE.RESTR.CAVITY>
0

>  <SCORE.RESTR.norm>
0

>  <SCORE.SYSTEM>
0

>  <SCORE.SYSTEM.CONST>
0

>  <SCORE.SYSTEM.DIHEDRAL>
0

>  <SCORE.SYSTEM.SOLV>
0

>  <SCORE.SYSTEM.norm>
0

>  <SCORE.heavy>
30

>  <SCORE.norm>
-1.26636

>  <RMSD>
3.006

$$$$
lig.pdb
 OpenBabel11021811523D
libRbt.so/2013.1/901 2013/11/27
 30 34  0  0  0  0  0  0  0  0999 V2000
   24.0290   36.3718   19.9755 N   0  0  0  0  0  0  0  0  0  0  0  0
   26.8564   39.5505   22.5072 N   0  0  0  0  0  0  0  0  0  0  0  0
   23.2157   36.6953   18.7994 C   0  0  0  0  0  0  0  0  0  0  0  0
   23.4898   35.5021   17.8963 C   0  0  2  0  0  0  0  0  0  0  0  0
   24.1958   37.3456   21.0485 C   0  0  0  0  0  0  0  0  0  0  0  0
   23.1620   37.7182   21.9318 C   0  0  0  0  0  0  0  0  0  0  0  0
   23.3077   38.6550   22.9243 C   0  0  0  0  0  0  0  0  0  0  0  0
   24.6738   40.3535   24.1420 C   0  0  0  0  0  0  0  0  0  0  0  0
   29.0953   39.7580   22.2491 C   0  0  0  0  0  0  0  0  0  0  0  0
   27.8119   37.8670   21.0249 C   0  0  0  0  0  0  0  0  0  0  0  0
   25.4522   37.9861   21.2421 C   0  0  0  0  0  0  0  0  0  0  0  0
   26.7234   43.1671   24.8656 O   0  0  0  0  0  0  0  0  0  0  0  0
   26.2115   42.1009   25.2138 C   0  0  0  0  0  0  0  0  0  0  0  0
   25.8310   41.8662   26.4636 O   0  0  0  0  0  0  0  0  0  0  0  0
   26.0092   40.9987   24.2362 C   0  0  1  0  0  0  0  0  0  0  0  0
   23.7408   40.6375   24.9007 O   0  0  0  0  0  0  0  0  0  0  0  0
   27.0780   40.5701   23.4299 C   0  0  0  0  0  0  0  0  0  0  0  0
   28.0099   39.0797   21.8644 C   0  0  0  0  0  0  0  0  0  0  0  0
   28.7472   40.9602   23.4215 S   0  0  0  0  0  0  0  0  0  0  0  0
   25.6094   38.9346   22.2780 C   0  0  0  0  0  0  0  0  0  0  0  0
   24.5336   39.2956   23.1038 C   0  0  0  0  0  0  0  0  0  0  0  0
   21.9642   37.1089   21.8245 F   0  0  0  0  0  0  0  0  0  0  0  0
   26.5229   37.7353   20.3698 N   0  0  0  0  0  0  0  0  0  0  0  0
   26.3707   38.4738   19.1343 C   0  0  0  0  0  0  0  0  0  0  0  0
   25.0756   35.4085   19.6526 C   0  0  0  0  0  0  0  0  0  0  0  0
   22.2839   34.8267   17.5365 O   0  0  0  0  0  0  0  0  0  0  0  0
   24.2899   34.4988   18.7231 C   0  0  2  0  0  0  0  0  0  0  0  0
   25.0789   33.6624   17.7988 N   0  0  0  0  0  0  0  0  0  0  0  0
   26.1596   34.3639   17.0822 C   0  0  0  0  0  0  0  0  0  0  0  0
   25.5348   32.4016   18.4040 C   0  0  0  0  0  0  0  0  0  0  0  0
  1  5  1  0  0  0  0
  2 17  1  0  0  0  0
  3  1  1  0  0  0  0
  4  3  1  0  0  0  0
  4 26  1  1  0  0  0
  5 11  2  0  0  0  0
  5  6  1  0  0  0  0
  6  7  2  0  0  0  0
  7 21  1  0  0  0  0
  8 15  1  0  0  0  0
  8 16  2  0  0  0  0
  9 19  1  0  0  0  0
 10 18  1  0  0  0  0
 11 20  1  0  0  0  0
 13 14  1  0  0  0  0
 13 12  2  0  0  0  0
 15 13  1  1  0  0  0
 17 19  2  0  0  0  0
 17 15  1  0  0  0  0
 18  2  1  0  0  0  0
 18  9  2  0  0  0  0
 20 21  2  0  0  0  0
 20  2  1  0  0  0  0
 21  8  1  0  0  0  0
 22  6  1  0  0  0  0
 23 11  1  0  0  0  0
 23 10  1  0  0  0  0
 24 23  1  0  0  0  0
 25  1  1  0  0  0  0
 27  4  1  0  0  0  0
 27 25  1  0  0  0  0
 27 28  1  6  0  0  0
 29 28  1  0  0  0  0
 30 28  1  0  0  0  0
M  END
>  <CHROM.1>
70.25193570,0.88543578,-129.93840730,-57.16372948,67.71589023,25.45360693
38.20869774,21.52446011,1.83027294,-0.19213411,-2.34572879

>  <Name>
lig.pdb

>  <RI>
0

>  <Rbt.Current_Directory>
/home/itssahil/PROJECTS/Mol_Feturizer/New_Systems/rnas/6bfb

>  <Rbt.Executable>
rbdock ($Id: //depot/dev/client3/rdock/2013.1/src/exe/rbdock.cxx#4 $)

>  <Rbt.Library>
libRbt.so (2013.1, Build901 2013/11/27)

>  <Rbt.Parameter_File>
/export/apps/rDock/src/rDock_2013.1_src/data/scripts/dock_solv.prm

>  <Rbt.Receptor>
prm/pocket_docking_6.prm

>  <SCORE>
-35.8269

>  <SCORE.INTER>
-30.3968

>  <SCORE.INTER.CONST>
1

>  <SCORE.INTER.POLAR>
0

>  <SCORE.INTER.ROT>
3

>  <SCORE.INTER.SOLV>
14.0377

>  <SCORE.INTER.VDW>
-30.5438

>  <SCORE.INTER.norm>
-1.01323

>  <SCORE.INTRA>
-5.43011

>  <SCORE.INTRA.DIHEDRAL>
-7.42296

>  <SCORE.INTRA.DIHEDRAL.0>
9.41909

>  <SCORE.INTRA.POLAR>
0

>  <SCORE.INTRA.POLAR.0>
0

>  <SCORE.INTRA.REPUL>
0

>  <SCORE.INTRA.REPUL.0>
0

>  <SCORE.INTRA.SOLV>
-0.0995417

>  <SCORE.INTRA.SOLV.lig_0>
-26.2491

>  <SCORE.INTRA.VDW>
-1.66886

>  <SCORE.INTRA.VDW.0>
2.57239

>  <SCORE.INTRA.norm>
-0.181004

>  <SCORE.RESTR>
0

>  <SCORE.RESTR.CAVITY>
0

>  <SCORE.RESTR.norm>
0

>  <SCORE.SYSTEM>
0

>  <SCORE.SYSTEM.CONST>
0

>  <SCORE.SYSTEM.DIHEDRAL>
0

>  <SCORE.SYSTEM.SOLV>
0

>  <SCORE.SYSTEM.norm>
0

>  <SCORE.heavy>
30

>  <SCORE.norm>
-1.19423

>  <RMSD>
3.014

$$$$
lig.pdb
 OpenBabel11021811523D
libRbt.so/2013.1/901 2013/11/27
 30 34  0  0  0  0  0  0  0  0999 V2000
   24.5535   36.0436   19.4414 N   0  0  0  0  0  0  0  0  0  0  0  0
   26.5124   39.3014   22.6127 N   0  0  0  0  0  0  0  0  0  0  0  0
   24.0737   36.4343   18.1122 C   0  0  0  0  0  0  0  0  0  0  0  0
   24.5953   35.2958   17.2484 C   0  0  2  0  0  0  0  0  0  0  0  0
   24.4159   36.9536   20.5730 C   0  0  0  0  0  0  0  0  0  0  0  0
   23.2045   37.1630   21.2631 C   0  0  0  0  0  0  0  0  0  0  0  0
   23.0649   38.0397   22.3100 C   0  0  0  0  0  0  0  0  0  0  0  0
   23.9949   39.7756   23.8447 C   0  0  0  0  0  0  0  0  0  0  0  0
   28.7252   39.7422   22.7911 C   0  0  0  0  0  0  0  0  0  0  0  0
   27.8980   37.8236   21.2561 C   0  0  0  0  0  0  0  0  0  0  0  0
   25.5394   37.6982   21.0308 C   0  0  0  0  0  0  0  0  0  0  0  0
   25.2237   42.7808   24.9844 O   0  0  0  0  0  0  0  0  0  0  0  0
   25.1137   41.5868   25.2712 C   0  0  0  0  0  0  0  0  0  0  0  0
   24.9205   41.1661   26.5152 O   0  0  0  0  0  0  0  0  0  0  0  0
   25.2132   40.5394   24.2201 C   0  0  1  0  0  0  0  0  0  0  0  0
   22.9141   39.9154   24.4273 O   0  0  0  0  0  0  0  0  0  0  0  0
   26.4508   40.2725   23.6094 C   0  0  0  0  0  0  0  0  0  0  0  0
   27.8077   38.9897   22.1762 C   0  0  0  0  0  0  0  0  0  0  0  0
   28.0416   40.8223   23.9346 S   0  0  0  0  0  0  0  0  0  0  0  0
   25.4019   38.5846   22.1230 C   0  0  0  0  0  0  0  0  0  0  0  0
   24.1611   38.7824   22.7482 C   0  0  0  0  0  0  0  0  0  0  0  0
   22.1191   36.4492   20.9025 F   0  0  0  0  0  0  0  0  0  0  0  0
   26.7718   37.6126   20.3644 N   0  0  0  0  0  0  0  0  0  0  0  0
   26.7684   38.4153   19.1601 C   0  0  0  0  0  0  0  0  0  0  0  0
   25.6636   35.1017   19.3529 C   0  0  0  0  0  0  0  0  0  0  0  0
   23.5379   34.6415   16.5459 O   0  0  0  0  0  0  0  0  0  0  0  0
   25.1654   34.2469   18.1997 C   0  0  2  0  0  0  0  0  0  0  0  0
   26.1836   33.4663   17.4712 N   0  0  0  0  0  0  0  0  0  0  0  0
   25.6732   32.6607   16.3470 C   0  0  0  0  0  0  0  0  0  0  0  0
   27.3659   34.2591   17.1006 C   0  0  0  0  0  0  0  0  0  0  0  0
  1  5  1  0  0  0  0
  2 17  1  0  0  0  0
  3  1  1  0  0  0  0
  4  3  1  0  0  0  0
  4 26  1  1  0  0  0
  5 11  2  0  0  0  0
  5  6  1  0  0  0  0
  6  7  2  0  0  0  0
  7 21  1  0  0  0  0
  8 15  1  0  0  0  0
  8 16  2  0  0  0  0
  9 19  1  0  0  0  0
 10 18  1  0  0  0  0
 11 20  1  0  0  0  0
 13 14  1  0  0  0  0
 13 12  2  0  0  0  0
 15 13  1  1  0  0  0
 17 19  2  0  0  0  0
 17 15  1  0  0  0  0
 18  2  1  0  0  0  0
 18  9  2  0  0  0  0
 20 21  2  0  0  0  0
 20  2  1  0  0  0  0
 21  8  1  0  0  0  0
 22  6  1  0  0  0  0
 23 11  1  0  0  0  0
 23 10  1  0  0  0  0
 24 23  1  0  0  0  0
 25  1  1  0  0  0  0
 27  4  1  0  0  0  0
 27 25  1  0  0  0  0
 27 28  1  6  0  0  0
 29 28  1  0  0  0  0
 30 28  1  0  0  0  0
M  END
>  <CHROM.1>
77.35258347,-179.11601660,-110.54265094,64.83970240,-65.00616132,25.43364169
37.90092792,21.26591136,1.63796498,-0.15288514,-2.30018619

>  <Name>
lig.pdb

>  <RI>
0

>  <Rbt.Current_Directory>
/home/itssahil/PROJECTS/Mol_Feturizer/New_Systems/rnas/6bfb

>  <Rbt.Executable>
rbdock ($Id: //depot/dev/client3/rdock/2013.1/src/exe/rbdock.cxx#4 $)

>  <Rbt.Library>
libRbt.so (2013.1, Build901 2013/11/27)

>  <Rbt.Parameter_File>
/export/apps/rDock/src/rDock_2013.1_src/data/scripts/dock_solv.prm

>  <Rbt.Receptor>
prm/blind_docking_60.prm

>  <SCORE>
-39.486

>  <SCORE.INTER>
-35.3235

>  <SCORE.INTER.CONST>
1

>  <SCORE.INTER.POLAR>
-1.75283

>  <SCORE.INTER.ROT>
3

>  <SCORE.INTER.SOLV>
14.2573

>  <SCORE.INTER.VDW>
-28.0587

>  <SCORE.INTER.norm>
-1.17745

>  <SCORE.INTRA>
-4.16251

>  <SCORE.INTRA.DIHEDRAL>
-7.62164

>  <SCORE.INTRA.DIHEDRAL.0>
9.41909

>  <SCORE.INTRA.POLAR>
0

>  <SCORE.INTRA.POLAR.0>
0

>  <SCORE.INTRA.REPUL>
0

>  <SCORE.INTRA.REPUL.0>
0

>  <SCORE.INTRA.SOLV>
0.105987

>  <SCORE.INTRA.SOLV.lig_0>
-26.2491

>  <SCORE.INTRA.VDW>
-0.404683

>  <SCORE.INTRA.VDW.0>
2.57239

>  <SCORE.INTRA.norm>
-0.13875

>  <SCORE.RESTR>
0

>  <SCORE.RESTR.CAVITY>
0

>  <SCORE.RESTR.norm>
0

>  <SCORE.SYSTEM>
0

>  <SCORE.SYSTEM.CONST>
0

>  <SCORE.SYSTEM.DIHEDRAL>
0

>  <SCORE.SYSTEM.SOLV>
0

>  <SCORE.SYSTEM.norm>
0

>  <SCORE.heavy>
30

>  <SCORE.norm>
-1.3162

>  <RMSD>
3.026

$$$$
lig.pdb
 OpenBabel11021811523D
libRbt.so/2013.1/901 2013/11/27
 30 34  0  0  0  0  0  0  0  0999 V2000
   24.0040   36.3524   19.9535 N   0  0  0  0  0  0  0  0  0  0  0  0
   26.8337   39.5279   22.4865 N   0  0  0  0  0  0  0  0  0  0  0  0
   23.1815   36.6768   18.7840 C   0  0  0  0  0  0  0  0  0  0  0  0
   23.4560   35.4889   17.8741 C   0  0  2  0  0  0  0  0  0  0  0  0
   24.1727   37.3225   21.0296 C   0  0  0  0  0  0  0  0  0  0  0  0
   23.1415   37.6892   21.9184 C   0  0  0  0  0  0  0  0  0  0  0  0
   23.2888   38.6225   22.9140 C   0  0  0  0  0  0  0  0  0  0  0  0
   24.6557   40.3195   24.1329 C   0  0  0  0  0  0  0  0  0  0  0  0
   29.0712   39.7417   22.2206 C   0  0  0  0  0  0  0  0  0  0  0  0
   27.7875   37.8525   20.9941 C   0  0  0  0  0  0  0  0  0  0  0  0
   25.4283   37.9652   21.2209 C   0  0  0  0  0  0  0  0  0  0  0  0
   27.0900   42.0009   26.0493 O   0  0  0  0  0  0  0  0  0  0  0  0
   26.1934   42.0663   25.2056 C   0  0  0  0  0  0  0  0  0  0  0  0
   25.3569   43.0943   25.1309 O   0  0  0  0  0  0  0  0  0  0  0  0
   25.9900   40.9675   24.2244 C   0  0  1  0  0  0  0  0  0  0  0  0
   23.7249   40.5983   24.8964 O   0  0  0  0  0  0  0  0  0  0  0  0
   27.0566   40.5445   23.4123 C   0  0  0  0  0  0  0  0  0  0  0  0
   27.9859   39.0624   21.8374 C   0  0  0  0  0  0  0  0  0  0  0  0
   28.7248   40.9386   23.3990 S   0  0  0  0  0  0  0  0  0  0  0  0
   25.5873   38.9100   22.2599 C   0  0  0  0  0  0  0  0  0  0  0  0
   24.5139   39.2653   23.0912 C   0  0  0  0  0  0  0  0  0  0  0  0
   21.9447   37.0775   21.8133 F   0  0  0  0  0  0  0  0  0  0  0  0
   26.4962   37.7203   20.3434 N   0  0  0  0  0  0  0  0  0  0  0  0
   26.3375   38.4633   19.1115 C   0  0  0  0  0  0  0  0  0  0  0  0
   25.0534   35.3960   19.6197 C   0  0  0  0  0  0  0  0  0  0  0  0
   22.2512   34.8089   17.5190 O   0  0  0  0  0  0  0  0  0  0  0  0
   24.2665   34.4863   18.6914 C   0  0  2  0  0  0  0  0  0  0  0  0
   25.0538   33.6579   17.7584 N   0  0  0  0  0  0  0  0  0  0  0  0
   26.1050   34.3749   17.0139 C   0  0  0  0  0  0  0  0  0  0  0  0
   25.5478   32.4122   18.3650 C   0  0  0  0  0  0  0  0  0  0  0  0
  1  5  1  0  0  0  0
  2 17  1  0  0  0  0
  3  1  1  0  0  0  0
  4  3  1  0  0  0  0
  4 26  1  1  0  0  0
  5 11  2  0  0  0  0
  5  6  1  0  0  0  0
  6  7  2  0  0  0  0
  7 21  1  0  0  0  0
  8 15  1  0  0  0  0
  8 16  2  0  0  0  0
  9 19  1  0  0  0  0
 10 18  1  0  0  0  0
 11 20  1  0  0  0  0
 13 14  1  0  0  0  0
 13 12  2  0  0  0  0
 15 13  1  1  0  0  0
 17 19  2  0  0  0  0
 17 15  1  0  0  0  0
 18  2  1  0  0  0  0
 18  9  2  0  0  0  0
 20 21  2  0  0  0  0
 20  2  1  0  0  0  0
 21  8  1  0  0  0  0
 22  6  1  0  0  0  0
 23 11  1  0  0  0  0
 23 10  1  0  0  0  0
 24 23  1  0  0  0  0
 25  1  1  0  0  0  0
 27  4  1  0  0  0  0
 27 25  1  0  0  0  0
 27 28  1  6  0  0  0
 29 28  1  0  0  0  0
 30 28  1  0  0  0  0
M  END
>  <CHROM.1>
70.03723889,5.92566138,124.31106442,62.73728482,66.30701801,25.42679310,38.19783716
21.49197529,1.82839722,-0.15814702,-2.35423990

>  <Name>
lig.pdb

>  <RI>
0

>  <Rbt.Current_Directory>
/home/itssahil/PROJECTS/Mol_Feturizer/New_Systems/rnas/6bfb

>  <Rbt.Executable>
rbdock ($Id: //depot/dev/client3/rdock/2013.1/src/exe/rbdock.cxx#4 $)

>  <Rbt.Library>
libRbt.so (2013.1, Build901 2013/11/27)

>  <Rbt.Parameter_File>
/export/apps/rDock/src/rDock_2013.1_src/data/scripts/dock_solv.prm

>  <Rbt.Receptor>
prm/pocket_docking_6.prm

>  <SCORE>
-36.177

>  <SCORE.INTER>
-30.4107

>  <SCORE.INTER.CONST>
1

>  <SCORE.INTER.POLAR>
-0.0394427

>  <SCORE.INTER.ROT>
3

>  <SCORE.INTER.SOLV>
14.0659

>  <SCORE.INTER.VDW>
-30.431

>  <SCORE.INTER.norm>
-1.01369

>  <SCORE.INTRA>
-5.7663

>  <SCORE.INTRA.DIHEDRAL>
-7.27297

>  <SCORE.INTRA.DIHEDRAL.0>
9.41909

>  <SCORE.INTRA.POLAR>
0

>  <SCORE.INTRA.POLAR.0>
0

>  <SCORE.INTRA.REPUL>
0

>  <SCORE.INTRA.REPUL.0>
0

>  <SCORE.INTRA.SOLV>
-0.138507

>  <SCORE.INTRA.SOLV.lig_0>
-26.2491

>  <SCORE.INTRA.VDW>
-2.06056

>  <SCORE.INTRA.VDW.0>
2.57239

>  <SCORE.INTRA.norm>
-0.19221

>  <SCORE.RESTR>
0

>  <SCORE.RESTR.CAVITY>
0

>  <SCORE.RESTR.norm>
0

>  <SCORE.SYSTEM>
0

>  <SCORE.SYSTEM.CONST>
0

>  <SCORE.SYSTEM.DIHEDRAL>
0

>  <SCORE.SYSTEM.SOLV>
0

>  <SCORE.SYSTEM.norm>
0

>  <SCORE.heavy>
30

>  <SCORE.norm>
-1.2059

>  <RMSD>
3.029

$$$$
lig.pdb
 OpenBabel11021811523D
libRbt.so/2013.1/901 2013/11/27
 30 34  0  0  0  0  0  0  0  0999 V2000
   27.1903   39.3733   20.6668 N   0  0  0  0  0  0  0  0  0  0  0  0
   25.1705   41.1108   24.8391 N   0  0  0  0  0  0  0  0  0  0  0  0
   28.0531   38.2005   20.4941 C   0  0  0  0  0  0  0  0  0  0  0  0
   28.8540   38.5852   19.2593 C   0  0  2  0  0  0  0  0  0  0  0  0
   26.1215   39.3640   21.6593 C   0  0  0  0  0  0  0  0  0  0  0  0
   25.0041   38.5065   21.5947 C   0  0  0  0  0  0  0  0  0  0  0  0
   23.9826   38.5148   22.5114 C   0  0  0  0  0  0  0  0  0  0  0  0
   22.8793   39.4542   24.5447 C   0  0  0  0  0  0  0  0  0  0  0  0
   26.2025   42.5339   26.2648 C   0  0  0  0  0  0  0  0  0  0  0  0
   27.5020   41.5268   24.2602 C   0  0  0  0  0  0  0  0  0  0  0  0
   26.1650   40.2612   22.7635 C   0  0  0  0  0  0  0  0  0  0  0  0
   22.0742   40.5242   27.8176 O   0  0  0  0  0  0  0  0  0  0  0  0
   21.8730   40.6009   26.6036 C   0  0  0  0  0  0  0  0  0  0  0  0
   20.6642   40.7962   26.0912 O   0  0  0  0  0  0  0  0  0  0  0  0
   22.9930   40.4566   25.6359 C   0  0  1  0  0  0  0  0  0  0  0  0
   21.9259   38.6734   24.4528 O   0  0  0  0  0  0  0  0  0  0  0  0
   24.1451   41.2505   25.7715 C   0  0  0  0  0  0  0  0  0  0  0  0
   26.3407   41.8207   25.1430 C   0  0  0  0  0  0  0  0  0  0  0  0
   24.6626   42.3357   26.9933 S   0  0  0  0  0  0  0  0  0  0  0  0
   25.1245   40.2551   23.7200 C   0  0  0  0  0  0  0  0  0  0  0  0
   24.0158   39.4055   23.5842 C   0  0  0  0  0  0  0  0  0  0  0  0
   24.9345   37.6036   20.5961 F   0  0  0  0  0  0  0  0  0  0  0  0
   27.1998   41.2027   22.8776 N   0  0  0  0  0  0  0  0  0  0  0  0
   26.9711   42.3347   22.0052 C   0  0  0  0  0  0  0  0  0  0  0  0
   27.0736   40.1372   19.4298 C   0  0  0  0  0  0  0  0  0  0  0  0
   30.2586   38.5696   19.5175 O   0  0  0  0  0  0  0  0  0  0  0  0
   28.5112   40.0397   18.9476 C   0  0  2  0  0  0  0  0  0  0  0  0
   28.7398   40.2707   17.5085 N   0  0  0  0  0  0  0  0  0  0  0  0
   27.6509   39.8271   16.6192 C   0  0  0  0  0  0  0  0  0  0  0  0
   29.1883   41.6384   17.2053 C   0  0  0  0  0  0  0  0  0  0  0  0
  1  5  1  0  0  0  0
  2 17  1  0  0  0  0
  3  1  1  0  0  0  0
  4  3  1  0  0  0  0
  4 26  1  1  0  0  0
  5 11  2  0  0  0  0
  5  6  1  0  0  0  0
  6  7  2  0  0  0  0
  7 21  1  0  0  0  0
  8 15  1  0  0  0  0
  8 16  2  0  0  0  0
  9 19  1  0  0  0  0
 10 18  1  0  0  0  0
 11 20  1  0  0  0  0
 13 14  1  0  0  0  0
 13 12  2  0  0  0  0
 15 13  1  1  0  0  0
 17 19  2  0  0  0  0
 17 15  1  0  0  0  0
 18  2  1  0  0  0  0
 18  9  2  0  0  0  0
 20 21  2  0  0  0  0
 20  2  1  0  0  0  0
 21  8  1  0  0  0  0
 22  6  1  0  0  0  0
 23 11  1  0  0  0  0
 23 10  1  0  0  0  0
 24 23  1  0  0  0  0
 25  1  1  0  0  0  0
 27  4  1  0  0  0  0
 27 25  1  0  0  0  0
 27 28  1  6  0  0  0
 29 28  1  0  0  0  0
 30 28  1  0  0  0  0
M  END
>  <CHROM.1>
-64.80964731,-174.59317349,126.33822430,57.13433589,81.19325214,25.68223910
40.23100825,22.75532015,0.85143618,-0.53235609,-2.15428088

>  <Name>
lig.pdb

>  <RI>
0

>  <Rbt.Current_Directory>
/home/itssahil/PROJECTS/Mol_Feturizer/New_Systems/rnas/6bfb

>  <Rbt.Executable>
rbdock ($Id: //depot/dev/client3/rdock/2013.1/src/exe/rbdock.cxx#4 $)

>  <Rbt.Library>
libRbt.so (2013.1, Build901 2013/11/27)

>  <Rbt.Parameter_File>
/export/apps/rDock/src/rDock_2013.1_src/data/scripts/dock_solv.prm

>  <Rbt.Receptor>
prm/pocket_docking_7.prm

>  <SCORE>
-35.1827

>  <SCORE.INTER>
-30.4179

>  <SCORE.INTER.CONST>
1

>  <SCORE.INTER.POLAR>
-1.9547

>  <SCORE.INTER.ROT>
3

>  <SCORE.INTER.SOLV>
13.0425

>  <SCORE.INTER.VDW>
-23.7104

>  <SCORE.INTER.norm>
-1.01393

>  <SCORE.INTRA>
-4.76483

>  <SCORE.INTRA.DIHEDRAL>
-6.59219

>  <SCORE.INTRA.DIHEDRAL.0>
9.41909

>  <SCORE.INTRA.POLAR>
0

>  <SCORE.INTRA.POLAR.0>
0

>  <SCORE.INTRA.REPUL>
0.0966608

>  <SCORE.INTRA.REPUL.0>
0

>  <SCORE.INTRA.SOLV>
-0.29756

>  <SCORE.INTRA.SOLV.lig_0>
-26.2491

>  <SCORE.INTRA.VDW>
-1.80325

>  <SCORE.INTRA.VDW.0>
2.57239

>  <SCORE.INTRA.norm>
-0.158828

>  <SCORE.RESTR>
0

>  <SCORE.RESTR.CAVITY>
0

>  <SCORE.RESTR.norm>
0

>  <SCORE.SYSTEM>
0

>  <SCORE.SYSTEM.CONST>
0

>  <SCORE.SYSTEM.DIHEDRAL>
0

>  <SCORE.SYSTEM.SOLV>
0

>  <SCORE.SYSTEM.norm>
0

>  <SCORE.heavy>
30

>  <SCORE.norm>
-1.17276

>  <RMSD>
3.029

$$$$
lig.pdb
 OpenBabel11021811523D
libRbt.so/2013.1/901 2013/11/27
 30 34  0  0  0  0  0  0  0  0999 V2000
   26.4605   36.3115   18.9339 N   0  0  0  0  0  0  0  0  0  0  0  0
   26.1571   39.2028   22.9409 N   0  0  0  0  0  0  0  0  0  0  0  0
   27.6506   35.5029   19.2158 C   0  0  0  0  0  0  0  0  0  0  0  0
   27.9949   34.9677   17.8340 C   0  0  2  0  0  0  0  0  0  0  0  0
   25.6857   36.8904   20.0257 C   0  0  0  0  0  0  0  0  0  0  0  0
   24.3163   36.6283   20.2353 C   0  0  0  0  0  0  0  0  0  0  0  0
   23.5775   37.1935   21.2446 C   0  0  0  0  0  0  0  0  0  0  0  0
   23.3641   38.7383   23.1945 C   0  0  0  0  0  0  0  0  0  0  0  0
   27.9347   40.1481   23.9747 C   0  0  0  0  0  0  0  0  0  0  0  0
   28.2978   38.4578   22.0429 C   0  0  0  0  0  0  0  0  0  0  0  0
   26.3052   37.7822   20.9461 C   0  0  0  0  0  0  0  0  0  0  0  0
   23.1098   41.6335   25.0107 O   0  0  0  0  0  0  0  0  0  0  0  0
   23.3303   40.4257   25.1228 C   0  0  0  0  0  0  0  0  0  0  0  0
   22.9277   39.7208   26.1731 O   0  0  0  0  0  0  0  0  0  0  0  0
   24.0887   39.6902   24.0761 C   0  0  1  0  0  0  0  0  0  0  0  0
   22.1680   38.4672   23.3458 O   0  0  0  0  0  0  0  0  0  0  0  0
   25.4741   39.8878   23.9431 C   0  0  0  0  0  0  0  0  0  0  0  0
   27.5521   39.3355   22.9851 C   0  0  0  0  0  0  0  0  0  0  0  0
   26.6150   40.7446   24.8934 S   0  0  0  0  0  0  0  0  0  0  0  0
   25.5506   38.3474   21.9990 C   0  0  0  0  0  0  0  0  0  0  0  0
   24.1796   38.0808   22.1366 C   0  0  0  0  0  0  0  0  0  0  0  0
   23.6898   35.7544   19.4221 F   0  0  0  0  0  0  0  0  0  0  0  0
   27.6464   38.1612   20.7796 N   0  0  0  0  0  0  0  0  0  0  0  0
   27.7766   39.1756   19.7554 C   0  0  0  0  0  0  0  0  0  0  0  0
   25.8300   35.9148   17.6800 C   0  0  0  0  0  0  0  0  0  0  0  0
   29.3236   35.3226   17.4485 O   0  0  0  0  0  0  0  0  0  0  0  0
   27.0772   35.6809   16.8443 C   0  0  2  0  0  0  0  0  0  0  0  0
   26.9213   34.8211   15.6556 N   0  0  0  0  0  0  0  0  0  0  0  0
   26.1799   33.5666   15.8793 C   0  0  0  0  0  0  0  0  0  0  0  0
   26.4429   35.5508   14.4714 C   0  0  0  0  0  0  0  0  0  0  0  0
  1  5  1  0  0  0  0
  2 17  1  0  0  0  0
  3  1  1  0  0  0  0
  4  3  1  0  0  0  0
  4 26  1  6  0  0  0
  5 11  2  0  0  0  0
  5  6  1  0  0  0  0
  6  7  2  0  0  0  0
  7 21  1  0  0  0  0
  8 15  1  0  0  0  0
  8 16  2  0  0  0  0
  9 19  1  0  0  0  0
 10 18  1  0  0  0  0
 11 20  1  0  0  0  0
 13 14  1  0  0  0  0
 13 12  2  0  0  0  0
 15 13  1  1  0  0  0
 17 19  2  0  0  0  0
 17 15  1  0  0  0  0
 18  2  1  0  0  0  0
 18  9  2  0  0  0  0
 20 21  2  0  0  0  0
 20  2  1  0  0  0  0
 21  8  1  0  0  0  0
 22  6  1  0  0  0  0
 23 11  1  0  0  0  0
 23 10  1  0  0  0  0
 24 23  1  0  0  0  0
 25  1  1  0  0  0  0
 27  4  1  0  0  0  0
 27 25  1  0  0  0  0
 27 28  1  6  0  0  0
 29 28  1  0  0  0  0
 30 28  1  0  0  0  0
M  END
>  <CHROM.1>
-121.66468905,-1.56192077,-108.46155461,70.04732495,67.59088574,25.80654730
37.81824946,21.04772677,1.31312407,-0.17568452,-2.18156418

>  <Name>
lig.pdb

>  <RI>
0

>  <Rbt.Current_Directory>
/home/itssahil/PROJECTS/Mol_Feturizer/New_Systems/rnas/6bfb

>  <Rbt.Executable>
rbdock ($Id: //depot/dev/client3/rdock/2013.1/src/exe/rbdock.cxx#4 $)

>  <Rbt.Library>
libRbt.so (2013.1, Build901 2013/11/27)

>  <Rbt.Parameter_File>
/export/apps/rDock/src/rDock_2013.1_src/data/scripts/dock_solv.prm

>  <Rbt.Receptor>
prm/blind_docking_80.prm

>  <SCORE>
-33.5933

>  <SCORE.INTER>
-28.0443

>  <SCORE.INTER.CONST>
1

>  <SCORE.INTER.POLAR>
-0.819388

>  <SCORE.INTER.ROT>
3

>  <SCORE.INTER.SOLV>
13.8544

>  <SCORE.INTER.VDW>
-26.183

>  <SCORE.INTER.norm>
-0.93481

>  <SCORE.INTRA>
-5.549

>  <SCORE.INTRA.DIHEDRAL>
-6.98232

>  <SCORE.INTRA.DIHEDRAL.0>
9.41909

>  <SCORE.INTRA.POLAR>
0

>  <SCORE.INTRA.POLAR.0>
0

>  <SCORE.INTRA.REPUL>
0.0262804

>  <SCORE.INTRA.REPUL.0>
0

>  <SCORE.INTRA.SOLV>
-0.286272

>  <SCORE.INTRA.SOLV.lig_0>
-26.2491

>  <SCORE.INTRA.VDW>
-2.04611

>  <SCORE.INTRA.VDW.0>
2.57239

>  <SCORE.INTRA.norm>
-0.184967

>  <SCORE.RESTR>
0

>  <SCORE.RESTR.CAVITY>
0

>  <SCORE.RESTR.norm>
0

>  <SCORE.SYSTEM>
0

>  <SCORE.SYSTEM.CONST>
0

>  <SCORE.SYSTEM.DIHEDRAL>
0

>  <SCORE.SYSTEM.SOLV>
0

>  <SCORE.SYSTEM.norm>
0

>  <SCORE.heavy>
30

>  <SCORE.norm>
-1.11978

>  <RMSD>
3.031

$$$$
lig.pdb
 OpenBabel11021811523D
libRbt.so/2013.1/901 2013/11/27
 30 34  0  0  0  0  0  0  0  0999 V2000
   24.0155   36.3728   19.9731 N   0  0  0  0  0  0  0  0  0  0  0  0
   26.8879   39.5247   22.4873 N   0  0  0  0  0  0  0  0  0  0  0  0
   23.1662   36.6935   18.8218 C   0  0  0  0  0  0  0  0  0  0  0  0
   23.4307   35.5098   17.9034 C   0  0  2  0  0  0  0  0  0  0  0  0
   24.1991   37.3417   21.0478 C   0  0  0  0  0  0  0  0  0  0  0  0
   23.1766   37.7174   21.9429 C   0  0  0  0  0  0  0  0  0  0  0  0
   23.3382   38.6497   22.9372 C   0  0  0  0  0  0  0  0  0  0  0  0
   24.7271   40.3353   24.1470 C   0  0  0  0  0  0  0  0  0  0  0  0
   29.1254   39.7194   22.2073 C   0  0  0  0  0  0  0  0  0  0  0  0
   27.8180   37.8409   20.9895 C   0  0  0  0  0  0  0  0  0  0  0  0
   25.4613   37.9737   21.2310 C   0  0  0  0  0  0  0  0  0  0  0  0
   25.9335   41.9461   26.3844 O   0  0  0  0  0  0  0  0  0  0  0  0
   26.2863   42.0693   25.2094 C   0  0  0  0  0  0  0  0  0  0  0  0
   26.8577   43.1749   24.7477 O   0  0  0  0  0  0  0  0  0  0  0  0
   26.0673   40.9719   24.2300 C   0  0  1  0  0  0  0  0  0  0  0  0
   23.8035   40.6223   24.9162 O   0  0  0  0  0  0  0  0  0  0  0  0
   27.1252   40.5397   23.4114 C   0  0  0  0  0  0  0  0  0  0  0  0
   28.0320   39.0492   21.8312 C   0  0  0  0  0  0  0  0  0  0  0  0
   28.7966   40.9195   23.3875 S   0  0  0  0  0  0  0  0  0  0  0  0
   25.6349   38.9174   22.2686 C   0  0  0  0  0  0  0  0  0  0  0  0
   24.5697   39.2821   23.1065 C   0  0  0  0  0  0  0  0  0  0  0  0
   21.9740   37.1160   21.8455 F   0  0  0  0  0  0  0  0  0  0  0  0
   26.5216   37.7195   20.3470 N   0  0  0  0  0  0  0  0  0  0  0  0
   26.3616   38.4634   19.1158 C   0  0  0  0  0  0  0  0  0  0  0  0
   25.0649   35.4252   19.6151 C   0  0  0  0  0  0  0  0  0  0  0  0
   22.2241   34.8214   17.5720 O   0  0  0  0  0  0  0  0  0  0  0  0
   24.2658   34.5116   18.7012 C   0  0  2  0  0  0  0  0  0  0  0  0
   25.0398   33.6915   17.7500 N   0  0  0  0  0  0  0  0  0  0  0  0
   26.0922   34.4112   17.0098 C   0  0  0  0  0  0  0  0  0  0  0  0
   25.5271   32.4322   18.3335 C   0  0  0  0  0  0  0  0  0  0  0  0
  1  5  1  0  0  0  0
  2 17  1  0  0  0  0
  3  1  1  0  0  0  0
  4  3  1  0  0  0  0
  4 26  1  1  0  0  0
  5 11  2  0  0  0  0
  5  6  1  0  0  0  0
  6  7  2  0  0  0  0
  7 21  1  0  0  0  0
  8 15  1  0  0  0  0
  8 16  2  0  0  0  0
  9 19  1  0  0  0  0
 10 18  1  0  0  0  0
 11 20  1  0  0  0  0
 13 14  1  0  0  0  0
 13 12  2  0  0  0  0
 15 13  1  1  0  0  0
 17 19  2  0  0  0  0
 17 15  1  0  0  0  0
 18  2  1  0  0  0  0
 18  9  2  0  0  0  0
 20 21  2  0  0  0  0
 20  2  1  0  0  0  0
 21  8  1  0  0  0  0
 22  6  1  0  0  0  0
 23 11  1  0  0  0  0
 23 10  1  0  0  0  0
 24 23  1  0  0  0  0
 25  1  1  0  0  0  0
 27  4  1  0  0  0  0
 27 25  1  0  0  0  0
 27 28  1  6  0  0  0
 29 28  1  0  0  0  0
 30 28  1  0  0  0  0
M  END
>  <CHROM.1>
68.77548618,2.83518976,48.64406069,63.84994948,67.76251148,25.47204622,38.20906388
21.49728111,1.84475741,-0.19146105,-2.34322087

>  <Name>
lig.pdb

>  <RI>
0

>  <Rbt.Current_Directory>
/home/itssahil/PROJECTS/Mol_Feturizer/New_Systems/rnas/6bfb

>  <Rbt.Executable>
rbdock ($Id: //depot/dev/client3/rdock/2013.1/src/exe/rbdock.cxx#4 $)

>  <Rbt.Library>
libRbt.so (2013.1, Build901 2013/11/27)

>  <Rbt.Parameter_File>
/export/apps/rDock/src/rDock_2013.1_src/data/scripts/dock_solv.prm

>  <Rbt.Receptor>
prm/pocket_docking_4.prm

>  <SCORE>
-36.3621

>  <SCORE.INTER>
-30.6372

>  <SCORE.INTER.CONST>
1

>  <SCORE.INTER.POLAR>
0

>  <SCORE.INTER.ROT>
3

>  <SCORE.INTER.SOLV>
14.0993

>  <SCORE.INTER.VDW>
-30.7246

>  <SCORE.INTER.norm>
-1.02124

>  <SCORE.INTRA>
-5.72488

>  <SCORE.INTRA.DIHEDRAL>
-7.36165

>  <SCORE.INTRA.DIHEDRAL.0>
9.41909

>  <SCORE.INTRA.POLAR>
0

>  <SCORE.INTRA.POLAR.0>
0

>  <SCORE.INTRA.REPUL>
0

>  <SCORE.INTRA.REPUL.0>
0

>  <SCORE.INTRA.SOLV>
-0.141551

>  <SCORE.INTRA.SOLV.lig_0>
-26.2491

>  <SCORE.INTRA.VDW>
-1.97328

>  <SCORE.INTRA.VDW.0>
2.57239

>  <SCORE.INTRA.norm>
-0.190829

>  <SCORE.RESTR>
0

>  <SCORE.RESTR.CAVITY>
0

>  <SCORE.RESTR.norm>
0

>  <SCORE.SYSTEM>
0

>  <SCORE.SYSTEM.CONST>
0

>  <SCORE.SYSTEM.DIHEDRAL>
0

>  <SCORE.SYSTEM.SOLV>
0

>  <SCORE.SYSTEM.norm>
0

>  <SCORE.heavy>
30

>  <SCORE.norm>
-1.21207

>  <RMSD>
3.063

$$$$
lig.pdb
 OpenBabel11021811523D
libRbt.so/2013.1/901 2013/11/27
 30 34  0  0  0  0  0  0  0  0999 V2000
   25.2392   35.7915   19.1068 N   0  0  0  0  0  0  0  0  0  0  0  0
   26.5643   39.2064   22.4370 N   0  0  0  0  0  0  0  0  0  0  0  0
   25.6486   34.4096   19.3751 C   0  0  0  0  0  0  0  0  0  0  0  0
   25.6968   33.8236   17.9720 C   0  0  2  0  0  0  0  0  0  0  0  0
   24.9041   36.6891   20.2066 C   0  0  0  0  0  0  0  0  0  0  0  0
   23.6112   36.7988   20.7580 C   0  0  0  0  0  0  0  0  0  0  0  0
   23.2861   37.6629   21.7738 C   0  0  0  0  0  0  0  0  0  0  0  0
   23.8965   39.4728   23.3817 C   0  0  0  0  0  0  0  0  0  0  0  0
   28.7005   39.8292   22.8509 C   0  0  0  0  0  0  0  0  0  0  0  0
   28.2070   37.8459   21.2560 C   0  0  0  0  0  0  0  0  0  0  0  0
   25.9056   37.5251   20.7760 C   0  0  0  0  0  0  0  0  0  0  0  0
   24.8147   42.5717   24.6369 O   0  0  0  0  0  0  0  0  0  0  0  0
   24.6997   41.3731   24.9018 C   0  0  0  0  0  0  0  0  0  0  0  0
   24.3248   40.9392   26.0989 O   0  0  0  0  0  0  0  0  0  0  0  0
   24.9995   40.3355   23.8794 C   0  0  1  0  0  0  0  0  0  0  0  0
   22.7506   39.5237   23.8413 O   0  0  0  0  0  0  0  0  0  0  0  0
   26.3144   40.1709   23.4103 C   0  0  0  0  0  0  0  0  0  0  0  0
   27.9209   39.0021   22.1479 C   0  0  0  0  0  0  0  0  0  0  0  0
   27.8093   40.8511   23.9011 S   0  0  0  0  0  0  0  0  0  0  0  0
   25.5769   38.3991   21.8369 C   0  0  0  0  0  0  0  0  0  0  0  0
   24.2630   38.4947   22.3208 C   0  0  0  0  0  0  0  0  0  0  0  0
   22.6342   35.9969   20.2890 F   0  0  0  0  0  0  0  0  0  0  0  0
   27.2065   37.5405   20.2491 N   0  0  0  0  0  0  0  0  0  0  0  0
   27.2693   38.3380   19.0429 C   0  0  0  0  0  0  0  0  0  0  0  0
   24.5999   35.9153   17.8017 C   0  0  0  0  0  0  0  0  0  0  0  0
   26.9861   33.2889   17.6693 O   0  0  0  0  0  0  0  0  0  0  0  0
   25.4974   34.9856   17.0025 C   0  0  2  0  0  0  0  0  0  0  0  0
   24.9384   34.4497   15.7467 N   0  0  0  0  0  0  0  0  0  0  0  0
   25.9107   33.7901   14.8562 C   0  0  0  0  0  0  0  0  0  0  0  0
   23.7271   33.6404   15.9506 C   0  0  0  0  0  0  0  0  0  0  0  0
  1  5  1  0  0  0  0
  2 17  1  0  0  0  0
  3  1  1  0  0  0  0
  4  3  1  0  0  0  0
  4 26  1  6  0  0  0
  5 11  2  0  0  0  0
  5  6  1  0  0  0  0
  6  7  2  0  0  0  0
  7 21  1  0  0  0  0
  8 15  1  0  0  0  0
  8 16  2  0  0  0  0
  9 19  1  0  0  0  0
 10 18  1  0  0  0  0
 11 20  1  0  0  0  0
 13 14  1  0  0  0  0
 13 12  2  0  0  0  0
 15 13  1  1  0  0  0
 17 19  2  0  0  0  0
 17 15  1  0  0  0  0
 18  2  1  0  0  0  0
 18  9  2  0  0  0  0
 20 21  2  0  0  0  0
 20  2  1  0  0  0  0
 21  8  1  0  0  0  0
 22  6  1  0  0  0  0
 23 11  1  0  0  0  0
 23 10  1  0  0  0  0
 24 23  1  0  0  0  0
 25  1  1  0  0  0  0
 27  4  1  0  0  0  0
 27 25  1  0  0  0  0
 27 28  1  6  0  0  0
 29 28  1  0  0  0  0
 30 28  1  0  0  0  0
M  END
>  <CHROM.1>
-88.21964248,179.51527734,-114.63975803,80.92461962,-78.11375620,25.52463961
37.70123644,20.93219147,1.60903828,-0.17372787,-2.28917326

>  <Name>
lig.pdb

>  <RI>
0

>  <Rbt.Current_Directory>
/home/itssahil/PROJECTS/Mol_Feturizer/New_Systems/rnas/6bfb

>  <Rbt.Executable>
rbdock ($Id: //depot/dev/client3/rdock/2013.1/src/exe/rbdock.cxx#4 $)

>  <Rbt.Library>
libRbt.so (2013.1, Build901 2013/11/27)

>  <Rbt.Parameter_File>
/export/apps/rDock/src/rDock_2013.1_src/data/scripts/dock_solv.prm

>  <Rbt.Receptor>
prm/pocket_docking_5.prm

>  <SCORE>
-38.2945

>  <SCORE.INTER>
-34.5524

>  <SCORE.INTER.CONST>
1

>  <SCORE.INTER.POLAR>
-1.86945

>  <SCORE.INTER.ROT>
3

>  <SCORE.INTER.SOLV>
13.4493

>  <SCORE.INTER.VDW>
-26.8865

>  <SCORE.INTER.norm>
-1.15175

>  <SCORE.INTRA>
-3.74214

>  <SCORE.INTRA.DIHEDRAL>
-5.58917

>  <SCORE.INTRA.DIHEDRAL.0>
9.41909

>  <SCORE.INTRA.POLAR>
0

>  <SCORE.INTRA.POLAR.0>
0

>  <SCORE.INTRA.REPUL>
0.0961479

>  <SCORE.INTRA.REPUL.0>
0

>  <SCORE.INTRA.SOLV>
-0.0563516

>  <SCORE.INTRA.SOLV.lig_0>
-26.2491

>  <SCORE.INTRA.VDW>
-1.40012

>  <SCORE.INTRA.VDW.0>
2.57239

>  <SCORE.INTRA.norm>
-0.124738

>  <SCORE.RESTR>
0

>  <SCORE.RESTR.CAVITY>
0

>  <SCORE.RESTR.norm>
0

>  <SCORE.SYSTEM>
0

>  <SCORE.SYSTEM.CONST>
0

>  <SCORE.SYSTEM.DIHEDRAL>
0

>  <SCORE.SYSTEM.SOLV>
0

>  <SCORE.SYSTEM.norm>
0

>  <SCORE.heavy>
30

>  <SCORE.norm>
-1.27648

>  <RMSD>
3.064

$$$$
lig.pdb
 OpenBabel11021811523D
libRbt.so/2013.1/901 2013/11/27
 30 34  0  0  0  0  0  0  0  0999 V2000
   26.1186   36.5007   18.8446 N   0  0  0  0  0  0  0  0  0  0  0  0
   26.1765   39.2840   22.9381 N   0  0  0  0  0  0  0  0  0  0  0  0
   26.1489   37.2334   17.5751 C   0  0  0  0  0  0  0  0  0  0  0  0
   27.1026   36.3826   16.7499 C   0  0  2  0  0  0  0  0  0  0  0  0
   25.4398   37.0639   20.0062 C   0  0  0  0  0  0  0  0  0  0  0  0
   24.0844   36.8231   20.3108 C   0  0  0  0  0  0  0  0  0  0  0  0
   23.4350   37.3742   21.3871 C   0  0  0  0  0  0  0  0  0  0  0  0
   23.4007   38.8677   23.3877 C   0  0  0  0  0  0  0  0  0  0  0  0
   28.0462   40.1648   23.8607 C   0  0  0  0  0  0  0  0  0  0  0  0
   28.2279   38.5224   21.8630 C   0  0  0  0  0  0  0  0  0  0  0  0
   26.1452   37.9172   20.9009 C   0  0  0  0  0  0  0  0  0  0  0  0
   24.0675   40.5464   26.4738 O   0  0  0  0  0  0  0  0  0  0  0  0
   23.5469   40.5007   25.3571 C   0  0  0  0  0  0  0  0  0  0  0  0
   22.3757   41.0663   25.0916 O   0  0  0  0  0  0  0  0  0  0  0  0
   24.2093   39.7800   24.2375 C   0  0  1  0  0  0  0  0  0  0  0  0
   22.2136   38.6161   23.6209 O   0  0  0  0  0  0  0  0  0  0  0  0
   25.5850   39.9540   24.0065 C   0  0  0  0  0  0  0  0  0  0  0  0
   27.5735   39.3880   22.8813 C   0  0  0  0  0  0  0  0  0  0  0  0
   26.8116   40.7611   24.8910 S   0  0  0  0  0  0  0  0  0  0  0  0
   25.4833   38.4674   22.0219 C   0  0  0  0  0  0  0  0  0  0  0  0
   24.1209   38.2241   22.2547 C   0  0  0  0  0  0  0  0  0  0  0  0
   23.3803   35.9848   19.5239 F   0  0  0  0  0  0  0  0  0  0  0  0
   27.4783   38.2743   20.6446 N   0  0  0  0  0  0  0  0  0  0  0  0
   27.5540   39.3141   19.6407 C   0  0  0  0  0  0  0  0  0  0  0  0
   27.2835   35.6350   18.9895 C   0  0  0  0  0  0  0  0  0  0  0  0
   26.4919   35.9305   15.5405 O   0  0  0  0  0  0  0  0  0  0  0  0
   27.3835   35.1216   17.5630 C   0  0  2  0  0  0  0  0  0  0  0  0
   28.6933   34.5851   17.1468 N   0  0  0  0  0  0  0  0  0  0  0  0
   29.8414   35.4816   17.3738 C   0  0  0  0  0  0  0  0  0  0  0  0
   28.9428   33.2207   17.6369 C   0  0  0  0  0  0  0  0  0  0  0  0
  1  5  1  0  0  0  0
  2 17  1  0  0  0  0
  3  1  1  0  0  0  0
  4  3  1  0  0  0  0
  4 26  1  6  0  0  0
  5 11  2  0  0  0  0
  5  6  1  0  0  0  0
  6  7  2  0  0  0  0
  7 21  1  0  0  0  0
  8 15  1  0  0  0  0
  8 16  2  0  0  0  0
  9 19  1  0  0  0  0
 10 18  1  0  0  0  0
 11 20  1  0  0  0  0
 13 14  1  0  0  0  0
 13 12  2  0  0  0  0
 15 13  1  1  0  0  0
 17 19  2  0  0  0  0
 17 15  1  0  0  0  0
 18  2  1  0  0  0  0
 18  9  2  0  0  0  0
 20 21  2  0  0  0  0
 20  2  1  0  0  0  0
 21  8  1  0  0  0  0
 22  6  1  0  0  0  0
 23 11  1  0  0  0  0
 23 10  1  0  0  0  0
 24 23  1  0  0  0  0
 25  1  1  0  0  0  0
 27  4  1  0  0  0  0
 27 25  1  0  0  0  0
 27 28  1  6  0  0  0
 29 28  1  0  0  0  0
 30 28  1  0  0  0  0
M  END
>  <CHROM.1>
90.96319266,0.26316703,134.02322148,79.98277881,61.41816064,25.92888676,37.98307135
21.18797082,1.23186681,-0.11444390,-2.18403814

>  <Name>
lig.pdb

>  <RI>
0

>  <Rbt.Current_Directory>
/home/itssahil/PROJECTS/Mol_Feturizer/New_Systems/rnas/6bfb

>  <Rbt.Executable>
rbdock ($Id: //depot/dev/client3/rdock/2013.1/src/exe/rbdock.cxx#4 $)

>  <Rbt.Library>
libRbt.so (2013.1, Build901 2013/11/27)

>  <Rbt.Parameter_File>
/export/apps/rDock/src/rDock_2013.1_src/data/scripts/dock_solv.prm

>  <Rbt.Receptor>
prm/pocket_docking_7.prm

>  <SCORE>
-31.6456

>  <SCORE.INTER>
-26.2142

>  <SCORE.INTER.CONST>
1

>  <SCORE.INTER.POLAR>
-0.331019

>  <SCORE.INTER.ROT>
3

>  <SCORE.INTER.SOLV>
14.8646

>  <SCORE.INTER.VDW>
-26.9276

>  <SCORE.INTER.norm>
-0.873807

>  <SCORE.INTRA>
-5.4314

>  <SCORE.INTRA.DIHEDRAL>
-5.89913

>  <SCORE.INTRA.DIHEDRAL.0>
9.41909

>  <SCORE.INTRA.POLAR>
0

>  <SCORE.INTRA.POLAR.0>
0

>  <SCORE.INTRA.REPUL>
0

>  <SCORE.INTRA.REPUL.0>
0

>  <SCORE.INTRA.SOLV>
-0.109142

>  <SCORE.INTRA.SOLV.lig_0>
-26.2491

>  <SCORE.INTRA.VDW>
-2.42726

>  <SCORE.INTRA.VDW.0>
2.57239

>  <SCORE.INTRA.norm>
-0.181047

>  <SCORE.RESTR>
0

>  <SCORE.RESTR.CAVITY>
0

>  <SCORE.RESTR.norm>
0

>  <SCORE.SYSTEM>
0

>  <SCORE.SYSTEM.CONST>
0

>  <SCORE.SYSTEM.DIHEDRAL>
0

>  <SCORE.SYSTEM.SOLV>
0

>  <SCORE.SYSTEM.norm>
0

>  <SCORE.heavy>
30

>  <SCORE.norm>
-1.05485

>  <RMSD>
3.151

$$$$
lig.pdb
 OpenBabel11021811523D
libRbt.so/2013.1/901 2013/11/27
 30 34  0  0  0  0  0  0  0  0999 V2000
   26.5922   36.2965   18.8255 N   0  0  0  0  0  0  0  0  0  0  0  0
   26.1432   39.1606   22.8383 N   0  0  0  0  0  0  0  0  0  0  0  0
   27.8147   35.5422   19.1190 C   0  0  0  0  0  0  0  0  0  0  0  0
   28.1918   35.0170   17.7420 C   0  0  2  0  0  0  0  0  0  0  0  0
   25.7850   36.8453   19.9094 C   0  0  0  0  0  0  0  0  0  0  0  0
   24.4225   36.5373   20.1008 C   0  0  0  0  0  0  0  0  0  0  0  0
   23.6528   37.0739   21.1025 C   0  0  0  0  0  0  0  0  0  0  0  0
   23.3641   38.6032   23.0549 C   0  0  0  0  0  0  0  0  0  0  0  0
   27.8755   40.1600   23.8979 C   0  0  0  0  0  0  0  0  0  0  0  0
   28.3184   38.4900   21.9649 C   0  0  0  0  0  0  0  0  0  0  0  0
   26.3631   37.7534   20.8406 C   0  0  0  0  0  0  0  0  0  0  0  0
   23.2563   41.5118   25.0597 O   0  0  0  0  0  0  0  0  0  0  0  0
   23.2504   40.2810   24.9885 C   0  0  0  0  0  0  0  0  0  0  0  0
   22.5607   39.5204   25.8298 O   0  0  0  0  0  0  0  0  0  0  0  0
   24.0458   39.5750   23.9490 C   0  0  1  0  0  0  0  0  0  0  0  0
   22.1758   38.2922   23.1902 O   0  0  0  0  0  0  0  0  0  0  0  0
   25.4254   39.8187   23.8342 C   0  0  0  0  0  0  0  0  0  0  0  0
   27.5323   39.3391   22.9007 C   0  0  0  0  0  0  0  0  0  0  0  0
   26.5254   40.7089   24.8018 S   0  0  0  0  0  0  0  0  0  0  0  0
   25.5771   38.2893   21.8858 C   0  0  0  0  0  0  0  0  0  0  0  0
   24.2141   37.9770   22.0051 C   0  0  0  0  0  0  0  0  0  0  0  0
   23.8355   35.6464   19.2766 F   0  0  0  0  0  0  0  0  0  0  0  0
   27.6931   38.1771   20.6925 N   0  0  0  0  0  0  0  0  0  0  0  0
   27.8025   39.1992   19.6735 C   0  0  0  0  0  0  0  0  0  0  0  0
   25.9884   35.8671   17.5691 C   0  0  0  0  0  0  0  0  0  0  0  0
   29.5063   35.4284   17.3640 O   0  0  0  0  0  0  0  0  0  0  0  0
   27.2505   35.6849   16.7430 C   0  0  2  0  0  0  0  0  0  0  0  0
   27.1410   34.8141   15.5571 N   0  0  0  0  0  0  0  0  0  0  0  0
   26.5096   33.5034   15.7951 C   0  0  0  0  0  0  0  0  0  0  0  0
   26.5799   35.5011   14.3836 C   0  0  0  0  0  0  0  0  0  0  0  0
  1  5  1  0  0  0  0
  2 17  1  0  0  0  0
  3  1  1  0  0  0  0
  4  3  1  0  0  0  0
  4 26  1  6  0  0  0
  5 11  2  0  0  0  0
  5  6  1  0  0  0  0
  6  7  2  0  0  0  0
  7 21  1  0  0  0  0
  8 15  1  0  0  0  0
  8 16  2  0  0  0  0
  9 19  1  0  0  0  0
 10 18  1  0  0  0  0
 11 20  1  0  0  0  0
 13 14  1  0  0  0  0
 13 12  2  0  0  0  0
 15 13  1  1  0  0  0
 17 19  2  0  0  0  0
 17 15  1  0  0  0  0
 18  2  1  0  0  0  0
 18  9  2  0  0  0  0
 20 21  2  0  0  0  0
 20  2  1  0  0  0  0
 21  8  1  0  0  0  0
 22  6  1  0  0  0  0
 23 11  1  0  0  0  0
 23 10  1  0  0  0  0
 24 23  1  0  0  0  0
 25  1  1  0  0  0  0
 27  4  1  0  0  0  0
 27 25  1  0  0  0  0
 27 28  1  6  0  0  0
 29 28  1  0  0  0  0
 30 28  1  0  0  0  0
M  END
>  <CHROM.1>
-122.51133084,2.35238916,-125.98160702,68.07381746,64.88853870,25.86046880
37.76868292,20.93721565,1.28239230,-0.20120561,-2.18804048

>  <Name>
lig.pdb

>  <RI>
0

>  <Rbt.Current_Directory>
/home/itssahil/PROJECTS/Mol_Feturizer/New_Systems/rnas/6bfb

>  <Rbt.Executable>
rbdock ($Id: //depot/dev/client3/rdock/2013.1/src/exe/rbdock.cxx#4 $)

>  <Rbt.Library>
libRbt.so (2013.1, Build901 2013/11/27)

>  <Rbt.Parameter_File>
/export/apps/rDock/src/rDock_2013.1_src/data/scripts/dock_solv.prm

>  <Rbt.Receptor>
prm/blind_docking_80.prm

>  <SCORE>
-33.6627

>  <SCORE.INTER>
-28.1584

>  <SCORE.INTER.CONST>
1

>  <SCORE.INTER.POLAR>
-0.875692

>  <SCORE.INTER.ROT>
3

>  <SCORE.INTER.SOLV>
13.5432

>  <SCORE.INTER.VDW>
-25.9677

>  <SCORE.INTER.norm>
-0.938613

>  <SCORE.INTRA>
-5.50431

>  <SCORE.INTRA.DIHEDRAL>
-7.23195

>  <SCORE.INTRA.DIHEDRAL.0>
9.41909

>  <SCORE.INTRA.POLAR>
0

>  <SCORE.INTRA.POLAR.0>
0

>  <SCORE.INTRA.REPUL>
0.0241137

>  <SCORE.INTRA.REPUL.0>
0

>  <SCORE.INTRA.SOLV>
-0.25889

>  <SCORE.INTRA.SOLV.lig_0>
-26.2491

>  <SCORE.INTRA.VDW>
-1.87945

>  <SCORE.INTRA.VDW.0>
2.57239

>  <SCORE.INTRA.norm>
-0.183477

>  <SCORE.RESTR>
0

>  <SCORE.RESTR.CAVITY>
0

>  <SCORE.RESTR.norm>
0

>  <SCORE.SYSTEM>
0

>  <SCORE.SYSTEM.CONST>
0

>  <SCORE.SYSTEM.DIHEDRAL>
0

>  <SCORE.SYSTEM.SOLV>
0

>  <SCORE.SYSTEM.norm>
0

>  <SCORE.heavy>
30

>  <SCORE.norm>
-1.12209

>  <RMSD>
3.160

$$$$
lig.pdb
 OpenBabel11021811523D
libRbt.so/2013.1/901 2013/11/27
 30 34  0  0  0  0  0  0  0  0999 V2000
   24.9028   35.6211   19.4259 N   0  0  0  0  0  0  0  0  0  0  0  0
   26.7306   39.1875   22.3321 N   0  0  0  0  0  0  0  0  0  0  0  0
   25.6639   34.4031   19.7201 C   0  0  0  0  0  0  0  0  0  0  0  0
   25.4244   33.5781   18.4646 C   0  0  2  0  0  0  0  0  0  0  0  0
   24.7182   36.6422   20.4509 C   0  0  0  0  0  0  0  0  0  0  0  0
   23.4778   36.9208   21.0604 C   0  0  0  0  0  0  0  0  0  0  0  0
   23.2949   37.9001   22.0046 C   0  0  0  0  0  0  0  0  0  0  0  0
   24.1622   39.7846   23.3940 C   0  0  0  0  0  0  0  0  0  0  0  0
   28.9350   39.6451   22.5644 C   0  0  0  0  0  0  0  0  0  0  0  0
   28.1697   37.5790   21.1981 C   0  0  0  0  0  0  0  0  0  0  0  0
   25.8231   37.4302   20.8804 C   0  0  0  0  0  0  0  0  0  0  0  0
   24.9485   41.5512   25.8646 O   0  0  0  0  0  0  0  0  0  0  0  0
   25.2234   41.7328   24.6766 C   0  0  0  0  0  0  0  0  0  0  0  0
   25.3900   42.9439   24.1593 O   0  0  0  0  0  0  0  0  0  0  0  0
   25.3656   40.5833   23.7439 C   0  0  1  0  0  0  0  0  0  0  0  0
   23.0569   39.9829   23.9097 O   0  0  0  0  0  0  0  0  0  0  0  0
   26.6284   40.2556   23.2203 C   0  0  0  0  0  0  0  0  0  0  0  0
   28.0430   38.8332   21.9889 C   0  0  0  0  0  0  0  0  0  0  0  0
   28.2052   40.8365   23.5591 S   0  0  0  0  0  0  0  0  0  0  0  0
   25.6403   38.4239   21.8687 C   0  0  0  0  0  0  0  0  0  0  0  0
   24.3734   38.6843   22.4136 C   0  0  0  0  0  0  0  0  0  0  0  0
   22.4068   36.1733   20.7261 F   0  0  0  0  0  0  0  0  0  0  0  0
   27.0839   37.2772   20.2827 N   0  0  0  0  0  0  0  0  0  0  0  0
   27.1381   37.9523   19.0036 C   0  0  0  0  0  0  0  0  0  0  0  0
   23.8975   35.3867   18.3954 C   0  0  0  0  0  0  0  0  0  0  0  0
   26.6520   33.2184   17.8294 O   0  0  0  0  0  0  0  0  0  0  0  0
   24.7008   34.4854   17.4730 C   0  0  2  0  0  0  0  0  0  0  0  0
   23.9285   33.6355   16.5467 N   0  0  0  0  0  0  0  0  0  0  0  0
   22.6712   34.2250   16.0518 C   0  0  0  0  0  0  0  0  0  0  0  0
   24.7457   33.0682   15.4631 C   0  0  0  0  0  0  0  0  0  0  0  0
  1  5  1  0  0  0  0
  2 17  1  0  0  0  0
  3  1  1  0  0  0  0
  4  3  1  0  0  0  0
  4 26  1  6  0  0  0
  5 11  2  0  0  0  0
  5  6  1  0  0  0  0
  6  7  2  0  0  0  0
  7 21  1  0  0  0  0
  8 15  1  0  0  0  0
  8 16  2  0  0  0  0
  9 19  1  0  0  0  0
 10 18  1  0  0  0  0
 11 20  1  0  0  0  0
 13 14  1  0  0  0  0
 13 12  2  0  0  0  0
 15 13  1  1  0  0  0
 17 19  2  0  0  0  0
 17 15  1  0  0  0  0
 18  2  1  0  0  0  0
 18  9  2  0  0  0  0
 20 21  2  0  0  0  0
 20  2  1  0  0  0  0
 21  8  1  0  0  0  0
 22  6  1  0  0  0  0
 23 11  1  0  0  0  0
 23 10  1  0  0  0  0
 24 23  1  0  0  0  0
 25  1  1  0  0  0  0
 27  4  1  0  0  0  0
 27 25  1  0  0  0  0
 27 28  1  6  0  0  0
 29 28  1  0  0  0  0
 30 28  1  0  0  0  0
M  END
>  <CHROM.1>
-110.70784391,-3.58605087,67.99356374,87.51750528,147.74917941,25.45590195
37.69043186,21.02023149,1.72759850,-0.09446647,-2.36887575

>  <Name>
lig.pdb

>  <RI>
0

>  <Rbt.Current_Directory>
/home/itssahil/PROJECTS/Mol_Feturizer/New_Systems/rnas/6bfb

>  <Rbt.Executable>
rbdock ($Id: //depot/dev/client3/rdock/2013.1/src/exe/rbdock.cxx#4 $)

>  <Rbt.Library>
libRbt.so (2013.1, Build901 2013/11/27)

>  <Rbt.Parameter_File>
/export/apps/rDock/src/rDock_2013.1_src/data/scripts/dock_solv.prm

>  <Rbt.Receptor>
prm/pocket_docking_7.prm

>  <SCORE>
-35.7904

>  <SCORE.INTER>
-31.9355

>  <SCORE.INTER.CONST>
1

>  <SCORE.INTER.POLAR>
-1.32977

>  <SCORE.INTER.ROT>
3

>  <SCORE.INTER.SOLV>
14.5111

>  <SCORE.INTER.VDW>
-27.2948

>  <SCORE.INTER.norm>
-1.06452

>  <SCORE.INTRA>
-3.85487

>  <SCORE.INTRA.DIHEDRAL>
-3.62811

>  <SCORE.INTRA.DIHEDRAL.0>
9.41909

>  <SCORE.INTRA.POLAR>
0

>  <SCORE.INTRA.POLAR.0>
0

>  <SCORE.INTRA.REPUL>
0.053228

>  <SCORE.INTRA.REPUL.0>
0

>  <SCORE.INTRA.SOLV>
-0.220643

>  <SCORE.INTRA.SOLV.lig_0>
-26.2491

>  <SCORE.INTRA.VDW>
-2.19663

>  <SCORE.INTRA.VDW.0>
2.57239

>  <SCORE.INTRA.norm>
-0.128496

>  <SCORE.RESTR>
0

>  <SCORE.RESTR.CAVITY>
0

>  <SCORE.RESTR.norm>
0

>  <SCORE.SYSTEM>
0

>  <SCORE.SYSTEM.CONST>
0

>  <SCORE.SYSTEM.DIHEDRAL>
0

>  <SCORE.SYSTEM.SOLV>
0

>  <SCORE.SYSTEM.norm>
0

>  <SCORE.heavy>
30

>  <SCORE.norm>
-1.19301

>  <RMSD>
3.161

$$$$
lig.pdb
 OpenBabel11021811523D
libRbt.so/2013.1/901 2013/11/27
 30 34  0  0  0  0  0  0  0  0999 V2000
   26.5646   36.3125   18.7387 N   0  0  0  0  0  0  0  0  0  0  0  0
   26.0895   39.0747   22.8194 N   0  0  0  0  0  0  0  0  0  0  0  0
   27.8060   35.5856   19.0214 C   0  0  0  0  0  0  0  0  0  0  0  0
   28.1886   35.0783   17.6391 C   0  0  2  0  0  0  0  0  0  0  0  0
   25.7500   36.8350   19.8300 C   0  0  0  0  0  0  0  0  0  0  0  0
   24.3856   36.5247   20.0032 C   0  0  0  0  0  0  0  0  0  0  0  0
   23.6092   37.0371   21.0124 C   0  0  0  0  0  0  0  0  0  0  0  0
   23.3080   38.5168   23.0008 C   0  0  0  0  0  0  0  0  0  0  0  0
   27.8153   40.0439   23.9170 C   0  0  0  0  0  0  0  0  0  0  0  0
   28.2703   38.4228   21.9457 C   0  0  0  0  0  0  0  0  0  0  0  0
   26.3225   37.7182   20.7883 C   0  0  0  0  0  0  0  0  0  0  0  0
   23.1930   41.3736   25.0807 O   0  0  0  0  0  0  0  0  0  0  0  0
   23.1823   40.1453   24.9754 C   0  0  0  0  0  0  0  0  0  0  0  0
   22.4811   39.3650   25.7888 O   0  0  0  0  0  0  0  0  0  0  0  0
   23.9844   39.4645   23.9243 C   0  0  1  0  0  0  0  0  0  0  0  0
   22.1183   38.2046   23.1191 O   0  0  0  0  0  0  0  0  0  0  0  0
   25.3653   39.7086   23.8262 C   0  0  0  0  0  0  0  0  0  0  0  0
   27.4784   39.2491   22.8967 C   0  0  0  0  0  0  0  0  0  0  0  0
   26.4592   40.5721   24.8244 S   0  0  0  0  0  0  0  0  0  0  0  0
   25.5293   38.2288   21.8409 C   0  0  0  0  0  0  0  0  0  0  0  0
   24.1650   37.9160   21.9419 C   0  0  0  0  0  0  0  0  0  0  0  0
   23.8035   35.6560   19.1523 F   0  0  0  0  0  0  0  0  0  0  0  0
   27.6542   38.1433   20.6610 N   0  0  0  0  0  0  0  0  0  0  0  0
   27.7729   39.1907   19.6692 C   0  0  0  0  0  0  0  0  0  0  0  0
   25.9649   35.8771   17.4824 C   0  0  0  0  0  0  0  0  0  0  0  0
   29.4911   35.5231   17.2575 O   0  0  0  0  0  0  0  0  0  0  0  0
   27.2268   35.7302   16.6491 C   0  0  2  0  0  0  0  0  0  0  0  0
   27.1320   34.8647   15.4580 N   0  0  0  0  0  0  0  0  0  0  0  0
   26.6065   33.5096   15.7051 C   0  0  0  0  0  0  0  0  0  0  0  0
   26.4759   35.5201   14.3162 C   0  0  0  0  0  0  0  0  0  0  0  0
  1  5  1  0  0  0  0
  2 17  1  0  0  0  0
  3  1  1  0  0  0  0
  4  3  1  0  0  0  0
  4 26  1  6  0  0  0
  5 11  2  0  0  0  0
  5  6  1  0  0  0  0
  6  7  2  0  0  0  0
  7 21  1  0  0  0  0
  8 15  1  0  0  0  0
  8 16  2  0  0  0  0
  9 19  1  0  0  0  0
 10 18  1  0  0  0  0
 11 20  1  0  0  0  0
 13 14  1  0  0  0  0
 13 12  2  0  0  0  0
 15 13  1  1  0  0  0
 17 19  2  0  0  0  0
 17 15  1  0  0  0  0
 18  2  1  0  0  0  0
 18  9  2  0  0  0  0
 20 21  2  0  0  0  0
 20  2  1  0  0  0  0
 21  8  1  0  0  0  0
 22  6  1  0  0  0  0
 23 11  1  0  0  0  0
 23 10  1  0  0  0  0
 24 23  1  0  0  0  0
 25  1  1  0  0  0  0
 27  4  1  0  0  0  0
 27 25  1  0  0  0  0
 27 28  1  6  0  0  0
 29 28  1  0  0  0  0
 30 28  1  0  0  0  0
M  END
>  <CHROM.1>
-124.45616394,-179.18831942,-126.22463134,-59.13312426,61.44639716,25.81972605
37.72522993,20.88225006,1.27837841,-0.20181113,-2.16759452

>  <Name>
lig.pdb

>  <RI>
0

>  <Rbt.Current_Directory>
/home/itssahil/PROJECTS/Mol_Feturizer/New_Systems/rnas/6bfb

>  <Rbt.Executable>
rbdock ($Id: //depot/dev/client3/rdock/2013.1/src/exe/rbdock.cxx#4 $)

>  <Rbt.Library>
libRbt.so (2013.1, Build901 2013/11/27)

>  <Rbt.Parameter_File>
/export/apps/rDock/src/rDock_2013.1_src/data/scripts/dock_solv.prm

>  <Rbt.Receptor>
prm/pocket_docking_6.prm

>  <SCORE>
-34.8447

>  <SCORE.INTER>
-30.2165

>  <SCORE.INTER.CONST>
1

>  <SCORE.INTER.POLAR>
-0.979796

>  <SCORE.INTER.ROT>
3

>  <SCORE.INTER.SOLV>
13.8185

>  <SCORE.INTER.VDW>
-27.0845

>  <SCORE.INTER.norm>
-1.00722

>  <SCORE.INTRA>
-4.62814

>  <SCORE.INTRA.DIHEDRAL>
-7.65367

>  <SCORE.INTRA.DIHEDRAL.0>
9.41909

>  <SCORE.INTRA.POLAR>
0

>  <SCORE.INTRA.POLAR.0>
0

>  <SCORE.INTRA.REPUL>
0.0191009

>  <SCORE.INTRA.REPUL.0>
0

>  <SCORE.INTRA.SOLV>
-0.213161

>  <SCORE.INTRA.SOLV.lig_0>
-26.2491

>  <SCORE.INTRA.VDW>
-0.790225

>  <SCORE.INTRA.VDW.0>
2.57239

>  <SCORE.INTRA.norm>
-0.154271

>  <SCORE.RESTR>
0

>  <SCORE.RESTR.CAVITY>
0

>  <SCORE.RESTR.norm>
0

>  <SCORE.SYSTEM>
0

>  <SCORE.SYSTEM.CONST>
0

>  <SCORE.SYSTEM.DIHEDRAL>
0

>  <SCORE.SYSTEM.SOLV>
0

>  <SCORE.SYSTEM.norm>
0

>  <SCORE.heavy>
30

>  <SCORE.norm>
-1.16149

>  <RMSD>
3.242

$$$$
lig.pdb
 OpenBabel11021811523D
libRbt.so/2013.1/901 2013/11/27
 30 34  0  0  0  0  0  0  0  0999 V2000
   24.7901   35.5280   19.2535 N   0  0  0  0  0  0  0  0  0  0  0  0
   26.8205   39.0263   22.1077 N   0  0  0  0  0  0  0  0  0  0  0  0
   25.5061   34.2764   19.5192 C   0  0  0  0  0  0  0  0  0  0  0  0
   25.2036   33.4745   18.2623 C   0  0  2  0  0  0  0  0  0  0  0  0
   24.6719   36.5458   20.2915 C   0  0  0  0  0  0  0  0  0  0  0  0
   23.4639   36.8507   20.9515 C   0  0  0  0  0  0  0  0  0  0  0  0
   23.3432   37.8273   21.9084 C   0  0  0  0  0  0  0  0  0  0  0  0
   24.3118   39.6793   23.2743 C   0  0  0  0  0  0  0  0  0  0  0  0
   29.0431   39.4271   22.2553 C   0  0  0  0  0  0  0  0  0  0  0  0
   28.1727   37.3908   20.9073 C   0  0  0  0  0  0  0  0  0  0  0  0
   25.8124   37.3029   20.6819 C   0  0  0  0  0  0  0  0  0  0  0  0
   25.6935   41.4331   25.7287 O   0  0  0  0  0  0  0  0  0  0  0  0
   25.4715   41.5910   24.5262 C   0  0  0  0  0  0  0  0  0  0  0  0
   25.1395   42.7679   24.0100 O   0  0  0  0  0  0  0  0  0  0  0  0
   25.5478   40.4451   23.5814 C   0  0  1  0  0  0  0  0  0  0  0  0
   23.2331   39.9013   23.8347 O   0  0  0  0  0  0  0  0  0  0  0  0
   26.7803   40.0900   23.0061 C   0  0  0  0  0  0  0  0  0  0  0  0
   28.1089   38.6419   21.7105 C   0  0  0  0  0  0  0  0  0  0  0  0
   28.3834   40.6289   23.2858 S   0  0  0  0  0  0  0  0  0  0  0  0
   25.6938   38.2935   21.6830 C   0  0  0  0  0  0  0  0  0  0  0  0
   24.4564   38.5813   22.2793 C   0  0  0  0  0  0  0  0  0  0  0  0
   22.3621   36.1326   20.6552 F   0  0  0  0  0  0  0  0  0  0  0  0
   27.0444   37.1229   20.0338 N   0  0  0  0  0  0  0  0  0  0  0  0
   27.0651   37.8058   18.7578 C   0  0  0  0  0  0  0  0  0  0  0  0
   23.7527   35.3459   18.2446 C   0  0  0  0  0  0  0  0  0  0  0  0
   26.4003   33.0702   17.5957 O   0  0  0  0  0  0  0  0  0  0  0  0
   24.4963   34.4209   17.2958 C   0  0  2  0  0  0  0  0  0  0  0  0
   23.6682   33.6131   16.3802 N   0  0  0  0  0  0  0  0  0  0  0  0
   22.4336   34.2655   15.9073 C   0  0  0  0  0  0  0  0  0  0  0  0
   24.4387   33.0098   15.2820 C   0  0  0  0  0  0  0  0  0  0  0  0
  1  5  1  0  0  0  0
  2 17  1  0  0  0  0
  3  1  1  0  0  0  0
  4  3  1  0  0  0  0
  4 26  1  6  0  0  0
  5 11  2  0  0  0  0
  5  6  1  0  0  0  0
  6  7  2  0  0  0  0
  7 21  1  0  0  0  0
  8 15  1  0  0  0  0
  8 16  2  0  0  0  0
  9 19  1  0  0  0  0
 10 18  1  0  0  0  0
 11 20  1  0  0  0  0
 13 14  1  0  0  0  0
 13 12  2  0  0  0  0
 15 13  1  1  0  0  0
 17 19  2  0  0  0  0
 17 15  1  0  0  0  0
 18  2  1  0  0  0  0
 18  9  2  0  0  0  0
 20 21  2  0  0  0  0
 20  2  1  0  0  0  0
 21  8  1  0  0  0  0
 22  6  1  0  0  0  0
 23 11  1  0  0  0  0
 23 10  1  0  0  0  0
 24 23  1  0  0  0  0
 25  1  1  0  0  0  0
 27  4  1  0  0  0  0
 27 25  1  0  0  0  0
 27 28  1  6  0  0  0
 29 28  1  0  0  0  0
 30 28  1  0  0  0  0
M  END
>  <CHROM.1>
-109.34832834,4.26346754,92.80146225,80.04659215,148.43329377,25.45672276
37.57293691,20.83603462,1.77083497,-0.08765998,-2.35907019

>  <Name>
lig.pdb

>  <RI>
0

>  <Rbt.Current_Directory>
/home/itssahil/PROJECTS/Mol_Feturizer/New_Systems/rnas/6bfb

>  <Rbt.Executable>
rbdock ($Id: //depot/dev/client3/rdock/2013.1/src/exe/rbdock.cxx#4 $)

>  <Rbt.Library>
libRbt.so (2013.1, Build901 2013/11/27)

>  <Rbt.Parameter_File>
/export/apps/rDock/src/rDock_2013.1_src/data/scripts/dock_solv.prm

>  <Rbt.Receptor>
prm/pocket_docking_6.prm

>  <SCORE>
-35.8858

>  <SCORE.INTER>
-31.3307

>  <SCORE.INTER.CONST>
1

>  <SCORE.INTER.POLAR>
-1.17937

>  <SCORE.INTER.ROT>
3

>  <SCORE.INTER.SOLV>
14.851

>  <SCORE.INTER.VDW>
-27.5062

>  <SCORE.INTER.norm>
-1.04436

>  <SCORE.INTRA>
-4.55512

>  <SCORE.INTRA.DIHEDRAL>
-4.97224

>  <SCORE.INTRA.DIHEDRAL.0>
9.41909

>  <SCORE.INTRA.POLAR>
0

>  <SCORE.INTRA.POLAR.0>
0

>  <SCORE.INTRA.REPUL>
0.0563929

>  <SCORE.INTRA.REPUL.0>
0

>  <SCORE.INTRA.SOLV>
-0.234248

>  <SCORE.INTRA.SOLV.lig_0>
-26.2491

>  <SCORE.INTRA.VDW>
-2.23384

>  <SCORE.INTRA.VDW.0>
2.57239

>  <SCORE.INTRA.norm>
-0.151837

>  <SCORE.RESTR>
0

>  <SCORE.RESTR.CAVITY>
0

>  <SCORE.RESTR.norm>
0

>  <SCORE.SYSTEM>
0

>  <SCORE.SYSTEM.CONST>
0

>  <SCORE.SYSTEM.DIHEDRAL>
0

>  <SCORE.SYSTEM.SOLV>
0

>  <SCORE.SYSTEM.norm>
0

>  <SCORE.heavy>
30

>  <SCORE.norm>
-1.19619

>  <RMSD>
3.375

$$$$
lig.pdb
 OpenBabel11021811523D
libRbt.so/2013.1/901 2013/11/27
 30 34  0  0  0  0  0  0  0  0999 V2000
   26.5479   39.9478   23.2127 N   0  0  0  0  0  0  0  0  0  0  0  0
   25.3716   42.8953   27.0121 N   0  0  0  0  0  0  0  0  0  0  0  0
   27.8935   39.5508   23.6381 C   0  0  0  0  0  0  0  0  0  0  0  0
   28.4546   38.9430   22.3613 C   0  0  2  0  0  0  0  0  0  0  0  0
   25.5792   40.4362   24.1877 C   0  0  0  0  0  0  0  0  0  0  0  0
   24.2511   39.9702   24.2691 C   0  0  0  0  0  0  0  0  0  0  0  0
   23.3290   40.4478   25.1666 C   0  0  0  0  0  0  0  0  0  0  0  0
   22.6711   42.0079   27.0016 C   0  0  0  0  0  0  0  0  0  0  0  0
   26.8609   44.1436   28.1725 C   0  0  0  0  0  0  0  0  0  0  0  0
   27.6860   42.4639   26.3783 C   0  0  0  0  0  0  0  0  0  0  0  0
   25.9515   41.4460   25.1193 C   0  0  0  0  0  0  0  0  0  0  0  0
   21.7192   44.8580   28.5856 O   0  0  0  0  0  0  0  0  0  0  0  0
   22.1703   43.7361   28.8262 C   0  0  0  0  0  0  0  0  0  0  0  0
   21.8378   43.0510   29.9134 O   0  0  0  0  0  0  0  0  0  0  0  0
   23.1416   43.0921   27.9024 C   0  0  1  0  0  0  0  0  0  0  0  0
   21.5209   41.5581   27.0433 O   0  0  0  0  0  0  0  0  0  0  0  0
   24.4870   43.4997   27.9022 C   0  0  0  0  0  0  0  0  0  0  0  0
   26.7169   43.2466   27.1923 C   0  0  0  0  0  0  0  0  0  0  0  0
   25.3733   44.5577   28.9188 S   0  0  0  0  0  0  0  0  0  0  0  0
   25.0090   41.9227   26.0586 C   0  0  0  0  0  0  0  0  0  0  0  0
   23.6879   41.4494   26.0684 C   0  0  0  0  0  0  0  0  0  0  0  0
   23.8575   38.9807   23.4423 F   0  0  0  0  0  0  0  0  0  0  0  0
   27.2295   42.0245   25.0719 N   0  0  0  0  0  0  0  0  0  0  0  0
   27.3150   43.0100   24.0153 C   0  0  0  0  0  0  0  0  0  0  0  0
   26.1272   39.2182   22.0218 C   0  0  0  0  0  0  0  0  0  0  0  0
   29.6574   39.5957   21.9525 O   0  0  0  0  0  0  0  0  0  0  0  0
   27.4398   39.2252   21.2564 C   0  0  2  0  0  0  0  0  0  0  0  0
   27.5971   38.1971   20.2101 N   0  0  0  0  0  0  0  0  0  0  0  0
   27.3566   36.8105   20.6493 C   0  0  0  0  0  0  0  0  0  0  0  0
   26.8828   38.5223   18.9661 C   0  0  0  0  0  0  0  0  0  0  0  0
  1  5  1  0  0  0  0
  2 17  1  0  0  0  0
  3  1  1  0  0  0  0
  4  3  1  0  0  0  0
  4 26  1  6  0  0  0
  5 11  2  0  0  0  0
  5  6  1  0  0  0  0
  6  7  2  0  0  0  0
  7 21  1  0  0  0  0
  8 15  1  0  0  0  0
  8 16  2  0  0  0  0
  9 19  1  0  0  0  0
 10 18  1  0  0  0  0
 11 20  1  0  0  0  0
 13 14  1  0  0  0  0
 13 12  2  0  0  0  0
 15 13  1  1  0  0  0
 17 19  2  0  0  0  0
 17 15  1  0  0  0  0
 18  2  1  0  0  0  0
 18  9  2  0  0  0  0
 20 21  2  0  0  0  0
 20  2  1  0  0  0  0
 21  8  1  0  0  0  0
 22  6  1  0  0  0  0
 23 11  1  0  0  0  0
 23 10  1  0  0  0  0
 24 23  1  0  0  0  0
 25  1  1  0  0  0  0
 27  4  1  0  0  0  0
 27 25  1  0  0  0  0
 27 28  1  6  0  0  0
 29 28  1  0  0  0  0
 30 28  1  0  0  0  0
M  END
>  <CHROM.1>
-131.74298733,-178.62304153,-103.95827629,60.79533206,61.11409847,25.45452058
41.37878177,25.18689468,1.13017749,-0.23950907,-2.28161926

>  <Name>
lig.pdb

>  <RI>
0

>  <Rbt.Current_Directory>
/home/itssahil/PROJECTS/Mol_Feturizer/New_Systems/rnas/6bfb

>  <Rbt.Executable>
rbdock ($Id: //depot/dev/client3/rdock/2013.1/src/exe/rbdock.cxx#4 $)

>  <Rbt.Library>
libRbt.so (2013.1, Build901 2013/11/27)

>  <Rbt.Parameter_File>
/export/apps/rDock/src/rDock_2013.1_src/data/scripts/dock_solv.prm

>  <Rbt.Receptor>
prm/pocket_docking_8.prm

>  <SCORE>
-38.5537

>  <SCORE.INTER>
-33.9076

>  <SCORE.INTER.CONST>
1

>  <SCORE.INTER.POLAR>
-1.76199

>  <SCORE.INTER.ROT>
3

>  <SCORE.INTER.SOLV>
12.5407

>  <SCORE.INTER.VDW>
-26.512

>  <SCORE.INTER.norm>
-1.13025

>  <SCORE.INTRA>
-4.64614

>  <SCORE.INTRA.DIHEDRAL>
-7.66673

>  <SCORE.INTRA.DIHEDRAL.0>
9.41909

>  <SCORE.INTRA.POLAR>
0

>  <SCORE.INTRA.POLAR.0>
0

>  <SCORE.INTRA.REPUL>
0

>  <SCORE.INTRA.REPUL.0>
0

>  <SCORE.INTRA.SOLV>
-0.253877

>  <SCORE.INTRA.SOLV.lig_0>
-26.2491

>  <SCORE.INTRA.VDW>
-0.685839

>  <SCORE.INTRA.VDW.0>
2.57239

>  <SCORE.INTRA.norm>
-0.154871

>  <SCORE.RESTR>
0

>  <SCORE.RESTR.CAVITY>
0

>  <SCORE.RESTR.norm>
0

>  <SCORE.SYSTEM>
0

>  <SCORE.SYSTEM.CONST>
0

>  <SCORE.SYSTEM.DIHEDRAL>
0

>  <SCORE.SYSTEM.SOLV>
0

>  <SCORE.SYSTEM.norm>
0

>  <SCORE.heavy>
30

>  <SCORE.norm>
-1.28512

>  <RMSD>
3.380

$$$$
lig.pdb
 OpenBabel11021811523D
libRbt.so/2013.1/901 2013/11/27
 30 34  0  0  0  0  0  0  0  0999 V2000
   23.7508   36.1519   19.6595 N   0  0  0  0  0  0  0  0  0  0  0  0
   26.8397   39.2194   22.0166 N   0  0  0  0  0  0  0  0  0  0  0  0
   22.7998   36.4822   18.5936 C   0  0  0  0  0  0  0  0  0  0  0  0
   22.9912   35.3156   17.6362 C   0  0  2  0  0  0  0  0  0  0  0  0
   24.0214   37.1058   20.7292 C   0  0  0  0  0  0  0  0  0  0  0  0
   23.0650   37.4926   21.6902 C   0  0  0  0  0  0  0  0  0  0  0  0
   23.3078   38.4111   22.6809 C   0  0  0  0  0  0  0  0  0  0  0  0
   24.8043   40.0559   23.8162 C   0  0  0  0  0  0  0  0  0  0  0  0
   29.0587   39.3721   21.5982 C   0  0  0  0  0  0  0  0  0  0  0  0
   27.6390   37.5329   20.4480 C   0  0  0  0  0  0  0  0  0  0  0  0
   25.3054   37.7104   20.8384 C   0  0  0  0  0  0  0  0  0  0  0  0
   25.8622   42.8230   24.7483 O   0  0  0  0  0  0  0  0  0  0  0  0
   26.4625   41.7472   24.7942 C   0  0  0  0  0  0  0  0  0  0  0  0
   27.4117   41.4968   25.6877 O   0  0  0  0  0  0  0  0  0  0  0  0
   26.1600   40.6646   23.8205 C   0  0  1  0  0  0  0  0  0  0  0  0
   23.9369   40.3534   24.6445 O   0  0  0  0  0  0  0  0  0  0  0  0
   27.1553   40.2198   22.9331 C   0  0  0  0  0  0  0  0  0  0  0  0
   27.9303   38.7279   21.2856 C   0  0  0  0  0  0  0  0  0  0  0  0
   28.8294   40.5662   22.8076 S   0  0  0  0  0  0  0  0  0  0  0  0
   25.5631   38.6397   21.8717 C   0  0  0  0  0  0  0  0  0  0  0  0
   24.5603   39.0169   22.7782 C   0  0  0  0  0  0  0  0  0  0  0  0
   21.8465   36.9164   21.6632 F   0  0  0  0  0  0  0  0  0  0  0  0
   26.3027   37.4442   19.8872 N   0  0  0  0  0  0  0  0  0  0  0  0
   26.0812   38.2039   18.6753 C   0  0  0  0  0  0  0  0  0  0  0  0
   24.7719   35.2202   19.1942 C   0  0  0  0  0  0  0  0  0  0  0  0
   21.7655   34.6207   17.4021 O   0  0  0  0  0  0  0  0  0  0  0  0
   23.9021   34.3132   18.3402 C   0  0  2  0  0  0  0  0  0  0  0  0
   24.5951   33.5154   17.3106 N   0  0  0  0  0  0  0  0  0  0  0  0
   25.3910   34.2921   16.3428 C   0  0  0  0  0  0  0  0  0  0  0  0
   25.3437   32.3775   17.8660 C   0  0  0  0  0  0  0  0  0  0  0  0
  1  5  1  0  0  0  0
  2 17  1  0  0  0  0
  3  1  1  0  0  0  0
  4  3  1  0  0  0  0
  4 26  1  1  0  0  0
  5 11  2  0  0  0  0
  5  6  1  0  0  0  0
  6  7  2  0  0  0  0
  7 21  1  0  0  0  0
  8 15  1  0  0  0  0
  8 16  2  0  0  0  0
  9 19  1  0  0  0  0
 10 18  1  0  0  0  0
 11 20  1  0  0  0  0
 13 14  1  0  0  0  0
 13 12  2  0  0  0  0
 15 13  1  1  0  0  0
 17 19  2  0  0  0  0
 17 15  1  0  0  0  0
 18  2  1  0  0  0  0
 18  9  2  0  0  0  0
 20 21  2  0  0  0  0
 20  2  1  0  0  0  0
 21  8  1  0  0  0  0
 22  6  1  0  0  0  0
 23 11  1  0  0  0  0
 23 10  1  0  0  0  0
 24 23  1  0  0  0  0
 25  1  1  0  0  0  0
 27  4  1  0  0  0  0
 27 25  1  0  0  0  0
 27 28  1  6  0  0  0
 29 28  1  0  0  0  0
 30 28  1  0  0  0  0
M  END
>  <CHROM.1>
66.49202552,1.54644459,-63.46976683,-173.90629968,57.58320344,25.34386297
37.94155710,21.10534954,1.90383484,-0.19370026,-2.31808213

>  <Name>
lig.pdb

>  <RI>
0

>  <Rbt.Current_Directory>
/home/itssahil/PROJECTS/Mol_Feturizer/New_Systems/rnas/6bfb

>  <Rbt.Executable>
rbdock ($Id: //depot/dev/client3/rdock/2013.1/src/exe/rbdock.cxx#4 $)

>  <Rbt.Library>
libRbt.so (2013.1, Build901 2013/11/27)

>  <Rbt.Parameter_File>
/export/apps/rDock/src/rDock_2013.1_src/data/scripts/dock_solv.prm

>  <Rbt.Receptor>
prm/pocket_docking_5.prm

>  <SCORE>
-38.031

>  <SCORE.INTER>
-32.7671

>  <SCORE.INTER.CONST>
1

>  <SCORE.INTER.POLAR>
-0.706544

>  <SCORE.INTER.ROT>
3

>  <SCORE.INTER.SOLV>
14.4195

>  <SCORE.INTER.VDW>
-29.8961

>  <SCORE.INTER.norm>
-1.09224

>  <SCORE.INTRA>
-5.31737

>  <SCORE.INTRA.DIHEDRAL>
-7.53031

>  <SCORE.INTRA.DIHEDRAL.0>
9.41909

>  <SCORE.INTRA.POLAR>
0

>  <SCORE.INTRA.POLAR.0>
0

>  <SCORE.INTRA.REPUL>
0

>  <SCORE.INTRA.REPUL.0>
0

>  <SCORE.INTRA.SOLV>
-0.0992143

>  <SCORE.INTRA.SOLV.lig_0>
-26.2491

>  <SCORE.INTRA.VDW>
-1.50261

>  <SCORE.INTRA.VDW.0>
2.57239

>  <SCORE.INTRA.norm>
-0.177246

>  <SCORE.RESTR>
0.0534739

>  <SCORE.RESTR.CAVITY>
0.0534739

>  <SCORE.RESTR.norm>
0.00178246

>  <SCORE.SYSTEM>
0

>  <SCORE.SYSTEM.CONST>
0

>  <SCORE.SYSTEM.DIHEDRAL>
0

>  <SCORE.SYSTEM.SOLV>
0

>  <SCORE.SYSTEM.norm>
0

>  <SCORE.heavy>
30

>  <SCORE.norm>
-1.2677

>  <RMSD>
3.496

$$$$
lig.pdb
 OpenBabel11021811523D
libRbt.so/2013.1/901 2013/11/27
 30 34  0  0  0  0  0  0  0  0999 V2000
   23.7587   36.1341   19.6369 N   0  0  0  0  0  0  0  0  0  0  0  0
   26.8733   39.2090   21.9503 N   0  0  0  0  0  0  0  0  0  0  0  0
   22.8335   36.4734   18.5513 C   0  0  0  0  0  0  0  0  0  0  0  0
   23.0076   35.2871   17.6149 C   0  0  2  0  0  0  0  0  0  0  0  0
   24.0389   37.0969   20.6962 C   0  0  0  0  0  0  0  0  0  0  0  0
   23.0888   37.4977   21.6577 C   0  0  0  0  0  0  0  0  0  0  0  0
   23.3405   38.4245   22.6383 C   0  0  0  0  0  0  0  0  0  0  0  0
   24.8502   40.0728   23.7509 C   0  0  0  0  0  0  0  0  0  0  0  0
   29.0911   39.3466   21.5205 C   0  0  0  0  0  0  0  0  0  0  0  0
   27.6572   37.5034   20.3945 C   0  0  0  0  0  0  0  0  0  0  0  0
   25.3263   37.6962   20.7937 C   0  0  0  0  0  0  0  0  0  0  0  0
   27.2872   41.5715   25.6515 O   0  0  0  0  0  0  0  0  0  0  0  0
   26.5212   41.7652   24.7050 C   0  0  0  0  0  0  0  0  0  0  0  0
   25.9237   42.9322   24.4973 O   0  0  0  0  0  0  0  0  0  0  0  0
   26.2089   40.6748   23.7432 C   0  0  1  0  0  0  0  0  0  0  0  0
   23.9881   40.3825   24.5802 O   0  0  0  0  0  0  0  0  0  0  0  0
   27.1980   40.2165   22.8556 C   0  0  0  0  0  0  0  0  0  0  0  0
   27.9581   38.7050   21.2191 C   0  0  0  0  0  0  0  0  0  0  0  0
   28.8732   40.5535   22.7193 S   0  0  0  0  0  0  0  0  0  0  0  0
   25.5932   38.6341   21.8167 C   0  0  0  0  0  0  0  0  0  0  0  0
   24.5965   39.0250   22.7240 C   0  0  0  0  0  0  0  0  0  0  0  0
   21.8674   36.9273   21.6417 F   0  0  0  0  0  0  0  0  0  0  0  0
   26.3179   37.4159   19.8406 N   0  0  0  0  0  0  0  0  0  0  0  0
   26.0946   38.1650   18.6225 C   0  0  0  0  0  0  0  0  0  0  0  0
   24.7611   35.1680   19.2019 C   0  0  0  0  0  0  0  0  0  0  0  0
   21.7672   34.6221   17.3721 O   0  0  0  0  0  0  0  0  0  0  0  0
   23.8800   34.2716   18.3482 C   0  0  2  0  0  0  0  0  0  0  0  0
   24.5666   33.4394   17.3420 N   0  0  0  0  0  0  0  0  0  0  0  0
   25.3420   34.1837   16.3329 C   0  0  0  0  0  0  0  0  0  0  0  0
   25.3334   32.3314   17.9320 C   0  0  0  0  0  0  0  0  0  0  0  0
  1  5  1  0  0  0  0
  2 17  1  0  0  0  0
  3  1  1  0  0  0  0
  4  3  1  0  0  0  0
  4 26  1  1  0  0  0
  5 11  2  0  0  0  0
  5  6  1  0  0  0  0
  6  7  2  0  0  0  0
  7 21  1  0  0  0  0
  8 15  1  0  0  0  0
  8 16  2  0  0  0  0
  9 19  1  0  0  0  0
 10 18  1  0  0  0  0
 11 20  1  0  0  0  0
 13 14  1  0  0  0  0
 13 12  2  0  0  0  0
 15 13  1  1  0  0  0
 17 19  2  0  0  0  0
 17 15  1  0  0  0  0
 18  2  1  0  0  0  0
 18  9  2  0  0  0  0
 20 21  2  0  0  0  0
 20  2  1  0  0  0  0
 21  8  1  0  0  0  0
 22  6  1  0  0  0  0
 23 11  1  0  0  0  0
 23 10  1  0  0  0  0
 24 23  1  0  0  0  0
 25  1  1  0  0  0  0
 27  4  1  0  0  0  0
 27 25  1  0  0  0  0
 27 28  1  6  0  0  0
 29 28  1  0  0  0  0
 30 28  1  0  0  0  0
M  END
>  <CHROM.1>
68.24139037,1.46753585,109.59417582,-174.33307146,54.55656988,25.35675804
37.93585845,21.05432010,1.90493223,-0.19185217,-2.33381428

>  <Name>
lig.pdb

>  <RI>
0

>  <Rbt.Current_Directory>
/home/itssahil/PROJECTS/Mol_Feturizer/New_Systems/rnas/6bfb

>  <Rbt.Executable>
rbdock ($Id: //depot/dev/client3/rdock/2013.1/src/exe/rbdock.cxx#4 $)

>  <Rbt.Library>
libRbt.so (2013.1, Build901 2013/11/27)

>  <Rbt.Parameter_File>
/export/apps/rDock/src/rDock_2013.1_src/data/scripts/dock_solv.prm

>  <Rbt.Receptor>
prm/blind_docking_80.prm

>  <SCORE>
-38.1627

>  <SCORE.INTER>
-32.961

>  <SCORE.INTER.CONST>
1

>  <SCORE.INTER.POLAR>
-0.766196

>  <SCORE.INTER.ROT>
3

>  <SCORE.INTER.SOLV>
14.5729

>  <SCORE.INTER.VDW>
-29.8776

>  <SCORE.INTER.norm>
-1.0987

>  <SCORE.INTRA>
-5.2343

>  <SCORE.INTRA.DIHEDRAL>
-7.56288

>  <SCORE.INTRA.DIHEDRAL.0>
9.41909

>  <SCORE.INTRA.POLAR>
0

>  <SCORE.INTRA.POLAR.0>
0

>  <SCORE.INTRA.REPUL>
0

>  <SCORE.INTRA.REPUL.0>
0

>  <SCORE.INTRA.SOLV>
-0.0935885

>  <SCORE.INTRA.SOLV.lig_0>
-26.2491

>  <SCORE.INTRA.VDW>
-1.40607

>  <SCORE.INTRA.VDW.0>
2.57239

>  <SCORE.INTRA.norm>
-0.174477

>  <SCORE.RESTR>
0.0326293

>  <SCORE.RESTR.CAVITY>
0.0326293

>  <SCORE.RESTR.norm>
0.00108764

>  <SCORE.SYSTEM>
0

>  <SCORE.SYSTEM.CONST>
0

>  <SCORE.SYSTEM.DIHEDRAL>
0

>  <SCORE.SYSTEM.SOLV>
0

>  <SCORE.SYSTEM.norm>
0

>  <SCORE.heavy>
30

>  <SCORE.norm>
-1.27209

>  <RMSD>
3.507

$$$$
lig.pdb
 OpenBabel11021811523D
libRbt.so/2013.1/901 2013/11/27
 30 34  0  0  0  0  0  0  0  0999 V2000
   23.7486   36.1267   19.6397 N   0  0  0  0  0  0  0  0  0  0  0  0
   26.8721   39.1821   21.9667 N   0  0  0  0  0  0  0  0  0  0  0  0
   22.8252   36.4732   18.5549 C   0  0  0  0  0  0  0  0  0  0  0  0
   22.9958   35.2901   17.6140 C   0  0  2  0  0  0  0  0  0  0  0  0
   24.0314   37.0844   20.7028 C   0  0  0  0  0  0  0  0  0  0  0  0
   23.0822   37.4846   21.6654 C   0  0  0  0  0  0  0  0  0  0  0  0
   23.3365   38.4067   22.6497 C   0  0  0  0  0  0  0  0  0  0  0  0
   24.8511   40.0456   23.7695 C   0  0  0  0  0  0  0  0  0  0  0  0
   29.0907   39.3141   21.5385 C   0  0  0  0  0  0  0  0  0  0  0  0
   27.6512   37.4800   20.4046 C   0  0  0  0  0  0  0  0  0  0  0  0
   25.3208   37.6790   20.8034 C   0  0  0  0  0  0  0  0  0  0  0  0
   27.2647   41.5195   25.6966 O   0  0  0  0  0  0  0  0  0  0  0  0
   26.5271   41.7288   24.7311 C   0  0  0  0  0  0  0  0  0  0  0  0
   25.9638   42.9094   24.5056 O   0  0  0  0  0  0  0  0  0  0  0  0
   26.2117   40.6432   23.7649 C   0  0  1  0  0  0  0  0  0  0  0  0
   23.9895   40.3550   24.5996 O   0  0  0  0  0  0  0  0  0  0  0  0
   27.1997   40.1850   22.8761 C   0  0  0  0  0  0  0  0  0  0  0  0
   27.9557   38.6774   21.2341 C   0  0  0  0  0  0  0  0  0  0  0  0
   28.8761   40.5170   22.7419 S   0  0  0  0  0  0  0  0  0  0  0  0
   25.5903   38.6121   21.8302 C   0  0  0  0  0  0  0  0  0  0  0  0
   24.5944   39.0027   22.7385 C   0  0  0  0  0  0  0  0  0  0  0  0
   21.8589   36.9183   21.6466 F   0  0  0  0  0  0  0  0  0  0  0  0
   26.3120   37.3992   19.8497 N   0  0  0  0  0  0  0  0  0  0  0  0
   26.0917   38.1537   18.6344 C   0  0  0  0  0  0  0  0  0  0  0  0
   24.7479   35.1588   19.2016 C   0  0  0  0  0  0  0  0  0  0  0  0
   21.7533   34.6302   17.3679 O   0  0  0  0  0  0  0  0  0  0  0  0
   23.8643   34.2687   18.3439 C   0  0  2  0  0  0  0  0  0  0  0  0
   24.5487   33.4381   17.3348 N   0  0  0  0  0  0  0  0  0  0  0  0
   25.3383   34.1829   16.3372 C   0  0  0  0  0  0  0  0  0  0  0  0
   25.3001   32.3171   17.9201 C   0  0  0  0  0  0  0  0  0  0  0  0
  1  5  1  0  0  0  0
  2 17  1  0  0  0  0
  3  1  1  0  0  0  0
  4  3  1  0  0  0  0
  4 26  1  1  0  0  0
  5 11  2  0  0  0  0
  5  6  1  0  0  0  0
  6  7  2  0  0  0  0
  7 21  1  0  0  0  0
  8 15  1  0  0  0  0
  8 16  2  0  0  0  0
  9 19  1  0  0  0  0
 10 18  1  0  0  0  0
 11 20  1  0  0  0  0
 13 14  1  0  0  0  0
 13 12  2  0  0  0  0
 15 13  1  1  0  0  0
 17 19  2  0  0  0  0
 17 15  1  0  0  0  0
 18  2  1  0  0  0  0
 18  9  2  0  0  0  0
 20 21  2  0  0  0  0
 20  2  1  0  0  0  0
 21  8  1  0  0  0  0
 22  6  1  0  0  0  0
 23 11  1  0  0  0  0
 23 10  1  0  0  0  0
 24 23  1  0  0  0  0
 25  1  1  0  0  0  0
 27  4  1  0  0  0  0
 27 25  1  0  0  0  0
 27 28  1  6  0  0  0
 29 28  1  0  0  0  0
 30 28  1  0  0  0  0
M  END
>  <CHROM.1>
68.24785832,0.84376905,107.71216382,-172.03544804,55.14755443,25.35204088
37.91725602,21.06514708,1.90699607,-0.18990987,-2.32961672

>  <Name>
lig.pdb

>  <RI>
0

>  <Rbt.Current_Directory>
/home/itssahil/PROJECTS/Mol_Feturizer/New_Systems/rnas/6bfb

>  <Rbt.Executable>
rbdock ($Id: //depot/dev/client3/rdock/2013.1/src/exe/rbdock.cxx#4 $)

>  <Rbt.Library>
libRbt.so (2013.1, Build901 2013/11/27)

>  <Rbt.Parameter_File>
/export/apps/rDock/src/rDock_2013.1_src/data/scripts/dock_solv.prm

>  <Rbt.Receptor>
prm/pocket_docking_8.prm

>  <SCORE>
-38.1829

>  <SCORE.INTER>
-33.0395

>  <SCORE.INTER.CONST>
1

>  <SCORE.INTER.POLAR>
-0.822007

>  <SCORE.INTER.ROT>
3

>  <SCORE.INTER.SOLV>
14.7152

>  <SCORE.INTER.VDW>
-29.7914

>  <SCORE.INTER.norm>
-1.10132

>  <SCORE.INTRA>
-5.18447

>  <SCORE.INTRA.DIHEDRAL>
-7.41888

>  <SCORE.INTRA.DIHEDRAL.0>
9.41909

>  <SCORE.INTRA.POLAR>
0

>  <SCORE.INTRA.POLAR.0>
0

>  <SCORE.INTRA.REPUL>
0

>  <SCORE.INTRA.REPUL.0>
0

>  <SCORE.INTRA.SOLV>
-0.0972504

>  <SCORE.INTRA.SOLV.lig_0>
-26.2491

>  <SCORE.INTRA.VDW>
-1.42641

>  <SCORE.INTRA.VDW.0>
2.57239

>  <SCORE.INTRA.norm>
-0.172816

>  <SCORE.RESTR>
0.0411397

>  <SCORE.RESTR.CAVITY>
0.0411397

>  <SCORE.RESTR.norm>
0.00137132

>  <SCORE.SYSTEM>
0

>  <SCORE.SYSTEM.CONST>
0

>  <SCORE.SYSTEM.DIHEDRAL>
0

>  <SCORE.SYSTEM.SOLV>
0

>  <SCORE.SYSTEM.norm>
0

>  <SCORE.heavy>
30

>  <SCORE.norm>
-1.27276

>  <RMSD>
3.515

$$$$
lig.pdb
 OpenBabel11021811523D
libRbt.so/2013.1/901 2013/11/27
 30 34  0  0  0  0  0  0  0  0999 V2000
   23.7722   36.1360   19.6280 N   0  0  0  0  0  0  0  0  0  0  0  0
   26.9069   39.2314   21.8861 N   0  0  0  0  0  0  0  0  0  0  0  0
   22.8315   36.4637   18.5523 C   0  0  0  0  0  0  0  0  0  0  0  0
   22.9984   35.2717   17.6219 C   0  0  2  0  0  0  0  0  0  0  0  0
   24.0620   37.1072   20.6769 C   0  0  0  0  0  0  0  0  0  0  0  0
   23.1212   37.5148   21.6446 C   0  0  0  0  0  0  0  0  0  0  0  0
   23.3819   38.4495   22.6154 C   0  0  0  0  0  0  0  0  0  0  0  0
   24.9011   40.1077   23.6999 C   0  0  0  0  0  0  0  0  0  0  0  0
   29.1202   39.3675   21.4331 C   0  0  0  0  0  0  0  0  0  0  0  0
   27.6768   37.5143   20.3360 C   0  0  0  0  0  0  0  0  0  0  0  0
   25.3498   37.7083   20.7569 C   0  0  0  0  0  0  0  0  0  0  0  0
   27.4881   41.6847   25.4486 O   0  0  0  0  0  0  0  0  0  0  0  0
   26.5800   41.8089   24.6240 C   0  0  0  0  0  0  0  0  0  0  0  0
   25.8330   42.9033   24.5441 O   0  0  0  0  0  0  0  0  0  0  0  0
   26.2591   40.7107   23.6740 C   0  0  1  0  0  0  0  0  0  0  0  0
   24.0470   40.4232   24.5353 O   0  0  0  0  0  0  0  0  0  0  0  0
   27.2397   40.2463   22.7802 C   0  0  0  0  0  0  0  0  0  0  0  0
   27.9849   38.7226   21.1481 C   0  0  0  0  0  0  0  0  0  0  0  0
   28.9132   40.5836   22.6245 S   0  0  0  0  0  0  0  0  0  0  0  0
   25.6261   38.6545   21.7698 C   0  0  0  0  0  0  0  0  0  0  0  0
   24.6381   39.0517   22.6839 C   0  0  0  0  0  0  0  0  0  0  0  0
   21.9002   36.9433   21.6453 F   0  0  0  0  0  0  0  0  0  0  0  0
   26.3322   37.4214   19.7962 N   0  0  0  0  0  0  0  0  0  0  0  0
   26.0961   38.1606   18.5745 C   0  0  0  0  0  0  0  0  0  0  0  0
   24.7729   35.1710   19.1867 C   0  0  0  0  0  0  0  0  0  0  0  0
   21.7578   34.5998   17.4001 O   0  0  0  0  0  0  0  0  0  0  0  0
   23.8846   34.2650   18.3508 C   0  0  2  0  0  0  0  0  0  0  0  0
   24.5616   33.4287   17.3414 N   0  0  0  0  0  0  0  0  0  0  0  0
   25.3347   34.1685   16.3273 C   0  0  0  0  0  0  0  0  0  0  0  0
   25.3266   32.3176   17.9281 C   0  0  0  0  0  0  0  0  0  0  0  0
  1  5  1  0  0  0  0
  2 17  1  0  0  0  0
  3  1  1  0  0  0  0
  4  3  1  0  0  0  0
  4 26  1  1  0  0  0
  5 11  2  0  0  0  0
  5  6  1  0  0  0  0
  6  7  2  0  0  0  0
  7 21  1  0  0  0  0
  8 15  1  0  0  0  0
  8 16  2  0  0  0  0
  9 19  1  0  0  0  0
 10 18  1  0  0  0  0
 11 20  1  0  0  0  0
 13 14  1  0  0  0  0
 13 12  2  0  0  0  0
 15 13  1  1  0  0  0
 17 19  2  0  0  0  0
 17 15  1  0  0  0  0
 18  2  1  0  0  0  0
 18  9  2  0  0  0  0
 20 21  2  0  0  0  0
 20  2  1  0  0  0  0
 21  8  1  0  0  0  0
 22  6  1  0  0  0  0
 23 11  1  0  0  0  0
 23 10  1  0  0  0  0
 24 23  1  0  0  0  0
 25  1  1  0  0  0  0
 27  4  1  0  0  0  0
 27 25  1  0  0  0  0
 27 28  1  6  0  0  0
 29 28  1  0  0  0  0
 30 28  1  0  0  0  0
M  END
>  <CHROM.1>
67.97241681,1.02044603,119.68891111,-175.91567173,55.30611413,25.38184531
37.94978324,21.01587502,1.91114136,-0.19697295,-2.34076194

>  <Name>
lig.pdb

>  <RI>
0

>  <Rbt.Current_Directory>
/home/itssahil/PROJECTS/Mol_Feturizer/New_Systems/rnas/6bfb

>  <Rbt.Executable>
rbdock ($Id: //depot/dev/client3/rdock/2013.1/src/exe/rbdock.cxx#4 $)

>  <Rbt.Library>
libRbt.so (2013.1, Build901 2013/11/27)

>  <Rbt.Parameter_File>
/export/apps/rDock/src/rDock_2013.1_src/data/scripts/dock_solv.prm

>  <Rbt.Receptor>
prm/pocket_docking_6.prm

>  <SCORE>
-37.9619

>  <SCORE.INTER>
-32.634

>  <SCORE.INTER.CONST>
1

>  <SCORE.INTER.POLAR>
-0.796746

>  <SCORE.INTER.ROT>
3

>  <SCORE.INTER.SOLV>
14.2284

>  <SCORE.INTER.VDW>
-29.443

>  <SCORE.INTER.norm>
-1.0878

>  <SCORE.INTRA>
-5.32786

>  <SCORE.INTRA.DIHEDRAL>
-7.6467

>  <SCORE.INTRA.DIHEDRAL.0>
9.41909

>  <SCORE.INTRA.POLAR>
0

>  <SCORE.INTRA.POLAR.0>
0

>  <SCORE.INTRA.REPUL>
0

>  <SCORE.INTRA.REPUL.0>
0

>  <SCORE.INTRA.SOLV>
-0.0817454

>  <SCORE.INTRA.SOLV.lig_0>
-26.2491

>  <SCORE.INTRA.VDW>
-1.46363

>  <SCORE.INTRA.VDW.0>
2.57239

>  <SCORE.INTRA.norm>
-0.177595

>  <SCORE.RESTR>
0

>  <SCORE.RESTR.CAVITY>
0

>  <SCORE.RESTR.norm>
0

>  <SCORE.SYSTEM>
0

>  <SCORE.SYSTEM.CONST>
0

>  <SCORE.SYSTEM.DIHEDRAL>
0

>  <SCORE.SYSTEM.SOLV>
0

>  <SCORE.SYSTEM.norm>
0

>  <SCORE.heavy>
30

>  <SCORE.norm>
-1.2654

>  <RMSD>
3.526

$$$$
lig.pdb
 OpenBabel11021811523D
libRbt.so/2013.1/901 2013/11/27
 30 34  0  0  0  0  0  0  0  0999 V2000
   28.0653   39.2828   20.1082 N   0  0  0  0  0  0  0  0  0  0  0  0
   25.5382   40.6674   24.1336 N   0  0  0  0  0  0  0  0  0  0  0  0
   29.0430   38.1911   20.0693 C   0  0  0  0  0  0  0  0  0  0  0  0
   29.9544   38.6327   18.9341 C   0  0  2  0  0  0  0  0  0  0  0  0
   26.8862   39.1881   20.9616 C   0  0  0  0  0  0  0  0  0  0  0  0
   25.7971   38.3331   20.6956 C   0  0  0  0  0  0  0  0  0  0  0  0
   24.6737   38.2623   21.4810 C   0  0  0  0  0  0  0  0  0  0  0  0
   23.3227   39.0287   23.4358 C   0  0  0  0  0  0  0  0  0  0  0  0
   26.3724   41.9757   25.7814 C   0  0  0  0  0  0  0  0  0  0  0  0
   27.9157   41.1403   23.8731 C   0  0  0  0  0  0  0  0  0  0  0  0
   26.7849   39.9933   22.1310 C   0  0  0  0  0  0  0  0  0  0  0  0
   21.5170   41.0789   25.6880 O   0  0  0  0  0  0  0  0  0  0  0  0
   22.0620   40.0003   25.4441 C   0  0  0  0  0  0  0  0  0  0  0  0
   21.6055   38.8468   25.9165 O   0  0  0  0  0  0  0  0  0  0  0  0
   23.2911   39.9402   24.6091 C   0  0  1  0  0  0  0  0  0  0  0  0
   22.3985   38.2533   23.1684 O   0  0  0  0  0  0  0  0  0  0  0  0
   24.4072   40.7262   24.9446 C   0  0  0  0  0  0  0  0  0  0  0  0
   26.6535   41.3562   24.6310 C   0  0  0  0  0  0  0  0  0  0  0  0
   24.7598   41.7117   26.3021 S   0  0  0  0  0  0  0  0  0  0  0  0
   25.6382   39.9048   22.9525 C   0  0  0  0  0  0  0  0  0  0  0  0
   24.5661   39.0634   22.6176 C   0  0  0  0  0  0  0  0  0  0  0  0
   25.8599   37.5136   19.6270 F   0  0  0  0  0  0  0  0  0  0  0  0
   27.7850   40.9275   22.4429 N   0  0  0  0  0  0  0  0  0  0  0  0
   27.6452   42.1253   21.6424 C   0  0  0  0  0  0  0  0  0  0  0  0
   28.0365   40.0191   18.8495 C   0  0  0  0  0  0  0  0  0  0  0  0
   31.3118   38.7471   19.3635 O   0  0  0  0  0  0  0  0  0  0  0  0
   29.5259   40.0466   18.5501 C   0  0  2  0  0  0  0  0  0  0  0  0
   29.9107   40.2812   17.1453 N   0  0  0  0  0  0  0  0  0  0  0  0
   29.4723   39.2461   16.1916 C   0  0  0  0  0  0  0  0  0  0  0  0
   29.5990   41.6409   16.6784 C   0  0  0  0  0  0  0  0  0  0  0  0
  1  5  1  0  0  0  0
  2 17  1  0  0  0  0
  3  1  1  0  0  0  0
  4  3  1  0  0  0  0
  4 26  1  1  0  0  0
  5 11  2  0  0  0  0
  5  6  1  0  0  0  0
  6  7  2  0  0  0  0
  7 21  1  0  0  0  0
  8 15  1  0  0  0  0
  8 16  2  0  0  0  0
  9 19  1  0  0  0  0
 10 18  1  0  0  0  0
 11 20  1  0  0  0  0
 13 14  1  0  0  0  0
 13 12  2  0  0  0  0
 15 13  1  1  0  0  0
 17 19  2  0  0  0  0
 17 15  1  0  0  0  0
 18  2  1  0  0  0  0
 18  9  2  0  0  0  0
 20 21  2  0  0  0  0
 20  2  1  0  0  0  0
 21  8  1  0  0  0  0
 22  6  1  0  0  0  0
 23 11  1  0  0  0  0
 23 10  1  0  0  0  0
 24 23  1  0  0  0  0
 25  1  1  0  0  0  0
 27  4  1  0  0  0  0
 27 25  1  0  0  0  0
 27 28  1  6  0  0  0
 29 28  1  0  0  0  0
 30 28  1  0  0  0  0
M  END
>  <CHROM.1>
-72.02882266,0.69810414,-127.15527655,56.16696791,51.20853298,26.29917615
39.91671962,22.06137860,0.73953352,-0.49028235,-2.15566718

>  <Name>
lig.pdb

>  <RI>
0

>  <Rbt.Current_Directory>
/home/itssahil/PROJECTS/Mol_Feturizer/New_Systems/rnas/6bfb

>  <Rbt.Executable>
rbdock ($Id: //depot/dev/client3/rdock/2013.1/src/exe/rbdock.cxx#4 $)

>  <Rbt.Library>
libRbt.so (2013.1, Build901 2013/11/27)

>  <Rbt.Parameter_File>
/export/apps/rDock/src/rDock_2013.1_src/data/scripts/dock_solv.prm

>  <Rbt.Receptor>
prm/blind_docking_80.prm

>  <SCORE>
-31.3307

>  <SCORE.INTER>
-26.0002

>  <SCORE.INTER.CONST>
1

>  <SCORE.INTER.POLAR>
-0.959166

>  <SCORE.INTER.ROT>
3

>  <SCORE.INTER.SOLV>
15.8877

>  <SCORE.INTER.VDW>
-25.0322

>  <SCORE.INTER.norm>
-0.866673

>  <SCORE.INTRA>
-5.33047

>  <SCORE.INTRA.DIHEDRAL>
-7.64434

>  <SCORE.INTRA.DIHEDRAL.0>
9.41909

>  <SCORE.INTRA.POLAR>
0

>  <SCORE.INTRA.POLAR.0>
0

>  <SCORE.INTRA.REPUL>
0.0966608

>  <SCORE.INTRA.REPUL.0>
0

>  <SCORE.INTRA.SOLV>
-0.281958

>  <SCORE.INTRA.SOLV.lig_0>
-26.2491

>  <SCORE.INTRA.VDW>
-1.85062

>  <SCORE.INTRA.VDW.0>
2.57239

>  <SCORE.INTRA.norm>
-0.177682

>  <SCORE.RESTR>
0

>  <SCORE.RESTR.CAVITY>
0

>  <SCORE.RESTR.norm>
0

>  <SCORE.SYSTEM>
0

>  <SCORE.SYSTEM.CONST>
0

>  <SCORE.SYSTEM.DIHEDRAL>
0

>  <SCORE.SYSTEM.SOLV>
0

>  <SCORE.SYSTEM.norm>
0

>  <SCORE.heavy>
30

>  <SCORE.norm>
-1.04436

>  <RMSD>
3.527

$$$$
lig.pdb
 OpenBabel11021811523D
libRbt.so/2013.1/901 2013/11/27
 30 34  0  0  0  0  0  0  0  0999 V2000
   24.6750   35.3704   19.0487 N   0  0  0  0  0  0  0  0  0  0  0  0
   26.5961   38.7473   22.1168 N   0  0  0  0  0  0  0  0  0  0  0  0
   25.4110   34.1249   19.2865 C   0  0  0  0  0  0  0  0  0  0  0  0
   25.1487   33.3600   17.9979 C   0  0  2  0  0  0  0  0  0  0  0  0
   24.5166   36.3501   20.1176 C   0  0  0  0  0  0  0  0  0  0  0  0
   23.2823   36.6387   20.7350 C   0  0  0  0  0  0  0  0  0  0  0  0
   23.1247   37.5802   21.7212 C   0  0  0  0  0  0  0  0  0  0  0  0
   24.0420   39.3740   23.1959 C   0  0  0  0  0  0  0  0  0  0  0  0
   28.8121   39.1272   22.3762 C   0  0  0  0  0  0  0  0  0  0  0  0
   27.9912   37.1479   20.9169 C   0  0  0  0  0  0  0  0  0  0  0  0
   25.6427   37.0844   20.5853 C   0  0  0  0  0  0  0  0  0  0  0  0
   24.7969   42.3547   24.2105 O   0  0  0  0  0  0  0  0  0  0  0  0
   25.1555   41.2303   24.5674 C   0  0  0  0  0  0  0  0  0  0  0  0
   25.4755   40.9485   25.8244 O   0  0  0  0  0  0  0  0  0  0  0  0
   25.2673   40.1195   23.5849 C   0  0  1  0  0  0  0  0  0  0  0  0
   22.9408   39.5826   23.7164 O   0  0  0  0  0  0  0  0  0  0  0  0
   26.5220   39.7774   23.0513 C   0  0  0  0  0  0  0  0  0  0  0  0
   27.8987   38.3690   21.7623 C   0  0  0  0  0  0  0  0  0  0  0  0
   28.1140   40.2947   23.4207 S   0  0  0  0  0  0  0  0  0  0  0  0
   25.4854   38.0383   21.6163 C   0  0  0  0  0  0  0  0  0  0  0  0
   24.2245   38.3124   22.1681 C   0  0  0  0  0  0  0  0  0  0  0  0
   22.1909   35.9396   20.3643 F   0  0  0  0  0  0  0  0  0  0  0  0
   26.9010   36.9200   19.9854 N   0  0  0  0  0  0  0  0  0  0  0  0
   26.9814   37.6493   18.7378 C   0  0  0  0  0  0  0  0  0  0  0  0
   23.6607   35.2021   18.0141 C   0  0  0  0  0  0  0  0  0  0  0  0
   26.3657   33.0020   17.3417 O   0  0  0  0  0  0  0  0  0  0  0  0
   24.4407   34.3245   17.0498 C   0  0  2  0  0  0  0  0  0  0  0  0
   23.6466   33.5319   16.0917 N   0  0  0  0  0  0  0  0  0  0  0  0
   22.3883   34.1584   15.6475 C   0  0  0  0  0  0  0  0  0  0  0  0
   24.4422   33.0151   14.9676 C   0  0  0  0  0  0  0  0  0  0  0  0
  1  5  1  0  0  0  0
  2 17  1  0  0  0  0
  3  1  1  0  0  0  0
  4  3  1  0  0  0  0
  4 26  1  6  0  0  0
  5 11  2  0  0  0  0
  5  6  1  0  0  0  0
  6  7  2  0  0  0  0
  7 21  1  0  0  0  0
  8 15  1  0  0  0  0
  8 16  2  0  0  0  0
  9 19  1  0  0  0  0
 10 18  1  0  0  0  0
 11 20  1  0  0  0  0
 13 14  1  0  0  0  0
 13 12  2  0  0  0  0
 15 13  1  1  0  0  0
 17 19  2  0  0  0  0
 17 15  1  0  0  0  0
 18  2  1  0  0  0  0
 18  9  2  0  0  0  0
 20 21  2  0  0  0  0
 20  2  1  0  0  0  0
 21  8  1  0  0  0  0
 22  6  1  0  0  0  0
 23 11  1  0  0  0  0
 23 10  1  0  0  0  0
 24 23  1  0  0  0  0
 25  1  1  0  0  0  0
 27  4  1  0  0  0  0
 27 25  1  0  0  0  0
 27 28  1  6  0  0  0
 29 28  1  0  0  0  0
 30 28  1  0  0  0  0
M  END
>  <CHROM.1>
-111.40973228,0.48401400,-81.83878589,71.81624838,146.69765742,25.28386439
37.33952984,20.74754401,1.74774176,-0.05793681,-2.31880343

>  <Name>
lig.pdb

>  <RI>
0

>  <Rbt.Current_Directory>
/home/itssahil/PROJECTS/Mol_Feturizer/New_Systems/rnas/6bfb

>  <Rbt.Executable>
rbdock ($Id: //depot/dev/client3/rdock/2013.1/src/exe/rbdock.cxx#4 $)

>  <Rbt.Library>
libRbt.so (2013.1, Build901 2013/11/27)

>  <Rbt.Parameter_File>
/export/apps/rDock/src/rDock_2013.1_src/data/scripts/dock_solv.prm

>  <Rbt.Receptor>
prm/blind_docking_100.prm

>  <SCORE>
-35.3515

>  <SCORE.INTER>
-30.3617

>  <SCORE.INTER.CONST>
1

>  <SCORE.INTER.POLAR>
-0.95196

>  <SCORE.INTER.ROT>
3

>  <SCORE.INTER.SOLV>
15.9146

>  <SCORE.INTER.VDW>
-27.9728

>  <SCORE.INTER.norm>
-1.01206

>  <SCORE.INTRA>
-4.98986

>  <SCORE.INTRA.DIHEDRAL>
-6.11939

>  <SCORE.INTRA.DIHEDRAL.0>
9.41909

>  <SCORE.INTRA.POLAR>
0

>  <SCORE.INTRA.POLAR.0>
0

>  <SCORE.INTRA.REPUL>
0.0515758

>  <SCORE.INTRA.REPUL.0>
0

>  <SCORE.INTRA.SOLV>
-0.238792

>  <SCORE.INTRA.SOLV.lig_0>
-26.2491

>  <SCORE.INTRA.VDW>
-2.06865

>  <SCORE.INTRA.VDW.0>
2.57239

>  <SCORE.INTRA.norm>
-0.166329

>  <SCORE.RESTR>
0

>  <SCORE.RESTR.CAVITY>
0

>  <SCORE.RESTR.norm>
0

>  <SCORE.SYSTEM>
0

>  <SCORE.SYSTEM.CONST>
0

>  <SCORE.SYSTEM.DIHEDRAL>
0

>  <SCORE.SYSTEM.SOLV>
0

>  <SCORE.SYSTEM.norm>
0

>  <SCORE.heavy>
30

>  <SCORE.norm>
-1.17838

>  <RMSD>
3.595

$$$$
lig.pdb
 OpenBabel11021811523D
libRbt.so/2013.1/901 2013/11/27
 30 34  0  0  0  0  0  0  0  0999 V2000
   27.8721   38.8254   19.1736 N   0  0  0  0  0  0  0  0  0  0  0  0
   25.9880   40.3070   23.5051 N   0  0  0  0  0  0  0  0  0  0  0  0
   28.1014   40.0037   18.3318 C   0  0  0  0  0  0  0  0  0  0  0  0
   29.4014   39.6358   17.6326 C   0  0  2  0  0  0  0  0  0  0  0  0
   26.7961   38.8194   20.1582 C   0  0  0  0  0  0  0  0  0  0  0  0
   25.5990   38.0912   20.0015 C   0  0  0  0  0  0  0  0  0  0  0  0
   24.5726   38.1059   20.9127 C   0  0  0  0  0  0  0  0  0  0  0  0
   23.5454   38.9316   23.0333 C   0  0  0  0  0  0  0  0  0  0  0  0
   27.1410   41.4591   25.0754 C   0  0  0  0  0  0  0  0  0  0  0  0
   28.3563   40.5435   22.9763 C   0  0  0  0  0  0  0  0  0  0  0  0
   26.9165   39.5855   21.3518 C   0  0  0  0  0  0  0  0  0  0  0  0
   22.2718   41.0679   25.5729 O   0  0  0  0  0  0  0  0  0  0  0  0
   22.6353   39.9498   25.2016 C   0  0  0  0  0  0  0  0  0  0  0  0
   22.0805   38.8319   25.6539 O   0  0  0  0  0  0  0  0  0  0  0  0
   23.7464   39.7960   24.2252 C   0  0  1  0  0  0  0  0  0  0  0  0
   22.5194   38.2656   22.8577 O   0  0  0  0  0  0  0  0  0  0  0  0
   24.9709   40.4503   24.4459 C   0  0  0  0  0  0  0  0  0  0  0  0
   27.2200   40.8584   23.8841 C   0  0  0  0  0  0  0  0  0  0  0  0
   25.5805   41.3420   25.7770 S   0  0  0  0  0  0  0  0  0  0  0  0
   25.8695   39.5837   22.3011 C   0  0  0  0  0  0  0  0  0  0  0  0
   24.6826   38.8699   22.0744 C   0  0  0  0  0  0  0  0  0  0  0  0
   25.4506   37.3109   18.9122 F   0  0  0  0  0  0  0  0  0  0  0  0
   28.0394   40.3999   21.5667 N   0  0  0  0  0  0  0  0  0  0  0  0
   27.9362   41.6353   20.8197 C   0  0  0  0  0  0  0  0  0  0  0  0
   29.1039   38.0743   19.3878 C   0  0  0  0  0  0  0  0  0  0  0  0
   29.2580   39.6548   16.2117 O   0  0  0  0  0  0  0  0  0  0  0  0
   29.7002   38.1832   17.9945 C   0  0  2  0  0  0  0  0  0  0  0  0
   31.1556   37.9687   17.8828 N   0  0  0  0  0  0  0  0  0  0  0  0
   31.9772   38.7065   18.8595 C   0  0  0  0  0  0  0  0  0  0  0  0
   31.5271   36.5479   17.7986 C   0  0  0  0  0  0  0  0  0  0  0  0
  1  5  1  0  0  0  0
  2 17  1  0  0  0  0
  3  1  1  0  0  0  0
  4  3  1  0  0  0  0
  4 26  1  6  0  0  0
  5 11  2  0  0  0  0
  5  6  1  0  0  0  0
  6  7  2  0  0  0  0
  7 21  1  0  0  0  0
  8 15  1  0  0  0  0
  8 16  2  0  0  0  0
  9 19  1  0  0  0  0
 10 18  1  0  0  0  0
 11 20  1  0  0  0  0
 13 14  1  0  0  0  0
 13 12  2  0  0  0  0
 15 13  1  1  0  0  0
 17 19  2  0  0  0  0
 17 15  1  0  0  0  0
 18  2  1  0  0  0  0
 18  9  2  0  0  0  0
 20 21  2  0  0  0  0
 20  2  1  0  0  0  0
 21  8  1  0  0  0  0
 22  6  1  0  0  0  0
 23 11  1  0  0  0  0
 23 10  1  0  0  0  0
 24 23  1  0  0  0  0
 25  1  1  0  0  0  0
 27  4  1  0  0  0  0
 27 25  1  0  0  0  0
 27 28  1  1  0  0  0
 29 28  1  0  0  0  0
 30 28  1  0  0  0  0
M  END
>  <CHROM.1>
106.48300083,178.28181369,-129.79157567,-62.59661298,66.39433974,26.63293869
39.44131751,21.56380306,0.80907345,-0.33448753,-2.10699854

>  <Name>
lig.pdb

>  <RI>
0

>  <Rbt.Current_Directory>
/home/itssahil/PROJECTS/Mol_Feturizer/New_Systems/rnas/6bfb

>  <Rbt.Executable>
rbdock ($Id: //depot/dev/client3/rdock/2013.1/src/exe/rbdock.cxx#4 $)

>  <Rbt.Library>
libRbt.so (2013.1, Build901 2013/11/27)

>  <Rbt.Parameter_File>
/export/apps/rDock/src/rDock_2013.1_src/data/scripts/dock_solv.prm

>  <Rbt.Receptor>
prm/blind_docking_80.prm

>  <SCORE>
-37.0058

>  <SCORE.INTER>
-32.9134

>  <SCORE.INTER.CONST>
1

>  <SCORE.INTER.POLAR>
-1.62394

>  <SCORE.INTER.ROT>
3

>  <SCORE.INTER.SOLV>
14.8092

>  <SCORE.INTER.VDW>
-27.0656

>  <SCORE.INTER.norm>
-1.09711

>  <SCORE.INTRA>
-4.09232

>  <SCORE.INTRA.DIHEDRAL>
-7.45095

>  <SCORE.INTRA.DIHEDRAL.0>
9.41909

>  <SCORE.INTRA.POLAR>
0

>  <SCORE.INTRA.POLAR.0>
0

>  <SCORE.INTRA.REPUL>
0

>  <SCORE.INTRA.REPUL.0>
0

>  <SCORE.INTRA.SOLV>
-0.0888139

>  <SCORE.INTRA.SOLV.lig_0>
-26.2491

>  <SCORE.INTRA.VDW>
-0.322439

>  <SCORE.INTRA.VDW.0>
2.57239

>  <SCORE.INTRA.norm>
-0.136411

>  <SCORE.RESTR>
0

>  <SCORE.RESTR.CAVITY>
0

>  <SCORE.RESTR.norm>
0

>  <SCORE.SYSTEM>
0

>  <SCORE.SYSTEM.CONST>
0

>  <SCORE.SYSTEM.DIHEDRAL>
0

>  <SCORE.SYSTEM.SOLV>
0

>  <SCORE.SYSTEM.norm>
0

>  <SCORE.heavy>
30

>  <SCORE.norm>
-1.23353

>  <RMSD>
3.631

$$$$
lig.pdb
 OpenBabel11021811523D
libRbt.so/2013.1/901 2013/11/27
 30 34  0  0  0  0  0  0  0  0999 V2000
   25.0307   35.4220   18.5725 N   0  0  0  0  0  0  0  0  0  0  0  0
   26.3473   38.5737   22.1559 N   0  0  0  0  0  0  0  0  0  0  0  0
   25.4736   34.0377   18.7646 C   0  0  0  0  0  0  0  0  0  0  0  0
   25.5196   33.5264   17.3326 C   0  0  2  0  0  0  0  0  0  0  0  0
   24.6877   36.2536   19.7207 C   0  0  0  0  0  0  0  0  0  0  0  0
   23.3832   36.3606   20.2448 C   0  0  0  0  0  0  0  0  0  0  0  0
   23.0517   37.1640   21.3072 C   0  0  0  0  0  0  0  0  0  0  0  0
   23.6620   38.8472   23.0473 C   0  0  0  0  0  0  0  0  0  0  0  0
   28.4860   39.1116   22.6652 C   0  0  0  0  0  0  0  0  0  0  0  0
   27.9879   37.2514   20.9295 C   0  0  0  0  0  0  0  0  0  0  0  0
   25.6934   37.0236   20.3702 C   0  0  0  0  0  0  0  0  0  0  0  0
   24.9296   41.7647   24.6758 O   0  0  0  0  0  0  0  0  0  0  0  0
   24.4695   40.6213   24.7108 C   0  0  0  0  0  0  0  0  0  0  0  0
   23.7036   40.1900   25.7055 O   0  0  0  0  0  0  0  0  0  0  0  0
   24.7716   39.6460   23.6296 C   0  0  1  0  0  0  0  0  0  0  0  0
   22.5054   38.8978   23.4796 O   0  0  0  0  0  0  0  0  0  0  0  0
   26.0945   39.4782   23.1846 C   0  0  0  0  0  0  0  0  0  0  0  0
   27.7059   38.3535   21.8888 C   0  0  0  0  0  0  0  0  0  0  0  0
   27.5916   40.0851   23.7579 S   0  0  0  0  0  0  0  0  0  0  0  0
   25.3572   37.8341   21.4782 C   0  0  0  0  0  0  0  0  0  0  0  0
   24.0333   37.9320   21.9333 C   0  0  0  0  0  0  0  0  0  0  0  0
   22.4001   35.6172   19.6984 F   0  0  0  0  0  0  0  0  0  0  0  0
   27.0082   37.0396   19.8791 N   0  0  0  0  0  0  0  0  0  0  0  0
   27.1235   37.9129   18.7307 C   0  0  0  0  0  0  0  0  0  0  0  0
   24.3748   35.5987   17.2818 C   0  0  0  0  0  0  0  0  0  0  0  0
   26.8171   33.0375   16.9900 O   0  0  0  0  0  0  0  0  0  0  0  0
   25.2840   34.7323   16.4267 C   0  0  2  0  0  0  0  0  0  0  0  0
   24.7235   34.2495   15.1502 N   0  0  0  0  0  0  0  0  0  0  0  0
   25.7003   33.6584   14.2176 C   0  0  0  0  0  0  0  0  0  0  0  0
   23.5322   33.4042   15.3233 C   0  0  0  0  0  0  0  0  0  0  0  0
  1  5  1  0  0  0  0
  2 17  1  0  0  0  0
  3  1  1  0  0  0  0
  4  3  1  0  0  0  0
  4 26  1  6  0  0  0
  5 11  2  0  0  0  0
  5  6  1  0  0  0  0
  6  7  2  0  0  0  0
  7 21  1  0  0  0  0
  8 15  1  0  0  0  0
  8 16  2  0  0  0  0
  9 19  1  0  0  0  0
 10 18  1  0  0  0  0
 11 20  1  0  0  0  0
 13 14  1  0  0  0  0
 13 12  2  0  0  0  0
 15 13  1  1  0  0  0
 17 19  2  0  0  0  0
 17 15  1  0  0  0  0
 18  2  1  0  0  0  0
 18  9  2  0  0  0  0
 20 21  2  0  0  0  0
 20  2  1  0  0  0  0
 21  8  1  0  0  0  0
 22  6  1  0  0  0  0
 23 11  1  0  0  0  0
 23 10  1  0  0  0  0
 24 23  1  0  0  0  0
 25  1  1  0  0  0  0
 27  4  1  0  0  0  0
 27 25  1  0  0  0  0
 27 28  1  6  0  0  0
 29 28  1  0  0  0  0
 30 28  1  0  0  0  0
M  END
>  <CHROM.1>
-91.77545785,-1.20301806,-133.54774468,60.93605729,-78.07561548,25.30875783
37.19755848,20.53309846,1.60489837,-0.13778736,-2.22742549

>  <Name>
lig.pdb

>  <RI>
0

>  <Rbt.Current_Directory>
/home/itssahil/PROJECTS/Mol_Feturizer/New_Systems/rnas/6bfb

>  <Rbt.Executable>
rbdock ($Id: //depot/dev/client3/rdock/2013.1/src/exe/rbdock.cxx#4 $)

>  <Rbt.Library>
libRbt.so (2013.1, Build901 2013/11/27)

>  <Rbt.Parameter_File>
/export/apps/rDock/src/rDock_2013.1_src/data/scripts/dock_solv.prm

>  <Rbt.Receptor>
prm/pocket_docking_6.prm

>  <SCORE>
-36.7429

>  <SCORE.INTER>
-31.984

>  <SCORE.INTER.CONST>
1

>  <SCORE.INTER.POLAR>
-0.959166

>  <SCORE.INTER.ROT>
3

>  <SCORE.INTER.SOLV>
14.6888

>  <SCORE.INTER.VDW>
-28.6217

>  <SCORE.INTER.norm>
-1.06613

>  <SCORE.INTRA>
-4.75891

>  <SCORE.INTRA.DIHEDRAL>
-7.48179

>  <SCORE.INTRA.DIHEDRAL.0>
9.41909

>  <SCORE.INTRA.POLAR>
0

>  <SCORE.INTRA.POLAR.0>
0

>  <SCORE.INTRA.REPUL>
0.091155

>  <SCORE.INTRA.REPUL.0>
0

>  <SCORE.INTRA.SOLV>
-0.022314

>  <SCORE.INTRA.SOLV.lig_0>
-26.2491

>  <SCORE.INTRA.VDW>
-1.46264

>  <SCORE.INTRA.VDW.0>
2.57239

>  <SCORE.INTRA.norm>
-0.15863

>  <SCORE.RESTR>
0

>  <SCORE.RESTR.CAVITY>
0

>  <SCORE.RESTR.norm>
0

>  <SCORE.SYSTEM>
0

>  <SCORE.SYSTEM.CONST>
0

>  <SCORE.SYSTEM.DIHEDRAL>
0

>  <SCORE.SYSTEM.SOLV>
0

>  <SCORE.SYSTEM.norm>
0

>  <SCORE.heavy>
30

>  <SCORE.norm>
-1.22476

>  <RMSD>
3.703

$$$$
lig.pdb
 OpenBabel11021811523D
libRbt.so/2013.1/901 2013/11/27
 30 34  0  0  0  0  0  0  0  0999 V2000
   24.9178   35.2327   18.6581 N   0  0  0  0  0  0  0  0  0  0  0  0
   26.4136   38.4829   22.0796 N   0  0  0  0  0  0  0  0  0  0  0  0
   24.3759   33.8705   18.6440 C   0  0  0  0  0  0  0  0  0  0  0  0
   24.7648   33.3976   17.2514 C   0  0  2  0  0  0  0  0  0  0  0  0
   24.6247   36.1326   19.7680 C   0  0  0  0  0  0  0  0  0  0  0  0
   23.3314   36.3259   20.2952 C   0  0  0  0  0  0  0  0  0  0  0  0
   23.0477   37.1930   21.3206 C   0  0  0  0  0  0  0  0  0  0  0  0
   23.7522   38.9251   22.9751 C   0  0  0  0  0  0  0  0  0  0  0  0
   28.5797   38.9419   22.5485 C   0  0  0  0  0  0  0  0  0  0  0  0
   27.9790   37.0281   20.9060 C   0  0  0  0  0  0  0  0  0  0  0  0
   25.6713   36.8835   20.3736 C   0  0  0  0  0  0  0  0  0  0  0  0
   24.2565   40.4228   25.6708 O   0  0  0  0  0  0  0  0  0  0  0  0
   24.6573   40.7349   24.5474 C   0  0  0  0  0  0  0  0  0  0  0  0
   24.8742   41.9952   24.1913 O   0  0  0  0  0  0  0  0  0  0  0  0
   24.9034   39.6967   23.5115 C   0  0  1  0  0  0  0  0  0  0  0  0
   22.6032   39.0508   23.4124 O   0  0  0  0  0  0  0  0  0  0  0  0
   26.2128   39.4456   23.0661 C   0  0  0  0  0  0  0  0  0  0  0  0
   27.7578   38.1861   21.8141 C   0  0  0  0  0  0  0  0  0  0  0  0
   27.7420   40.0069   23.5999 S   0  0  0  0  0  0  0  0  0  0  0  0
   25.3837   37.7601   21.4443 C   0  0  0  0  0  0  0  0  0  0  0  0
   24.0700   37.9420   21.9032 C   0  0  0  0  0  0  0  0  0  0  0  0
   22.3096   35.6053   19.7912 F   0  0  0  0  0  0  0  0  0  0  0  0
   26.9810   36.8140   19.8734 N   0  0  0  0  0  0  0  0  0  0  0  0
   27.1271   37.6261   18.6843 C   0  0  0  0  0  0  0  0  0  0  0  0
   25.1318   35.7364   17.3061 C   0  0  0  0  0  0  0  0  0  0  0  0
   25.5583   32.2111   17.3013 O   0  0  0  0  0  0  0  0  0  0  0  0
   25.6724   34.4725   16.6589 C   0  0  2  0  0  0  0  0  0  0  0  0
   25.5816   34.3955   15.1883 N   0  0  0  0  0  0  0  0  0  0  0  0
   26.2663   35.4777   14.4581 C   0  0  0  0  0  0  0  0  0  0  0  0
   25.9124   33.0645   14.6563 C   0  0  0  0  0  0  0  0  0  0  0  0
  1  5  1  0  0  0  0
  2 17  1  0  0  0  0
  3  1  1  0  0  0  0
  4  3  1  0  0  0  0
  4 26  1  1  0  0  0
  5 11  2  0  0  0  0
  5  6  1  0  0  0  0
  6  7  2  0  0  0  0
  7 21  1  0  0  0  0
  8 15  1  0  0  0  0
  8 16  2  0  0  0  0
  9 19  1  0  0  0  0
 10 18  1  0  0  0  0
 11 20  1  0  0  0  0
 13 14  1  0  0  0  0
 13 12  2  0  0  0  0
 15 13  1  1  0  0  0
 17 19  2  0  0  0  0
 17 15  1  0  0  0  0
 18  2  1  0  0  0  0
 18  9  2  0  0  0  0
 20 21  2  0  0  0  0
 20  2  1  0  0  0  0
 21  8  1  0  0  0  0
 22  6  1  0  0  0  0
 23 11  1  0  0  0  0
 23 10  1  0  0  0  0
 24 23  1  0  0  0  0
 25  1  1  0  0  0  0
 27  4  1  0  0  0  0
 27 25  1  0  0  0  0
 27 28  1  6  0  0  0
 29 28  1  0  0  0  0
 30 28  1  0  0  0  0
M  END
>  <CHROM.1>
-47.17261903,-179.35718507,66.21373520,59.76912247,172.56525285,25.41287972
37.18147593,20.47642764,1.58479977,-0.24593705,-2.24757856

>  <Name>
lig.pdb

>  <RI>
0

>  <Rbt.Current_Directory>
/home/itssahil/PROJECTS/Mol_Feturizer/New_Systems/rnas/6bfb

>  <Rbt.Executable>
rbdock ($Id: //depot/dev/client3/rdock/2013.1/src/exe/rbdock.cxx#4 $)

>  <Rbt.Library>
libRbt.so (2013.1, Build901 2013/11/27)

>  <Rbt.Parameter_File>
/export/apps/rDock/src/rDock_2013.1_src/data/scripts/dock_solv.prm

>  <Rbt.Receptor>
prm/pocket_docking_6.prm

>  <SCORE>
-36.7902

>  <SCORE.INTER>
-33.1713

>  <SCORE.INTER.CONST>
1

>  <SCORE.INTER.POLAR>
-1.13137

>  <SCORE.INTER.ROT>
3

>  <SCORE.INTER.SOLV>
15.4761

>  <SCORE.INTER.VDW>
-29.1017

>  <SCORE.INTER.norm>
-1.10571

>  <SCORE.INTRA>
-3.61884

>  <SCORE.INTRA.DIHEDRAL>
-7.72191

>  <SCORE.INTRA.DIHEDRAL.0>
9.41909

>  <SCORE.INTRA.POLAR>
0

>  <SCORE.INTRA.POLAR.0>
0

>  <SCORE.INTRA.REPUL>
0.0717226

>  <SCORE.INTRA.REPUL.0>
0

>  <SCORE.INTRA.SOLV>
-0.199624

>  <SCORE.INTRA.SOLV.lig_0>
-26.2491

>  <SCORE.INTRA.VDW>
-0.0166862

>  <SCORE.INTRA.VDW.0>
2.57239

>  <SCORE.INTRA.norm>
-0.120628

>  <SCORE.RESTR>
0

>  <SCORE.RESTR.CAVITY>
0

>  <SCORE.RESTR.norm>
0

>  <SCORE.SYSTEM>
0

>  <SCORE.SYSTEM.CONST>
0

>  <SCORE.SYSTEM.DIHEDRAL>
0

>  <SCORE.SYSTEM.SOLV>
0

>  <SCORE.SYSTEM.norm>
0

>  <SCORE.heavy>
30

>  <SCORE.norm>
-1.22634

>  <RMSD>
3.886

$$$$
lig.pdb
 OpenBabel11021811523D
libRbt.so/2013.1/901 2013/11/27
 30 34  0  0  0  0  0  0  0  0999 V2000
   24.5638   35.1562   18.6743 N   0  0  0  0  0  0  0  0  0  0  0  0
   26.3390   38.4061   21.9598 N   0  0  0  0  0  0  0  0  0  0  0  0
   24.4682   33.7087   18.8869 C   0  0  0  0  0  0  0  0  0  0  0  0
   24.5522   33.1810   17.4625 C   0  0  2  0  0  0  0  0  0  0  0  0
   24.3581   36.0806   19.7837 C   0  0  0  0  0  0  0  0  0  0  0  0
   23.1013   36.3220   20.3754 C   0  0  0  0  0  0  0  0  0  0  0  0
   22.8995   37.2122   21.4005 C   0  0  0  0  0  0  0  0  0  0  0  0
   23.7440   38.9447   22.9877 C   0  0  0  0  0  0  0  0  0  0  0  0
   28.5401   38.8033   22.3062 C   0  0  0  0  0  0  0  0  0  0  0  0
   27.7942   36.8862   20.7284 C   0  0  0  0  0  0  0  0  0  0  0  0
   25.4581   36.8067   20.3211 C   0  0  0  0  0  0  0  0  0  0  0  0
   24.3216   40.4828   25.5916 O   0  0  0  0  0  0  0  0  0  0  0  0
   24.7868   40.7473   24.4809 C   0  0  0  0  0  0  0  0  0  0  0  0
   25.1531   41.9751   24.1342 O   0  0  0  0  0  0  0  0  0  0  0  0
   24.9454   39.6872   23.4501 C   0  0  1  0  0  0  0  0  0  0  0  0
   22.6244   39.1126   23.4830 O   0  0  0  0  0  0  0  0  0  0  0  0
   26.2209   39.3886   22.9401 C   0  0  0  0  0  0  0  0  0  0  0  0
   27.6574   38.0633   21.6283 C   0  0  0  0  0  0  0  0  0  0  0  0
   27.7928   39.9090   23.3833 S   0  0  0  0  0  0  0  0  0  0  0  0
   25.2550   37.7071   21.3914 C   0  0  0  0  0  0  0  0  0  0  0  0
   23.9738   37.9368   21.9162 C   0  0  0  0  0  0  0  0  0  0  0  0
   22.0324   35.6268   19.9377 F   0  0  0  0  0  0  0  0  0  0  0  0
   26.7365   36.6889   19.7535 N   0  0  0  0  0  0  0  0  0  0  0  0
   26.8437   37.4789   18.5456 C   0  0  0  0  0  0  0  0  0  0  0  0
   24.2130   35.5194   17.3060 C   0  0  0  0  0  0  0  0  0  0  0  0
   25.6380   32.2669   17.3034 O   0  0  0  0  0  0  0  0  0  0  0  0
   24.8869   34.3735   16.5702 C   0  0  2  0  0  0  0  0  0  0  0  0
   24.3952   34.0854   15.2094 N   0  0  0  0  0  0  0  0  0  0  0  0
   25.2904   33.2597   14.3786 C   0  0  0  0  0  0  0  0  0  0  0  0
   23.0058   33.6030   15.1853 C   0  0  0  0  0  0  0  0  0  0  0  0
  1  5  1  0  0  0  0
  2 17  1  0  0  0  0
  3  1  1  0  0  0  0
  4  3  1  0  0  0  0
  4 26  1  1  0  0  0
  5 11  2  0  0  0  0
  5  6  1  0  0  0  0
  6  7  2  0  0  0  0
  7 21  1  0  0  0  0
  8 15  1  0  0  0  0
  8 16  2  0  0  0  0
  9 19  1  0  0  0  0
 10 18  1  0  0  0  0
 11 20  1  0  0  0  0
 13 14  1  0  0  0  0
 13 12  2  0  0  0  0
 15 13  1  1  0  0  0
 17 19  2  0  0  0  0
 17 15  1  0  0  0  0
 18  2  1  0  0  0  0
 18  9  2  0  0  0  0
 20 21  2  0  0  0  0
 20  2  1  0  0  0  0
 21  8  1  0  0  0  0
 22  6  1  0  0  0  0
 23 11  1  0  0  0  0
 23 10  1  0  0  0  0
 24 23  1  0  0  0  0
 25  1  1  0  0  0  0
 27  4  1  0  0  0  0
 27 25  1  0  0  0  0
 27 28  1  6  0  0  0
 29 28  1  0  0  0  0
 30 28  1  0  0  0  0
M  END
>  <CHROM.1>
-71.31419071,-177.27710885,59.56167206,152.80987601,-82.71843360,25.12569181
37.05922823,20.45481851,1.69178759,-0.13954969,-2.26744019

>  <Name>
lig.pdb

>  <RI>
0

>  <Rbt.Current_Directory>
/home/itssahil/PROJECTS/Mol_Feturizer/New_Systems/rnas/6bfb

>  <Rbt.Executable>
rbdock ($Id: //depot/dev/client3/rdock/2013.1/src/exe/rbdock.cxx#4 $)

>  <Rbt.Library>
libRbt.so (2013.1, Build901 2013/11/27)

>  <Rbt.Parameter_File>
/export/apps/rDock/src/rDock_2013.1_src/data/scripts/dock_solv.prm

>  <Rbt.Receptor>
prm/blind_docking_100.prm

>  <SCORE>
-34.2893

>  <SCORE.INTER>
-31.5374

>  <SCORE.INTER.CONST>
1

>  <SCORE.INTER.POLAR>
-0.947354

>  <SCORE.INTER.ROT>
3

>  <SCORE.INTER.SOLV>
16.4224

>  <SCORE.INTER.VDW>
-28.9412

>  <SCORE.INTER.norm>
-1.05125

>  <SCORE.INTRA>
-2.75186

>  <SCORE.INTRA.DIHEDRAL>
-4.2641

>  <SCORE.INTRA.DIHEDRAL.0>
9.41909

>  <SCORE.INTRA.POLAR>
0

>  <SCORE.INTRA.POLAR.0>
0

>  <SCORE.INTRA.REPUL>
0.0966608

>  <SCORE.INTRA.REPUL.0>
0

>  <SCORE.INTRA.SOLV>
-0.0858657

>  <SCORE.INTRA.SOLV.lig_0>
-26.2491

>  <SCORE.INTRA.VDW>
-1.06017

>  <SCORE.INTRA.VDW.0>
2.57239

>  <SCORE.INTRA.norm>
-0.0917285

>  <SCORE.RESTR>
0

>  <SCORE.RESTR.CAVITY>
0

>  <SCORE.RESTR.norm>
0

>  <SCORE.SYSTEM>
0

>  <SCORE.SYSTEM.CONST>
0

>  <SCORE.SYSTEM.DIHEDRAL>
0

>  <SCORE.SYSTEM.SOLV>
0

>  <SCORE.SYSTEM.norm>
0

>  <SCORE.heavy>
30

>  <SCORE.norm>
-1.14298

>  <RMSD>
3.988

$$$$
lig.pdb
 OpenBabel11021811523D
libRbt.so/2013.1/901 2013/11/27
 30 34  0  0  0  0  0  0  0  0999 V2000
   27.5954   40.9052   20.2132 N   0  0  0  0  0  0  0  0  0  0  0  0
   25.2367   41.2521   24.5518 N   0  0  0  0  0  0  0  0  0  0  0  0
   27.4954   41.6848   18.9755 C   0  0  0  0  0  0  0  0  0  0  0  0
   27.9468   40.6713   17.9346 C   0  0  2  0  0  0  0  0  0  0  0  0
   27.4088   41.5492   21.5085 C   0  0  0  0  0  0  0  0  0  0  0  0
   28.1767   42.6448   21.9531 C   0  0  0  0  0  0  0  0  0  0  0  0
   28.0229   43.2350   23.1828 C   0  0  0  0  0  0  0  0  0  0  0  0
   26.9349   43.3573   25.4267 C   0  0  0  0  0  0  0  0  0  0  0  0
   23.3677   40.0941   25.0888 C   0  0  0  0  0  0  0  0  0  0  0  0
   24.3244   39.9812   22.6819 C   0  0  0  0  0  0  0  0  0  0  0  0
   26.4149   41.0695   22.4076 C   0  0  0  0  0  0  0  0  0  0  0  0
   24.6362   43.4300   28.1960 O   0  0  0  0  0  0  0  0  0  0  0  0
   25.7531   43.2711   27.6988 C   0  0  0  0  0  0  0  0  0  0  0  0
   26.8727   43.5592   28.3513 O   0  0  0  0  0  0  0  0  0  0  0  0
   25.9024   42.7573   26.3113 C   0  0  1  0  0  0  0  0  0  0  0  0
   27.6240   44.3250   25.7667 O   0  0  0  0  0  0  0  0  0  0  0  0
   25.0618   41.7300   25.8484 C   0  0  0  0  0  0  0  0  0  0  0  0
   24.2559   40.3469   24.1227 C   0  0  0  0  0  0  0  0  0  0  0  0
   23.6831   40.9715   26.5282 S   0  0  0  0  0  0  0  0  0  0  0  0
   26.2408   41.6906   23.6651 C   0  0  0  0  0  0  0  0  0  0  0  0
   27.0610   42.7546   24.0711 C   0  0  0  0  0  0  0  0  0  0  0  0
   29.1006   43.1704   21.1238 F   0  0  0  0  0  0  0  0  0  0  0  0
   25.6477   39.9389   22.0859 N   0  0  0  0  0  0  0  0  0  0  0  0
   26.3967   38.7211   22.3114 C   0  0  0  0  0  0  0  0  0  0  0  0
   28.4857   39.7611   20.0533 C   0  0  0  0  0  0  0  0  0  0  0  0
   26.9514   40.4701   16.9303 O   0  0  0  0  0  0  0  0  0  0  0  0
   28.0798   39.3313   18.6536 C   0  0  2  0  0  0  0  0  0  0  0  0
   29.0496   38.5028   17.9122 N   0  0  0  0  0  0  0  0  0  0  0  0
   30.4446   38.9781   17.9538 C   0  0  0  0  0  0  0  0  0  0  0  0
   28.9377   37.0679   18.2161 C   0  0  0  0  0  0  0  0  0  0  0  0
  1  5  1  0  0  0  0
  2 17  1  0  0  0  0
  3  1  1  0  0  0  0
  4  3  1  0  0  0  0
  4 26  1  6  0  0  0
  5 11  2  0  0  0  0
  5  6  1  0  0  0  0
  6  7  2  0  0  0  0
  7 21  1  0  0  0  0
  8 15  1  0  0  0  0
  8 16  2  0  0  0  0
  9 19  1  0  0  0  0
 10 18  1  0  0  0  0
 11 20  1  0  0  0  0
 13 14  1  0  0  0  0
 13 12  2  0  0  0  0
 15 13  1  6  0  0  0
 17 19  2  0  0  0  0
 17 15  1  0  0  0  0
 18  2  1  0  0  0  0
 18  9  2  0  0  0  0
 20 21  2  0  0  0  0
 20  2  1  0  0  0  0
 21  8  1  0  0  0  0
 22  6  1  0  0  0  0
 23 11  1  0  0  0  0
 23 10  1  0  0  0  0
 24 23  1  0  0  0  0
 25  1  1  0  0  0  0
 27  4  1  0  0  0  0
 27 25  1  0  0  0  0
 27 28  1  6  0  0  0
 29 28  1  0  0  0  0
 30 28  1  0  0  0  0
M  END
>  <CHROM.1>
-57.10448618,-179.30394108,139.24227562,-59.62657348,68.04547373,26.69552175
41.23109494,22.76354549,-1.11540624,0.69354368,0.93215578

>  <Name>
lig.pdb

>  <RI>
0

>  <Rbt.Current_Directory>
/home/itssahil/PROJECTS/Mol_Feturizer/New_Systems/rnas/6bfb

>  <Rbt.Executable>
rbdock ($Id: //depot/dev/client3/rdock/2013.1/src/exe/rbdock.cxx#4 $)

>  <Rbt.Library>
libRbt.so (2013.1, Build901 2013/11/27)

>  <Rbt.Parameter_File>
/export/apps/rDock/src/rDock_2013.1_src/data/scripts/dock_solv.prm

>  <Rbt.Receptor>
prm/blind_docking_100.prm

>  <SCORE>
-28.9373

>  <SCORE.INTER>
-24.3283

>  <SCORE.INTER.CONST>
1

>  <SCORE.INTER.POLAR>
0

>  <SCORE.INTER.ROT>
3

>  <SCORE.INTER.SOLV>
13.9026

>  <SCORE.INTER.VDW>
-26.4531

>  <SCORE.INTER.norm>
-0.810944

>  <SCORE.INTRA>
-4.60954

>  <SCORE.INTRA.DIHEDRAL>
-7.46648

>  <SCORE.INTRA.DIHEDRAL.0>
9.41909

>  <SCORE.INTRA.POLAR>
0

>  <SCORE.INTRA.POLAR.0>
0

>  <SCORE.INTRA.REPUL>
0.0900941

>  <SCORE.INTRA.REPUL.0>
0

>  <SCORE.INTRA.SOLV>
-0.208607

>  <SCORE.INTRA.SOLV.lig_0>
-26.2491

>  <SCORE.INTRA.VDW>
-1.22247

>  <SCORE.INTRA.VDW.0>
2.57239

>  <SCORE.INTRA.norm>
-0.153651

>  <SCORE.RESTR>
0.000555473

>  <SCORE.RESTR.CAVITY>
0.000555473

>  <SCORE.RESTR.norm>
1.85158e-05

>  <SCORE.SYSTEM>
0

>  <SCORE.SYSTEM.CONST>
0

>  <SCORE.SYSTEM.DIHEDRAL>
0

>  <SCORE.SYSTEM.SOLV>
0

>  <SCORE.SYSTEM.norm>
0

>  <SCORE.heavy>
30

>  <SCORE.norm>
-0.964577

>  <RMSD>
3.997

$$$$
lig.pdb
 OpenBabel11021811523D
libRbt.so/2013.1/901 2013/11/27
 30 34  0  0  0  0  0  0  0  0999 V2000
   25.8918   35.2544   18.1604 N   0  0  0  0  0  0  0  0  0  0  0  0
   26.2617   38.3688   21.9907 N   0  0  0  0  0  0  0  0  0  0  0  0
   26.4149   33.9003   18.3659 C   0  0  0  0  0  0  0  0  0  0  0  0
   26.7548   33.4811   16.9436 C   0  0  2  0  0  0  0  0  0  0  0  0
   25.2817   35.9858   19.2651 C   0  0  0  0  0  0  0  0  0  0  0  0
   23.9105   35.9149   19.5852 C   0  0  0  0  0  0  0  0  0  0  0  0
   23.3280   36.6237   20.6061 C   0  0  0  0  0  0  0  0  0  0  0  0
   23.4603   38.2842   22.4660 C   0  0  0  0  0  0  0  0  0  0  0  0
   28.2180   39.1292   22.8378 C   0  0  0  0  0  0  0  0  0  0  0  0
   28.2168   37.3061   20.9945 C   0  0  0  0  0  0  0  0  0  0  0  0
   26.0770   36.8373   20.0829 C   0  0  0  0  0  0  0  0  0  0  0  0
   24.0905   41.2549   24.3416 O   0  0  0  0  0  0  0  0  0  0  0  0
   23.7865   40.0615   24.2830 C   0  0  0  0  0  0  0  0  0  0  0  0
   22.9534   39.4937   25.1465 O   0  0  0  0  0  0  0  0  0  0  0  0
   24.3641   39.1795   23.2342 C   0  0  1  0  0  0  0  0  0  0  0  0
   22.2549   38.1788   22.7166 O   0  0  0  0  0  0  0  0  0  0  0  0
   25.7490   39.1886   22.9933 C   0  0  0  0  0  0  0  0  0  0  0  0
   27.6616   38.3218   21.9296 C   0  0  0  0  0  0  0  0  0  0  0  0
   27.0578   39.9394   23.8068 S   0  0  0  0  0  0  0  0  0  0  0  0
   25.4822   37.5505   21.1483 C   0  0  0  0  0  0  0  0  0  0  0  0
   24.1033   37.4714   21.3971 C   0  0  0  0  0  0  0  0  0  0  0  0
   23.1188   35.0877   18.8735 F   0  0  0  0  0  0  0  0  0  0  0  0
   27.4384   37.0300   19.8004 N   0  0  0  0  0  0  0  0  0  0  0  0
   27.6156   37.9632   18.7084 C   0  0  0  0  0  0  0  0  0  0  0  0
   25.4579   35.4559   16.7826 C   0  0  0  0  0  0  0  0  0  0  0  0
   28.1302   33.1177   16.8168 O   0  0  0  0  0  0  0  0  0  0  0  0
   26.5752   34.7169   16.0656 C   0  0  2  0  0  0  0  0  0  0  0  0
   26.2907   34.2690   14.6890 N   0  0  0  0  0  0  0  0  0  0  0  0
   25.0155   33.5506   14.5119 C   0  0  0  0  0  0  0  0  0  0  0  0
   26.4819   35.3263   13.6844 C   0  0  0  0  0  0  0  0  0  0  0  0
  1  5  1  0  0  0  0
  2 17  1  0  0  0  0
  3  1  1  0  0  0  0
  4  3  1  0  0  0  0
  4 26  1  1  0  0  0
  5 11  2  0  0  0  0
  5  6  1  0  0  0  0
  6  7  2  0  0  0  0
  7 21  1  0  0  0  0
  8 15  1  0  0  0  0
  8 16  2  0  0  0  0
  9 19  1  0  0  0  0
 10 18  1  0  0  0  0
 11 20  1  0  0  0  0
 13 14  1  0  0  0  0
 13 12  2  0  0  0  0
 15 13  1  1  0  0  0
 17 19  2  0  0  0  0
 17 15  1  0  0  0  0
 18  2  1  0  0  0  0
 18  9  2  0  0  0  0
 20 21  2  0  0  0  0
 20  2  1  0  0  0  0
 21  8  1  0  0  0  0
 22  6  1  0  0  0  0
 23 11  1  0  0  0  0
 23 10  1  0  0  0  0
 24 23  1  0  0  0  0
 25  1  1  0  0  0  0
 27  4  1  0  0  0  0
 27 25  1  0  0  0  0
 27 28  1  6  0  0  0
 29 28  1  0  0  0  0
 30 28  1  0  0  0  0
M  END
>  <CHROM.1>
-89.08497847,179.97826680,-132.67788906,60.83037356,65.40373732,25.61634563
37.01869600,20.17351828,1.42721075,-0.13872747,-2.18869838

>  <Name>
lig.pdb

>  <RI>
0

>  <Rbt.Current_Directory>
/home/itssahil/PROJECTS/Mol_Feturizer/New_Systems/rnas/6bfb

>  <Rbt.Executable>
rbdock ($Id: //depot/dev/client3/rdock/2013.1/src/exe/rbdock.cxx#4 $)

>  <Rbt.Library>
libRbt.so (2013.1, Build901 2013/11/27)

>  <Rbt.Parameter_File>
/export/apps/rDock/src/rDock_2013.1_src/data/scripts/dock_solv.prm

>  <Rbt.Receptor>
prm/blind_docking_60.prm

>  <SCORE>
-40.9491

>  <SCORE.INTER>
-35.2356

>  <SCORE.INTER.CONST>
1

>  <SCORE.INTER.POLAR>
-1.93833

>  <SCORE.INTER.ROT>
3

>  <SCORE.INTER.SOLV>
14.5841

>  <SCORE.INTER.VDW>
-27.4907

>  <SCORE.INTER.norm>
-1.17452

>  <SCORE.INTRA>
-5.71354

>  <SCORE.INTRA.DIHEDRAL>
-7.54553

>  <SCORE.INTRA.DIHEDRAL.0>
9.41909

>  <SCORE.INTRA.POLAR>
0

>  <SCORE.INTRA.POLAR.0>
0

>  <SCORE.INTRA.REPUL>
0.0950181

>  <SCORE.INTRA.REPUL.0>
0

>  <SCORE.INTRA.SOLV>
-0.296392

>  <SCORE.INTRA.SOLV.lig_0>
-26.2491

>  <SCORE.INTRA.VDW>
-2.26767

>  <SCORE.INTRA.VDW.0>
2.57239

>  <SCORE.INTRA.norm>
-0.190451

>  <SCORE.RESTR>
0

>  <SCORE.RESTR.CAVITY>
0

>  <SCORE.RESTR.norm>
0

>  <SCORE.SYSTEM>
0

>  <SCORE.SYSTEM.CONST>
0

>  <SCORE.SYSTEM.DIHEDRAL>
0

>  <SCORE.SYSTEM.SOLV>
0

>  <SCORE.SYSTEM.norm>
0

>  <SCORE.heavy>
30

>  <SCORE.norm>
-1.36497

>  <RMSD>
4.065

$$$$
lig.pdb
 OpenBabel11021811523D
libRbt.so/2013.1/901 2013/11/27
 30 34  0  0  0  0  0  0  0  0999 V2000
   27.9931   40.3338   19.6409 N   0  0  0  0  0  0  0  0  0  0  0  0
   24.5951   39.9880   23.2243 N   0  0  0  0  0  0  0  0  0  0  0  0
   27.7206   40.9879   18.3574 C   0  0  0  0  0  0  0  0  0  0  0  0
   28.6903   40.2685   17.4319 C   0  0  2  0  0  0  0  0  0  0  0  0
   27.3880   40.8366   20.8691 C   0  0  0  0  0  0  0  0  0  0  0  0
   27.8373   41.9893   21.5453 C   0  0  0  0  0  0  0  0  0  0  0  0
   27.2885   42.4490   22.7163 C   0  0  0  0  0  0  0  0  0  0  0  0
   25.6659   42.2324   24.6016 C   0  0  0  0  0  0  0  0  0  0  0  0
   22.8571   38.5383   23.2047 C   0  0  0  0  0  0  0  0  0  0  0  0
   24.3938   38.7591   21.1283 C   0  0  0  0  0  0  0  0  0  0  0  0
   26.2882   40.1496   21.4561 C   0  0  0  0  0  0  0  0  0  0  0  0
   24.2726   42.8658   27.0162 O   0  0  0  0  0  0  0  0  0  0  0  0
   23.9795   41.7946   26.4807 C   0  0  0  0  0  0  0  0  0  0  0  0
   23.1634   40.9135   27.0460 O   0  0  0  0  0  0  0  0  0  0  0  0
   24.5517   41.4225   25.1595 C   0  0  1  0  0  0  0  0  0  0  0  0
   26.0863   43.2564   25.1509 O   0  0  0  0  0  0  0  0  0  0  0  0
   24.0268   40.3286   24.4496 C   0  0  0  0  0  0  0  0  0  0  0  0
   23.9085   38.9920   22.5156 C   0  0  0  0  0  0  0  0  0  0  0  0
   22.6584   39.3304   24.7128 S   0  0  0  0  0  0  0  0  0  0  0  0
   25.7080   40.6348   22.6500 C   0  0  0  0  0  0  0  0  0  0  0  0
   26.2219   41.7667   23.3013 C   0  0  0  0  0  0  0  0  0  0  0  0
   28.8455   42.7059   21.0091 F   0  0  0  0  0  0  0  0  0  0  0  0
   25.8140   38.9525   20.8971 N   0  0  0  0  0  0  0  0  0  0  0  0
   26.6641   37.8380   21.2578 C   0  0  0  0  0  0  0  0  0  0  0  0
   29.3023   39.6909   19.6453 C   0  0  0  0  0  0  0  0  0  0  0  0
   28.0123   39.6506   16.3372 O   0  0  0  0  0  0  0  0  0  0  0  0
   29.2986   39.1225   18.2362 C   0  0  2  0  0  0  0  0  0  0  0  0
   30.6146   38.7965   17.6545 N   0  0  0  0  0  0  0  0  0  0  0  0
   31.6334   38.3419   18.6182 C   0  0  0  0  0  0  0  0  0  0  0  0
   30.5263   37.9190   16.4772 C   0  0  0  0  0  0  0  0  0  0  0  0
  1  5  1  0  0  0  0
  2 17  1  0  0  0  0
  3  1  1  0  0  0  0
  4  3  1  0  0  0  0
  4 26  1  6  0  0  0
  5 11  2  0  0  0  0
  5  6  1  0  0  0  0
  6  7  2  0  0  0  0
  7 21  1  0  0  0  0
  8 15  1  0  0  0  0
  8 16  2  0  0  0  0
  9 19  1  0  0  0  0
 10 18  1  0  0  0  0
 11 20  1  0  0  0  0
 13 14  1  0  0  0  0
 13 12  2  0  0  0  0
 15 13  1  6  0  0  0
 17 19  2  0  0  0  0
 17 15  1  0  0  0  0
 18  2  1  0  0  0  0
 18  9  2  0  0  0  0
 20 21  2  0  0  0  0
 20  2  1  0  0  0  0
 21  8  1  0  0  0  0
 22  6  1  0  0  0  0
 23 11  1  0  0  0  0
 23 10  1  0  0  0  0
 24 23  1  0  0  0  0
 25  1  1  0  0  0  0
 27  4  1  0  0  0  0
 27 25  1  0  0  0  0
 27 28  1  6  0  0  0
 29 28  1  0  0  0  0
 30 28  1  0  0  0  0
M  END
>  <CHROM.1>
-76.64963283,-4.82270055,10.98981475,79.19151975,146.66981318,26.42989291
40.33013744,21.84129100,-0.75824305,0.61792064,0.80483680

>  <Name>
lig.pdb

>  <RI>
0

>  <Rbt.Current_Directory>
/home/itssahil/PROJECTS/Mol_Feturizer/New_Systems/rnas/6bfb

>  <Rbt.Executable>
rbdock ($Id: //depot/dev/client3/rdock/2013.1/src/exe/rbdock.cxx#4 $)

>  <Rbt.Library>
libRbt.so (2013.1, Build901 2013/11/27)

>  <Rbt.Parameter_File>
/export/apps/rDock/src/rDock_2013.1_src/data/scripts/dock_solv.prm

>  <Rbt.Receptor>
prm/blind_docking_80.prm

>  <SCORE>
-30.1512

>  <SCORE.INTER>
-26.4622

>  <SCORE.INTER.CONST>
1

>  <SCORE.INTER.POLAR>
-0.892826

>  <SCORE.INTER.ROT>
3

>  <SCORE.INTER.SOLV>
14.6014

>  <SCORE.INTER.VDW>
-25.1325

>  <SCORE.INTER.norm>
-0.882074

>  <SCORE.INTRA>
-3.68903

>  <SCORE.INTRA.DIHEDRAL>
-4.9307

>  <SCORE.INTRA.DIHEDRAL.0>
9.41909

>  <SCORE.INTRA.POLAR>
0

>  <SCORE.INTRA.POLAR.0>
0

>  <SCORE.INTRA.REPUL>
0.0966608

>  <SCORE.INTRA.REPUL.0>
0

>  <SCORE.INTRA.SOLV>
-0.161314

>  <SCORE.INTRA.SOLV.lig_0>
-26.2491

>  <SCORE.INTRA.VDW>
-1.62632

>  <SCORE.INTRA.VDW.0>
2.57239

>  <SCORE.INTRA.norm>
-0.122968

>  <SCORE.RESTR>
0

>  <SCORE.RESTR.CAVITY>
0

>  <SCORE.RESTR.norm>
0

>  <SCORE.SYSTEM>
0

>  <SCORE.SYSTEM.CONST>
0

>  <SCORE.SYSTEM.DIHEDRAL>
0

>  <SCORE.SYSTEM.SOLV>
0

>  <SCORE.SYSTEM.norm>
0

>  <SCORE.heavy>
30

>  <SCORE.norm>
-1.00504

>  <RMSD>
4.256

$$$$
lig.pdb
 OpenBabel11021811523D
libRbt.so/2013.1/901 2013/11/27
 30 34  0  0  0  0  0  0  0  0999 V2000
   28.1640   40.2623   19.5691 N   0  0  0  0  0  0  0  0  0  0  0  0
   24.6306   39.8939   23.0168 N   0  0  0  0  0  0  0  0  0  0  0  0
   27.9524   40.9073   18.2696 C   0  0  0  0  0  0  0  0  0  0  0  0
   28.9690   40.1860   17.3974 C   0  0  2  0  0  0  0  0  0  0  0  0
   27.4975   40.7704   20.7629 C   0  0  0  0  0  0  0  0  0  0  0  0
   27.8920   41.9442   21.4370 C   0  0  0  0  0  0  0  0  0  0  0  0
   27.2851   42.4097   22.5767 C   0  0  0  0  0  0  0  0  0  0  0  0
   25.5919   42.1851   24.3978 C   0  0  0  0  0  0  0  0  0  0  0  0
   22.9289   38.4032   22.9514 C   0  0  0  0  0  0  0  0  0  0  0  0
   24.5440   38.6268   20.9358 C   0  0  0  0  0  0  0  0  0  0  0  0
   26.3907   40.0670   21.3164 C   0  0  0  0  0  0  0  0  0  0  0  0
   23.5114   42.9051   26.4360 O   0  0  0  0  0  0  0  0  0  0  0  0
   23.8403   41.7378   26.2140 C   0  0  0  0  0  0  0  0  0  0  0  0
   23.6685   40.7664   27.1022 O   0  0  0  0  0  0  0  0  0  0  0  0
   24.4748   41.3581   24.9237 C   0  0  1  0  0  0  0  0  0  0  0  0
   25.9657   43.2275   24.9461 O   0  0  0  0  0  0  0  0  0  0  0  0
   24.0049   40.2407   24.2120 C   0  0  0  0  0  0  0  0  0  0  0  0
   23.9970   38.8705   22.2980 C   0  0  0  0  0  0  0  0  0  0  0  0
   22.6502   39.2146   24.4364 S   0  0  0  0  0  0  0  0  0  0  0  0
   25.7510   40.5576   22.4773 C   0  0  0  0  0  0  0  0  0  0  0  0
   26.2114   41.7118   23.1295 C   0  0  0  0  0  0  0  0  0  0  0  0
   28.9046   42.6758   20.9300 F   0  0  0  0  0  0  0  0  0  0  0  0
   25.9677   38.8501   20.7592 N   0  0  0  0  0  0  0  0  0  0  0  0
   26.8277   37.7621   21.1732 C   0  0  0  0  0  0  0  0  0  0  0  0
   29.4738   39.6247   19.6419 C   0  0  0  0  0  0  0  0  0  0  0  0
   28.3477   39.5585   16.2748 O   0  0  0  0  0  0  0  0  0  0  0  0
   29.5413   39.0475   18.2380 C   0  0  2  0  0  0  0  0  0  0  0  0
   30.8854   38.7231   17.7236 N   0  0  0  0  0  0  0  0  0  0  0  0
   31.8857   38.3782   18.7502 C   0  0  0  0  0  0  0  0  0  0  0  0
   30.8639   37.7559   16.6155 C   0  0  0  0  0  0  0  0  0  0  0  0
  1  5  1  0  0  0  0
  2 17  1  0  0  0  0
  3  1  1  0  0  0  0
  4  3  1  0  0  0  0
  4 26  1  6  0  0  0
  5 11  2  0  0  0  0
  5  6  1  0  0  0  0
  6  7  2  0  0  0  0
  7 21  1  0  0  0  0
  8 15  1  0  0  0  0
  8 16  2  0  0  0  0
  9 19  1  0  0  0  0
 10 18  1  0  0  0  0
 11 20  1  0  0  0  0
 13 14  1  0  0  0  0
 13 12  2  0  0  0  0
 15 13  1  6  0  0  0
 17 19  2  0  0  0  0
 17 15  1  0  0  0  0
 18  2  1  0  0  0  0
 18  9  2  0  0  0  0
 20 21  2  0  0  0  0
 20  2  1  0  0  0  0
 21  8  1  0  0  0  0
 22  6  1  0  0  0  0
 23 11  1  0  0  0  0
 23 10  1  0  0  0  0
 24 23  1  0  0  0  0
 25  1  1  0  0  0  0
 27  4  1  0  0  0  0
 27 25  1  0  0  0  0
 27 28  1  6  0  0  0
 29 28  1  0  0  0  0
 30 28  1  0  0  0  0
M  END
>  <CHROM.1>
-75.29685229,-177.20289464,47.10202537,74.42647562,142.19573034,26.51775088
40.25189407,21.70648085,-0.69632164,0.61582211,0.74143542

>  <Name>
lig.pdb

>  <RI>
0

>  <Rbt.Current_Directory>
/home/itssahil/PROJECTS/Mol_Feturizer/New_Systems/rnas/6bfb

>  <Rbt.Executable>
rbdock ($Id: //depot/dev/client3/rdock/2013.1/src/exe/rbdock.cxx#4 $)

>  <Rbt.Library>
libRbt.so (2013.1, Build901 2013/11/27)

>  <Rbt.Parameter_File>
/export/apps/rDock/src/rDock_2013.1_src/data/scripts/dock_solv.prm

>  <Rbt.Receptor>
prm/pocket_docking_7.prm

>  <SCORE>
-32.1005

>  <SCORE.INTER>
-27.8479

>  <SCORE.INTER.CONST>
1

>  <SCORE.INTER.POLAR>
-1.64331

>  <SCORE.INTER.ROT>
3

>  <SCORE.INTER.SOLV>
15.0871

>  <SCORE.INTER.VDW>
-23.7166

>  <SCORE.INTER.norm>
-0.928263

>  <SCORE.INTRA>
-4.25262

>  <SCORE.INTRA.DIHEDRAL>
-5.50376

>  <SCORE.INTRA.DIHEDRAL.0>
9.41909

>  <SCORE.INTRA.POLAR>
0

>  <SCORE.INTRA.POLAR.0>
0

>  <SCORE.INTRA.REPUL>
0.0966608

>  <SCORE.INTRA.REPUL.0>
0

>  <SCORE.INTRA.SOLV>
-0.305798

>  <SCORE.INTRA.SOLV.lig_0>
-26.2491

>  <SCORE.INTRA.VDW>
-1.83114

>  <SCORE.INTRA.VDW.0>
2.57239

>  <SCORE.INTRA.norm>
-0.141754

>  <SCORE.RESTR>
0

>  <SCORE.RESTR.CAVITY>
0

>  <SCORE.RESTR.norm>
0

>  <SCORE.SYSTEM>
0

>  <SCORE.SYSTEM.CONST>
0

>  <SCORE.SYSTEM.DIHEDRAL>
0

>  <SCORE.SYSTEM.SOLV>
0

>  <SCORE.SYSTEM.norm>
0

>  <SCORE.heavy>
30

>  <SCORE.norm>
-1.07002

>  <RMSD>
4.354

$$$$
lig.pdb
 OpenBabel11021811523D
libRbt.so/2013.1/901 2013/11/27
 30 34  0  0  0  0  0  0  0  0999 V2000
   26.7594   41.4856   23.1097 N   0  0  0  0  0  0  0  0  0  0  0  0
   24.3208   43.3485   26.9943 N   0  0  0  0  0  0  0  0  0  0  0  0
   27.1216   40.0649   23.1028 C   0  0  0  0  0  0  0  0  0  0  0  0
   26.8072   39.6728   21.6669 C   0  0  2  0  0  0  0  0  0  0  0  0
   26.7478   42.2386   24.3588 C   0  0  0  0  0  0  0  0  0  0  0  0
   27.8984   42.8185   24.9311 C   0  0  0  0  0  0  0  0  0  0  0  0
   27.8960   43.5033   26.1207 C   0  0  0  0  0  0  0  0  0  0  0  0
   26.7162   44.3505   28.1515 C   0  0  0  0  0  0  0  0  0  0  0  0
   22.0674   43.3603   27.2052 C   0  0  0  0  0  0  0  0  0  0  0  0
   23.1652   42.5750   24.9917 C   0  0  0  0  0  0  0  0  0  0  0  0
   25.5307   42.4118   25.0764 C   0  0  0  0  0  0  0  0  0  0  0  0
   24.7839   44.5003   31.1320 O   0  0  0  0  0  0  0  0  0  0  0  0
   25.3451   45.0697   30.1935 C   0  0  0  0  0  0  0  0  0  0  0  0
   25.9051   46.2669   30.3168 O   0  0  0  0  0  0  0  0  0  0  0  0
   25.4064   44.4394   28.8479 C   0  0  1  0  0  0  0  0  0  0  0  0
   27.7492   44.8528   28.6069 O   0  0  0  0  0  0  0  0  0  0  0  0
   24.2327   43.9537   28.2457 C   0  0  0  0  0  0  0  0  0  0  0  0
   23.0874   43.0417   26.4026 C   0  0  0  0  0  0  0  0  0  0  0  0
   22.5787   44.0676   28.6815 S   0  0  0  0  0  0  0  0  0  0  0  0
   25.5233   43.1358   26.2902 C   0  0  0  0  0  0  0  0  0  0  0  0
   26.7070   43.6588   26.8331 C   0  0  0  0  0  0  0  0  0  0  0  0
   29.0700   42.7261   24.2706 F   0  0  0  0  0  0  0  0  0  0  0  0
   24.3447   41.8118   24.6253 N   0  0  0  0  0  0  0  0  0  0  0  0
   24.3110   40.4057   24.9668 C   0  0  0  0  0  0  0  0  0  0  0  0
   25.8494   41.8100   22.0170 C   0  0  0  0  0  0  0  0  0  0  0  0
   27.9527   39.1336   21.0060 O   0  0  0  0  0  0  0  0  0  0  0  0
   26.4736   40.9624   20.9213 C   0  0  2  0  0  0  0  0  0  0  0  0
   25.6066   40.6238   19.7766 N   0  0  0  0  0  0  0  0  0  0  0  0
   24.8154   41.7431   19.2338 C   0  0  0  0  0  0  0  0  0  0  0  0
   26.3048   39.8696   18.7242 C   0  0  0  0  0  0  0  0  0  0  0  0
  1  5  1  0  0  0  0
  2 17  1  0  0  0  0
  3  1  1  0  0  0  0
  4  3  1  0  0  0  0
  4 26  1  6  0  0  0
  5 11  2  0  0  0  0
  5  6  1  0  0  0  0
  6  7  2  0  0  0  0
  7 21  1  0  0  0  0
  8 15  1  0  0  0  0
  8 16  2  0  0  0  0
  9 19  1  0  0  0  0
 10 18  1  0  0  0  0
 11 20  1  0  0  0  0
 13 14  1  0  0  0  0
 13 12  2  0  0  0  0
 15 13  1  6  0  0  0
 17 19  2  0  0  0  0
 17 15  1  0  0  0  0
 18  2  1  0  0  0  0
 18  9  2  0  0  0  0
 20 21  2  0  0  0  0
 20  2  1  0  0  0  0
 21  8  1  0  0  0  0
 22  6  1  0  0  0  0
 23 11  1  0  0  0  0
 23 10  1  0  0  0  0
 24 23  1  0  0  0  0
 25  1  1  0  0  0  0
 27  4  1  0  0  0  0
 27 25  1  0  0  0  0
 27 28  1  6  0  0  0
 29 28  1  0  0  0  0
 30 28  1  0  0  0  0
M  END
>  <CHROM.1>
83.49986046,-179.13101634,-129.90032290,61.25742057,159.55672234,25.62844307
42.63377862,25.31820539,-1.38964015,0.06772610,1.10344965

>  <Name>
lig.pdb

>  <RI>
0

>  <Rbt.Current_Directory>
/home/itssahil/PROJECTS/Mol_Feturizer/New_Systems/rnas/6bfb

>  <Rbt.Executable>
rbdock ($Id: //depot/dev/client3/rdock/2013.1/src/exe/rbdock.cxx#4 $)

>  <Rbt.Library>
libRbt.so (2013.1, Build901 2013/11/27)

>  <Rbt.Parameter_File>
/export/apps/rDock/src/rDock_2013.1_src/data/scripts/dock_solv.prm

>  <Rbt.Receptor>
prm/pocket_docking_5.prm

>  <SCORE>
-26.6943

>  <SCORE.INTER>
-21.4037

>  <SCORE.INTER.CONST>
1

>  <SCORE.INTER.POLAR>
0

>  <SCORE.INTER.ROT>
3

>  <SCORE.INTER.SOLV>
10.4437

>  <SCORE.INTER.VDW>
-23.3504

>  <SCORE.INTER.norm>
-0.713456

>  <SCORE.INTRA>
-5.29066

>  <SCORE.INTRA.DIHEDRAL>
-7.39932

>  <SCORE.INTRA.DIHEDRAL.0>
9.41909

>  <SCORE.INTRA.POLAR>
0

>  <SCORE.INTRA.POLAR.0>
0

>  <SCORE.INTRA.REPUL>
0

>  <SCORE.INTRA.REPUL.0>
0

>  <SCORE.INTRA.SOLV>
-0.0148259

>  <SCORE.INTRA.SOLV.lig_0>
-26.2491

>  <SCORE.INTRA.VDW>
-1.58359

>  <SCORE.INTRA.VDW.0>
2.57239

>  <SCORE.INTRA.norm>
-0.176355

>  <SCORE.RESTR>
0

>  <SCORE.RESTR.CAVITY>
0

>  <SCORE.RESTR.norm>
0

>  <SCORE.SYSTEM>
0

>  <SCORE.SYSTEM.CONST>
0

>  <SCORE.SYSTEM.DIHEDRAL>
0

>  <SCORE.SYSTEM.SOLV>
0

>  <SCORE.SYSTEM.norm>
0

>  <SCORE.heavy>
30

>  <SCORE.norm>
-0.889811

>  <RMSD>
4.997

$$$$
lig.pdb
 OpenBabel11021811523D
libRbt.so/2013.1/901 2013/11/27
 30 34  0  0  0  0  0  0  0  0999 V2000
   27.7062   36.5178   17.7218 N   0  0  0  0  0  0  0  0  0  0  0  0
   26.1334   38.8605   21.7894 N   0  0  0  0  0  0  0  0  0  0  0  0
   26.6259   36.7437   16.7566 C   0  0  0  0  0  0  0  0  0  0  0  0
   26.8953   35.6533   15.7305 C   0  0  2  0  0  0  0  0  0  0  0  0
   27.9327   37.4614   18.8107 C   0  0  0  0  0  0  0  0  0  0  0  0
   29.1319   38.1831   18.9811 C   0  0  0  0  0  0  0  0  0  0  0  0
   29.3589   39.0503   20.0205 C   0  0  0  0  0  0  0  0  0  0  0  0
   28.6398   40.1549   22.1410 C   0  0  0  0  0  0  0  0  0  0  0  0
   24.0077   38.7938   22.5637 C   0  0  0  0  0  0  0  0  0  0  0  0
   24.5976   37.7166   20.2805 C   0  0  0  0  0  0  0  0  0  0  0  0
   26.9172   37.6875   19.7821 C   0  0  0  0  0  0  0  0  0  0  0  0
   28.1451   40.6209   25.3926 O   0  0  0  0  0  0  0  0  0  0  0  0
   27.7501   41.1256   24.3394 C   0  0  0  0  0  0  0  0  0  0  0  0
   27.4781   42.4199   24.2258 O   0  0  0  0  0  0  0  0  0  0  0  0
   27.5369   40.2898   23.1279 C   0  0  1  0  0  0  0  0  0  0  0  0
   29.7038   40.7752   22.2408 O   0  0  0  0  0  0  0  0  0  0  0  0
   26.2998   39.6551   22.9213 C   0  0  0  0  0  0  0  0  0  0  0  0
   24.8253   38.4008   21.5822 C   0  0  0  0  0  0  0  0  0  0  0  0
   24.7988   39.7553   23.7431 S   0  0  0  0  0  0  0  0  0  0  0  0
   27.1417   38.5971   20.8404 C   0  0  0  0  0  0  0  0  0  0  0  0
   28.3708   39.2594   20.9824 C   0  0  0  0  0  0  0  0  0  0  0  0
   30.1104   38.0436   18.0643 F   0  0  0  0  0  0  0  0  0  0  0  0
   25.7151   36.9639   19.7395 N   0  0  0  0  0  0  0  0  0  0  0  0
   25.8910   35.6317   20.2771 C   0  0  0  0  0  0  0  0  0  0  0  0
   28.8040   35.7634   17.1277 C   0  0  0  0  0  0  0  0  0  0  0  0
   25.7654   34.7953   15.5659 O   0  0  0  0  0  0  0  0  0  0  0  0
   27.9996   34.7703   16.3059 C   0  0  2  0  0  0  0  0  0  0  0  0
   28.7041   34.1208   15.1842 N   0  0  0  0  0  0  0  0  0  0  0  0
   29.4317   35.0343   14.2846 C   0  0  0  0  0  0  0  0  0  0  0  0
   29.5257   32.9744   15.6020 C   0  0  0  0  0  0  0  0  0  0  0  0
  1  5  1  0  0  0  0
  2 17  1  0  0  0  0
  3  1  1  0  0  0  0
  4  3  1  0  0  0  0
  4 26  1  1  0  0  0
  5 11  2  0  0  0  0
  5  6  1  0  0  0  0
  6  7  2  0  0  0  0
  7 21  1  0  0  0  0
  8 15  1  0  0  0  0
  8 16  2  0  0  0  0
  9 19  1  0  0  0  0
 10 18  1  0  0  0  0
 11 20  1  0  0  0  0
 13 14  1  0  0  0  0
 13 12  2  0  0  0  0
 15 13  1  6  0  0  0
 17 19  2  0  0  0  0
 17 15  1  0  0  0  0
 18  2  1  0  0  0  0
 18  9  2  0  0  0  0
 20 21  2  0  0  0  0
 20  2  1  0  0  0  0
 21  8  1  0  0  0  0
 22  6  1  0  0  0  0
 23 11  1  0  0  0  0
 23 10  1  0  0  0  0
 24 23  1  0  0  0  0
 25  1  1  0  0  0  0
 27  4  1  0  0  0  0
 27 25  1  0  0  0  0
 27 28  1  6  0  0  0
 29 28  1  0  0  0  0
 30 28  1  0  0  0  0
M  END
>  <CHROM.1>
-118.90824201,1.40718646,-93.34536944,58.77126884,64.82531908,27.33003276
37.91355406,19.97708132,-1.42265481,0.28869701,0.91486811

>  <Name>
lig.pdb

>  <RI>
0

>  <Rbt.Current_Directory>
/home/itssahil/PROJECTS/Mol_Feturizer/New_Systems/rnas/6bfb

>  <Rbt.Executable>
rbdock ($Id: //depot/dev/client3/rdock/2013.1/src/exe/rbdock.cxx#4 $)

>  <Rbt.Library>
libRbt.so (2013.1, Build901 2013/11/27)

>  <Rbt.Parameter_File>
/export/apps/rDock/src/rDock_2013.1_src/data/scripts/dock_solv.prm

>  <Rbt.Receptor>
prm/blind_docking_60.prm

>  <SCORE>
-29.6308

>  <SCORE.INTER>
-23.8147

>  <SCORE.INTER.CONST>
1

>  <SCORE.INTER.POLAR>
-0.848528

>  <SCORE.INTER.ROT>
3

>  <SCORE.INTER.SOLV>
10.7904

>  <SCORE.INTER.VDW>
-22.2448

>  <SCORE.INTER.norm>
-0.793824

>  <SCORE.INTRA>
-5.81611

>  <SCORE.INTRA.DIHEDRAL>
-7.57344

>  <SCORE.INTRA.DIHEDRAL.0>
9.41909

>  <SCORE.INTRA.POLAR>
0

>  <SCORE.INTRA.POLAR.0>
0

>  <SCORE.INTRA.REPUL>
0.0332628

>  <SCORE.INTRA.REPUL.0>
0

>  <SCORE.INTRA.SOLV>
-0.30329

>  <SCORE.INTRA.SOLV.lig_0>
-26.2491

>  <SCORE.INTRA.VDW>
-2.04406

>  <SCORE.INTRA.VDW.0>
2.57239

>  <SCORE.INTRA.norm>
-0.19387

>  <SCORE.RESTR>
0

>  <SCORE.RESTR.CAVITY>
0

>  <SCORE.RESTR.norm>
0

>  <SCORE.SYSTEM>
0

>  <SCORE.SYSTEM.CONST>
0

>  <SCORE.SYSTEM.DIHEDRAL>
0

>  <SCORE.SYSTEM.SOLV>
0

>  <SCORE.SYSTEM.norm>
0

>  <SCORE.heavy>
30

>  <SCORE.norm>
-0.987695

>  <RMSD>
5.105

$$$$
lig.pdb
 OpenBabel11021811523D
libRbt.so/2013.1/901 2013/11/27
 30 34  0  0  0  0  0  0  0  0999 V2000
   28.1453   36.0449   17.7797 N   0  0  0  0  0  0  0  0  0  0  0  0
   25.7616   38.3009   21.4859 N   0  0  0  0  0  0  0  0  0  0  0  0
   28.6712   34.6957   18.0086 C   0  0  0  0  0  0  0  0  0  0  0  0
   28.3220   34.0018   16.7006 C   0  0  2  0  0  0  0  0  0  0  0  0
   28.1179   37.0205   18.8637 C   0  0  0  0  0  0  0  0  0  0  0  0
   29.2107   37.8461   19.1983 C   0  0  0  0  0  0  0  0  0  0  0  0
   29.1980   38.7448   20.2356 C   0  0  0  0  0  0  0  0  0  0  0  0
   28.0642   39.8134   22.1867 C   0  0  0  0  0  0  0  0  0  0  0  0
   23.5537   38.0608   21.9217 C   0  0  0  0  0  0  0  0  0  0  0  0
   24.5835   37.0058   19.7892 C   0  0  0  0  0  0  0  0  0  0  0  0
   26.9468   37.1714   19.6587 C   0  0  0  0  0  0  0  0  0  0  0  0
   27.1689   41.8980   24.1493 O   0  0  0  0  0  0  0  0  0  0  0  0
   26.7616   40.7350   24.1918 C   0  0  0  0  0  0  0  0  0  0  0  0
   26.2767   40.1884   25.3000 O   0  0  0  0  0  0  0  0  0  0  0  0
   26.8124   39.8663   22.9859 C   0  0  1  0  0  0  0  0  0  0  0  0
   29.0436   40.5254   22.4333 O   0  0  0  0  0  0  0  0  0  0  0  0
   25.6807   39.1233   22.6072 C   0  0  0  0  0  0  0  0  0  0  0  0
   24.5454   37.7262   21.0907 C   0  0  0  0  0  0  0  0  0  0  0  0
   24.0661   39.1046   23.1824 S   0  0  0  0  0  0  0  0  0  0  0  0
   26.9252   38.1124   20.7130 C   0  0  0  0  0  0  0  0  0  0  0  0
   28.0568   38.8812   21.0259 C   0  0  0  0  0  0  0  0  0  0  0  0
   30.3295   37.7790   18.4491 F   0  0  0  0  0  0  0  0  0  0  0  0
   25.8313   36.3455   19.4499 N   0  0  0  0  0  0  0  0  0  0  0  0
   26.0312   35.0416   20.0455 C   0  0  0  0  0  0  0  0  0  0  0  0
   27.1412   36.0544   16.7219 C   0  0  0  0  0  0  0  0  0  0  0  0
   29.4826   33.4673   16.0624 O   0  0  0  0  0  0  0  0  0  0  0  0
   27.7959   35.0803   15.7569 C   0  0  2  0  0  0  0  0  0  0  0  0
   26.9096   34.4375   14.7680 N   0  0  0  0  0  0  0  0  0  0  0  0
   25.6610   33.8750   15.3140 C   0  0  0  0  0  0  0  0  0  0  0  0
   26.6760   35.2654   13.5748 C   0  0  0  0  0  0  0  0  0  0  0  0
  1  5  1  0  0  0  0
  2 17  1  0  0  0  0
  3  1  1  0  0  0  0
  4  3  1  0  0  0  0
  4 26  1  6  0  0  0
  5 11  2  0  0  0  0
  5  6  1  0  0  0  0
  6  7  2  0  0  0  0
  7 21  1  0  0  0  0
  8 15  1  0  0  0  0
  8 16  2  0  0  0  0
  9 19  1  0  0  0  0
 10 18  1  0  0  0  0
 11 20  1  0  0  0  0
 13 14  1  0  0  0  0
 13 12  2  0  0  0  0
 15 13  1  6  0  0  0
 17 19  2  0  0  0  0
 17 15  1  0  0  0  0
 18  2  1  0  0  0  0
 18  9  2  0  0  0  0
 20 21  2  0  0  0  0
 20  2  1  0  0  0  0
 21  8  1  0  0  0  0
 22  6  1  0  0  0  0
 23 11  1  0  0  0  0
 23 10  1  0  0  0  0
 24 23  1  0  0  0  0
 25  1  1  0  0  0  0
 27  4  1  0  0  0  0
 27 25  1  0  0  0  0
 27 28  1  6  0  0  0
 29 28  1  0  0  0  0
 30 28  1  0  0  0  0
M  END
>  <CHROM.1>
85.49917743,0.70771084,47.04124616,-59.19149381,66.64342944,26.98326107,37.45100840
19.88568056,-1.40433878,0.24799036,0.91783972

>  <Name>
lig.pdb

>  <RI>
0

>  <Rbt.Current_Directory>
/home/itssahil/PROJECTS/Mol_Feturizer/New_Systems/rnas/6bfb

>  <Rbt.Executable>
rbdock ($Id: //depot/dev/client3/rdock/2013.1/src/exe/rbdock.cxx#4 $)

>  <Rbt.Library>
libRbt.so (2013.1, Build901 2013/11/27)

>  <Rbt.Parameter_File>
/export/apps/rDock/src/rDock_2013.1_src/data/scripts/dock_solv.prm

>  <Rbt.Receptor>
prm/blind_docking_100.prm

>  <SCORE>
-29.5452

>  <SCORE.INTER>
-23.5692

>  <SCORE.INTER.CONST>
1

>  <SCORE.INTER.POLAR>
0

>  <SCORE.INTER.ROT>
3

>  <SCORE.INTER.SOLV>
10.8022

>  <SCORE.INTER.VDW>
-24.9135

>  <SCORE.INTER.norm>
-0.78564

>  <SCORE.INTRA>
-5.97602

>  <SCORE.INTRA.DIHEDRAL>
-7.51249

>  <SCORE.INTRA.DIHEDRAL.0>
9.41909

>  <SCORE.INTRA.POLAR>
0

>  <SCORE.INTRA.POLAR.0>
0

>  <SCORE.INTRA.REPUL>
0

>  <SCORE.INTRA.REPUL.0>
0

>  <SCORE.INTRA.SOLV>
-0.110514

>  <SCORE.INTRA.SOLV.lig_0>
-26.2491

>  <SCORE.INTRA.VDW>
-2.16452

>  <SCORE.INTRA.VDW.0>
2.57239

>  <SCORE.INTRA.norm>
-0.199201

>  <SCORE.RESTR>
0

>  <SCORE.RESTR.CAVITY>
0

>  <SCORE.RESTR.norm>
0

>  <SCORE.SYSTEM>
0

>  <SCORE.SYSTEM.CONST>
0

>  <SCORE.SYSTEM.DIHEDRAL>
0

>  <SCORE.SYSTEM.SOLV>
0

>  <SCORE.SYSTEM.norm>
0

>  <SCORE.heavy>
30

>  <SCORE.norm>
-0.984841

>  <RMSD>
5.110

$$$$
lig.pdb
 OpenBabel11021811523D
libRbt.so/2013.1/901 2013/11/27
 30 34  0  0  0  0  0  0  0  0999 V2000
   28.3266   36.2624   17.9291 N   0  0  0  0  0  0  0  0  0  0  0  0
   25.3849   38.1468   21.4367 N   0  0  0  0  0  0  0  0  0  0  0  0
   28.9062   34.9386   18.1766 C   0  0  0  0  0  0  0  0  0  0  0  0
   28.7694   34.2812   16.8115 C   0  0  2  0  0  0  0  0  0  0  0  0
   28.1004   37.1876   19.0338 C   0  0  0  0  0  0  0  0  0  0  0  0
   29.0727   38.0938   19.5043 C   0  0  0  0  0  0  0  0  0  0  0  0
   28.8728   38.9458   20.5617 C   0  0  0  0  0  0  0  0  0  0  0  0
   27.4552   39.8301   22.4170 C   0  0  0  0  0  0  0  0  0  0  0  0
   23.1765   37.6928   21.6349 C   0  0  0  0  0  0  0  0  0  0  0  0
   24.5080   36.8200   19.5888 C   0  0  0  0  0  0  0  0  0  0  0  0
   26.8468   37.2014   19.7079 C   0  0  0  0  0  0  0  0  0  0  0  0
   25.2152   41.5885   24.2459 O   0  0  0  0  0  0  0  0  0  0  0  0
   25.8786   40.5509   24.3042 C   0  0  0  0  0  0  0  0  0  0  0  0
   26.4152   40.1093   25.4351 O   0  0  0  0  0  0  0  0  0  0  0  0
   26.1303   39.7389   23.0840 C   0  0  1  0  0  0  0  0  0  0  0  0
   28.3345   40.6165   22.7850 O   0  0  0  0  0  0  0  0  0  0  0  0
   25.1162   38.9133   22.5682 C   0  0  0  0  0  0  0  0  0  0  0  0
   24.2732   37.4817   20.9008 C   0  0  0  0  0  0  0  0  0  0  0  0
   23.4609   38.7273   22.9729 S   0  0  0  0  0  0  0  0  0  0  0  0
   26.6324   38.0940   20.7825 C   0  0  0  0  0  0  0  0  0  0  0  0
   27.6506   38.9479   21.2338 C   0  0  0  0  0  0  0  0  0  0  0  0
   30.2621   38.1569   18.8728 F   0  0  0  0  0  0  0  0  0  0  0  0
   25.8394   36.2880   19.3600 N   0  0  0  0  0  0  0  0  0  0  0  0
   26.0993   34.9845   19.9330 C   0  0  0  0  0  0  0  0  0  0  0  0
   27.4646   36.2565   16.7526 C   0  0  0  0  0  0  0  0  0  0  0  0
   30.0330   33.8449   16.3088 O   0  0  0  0  0  0  0  0  0  0  0  0
   28.2969   35.3653   15.8462 C   0  0  2  0  0  0  0  0  0  0  0  0
   27.5851   34.7130   14.7306 N   0  0  0  0  0  0  0  0  0  0  0  0
   26.5843   35.5519   14.0466 C   0  0  0  0  0  0  0  0  0  0  0  0
   28.4859   34.0340   13.7866 C   0  0  0  0  0  0  0  0  0  0  0  0
  1  5  1  0  0  0  0
  2 17  1  0  0  0  0
  3  1  1  0  0  0  0
  4  3  1  0  0  0  0
  4 26  1  6  0  0  0
  5 11  2  0  0  0  0
  5  6  1  0  0  0  0
  6  7  2  0  0  0  0
  7 21  1  0  0  0  0
  8 15  1  0  0  0  0
  8 16  2  0  0  0  0
  9 19  1  0  0  0  0
 10 18  1  0  0  0  0
 11 20  1  0  0  0  0
 13 14  1  0  0  0  0
 13 12  2  0  0  0  0
 15 13  1  6  0  0  0
 17 19  2  0  0  0  0
 17 15  1  0  0  0  0
 18  2  1  0  0  0  0
 18  9  2  0  0  0  0
 20 21  2  0  0  0  0
 20  2  1  0  0  0  0
 21  8  1  0  0  0  0
 22  6  1  0  0  0  0
 23 11  1  0  0  0  0
 23 10  1  0  0  0  0
 24 23  1  0  0  0  0
 25  1  1  0  0  0  0
 27  4  1  0  0  0  0
 27 25  1  0  0  0  0
 27 28  1  6  0  0  0
 29 28  1  0  0  0  0
 30 28  1  0  0  0  0
M  END
>  <CHROM.1>
87.69944292,174.98761822,102.16349386,-59.06468318,154.30641663,26.88970765
37.47535428,19.91255571,-1.25159394,0.21461539,0.93545140

>  <Name>
lig.pdb

>  <RI>
0

>  <Rbt.Current_Directory>
/home/itssahil/PROJECTS/Mol_Feturizer/New_Systems/rnas/6bfb

>  <Rbt.Executable>
rbdock ($Id: //depot/dev/client3/rdock/2013.1/src/exe/rbdock.cxx#4 $)

>  <Rbt.Library>
libRbt.so (2013.1, Build901 2013/11/27)

>  <Rbt.Parameter_File>
/export/apps/rDock/src/rDock_2013.1_src/data/scripts/dock_solv.prm

>  <Rbt.Receptor>
prm/blind_docking_80.prm

>  <SCORE>
-32.8442

>  <SCORE.INTER>
-27.9727

>  <SCORE.INTER.CONST>
1

>  <SCORE.INTER.POLAR>
-1.08897

>  <SCORE.INTER.ROT>
3

>  <SCORE.INTER.SOLV>
11.082

>  <SCORE.INTER.VDW>
-24.3125

>  <SCORE.INTER.norm>
-0.932422

>  <SCORE.INTRA>
-4.97804

>  <SCORE.INTRA.DIHEDRAL>
-6.95176

>  <SCORE.INTRA.DIHEDRAL.0>
9.41909

>  <SCORE.INTRA.POLAR>
0

>  <SCORE.INTRA.POLAR.0>
0

>  <SCORE.INTRA.REPUL>
0

>  <SCORE.INTRA.REPUL.0>
0

>  <SCORE.INTRA.SOLV>
-0.0681894

>  <SCORE.INTRA.SOLV.lig_0>
-26.2491

>  <SCORE.INTRA.VDW>
-1.46807

>  <SCORE.INTRA.VDW.0>
2.57239

>  <SCORE.INTRA.norm>
-0.165935

>  <SCORE.RESTR>
0.106448

>  <SCORE.RESTR.CAVITY>
0.106448

>  <SCORE.RESTR.norm>
0.00354826

>  <SCORE.SYSTEM>
0

>  <SCORE.SYSTEM.CONST>
0

>  <SCORE.SYSTEM.DIHEDRAL>
0

>  <SCORE.SYSTEM.SOLV>
0

>  <SCORE.SYSTEM.norm>
0

>  <SCORE.heavy>
30

>  <SCORE.norm>
-1.09481

>  <RMSD>
5.125

$$$$
lig.pdb
 OpenBabel11021811523D
libRbt.so/2013.1/901 2013/11/27
 30 34  0  0  0  0  0  0  0  0999 V2000
   29.1566   37.1280   18.6104 N   0  0  0  0  0  0  0  0  0  0  0  0
   25.5313   38.4479   21.7124 N   0  0  0  0  0  0  0  0  0  0  0  0
   28.3217   36.8367   17.4409 C   0  0  0  0  0  0  0  0  0  0  0  0
   29.3046   36.1146   16.5317 C   0  0  2  0  0  0  0  0  0  0  0  0
   28.6516   37.9740   19.6859 C   0  0  0  0  0  0  0  0  0  0  0  0
   29.4074   38.9968   20.2945 C   0  0  0  0  0  0  0  0  0  0  0  0
   28.9454   39.7758   21.3258 C   0  0  0  0  0  0  0  0  0  0  0  0
   27.1802   40.3832   22.9839 C   0  0  0  0  0  0  0  0  0  0  0  0
   23.4086   37.6700   21.6053 C   0  0  0  0  0  0  0  0  0  0  0  0
   25.1128   37.0676   19.7468 C   0  0  0  0  0  0  0  0  0  0  0  0
   27.3323   37.7827   20.1849 C   0  0  0  0  0  0  0  0  0  0  0  0
   25.7461   40.6032   25.7733 O   0  0  0  0  0  0  0  0  0  0  0  0
   25.2794   40.8045   24.6500 C   0  0  0  0  0  0  0  0  0  0  0  0
   24.2826   41.6538   24.4327 O   0  0  0  0  0  0  0  0  0  0  0  0
   25.8077   40.0778   23.4649 C   0  0  1  0  0  0  0  0  0  0  0  0
   27.8763   41.2773   23.4768 O   0  0  0  0  0  0  0  0  0  0  0  0
   25.0048   39.1300   22.8068 C   0  0  0  0  0  0  0  0  0  0  0  0
   24.6114   37.6452   21.0232 C   0  0  0  0  0  0  0  0  0  0  0  0
   23.3571   38.6911   22.9822 S   0  0  0  0  0  0  0  0  0  0  0  0
   26.8477   38.5992   21.2319 C   0  0  0  0  0  0  0  0  0  0  0  0
   27.6589   39.5776   21.8269 C   0  0  0  0  0  0  0  0  0  0  0  0
   30.6467   39.2534   19.8300 F   0  0  0  0  0  0  0  0  0  0  0  0
   26.5270   36.7436   19.6930 N   0  0  0  0  0  0  0  0  0  0  0  0
   26.9007   35.4743   20.2796 C   0  0  0  0  0  0  0  0  0  0  0  0
   30.5759   37.0870   18.2769 C   0  0  0  0  0  0  0  0  0  0  0  0
   28.8349   34.8132   16.1774 O   0  0  0  0  0  0  0  0  0  0  0  0
   30.5728   35.8836   17.3494 C   0  0  2  0  0  0  0  0  0  0  0  0
   31.7101   35.7685   16.4167 N   0  0  0  0  0  0  0  0  0  0  0  0
   31.9844   36.9700   15.6076 C   0  0  0  0  0  0  0  0  0  0  0  0
   32.9244   35.2289   17.0475 C   0  0  0  0  0  0  0  0  0  0  0  0
  1  5  1  0  0  0  0
  2 17  1  0  0  0  0
  3  1  1  0  0  0  0
  4  3  1  0  0  0  0
  4 26  1  1  0  0  0
  5 11  2  0  0  0  0
  5  6  1  0  0  0  0
  6  7  2  0  0  0  0
  7 21  1  0  0  0  0
  8 15  1  0  0  0  0
  8 16  2  0  0  0  0
  9 19  1  0  0  0  0
 10 18  1  0  0  0  0
 11 20  1  0  0  0  0
 13 14  1  0  0  0  0
 13 12  2  0  0  0  0
 15 13  1  6  0  0  0
 17 19  2  0  0  0  0
 17 15  1  0  0  0  0
 18  2  1  0  0  0  0
 18  9  2  0  0  0  0
 20 21  2  0  0  0  0
 20  2  1  0  0  0  0
 21  8  1  0  0  0  0
 22  6  1  0  0  0  0
 23 11  1  0  0  0  0
 23 10  1  0  0  0  0
 24 23  1  0  0  0  0
 25  1  1  0  0  0  0
 27  4  1  0  0  0  0
 27 25  1  0  0  0  0
 27 28  1  6  0  0  0
 29 28  1  0  0  0  0
 30 28  1  0  0  0  0
M  END
>  <CHROM.1>
-135.63944550,179.46710091,-68.95382562,177.66694249,62.49923832,27.53715306
38.12950352,20.48300773,-0.88685798,0.29831725,0.82023533

>  <Name>
lig.pdb

>  <RI>
0

>  <Rbt.Current_Directory>
/home/itssahil/PROJECTS/Mol_Feturizer/New_Systems/rnas/6bfb

>  <Rbt.Executable>
rbdock ($Id: //depot/dev/client3/rdock/2013.1/src/exe/rbdock.cxx#4 $)

>  <Rbt.Library>
libRbt.so (2013.1, Build901 2013/11/27)

>  <Rbt.Parameter_File>
/export/apps/rDock/src/rDock_2013.1_src/data/scripts/dock_solv.prm

>  <Rbt.Receptor>
prm/blind_docking_60.prm

>  <SCORE>
-30.0276

>  <SCORE.INTER>
-25.5041

>  <SCORE.INTER.CONST>
1

>  <SCORE.INTER.POLAR>
0

>  <SCORE.INTER.ROT>
3

>  <SCORE.INTER.SOLV>
13.0954

>  <SCORE.INTER.VDW>
-26.9678

>  <SCORE.INTER.norm>
-0.850136

>  <SCORE.INTRA>
-4.52357

>  <SCORE.INTRA.DIHEDRAL>
-7.60823

>  <SCORE.INTRA.DIHEDRAL.0>
9.41909

>  <SCORE.INTRA.POLAR>
0

>  <SCORE.INTRA.POLAR.0>
0

>  <SCORE.INTRA.REPUL>
0

>  <SCORE.INTRA.REPUL.0>
0

>  <SCORE.INTRA.SOLV>
-0.217234

>  <SCORE.INTRA.SOLV.lig_0>
-26.2491

>  <SCORE.INTRA.VDW>
-0.610839

>  <SCORE.INTRA.VDW.0>
2.57239

>  <SCORE.INTRA.norm>
-0.150786

>  <SCORE.RESTR>
0

>  <SCORE.RESTR.CAVITY>
0

>  <SCORE.RESTR.norm>
0

>  <SCORE.SYSTEM>
0

>  <SCORE.SYSTEM.CONST>
0

>  <SCORE.SYSTEM.DIHEDRAL>
0

>  <SCORE.SYSTEM.SOLV>
0

>  <SCORE.SYSTEM.norm>
0

>  <SCORE.heavy>
30

>  <SCORE.norm>
-1.00092

>  <RMSD>
5.197

$$$$
lig.pdb
 OpenBabel11021811523D
libRbt.so/2013.1/901 2013/11/27
 30 34  0  0  0  0  0  0  0  0999 V2000
   27.5359   36.3580   17.6209 N   0  0  0  0  0  0  0  0  0  0  0  0
   25.6559   38.4891   21.6744 N   0  0  0  0  0  0  0  0  0  0  0  0
   26.4608   36.5812   16.6494 C   0  0  0  0  0  0  0  0  0  0  0  0
   26.8192   35.5845   15.5574 C   0  0  2  0  0  0  0  0  0  0  0  0
   27.6807   37.2358   18.7767 C   0  0  0  0  0  0  0  0  0  0  0  0
   28.8681   37.9308   19.0849 C   0  0  0  0  0  0  0  0  0  0  0  0
   29.0168   38.7351   20.1870 C   0  0  0  0  0  0  0  0  0  0  0  0
   28.1361   39.7283   22.3017 C   0  0  0  0  0  0  0  0  0  0  0  0
   23.4735   38.4072   22.2685 C   0  0  0  0  0  0  0  0  0  0  0  0
   24.2388   37.4522   19.9830 C   0  0  0  0  0  0  0  0  0  0  0  0
   26.5911   37.4204   19.6738 C   0  0  0  0  0  0  0  0  0  0  0  0
   26.1978   41.3764   24.8193 O   0  0  0  0  0  0  0  0  0  0  0  0
   27.0779   40.5858   24.4724 C   0  0  0  0  0  0  0  0  0  0  0  0
   28.1770   40.3818   25.1882 O   0  0  0  0  0  0  0  0  0  0  0  0
   26.9574   39.8223   23.2019 C   0  0  1  0  0  0  0  0  0  0  0  0
   29.1938   40.3279   22.5228 O   0  0  0  0  0  0  0  0  0  0  0  0
   25.7359   39.2165   22.8596 C   0  0  0  0  0  0  0  0  0  0  0  0
   24.3651   38.0592   21.3358 C   0  0  0  0  0  0  0  0  0  0  0  0
   24.1737   39.2903   23.5612 S   0  0  0  0  0  0  0  0  0  0  0  0
   26.7361   38.2660   20.7969 C   0  0  0  0  0  0  0  0  0  0  0  0
   27.9551   38.9030   21.0759 C   0  0  0  0  0  0  0  0  0  0  0  0
   29.9171   37.8301   18.2440 F   0  0  0  0  0  0  0  0  0  0  0  0
   25.3904   36.7164   19.4924 N   0  0  0  0  0  0  0  0  0  0  0  0
   25.5101   35.3539   19.9657 C   0  0  0  0  0  0  0  0  0  0  0  0
   28.6912   35.7184   17.0015 C   0  0  0  0  0  0  0  0  0  0  0  0
   25.7509   34.6697   15.3091 O   0  0  0  0  0  0  0  0  0  0  0  0
   27.9682   34.7358   16.0958 C   0  0  2  0  0  0  0  0  0  0  0  0
   28.7337   34.2124   14.9483 N   0  0  0  0  0  0  0  0  0  0  0  0
   29.4111   35.2316   14.1263 C   0  0  0  0  0  0  0  0  0  0  0  0
   29.6254   33.0986   15.3063 C   0  0  0  0  0  0  0  0  0  0  0  0
  1  5  1  0  0  0  0
  2 17  1  0  0  0  0
  3  1  1  0  0  0  0
  4  3  1  0  0  0  0
  4 26  1  1  0  0  0
  5 11  2  0  0  0  0
  5  6  1  0  0  0  0
  6  7  2  0  0  0  0
  7 21  1  0  0  0  0
  8 15  1  0  0  0  0
  8 16  2  0  0  0  0
  9 19  1  0  0  0  0
 10 18  1  0  0  0  0
 11 20  1  0  0  0  0
 13 14  1  0  0  0  0
 13 12  2  0  0  0  0
 15 13  1  6  0  0  0
 17 19  2  0  0  0  0
 17 15  1  0  0  0  0
 18  2  1  0  0  0  0
 18  9  2  0  0  0  0
 20 21  2  0  0  0  0
 20  2  1  0  0  0  0
 21  8  1  0  0  0  0
 22  6  1  0  0  0  0
 23 11  1  0  0  0  0
 23 10  1  0  0  0  0
 24 23  1  0  0  0  0
 25  1  1  0  0  0  0
 27  4  1  0  0  0  0
 27 25  1  0  0  0  0
 27 28  1  6  0  0  0
 29 28  1  0  0  0  0
 30 28  1  0  0  0  0
M  END
>  <CHROM.1>
-124.52967332,177.59812978,134.73781864,52.03704970,64.55102760,26.99674109
37.63120520,19.90630683,-1.36325652,0.21638239,0.97109150

>  <Name>
lig.pdb

>  <RI>
0

>  <Rbt.Current_Directory>
/home/itssahil/PROJECTS/Mol_Feturizer/New_Systems/rnas/6bfb

>  <Rbt.Executable>
rbdock ($Id: //depot/dev/client3/rdock/2013.1/src/exe/rbdock.cxx#4 $)

>  <Rbt.Library>
libRbt.so (2013.1, Build901 2013/11/27)

>  <Rbt.Parameter_File>
/export/apps/rDock/src/rDock_2013.1_src/data/scripts/dock_solv.prm

>  <Rbt.Receptor>
prm/blind_docking_60.prm

>  <SCORE>
-34.5199

>  <SCORE.INTER>
-30.0075

>  <SCORE.INTER.CONST>
1

>  <SCORE.INTER.POLAR>
-1.75497

>  <SCORE.INTER.ROT>
3

>  <SCORE.INTER.SOLV>
11.1353

>  <SCORE.INTER.VDW>
-23.4668

>  <SCORE.INTER.norm>
-1.00025

>  <SCORE.INTRA>
-4.51247

>  <SCORE.INTRA.DIHEDRAL>
-7.23198

>  <SCORE.INTRA.DIHEDRAL.0>
9.41909

>  <SCORE.INTRA.POLAR>
0

>  <SCORE.INTRA.POLAR.0>
0

>  <SCORE.INTRA.REPUL>
0.0189105

>  <SCORE.INTRA.REPUL.0>
0

>  <SCORE.INTRA.SOLV>
-0.222271

>  <SCORE.INTRA.SOLV.lig_0>
-26.2491

>  <SCORE.INTRA.VDW>
-0.879896

>  <SCORE.INTRA.VDW.0>
2.57239

>  <SCORE.INTRA.norm>
-0.150416

>  <SCORE.RESTR>
0

>  <SCORE.RESTR.CAVITY>
0

>  <SCORE.RESTR.norm>
0

>  <SCORE.SYSTEM>
0

>  <SCORE.SYSTEM.CONST>
0

>  <SCORE.SYSTEM.DIHEDRAL>
0

>  <SCORE.SYSTEM.SOLV>
0

>  <SCORE.SYSTEM.norm>
0

>  <SCORE.heavy>
30

>  <SCORE.norm>
-1.15066

>  <RMSD>
5.210

$$$$
lig.pdb
 OpenBabel11021811523D
libRbt.so/2013.1/901 2013/11/27
 30 34  0  0  0  0  0  0  0  0999 V2000
   27.9419   42.0229   23.2838 N   0  0  0  0  0  0  0  0  0  0  0  0
   24.5108   43.0301   26.7073 N   0  0  0  0  0  0  0  0  0  0  0  0
   28.5162   40.6746   23.3244 C   0  0  0  0  0  0  0  0  0  0  0  0
   28.5932   40.3268   21.8453 C   0  0  2  0  0  0  0  0  0  0  0  0
   27.5355   42.6898   24.5157 C   0  0  0  0  0  0  0  0  0  0  0  0
   28.3909   43.5130   25.2762 C   0  0  0  0  0  0  0  0  0  0  0  0
   28.0204   44.1190   26.4507 C   0  0  0  0  0  0  0  0  0  0  0  0
   26.3496   44.5469   28.2560 C   0  0  0  0  0  0  0  0  0  0  0  0
   22.3259   42.4653   26.5345 C   0  0  0  0  0  0  0  0  0  0  0  0
   23.9323   42.0852   24.5355 C   0  0  0  0  0  0  0  0  0  0  0  0
   26.2148   42.5180   25.0180 C   0  0  0  0  0  0  0  0  0  0  0  0
   23.3926   45.2603   30.1899 O   0  0  0  0  0  0  0  0  0  0  0  0
   24.5275   44.8026   30.0396 C   0  0  0  0  0  0  0  0  0  0  0  0
   25.4203   44.7709   31.0213 O   0  0  0  0  0  0  0  0  0  0  0  0
   24.9654   44.2713   28.7215 C   0  0  1  0  0  0  0  0  0  0  0  0
   27.1318   45.2711   28.8812 O   0  0  0  0  0  0  0  0  0  0  0  0
   24.0688   43.5347   27.9280 C   0  0  0  0  0  0  0  0  0  0  0  0
   23.5098   42.4510   25.9146 C   0  0  0  0  0  0  0  0  0  0  0  0
   22.3926   43.2089   28.0785 S   0  0  0  0  0  0  0  0  0  0  0  0
   25.8255   43.1595   26.2157 C   0  0  0  0  0  0  0  0  0  0  0  0
   26.7318   43.9373   26.9526 C   0  0  0  0  0  0  0  0  0  0  0  0
   29.6384   43.7489   24.8228 F   0  0  0  0  0  0  0  0  0  0  0  0
   25.3111   41.6608   24.3708 N   0  0  0  0  0  0  0  0  0  0  0  0
   25.5828   40.2770   24.6967 C   0  0  0  0  0  0  0  0  0  0  0  0
   27.2568   42.2738   22.0208 C   0  0  0  0  0  0  0  0  0  0  0  0
   29.9270   40.0037   21.4498 O   0  0  0  0  0  0  0  0  0  0  0  0
   28.2337   41.5951   21.0756 C   0  0  2  0  0  0  0  0  0  0  0  0
   27.7061   41.2010   19.7553 N   0  0  0  0  0  0  0  0  0  0  0  0
   26.4196   40.4816   19.7810 C   0  0  0  0  0  0  0  0  0  0  0  0
   27.7141   42.2993   18.7768 C   0  0  0  0  0  0  0  0  0  0  0  0
  1  5  1  0  0  0  0
  2 17  1  0  0  0  0
  3  1  1  0  0  0  0
  4  3  1  0  0  0  0
  4 26  1  6  0  0  0
  5 11  2  0  0  0  0
  5  6  1  0  0  0  0
  6  7  2  0  0  0  0
  7 21  1  0  0  0  0
  8 15  1  0  0  0  0
  8 16  2  0  0  0  0
  9 19  1  0  0  0  0
 10 18  1  0  0  0  0
 11 20  1  0  0  0  0
 13 14  1  0  0  0  0
 13 12  2  0  0  0  0
 15 13  1  6  0  0  0
 17 19  2  0  0  0  0
 17 15  1  0  0  0  0
 18  2  1  0  0  0  0
 18  9  2  0  0  0  0
 20 21  2  0  0  0  0
 20  2  1  0  0  0  0
 21  8  1  0  0  0  0
 22  6  1  0  0  0  0
 23 11  1  0  0  0  0
 23 10  1  0  0  0  0
 24 23  1  0  0  0  0
 25  1  1  0  0  0  0
 27  4  1  0  0  0  0
 27 25  1  0  0  0  0
 27 28  1  6  0  0  0
 29 28  1  0  0  0  0
 30 28  1  0  0  0  0
M  END
>  <CHROM.1>
90.33796368,179.70634672,140.33708299,-73.19953300,66.49323299,26.17567576
42.75038434,25.29551267,-1.13654101,0.20628759,1.11047762

>  <Name>
lig.pdb

>  <RI>
0

>  <Rbt.Current_Directory>
/home/itssahil/PROJECTS/Mol_Feturizer/New_Systems/rnas/6bfb

>  <Rbt.Executable>
rbdock ($Id: //depot/dev/client3/rdock/2013.1/src/exe/rbdock.cxx#4 $)

>  <Rbt.Library>
libRbt.so (2013.1, Build901 2013/11/27)

>  <Rbt.Parameter_File>
/export/apps/rDock/src/rDock_2013.1_src/data/scripts/dock_solv.prm

>  <Rbt.Receptor>
prm/pocket_docking_5.prm

>  <SCORE>
-36.1821

>  <SCORE.INTER>
-31.7647

>  <SCORE.INTER.CONST>
1

>  <SCORE.INTER.POLAR>
-1.2359

>  <SCORE.INTER.ROT>
3

>  <SCORE.INTER.SOLV>
13.5286

>  <SCORE.INTER.VDW>
-27.1663

>  <SCORE.INTER.norm>
-1.05882

>  <SCORE.INTRA>
-4.41788

>  <SCORE.INTRA.DIHEDRAL>
-6.70986

>  <SCORE.INTRA.DIHEDRAL.0>
9.41909

>  <SCORE.INTRA.POLAR>
0

>  <SCORE.INTRA.POLAR.0>
0

>  <SCORE.INTRA.REPUL>
0

>  <SCORE.INTRA.REPUL.0>
0

>  <SCORE.INTRA.SOLV>
-0.0603121

>  <SCORE.INTRA.SOLV.lig_0>
-26.2491

>  <SCORE.INTRA.VDW>
-1.0328

>  <SCORE.INTRA.VDW.0>
2.57239

>  <SCORE.INTRA.norm>
-0.147263

>  <SCORE.RESTR>
0.000487214

>  <SCORE.RESTR.CAVITY>
0.000487214

>  <SCORE.RESTR.norm>
1.62405e-05

>  <SCORE.SYSTEM>
0

>  <SCORE.SYSTEM.CONST>
0

>  <SCORE.SYSTEM.DIHEDRAL>
0

>  <SCORE.SYSTEM.SOLV>
0

>  <SCORE.SYSTEM.norm>
0

>  <SCORE.heavy>
30

>  <SCORE.norm>
-1.20607

>  <RMSD>
5.238

$$$$
lig.pdb
 OpenBabel11021811523D
libRbt.so/2013.1/901 2013/11/27
 30 34  0  0  0  0  0  0  0  0999 V2000
   27.7191   42.0645   23.8322 N   0  0  0  0  0  0  0  0  0  0  0  0
   24.2062   43.3551   27.0727 N   0  0  0  0  0  0  0  0  0  0  0  0
   28.2254   40.6888   23.8604 C   0  0  0  0  0  0  0  0  0  0  0  0
   28.3258   40.3660   22.3772 C   0  0  2  0  0  0  0  0  0  0  0  0
   27.3122   42.7270   25.0663 C   0  0  0  0  0  0  0  0  0  0  0  0
   28.2066   43.4055   25.9193 C   0  0  0  0  0  0  0  0  0  0  0  0
   27.8318   44.0055   27.0955 C   0  0  0  0  0  0  0  0  0  0  0  0
   26.1039   44.5664   28.8082 C   0  0  0  0  0  0  0  0  0  0  0  0
   21.9861   43.0756   26.7326 C   0  0  0  0  0  0  0  0  0  0  0  0
   23.6697   42.5779   24.8250 C   0  0  0  0  0  0  0  0  0  0  0  0
   25.9486   42.7018   25.4737 C   0  0  0  0  0  0  0  0  0  0  0  0
   24.5403   44.4292   31.5345 O   0  0  0  0  0  0  0  0  0  0  0  0
   24.2066   44.9763   30.4812 C   0  0  0  0  0  0  0  0  0  0  0  0
   23.4155   46.0418   30.4495 O   0  0  0  0  0  0  0  0  0  0  0  0
   24.6673   44.4478   29.1698 C   0  0  1  0  0  0  0  0  0  0  0  0
   26.9231   45.1612   29.5168 O   0  0  0  0  0  0  0  0  0  0  0  0
   23.7450   43.8617   28.2855 C   0  0  0  0  0  0  0  0  0  0  0  0
   23.1997   42.9381   26.1901 C   0  0  0  0  0  0  0  0  0  0  0  0
   22.0352   43.7425   28.3119 S   0  0  0  0  0  0  0  0  0  0  0  0
   25.5579   43.3385   26.6736 C   0  0  0  0  0  0  0  0  0  0  0  0
   26.4988   43.9665   27.5041 C   0  0  0  0  0  0  0  0  0  0  0  0
   29.5022   43.5013   25.5590 F   0  0  0  0  0  0  0  0  0  0  0  0
   24.9943   41.9912   24.7290 N   0  0  0  0  0  0  0  0  0  0  0  0
   25.0715   40.5724   25.0042 C   0  0  0  0  0  0  0  0  0  0  0  0
   27.0819   42.3730   22.5570 C   0  0  0  0  0  0  0  0  0  0  0  0
   29.6525   39.9849   22.0105 O   0  0  0  0  0  0  0  0  0  0  0  0
   28.0500   41.6649   21.6242 C   0  0  2  0  0  0  0  0  0  0  0  0
   27.5402   41.3226   20.2827 N   0  0  0  0  0  0  0  0  0  0  0  0
   26.2180   40.6709   20.2595 C   0  0  0  0  0  0  0  0  0  0  0  0
   27.6323   42.4364   19.3263 C   0  0  0  0  0  0  0  0  0  0  0  0
  1  5  1  0  0  0  0
  2 17  1  0  0  0  0
  3  1  1  0  0  0  0
  4  3  1  0  0  0  0
  4 26  1  1  0  0  0
  5 11  2  0  0  0  0
  5  6  1  0  0  0  0
  6  7  2  0  0  0  0
  7 21  1  0  0  0  0
  8 15  1  0  0  0  0
  8 16  2  0  0  0  0
  9 19  1  0  0  0  0
 10 18  1  0  0  0  0
 11 20  1  0  0  0  0
 13 14  1  0  0  0  0
 13 12  2  0  0  0  0
 15 13  1  6  0  0  0
 17 19  2  0  0  0  0
 17 15  1  0  0  0  0
 18  2  1  0  0  0  0
 18  9  2  0  0  0  0
 20 21  2  0  0  0  0
 20  2  1  0  0  0  0
 21  8  1  0  0  0  0
 22  6  1  0  0  0  0
 23 11  1  0  0  0  0
 23 10  1  0  0  0  0
 24 23  1  0  0  0  0
 25  1  1  0  0  0  0
 27  4  1  0  0  0  0
 27 25  1  0  0  0  0
 27 28  1  6  0  0  0
 29 28  1  0  0  0  0
 30 28  1  0  0  0  0
M  END
>  <CHROM.1>
85.25805031,178.97886683,-69.17643838,50.23227755,66.66268341,25.89768107
42.91938789,25.75626011,-1.12661833,0.06001903,1.14326181

>  <Name>
lig.pdb

>  <RI>
0

>  <Rbt.Current_Directory>
/home/itssahil/PROJECTS/Mol_Feturizer/New_Systems/rnas/6bfb

>  <Rbt.Executable>
rbdock ($Id: //depot/dev/client3/rdock/2013.1/src/exe/rbdock.cxx#4 $)

>  <Rbt.Library>
libRbt.so (2013.1, Build901 2013/11/27)

>  <Rbt.Parameter_File>
/export/apps/rDock/src/rDock_2013.1_src/data/scripts/dock_solv.prm

>  <Rbt.Receptor>
prm/pocket_docking_7.prm

>  <SCORE>
-34.4924

>  <SCORE.INTER>
-28.7087

>  <SCORE.INTER.CONST>
1

>  <SCORE.INTER.POLAR>
-0.916515

>  <SCORE.INTER.ROT>
3

>  <SCORE.INTER.SOLV>
12.5057

>  <SCORE.INTER.VDW>
-25.8526

>  <SCORE.INTER.norm>
-0.956957

>  <SCORE.INTRA>
-5.78374

>  <SCORE.INTRA.DIHEDRAL>
-7.04624

>  <SCORE.INTRA.DIHEDRAL.0>
9.41909

>  <SCORE.INTRA.POLAR>
0

>  <SCORE.INTRA.POLAR.0>
0

>  <SCORE.INTRA.REPUL>
0

>  <SCORE.INTRA.REPUL.0>
0

>  <SCORE.INTRA.SOLV>
-0.233577

>  <SCORE.INTRA.SOLV.lig_0>
-26.2491

>  <SCORE.INTRA.VDW>
-2.14384

>  <SCORE.INTRA.VDW.0>
2.57239

>  <SCORE.INTRA.norm>
-0.192791

>  <SCORE.RESTR>
0

>  <SCORE.RESTR.CAVITY>
0

>  <SCORE.RESTR.norm>
0

>  <SCORE.SYSTEM>
0

>  <SCORE.SYSTEM.CONST>
0

>  <SCORE.SYSTEM.DIHEDRAL>
0

>  <SCORE.SYSTEM.SOLV>
0

>  <SCORE.SYSTEM.norm>
0

>  <SCORE.heavy>
30

>  <SCORE.norm>
-1.14975

>  <RMSD>
5.524

$$$$
lig.pdb
 OpenBabel11021811523D
libRbt.so/2013.1/901 2013/11/27
 30 34  0  0  0  0  0  0  0  0999 V2000
   26.2750   41.6630   24.3334 N   0  0  0  0  0  0  0  0  0  0  0  0
   23.7556   43.6017   28.1283 N   0  0  0  0  0  0  0  0  0  0  0  0
   25.2582   41.8697   23.2976 C   0  0  0  0  0  0  0  0  0  0  0  0
   25.8021   41.0224   22.1572 C   0  0  2  0  0  0  0  0  0  0  0  0
   26.2379   42.4366   25.5693 C   0  0  0  0  0  0  0  0  0  0  0  0
   27.3778   43.0205   26.1590 C   0  0  0  0  0  0  0  0  0  0  0  0
   27.3510   43.7249   27.3367 C   0  0  0  0  0  0  0  0  0  0  0  0
   26.1283   44.6113   29.3249 C   0  0  0  0  0  0  0  0  0  0  0  0
   21.4979   43.6279   28.2858 C   0  0  0  0  0  0  0  0  0  0  0  0
   22.6433   42.8007   26.1121 C   0  0  0  0  0  0  0  0  0  0  0  0
   25.0053   42.6276   26.2552 C   0  0  0  0  0  0  0  0  0  0  0  0
   24.8350   44.7117   32.3567 O   0  0  0  0  0  0  0  0  0  0  0  0
   24.7135   45.3709   31.3219 C   0  0  0  0  0  0  0  0  0  0  0  0
   24.4819   46.6779   31.3311 O   0  0  0  0  0  0  0  0  0  0  0  0
   24.8030   44.7181   29.9887 C   0  0  1  0  0  0  0  0  0  0  0  0
   27.1530   45.1162   29.7962 O   0  0  0  0  0  0  0  0  0  0  0  0
   23.6413   44.2280   29.3672 C   0  0  0  0  0  0  0  0  0  0  0  0
   22.5349   43.2911   27.5128 C   0  0  0  0  0  0  0  0  0  0  0  0
   21.9781   44.3571   29.7619 S   0  0  0  0  0  0  0  0  0  0  0  0
   24.9731   43.3717   27.4564 C   0  0  0  0  0  0  0  0  0  0  0  0
   26.1465   43.8979   28.0183 C   0  0  0  0  0  0  0  0  0  0  0  0
   28.5641   42.9115   25.5279 F   0  0  0  0  0  0  0  0  0  0  0  0
   23.8271   42.0259   25.7861 N   0  0  0  0  0  0  0  0  0  0  0  0
   23.7781   40.6258   26.1498 C   0  0  0  0  0  0  0  0  0  0  0  0
   27.5353   41.2037   23.7605 C   0  0  0  0  0  0  0  0  0  0  0  0
   24.8594   40.0336   21.7406 O   0  0  0  0  0  0  0  0  0  0  0  0
   26.9915   40.2449   22.7147 C   0  0  2  0  0  0  0  0  0  0  0  0
   27.8926   39.9122   21.5950 N   0  0  0  0  0  0  0  0  0  0  0  0
   29.3316   39.9462   21.9138 C   0  0  0  0  0  0  0  0  0  0  0  0
   27.5053   38.6835   20.8850 C   0  0  0  0  0  0  0  0  0  0  0  0
  1  5  1  0  0  0  0
  2 17  1  0  0  0  0
  3  1  1  0  0  0  0
  4  3  1  0  0  0  0
  4 26  1  1  0  0  0
  5 11  2  0  0  0  0
  5  6  1  0  0  0  0
  6  7  2  0  0  0  0
  7 21  1  0  0  0  0
  8 15  1  0  0  0  0
  8 16  2  0  0  0  0
  9 19  1  0  0  0  0
 10 18  1  0  0  0  0
 11 20  1  0  0  0  0
 13 14  1  0  0  0  0
 13 12  2  0  0  0  0
 15 13  1  6  0  0  0
 17 19  2  0  0  0  0
 17 15  1  0  0  0  0
 18  2  1  0  0  0  0
 18  9  2  0  0  0  0
 20 21  2  0  0  0  0
 20  2  1  0  0  0  0
 21  8  1  0  0  0  0
 22  6  1  0  0  0  0
 23 11  1  0  0  0  0
 23 10  1  0  0  0  0
 24 23  1  0  0  0  0
 25  1  1  0  0  0  0
 27  4  1  0  0  0  0
 27 25  1  0  0  0  0
 27 28  1  6  0  0  0
 29 28  1  0  0  0  0
 30 28  1  0  0  0  0
M  END
>  <CHROM.1>
-136.10294042,-179.08663342,-89.99606175,66.63132927,143.91376569,25.33586327
42.78591654,26.55183736,-1.24417082,0.09413431,1.01841069

>  <Name>
lig.pdb

>  <RI>
0

>  <Rbt.Current_Directory>
/home/itssahil/PROJECTS/Mol_Feturizer/New_Systems/rnas/6bfb

>  <Rbt.Executable>
rbdock ($Id: //depot/dev/client3/rdock/2013.1/src/exe/rbdock.cxx#4 $)

>  <Rbt.Library>
libRbt.so (2013.1, Build901 2013/11/27)

>  <Rbt.Parameter_File>
/export/apps/rDock/src/rDock_2013.1_src/data/scripts/dock_solv.prm

>  <Rbt.Receptor>
prm/pocket_docking_8.prm

>  <SCORE>
-29.4851

>  <SCORE.INTER>
-26.2548

>  <SCORE.INTER.CONST>
1

>  <SCORE.INTER.POLAR>
-0.976345

>  <SCORE.INTER.ROT>
3

>  <SCORE.INTER.SOLV>
10.1573

>  <SCORE.INTER.VDW>
-23.2345

>  <SCORE.INTER.norm>
-0.87516

>  <SCORE.INTRA>
-3.23032

>  <SCORE.INTRA.DIHEDRAL>
-6.39662

>  <SCORE.INTRA.DIHEDRAL.0>
9.41909

>  <SCORE.INTRA.POLAR>
0

>  <SCORE.INTRA.POLAR.0>
0

>  <SCORE.INTRA.REPUL>
0

>  <SCORE.INTRA.REPUL.0>
0

>  <SCORE.INTRA.SOLV>
-0.186598

>  <SCORE.INTRA.SOLV.lig_0>
-26.2491

>  <SCORE.INTRA.VDW>
0.0612913

>  <SCORE.INTRA.VDW.0>
2.57239

>  <SCORE.INTRA.norm>
-0.107677

>  <SCORE.RESTR>
0

>  <SCORE.RESTR.CAVITY>
0

>  <SCORE.RESTR.norm>
0

>  <SCORE.SYSTEM>
0

>  <SCORE.SYSTEM.CONST>
0

>  <SCORE.SYSTEM.DIHEDRAL>
0

>  <SCORE.SYSTEM.SOLV>
0

>  <SCORE.SYSTEM.norm>
0

>  <SCORE.heavy>
30

>  <SCORE.norm>
-0.982838

>  <RMSD>
5.958

$$$$
lig.pdb
 OpenBabel11021811523D
libRbt.so/2013.1/901 2013/11/27
 30 34  0  0  0  0  0  0  0  0999 V2000
   23.7029   41.7363   25.3275 N   0  0  0  0  0  0  0  0  0  0  0  0
   27.4541   40.1510   22.5129 N   0  0  0  0  0  0  0  0  0  0  0  0
   23.6743   43.1683   25.0142 C   0  0  0  0  0  0  0  0  0  0  0  0
   22.8524   43.7210   26.1688 C   0  0  2  0  0  0  0  0  0  0  0  0
   24.2600   40.7829   24.3746 C   0  0  0  0  0  0  0  0  0  0  0  0
   23.5430   39.6825   23.8620 C   0  0  0  0  0  0  0  0  0  0  0  0
   24.0734   38.7674   22.9872 C   0  0  0  0  0  0  0  0  0  0  0  0
   25.9850   37.8747   21.6520 C   0  0  0  0  0  0  0  0  0  0  0  0
   29.3704   41.3043   22.1661 C   0  0  0  0  0  0  0  0  0  0  0  0
   27.4083   42.3964   23.4616 C   0  0  0  0  0  0  0  0  0  0  0  0
   25.6009   40.9291   23.9198 C   0  0  0  0  0  0  0  0  0  0  0  0
   28.6718   37.4154   19.3857 O   0  0  0  0  0  0  0  0  0  0  0  0
   28.0824   37.0772   20.4144 C   0  0  0  0  0  0  0  0  0  0  0  0
   28.0006   35.8119   20.8072 O   0  0  0  0  0  0  0  0  0  0  0  0
   27.4056   38.0872   21.2708 C   0  0  1  0  0  0  0  0  0  0  0  0
   25.3121   36.9327   21.2198 O   0  0  0  0  0  0  0  0  0  0  0  0
   28.1045   39.2312   21.6937 C   0  0  0  0  0  0  0  0  0  0  0  0
   28.1693   41.3331   22.7514 C   0  0  0  0  0  0  0  0  0  0  0  0
   29.6476   39.8576   21.2877 S   0  0  0  0  0  0  0  0  0  0  0  0
   26.1408   39.9999   23.0019 C   0  0  0  0  0  0  0  0  0  0  0  0
   25.3926   38.9001   22.5544 C   0  0  0  0  0  0  0  0  0  0  0  0
   22.2538   39.5219   24.2220 F   0  0  0  0  0  0  0  0  0  0  0  0
   26.4188   41.9513   24.4264 N   0  0  0  0  0  0  0  0  0  0  0  0
   26.9319   41.6060   25.7349 C   0  0  0  0  0  0  0  0  0  0  0  0
   22.6185   41.3653   26.2296 C   0  0  0  0  0  0  0  0  0  0  0  0
   23.5692   44.7217   26.8931 O   0  0  0  0  0  0  0  0  0  0  0  0
   22.6468   42.5720   27.1525 C   0  0  2  0  0  0  0  0  0  0  0  0
   21.4185   42.8387   27.9252 N   0  0  0  0  0  0  0  0  0  0  0  0
   20.7812   41.6514   28.5233 C   0  0  0  0  0  0  0  0  0  0  0  0
   21.5681   43.9394   28.8894 C   0  0  0  0  0  0  0  0  0  0  0  0
  1  5  1  0  0  0  0
  2 17  1  0  0  0  0
  3  1  1  0  0  0  0
  4  3  1  0  0  0  0
  4 26  1  1  0  0  0
  5 11  2  0  0  0  0
  5  6  1  0  0  0  0
  6  7  2  0  0  0  0
  7 21  1  0  0  0  0
  8 15  1  0  0  0  0
  8 16  2  0  0  0  0
  9 19  1  0  0  0  0
 10 18  1  0  0  0  0
 11 20  1  0  0  0  0
 13 14  1  0  0  0  0
 13 12  2  0  0  0  0
 15 13  1  6  0  0  0
 17 19  2  0  0  0  0
 17 15  1  0  0  0  0
 18  2  1  0  0  0  0
 18  9  2  0  0  0  0
 20 21  2  0  0  0  0
 20  2  1  0  0  0  0
 21  8  1  0  0  0  0
 22  6  1  0  0  0  0
 23 11  1  0  0  0  0
 23 10  1  0  0  0  0
 24 23  1  0  0  0  0
 25  1  1  0  0  0  0
 27  4  1  0  0  0  0
 27 25  1  0  0  0  0
 27 28  1  6  0  0  0
 29 28  1  0  0  0  0
 30 28  1  0  0  0  0
M  END
>  <CHROM.1>
-123.31250282,-178.00002889,127.93785940,50.96113938,157.26168218,25.48394980
40.48936712,23.80049062,2.30326644,0.43232788,0.57187718

>  <Name>
lig.pdb

>  <RI>
0

>  <Rbt.Current_Directory>
/home/itssahil/PROJECTS/Mol_Feturizer/New_Systems/rnas/6bfb

>  <Rbt.Executable>
rbdock ($Id: //depot/dev/client3/rdock/2013.1/src/exe/rbdock.cxx#4 $)

>  <Rbt.Library>
libRbt.so (2013.1, Build901 2013/11/27)

>  <Rbt.Parameter_File>
/export/apps/rDock/src/rDock_2013.1_src/data/scripts/dock_solv.prm

>  <Rbt.Receptor>
prm/pocket_docking_8.prm

>  <SCORE>
-37.3446

>  <SCORE.INTER>
-33.1874

>  <SCORE.INTER.CONST>
1

>  <SCORE.INTER.POLAR>
-1.90683

>  <SCORE.INTER.ROT>
3

>  <SCORE.INTER.SOLV>
13.085

>  <SCORE.INTER.VDW>
-25.7305

>  <SCORE.INTER.norm>
-1.10625

>  <SCORE.INTRA>
-4.15716

>  <SCORE.INTRA.DIHEDRAL>
-6.92075

>  <SCORE.INTRA.DIHEDRAL.0>
9.41909

>  <SCORE.INTRA.POLAR>
0

>  <SCORE.INTRA.POLAR.0>
0

>  <SCORE.INTRA.REPUL>
0.0220545

>  <SCORE.INTRA.REPUL.0>
0

>  <SCORE.INTRA.SOLV>
-0.131202

>  <SCORE.INTRA.SOLV.lig_0>
-26.2491

>  <SCORE.INTRA.VDW>
-0.741455

>  <SCORE.INTRA.VDW.0>
2.57239

>  <SCORE.INTRA.norm>
-0.138572

>  <SCORE.RESTR>
0

>  <SCORE.RESTR.CAVITY>
0

>  <SCORE.RESTR.norm>
0

>  <SCORE.SYSTEM>
0

>  <SCORE.SYSTEM.CONST>
0

>  <SCORE.SYSTEM.DIHEDRAL>
0

>  <SCORE.SYSTEM.SOLV>
0

>  <SCORE.SYSTEM.norm>
0

>  <SCORE.heavy>
30

>  <SCORE.norm>
-1.24482

>  <RMSD>
7.503

$$$$
lig.pdb
 OpenBabel11021811523D
libRbt.so/2013.1/901 2013/11/27
 30 34  0  0  0  0  0  0  0  0999 V2000
   26.8545   41.2353   21.7860 N   0  0  0  0  0  0  0  0  0  0  0  0
   26.0850   43.0151   17.2311 N   0  0  0  0  0  0  0  0  0  0  0  0
   27.5381   39.9700   21.5011 C   0  0  0  0  0  0  0  0  0  0  0  0
   28.4634   39.8414   22.7018 C   0  0  2  0  0  0  0  0  0  0  0  0
   25.9757   41.8402   20.7913 C   0  0  0  0  0  0  0  0  0  0  0  0
   24.6276   42.1705   21.0389 C   0  0  0  0  0  0  0  0  0  0  0  0
   23.7901   42.7134   20.0966 C   0  0  0  0  0  0  0  0  0  0  0  0
   23.3377   43.5049   17.7722 C   0  0  0  0  0  0  0  0  0  0  0  0
   27.7138   43.3498   15.6956 C   0  0  0  0  0  0  0  0  0  0  0  0
   28.3277   42.6518   18.1158 C   0  0  0  0  0  0  0  0  0  0  0  0
   26.4634   42.1189   19.4834 C   0  0  0  0  0  0  0  0  0  0  0  0
   23.1954   43.7768   14.1725 O   0  0  0  0  0  0  0  0  0  0  0  0
   23.0517   44.1988   15.3221 C   0  0  0  0  0  0  0  0  0  0  0  0
   22.1361   45.1055   15.6406 O   0  0  0  0  0  0  0  0  0  0  0  0
   23.9262   43.7174   16.4243 C   0  0  1  0  0  0  0  0  0  0  0  0
   22.1656   43.7898   18.0408 O   0  0  0  0  0  0  0  0  0  0  0  0
   25.2924   43.4863   16.1871 C   0  0  0  0  0  0  0  0  0  0  0  0
   27.4578   42.9679   16.9505 C   0  0  0  0  0  0  0  0  0  0  0  0
   26.3003   43.8047   14.8376 S   0  0  0  0  0  0  0  0  0  0  0  0
   25.6080   42.6985   18.5191 C   0  0  0  0  0  0  0  0  0  0  0  0
   24.2624   42.9709   18.8098 C   0  0  0  0  0  0  0  0  0  0  0  0
   24.1260   41.9719   22.2743 F   0  0  0  0  0  0  0  0  0  0  0  0
   27.7706   41.7611   19.1180 N   0  0  0  0  0  0  0  0  0  0  0  0
   27.8578   40.3480   18.8169 C   0  0  0  0  0  0  0  0  0  0  0  0
   27.6115   42.0508   22.7290 C   0  0  0  0  0  0  0  0  0  0  0  0
   28.2377   38.6227   23.4115 O   0  0  0  0  0  0  0  0  0  0  0  0
   28.0831   40.9568   23.6721 C   0  0  2  0  0  0  0  0  0  0  0  0
   29.2610   41.2676   24.5042 N   0  0  0  0  0  0  0  0  0  0  0  0
   29.8367   42.6099   24.3035 C   0  0  0  0  0  0  0  0  0  0  0  0
   29.0658   40.9492   25.9270 C   0  0  0  0  0  0  0  0  0  0  0  0
  1  5  1  0  0  0  0
  2 17  1  0  0  0  0
  3  1  1  0  0  0  0
  4  3  1  0  0  0  0
  4 26  1  1  0  0  0
  5 11  2  0  0  0  0
  5  6  1  0  0  0  0
  6  7  2  0  0  0  0
  7 21  1  0  0  0  0
  8 15  1  0  0  0  0
  8 16  2  0  0  0  0
  9 19  1  0  0  0  0
 10 18  1  0  0  0  0
 11 20  1  0  0  0  0
 13 14  1  0  0  0  0
 13 12  2  0  0  0  0
 15 13  1  1  0  0  0
 17 19  2  0  0  0  0
 17 15  1  0  0  0  0
 18  2  1  0  0  0  0
 18  9  2  0  0  0  0
 20 21  2  0  0  0  0
 20  2  1  0  0  0  0
 21  8  1  0  0  0  0
 22  6  1  0  0  0  0
 23 11  1  0  0  0  0
 23 10  1  0  0  0  0
 24 23  1  0  0  0  0
 25  1  1  0  0  0  0
 27  4  1  0  0  0  0
 27 25  1  0  0  0  0
 27 28  1  6  0  0  0
 29 28  1  0  0  0  0
 30 28  1  0  0  0  0
M  END
>  <CHROM.1>
124.03072459,179.43860974,-142.31554671,-170.51538141,113.87723400,26.14634116
42.35293400,19.41103412,1.10371848,-0.24419642,1.82258674

>  <Name>
lig.pdb

>  <RI>
0

>  <Rbt.Current_Directory>
/home/itssahil/PROJECTS/Mol_Feturizer/New_Systems/rnas/6bfb

>  <Rbt.Executable>
rbdock ($Id: //depot/dev/client3/rdock/2013.1/src/exe/rbdock.cxx#4 $)

>  <Rbt.Library>
libRbt.so (2013.1, Build901 2013/11/27)

>  <Rbt.Parameter_File>
/export/apps/rDock/src/rDock_2013.1_src/data/scripts/dock_solv.prm

>  <Rbt.Receptor>
prm/blind_docking_100.prm

>  <SCORE>
32.651

>  <SCORE.INTER>
29.0676

>  <SCORE.INTER.CONST>
1

>  <SCORE.INTER.POLAR>
-0.564541

>  <SCORE.INTER.ROT>
3

>  <SCORE.INTER.SOLV>
23.6774

>  <SCORE.INTER.VDW>
7.76776

>  <SCORE.INTER.norm>
0.968921

>  <SCORE.INTRA>
3.55625

>  <SCORE.INTRA.DIHEDRAL>
-5.06902

>  <SCORE.INTRA.DIHEDRAL.0>
9.41909

>  <SCORE.INTRA.POLAR>
0

>  <SCORE.INTRA.POLAR.0>
0

>  <SCORE.INTRA.REPUL>
0

>  <SCORE.INTRA.REPUL.0>
0

>  <SCORE.INTRA.SOLV>
-0.0360518

>  <SCORE.INTRA.SOLV.lig_0>
-26.2491

>  <SCORE.INTRA.VDW>
6.10879

>  <SCORE.INTRA.VDW.0>
2.57239

>  <SCORE.INTRA.norm>
0.118542

>  <SCORE.RESTR>
0.0271666

>  <SCORE.RESTR.CAVITY>
0.0271666

>  <SCORE.RESTR.norm>
0.000905553

>  <SCORE.SYSTEM>
0

>  <SCORE.SYSTEM.CONST>
0

>  <SCORE.SYSTEM.DIHEDRAL>
0

>  <SCORE.SYSTEM.SOLV>
0

>  <SCORE.SYSTEM.norm>
0

>  <SCORE.heavy>
30

>  <SCORE.norm>
1.08837

>  <RMSD>
7.556

$$$$
lig.pdb
 OpenBabel11021811523D
libRbt.so/2013.1/901 2013/11/27
 30 34  0  0  0  0  0  0  0  0999 V2000
   25.7941   41.3484   24.3116 N   0  0  0  0  0  0  0  0  0  0  0  0
   25.7753   38.5929   20.1989 N   0  0  0  0  0  0  0  0  0  0  0  0
   26.7608   42.3001   23.7553 C   0  0  0  0  0  0  0  0  0  0  0  0
   26.9875   43.2348   24.9340 C   0  0  2  0  0  0  0  0  0  0  0  0
   25.1621   40.3518   23.4543 C   0  0  0  0  0  0  0  0  0  0  0  0
   23.9325   39.7309   23.7549 C   0  0  0  0  0  0  0  0  0  0  0  0
   23.3491   38.7721   22.9648 C   0  0  0  0  0  0  0  0  0  0  0  0
   23.3712   37.2818   20.9617 C   0  0  0  0  0  0  0  0  0  0  0  0
   27.2437   38.8296   18.4929 C   0  0  0  0  0  0  0  0  0  0  0  0
   27.2408   40.5245   20.4547 C   0  0  0  0  0  0  0  0  0  0  0  0
   25.7933   39.9479   22.2441 C   0  0  0  0  0  0  0  0  0  0  0  0
   23.6339   34.6216   19.3004 O   0  0  0  0  0  0  0  0  0  0  0  0
   23.6146   35.7859   18.8954 C   0  0  0  0  0  0  0  0  0  0  0  0
   23.1592   36.1162   17.6931 O   0  0  0  0  0  0  0  0  0  0  0  0
   24.1280   36.8950   19.7427 C   0  0  1  0  0  0  0  0  0  0  0  0
   22.2845   36.7753   21.2609 O   0  0  0  0  0  0  0  0  0  0  0  0
   25.3043   37.5721   19.3765 C   0  0  0  0  0  0  0  0  0  0  0  0
   26.8567   39.3159   19.6760 C   0  0  0  0  0  0  0  0  0  0  0  0
   26.2860   37.5052   17.9729 S   0  0  0  0  0  0  0  0  0  0  0  0
   25.1824   38.9768   21.4187 C   0  0  0  0  0  0  0  0  0  0  0  0
   23.9753   38.3633   21.7875 C   0  0  0  0  0  0  0  0  0  0  0  0
   23.2674   40.1093   24.8649 F   0  0  0  0  0  0  0  0  0  0  0  0
   27.0539   40.4556   21.8929 N   0  0  0  0  0  0  0  0  0  0  0  0
   28.1065   39.7887   22.6292 C   0  0  0  0  0  0  0  0  0  0  0  0
   25.1033   41.9042   25.4696 C   0  0  0  0  0  0  0  0  0  0  0  0
   28.3666   43.2940   25.3006 O   0  0  0  0  0  0  0  0  0  0  0  0
   26.2718   42.6150   26.1314 C   0  0  2  0  0  0  0  0  0  0  0  0
   25.9345   43.6948   27.0785 N   0  0  0  0  0  0  0  0  0  0  0  0
   24.6428   43.5423   27.7725 C   0  0  0  0  0  0  0  0  0  0  0  0
   27.0319   44.0186   28.0028 C   0  0  0  0  0  0  0  0  0  0  0  0
  1  5  1  0  0  0  0
  2 17  1  0  0  0  0
  3  1  1  0  0  0  0
  4  3  1  0  0  0  0
  4 26  1  1  0  0  0
  5 11  2  0  0  0  0
  5  6  1  0  0  0  0
  6  7  2  0  0  0  0
  7 21  1  0  0  0  0
  8 15  1  0  0  0  0
  8 16  2  0  0  0  0
  9 19  1  0  0  0  0
 10 18  1  0  0  0  0
 11 20  1  0  0  0  0
 13 14  1  0  0  0  0
 13 12  2  0  0  0  0
 15 13  1  6  0  0  0
 17 19  2  0  0  0  0
 17 15  1  0  0  0  0
 18  2  1  0  0  0  0
 18  9  2  0  0  0  0
 20 21  2  0  0  0  0
 20  2  1  0  0  0  0
 21  8  1  0  0  0  0
 22  6  1  0  0  0  0
 23 11  1  0  0  0  0
 23 10  1  0  0  0  0
 24 23  1  0  0  0  0
 25  1  1  0  0  0  0
 27  4  1  0  0  0  0
 27 25  1  0  0  0  0
 27 28  1  1  0  0  0
 29 28  1  0  0  0  0
 30 28  1  0  0  0  0
M  END
>  <CHROM.1>
-157.08267715,-177.51090251,-69.39642570,166.15316873,143.26900066,25.41415766
39.68307669,22.27860366,1.36562613,0.52589662,0.96779477

>  <Name>
lig.pdb

>  <RI>
0

>  <Rbt.Current_Directory>
/home/itssahil/PROJECTS/Mol_Feturizer/New_Systems/rnas/6bfb

>  <Rbt.Executable>
rbdock ($Id: //depot/dev/client3/rdock/2013.1/src/exe/rbdock.cxx#4 $)

>  <Rbt.Library>
libRbt.so (2013.1, Build901 2013/11/27)

>  <Rbt.Parameter_File>
/export/apps/rDock/src/rDock_2013.1_src/data/scripts/dock_solv.prm

>  <Rbt.Receptor>
prm/pocket_docking_6.prm

>  <SCORE>
-34.5886

>  <SCORE.INTER>
-34.8886

>  <SCORE.INTER.CONST>
1

>  <SCORE.INTER.POLAR>
-0.894427

>  <SCORE.INTER.ROT>
3

>  <SCORE.INTER.SOLV>
14.0468

>  <SCORE.INTER.VDW>
-30.5599

>  <SCORE.INTER.norm>
-1.16295

>  <SCORE.INTRA>
0.300037

>  <SCORE.INTRA.DIHEDRAL>
-5.64176

>  <SCORE.INTRA.DIHEDRAL.0>
9.41909

>  <SCORE.INTRA.POLAR>
0

>  <SCORE.INTRA.POLAR.0>
0

>  <SCORE.INTRA.REPUL>
0

>  <SCORE.INTRA.REPUL.0>
0

>  <SCORE.INTRA.SOLV>
-0.0744647

>  <SCORE.INTRA.SOLV.lig_0>
-26.2491

>  <SCORE.INTRA.VDW>
3.15815

>  <SCORE.INTRA.VDW.0>
2.57239

>  <SCORE.INTRA.norm>
0.0100012

>  <SCORE.RESTR>
0

>  <SCORE.RESTR.CAVITY>
0

>  <SCORE.RESTR.norm>
0

>  <SCORE.SYSTEM>
0

>  <SCORE.SYSTEM.CONST>
0

>  <SCORE.SYSTEM.DIHEDRAL>
0

>  <SCORE.SYSTEM.SOLV>
0

>  <SCORE.SYSTEM.norm>
0

>  <SCORE.heavy>
30

>  <SCORE.norm>
-1.15295

>  <RMSD>
7.580

$$$$
lig.pdb
 OpenBabel11021811523D
libRbt.so/2013.1/901 2013/11/27
 30 34  0  0  0  0  0  0  0  0999 V2000
   25.8174   41.0892   23.8649 N   0  0  0  0  0  0  0  0  0  0  0  0
   25.4956   37.9297   20.0673 N   0  0  0  0  0  0  0  0  0  0  0  0
   26.7244   42.0068   23.1686 C   0  0  0  0  0  0  0  0  0  0  0  0
   27.0850   42.9849   24.2766 C   0  0  2  0  0  0  0  0  0  0  0  0
   25.0886   40.0667   23.1227 C   0  0  0  0  0  0  0  0  0  0  0  0
   23.8156   39.5895   23.4965 C   0  0  0  0  0  0  0  0  0  0  0  0
   23.1396   38.6073   22.8167 C   0  0  0  0  0  0  0  0  0  0  0  0
   23.0013   36.9189   20.9826 C   0  0  0  0  0  0  0  0  0  0  0  0
   26.9503   37.8582   18.3350 C   0  0  0  0  0  0  0  0  0  0  0  0
   27.1245   39.7433   20.1062 C   0  0  0  0  0  0  0  0  0  0  0  0
   25.6629   39.4850   21.9574 C   0  0  0  0  0  0  0  0  0  0  0  0
   21.9322   35.2781   18.6469 O   0  0  0  0  0  0  0  0  0  0  0  0
   23.0821   35.1992   19.0845 C   0  0  0  0  0  0  0  0  0  0  0  0
   23.8206   34.1035   18.9576 O   0  0  0  0  0  0  0  0  0  0  0  0
   23.7021   36.3424   19.8057 C   0  0  1  0  0  0  0  0  0  0  0  0
   21.8805   36.5425   21.3418 O   0  0  0  0  0  0  0  0  0  0  0  0
   24.9256   36.8729   19.3612 C   0  0  0  0  0  0  0  0  0  0  0  0
   26.6258   38.4976   19.4628 C   0  0  0  0  0  0  0  0  0  0  0  0
   25.8748   36.5746   17.9653 S   0  0  0  0  0  0  0  0  0  0  0  0
   24.9579   38.4893   21.2440 C   0  0  0  0  0  0  0  0  0  0  0  0
   23.7091   38.0247   21.6846 C   0  0  0  0  0  0  0  0  0  0  0  0
   23.2037   40.1383   24.5651 F   0  0  0  0  0  0  0  0  0  0  0  0
   26.9563   39.8421   21.5450 N   0  0  0  0  0  0  0  0  0  0  0  0
   27.9601   39.1675   22.3399 C   0  0  0  0  0  0  0  0  0  0  0  0
   25.2608   41.6986   25.0675 C   0  0  0  0  0  0  0  0  0  0  0  0
   28.4962   43.0427   24.4885 O   0  0  0  0  0  0  0  0  0  0  0  0
   26.4996   42.4215   25.5689 C   0  0  2  0  0  0  0  0  0  0  0  0
   26.2752   43.5420   26.5022 N   0  0  0  0  0  0  0  0  0  0  0  0
   25.1955   43.3361   27.4845 C   0  0  0  0  0  0  0  0  0  0  0  0
   27.5135   44.0333   27.1259 C   0  0  0  0  0  0  0  0  0  0  0  0
  1  5  1  0  0  0  0
  2 17  1  0  0  0  0
  3  1  1  0  0  0  0
  4  3  1  0  0  0  0
  4 26  1  1  0  0  0
  5 11  2  0  0  0  0
  5  6  1  0  0  0  0
  6  7  2  0  0  0  0
  7 21  1  0  0  0  0
  8 15  1  0  0  0  0
  8 16  2  0  0  0  0
  9 19  1  0  0  0  0
 10 18  1  0  0  0  0
 11 20  1  0  0  0  0
 13 14  1  0  0  0  0
 13 12  2  0  0  0  0
 15 13  1  6  0  0  0
 17 19  2  0  0  0  0
 17 15  1  0  0  0  0
 18  2  1  0  0  0  0
 18  9  2  0  0  0  0
 20 21  2  0  0  0  0
 20  2  1  0  0  0  0
 21  8  1  0  0  0  0
 22  6  1  0  0  0  0
 23 11  1  0  0  0  0
 23 10  1  0  0  0  0
 24 23  1  0  0  0  0
 25  1  1  0  0  0  0
 27  4  1  0  0  0  0
 27 25  1  0  0  0  0
 27 28  1  1  0  0  0
 29 28  1  0  0  0  0
 30 28  1  0  0  0  0
M  END
>  <CHROM.1>
-149.06999817,1.68976071,54.86503390,63.07994866,152.64864948,25.28165243
39.23327458,22.03868862,1.29060629,0.46946227,0.89960521

>  <Name>
lig.pdb

>  <RI>
0

>  <Rbt.Current_Directory>
/home/itssahil/PROJECTS/Mol_Feturizer/New_Systems/rnas/6bfb

>  <Rbt.Executable>
rbdock ($Id: //depot/dev/client3/rdock/2013.1/src/exe/rbdock.cxx#4 $)

>  <Rbt.Library>
libRbt.so (2013.1, Build901 2013/11/27)

>  <Rbt.Parameter_File>
/export/apps/rDock/src/rDock_2013.1_src/data/scripts/dock_solv.prm

>  <Rbt.Receptor>
prm/blind_docking_60.prm

>  <SCORE>
-33.4505

>  <SCORE.INTER>
-30.8782

>  <SCORE.INTER.CONST>
1

>  <SCORE.INTER.POLAR>
0

>  <SCORE.INTER.ROT>
3

>  <SCORE.INTER.SOLV>
13.761

>  <SCORE.INTER.VDW>
-30.7725

>  <SCORE.INTER.norm>
-1.02927

>  <SCORE.INTRA>
-2.57227

>  <SCORE.INTRA.DIHEDRAL>
-7.03445

>  <SCORE.INTRA.DIHEDRAL.0>
9.41909

>  <SCORE.INTRA.POLAR>
0

>  <SCORE.INTRA.POLAR.0>
0

>  <SCORE.INTRA.REPUL>
0

>  <SCORE.INTRA.REPUL.0>
0

>  <SCORE.INTRA.SOLV>
-0.0458052

>  <SCORE.INTRA.SOLV.lig_0>
-26.2491

>  <SCORE.INTRA.VDW>
0.967857

>  <SCORE.INTRA.VDW.0>
2.57239

>  <SCORE.INTRA.norm>
-0.0857424

>  <SCORE.RESTR>
0

>  <SCORE.RESTR.CAVITY>
0

>  <SCORE.RESTR.norm>
0

>  <SCORE.SYSTEM>
0

>  <SCORE.SYSTEM.CONST>
0

>  <SCORE.SYSTEM.DIHEDRAL>
0

>  <SCORE.SYSTEM.SOLV>
0

>  <SCORE.SYSTEM.norm>
0

>  <SCORE.heavy>
30

>  <SCORE.norm>
-1.11502

>  <RMSD>
7.593

$$$$
lig.pdb
 OpenBabel11021811523D
libRbt.so/2013.1/901 2013/11/27
 30 34  0  0  0  0  0  0  0  0999 V2000
   26.4769   40.3750   23.0242 N   0  0  0  0  0  0  0  0  0  0  0  0
   25.2738   37.3715   19.2774 N   0  0  0  0  0  0  0  0  0  0  0  0
   27.5553   41.0011   22.2531 C   0  0  0  0  0  0  0  0  0  0  0  0
   28.1308   41.9802   23.2653 C   0  0  2  0  0  0  0  0  0  0  0  0
   25.5359   39.4685   22.3760 C   0  0  0  0  0  0  0  0  0  0  0  0
   24.2719   39.1435   22.9095 C   0  0  0  0  0  0  0  0  0  0  0  0
   23.3959   38.2690   22.3165 C   0  0  0  0  0  0  0  0  0  0  0  0
   22.8113   36.6551   20.5034 C   0  0  0  0  0  0  0  0  0  0  0  0
   26.4725   37.1624   17.3690 C   0  0  0  0  0  0  0  0  0  0  0  0
   27.1090   38.9685   19.1166 C   0  0  0  0  0  0  0  0  0  0  0  0
   25.8775   38.8485   21.1411 C   0  0  0  0  0  0  0  0  0  0  0  0
   22.9414   34.0448   17.9853 O   0  0  0  0  0  0  0  0  0  0  0  0
   22.4300   34.9846   18.5979 C   0  0  0  0  0  0  0  0  0  0  0  0
   21.1156   35.1352   18.7066 O   0  0  0  0  0  0  0  0  0  0  0  0
   23.2765   36.0248   19.2406 C   0  0  1  0  0  0  0  0  0  0  0  0
   21.7077   36.4116   21.0034 O   0  0  0  0  0  0  0  0  0  0  0  0
   24.4894   36.4106   18.6438 C   0  0  0  0  0  0  0  0  0  0  0  0
   26.3791   37.8098   18.5345 C   0  0  0  0  0  0  0  0  0  0  0  0
   25.2056   36.0307   17.1334 S   0  0  0  0  0  0  0  0  0  0  0  0
   24.9669   37.9649   20.5185 C   0  0  0  0  0  0  0  0  0  0  0  0
   23.7369   37.6477   21.1152 C   0  0  0  0  0  0  0  0  0  0  0  0
   23.8767   39.7380   24.0532 F   0  0  0  0  0  0  0  0  0  0  0  0
   27.1414   39.0527   20.5657 N   0  0  0  0  0  0  0  0  0  0  0  0
   28.1466   38.2404   21.2173 C   0  0  0  0  0  0  0  0  0  0  0  0
   26.0780   41.2048   24.1554 C   0  0  0  0  0  0  0  0  0  0  0  0
   29.5227   41.7497   23.4874 O   0  0  0  0  0  0  0  0  0  0  0  0
   27.4492   41.6860   24.5991 C   0  0  2  0  0  0  0  0  0  0  0  0
   27.4832   42.9136   25.4167 N   0  0  0  0  0  0  0  0  0  0  0  0
   26.5770   42.9204   26.5796 C   0  0  0  0  0  0  0  0  0  0  0  0
   28.8470   43.3388   25.7671 C   0  0  0  0  0  0  0  0  0  0  0  0
  1  5  1  0  0  0  0
  2 17  1  0  0  0  0
  3  1  1  0  0  0  0
  4  3  1  0  0  0  0
  4 26  1  1  0  0  0
  5 11  2  0  0  0  0
  5  6  1  0  0  0  0
  6  7  2  0  0  0  0
  7 21  1  0  0  0  0
  8 15  1  0  0  0  0
  8 16  2  0  0  0  0
  9 19  1  0  0  0  0
 10 18  1  0  0  0  0
 11 20  1  0  0  0  0
 13 14  1  0  0  0  0
 13 12  2  0  0  0  0
 15 13  1  6  0  0  0
 17 19  2  0  0  0  0
 17 15  1  0  0  0  0
 18  2  1  0  0  0  0
 18  9  2  0  0  0  0
 20 21  2  0  0  0  0
 20  2  1  0  0  0  0
 21  8  1  0  0  0  0
 22  6  1  0  0  0  0
 23 11  1  0  0  0  0
 23 10  1  0  0  0  0
 24 23  1  0  0  0  0
 25  1  1  0  0  0  0
 27  4  1  0  0  0  0
 27 25  1  0  0  0  0
 27 28  1  1  0  0  0
 29 28  1  0  0  0  0
 30 28  1  0  0  0  0
M  END
>  <CHROM.1>
-160.40775763,-177.71522000,-146.58398506,65.31878280,164.86721293,25.47024047
38.67745487,21.25464195,1.09273371,0.42124356,0.98081463

>  <Name>
lig.pdb

>  <RI>
0

>  <Rbt.Current_Directory>
/home/itssahil/PROJECTS/Mol_Feturizer/New_Systems/rnas/6bfb

>  <Rbt.Executable>
rbdock ($Id: //depot/dev/client3/rdock/2013.1/src/exe/rbdock.cxx#4 $)

>  <Rbt.Library>
libRbt.so (2013.1, Build901 2013/11/27)

>  <Rbt.Parameter_File>
/export/apps/rDock/src/rDock_2013.1_src/data/scripts/dock_solv.prm

>  <Rbt.Receptor>
prm/blind_docking_60.prm

>  <SCORE>
-31.3548

>  <SCORE.INTER>
-31.6875

>  <SCORE.INTER.CONST>
1

>  <SCORE.INTER.POLAR>
-0.523221

>  <SCORE.INTER.ROT>
3

>  <SCORE.INTER.SOLV>
13.9388

>  <SCORE.INTER.VDW>
-29.6272

>  <SCORE.INTER.norm>
-1.05625

>  <SCORE.INTRA>
0.332691

>  <SCORE.INTRA.DIHEDRAL>
-7.42453

>  <SCORE.INTRA.DIHEDRAL.0>
9.41909

>  <SCORE.INTRA.POLAR>
0

>  <SCORE.INTRA.POLAR.0>
0

>  <SCORE.INTRA.REPUL>
0

>  <SCORE.INTRA.REPUL.0>
0

>  <SCORE.INTRA.SOLV>
0.0866366

>  <SCORE.INTRA.SOLV.lig_0>
-26.2491

>  <SCORE.INTRA.VDW>
4.00164

>  <SCORE.INTRA.VDW.0>
2.57239

>  <SCORE.INTRA.norm>
0.0110897

>  <SCORE.RESTR>
0

>  <SCORE.RESTR.CAVITY>
0

>  <SCORE.RESTR.norm>
0

>  <SCORE.SYSTEM>
0

>  <SCORE.SYSTEM.CONST>
0

>  <SCORE.SYSTEM.DIHEDRAL>
0

>  <SCORE.SYSTEM.SOLV>
0

>  <SCORE.SYSTEM.norm>
0

>  <SCORE.heavy>
30

>  <SCORE.norm>
-1.04516

>  <RMSD>
7.606

$$$$
lig.pdb
 OpenBabel11021811523D
libRbt.so/2013.1/901 2013/11/27
 30 34  0  0  0  0  0  0  0  0999 V2000
   25.9076   40.8922   23.3207 N   0  0  0  0  0  0  0  0  0  0  0  0
   25.2479   37.6703   19.6206 N   0  0  0  0  0  0  0  0  0  0  0  0
   26.6968   41.8451   22.5342 C   0  0  0  0  0  0  0  0  0  0  0  0
   27.1800   42.8074   23.6088 C   0  0  2  0  0  0  0  0  0  0  0  0
   25.1083   39.8692   22.6558 C   0  0  0  0  0  0  0  0  0  0  0  0
   23.8600   39.4211   23.1340 C   0  0  0  0  0  0  0  0  0  0  0  0
   23.1186   38.4387   22.5265 C   0  0  0  0  0  0  0  0  0  0  0  0
   22.8145   36.7199   20.7413 C   0  0  0  0  0  0  0  0  0  0  0  0
   26.5656   37.5420   17.7848 C   0  0  0  0  0  0  0  0  0  0  0  0
   26.9038   39.4557   19.5009 C   0  0  0  0  0  0  0  0  0  0  0  0
   25.5832   39.2565   21.4620 C   0  0  0  0  0  0  0  0  0  0  0  0
   23.3013   33.8877   18.7157 O   0  0  0  0  0  0  0  0  0  0  0  0
   22.7234   34.9649   18.8762 C   0  0  0  0  0  0  0  0  0  0  0  0
   21.4765   35.1734   18.4714 O   0  0  0  0  0  0  0  0  0  0  0  0
   23.4146   36.1100   19.5262 C   0  0  1  0  0  0  0  0  0  0  0  0
   21.7183   36.3697   21.1915 O   0  0  0  0  0  0  0  0  0  0  0  0
   24.6092   36.6110   18.9802 C   0  0  0  0  0  0  0  0  0  0  0  0
   26.3379   38.2074   18.9213 C   0  0  0  0  0  0  0  0  0  0  0  0
   25.4446   36.2708   17.5226 S   0  0  0  0  0  0  0  0  0  0  0  0
   24.8101   38.2605   20.8234 C   0  0  0  0  0  0  0  0  0  0  0  0
   23.5911   37.8257   21.3662 C   0  0  0  0  0  0  0  0  0  0  0  0
   23.3398   39.9999   24.2349 F   0  0  0  0  0  0  0  0  0  0  0  0
   26.8470   39.5835   20.9460 N   0  0  0  0  0  0  0  0  0  0  0  0
   27.8974   38.9060   21.6758 C   0  0  0  0  0  0  0  0  0  0  0  0
   25.5018   41.4628   24.6002 C   0  0  0  0  0  0  0  0  0  0  0  0
   28.6055   42.8932   23.6355 O   0  0  0  0  0  0  0  0  0  0  0  0
   26.7809   42.2032   24.9526 C   0  0  2  0  0  0  0  0  0  0  0  0
   26.6587   43.2980   25.9340 N   0  0  0  0  0  0  0  0  0  0  0  0
   25.7532   43.0300   27.0661 C   0  0  0  0  0  0  0  0  0  0  0  0
   27.9577   43.8327   26.3704 C   0  0  0  0  0  0  0  0  0  0  0  0
  1  5  1  0  0  0  0
  2 17  1  0  0  0  0
  3  1  1  0  0  0  0
  4  3  1  0  0  0  0
  4 26  1  1  0  0  0
  5 11  2  0  0  0  0
  5  6  1  0  0  0  0
  6  7  2  0  0  0  0
  7 21  1  0  0  0  0
  8 15  1  0  0  0  0
  8 16  2  0  0  0  0
  9 19  1  0  0  0  0
 10 18  1  0  0  0  0
 11 20  1  0  0  0  0
 13 14  1  0  0  0  0
 13 12  2  0  0  0  0
 15 13  1  6  0  0  0
 17 19  2  0  0  0  0
 17 15  1  0  0  0  0
 18  2  1  0  0  0  0
 18  9  2  0  0  0  0
 20 21  2  0  0  0  0
 20  2  1  0  0  0  0
 21  8  1  0  0  0  0
 22  6  1  0  0  0  0
 23 11  1  0  0  0  0
 23 10  1  0  0  0  0
 24 23  1  0  0  0  0
 25  1  1  0  0  0  0
 27  4  1  0  0  0  0
 27 25  1  0  0  0  0
 27 28  1  1  0  0  0
 29 28  1  0  0  0  0
 30 28  1  0  0  0  0
M  END
>  <CHROM.1>
-144.52190798,178.79365406,-122.70488340,-60.35560554,154.44892857,25.19983943
39.01513534,21.58392752,1.20113704,0.50221963,0.93231071

>  <Name>
lig.pdb

>  <RI>
0

>  <Rbt.Current_Directory>
/home/itssahil/PROJECTS/Mol_Feturizer/New_Systems/rnas/6bfb

>  <Rbt.Executable>
rbdock ($Id: //depot/dev/client3/rdock/2013.1/src/exe/rbdock.cxx#4 $)

>  <Rbt.Library>
libRbt.so (2013.1, Build901 2013/11/27)

>  <Rbt.Parameter_File>
/export/apps/rDock/src/rDock_2013.1_src/data/scripts/dock_solv.prm

>  <Rbt.Receptor>
prm/blind_docking_100.prm

>  <SCORE>
-33.1819

>  <SCORE.INTER>
-30.8043

>  <SCORE.INTER.CONST>
1

>  <SCORE.INTER.POLAR>
0

>  <SCORE.INTER.ROT>
3

>  <SCORE.INTER.SOLV>
14.2554

>  <SCORE.INTER.VDW>
-30.888

>  <SCORE.INTER.norm>
-1.02681

>  <SCORE.INTRA>
-2.38555

>  <SCORE.INTRA.DIHEDRAL>
-7.1613

>  <SCORE.INTRA.DIHEDRAL.0>
9.41909

>  <SCORE.INTRA.POLAR>
0

>  <SCORE.INTRA.POLAR.0>
0

>  <SCORE.INTRA.REPUL>
0

>  <SCORE.INTRA.REPUL.0>
0

>  <SCORE.INTRA.SOLV>
-0.0371269

>  <SCORE.INTRA.SOLV.lig_0>
-26.2491

>  <SCORE.INTRA.VDW>
1.21367

>  <SCORE.INTRA.VDW.0>
2.57239

>  <SCORE.INTRA.norm>
-0.0795182

>  <SCORE.RESTR>
0.00788122

>  <SCORE.RESTR.CAVITY>
0.00788122

>  <SCORE.RESTR.norm>
0.000262707

>  <SCORE.SYSTEM>
0

>  <SCORE.SYSTEM.CONST>
0

>  <SCORE.SYSTEM.DIHEDRAL>
0

>  <SCORE.SYSTEM.SOLV>
0

>  <SCORE.SYSTEM.norm>
0

>  <SCORE.heavy>
30

>  <SCORE.norm>
-1.10606

>  <RMSD>
7.607

$$$$
lig.pdb
 OpenBabel11021811523D
libRbt.so/2013.1/901 2013/11/27
 30 34  0  0  0  0  0  0  0  0999 V2000
   25.5133   40.9042   24.1138 N   0  0  0  0  0  0  0  0  0  0  0  0
   25.4449   38.1179   20.0226 N   0  0  0  0  0  0  0  0  0  0  0  0
   26.0642   42.1356   23.5396 C   0  0  0  0  0  0  0  0  0  0  0  0
   26.4485   42.9141   24.7888 C   0  0  2  0  0  0  0  0  0  0  0  0
   24.8590   39.9195   23.2596 C   0  0  0  0  0  0  0  0  0  0  0  0
   23.6099   39.3366   23.5558 C   0  0  0  0  0  0  0  0  0  0  0  0
   23.0048   38.3888   22.7687 C   0  0  0  0  0  0  0  0  0  0  0  0
   22.9984   36.8826   20.7775 C   0  0  0  0  0  0  0  0  0  0  0  0
   26.9318   38.2987   18.3258 C   0  0  0  0  0  0  0  0  0  0  0  0
   26.9635   40.0085   20.2743 C   0  0  0  0  0  0  0  0  0  0  0  0
   25.4871   39.4880   22.0573 C   0  0  0  0  0  0  0  0  0  0  0  0
   23.3879   34.1849   19.0397 O   0  0  0  0  0  0  0  0  0  0  0  0
   23.2137   35.3640   18.7246 C   0  0  0  0  0  0  0  0  0  0  0  0
   22.5612   35.7203   17.6248 O   0  0  0  0  0  0  0  0  0  0  0  0
   23.7526   36.4646   19.5671 C   0  0  1  0  0  0  0  0  0  0  0  0
   21.8954   36.4099   21.0724 O   0  0  0  0  0  0  0  0  0  0  0  0
   24.9506   37.1046   19.2046 C   0  0  0  0  0  0  0  0  0  0  0  0
   26.5504   38.8054   19.5022 C   0  0  0  0  0  0  0  0  0  0  0  0
   25.9401   36.9984   17.8089 S   0  0  0  0  0  0  0  0  0  0  0  0
   24.8545   38.5284   21.2348 C   0  0  0  0  0  0  0  0  0  0  0  0
   23.6275   37.9528   21.5993 C   0  0  0  0  0  0  0  0  0  0  0  0
   22.9479   39.7428   24.6578 F   0  0  0  0  0  0  0  0  0  0  0  0
   26.7643   39.9564   21.7116 N   0  0  0  0  0  0  0  0  0  0  0  0
   27.7918   39.2654   22.4609 C   0  0  0  0  0  0  0  0  0  0  0  0
   25.1080   41.0968   25.5017 C   0  0  0  0  0  0  0  0  0  0  0  0
   27.8351   43.2568   24.7893 O   0  0  0  0  0  0  0  0  0  0  0  0
   26.2601   41.9685   25.9723 C   0  0  2  0  0  0  0  0  0  0  0  0
   26.0199   42.7812   27.1800 N   0  0  0  0  0  0  0  0  0  0  0  0
   27.1402   43.6483   27.5880 C   0  0  0  0  0  0  0  0  0  0  0  0
   24.7374   43.5009   27.1486 C   0  0  0  0  0  0  0  0  0  0  0  0
  1  5  1  0  0  0  0
  2 17  1  0  0  0  0
  3  1  1  0  0  0  0
  4  3  1  0  0  0  0
  4 26  1  6  0  0  0
  5 11  2  0  0  0  0
  5  6  1  0  0  0  0
  6  7  2  0  0  0  0
  7 21  1  0  0  0  0
  8 15  1  0  0  0  0
  8 16  2  0  0  0  0
  9 19  1  0  0  0  0
 10 18  1  0  0  0  0
 11 20  1  0  0  0  0
 13 14  1  0  0  0  0
 13 12  2  0  0  0  0
 15 13  1  6  0  0  0
 17 19  2  0  0  0  0
 17 15  1  0  0  0  0
 18  2  1  0  0  0  0
 18  9  2  0  0  0  0
 20 21  2  0  0  0  0
 20  2  1  0  0  0  0
 21  8  1  0  0  0  0
 22  6  1  0  0  0  0
 23 11  1  0  0  0  0
 23 10  1  0  0  0  0
 24 23  1  0  0  0  0
 25  1  1  0  0  0  0
 27  4  1  0  0  0  0
 27 25  1  0  0  0  0
 27 28  1  1  0  0  0
 29 28  1  0  0  0  0
 30 28  1  0  0  0  0
M  END
>  <CHROM.1>
-132.17225988,0.83074690,-81.11606189,62.76298137,-63.92368893,25.11256692
39.24372901,22.07464674,1.33386145,0.52439912,0.96906541

>  <Name>
lig.pdb

>  <RI>
0

>  <Rbt.Current_Directory>
/home/itssahil/PROJECTS/Mol_Feturizer/New_Systems/rnas/6bfb

>  <Rbt.Executable>
rbdock ($Id: //depot/dev/client3/rdock/2013.1/src/exe/rbdock.cxx#4 $)

>  <Rbt.Library>
libRbt.so (2013.1, Build901 2013/11/27)

>  <Rbt.Parameter_File>
/export/apps/rDock/src/rDock_2013.1_src/data/scripts/dock_solv.prm

>  <Rbt.Receptor>
prm/blind_docking_80.prm

>  <SCORE>
-34.9119

>  <SCORE.INTER>
-31.7127

>  <SCORE.INTER.CONST>
1

>  <SCORE.INTER.POLAR>
0

>  <SCORE.INTER.ROT>
3

>  <SCORE.INTER.SOLV>
15.41

>  <SCORE.INTER.VDW>
-31.8785

>  <SCORE.INTER.norm>
-1.05709

>  <SCORE.INTRA>
-3.19918

>  <SCORE.INTRA.DIHEDRAL>
-7.70443

>  <SCORE.INTRA.DIHEDRAL.0>
9.41909

>  <SCORE.INTRA.POLAR>
0

>  <SCORE.INTRA.POLAR.0>
0

>  <SCORE.INTRA.REPUL>
0

>  <SCORE.INTRA.REPUL.0>
0

>  <SCORE.INTRA.SOLV>
0.0277785

>  <SCORE.INTRA.SOLV.lig_0>
-26.2491

>  <SCORE.INTRA.VDW>
0.639149

>  <SCORE.INTRA.VDW.0>
2.57239

>  <SCORE.INTRA.norm>
-0.106639

>  <SCORE.RESTR>
0

>  <SCORE.RESTR.CAVITY>
0

>  <SCORE.RESTR.norm>
0

>  <SCORE.SYSTEM>
0

>  <SCORE.SYSTEM.CONST>
0

>  <SCORE.SYSTEM.DIHEDRAL>
0

>  <SCORE.SYSTEM.SOLV>
0

>  <SCORE.SYSTEM.norm>
0

>  <SCORE.heavy>
30

>  <SCORE.norm>
-1.16373

>  <RMSD>
7.632

$$$$
lig.pdb
 OpenBabel11021811523D
libRbt.so/2013.1/901 2013/11/27
 30 34  0  0  0  0  0  0  0  0999 V2000
   25.4611   40.9906   24.2018 N   0  0  0  0  0  0  0  0  0  0  0  0
   25.4191   38.2417   20.0848 N   0  0  0  0  0  0  0  0  0  0  0  0
   25.9608   42.2473   23.6357 C   0  0  0  0  0  0  0  0  0  0  0  0
   26.3433   43.0202   24.8890 C   0  0  2  0  0  0  0  0  0  0  0  0
   24.8231   39.9971   23.3454 C   0  0  0  0  0  0  0  0  0  0  0  0
   23.5929   39.3791   23.6496 C   0  0  0  0  0  0  0  0  0  0  0  0
   23.0039   38.4232   22.8602 C   0  0  0  0  0  0  0  0  0  0  0  0
   23.0143   36.9361   20.8547 C   0  0  0  0  0  0  0  0  0  0  0  0
   26.8816   38.4772   18.3736 C   0  0  0  0  0  0  0  0  0  0  0  0
   26.8908   40.1689   20.3381 C   0  0  0  0  0  0  0  0  0  0  0  0
   25.4486   39.5934   22.1321 C   0  0  0  0  0  0  0  0  0  0  0  0
   22.2676   35.6137   18.0543 O   0  0  0  0  0  0  0  0  0  0  0  0
   23.2458   35.4429   18.7850 C   0  0  0  0  0  0  0  0  0  0  0  0
   23.8756   34.2778   18.8741 O   0  0  0  0  0  0  0  0  0  0  0  0
   23.7654   36.5492   19.6321 C   0  0  1  0  0  0  0  0  0  0  0  0
   21.9273   36.4320   21.1572 O   0  0  0  0  0  0  0  0  0  0  0  0
   24.9421   37.2236   19.2626 C   0  0  0  0  0  0  0  0  0  0  0  0
   26.5004   38.9627   19.5590 C   0  0  0  0  0  0  0  0  0  0  0  0
   25.9184   37.1563   17.8552 S   0  0  0  0  0  0  0  0  0  0  0  0
   24.8319   38.6254   21.3074 C   0  0  0  0  0  0  0  0  0  0  0  0
   23.6245   38.0146   21.6798 C   0  0  0  0  0  0  0  0  0  0  0  0
   22.9331   39.7575   24.7627 F   0  0  0  0  0  0  0  0  0  0  0  0
   26.7093   40.0982   21.7769 N   0  0  0  0  0  0  0  0  0  0  0  0
   27.7628   39.4273   22.5082 C   0  0  0  0  0  0  0  0  0  0  0  0
   25.0761   41.1502   25.5995 C   0  0  0  0  0  0  0  0  0  0  0  0
   27.7177   43.4080   24.8689 O   0  0  0  0  0  0  0  0  0  0  0  0
   26.2080   42.0524   26.0616 C   0  0  2  0  0  0  0  0  0  0  0  0
   25.9645   42.8395   27.2854 N   0  0  0  0  0  0  0  0  0  0  0  0
   27.0833   43.6986   27.7140 C   0  0  0  0  0  0  0  0  0  0  0  0
   24.6817   43.5591   27.2659 C   0  0  0  0  0  0  0  0  0  0  0  0
  1  5  1  0  0  0  0
  2 17  1  0  0  0  0
  3  1  1  0  0  0  0
  4  3  1  0  0  0  0
  4 26  1  6  0  0  0
  5 11  2  0  0  0  0
  5  6  1  0  0  0  0
  6  7  2  0  0  0  0
  7 21  1  0  0  0  0
  8 15  1  0  0  0  0
  8 16  2  0  0  0  0
  9 19  1  0  0  0  0
 10 18  1  0  0  0  0
 11 20  1  0  0  0  0
 13 14  1  0  0  0  0
 13 12  2  0  0  0  0
 15 13  1  6  0  0  0
 17 19  2  0  0  0  0
 17 15  1  0  0  0  0
 18  2  1  0  0  0  0
 18  9  2  0  0  0  0
 20 21  2  0  0  0  0
 20  2  1  0  0  0  0
 21  8  1  0  0  0  0
 22  6  1  0  0  0  0
 23 11  1  0  0  0  0
 23 10  1  0  0  0  0
 24 23  1  0  0  0  0
 25  1  1  0  0  0  0
 27  4  1  0  0  0  0
 27 25  1  0  0  0  0
 27 28  1  1  0  0  0
 29 28  1  0  0  0  0
 30 28  1  0  0  0  0
M  END
>  <CHROM.1>
-131.53417512,1.17524593,74.70791167,-59.09691199,-66.15112671,25.09070141
39.32561409,22.16191603,1.34403179,0.54292408,0.96772359

>  <Name>
lig.pdb

>  <RI>
0

>  <Rbt.Current_Directory>
/home/itssahil/PROJECTS/Mol_Feturizer/New_Systems/rnas/6bfb

>  <Rbt.Executable>
rbdock ($Id: //depot/dev/client3/rdock/2013.1/src/exe/rbdock.cxx#4 $)

>  <Rbt.Library>
libRbt.so (2013.1, Build901 2013/11/27)

>  <Rbt.Parameter_File>
/export/apps/rDock/src/rDock_2013.1_src/data/scripts/dock_solv.prm

>  <Rbt.Receptor>
prm/pocket_docking_3.prm

>  <SCORE>
-33.6706

>  <SCORE.INTER>
-30.5754

>  <SCORE.INTER.CONST>
1

>  <SCORE.INTER.POLAR>
0

>  <SCORE.INTER.ROT>
3

>  <SCORE.INTER.SOLV>
15.1928

>  <SCORE.INTER.VDW>
-31.0479

>  <SCORE.INTER.norm>
-1.01918

>  <SCORE.INTRA>
-3.0952

>  <SCORE.INTRA.DIHEDRAL>
-7.72006

>  <SCORE.INTRA.DIHEDRAL.0>
9.41909

>  <SCORE.INTRA.POLAR>
0

>  <SCORE.INTRA.POLAR.0>
0

>  <SCORE.INTRA.REPUL>
0.000505085

>  <SCORE.INTRA.REPUL.0>
0

>  <SCORE.INTRA.SOLV>
0.0489983

>  <SCORE.INTRA.SOLV.lig_0>
-26.2491

>  <SCORE.INTRA.VDW>
0.73781

>  <SCORE.INTRA.VDW.0>
2.57239

>  <SCORE.INTRA.norm>
-0.103173

>  <SCORE.RESTR>
0

>  <SCORE.RESTR.CAVITY>
0

>  <SCORE.RESTR.norm>
0

>  <SCORE.SYSTEM>
0

>  <SCORE.SYSTEM.CONST>
0

>  <SCORE.SYSTEM.DIHEDRAL>
0

>  <SCORE.SYSTEM.SOLV>
0

>  <SCORE.SYSTEM.norm>
0

>  <SCORE.heavy>
30

>  <SCORE.norm>
-1.12235

>  <RMSD>
7.641

$$$$
lig.pdb
 OpenBabel11021811523D
libRbt.so/2013.1/901 2013/11/27
 30 34  0  0  0  0  0  0  0  0999 V2000
   25.9227   40.7206   23.0957 N   0  0  0  0  0  0  0  0  0  0  0  0
   25.1900   37.6333   19.2958 N   0  0  0  0  0  0  0  0  0  0  0  0
   26.7274   41.6748   22.3267 C   0  0  0  0  0  0  0  0  0  0  0  0
   27.2195   42.6139   23.4177 C   0  0  2  0  0  0  0  0  0  0  0  0
   25.1122   39.7188   22.4122 C   0  0  0  0  0  0  0  0  0  0  0  0
   23.8771   39.2475   22.9023 C   0  0  0  0  0  0  0  0  0  0  0  0
   23.1257   38.2845   22.2763 C   0  0  0  0  0  0  0  0  0  0  0  0
   22.7871   36.6308   20.4366 C   0  0  0  0  0  0  0  0  0  0  0  0
   26.4652   37.5787   17.4267 C   0  0  0  0  0  0  0  0  0  0  0  0
   26.8357   39.4298   19.2036 C   0  0  0  0  0  0  0  0  0  0  0  0
   25.5616   39.1526   21.1860 C   0  0  0  0  0  0  0  0  0  0  0  0
   22.8062   34.7442   17.3033 O   0  0  0  0  0  0  0  0  0  0  0  0
   22.6597   34.9448   18.5109 C   0  0  0  0  0  0  0  0  0  0  0  0
   21.8678   34.1955   19.2682 O   0  0  0  0  0  0  0  0  0  0  0  0
   23.3612   36.0687   19.1864 C   0  0  1  0  0  0  0  0  0  0  0  0
   21.7030   36.2590   20.8988 O   0  0  0  0  0  0  0  0  0  0  0  0
   24.5408   36.5951   18.6318 C   0  0  0  0  0  0  0  0  0  0  0  0
   26.2614   38.2009   18.5918 C   0  0  0  0  0  0  0  0  0  0  0  0
   25.3436   36.3126   17.1438 S   0  0  0  0  0  0  0  0  0  0  0  0
   24.7779   38.1769   20.5292 C   0  0  0  0  0  0  0  0  0  0  0  0
   23.5736   37.7167   21.0836 C   0  0  0  0  0  0  0  0  0  0  0  0
   23.3803   39.7831   24.0354 F   0  0  0  0  0  0  0  0  0  0  0  0
   26.8118   39.5043   20.6534 N   0  0  0  0  0  0  0  0  0  0  0  0
   27.8816   38.8057   21.3334 C   0  0  0  0  0  0  0  0  0  0  0  0
   25.5198   41.2768   24.3824 C   0  0  0  0  0  0  0  0  0  0  0  0
   28.6459   42.6801   23.4508 O   0  0  0  0  0  0  0  0  0  0  0  0
   26.8074   41.9944   24.7506 C   0  0  2  0  0  0  0  0  0  0  0  0
   26.6962   43.0755   25.7484 N   0  0  0  0  0  0  0  0  0  0  0  0
   25.8382   42.7749   26.9089 C   0  0  0  0  0  0  0  0  0  0  0  0
   27.9978   43.6348   26.1443 C   0  0  0  0  0  0  0  0  0  0  0  0
  1  5  1  0  0  0  0
  2 17  1  0  0  0  0
  3  1  1  0  0  0  0
  4  3  1  0  0  0  0
  4 26  1  1  0  0  0
  5 11  2  0  0  0  0
  5  6  1  0  0  0  0
  6  7  2  0  0  0  0
  7 21  1  0  0  0  0
  8 15  1  0  0  0  0
  8 16  2  0  0  0  0
  9 19  1  0  0  0  0
 10 18  1  0  0  0  0
 11 20  1  0  0  0  0
 13 14  1  0  0  0  0
 13 12  2  0  0  0  0
 15 13  1  6  0  0  0
 17 19  2  0  0  0  0
 17 15  1  0  0  0  0
 18  2  1  0  0  0  0
 18  9  2  0  0  0  0
 20 21  2  0  0  0  0
 20  2  1  0  0  0  0
 21  8  1  0  0  0  0
 22  6  1  0  0  0  0
 23 11  1  0  0  0  0
 23 10  1  0  0  0  0
 24 23  1  0  0  0  0
 25  1  1  0  0  0  0
 27  4  1  0  0  0  0
 27 25  1  0  0  0  0
 27 28  1  1  0  0  0
 29 28  1  0  0  0  0
 30 28  1  0  0  0  0
M  END
>  <CHROM.1>
-146.72915400,171.25306285,155.41180455,64.06243490,157.51406918,25.18459566
38.90521759,21.31129698,1.17760568,0.55055438,0.98466345

>  <Name>
lig.pdb

>  <RI>
0

>  <Rbt.Current_Directory>
/home/itssahil/PROJECTS/Mol_Feturizer/New_Systems/rnas/6bfb

>  <Rbt.Executable>
rbdock ($Id: //depot/dev/client3/rdock/2013.1/src/exe/rbdock.cxx#4 $)

>  <Rbt.Library>
libRbt.so (2013.1, Build901 2013/11/27)

>  <Rbt.Parameter_File>
/export/apps/rDock/src/rDock_2013.1_src/data/scripts/dock_solv.prm

>  <Rbt.Receptor>
prm/blind_docking_100.prm

>  <SCORE>
-36.2423

>  <SCORE.INTER>
-34.979

>  <SCORE.INTER.CONST>
1

>  <SCORE.INTER.POLAR>
-0.92432

>  <SCORE.INTER.ROT>
3

>  <SCORE.INTER.SOLV>
14.0211

>  <SCORE.INTER.VDW>
-30.512

>  <SCORE.INTER.norm>
-1.16597

>  <SCORE.INTRA>
-1.26337

>  <SCORE.INTRA.DIHEDRAL>
-6.67078

>  <SCORE.INTRA.DIHEDRAL.0>
9.41909

>  <SCORE.INTRA.POLAR>
0

>  <SCORE.INTRA.POLAR.0>
0

>  <SCORE.INTRA.REPUL>
0

>  <SCORE.INTRA.REPUL.0>
0

>  <SCORE.INTRA.SOLV>
0.0451288

>  <SCORE.INTRA.SOLV.lig_0>
-26.2491

>  <SCORE.INTRA.VDW>
2.04945

>  <SCORE.INTRA.VDW.0>
2.57239

>  <SCORE.INTRA.norm>
-0.0421124

>  <SCORE.RESTR>
0

>  <SCORE.RESTR.CAVITY>
0

>  <SCORE.RESTR.norm>
0

>  <SCORE.SYSTEM>
0

>  <SCORE.SYSTEM.CONST>
0

>  <SCORE.SYSTEM.DIHEDRAL>
0

>  <SCORE.SYSTEM.SOLV>
0

>  <SCORE.SYSTEM.norm>
0

>  <SCORE.heavy>
30

>  <SCORE.norm>
-1.20808

>  <RMSD>
7.662

$$$$
lig.pdb
 OpenBabel11021811523D
libRbt.so/2013.1/901 2013/11/27
 30 34  0  0  0  0  0  0  0  0999 V2000
   25.4530   40.7244   23.8387 N   0  0  0  0  0  0  0  0  0  0  0  0
   25.3566   37.9372   19.7486 N   0  0  0  0  0  0  0  0  0  0  0  0
   25.9926   41.9619   23.2670 C   0  0  0  0  0  0  0  0  0  0  0  0
   26.3921   42.7314   24.5170 C   0  0  2  0  0  0  0  0  0  0  0  0
   24.7896   39.7448   22.9857 C   0  0  0  0  0  0  0  0  0  0  0  0
   23.5361   39.1723   23.2837 C   0  0  0  0  0  0  0  0  0  0  0  0
   22.9223   38.2292   22.4977 C   0  0  0  0  0  0  0  0  0  0  0  0
   22.9010   36.7224   20.5070 C   0  0  0  0  0  0  0  0  0  0  0  0
   26.8428   38.1052   18.0499 C   0  0  0  0  0  0  0  0  0  0  0  0
   26.8910   39.8154   19.9978 C   0  0  0  0  0  0  0  0  0  0  0  0
   25.4126   39.3077   21.7828 C   0  0  0  0  0  0  0  0  0  0  0  0
   23.3565   35.1423   17.2497 O   0  0  0  0  0  0  0  0  0  0  0  0
   23.1012   35.2014   18.4544 C   0  0  0  0  0  0  0  0  0  0  0  0
   22.3207   34.3168   19.0630 O   0  0  0  0  0  0  0  0  0  0  0  0
   23.6503   36.2978   19.2959 C   0  0  1  0  0  0  0  0  0  0  0  0
   21.7946   36.2589   20.8035 O   0  0  0  0  0  0  0  0  0  0  0  0
   24.8530   36.9278   18.9316 C   0  0  0  0  0  0  0  0  0  0  0  0
   26.4671   38.6155   19.2266 C   0  0  0  0  0  0  0  0  0  0  0  0
   25.8399   36.8129   17.5347 S   0  0  0  0  0  0  0  0  0  0  0  0
   24.7711   38.3531   20.9614 C   0  0  0  0  0  0  0  0  0  0  0  0
   23.5399   37.7877   21.3277 C   0  0  0  0  0  0  0  0  0  0  0  0
   22.8789   39.5843   24.3863 F   0  0  0  0  0  0  0  0  0  0  0  0
   26.6932   39.7655   21.4353 N   0  0  0  0  0  0  0  0  0  0  0  0
   27.7160   39.0664   22.1836 C   0  0  0  0  0  0  0  0  0  0  0  0
   25.0665   40.9047   25.2335 C   0  0  0  0  0  0  0  0  0  0  0  0
   27.7776   43.0779   24.5010 O   0  0  0  0  0  0  0  0  0  0  0  0
   26.2226   41.7758   25.6953 C   0  0  2  0  0  0  0  0  0  0  0  0
   25.9970   42.5780   26.9127 N   0  0  0  0  0  0  0  0  0  0  0  0
   27.1343   43.4164   27.3336 C   0  0  0  0  0  0  0  0  0  0  0  0
   24.7299   43.3247   26.8881 C   0  0  0  0  0  0  0  0  0  0  0  0
  1  5  1  0  0  0  0
  2 17  1  0  0  0  0
  3  1  1  0  0  0  0
  4  3  1  0  0  0  0
  4 26  1  6  0  0  0
  5 11  2  0  0  0  0
  5  6  1  0  0  0  0
  6  7  2  0  0  0  0
  7 21  1  0  0  0  0
  8 15  1  0  0  0  0
  8 16  2  0  0  0  0
  9 19  1  0  0  0  0
 10 18  1  0  0  0  0
 11 20  1  0  0  0  0
 13 14  1  0  0  0  0
 13 12  2  0  0  0  0
 15 13  1  6  0  0  0
 17 19  2  0  0  0  0
 17 15  1  0  0  0  0
 18  2  1  0  0  0  0
 18  9  2  0  0  0  0
 20 21  2  0  0  0  0
 20  2  1  0  0  0  0
 21  8  1  0  0  0  0
 22  6  1  0  0  0  0
 23 11  1  0  0  0  0
 23 10  1  0  0  0  0
 24 23  1  0  0  0  0
 25  1  1  0  0  0  0
 27  4  1  0  0  0  0
 27 25  1  0  0  0  0
 27 28  1  1  0  0  0
 29 28  1  0  0  0  0
 30 28  1  0  0  0  0
M  END
>  <CHROM.1>
-131.10164132,177.82970341,152.45527403,62.44050760,-65.56903675,25.03654887
39.05965464,21.81673092,1.32466843,0.53317321,0.97318274

>  <Name>
lig.pdb

>  <RI>
0

>  <Rbt.Current_Directory>
/home/itssahil/PROJECTS/Mol_Feturizer/New_Systems/rnas/6bfb

>  <Rbt.Executable>
rbdock ($Id: //depot/dev/client3/rdock/2013.1/src/exe/rbdock.cxx#4 $)

>  <Rbt.Library>
libRbt.so (2013.1, Build901 2013/11/27)

>  <Rbt.Parameter_File>
/export/apps/rDock/src/rDock_2013.1_src/data/scripts/dock_solv.prm

>  <Rbt.Receptor>
prm/pocket_docking_8.prm

>  <SCORE>
-37.5114

>  <SCORE.INTER>
-35.5656

>  <SCORE.INTER.CONST>
1

>  <SCORE.INTER.POLAR>
-0.938083

>  <SCORE.INTER.ROT>
3

>  <SCORE.INTER.SOLV>
14.9959

>  <SCORE.INTER.VDW>
-31.1821

>  <SCORE.INTER.norm>
-1.18552

>  <SCORE.INTRA>
-1.94587

>  <SCORE.INTRA.DIHEDRAL>
-7.67223

>  <SCORE.INTRA.DIHEDRAL.0>
9.41909

>  <SCORE.INTRA.POLAR>
0

>  <SCORE.INTRA.POLAR.0>
0

>  <SCORE.INTRA.REPUL>
0.00165501

>  <SCORE.INTRA.REPUL.0>
0

>  <SCORE.INTRA.SOLV>
0.127577

>  <SCORE.INTRA.SOLV.lig_0>
-26.2491

>  <SCORE.INTRA.VDW>
1.81817

>  <SCORE.INTRA.VDW.0>
2.57239

>  <SCORE.INTRA.norm>
-0.0648625

>  <SCORE.RESTR>
0

>  <SCORE.RESTR.CAVITY>
0

>  <SCORE.RESTR.norm>
0

>  <SCORE.SYSTEM>
0

>  <SCORE.SYSTEM.CONST>
0

>  <SCORE.SYSTEM.DIHEDRAL>
0

>  <SCORE.SYSTEM.SOLV>
0

>  <SCORE.SYSTEM.norm>
0

>  <SCORE.heavy>
30

>  <SCORE.norm>
-1.25038

>  <RMSD>
7.671

$$$$
lig.pdb
 OpenBabel11021811523D
libRbt.so/2013.1/901 2013/11/27
 30 34  0  0  0  0  0  0  0  0999 V2000
   25.9974   39.8568   22.9364 N   0  0  0  0  0  0  0  0  0  0  0  0
   25.0201   37.1245   18.9256 N   0  0  0  0  0  0  0  0  0  0  0  0
   27.2482   39.3208   23.4819 C   0  0  0  0  0  0  0  0  0  0  0  0
   27.9231   40.5806   24.0032 C   0  0  2  0  0  0  0  0  0  0  0  0
   25.0975   38.9996   22.1730 C   0  0  0  0  0  0  0  0  0  0  0  0
   23.8054   38.6406   22.6083 C   0  0  0  0  0  0  0  0  0  0  0  0
   22.9671   37.8114   21.9059 C   0  0  0  0  0  0  0  0  0  0  0  0
   22.4920   36.3291   19.9537 C   0  0  0  0  0  0  0  0  0  0  0  0
   26.3280   37.0467   17.0801 C   0  0  0  0  0  0  0  0  0  0  0  0
   26.8582   38.7251   18.9835 C   0  0  0  0  0  0  0  0  0  0  0  0
   25.5116   38.4666   20.9198 C   0  0  0  0  0  0  0  0  0  0  0  0
   22.7678   34.0003   17.1478 O   0  0  0  0  0  0  0  0  0  0  0  0
   22.2255   34.7964   17.9173 C   0  0  0  0  0  0  0  0  0  0  0  0
   20.9110   34.8310   18.0991 O   0  0  0  0  0  0  0  0  0  0  0  0
   23.0311   35.7875   18.6791 C   0  0  1  0  0  0  0  0  0  0  0  0
   21.3619   36.0535   20.3705 O   0  0  0  0  0  0  0  0  0  0  0  0
   24.2758   36.2116   18.1821 C   0  0  0  0  0  0  0  0  0  0  0  0
   26.1657   37.6113   18.2805 C   0  0  0  0  0  0  0  0  0  0  0  0
   25.0792   35.9367   16.6930 S   0  0  0  0  0  0  0  0  0  0  0  0
   24.6404   37.6304   20.1852 C   0  0  0  0  0  0  0  0  0  0  0  0
   23.3786   37.2748   20.6860 C   0  0  0  0  0  0  0  0  0  0  0  0
   23.3432   39.1546   23.7657 F   0  0  0  0  0  0  0  0  0  0  0  0
   26.8063   38.7080   20.4344 N   0  0  0  0  0  0  0  0  0  0  0  0
   27.7737   37.8502   21.0849 C   0  0  0  0  0  0  0  0  0  0  0  0
   26.1036   41.2853   22.6613 C   0  0  0  0  0  0  0  0  0  0  0  0
   28.2202   40.4801   25.3966 O   0  0  0  0  0  0  0  0  0  0  0  0
   26.9021   41.7090   23.8826 C   0  0  2  0  0  0  0  0  0  0  0  0
   27.6339   42.9860   23.7799 N   0  0  0  0  0  0  0  0  0  0  0  0
   28.2262   43.4747   25.0383 C   0  0  0  0  0  0  0  0  0  0  0  0
   28.5893   43.0180   22.6618 C   0  0  0  0  0  0  0  0  0  0  0  0
  1  5  1  0  0  0  0
  2 17  1  0  0  0  0
  3  1  1  0  0  0  0
  4  3  1  0  0  0  0
  4 26  1  1  0  0  0
  5 11  2  0  0  0  0
  5  6  1  0  0  0  0
  6  7  2  0  0  0  0
  7 21  1  0  0  0  0
  8 15  1  0  0  0  0
  8 16  2  0  0  0  0
  9 19  1  0  0  0  0
 10 18  1  0  0  0  0
 11 20  1  0  0  0  0
 13 14  1  0  0  0  0
 13 12  2  0  0  0  0
 15 13  1  6  0  0  0
 17 19  2  0  0  0  0
 17 15  1  0  0  0  0
 18  2  1  0  0  0  0
 18  9  2  0  0  0  0
 20 21  2  0  0  0  0
 20  2  1  0  0  0  0
 21  8  1  0  0  0  0
 22  6  1  0  0  0  0
 23 11  1  0  0  0  0
 23 10  1  0  0  0  0
 24 23  1  0  0  0  0
 25  1  1  0  0  0  0
 27  4  1  0  0  0  0
 27 25  1  0  0  0  0
 27 28  1  6  0  0  0
 29 28  1  0  0  0  0
 30 28  1  0  0  0  0
M  END
>  <CHROM.1>
114.13783994,-6.57868636,-155.18685292,63.07504409,-74.81639439,25.21978969
38.31610108,20.82350136,1.04035732,0.45780057,1.03088888

>  <Name>
lig.pdb

>  <RI>
0

>  <Rbt.Current_Directory>
/home/itssahil/PROJECTS/Mol_Feturizer/New_Systems/rnas/6bfb

>  <Rbt.Executable>
rbdock ($Id: //depot/dev/client3/rdock/2013.1/src/exe/rbdock.cxx#4 $)

>  <Rbt.Library>
libRbt.so (2013.1, Build901 2013/11/27)

>  <Rbt.Parameter_File>
/export/apps/rDock/src/rDock_2013.1_src/data/scripts/dock_solv.prm

>  <Rbt.Receptor>
prm/pocket_docking_5.prm

>  <SCORE>
-39.5327

>  <SCORE.INTER>
-38.0855

>  <SCORE.INTER.CONST>
1

>  <SCORE.INTER.POLAR>
-1.88716

>  <SCORE.INTER.ROT>
3

>  <SCORE.INTER.SOLV>
16.3491

>  <SCORE.INTER.VDW>
-30.1495

>  <SCORE.INTER.norm>
-1.26952

>  <SCORE.INTRA>
-1.4782

>  <SCORE.INTRA.DIHEDRAL>
-7.21055

>  <SCORE.INTRA.DIHEDRAL.0>
9.41909

>  <SCORE.INTRA.POLAR>
0

>  <SCORE.INTRA.POLAR.0>
0

>  <SCORE.INTRA.REPUL>
0

>  <SCORE.INTRA.REPUL.0>
0

>  <SCORE.INTRA.SOLV>
0.201708

>  <SCORE.INTRA.SOLV.lig_0>
-26.2491

>  <SCORE.INTRA.VDW>
2.02622

>  <SCORE.INTRA.VDW.0>
2.57239

>  <SCORE.INTRA.norm>
-0.0492734

>  <SCORE.RESTR>
0.0310257

>  <SCORE.RESTR.CAVITY>
0.0310257

>  <SCORE.RESTR.norm>
0.00103419

>  <SCORE.SYSTEM>
0

>  <SCORE.SYSTEM.CONST>
0

>  <SCORE.SYSTEM.DIHEDRAL>
0

>  <SCORE.SYSTEM.SOLV>
0

>  <SCORE.SYSTEM.norm>
0

>  <SCORE.heavy>
30

>  <SCORE.norm>
-1.31776

>  <RMSD>
7.697

$$$$
lig.pdb
 OpenBabel11021811523D
libRbt.so/2013.1/901 2013/11/27
 30 34  0  0  0  0  0  0  0  0999 V2000
   26.6101   40.7410   22.0287 N   0  0  0  0  0  0  0  0  0  0  0  0
   25.3675   37.3345   18.6584 N   0  0  0  0  0  0  0  0  0  0  0  0
   26.8288   41.9787   21.2739 C   0  0  0  0  0  0  0  0  0  0  0  0
   27.6771   42.7867   22.2444 C   0  0  2  0  0  0  0  0  0  0  0  0
   25.6896   39.7251   21.5305 C   0  0  0  0  0  0  0  0  0  0  0  0
   24.4847   39.3798   22.1760 C   0  0  0  0  0  0  0  0  0  0  0  0
   23.6304   38.4047   21.7253 C   0  0  0  0  0  0  0  0  0  0  0  0
   23.0368   36.5966   20.1090 C   0  0  0  0  0  0  0  0  0  0  0  0
   26.4552   37.0158   16.6994 C   0  0  0  0  0  0  0  0  0  0  0  0
   27.0842   39.0117   18.2297 C   0  0  0  0  0  0  0  0  0  0  0  0
   25.9919   39.0122   20.3360 C   0  0  0  0  0  0  0  0  0  0  0  0
   21.9955   34.0422   19.1795 O   0  0  0  0  0  0  0  0  0  0  0  0
   22.6435   34.7353   18.3922 C   0  0  0  0  0  0  0  0  0  0  0  0
   22.6666   34.5001   17.0860 O   0  0  0  0  0  0  0  0  0  0  0  0
   23.4610   35.8781   18.8793 C   0  0  1  0  0  0  0  0  0  0  0  0
   21.9844   36.3384   20.7030 O   0  0  0  0  0  0  0  0  0  0  0  0
   24.6073   36.2748   18.1690 C   0  0  0  0  0  0  0  0  0  0  0  0
   26.3941   37.7635   17.8054 C   0  0  0  0  0  0  0  0  0  0  0  0
   25.2502   35.7963   16.6536 S   0  0  0  0  0  0  0  0  0  0  0  0
   25.1018   38.0234   19.8591 C   0  0  0  0  0  0  0  0  0  0  0  0
   23.9342   37.6938   20.5644 C   0  0  0  0  0  0  0  0  0  0  0  0
   24.1250   40.0556   23.2857 F   0  0  0  0  0  0  0  0  0  0  0  0
   27.2018   39.2336   19.6597 N   0  0  0  0  0  0  0  0  0  0  0  0
   28.2953   38.5450   20.3118 C   0  0  0  0  0  0  0  0  0  0  0  0
   26.8195   40.9429   23.4579 C   0  0  0  0  0  0  0  0  0  0  0  0
   28.9237   43.1687   21.6612 O   0  0  0  0  0  0  0  0  0  0  0  0
   28.0340   41.8542   23.3990 C   0  0  2  0  0  0  0  0  0  0  0  0
   28.2974   42.6778   24.5944 N   0  0  0  0  0  0  0  0  0  0  0  0
   27.0994   43.1139   25.3346 C   0  0  0  0  0  0  0  0  0  0  0  0
   29.3239   42.1045   25.4783 C   0  0  0  0  0  0  0  0  0  0  0  0
  1  5  1  0  0  0  0
  2 17  1  0  0  0  0
  3  1  1  0  0  0  0
  4  3  1  0  0  0  0
  4 26  1  6  0  0  0
  5 11  2  0  0  0  0
  5  6  1  0  0  0  0
  6  7  2  0  0  0  0
  7 21  1  0  0  0  0
  8 15  1  0  0  0  0
  8 16  2  0  0  0  0
  9 19  1  0  0  0  0
 10 18  1  0  0  0  0
 11 20  1  0  0  0  0
 13 14  1  0  0  0  0
 13 12  2  0  0  0  0
 15 13  1  6  0  0  0
 17 19  2  0  0  0  0
 17 15  1  0  0  0  0
 18  2  1  0  0  0  0
 18  9  2  0  0  0  0
 20 21  2  0  0  0  0
 20  2  1  0  0  0  0
 21  8  1  0  0  0  0
 22  6  1  0  0  0  0
 23 11  1  0  0  0  0
 23 10  1  0  0  0  0
 24 23  1  0  0  0  0
 25  1  1  0  0  0  0
 27  4  1  0  0  0  0
 27 25  1  0  0  0  0
 27 28  1  1  0  0  0
 29 28  1  0  0  0  0
 30 28  1  0  0  0  0
M  END
>  <CHROM.1>
-113.78969854,5.46861859,-29.26712009,-54.29536587,81.64995501,25.62556768
38.73585869,20.54221209,1.03713431,0.57466678,1.00325353

>  <Name>
lig.pdb

>  <RI>
0

>  <Rbt.Current_Directory>
/home/itssahil/PROJECTS/Mol_Feturizer/New_Systems/rnas/6bfb

>  <Rbt.Executable>
rbdock ($Id: //depot/dev/client3/rdock/2013.1/src/exe/rbdock.cxx#4 $)

>  <Rbt.Library>
libRbt.so (2013.1, Build901 2013/11/27)

>  <Rbt.Parameter_File>
/export/apps/rDock/src/rDock_2013.1_src/data/scripts/dock_solv.prm

>  <Rbt.Receptor>
prm/pocket_docking_7.prm

>  <SCORE>
-31.4319

>  <SCORE.INTER>
-27.2119

>  <SCORE.INTER.CONST>
1

>  <SCORE.INTER.POLAR>
-1.1465

>  <SCORE.INTER.ROT>
3

>  <SCORE.INTER.SOLV>
15.1302

>  <SCORE.INTER.VDW>
-24.963

>  <SCORE.INTER.norm>
-0.907062

>  <SCORE.INTRA>
-4.22008

>  <SCORE.INTRA.DIHEDRAL>
-6.43554

>  <SCORE.INTRA.DIHEDRAL.0>
9.41909

>  <SCORE.INTRA.POLAR>
0

>  <SCORE.INTRA.POLAR.0>
0

>  <SCORE.INTRA.REPUL>
0.0458872

>  <SCORE.INTRA.REPUL.0>
0

>  <SCORE.INTRA.SOLV>
-0.229939

>  <SCORE.INTRA.SOLV.lig_0>
-26.2491

>  <SCORE.INTRA.VDW>
-1.11678

>  <SCORE.INTRA.VDW.0>
2.57239

>  <SCORE.INTRA.norm>
-0.140669

>  <SCORE.RESTR>
0

>  <SCORE.RESTR.CAVITY>
0

>  <SCORE.RESTR.norm>
0

>  <SCORE.SYSTEM>
0

>  <SCORE.SYSTEM.CONST>
0

>  <SCORE.SYSTEM.DIHEDRAL>
0

>  <SCORE.SYSTEM.SOLV>
0

>  <SCORE.SYSTEM.norm>
0

>  <SCORE.heavy>
30

>  <SCORE.norm>
-1.04773

>  <RMSD>
7.712

$$$$
lig.pdb
 OpenBabel11021811523D
libRbt.so/2013.1/901 2013/11/27
 30 34  0  0  0  0  0  0  0  0999 V2000
   26.0399   40.5947   22.7717 N   0  0  0  0  0  0  0  0  0  0  0  0
   25.1604   37.4666   19.0369 N   0  0  0  0  0  0  0  0  0  0  0  0
   26.8183   41.5427   21.9686 C   0  0  0  0  0  0  0  0  0  0  0  0
   27.3600   42.4808   23.0367 C   0  0  2  0  0  0  0  0  0  0  0  0
   25.1963   39.5966   22.1239 C   0  0  0  0  0  0  0  0  0  0  0  0
   23.9671   39.1521   22.6524 C   0  0  0  0  0  0  0  0  0  0  0  0
   23.1848   38.1925   22.0600 C   0  0  0  0  0  0  0  0  0  0  0  0
   22.7725   36.5188   20.2537 C   0  0  0  0  0  0  0  0  0  0  0  0
   26.3856   37.3654   17.1366 C   0  0  0  0  0  0  0  0  0  0  0  0
   26.8310   39.2350   18.8765 C   0  0  0  0  0  0  0  0  0  0  0  0
   25.6048   39.0061   20.8948 C   0  0  0  0  0  0  0  0  0  0  0  0
   21.4683   34.4508   18.7825 O   0  0  0  0  0  0  0  0  0  0  0  0
   22.5687   34.8083   18.3565 C   0  0  0  0  0  0  0  0  0  0  0  0
   23.1636   34.2149   17.3288 O   0  0  0  0  0  0  0  0  0  0  0  0
   23.3051   35.9301   18.9974 C   0  0  1  0  0  0  0  0  0  0  0  0
   21.6951   36.1710   20.7490 O   0  0  0  0  0  0  0  0  0  0  0  0
   24.4780   36.4297   18.4050 C   0  0  0  0  0  0  0  0  0  0  0  0
   26.2219   38.0070   18.2975 C   0  0  0  0  0  0  0  0  0  0  0  0
   25.2372   36.1135   16.9010 S   0  0  0  0  0  0  0  0  0  0  0  0
   24.7891   38.0340   20.2726 C   0  0  0  0  0  0  0  0  0  0  0  0
   23.5925   37.6010   20.8645 C   0  0  0  0  0  0  0  0  0  0  0  0
   23.5084   39.7113   23.7901 F   0  0  0  0  0  0  0  0  0  0  0  0
   26.8461   39.3302   20.3252 N   0  0  0  0  0  0  0  0  0  0  0  0
   27.9221   38.6241   20.9874 C   0  0  0  0  0  0  0  0  0  0  0  0
   25.6930   41.1557   24.0726 C   0  0  0  0  0  0  0  0  0  0  0  0
   28.7868   42.5385   23.0116 O   0  0  0  0  0  0  0  0  0  0  0  0
   26.9988   41.8663   24.3866 C   0  0  2  0  0  0  0  0  0  0  0  0
   26.9347   42.9498   25.3859 N   0  0  0  0  0  0  0  0  0  0  0  0
   26.1223   42.6568   26.5806 C   0  0  0  0  0  0  0  0  0  0  0  0
   28.2548   43.5014   25.7279 C   0  0  0  0  0  0  0  0  0  0  0  0
  1  5  1  0  0  0  0
  2 17  1  0  0  0  0
  3  1  1  0  0  0  0
  4  3  1  0  0  0  0
  4 26  1  1  0  0  0
  5 11  2  0  0  0  0
  5  6  1  0  0  0  0
  6  7  2  0  0  0  0
  7 21  1  0  0  0  0
  8 15  1  0  0  0  0
  8 16  2  0  0  0  0
  9 19  1  0  0  0  0
 10 18  1  0  0  0  0
 11 20  1  0  0  0  0
 13 14  1  0  0  0  0
 13 12  2  0  0  0  0
 15 13  1  6  0  0  0
 17 19  2  0  0  0  0
 17 15  1  0  0  0  0
 18  2  1  0  0  0  0
 18  9  2  0  0  0  0
 20 21  2  0  0  0  0
 20  2  1  0  0  0  0
 21  8  1  0  0  0  0
 22  6  1  0  0  0  0
 23 11  1  0  0  0  0
 23 10  1  0  0  0  0
 24 23  1  0  0  0  0
 25  1  1  0  0  0  0
 27  4  1  0  0  0  0
 27 25  1  0  0  0  0
 27 28  1  1  0  0  0
 29 28  1  0  0  0  0
 30 28  1  0  0  0  0
M  END
>  <CHROM.1>
-145.48885281,5.09161496,6.84272423,63.24105803,157.47697637,25.23633381
38.76241099,21.02068753,1.15096005,0.53767091,0.98268418

>  <Name>
lig.pdb

>  <RI>
0

>  <Rbt.Current_Directory>
/home/itssahil/PROJECTS/Mol_Feturizer/New_Systems/rnas/6bfb

>  <Rbt.Executable>
rbdock ($Id: //depot/dev/client3/rdock/2013.1/src/exe/rbdock.cxx#4 $)

>  <Rbt.Library>
libRbt.so (2013.1, Build901 2013/11/27)

>  <Rbt.Parameter_File>
/export/apps/rDock/src/rDock_2013.1_src/data/scripts/dock_solv.prm

>  <Rbt.Receptor>
prm/blind_docking_60.prm

>  <SCORE>
-35.4034

>  <SCORE.INTER>
-33.3717

>  <SCORE.INTER.CONST>
1

>  <SCORE.INTER.POLAR>
-1.01976

>  <SCORE.INTER.ROT>
3

>  <SCORE.INTER.SOLV>
13.9294

>  <SCORE.INTER.VDW>
-29.0917

>  <SCORE.INTER.norm>
-1.11239

>  <SCORE.INTRA>
-2.03173

>  <SCORE.INTRA.DIHEDRAL>
-7.12647

>  <SCORE.INTRA.DIHEDRAL.0>
9.41909

>  <SCORE.INTRA.POLAR>
0

>  <SCORE.INTRA.POLAR.0>
0

>  <SCORE.INTRA.REPUL>
0

>  <SCORE.INTRA.REPUL.0>
0

>  <SCORE.INTRA.SOLV>
0.0280557

>  <SCORE.INTRA.SOLV.lig_0>
-26.2491

>  <SCORE.INTRA.VDW>
1.51748

>  <SCORE.INTRA.VDW.0>
2.57239

>  <SCORE.INTRA.norm>
-0.0677243

>  <SCORE.RESTR>
0

>  <SCORE.RESTR.CAVITY>
0

>  <SCORE.RESTR.norm>
0

>  <SCORE.SYSTEM>
0

>  <SCORE.SYSTEM.CONST>
0

>  <SCORE.SYSTEM.DIHEDRAL>
0

>  <SCORE.SYSTEM.SOLV>
0

>  <SCORE.SYSTEM.norm>
0

>  <SCORE.heavy>
30

>  <SCORE.norm>
-1.18011

>  <RMSD>
7.718

$$$$
lig.pdb
 OpenBabel11021811523D
libRbt.so/2013.1/901 2013/11/27
 30 34  0  0  0  0  0  0  0  0999 V2000
   25.6601   42.0753   25.7894 N   0  0  0  0  0  0  0  0  0  0  0  0
   26.3941   39.0271   21.9583 N   0  0  0  0  0  0  0  0  0  0  0  0
   26.7732   42.9589   25.4290 C   0  0  0  0  0  0  0  0  0  0  0  0
   26.8091   43.9103   26.6155 C   0  0  2  0  0  0  0  0  0  0  0  0
   25.1591   41.0921   24.8355 C   0  0  0  0  0  0  0  0  0  0  0  0
   23.8244   40.6386   24.8107 C   0  0  0  0  0  0  0  0  0  0  0  0
   23.3566   39.6927   23.9330 C   0  0  0  0  0  0  0  0  0  0  0  0
   23.7247   38.0578   22.0822 C   0  0  0  0  0  0  0  0  0  0  0  0
   28.2857   38.9638   20.7171 C   0  0  0  0  0  0  0  0  0  0  0  0
   27.9735   40.7960   22.5245 C   0  0  0  0  0  0  0  0  0  0  0  0
   26.0354   40.5269   23.8665 C   0  0  0  0  0  0  0  0  0  0  0  0
   25.0833   35.4457   20.0065 O   0  0  0  0  0  0  0  0  0  0  0  0
   24.3204   36.3875   20.2323 C   0  0  0  0  0  0  0  0  0  0  0  0
   23.1180   36.4811   19.6777 O   0  0  0  0  0  0  0  0  0  0  0  0
   24.7254   37.4947   21.1389 C   0  0  1  0  0  0  0  0  0  0  0  0
   22.5415   37.7013   22.0907 O   0  0  0  0  0  0  0  0  0  0  0  0
   26.0341   38.0047   21.0835 C   0  0  0  0  0  0  0  0  0  0  0  0
   27.6604   39.5813   21.7241 C   0  0  0  0  0  0  0  0  0  0  0  0
   27.3406   37.7189   20.0112 S   0  0  0  0  0  0  0  0  0  0  0  0
   25.5492   39.5692   22.9478 C   0  0  0  0  0  0  0  0  0  0  0  0
   24.2186   39.1257   22.9944 C   0  0  0  0  0  0  0  0  0  0  0  0
   22.9395   41.1746   25.6751 F   0  0  0  0  0  0  0  0  0  0  0  0
   27.3987   40.8609   23.8562 N   0  0  0  0  0  0  0  0  0  0  0  0
   28.1184   40.1395   24.8841 C   0  0  0  0  0  0  0  0  0  0  0  0
   24.7814   42.6973   26.7734 C   0  0  0  0  0  0  0  0  0  0  0  0
   28.0858   43.9048   27.2557 O   0  0  0  0  0  0  0  0  0  0  0  0
   25.8300   43.3612   27.6500 C   0  0  2  0  0  0  0  0  0  0  0  0
   25.3702   44.4818   28.4923 N   0  0  0  0  0  0  0  0  0  0  0  0
   24.0278   44.3181   29.0793 C   0  0  0  0  0  0  0  0  0  0  0  0
   26.3678   44.9070   29.4861 C   0  0  0  0  0  0  0  0  0  0  0  0
  1  5  1  0  0  0  0
  2 17  1  0  0  0  0
  3  1  1  0  0  0  0
  4  3  1  0  0  0  0
  4 26  1  1  0  0  0
  5 11  2  0  0  0  0
  5  6  1  0  0  0  0
  6  7  2  0  0  0  0
  7 21  1  0  0  0  0
  8 15  1  0  0  0  0
  8 16  2  0  0  0  0
  9 19  1  0  0  0  0
 10 18  1  0  0  0  0
 11 20  1  0  0  0  0
 13 14  1  0  0  0  0
 13 12  2  0  0  0  0
 15 13  1  6  0  0  0
 17 19  2  0  0  0  0
 17 15  1  0  0  0  0
 18  2  1  0  0  0  0
 18  9  2  0  0  0  0
 20 21  2  0  0  0  0
 20  2  1  0  0  0  0
 21  8  1  0  0  0  0
 22  6  1  0  0  0  0
 23 11  1  0  0  0  0
 23 10  1  0  0  0  0
 24 23  1  0  0  0  0
 25  1  1  0  0  0  0
 27  4  1  0  0  0  0
 27 25  1  0  0  0  0
 27 28  1  6  0  0  0
 29 28  1  0  0  0  0
 30 28  1  0  0  0  0
M  END
>  <CHROM.1>
-150.98058004,-1.74072241,-139.82956757,149.94240069,152.24725759,25.62908848
40.29557146,23.82095528,1.51172528,0.25281042,0.85040458

>  <Name>
lig.pdb

>  <RI>
0

>  <Rbt.Current_Directory>
/home/itssahil/PROJECTS/Mol_Feturizer/New_Systems/rnas/6bfb

>  <Rbt.Executable>
rbdock ($Id: //depot/dev/client3/rdock/2013.1/src/exe/rbdock.cxx#4 $)

>  <Rbt.Library>
libRbt.so (2013.1, Build901 2013/11/27)

>  <Rbt.Parameter_File>
/export/apps/rDock/src/rDock_2013.1_src/data/scripts/dock_solv.prm

>  <Rbt.Receptor>
prm/pocket_docking_4.prm

>  <SCORE>
-33.2506

>  <SCORE.INTER>
-33.1214

>  <SCORE.INTER.CONST>
1

>  <SCORE.INTER.POLAR>
-0.481873

>  <SCORE.INTER.ROT>
3

>  <SCORE.INTER.SOLV>
16.3075

>  <SCORE.INTER.VDW>
-31.5105

>  <SCORE.INTER.norm>
-1.10405

>  <SCORE.INTRA>
-0.129201

>  <SCORE.INTRA.DIHEDRAL>
-3.47588

>  <SCORE.INTRA.DIHEDRAL.0>
9.41909

>  <SCORE.INTRA.POLAR>
0

>  <SCORE.INTRA.POLAR.0>
0

>  <SCORE.INTRA.REPUL>
0

>  <SCORE.INTRA.REPUL.0>
0

>  <SCORE.INTRA.SOLV>
0.0377674

>  <SCORE.INTRA.SOLV.lig_0>
-26.2491

>  <SCORE.INTRA.VDW>
1.58986

>  <SCORE.INTRA.VDW.0>
2.57239

>  <SCORE.INTRA.norm>
-0.00430668

>  <SCORE.RESTR>
0

>  <SCORE.RESTR.CAVITY>
0

>  <SCORE.RESTR.norm>
0

>  <SCORE.SYSTEM>
0

>  <SCORE.SYSTEM.CONST>
0

>  <SCORE.SYSTEM.DIHEDRAL>
0

>  <SCORE.SYSTEM.SOLV>
0

>  <SCORE.SYSTEM.norm>
0

>  <SCORE.heavy>
30

>  <SCORE.norm>
-1.10835

>  <RMSD>
7.718

$$$$
lig.pdb
 OpenBabel11021811523D
libRbt.so/2013.1/901 2013/11/27
 30 34  0  0  0  0  0  0  0  0999 V2000
   26.0391   40.5982   22.7463 N   0  0  0  0  0  0  0  0  0  0  0  0
   25.1719   37.4626   19.0149 N   0  0  0  0  0  0  0  0  0  0  0  0
   26.8174   41.5461   21.9431 C   0  0  0  0  0  0  0  0  0  0  0  0
   27.3555   42.4868   23.0108 C   0  0  2  0  0  0  0  0  0  0  0  0
   25.1984   39.5976   22.0985 C   0  0  0  0  0  0  0  0  0  0  0  0
   23.9689   39.1520   22.6253 C   0  0  0  0  0  0  0  0  0  0  0  0
   23.1893   38.1901   22.0329 C   0  0  0  0  0  0  0  0  0  0  0  0
   22.7832   36.5129   20.2285 C   0  0  0  0  0  0  0  0  0  0  0  0
   26.4009   37.3603   17.1171 C   0  0  0  0  0  0  0  0  0  0  0  0
   26.8399   39.2335   18.8548 C   0  0  0  0  0  0  0  0  0  0  0  0
   25.6102   39.0058   20.8711 C   0  0  0  0  0  0  0  0  0  0  0  0
   21.5099   34.4062   18.7899 O   0  0  0  0  0  0  0  0  0  0  0  0
   22.5858   34.7989   18.3337 C   0  0  0  0  0  0  0  0  0  0  0  0
   23.1567   34.2431   17.2721 O   0  0  0  0  0  0  0  0  0  0  0  0
   23.3192   35.9230   18.9742 C   0  0  1  0  0  0  0  0  0  0  0  0
   21.7055   36.1641   20.7223 O   0  0  0  0  0  0  0  0  0  0  0  0
   24.4924   36.4236   18.3833 C   0  0  0  0  0  0  0  0  0  0  0  0
   26.2339   38.0035   18.2766 C   0  0  0  0  0  0  0  0  0  0  0  0
   25.2550   36.1062   16.8813 S   0  0  0  0  0  0  0  0  0  0  0  0
   24.7973   38.0313   20.2489 C   0  0  0  0  0  0  0  0  0  0  0  0
   23.6003   37.5973   20.8392 C   0  0  0  0  0  0  0  0  0  0  0  0
   23.5071   39.7123   23.7612 F   0  0  0  0  0  0  0  0  0  0  0  0
   26.8520   39.3310   20.3034 N   0  0  0  0  0  0  0  0  0  0  0  0
   27.9279   38.6278   20.9688 C   0  0  0  0  0  0  0  0  0  0  0  0
   25.6888   41.1606   24.0456 C   0  0  0  0  0  0  0  0  0  0  0  0
   28.7823   42.5468   22.9882 O   0  0  0  0  0  0  0  0  0  0  0  0
   26.9928   41.8739   24.3610 C   0  0  2  0  0  0  0  0  0  0  0  0
   26.9251   42.9589   25.3583 N   0  0  0  0  0  0  0  0  0  0  0  0
   26.1003   42.6713   26.5460 C   0  0  0  0  0  0  0  0  0  0  0  0
   28.2447   43.5042   25.7118 C   0  0  0  0  0  0  0  0  0  0  0  0
  1  5  1  0  0  0  0
  2 17  1  0  0  0  0
  3  1  1  0  0  0  0
  4  3  1  0  0  0  0
  4 26  1  1  0  0  0
  5 11  2  0  0  0  0
  5  6  1  0  0  0  0
  6  7  2  0  0  0  0
  7 21  1  0  0  0  0
  8 15  1  0  0  0  0
  8 16  2  0  0  0  0
  9 19  1  0  0  0  0
 10 18  1  0  0  0  0
 11 20  1  0  0  0  0
 13 14  1  0  0  0  0
 13 12  2  0  0  0  0
 15 13  1  6  0  0  0
 17 19  2  0  0  0  0
 17 15  1  0  0  0  0
 18  2  1  0  0  0  0
 18  9  2  0  0  0  0
 20 21  2  0  0  0  0
 20  2  1  0  0  0  0
 21  8  1  0  0  0  0
 22  6  1  0  0  0  0
 23 11  1  0  0  0  0
 23 10  1  0  0  0  0
 24 23  1  0  0  0  0
 25  1  1  0  0  0  0
 27  4  1  0  0  0  0
 27 25  1  0  0  0  0
 27 28  1  1  0  0  0
 29 28  1  0  0  0  0
 30 28  1  0  0  0  0
M  END
>  <CHROM.1>
-145.48549842,2.92312351,3.98945783,63.00872672,156.91323722,25.24145521
38.76173883,20.99660961,1.15375641,0.53888387,0.98030055

>  <Name>
lig.pdb

>  <RI>
0

>  <Rbt.Current_Directory>
/home/itssahil/PROJECTS/Mol_Feturizer/New_Systems/rnas/6bfb

>  <Rbt.Executable>
rbdock ($Id: //depot/dev/client3/rdock/2013.1/src/exe/rbdock.cxx#4 $)

>  <Rbt.Library>
libRbt.so (2013.1, Build901 2013/11/27)

>  <Rbt.Parameter_File>
/export/apps/rDock/src/rDock_2013.1_src/data/scripts/dock_solv.prm

>  <Rbt.Receptor>
prm/blind_docking_80.prm

>  <SCORE>
-35.3978

>  <SCORE.INTER>
-33.367

>  <SCORE.INTER.CONST>
1

>  <SCORE.INTER.POLAR>
-1.01518

>  <SCORE.INTER.ROT>
3

>  <SCORE.INTER.SOLV>
13.9518

>  <SCORE.INTER.VDW>
-29.1113

>  <SCORE.INTER.norm>
-1.11223

>  <SCORE.INTRA>
-2.03085

>  <SCORE.INTRA.DIHEDRAL>
-7.21562

>  <SCORE.INTRA.DIHEDRAL.0>
9.41909

>  <SCORE.INTRA.POLAR>
0

>  <SCORE.INTRA.POLAR.0>
0

>  <SCORE.INTRA.REPUL>
0

>  <SCORE.INTRA.REPUL.0>
0

>  <SCORE.INTRA.SOLV>
0.0294703

>  <SCORE.INTRA.SOLV.lig_0>
-26.2491

>  <SCORE.INTRA.VDW>
1.56222

>  <SCORE.INTRA.VDW.0>
2.57239

>  <SCORE.INTRA.norm>
-0.0676952

>  <SCORE.RESTR>
0

>  <SCORE.RESTR.CAVITY>
0

>  <SCORE.RESTR.norm>
0

>  <SCORE.SYSTEM>
0

>  <SCORE.SYSTEM.CONST>
0

>  <SCORE.SYSTEM.DIHEDRAL>
0

>  <SCORE.SYSTEM.SOLV>
0

>  <SCORE.SYSTEM.norm>
0

>  <SCORE.heavy>
30

>  <SCORE.norm>
-1.17993

>  <RMSD>
7.723

$$$$
lig.pdb
 OpenBabel11021811523D
libRbt.so/2013.1/901 2013/11/27
 30 34  0  0  0  0  0  0  0  0999 V2000
   26.0267   39.9807   22.9477 N   0  0  0  0  0  0  0  0  0  0  0  0
   25.3823   37.3386   18.8111 N   0  0  0  0  0  0  0  0  0  0  0  0
   27.1933   39.4736   23.6766 C   0  0  0  0  0  0  0  0  0  0  0  0
   27.8103   40.7597   24.2054 C   0  0  2  0  0  0  0  0  0  0  0  0
   25.2210   39.0831   22.1275 C   0  0  0  0  0  0  0  0  0  0  0  0
   23.9530   38.6015   22.5123 C   0  0  0  0  0  0  0  0  0  0  0  0
   23.2049   37.7344   21.7558 C   0  0  0  0  0  0  0  0  0  0  0  0
   22.9046   36.2967   19.7367 C   0  0  0  0  0  0  0  0  0  0  0  0
   26.7379   37.4426   17.0017 C   0  0  0  0  0  0  0  0  0  0  0  0
   27.0779   39.0821   18.9810 C   0  0  0  0  0  0  0  0  0  0  0  0
   25.7095   38.6363   20.8674 C   0  0  0  0  0  0  0  0  0  0  0  0
   21.6060   34.9100   17.4286 O   0  0  0  0  0  0  0  0  0  0  0  0
   22.8184   34.8295   17.6375 C   0  0  0  0  0  0  0  0  0  0  0  0
   23.5594   33.8339   17.1667 O   0  0  0  0  0  0  0  0  0  0  0  0
   23.5189   35.8527   18.4584 C   0  0  1  0  0  0  0  0  0  0  0  0
   21.7914   35.9123   20.1107 O   0  0  0  0  0  0  0  0  0  0  0  0
   24.7358   36.3976   18.0131 C   0  0  0  0  0  0  0  0  0  0  0  0
   26.4989   37.9437   18.2174 C   0  0  0  0  0  0  0  0  0  0  0  0
   25.5965   36.2495   16.5381 S   0  0  0  0  0  0  0  0  0  0  0  0
   24.9301   37.7609   20.0776 C   0  0  0  0  0  0  0  0  0  0  0  0
   23.6903   37.2826   20.5287 C   0  0  0  0  0  0  0  0  0  0  0  0
   23.4206   39.0291   23.6747 F   0  0  0  0  0  0  0  0  0  0  0  0
   26.9913   39.0030   20.4282 N   0  0  0  0  0  0  0  0  0  0  0  0
   28.0104   38.2029   21.0731 C   0  0  0  0  0  0  0  0  0  0  0  0
   26.1814   41.3903   22.6064 C   0  0  0  0  0  0  0  0  0  0  0  0
   27.9287   40.7399   25.6286 O   0  0  0  0  0  0  0  0  0  0  0  0
   26.8244   41.8823   23.8921 C   0  0  2  0  0  0  0  0  0  0  0  0
   27.5765   43.1488   23.8092 N   0  0  0  0  0  0  0  0  0  0  0  0
   28.0712   43.6722   25.0956 C   0  0  0  0  0  0  0  0  0  0  0  0
   28.6191   43.1366   22.7716 C   0  0  0  0  0  0  0  0  0  0  0  0
  1  5  1  0  0  0  0
  2 17  1  0  0  0  0
  3  1  1  0  0  0  0
  4  3  1  0  0  0  0
  4 26  1  1  0  0  0
  5 11  2  0  0  0  0
  5  6  1  0  0  0  0
  6  7  2  0  0  0  0
  7 21  1  0  0  0  0
  8 15  1  0  0  0  0
  8 16  2  0  0  0  0
  9 19  1  0  0  0  0
 10 18  1  0  0  0  0
 11 20  1  0  0  0  0
 13 14  1  0  0  0  0
 13 12  2  0  0  0  0
 15 13  1  6  0  0  0
 17 19  2  0  0  0  0
 17 15  1  0  0  0  0
 18  2  1  0  0  0  0
 18  9  2  0  0  0  0
 20 21  2  0  0  0  0
 20  2  1  0  0  0  0
 21  8  1  0  0  0  0
 22  6  1  0  0  0  0
 23 11  1  0  0  0  0
 23 10  1  0  0  0  0
 24 23  1  0  0  0  0
 25  1  1  0  0  0  0
 27  4  1  0  0  0  0
 27 25  1  0  0  0  0
 27 28  1  6  0  0  0
 29 28  1  0  0  0  0
 30 28  1  0  0  0  0
M  END
>  <CHROM.1>
104.65029882,-2.15850302,45.23820953,-58.27564235,-71.78178093,25.45942567
38.44952712,20.74944983,1.10787508,0.53228468,1.04536241

>  <Name>
lig.pdb

>  <RI>
0

>  <Rbt.Current_Directory>
/home/itssahil/PROJECTS/Mol_Feturizer/New_Systems/rnas/6bfb

>  <Rbt.Executable>
rbdock ($Id: //depot/dev/client3/rdock/2013.1/src/exe/rbdock.cxx#4 $)

>  <Rbt.Library>
libRbt.so (2013.1, Build901 2013/11/27)

>  <Rbt.Parameter_File>
/export/apps/rDock/src/rDock_2013.1_src/data/scripts/dock_solv.prm

>  <Rbt.Receptor>
prm/pocket_docking_6.prm

>  <SCORE>
-36.7286

>  <SCORE.INTER>
-33.2161

>  <SCORE.INTER.CONST>
1

>  <SCORE.INTER.POLAR>
-1.0198

>  <SCORE.INTER.ROT>
3

>  <SCORE.INTER.SOLV>
15.4337

>  <SCORE.INTER.VDW>
-29.4893

>  <SCORE.INTER.norm>
-1.1072

>  <SCORE.INTRA>
-3.51246

>  <SCORE.INTRA.DIHEDRAL>
-7.62582

>  <SCORE.INTRA.DIHEDRAL.0>
9.41909

>  <SCORE.INTRA.POLAR>
0

>  <SCORE.INTRA.POLAR.0>
0

>  <SCORE.INTRA.REPUL>
0

>  <SCORE.INTRA.REPUL.0>
0

>  <SCORE.INTRA.SOLV>
0.163348

>  <SCORE.INTRA.SOLV.lig_0>
-26.2491

>  <SCORE.INTRA.VDW>
0.218774

>  <SCORE.INTRA.VDW.0>
2.57239

>  <SCORE.INTRA.norm>
-0.117082

>  <SCORE.RESTR>
0

>  <SCORE.RESTR.CAVITY>
0

>  <SCORE.RESTR.norm>
0

>  <SCORE.SYSTEM>
0

>  <SCORE.SYSTEM.CONST>
0

>  <SCORE.SYSTEM.DIHEDRAL>
0

>  <SCORE.SYSTEM.SOLV>
0

>  <SCORE.SYSTEM.norm>
0

>  <SCORE.heavy>
30

>  <SCORE.norm>
-1.22429

>  <RMSD>
7.740

$$$$
lig.pdb
 OpenBabel11021811523D
libRbt.so/2013.1/901 2013/11/27
 30 34  0  0  0  0  0  0  0  0999 V2000
   26.8759   39.4236   21.9366 N   0  0  0  0  0  0  0  0  0  0  0  0
   24.6658   36.3835   18.7147 N   0  0  0  0  0  0  0  0  0  0  0  0
   27.7921   40.0204   20.9599 C   0  0  0  0  0  0  0  0  0  0  0  0
   28.7168   40.8289   21.8575 C   0  0  2  0  0  0  0  0  0  0  0  0
   25.7006   38.6840   21.4904 C   0  0  0  0  0  0  0  0  0  0  0  0
   24.4634   38.7033   22.1663 C   0  0  0  0  0  0  0  0  0  0  0  0
   23.3640   37.9862   21.7652 C   0  0  0  0  0  0  0  0  0  0  0  0
   22.2586   36.3600   20.2265 C   0  0  0  0  0  0  0  0  0  0  0  0
   25.5762   35.7166   16.7528 C   0  0  0  0  0  0  0  0  0  0  0  0
   26.7649   37.5108   18.1981 C   0  0  0  0  0  0  0  0  0  0  0  0
   25.7667   37.8780   20.3190 C   0  0  0  0  0  0  0  0  0  0  0  0
   21.0340   34.5164   17.3941 O   0  0  0  0  0  0  0  0  0  0  0  0
   21.3287   34.6245   18.5864 C   0  0  0  0  0  0  0  0  0  0  0  0
   20.6748   33.9795   19.5448 O   0  0  0  0  0  0  0  0  0  0  0  0
   22.4395   35.5139   19.0183 C   0  0  1  0  0  0  0  0  0  0  0  0
   21.1906   36.4195   20.8454 O   0  0  0  0  0  0  0  0  0  0  0  0
   23.6328   35.5582   18.2765 C   0  0  0  0  0  0  0  0  0  0  0  0
   25.7493   36.4871   17.8310 C   0  0  0  0  0  0  0  0  0  0  0  0
   24.0826   34.8737   16.7707 S   0  0  0  0  0  0  0  0  0  0  0  0
   24.6285   37.1567   19.8926 C   0  0  0  0  0  0  0  0  0  0  0  0
   23.4330   37.1827   20.6272 C   0  0  0  0  0  0  0  0  0  0  0  0
   24.3298   39.4868   23.2553 F   0  0  0  0  0  0  0  0  0  0  0  0
   26.9740   37.7372   19.6169 N   0  0  0  0  0  0  0  0  0  0  0  0
   27.8529   36.7961   20.2777 C   0  0  0  0  0  0  0  0  0  0  0  0
   26.8769   40.1653   23.1925 C   0  0  0  0  0  0  0  0  0  0  0  0
   30.0819   40.4442   21.6892 O   0  0  0  0  0  0  0  0  0  0  0  0
   28.3630   40.4639   23.2969 C   0  0  2  0  0  0  0  0  0  0  0  0
   28.7483   41.5907   24.1679 N   0  0  0  0  0  0  0  0  0  0  0  0
   28.1163   42.8822   23.8425 C   0  0  0  0  0  0  0  0  0  0  0  0
   28.6627   41.2707   25.6011 C   0  0  0  0  0  0  0  0  0  0  0  0
  1  5  1  0  0  0  0
  2 17  1  0  0  0  0
  3  1  1  0  0  0  0
  4  3  1  0  0  0  0
  4 26  1  6  0  0  0
  5 11  2  0  0  0  0
  5  6  1  0  0  0  0
  6  7  2  0  0  0  0
  7 21  1  0  0  0  0
  8 15  1  0  0  0  0
  8 16  2  0  0  0  0
  9 19  1  0  0  0  0
 10 18  1  0  0  0  0
 11 20  1  0  0  0  0
 13 14  1  0  0  0  0
 13 12  2  0  0  0  0
 15 13  1  6  0  0  0
 17 19  2  0  0  0  0
 17 15  1  0  0  0  0
 18  2  1  0  0  0  0
 18  9  2  0  0  0  0
 20 21  2  0  0  0  0
 20  2  1  0  0  0  0
 21  8  1  0  0  0  0
 22  6  1  0  0  0  0
 23 11  1  0  0  0  0
 23 10  1  0  0  0  0
 24 23  1  0  0  0  0
 25  1  1  0  0  0  0
 27  4  1  0  0  0  0
 27 25  1  0  0  0  0
 27 28  1  1  0  0  0
 29 28  1  0  0  0  0
 30 28  1  0  0  0  0
M  END
>  <CHROM.1>
-144.12024755,-179.31273749,138.04307483,163.18636132,58.23482573,25.30572708
37.80512675,20.51149124,0.88197709,0.35571198,0.98690954

>  <Name>
lig.pdb

>  <RI>
0

>  <Rbt.Current_Directory>
/home/itssahil/PROJECTS/Mol_Feturizer/New_Systems/rnas/6bfb

>  <Rbt.Executable>
rbdock ($Id: //depot/dev/client3/rdock/2013.1/src/exe/rbdock.cxx#4 $)

>  <Rbt.Library>
libRbt.so (2013.1, Build901 2013/11/27)

>  <Rbt.Parameter_File>
/export/apps/rDock/src/rDock_2013.1_src/data/scripts/dock_solv.prm

>  <Rbt.Receptor>
prm/pocket_docking_8.prm

>  <SCORE>
-34.9641

>  <SCORE.INTER>
-32.5703

>  <SCORE.INTER.CONST>
1

>  <SCORE.INTER.POLAR>
-1.76857

>  <SCORE.INTER.ROT>
3

>  <SCORE.INTER.SOLV>
17.7622

>  <SCORE.INTER.VDW>
-27.3391

>  <SCORE.INTER.norm>
-1.08568

>  <SCORE.INTRA>
-2.39376

>  <SCORE.INTRA.DIHEDRAL>
-6.43533

>  <SCORE.INTRA.DIHEDRAL.0>
9.41909

>  <SCORE.INTRA.POLAR>
0

>  <SCORE.INTRA.POLAR.0>
0

>  <SCORE.INTRA.REPUL>
0

>  <SCORE.INTRA.REPUL.0>
0

>  <SCORE.INTRA.SOLV>
-0.0440913

>  <SCORE.INTRA.SOLV.lig_0>
-26.2491

>  <SCORE.INTRA.VDW>
0.84595

>  <SCORE.INTRA.VDW.0>
2.57239

>  <SCORE.INTRA.norm>
-0.0797921

>  <SCORE.RESTR>
0

>  <SCORE.RESTR.CAVITY>
0

>  <SCORE.RESTR.norm>
0

>  <SCORE.SYSTEM>
0

>  <SCORE.SYSTEM.CONST>
0

>  <SCORE.SYSTEM.DIHEDRAL>
0

>  <SCORE.SYSTEM.SOLV>
0

>  <SCORE.SYSTEM.norm>
0

>  <SCORE.heavy>
30

>  <SCORE.norm>
-1.16547

>  <RMSD>
7.751

$$$$
lig.pdb
 OpenBabel11021811523D
libRbt.so/2013.1/901 2013/11/27
 30 34  0  0  0  0  0  0  0  0999 V2000
   25.5997   40.4261   23.1715 N   0  0  0  0  0  0  0  0  0  0  0  0
   25.1956   37.5413   19.1688 N   0  0  0  0  0  0  0  0  0  0  0  0
   25.9566   41.7200   22.5818 C   0  0  0  0  0  0  0  0  0  0  0  0
   26.5067   42.4677   23.7871 C   0  0  2  0  0  0  0  0  0  0  0  0
   24.8690   39.4348   22.3899 C   0  0  0  0  0  0  0  0  0  0  0  0
   23.6318   38.8865   22.7856 C   0  0  0  0  0  0  0  0  0  0  0  0
   22.9555   37.9327   22.0666 C   0  0  0  0  0  0  0  0  0  0  0  0
   22.7827   36.3782   20.1205 C   0  0  0  0  0  0  0  0  0  0  0  0
   26.5659   37.6480   17.3706 C   0  0  0  0  0  0  0  0  0  0  0  0
   26.7651   39.4044   19.2670 C   0  0  0  0  0  0  0  0  0  0  0  0
   25.4045   38.9602   21.1594 C   0  0  0  0  0  0  0  0  0  0  0  0
   23.4828   33.8066   17.7936 O   0  0  0  0  0  0  0  0  0  0  0  0
   22.8266   34.8049   18.0982 C   0  0  0  0  0  0  0  0  0  0  0  0
   21.5560   34.9589   17.7461 O   0  0  0  0  0  0  0  0  0  0  0  0
   23.4437   35.9141   18.8730 C   0  0  1  0  0  0  0  0  0  0  0  0
   21.6934   35.9368   20.5021 O   0  0  0  0  0  0  0  0  0  0  0  0
   24.6264   36.5190   18.4131 C   0  0  0  0  0  0  0  0  0  0  0  0
   26.2762   38.1917   18.5566 C   0  0  0  0  0  0  0  0  0  0  0  0
   25.5156   36.3569   16.9566 S   0  0  0  0  0  0  0  0  0  0  0  0
   24.6980   37.9944   20.4073 C   0  0  0  0  0  0  0  0  0  0  0  0
   23.4878   37.4546   20.8694 C   0  0  0  0  0  0  0  0  0  0  0  0
   23.0552   39.3340   23.9190 F   0  0  0  0  0  0  0  0  0  0  0  0
   26.6640   39.3923   20.7154 N   0  0  0  0  0  0  0  0  0  0  0  0
   27.7266   38.6981   21.4109 C   0  0  0  0  0  0  0  0  0  0  0  0
   25.4381   40.5246   24.6178 C   0  0  0  0  0  0  0  0  0  0  0  0
   27.8453   42.9130   23.5638 O   0  0  0  0  0  0  0  0  0  0  0  0
   26.5960   41.4580   24.9284 C   0  0  2  0  0  0  0  0  0  0  0  0
   26.5235   42.1948   26.2046 N   0  0  0  0  0  0  0  0  0  0  0  0
   27.6593   43.0942   26.4774 C   0  0  0  0  0  0  0  0  0  0  0  0
   25.2249   42.8508   26.4219 C   0  0  0  0  0  0  0  0  0  0  0  0
  1  5  1  0  0  0  0
  2 17  1  0  0  0  0
  3  1  1  0  0  0  0
  4  3  1  0  0  0  0
  4 26  1  6  0  0  0
  5 11  2  0  0  0  0
  5  6  1  0  0  0  0
  6  7  2  0  0  0  0
  7 21  1  0  0  0  0
  8 15  1  0  0  0  0
  8 16  2  0  0  0  0
  9 19  1  0  0  0  0
 10 18  1  0  0  0  0
 11 20  1  0  0  0  0
 13 14  1  0  0  0  0
 13 12  2  0  0  0  0
 15 13  1  6  0  0  0
 17 19  2  0  0  0  0
 17 15  1  0  0  0  0
 18  2  1  0  0  0  0
 18  9  2  0  0  0  0
 20 21  2  0  0  0  0
 20  2  1  0  0  0  0
 21  8  1  0  0  0  0
 22  6  1  0  0  0  0
 23 11  1  0  0  0  0
 23 10  1  0  0  0  0
 24 23  1  0  0  0  0
 25  1  1  0  0  0  0
 27  4  1  0  0  0  0
 27 25  1  0  0  0  0
 27 28  1  1  0  0  0
 29 28  1  0  0  0  0
 30 28  1  0  0  0  0
M  END
>  <CHROM.1>
-122.84228414,177.31396407,-126.66209243,65.66488551,-65.65809311,25.03070051
38.71300462,21.22771775,1.25007638,0.53519585,0.99009902

>  <Name>
lig.pdb

>  <RI>
0

>  <Rbt.Current_Directory>
/home/itssahil/PROJECTS/Mol_Feturizer/New_Systems/rnas/6bfb

>  <Rbt.Executable>
rbdock ($Id: //depot/dev/client3/rdock/2013.1/src/exe/rbdock.cxx#4 $)

>  <Rbt.Library>
libRbt.so (2013.1, Build901 2013/11/27)

>  <Rbt.Parameter_File>
/export/apps/rDock/src/rDock_2013.1_src/data/scripts/dock_solv.prm

>  <Rbt.Receptor>
prm/blind_docking_80.prm

>  <SCORE>
-33.0047

>  <SCORE.INTER>
-29.6797

>  <SCORE.INTER.CONST>
1

>  <SCORE.INTER.POLAR>
0

>  <SCORE.INTER.ROT>
3

>  <SCORE.INTER.SOLV>
14.6948

>  <SCORE.INTER.VDW>
-30.2847

>  <SCORE.INTER.norm>
-0.989322

>  <SCORE.INTRA>
-3.325

>  <SCORE.INTRA.DIHEDRAL>
-7.51188

>  <SCORE.INTRA.DIHEDRAL.0>
9.41909

>  <SCORE.INTRA.POLAR>
0

>  <SCORE.INTRA.POLAR.0>
0

>  <SCORE.INTRA.REPUL>
0.0232641

>  <SCORE.INTRA.REPUL.0>
0

>  <SCORE.INTRA.SOLV>
0.0229542

>  <SCORE.INTRA.SOLV.lig_0>
-26.2491

>  <SCORE.INTRA.VDW>
0.303145

>  <SCORE.INTRA.VDW.0>
2.57239

>  <SCORE.INTRA.norm>
-0.110833

>  <SCORE.RESTR>
0

>  <SCORE.RESTR.CAVITY>
0

>  <SCORE.RESTR.norm>
0

>  <SCORE.SYSTEM>
0

>  <SCORE.SYSTEM.CONST>
0

>  <SCORE.SYSTEM.DIHEDRAL>
0

>  <SCORE.SYSTEM.SOLV>
0

>  <SCORE.SYSTEM.norm>
0

>  <SCORE.heavy>
30

>  <SCORE.norm>
-1.10016

>  <RMSD>
7.759

$$$$
lig.pdb
 OpenBabel11021811523D
libRbt.so/2013.1/901 2013/11/27
 30 34  0  0  0  0  0  0  0  0999 V2000
   26.0111   40.4710   22.7608 N   0  0  0  0  0  0  0  0  0  0  0  0
   25.2755   37.4262   18.9273 N   0  0  0  0  0  0  0  0  0  0  0  0
   26.8388   41.4157   22.0046 C   0  0  0  0  0  0  0  0  0  0  0  0
   27.3270   42.3474   23.1037 C   0  0  2  0  0  0  0  0  0  0  0  0
   25.1980   39.4802   22.0647 C   0  0  0  0  0  0  0  0  0  0  0  0
   23.9590   39.0100   22.5460 C   0  0  0  0  0  0  0  0  0  0  0  0
   23.2050   38.0571   21.9079 C   0  0  0  0  0  0  0  0  0  0  0  0
   22.8641   36.4239   20.0503 C   0  0  0  0  0  0  0  0  0  0  0  0
   26.5564   37.3845   17.0618 C   0  0  0  0  0  0  0  0  0  0  0  0
   26.9302   39.2155   18.8587 C   0  0  0  0  0  0  0  0  0  0  0  0
   25.6485   38.9244   20.8341 C   0  0  0  0  0  0  0  0  0  0  0  0
   21.5087   34.6482   18.1775 O   0  0  0  0  0  0  0  0  0  0  0  0
   22.7346   34.7583   18.1072 C   0  0  0  0  0  0  0  0  0  0  0  0
   23.4917   33.8968   17.4390 O   0  0  0  0  0  0  0  0  0  0  0  0
   23.4395   35.8718   18.7963 C   0  0  1  0  0  0  0  0  0  0  0  0
   21.7768   36.0528   20.5053 O   0  0  0  0  0  0  0  0  0  0  0  0
   24.6234   36.3981   18.2508 C   0  0  0  0  0  0  0  0  0  0  0  0
   26.3519   37.9957   18.2326 C   0  0  0  0  0  0  0  0  0  0  0  0
   25.4295   36.1268   16.7625 S   0  0  0  0  0  0  0  0  0  0  0  0
   24.8622   37.9592   20.1650 C   0  0  0  0  0  0  0  0  0  0  0  0
   23.6539   37.4993   20.7109 C   0  0  0  0  0  0  0  0  0  0  0  0
   23.4612   39.5364   23.6830 F   0  0  0  0  0  0  0  0  0  0  0  0
   26.9021   39.2753   20.3091 N   0  0  0  0  0  0  0  0  0  0  0  0
   27.9663   38.5646   20.9853 C   0  0  0  0  0  0  0  0  0  0  0  0
   25.5968   41.0310   24.0423 C   0  0  0  0  0  0  0  0  0  0  0  0
   28.7534   42.3955   23.1573 O   0  0  0  0  0  0  0  0  0  0  0  0
   26.8879   41.7319   24.4298 C   0  0  2  0  0  0  0  0  0  0  0  0
   26.7761   42.8133   25.4272 N   0  0  0  0  0  0  0  0  0  0  0  0
   25.8584   42.5425   26.5487 C   0  0  0  0  0  0  0  0  0  0  0  0
   28.0803   43.3204   25.8808 C   0  0  0  0  0  0  0  0  0  0  0  0
  1  5  1  0  0  0  0
  2 17  1  0  0  0  0
  3  1  1  0  0  0  0
  4  3  1  0  0  0  0
  4 26  1  1  0  0  0
  5 11  2  0  0  0  0
  5  6  1  0  0  0  0
  6  7  2  0  0  0  0
  7 21  1  0  0  0  0
  8 15  1  0  0  0  0
  8 16  2  0  0  0  0
  9 19  1  0  0  0  0
 10 18  1  0  0  0  0
 11 20  1  0  0  0  0
 13 14  1  0  0  0  0
 13 12  2  0  0  0  0
 15 13  1  6  0  0  0
 17 19  2  0  0  0  0
 17 15  1  0  0  0  0
 18  2  1  0  0  0  0
 18  9  2  0  0  0  0
 20 21  2  0  0  0  0
 20  2  1  0  0  0  0
 21  8  1  0  0  0  0
 22  6  1  0  0  0  0
 23 11  1  0  0  0  0
 23 10  1  0  0  0  0
 24 23  1  0  0  0  0
 25  1  1  0  0  0  0
 27  4  1  0  0  0  0
 27 25  1  0  0  0  0
 27 28  1  1  0  0  0
 29 28  1  0  0  0  0
 30 28  1  0  0  0  0
M  END
>  <CHROM.1>
-147.66892311,6.30848366,30.28455342,61.30858431,155.30207156,25.27630048
38.67518754,20.94325840,1.19134638,0.51787761,0.97841209

>  <Name>
lig.pdb

>  <RI>
0

>  <Rbt.Current_Directory>
/home/itssahil/PROJECTS/Mol_Feturizer/New_Systems/rnas/6bfb

>  <Rbt.Executable>
rbdock ($Id: //depot/dev/client3/rdock/2013.1/src/exe/rbdock.cxx#4 $)

>  <Rbt.Library>
libRbt.so (2013.1, Build901 2013/11/27)

>  <Rbt.Parameter_File>
/export/apps/rDock/src/rDock_2013.1_src/data/scripts/dock_solv.prm

>  <Rbt.Receptor>
prm/pocket_docking_6.prm

>  <SCORE>
-35.2371

>  <SCORE.INTER>
-32.9126

>  <SCORE.INTER.CONST>
1

>  <SCORE.INTER.POLAR>
-1.0198

>  <SCORE.INTER.ROT>
3

>  <SCORE.INTER.SOLV>
13.0363

>  <SCORE.INTER.VDW>
-28.4878

>  <SCORE.INTER.norm>
-1.09709

>  <SCORE.INTRA>
-2.32452

>  <SCORE.INTRA.DIHEDRAL>
-6.98374

>  <SCORE.INTRA.DIHEDRAL.0>
9.41909

>  <SCORE.INTRA.POLAR>
0

>  <SCORE.INTRA.POLAR.0>
0

>  <SCORE.INTRA.REPUL>
0

>  <SCORE.INTRA.REPUL.0>
0

>  <SCORE.INTRA.SOLV>
-0.00280467

>  <SCORE.INTRA.SOLV.lig_0>
-26.2491

>  <SCORE.INTRA.VDW>
1.16875

>  <SCORE.INTRA.VDW.0>
2.57239

>  <SCORE.INTRA.norm>
-0.0774841

>  <SCORE.RESTR>
0

>  <SCORE.RESTR.CAVITY>
0

>  <SCORE.RESTR.norm>
0

>  <SCORE.SYSTEM>
0

>  <SCORE.SYSTEM.CONST>
0

>  <SCORE.SYSTEM.DIHEDRAL>
0

>  <SCORE.SYSTEM.SOLV>
0

>  <SCORE.SYSTEM.norm>
0

>  <SCORE.heavy>
30

>  <SCORE.norm>
-1.17457

>  <RMSD>
7.765

$$$$
lig.pdb
 OpenBabel11021811523D
libRbt.so/2013.1/901 2013/11/27
 30 34  0  0  0  0  0  0  0  0999 V2000
   25.5752   42.1313   25.9484 N   0  0  0  0  0  0  0  0  0  0  0  0
   27.1160   39.3920   22.1236 N   0  0  0  0  0  0  0  0  0  0  0  0
   26.6903   43.0733   25.8115 C   0  0  0  0  0  0  0  0  0  0  0  0
   26.4519   44.0075   26.9883 C   0  0  2  0  0  0  0  0  0  0  0  0
   25.3150   41.1393   24.9112 C   0  0  0  0  0  0  0  0  0  0  0  0
   24.0630   40.5197   24.7205 C   0  0  0  0  0  0  0  0  0  0  0  0
   23.8224   39.5652   23.7640 C   0  0  0  0  0  0  0  0  0  0  0  0
   24.6017   38.0827   21.9123 C   0  0  0  0  0  0  0  0  0  0  0  0
   29.1216   39.6325   21.1026 C   0  0  0  0  0  0  0  0  0  0  0  0
   28.3758   41.3197   22.9243 C   0  0  0  0  0  0  0  0  0  0  0  0
   26.3578   40.7389   24.0289 C   0  0  0  0  0  0  0  0  0  0  0  0
   25.1877   36.8163   18.9490 O   0  0  0  0  0  0  0  0  0  0  0  0
   25.6099   36.5945   20.0859 C   0  0  0  0  0  0  0  0  0  0  0  0
   25.9315   35.3761   20.5031 O   0  0  0  0  0  0  0  0  0  0  0  0
   25.7641   37.6993   21.0694 C   0  0  1  0  0  0  0  0  0  0  0  0
   23.4825   37.5771   21.7749 O   0  0  0  0  0  0  0  0  0  0  0  0
   26.9916   38.3754   21.1795 C   0  0  0  0  0  0  0  0  0  0  0  0
   28.3151   40.1150   22.0529 C   0  0  0  0  0  0  0  0  0  0  0  0
   28.4321   38.3121   20.2526 S   0  0  0  0  0  0  0  0  0  0  0  0
   26.1051   39.7724   23.0292 C   0  0  0  0  0  0  0  0  0  0  0  0
   24.8481   39.1598   22.9101 C   0  0  0  0  0  0  0  0  0  0  0  0
   23.0270   40.8950   25.4971 F   0  0  0  0  0  0  0  0  0  0  0  0
   27.6576   41.2456   24.1840 N   0  0  0  0  0  0  0  0  0  0  0  0
   28.3522   40.5737   25.2615 C   0  0  0  0  0  0  0  0  0  0  0  0
   24.4952   42.6951   26.7503 C   0  0  0  0  0  0  0  0  0  0  0  0
   27.5823   44.0546   27.8599 O   0  0  0  0  0  0  0  0  0  0  0  0
   25.3231   43.3960   27.8142 C   0  0  2  0  0  0  0  0  0  0  0  0
   24.6555   44.4802   28.5595 N   0  0  0  0  0  0  0  0  0  0  0  0
   23.3008   44.1659   29.0489 C   0  0  0  0  0  0  0  0  0  0  0  0
   25.5045   45.0735   29.6040 C   0  0  0  0  0  0  0  0  0  0  0  0
  1  5  1  0  0  0  0
  2 17  1  0  0  0  0
  3  1  1  0  0  0  0
  4  3  1  0  0  0  0
  4 26  1  1  0  0  0
  5 11  2  0  0  0  0
  5  6  1  0  0  0  0
  6  7  2  0  0  0  0
  7 21  1  0  0  0  0
  8 15  1  0  0  0  0
  8 16  2  0  0  0  0
  9 19  1  0  0  0  0
 10 18  1  0  0  0  0
 11 20  1  0  0  0  0
 13 14  1  0  0  0  0
 13 12  2  0  0  0  0
 15 13  1  6  0  0  0
 17 19  2  0  0  0  0
 17 15  1  0  0  0  0
 18  2  1  0  0  0  0
 18  9  2  0  0  0  0
 20 21  2  0  0  0  0
 20  2  1  0  0  0  0
 21  8  1  0  0  0  0
 22  6  1  0  0  0  0
 23 11  1  0  0  0  0
 23 10  1  0  0  0  0
 24 23  1  0  0  0  0
 25  1  1  0  0  0  0
 27  4  1  0  0  0  0
 27 25  1  0  0  0  0
 27 28  1  6  0  0  0
 29 28  1  0  0  0  0
 30 28  1  0  0  0  0
M  END
>  <CHROM.1>
-157.78476089,179.29322588,86.96279808,73.05816689,160.73533947,26.00704391
40.46700856,23.92953005,1.69086830,0.28247871,0.83220688

>  <Name>
lig.pdb

>  <RI>
0

>  <Rbt.Current_Directory>
/home/itssahil/PROJECTS/Mol_Feturizer/New_Systems/rnas/6bfb

>  <Rbt.Executable>
rbdock ($Id: //depot/dev/client3/rdock/2013.1/src/exe/rbdock.cxx#4 $)

>  <Rbt.Library>
libRbt.so (2013.1, Build901 2013/11/27)

>  <Rbt.Parameter_File>
/export/apps/rDock/src/rDock_2013.1_src/data/scripts/dock_solv.prm

>  <Rbt.Receptor>
prm/pocket_docking_6.prm

>  <SCORE>
-39.9562

>  <SCORE.INTER>
-39.1895

>  <SCORE.INTER.CONST>
1

>  <SCORE.INTER.POLAR>
-1.75289

>  <SCORE.INTER.ROT>
3

>  <SCORE.INTER.SOLV>
14.4732

>  <SCORE.INTER.VDW>
-30.7078

>  <SCORE.INTER.norm>
-1.30632

>  <SCORE.INTRA>
-0.766676

>  <SCORE.INTRA.DIHEDRAL>
-6.64485

>  <SCORE.INTRA.DIHEDRAL.0>
9.41909

>  <SCORE.INTRA.POLAR>
0

>  <SCORE.INTRA.POLAR.0>
0

>  <SCORE.INTRA.REPUL>
0

>  <SCORE.INTRA.REPUL.0>
0

>  <SCORE.INTRA.SOLV>
-0.0580419

>  <SCORE.INTRA.SOLV.lig_0>
-26.2491

>  <SCORE.INTRA.VDW>
2.58477

>  <SCORE.INTRA.VDW.0>
2.57239

>  <SCORE.INTRA.norm>
-0.0255559

>  <SCORE.RESTR>
0

>  <SCORE.RESTR.CAVITY>
0

>  <SCORE.RESTR.norm>
0

>  <SCORE.SYSTEM>
0

>  <SCORE.SYSTEM.CONST>
0

>  <SCORE.SYSTEM.DIHEDRAL>
0

>  <SCORE.SYSTEM.SOLV>
0

>  <SCORE.SYSTEM.norm>
0

>  <SCORE.heavy>
30

>  <SCORE.norm>
-1.33187

>  <RMSD>
7.766

$$$$
lig.pdb
 OpenBabel11021811523D
libRbt.so/2013.1/901 2013/11/27
 30 34  0  0  0  0  0  0  0  0999 V2000
   26.0280   40.4064   22.6604 N   0  0  0  0  0  0  0  0  0  0  0  0
   25.3503   37.4072   18.7807 N   0  0  0  0  0  0  0  0  0  0  0  0
   26.8642   41.3592   21.9238 C   0  0  0  0  0  0  0  0  0  0  0  0
   27.3315   42.2851   23.0367 C   0  0  2  0  0  0  0  0  0  0  0  0
   25.2296   39.4175   21.9447 C   0  0  0  0  0  0  0  0  0  0  0  0
   23.9916   38.9292   22.4102 C   0  0  0  0  0  0  0  0  0  0  0  0
   23.2516   37.9778   21.7536 C   0  0  0  0  0  0  0  0  0  0  0  0
   22.9403   36.3669   19.8716 C   0  0  0  0  0  0  0  0  0  0  0  0
   26.6454   37.4029   16.9245 C   0  0  0  0  0  0  0  0  0  0  0  0
   26.9882   39.2128   18.7488 C   0  0  0  0  0  0  0  0  0  0  0  0
   25.6947   38.8827   20.7103 C   0  0  0  0  0  0  0  0  0  0  0  0
   21.6149   34.7236   17.7784 O   0  0  0  0  0  0  0  0  0  0  0  0
   22.8413   34.7267   17.9053 C   0  0  0  0  0  0  0  0  0  0  0  0
   23.6095   33.7489   17.4408 O   0  0  0  0  0  0  0  0  0  0  0  0
   23.5303   35.8373   18.6147 C   0  0  1  0  0  0  0  0  0  0  0  0
   21.8532   35.9793   20.3133 O   0  0  0  0  0  0  0  0  0  0  0  0
   24.7131   36.3821   18.0854 C   0  0  0  0  0  0  0  0  0  0  0  0
   26.4263   37.9962   18.1019 C   0  0  0  0  0  0  0  0  0  0  0  0
   25.5329   36.1387   16.5997 S   0  0  0  0  0  0  0  0  0  0  0  0
   24.9226   37.9194   20.0222 C   0  0  0  0  0  0  0  0  0  0  0  0
   23.7147   37.4407   20.5527 C   0  0  0  0  0  0  0  0  0  0  0  0
   23.4804   39.4353   23.5504 F   0  0  0  0  0  0  0  0  0  0  0  0
   26.9487   39.2527   20.1996 N   0  0  0  0  0  0  0  0  0  0  0  0
   28.0146   38.5429   20.8742 C   0  0  0  0  0  0  0  0  0  0  0  0
   25.5914   40.9563   23.9388 C   0  0  0  0  0  0  0  0  0  0  0  0
   28.7567   42.3379   23.1133 O   0  0  0  0  0  0  0  0  0  0  0  0
   26.8736   41.6592   24.3515 C   0  0  2  0  0  0  0  0  0  0  0  0
   26.7420   42.7334   25.3542 N   0  0  0  0  0  0  0  0  0  0  0  0
   25.8331   42.4384   26.4768 C   0  0  0  0  0  0  0  0  0  0  0  0
   28.0366   43.2654   25.8068 C   0  0  0  0  0  0  0  0  0  0  0  0
  1  5  1  0  0  0  0
  2 17  1  0  0  0  0
  3  1  1  0  0  0  0
  4  3  1  0  0  0  0
  4 26  1  1  0  0  0
  5 11  2  0  0  0  0
  5  6  1  0  0  0  0
  6  7  2  0  0  0  0
  7 21  1  0  0  0  0
  8 15  1  0  0  0  0
  8 16  2  0  0  0  0
  9 19  1  0  0  0  0
 10 18  1  0  0  0  0
 11 20  1  0  0  0  0
 13 14  1  0  0  0  0
 13 12  2  0  0  0  0
 15 13  1  6  0  0  0
 17 19  2  0  0  0  0
 17 15  1  0  0  0  0
 18  2  1  0  0  0  0
 18  9  2  0  0  0  0
 20 21  2  0  0  0  0
 20  2  1  0  0  0  0
 21  8  1  0  0  0  0
 22  6  1  0  0  0  0
 23 11  1  0  0  0  0
 23 10  1  0  0  0  0
 24 23  1  0  0  0  0
 25  1  1  0  0  0  0
 27  4  1  0  0  0  0
 27 25  1  0  0  0  0
 27 28  1  1  0  0  0
 29 28  1  0  0  0  0
 30 28  1  0  0  0  0
M  END
>  <CHROM.1>
-148.37487045,5.99393628,42.28499666,-59.06774473,156.75572047,25.32406510
38.62636347,20.81580346,1.20543973,0.51681311,0.98291150

>  <Name>
lig.pdb

>  <RI>
0

>  <Rbt.Current_Directory>
/home/itssahil/PROJECTS/Mol_Feturizer/New_Systems/rnas/6bfb

>  <Rbt.Executable>
rbdock ($Id: //depot/dev/client3/rdock/2013.1/src/exe/rbdock.cxx#4 $)

>  <Rbt.Library>
libRbt.so (2013.1, Build901 2013/11/27)

>  <Rbt.Parameter_File>
/export/apps/rDock/src/rDock_2013.1_src/data/scripts/dock_solv.prm

>  <Rbt.Receptor>
prm/blind_docking_60.prm

>  <SCORE>
-34.3077

>  <SCORE.INTER>
-32.1138

>  <SCORE.INTER.CONST>
1

>  <SCORE.INTER.POLAR>
-1.01844

>  <SCORE.INTER.ROT>
3

>  <SCORE.INTER.SOLV>
12.6847

>  <SCORE.INTER.VDW>
-27.8426

>  <SCORE.INTER.norm>
-1.07046

>  <SCORE.INTRA>
-2.19395

>  <SCORE.INTRA.DIHEDRAL>
-7.07994

>  <SCORE.INTRA.DIHEDRAL.0>
9.41909

>  <SCORE.INTRA.POLAR>
0

>  <SCORE.INTRA.POLAR.0>
0

>  <SCORE.INTRA.REPUL>
0

>  <SCORE.INTRA.REPUL.0>
0

>  <SCORE.INTRA.SOLV>
-0.00441675

>  <SCORE.INTRA.SOLV.lig_0>
-26.2491

>  <SCORE.INTRA.VDW>
1.34823

>  <SCORE.INTRA.VDW.0>
2.57239

>  <SCORE.INTRA.norm>
-0.0731318

>  <SCORE.RESTR>
0

>  <SCORE.RESTR.CAVITY>
0

>  <SCORE.RESTR.norm>
0

>  <SCORE.SYSTEM>
0

>  <SCORE.SYSTEM.CONST>
0

>  <SCORE.SYSTEM.DIHEDRAL>
0

>  <SCORE.SYSTEM.SOLV>
0

>  <SCORE.SYSTEM.norm>
0

>  <SCORE.heavy>
30

>  <SCORE.norm>
-1.14359

>  <RMSD>
7.805

$$$$
lig.pdb
 OpenBabel11021811523D
libRbt.so/2013.1/901 2013/11/27
 30 34  0  0  0  0  0  0  0  0999 V2000
   25.5386   40.0204   22.9155 N   0  0  0  0  0  0  0  0  0  0  0  0
   25.3888   37.2556   18.8117 N   0  0  0  0  0  0  0  0  0  0  0  0
   25.6959   39.7638   24.3504 C   0  0  0  0  0  0  0  0  0  0  0  0
   26.6050   40.9087   24.7712 C   0  0  2  0  0  0  0  0  0  0  0  0
   24.8605   39.0512   22.0620 C   0  0  0  0  0  0  0  0  0  0  0  0
   23.6040   38.4884   22.3657 C   0  0  0  0  0  0  0  0  0  0  0  0
   22.9763   37.5550   21.5792 C   0  0  0  0  0  0  0  0  0  0  0  0
   22.9277   36.0589   19.5809 C   0  0  0  0  0  0  0  0  0  0  0  0
   26.8647   37.4192   17.1036 C   0  0  0  0  0  0  0  0  0  0  0  0
   26.9418   39.1186   19.0599 C   0  0  0  0  0  0  0  0  0  0  0  0
   25.4713   38.6149   20.8526 C   0  0  0  0  0  0  0  0  0  0  0  0
   23.7950   33.5873   17.1780 O   0  0  0  0  0  0  0  0  0  0  0  0
   23.1000   34.5469   17.5191 C   0  0  0  0  0  0  0  0  0  0  0  0
   21.8322   34.6778   17.1484 O   0  0  0  0  0  0  0  0  0  0  0  0
   23.6647   35.6339   18.3624 C   0  0  1  0  0  0  0  0  0  0  0  0
   21.8192   35.6038   19.8827 O   0  0  0  0  0  0  0  0  0  0  0  0
   24.8705   36.2550   17.9931 C   0  0  0  0  0  0  0  0  0  0  0  0
   26.5017   37.9266   18.2855 C   0  0  0  0  0  0  0  0  0  0  0  0
   25.8467   36.1386   16.5888 S   0  0  0  0  0  0  0  0  0  0  0  0
   24.8155   37.6703   20.0308 C   0  0  0  0  0  0  0  0  0  0  0  0
   23.5818   37.1141   20.4026 C   0  0  0  0  0  0  0  0  0  0  0  0
   22.9582   38.9005   23.4751 F   0  0  0  0  0  0  0  0  0  0  0  0
   26.7535   39.0630   20.4985 N   0  0  0  0  0  0  0  0  0  0  0  0
   27.7750   38.3508   21.2361 C   0  0  0  0  0  0  0  0  0  0  0  0
   26.6108   40.8664   22.4036 C   0  0  0  0  0  0  0  0  0  0  0  0
   26.0129   41.6983   25.8036 O   0  0  0  0  0  0  0  0  0  0  0  0
   26.7301   41.8373   23.5662 C   0  0  2  0  0  0  0  0  0  0  0  0
   28.0030   42.5743   23.6803 N   0  0  0  0  0  0  0  0  0  0  0  0
   28.5864   43.0240   22.4032 C   0  0  0  0  0  0  0  0  0  0  0  0
   27.9635   43.6468   24.6863 C   0  0  0  0  0  0  0  0  0  0  0  0
  1  5  1  0  0  0  0
  2 17  1  0  0  0  0
  3  1  1  0  0  0  0
  4  3  1  0  0  0  0
  4 26  1  1  0  0  0
  5 11  2  0  0  0  0
  5  6  1  0  0  0  0
  6  7  2  0  0  0  0
  7 21  1  0  0  0  0
  8 15  1  0  0  0  0
  8 16  2  0  0  0  0
  9 19  1  0  0  0  0
 10 18  1  0  0  0  0
 11 20  1  0  0  0  0
 13 14  1  0  0  0  0
 13 12  2  0  0  0  0
 15 13  1  6  0  0  0
 17 19  2  0  0  0  0
 17 15  1  0  0  0  0
 18  2  1  0  0  0  0
 18  9  2  0  0  0  0
 20 21  2  0  0  0  0
 20  2  1  0  0  0  0
 21  8  1  0  0  0  0
 22  6  1  0  0  0  0
 23 11  1  0  0  0  0
 23 10  1  0  0  0  0
 24 23  1  0  0  0  0
 25  1  1  0  0  0  0
 27  4  1  0  0  0  0
 27 25  1  0  0  0  0
 27 28  1  1  0  0  0
 29 28  1  0  0  0  0
 30 28  1  0  0  0  0
M  END
>  <CHROM.1>
49.62707439,7.82032963,-129.76846679,158.74039744,153.42490536,25.28158485
38.38303505,20.71154559,1.18441416,0.55448139,0.99349389

>  <Name>
lig.pdb

>  <RI>
0

>  <Rbt.Current_Directory>
/home/itssahil/PROJECTS/Mol_Feturizer/New_Systems/rnas/6bfb

>  <Rbt.Executable>
rbdock ($Id: //depot/dev/client3/rdock/2013.1/src/exe/rbdock.cxx#4 $)

>  <Rbt.Library>
libRbt.so (2013.1, Build901 2013/11/27)

>  <Rbt.Parameter_File>
/export/apps/rDock/src/rDock_2013.1_src/data/scripts/dock_solv.prm

>  <Rbt.Receptor>
prm/blind_docking_100.prm

>  <SCORE>
-30.7558

>  <SCORE.INTER>
-30.3529

>  <SCORE.INTER.CONST>
1

>  <SCORE.INTER.POLAR>
-0.956299

>  <SCORE.INTER.ROT>
3

>  <SCORE.INTER.SOLV>
13.948

>  <SCORE.INTER.VDW>
-27.297

>  <SCORE.INTER.norm>
-1.01176

>  <SCORE.INTRA>
-0.402857

>  <SCORE.INTRA.DIHEDRAL>
-4.76674

>  <SCORE.INTRA.DIHEDRAL.0>
9.41909

>  <SCORE.INTRA.POLAR>
0

>  <SCORE.INTRA.POLAR.0>
0

>  <SCORE.INTRA.REPUL>
0

>  <SCORE.INTRA.REPUL.0>
0

>  <SCORE.INTRA.SOLV>
0.0118374

>  <SCORE.INTRA.SOLV.lig_0>
-26.2491

>  <SCORE.INTRA.VDW>
1.9746

>  <SCORE.INTRA.VDW.0>
2.57239

>  <SCORE.INTRA.norm>
-0.0134286

>  <SCORE.RESTR>
0

>  <SCORE.RESTR.CAVITY>
0

>  <SCORE.RESTR.norm>
0

>  <SCORE.SYSTEM>
0

>  <SCORE.SYSTEM.CONST>
0

>  <SCORE.SYSTEM.DIHEDRAL>
0

>  <SCORE.SYSTEM.SOLV>
0

>  <SCORE.SYSTEM.norm>
0

>  <SCORE.heavy>
30

>  <SCORE.norm>
-1.02519

>  <RMSD>
7.807

$$$$
lig.pdb
 OpenBabel11021811523D
libRbt.so/2013.1/901 2013/11/27
 30 34  0  0  0  0  0  0  0  0999 V2000
   25.5975   40.2804   23.0047 N   0  0  0  0  0  0  0  0  0  0  0  0
   25.1520   37.4249   18.9853 N   0  0  0  0  0  0  0  0  0  0  0  0
   25.9512   41.5806   22.4268 C   0  0  0  0  0  0  0  0  0  0  0  0
   26.5176   42.3118   23.6346 C   0  0  2  0  0  0  0  0  0  0  0  0
   24.8549   39.3008   22.2196 C   0  0  0  0  0  0  0  0  0  0  0  0
   23.6141   38.7615   22.6164 C   0  0  0  0  0  0  0  0  0  0  0  0
   22.9264   37.8186   21.8940 C   0  0  0  0  0  0  0  0  0  0  0  0
   22.7320   36.2780   19.9388 C   0  0  0  0  0  0  0  0  0  0  0  0
   26.5165   37.5304   17.1827 C   0  0  0  0  0  0  0  0  0  0  0  0
   26.7390   39.2728   19.0894 C   0  0  0  0  0  0  0  0  0  0  0  0
   25.3813   38.8292   20.9840 C   0  0  0  0  0  0  0  0  0  0  0  0
   21.5323   34.6794   17.7438 O   0  0  0  0  0  0  0  0  0  0  0  0
   22.7538   34.7173   17.9065 C   0  0  0  0  0  0  0  0  0  0  0  0
   23.5680   33.7884   17.4205 O   0  0  0  0  0  0  0  0  0  0  0  0
   23.3841   35.8158   18.6859 C   0  0  1  0  0  0  0  0  0  0  0  0
   21.6401   35.8443   20.3218 O   0  0  0  0  0  0  0  0  0  0  0  0
   24.5706   36.4127   18.2254 C   0  0  0  0  0  0  0  0  0  0  0  0
   26.2363   38.0692   18.3732 C   0  0  0  0  0  0  0  0  0  0  0  0
   25.4528   36.2517   16.7646 S   0  0  0  0  0  0  0  0  0  0  0  0
   24.6632   37.8747   20.2285 C   0  0  0  0  0  0  0  0  0  0  0  0
   23.4498   37.3432   20.6918 C   0  0  0  0  0  0  0  0  0  0  0  0
   23.0459   39.2071   23.7549 F   0  0  0  0  0  0  0  0  0  0  0  0
   26.6431   39.2525   20.5380 N   0  0  0  0  0  0  0  0  0  0  0  0
   27.7019   38.5441   21.2251 C   0  0  0  0  0  0  0  0  0  0  0  0
   25.4533   40.3615   24.4538 C   0  0  0  0  0  0  0  0  0  0  0  0
   27.8547   42.7562   23.4010 O   0  0  0  0  0  0  0  0  0  0  0  0
   26.6176   41.2878   24.7622 C   0  0  2  0  0  0  0  0  0  0  0  0
   26.5622   42.0088   26.0482 N   0  0  0  0  0  0  0  0  0  0  0  0
   27.6988   42.9094   26.3141 C   0  0  0  0  0  0  0  0  0  0  0  0
   25.2648   42.6572   26.2935 C   0  0  0  0  0  0  0  0  0  0  0  0
  1  5  1  0  0  0  0
  2 17  1  0  0  0  0
  3  1  1  0  0  0  0
  4  3  1  0  0  0  0
  4 26  1  6  0  0  0
  5 11  2  0  0  0  0
  5  6  1  0  0  0  0
  6  7  2  0  0  0  0
  7 21  1  0  0  0  0
  8 15  1  0  0  0  0
  8 16  2  0  0  0  0
  9 19  1  0  0  0  0
 10 18  1  0  0  0  0
 11 20  1  0  0  0  0
 13 14  1  0  0  0  0
 13 12  2  0  0  0  0
 15 13  1  6  0  0  0
 17 19  2  0  0  0  0
 17 15  1  0  0  0  0
 18  2  1  0  0  0  0
 18  9  2  0  0  0  0
 20 21  2  0  0  0  0
 20  2  1  0  0  0  0
 21  8  1  0  0  0  0
 22  6  1  0  0  0  0
 23 11  1  0  0  0  0
 23 10  1  0  0  0  0
 24 23  1  0  0  0  0
 25  1  1  0  0  0  0
 27  4  1  0  0  0  0
 27 25  1  0  0  0  0
 27 28  1  1  0  0  0
 29 28  1  0  0  0  0
 30 28  1  0  0  0  0
M  END
>  <CHROM.1>
-122.15558326,2.48750383,41.50485342,66.86168351,-65.22257631,25.01841866
38.57292590,21.05111853,1.24612291,0.53715883,0.99835995

>  <Name>
lig.pdb

>  <RI>
0

>  <Rbt.Current_Directory>
/home/itssahil/PROJECTS/Mol_Feturizer/New_Systems/rnas/6bfb

>  <Rbt.Executable>
rbdock ($Id: //depot/dev/client3/rdock/2013.1/src/exe/rbdock.cxx#4 $)

>  <Rbt.Library>
libRbt.so (2013.1, Build901 2013/11/27)

>  <Rbt.Parameter_File>
/export/apps/rDock/src/rDock_2013.1_src/data/scripts/dock_solv.prm

>  <Rbt.Receptor>
prm/blind_docking_80.prm

>  <SCORE>
-36.9003

>  <SCORE.INTER>
-33.2289

>  <SCORE.INTER.CONST>
1

>  <SCORE.INTER.POLAR>
-1.0198

>  <SCORE.INTER.ROT>
3

>  <SCORE.INTER.SOLV>
14.6368

>  <SCORE.INTER.VDW>
-29.2322

>  <SCORE.INTER.norm>
-1.10763

>  <SCORE.INTRA>
-3.67133

>  <SCORE.INTRA.DIHEDRAL>
-7.49237

>  <SCORE.INTRA.DIHEDRAL.0>
9.41909

>  <SCORE.INTRA.POLAR>
0

>  <SCORE.INTRA.POLAR.0>
0

>  <SCORE.INTRA.REPUL>
0.0250253

>  <SCORE.INTRA.REPUL.0>
0

>  <SCORE.INTRA.SOLV>
0.0234894

>  <SCORE.INTRA.SOLV.lig_0>
-26.2491

>  <SCORE.INTRA.VDW>
-0.0620155

>  <SCORE.INTRA.VDW.0>
2.57239

>  <SCORE.INTRA.norm>
-0.122378

>  <SCORE.RESTR>
0

>  <SCORE.RESTR.CAVITY>
0

>  <SCORE.RESTR.norm>
0

>  <SCORE.SYSTEM>
0

>  <SCORE.SYSTEM.CONST>
0

>  <SCORE.SYSTEM.DIHEDRAL>
0

>  <SCORE.SYSTEM.SOLV>
0

>  <SCORE.SYSTEM.norm>
0

>  <SCORE.heavy>
30

>  <SCORE.norm>
-1.23001

>  <RMSD>
7.827

$$$$
lig.pdb
 OpenBabel11021811523D
libRbt.so/2013.1/901 2013/11/27
 30 34  0  0  0  0  0  0  0  0999 V2000
   25.9305   39.8739   22.7043 N   0  0  0  0  0  0  0  0  0  0  0  0
   25.5071   37.1330   18.6036 N   0  0  0  0  0  0  0  0  0  0  0  0
   26.9951   39.4011   23.5946 C   0  0  0  0  0  0  0  0  0  0  0  0
   27.5986   40.7114   24.0776 C   0  0  2  0  0  0  0  0  0  0  0  0
   25.1841   38.9302   21.8798 C   0  0  0  0  0  0  0  0  0  0  0  0
   23.9255   38.4060   22.2387 C   0  0  0  0  0  0  0  0  0  0  0  0
   23.2335   37.4962   21.4789 C   0  0  0  0  0  0  0  0  0  0  0  0
   23.0469   36.0110   19.4806 C   0  0  0  0  0  0  0  0  0  0  0  0
   26.9084   37.2574   16.8306 C   0  0  0  0  0  0  0  0  0  0  0  0
   27.1280   38.9451   18.7863 C   0  0  0  0  0  0  0  0  0  0  0  0
   25.7251   38.4801   20.6425 C   0  0  0  0  0  0  0  0  0  0  0  0
   23.7257   33.5243   17.0327 O   0  0  0  0  0  0  0  0  0  0  0  0
   23.0774   34.5033   17.4087 C   0  0  0  0  0  0  0  0  0  0  0  0
   21.7985   34.6752   17.0975 O   0  0  0  0  0  0  0  0  0  0  0  0
   23.7139   35.5683   18.2286 C   0  0  1  0  0  0  0  0  0  0  0  0
   21.9393   35.5898   19.8312 O   0  0  0  0  0  0  0  0  0  0  0  0
   24.9208   36.1527   17.8065 C   0  0  0  0  0  0  0  0  0  0  0  0
   26.6157   37.7708   18.0293 C   0  0  0  0  0  0  0  0  0  0  0  0
   25.8280   36.0117   16.3589 S   0  0  0  0  0  0  0  0  0  0  0  0
   25.0032   37.5603   19.8487 C   0  0  0  0  0  0  0  0  0  0  0  0
   23.7707   37.0416   20.2747 C   0  0  0  0  0  0  0  0  0  0  0  0
   23.3441   38.8334   23.3775 F   0  0  0  0  0  0  0  0  0  0  0  0
   27.0035   38.8892   20.2318 N   0  0  0  0  0  0  0  0  0  0  0  0
   28.0345   38.1420   20.9200 C   0  0  0  0  0  0  0  0  0  0  0  0
   26.1707   41.2439   22.2652 C   0  0  0  0  0  0  0  0  0  0  0  0
   27.5658   40.8121   25.5019 O   0  0  0  0  0  0  0  0  0  0  0  0
   26.6919   41.8284   23.5672 C   0  0  2  0  0  0  0  0  0  0  0  0
   27.4934   43.0624   23.4605 N   0  0  0  0  0  0  0  0  0  0  0  0
   27.9573   43.6242   24.7421 C   0  0  0  0  0  0  0  0  0  0  0  0
   28.5740   42.9674   22.4669 C   0  0  0  0  0  0  0  0  0  0  0  0
  1  5  1  0  0  0  0
  2 17  1  0  0  0  0
  3  1  1  0  0  0  0
  4  3  1  0  0  0  0
  4 26  1  1  0  0  0
  5 11  2  0  0  0  0
  5  6  1  0  0  0  0
  6  7  2  0  0  0  0
  7 21  1  0  0  0  0
  8 15  1  0  0  0  0
  8 16  2  0  0  0  0
  9 19  1  0  0  0  0
 10 18  1  0  0  0  0
 11 20  1  0  0  0  0
 13 14  1  0  0  0  0
 13 12  2  0  0  0  0
 15 13  1  6  0  0  0
 17 19  2  0  0  0  0
 17 15  1  0  0  0  0
 18  2  1  0  0  0  0
 18  9  2  0  0  0  0
 20 21  2  0  0  0  0
 20  2  1  0  0  0  0
 21  8  1  0  0  0  0
 22  6  1  0  0  0  0
 23 11  1  0  0  0  0
 23 10  1  0  0  0  0
 24 23  1  0  0  0  0
 25  1  1  0  0  0  0
 27  4  1  0  0  0  0
 27 25  1  0  0  0  0
 27 28  1  6  0  0  0
 29 28  1  0  0  0  0
 30 28  1  0  0  0  0
M  END
>  <CHROM.1>
97.48273629,8.56119625,-129.82658895,62.36342981,-67.21476326,25.49009405
38.27761587,20.51796566,1.14052226,0.55230522,1.01571460

>  <Name>
lig.pdb

>  <RI>
0

>  <Rbt.Current_Directory>
/home/itssahil/PROJECTS/Mol_Feturizer/New_Systems/rnas/6bfb

>  <Rbt.Executable>
rbdock ($Id: //depot/dev/client3/rdock/2013.1/src/exe/rbdock.cxx#4 $)

>  <Rbt.Library>
libRbt.so (2013.1, Build901 2013/11/27)

>  <Rbt.Parameter_File>
/export/apps/rDock/src/rDock_2013.1_src/data/scripts/dock_solv.prm

>  <Rbt.Receptor>
prm/pocket_docking_4.prm

>  <SCORE>
-35.3699

>  <SCORE.INTER>
-31.2468

>  <SCORE.INTER.CONST>
1

>  <SCORE.INTER.POLAR>
-0.899022

>  <SCORE.INTER.ROT>
3

>  <SCORE.INTER.SOLV>
14.859

>  <SCORE.INTER.VDW>
-28.3875

>  <SCORE.INTER.norm>
-1.04156

>  <SCORE.INTRA>
-4.1231

>  <SCORE.INTRA.DIHEDRAL>
-7.23249

>  <SCORE.INTRA.DIHEDRAL.0>
9.41909

>  <SCORE.INTRA.POLAR>
0

>  <SCORE.INTRA.POLAR.0>
0

>  <SCORE.INTRA.REPUL>
0

>  <SCORE.INTRA.REPUL.0>
0

>  <SCORE.INTRA.SOLV>
0.139305

>  <SCORE.INTRA.SOLV.lig_0>
-26.2491

>  <SCORE.INTRA.VDW>
-0.576511

>  <SCORE.INTRA.VDW.0>
2.57239

>  <SCORE.INTRA.norm>
-0.137437

>  <SCORE.RESTR>
0

>  <SCORE.RESTR.CAVITY>
0

>  <SCORE.RESTR.norm>
0

>  <SCORE.SYSTEM>
0

>  <SCORE.SYSTEM.CONST>
0

>  <SCORE.SYSTEM.DIHEDRAL>
0

>  <SCORE.SYSTEM.SOLV>
0

>  <SCORE.SYSTEM.norm>
0

>  <SCORE.heavy>
30

>  <SCORE.norm>
-1.179

>  <RMSD>
7.830

$$$$
lig.pdb
 OpenBabel11021811523D
libRbt.so/2013.1/901 2013/11/27
 30 34  0  0  0  0  0  0  0  0999 V2000
   26.1167   39.7026   22.6656 N   0  0  0  0  0  0  0  0  0  0  0  0
   25.5562   37.0283   18.5375 N   0  0  0  0  0  0  0  0  0  0  0  0
   27.3622   39.2438   23.2883 C   0  0  0  0  0  0  0  0  0  0  0  0
   27.9152   40.5389   23.8640 C   0  0  2  0  0  0  0  0  0  0  0  0
   25.3284   38.7975   21.8369 C   0  0  0  0  0  0  0  0  0  0  0  0
   24.0540   38.3167   22.2008 C   0  0  0  0  0  0  0  0  0  0  0  0
   23.3219   37.4426   21.4367 C   0  0  0  0  0  0  0  0  0  0  0  0
   23.0629   35.9893   19.4231 C   0  0  0  0  0  0  0  0  0  0  0  0
   26.9464   37.1210   16.7538 C   0  0  0  0  0  0  0  0  0  0  0  0
   27.2456   38.7760   18.7268 C   0  0  0  0  0  0  0  0  0  0  0  0
   25.8418   38.3421   20.5898 C   0  0  0  0  0  0  0  0  0  0  0  0
   23.6548   33.5753   16.8339 O   0  0  0  0  0  0  0  0  0  0  0  0
   23.0194   34.5061   17.3338 C   0  0  0  0  0  0  0  0  0  0  0  0
   21.7124   34.6551   17.1557 O   0  0  0  0  0  0  0  0  0  0  0  0
   23.7023   35.5367   18.1602 C   0  0  1  0  0  0  0  0  0  0  0  0
   21.9432   35.6058   19.7785 O   0  0  0  0  0  0  0  0  0  0  0  0
   24.9267   36.0803   17.7344 C   0  0  0  0  0  0  0  0  0  0  0  0
   26.6832   37.6308   17.9609 C   0  0  0  0  0  0  0  0  0  0  0  0
   25.8159   35.9225   16.2773 S   0  0  0  0  0  0  0  0  0  0  0  0
   25.0791   37.4594   19.7918 C   0  0  0  0  0  0  0  0  0  0  0  0
   23.8316   36.9824   20.2226 C   0  0  0  0  0  0  0  0  0  0  0  0
   23.4986   38.7522   23.3495 F   0  0  0  0  0  0  0  0  0  0  0  0
   27.1312   38.7077   20.1726 N   0  0  0  0  0  0  0  0  0  0  0  0
   28.1390   37.9142   20.8431 C   0  0  0  0  0  0  0  0  0  0  0  0
   26.1445   41.1384   22.4104 C   0  0  0  0  0  0  0  0  0  0  0  0
   28.1263   40.4403   25.2731 O   0  0  0  0  0  0  0  0  0  0  0  0
   26.8309   41.5984   23.6855 C   0  0  2  0  0  0  0  0  0  0  0  0
   27.4805   42.9224   23.6425 N   0  0  0  0  0  0  0  0  0  0  0  0
   27.9774   43.4218   24.9376 C   0  0  0  0  0  0  0  0  0  0  0  0
   28.4846   43.0407   22.5742 C   0  0  0  0  0  0  0  0  0  0  0  0
  1  5  1  0  0  0  0
  2 17  1  0  0  0  0
  3  1  1  0  0  0  0
  4  3  1  0  0  0  0
  4 26  1  1  0  0  0
  5 11  2  0  0  0  0
  5  6  1  0  0  0  0
  6  7  2  0  0  0  0
  7 21  1  0  0  0  0
  8 15  1  0  0  0  0
  8 16  2  0  0  0  0
  9 19  1  0  0  0  0
 10 18  1  0  0  0  0
 11 20  1  0  0  0  0
 13 14  1  0  0  0  0
 13 12  2  0  0  0  0
 15 13  1  6  0  0  0
 17 19  2  0  0  0  0
 17 15  1  0  0  0  0
 18  2  1  0  0  0  0
 18  9  2  0  0  0  0
 20 21  2  0  0  0  0
 20  2  1  0  0  0  0
 21  8  1  0  0  0  0
 22  6  1  0  0  0  0
 23 11  1  0  0  0  0
 23 10  1  0  0  0  0
 24 23  1  0  0  0  0
 25  1  1  0  0  0  0
 27  4  1  0  0  0  0
 27 25  1  0  0  0  0
 27 28  1  6  0  0  0
 29 28  1  0  0  0  0
 30 28  1  0  0  0  0
M  END
>  <CHROM.1>
112.19949774,8.92617612,-136.82874110,63.73936615,-73.71530056,25.57233912
38.16947787,20.47273324,1.13198830,0.50638977,1.01938670

>  <Name>
lig.pdb

>  <RI>
0

>  <Rbt.Current_Directory>
/home/itssahil/PROJECTS/Mol_Feturizer/New_Systems/rnas/6bfb

>  <Rbt.Executable>
rbdock ($Id: //depot/dev/client3/rdock/2013.1/src/exe/rbdock.cxx#4 $)

>  <Rbt.Library>
libRbt.so (2013.1, Build901 2013/11/27)

>  <Rbt.Parameter_File>
/export/apps/rDock/src/rDock_2013.1_src/data/scripts/dock_solv.prm

>  <Rbt.Receptor>
prm/blind_docking_100.prm

>  <SCORE>
-38.4557

>  <SCORE.INTER>
-36.154

>  <SCORE.INTER.CONST>
1

>  <SCORE.INTER.POLAR>
-1.76141

>  <SCORE.INTER.ROT>
3

>  <SCORE.INTER.SOLV>
14.584

>  <SCORE.INTER.VDW>
-28.6926

>  <SCORE.INTER.norm>
-1.20513

>  <SCORE.INTRA>
-2.30176

>  <SCORE.INTRA.DIHEDRAL>
-7.05601

>  <SCORE.INTRA.DIHEDRAL.0>
9.41909

>  <SCORE.INTRA.POLAR>
0

>  <SCORE.INTRA.POLAR.0>
0

>  <SCORE.INTRA.REPUL>
0

>  <SCORE.INTRA.REPUL.0>
0

>  <SCORE.INTRA.SOLV>
0.162652

>  <SCORE.INTRA.SOLV.lig_0>
-26.2491

>  <SCORE.INTRA.VDW>
1.14492

>  <SCORE.INTRA.VDW.0>
2.57239

>  <SCORE.INTRA.norm>
-0.0767252

>  <SCORE.RESTR>
0

>  <SCORE.RESTR.CAVITY>
0

>  <SCORE.RESTR.norm>
0

>  <SCORE.SYSTEM>
0

>  <SCORE.SYSTEM.CONST>
0

>  <SCORE.SYSTEM.DIHEDRAL>
0

>  <SCORE.SYSTEM.SOLV>
0

>  <SCORE.SYSTEM.norm>
0

>  <SCORE.heavy>
30

>  <SCORE.norm>
-1.28186

>  <RMSD>
7.857

$$$$
lig.pdb
 OpenBabel11021811523D
libRbt.so/2013.1/901 2013/11/27
 30 34  0  0  0  0  0  0  0  0999 V2000
   26.1837   40.5012   22.2702 N   0  0  0  0  0  0  0  0  0  0  0  0
   25.6638   37.2596   18.5649 N   0  0  0  0  0  0  0  0  0  0  0  0
   26.7509   41.6052   21.4898 C   0  0  0  0  0  0  0  0  0  0  0  0
   27.2465   42.5361   22.5862 C   0  0  2  0  0  0  0  0  0  0  0  0
   25.4347   39.4383   21.6093 C   0  0  0  0  0  0  0  0  0  0  0  0
   24.2174   38.9214   22.0980 C   0  0  0  0  0  0  0  0  0  0  0  0
   23.5246   37.9019   21.4941 C   0  0  0  0  0  0  0  0  0  0  0  0
   23.2969   36.1746   19.7057 C   0  0  0  0  0  0  0  0  0  0  0  0
   26.9683   37.2090   16.7160 C   0  0  0  0  0  0  0  0  0  0  0  0
   27.2188   39.1329   18.4357 C   0  0  0  0  0  0  0  0  0  0  0  0
   25.9304   38.8561   20.4087 C   0  0  0  0  0  0  0  0  0  0  0  0
   23.7563   33.2937   17.9791 O   0  0  0  0  0  0  0  0  0  0  0  0
   23.2831   34.4230   17.8353 C   0  0  0  0  0  0  0  0  0  0  0  0
   22.2076   34.6573   17.0934 O   0  0  0  0  0  0  0  0  0  0  0  0
   23.9173   35.6021   18.4827 C   0  0  1  0  0  0  0  0  0  0  0  0
   22.2259   35.7638   20.1652 O   0  0  0  0  0  0  0  0  0  0  0  0
   25.0774   36.1691   17.9269 C   0  0  0  0  0  0  0  0  0  0  0  0
   26.7160   37.8574   17.8571 C   0  0  0  0  0  0  0  0  0  0  0  0
   25.9157   35.8794   16.4601 S   0  0  0  0  0  0  0  0  0  0  0  0
   25.2064   37.8214   19.7740 C   0  0  0  0  0  0  0  0  0  0  0  0
   24.0183   37.3192   20.3270 C   0  0  0  0  0  0  0  0  0  0  0  0
   23.6774   39.4676   23.2060 F   0  0  0  0  0  0  0  0  0  0  0  0
   27.1694   39.2529   19.8817 N   0  0  0  0  0  0  0  0  0  0  0  0
   28.2623   38.6315   20.5988 C   0  0  0  0  0  0  0  0  0  0  0  0
   25.8750   40.9149   23.6343 C   0  0  0  0  0  0  0  0  0  0  0  0
   28.6440   42.8018   22.4587 O   0  0  0  0  0  0  0  0  0  0  0  0
   27.0914   41.7841   23.9056 C   0  0  2  0  0  0  0  0  0  0  0  0
   26.9632   42.7754   24.9907 N   0  0  0  0  0  0  0  0  0  0  0  0
   26.3005   42.2873   26.2138 C   0  0  0  0  0  0  0  0  0  0  0  0
   28.2194   43.4843   25.2793 C   0  0  0  0  0  0  0  0  0  0  0  0
  1  5  1  0  0  0  0
  2 17  1  0  0  0  0
  3  1  1  0  0  0  0
  4  3  1  0  0  0  0
  4 26  1  6  0  0  0
  5 11  2  0  0  0  0
  5  6  1  0  0  0  0
  6  7  2  0  0  0  0
  7 21  1  0  0  0  0
  8 15  1  0  0  0  0
  8 16  2  0  0  0  0
  9 19  1  0  0  0  0
 10 18  1  0  0  0  0
 11 20  1  0  0  0  0
 13 14  1  0  0  0  0
 13 12  2  0  0  0  0
 15 13  1  6  0  0  0
 17 19  2  0  0  0  0
 17 15  1  0  0  0  0
 18  2  1  0  0  0  0
 18  9  2  0  0  0  0
 20 21  2  0  0  0  0
 20  2  1  0  0  0  0
 21  8  1  0  0  0  0
 22  6  1  0  0  0  0
 23 11  1  0  0  0  0
 23 10  1  0  0  0  0
 24 23  1  0  0  0  0
 25  1  1  0  0  0  0
 27  4  1  0  0  0  0
 27 25  1  0  0  0  0
 27 28  1  1  0  0  0
 29 28  1  0  0  0  0
 30 28  1  0  0  0  0
M  END
>  <CHROM.1>
-135.73565101,-0.62815470,-102.97186327,-57.79506827,157.26478973,25.57717147
38.57671647,20.53829113,1.21377392,0.57868583,0.94548796

>  <Name>
lig.pdb

>  <RI>
0

>  <Rbt.Current_Directory>
/home/itssahil/PROJECTS/Mol_Feturizer/New_Systems/rnas/6bfb

>  <Rbt.Executable>
rbdock ($Id: //depot/dev/client3/rdock/2013.1/src/exe/rbdock.cxx#4 $)

>  <Rbt.Library>
libRbt.so (2013.1, Build901 2013/11/27)

>  <Rbt.Parameter_File>
/export/apps/rDock/src/rDock_2013.1_src/data/scripts/dock_solv.prm

>  <Rbt.Receptor>
prm/blind_docking_100.prm

>  <SCORE>
-33.6965

>  <SCORE.INTER>
-29.7936

>  <SCORE.INTER.CONST>
1

>  <SCORE.INTER.POLAR>
-1.0198

>  <SCORE.INTER.ROT>
3

>  <SCORE.INTER.SOLV>
13.3676

>  <SCORE.INTER.VDW>
-26.5189

>  <SCORE.INTER.norm>
-0.993119

>  <SCORE.INTRA>
-3.90292

>  <SCORE.INTRA.DIHEDRAL>
-7.2974

>  <SCORE.INTRA.DIHEDRAL.0>
9.41909

>  <SCORE.INTRA.POLAR>
0

>  <SCORE.INTRA.POLAR.0>
0

>  <SCORE.INTRA.REPUL>
0

>  <SCORE.INTRA.REPUL.0>
0

>  <SCORE.INTRA.SOLV>
-0.0980697

>  <SCORE.INTRA.SOLV.lig_0>
-26.2491

>  <SCORE.INTRA.VDW>
-0.205184

>  <SCORE.INTRA.VDW.0>
2.57239

>  <SCORE.INTRA.norm>
-0.130097

>  <SCORE.RESTR>
0

>  <SCORE.RESTR.CAVITY>
0

>  <SCORE.RESTR.norm>
0

>  <SCORE.SYSTEM>
0

>  <SCORE.SYSTEM.CONST>
0

>  <SCORE.SYSTEM.DIHEDRAL>
0

>  <SCORE.SYSTEM.SOLV>
0

>  <SCORE.SYSTEM.norm>
0

>  <SCORE.heavy>
30

>  <SCORE.norm>
-1.12322

>  <RMSD>
7.858

$$$$
lig.pdb
 OpenBabel11021811523D
libRbt.so/2013.1/901 2013/11/27
 30 34  0  0  0  0  0  0  0  0999 V2000
   25.6145   40.1925   22.7887 N   0  0  0  0  0  0  0  0  0  0  0  0
   25.2839   37.3562   18.7448 N   0  0  0  0  0  0  0  0  0  0  0  0
   25.8769   41.5295   22.2475 C   0  0  0  0  0  0  0  0  0  0  0  0
   26.4354   42.2515   23.4645 C   0  0  2  0  0  0  0  0  0  0  0  0
   24.9064   39.1984   21.9900 C   0  0  0  0  0  0  0  0  0  0  0  0
   23.6780   38.6215   22.3720 C   0  0  0  0  0  0  0  0  0  0  0  0
   23.0233   37.6651   21.6368 C   0  0  0  0  0  0  0  0  0  0  0  0
   22.8891   36.1346   19.6687 C   0  0  0  0  0  0  0  0  0  0  0  0
   26.6602   37.5135   16.9550 C   0  0  0  0  0  0  0  0  0  0  0  0
   26.8173   39.2471   18.8763 C   0  0  0  0  0  0  0  0  0  0  0  0
   25.4565   38.7511   20.7557 C   0  0  0  0  0  0  0  0  0  0  0  0
   21.7943   34.6323   17.2633 O   0  0  0  0  0  0  0  0  0  0  0  0
   22.9721   34.5905   17.6252 C   0  0  0  0  0  0  0  0  0  0  0  0
   23.7674   33.5638   17.3506 O   0  0  0  0  0  0  0  0  0  0  0  0
   23.5645   35.7004   18.4182 C   0  0  1  0  0  0  0  0  0  0  0  0
   21.8066   35.6675   20.0389 O   0  0  0  0  0  0  0  0  0  0  0  0
   24.7377   36.3338   17.9725 C   0  0  0  0  0  0  0  0  0  0  0  0
   26.3548   38.0353   18.1469 C   0  0  0  0  0  0  0  0  0  0  0  0
   25.6365   36.2087   16.5182 S   0  0  0  0  0  0  0  0  0  0  0  0
   24.7720   37.7826   19.9869 C   0  0  0  0  0  0  0  0  0  0  0  0
   23.5701   37.2137   20.4357 C   0  0  0  0  0  0  0  0  0  0  0  0
   23.0878   39.0423   23.5087 F   0  0  0  0  0  0  0  0  0  0  0  0
   26.7097   39.2131   20.3238 N   0  0  0  0  0  0  0  0  0  0  0  0
   27.7820   38.5295   21.0150 C   0  0  0  0  0  0  0  0  0  0  0  0
   25.5077   40.2166   24.2432 C   0  0  0  0  0  0  0  0  0  0  0  0
   27.7378   42.7799   23.2108 O   0  0  0  0  0  0  0  0  0  0  0  0
   26.6258   41.1978   24.5525 C   0  0  2  0  0  0  0  0  0  0  0  0
   26.5666   41.8711   25.8639 N   0  0  0  0  0  0  0  0  0  0  0  0
   27.7376   42.7020   26.1981 C   0  0  0  0  0  0  0  0  0  0  0  0
   25.2959   42.5746   26.0972 C   0  0  0  0  0  0  0  0  0  0  0  0
  1  5  1  0  0  0  0
  2 17  1  0  0  0  0
  3  1  1  0  0  0  0
  4  3  1  0  0  0  0
  4 26  1  6  0  0  0
  5 11  2  0  0  0  0
  5  6  1  0  0  0  0
  6  7  2  0  0  0  0
  7 21  1  0  0  0  0
  8 15  1  0  0  0  0
  8 16  2  0  0  0  0
  9 19  1  0  0  0  0
 10 18  1  0  0  0  0
 11 20  1  0  0  0  0
 13 14  1  0  0  0  0
 13 12  2  0  0  0  0
 15 13  1  6  0  0  0
 17 19  2  0  0  0  0
 17 15  1  0  0  0  0
 18  2  1  0  0  0  0
 18  9  2  0  0  0  0
 20 21  2  0  0  0  0
 20  2  1  0  0  0  0
 21  8  1  0  0  0  0
 22  6  1  0  0  0  0
 23 11  1  0  0  0  0
 23 10  1  0  0  0  0
 24 23  1  0  0  0  0
 25  1  1  0  0  0  0
 27  4  1  0  0  0  0
 27 25  1  0  0  0  0
 27 28  1  1  0  0  0
 29 28  1  0  0  0  0
 30 28  1  0  0  0  0
M  END
>  <CHROM.1>
-119.06838734,-4.12817710,53.60057482,157.60532802,-72.22211628,25.10791465
38.47910841,20.82598190,1.26687348,0.55631337,0.99739623

>  <Name>
lig.pdb

>  <RI>
0

>  <Rbt.Current_Directory>
/home/itssahil/PROJECTS/Mol_Feturizer/New_Systems/rnas/6bfb

>  <Rbt.Executable>
rbdock ($Id: //depot/dev/client3/rdock/2013.1/src/exe/rbdock.cxx#4 $)

>  <Rbt.Library>
libRbt.so (2013.1, Build901 2013/11/27)

>  <Rbt.Parameter_File>
/export/apps/rDock/src/rDock_2013.1_src/data/scripts/dock_solv.prm

>  <Rbt.Receptor>
prm/blind_docking_80.prm

>  <SCORE>
-35.055

>  <SCORE.INTER>
-32.4549

>  <SCORE.INTER.CONST>
1

>  <SCORE.INTER.POLAR>
-0.994603

>  <SCORE.INTER.ROT>
3

>  <SCORE.INTER.SOLV>
14.2882

>  <SCORE.INTER.VDW>
-28.684

>  <SCORE.INTER.norm>
-1.08183

>  <SCORE.INTRA>
-2.60011

>  <SCORE.INTRA.DIHEDRAL>
-5.36668

>  <SCORE.INTRA.DIHEDRAL.0>
9.41909

>  <SCORE.INTRA.POLAR>
0

>  <SCORE.INTRA.POLAR.0>
0

>  <SCORE.INTRA.REPUL>
0.0328604

>  <SCORE.INTRA.REPUL.0>
0

>  <SCORE.INTRA.SOLV>
0.0189612

>  <SCORE.INTRA.SOLV.lig_0>
-26.2491

>  <SCORE.INTRA.VDW>
-0.090556

>  <SCORE.INTRA.VDW.0>
2.57239

>  <SCORE.INTRA.norm>
-0.0866704

>  <SCORE.RESTR>
0

>  <SCORE.RESTR.CAVITY>
0

>  <SCORE.RESTR.norm>
0

>  <SCORE.SYSTEM>
0

>  <SCORE.SYSTEM.CONST>
0

>  <SCORE.SYSTEM.DIHEDRAL>
0

>  <SCORE.SYSTEM.SOLV>
0

>  <SCORE.SYSTEM.norm>
0

>  <SCORE.heavy>
30

>  <SCORE.norm>
-1.1685

>  <RMSD>
7.895

$$$$
lig.pdb
 OpenBabel11021811523D
libRbt.so/2013.1/901 2013/11/27
 30 34  0  0  0  0  0  0  0  0999 V2000
   26.4710   40.3305   21.9451 N   0  0  0  0  0  0  0  0  0  0  0  0
   25.6277   37.1015   18.2887 N   0  0  0  0  0  0  0  0  0  0  0  0
   26.6782   41.6352   21.3092 C   0  0  0  0  0  0  0  0  0  0  0  0
   27.4316   42.3912   22.3932 C   0  0  2  0  0  0  0  0  0  0  0  0
   25.6272   39.3249   21.3093 C   0  0  0  0  0  0  0  0  0  0  0  0
   24.3803   38.9142   21.8234 C   0  0  0  0  0  0  0  0  0  0  0  0
   23.5971   37.9479   21.2432 C   0  0  0  0  0  0  0  0  0  0  0  0
   23.2000   36.2253   19.4799 C   0  0  0  0  0  0  0  0  0  0  0  0
   26.8927   36.9246   16.4202 C   0  0  0  0  0  0  0  0  0  0  0  0
   27.3273   38.8405   18.1118 C   0  0  0  0  0  0  0  0  0  0  0  0
   26.0538   38.6911   20.1082 C   0  0  0  0  0  0  0  0  0  0  0  0
   21.7801   34.4511   17.6032 O   0  0  0  0  0  0  0  0  0  0  0  0
   23.0127   34.4602   17.6317 C   0  0  0  0  0  0  0  0  0  0  0  0
   23.7456   33.4720   17.1334 O   0  0  0  0  0  0  0  0  0  0  0  0
   23.7513   35.5908   18.2544 C   0  0  1  0  0  0  0  0  0  0  0  0
   22.1070   35.9081   19.9614 O   0  0  0  0  0  0  0  0  0  0  0  0
   24.9441   36.0554   17.6735 C   0  0  0  0  0  0  0  0  0  0  0  0
   26.7130   37.6039   17.5571 C   0  0  0  0  0  0  0  0  0  0  0  0
   25.7315   35.6823   16.1973 S   0  0  0  0  0  0  0  0  0  0  0  0
   25.2378   37.7119   19.4979 C   0  0  0  0  0  0  0  0  0  0  0  0
   24.0222   37.3141   20.0757 C   0  0  0  0  0  0  0  0  0  0  0  0
   23.9051   39.5146   22.9330 F   0  0  0  0  0  0  0  0  0  0  0  0
   27.3120   38.9801   19.5570 N   0  0  0  0  0  0  0  0  0  0  0  0
   28.3627   38.2797   20.2643 C   0  0  0  0  0  0  0  0  0  0  0  0
   26.5873   40.4193   23.3963 C   0  0  0  0  0  0  0  0  0  0  0  0
   28.6919   42.8699   21.9216 O   0  0  0  0  0  0  0  0  0  0  0  0
   27.7614   41.3794   23.4875 C   0  0  2  0  0  0  0  0  0  0  0  0
   27.9178   42.1089   24.7603 N   0  0  0  0  0  0  0  0  0  0  0  0
   26.6704   42.6432   25.3366 C   0  0  0  0  0  0  0  0  0  0  0  0
   28.7249   41.3799   25.7507 C   0  0  0  0  0  0  0  0  0  0  0  0
  1  5  1  0  0  0  0
  2 17  1  0  0  0  0
  3  1  1  0  0  0  0
  4  3  1  0  0  0  0
  4 26  1  6  0  0  0
  5 11  2  0  0  0  0
  5  6  1  0  0  0  0
  6  7  2  0  0  0  0
  7 21  1  0  0  0  0
  8 15  1  0  0  0  0
  8 16  2  0  0  0  0
  9 19  1  0  0  0  0
 10 18  1  0  0  0  0
 11 20  1  0  0  0  0
 13 14  1  0  0  0  0
 13 12  2  0  0  0  0
 15 13  1  6  0  0  0
 17 19  2  0  0  0  0
 17 15  1  0  0  0  0
 18  2  1  0  0  0  0
 18  9  2  0  0  0  0
 20 21  2  0  0  0  0
 20  2  1  0  0  0  0
 21  8  1  0  0  0  0
 22  6  1  0  0  0  0
 23 11  1  0  0  0  0
 23 10  1  0  0  0  0
 24 23  1  0  0  0  0
 25  1  1  0  0  0  0
 27  4  1  0  0  0  0
 27 25  1  0  0  0  0
 27 28  1  1  0  0  0
 29 28  1  0  0  0  0
 30 28  1  0  0  0  0
M  END
>  <CHROM.1>
-111.40717087,3.92812863,37.31840489,57.29316386,71.20878424,25.67893453
38.39094702,20.26922735,1.14970456,0.53194741,0.98873505

>  <Name>
lig.pdb

>  <RI>
0

>  <Rbt.Current_Directory>
/home/itssahil/PROJECTS/Mol_Feturizer/New_Systems/rnas/6bfb

>  <Rbt.Executable>
rbdock ($Id: //depot/dev/client3/rdock/2013.1/src/exe/rbdock.cxx#4 $)

>  <Rbt.Library>
libRbt.so (2013.1, Build901 2013/11/27)

>  <Rbt.Parameter_File>
/export/apps/rDock/src/rDock_2013.1_src/data/scripts/dock_solv.prm

>  <Rbt.Receptor>
prm/blind_docking_60.prm

>  <SCORE>
-30.2428

>  <SCORE.INTER>
-24.7059

>  <SCORE.INTER.CONST>
1

>  <SCORE.INTER.POLAR>
-1.00845

>  <SCORE.INTER.ROT>
3

>  <SCORE.INTER.SOLV>
13.4394

>  <SCORE.INTER.VDW>
-23.1889

>  <SCORE.INTER.norm>
-0.82353

>  <SCORE.INTRA>
-5.57889

>  <SCORE.INTRA.DIHEDRAL>
-7.22268

>  <SCORE.INTRA.DIHEDRAL.0>
9.41909

>  <SCORE.INTRA.POLAR>
0

>  <SCORE.INTRA.POLAR.0>
0

>  <SCORE.INTRA.REPUL>
0.0515818

>  <SCORE.INTRA.REPUL.0>
0

>  <SCORE.INTRA.SOLV>
-0.277637

>  <SCORE.INTRA.SOLV.lig_0>
-26.2491

>  <SCORE.INTRA.VDW>
-2.08665

>  <SCORE.INTRA.VDW.0>
2.57239

>  <SCORE.INTRA.norm>
-0.185963

>  <SCORE.RESTR>
0.0419598

>  <SCORE.RESTR.CAVITY>
0.0419598

>  <SCORE.RESTR.norm>
0.00139866

>  <SCORE.SYSTEM>
0

>  <SCORE.SYSTEM.CONST>
0

>  <SCORE.SYSTEM.DIHEDRAL>
0

>  <SCORE.SYSTEM.SOLV>
0

>  <SCORE.SYSTEM.norm>
0

>  <SCORE.heavy>
30

>  <SCORE.norm>
-1.00809

>  <RMSD>
7.915

$$$$
lig.pdb
 OpenBabel11021811523D
libRbt.so/2013.1/901 2013/11/27
 30 34  0  0  0  0  0  0  0  0999 V2000
   25.3746   40.1732   22.8639 N   0  0  0  0  0  0  0  0  0  0  0  0
   25.3690   37.4020   18.7617 N   0  0  0  0  0  0  0  0  0  0  0  0
   25.6214   41.5204   22.3407 C   0  0  0  0  0  0  0  0  0  0  0  0
   26.0715   42.2600   23.5915 C   0  0  2  0  0  0  0  0  0  0  0  0
   24.7581   39.1551   22.0207 C   0  0  0  0  0  0  0  0  0  0  0  0
   23.5524   38.4996   22.3438 C   0  0  0  0  0  0  0  0  0  0  0  0
   22.9844   37.5211   21.5668 C   0  0  0  0  0  0  0  0  0  0  0  0
   23.0173   36.0241   19.5688 C   0  0  0  0  0  0  0  0  0  0  0  0
   26.8015   37.6749   17.0308 C   0  0  0  0  0  0  0  0  0  0  0  0
   26.7811   39.3768   18.9864 C   0  0  0  0  0  0  0  0  0  0  0  0
   25.3809   38.7651   20.8016 C   0  0  0  0  0  0  0  0  0  0  0  0
   23.9545   33.5148   17.3424 O   0  0  0  0  0  0  0  0  0  0  0  0
   23.2706   34.5278   17.5039 C   0  0  0  0  0  0  0  0  0  0  0  0
   22.0790   34.6822   16.9398 O   0  0  0  0  0  0  0  0  0  0  0  0
   23.7650   35.6549   18.3387 C   0  0  1  0  0  0  0  0  0  0  0  0
   21.9510   35.4871   19.8877 O   0  0  0  0  0  0  0  0  0  0  0  0
   24.9147   36.3646   17.9508 C   0  0  0  0  0  0  0  0  0  0  0  0
   26.4199   38.1544   18.2185 C   0  0  0  0  0  0  0  0  0  0  0  0
   25.8747   36.3210   16.5314 S   0  0  0  0  0  0  0  0  0  0  0  0
   24.7853   37.7733   19.9898 C   0  0  0  0  0  0  0  0  0  0  0  0
   23.6029   37.1261   20.3807 C   0  0  0  0  0  0  0  0  0  0  0  0
   22.8948   38.8628   23.4633 F   0  0  0  0  0  0  0  0  0  0  0  0
   26.6201   39.3082   20.4277 N   0  0  0  0  0  0  0  0  0  0  0  0
   27.7037   38.6754   21.1489 C   0  0  0  0  0  0  0  0  0  0  0  0
   25.1720   40.1900   24.3082 C   0  0  0  0  0  0  0  0  0  0  0  0
   27.3670   42.8375   23.4236 O   0  0  0  0  0  0  0  0  0  0  0  0
   26.2298   41.2118   24.6899 C   0  0  2  0  0  0  0  0  0  0  0  0
   26.0596   41.8794   25.9945 N   0  0  0  0  0  0  0  0  0  0  0  0
   27.2162   42.6709   26.4518 C   0  0  0  0  0  0  0  0  0  0  0  0
   24.7944   42.6215   26.1050 C   0  0  0  0  0  0  0  0  0  0  0  0
  1  5  1  0  0  0  0
  2 17  1  0  0  0  0
  3  1  1  0  0  0  0
  4  3  1  0  0  0  0
  4 26  1  6  0  0  0
  5 11  2  0  0  0  0
  5  6  1  0  0  0  0
  6  7  2  0  0  0  0
  7 21  1  0  0  0  0
  8 15  1  0  0  0  0
  8 16  2  0  0  0  0
  9 19  1  0  0  0  0
 10 18  1  0  0  0  0
 11 20  1  0  0  0  0
 13 14  1  0  0  0  0
 13 12  2  0  0  0  0
 15 13  1  6  0  0  0
 17 19  2  0  0  0  0
 17 15  1  0  0  0  0
 18  2  1  0  0  0  0
 18  9  2  0  0  0  0
 20 21  2  0  0  0  0
 20  2  1  0  0  0  0
 21  8  1  0  0  0  0
 22  6  1  0  0  0  0
 23 11  1  0  0  0  0
 23 10  1  0  0  0  0
 24 23  1  0  0  0  0
 25  1  1  0  0  0  0
 27  4  1  0  0  0  0
 27 25  1  0  0  0  0
 27 28  1  1  0  0  0
 29 28  1  0  0  0  0
 30 28  1  0  0  0  0
M  END
>  <CHROM.1>
-121.26149128,10.16088732,-117.18618949,161.86090526,-76.67170245,25.03522287
38.48257981,20.84858497,1.33839577,0.57657135,0.97728622

>  <Name>
lig.pdb

>  <RI>
0

>  <Rbt.Current_Directory>
/home/itssahil/PROJECTS/Mol_Feturizer/New_Systems/rnas/6bfb

>  <Rbt.Executable>
rbdock ($Id: //depot/dev/client3/rdock/2013.1/src/exe/rbdock.cxx#4 $)

>  <Rbt.Library>
libRbt.so (2013.1, Build901 2013/11/27)

>  <Rbt.Parameter_File>
/export/apps/rDock/src/rDock_2013.1_src/data/scripts/dock_solv.prm

>  <Rbt.Receptor>
prm/blind_docking_80.prm

>  <SCORE>
-35.8871

>  <SCORE.INTER>
-33.2494

>  <SCORE.INTER.CONST>
1

>  <SCORE.INTER.POLAR>
-1.01726

>  <SCORE.INTER.ROT>
3

>  <SCORE.INTER.SOLV>
14.6415

>  <SCORE.INTER.VDW>
-29.2559

>  <SCORE.INTER.norm>
-1.10831

>  <SCORE.INTRA>
-2.63771

>  <SCORE.INTRA.DIHEDRAL>
-5.41814

>  <SCORE.INTRA.DIHEDRAL.0>
9.41909

>  <SCORE.INTRA.POLAR>
0

>  <SCORE.INTRA.POLAR.0>
0

>  <SCORE.INTRA.REPUL>
0.0273088

>  <SCORE.INTRA.REPUL.0>
0

>  <SCORE.INTRA.SOLV>
0.0180429

>  <SCORE.INTRA.SOLV.lig_0>
-26.2491

>  <SCORE.INTRA.VDW>
-0.0742049

>  <SCORE.INTRA.VDW.0>
2.57239

>  <SCORE.INTRA.norm>
-0.0879237

>  <SCORE.RESTR>
0

>  <SCORE.RESTR.CAVITY>
0

>  <SCORE.RESTR.norm>
0

>  <SCORE.SYSTEM>
0

>  <SCORE.SYSTEM.CONST>
0

>  <SCORE.SYSTEM.DIHEDRAL>
0

>  <SCORE.SYSTEM.SOLV>
0

>  <SCORE.SYSTEM.norm>
0

>  <SCORE.heavy>
30

>  <SCORE.norm>
-1.19624

>  <RMSD>
7.915

$$$$
lig.pdb
 OpenBabel11021811523D
libRbt.so/2013.1/901 2013/11/27
 30 34  0  0  0  0  0  0  0  0999 V2000
   25.3684   40.1502   22.8681 N   0  0  0  0  0  0  0  0  0  0  0  0
   25.3594   37.3968   18.7540 N   0  0  0  0  0  0  0  0  0  0  0  0
   25.5953   41.5041   22.3532 C   0  0  0  0  0  0  0  0  0  0  0  0
   26.0510   42.2385   23.6051 C   0  0  2  0  0  0  0  0  0  0  0  0
   24.7537   39.1324   22.0233 C   0  0  0  0  0  0  0  0  0  0  0  0
   23.5531   38.4688   22.3491 C   0  0  0  0  0  0  0  0  0  0  0  0
   22.9871   37.4905   21.5704 C   0  0  0  0  0  0  0  0  0  0  0  0
   23.0190   36.0023   19.5658 C   0  0  0  0  0  0  0  0  0  0  0  0
   26.7824   37.6850   17.0178 C   0  0  0  0  0  0  0  0  0  0  0  0
   26.7616   39.3783   18.9808 C   0  0  0  0  0  0  0  0  0  0  0  0
   25.3731   38.7511   20.7997 C   0  0  0  0  0  0  0  0  0  0  0  0
   23.9543   33.5023   17.3352 O   0  0  0  0  0  0  0  0  0  0  0  0
   23.2711   34.5164   17.4934 C   0  0  0  0  0  0  0  0  0  0  0  0
   22.0826   34.6727   16.9232 O   0  0  0  0  0  0  0  0  0  0  0  0
   23.7631   35.6425   18.3308 C   0  0  1  0  0  0  0  0  0  0  0  0
   21.9572   35.4580   19.8873 O   0  0  0  0  0  0  0  0  0  0  0  0
   24.9071   36.3603   17.9407 C   0  0  0  0  0  0  0  0  0  0  0  0
   26.4036   38.1573   18.2093 C   0  0  0  0  0  0  0  0  0  0  0  0
   25.8609   36.3282   16.5167 S   0  0  0  0  0  0  0  0  0  0  0  0
   24.7792   37.7595   19.9863 C   0  0  0  0  0  0  0  0  0  0  0  0
   23.6023   37.1041   20.3798 C   0  0  0  0  0  0  0  0  0  0  0  0
   22.8987   38.8235   23.4731 F   0  0  0  0  0  0  0  0  0  0  0  0
   26.6075   39.3026   20.4226 N   0  0  0  0  0  0  0  0  0  0  0  0
   27.6979   38.6727   21.1360 C   0  0  0  0  0  0  0  0  0  0  0  0
   25.1812   40.1534   24.3146 C   0  0  0  0  0  0  0  0  0  0  0  0
   27.3385   42.8310   23.4280 O   0  0  0  0  0  0  0  0  0  0  0  0
   26.2321   41.1833   24.6932 C   0  0  2  0  0  0  0  0  0  0  0  0
   26.0690   41.8386   26.0049 N   0  0  0  0  0  0  0  0  0  0  0  0
   27.1620   42.7480   26.3943 C   0  0  0  0  0  0  0  0  0  0  0  0
   24.7423   42.4474   26.1874 C   0  0  0  0  0  0  0  0  0  0  0  0
  1  5  1  0  0  0  0
  2 17  1  0  0  0  0
  3  1  1  0  0  0  0
  4  3  1  0  0  0  0
  4 26  1  6  0  0  0
  5 11  2  0  0  0  0
  5  6  1  0  0  0  0
  6  7  2  0  0  0  0
  7 21  1  0  0  0  0
  8 15  1  0  0  0  0
  8 16  2  0  0  0  0
  9 19  1  0  0  0  0
 10 18  1  0  0  0  0
 11 20  1  0  0  0  0
 13 14  1  0  0  0  0
 13 12  2  0  0  0  0
 15 13  1  6  0  0  0
 17 19  2  0  0  0  0
 17 15  1  0  0  0  0
 18  2  1  0  0  0  0
 18  9  2  0  0  0  0
 20 21  2  0  0  0  0
 20  2  1  0  0  0  0
 21  8  1  0  0  0  0
 22  6  1  0  0  0  0
 23 11  1  0  0  0  0
 23 10  1  0  0  0  0
 24 23  1  0  0  0  0
 25  1  1  0  0  0  0
 27  4  1  0  0  0  0
 27 25  1  0  0  0  0
 27 28  1  1  0  0  0
 29 28  1  0  0  0  0
 30 28  1  0  0  0  0
M  END
>  <CHROM.1>
-120.75969264,9.12350410,-116.45803090,-59.18759158,-70.68809290,25.02700200
38.46204644,20.84500839,1.33892819,0.58429065,0.98245936

>  <Name>
lig.pdb

>  <RI>
0

>  <Rbt.Current_Directory>
/home/itssahil/PROJECTS/Mol_Feturizer/New_Systems/rnas/6bfb

>  <Rbt.Executable>
rbdock ($Id: //depot/dev/client3/rdock/2013.1/src/exe/rbdock.cxx#4 $)

>  <Rbt.Library>
libRbt.so (2013.1, Build901 2013/11/27)

>  <Rbt.Parameter_File>
/export/apps/rDock/src/rDock_2013.1_src/data/scripts/dock_solv.prm

>  <Rbt.Receptor>
prm/blind_docking_60.prm

>  <SCORE>
-36.5534

>  <SCORE.INTER>
-32.8517

>  <SCORE.INTER.CONST>
1

>  <SCORE.INTER.POLAR>
-0.987551

>  <SCORE.INTER.ROT>
3

>  <SCORE.INTER.SOLV>
14.7749

>  <SCORE.INTER.VDW>
-29.1343

>  <SCORE.INTER.norm>
-1.09506

>  <SCORE.INTRA>
-3.70169

>  <SCORE.INTRA.DIHEDRAL>
-7.16884

>  <SCORE.INTRA.DIHEDRAL.0>
9.41909

>  <SCORE.INTRA.POLAR>
0

>  <SCORE.INTRA.POLAR.0>
0

>  <SCORE.INTRA.REPUL>
0.0285854

>  <SCORE.INTRA.REPUL.0>
0

>  <SCORE.INTRA.SOLV>
0.0181965

>  <SCORE.INTRA.SOLV.lig_0>
-26.2491

>  <SCORE.INTRA.VDW>
-0.269298

>  <SCORE.INTRA.VDW.0>
2.57239

>  <SCORE.INTRA.norm>
-0.12339

>  <SCORE.RESTR>
0

>  <SCORE.RESTR.CAVITY>
0

>  <SCORE.RESTR.norm>
0

>  <SCORE.SYSTEM>
0

>  <SCORE.SYSTEM.CONST>
0

>  <SCORE.SYSTEM.DIHEDRAL>
0

>  <SCORE.SYSTEM.SOLV>
0

>  <SCORE.SYSTEM.norm>
0

>  <SCORE.heavy>
30

>  <SCORE.norm>
-1.21845

>  <RMSD>
7.919

$$$$
lig.pdb
 OpenBabel11021811523D
libRbt.so/2013.1/901 2013/11/27
 30 34  0  0  0  0  0  0  0  0999 V2000
   24.2424   43.2726   25.8164 N   0  0  0  0  0  0  0  0  0  0  0  0
   27.2704   40.6977   22.8654 N   0  0  0  0  0  0  0  0  0  0  0  0
   22.9565   43.9744   25.7601 C   0  0  0  0  0  0  0  0  0  0  0  0
   23.0724   44.9271   26.9405 C   0  0  2  0  0  0  0  0  0  0  0  0
   24.4985   42.1296   24.9472 C   0  0  0  0  0  0  0  0  0  0  0  0
   23.5406   41.1347   24.6638 C   0  0  0  0  0  0  0  0  0  0  0  0
   23.7872   40.0430   23.8692 C   0  0  0  0  0  0  0  0  0  0  0  0
   25.3280   38.6593   22.4744 C   0  0  0  0  0  0  0  0  0  0  0  0
   29.2996   41.4199   22.1702 C   0  0  0  0  0  0  0  0  0  0  0  0
   27.7395   43.0032   23.5044 C   0  0  0  0  0  0  0  0  0  0  0  0
   25.7757   41.9666   24.3402 C   0  0  0  0  0  0  0  0  0  0  0  0
   26.3453   36.9164   20.2501 O   0  0  0  0  0  0  0  0  0  0  0  0
   27.0791   37.3441   21.1438 C   0  0  0  0  0  0  0  0  0  0  0  0
   28.2212   36.7535   21.4737 O   0  0  0  0  0  0  0  0  0  0  0  0
   26.7039   38.5541   21.9228 C   0  0  1  0  0  0  0  0  0  0  0  0
   24.4511   37.8195   22.2445 O   0  0  0  0  0  0  0  0  0  0  0  0
   27.6404   39.5849   22.1137 C   0  0  0  0  0  0  0  0  0  0  0  0
   28.2061   41.7417   22.8679 C   0  0  0  0  0  0  0  0  0  0  0  0
   29.2053   39.8573   21.4695 S   0  0  0  0  0  0  0  0  0  0  0  0
   26.0236   40.8545   23.5039 C   0  0  0  0  0  0  0  0  0  0  0  0
   25.0436   39.8734   23.2879 C   0  0  0  0  0  0  0  0  0  0  0  0
   22.2994   41.2632   25.1740 F   0  0  0  0  0  0  0  0  0  0  0  0
   26.8175   42.8654   24.6175 N   0  0  0  0  0  0  0  0  0  0  0  0
   27.4238   42.5786   25.9001 C   0  0  0  0  0  0  0  0  0  0  0  0
   24.8485   43.3735   27.1393 C   0  0  0  0  0  0  0  0  0  0  0  0
   22.9106   46.2874   26.5364 O   0  0  0  0  0  0  0  0  0  0  0  0
   24.5062   44.8201   27.4535 C   0  0  2  0  0  0  0  0  0  0  0  0
   24.5178   45.2049   28.8777 N   0  0  0  0  0  0  0  0  0  0  0  0
   25.7436   44.8492   29.6155 C   0  0  0  0  0  0  0  0  0  0  0  0
   24.1133   46.6009   29.1041 C   0  0  0  0  0  0  0  0  0  0  0  0
  1  5  1  0  0  0  0
  2 17  1  0  0  0  0
  3  1  1  0  0  0  0
  4  3  1  0  0  0  0
  4 26  1  6  0  0  0
  5 11  2  0  0  0  0
  5  6  1  0  0  0  0
  6  7  2  0  0  0  0
  7 21  1  0  0  0  0
  8 15  1  0  0  0  0
  8 16  2  0  0  0  0
  9 19  1  0  0  0  0
 10 18  1  0  0  0  0
 11 20  1  0  0  0  0
 13 14  1  0  0  0  0
 13 12  2  0  0  0  0
 15 13  1  6  0  0  0
 17 19  2  0  0  0  0
 17 15  1  0  0  0  0
 18  2  1  0  0  0  0
 18  9  2  0  0  0  0
 20 21  2  0  0  0  0
 20  2  1  0  0  0  0
 21  8  1  0  0  0  0
 22  6  1  0  0  0  0
 23 11  1  0  0  0  0
 23 10  1  0  0  0  0
 24 23  1  0  0  0  0
 25  1  1  0  0  0  0
 27  4  1  0  0  0  0
 27 25  1  0  0  0  0
 27 28  1  1  0  0  0
 29 28  1  0  0  0  0
 30 28  1  0  0  0  0
M  END
>  <CHROM.1>
-40.52158506,0.60543888,47.64514131,-56.95587471,165.71447222,25.75382443
41.56330908,24.32468926,1.93984469,0.23691979,0.66350290

>  <Name>
lig.pdb

>  <RI>
0

>  <Rbt.Current_Directory>
/home/itssahil/PROJECTS/Mol_Feturizer/New_Systems/rnas/6bfb

>  <Rbt.Executable>
rbdock ($Id: //depot/dev/client3/rdock/2013.1/src/exe/rbdock.cxx#4 $)

>  <Rbt.Library>
libRbt.so (2013.1, Build901 2013/11/27)

>  <Rbt.Parameter_File>
/export/apps/rDock/src/rDock_2013.1_src/data/scripts/dock_solv.prm

>  <Rbt.Receptor>
prm/pocket_docking_7.prm

>  <SCORE>
-34.6774

>  <SCORE.INTER>
-31.6087

>  <SCORE.INTER.CONST>
1

>  <SCORE.INTER.POLAR>
-0.848528

>  <SCORE.INTER.ROT>
3

>  <SCORE.INTER.SOLV>
12.9994

>  <SCORE.INTER.VDW>
-28.1772

>  <SCORE.INTER.norm>
-1.05362

>  <SCORE.INTRA>
-3.06869

>  <SCORE.INTRA.DIHEDRAL>
-7.58164

>  <SCORE.INTRA.DIHEDRAL.0>
9.41909

>  <SCORE.INTRA.POLAR>
0

>  <SCORE.INTRA.POLAR.0>
0

>  <SCORE.INTRA.REPUL>
0.0570995

>  <SCORE.INTRA.REPUL.0>
0

>  <SCORE.INTRA.SOLV>
-0.0952413

>  <SCORE.INTRA.SOLV.lig_0>
-26.2491

>  <SCORE.INTRA.VDW>
0.484252

>  <SCORE.INTRA.VDW.0>
2.57239

>  <SCORE.INTRA.norm>
-0.10229

>  <SCORE.RESTR>
0

>  <SCORE.RESTR.CAVITY>
0

>  <SCORE.RESTR.norm>
0

>  <SCORE.SYSTEM>
0

>  <SCORE.SYSTEM.CONST>
0

>  <SCORE.SYSTEM.DIHEDRAL>
0

>  <SCORE.SYSTEM.SOLV>
0

>  <SCORE.SYSTEM.norm>
0

>  <SCORE.heavy>
30

>  <SCORE.norm>
-1.15591

>  <RMSD>
7.960

$$$$
lig.pdb
 OpenBabel11021811523D
libRbt.so/2013.1/901 2013/11/27
 30 34  0  0  0  0  0  0  0  0999 V2000
   27.7927   41.3879   23.4595 N   0  0  0  0  0  0  0  0  0  0  0  0
   24.9968   38.0415   21.1160 N   0  0  0  0  0  0  0  0  0  0  0  0
   28.4102   42.6564   23.0606 C   0  0  0  0  0  0  0  0  0  0  0  0
   28.1610   43.5207   24.2875 C   0  0  2  0  0  0  0  0  0  0  0  0
   27.6533   40.3000   22.4981 C   0  0  0  0  0  0  0  0  0  0  0  0
   28.7274   39.7794   21.7476 C   0  0  0  0  0  0  0  0  0  0  0  0
   28.5946   38.7751   20.8215 C   0  0  0  0  0  0  0  0  0  0  0  0
   27.1895   37.1607   19.5358 C   0  0  0  0  0  0  0  0  0  0  0  0
   22.8438   37.5801   21.6397 C   0  0  0  0  0  0  0  0  0  0  0  0
   24.2349   39.1781   23.1339 C   0  0  0  0  0  0  0  0  0  0  0  0
   26.3784   39.7106   22.2670 C   0  0  0  0  0  0  0  0  0  0  0  0
   26.1123   34.5233   18.3162 O   0  0  0  0  0  0  0  0  0  0  0  0
   25.5706   35.6299   18.2697 C   0  0  0  0  0  0  0  0  0  0  0  0
   24.7660   35.9898   17.2772 O   0  0  0  0  0  0  0  0  0  0  0  0
   25.8121   36.6407   19.3334 C   0  0  1  0  0  0  0  0  0  0  0  0
   28.1641   36.7283   18.9112 O   0  0  0  0  0  0  0  0  0  0  0  0
   24.7480   37.0782   20.1412 C   0  0  0  0  0  0  0  0  0  0  0  0
   23.9198   38.2979   21.9762 C   0  0  0  0  0  0  0  0  0  0  0  0
   23.1226   36.5553   20.2931 S   0  0  0  0  0  0  0  0  0  0  0  0
   26.2446   38.6612   21.3297 C   0  0  0  0  0  0  0  0  0  0  0  0
   27.3427   38.2087   20.5821 C   0  0  0  0  0  0  0  0  0  0  0  0
   29.9658   40.2679   21.9600 F   0  0  0  0  0  0  0  0  0  0  0  0
   25.2352   40.2069   22.9128 N   0  0  0  0  0  0  0  0  0  0  0  0
   24.7596   41.4146   22.2723 C   0  0  0  0  0  0  0  0  0  0  0  0
   26.8291   41.5789   24.5377 C   0  0  0  0  0  0  0  0  0  0  0  0
   29.3806   44.0315   24.8276 O   0  0  0  0  0  0  0  0  0  0  0  0
   27.5892   42.6023   25.3643 C   0  0  2  0  0  0  0  0  0  0  0  0
   26.7896   43.4220   26.2946 N   0  0  0  0  0  0  0  0  0  0  0  0
   25.5864   42.7652   26.8370 C   0  0  0  0  0  0  0  0  0  0  0  0
   27.5979   44.0637   27.3428 C   0  0  0  0  0  0  0  0  0  0  0  0
  1  5  1  0  0  0  0
  2 17  1  0  0  0  0
  3  1  1  0  0  0  0
  4  3  1  0  0  0  0
  4 26  1  1  0  0  0
  5 11  2  0  0  0  0
  5  6  1  0  0  0  0
  6  7  2  0  0  0  0
  7 21  1  0  0  0  0
  8 15  1  0  0  0  0
  8 16  2  0  0  0  0
  9 19  1  0  0  0  0
 10 18  1  0  0  0  0
 11 20  1  0  0  0  0
 13 14  1  0  0  0  0
 13 12  2  0  0  0  0
 15 13  1  1  0  0  0
 17 19  2  0  0  0  0
 17 15  1  0  0  0  0
 18  2  1  0  0  0  0
 18  9  2  0  0  0  0
 20 21  2  0  0  0  0
 20  2  1  0  0  0  0
 21  8  1  0  0  0  0
 22  6  1  0  0  0  0
 23 11  1  0  0  0  0
 23 10  1  0  0  0  0
 24 23  1  0  0  0  0
 25  1  1  0  0  0  0
 27  4  1  0  0  0  0
 27 25  1  0  0  0  0
 27 28  1  1  0  0  0
 29 28  1  0  0  0  0
 30 28  1  0  0  0  0
M  END
>  <CHROM.1>
53.57403890,-179.62255860,62.48828774,90.97528541,144.54407254,26.39555082
39.48739766,22.02540825,-1.29126933,-0.26624801,-2.33441987

>  <Name>
lig.pdb

>  <RI>
0

>  <Rbt.Current_Directory>
/home/itssahil/PROJECTS/Mol_Feturizer/New_Systems/rnas/6bfb

>  <Rbt.Executable>
rbdock ($Id: //depot/dev/client3/rdock/2013.1/src/exe/rbdock.cxx#4 $)

>  <Rbt.Library>
libRbt.so (2013.1, Build901 2013/11/27)

>  <Rbt.Parameter_File>
/export/apps/rDock/src/rDock_2013.1_src/data/scripts/dock_solv.prm

>  <Rbt.Receptor>
prm/blind_docking_100.prm

>  <SCORE>
-37.1042

>  <SCORE.INTER>
-36.2951

>  <SCORE.INTER.CONST>
1

>  <SCORE.INTER.POLAR>
-1.43761

>  <SCORE.INTER.ROT>
3

>  <SCORE.INTER.SOLV>
14.1644

>  <SCORE.INTER.VDW>
-29.7262

>  <SCORE.INTER.norm>
-1.20984

>  <SCORE.INTRA>
-0.809026

>  <SCORE.INTRA.DIHEDRAL>
-2.91347

>  <SCORE.INTRA.DIHEDRAL.0>
9.41909

>  <SCORE.INTRA.POLAR>
0

>  <SCORE.INTRA.POLAR.0>
0

>  <SCORE.INTRA.REPUL>
0

>  <SCORE.INTRA.REPUL.0>
0

>  <SCORE.INTRA.SOLV>
-0.120073

>  <SCORE.INTRA.SOLV.lig_0>
-26.2491

>  <SCORE.INTRA.VDW>
0.707745

>  <SCORE.INTRA.VDW.0>
2.57239

>  <SCORE.INTRA.norm>
-0.0269675

>  <SCORE.RESTR>
0

>  <SCORE.RESTR.CAVITY>
0

>  <SCORE.RESTR.norm>
0

>  <SCORE.SYSTEM>
0

>  <SCORE.SYSTEM.CONST>
0

>  <SCORE.SYSTEM.DIHEDRAL>
0

>  <SCORE.SYSTEM.SOLV>
0

>  <SCORE.SYSTEM.norm>
0

>  <SCORE.heavy>
30

>  <SCORE.norm>
-1.23681

>  <RMSD>
8.008

$$$$
lig.pdb
 OpenBabel11021811523D
libRbt.so/2013.1/901 2013/11/27
 30 34  0  0  0  0  0  0  0  0999 V2000
   27.7196   41.1943   23.5648 N   0  0  0  0  0  0  0  0  0  0  0  0
   24.9918   37.8357   21.1594 N   0  0  0  0  0  0  0  0  0  0  0  0
   28.3333   42.4456   23.1096 C   0  0  0  0  0  0  0  0  0  0  0  0
   28.0428   43.3753   24.2782 C   0  0  2  0  0  0  0  0  0  0  0  0
   27.6173   40.0516   22.6640 C   0  0  0  0  0  0  0  0  0  0  0  0
   28.7307   39.4301   22.0624 C   0  0  0  0  0  0  0  0  0  0  0  0
   28.6359   38.3729   21.1922 C   0  0  0  0  0  0  0  0  0  0  0  0
   27.2794   36.7447   19.8719 C   0  0  0  0  0  0  0  0  0  0  0  0
   22.7752   37.5155   21.4859 C   0  0  0  0  0  0  0  0  0  0  0  0
   24.0960   39.1420   23.0127 C   0  0  0  0  0  0  0  0  0  0  0  0
   26.3414   39.5102   22.3400 C   0  0  0  0  0  0  0  0  0  0  0  0
   25.7314   35.4770   17.3400 O   0  0  0  0  0  0  0  0  0  0  0  0
   25.7133   35.2117   18.5439 C   0  0  0  0  0  0  0  0  0  0  0  0
   25.5103   33.9821   19.0010 O   0  0  0  0  0  0  0  0  0  0  0  0
   25.9026   36.2795   19.5615 C   0  0  1  0  0  0  0  0  0  0  0  0
   28.2863   36.2244   19.3795 O   0  0  0  0  0  0  0  0  0  0  0  0
   24.7889   36.8216   20.2262 C   0  0  0  0  0  0  0  0  0  0  0  0
   23.8501   38.2015   21.8861 C   0  0  0  0  0  0  0  0  0  0  0  0
   23.1302   36.3894   20.2420 S   0  0  0  0  0  0  0  0  0  0  0  0
   26.2443   38.4074   21.4614 C   0  0  0  0  0  0  0  0  0  0  0  0
   27.3849   37.8527   20.8608 C   0  0  0  0  0  0  0  0  0  0  0  0
   29.9667   39.8715   22.3704 F   0  0  0  0  0  0  0  0  0  0  0  0
   25.1685   40.1039   22.8321 N   0  0  0  0  0  0  0  0  0  0  0  0
   24.8262   41.2870   22.0717 C   0  0  0  0  0  0  0  0  0  0  0  0
   26.7264   41.4343   24.6056 C   0  0  0  0  0  0  0  0  0  0  0  0
   29.2422   43.9312   24.8188 O   0  0  0  0  0  0  0  0  0  0  0  0
   27.4535   42.5126   25.3912 C   0  0  2  0  0  0  0  0  0  0  0  0
   26.6210   43.3738   26.2525 N   0  0  0  0  0  0  0  0  0  0  0  0
   25.4316   42.7231   26.8314 C   0  0  0  0  0  0  0  0  0  0  0  0
   27.3996   44.1136   27.2577 C   0  0  0  0  0  0  0  0  0  0  0  0
  1  5  1  0  0  0  0
  2 17  1  0  0  0  0
  3  1  1  0  0  0  0
  4  3  1  0  0  0  0
  4 26  1  1  0  0  0
  5 11  2  0  0  0  0
  5  6  1  0  0  0  0
  6  7  2  0  0  0  0
  7 21  1  0  0  0  0
  8 15  1  0  0  0  0
  8 16  2  0  0  0  0
  9 19  1  0  0  0  0
 10 18  1  0  0  0  0
 11 20  1  0  0  0  0
 13 14  1  0  0  0  0
 13 12  2  0  0  0  0
 15 13  1  1  0  0  0
 17 19  2  0  0  0  0
 17 15  1  0  0  0  0
 18  2  1  0  0  0  0
 18  9  2  0  0  0  0
 20 21  2  0  0  0  0
 20  2  1  0  0  0  0
 21  8  1  0  0  0  0
 22  6  1  0  0  0  0
 23 11  1  0  0  0  0
 23 10  1  0  0  0  0
 24 23  1  0  0  0  0
 25  1  1  0  0  0  0
 27  4  1  0  0  0  0
 27 25  1  0  0  0  0
 27 28  1  6  0  0  0
 29 28  1  0  0  0  0
 30 28  1  0  0  0  0
M  END
>  <CHROM.1>
59.27971933,179.83735297,-80.37822981,98.15582338,146.17534175,26.37986366
39.25103654,22.13825135,-1.32255277,-0.18807198,-2.40156655

>  <Name>
lig.pdb

>  <RI>
0

>  <Rbt.Current_Directory>
/home/itssahil/PROJECTS/Mol_Feturizer/New_Systems/rnas/6bfb

>  <Rbt.Executable>
rbdock ($Id: //depot/dev/client3/rdock/2013.1/src/exe/rbdock.cxx#4 $)

>  <Rbt.Library>
libRbt.so (2013.1, Build901 2013/11/27)

>  <Rbt.Parameter_File>
/export/apps/rDock/src/rDock_2013.1_src/data/scripts/dock_solv.prm

>  <Rbt.Receptor>
prm/pocket_docking_6.prm

>  <SCORE>
-36.9496

>  <SCORE.INTER>
-35.6776

>  <SCORE.INTER.CONST>
1

>  <SCORE.INTER.POLAR>
-1.0495

>  <SCORE.INTER.ROT>
3

>  <SCORE.INTER.SOLV>
14.4335

>  <SCORE.INTER.VDW>
-30.6979

>  <SCORE.INTER.norm>
-1.18925

>  <SCORE.INTRA>
-1.27193

>  <SCORE.INTRA.DIHEDRAL>
-1.73234

>  <SCORE.INTRA.DIHEDRAL.0>
9.41909

>  <SCORE.INTRA.POLAR>
0

>  <SCORE.INTRA.POLAR.0>
0

>  <SCORE.INTRA.REPUL>
0

>  <SCORE.INTRA.REPUL.0>
0

>  <SCORE.INTRA.SOLV>
-0.12756

>  <SCORE.INTRA.SOLV.lig_0>
-26.2491

>  <SCORE.INTRA.VDW>
-0.341977

>  <SCORE.INTRA.VDW.0>
2.57239

>  <SCORE.INTRA.norm>
-0.0423976

>  <SCORE.RESTR>
0

>  <SCORE.RESTR.CAVITY>
0

>  <SCORE.RESTR.norm>
0

>  <SCORE.SYSTEM>
0

>  <SCORE.SYSTEM.CONST>
0

>  <SCORE.SYSTEM.DIHEDRAL>
0

>  <SCORE.SYSTEM.SOLV>
0

>  <SCORE.SYSTEM.norm>
0

>  <SCORE.heavy>
30

>  <SCORE.norm>
-1.23165

>  <RMSD>
8.018

$$$$
lig.pdb
 OpenBabel11021811523D
libRbt.so/2013.1/901 2013/11/27
 30 34  0  0  0  0  0  0  0  0999 V2000
   27.7238   41.2283   23.5961 N   0  0  0  0  0  0  0  0  0  0  0  0
   25.0070   37.8690   21.1792 N   0  0  0  0  0  0  0  0  0  0  0  0
   28.3276   42.4875   23.1495 C   0  0  0  0  0  0  0  0  0  0  0  0
   28.0365   43.4048   24.3278 C   0  0  2  0  0  0  0  0  0  0  0  0
   27.6246   40.0932   22.6855 C   0  0  0  0  0  0  0  0  0  0  0  0
   28.7387   39.4867   22.0701 C   0  0  0  0  0  0  0  0  0  0  0  0
   28.6466   38.4369   21.1908 C   0  0  0  0  0  0  0  0  0  0  0  0
   27.2944   36.8095   19.8653 C   0  0  0  0  0  0  0  0  0  0  0  0
   22.7957   37.5269   21.5188 C   0  0  0  0  0  0  0  0  0  0  0  0
   24.1137   39.1505   23.0511 C   0  0  0  0  0  0  0  0  0  0  0  0
   26.3509   39.5440   22.3657 C   0  0  0  0  0  0  0  0  0  0  0  0
   25.8125   35.5393   17.3327 O   0  0  0  0  0  0  0  0  0  0  0  0
   25.7316   35.2756   18.5343 C   0  0  0  0  0  0  0  0  0  0  0  0
   25.4598   34.0554   18.9808 O   0  0  0  0  0  0  0  0  0  0  0  0
   25.9193   36.3355   19.5604 C   0  0  1  0  0  0  0  0  0  0  0  0
   28.3019   36.3023   19.3608 O   0  0  0  0  0  0  0  0  0  0  0  0
   24.8059   36.8619   20.2382 C   0  0  0  0  0  0  0  0  0  0  0  0
   23.8676   38.2184   21.9176 C   0  0  0  0  0  0  0  0  0  0  0  0
   23.1511   36.4155   20.2619 S   0  0  0  0  0  0  0  0  0  0  0  0
   26.2568   38.4486   21.4776 C   0  0  0  0  0  0  0  0  0  0  0  0
   27.3977   37.9092   20.8636 C   0  0  0  0  0  0  0  0  0  0  0  0
   29.9732   39.9357   22.3734 F   0  0  0  0  0  0  0  0  0  0  0  0
   25.1767   40.1231   22.8717 N   0  0  0  0  0  0  0  0  0  0  0  0
   24.8190   41.3101   22.1248 C   0  0  0  0  0  0  0  0  0  0  0  0
   26.7338   41.4526   24.6434 C   0  0  0  0  0  0  0  0  0  0  0  0
   29.2349   43.9634   24.8680 O   0  0  0  0  0  0  0  0  0  0  0  0
   27.4577   42.5284   25.4355 C   0  0  2  0  0  0  0  0  0  0  0  0
   26.6238   43.3766   26.3083 N   0  0  0  0  0  0  0  0  0  0  0  0
   25.4370   42.7153   26.8806 C   0  0  0  0  0  0  0  0  0  0  0  0
   27.4013   44.1063   27.3215 C   0  0  0  0  0  0  0  0  0  0  0  0
  1  5  1  0  0  0  0
  2 17  1  0  0  0  0
  3  1  1  0  0  0  0
  4  3  1  0  0  0  0
  4 26  1  1  0  0  0
  5 11  2  0  0  0  0
  5  6  1  0  0  0  0
  6  7  2  0  0  0  0
  7 21  1  0  0  0  0
  8 15  1  0  0  0  0
  8 16  2  0  0  0  0
  9 19  1  0  0  0  0
 10 18  1  0  0  0  0
 11 20  1  0  0  0  0
 13 14  1  0  0  0  0
 13 12  2  0  0  0  0
 15 13  1  1  0  0  0
 17 19  2  0  0  0  0
 17 15  1  0  0  0  0
 18  2  1  0  0  0  0
 18  9  2  0  0  0  0
 20 21  2  0  0  0  0
 20  2  1  0  0  0  0
 21  8  1  0  0  0  0
 22  6  1  0  0  0  0
 23 11  1  0  0  0  0
 23 10  1  0  0  0  0
 24 23  1  0  0  0  0
 25  1  1  0  0  0  0
 27  4  1  0  0  0  0
 27 25  1  0  0  0  0
 27 28  1  1  0  0  0
 29 28  1  0  0  0  0
 30 28  1  0  0  0  0
M  END
>  <CHROM.1>
59.07660861,178.43453522,-76.32183542,93.98303406,145.85500337,26.38925489
39.28722541,22.16072956,-1.32357820,-0.20079465,-2.39223210

>  <Name>
lig.pdb

>  <RI>
0

>  <Rbt.Current_Directory>
/home/itssahil/PROJECTS/Mol_Feturizer/New_Systems/rnas/6bfb

>  <Rbt.Executable>
rbdock ($Id: //depot/dev/client3/rdock/2013.1/src/exe/rbdock.cxx#4 $)

>  <Rbt.Library>
libRbt.so (2013.1, Build901 2013/11/27)

>  <Rbt.Parameter_File>
/export/apps/rDock/src/rDock_2013.1_src/data/scripts/dock_solv.prm

>  <Rbt.Receptor>
prm/pocket_docking_7.prm

>  <SCORE>
-37.0652

>  <SCORE.INTER>
-35.4915

>  <SCORE.INTER.CONST>
1

>  <SCORE.INTER.POLAR>
-0.989375

>  <SCORE.INTER.ROT>
3

>  <SCORE.INTER.SOLV>
14.461

>  <SCORE.INTER.VDW>
-30.7834

>  <SCORE.INTER.norm>
-1.18305

>  <SCORE.INTRA>
-1.57367

>  <SCORE.INTRA.DIHEDRAL>
-2.41946

>  <SCORE.INTRA.DIHEDRAL.0>
9.41909

>  <SCORE.INTRA.POLAR>
0

>  <SCORE.INTRA.POLAR.0>
0

>  <SCORE.INTRA.REPUL>
0

>  <SCORE.INTRA.REPUL.0>
0

>  <SCORE.INTRA.SOLV>
-0.133667

>  <SCORE.INTRA.SOLV.lig_0>
-26.2491

>  <SCORE.INTRA.VDW>
-0.297108

>  <SCORE.INTRA.VDW.0>
2.57239

>  <SCORE.INTRA.norm>
-0.0524557

>  <SCORE.RESTR>
0

>  <SCORE.RESTR.CAVITY>
0

>  <SCORE.RESTR.norm>
0

>  <SCORE.SYSTEM>
0

>  <SCORE.SYSTEM.CONST>
0

>  <SCORE.SYSTEM.DIHEDRAL>
0

>  <SCORE.SYSTEM.SOLV>
0

>  <SCORE.SYSTEM.norm>
0

>  <SCORE.heavy>
30

>  <SCORE.norm>
-1.23551

>  <RMSD>
8.018

$$$$
lig.pdb
 OpenBabel11021811523D
libRbt.so/2013.1/901 2013/11/27
 30 34  0  0  0  0  0  0  0  0999 V2000
   27.7246   41.2324   23.5799 N   0  0  0  0  0  0  0  0  0  0  0  0
   25.0125   37.8628   21.1721 N   0  0  0  0  0  0  0  0  0  0  0  0
   28.3163   42.4939   23.1241 C   0  0  0  0  0  0  0  0  0  0  0  0
   28.0269   43.4140   24.3005 C   0  0  2  0  0  0  0  0  0  0  0  0
   27.6272   40.0928   22.6747 C   0  0  0  0  0  0  0  0  0  0  0  0
   28.7427   39.4827   22.0654 C   0  0  0  0  0  0  0  0  0  0  0  0
   28.6524   38.4285   21.1910 C   0  0  0  0  0  0  0  0  0  0  0  0
   27.3028   36.7955   19.8697 C   0  0  0  0  0  0  0  0  0  0  0  0
   22.8000   37.5236   21.5072 C   0  0  0  0  0  0  0  0  0  0  0  0
   24.1148   39.1540   23.0352 C   0  0  0  0  0  0  0  0  0  0  0  0
   26.3541   39.5428   22.3540 C   0  0  0  0  0  0  0  0  0  0  0  0
   25.8275   35.5135   17.3393 O   0  0  0  0  0  0  0  0  0  0  0  0
   25.7429   35.2559   18.5420 C   0  0  0  0  0  0  0  0  0  0  0  0
   25.4688   34.0381   18.9937 O   0  0  0  0  0  0  0  0  0  0  0  0
   25.9283   36.3207   19.5634 C   0  0  1  0  0  0  0  0  0  0  0  0
   28.3115   36.2852   19.3705 O   0  0  0  0  0  0  0  0  0  0  0  0
   24.8134   36.8512   20.2355 C   0  0  0  0  0  0  0  0  0  0  0  0
   23.8712   38.2164   21.9055 C   0  0  0  0  0  0  0  0  0  0  0  0
   23.1582   36.4058   20.2568 S   0  0  0  0  0  0  0  0  0  0  0  0
   26.2618   38.4431   21.4711 C   0  0  0  0  0  0  0  0  0  0  0  0
   27.4040   37.9000   20.8629 C   0  0  0  0  0  0  0  0  0  0  0  0
   29.9766   39.9325   22.3698 F   0  0  0  0  0  0  0  0  0  0  0  0
   25.1788   40.1251   22.8539 N   0  0  0  0  0  0  0  0  0  0  0  0
   24.8239   41.3086   22.1002 C   0  0  0  0  0  0  0  0  0  0  0  0
   26.7402   41.4540   24.6331 C   0  0  0  0  0  0  0  0  0  0  0  0
   29.2249   43.9833   24.8303 O   0  0  0  0  0  0  0  0  0  0  0  0
   27.4618   42.5381   25.4158 C   0  0  2  0  0  0  0  0  0  0  0  0
   26.6279   43.3840   26.2908 N   0  0  0  0  0  0  0  0  0  0  0  0
   25.4386   42.7225   26.8577 C   0  0  0  0  0  0  0  0  0  0  0  0
   27.4049   44.1074   27.3089 C   0  0  0  0  0  0  0  0  0  0  0  0
  1  5  1  0  0  0  0
  2 17  1  0  0  0  0
  3  1  1  0  0  0  0
  4  3  1  0  0  0  0
  4 26  1  1  0  0  0
  5 11  2  0  0  0  0
  5  6  1  0  0  0  0
  6  7  2  0  0  0  0
  7 21  1  0  0  0  0
  8 15  1  0  0  0  0
  8 16  2  0  0  0  0
  9 19  1  0  0  0  0
 10 18  1  0  0  0  0
 11 20  1  0  0  0  0
 13 14  1  0  0  0  0
 13 12  2  0  0  0  0
 15 13  1  1  0  0  0
 17 19  2  0  0  0  0
 17 15  1  0  0  0  0
 18  2  1  0  0  0  0
 18  9  2  0  0  0  0
 20 21  2  0  0  0  0
 20  2  1  0  0  0  0
 21  8  1  0  0  0  0
 22  6  1  0  0  0  0
 23 11  1  0  0  0  0
 23 10  1  0  0  0  0
 24 23  1  0  0  0  0
 25  1  1  0  0  0  0
 27  4  1  0  0  0  0
 27 25  1  0  0  0  0
 27 28  1  1  0  0  0
 29 28  1  0  0  0  0
 30 28  1  0  0  0  0
M  END
>  <CHROM.1>
59.78256984,0.98092539,-76.30619458,97.72079660,144.97117286,26.39293878
39.28227669,22.14754959,-1.32536965,-0.19893595,-2.39596529

>  <Name>
lig.pdb

>  <RI>
0

>  <Rbt.Current_Directory>
/home/itssahil/PROJECTS/Mol_Feturizer/New_Systems/rnas/6bfb

>  <Rbt.Executable>
rbdock ($Id: //depot/dev/client3/rdock/2013.1/src/exe/rbdock.cxx#4 $)

>  <Rbt.Library>
libRbt.so (2013.1, Build901 2013/11/27)

>  <Rbt.Parameter_File>
/export/apps/rDock/src/rDock_2013.1_src/data/scripts/dock_solv.prm

>  <Rbt.Receptor>
prm/blind_docking_60.prm

>  <SCORE>
-37.2068

>  <SCORE.INTER>
-35.5659

>  <SCORE.INTER.CONST>
1

>  <SCORE.INTER.POLAR>
-1.04776

>  <SCORE.INTER.ROT>
3

>  <SCORE.INTER.SOLV>
14.4844

>  <SCORE.INTER.VDW>
-30.6462

>  <SCORE.INTER.norm>
-1.18553

>  <SCORE.INTRA>
-1.64088

>  <SCORE.INTRA.DIHEDRAL>
-1.73471

>  <SCORE.INTRA.DIHEDRAL.0>
9.41909

>  <SCORE.INTRA.POLAR>
0

>  <SCORE.INTRA.POLAR.0>
0

>  <SCORE.INTRA.REPUL>
0

>  <SCORE.INTRA.REPUL.0>
0

>  <SCORE.INTRA.SOLV>
-0.0770222

>  <SCORE.INTRA.SOLV.lig_0>
-26.2491

>  <SCORE.INTRA.VDW>
-0.735013

>  <SCORE.INTRA.VDW.0>
2.57239

>  <SCORE.INTRA.norm>
-0.0546959

>  <SCORE.RESTR>
0

>  <SCORE.RESTR.CAVITY>
0

>  <SCORE.RESTR.norm>
0

>  <SCORE.SYSTEM>
0

>  <SCORE.SYSTEM.CONST>
0

>  <SCORE.SYSTEM.DIHEDRAL>
0

>  <SCORE.SYSTEM.SOLV>
0

>  <SCORE.SYSTEM.norm>
0

>  <SCORE.heavy>
30

>  <SCORE.norm>
-1.24023

>  <RMSD>
8.019

$$$$
lig.pdb
 OpenBabel11021811523D
libRbt.so/2013.1/901 2013/11/27
 30 34  0  0  0  0  0  0  0  0999 V2000
   27.8179   41.2588   23.4253 N   0  0  0  0  0  0  0  0  0  0  0  0
   25.0300   37.8829   21.1147 N   0  0  0  0  0  0  0  0  0  0  0  0
   28.4204   42.5128   22.9629 C   0  0  0  0  0  0  0  0  0  0  0  0
   28.1621   43.4343   24.1454 C   0  0  2  0  0  0  0  0  0  0  0  0
   27.6904   40.1227   22.5195 C   0  0  0  0  0  0  0  0  0  0  0  0
   28.7837   39.5222   21.8622 C   0  0  0  0  0  0  0  0  0  0  0  0
   28.6641   38.4714   20.9873 C   0  0  0  0  0  0  0  0  0  0  0  0
   27.2715   36.8358   19.7147 C   0  0  0  0  0  0  0  0  0  0  0  0
   22.8352   37.5285   21.5384 C   0  0  0  0  0  0  0  0  0  0  0  0
   24.2015   39.1602   23.0189 C   0  0  0  0  0  0  0  0  0  0  0  0
   26.4086   39.5661   22.2486 C   0  0  0  0  0  0  0  0  0  0  0  0
   25.3865   34.1411   18.7845 O   0  0  0  0  0  0  0  0  0  0  0  0
   25.6679   35.2923   18.4447 C   0  0  0  0  0  0  0  0  0  0  0  0
   25.8065   35.6479   17.1734 O   0  0  0  0  0  0  0  0  0  0  0  0
   25.8886   36.3538   19.4627 C   0  0  1  0  0  0  0  0  0  0  0  0
   28.2620   36.3341   19.1723 O   0  0  0  0  0  0  0  0  0  0  0  0
   24.7989   36.8743   20.1823 C   0  0  0  0  0  0  0  0  0  0  0  0
   23.9176   38.2262   21.8958 C   0  0  0  0  0  0  0  0  0  0  0  0
   23.1487   36.4185   20.2692 S   0  0  0  0  0  0  0  0  0  0  0  0
   26.2869   38.4697   21.3650 C   0  0  0  0  0  0  0  0  0  0  0  0
   27.4066   37.9365   20.7081 C   0  0  0  0  0  0  0  0  0  0  0  0
   30.0263   39.9784   22.1180 F   0  0  0  0  0  0  0  0  0  0  0  0
   25.2513   40.1388   22.7989 N   0  0  0  0  0  0  0  0  0  0  0  0
   24.8586   41.3234   22.0658 C   0  0  0  0  0  0  0  0  0  0  0  0
   26.8529   41.4921   24.4938 C   0  0  0  0  0  0  0  0  0  0  0  0
   29.3761   43.9854   24.6578 O   0  0  0  0  0  0  0  0  0  0  0  0
   27.6018   42.5642   25.2675 C   0  0  2  0  0  0  0  0  0  0  0  0
   26.7934   43.4199   26.1568 N   0  0  0  0  0  0  0  0  0  0  0  0
   25.6244   42.7635   26.7697 C   0  0  0  0  0  0  0  0  0  0  0  0
   27.6001   44.1590   27.1400 C   0  0  0  0  0  0  0  0  0  0  0  0
  1  5  1  0  0  0  0
  2 17  1  0  0  0  0
  3  1  1  0  0  0  0
  4  3  1  0  0  0  0
  4 26  1  1  0  0  0
  5 11  2  0  0  0  0
  5  6  1  0  0  0  0
  6  7  2  0  0  0  0
  7 21  1  0  0  0  0
  8 15  1  0  0  0  0
  8 16  2  0  0  0  0
  9 19  1  0  0  0  0
 10 18  1  0  0  0  0
 11 20  1  0  0  0  0
 13 14  1  0  0  0  0
 13 12  2  0  0  0  0
 15 13  1  1  0  0  0
 17 19  2  0  0  0  0
 17 15  1  0  0  0  0
 18  2  1  0  0  0  0
 18  9  2  0  0  0  0
 20 21  2  0  0  0  0
 20  2  1  0  0  0  0
 21  8  1  0  0  0  0
 22  6  1  0  0  0  0
 23 11  1  0  0  0  0
 23 10  1  0  0  0  0
 24 23  1  0  0  0  0
 25  1  1  0  0  0  0
 27  4  1  0  0  0  0
 27 25  1  0  0  0  0
 27 28  1  1  0  0  0
 29 28  1  0  0  0  0
 30 28  1  0  0  0  0
M  END
>  <CHROM.1>
57.90037703,2.60379703,107.03454937,-58.78975377,146.57834212,26.44352102
39.31552607,22.02765394,-1.30392073,-0.23036148,-2.38119976

>  <Name>
lig.pdb

>  <RI>
0

>  <Rbt.Current_Directory>
/home/itssahil/PROJECTS/Mol_Feturizer/New_Systems/rnas/6bfb

>  <Rbt.Executable>
rbdock ($Id: //depot/dev/client3/rdock/2013.1/src/exe/rbdock.cxx#4 $)

>  <Rbt.Library>
libRbt.so (2013.1, Build901 2013/11/27)

>  <Rbt.Parameter_File>
/export/apps/rDock/src/rDock_2013.1_src/data/scripts/dock_solv.prm

>  <Rbt.Receptor>
prm/pocket_docking_8.prm

>  <SCORE>
-33.5469

>  <SCORE.INTER>
-30.2889

>  <SCORE.INTER.CONST>
1

>  <SCORE.INTER.POLAR>
0

>  <SCORE.INTER.ROT>
3

>  <SCORE.INTER.SOLV>
14.3787

>  <SCORE.INTER.VDW>
-30.5855

>  <SCORE.INTER.norm>
-1.00963

>  <SCORE.INTRA>
-3.25792

>  <SCORE.INTRA.DIHEDRAL>
-6.70171

>  <SCORE.INTRA.DIHEDRAL.0>
9.41909

>  <SCORE.INTRA.POLAR>
0

>  <SCORE.INTRA.POLAR.0>
0

>  <SCORE.INTRA.REPUL>
0

>  <SCORE.INTRA.REPUL.0>
0

>  <SCORE.INTRA.SOLV>
-0.0579374

>  <SCORE.INTRA.SOLV.lig_0>
-26.2491

>  <SCORE.INTRA.VDW>
0.121904

>  <SCORE.INTRA.VDW.0>
2.57239

>  <SCORE.INTRA.norm>
-0.108597

>  <SCORE.RESTR>
0

>  <SCORE.RESTR.CAVITY>
0

>  <SCORE.RESTR.norm>
0

>  <SCORE.SYSTEM>
0

>  <SCORE.SYSTEM.CONST>
0

>  <SCORE.SYSTEM.DIHEDRAL>
0

>  <SCORE.SYSTEM.SOLV>
0

>  <SCORE.SYSTEM.norm>
0

>  <SCORE.heavy>
30

>  <SCORE.norm>
-1.11823

>  <RMSD>
8.021

$$$$
lig.pdb
 OpenBabel11021811523D
libRbt.so/2013.1/901 2013/11/27
 30 34  0  0  0  0  0  0  0  0999 V2000
   27.7476   41.2232   23.5290 N   0  0  0  0  0  0  0  0  0  0  0  0
   25.0200   37.8599   21.1298 N   0  0  0  0  0  0  0  0  0  0  0  0
   28.3548   42.4804   23.0817 C   0  0  0  0  0  0  0  0  0  0  0  0
   28.0677   43.3987   24.2601 C   0  0  2  0  0  0  0  0  0  0  0  0
   27.6440   40.0883   22.6186 C   0  0  0  0  0  0  0  0  0  0  0  0
   28.7549   39.4841   21.9952 C   0  0  0  0  0  0  0  0  0  0  0  0
   28.6585   38.4344   21.1161 C   0  0  0  0  0  0  0  0  0  0  0  0
   27.2999   36.8052   19.7994 C   0  0  0  0  0  0  0  0  0  0  0  0
   22.8117   37.5136   21.4848 C   0  0  0  0  0  0  0  0  0  0  0  0
   24.1375   39.1390   23.0085 C   0  0  0  0  0  0  0  0  0  0  0  0
   26.3691   39.5369   22.3076 C   0  0  0  0  0  0  0  0  0  0  0  0
   25.9870   34.0902   18.7338 O   0  0  0  0  0  0  0  0  0  0  0  0
   25.7307   35.2689   18.4788 C   0  0  0  0  0  0  0  0  0  0  0  0
   25.2908   35.6629   17.2899 O   0  0  0  0  0  0  0  0  0  0  0  0
   25.9236   36.3287   19.5040 C   0  0  1  0  0  0  0  0  0  0  0  0
   28.3049   36.3000   19.2876 O   0  0  0  0  0  0  0  0  0  0  0  0
   24.8141   36.8529   20.1898 C   0  0  0  0  0  0  0  0  0  0  0  0
   23.8851   38.2069   21.8763 C   0  0  0  0  0  0  0  0  0  0  0  0
   23.1603   36.4034   20.2250 S   0  0  0  0  0  0  0  0  0  0  0  0
   26.2707   38.4417   21.4197 C   0  0  0  0  0  0  0  0  0  0  0  0
   27.4082   37.9046   20.7974 C   0  0  0  0  0  0  0  0  0  0  0  0
   29.9907   39.9353   22.2899 F   0  0  0  0  0  0  0  0  0  0  0  0
   25.1974   40.1136   22.8221 N   0  0  0  0  0  0  0  0  0  0  0  0
   24.8323   41.3003   22.0782 C   0  0  0  0  0  0  0  0  0  0  0  0
   26.7591   41.4507   24.5771 C   0  0  0  0  0  0  0  0  0  0  0  0
   29.2682   43.9537   24.7992 O   0  0  0  0  0  0  0  0  0  0  0  0
   27.4871   42.5243   25.3684 C   0  0  2  0  0  0  0  0  0  0  0  0
   26.6565   43.3752   26.2418 N   0  0  0  0  0  0  0  0  0  0  0  0
   25.4869   42.7083   26.8422 C   0  0  0  0  0  0  0  0  0  0  0  0
   27.4408   44.1290   27.2321 C   0  0  0  0  0  0  0  0  0  0  0  0
  1  5  1  0  0  0  0
  2 17  1  0  0  0  0
  3  1  1  0  0  0  0
  4  3  1  0  0  0  0
  4 26  1  1  0  0  0
  5 11  2  0  0  0  0
  5  6  1  0  0  0  0
  6  7  2  0  0  0  0
  7 21  1  0  0  0  0
  8 15  1  0  0  0  0
  8 16  2  0  0  0  0
  9 19  1  0  0  0  0
 10 18  1  0  0  0  0
 11 20  1  0  0  0  0
 13 14  1  0  0  0  0
 13 12  2  0  0  0  0
 15 13  1  1  0  0  0
 17 19  2  0  0  0  0
 17 15  1  0  0  0  0
 18  2  1  0  0  0  0
 18  9  2  0  0  0  0
 20 21  2  0  0  0  0
 20  2  1  0  0  0  0
 21  8  1  0  0  0  0
 22  6  1  0  0  0  0
 23 11  1  0  0  0  0
 23 10  1  0  0  0  0
 24 23  1  0  0  0  0
 25  1  1  0  0  0  0
 27  4  1  0  0  0  0
 27 25  1  0  0  0  0
 27 28  1  1  0  0  0
 29 28  1  0  0  0  0
 30 28  1  0  0  0  0
M  END
>  <CHROM.1>
58.62235223,2.29916582,76.47021817,98.63451305,147.32142525,26.40629597,39.28996998
22.08756695,-1.32171203,-0.19332766,-2.38799723

>  <Name>
lig.pdb

>  <RI>
0

>  <Rbt.Current_Directory>
/home/itssahil/PROJECTS/Mol_Feturizer/New_Systems/rnas/6bfb

>  <Rbt.Executable>
rbdock ($Id: //depot/dev/client3/rdock/2013.1/src/exe/rbdock.cxx#4 $)

>  <Rbt.Library>
libRbt.so (2013.1, Build901 2013/11/27)

>  <Rbt.Parameter_File>
/export/apps/rDock/src/rDock_2013.1_src/data/scripts/dock_solv.prm

>  <Rbt.Receptor>
prm/pocket_docking_8.prm

>  <SCORE>
-36.9228

>  <SCORE.INTER>
-35.4007

>  <SCORE.INTER.CONST>
1

>  <SCORE.INTER.POLAR>
-1.06198

>  <SCORE.INTER.ROT>
3

>  <SCORE.INTER.SOLV>
14.4415

>  <SCORE.INTER.VDW>
-30.4744

>  <SCORE.INTER.norm>
-1.18002

>  <SCORE.INTRA>
-1.52211

>  <SCORE.INTRA.DIHEDRAL>
-1.6766

>  <SCORE.INTRA.DIHEDRAL.0>
9.41909

>  <SCORE.INTRA.POLAR>
0

>  <SCORE.INTRA.POLAR.0>
0

>  <SCORE.INTRA.REPUL>
0

>  <SCORE.INTRA.REPUL.0>
0

>  <SCORE.INTRA.SOLV>
-0.0720513

>  <SCORE.INTRA.SOLV.lig_0>
-26.2491

>  <SCORE.INTRA.VDW>
-0.647786

>  <SCORE.INTRA.VDW.0>
2.57239

>  <SCORE.INTRA.norm>
-0.0507371

>  <SCORE.RESTR>
0

>  <SCORE.RESTR.CAVITY>
0

>  <SCORE.RESTR.norm>
0

>  <SCORE.SYSTEM>
0

>  <SCORE.SYSTEM.CONST>
0

>  <SCORE.SYSTEM.DIHEDRAL>
0

>  <SCORE.SYSTEM.SOLV>
0

>  <SCORE.SYSTEM.norm>
0

>  <SCORE.heavy>
30

>  <SCORE.norm>
-1.23076

>  <RMSD>
8.022

$$$$
lig.pdb
 OpenBabel11021811523D
libRbt.so/2013.1/901 2013/11/27
 30 34  0  0  0  0  0  0  0  0999 V2000
   27.7877   41.2550   23.4533 N   0  0  0  0  0  0  0  0  0  0  0  0
   25.0243   37.8898   21.0983 N   0  0  0  0  0  0  0  0  0  0  0  0
   28.3977   42.5139   23.0145 C   0  0  0  0  0  0  0  0  0  0  0  0
   28.1281   43.4199   24.2065 C   0  0  2  0  0  0  0  0  0  0  0  0
   27.6682   40.1315   22.5308 C   0  0  0  0  0  0  0  0  0  0  0  0
   28.7652   39.5506   21.8623 C   0  0  0  0  0  0  0  0  0  0  0  0
   28.6528   38.5120   20.9720 C   0  0  0  0  0  0  0  0  0  0  0  0
   27.2717   36.8834   19.6780 C   0  0  0  0  0  0  0  0  0  0  0  0
   22.8336   37.5098   21.5214 C   0  0  0  0  0  0  0  0  0  0  0  0
   24.1889   39.1311   23.0232 C   0  0  0  0  0  0  0  0  0  0  0  0
   26.3907   39.5678   22.2544 C   0  0  0  0  0  0  0  0  0  0  0  0
   25.2530   34.2305   18.6990 O   0  0  0  0  0  0  0  0  0  0  0  0
   25.6788   35.3451   18.3885 C   0  0  0  0  0  0  0  0  0  0  0  0
   25.9846   35.6698   17.1383 O   0  0  0  0  0  0  0  0  0  0  0  0
   25.8924   36.3931   19.4217 C   0  0  1  0  0  0  0  0  0  0  0  0
   28.2653   36.3986   19.1260 O   0  0  0  0  0  0  0  0  0  0  0  0
   24.7999   36.8932   20.1514 C   0  0  0  0  0  0  0  0  0  0  0  0
   23.9107   38.2115   21.8869 C   0  0  0  0  0  0  0  0  0  0  0  0
   23.1540   36.4217   20.2350 S   0  0  0  0  0  0  0  0  0  0  0  0
   26.2766   38.4838   21.3547 C   0  0  0  0  0  0  0  0  0  0  0  0
   27.3994   37.9703   20.6875 C   0  0  0  0  0  0  0  0  0  0  0  0
   30.0043   40.0138   22.1222 F   0  0  0  0  0  0  0  0  0  0  0  0
   25.2296   40.1220   22.8156 N   0  0  0  0  0  0  0  0  0  0  0  0
   24.8249   41.3140   22.1013 C   0  0  0  0  0  0  0  0  0  0  0  0
   26.8114   41.4759   24.5141 C   0  0  0  0  0  0  0  0  0  0  0  0
   29.3373   43.9616   24.7397 O   0  0  0  0  0  0  0  0  0  0  0  0
   27.5537   42.5358   25.3104 C   0  0  2  0  0  0  0  0  0  0  0  0
   26.7372   43.3812   26.2022 N   0  0  0  0  0  0  0  0  0  0  0  0
   25.5686   42.7146   26.8051 C   0  0  0  0  0  0  0  0  0  0  0  0
   27.5358   44.1170   27.1945 C   0  0  0  0  0  0  0  0  0  0  0  0
  1  5  1  0  0  0  0
  2 17  1  0  0  0  0
  3  1  1  0  0  0  0
  4  3  1  0  0  0  0
  4 26  1  1  0  0  0
  5 11  2  0  0  0  0
  5  6  1  0  0  0  0
  6  7  2  0  0  0  0
  7 21  1  0  0  0  0
  8 15  1  0  0  0  0
  8 16  2  0  0  0  0
  9 19  1  0  0  0  0
 10 18  1  0  0  0  0
 11 20  1  0  0  0  0
 13 14  1  0  0  0  0
 13 12  2  0  0  0  0
 15 13  1  1  0  0  0
 17 19  2  0  0  0  0
 17 15  1  0  0  0  0
 18  2  1  0  0  0  0
 18  9  2  0  0  0  0
 20 21  2  0  0  0  0
 20  2  1  0  0  0  0
 21  8  1  0  0  0  0
 22  6  1  0  0  0  0
 23 11  1  0  0  0  0
 23 10  1  0  0  0  0
 24 23  1  0  0  0  0
 25  1  1  0  0  0  0
 27  4  1  0  0  0  0
 27 25  1  0  0  0  0
 27 28  1  1  0  0  0
 29 28  1  0  0  0  0
 30 28  1  0  0  0  0
M  END
>  <CHROM.1>
56.91976059,1.79597652,115.79888739,99.21821188,147.22798271,26.42628817
39.32615125,22.02683128,-1.30998540,-0.24202437,-2.36949072

>  <Name>
lig.pdb

>  <RI>
0

>  <Rbt.Current_Directory>
/home/itssahil/PROJECTS/Mol_Feturizer/New_Systems/rnas/6bfb

>  <Rbt.Executable>
rbdock ($Id: //depot/dev/client3/rdock/2013.1/src/exe/rbdock.cxx#4 $)

>  <Rbt.Library>
libRbt.so (2013.1, Build901 2013/11/27)

>  <Rbt.Parameter_File>
/export/apps/rDock/src/rDock_2013.1_src/data/scripts/dock_solv.prm

>  <Rbt.Receptor>
prm/pocket_docking_3.prm

>  <SCORE>
-36.8955

>  <SCORE.INTER>
-35.7301

>  <SCORE.INTER.CONST>
1

>  <SCORE.INTER.POLAR>
-1.05631

>  <SCORE.INTER.ROT>
3

>  <SCORE.INTER.SOLV>
14.1142

>  <SCORE.INTER.VDW>
-30.6037

>  <SCORE.INTER.norm>
-1.191

>  <SCORE.INTRA>
-1.16543

>  <SCORE.INTRA.DIHEDRAL>
-1.59302

>  <SCORE.INTRA.DIHEDRAL.0>
9.41909

>  <SCORE.INTRA.POLAR>
0

>  <SCORE.INTRA.POLAR.0>
0

>  <SCORE.INTRA.REPUL>
0

>  <SCORE.INTRA.REPUL.0>
0

>  <SCORE.INTRA.SOLV>
-0.0507676

>  <SCORE.INTRA.SOLV.lig_0>
-26.2491

>  <SCORE.INTRA.VDW>
-0.343533

>  <SCORE.INTRA.VDW.0>
2.57239

>  <SCORE.INTRA.norm>
-0.0388476

>  <SCORE.RESTR>
0

>  <SCORE.RESTR.CAVITY>
0

>  <SCORE.RESTR.norm>
0

>  <SCORE.SYSTEM>
0

>  <SCORE.SYSTEM.CONST>
0

>  <SCORE.SYSTEM.DIHEDRAL>
0

>  <SCORE.SYSTEM.SOLV>
0

>  <SCORE.SYSTEM.norm>
0

>  <SCORE.heavy>
30

>  <SCORE.norm>
-1.22985

>  <RMSD>
8.028

$$$$
lig.pdb
 OpenBabel11021811523D
libRbt.so/2013.1/901 2013/11/27
 30 34  0  0  0  0  0  0  0  0999 V2000
   24.4288   43.4254   26.1777 N   0  0  0  0  0  0  0  0  0  0  0  0
   27.3022   40.8809   23.0511 N   0  0  0  0  0  0  0  0  0  0  0  0
   23.2285   44.2608   26.0726 C   0  0  0  0  0  0  0  0  0  0  0  0
   23.3528   45.1374   27.3097 C   0  0  2  0  0  0  0  0  0  0  0  0
   24.6311   42.3054   25.2655 C   0  0  0  0  0  0  0  0  0  0  0  0
   23.6425   41.3409   24.9826 C   0  0  0  0  0  0  0  0  0  0  0  0
   23.8389   40.2700   24.1469 C   0  0  0  0  0  0  0  0  0  0  0  0
   25.3028   38.8984   22.6603 C   0  0  0  0  0  0  0  0  0  0  0  0
   29.3240   41.5809   22.3129 C   0  0  0  0  0  0  0  0  0  0  0  0
   27.8434   43.1544   23.7458 C   0  0  0  0  0  0  0  0  0  0  0  0
   25.8843   42.1343   24.6125 C   0  0  0  0  0  0  0  0  0  0  0  0
   26.1798   37.1664   20.3961 O   0  0  0  0  0  0  0  0  0  0  0  0
   26.9804   37.5888   21.2332 C   0  0  0  0  0  0  0  0  0  0  0  0
   28.1525   37.0073   21.4572 O   0  0  0  0  0  0  0  0  0  0  0  0
   26.6577   38.7811   22.0612 C   0  0  1  0  0  0  0  0  0  0  0  0
   24.4002   38.0855   22.4331 O   0  0  0  0  0  0  0  0  0  0  0  0
   27.6228   39.7849   22.2535 C   0  0  0  0  0  0  0  0  0  0  0  0
   28.2608   41.9039   23.0555 C   0  0  0  0  0  0  0  0  0  0  0  0
   29.1722   40.0439   21.5674 S   0  0  0  0  0  0  0  0  0  0  0  0
   26.0803   41.0442   23.7344 C   0  0  0  0  0  0  0  0  0  0  0  0
   25.0720   40.0919   23.5200 C   0  0  0  0  0  0  0  0  0  0  0  0
   22.4213   41.4799   25.5367 F   0  0  0  0  0  0  0  0  0  0  0  0
   26.9545   43.0011   24.8836 N   0  0  0  0  0  0  0  0  0  0  0  0
   27.5947   42.6606   26.1362 C   0  0  0  0  0  0  0  0  0  0  0  0
   24.9422   43.3975   27.5427 C   0  0  0  0  0  0  0  0  0  0  0  0
   23.3605   46.5252   26.9723 O   0  0  0  0  0  0  0  0  0  0  0  0
   24.7263   44.8552   27.9131 C   0  0  2  0  0  0  0  0  0  0  0  0
   24.6714   45.1669   29.3541 N   0  0  0  0  0  0  0  0  0  0  0  0
   23.7322   44.3463   30.1401 C   0  0  0  0  0  0  0  0  0  0  0  0
   26.0001   45.2514   29.9797 C   0  0  0  0  0  0  0  0  0  0  0  0
  1  5  1  0  0  0  0
  2 17  1  0  0  0  0
  3  1  1  0  0  0  0
  4  3  1  0  0  0  0
  4 26  1  6  0  0  0
  5 11  2  0  0  0  0
  5  6  1  0  0  0  0
  6  7  2  0  0  0  0
  7 21  1  0  0  0  0
  8 15  1  0  0  0  0
  8 16  2  0  0  0  0
  9 19  1  0  0  0  0
 10 18  1  0  0  0  0
 11 20  1  0  0  0  0
 13 14  1  0  0  0  0
 13 12  2  0  0  0  0
 15 13  1  6  0  0  0
 17 19  2  0  0  0  0
 17 15  1  0  0  0  0
 18  2  1  0  0  0  0
 18  9  2  0  0  0  0
 20 21  2  0  0  0  0
 20  2  1  0  0  0  0
 21  8  1  0  0  0  0
 22  6  1  0  0  0  0
 23 11  1  0  0  0  0
 23 10  1  0  0  0  0
 24 23  1  0  0  0  0
 25  1  1  0  0  0  0
 27  4  1  0  0  0  0
 27 25  1  0  0  0  0
 27 28  1  1  0  0  0
 29 28  1  0  0  0  0
 30 28  1  0  0  0  0
M  END
>  <CHROM.1>
-48.18612364,0.14567294,44.04405582,177.42319961,62.73829138,25.82072691
41.66908827,24.60598202,1.92833705,0.28760977,0.71448360

>  <Name>
lig.pdb

>  <RI>
0

>  <Rbt.Current_Directory>
/home/itssahil/PROJECTS/Mol_Feturizer/New_Systems/rnas/6bfb

>  <Rbt.Executable>
rbdock ($Id: //depot/dev/client3/rdock/2013.1/src/exe/rbdock.cxx#4 $)

>  <Rbt.Library>
libRbt.so (2013.1, Build901 2013/11/27)

>  <Rbt.Parameter_File>
/export/apps/rDock/src/rDock_2013.1_src/data/scripts/dock_solv.prm

>  <Rbt.Receptor>
prm/pocket_docking_8.prm

>  <SCORE>
-33.2145

>  <SCORE.INTER>
-28.0439

>  <SCORE.INTER.CONST>
1

>  <SCORE.INTER.POLAR>
0

>  <SCORE.INTER.ROT>
3

>  <SCORE.INTER.SOLV>
12.7853

>  <SCORE.INTER.VDW>
-28.5577

>  <SCORE.INTER.norm>
-0.934798

>  <SCORE.INTRA>
-5.17057

>  <SCORE.INTRA.DIHEDRAL>
-7.60147

>  <SCORE.INTRA.DIHEDRAL.0>
9.41909

>  <SCORE.INTRA.POLAR>
0

>  <SCORE.INTRA.POLAR.0>
0

>  <SCORE.INTRA.REPUL>
0.0738128

>  <SCORE.INTRA.REPUL.0>
0

>  <SCORE.INTRA.SOLV>
-0.201238

>  <SCORE.INTRA.SOLV.lig_0>
-26.2491

>  <SCORE.INTRA.VDW>
-1.63828

>  <SCORE.INTRA.VDW.0>
2.57239

>  <SCORE.INTRA.norm>
-0.172352

>  <SCORE.RESTR>
0

>  <SCORE.RESTR.CAVITY>
0

>  <SCORE.RESTR.norm>
0

>  <SCORE.SYSTEM>
0

>  <SCORE.SYSTEM.CONST>
0

>  <SCORE.SYSTEM.DIHEDRAL>
0

>  <SCORE.SYSTEM.SOLV>
0

>  <SCORE.SYSTEM.norm>
0

>  <SCORE.heavy>
30

>  <SCORE.norm>
-1.10715

>  <RMSD>
8.031

$$$$
lig.pdb
 OpenBabel11021811523D
libRbt.so/2013.1/901 2013/11/27
 30 34  0  0  0  0  0  0  0  0999 V2000
   27.6589   41.1666   23.5876 N   0  0  0  0  0  0  0  0  0  0  0  0
   24.9810   37.7896   21.1522 N   0  0  0  0  0  0  0  0  0  0  0  0
   28.2507   42.4299   23.1364 C   0  0  0  0  0  0  0  0  0  0  0  0
   27.9468   43.3498   24.3093 C   0  0  2  0  0  0  0  0  0  0  0  0
   27.5740   40.0261   22.6823 C   0  0  0  0  0  0  0  0  0  0  0  0
   28.6976   39.4175   22.0864 C   0  0  0  0  0  0  0  0  0  0  0  0
   28.6192   38.3624   21.2120 C   0  0  0  0  0  0  0  0  0  0  0  0
   27.2880   36.7255   19.8770 C   0  0  0  0  0  0  0  0  0  0  0  0
   22.7654   37.4465   21.4623 C   0  0  0  0  0  0  0  0  0  0  0  0
   24.0595   39.0807   23.0036 C   0  0  0  0  0  0  0  0  0  0  0  0
   26.3057   39.4733   22.3477 C   0  0  0  0  0  0  0  0  0  0  0  0
   25.0580   35.3756   17.5287 O   0  0  0  0  0  0  0  0  0  0  0  0
   25.7463   35.1817   18.5330 C   0  0  0  0  0  0  0  0  0  0  0  0
   26.3527   34.0250   18.7705 O   0  0  0  0  0  0  0  0  0  0  0  0
   25.9180   36.2478   19.5555 C   0  0  1  0  0  0  0  0  0  0  0  0
   28.3033   36.2168   19.3898 O   0  0  0  0  0  0  0  0  0  0  0  0
   24.7945   36.7767   20.2143 C   0  0  0  0  0  0  0  0  0  0  0  0
   23.8307   38.1417   21.8722 C   0  0  0  0  0  0  0  0  0  0  0  0
   23.1400   36.3282   20.2171 S   0  0  0  0  0  0  0  0  0  0  0  0
   26.2256   38.3726   21.4648 C   0  0  0  0  0  0  0  0  0  0  0  0
   27.3758   37.8311   20.8702 C   0  0  0  0  0  0  0  0  0  0  0  0
   29.9271   39.8700   22.4044 F   0  0  0  0  0  0  0  0  0  0  0  0
   25.1237   40.0538   22.8336 N   0  0  0  0  0  0  0  0  0  0  0  0
   24.7751   41.2359   22.0748 C   0  0  0  0  0  0  0  0  0  0  0  0
   26.6637   41.3857   24.6311 C   0  0  0  0  0  0  0  0  0  0  0  0
   29.1378   43.9235   24.8500 O   0  0  0  0  0  0  0  0  0  0  0  0
   27.3741   42.4728   25.4198 C   0  0  2  0  0  0  0  0  0  0  0  0
   26.5290   43.3166   26.2861 N   0  0  0  0  0  0  0  0  0  0  0  0
   25.3211   42.6601   26.8187 C   0  0  0  0  0  0  0  0  0  0  0  0
   27.2900   44.0205   27.3297 C   0  0  0  0  0  0  0  0  0  0  0  0
  1  5  1  0  0  0  0
  2 17  1  0  0  0  0
  3  1  1  0  0  0  0
  4  3  1  0  0  0  0
  4 26  1  1  0  0  0
  5 11  2  0  0  0  0
  5  6  1  0  0  0  0
  6  7  2  0  0  0  0
  7 21  1  0  0  0  0
  8 15  1  0  0  0  0
  8 16  2  0  0  0  0
  9 19  1  0  0  0  0
 10 18  1  0  0  0  0
 11 20  1  0  0  0  0
 13 14  1  0  0  0  0
 13 12  2  0  0  0  0
 15 13  1  1  0  0  0
 17 19  2  0  0  0  0
 17 15  1  0  0  0  0
 18  2  1  0  0  0  0
 18  9  2  0  0  0  0
 20 21  2  0  0  0  0
 20  2  1  0  0  0  0
 21  8  1  0  0  0  0
 22  6  1  0  0  0  0
 23 11  1  0  0  0  0
 23 10  1  0  0  0  0
 24 23  1  0  0  0  0
 25  1  1  0  0  0  0
 27  4  1  0  0  0  0
 27 25  1  0  0  0  0
 27 28  1  1  0  0  0
 29 28  1  0  0  0  0
 30 28  1  0  0  0  0
M  END
>  <CHROM.1>
59.91793207,-0.10788889,-121.44504831,95.38787909,143.70782426,26.35241644
39.21198749,22.14094699,-1.33882985,-0.16786372,-2.40372195

>  <Name>
lig.pdb

>  <RI>
0

>  <Rbt.Current_Directory>
/home/itssahil/PROJECTS/Mol_Feturizer/New_Systems/rnas/6bfb

>  <Rbt.Executable>
rbdock ($Id: //depot/dev/client3/rdock/2013.1/src/exe/rbdock.cxx#4 $)

>  <Rbt.Library>
libRbt.so (2013.1, Build901 2013/11/27)

>  <Rbt.Parameter_File>
/export/apps/rDock/src/rDock_2013.1_src/data/scripts/dock_solv.prm

>  <Rbt.Receptor>
prm/pocket_docking_8.prm

>  <SCORE>
-36.7451

>  <SCORE.INTER>
-35.0811

>  <SCORE.INTER.CONST>
1

>  <SCORE.INTER.POLAR>
-1.00836

>  <SCORE.INTER.ROT>
3

>  <SCORE.INTER.SOLV>
14.3873

>  <SCORE.INTER.VDW>
-30.422

>  <SCORE.INTER.norm>
-1.16937

>  <SCORE.INTRA>
-1.66394

>  <SCORE.INTRA.DIHEDRAL>
-2.05799

>  <SCORE.INTRA.DIHEDRAL.0>
9.41909

>  <SCORE.INTRA.POLAR>
0

>  <SCORE.INTRA.POLAR.0>
0

>  <SCORE.INTRA.REPUL>
0

>  <SCORE.INTRA.REPUL.0>
0

>  <SCORE.INTRA.SOLV>
-0.0578653

>  <SCORE.INTRA.SOLV.lig_0>
-26.2491

>  <SCORE.INTRA.VDW>
-0.606014

>  <SCORE.INTRA.VDW.0>
2.57239

>  <SCORE.INTRA.norm>
-0.0554647

>  <SCORE.RESTR>
0

>  <SCORE.RESTR.CAVITY>
0

>  <SCORE.RESTR.norm>
0

>  <SCORE.SYSTEM>
0

>  <SCORE.SYSTEM.CONST>
0

>  <SCORE.SYSTEM.DIHEDRAL>
0

>  <SCORE.SYSTEM.SOLV>
0

>  <SCORE.SYSTEM.norm>
0

>  <SCORE.heavy>
30

>  <SCORE.norm>
-1.22484

>  <RMSD>
8.033

$$$$
lig.pdb
 OpenBabel11021811523D
libRbt.so/2013.1/901 2013/11/27
 30 34  0  0  0  0  0  0  0  0999 V2000
   27.6199   41.0808   23.9025 N   0  0  0  0  0  0  0  0  0  0  0  0
   25.0004   37.8667   21.1978 N   0  0  0  0  0  0  0  0  0  0  0  0
   27.9878   42.4471   23.5188 C   0  0  0  0  0  0  0  0  0  0  0  0
   27.7347   43.2097   24.8106 C   0  0  2  0  0  0  0  0  0  0  0  0
   27.5535   40.0244   22.8989 C   0  0  0  0  0  0  0  0  0  0  0  0
   28.6850   39.5020   22.2398 C   0  0  0  0  0  0  0  0  0  0  0  0
   28.6233   38.5281   21.2746 C   0  0  0  0  0  0  0  0  0  0  0  0
   27.3186   36.9833   19.8099 C   0  0  0  0  0  0  0  0  0  0  0  0
   22.7982   37.4385   21.4968 C   0  0  0  0  0  0  0  0  0  0  0  0
   24.0683   38.9612   23.1669 C   0  0  0  0  0  0  0  0  0  0  0  0
   26.2958   39.4706   22.5278 C   0  0  0  0  0  0  0  0  0  0  0  0
   25.8985   34.3143   18.5507 O   0  0  0  0  0  0  0  0  0  0  0  0
   25.8010   35.5263   18.3468 C   0  0  0  0  0  0  0  0  0  0  0  0
   25.5715   36.0312   17.1408 O   0  0  0  0  0  0  0  0  0  0  0  0
   25.9575   36.5003   19.4596 C   0  0  1  0  0  0  0  0  0  0  0  0
   28.3407   36.5475   19.2692 O   0  0  0  0  0  0  0  0  0  0  0  0
   24.8288   36.9378   20.1741 C   0  0  0  0  0  0  0  0  0  0  0  0
   23.8501   38.1221   21.9575 C   0  0  0  0  0  0  0  0  0  0  0  0
   23.1865   36.4471   20.1522 S   0  0  0  0  0  0  0  0  0  0  0  0
   26.2334   38.4520   21.5499 C   0  0  0  0  0  0  0  0  0  0  0  0
   27.3898   37.9970   20.8980 C   0  0  0  0  0  0  0  0  0  0  0  0
   29.9062   39.9564   22.5857 F   0  0  0  0  0  0  0  0  0  0  0  0
   25.1052   39.9734   23.0753 N   0  0  0  0  0  0  0  0  0  0  0  0
   24.7175   41.2094   22.4296 C   0  0  0  0  0  0  0  0  0  0  0  0
   26.7546   41.0705   25.0767 C   0  0  0  0  0  0  0  0  0  0  0  0
   28.9088   43.8875   25.2599 O   0  0  0  0  0  0  0  0  0  0  0  0
   27.4271   42.1683   25.8835 C   0  0  2  0  0  0  0  0  0  0  0  0
   26.6097   42.8104   26.9305 N   0  0  0  0  0  0  0  0  0  0  0  0
   27.2765   43.8966   27.6715 C   0  0  0  0  0  0  0  0  0  0  0  0
   25.2674   43.1919   26.4652 C   0  0  0  0  0  0  0  0  0  0  0  0
  1  5  1  0  0  0  0
  2 17  1  0  0  0  0
  3  1  1  0  0  0  0
  4  3  1  0  0  0  0
  4 26  1  1  0  0  0
  5 11  2  0  0  0  0
  5  6  1  0  0  0  0
  6  7  2  0  0  0  0
  7 21  1  0  0  0  0
  8 15  1  0  0  0  0
  8 16  2  0  0  0  0
  9 19  1  0  0  0  0
 10 18  1  0  0  0  0
 11 20  1  0  0  0  0
 13 14  1  0  0  0  0
 13 12  2  0  0  0  0
 15 13  1  1  0  0  0
 17 19  2  0  0  0  0
 17 15  1  0  0  0  0
 18  2  1  0  0  0  0
 18  9  2  0  0  0  0
 20 21  2  0  0  0  0
 20  2  1  0  0  0  0
 21  8  1  0  0  0  0
 22  6  1  0  0  0  0
 23 11  1  0  0  0  0
 23 10  1  0  0  0  0
 24 23  1  0  0  0  0
 25  1  1  0  0  0  0
 27  4  1  0  0  0  0
 27 25  1  0  0  0  0
 27 28  1  1  0  0  0
 29 28  1  0  0  0  0
 30 28  1  0  0  0  0
M  END
>  <CHROM.1>
68.89730521,-0.18153678,86.90917840,79.68437899,-64.16160500,26.34041264
39.28373700,22.25518400,-1.35024735,-0.17762724,-2.33614961

>  <Name>
lig.pdb

>  <RI>
0

>  <Rbt.Current_Directory>
/home/itssahil/PROJECTS/Mol_Feturizer/New_Systems/rnas/6bfb

>  <Rbt.Executable>
rbdock ($Id: //depot/dev/client3/rdock/2013.1/src/exe/rbdock.cxx#4 $)

>  <Rbt.Library>
libRbt.so (2013.1, Build901 2013/11/27)

>  <Rbt.Parameter_File>
/export/apps/rDock/src/rDock_2013.1_src/data/scripts/dock_solv.prm

>  <Rbt.Receptor>
prm/pocket_docking_3.prm

>  <SCORE>
-39.0611

>  <SCORE.INTER>
-35.7268

>  <SCORE.INTER.CONST>
1

>  <SCORE.INTER.POLAR>
-1.00092

>  <SCORE.INTER.ROT>
3

>  <SCORE.INTER.SOLV>
15.0517

>  <SCORE.INTER.VDW>
-31.0987

>  <SCORE.INTER.norm>
-1.19089

>  <SCORE.INTRA>
-3.3343

>  <SCORE.INTRA.DIHEDRAL>
-5.99549

>  <SCORE.INTRA.DIHEDRAL.0>
9.41909

>  <SCORE.INTRA.POLAR>
0

>  <SCORE.INTRA.POLAR.0>
0

>  <SCORE.INTRA.REPUL>
0

>  <SCORE.INTRA.REPUL.0>
0

>  <SCORE.INTRA.SOLV>
0.1117

>  <SCORE.INTRA.SOLV.lig_0>
-26.2491

>  <SCORE.INTRA.VDW>
-0.392405

>  <SCORE.INTRA.VDW.0>
2.57239

>  <SCORE.INTRA.norm>
-0.111143

>  <SCORE.RESTR>
0

>  <SCORE.RESTR.CAVITY>
0

>  <SCORE.RESTR.norm>
0

>  <SCORE.SYSTEM>
0

>  <SCORE.SYSTEM.CONST>
0

>  <SCORE.SYSTEM.DIHEDRAL>
0

>  <SCORE.SYSTEM.SOLV>
0

>  <SCORE.SYSTEM.norm>
0

>  <SCORE.heavy>
30

>  <SCORE.norm>
-1.30204

>  <RMSD>
8.053

$$$$
lig.pdb
 OpenBabel11021811523D
libRbt.so/2013.1/901 2013/11/27
 30 34  0  0  0  0  0  0  0  0999 V2000
   27.8777   41.1046   23.0354 N   0  0  0  0  0  0  0  0  0  0  0  0
   25.1056   37.6632   20.8039 N   0  0  0  0  0  0  0  0  0  0  0  0
   28.3792   42.3755   22.5037 C   0  0  0  0  0  0  0  0  0  0  0  0
   28.1444   43.3154   23.6766 C   0  0  2  0  0  0  0  0  0  0  0  0
   27.7574   39.9376   22.1687 C   0  0  0  0  0  0  0  0  0  0  0  0
   28.8570   39.3084   21.5501 C   0  0  0  0  0  0  0  0  0  0  0  0
   28.7445   38.2277   20.7114 C   0  0  0  0  0  0  0  0  0  0  0  0
   27.3620   36.5551   19.4766 C   0  0  0  0  0  0  0  0  0  0  0  0
   22.9026   37.3356   21.2063 C   0  0  0  0  0  0  0  0  0  0  0  0
   24.2558   39.0119   22.6486 C   0  0  0  0  0  0  0  0  0  0  0  0
   26.4767   39.3784   21.8982 C   0  0  0  0  0  0  0  0  0  0  0  0
   25.9548   35.1637   17.0336 O   0  0  0  0  0  0  0  0  0  0  0  0
   25.7688   34.9758   18.2378 C   0  0  0  0  0  0  0  0  0  0  0  0
   25.3591   33.8104   18.7237 O   0  0  0  0  0  0  0  0  0  0  0  0
   25.9802   36.0717   19.2207 C   0  0  1  0  0  0  0  0  0  0  0  0
   28.3576   36.0292   18.9675 O   0  0  0  0  0  0  0  0  0  0  0  0
   24.8828   36.6232   19.9045 C   0  0  0  0  0  0  0  0  0  0  0  0
   23.9835   38.0399   21.5552 C   0  0  0  0  0  0  0  0  0  0  0  0
   23.2289   36.1794   19.9823 S   0  0  0  0  0  0  0  0  0  0  0  0
   26.3620   38.2519   21.0524 C   0  0  0  0  0  0  0  0  0  0  0  0
   27.4883   37.6898   20.4321 C   0  0  0  0  0  0  0  0  0  0  0  0
   30.0982   39.7669   21.8085 F   0  0  0  0  0  0  0  0  0  0  0  0
   25.3144   39.9764   22.4100 N   0  0  0  0  0  0  0  0  0  0  0  0
   24.9397   41.1362   21.6294 C   0  0  0  0  0  0  0  0  0  0  0  0
   26.9700   41.3161   24.1573 C   0  0  0  0  0  0  0  0  0  0  0  0
   29.3554   43.9458   24.0961 O   0  0  0  0  0  0  0  0  0  0  0  0
   27.7048   42.4490   24.8540 C   0  0  2  0  0  0  0  0  0  0  0  0
   26.9072   43.2851   25.7712 N   0  0  0  0  0  0  0  0  0  0  0  0
   25.7732   42.6020   26.4199 C   0  0  0  0  0  0  0  0  0  0  0  0
   27.7289   44.0397   26.7299 C   0  0  0  0  0  0  0  0  0  0  0  0
  1  5  1  0  0  0  0
  2 17  1  0  0  0  0
  3  1  1  0  0  0  0
  4  3  1  0  0  0  0
  4 26  1  1  0  0  0
  5 11  2  0  0  0  0
  5  6  1  0  0  0  0
  6  7  2  0  0  0  0
  7 21  1  0  0  0  0
  8 15  1  0  0  0  0
  8 16  2  0  0  0  0
  9 19  1  0  0  0  0
 10 18  1  0  0  0  0
 11 20  1  0  0  0  0
 13 14  1  0  0  0  0
 13 12  2  0  0  0  0
 15 13  1  1  0  0  0
 17 19  2  0  0  0  0
 17 15  1  0  0  0  0
 18  2  1  0  0  0  0
 18  9  2  0  0  0  0
 20 21  2  0  0  0  0
 20  2  1  0  0  0  0
 21  8  1  0  0  0  0
 22  6  1  0  0  0  0
 23 11  1  0  0  0  0
 23 10  1  0  0  0  0
 24 23  1  0  0  0  0
 25  1  1  0  0  0  0
 27  4  1  0  0  0  0
 27 25  1  0  0  0  0
 27 28  1  1  0  0  0
 29 28  1  0  0  0  0
 30 28  1  0  0  0  0
M  END
>  <CHROM.1>
63.60514406,-1.09840563,-68.91605179,146.96274121,143.47491296,26.51300645
39.10626141,21.70660969,-1.30489223,-0.22592663,-2.41657954

>  <Name>
lig.pdb

>  <RI>
0

>  <Rbt.Current_Directory>
/home/itssahil/PROJECTS/Mol_Feturizer/New_Systems/rnas/6bfb

>  <Rbt.Executable>
rbdock ($Id: //depot/dev/client3/rdock/2013.1/src/exe/rbdock.cxx#4 $)

>  <Rbt.Library>
libRbt.so (2013.1, Build901 2013/11/27)

>  <Rbt.Parameter_File>
/export/apps/rDock/src/rDock_2013.1_src/data/scripts/dock_solv.prm

>  <Rbt.Receptor>
prm/pocket_docking_7.prm

>  <SCORE>
-37.1157

>  <SCORE.INTER>
-34.7559

>  <SCORE.INTER.CONST>
1

>  <SCORE.INTER.POLAR>
-1.07606

>  <SCORE.INTER.ROT>
3

>  <SCORE.INTER.SOLV>
13.9287

>  <SCORE.INTER.VDW>
-29.8267

>  <SCORE.INTER.norm>
-1.15853

>  <SCORE.INTRA>
-2.35979

>  <SCORE.INTRA.DIHEDRAL>
-2.46025

>  <SCORE.INTRA.DIHEDRAL.0>
9.41909

>  <SCORE.INTRA.POLAR>
0

>  <SCORE.INTRA.POLAR.0>
0

>  <SCORE.INTRA.REPUL>
0

>  <SCORE.INTRA.REPUL.0>
0

>  <SCORE.INTRA.SOLV>
-0.0531802

>  <SCORE.INTRA.SOLV.lig_0>
-26.2491

>  <SCORE.INTRA.VDW>
-1.10307

>  <SCORE.INTRA.VDW.0>
2.57239

>  <SCORE.INTRA.norm>
-0.0786597

>  <SCORE.RESTR>
0

>  <SCORE.RESTR.CAVITY>
0

>  <SCORE.RESTR.norm>
0

>  <SCORE.SYSTEM>
0

>  <SCORE.SYSTEM.CONST>
0

>  <SCORE.SYSTEM.DIHEDRAL>
0

>  <SCORE.SYSTEM.SOLV>
0

>  <SCORE.SYSTEM.norm>
0

>  <SCORE.heavy>
30

>  <SCORE.norm>
-1.23719

>  <RMSD>
8.058

$$$$
lig.pdb
 OpenBabel11021811523D
libRbt.so/2013.1/901 2013/11/27
 30 34  0  0  0  0  0  0  0  0999 V2000
   27.8565   41.0847   23.1062 N   0  0  0  0  0  0  0  0  0  0  0  0
   25.1156   37.6707   20.7954 N   0  0  0  0  0  0  0  0  0  0  0  0
   28.4041   42.3554   22.6214 C   0  0  0  0  0  0  0  0  0  0  0  0
   28.1428   43.2758   23.8041 C   0  0  2  0  0  0  0  0  0  0  0  0
   27.7465   39.9386   22.2108 C   0  0  0  0  0  0  0  0  0  0  0  0
   28.8512   39.3368   21.5741 C   0  0  0  0  0  0  0  0  0  0  0  0
   28.7481   38.2763   20.7089 C   0  0  0  0  0  0  0  0  0  0  0  0
   27.3803   36.6204   19.4357 C   0  0  0  0  0  0  0  0  0  0  0  0
   22.9173   37.3096   21.1944 C   0  0  0  0  0  0  0  0  0  0  0  0
   24.2561   38.9637   22.6752 C   0  0  0  0  0  0  0  0  0  0  0  0
   26.4711   39.3727   21.9292 C   0  0  0  0  0  0  0  0  0  0  0  0
   26.1028   33.8871   18.4136 O   0  0  0  0  0  0  0  0  0  0  0  0
   25.8010   35.0556   18.1614 C   0  0  0  0  0  0  0  0  0  0  0  0
   25.3018   35.4269   16.9888 O   0  0  0  0  0  0  0  0  0  0  0  0
   26.0031   36.1288   19.1708 C   0  0  1  0  0  0  0  0  0  0  0  0
   28.3802   36.1181   18.9114 O   0  0  0  0  0  0  0  0  0  0  0  0
   24.9016   36.6512   19.8707 C   0  0  0  0  0  0  0  0  0  0  0  0
   23.9915   38.0165   21.5584 C   0  0  0  0  0  0  0  0  0  0  0  0
   23.2527   36.1880   19.9411 S   0  0  0  0  0  0  0  0  0  0  0  0
   26.3663   38.2665   21.0558 C   0  0  0  0  0  0  0  0  0  0  0  0
   27.4970   37.7321   20.4191 C   0  0  0  0  0  0  0  0  0  0  0  0
   30.0881   39.8019   21.8411 F   0  0  0  0  0  0  0  0  0  0  0  0
   25.3038   39.9452   22.4584 N   0  0  0  0  0  0  0  0  0  0  0  0
   24.9148   41.1201   21.7079 C   0  0  0  0  0  0  0  0  0  0  0  0
   26.9102   41.2923   24.1965 C   0  0  0  0  0  0  0  0  0  0  0  0
   29.3491   43.8718   24.2833 O   0  0  0  0  0  0  0  0  0  0  0  0
   27.6401   42.3949   24.9449 C   0  0  2  0  0  0  0  0  0  0  0  0
   26.8245   43.2286   25.8484 N   0  0  0  0  0  0  0  0  0  0  0  0
   25.6927   42.5372   26.4922 C   0  0  0  0  0  0  0  0  0  0  0  0
   27.6286   44.0003   26.8084 C   0  0  0  0  0  0  0  0  0  0  0  0
  1  5  1  0  0  0  0
  2 17  1  0  0  0  0
  3  1  1  0  0  0  0
  4  3  1  0  0  0  0
  4 26  1  1  0  0  0
  5 11  2  0  0  0  0
  5  6  1  0  0  0  0
  6  7  2  0  0  0  0
  7 21  1  0  0  0  0
  8 15  1  0  0  0  0
  8 16  2  0  0  0  0
  9 19  1  0  0  0  0
 10 18  1  0  0  0  0
 11 20  1  0  0  0  0
 13 14  1  0  0  0  0
 13 12  2  0  0  0  0
 15 13  1  1  0  0  0
 17 19  2  0  0  0  0
 17 15  1  0  0  0  0
 18  2  1  0  0  0  0
 18  9  2  0  0  0  0
 20 21  2  0  0  0  0
 20  2  1  0  0  0  0
 21  8  1  0  0  0  0
 22  6  1  0  0  0  0
 23 11  1  0  0  0  0
 23 10  1  0  0  0  0
 24 23  1  0  0  0  0
 25  1  1  0  0  0  0
 27  4  1  0  0  0  0
 27 25  1  0  0  0  0
 27 28  1  1  0  0  0
 29 28  1  0  0  0  0
 30 28  1  0  0  0  0
M  END
>  <CHROM.1>
60.63034582,-178.30956761,74.68734436,144.34284498,146.49050699,26.50762778
39.12456885,21.71754550,-1.31417931,-0.21358652,-2.39507035

>  <Name>
lig.pdb

>  <RI>
0

>  <Rbt.Current_Directory>
/home/itssahil/PROJECTS/Mol_Feturizer/New_Systems/rnas/6bfb

>  <Rbt.Executable>
rbdock ($Id: //depot/dev/client3/rdock/2013.1/src/exe/rbdock.cxx#4 $)

>  <Rbt.Library>
libRbt.so (2013.1, Build901 2013/11/27)

>  <Rbt.Parameter_File>
/export/apps/rDock/src/rDock_2013.1_src/data/scripts/dock_solv.prm

>  <Rbt.Receptor>
prm/blind_docking_100.prm

>  <SCORE>
-36.7529

>  <SCORE.INTER>
-35.1883

>  <SCORE.INTER.CONST>
1

>  <SCORE.INTER.POLAR>
-1.07647

>  <SCORE.INTER.ROT>
3

>  <SCORE.INTER.SOLV>
13.8514

>  <SCORE.INTER.VDW>
-30.0878

>  <SCORE.INTER.norm>
-1.17294

>  <SCORE.INTRA>
-1.57716

>  <SCORE.INTRA.DIHEDRAL>
-2.15526

>  <SCORE.INTRA.DIHEDRAL.0>
9.41909

>  <SCORE.INTRA.POLAR>
0

>  <SCORE.INTRA.POLAR.0>
0

>  <SCORE.INTRA.REPUL>
0

>  <SCORE.INTRA.REPUL.0>
0

>  <SCORE.INTRA.SOLV>
-0.105014

>  <SCORE.INTRA.SOLV.lig_0>
-26.2491

>  <SCORE.INTRA.VDW>
-0.447029

>  <SCORE.INTRA.VDW.0>
2.57239

>  <SCORE.INTRA.norm>
-0.0525721

>  <SCORE.RESTR>
0.0124979

>  <SCORE.RESTR.CAVITY>
0.0124979

>  <SCORE.RESTR.norm>
0.000416596

>  <SCORE.SYSTEM>
0

>  <SCORE.SYSTEM.CONST>
0

>  <SCORE.SYSTEM.DIHEDRAL>
0

>  <SCORE.SYSTEM.SOLV>
0

>  <SCORE.SYSTEM.norm>
0

>  <SCORE.heavy>
30

>  <SCORE.norm>
-1.2251

>  <RMSD>
8.068

$$$$
lig.pdb
 OpenBabel11021811523D
libRbt.so/2013.1/901 2013/11/27
 30 34  0  0  0  0  0  0  0  0999 V2000
   27.8862   41.0915   22.9924 N   0  0  0  0  0  0  0  0  0  0  0  0
   25.1093   37.6530   20.7625 N   0  0  0  0  0  0  0  0  0  0  0  0
   28.3968   42.3625   22.4694 C   0  0  0  0  0  0  0  0  0  0  0  0
   28.1621   43.2975   23.6462 C   0  0  2  0  0  0  0  0  0  0  0  0
   27.7633   39.9297   22.1191 C   0  0  0  0  0  0  0  0  0  0  0  0
   28.8601   39.3093   21.4868 C   0  0  0  0  0  0  0  0  0  0  0  0
   28.7449   38.2337   20.6420 C   0  0  0  0  0  0  0  0  0  0  0  0
   27.3587   36.5633   19.4083 C   0  0  0  0  0  0  0  0  0  0  0  0
   22.9113   37.3134   21.1818 C   0  0  0  0  0  0  0  0  0  0  0  0
   24.2699   38.9860   22.6233 C   0  0  0  0  0  0  0  0  0  0  0  0
   26.4826   39.3669   21.8561 C   0  0  0  0  0  0  0  0  0  0  0  0
   25.7177   33.8070   18.5332 O   0  0  0  0  0  0  0  0  0  0  0  0
   25.7614   34.9853   18.1731 C   0  0  0  0  0  0  0  0  0  0  0  0
   25.6387   35.3485   16.9022 O   0  0  0  0  0  0  0  0  0  0  0  0
   25.9767   36.0756   19.1612 C   0  0  1  0  0  0  0  0  0  0  0  0
   28.3520   36.0450   18.8872 O   0  0  0  0  0  0  0  0  0  0  0  0
   24.8830   36.6180   19.8582 C   0  0  0  0  0  0  0  0  0  0  0  0
   23.9922   38.0200   21.5259 C   0  0  0  0  0  0  0  0  0  0  0  0
   23.2318   36.1667   19.9475 S   0  0  0  0  0  0  0  0  0  0  0  0
   26.3653   38.2455   21.0039 C   0  0  0  0  0  0  0  0  0  0  0  0
   27.4886   37.6922   20.3702 C   0  0  0  0  0  0  0  0  0  0  0  0
   30.1016   39.7714   21.7374 F   0  0  0  0  0  0  0  0  0  0  0  0
   25.3224   39.9566   22.3818 N   0  0  0  0  0  0  0  0  0  0  0  0
   24.9360   41.1198   21.6122 C   0  0  0  0  0  0  0  0  0  0  0  0
   26.9750   41.3021   24.1116 C   0  0  0  0  0  0  0  0  0  0  0  0
   29.3747   43.9193   24.0739 O   0  0  0  0  0  0  0  0  0  0  0  0
   27.7130   42.4273   24.8172 C   0  0  2  0  0  0  0  0  0  0  0  0
   26.9161   43.2629   25.7355 N   0  0  0  0  0  0  0  0  0  0  0  0
   25.7704   42.5851   26.3690 C   0  0  0  0  0  0  0  0  0  0  0  0
   27.7373   44.0010   26.7075 C   0  0  0  0  0  0  0  0  0  0  0  0
  1  5  1  0  0  0  0
  2 17  1  0  0  0  0
  3  1  1  0  0  0  0
  4  3  1  0  0  0  0
  4 26  1  1  0  0  0
  5 11  2  0  0  0  0
  5  6  1  0  0  0  0
  6  7  2  0  0  0  0
  7 21  1  0  0  0  0
  8 15  1  0  0  0  0
  8 16  2  0  0  0  0
  9 19  1  0  0  0  0
 10 18  1  0  0  0  0
 11 20  1  0  0  0  0
 13 14  1  0  0  0  0
 13 12  2  0  0  0  0
 15 13  1  1  0  0  0
 17 19  2  0  0  0  0
 17 15  1  0  0  0  0
 18  2  1  0  0  0  0
 18  9  2  0  0  0  0
 20 21  2  0  0  0  0
 20  2  1  0  0  0  0
 21  8  1  0  0  0  0
 22  6  1  0  0  0  0
 23 11  1  0  0  0  0
 23 10  1  0  0  0  0
 24 23  1  0  0  0  0
 25  1  1  0  0  0  0
 27  4  1  0  0  0  0
 27 25  1  0  0  0  0
 27 28  1  1  0  0  0
 29 28  1  0  0  0  0
 30 28  1  0  0  0  0
M  END
>  <CHROM.1>
62.68324109,1.26838579,93.77434120,148.63639389,143.08203439,26.51974655
39.10633753,21.65021967,-1.30525565,-0.22780683,-2.40609778

>  <Name>
lig.pdb

>  <RI>
0

>  <Rbt.Current_Directory>
/home/itssahil/PROJECTS/Mol_Feturizer/New_Systems/rnas/6bfb

>  <Rbt.Executable>
rbdock ($Id: //depot/dev/client3/rdock/2013.1/src/exe/rbdock.cxx#4 $)

>  <Rbt.Library>
libRbt.so (2013.1, Build901 2013/11/27)

>  <Rbt.Parameter_File>
/export/apps/rDock/src/rDock_2013.1_src/data/scripts/dock_solv.prm

>  <Rbt.Receptor>
prm/blind_docking_80.prm

>  <SCORE>
-37.0805

>  <SCORE.INTER>
-34.7582

>  <SCORE.INTER.CONST>
1

>  <SCORE.INTER.POLAR>
-1.07018

>  <SCORE.INTER.ROT>
3

>  <SCORE.INTER.SOLV>
13.9012

>  <SCORE.INTER.VDW>
-29.8386

>  <SCORE.INTER.norm>
-1.15861

>  <SCORE.INTRA>
-2.32231

>  <SCORE.INTRA.DIHEDRAL>
-2.7396

>  <SCORE.INTRA.DIHEDRAL.0>
9.41909

>  <SCORE.INTRA.POLAR>
0

>  <SCORE.INTRA.POLAR.0>
0

>  <SCORE.INTRA.REPUL>
0

>  <SCORE.INTRA.REPUL.0>
0

>  <SCORE.INTRA.SOLV>
-0.0594609

>  <SCORE.INTRA.SOLV.lig_0>
-26.2491

>  <SCORE.INTRA.VDW>
-0.922781

>  <SCORE.INTRA.VDW.0>
2.57239

>  <SCORE.INTRA.norm>
-0.0774104

>  <SCORE.RESTR>
0

>  <SCORE.RESTR.CAVITY>
0

>  <SCORE.RESTR.norm>
0

>  <SCORE.SYSTEM>
0

>  <SCORE.SYSTEM.CONST>
0

>  <SCORE.SYSTEM.DIHEDRAL>
0

>  <SCORE.SYSTEM.SOLV>
0

>  <SCORE.SYSTEM.norm>
0

>  <SCORE.heavy>
30

>  <SCORE.norm>
-1.23602

>  <RMSD>
8.069

$$$$
lig.pdb
 OpenBabel11021811523D
libRbt.so/2013.1/901 2013/11/27
 30 34  0  0  0  0  0  0  0  0999 V2000
   27.7352   41.0836   23.5769 N   0  0  0  0  0  0  0  0  0  0  0  0
   25.0589   37.8432   20.9608 N   0  0  0  0  0  0  0  0  0  0  0  0
   28.0630   42.4613   23.1974 C   0  0  0  0  0  0  0  0  0  0  0  0
   27.8536   43.2015   24.5098 C   0  0  2  0  0  0  0  0  0  0  0  0
   27.6429   40.0401   22.5620 C   0  0  0  0  0  0  0  0  0  0  0  0
   28.7515   39.5555   21.8380 C   0  0  0  0  0  0  0  0  0  0  0  0
   28.6638   38.5940   20.8624 C   0  0  0  0  0  0  0  0  0  0  0  0
   27.3234   37.0377   19.4429 C   0  0  0  0  0  0  0  0  0  0  0  0
   22.8861   37.3557   21.3653 C   0  0  0  0  0  0  0  0  0  0  0  0
   24.2031   38.8862   22.9914 C   0  0  0  0  0  0  0  0  0  0  0  0
   26.3817   39.4602   22.2472 C   0  0  0  0  0  0  0  0  0  0  0  0
   25.7758   34.3481   18.2425 O   0  0  0  0  0  0  0  0  0  0  0  0
   25.7684   35.5638   18.0371 C   0  0  0  0  0  0  0  0  0  0  0  0
   25.6107   36.0822   16.8254 O   0  0  0  0  0  0  0  0  0  0  0  0
   25.9583   36.5257   19.1553 C   0  0  1  0  0  0  0  0  0  0  0  0
   28.3267   36.6353   18.8440 O   0  0  0  0  0  0  0  0  0  0  0  0
   24.8575   36.9247   19.9331 C   0  0  0  0  0  0  0  0  0  0  0  0
   23.9434   38.0589   21.7821 C   0  0  0  0  0  0  0  0  0  0  0  0
   23.2286   36.3933   19.9877 S   0  0  0  0  0  0  0  0  0  0  0  0
   26.2938   38.4542   21.2584 C   0  0  0  0  0  0  0  0  0  0  0  0
   27.4259   38.0374   20.5413 C   0  0  0  0  0  0  0  0  0  0  0  0
   29.9774   40.0355   22.1279 F   0  0  0  0  0  0  0  0  0  0  0  0
   25.2089   39.9253   22.8625 N   0  0  0  0  0  0  0  0  0  0  0  0
   24.7586   41.1601   22.2564 C   0  0  0  0  0  0  0  0  0  0  0  0
   26.9222   41.0421   24.7872 C   0  0  0  0  0  0  0  0  0  0  0  0
   29.0346   43.8935   24.9176 O   0  0  0  0  0  0  0  0  0  0  0  0
   27.6106   42.1404   25.5799 C   0  0  2  0  0  0  0  0  0  0  0  0
   26.8290   42.7537   26.6705 N   0  0  0  0  0  0  0  0  0  0  0  0
   27.4933   43.8675   27.3715 C   0  0  0  0  0  0  0  0  0  0  0  0
   25.4487   43.0810   26.2810 C   0  0  0  0  0  0  0  0  0  0  0  0
  1  5  1  0  0  0  0
  2 17  1  0  0  0  0
  3  1  1  0  0  0  0
  4  3  1  0  0  0  0
  4 26  1  1  0  0  0
  5 11  2  0  0  0  0
  5  6  1  0  0  0  0
  6  7  2  0  0  0  0
  7 21  1  0  0  0  0
  8 15  1  0  0  0  0
  8 16  2  0  0  0  0
  9 19  1  0  0  0  0
 10 18  1  0  0  0  0
 11 20  1  0  0  0  0
 13 14  1  0  0  0  0
 13 12  2  0  0  0  0
 15 13  1  1  0  0  0
 17 19  2  0  0  0  0
 17 15  1  0  0  0  0
 18  2  1  0  0  0  0
 18  9  2  0  0  0  0
 20 21  2  0  0  0  0
 20  2  1  0  0  0  0
 21  8  1  0  0  0  0
 22  6  1  0  0  0  0
 23 11  1  0  0  0  0
 23 10  1  0  0  0  0
 24 23  1  0  0  0  0
 25  1  1  0  0  0  0
 27  4  1  0  0  0  0
 27 25  1  0  0  0  0
 27 28  1  1  0  0  0
 29 28  1  0  0  0  0
 30 28  1  0  0  0  0
M  END
>  <CHROM.1>
68.27185735,-0.46587363,94.07556010,84.99135051,-62.43253632,26.41628255
39.27897245,21.96842150,-1.33011100,-0.23483463,-2.31728328

>  <Name>
lig.pdb

>  <RI>
0

>  <Rbt.Current_Directory>
/home/itssahil/PROJECTS/Mol_Feturizer/New_Systems/rnas/6bfb

>  <Rbt.Executable>
rbdock ($Id: //depot/dev/client3/rdock/2013.1/src/exe/rbdock.cxx#4 $)

>  <Rbt.Library>
libRbt.so (2013.1, Build901 2013/11/27)

>  <Rbt.Parameter_File>
/export/apps/rDock/src/rDock_2013.1_src/data/scripts/dock_solv.prm

>  <Rbt.Receptor>
prm/pocket_docking_5.prm

>  <SCORE>
-37.9432

>  <SCORE.INTER>
-35.3119

>  <SCORE.INTER.CONST>
1

>  <SCORE.INTER.POLAR>
-0.91664

>  <SCORE.INTER.ROT>
3

>  <SCORE.INTER.SOLV>
14.3635

>  <SCORE.INTER.VDW>
-30.8736

>  <SCORE.INTER.norm>
-1.17706

>  <SCORE.INTRA>
-2.65926

>  <SCORE.INTRA.DIHEDRAL>
-5.07835

>  <SCORE.INTRA.DIHEDRAL.0>
9.41909

>  <SCORE.INTRA.POLAR>
0

>  <SCORE.INTRA.POLAR.0>
0

>  <SCORE.INTRA.REPUL>
0

>  <SCORE.INTRA.REPUL.0>
0

>  <SCORE.INTRA.SOLV>
0.117222

>  <SCORE.INTRA.SOLV.lig_0>
-26.2491

>  <SCORE.INTRA.VDW>
-0.178698

>  <SCORE.INTRA.VDW.0>
2.57239

>  <SCORE.INTRA.norm>
-0.088642

>  <SCORE.RESTR>
0.0279153

>  <SCORE.RESTR.CAVITY>
0.0279153

>  <SCORE.RESTR.norm>
0.00093051

>  <SCORE.SYSTEM>
0

>  <SCORE.SYSTEM.CONST>
0

>  <SCORE.SYSTEM.DIHEDRAL>
0

>  <SCORE.SYSTEM.SOLV>
0

>  <SCORE.SYSTEM.norm>
0

>  <SCORE.heavy>
30

>  <SCORE.norm>
-1.26477

>  <RMSD>
8.069

$$$$
lig.pdb
 OpenBabel11021811523D
libRbt.so/2013.1/901 2013/11/27
 30 34  0  0  0  0  0  0  0  0999 V2000
   27.5034   41.1312   23.9961 N   0  0  0  0  0  0  0  0  0  0  0  0
   25.0337   37.8765   21.2005 N   0  0  0  0  0  0  0  0  0  0  0  0
   27.7788   42.5210   23.6191 C   0  0  0  0  0  0  0  0  0  0  0  0
   27.4972   43.2559   24.9210 C   0  0  2  0  0  0  0  0  0  0  0  0
   27.4888   40.0807   22.9842 C   0  0  0  0  0  0  0  0  0  0  0  0
   28.6497   39.5892   22.3529 C   0  0  0  0  0  0  0  0  0  0  0  0
   28.6368   38.6210   21.3801 C   0  0  0  0  0  0  0  0  0  0  0  0
   27.4086   37.0567   19.8706 C   0  0  0  0  0  0  0  0  0  0  0  0
   22.8348   37.3953   21.4367 C   0  0  0  0  0  0  0  0  0  0  0  0
   24.0234   38.9352   23.1505 C   0  0  0  0  0  0  0  0  0  0  0  0
   26.2549   39.5005   22.5755 C   0  0  0  0  0  0  0  0  0  0  0  0
   25.5502   34.4304   18.5487 O   0  0  0  0  0  0  0  0  0  0  0  0
   25.9656   35.5754   18.3574 C   0  0  0  0  0  0  0  0  0  0  0  0
   26.3560   36.0030   17.1630 O   0  0  0  0  0  0  0  0  0  0  0  0
   26.0692   36.5449   19.4803 C   0  0  1  0  0  0  0  0  0  0  0  0
   28.4549   36.6486   19.3551 O   0  0  0  0  0  0  0  0  0  0  0  0
   24.9116   36.9511   20.1666 C   0  0  0  0  0  0  0  0  0  0  0  0
   23.8577   38.0998   21.9303 C   0  0  0  0  0  0  0  0  0  0  0  0
   23.2824   36.4227   20.0969 S   0  0  0  0  0  0  0  0  0  0  0  0
   26.2427   38.4877   21.5898 C   0  0  0  0  0  0  0  0  0  0  0  0
   27.4267   38.0641   20.9667 C   0  0  0  0  0  0  0  0  0  0  0  0
   29.8501   40.0694   22.7348 F   0  0  0  0  0  0  0  0  0  0  0  0
   25.0385   39.9718   23.0936 N   0  0  0  0  0  0  0  0  0  0  0  0
   24.6397   41.2030   22.4456 C   0  0  0  0  0  0  0  0  0  0  0  0
   26.6579   41.0571   25.1823 C   0  0  0  0  0  0  0  0  0  0  0  0
   28.6329   44.0029   25.3596 O   0  0  0  0  0  0  0  0  0  0  0  0
   27.2717   42.1888   25.9891 C   0  0  2  0  0  0  0  0  0  0  0  0
   26.4311   42.7698   27.0532 N   0  0  0  0  0  0  0  0  0  0  0  0
   27.0643   43.8445   27.8390 C   0  0  0  0  0  0  0  0  0  0  0  0
   25.0822   43.1334   26.5925 C   0  0  0  0  0  0  0  0  0  0  0  0
  1  5  1  0  0  0  0
  2 17  1  0  0  0  0
  3  1  1  0  0  0  0
  4  3  1  0  0  0  0
  4 26  1  1  0  0  0
  5 11  2  0  0  0  0
  5  6  1  0  0  0  0
  6  7  2  0  0  0  0
  7 21  1  0  0  0  0
  8 15  1  0  0  0  0
  8 16  2  0  0  0  0
  9 19  1  0  0  0  0
 10 18  1  0  0  0  0
 11 20  1  0  0  0  0
 13 14  1  0  0  0  0
 13 12  2  0  0  0  0
 15 13  1  1  0  0  0
 17 19  2  0  0  0  0
 17 15  1  0  0  0  0
 18  2  1  0  0  0  0
 18  9  2  0  0  0  0
 20 21  2  0  0  0  0
 20  2  1  0  0  0  0
 21  8  1  0  0  0  0
 22  6  1  0  0  0  0
 23 11  1  0  0  0  0
 23 10  1  0  0  0  0
 24 23  1  0  0  0  0
 25  1  1  0  0  0  0
 27  4  1  0  0  0  0
 27 25  1  0  0  0  0
 27 28  1  1  0  0  0
 29 28  1  0  0  0  0
 30 28  1  0  0  0  0
M  END
>  <CHROM.1>
72.20025836,-0.75715233,116.42822704,73.39361202,-67.11929833,26.31790678
39.31149194,22.30924433,-1.38618241,-0.19347929,-2.32981784

>  <Name>
lig.pdb

>  <RI>
0

>  <Rbt.Current_Directory>
/home/itssahil/PROJECTS/Mol_Feturizer/New_Systems/rnas/6bfb

>  <Rbt.Executable>
rbdock ($Id: //depot/dev/client3/rdock/2013.1/src/exe/rbdock.cxx#4 $)

>  <Rbt.Library>
libRbt.so (2013.1, Build901 2013/11/27)

>  <Rbt.Parameter_File>
/export/apps/rDock/src/rDock_2013.1_src/data/scripts/dock_solv.prm

>  <Rbt.Receptor>
prm/pocket_docking_4.prm

>  <SCORE>
-38.4245

>  <SCORE.INTER>
-34.2597

>  <SCORE.INTER.CONST>
1

>  <SCORE.INTER.POLAR>
-0.880139

>  <SCORE.INTER.ROT>
3

>  <SCORE.INTER.SOLV>
14.9998

>  <SCORE.INTER.VDW>
-30.5059

>  <SCORE.INTER.norm>
-1.14199

>  <SCORE.INTRA>
-4.20008

>  <SCORE.INTRA.DIHEDRAL>
-6.88113

>  <SCORE.INTRA.DIHEDRAL.0>
9.41909

>  <SCORE.INTRA.POLAR>
0

>  <SCORE.INTRA.POLAR.0>
0

>  <SCORE.INTRA.REPUL>
0

>  <SCORE.INTRA.REPUL.0>
0

>  <SCORE.INTRA.SOLV>
0.127331

>  <SCORE.INTRA.SOLV.lig_0>
-26.2491

>  <SCORE.INTRA.VDW>
-0.823187

>  <SCORE.INTRA.VDW.0>
2.57239

>  <SCORE.INTRA.norm>
-0.140003

>  <SCORE.RESTR>
0.0352886

>  <SCORE.RESTR.CAVITY>
0.0352886

>  <SCORE.RESTR.norm>
0.00117629

>  <SCORE.SYSTEM>
0

>  <SCORE.SYSTEM.CONST>
0

>  <SCORE.SYSTEM.DIHEDRAL>
0

>  <SCORE.SYSTEM.SOLV>
0

>  <SCORE.SYSTEM.norm>
0

>  <SCORE.heavy>
30

>  <SCORE.norm>
-1.28082

>  <RMSD>
8.077

$$$$
lig.pdb
 OpenBabel11021811523D
libRbt.so/2013.1/901 2013/11/27
 30 34  0  0  0  0  0  0  0  0999 V2000
   27.4349   41.1694   23.6948 N   0  0  0  0  0  0  0  0  0  0  0  0
   25.2015   37.7514   20.8953 N   0  0  0  0  0  0  0  0  0  0  0  0
   27.9805   42.4891   23.3628 C   0  0  0  0  0  0  0  0  0  0  0  0
   27.5186   43.3217   24.5493 C   0  0  2  0  0  0  0  0  0  0  0  0
   27.5017   40.0785   22.7288 C   0  0  0  0  0  0  0  0  0  0  0  0
   28.7078   39.5868   22.1890 C   0  0  0  0  0  0  0  0  0  0  0  0
   28.7723   38.5798   21.2586 C   0  0  0  0  0  0  0  0  0  0  0  0
   27.6678   36.9295   19.7453 C   0  0  0  0  0  0  0  0  0  0  0  0
   23.0019   37.2331   21.0196 C   0  0  0  0  0  0  0  0  0  0  0  0
   24.0550   38.8666   22.7354 C   0  0  0  0  0  0  0  0  0  0  0  0
   26.3061   39.4558   22.2717 C   0  0  0  0  0  0  0  0  0  0  0  0
   26.7635   34.2138   18.4115 O   0  0  0  0  0  0  0  0  0  0  0  0
   26.3475   35.3571   18.2119 C   0  0  0  0  0  0  0  0  0  0  0  0
   25.8825   35.7521   17.0330 O   0  0  0  0  0  0  0  0  0  0  0  0
   26.3644   36.3735   19.2974 C   0  0  1  0  0  0  0  0  0  0  0  0
   28.7509   36.5232   19.3108 O   0  0  0  0  0  0  0  0  0  0  0  0
   25.1598   36.7823   19.8957 C   0  0  0  0  0  0  0  0  0  0  0  0
   23.9794   37.9789   21.5435 C   0  0  0  0  0  0  0  0  0  0  0  0
   23.5482   36.2167   19.7508 S   0  0  0  0  0  0  0  0  0  0  0  0
   26.3729   38.4038   21.3303 C   0  0  0  0  0  0  0  0  0  0  0  0
   27.6003   37.9807   20.7974 C   0  0  0  0  0  0  0  0  0  0  0  0
   29.8736   40.1078   22.6216 F   0  0  0  0  0  0  0  0  0  0  0  0
   25.0517   39.9216   22.6960 N   0  0  0  0  0  0  0  0  0  0  0  0
   24.6697   41.1165   21.9742 C   0  0  0  0  0  0  0  0  0  0  0  0
   26.3419   41.2695   24.6553 C   0  0  0  0  0  0  0  0  0  0  0  0
   28.6193   43.9343   25.2223 O   0  0  0  0  0  0  0  0  0  0  0  0
   26.9106   42.3510   25.5584 C   0  0  2  0  0  0  0  0  0  0  0  0
   25.9417   43.0926   26.3878 N   0  0  0  0  0  0  0  0  0  0  0  0
   24.7057   42.3600   26.7182 C   0  0  0  0  0  0  0  0  0  0  0  0
   26.5522   43.7221   27.5688 C   0  0  0  0  0  0  0  0  0  0  0  0
  1  5  1  0  0  0  0
  2 17  1  0  0  0  0
  3  1  1  0  0  0  0
  4  3  1  0  0  0  0
  4 26  1  1  0  0  0
  5 11  2  0  0  0  0
  5  6  1  0  0  0  0
  6  7  2  0  0  0  0
  7 21  1  0  0  0  0
  8 15  1  0  0  0  0
  8 16  2  0  0  0  0
  9 19  1  0  0  0  0
 10 18  1  0  0  0  0
 11 20  1  0  0  0  0
 13 14  1  0  0  0  0
 13 12  2  0  0  0  0
 15 13  1  1  0  0  0
 17 19  2  0  0  0  0
 17 15  1  0  0  0  0
 18  2  1  0  0  0  0
 18  9  2  0  0  0  0
 20 21  2  0  0  0  0
 20  2  1  0  0  0  0
 21  8  1  0  0  0  0
 22  6  1  0  0  0  0
 23 11  1  0  0  0  0
 23 10  1  0  0  0  0
 24 23  1  0  0  0  0
 25  1  1  0  0  0  0
 27  4  1  0  0  0  0
 27 25  1  0  0  0  0
 27 28  1  6  0  0  0
 29 28  1  0  0  0  0
 30 28  1  0  0  0  0
M  END
>  <CHROM.1>
58.87679938,-178.85355806,70.84971544,82.90079442,140.67057900,26.37799274
39.22429459,22.04586057,-1.44170402,-0.17067827,-2.36096522

>  <Name>
lig.pdb

>  <RI>
0

>  <Rbt.Current_Directory>
/home/itssahil/PROJECTS/Mol_Feturizer/New_Systems/rnas/6bfb

>  <Rbt.Executable>
rbdock ($Id: //depot/dev/client3/rdock/2013.1/src/exe/rbdock.cxx#4 $)

>  <Rbt.Library>
libRbt.so (2013.1, Build901 2013/11/27)

>  <Rbt.Parameter_File>
/export/apps/rDock/src/rDock_2013.1_src/data/scripts/dock_solv.prm

>  <Rbt.Receptor>
prm/pocket_docking_4.prm

>  <SCORE>
-35.1695

>  <SCORE.INTER>
-33.039

>  <SCORE.INTER.CONST>
1

>  <SCORE.INTER.POLAR>
-1.07269

>  <SCORE.INTER.ROT>
3

>  <SCORE.INTER.SOLV>
13.6085

>  <SCORE.INTER.VDW>
-28.5866

>  <SCORE.INTER.norm>
-1.1013

>  <SCORE.INTRA>
-2.14115

>  <SCORE.INTRA.DIHEDRAL>
-4.14461

>  <SCORE.INTRA.DIHEDRAL.0>
9.41909

>  <SCORE.INTRA.POLAR>
0

>  <SCORE.INTRA.POLAR.0>
0

>  <SCORE.INTRA.REPUL>
0

>  <SCORE.INTRA.REPUL.0>
0

>  <SCORE.INTRA.SOLV>
-0.141651

>  <SCORE.INTRA.SOLV.lig_0>
-26.2491

>  <SCORE.INTRA.VDW>
0.00198238

>  <SCORE.INTRA.VDW.0>
2.57239

>  <SCORE.INTRA.norm>
-0.0713716

>  <SCORE.RESTR>
0.0106363

>  <SCORE.RESTR.CAVITY>
0.0106363

>  <SCORE.RESTR.norm>
0.000354543

>  <SCORE.SYSTEM>
0

>  <SCORE.SYSTEM.CONST>
0

>  <SCORE.SYSTEM.DIHEDRAL>
0

>  <SCORE.SYSTEM.SOLV>
0

>  <SCORE.SYSTEM.norm>
0

>  <SCORE.heavy>
30

>  <SCORE.norm>
-1.17232

>  <RMSD>
8.091

$$$$
lig.pdb
 OpenBabel11021811523D
libRbt.so/2013.1/901 2013/11/27
 30 34  0  0  0  0  0  0  0  0999 V2000
   26.1838   40.0077   21.8369 N   0  0  0  0  0  0  0  0  0  0  0  0
   26.2777   36.7126   18.1436 N   0  0  0  0  0  0  0  0  0  0  0  0
   26.0032   41.3995   21.4130 C   0  0  0  0  0  0  0  0  0  0  0  0
   26.6413   42.1591   22.5664 C   0  0  2  0  0  0  0  0  0  0  0  0
   25.5610   38.9213   21.0890 C   0  0  0  0  0  0  0  0  0  0  0  0
   24.2954   38.3842   21.4012 C   0  0  0  0  0  0  0  0  0  0  0  0
   23.7189   37.3432   20.7173 C   0  0  0  0  0  0  0  0  0  0  0  0
   23.7904   35.5906   18.9404 C   0  0  0  0  0  0  0  0  0  0  0  0
   27.8406   36.6684   16.5072 C   0  0  0  0  0  0  0  0  0  0  0  0
   27.7980   38.6172   18.2164 C   0  0  0  0  0  0  0  0  0  0  0  0
   26.2391   38.3359   19.9828 C   0  0  0  0  0  0  0  0  0  0  0  0
   22.9912   33.8380   16.5473 O   0  0  0  0  0  0  0  0  0  0  0  0
   24.0858   33.8173   17.1142 C   0  0  0  0  0  0  0  0  0  0  0  0
   24.8581   32.7379   17.1364 O   0  0  0  0  0  0  0  0  0  0  0  0
   24.5949   35.0172   17.8303 C   0  0  1  0  0  0  0  0  0  0  0  0
   22.6716   35.1623   19.2438 O   0  0  0  0  0  0  0  0  0  0  0  0
   25.8128   35.6024   17.4426 C   0  0  0  0  0  0  0  0  0  0  0  0
   27.4107   37.3246   17.5892 C   0  0  0  0  0  0  0  0  0  0  0  0
   26.8632   35.3136   16.1190 S   0  0  0  0  0  0  0  0  0  0  0  0
   25.6366   37.2786   19.2641 C   0  0  0  0  0  0  0  0  0  0  0  0
   24.3901   36.7575   19.6440 C   0  0  0  0  0  0  0  0  0  0  0  0
   23.5878   38.9316   22.4098 F   0  0  0  0  0  0  0  0  0  0  0  0
   27.5341   38.7530   19.6377 N   0  0  0  0  0  0  0  0  0  0  0  0
   28.5216   38.1636   20.5165 C   0  0  0  0  0  0  0  0  0  0  0  0
   26.4058   39.9120   23.2753 C   0  0  0  0  0  0  0  0  0  0  0  0
   27.6958   43.0106   22.1159 O   0  0  0  0  0  0  0  0  0  0  0  0
   27.3091   41.1193   23.4625 C   0  0  2  0  0  0  0  0  0  0  0  0
   27.3949   41.6719   24.8277 N   0  0  0  0  0  0  0  0  0  0  0  0
   26.1461   41.6149   25.6092 C   0  0  0  0  0  0  0  0  0  0  0  0
   28.5522   41.1699   25.5843 C   0  0  0  0  0  0  0  0  0  0  0  0
  1  5  1  0  0  0  0
  2 17  1  0  0  0  0
  3  1  1  0  0  0  0
  4  3  1  0  0  0  0
  4 26  1  6  0  0  0
  5 11  2  0  0  0  0
  5  6  1  0  0  0  0
  6  7  2  0  0  0  0
  7 21  1  0  0  0  0
  8 15  1  0  0  0  0
  8 16  2  0  0  0  0
  9 19  1  0  0  0  0
 10 18  1  0  0  0  0
 11 20  1  0  0  0  0
 13 14  1  0  0  0  0
 13 12  2  0  0  0  0
 15 13  1  6  0  0  0
 17 19  2  0  0  0  0
 17 15  1  0  0  0  0
 18  2  1  0  0  0  0
 18  9  2  0  0  0  0
 20 21  2  0  0  0  0
 20  2  1  0  0  0  0
 21  8  1  0  0  0  0
 22  6  1  0  0  0  0
 23 11  1  0  0  0  0
 23 10  1  0  0  0  0
 24 23  1  0  0  0  0
 25  1  1  0  0  0  0
 27  4  1  0  0  0  0
 27 25  1  0  0  0  0
 27 28  1  1  0  0  0
 29 28  1  0  0  0  0
 30 28  1  0  0  0  0
M  END
>  <CHROM.1>
-92.78248153,3.60671309,58.51913969,177.09967586,78.79165165,25.92315700
37.96498282,20.10216086,1.34014406,0.50318393,0.89136036

>  <Name>
lig.pdb

>  <RI>
0

>  <Rbt.Current_Directory>
/home/itssahil/PROJECTS/Mol_Feturizer/New_Systems/rnas/6bfb

>  <Rbt.Executable>
rbdock ($Id: //depot/dev/client3/rdock/2013.1/src/exe/rbdock.cxx#4 $)

>  <Rbt.Library>
libRbt.so (2013.1, Build901 2013/11/27)

>  <Rbt.Parameter_File>
/export/apps/rDock/src/rDock_2013.1_src/data/scripts/dock_solv.prm

>  <Rbt.Receptor>
prm/pocket_docking_5.prm

>  <SCORE>
-28.6233

>  <SCORE.INTER>
-22.7177

>  <SCORE.INTER.CONST>
1

>  <SCORE.INTER.POLAR>
-0.997672

>  <SCORE.INTER.ROT>
3

>  <SCORE.INTER.SOLV>
11.2573

>  <SCORE.INTER.VDW>
-21.172

>  <SCORE.INTER.norm>
-0.757256

>  <SCORE.INTRA>
-5.90556

>  <SCORE.INTRA.DIHEDRAL>
-6.83433

>  <SCORE.INTRA.DIHEDRAL.0>
9.41909

>  <SCORE.INTRA.POLAR>
0

>  <SCORE.INTRA.POLAR.0>
0

>  <SCORE.INTRA.REPUL>
0.0895814

>  <SCORE.INTRA.REPUL.0>
0

>  <SCORE.INTRA.SOLV>
-0.283175

>  <SCORE.INTRA.SOLV.lig_0>
-26.2491

>  <SCORE.INTRA.VDW>
-2.79472

>  <SCORE.INTRA.VDW.0>
2.57239

>  <SCORE.INTRA.norm>
-0.196852

>  <SCORE.RESTR>
0

>  <SCORE.RESTR.CAVITY>
0

>  <SCORE.RESTR.norm>
0

>  <SCORE.SYSTEM>
0

>  <SCORE.SYSTEM.CONST>
0

>  <SCORE.SYSTEM.DIHEDRAL>
0

>  <SCORE.SYSTEM.SOLV>
0

>  <SCORE.SYSTEM.norm>
0

>  <SCORE.heavy>
30

>  <SCORE.norm>
-0.954108

>  <RMSD>
8.136

$$$$
lig.pdb
 OpenBabel11021811523D
libRbt.so/2013.1/901 2013/11/27
 30 34  0  0  0  0  0  0  0  0999 V2000
   24.7180   39.6747   22.5041 N   0  0  0  0  0  0  0  0  0  0  0  0
   25.3594   36.9474   18.4227 N   0  0  0  0  0  0  0  0  0  0  0  0
   24.9957   41.0139   21.9759 C   0  0  0  0  0  0  0  0  0  0  0  0
   25.2066   41.8123   23.2536 C   0  0  2  0  0  0  0  0  0  0  0  0
   24.2870   38.6040   21.6122 C   0  0  0  0  0  0  0  0  0  0  0  0
   23.1326   37.8243   21.8299 C   0  0  0  0  0  0  0  0  0  0  0  0
   22.7399   36.7975   21.0081 C   0  0  0  0  0  0  0  0  0  0  0  0
   23.1029   35.3264   19.0237 C   0  0  0  0  0  0  0  0  0  0  0  0
   26.9011   37.3803   16.8232 C   0  0  0  0  0  0  0  0  0  0  0  0
   26.5327   39.0568   18.7661 C   0  0  0  0  0  0  0  0  0  0  0  0
   25.0510   38.2897   20.4531 C   0  0  0  0  0  0  0  0  0  0  0  0
   24.0715   32.7478   17.2982 O   0  0  0  0  0  0  0  0  0  0  0  0
   23.6900   33.8795   16.9918 C   0  0  0  0  0  0  0  0  0  0  0  0
   23.0152   34.1277   15.8760 O   0  0  0  0  0  0  0  0  0  0  0  0
   23.9894   35.0458   17.8645 C   0  0  1  0  0  0  0  0  0  0  0  0
   22.0747   34.6791   19.2492 O   0  0  0  0  0  0  0  0  0  0  0  0
   25.0882   35.8742   17.5772 C   0  0  0  0  0  0  0  0  0  0  0  0
   26.3694   37.8090   17.9720 C   0  0  0  0  0  0  0  0  0  0  0  0
   26.1677   35.9409   16.2473 S   0  0  0  0  0  0  0  0  0  0  0  0
   24.6352   37.2471   19.5942 C   0  0  0  0  0  0  0  0  0  0  0  0
   23.4973   36.4776   19.8814 C   0  0  0  0  0  0  0  0  0  0  0  0
   22.3457   38.1090   22.8868 F   0  0  0  0  0  0  0  0  0  0  0  0
   26.2546   38.9615   20.1880 N   0  0  0  0  0  0  0  0  0  0  0  0
   27.3314   38.4398   21.0024 C   0  0  0  0  0  0  0  0  0  0  0  0
   24.2812   39.7290   23.8946 C   0  0  0  0  0  0  0  0  0  0  0  0
   26.4892   42.4403   23.2757 O   0  0  0  0  0  0  0  0  0  0  0  0
   25.2226   40.8078   24.4029 C   0  0  2  0  0  0  0  0  0  0  0  0
   24.8160   41.5089   25.6357 N   0  0  0  0  0  0  0  0  0  0  0  0
   25.8636   42.3329   26.2657 C   0  0  0  0  0  0  0  0  0  0  0  0
   23.5423   42.2318   25.4979 C   0  0  0  0  0  0  0  0  0  0  0  0
  1  5  1  0  0  0  0
  2 17  1  0  0  0  0
  3  1  1  0  0  0  0
  4  3  1  0  0  0  0
  4 26  1  6  0  0  0
  5 11  2  0  0  0  0
  5  6  1  0  0  0  0
  6  7  2  0  0  0  0
  7 21  1  0  0  0  0
  8 15  1  0  0  0  0
  8 16  2  0  0  0  0
  9 19  1  0  0  0  0
 10 18  1  0  0  0  0
 11 20  1  0  0  0  0
 13 14  1  0  0  0  0
 13 12  2  0  0  0  0
 15 13  1  6  0  0  0
 17 19  2  0  0  0  0
 17 15  1  0  0  0  0
 18  2  1  0  0  0  0
 18  9  2  0  0  0  0
 20 21  2  0  0  0  0
 20  2  1  0  0  0  0
 21  8  1  0  0  0  0
 22  6  1  0  0  0  0
 23 11  1  0  0  0  0
 23 10  1  0  0  0  0
 24 23  1  0  0  0  0
 25  1  1  0  0  0  0
 27  4  1  0  0  0  0
 27 25  1  0  0  0  0
 27 28  1  1  0  0  0
 29 28  1  0  0  0  0
 30 28  1  0  0  0  0
M  END
>  <CHROM.1>
-127.34323489,-168.60386691,-83.54106340,165.12657557,-78.41652548,24.73306820
37.98649906,20.46081043,1.50309780,0.61936047,0.88704549

>  <Name>
lig.pdb

>  <RI>
0

>  <Rbt.Current_Directory>
/home/itssahil/PROJECTS/Mol_Feturizer/New_Systems/rnas/6bfb

>  <Rbt.Executable>
rbdock ($Id: //depot/dev/client3/rdock/2013.1/src/exe/rbdock.cxx#4 $)

>  <Rbt.Library>
libRbt.so (2013.1, Build901 2013/11/27)

>  <Rbt.Parameter_File>
/export/apps/rDock/src/rDock_2013.1_src/data/scripts/dock_solv.prm

>  <Rbt.Receptor>
prm/blind_docking_60.prm

>  <SCORE>
-32.7509

>  <SCORE.INTER>
-30.6925

>  <SCORE.INTER.CONST>
1

>  <SCORE.INTER.POLAR>
-0.841343

>  <SCORE.INTER.ROT>
3

>  <SCORE.INTER.SOLV>
14.8859

>  <SCORE.INTER.VDW>
-28.2191

>  <SCORE.INTER.norm>
-1.02308

>  <SCORE.INTRA>
-2.05841

>  <SCORE.INTRA.DIHEDRAL>
-5.64968

>  <SCORE.INTRA.DIHEDRAL.0>
9.41909

>  <SCORE.INTRA.POLAR>
0

>  <SCORE.INTRA.POLAR.0>
0

>  <SCORE.INTRA.REPUL>
0.0115769

>  <SCORE.INTRA.REPUL.0>
0

>  <SCORE.INTRA.SOLV>
-0.030753

>  <SCORE.INTRA.SOLV.lig_0>
-26.2491

>  <SCORE.INTRA.VDW>
0.723917

>  <SCORE.INTRA.VDW.0>
2.57239

>  <SCORE.INTRA.norm>
-0.0686138

>  <SCORE.RESTR>
0

>  <SCORE.RESTR.CAVITY>
0

>  <SCORE.RESTR.norm>
0

>  <SCORE.SYSTEM>
0

>  <SCORE.SYSTEM.CONST>
0

>  <SCORE.SYSTEM.DIHEDRAL>
0

>  <SCORE.SYSTEM.SOLV>
0

>  <SCORE.SYSTEM.norm>
0

>  <SCORE.heavy>
30

>  <SCORE.norm>
-1.0917

>  <RMSD>
8.191

$$$$
lig.pdb
 OpenBabel11021811523D
libRbt.so/2013.1/901 2013/11/27
 30 34  0  0  0  0  0  0  0  0999 V2000
   24.5660   39.7030   22.5915 N   0  0  0  0  0  0  0  0  0  0  0  0
   25.2429   37.0560   18.4633 N   0  0  0  0  0  0  0  0  0  0  0  0
   25.0411   40.9855   22.0635 C   0  0  0  0  0  0  0  0  0  0  0  0
   25.1602   41.8169   23.3319 C   0  0  2  0  0  0  0  0  0  0  0  0
   24.1524   38.6385   21.6841 C   0  0  0  0  0  0  0  0  0  0  0  0
   23.0149   37.8324   21.8939 C   0  0  0  0  0  0  0  0  0  0  0  0
   22.6389   36.8114   21.0571 C   0  0  0  0  0  0  0  0  0  0  0  0
   23.0220   35.3805   19.0473 C   0  0  0  0  0  0  0  0  0  0  0  0
   26.7683   37.5457   16.8645 C   0  0  0  0  0  0  0  0  0  0  0  0
   26.3755   39.1825   18.8362 C   0  0  0  0  0  0  0  0  0  0  0  0
   24.9172   38.3585   20.5167 C   0  0  0  0  0  0  0  0  0  0  0  0
   22.8714   34.0945   16.0234 O   0  0  0  0  0  0  0  0  0  0  0  0
   23.6286   33.9789   16.9895 C   0  0  0  0  0  0  0  0  0  0  0  0
   24.2178   32.8310   17.3015 O   0  0  0  0  0  0  0  0  0  0  0  0
   23.9087   35.1366   17.8799 C   0  0  1  0  0  0  0  0  0  0  0  0
   22.0081   34.7090   19.2665 O   0  0  0  0  0  0  0  0  0  0  0  0
   24.9894   35.9914   17.6015 C   0  0  0  0  0  0  0  0  0  0  0  0
   26.2334   37.9448   18.0224 C   0  0  0  0  0  0  0  0  0  0  0  0
   26.0612   36.1015   16.2682 S   0  0  0  0  0  0  0  0  0  0  0  0
   24.5183   37.3219   19.6427 C   0  0  0  0  0  0  0  0  0  0  0  0
   23.3973   36.5252   19.9221 C   0  0  0  0  0  0  0  0  0  0  0  0
   22.2272   38.0840   22.9587 F   0  0  0  0  0  0  0  0  0  0  0  0
   26.1059   39.0585   20.2575 N   0  0  0  0  0  0  0  0  0  0  0  0
   27.1966   38.5453   21.0587 C   0  0  0  0  0  0  0  0  0  0  0  0
   23.9581   39.8597   23.9081 C   0  0  0  0  0  0  0  0  0  0  0  0
   26.4843   42.3228   23.5069 O   0  0  0  0  0  0  0  0  0  0  0  0
   24.9264   40.8675   24.5042 C   0  0  2  0  0  0  0  0  0  0  0  0
   24.4326   41.6577   25.6480 N   0  0  0  0  0  0  0  0  0  0  0  0
   23.4884   40.9561   26.5367 C   0  0  0  0  0  0  0  0  0  0  0  0
   25.5067   42.3323   26.3930 C   0  0  0  0  0  0  0  0  0  0  0  0
  1  5  1  0  0  0  0
  2 17  1  0  0  0  0
  3  1  1  0  0  0  0
  4  3  1  0  0  0  0
  4 26  1  1  0  0  0
  5 11  2  0  0  0  0
  5  6  1  0  0  0  0
  6  7  2  0  0  0  0
  7 21  1  0  0  0  0
  8 15  1  0  0  0  0
  8 16  2  0  0  0  0
  9 19  1  0  0  0  0
 10 18  1  0  0  0  0
 11 20  1  0  0  0  0
 13 14  1  0  0  0  0
 13 12  2  0  0  0  0
 15 13  1  6  0  0  0
 17 19  2  0  0  0  0
 17 15  1  0  0  0  0
 18  2  1  0  0  0  0
 18  9  2  0  0  0  0
 20 21  2  0  0  0  0
 20  2  1  0  0  0  0
 21  8  1  0  0  0  0
 22  6  1  0  0  0  0
 23 11  1  0  0  0  0
 23 10  1  0  0  0  0
 24 23  1  0  0  0  0
 25  1  1  0  0  0  0
 27  4  1  0  0  0  0
 27 25  1  0  0  0  0
 27 28  1  1  0  0  0
 29 28  1  0  0  0  0
 30 28  1  0  0  0  0
M  END
>  <CHROM.1>
-138.15240692,179.61985724,88.87234452,164.84808981,147.36210288,24.61591464
37.99754418,20.56024152,1.52110460,0.65511836,0.91056989

>  <Name>
lig.pdb

>  <RI>
0

>  <Rbt.Current_Directory>
/home/itssahil/PROJECTS/Mol_Feturizer/New_Systems/rnas/6bfb

>  <Rbt.Executable>
rbdock ($Id: //depot/dev/client3/rdock/2013.1/src/exe/rbdock.cxx#4 $)

>  <Rbt.Library>
libRbt.so (2013.1, Build901 2013/11/27)

>  <Rbt.Parameter_File>
/export/apps/rDock/src/rDock_2013.1_src/data/scripts/dock_solv.prm

>  <Rbt.Receptor>
prm/blind_docking_80.prm

>  <SCORE>
-29.405

>  <SCORE.INTER>
-27.3417

>  <SCORE.INTER.CONST>
1

>  <SCORE.INTER.POLAR>
0

>  <SCORE.INTER.ROT>
3

>  <SCORE.INTER.SOLV>
15.1002

>  <SCORE.INTER.VDW>
-28.8612

>  <SCORE.INTER.norm>
-0.911389

>  <SCORE.INTRA>
-2.06333

>  <SCORE.INTRA.DIHEDRAL>
-5.72485

>  <SCORE.INTRA.DIHEDRAL.0>
9.41909

>  <SCORE.INTRA.POLAR>
0

>  <SCORE.INTRA.POLAR.0>
0

>  <SCORE.INTRA.REPUL>
0

>  <SCORE.INTRA.REPUL.0>
0

>  <SCORE.INTRA.SOLV>
-0.129757

>  <SCORE.INTRA.SOLV.lig_0>
-26.2491

>  <SCORE.INTRA.VDW>
0.863969

>  <SCORE.INTRA.VDW.0>
2.57239

>  <SCORE.INTRA.norm>
-0.0687778

>  <SCORE.RESTR>
0

>  <SCORE.RESTR.CAVITY>
0

>  <SCORE.RESTR.norm>
0

>  <SCORE.SYSTEM>
0

>  <SCORE.SYSTEM.CONST>
0

>  <SCORE.SYSTEM.DIHEDRAL>
0

>  <SCORE.SYSTEM.SOLV>
0

>  <SCORE.SYSTEM.norm>
0

>  <SCORE.heavy>
30

>  <SCORE.norm>
-0.980167

>  <RMSD>
8.192

$$$$
lig.pdb
 OpenBabel11021811523D
libRbt.so/2013.1/901 2013/11/27
 30 34  0  0  0  0  0  0  0  0999 V2000
   27.3051   40.1270   22.5260 N   0  0  0  0  0  0  0  0  0  0  0  0
   24.7100   36.5597   20.2792 N   0  0  0  0  0  0  0  0  0  0  0  0
   27.6102   41.3334   21.7509 C   0  0  0  0  0  0  0  0  0  0  0  0
   27.3769   42.4292   22.7801 C   0  0  2  0  0  0  0  0  0  0  0  0
   27.2400   38.8253   21.8711 C   0  0  0  0  0  0  0  0  0  0  0  0
   28.3615   37.9938   21.6745 C   0  0  0  0  0  0  0  0  0  0  0  0
   28.3088   36.7813   21.0334 C   0  0  0  0  0  0  0  0  0  0  0  0
   27.0492   35.0206   19.7894 C   0  0  0  0  0  0  0  0  0  0  0  0
   22.4510   36.5085   20.1496 C   0  0  0  0  0  0  0  0  0  0  0  0
   23.6336   38.3166   21.5825 C   0  0  0  0  0  0  0  0  0  0  0  0
   25.9975   38.3351   21.3793 C   0  0  0  0  0  0  0  0  0  0  0  0
   26.3758   33.1423   17.5399 O   0  0  0  0  0  0  0  0  0  0  0  0
   25.6003   33.3682   18.4714 C   0  0  0  0  0  0  0  0  0  0  0  0
   24.6200   32.5365   18.8021 O   0  0  0  0  0  0  0  0  0  0  0  0
   25.7160   34.6158   19.2725 C   0  0  1  0  0  0  0  0  0  0  0  0
   28.0584   34.3206   19.6526 O   0  0  0  0  0  0  0  0  0  0  0  0
   24.5709   35.3843   19.5449 C   0  0  0  0  0  0  0  0  0  0  0  0
   23.5019   37.1732   20.6394 C   0  0  0  0  0  0  0  0  0  0  0  0
   22.9019   35.1080   19.2683 S   0  0  0  0  0  0  0  0  0  0  0  0
   25.9382   37.0766   20.7387 C   0  0  0  0  0  0  0  0  0  0  0  0
   27.0948   36.3079   20.5360 C   0  0  0  0  0  0  0  0  0  0  0  0
   29.5555   38.3867   22.1618 F   0  0  0  0  0  0  0  0  0  0  0  0
   24.8370   39.1202   21.4634 N   0  0  0  0  0  0  0  0  0  0  0  0
   24.8155   40.1288   20.4256 C   0  0  0  0  0  0  0  0  0  0  0  0
   26.4836   40.4344   23.6913 C   0  0  0  0  0  0  0  0  0  0  0  0
   28.5417   43.2351   22.9635 O   0  0  0  0  0  0  0  0  0  0  0  0
   27.1453   41.7336   24.1190 C   0  0  2  0  0  0  0  0  0  0  0  0
   26.3439   42.6303   24.9736 N   0  0  0  0  0  0  0  0  0  0  0  0
   24.8833   42.5170   24.8090 C   0  0  0  0  0  0  0  0  0  0  0  0
   26.7521   42.6017   26.3866 C   0  0  0  0  0  0  0  0  0  0  0  0
  1  5  1  0  0  0  0
  2 17  1  0  0  0  0
  3  1  1  0  0  0  0
  4  3  1  0  0  0  0
  4 26  1  1  0  0  0
  5 11  2  0  0  0  0
  5  6  1  0  0  0  0
  6  7  2  0  0  0  0
  7 21  1  0  0  0  0
  8 15  1  0  0  0  0
  8 16  2  0  0  0  0
  9 19  1  0  0  0  0
 10 18  1  0  0  0  0
 11 20  1  0  0  0  0
 13 14  1  0  0  0  0
 13 12  2  0  0  0  0
 15 13  1  1  0  0  0
 17 19  2  0  0  0  0
 17 15  1  0  0  0  0
 18  2  1  0  0  0  0
 18  9  2  0  0  0  0
 20 21  2  0  0  0  0
 20  2  1  0  0  0  0
 21  8  1  0  0  0  0
 22  6  1  0  0  0  0
 23 11  1  0  0  0  0
 23 10  1  0  0  0  0
 24 23  1  0  0  0  0
 25  1  1  0  0  0  0
 27  4  1  0  0  0  0
 27 25  1  0  0  0  0
 27 28  1  1  0  0  0
 29 28  1  0  0  0  0
 30 28  1  0  0  0  0
M  END
>  <CHROM.1>
87.27655264,9.12555681,-48.25199195,62.63390019,86.90255074,26.04164566,37.98833630
21.28170910,-1.35783332,0.04147439,-2.58928307

>  <Name>
lig.pdb

>  <RI>
0

>  <Rbt.Current_Directory>
/home/itssahil/PROJECTS/Mol_Feturizer/New_Systems/rnas/6bfb

>  <Rbt.Executable>
rbdock ($Id: //depot/dev/client3/rdock/2013.1/src/exe/rbdock.cxx#4 $)

>  <Rbt.Library>
libRbt.so (2013.1, Build901 2013/11/27)

>  <Rbt.Parameter_File>
/export/apps/rDock/src/rDock_2013.1_src/data/scripts/dock_solv.prm

>  <Rbt.Receptor>
prm/pocket_docking_6.prm

>  <SCORE>
-22.5654

>  <SCORE.INTER>
-17.6549

>  <SCORE.INTER.CONST>
1

>  <SCORE.INTER.POLAR>
-1.1265

>  <SCORE.INTER.ROT>
3

>  <SCORE.INTER.SOLV>
15.4149

>  <SCORE.INTER.VDW>
-18.7533

>  <SCORE.INTER.norm>
-0.588498

>  <SCORE.INTRA>
-4.91048

>  <SCORE.INTRA.DIHEDRAL>
-5.89869

>  <SCORE.INTRA.DIHEDRAL.0>
9.41909

>  <SCORE.INTRA.POLAR>
0

>  <SCORE.INTRA.POLAR.0>
0

>  <SCORE.INTRA.REPUL>
0

>  <SCORE.INTRA.REPUL.0>
0

>  <SCORE.INTRA.SOLV>
-0.154384

>  <SCORE.INTRA.SOLV.lig_0>
-26.2491

>  <SCORE.INTRA.VDW>
-1.88394

>  <SCORE.INTRA.VDW.0>
2.57239

>  <SCORE.INTRA.norm>
-0.163683

>  <SCORE.RESTR>
0

>  <SCORE.RESTR.CAVITY>
0

>  <SCORE.RESTR.norm>
0

>  <SCORE.SYSTEM>
0

>  <SCORE.SYSTEM.CONST>
0

>  <SCORE.SYSTEM.DIHEDRAL>
0

>  <SCORE.SYSTEM.SOLV>
0

>  <SCORE.SYSTEM.norm>
0

>  <SCORE.heavy>
30

>  <SCORE.norm>
-0.752181

>  <RMSD>
8.192

$$$$
lig.pdb
 OpenBabel11021811523D
libRbt.so/2013.1/901 2013/11/27
 30 34  0  0  0  0  0  0  0  0999 V2000
   26.9152   40.1520   22.7337 N   0  0  0  0  0  0  0  0  0  0  0  0
   24.6820   36.4636   20.3015 N   0  0  0  0  0  0  0  0  0  0  0  0
   27.2683   41.3646   21.9891 C   0  0  0  0  0  0  0  0  0  0  0  0
   26.8873   42.4563   22.9777 C   0  0  2  0  0  0  0  0  0  0  0  0
   26.9642   38.8465   22.0850 C   0  0  0  0  0  0  0  0  0  0  0  0
   28.1344   38.0659   21.9897 C   0  0  0  0  0  0  0  0  0  0  0  0
   28.1905   36.8501   21.3552 C   0  0  0  0  0  0  0  0  0  0  0  0
   27.1208   35.0301   20.0220 C   0  0  0  0  0  0  0  0  0  0  0  0
   22.4466   36.3098   19.9820 C   0  0  0  0  0  0  0  0  0  0  0  0
   23.4215   38.1744   21.4967 C   0  0  0  0  0  0  0  0  0  0  0  0
   25.7909   38.2990   21.4936 C   0  0  0  0  0  0  0  0  0  0  0  0
   26.7426   33.1024   17.7584 O   0  0  0  0  0  0  0  0  0  0  0  0
   25.8641   33.3095   18.5983 C   0  0  0  0  0  0  0  0  0  0  0  0
   24.8782   32.4506   18.8270 O   0  0  0  0  0  0  0  0  0  0  0  0
   25.8556   34.5638   19.3973 C   0  0  1  0  0  0  0  0  0  0  0  0
   28.1682   34.3760   19.9758 O   0  0  0  0  0  0  0  0  0  0  0  0
   24.6583   35.2806   19.5666 C   0  0  0  0  0  0  0  0  0  0  0  0
   23.4215   37.0230   20.5540 C   0  0  0  0  0  0  0  0  0  0  0  0
   23.0328   34.9282   19.1520 S   0  0  0  0  0  0  0  0  0  0  0  0
   25.8425   37.0370   20.8593 C   0  0  0  0  0  0  0  0  0  0  0  0
   27.0453   36.3207   20.7605 C   0  0  0  0  0  0  0  0  0  0  0  0
   29.2641   38.5140   22.5733 F   0  0  0  0  0  0  0  0  0  0  0  0
   24.5935   39.0311   21.4738 N   0  0  0  0  0  0  0  0  0  0  0  0
   24.6148   40.0343   20.4307 C   0  0  0  0  0  0  0  0  0  0  0  0
   25.9589   40.4379   23.7973 C   0  0  0  0  0  0  0  0  0  0  0  0
   27.9988   43.2989   23.2849 O   0  0  0  0  0  0  0  0  0  0  0  0
   26.5282   41.7587   24.2872 C   0  0  2  0  0  0  0  0  0  0  0  0
   25.6087   42.6329   25.0400 N   0  0  0  0  0  0  0  0  0  0  0  0
   24.1828   42.4942   24.6926 C   0  0  0  0  0  0  0  0  0  0  0  0
   25.8369   42.5996   26.4928 C   0  0  0  0  0  0  0  0  0  0  0  0
  1  5  1  0  0  0  0
  2 17  1  0  0  0  0
  3  1  1  0  0  0  0
  4  3  1  0  0  0  0
  4 26  1  1  0  0  0
  5 11  2  0  0  0  0
  5  6  1  0  0  0  0
  6  7  2  0  0  0  0
  7 21  1  0  0  0  0
  8 15  1  0  0  0  0
  8 16  2  0  0  0  0
  9 19  1  0  0  0  0
 10 18  1  0  0  0  0
 11 20  1  0  0  0  0
 13 14  1  0  0  0  0
 13 12  2  0  0  0  0
 15 13  1  1  0  0  0
 17 19  2  0  0  0  0
 17 15  1  0  0  0  0
 18  2  1  0  0  0  0
 18  9  2  0  0  0  0
 20 21  2  0  0  0  0
 20  2  1  0  0  0  0
 21  8  1  0  0  0  0
 22  6  1  0  0  0  0
 23 11  1  0  0  0  0
 23 10  1  0  0  0  0
 24 23  1  0  0  0  0
 25  1  1  0  0  0  0
 27  4  1  0  0  0  0
 27 25  1  0  0  0  0
 27 28  1  6  0  0  0
 29 28  1  0  0  0  0
 30 28  1  0  0  0  0
M  END
>  <CHROM.1>
85.49100058,8.50462681,-46.59618880,60.49241965,85.63066483,25.85542740,37.95610052
21.39783541,-1.44233411,0.08948059,-2.59092339

>  <Name>
lig.pdb

>  <RI>
0

>  <Rbt.Current_Directory>
/home/itssahil/PROJECTS/Mol_Feturizer/New_Systems/rnas/6bfb

>  <Rbt.Executable>
rbdock ($Id: //depot/dev/client3/rdock/2013.1/src/exe/rbdock.cxx#4 $)

>  <Rbt.Library>
libRbt.so (2013.1, Build901 2013/11/27)

>  <Rbt.Parameter_File>
/export/apps/rDock/src/rDock_2013.1_src/data/scripts/dock_solv.prm

>  <Rbt.Receptor>
prm/pocket_docking_5.prm

>  <SCORE>
-25.5256

>  <SCORE.INTER>
-20.6648

>  <SCORE.INTER.CONST>
1

>  <SCORE.INTER.POLAR>
-0.987884

>  <SCORE.INTER.ROT>
3

>  <SCORE.INTER.SOLV>
16.5011

>  <SCORE.INTER.VDW>
-21.5839

>  <SCORE.INTER.norm>
-0.688827

>  <SCORE.INTRA>
-5.02488

>  <SCORE.INTRA.DIHEDRAL>
-6.07637

>  <SCORE.INTRA.DIHEDRAL.0>
9.41909

>  <SCORE.INTRA.POLAR>
0

>  <SCORE.INTRA.POLAR.0>
0

>  <SCORE.INTRA.REPUL>
0

>  <SCORE.INTRA.REPUL.0>
0

>  <SCORE.INTRA.SOLV>
-0.150019

>  <SCORE.INTRA.SOLV.lig_0>
-26.2491

>  <SCORE.INTRA.VDW>
-1.91168

>  <SCORE.INTRA.VDW.0>
2.57239

>  <SCORE.INTRA.norm>
-0.167496

>  <SCORE.RESTR>
0.16405

>  <SCORE.RESTR.CAVITY>
0.16405

>  <SCORE.RESTR.norm>
0.00546834

>  <SCORE.SYSTEM>
0

>  <SCORE.SYSTEM.CONST>
0

>  <SCORE.SYSTEM.DIHEDRAL>
0

>  <SCORE.SYSTEM.SOLV>
0

>  <SCORE.SYSTEM.norm>
0

>  <SCORE.heavy>
30

>  <SCORE.norm>
-0.850854

>  <RMSD>
8.202

$$$$
lig.pdb
 OpenBabel11021811523D
libRbt.so/2013.1/901 2013/11/27
 30 34  0  0  0  0  0  0  0  0999 V2000
   24.5561   39.6306   22.5688 N   0  0  0  0  0  0  0  0  0  0  0  0
   25.3134   36.9855   18.4533 N   0  0  0  0  0  0  0  0  0  0  0  0
   25.0986   40.8924   22.0559 C   0  0  0  0  0  0  0  0  0  0  0  0
   25.1777   41.7321   23.3219 C   0  0  2  0  0  0  0  0  0  0  0  0
   24.1568   38.5707   21.6497 C   0  0  0  0  0  0  0  0  0  0  0  0
   23.0087   37.7726   21.8304 C   0  0  0  0  0  0  0  0  0  0  0  0
   22.6457   36.7558   20.9829 C   0  0  0  0  0  0  0  0  0  0  0  0
   23.0669   35.3254   18.9803 C   0  0  0  0  0  0  0  0  0  0  0  0
   26.8805   37.4667   16.8927 C   0  0  0  0  0  0  0  0  0  0  0  0
   26.4521   39.1031   18.8574 C   0  0  0  0  0  0  0  0  0  0  0  0
   24.9476   38.2870   20.5006 C   0  0  0  0  0  0  0  0  0  0  0  0
   22.9650   34.0407   15.9621 O   0  0  0  0  0  0  0  0  0  0  0  0
   23.7128   33.9228   16.9353 C   0  0  0  0  0  0  0  0  0  0  0  0
   24.3029   32.7755   17.2474 O   0  0  0  0  0  0  0  0  0  0  0  0
   23.9797   35.0770   17.8342 C   0  0  1  0  0  0  0  0  0  0  0  0
   22.0430   34.6611   19.1738 O   0  0  0  0  0  0  0  0  0  0  0  0
   25.0730   35.9243   17.5837 C   0  0  0  0  0  0  0  0  0  0  0  0
   26.3207   37.8679   18.0381 C   0  0  0  0  0  0  0  0  0  0  0  0
   26.1775   36.0287   16.2769 S   0  0  0  0  0  0  0  0  0  0  0  0
   24.5624   37.2549   19.6153 C   0  0  0  0  0  0  0  0  0  0  0  0
   23.4292   36.4659   19.8661 C   0  0  0  0  0  0  0  0  0  0  0  0
   22.1975   38.0282   22.8764 F   0  0  0  0  0  0  0  0  0  0  0  0
   26.1473   38.9788   20.2715 N   0  0  0  0  0  0  0  0  0  0  0  0
   27.2145   38.4562   21.0978 C   0  0  0  0  0  0  0  0  0  0  0  0
   23.8857   39.8192   23.8503 C   0  0  0  0  0  0  0  0  0  0  0  0
   26.5063   42.1981   23.5619 O   0  0  0  0  0  0  0  0  0  0  0  0
   24.8531   40.8021   24.4881 C   0  0  2  0  0  0  0  0  0  0  0  0
   24.3256   41.6185   25.5979 N   0  0  0  0  0  0  0  0  0  0  0  0
   23.4666   40.8987   26.5557 C   0  0  0  0  0  0  0  0  0  0  0  0
   25.3592   42.4229   26.2677 C   0  0  0  0  0  0  0  0  0  0  0  0
  1  5  1  0  0  0  0
  2 17  1  0  0  0  0
  3  1  1  0  0  0  0
  4  3  1  0  0  0  0
  4 26  1  1  0  0  0
  5 11  2  0  0  0  0
  5  6  1  0  0  0  0
  6  7  2  0  0  0  0
  7 21  1  0  0  0  0
  8 15  1  0  0  0  0
  8 16  2  0  0  0  0
  9 19  1  0  0  0  0
 10 18  1  0  0  0  0
 11 20  1  0  0  0  0
 13 14  1  0  0  0  0
 13 12  2  0  0  0  0
 15 13  1  6  0  0  0
 17 19  2  0  0  0  0
 17 15  1  0  0  0  0
 18  2  1  0  0  0  0
 18  9  2  0  0  0  0
 20 21  2  0  0  0  0
 20  2  1  0  0  0  0
 21  8  1  0  0  0  0
 22  6  1  0  0  0  0
 23 11  1  0  0  0  0
 23 10  1  0  0  0  0
 24 23  1  0  0  0  0
 25  1  1  0  0  0  0
 27  4  1  0  0  0  0
 27 25  1  0  0  0  0
 27 28  1  1  0  0  0
 29 28  1  0  0  0  0
 30 28  1  0  0  0  0
M  END
>  <CHROM.1>
-140.36763143,2.29176247,87.83786819,61.88790050,155.89666763,24.64288166
37.93296871,20.52640924,1.53820371,0.63368662,0.89780625

>  <Name>
lig.pdb

>  <RI>
0

>  <Rbt.Current_Directory>
/home/itssahil/PROJECTS/Mol_Feturizer/New_Systems/rnas/6bfb

>  <Rbt.Executable>
rbdock ($Id: //depot/dev/client3/rdock/2013.1/src/exe/rbdock.cxx#4 $)

>  <Rbt.Library>
libRbt.so (2013.1, Build901 2013/11/27)

>  <Rbt.Parameter_File>
/export/apps/rDock/src/rDock_2013.1_src/data/scripts/dock_solv.prm

>  <Rbt.Receptor>
prm/pocket_docking_6.prm

>  <SCORE>
-35.9094

>  <SCORE.INTER>
-32.146

>  <SCORE.INTER.CONST>
1

>  <SCORE.INTER.POLAR>
-0.891551

>  <SCORE.INTER.ROT>
3

>  <SCORE.INTER.SOLV>
14.5693

>  <SCORE.INTER.VDW>
-28.9152

>  <SCORE.INTER.norm>
-1.07153

>  <SCORE.INTRA>
-3.76347

>  <SCORE.INTRA.DIHEDRAL>
-7.20071

>  <SCORE.INTRA.DIHEDRAL.0>
9.41909

>  <SCORE.INTRA.POLAR>
0

>  <SCORE.INTRA.POLAR.0>
0

>  <SCORE.INTRA.REPUL>
0

>  <SCORE.INTRA.REPUL.0>
0

>  <SCORE.INTRA.SOLV>
-0.0986082

>  <SCORE.INTRA.SOLV.lig_0>
-26.2491

>  <SCORE.INTRA.VDW>
-0.113808

>  <SCORE.INTRA.VDW.0>
2.57239

>  <SCORE.INTRA.norm>
-0.125449

>  <SCORE.RESTR>
0

>  <SCORE.RESTR.CAVITY>
0

>  <SCORE.RESTR.norm>
0

>  <SCORE.SYSTEM>
0

>  <SCORE.SYSTEM.CONST>
0

>  <SCORE.SYSTEM.DIHEDRAL>
0

>  <SCORE.SYSTEM.SOLV>
0

>  <SCORE.SYSTEM.norm>
0

>  <SCORE.heavy>
30

>  <SCORE.norm>
-1.19698

>  <RMSD>
8.212

$$$$
lig.pdb
 OpenBabel11021811523D
libRbt.so/2013.1/901 2013/11/27
 30 34  0  0  0  0  0  0  0  0999 V2000
   24.5797   39.6210   22.5606 N   0  0  0  0  0  0  0  0  0  0  0  0
   25.3365   36.9586   18.4562 N   0  0  0  0  0  0  0  0  0  0  0  0
   25.1128   40.8857   22.0453 C   0  0  0  0  0  0  0  0  0  0  0  0
   25.1986   41.7240   23.3119 C   0  0  2  0  0  0  0  0  0  0  0  0
   24.1773   38.5608   21.6432 C   0  0  0  0  0  0  0  0  0  0  0  0
   23.0236   37.7704   21.8219 C   0  0  0  0  0  0  0  0  0  0  0  0
   22.6575   36.7533   20.9761 C   0  0  0  0  0  0  0  0  0  0  0  0
   23.0776   35.3141   18.9796 C   0  0  0  0  0  0  0  0  0  0  0  0
   26.9127   37.4252   16.9004 C   0  0  0  0  0  0  0  0  0  0  0  0
   26.4868   39.0703   18.8584 C   0  0  0  0  0  0  0  0  0  0  0  0
   24.9708   38.2687   20.4981 C   0  0  0  0  0  0  0  0  0  0  0  0
   22.9778   34.0202   15.9662 O   0  0  0  0  0  0  0  0  0  0  0  0
   23.7227   33.9012   16.9414 C   0  0  0  0  0  0  0  0  0  0  0  0
   24.3064   32.7518   17.2579 O   0  0  0  0  0  0  0  0  0  0  0  0
   23.9933   35.0565   17.8378 C   0  0  1  0  0  0  0  0  0  0  0  0
   22.0489   34.6568   19.1710 O   0  0  0  0  0  0  0  0  0  0  0  0
   25.0929   35.8962   17.5890 C   0  0  0  0  0  0  0  0  0  0  0  0
   26.3509   37.8333   18.0424 C   0  0  0  0  0  0  0  0  0  0  0  0
   26.2031   35.9897   16.2862 S   0  0  0  0  0  0  0  0  0  0  0  0
   24.5827   37.2362   19.6145 C   0  0  0  0  0  0  0  0  0  0  0  0
   23.4436   36.4551   19.8632 C   0  0  0  0  0  0  0  0  0  0  0  0
   22.2098   38.0343   22.8639 F   0  0  0  0  0  0  0  0  0  0  0  0
   26.1757   38.9522   20.2716 N   0  0  0  0  0  0  0  0  0  0  0  0
   27.2364   38.4255   21.1038 C   0  0  0  0  0  0  0  0  0  0  0  0
   23.9188   39.8050   23.8478 C   0  0  0  0  0  0  0  0  0  0  0  0
   26.5272   42.1950   23.5419 O   0  0  0  0  0  0  0  0  0  0  0  0
   24.8872   40.7909   24.4792 C   0  0  2  0  0  0  0  0  0  0  0  0
   24.3653   41.6036   25.5945 N   0  0  0  0  0  0  0  0  0  0  0  0
   23.5058   40.8820   26.5505 C   0  0  0  0  0  0  0  0  0  0  0  0
   25.4034   42.4007   26.2659 C   0  0  0  0  0  0  0  0  0  0  0  0
  1  5  1  0  0  0  0
  2 17  1  0  0  0  0
  3  1  1  0  0  0  0
  4  3  1  0  0  0  0
  4 26  1  1  0  0  0
  5 11  2  0  0  0  0
  5  6  1  0  0  0  0
  6  7  2  0  0  0  0
  7 21  1  0  0  0  0
  8 15  1  0  0  0  0
  8 16  2  0  0  0  0
  9 19  1  0  0  0  0
 10 18  1  0  0  0  0
 11 20  1  0  0  0  0
 13 14  1  0  0  0  0
 13 12  2  0  0  0  0
 15 13  1  6  0  0  0
 17 19  2  0  0  0  0
 17 15  1  0  0  0  0
 18  2  1  0  0  0  0
 18  9  2  0  0  0  0
 20 21  2  0  0  0  0
 20  2  1  0  0  0  0
 21  8  1  0  0  0  0
 22  6  1  0  0  0  0
 23 11  1  0  0  0  0
 23 10  1  0  0  0  0
 24 23  1  0  0  0  0
 25  1  1  0  0  0  0
 27  4  1  0  0  0  0
 27 25  1  0  0  0  0
 27 28  1  1  0  0  0
 29 28  1  0  0  0  0
 30 28  1  0  0  0  0
M  END
>  <CHROM.1>
-139.42510830,3.04543454,87.71632704,62.80486245,155.30536317,24.66488273
37.91492160,20.52493162,1.53632347,0.62839723,0.89675493

>  <Name>
lig.pdb

>  <RI>
0

>  <Rbt.Current_Directory>
/home/itssahil/PROJECTS/Mol_Feturizer/New_Systems/rnas/6bfb

>  <Rbt.Executable>
rbdock ($Id: //depot/dev/client3/rdock/2013.1/src/exe/rbdock.cxx#4 $)

>  <Rbt.Library>
libRbt.so (2013.1, Build901 2013/11/27)

>  <Rbt.Parameter_File>
/export/apps/rDock/src/rDock_2013.1_src/data/scripts/dock_solv.prm

>  <Rbt.Receptor>
prm/pocket_docking_6.prm

>  <SCORE>
-35.9091

>  <SCORE.INTER>
-32.068

>  <SCORE.INTER.CONST>
1

>  <SCORE.INTER.POLAR>
-0.899655

>  <SCORE.INTER.ROT>
3

>  <SCORE.INTER.SOLV>
14.5072

>  <SCORE.INTER.VDW>
-28.8156

>  <SCORE.INTER.norm>
-1.06893

>  <SCORE.INTRA>
-3.84105

>  <SCORE.INTRA.DIHEDRAL>
-7.1276

>  <SCORE.INTRA.DIHEDRAL.0>
9.41909

>  <SCORE.INTRA.POLAR>
0

>  <SCORE.INTRA.POLAR.0>
0

>  <SCORE.INTRA.REPUL>
0

>  <SCORE.INTRA.REPUL.0>
0

>  <SCORE.INTRA.SOLV>
-0.104588

>  <SCORE.INTRA.SOLV.lig_0>
-26.2491

>  <SCORE.INTRA.VDW>
-0.224961

>  <SCORE.INTRA.VDW.0>
2.57239

>  <SCORE.INTRA.norm>
-0.128035

>  <SCORE.RESTR>
0

>  <SCORE.RESTR.CAVITY>
0

>  <SCORE.RESTR.norm>
0

>  <SCORE.SYSTEM>
0

>  <SCORE.SYSTEM.CONST>
0

>  <SCORE.SYSTEM.DIHEDRAL>
0

>  <SCORE.SYSTEM.SOLV>
0

>  <SCORE.SYSTEM.norm>
0

>  <SCORE.heavy>
30

>  <SCORE.norm>
-1.19697

>  <RMSD>
8.212

$$$$
lig.pdb
 OpenBabel11021811523D
libRbt.so/2013.1/901 2013/11/27
 30 34  0  0  0  0  0  0  0  0999 V2000
   27.3578   40.0830   22.4454 N   0  0  0  0  0  0  0  0  0  0  0  0
   24.7089   36.5393   20.2243 N   0  0  0  0  0  0  0  0  0  0  0  0
   27.6641   41.2930   21.6763 C   0  0  0  0  0  0  0  0  0  0  0  0
   27.4495   42.3826   22.7161 C   0  0  2  0  0  0  0  0  0  0  0  0
   27.2764   38.7869   21.7813 C   0  0  0  0  0  0  0  0  0  0  0  0
   28.3918   37.9549   21.5544 C   0  0  0  0  0  0  0  0  0  0  0  0
   28.3231   36.7478   20.9046 C   0  0  0  0  0  0  0  0  0  0  0  0
   27.0341   34.9998   19.6730 C   0  0  0  0  0  0  0  0  0  0  0  0
   22.4475   36.4934   20.1417 C   0  0  0  0  0  0  0  0  0  0  0  0
   23.6636   38.2874   21.5643 C   0  0  0  0  0  0  0  0  0  0  0  0
   26.0228   38.3031   21.3117 C   0  0  0  0  0  0  0  0  0  0  0  0
   25.3614   33.4186   17.1558 O   0  0  0  0  0  0  0  0  0  0  0  0
   25.5545   33.3611   18.3722 C   0  0  0  0  0  0  0  0  0  0  0  0
   25.6354   32.2102   19.0286 O   0  0  0  0  0  0  0  0  0  0  0  0
   25.6895   34.6018   19.1808 C   0  0  1  0  0  0  0  0  0  0  0  0
   28.0387   34.2991   19.5092 O   0  0  0  0  0  0  0  0  0  0  0  0
   24.5520   35.3702   19.4835 C   0  0  0  0  0  0  0  0  0  0  0  0
   23.5099   37.1520   20.6148 C   0  0  0  0  0  0  0  0  0  0  0  0
   22.8770   35.0994   19.2397 S   0  0  0  0  0  0  0  0  0  0  0  0
   25.9475   37.0500   20.6622 C   0  0  0  0  0  0  0  0  0  0  0  0
   27.0979   36.2808   20.4289 C   0  0  0  0  0  0  0  0  0  0  0  0
   29.5965   38.3415   22.0197 F   0  0  0  0  0  0  0  0  0  0  0  0
   24.8659   39.0897   21.4266 N   0  0  0  0  0  0  0  0  0  0  0  0
   24.8247   40.1069   20.3978 C   0  0  0  0  0  0  0  0  0  0  0  0
   26.5505   40.3876   23.6213 C   0  0  0  0  0  0  0  0  0  0  0  0
   28.6221   43.1784   22.8937 O   0  0  0  0  0  0  0  0  0  0  0  0
   27.2263   41.6785   24.0520 C   0  0  2  0  0  0  0  0  0  0  0  0
   26.4404   42.5745   24.9215 N   0  0  0  0  0  0  0  0  0  0  0  0
   24.9778   42.4840   24.7605 C   0  0  0  0  0  0  0  0  0  0  0  0
   26.8527   42.5210   26.3325 C   0  0  0  0  0  0  0  0  0  0  0  0
  1  5  1  0  0  0  0
  2 17  1  0  0  0  0
  3  1  1  0  0  0  0
  4  3  1  0  0  0  0
  4 26  1  1  0  0  0
  5 11  2  0  0  0  0
  5  6  1  0  0  0  0
  6  7  2  0  0  0  0
  7 21  1  0  0  0  0
  8 15  1  0  0  0  0
  8 16  2  0  0  0  0
  9 19  1  0  0  0  0
 10 18  1  0  0  0  0
 11 20  1  0  0  0  0
 13 14  1  0  0  0  0
 13 12  2  0  0  0  0
 15 13  1  1  0  0  0
 17 19  2  0  0  0  0
 17 15  1  0  0  0  0
 18  2  1  0  0  0  0
 18  9  2  0  0  0  0
 20 21  2  0  0  0  0
 20  2  1  0  0  0  0
 21  8  1  0  0  0  0
 22  6  1  0  0  0  0
 23 11  1  0  0  0  0
 23 10  1  0  0  0  0
 24 23  1  0  0  0  0
 25  1  1  0  0  0  0
 27  4  1  0  0  0  0
 27 25  1  0  0  0  0
 27 28  1  1  0  0  0
 29 28  1  0  0  0  0
 30 28  1  0  0  0  0
M  END
>  <CHROM.1>
86.58181591,-10.21459061,-106.02956450,63.81269134,86.26002998,26.06832693
37.95582065,21.21090809,-1.34928752,0.05112159,-2.58900156

>  <Name>
lig.pdb

>  <RI>
0

>  <Rbt.Current_Directory>
/home/itssahil/PROJECTS/Mol_Feturizer/New_Systems/rnas/6bfb

>  <Rbt.Executable>
rbdock ($Id: //depot/dev/client3/rdock/2013.1/src/exe/rbdock.cxx#4 $)

>  <Rbt.Library>
libRbt.so (2013.1, Build901 2013/11/27)

>  <Rbt.Parameter_File>
/export/apps/rDock/src/rDock_2013.1_src/data/scripts/dock_solv.prm

>  <Rbt.Receptor>
prm/pocket_docking_6.prm

>  <SCORE>
-22.3162

>  <SCORE.INTER>
-17.2972

>  <SCORE.INTER.CONST>
1

>  <SCORE.INTER.POLAR>
-1.12992

>  <SCORE.INTER.ROT>
3

>  <SCORE.INTER.SOLV>
15.2074

>  <SCORE.INTER.VDW>
-18.4342

>  <SCORE.INTER.norm>
-0.576573

>  <SCORE.INTRA>
-5.01898

>  <SCORE.INTRA.DIHEDRAL>
-5.6545

>  <SCORE.INTRA.DIHEDRAL.0>
9.41909

>  <SCORE.INTRA.POLAR>
0

>  <SCORE.INTRA.POLAR.0>
0

>  <SCORE.INTRA.REPUL>
0

>  <SCORE.INTRA.REPUL.0>
0

>  <SCORE.INTRA.SOLV>
-0.180132

>  <SCORE.INTRA.SOLV.lig_0>
-26.2491

>  <SCORE.INTRA.VDW>
-2.10167

>  <SCORE.INTRA.VDW.0>
2.57239

>  <SCORE.INTRA.norm>
-0.167299

>  <SCORE.RESTR>
0

>  <SCORE.RESTR.CAVITY>
0

>  <SCORE.RESTR.norm>
0

>  <SCORE.SYSTEM>
0

>  <SCORE.SYSTEM.CONST>
0

>  <SCORE.SYSTEM.DIHEDRAL>
0

>  <SCORE.SYSTEM.SOLV>
0

>  <SCORE.SYSTEM.norm>
0

>  <SCORE.heavy>
30

>  <SCORE.norm>
-0.743873

>  <RMSD>
8.218

$$$$
lig.pdb
 OpenBabel11021811523D
libRbt.so/2013.1/901 2013/11/27
 30 34  0  0  0  0  0  0  0  0999 V2000
   24.5851   39.5953   22.5050 N   0  0  0  0  0  0  0  0  0  0  0  0
   25.3497   36.8535   18.4546 N   0  0  0  0  0  0  0  0  0  0  0  0
   25.0944   40.8608   21.9678 C   0  0  0  0  0  0  0  0  0  0  0  0
   25.1889   41.7140   23.2238 C   0  0  2  0  0  0  0  0  0  0  0  0
   24.1823   38.5202   21.6054 C   0  0  0  0  0  0  0  0  0  0  0  0
   23.0239   37.7387   21.7928 C   0  0  0  0  0  0  0  0  0  0  0  0
   22.6572   36.7077   20.9642 C   0  0  0  0  0  0  0  0  0  0  0  0
   23.0803   35.2297   18.9969 C   0  0  0  0  0  0  0  0  0  0  0  0
   26.9358   37.2837   16.8984 C   0  0  0  0  0  0  0  0  0  0  0  0
   26.5080   38.9669   18.8233 C   0  0  0  0  0  0  0  0  0  0  0  0
   24.9800   38.2031   20.4699 C   0  0  0  0  0  0  0  0  0  0  0  0
   24.0956   32.6452   17.3148 O   0  0  0  0  0  0  0  0  0  0  0  0
   23.7288   33.7761   16.9886 C   0  0  0  0  0  0  0  0  0  0  0  0
   23.0953   34.0200   15.8479 O   0  0  0  0  0  0  0  0  0  0  0  0
   24.0005   34.9466   17.8648 C   0  0  1  0  0  0  0  0  0  0  0  0
   22.0475   34.5809   19.1953 O   0  0  0  0  0  0  0  0  0  0  0  0
   25.1053   35.7764   17.6060 C   0  0  0  0  0  0  0  0  0  0  0  0
   26.3703   37.7156   18.0297 C   0  0  0  0  0  0  0  0  0  0  0  0
   26.2225   35.8403   16.3074 S   0  0  0  0  0  0  0  0  0  0  0  0
   24.5914   37.1561   19.6036 C   0  0  0  0  0  0  0  0  0  0  0  0
   23.4474   36.3852   19.8611 C   0  0  0  0  0  0  0  0  0  0  0  0
   22.2062   38.0257   22.8255 F   0  0  0  0  0  0  0  0  0  0  0  0
   26.1893   38.8766   20.2369 N   0  0  0  0  0  0  0  0  0  0  0  0
   27.2433   38.3605   21.0841 C   0  0  0  0  0  0  0  0  0  0  0  0
   23.9415   39.7853   23.8000 C   0  0  0  0  0  0  0  0  0  0  0  0
   26.5147   42.2040   23.4283 O   0  0  0  0  0  0  0  0  0  0  0  0
   24.9069   40.7901   24.4058 C   0  0  2  0  0  0  0  0  0  0  0  0
   24.3918   41.6085   25.5200 N   0  0  0  0  0  0  0  0  0  0  0  0
   23.5352   40.8927   26.4829 C   0  0  0  0  0  0  0  0  0  0  0  0
   25.4346   42.4062   26.1835 C   0  0  0  0  0  0  0  0  0  0  0  0
  1  5  1  0  0  0  0
  2 17  1  0  0  0  0
  3  1  1  0  0  0  0
  4  3  1  0  0  0  0
  4 26  1  1  0  0  0
  5 11  2  0  0  0  0
  5  6  1  0  0  0  0
  6  7  2  0  0  0  0
  7 21  1  0  0  0  0
  8 15  1  0  0  0  0
  8 16  2  0  0  0  0
  9 19  1  0  0  0  0
 10 18  1  0  0  0  0
 11 20  1  0  0  0  0
 13 14  1  0  0  0  0
 13 12  2  0  0  0  0
 15 13  1  6  0  0  0
 17 19  2  0  0  0  0
 17 15  1  0  0  0  0
 18  2  1  0  0  0  0
 18  9  2  0  0  0  0
 20 21  2  0  0  0  0
 20  2  1  0  0  0  0
 21  8  1  0  0  0  0
 22  6  1  0  0  0  0
 23 11  1  0  0  0  0
 23 10  1  0  0  0  0
 24 23  1  0  0  0  0
 25  1  1  0  0  0  0
 27  4  1  0  0  0  0
 27 25  1  0  0  0  0
 27 28  1  1  0  0  0
 29 28  1  0  0  0  0
 30 28  1  0  0  0  0
M  END
>  <CHROM.1>
-137.83897468,-172.26294178,-83.02554806,61.13254862,154.19562301,24.66767209
37.86132313,20.49482574,1.53338581,0.62297692,0.88800167

>  <Name>
lig.pdb

>  <RI>
0

>  <Rbt.Current_Directory>
/home/itssahil/PROJECTS/Mol_Feturizer/New_Systems/rnas/6bfb

>  <Rbt.Executable>
rbdock ($Id: //depot/dev/client3/rdock/2013.1/src/exe/rbdock.cxx#4 $)

>  <Rbt.Library>
libRbt.so (2013.1, Build901 2013/11/27)

>  <Rbt.Parameter_File>
/export/apps/rDock/src/rDock_2013.1_src/data/scripts/dock_solv.prm

>  <Rbt.Receptor>
prm/blind_docking_60.prm

>  <SCORE>
-34.2046

>  <SCORE.INTER>
-30.7069

>  <SCORE.INTER.CONST>
1

>  <SCORE.INTER.POLAR>
-0.843556

>  <SCORE.INTER.ROT>
3

>  <SCORE.INTER.SOLV>
14.6145

>  <SCORE.INTER.VDW>
-28.1309

>  <SCORE.INTER.norm>
-1.02356

>  <SCORE.INTRA>
-3.49772

>  <SCORE.INTRA.DIHEDRAL>
-6.80007

>  <SCORE.INTRA.DIHEDRAL.0>
9.41909

>  <SCORE.INTRA.POLAR>
0

>  <SCORE.INTRA.POLAR.0>
0

>  <SCORE.INTRA.REPUL>
0

>  <SCORE.INTRA.REPUL.0>
0

>  <SCORE.INTRA.SOLV>
-0.168492

>  <SCORE.INTRA.SOLV.lig_0>
-26.2491

>  <SCORE.INTRA.VDW>
-0.0134422

>  <SCORE.INTRA.VDW.0>
2.57239

>  <SCORE.INTRA.norm>
-0.116591

>  <SCORE.RESTR>
0

>  <SCORE.RESTR.CAVITY>
0

>  <SCORE.RESTR.norm>
0

>  <SCORE.SYSTEM>
0

>  <SCORE.SYSTEM.CONST>
0

>  <SCORE.SYSTEM.DIHEDRAL>
0

>  <SCORE.SYSTEM.SOLV>
0

>  <SCORE.SYSTEM.norm>
0

>  <SCORE.heavy>
30

>  <SCORE.norm>
-1.14015

>  <RMSD>
8.223

$$$$
lig.pdb
 OpenBabel11021811523D
libRbt.so/2013.1/901 2013/11/27
 30 34  0  0  0  0  0  0  0  0999 V2000
   27.6135   39.8427   22.5270 N   0  0  0  0  0  0  0  0  0  0  0  0
   24.5986   36.6382   20.2579 N   0  0  0  0  0  0  0  0  0  0  0  0
   28.4631   40.9279   22.0272 C   0  0  0  0  0  0  0  0  0  0  0  0
   28.2219   42.0128   23.0661 C   0  0  2  0  0  0  0  0  0  0  0  0
   27.4093   38.6381   21.7303 C   0  0  0  0  0  0  0  0  0  0  0  0
   28.4610   37.8214   21.2669 C   0  0  0  0  0  0  0  0  0  0  0  0
   28.2741   36.7032   20.4932 C   0  0  0  0  0  0  0  0  0  0  0  0
   26.7876   35.1387   19.2377 C   0  0  0  0  0  0  0  0  0  0  0  0
   22.3442   36.6398   20.4584 C   0  0  0  0  0  0  0  0  0  0  0  0
   23.7836   38.2281   21.9167 C   0  0  0  0  0  0  0  0  0  0  0  0
   26.0924   38.2354   21.3700 C   0  0  0  0  0  0  0  0  0  0  0  0
   24.7651   33.9017   16.7849 O   0  0  0  0  0  0  0  0  0  0  0  0
   25.1069   33.6941   17.9511 C   0  0  0  0  0  0  0  0  0  0  0  0
   25.2335   32.4710   18.4511 O   0  0  0  0  0  0  0  0  0  0  0  0
   25.3804   34.8254   18.8768 C   0  0  1  0  0  0  0  0  0  0  0  0
   27.7414   34.4465   18.8660 O   0  0  0  0  0  0  0  0  0  0  0  0
   24.3141   35.5701   19.4102 C   0  0  0  0  0  0  0  0  0  0  0  0
   23.4773   37.2187   20.8671 C   0  0  0  0  0  0  0  0  0  0  0  0
   22.6141   35.3584   19.3509 S   0  0  0  0  0  0  0  0  0  0  0  0
   25.8976   37.0716   20.5920 C   0  0  0  0  0  0  0  0  0  0  0  0
   26.9852   36.3175   20.1253 C   0  0  0  0  0  0  0  0  0  0  0  0
   29.7259   38.1289   21.6178 F   0  0  0  0  0  0  0  0  0  0  0  0
   24.9842   39.0212   21.7230 N   0  0  0  0  0  0  0  0  0  0  0  0
   24.8478   40.1561   20.8351 C   0  0  0  0  0  0  0  0  0  0  0  0
   26.5809   40.3440   23.4269 C   0  0  0  0  0  0  0  0  0  0  0  0
   29.4408   42.4336   23.6800 O   0  0  0  0  0  0  0  0  0  0  0  0
   27.3988   41.3770   24.1835 C   0  0  2  0  0  0  0  0  0  0  0  0
   26.6425   42.4444   24.8656 N   0  0  0  0  0  0  0  0  0  0  0  0
   25.4559   41.9940   25.6157 C   0  0  0  0  0  0  0  0  0  0  0  0
   27.4959   43.3450   25.6559 C   0  0  0  0  0  0  0  0  0  0  0  0
  1  5  1  0  0  0  0
  2 17  1  0  0  0  0
  3  1  1  0  0  0  0
  4  3  1  0  0  0  0
  4 26  1  1  0  0  0
  5 11  2  0  0  0  0
  5  6  1  0  0  0  0
  6  7  2  0  0  0  0
  7 21  1  0  0  0  0
  8 15  1  0  0  0  0
  8 16  2  0  0  0  0
  9 19  1  0  0  0  0
 10 18  1  0  0  0  0
 11 20  1  0  0  0  0
 13 14  1  0  0  0  0
 13 12  2  0  0  0  0
 15 13  1  1  0  0  0
 17 19  2  0  0  0  0
 17 15  1  0  0  0  0
 18  2  1  0  0  0  0
 18  9  2  0  0  0  0
 20 21  2  0  0  0  0
 20  2  1  0  0  0  0
 21  8  1  0  0  0  0
 22  6  1  0  0  0  0
 23 11  1  0  0  0  0
 23 10  1  0  0  0  0
 24 23  1  0  0  0  0
 25  1  1  0  0  0  0
 27  4  1  0  0  0  0
 27 25  1  0  0  0  0
 27 28  1  6  0  0  0
 29 28  1  0  0  0  0
 30 28  1  0  0  0  0
M  END
>  <CHROM.1>
56.56227846,-174.93570099,-106.09148054,39.89620538,158.64746176,26.11651777
37.95994215,21.19111137,-1.26225961,-0.03777778,-2.49996731

>  <Name>
lig.pdb

>  <RI>
0

>  <Rbt.Current_Directory>
/home/itssahil/PROJECTS/Mol_Feturizer/New_Systems/rnas/6bfb

>  <Rbt.Executable>
rbdock ($Id: //depot/dev/client3/rdock/2013.1/src/exe/rbdock.cxx#4 $)

>  <Rbt.Library>
libRbt.so (2013.1, Build901 2013/11/27)

>  <Rbt.Parameter_File>
/export/apps/rDock/src/rDock_2013.1_src/data/scripts/dock_solv.prm

>  <Rbt.Receptor>
prm/pocket_docking_8.prm

>  <SCORE>
-22.034

>  <SCORE.INTER>
-19.969

>  <SCORE.INTER.CONST>
1

>  <SCORE.INTER.POLAR>
-1.60179

>  <SCORE.INTER.ROT>
3

>  <SCORE.INTER.SOLV>
13.2186

>  <SCORE.INTER.VDW>
-17.9795

>  <SCORE.INTER.norm>
-0.665632

>  <SCORE.INTRA>
-2.06504

>  <SCORE.INTRA.DIHEDRAL>
-5.44889

>  <SCORE.INTRA.DIHEDRAL.0>
9.41909

>  <SCORE.INTRA.POLAR>
0

>  <SCORE.INTRA.POLAR.0>
0

>  <SCORE.INTRA.REPUL>
0

>  <SCORE.INTRA.REPUL.0>
0

>  <SCORE.INTRA.SOLV>
-0.0636907

>  <SCORE.INTRA.SOLV.lig_0>
-26.2491

>  <SCORE.INTRA.VDW>
0.691249

>  <SCORE.INTRA.VDW.0>
2.57239

>  <SCORE.INTRA.norm>
-0.0688347

>  <SCORE.RESTR>
0

>  <SCORE.RESTR.CAVITY>
0

>  <SCORE.RESTR.norm>
0

>  <SCORE.SYSTEM>
0

>  <SCORE.SYSTEM.CONST>
0

>  <SCORE.SYSTEM.DIHEDRAL>
0

>  <SCORE.SYSTEM.SOLV>
0

>  <SCORE.SYSTEM.norm>
0

>  <SCORE.heavy>
30

>  <SCORE.norm>
-0.734466

>  <RMSD>
8.232

$$$$
lig.pdb
 OpenBabel11021811523D
libRbt.so/2013.1/901 2013/11/27
 30 34  0  0  0  0  0  0  0  0999 V2000
   27.3785   39.9011   22.5589 N   0  0  0  0  0  0  0  0  0  0  0  0
   24.5661   36.5216   20.2838 N   0  0  0  0  0  0  0  0  0  0  0  0
   27.4979   41.1652   21.8258 C   0  0  0  0  0  0  0  0  0  0  0  0
   27.4151   42.1846   22.9519 C   0  0  2  0  0  0  0  0  0  0  0  0
   27.2422   38.6400   21.8389 C   0  0  0  0  0  0  0  0  0  0  0  0
   28.3290   37.7972   21.5287 C   0  0  0  0  0  0  0  0  0  0  0  0
   28.2080   36.6240   20.8266 C   0  0  0  0  0  0  0  0  0  0  0  0
   26.8331   34.9630   19.5678 C   0  0  0  0  0  0  0  0  0  0  0  0
   22.3028   36.5256   20.2904 C   0  0  0  0  0  0  0  0  0  0  0  0
   23.6135   38.2250   21.7449 C   0  0  0  0  0  0  0  0  0  0  0  0
   25.9606   38.2046   21.3983 C   0  0  0  0  0  0  0  0  0  0  0  0
   25.8984   33.2868   17.2018 O   0  0  0  0  0  0  0  0  0  0  0  0
   25.2674   33.4183   18.2528 C   0  0  0  0  0  0  0  0  0  0  0  0
   24.3781   32.5246   18.6684 O   0  0  0  0  0  0  0  0  0  0  0  0
   25.4617   34.6163   19.1123 C   0  0  1  0  0  0  0  0  0  0  0  0
   27.8146   34.2505   19.3312 O   0  0  0  0  0  0  0  0  0  0  0  0
   24.3542   35.3924   19.4962 C   0  0  0  0  0  0  0  0  0  0  0  0
   23.3973   37.1393   20.7504 C   0  0  0  0  0  0  0  0  0  0  0  0
   22.6653   35.1676   19.3078 S   0  0  0  0  0  0  0  0  0  0  0  0
   25.8320   36.9856   20.6946 C   0  0  0  0  0  0  0  0  0  0  0  0
   26.9550   36.2051   20.3795 C   0  0  0  0  0  0  0  0  0  0  0  0
   29.5594   38.1367   21.9626 F   0  0  0  0  0  0  0  0  0  0  0  0
   24.8269   39.0082   21.5963 N   0  0  0  0  0  0  0  0  0  0  0  0
   24.7679   40.0738   20.6185 C   0  0  0  0  0  0  0  0  0  0  0  0
   26.7689   40.0992   23.8691 C   0  0  0  0  0  0  0  0  0  0  0  0
   28.5653   43.0308   22.9811 O   0  0  0  0  0  0  0  0  0  0  0  0
   27.4512   41.3992   24.2604 C   0  0  2  0  0  0  0  0  0  0  0  0
   26.7854   42.2045   25.3019 N   0  0  0  0  0  0  0  0  0  0  0  0
   27.5476   43.3739   25.7762 C   0  0  0  0  0  0  0  0  0  0  0  0
   25.3919   42.5407   24.9719 C   0  0  0  0  0  0  0  0  0  0  0  0
  1  5  1  0  0  0  0
  2 17  1  0  0  0  0
  3  1  1  0  0  0  0
  4  3  1  0  0  0  0
  4 26  1  1  0  0  0
  5 11  2  0  0  0  0
  5  6  1  0  0  0  0
  6  7  2  0  0  0  0
  7 21  1  0  0  0  0
  8 15  1  0  0  0  0
  8 16  2  0  0  0  0
  9 19  1  0  0  0  0
 10 18  1  0  0  0  0
 11 20  1  0  0  0  0
 13 14  1  0  0  0  0
 13 12  2  0  0  0  0
 15 13  1  1  0  0  0
 17 19  2  0  0  0  0
 17 15  1  0  0  0  0
 18  2  1  0  0  0  0
 18  9  2  0  0  0  0
 20 21  2  0  0  0  0
 20  2  1  0  0  0  0
 21  8  1  0  0  0  0
 22  6  1  0  0  0  0
 23 11  1  0  0  0  0
 23 10  1  0  0  0  0
 24 23  1  0  0  0  0
 25  1  1  0  0  0  0
 27  4  1  0  0  0  0
 27 25  1  0  0  0  0
 27 28  1  1  0  0  0
 29 28  1  0  0  0  0
 30 28  1  0  0  0  0
M  END
>  <CHROM.1>
94.97977814,13.74664537,-54.63479367,63.40453998,-72.80069237,26.01133278
37.91468454,21.24990545,-1.30131184,0.02977410,-2.56701522

>  <Name>
lig.pdb

>  <RI>
0

>  <Rbt.Current_Directory>
/home/itssahil/PROJECTS/Mol_Feturizer/New_Systems/rnas/6bfb

>  <Rbt.Executable>
rbdock ($Id: //depot/dev/client3/rdock/2013.1/src/exe/rbdock.cxx#4 $)

>  <Rbt.Library>
libRbt.so (2013.1, Build901 2013/11/27)

>  <Rbt.Parameter_File>
/export/apps/rDock/src/rDock_2013.1_src/data/scripts/dock_solv.prm

>  <Rbt.Receptor>
prm/blind_docking_60.prm

>  <SCORE>
-22.2766

>  <SCORE.INTER>
-18.0694

>  <SCORE.INTER.CONST>
1

>  <SCORE.INTER.POLAR>
-1.05768

>  <SCORE.INTER.ROT>
3

>  <SCORE.INTER.SOLV>
14.4622

>  <SCORE.INTER.VDW>
-18.9414

>  <SCORE.INTER.norm>
-0.602314

>  <SCORE.INTRA>
-4.20717

>  <SCORE.INTRA.DIHEDRAL>
-6.36516

>  <SCORE.INTRA.DIHEDRAL.0>
9.41909

>  <SCORE.INTRA.POLAR>
0

>  <SCORE.INTRA.POLAR.0>
0

>  <SCORE.INTRA.REPUL>
0

>  <SCORE.INTRA.REPUL.0>
0

>  <SCORE.INTRA.SOLV>
0.124155

>  <SCORE.INTRA.SOLV.lig_0>
-26.2491

>  <SCORE.INTRA.VDW>
-1.08667

>  <SCORE.INTRA.VDW.0>
2.57239

>  <SCORE.INTRA.norm>
-0.140239

>  <SCORE.RESTR>
0

>  <SCORE.RESTR.CAVITY>
0

>  <SCORE.RESTR.norm>
0

>  <SCORE.SYSTEM>
0

>  <SCORE.SYSTEM.CONST>
0

>  <SCORE.SYSTEM.DIHEDRAL>
0

>  <SCORE.SYSTEM.SOLV>
0

>  <SCORE.SYSTEM.norm>
0

>  <SCORE.heavy>
30

>  <SCORE.norm>
-0.742553

>  <RMSD>
8.239

$$$$
lig.pdb
 OpenBabel11021811523D
libRbt.so/2013.1/901 2013/11/27
 30 34  0  0  0  0  0  0  0  0999 V2000
   27.3495   39.9488   22.4585 N   0  0  0  0  0  0  0  0  0  0  0  0
   24.6130   36.4808   20.2243 N   0  0  0  0  0  0  0  0  0  0  0  0
   27.6932   41.1567   21.7021 C   0  0  0  0  0  0  0  0  0  0  0  0
   27.5019   42.2426   22.7502 C   0  0  2  0  0  0  0  0  0  0  0  0
   27.2370   38.6612   21.7825 C   0  0  0  0  0  0  0  0  0  0  0  0
   28.3337   37.8095   21.5385 C   0  0  0  0  0  0  0  0  0  0  0  0
   28.2359   36.6106   20.8775 C   0  0  0  0  0  0  0  0  0  0  0  0
   26.9026   34.9009   19.6392 C   0  0  0  0  0  0  0  0  0  0  0  0
   22.3506   36.4806   20.1595 C   0  0  0  0  0  0  0  0  0  0  0  0
   23.6134   38.2359   21.5897 C   0  0  0  0  0  0  0  0  0  0  0  0
   25.9703   38.2071   21.3183 C   0  0  0  0  0  0  0  0  0  0  0  0
   26.0795   33.1120   17.3374 O   0  0  0  0  0  0  0  0  0  0  0  0
   25.3804   33.3049   18.3344 C   0  0  0  0  0  0  0  0  0  0  0  0
   24.4404   32.4521   18.7233 O   0  0  0  0  0  0  0  0  0  0  0  0
   25.5465   34.5346   19.1541 C   0  0  1  0  0  0  0  0  0  0  0  0
   27.8917   34.1820   19.4606 O   0  0  0  0  0  0  0  0  0  0  0  0
   24.4269   35.3225   19.4734 C   0  0  0  0  0  0  0  0  0  0  0  0
   23.4295   37.1133   20.6304 C   0  0  0  0  0  0  0  0  0  0  0  0
   22.7450   35.0874   19.2404 S   0  0  0  0  0  0  0  0  0  0  0  0
   25.8650   36.9624   20.6572 C   0  0  0  0  0  0  0  0  0  0  0  0
   26.9979   36.1728   20.4072 C   0  0  0  0  0  0  0  0  0  0  0  0
   29.5496   38.1675   21.9979 F   0  0  0  0  0  0  0  0  0  0  0  0
   24.8303   39.0154   21.4502 N   0  0  0  0  0  0  0  0  0  0  0  0
   24.8014   40.0434   20.4317 C   0  0  0  0  0  0  0  0  0  0  0  0
   26.5436   40.2650   23.6324 C   0  0  0  0  0  0  0  0  0  0  0  0
   28.6946   43.0047   22.9419 O   0  0  0  0  0  0  0  0  0  0  0  0
   27.2515   41.5332   24.0785 C   0  0  2  0  0  0  0  0  0  0  0  0
   26.4849   42.4427   24.9513 N   0  0  0  0  0  0  0  0  0  0  0  0
   25.5443   41.7835   25.8756 C   0  0  0  0  0  0  0  0  0  0  0  0
   27.3256   43.4428   25.6271 C   0  0  0  0  0  0  0  0  0  0  0  0
  1  5  1  0  0  0  0
  2 17  1  0  0  0  0
  3  1  1  0  0  0  0
  4  3  1  0  0  0  0
  4 26  1  1  0  0  0
  5 11  2  0  0  0  0
  5  6  1  0  0  0  0
  6  7  2  0  0  0  0
  7 21  1  0  0  0  0
  8 15  1  0  0  0  0
  8 16  2  0  0  0  0
  9 19  1  0  0  0  0
 10 18  1  0  0  0  0
 11 20  1  0  0  0  0
 13 14  1  0  0  0  0
 13 12  2  0  0  0  0
 15 13  1  1  0  0  0
 17 19  2  0  0  0  0
 17 15  1  0  0  0  0
 18  2  1  0  0  0  0
 18  9  2  0  0  0  0
 20 21  2  0  0  0  0
 20  2  1  0  0  0  0
 21  8  1  0  0  0  0
 22  6  1  0  0  0  0
 23 11  1  0  0  0  0
 23 10  1  0  0  0  0
 24 23  1  0  0  0  0
 25  1  1  0  0  0  0
 27  4  1  0  0  0  0
 27 25  1  0  0  0  0
 27 28  1  1  0  0  0
 29 28  1  0  0  0  0
 30 28  1  0  0  0  0
M  END
>  <CHROM.1>
85.67870612,12.01066944,-51.89949148,66.43149206,147.48562061,26.03469565
37.87937267,21.22255709,-1.31419229,0.01437728,-2.57202336

>  <Name>
lig.pdb

>  <RI>
0

>  <Rbt.Current_Directory>
/home/itssahil/PROJECTS/Mol_Feturizer/New_Systems/rnas/6bfb

>  <Rbt.Executable>
rbdock ($Id: //depot/dev/client3/rdock/2013.1/src/exe/rbdock.cxx#4 $)

>  <Rbt.Library>
libRbt.so (2013.1, Build901 2013/11/27)

>  <Rbt.Parameter_File>
/export/apps/rDock/src/rDock_2013.1_src/data/scripts/dock_solv.prm

>  <Rbt.Receptor>
prm/pocket_docking_6.prm

>  <SCORE>
-23.2112

>  <SCORE.INTER>
-18.2488

>  <SCORE.INTER.CONST>
1

>  <SCORE.INTER.POLAR>
-1.12961

>  <SCORE.INTER.ROT>
3

>  <SCORE.INTER.SOLV>
14.9953

>  <SCORE.INTER.VDW>
-18.999

>  <SCORE.INTER.norm>
-0.608294

>  <SCORE.INTRA>
-4.96239

>  <SCORE.INTRA.DIHEDRAL>
-5.66157

>  <SCORE.INTRA.DIHEDRAL.0>
9.41909

>  <SCORE.INTRA.POLAR>
0

>  <SCORE.INTRA.POLAR.0>
0

>  <SCORE.INTRA.REPUL>
0

>  <SCORE.INTRA.REPUL.0>
0

>  <SCORE.INTRA.SOLV>
-0.0645791

>  <SCORE.INTRA.SOLV.lig_0>
-26.2491

>  <SCORE.INTRA.VDW>
-2.09932

>  <SCORE.INTRA.VDW.0>
2.57239

>  <SCORE.INTRA.norm>
-0.165413

>  <SCORE.RESTR>
0

>  <SCORE.RESTR.CAVITY>
0

>  <SCORE.RESTR.norm>
0

>  <SCORE.SYSTEM>
0

>  <SCORE.SYSTEM.CONST>
0

>  <SCORE.SYSTEM.DIHEDRAL>
0

>  <SCORE.SYSTEM.SOLV>
0

>  <SCORE.SYSTEM.norm>
0

>  <SCORE.heavy>
30

>  <SCORE.norm>
-0.773707

>  <RMSD>
8.248

$$$$
lig.pdb
 OpenBabel11021811523D
libRbt.so/2013.1/901 2013/11/27
 30 34  0  0  0  0  0  0  0  0999 V2000
   27.9089   39.8499   21.8825 N   0  0  0  0  0  0  0  0  0  0  0  0
   24.6013   36.7460   19.8993 N   0  0  0  0  0  0  0  0  0  0  0  0
   27.8222   41.2334   21.4050 C   0  0  0  0  0  0  0  0  0  0  0  0
   28.0478   42.0180   22.6887 C   0  0  2  0  0  0  0  0  0  0  0  0
   27.5835   38.7402   20.9936 C   0  0  0  0  0  0  0  0  0  0  0  0
   28.5397   38.0604   20.2117 C   0  0  0  0  0  0  0  0  0  0  0  0
   28.2327   37.0347   19.3529 C   0  0  0  0  0  0  0  0  0  0  0  0
   26.5711   35.5363   18.2448 C   0  0  0  0  0  0  0  0  0  0  0  0
   22.4482   36.5681   20.5738 C   0  0  0  0  0  0  0  0  0  0  0  0
   24.1075   38.0620   21.8914 C   0  0  0  0  0  0  0  0  0  0  0  0
   26.2371   38.2948   20.8714 C   0  0  0  0  0  0  0  0  0  0  0  0
   24.7572   34.3789   15.9542 O   0  0  0  0  0  0  0  0  0  0  0  0
   24.7085   34.1472   17.1642 C   0  0  0  0  0  0  0  0  0  0  0  0
   24.2661   32.9951   17.6532 O   0  0  0  0  0  0  0  0  0  0  0  0
   25.1329   35.1733   18.1534 C   0  0  1  0  0  0  0  0  0  0  0  0
   27.4470   34.9619   17.5893 O   0  0  0  0  0  0  0  0  0  0  0  0
   24.1808   35.7723   18.9965 C   0  0  0  0  0  0  0  0  0  0  0  0
   23.6190   37.1695   20.8056 C   0  0  0  0  0  0  0  0  0  0  0  0
   22.5194   35.4529   19.2728 S   0  0  0  0  0  0  0  0  0  0  0  0
   25.9232   37.2239   20.0041 C   0  0  0  0  0  0  0  0  0  0  0  0
   26.9112   36.6089   19.2197 C   0  0  0  0  0  0  0  0  0  0  0  0
   29.8372   38.4092   20.3230 F   0  0  0  0  0  0  0  0  0  0  0  0
   25.2028   38.9536   21.5544 N   0  0  0  0  0  0  0  0  0  0  0  0
   24.8282   40.1761   20.8761 C   0  0  0  0  0  0  0  0  0  0  0  0
   27.6791   39.7658   23.3204 C   0  0  0  0  0  0  0  0  0  0  0  0
   29.1613   42.9052   22.5741 O   0  0  0  0  0  0  0  0  0  0  0  0
   28.4403   41.0048   23.7608 C   0  0  2  0  0  0  0  0  0  0  0  0
   28.0822   41.5635   25.0785 N   0  0  0  0  0  0  0  0  0  0  0  0
   28.8979   42.7100   25.5185 C   0  0  0  0  0  0  0  0  0  0  0  0
   26.6402   41.8111   25.2305 C   0  0  0  0  0  0  0  0  0  0  0  0
  1  5  1  0  0  0  0
  2 17  1  0  0  0  0
  3  1  1  0  0  0  0
  4  3  1  0  0  0  0
  4 26  1  6  0  0  0
  5 11  2  0  0  0  0
  5  6  1  0  0  0  0
  6  7  2  0  0  0  0
  7 21  1  0  0  0  0
  8 15  1  0  0  0  0
  8 16  2  0  0  0  0
  9 19  1  0  0  0  0
 10 18  1  0  0  0  0
 11 20  1  0  0  0  0
 13 14  1  0  0  0  0
 13 12  2  0  0  0  0
 15 13  1  1  0  0  0
 17 19  2  0  0  0  0
 17 15  1  0  0  0  0
 18  2  1  0  0  0  0
 18  9  2  0  0  0  0
 20 21  2  0  0  0  0
 20  2  1  0  0  0  0
 21  8  1  0  0  0  0
 22  6  1  0  0  0  0
 23 11  1  0  0  0  0
 23 10  1  0  0  0  0
 24 23  1  0  0  0  0
 25  1  1  0  0  0  0
 27  4  1  0  0  0  0
 27 25  1  0  0  0  0
 27 28  1  1  0  0  0
 29 28  1  0  0  0  0
 30 28  1  0  0  0  0
M  END
>  <CHROM.1>
92.73338388,-179.95511760,-68.73620089,-62.61975002,-69.68352859,26.24506827
38.04304117,20.66153590,-1.14765741,-0.23945314,-2.35037414

>  <Name>
lig.pdb

>  <RI>
0

>  <Rbt.Current_Directory>
/home/itssahil/PROJECTS/Mol_Feturizer/New_Systems/rnas/6bfb

>  <Rbt.Executable>
rbdock ($Id: //depot/dev/client3/rdock/2013.1/src/exe/rbdock.cxx#4 $)

>  <Rbt.Library>
libRbt.so (2013.1, Build901 2013/11/27)

>  <Rbt.Parameter_File>
/export/apps/rDock/src/rDock_2013.1_src/data/scripts/dock_solv.prm

>  <Rbt.Receptor>
prm/blind_docking_80.prm

>  <SCORE>
-31.4112

>  <SCORE.INTER>
-27.2391

>  <SCORE.INTER.CONST>
1

>  <SCORE.INTER.POLAR>
-0.848528

>  <SCORE.INTER.ROT>
3

>  <SCORE.INTER.SOLV>
12.2205

>  <SCORE.INTER.VDW>
-25.0045

>  <SCORE.INTER.norm>
-0.90797

>  <SCORE.INTRA>
-4.17213

>  <SCORE.INTRA.DIHEDRAL>
-7.67933

>  <SCORE.INTRA.DIHEDRAL.0>
9.41909

>  <SCORE.INTRA.POLAR>
0

>  <SCORE.INTRA.POLAR.0>
0

>  <SCORE.INTRA.REPUL>
0

>  <SCORE.INTRA.REPUL.0>
0

>  <SCORE.INTRA.SOLV>
0.0734226

>  <SCORE.INTRA.SOLV.lig_0>
-26.2491

>  <SCORE.INTRA.VDW>
-0.369175

>  <SCORE.INTRA.VDW.0>
2.57239

>  <SCORE.INTRA.norm>
-0.139071

>  <SCORE.RESTR>
0

>  <SCORE.RESTR.CAVITY>
0

>  <SCORE.RESTR.norm>
0

>  <SCORE.SYSTEM>
0

>  <SCORE.SYSTEM.CONST>
0

>  <SCORE.SYSTEM.DIHEDRAL>
0

>  <SCORE.SYSTEM.SOLV>
0

>  <SCORE.SYSTEM.norm>
0

>  <SCORE.heavy>
30

>  <SCORE.norm>
-1.04704

>  <RMSD>
8.316

$$$$
lig.pdb
 OpenBabel11021811523D
libRbt.so/2013.1/901 2013/11/27
 30 34  0  0  0  0  0  0  0  0999 V2000
   27.9246   39.8830   21.8470 N   0  0  0  0  0  0  0  0  0  0  0  0
   24.6474   36.7811   19.8110 N   0  0  0  0  0  0  0  0  0  0  0  0
   27.8691   41.2741   21.3872 C   0  0  0  0  0  0  0  0  0  0  0  0
   28.0702   42.0376   22.6876 C   0  0  2  0  0  0  0  0  0  0  0  0
   27.6087   38.7904   20.9338 C   0  0  0  0  0  0  0  0  0  0  0  0
   28.5691   38.1429   20.1299 C   0  0  0  0  0  0  0  0  0  0  0  0
   28.2707   37.1337   19.2488 C   0  0  0  0  0  0  0  0  0  0  0  0
   26.6228   35.6390   18.1157 C   0  0  0  0  0  0  0  0  0  0  0  0
   22.5015   36.5568   20.4946 C   0  0  0  0  0  0  0  0  0  0  0  0
   24.1486   38.0422   21.8371 C   0  0  0  0  0  0  0  0  0  0  0  0
   26.2679   38.3291   20.8096 C   0  0  0  0  0  0  0  0  0  0  0  0
   24.2612   33.1829   17.3605 O   0  0  0  0  0  0  0  0  0  0  0  0
   24.7726   34.2499   17.0139 C   0  0  0  0  0  0  0  0  0  0  0  0
   24.9958   34.5544   15.7413 O   0  0  0  0  0  0  0  0  0  0  0  0
   25.1892   35.2580   18.0246 C   0  0  1  0  0  0  0  0  0  0  0  0
   27.5022   35.0927   17.4410 O   0  0  0  0  0  0  0  0  0  0  0  0
   24.2345   35.8233   18.8878 C   0  0  0  0  0  0  0  0  0  0  0  0
   23.6653   37.1690   20.7333 C   0  0  0  0  0  0  0  0  0  0  0  0
   22.5796   35.4741   19.1669 S   0  0  0  0  0  0  0  0  0  0  0  0
   25.9632   37.2749   19.9188 C   0  0  0  0  0  0  0  0  0  0  0  0
   26.9544   36.6927   19.1138 C   0  0  0  0  0  0  0  0  0  0  0  0
   29.8623   38.5072   20.2414 F   0  0  0  0  0  0  0  0  0  0  0  0
   25.2291   38.9568   21.5146 N   0  0  0  0  0  0  0  0  0  0  0  0
   24.8331   40.1897   20.8682 C   0  0  0  0  0  0  0  0  0  0  0  0
   27.6549   39.7819   23.2768 C   0  0  0  0  0  0  0  0  0  0  0  0
   29.1979   42.9111   22.6156 O   0  0  0  0  0  0  0  0  0  0  0  0
   28.4202   41.0043   23.7553 C   0  0  2  0  0  0  0  0  0  0  0  0
   28.0340   41.5493   25.0707 N   0  0  0  0  0  0  0  0  0  0  0  0
   28.8476   42.6834   25.5453 C   0  0  0  0  0  0  0  0  0  0  0  0
   26.5907   41.8069   25.1902 C   0  0  0  0  0  0  0  0  0  0  0  0
  1  5  1  0  0  0  0
  2 17  1  0  0  0  0
  3  1  1  0  0  0  0
  4  3  1  0  0  0  0
  4 26  1  6  0  0  0
  5 11  2  0  0  0  0
  5  6  1  0  0  0  0
  6  7  2  0  0  0  0
  7 21  1  0  0  0  0
  8 15  1  0  0  0  0
  8 16  2  0  0  0  0
  9 19  1  0  0  0  0
 10 18  1  0  0  0  0
 11 20  1  0  0  0  0
 13 14  1  0  0  0  0
 13 12  2  0  0  0  0
 15 13  1  1  0  0  0
 17 19  2  0  0  0  0
 17 15  1  0  0  0  0
 18  2  1  0  0  0  0
 18  9  2  0  0  0  0
 20 21  2  0  0  0  0
 20  2  1  0  0  0  0
 21  8  1  0  0  0  0
 22  6  1  0  0  0  0
 23 11  1  0  0  0  0
 23 10  1  0  0  0  0
 24 23  1  0  0  0  0
 25  1  1  0  0  0  0
 27  4  1  0  0  0  0
 27 25  1  0  0  0  0
 27 28  1  1  0  0  0
 29 28  1  0  0  0  0
 30 28  1  0  0  0  0
M  END
>  <CHROM.1>
90.19810947,1.03764990,118.31048357,-61.21912056,-69.34922478,26.27882540
38.09300421,20.57613127,-1.15738508,-0.25796527,-2.32194464

>  <Name>
lig.pdb

>  <RI>
0

>  <Rbt.Current_Directory>
/home/itssahil/PROJECTS/Mol_Feturizer/New_Systems/rnas/6bfb

>  <Rbt.Executable>
rbdock ($Id: //depot/dev/client3/rdock/2013.1/src/exe/rbdock.cxx#4 $)

>  <Rbt.Library>
libRbt.so (2013.1, Build901 2013/11/27)

>  <Rbt.Parameter_File>
/export/apps/rDock/src/rDock_2013.1_src/data/scripts/dock_solv.prm

>  <Rbt.Receptor>
prm/blind_docking_100.prm

>  <SCORE>
-31.4173

>  <SCORE.INTER>
-26.9136

>  <SCORE.INTER.CONST>
1

>  <SCORE.INTER.POLAR>
-0.845957

>  <SCORE.INTER.ROT>
3

>  <SCORE.INTER.SOLV>
11.9177

>  <SCORE.INTER.VDW>
-24.6951

>  <SCORE.INTER.norm>
-0.897121

>  <SCORE.INTRA>
-4.5037

>  <SCORE.INTRA.DIHEDRAL>
-7.7008

>  <SCORE.INTRA.DIHEDRAL.0>
9.41909

>  <SCORE.INTRA.POLAR>
0

>  <SCORE.INTRA.POLAR.0>
0

>  <SCORE.INTRA.REPUL>
0

>  <SCORE.INTRA.REPUL.0>
0

>  <SCORE.INTRA.SOLV>
0.149535

>  <SCORE.INTRA.SOLV.lig_0>
-26.2491

>  <SCORE.INTRA.VDW>
-0.72807

>  <SCORE.INTRA.VDW.0>
2.57239

>  <SCORE.INTRA.norm>
-0.150123

>  <SCORE.RESTR>
0

>  <SCORE.RESTR.CAVITY>
0

>  <SCORE.RESTR.norm>
0

>  <SCORE.SYSTEM>
0

>  <SCORE.SYSTEM.CONST>
0

>  <SCORE.SYSTEM.DIHEDRAL>
0

>  <SCORE.SYSTEM.SOLV>
0

>  <SCORE.SYSTEM.norm>
0

>  <SCORE.heavy>
30

>  <SCORE.norm>
-1.04724

>  <RMSD>
8.343

$$$$
lig.pdb
 OpenBabel11021811523D
libRbt.so/2013.1/901 2013/11/27
 30 34  0  0  0  0  0  0  0  0999 V2000
   27.8966   40.1488   21.3020 N   0  0  0  0  0  0  0  0  0  0  0  0
   24.8407   36.5674   19.7714 N   0  0  0  0  0  0  0  0  0  0  0  0
   27.6387   41.3958   20.5754 C   0  0  0  0  0  0  0  0  0  0  0  0
   27.8103   42.4345   21.6735 C   0  0  2  0  0  0  0  0  0  0  0  0
   27.6744   38.8592   20.6577 C   0  0  0  0  0  0  0  0  0  0  0  0
   28.7112   38.0580   20.1372 C   0  0  0  0  0  0  0  0  0  0  0  0
   28.5031   36.8576   19.5051 C   0  0  0  0  0  0  0  0  0  0  0  0
   26.9778   35.0931   18.6141 C   0  0  0  0  0  0  0  0  0  0  0  0
   22.6355   36.4663   20.2711 C   0  0  0  0  0  0  0  0  0  0  0  0
   24.1385   38.2726   21.3662 C   0  0  0  0  0  0  0  0  0  0  0  0
   26.3526   38.3500   20.5169 C   0  0  0  0  0  0  0  0  0  0  0  0
   24.7350   33.5009   16.5881 O   0  0  0  0  0  0  0  0  0  0  0  0
   25.2483   33.4339   17.7071 C   0  0  0  0  0  0  0  0  0  0  0  0
   25.5338   32.2778   18.2936 O   0  0  0  0  0  0  0  0  0  0  0  0
   25.5606   34.6678   18.4763 C   0  0  1  0  0  0  0  0  0  0  0  0
   27.9210   34.4196   18.1853 O   0  0  0  0  0  0  0  0  0  0  0  0
   24.5232   35.4039   19.0747 C   0  0  0  0  0  0  0  0  0  0  0  0
   23.7697   37.1454   20.4676 C   0  0  0  0  0  0  0  0  0  0  0  0
   22.8478   35.0944   19.2640 S   0  0  0  0  0  0  0  0  0  0  0  0
   26.1392   37.1035   19.8859 C   0  0  0  0  0  0  0  0  0  0  0  0
   27.2069   36.3660   19.3514 C   0  0  0  0  0  0  0  0  0  0  0  0
   29.9867   38.4689   20.2847 F   0  0  0  0  0  0  0  0  0  0  0  0
   25.2479   39.1062   20.9391 N   0  0  0  0  0  0  0  0  0  0  0  0
   24.9224   40.1344   19.9739 C   0  0  0  0  0  0  0  0  0  0  0  0
   27.7196   40.3219   22.7394 C   0  0  0  0  0  0  0  0  0  0  0  0
   28.8114   43.3958   21.3364 O   0  0  0  0  0  0  0  0  0  0  0  0
   28.3468   41.6968   22.8975 C   0  0  2  0  0  0  0  0  0  0  0  0
   27.9656   42.4597   24.1013 N   0  0  0  0  0  0  0  0  0  0  0  0
   26.5260   42.4555   24.4193 C   0  0  0  0  0  0  0  0  0  0  0  0
   28.7986   42.1479   25.2729 C   0  0  0  0  0  0  0  0  0  0  0  0
  1  5  1  0  0  0  0
  2 17  1  0  0  0  0
  3  1  1  0  0  0  0
  4  3  1  0  0  0  0
  4 26  1  6  0  0  0
  5 11  2  0  0  0  0
  5  6  1  0  0  0  0
  6  7  2  0  0  0  0
  7 21  1  0  0  0  0
  8 15  1  0  0  0  0
  8 16  2  0  0  0  0
  9 19  1  0  0  0  0
 10 18  1  0  0  0  0
 11 20  1  0  0  0  0
 13 14  1  0  0  0  0
 13 12  2  0  0  0  0
 15 13  1  1  0  0  0
 17 19  2  0  0  0  0
 17 15  1  0  0  0  0
 18  2  1  0  0  0  0
 18  9  2  0  0  0  0
 20 21  2  0  0  0  0
 20  2  1  0  0  0  0
 21  8  1  0  0  0  0
 22  6  1  0  0  0  0
 23 11  1  0  0  0  0
 23 10  1  0  0  0  0
 24 23  1  0  0  0  0
 25  1  1  0  0  0  0
 27  4  1  0  0  0  0
 27 25  1  0  0  0  0
 27 28  1  1  0  0  0
 29 28  1  0  0  0  0
 30 28  1  0  0  0  0
M  END
>  <CHROM.1>
102.00976960,-10.71838808,-106.79528923,179.31360200,69.36262940,26.40429161
37.98965771,20.42094332,-1.21937936,-0.14665277,-2.56547011

>  <Name>
lig.pdb

>  <RI>
0

>  <Rbt.Current_Directory>
/home/itssahil/PROJECTS/Mol_Feturizer/New_Systems/rnas/6bfb

>  <Rbt.Executable>
rbdock ($Id: //depot/dev/client3/rdock/2013.1/src/exe/rbdock.cxx#4 $)

>  <Rbt.Library>
libRbt.so (2013.1, Build901 2013/11/27)

>  <Rbt.Parameter_File>
/export/apps/rDock/src/rDock_2013.1_src/data/scripts/dock_solv.prm

>  <Rbt.Receptor>
prm/blind_docking_100.prm

>  <SCORE>
-30.517

>  <SCORE.INTER>
-25.2039

>  <SCORE.INTER.CONST>
1

>  <SCORE.INTER.POLAR>
-0.878322

>  <SCORE.INTER.ROT>
3

>  <SCORE.INTER.SOLV>
13.4921

>  <SCORE.INTER.VDW>
-23.9722

>  <SCORE.INTER.norm>
-0.84013

>  <SCORE.INTRA>
-5.31312

>  <SCORE.INTRA.DIHEDRAL>
-6.54735

>  <SCORE.INTRA.DIHEDRAL.0>
9.41909

>  <SCORE.INTRA.POLAR>
0

>  <SCORE.INTRA.POLAR.0>
0

>  <SCORE.INTRA.REPUL>
0

>  <SCORE.INTRA.REPUL.0>
0

>  <SCORE.INTRA.SOLV>
-0.115554

>  <SCORE.INTRA.SOLV.lig_0>
-26.2491

>  <SCORE.INTRA.VDW>
-1.98166

>  <SCORE.INTRA.VDW.0>
2.57239

>  <SCORE.INTRA.norm>
-0.177104

>  <SCORE.RESTR>
0

>  <SCORE.RESTR.CAVITY>
0

>  <SCORE.RESTR.norm>
0

>  <SCORE.SYSTEM>
0

>  <SCORE.SYSTEM.CONST>
0

>  <SCORE.SYSTEM.DIHEDRAL>
0

>  <SCORE.SYSTEM.SOLV>
0

>  <SCORE.SYSTEM.norm>
0

>  <SCORE.heavy>
30

>  <SCORE.norm>
-1.01723

>  <RMSD>
8.346

$$$$
lig.pdb
 OpenBabel11021811523D
libRbt.so/2013.1/901 2013/11/27
 30 34  0  0  0  0  0  0  0  0999 V2000
   27.6777   39.5453   22.0209 N   0  0  0  0  0  0  0  0  0  0  0  0
   24.3777   36.5515   19.8635 N   0  0  0  0  0  0  0  0  0  0  0  0
   28.5894   40.6192   21.6147 C   0  0  0  0  0  0  0  0  0  0  0  0
   28.4607   41.5905   22.7784 C   0  0  2  0  0  0  0  0  0  0  0  0
   27.3609   38.4584   21.1013 C   0  0  0  0  0  0  0  0  0  0  0  0
   28.3301   37.7701   20.3432 C   0  0  0  0  0  0  0  0  0  0  0  0
   28.0324   36.7661   19.4558 C   0  0  0  0  0  0  0  0  0  0  0  0
   26.3801   35.3249   18.2614 C   0  0  0  0  0  0  0  0  0  0  0  0
   22.1976   36.4115   20.4553 C   0  0  0  0  0  0  0  0  0  0  0  0
   23.8398   37.8449   21.8589 C   0  0  0  0  0  0  0  0  0  0  0  0
   26.0104   38.0459   20.9220 C   0  0  0  0  0  0  0  0  0  0  0  0
   23.7555   34.3054   16.1793 O   0  0  0  0  0  0  0  0  0  0  0  0
   24.5285   33.9969   17.0890 C   0  0  0  0  0  0  0  0  0  0  0  0
   25.0214   32.7716   17.2223 O   0  0  0  0  0  0  0  0  0  0  0  0
   24.9386   34.9964   18.1109 C   0  0  1  0  0  0  0  0  0  0  0  0
   27.2668   34.7416   17.6285 O   0  0  0  0  0  0  0  0  0  0  0  0
   23.9694   35.6028   18.9289 C   0  0  0  0  0  0  0  0  0  0  0  0
   23.3721   36.9820   20.7404 C   0  0  0  0  0  0  0  0  0  0  0  0
   22.2923   35.3169   19.1385 S   0  0  0  0  0  0  0  0  0  0  0  0
   25.7051   36.9972   20.0251 C   0  0  0  0  0  0  0  0  0  0  0  0
   26.7076   36.3730   19.2668 C   0  0  0  0  0  0  0  0  0  0  0  0
   29.6300   38.0872   20.5082 F   0  0  0  0  0  0  0  0  0  0  0  0
   24.9663   38.7167   21.5780 N   0  0  0  0  0  0  0  0  0  0  0  0
   24.6445   39.9586   20.9081 C   0  0  0  0  0  0  0  0  0  0  0  0
   26.7130   40.0098   23.0113 C   0  0  0  0  0  0  0  0  0  0  0  0
   29.7257   41.8513   23.3882 O   0  0  0  0  0  0  0  0  0  0  0  0
   27.6277   40.8886   23.8478 C   0  0  2  0  0  0  0  0  0  0  0  0
   26.9734   41.9198   24.6755 N   0  0  0  0  0  0  0  0  0  0  0  0
   25.8006   41.4609   25.4418 C   0  0  0  0  0  0  0  0  0  0  0  0
   27.9190   42.6843   25.5032 C   0  0  0  0  0  0  0  0  0  0  0  0
  1  5  1  0  0  0  0
  2 17  1  0  0  0  0
  3  1  1  0  0  0  0
  4  3  1  0  0  0  0
  4 26  1  1  0  0  0
  5 11  2  0  0  0  0
  5  6  1  0  0  0  0
  6  7  2  0  0  0  0
  7 21  1  0  0  0  0
  8 15  1  0  0  0  0
  8 16  2  0  0  0  0
  9 19  1  0  0  0  0
 10 18  1  0  0  0  0
 11 20  1  0  0  0  0
 13 14  1  0  0  0  0
 13 12  2  0  0  0  0
 15 13  1  1  0  0  0
 17 19  2  0  0  0  0
 17 15  1  0  0  0  0
 18  2  1  0  0  0  0
 18  9  2  0  0  0  0
 20 21  2  0  0  0  0
 20  2  1  0  0  0  0
 21  8  1  0  0  0  0
 22  6  1  0  0  0  0
 23 11  1  0  0  0  0
 23 10  1  0  0  0  0
 24 23  1  0  0  0  0
 25  1  1  0  0  0  0
 27  4  1  0  0  0  0
 27 25  1  0  0  0  0
 27 28  1  6  0  0  0
 29 28  1  0  0  0  0
 30 28  1  0  0  0  0
M  END
>  <CHROM.1>
45.98757939,-5.17178872,-120.30799425,47.65248821,160.13041225,25.99896287
37.81653903,20.68215922,-1.17802409,-0.17170891,-2.36174916

>  <Name>
lig.pdb

>  <RI>
0

>  <Rbt.Current_Directory>
/home/itssahil/PROJECTS/Mol_Feturizer/New_Systems/rnas/6bfb

>  <Rbt.Executable>
rbdock ($Id: //depot/dev/client3/rdock/2013.1/src/exe/rbdock.cxx#4 $)

>  <Rbt.Library>
libRbt.so (2013.1, Build901 2013/11/27)

>  <Rbt.Parameter_File>
/export/apps/rDock/src/rDock_2013.1_src/data/scripts/dock_solv.prm

>  <Rbt.Receptor>
prm/blind_docking_80.prm

>  <SCORE>
-28.9901

>  <SCORE.INTER>
-28.0946

>  <SCORE.INTER.CONST>
1

>  <SCORE.INTER.POLAR>
-1.6525

>  <SCORE.INTER.ROT>
3

>  <SCORE.INTER.SOLV>
12.8543

>  <SCORE.INTER.VDW>
-23.1062

>  <SCORE.INTER.norm>
-0.936487

>  <SCORE.INTRA>
-0.895525

>  <SCORE.INTRA.DIHEDRAL>
-6.50697

>  <SCORE.INTRA.DIHEDRAL.0>
9.41909

>  <SCORE.INTRA.POLAR>
0

>  <SCORE.INTRA.POLAR.0>
0

>  <SCORE.INTRA.REPUL>
0

>  <SCORE.INTRA.REPUL.0>
0

>  <SCORE.INTRA.SOLV>
-0.0249563

>  <SCORE.INTRA.SOLV.lig_0>
-26.2491

>  <SCORE.INTRA.VDW>
2.37044

>  <SCORE.INTRA.VDW.0>
2.57239

>  <SCORE.INTRA.norm>
-0.0298508

>  <SCORE.RESTR>
0

>  <SCORE.RESTR.CAVITY>
0

>  <SCORE.RESTR.norm>
0

>  <SCORE.SYSTEM>
0

>  <SCORE.SYSTEM.CONST>
0

>  <SCORE.SYSTEM.DIHEDRAL>
0

>  <SCORE.SYSTEM.SOLV>
0

>  <SCORE.SYSTEM.norm>
0

>  <SCORE.heavy>
30

>  <SCORE.norm>
-0.966338

>  <RMSD>
8.352

$$$$
lig.pdb
 OpenBabel11021811523D
libRbt.so/2013.1/901 2013/11/27
 30 34  0  0  0  0  0  0  0  0999 V2000
   25.6183   42.9651   17.4484 N   0  0  0  0  0  0  0  0  0  0  0  0
   21.3181   45.3133   16.7404 N   0  0  0  0  0  0  0  0  0  0  0  0
   26.7031   43.5871   16.6831 C   0  0  0  0  0  0  0  0  0  0  0  0
   27.6862   42.4341   16.5472 C   0  0  2  0  0  0  0  0  0  0  0  0
   24.5148   43.7730   17.9553 C   0  0  0  0  0  0  0  0  0  0  0  0
   24.4274   44.2266   19.2874 C   0  0  0  0  0  0  0  0  0  0  0  0
   23.3766   44.9628   19.7749 C   0  0  0  0  0  0  0  0  0  0  0  0
   21.1497   46.0527   19.4800 C   0  0  0  0  0  0  0  0  0  0  0  0
   20.3481   45.6261   14.7195 C   0  0  0  0  0  0  0  0  0  0  0  0
   22.7232   44.5993   14.8803 C   0  0  0  0  0  0  0  0  0  0  0  0
   23.4416   44.1364   17.0937 C   0  0  0  0  0  0  0  0  0  0  0  0
   18.6901   47.3063   20.1931 O   0  0  0  0  0  0  0  0  0  0  0  0
   18.8351   47.0410   18.9978 C   0  0  0  0  0  0  0  0  0  0  0  0
   17.9197   47.3395   18.0841 O   0  0  0  0  0  0  0  0  0  0  0  0
   20.0569   46.3436   18.5158 C   0  0  1  0  0  0  0  0  0  0  0  0
   21.1242   46.4390   20.6535 O   0  0  0  0  0  0  0  0  0  0  0  0
   20.1727   45.9848   17.1616 C   0  0  0  0  0  0  0  0  0  0  0  0
   21.4199   45.1399   15.3529 C   0  0  0  0  0  0  0  0  0  0  0  0
   19.2077   46.3323   15.7882 S   0  0  0  0  0  0  0  0  0  0  0  0
   22.3699   44.9133   17.5891 C   0  0  0  0  0  0  0  0  0  0  0  0
   22.3163   45.3048   18.9357 C   0  0  0  0  0  0  0  0  0  0  0  0
   25.4389   43.9518   20.1353 F   0  0  0  0  0  0  0  0  0  0  0  0
   23.4017   43.6733   15.7692 N   0  0  0  0  0  0  0  0  0  0  0  0
   22.9437   42.3016   15.7118 C   0  0  0  0  0  0  0  0  0  0  0  0
   26.0778   41.7750   18.1554 C   0  0  0  0  0  0  0  0  0  0  0  0
   27.9766   42.1491   15.1782 O   0  0  0  0  0  0  0  0  0  0  0  0
   26.9827   41.1902   17.0840 C   0  0  2  0  0  0  0  0  0  0  0  0
   28.0123   40.2372   17.5404 N   0  0  0  0  0  0  0  0  0  0  0  0
   27.5008   39.0492   18.2478 C   0  0  0  0  0  0  0  0  0  0  0  0
   28.9850   39.8896   16.4931 C   0  0  0  0  0  0  0  0  0  0  0  0
  1  5  1  0  0  0  0
  2 17  1  0  0  0  0
  3  1  1  0  0  0  0
  4  3  1  0  0  0  0
  4 26  1  6  0  0  0
  5 11  2  0  0  0  0
  5  6  1  0  0  0  0
  6  7  2  0  0  0  0
  7 21  1  0  0  0  0
  8 15  1  0  0  0  0
  8 16  2  0  0  0  0
  9 19  1  0  0  0  0
 10 18  1  0  0  0  0
 11 20  1  0  0  0  0
 13 14  1  0  0  0  0
 13 12  2  0  0  0  0
 15 13  1  6  0  0  0
 17 19  2  0  0  0  0
 17 15  1  0  0  0  0
 18  2  1  0  0  0  0
 18  9  2  0  0  0  0
 20 21  2  0  0  0  0
 20  2  1  0  0  0  0
 21  8  1  0  0  0  0
 22  6  1  0  0  0  0
 23 11  1  0  0  0  0
 23 10  1  0  0  0  0
 24 23  1  0  0  0  0
 25  1  1  0  0  0  0
 27  4  1  0  0  0  0
 27 25  1  0  0  0  0
 27 28  1  1  0  0  0
 29 28  1  0  0  0  0
 30 28  1  0  0  0  0
M  END
>  <CHROM.1>
-99.80305521,1.03380363,-4.24575980,96.64485399,172.52572931,23.24377671
44.19041641,17.48996716,-0.18547064,-0.56979137,1.38689346

>  <Name>
lig.pdb

>  <RI>
0

>  <Rbt.Current_Directory>
/home/itssahil/PROJECTS/Mol_Feturizer/New_Systems/rnas/6bfb

>  <Rbt.Executable>
rbdock ($Id: //depot/dev/client3/rdock/2013.1/src/exe/rbdock.cxx#4 $)

>  <Rbt.Library>
libRbt.so (2013.1, Build901 2013/11/27)

>  <Rbt.Parameter_File>
/export/apps/rDock/src/rDock_2013.1_src/data/scripts/dock_solv.prm

>  <Rbt.Receptor>
prm/blind_docking_100.prm

>  <SCORE>
83.7018

>  <SCORE.INTER>
84.4866

>  <SCORE.INTER.CONST>
1

>  <SCORE.INTER.POLAR>
-1.13983

>  <SCORE.INTER.ROT>
3

>  <SCORE.INTER.SOLV>
26.7297

>  <SCORE.INTER.VDW>
45.6139

>  <SCORE.INTER.norm>
2.81622

>  <SCORE.INTRA>
-1.81911

>  <SCORE.INTRA.DIHEDRAL>
-2.98727

>  <SCORE.INTRA.DIHEDRAL.0>
9.41909

>  <SCORE.INTRA.POLAR>
0

>  <SCORE.INTRA.POLAR.0>
0

>  <SCORE.INTRA.REPUL>
0.0769746

>  <SCORE.INTRA.REPUL.0>
0

>  <SCORE.INTRA.SOLV>
-0.0771205

>  <SCORE.INTRA.SOLV.lig_0>
-26.2491

>  <SCORE.INTRA.VDW>
-0.671787

>  <SCORE.INTRA.VDW.0>
2.57239

>  <SCORE.INTRA.norm>
-0.060637

>  <SCORE.RESTR>
1.03434

>  <SCORE.RESTR.CAVITY>
1.03434

>  <SCORE.RESTR.norm>
0.034478

>  <SCORE.SYSTEM>
0

>  <SCORE.SYSTEM.CONST>
0

>  <SCORE.SYSTEM.DIHEDRAL>
0

>  <SCORE.SYSTEM.SOLV>
0

>  <SCORE.SYSTEM.norm>
0

>  <SCORE.heavy>
30

>  <SCORE.norm>
2.79006

>  <RMSD>
8.357

$$$$
lig.pdb
 OpenBabel11021811523D
libRbt.so/2013.1/901 2013/11/27
 30 34  0  0  0  0  0  0  0  0999 V2000
   27.9031   39.7854   21.7086 N   0  0  0  0  0  0  0  0  0  0  0  0
   24.5887   36.6417   19.8009 N   0  0  0  0  0  0  0  0  0  0  0  0
   27.7815   41.1577   21.2071 C   0  0  0  0  0  0  0  0  0  0  0  0
   28.0240   41.9708   22.4698 C   0  0  2  0  0  0  0  0  0  0  0  0
   27.5757   38.6534   20.8491 C   0  0  0  0  0  0  0  0  0  0  0  0
   28.5314   37.9491   20.0884 C   0  0  0  0  0  0  0  0  0  0  0  0
   28.2226   36.9017   19.2568 C   0  0  0  0  0  0  0  0  0  0  0  0
   26.5581   35.3803   18.1850 C   0  0  0  0  0  0  0  0  0  0  0  0
   22.4332   36.4902   20.4740 C   0  0  0  0  0  0  0  0  0  0  0  0
   24.0948   38.0129   21.7554 C   0  0  0  0  0  0  0  0  0  0  0  0
   26.2279   38.2099   20.7353 C   0  0  0  0  0  0  0  0  0  0  0  0
   24.8275   32.7743   17.4079 O   0  0  0  0  0  0  0  0  0  0  0  0
   24.6931   33.9696   17.1372 C   0  0  0  0  0  0  0  0  0  0  0  0
   24.1853   34.3878   15.9843 O   0  0  0  0  0  0  0  0  0  0  0  0
   25.1188   35.0204   18.0995 C   0  0  1  0  0  0  0  0  0  0  0  0
   27.4336   34.7851   17.5476 O   0  0  0  0  0  0  0  0  0  0  0  0
   24.1668   35.6455   18.9235 C   0  0  0  0  0  0  0  0  0  0  0  0
   23.6057   37.0932   20.6927 C   0  0  0  0  0  0  0  0  0  0  0  0
   22.5036   35.3401   19.2038 S   0  0  0  0  0  0  0  0  0  0  0  0
   25.9122   37.1172   19.8963 C   0  0  0  0  0  0  0  0  0  0  0  0
   26.8998   36.4776   19.1315 C   0  0  0  0  0  0  0  0  0  0  0  0
   29.8299   38.2959   20.1939 F   0  0  0  0  0  0  0  0  0  0  0  0
   25.1944   38.8908   21.3974 N   0  0  0  0  0  0  0  0  0  0  0  0
   24.8264   40.0960   20.6854 C   0  0  0  0  0  0  0  0  0  0  0  0
   27.7089   39.7255   23.1530 C   0  0  0  0  0  0  0  0  0  0  0  0
   29.1191   42.8740   22.3116 O   0  0  0  0  0  0  0  0  0  0  0  0
   28.4590   40.9853   23.5513 C   0  0  2  0  0  0  0  0  0  0  0  0
   28.1228   41.5635   24.8663 N   0  0  0  0  0  0  0  0  0  0  0  0
   28.9671   42.6951   25.2906 C   0  0  0  0  0  0  0  0  0  0  0  0
   26.6878   41.8450   25.0257 C   0  0  0  0  0  0  0  0  0  0  0  0
  1  5  1  0  0  0  0
  2 17  1  0  0  0  0
  3  1  1  0  0  0  0
  4  3  1  0  0  0  0
  4 26  1  6  0  0  0
  5 11  2  0  0  0  0
  5  6  1  0  0  0  0
  6  7  2  0  0  0  0
  7 21  1  0  0  0  0
  8 15  1  0  0  0  0
  8 16  2  0  0  0  0
  9 19  1  0  0  0  0
 10 18  1  0  0  0  0
 11 20  1  0  0  0  0
 13 14  1  0  0  0  0
 13 12  2  0  0  0  0
 15 13  1  1  0  0  0
 17 19  2  0  0  0  0
 17 15  1  0  0  0  0
 18  2  1  0  0  0  0
 18  9  2  0  0  0  0
 20 21  2  0  0  0  0
 20  2  1  0  0  0  0
 21  8  1  0  0  0  0
 22  6  1  0  0  0  0
 23 11  1  0  0  0  0
 23 10  1  0  0  0  0
 24 23  1  0  0  0  0
 25  1  1  0  0  0  0
 27  4  1  0  0  0  0
 27 25  1  0  0  0  0
 27 28  1  1  0  0  0
 29 28  1  0  0  0  0
 30 28  1  0  0  0  0
M  END
>  <CHROM.1>
94.71217799,178.01505894,79.87321134,-64.74273258,-72.21939604,26.24013493
37.96258666,20.52166889,-1.14748680,-0.21519062,-2.37615201

>  <Name>
lig.pdb

>  <RI>
0

>  <Rbt.Current_Directory>
/home/itssahil/PROJECTS/Mol_Feturizer/New_Systems/rnas/6bfb

>  <Rbt.Executable>
rbdock ($Id: //depot/dev/client3/rdock/2013.1/src/exe/rbdock.cxx#4 $)

>  <Rbt.Library>
libRbt.so (2013.1, Build901 2013/11/27)

>  <Rbt.Parameter_File>
/export/apps/rDock/src/rDock_2013.1_src/data/scripts/dock_solv.prm

>  <Rbt.Receptor>
prm/blind_docking_80.prm

>  <SCORE>
-33.6689

>  <SCORE.INTER>
-29.6533

>  <SCORE.INTER.CONST>
1

>  <SCORE.INTER.POLAR>
-1.40597

>  <SCORE.INTER.ROT>
3

>  <SCORE.INTER.SOLV>
12.299

>  <SCORE.INTER.VDW>
-24.782

>  <SCORE.INTER.norm>
-0.988442

>  <SCORE.INTRA>
-4.01567

>  <SCORE.INTRA.DIHEDRAL>
-7.50859

>  <SCORE.INTRA.DIHEDRAL.0>
9.41909

>  <SCORE.INTRA.POLAR>
0

>  <SCORE.INTRA.POLAR.0>
0

>  <SCORE.INTRA.REPUL>
0

>  <SCORE.INTRA.REPUL.0>
0

>  <SCORE.INTRA.SOLV>
0.0772375

>  <SCORE.INTRA.SOLV.lig_0>
-26.2491

>  <SCORE.INTRA.VDW>
-0.299989

>  <SCORE.INTRA.VDW.0>
2.57239

>  <SCORE.INTRA.norm>
-0.133856

>  <SCORE.RESTR>
0

>  <SCORE.RESTR.CAVITY>
0

>  <SCORE.RESTR.norm>
0

>  <SCORE.SYSTEM>
0

>  <SCORE.SYSTEM.CONST>
0

>  <SCORE.SYSTEM.DIHEDRAL>
0

>  <SCORE.SYSTEM.SOLV>
0

>  <SCORE.SYSTEM.norm>
0

>  <SCORE.heavy>
30

>  <SCORE.norm>
-1.1223

>  <RMSD>
8.359

$$$$
lig.pdb
 OpenBabel11021811523D
libRbt.so/2013.1/901 2013/11/27
 30 34  0  0  0  0  0  0  0  0999 V2000
   27.7890   39.8198   21.3516 N   0  0  0  0  0  0  0  0  0  0  0  0
   24.5005   36.4860   19.7457 N   0  0  0  0  0  0  0  0  0  0  0  0
   27.8500   41.0970   20.6344 C   0  0  0  0  0  0  0  0  0  0  0  0
   27.9998   42.0876   21.7792 C   0  0  2  0  0  0  0  0  0  0  0  0
   27.4769   38.5865   20.6382 C   0  0  0  0  0  0  0  0  0  0  0  0
   28.4499   37.7759   20.0184 C   0  0  0  0  0  0  0  0  0  0  0  0
   28.1568   36.6300   19.3221 C   0  0  0  0  0  0  0  0  0  0  0  0
   26.5108   34.9974   18.3953 C   0  0  0  0  0  0  0  0  0  0  0  0
   22.3179   36.4503   20.3436 C   0  0  0  0  0  0  0  0  0  0  0  0
   23.9529   38.1123   21.4776 C   0  0  0  0  0  0  0  0  0  0  0  0
   26.1275   38.1469   20.5292 C   0  0  0  0  0  0  0  0  0  0  0  0
   25.2096   32.3830   17.6133 O   0  0  0  0  0  0  0  0  0  0  0  0
   24.6652   33.4798   17.4693 C   0  0  0  0  0  0  0  0  0  0  0  0
   23.7128   33.6914   16.5692 O   0  0  0  0  0  0  0  0  0  0  0  0
   25.0702   34.6454   18.2993 C   0  0  1  0  0  0  0  0  0  0  0  0
   27.4006   34.3123   17.8797 O   0  0  0  0  0  0  0  0  0  0  0  0
   24.0970   35.3859   18.9926 C   0  0  0  0  0  0  0  0  0  0  0  0
   23.4907   37.0640   20.5279 C   0  0  0  0  0  0  0  0  0  0  0  0
   22.4191   35.1394   19.2424 S   0  0  0  0  0  0  0  0  0  0  0  0
   25.8269   36.9552   19.8313 C   0  0  0  0  0  0  0  0  0  0  0  0
   26.8331   36.2077   19.2001 C   0  0  0  0  0  0  0  0  0  0  0  0
   29.7489   38.1191   20.1301 F   0  0  0  0  0  0  0  0  0  0  0  0
   25.0801   38.9220   21.0512 N   0  0  0  0  0  0  0  0  0  0  0  0
   24.7605   40.0248   20.1701 C   0  0  0  0  0  0  0  0  0  0  0  0
   27.4093   40.0086   22.7472 C   0  0  0  0  0  0  0  0  0  0  0  0
   29.1796   42.8801   21.6381 O   0  0  0  0  0  0  0  0  0  0  0  0
   28.2084   41.2653   23.0483 C   0  0  2  0  0  0  0  0  0  0  0  0
   27.7596   42.0705   24.2002 N   0  0  0  0  0  0  0  0  0  0  0  0
   27.3998   41.3000   25.4045 C   0  0  0  0  0  0  0  0  0  0  0  0
   28.6548   43.1977   24.5033 C   0  0  0  0  0  0  0  0  0  0  0  0
  1  5  1  0  0  0  0
  2 17  1  0  0  0  0
  3  1  1  0  0  0  0
  4  3  1  0  0  0  0
  4 26  1  6  0  0  0
  5 11  2  0  0  0  0
  5  6  1  0  0  0  0
  6  7  2  0  0  0  0
  7 21  1  0  0  0  0
  8 15  1  0  0  0  0
  8 16  2  0  0  0  0
  9 19  1  0  0  0  0
 10 18  1  0  0  0  0
 11 20  1  0  0  0  0
 13 14  1  0  0  0  0
 13 12  2  0  0  0  0
 15 13  1  1  0  0  0
 17 19  2  0  0  0  0
 17 15  1  0  0  0  0
 18  2  1  0  0  0  0
 18  9  2  0  0  0  0
 20 21  2  0  0  0  0
 20  2  1  0  0  0  0
 21  8  1  0  0  0  0
 22  6  1  0  0  0  0
 23 11  1  0  0  0  0
 23 10  1  0  0  0  0
 24 23  1  0  0  0  0
 25  1  1  0  0  0  0
 27  4  1  0  0  0  0
 27 25  1  0  0  0  0
 27 28  1  1  0  0  0
 29 28  1  0  0  0  0
 30 28  1  0  0  0  0
M  END
>  <CHROM.1>
88.15407021,24.18318684,50.92097652,-67.01184664,157.52165166,26.16921441
37.83532627,20.38661689,-1.14686183,-0.18890147,-2.48517517

>  <Name>
lig.pdb

>  <RI>
0

>  <Rbt.Current_Directory>
/home/itssahil/PROJECTS/Mol_Feturizer/New_Systems/rnas/6bfb

>  <Rbt.Executable>
rbdock ($Id: //depot/dev/client3/rdock/2013.1/src/exe/rbdock.cxx#4 $)

>  <Rbt.Library>
libRbt.so (2013.1, Build901 2013/11/27)

>  <Rbt.Parameter_File>
/export/apps/rDock/src/rDock_2013.1_src/data/scripts/dock_solv.prm

>  <Rbt.Receptor>
prm/blind_docking_100.prm

>  <SCORE>
-31.9301

>  <SCORE.INTER>
-28.5766

>  <SCORE.INTER.CONST>
1

>  <SCORE.INTER.POLAR>
-1.67346

>  <SCORE.INTER.ROT>
3

>  <SCORE.INTER.SOLV>
13.1779

>  <SCORE.INTER.VDW>
-23.4655

>  <SCORE.INTER.norm>
-0.952555

>  <SCORE.INTRA>
-3.35343

>  <SCORE.INTRA.DIHEDRAL>
-3.33159

>  <SCORE.INTRA.DIHEDRAL.0>
9.41909

>  <SCORE.INTRA.POLAR>
0

>  <SCORE.INTRA.POLAR.0>
0

>  <SCORE.INTRA.REPUL>
0

>  <SCORE.INTRA.REPUL.0>
0

>  <SCORE.INTRA.SOLV>
-0.0141069

>  <SCORE.INTRA.SOLV.lig_0>
-26.2491

>  <SCORE.INTRA.VDW>
-1.68058

>  <SCORE.INTRA.VDW.0>
2.57239

>  <SCORE.INTRA.norm>
-0.111781

>  <SCORE.RESTR>
0

>  <SCORE.RESTR.CAVITY>
0

>  <SCORE.RESTR.norm>
0

>  <SCORE.SYSTEM>
0

>  <SCORE.SYSTEM.CONST>
0

>  <SCORE.SYSTEM.DIHEDRAL>
0

>  <SCORE.SYSTEM.SOLV>
0

>  <SCORE.SYSTEM.norm>
0

>  <SCORE.heavy>
30

>  <SCORE.norm>
-1.06434

>  <RMSD>
8.375

$$$$
lig.pdb
 OpenBabel11021811523D
libRbt.so/2013.1/901 2013/11/27
 30 34  0  0  0  0  0  0  0  0999 V2000
   26.5964   42.6231   26.4607 N   0  0  0  0  0  0  0  0  0  0  0  0
   25.0343   39.3188   23.1218 N   0  0  0  0  0  0  0  0  0  0  0  0
   27.2781   43.9210   26.4816 C   0  0  0  0  0  0  0  0  0  0  0  0
   26.5457   44.6367   27.6066 C   0  0  2  0  0  0  0  0  0  0  0  0
   26.8754   41.6595   25.4020 C   0  0  0  0  0  0  0  0  0  0  0  0
   28.1738   41.3616   24.9402 C   0  0  0  0  0  0  0  0  0  0  0  0
   28.4377   40.4766   23.9249 C   0  0  0  0  0  0  0  0  0  0  0  0
   27.6721   38.8962   22.1500 C   0  0  0  0  0  0  0  0  0  0  0  0
   22.9076   38.5592   22.9707 C   0  0  0  0  0  0  0  0  0  0  0  0
   23.6064   40.0949   24.9391 C   0  0  0  0  0  0  0  0  0  0  0  0
   25.8059   40.9678   24.7664 C   0  0  0  0  0  0  0  0  0  0  0  0
   26.4654   37.7821   19.1996 O   0  0  0  0  0  0  0  0  0  0  0  0
   26.6856   37.3723   20.3414 C   0  0  0  0  0  0  0  0  0  0  0  0
   27.0895   36.1323   20.5894 O   0  0  0  0  0  0  0  0  0  0  0  0
   26.4874   38.2580   21.5194 C   0  0  1  0  0  0  0  0  0  0  0  0
   28.8295   38.6581   21.7886 O   0  0  0  0  0  0  0  0  0  0  0  0
   25.1949   38.4677   22.0309 C   0  0  0  0  0  0  0  0  0  0  0  0
   23.7411   39.3418   23.6628 C   0  0  0  0  0  0  0  0  0  0  0  0
   23.6794   37.7535   21.6682 S   0  0  0  0  0  0  0  0  0  0  0  0
   26.0783   40.0397   23.7359 C   0  0  0  0  0  0  0  0  0  0  0  0
   27.3892   39.8112   23.2899 C   0  0  0  0  0  0  0  0  0  0  0  0
   29.2278   41.9523   25.5382 F   0  0  0  0  0  0  0  0  0  0  0  0
   24.4731   41.2477   25.1064 N   0  0  0  0  0  0  0  0  0  0  0  0
   24.0204   42.4679   24.4732 C   0  0  0  0  0  0  0  0  0  0  0  0
   25.2852   42.6983   27.0951 C   0  0  0  0  0  0  0  0  0  0  0  0
   27.4441   45.0618   28.6323 O   0  0  0  0  0  0  0  0  0  0  0  0
   25.6326   43.6050   28.2639 C   0  0  2  0  0  0  0  0  0  0  0  0
   24.5090   44.3196   28.8992 N   0  0  0  0  0  0  0  0  0  0  0  0
   24.8495   45.0638   30.1254 C   0  0  0  0  0  0  0  0  0  0  0  0
   23.7274   45.1291   27.9518 C   0  0  0  0  0  0  0  0  0  0  0  0
  1  5  1  0  0  0  0
  2 17  1  0  0  0  0
  3  1  1  0  0  0  0
  4  3  1  0  0  0  0
  4 26  1  1  0  0  0
  5 11  2  0  0  0  0
  5  6  1  0  0  0  0
  6  7  2  0  0  0  0
  7 21  1  0  0  0  0
  8 15  1  0  0  0  0
  8 16  2  0  0  0  0
  9 19  1  0  0  0  0
 10 18  1  0  0  0  0
 11 20  1  0  0  0  0
 13 14  1  0  0  0  0
 13 12  2  0  0  0  0
 15 13  1  1  0  0  0
 17 19  2  0  0  0  0
 17 15  1  0  0  0  0
 18  2  1  0  0  0  0
 18  9  2  0  0  0  0
 20 21  2  0  0  0  0
 20  2  1  0  0  0  0
 21  8  1  0  0  0  0
 22  6  1  0  0  0  0
 23 11  1  0  0  0  0
 23 10  1  0  0  0  0
 24 23  1  0  0  0  0
 25  1  1  0  0  0  0
 27  4  1  0  0  0  0
 27 25  1  0  0  0  0
 27 28  1  6  0  0  0
 29 28  1  0  0  0  0
 30 28  1  0  0  0  0
M  END
>  <CHROM.1>
43.99265110,-174.38691424,-101.06014519,53.51958375,-72.72498791,25.93705685
40.84325344,24.47856317,-1.59029465,-0.10105409,-2.32702927

>  <Name>
lig.pdb

>  <RI>
0

>  <Rbt.Current_Directory>
/home/itssahil/PROJECTS/Mol_Feturizer/New_Systems/rnas/6bfb

>  <Rbt.Executable>
rbdock ($Id: //depot/dev/client3/rdock/2013.1/src/exe/rbdock.cxx#4 $)

>  <Rbt.Library>
libRbt.so (2013.1, Build901 2013/11/27)

>  <Rbt.Parameter_File>
/export/apps/rDock/src/rDock_2013.1_src/data/scripts/dock_solv.prm

>  <Rbt.Receptor>
prm/pocket_docking_8.prm

>  <SCORE>
-40.7743

>  <SCORE.INTER>
-41.1385

>  <SCORE.INTER.CONST>
1

>  <SCORE.INTER.POLAR>
-1.92439

>  <SCORE.INTER.ROT>
3

>  <SCORE.INTER.SOLV>
16.2165

>  <SCORE.INTER.VDW>
-32.0165

>  <SCORE.INTER.norm>
-1.37128

>  <SCORE.INTRA>
0.364211

>  <SCORE.INTRA.DIHEDRAL>
-7.27929

>  <SCORE.INTRA.DIHEDRAL.0>
9.41909

>  <SCORE.INTRA.POLAR>
0

>  <SCORE.INTRA.POLAR.0>
0

>  <SCORE.INTRA.REPUL>
0

>  <SCORE.INTRA.REPUL.0>
0

>  <SCORE.INTRA.SOLV>
0.0883264

>  <SCORE.INTRA.SOLV.lig_0>
-26.2491

>  <SCORE.INTRA.VDW>
3.95969

>  <SCORE.INTRA.VDW.0>
2.57239

>  <SCORE.INTRA.norm>
0.0121404

>  <SCORE.RESTR>
0

>  <SCORE.RESTR.CAVITY>
0

>  <SCORE.RESTR.norm>
0

>  <SCORE.SYSTEM>
0

>  <SCORE.SYSTEM.CONST>
0

>  <SCORE.SYSTEM.DIHEDRAL>
0

>  <SCORE.SYSTEM.SOLV>
0

>  <SCORE.SYSTEM.norm>
0

>  <SCORE.heavy>
30

>  <SCORE.norm>
-1.35914

>  <RMSD>
8.383

$$$$
lig.pdb
 OpenBabel11021811523D
libRbt.so/2013.1/901 2013/11/27
 30 34  0  0  0  0  0  0  0  0999 V2000
   27.9787   39.6391   21.4619 N   0  0  0  0  0  0  0  0  0  0  0  0
   24.5654   36.5274   19.6802 N   0  0  0  0  0  0  0  0  0  0  0  0
   27.7811   41.0094   20.9796 C   0  0  0  0  0  0  0  0  0  0  0  0
   28.1057   41.8243   22.2226 C   0  0  2  0  0  0  0  0  0  0  0  0
   27.6109   38.5018   20.6259 C   0  0  0  0  0  0  0  0  0  0  0  0
   28.5351   37.7719   19.8507 C   0  0  0  0  0  0  0  0  0  0  0  0
   28.1880   36.7194   19.0410 C   0  0  0  0  0  0  0  0  0  0  0  0
   26.4719   35.2126   18.0319 C   0  0  0  0  0  0  0  0  0  0  0  0
   22.4255   36.4208   20.4097 C   0  0  0  0  0  0  0  0  0  0  0  0
   24.1442   37.9315   21.6283 C   0  0  0  0  0  0  0  0  0  0  0  0
   26.2536   38.0796   20.5521 C   0  0  0  0  0  0  0  0  0  0  0  0
   23.7935   34.0935   16.1222 O   0  0  0  0  0  0  0  0  0  0  0  0
   24.5577   33.8201   17.0503 C   0  0  0  0  0  0  0  0  0  0  0  0
   24.9906   32.5862   17.2788 O   0  0  0  0  0  0  0  0  0  0  0  0
   25.0252   34.8758   17.9875 C   0  0  1  0  0  0  0  0  0  0  0  0
   27.3209   34.5946   17.3804 O   0  0  0  0  0  0  0  0  0  0  0  0
   24.1049   35.5273   18.8270 C   0  0  0  0  0  0  0  0  0  0  0  0
   23.6130   37.0067   20.5906 C   0  0  0  0  0  0  0  0  0  0  0  0
   22.4445   35.2534   19.1534 S   0  0  0  0  0  0  0  0  0  0  0  0
   25.8985   36.9818   19.7359 C   0  0  0  0  0  0  0  0  0  0  0  0
   26.8557   36.3159   18.9549 C   0  0  0  0  0  0  0  0  0  0  0  0
   29.8414   38.0981   19.9187 F   0  0  0  0  0  0  0  0  0  0  0  0
   25.2486   38.7862   21.2311 N   0  0  0  0  0  0  0  0  0  0  0  0
   24.8824   39.9882   20.5128 C   0  0  0  0  0  0  0  0  0  0  0  0
   27.9056   39.5692   22.9169 C   0  0  0  0  0  0  0  0  0  0  0  0
   29.1604   42.7562   21.9799 O   0  0  0  0  0  0  0  0  0  0  0  0
   28.6533   40.8468   23.2593 C   0  0  2  0  0  0  0  0  0  0  0  0
   28.4117   41.4116   24.6006 N   0  0  0  0  0  0  0  0  0  0  0  0
   29.2660   42.5567   24.9645 C   0  0  0  0  0  0  0  0  0  0  0  0
   26.9889   41.6651   24.8749 C   0  0  0  0  0  0  0  0  0  0  0  0
  1  5  1  0  0  0  0
  2 17  1  0  0  0  0
  3  1  1  0  0  0  0
  4  3  1  0  0  0  0
  4 26  1  6  0  0  0
  5 11  2  0  0  0  0
  5  6  1  0  0  0  0
  6  7  2  0  0  0  0
  7 21  1  0  0  0  0
  8 15  1  0  0  0  0
  8 16  2  0  0  0  0
  9 19  1  0  0  0  0
 10 18  1  0  0  0  0
 11 20  1  0  0  0  0
 13 14  1  0  0  0  0
 13 12  2  0  0  0  0
 15 13  1  1  0  0  0
 17 19  2  0  0  0  0
 17 15  1  0  0  0  0
 18  2  1  0  0  0  0
 18  9  2  0  0  0  0
 20 21  2  0  0  0  0
 20  2  1  0  0  0  0
 21  8  1  0  0  0  0
 22  6  1  0  0  0  0
 23 11  1  0  0  0  0
 23 10  1  0  0  0  0
 24 23  1  0  0  0  0
 25  1  1  0  0  0  0
 27  4  1  0  0  0  0
 27 25  1  0  0  0  0
 27 28  1  1  0  0  0
 29 28  1  0  0  0  0
 30 28  1  0  0  0  0
M  END
>  <CHROM.1>
98.90349311,1.51177902,-115.81960889,63.22978793,-72.67877139,26.26407222
37.81299646,20.35246054,-1.12028336,-0.20852794,-2.39431072

>  <Name>
lig.pdb

>  <RI>
0

>  <Rbt.Current_Directory>
/home/itssahil/PROJECTS/Mol_Feturizer/New_Systems/rnas/6bfb

>  <Rbt.Executable>
rbdock ($Id: //depot/dev/client3/rdock/2013.1/src/exe/rbdock.cxx#4 $)

>  <Rbt.Library>
libRbt.so (2013.1, Build901 2013/11/27)

>  <Rbt.Parameter_File>
/export/apps/rDock/src/rDock_2013.1_src/data/scripts/dock_solv.prm

>  <Rbt.Receptor>
prm/blind_docking_80.prm

>  <SCORE>
-33.6877

>  <SCORE.INTER>
-29.1094

>  <SCORE.INTER.CONST>
1

>  <SCORE.INTER.POLAR>
-0.944606

>  <SCORE.INTER.ROT>
3

>  <SCORE.INTER.SOLV>
12.6005

>  <SCORE.INTER.VDW>
-26.0577

>  <SCORE.INTER.norm>
-0.970312

>  <SCORE.INTRA>
-4.57833

>  <SCORE.INTRA.DIHEDRAL>
-7.60366

>  <SCORE.INTRA.DIHEDRAL.0>
9.41909

>  <SCORE.INTRA.POLAR>
0

>  <SCORE.INTRA.POLAR.0>
0

>  <SCORE.INTRA.REPUL>
0

>  <SCORE.INTRA.REPUL.0>
0

>  <SCORE.INTRA.SOLV>
0.118301

>  <SCORE.INTRA.SOLV.lig_0>
-26.2491

>  <SCORE.INTRA.VDW>
-0.835652

>  <SCORE.INTRA.VDW.0>
2.57239

>  <SCORE.INTRA.norm>
-0.152611

>  <SCORE.RESTR>
0

>  <SCORE.RESTR.CAVITY>
0

>  <SCORE.RESTR.norm>
0

>  <SCORE.SYSTEM>
0

>  <SCORE.SYSTEM.CONST>
0

>  <SCORE.SYSTEM.DIHEDRAL>
0

>  <SCORE.SYSTEM.SOLV>
0

>  <SCORE.SYSTEM.norm>
0

>  <SCORE.heavy>
30

>  <SCORE.norm>
-1.12292

>  <RMSD>
8.418

$$$$
lig.pdb
 OpenBabel11021811523D
libRbt.so/2013.1/901 2013/11/27
 30 34  0  0  0  0  0  0  0  0999 V2000
   27.9564   39.6317   21.4685 N   0  0  0  0  0  0  0  0  0  0  0  0
   24.5501   36.5244   19.6659 N   0  0  0  0  0  0  0  0  0  0  0  0
   27.7620   40.9997   20.9782 C   0  0  0  0  0  0  0  0  0  0  0  0
   28.0793   41.8207   22.2191 C   0  0  2  0  0  0  0  0  0  0  0  0
   27.5934   38.4904   20.6359 C   0  0  0  0  0  0  0  0  0  0  0  0
   28.5235   37.7506   19.8774 C   0  0  0  0  0  0  0  0  0  0  0  0
   28.1813   36.6940   19.0709 C   0  0  0  0  0  0  0  0  0  0  0  0
   26.4705   35.1886   18.0508 C   0  0  0  0  0  0  0  0  0  0  0  0
   22.4007   36.4335   20.3691 C   0  0  0  0  0  0  0  0  0  0  0  0
   24.1115   37.9443   21.5987 C   0  0  0  0  0  0  0  0  0  0  0  0
   26.2349   38.0744   20.5481 C   0  0  0  0  0  0  0  0  0  0  0  0
   23.6933   34.0350   16.2123 O   0  0  0  0  0  0  0  0  0  0  0  0
   24.5617   33.7987   17.0550 C   0  0  0  0  0  0  0  0  0  0  0  0
   25.1183   32.6012   17.1903 O   0  0  0  0  0  0  0  0  0  0  0  0
   25.0227   34.8587   17.9906 C   0  0  1  0  0  0  0  0  0  0  0  0
   27.3244   34.5619   17.4144 O   0  0  0  0  0  0  0  0  0  0  0  0
   24.0953   35.5207   18.8140 C   0  0  0  0  0  0  0  0  0  0  0  0
   23.5888   37.0148   20.5609 C   0  0  0  0  0  0  0  0  0  0  0  0
   22.4296   35.2572   19.1214 S   0  0  0  0  0  0  0  0  0  0  0  0
   25.8847   36.9726   19.7351 C   0  0  0  0  0  0  0  0  0  0  0  0
   26.8482   36.2966   18.9708 C   0  0  0  0  0  0  0  0  0  0  0  0
   29.8305   38.0708   19.9595 F   0  0  0  0  0  0  0  0  0  0  0  0
   25.2251   38.7907   21.2094 N   0  0  0  0  0  0  0  0  0  0  0  0
   24.8740   39.9894   20.4782 C   0  0  0  0  0  0  0  0  0  0  0  0
   27.8744   39.5691   22.9234 C   0  0  0  0  0  0  0  0  0  0  0  0
   29.1357   42.7511   21.9783 O   0  0  0  0  0  0  0  0  0  0  0  0
   28.6204   40.8482   23.2639 C   0  0  2  0  0  0  0  0  0  0  0  0
   28.3707   41.4197   24.6010 N   0  0  0  0  0  0  0  0  0  0  0  0
   29.2320   42.5580   24.9696 C   0  0  0  0  0  0  0  0  0  0  0  0
   26.9477   41.6872   24.8603 C   0  0  0  0  0  0  0  0  0  0  0  0
  1  5  1  0  0  0  0
  2 17  1  0  0  0  0
  3  1  1  0  0  0  0
  4  3  1  0  0  0  0
  4 26  1  6  0  0  0
  5 11  2  0  0  0  0
  5  6  1  0  0  0  0
  6  7  2  0  0  0  0
  7 21  1  0  0  0  0
  8 15  1  0  0  0  0
  8 16  2  0  0  0  0
  9 19  1  0  0  0  0
 10 18  1  0  0  0  0
 11 20  1  0  0  0  0
 13 14  1  0  0  0  0
 13 12  2  0  0  0  0
 15 13  1  1  0  0  0
 17 19  2  0  0  0  0
 17 15  1  0  0  0  0
 18  2  1  0  0  0  0
 18  9  2  0  0  0  0
 20 21  2  0  0  0  0
 20  2  1  0  0  0  0
 21  8  1  0  0  0  0
 22  6  1  0  0  0  0
 23 11  1  0  0  0  0
 23 10  1  0  0  0  0
 24 23  1  0  0  0  0
 25  1  1  0  0  0  0
 27  4  1  0  0  0  0
 27 25  1  0  0  0  0
 27 28  1  1  0  0  0
 29 28  1  0  0  0  0
 30 28  1  0  0  0  0
M  END
>  <CHROM.1>
99.37640652,-4.28564774,-124.26138742,-68.36020448,-73.24612512,26.25103030
37.80330722,20.35173340,-1.12400988,-0.19134457,-2.40235717

>  <Name>
lig.pdb

>  <RI>
0

>  <Rbt.Current_Directory>
/home/itssahil/PROJECTS/Mol_Feturizer/New_Systems/rnas/6bfb

>  <Rbt.Executable>
rbdock ($Id: //depot/dev/client3/rdock/2013.1/src/exe/rbdock.cxx#4 $)

>  <Rbt.Library>
libRbt.so (2013.1, Build901 2013/11/27)

>  <Rbt.Parameter_File>
/export/apps/rDock/src/rDock_2013.1_src/data/scripts/dock_solv.prm

>  <Rbt.Receptor>
prm/pocket_docking_5.prm

>  <SCORE>
-36.1566

>  <SCORE.INTER>
-32.4007

>  <SCORE.INTER.CONST>
1

>  <SCORE.INTER.POLAR>
-1.76899

>  <SCORE.INTER.ROT>
3

>  <SCORE.INTER.SOLV>
12.5258

>  <SCORE.INTER.VDW>
-25.4791

>  <SCORE.INTER.norm>
-1.08002

>  <SCORE.INTRA>
-3.75595

>  <SCORE.INTRA.DIHEDRAL>
-7.15524

>  <SCORE.INTRA.DIHEDRAL.0>
9.41909

>  <SCORE.INTRA.POLAR>
0

>  <SCORE.INTRA.POLAR.0>
0

>  <SCORE.INTRA.REPUL>
0

>  <SCORE.INTRA.REPUL.0>
0

>  <SCORE.INTRA.SOLV>
0.158482

>  <SCORE.INTRA.SOLV.lig_0>
-26.2491

>  <SCORE.INTRA.VDW>
-0.257569

>  <SCORE.INTRA.VDW.0>
2.57239

>  <SCORE.INTRA.norm>
-0.125198

>  <SCORE.RESTR>
0

>  <SCORE.RESTR.CAVITY>
0

>  <SCORE.RESTR.norm>
0

>  <SCORE.SYSTEM>
0

>  <SCORE.SYSTEM.CONST>
0

>  <SCORE.SYSTEM.DIHEDRAL>
0

>  <SCORE.SYSTEM.SOLV>
0

>  <SCORE.SYSTEM.norm>
0

>  <SCORE.heavy>
30

>  <SCORE.norm>
-1.20522

>  <RMSD>
8.422

$$$$
lig.pdb
 OpenBabel11021811523D
libRbt.so/2013.1/901 2013/11/27
 30 34  0  0  0  0  0  0  0  0999 V2000
   27.8806   39.7472   21.3454 N   0  0  0  0  0  0  0  0  0  0  0  0
   24.6394   36.4578   19.5617 N   0  0  0  0  0  0  0  0  0  0  0  0
   27.8338   41.0798   20.7358 C   0  0  0  0  0  0  0  0  0  0  0  0
   28.0088   41.9808   21.9490 C   0  0  2  0  0  0  0  0  0  0  0  0
   27.5833   38.5608   20.5506 C   0  0  0  0  0  0  0  0  0  0  0  0
   28.5626   37.8206   19.8571 C   0  0  0  0  0  0  0  0  0  0  0  0
   28.2826   36.7207   19.0854 C   0  0  0  0  0  0  0  0  0  0  0  0
   26.6570   35.1189   18.0726 C   0  0  0  0  0  0  0  0  0  0  0  0
   22.4701   36.3263   20.1937 C   0  0  0  0  0  0  0  0  0  0  0  0
   24.0879   37.9422   21.4154 C   0  0  0  0  0  0  0  0  0  0  0  0
   26.2425   38.0975   20.4339 C   0  0  0  0  0  0  0  0  0  0  0  0
   23.9325   33.7780   16.2397 O   0  0  0  0  0  0  0  0  0  0  0  0
   24.8293   33.6270   17.0722 C   0  0  0  0  0  0  0  0  0  0  0  0
   25.4768   32.4782   17.2237 O   0  0  0  0  0  0  0  0  0  0  0  0
   25.2233   34.7397   17.9768 C   0  0  1  0  0  0  0  0  0  0  0  0
   27.5522   34.4943   17.4935 O   0  0  0  0  0  0  0  0  0  0  0  0
   24.2468   35.4049   18.7385 C   0  0  0  0  0  0  0  0  0  0  0  0
   23.6318   36.9536   20.4011 C   0  0  0  0  0  0  0  0  0  0  0  0
   22.5802   35.1005   18.9993 S   0  0  0  0  0  0  0  0  0  0  0  0
   25.9560   36.9518   19.6575 C   0  0  0  0  0  0  0  0  0  0  0  0
   26.9668   36.2761   18.9566 C   0  0  0  0  0  0  0  0  0  0  0  0
   29.8552   38.1864   19.9704 F   0  0  0  0  0  0  0  0  0  0  0  0
   25.1878   38.8075   21.0287 N   0  0  0  0  0  0  0  0  0  0  0  0
   24.8260   39.9625   20.2350 C   0  0  0  0  0  0  0  0  0  0  0  0
   27.5825   39.8017   22.7721 C   0  0  0  0  0  0  0  0  0  0  0  0
   29.1374   42.8441   21.8047 O   0  0  0  0  0  0  0  0  0  0  0  0
   28.3377   41.0708   23.1296 C   0  0  2  0  0  0  0  0  0  0  0  0
   27.9253   41.7548   24.3700 N   0  0  0  0  0  0  0  0  0  0  0  0
   26.4693   41.8650   24.5735 C   0  0  0  0  0  0  0  0  0  0  0  0
   28.6217   41.2560   25.5658 C   0  0  0  0  0  0  0  0  0  0  0  0
  1  5  1  0  0  0  0
  2 17  1  0  0  0  0
  3  1  1  0  0  0  0
  4  3  1  0  0  0  0
  4 26  1  6  0  0  0
  5 11  2  0  0  0  0
  5  6  1  0  0  0  0
  6  7  2  0  0  0  0
  7 21  1  0  0  0  0
  8 15  1  0  0  0  0
  8 16  2  0  0  0  0
  9 19  1  0  0  0  0
 10 18  1  0  0  0  0
 11 20  1  0  0  0  0
 13 14  1  0  0  0  0
 13 12  2  0  0  0  0
 15 13  1  1  0  0  0
 17 19  2  0  0  0  0
 17 15  1  0  0  0  0
 18  2  1  0  0  0  0
 18  9  2  0  0  0  0
 20 21  2  0  0  0  0
 20  2  1  0  0  0  0
 21  8  1  0  0  0  0
 22  6  1  0  0  0  0
 23 11  1  0  0  0  0
 23 10  1  0  0  0  0
 24 23  1  0  0  0  0
 25  1  1  0  0  0  0
 27  4  1  0  0  0  0
 27 25  1  0  0  0  0
 27 28  1  1  0  0  0
 29 28  1  0  0  0  0
 30 28  1  0  0  0  0
M  END
>  <CHROM.1>
91.17037865,2.93288590,-128.29911388,-66.68641053,70.65740610,26.25717414
37.76386425,20.27330545,-1.17285739,-0.20130248,-2.42328489

>  <Name>
lig.pdb

>  <RI>
0

>  <Rbt.Current_Directory>
/home/itssahil/PROJECTS/Mol_Feturizer/New_Systems/rnas/6bfb

>  <Rbt.Executable>
rbdock ($Id: //depot/dev/client3/rdock/2013.1/src/exe/rbdock.cxx#4 $)

>  <Rbt.Library>
libRbt.so (2013.1, Build901 2013/11/27)

>  <Rbt.Parameter_File>
/export/apps/rDock/src/rDock_2013.1_src/data/scripts/dock_solv.prm

>  <Rbt.Receptor>
prm/blind_docking_100.prm

>  <SCORE>
-33.8982

>  <SCORE.INTER>
-28.3252

>  <SCORE.INTER.CONST>
1

>  <SCORE.INTER.POLAR>
-1.7923

>  <SCORE.INTER.ROT>
3

>  <SCORE.INTER.SOLV>
12.1879

>  <SCORE.INTER.VDW>
-22.5718

>  <SCORE.INTER.norm>
-0.944174

>  <SCORE.INTRA>
-5.57292

>  <SCORE.INTRA.DIHEDRAL>
-7.08656

>  <SCORE.INTRA.DIHEDRAL.0>
9.41909

>  <SCORE.INTRA.POLAR>
0

>  <SCORE.INTRA.POLAR.0>
0

>  <SCORE.INTRA.REPUL>
0

>  <SCORE.INTRA.REPUL.0>
0

>  <SCORE.INTRA.SOLV>
-0.108504

>  <SCORE.INTRA.SOLV.lig_0>
-26.2491

>  <SCORE.INTRA.VDW>
-1.97539

>  <SCORE.INTRA.VDW.0>
2.57239

>  <SCORE.INTRA.norm>
-0.185764

>  <SCORE.RESTR>
0

>  <SCORE.RESTR.CAVITY>
0

>  <SCORE.RESTR.norm>
0

>  <SCORE.SYSTEM>
0

>  <SCORE.SYSTEM.CONST>
0

>  <SCORE.SYSTEM.DIHEDRAL>
0

>  <SCORE.SYSTEM.SOLV>
0

>  <SCORE.SYSTEM.norm>
0

>  <SCORE.heavy>
30

>  <SCORE.norm>
-1.12994

>  <RMSD>
8.446

$$$$
lig.pdb
 OpenBabel11021811523D
libRbt.so/2013.1/901 2013/11/27
 30 34  0  0  0  0  0  0  0  0999 V2000
   27.9350   39.6258   21.6178 N   0  0  0  0  0  0  0  0  0  0  0  0
   24.6443   36.5226   19.6055 N   0  0  0  0  0  0  0  0  0  0  0  0
   27.7779   41.0138   21.1727 C   0  0  0  0  0  0  0  0  0  0  0  0
   28.0251   41.7819   22.4623 C   0  0  2  0  0  0  0  0  0  0  0  0
   27.6159   38.5217   20.7197 C   0  0  0  0  0  0  0  0  0  0  0  0
   28.5763   37.8524   19.9339 C   0  0  0  0  0  0  0  0  0  0  0  0
   28.2751   36.8321   19.0666 C   0  0  0  0  0  0  0  0  0  0  0  0
   26.6220   35.3350   17.9444 C   0  0  0  0  0  0  0  0  0  0  0  0
   22.4911   36.3296   20.2754 C   0  0  0  0  0  0  0  0  0  0  0  0
   24.1417   37.8206   21.6071 C   0  0  0  0  0  0  0  0  0  0  0  0
   26.2717   38.0711   20.5921 C   0  0  0  0  0  0  0  0  0  0  0  0
   24.8090   34.1903   15.6424 O   0  0  0  0  0  0  0  0  0  0  0  0
   24.7673   33.9459   16.8501 C   0  0  0  0  0  0  0  0  0  0  0  0
   24.3381   32.7847   17.3292 O   0  0  0  0  0  0  0  0  0  0  0  0
   25.1856   34.9661   17.8480 C   0  0  1  0  0  0  0  0  0  0  0  0
   27.5014   34.7697   17.2856 O   0  0  0  0  0  0  0  0  0  0  0  0
   24.2296   35.5541   18.6944 C   0  0  0  0  0  0  0  0  0  0  0  0
   23.6588   36.9344   20.5136 C   0  0  0  0  0  0  0  0  0  0  0  0
   22.5693   35.2250   18.9658 S   0  0  0  0  0  0  0  0  0  0  0  0
   25.9639   37.0057   19.7159 C   0  0  0  0  0  0  0  0  0  0  0  0
   26.9558   36.4014   18.9281 C   0  0  0  0  0  0  0  0  0  0  0  0
   29.8720   38.2063   20.0499 F   0  0  0  0  0  0  0  0  0  0  0  0
   25.2334   38.7198   21.2788 N   0  0  0  0  0  0  0  0  0  0  0  0
   24.8542   39.9459   20.6096 C   0  0  0  0  0  0  0  0  0  0  0  0
   27.7660   39.5056   23.0616 C   0  0  0  0  0  0  0  0  0  0  0  0
   29.0993   42.7127   22.3225 O   0  0  0  0  0  0  0  0  0  0  0  0
   28.4975   40.7640   23.4973 C   0  0  2  0  0  0  0  0  0  0  0  0
   28.1717   41.2835   24.8392 N   0  0  0  0  0  0  0  0  0  0  0  0
   29.0088   42.4064   25.2994 C   0  0  0  0  0  0  0  0  0  0  0  0
   26.7359   41.5414   25.0278 C   0  0  0  0  0  0  0  0  0  0  0  0
  1  5  1  0  0  0  0
  2 17  1  0  0  0  0
  3  1  1  0  0  0  0
  4  3  1  0  0  0  0
  4 26  1  6  0  0  0
  5 11  2  0  0  0  0
  5  6  1  0  0  0  0
  6  7  2  0  0  0  0
  7 21  1  0  0  0  0
  8 15  1  0  0  0  0
  8 16  2  0  0  0  0
  9 19  1  0  0  0  0
 10 18  1  0  0  0  0
 11 20  1  0  0  0  0
 13 14  1  0  0  0  0
 13 12  2  0  0  0  0
 15 13  1  1  0  0  0
 17 19  2  0  0  0  0
 17 15  1  0  0  0  0
 18  2  1  0  0  0  0
 18  9  2  0  0  0  0
 20 21  2  0  0  0  0
 20  2  1  0  0  0  0
 21  8  1  0  0  0  0
 22  6  1  0  0  0  0
 23 11  1  0  0  0  0
 23 10  1  0  0  0  0
 24 23  1  0  0  0  0
 25  1  1  0  0  0  0
 27  4  1  0  0  0  0
 27 25  1  0  0  0  0
 27 28  1  1  0  0  0
 29 28  1  0  0  0  0
 30 28  1  0  0  0  0
M  END
>  <CHROM.1>
95.82738117,11.19106256,-69.18177765,-65.95274950,-72.77247225,26.28691816
37.81637888,20.37994025,-1.15060124,-0.23701314,-2.34207049

>  <Name>
lig.pdb

>  <RI>
0

>  <Rbt.Current_Directory>
/home/itssahil/PROJECTS/Mol_Feturizer/New_Systems/rnas/6bfb

>  <Rbt.Executable>
rbdock ($Id: //depot/dev/client3/rdock/2013.1/src/exe/rbdock.cxx#4 $)

>  <Rbt.Library>
libRbt.so (2013.1, Build901 2013/11/27)

>  <Rbt.Parameter_File>
/export/apps/rDock/src/rDock_2013.1_src/data/scripts/dock_solv.prm

>  <Rbt.Receptor>
prm/blind_docking_60.prm

>  <SCORE>
-35.4583

>  <SCORE.INTER>
-31.6875

>  <SCORE.INTER.CONST>
1

>  <SCORE.INTER.POLAR>
-1.7392

>  <SCORE.INTER.ROT>
3

>  <SCORE.INTER.SOLV>
11.9291

>  <SCORE.INTER.VDW>
-24.904

>  <SCORE.INTER.norm>
-1.05625

>  <SCORE.INTRA>
-3.90993

>  <SCORE.INTRA.DIHEDRAL>
-6.68259

>  <SCORE.INTRA.DIHEDRAL.0>
9.41909

>  <SCORE.INTRA.POLAR>
0

>  <SCORE.INTRA.POLAR.0>
0

>  <SCORE.INTRA.REPUL>
0

>  <SCORE.INTRA.REPUL.0>
0

>  <SCORE.INTRA.SOLV>
0.135611

>  <SCORE.INTRA.SOLV.lig_0>
-26.2491

>  <SCORE.INTRA.VDW>
-0.636445

>  <SCORE.INTRA.VDW.0>
2.57239

>  <SCORE.INTRA.norm>
-0.130331

>  <SCORE.RESTR>
0.139189

>  <SCORE.RESTR.CAVITY>
0.139189

>  <SCORE.RESTR.norm>
0.00463965

>  <SCORE.SYSTEM>
0

>  <SCORE.SYSTEM.CONST>
0

>  <SCORE.SYSTEM.DIHEDRAL>
0

>  <SCORE.SYSTEM.SOLV>
0

>  <SCORE.SYSTEM.norm>
0

>  <SCORE.heavy>
30

>  <SCORE.norm>
-1.18194

>  <RMSD>
8.448

$$$$
lig.pdb
 OpenBabel11021811523D
libRbt.so/2013.1/901 2013/11/27
 30 34  0  0  0  0  0  0  0  0999 V2000
   27.7821   39.8055   21.3497 N   0  0  0  0  0  0  0  0  0  0  0  0
   24.6007   36.4389   19.6028 N   0  0  0  0  0  0  0  0  0  0  0  0
   27.9062   41.0940   20.6613 C   0  0  0  0  0  0  0  0  0  0  0  0
   27.9829   42.0633   21.8313 C   0  0  2  0  0  0  0  0  0  0  0  0
   27.5105   38.5878   20.5941 C   0  0  0  0  0  0  0  0  0  0  0  0
   28.5112   37.8235   19.9597 C   0  0  0  0  0  0  0  0  0  0  0  0
   28.2560   36.6931   19.2242 C   0  0  0  0  0  0  0  0  0  0  0  0
   26.6638   35.0479   18.2281 C   0  0  0  0  0  0  0  0  0  0  0  0
   22.4139   36.3263   20.1752 C   0  0  0  0  0  0  0  0  0  0  0  0
   23.9921   37.9939   21.3792 C   0  0  0  0  0  0  0  0  0  0  0  0
   26.1745   38.1163   20.4564 C   0  0  0  0  0  0  0  0  0  0  0  0
   23.8350   33.5332   16.5630 O   0  0  0  0  0  0  0  0  0  0  0  0
   24.8690   33.5125   17.2341 C   0  0  0  0  0  0  0  0  0  0  0  0
   25.6985   32.4761   17.2358 O   0  0  0  0  0  0  0  0  0  0  0  0
   25.2342   34.6612   18.1052 C   0  0  1  0  0  0  0  0  0  0  0  0
   27.5768   34.4035   17.7009 O   0  0  0  0  0  0  0  0  0  0  0  0
   24.2345   35.3532   18.8108 C   0  0  0  0  0  0  0  0  0  0  0  0
   23.5679   36.9646   20.3918 C   0  0  0  0  0  0  0  0  0  0  0  0
   22.5614   35.0545   19.0341 S   0  0  0  0  0  0  0  0  0  0  0  0
   25.9131   36.9400   19.7178 C   0  0  0  0  0  0  0  0  0  0  0  0
   26.9454   36.2400   19.0744 C   0  0  0  0  0  0  0  0  0  0  0  0
   29.7992   38.1972   20.0965 F   0  0  0  0  0  0  0  0  0  0  0  0
   25.1015   38.8463   20.9912 N   0  0  0  0  0  0  0  0  0  0  0  0
   24.7614   39.9679   20.1421 C   0  0  0  0  0  0  0  0  0  0  0  0
   27.3053   39.9745   22.7177 C   0  0  0  0  0  0  0  0  0  0  0  0
   29.1770   42.8457   21.7888 O   0  0  0  0  0  0  0  0  0  0  0  0
   28.0925   41.2175   23.0974 C   0  0  2  0  0  0  0  0  0  0  0  0
   27.5698   42.0077   24.2283 N   0  0  0  0  0  0  0  0  0  0  0  0
   26.9980   41.2198   25.3354 C   0  0  0  0  0  0  0  0  0  0  0  0
   28.5098   43.0361   24.7001 C   0  0  0  0  0  0  0  0  0  0  0  0
  1  5  1  0  0  0  0
  2 17  1  0  0  0  0
  3  1  1  0  0  0  0
  4  3  1  0  0  0  0
  4 26  1  6  0  0  0
  5 11  2  0  0  0  0
  5  6  1  0  0  0  0
  6  7  2  0  0  0  0
  7 21  1  0  0  0  0
  8 15  1  0  0  0  0
  8 16  2  0  0  0  0
  9 19  1  0  0  0  0
 10 18  1  0  0  0  0
 11 20  1  0  0  0  0
 13 14  1  0  0  0  0
 13 12  2  0  0  0  0
 15 13  1  1  0  0  0
 17 19  2  0  0  0  0
 17 15  1  0  0  0  0
 18  2  1  0  0  0  0
 18  9  2  0  0  0  0
 20 21  2  0  0  0  0
 20  2  1  0  0  0  0
 21  8  1  0  0  0  0
 22  6  1  0  0  0  0
 23 11  1  0  0  0  0
 23 10  1  0  0  0  0
 24 23  1  0  0  0  0
 25  1  1  0  0  0  0
 27  4  1  0  0  0  0
 27 25  1  0  0  0  0
 27 28  1  1  0  0  0
 29 28  1  0  0  0  0
 30 28  1  0  0  0  0
M  END
>  <CHROM.1>
83.99730519,4.18850547,-142.89315724,-61.79595621,151.86434484,26.22635393
37.80376832,20.30765792,-1.18426109,-0.20092747,-2.46462498

>  <Name>
lig.pdb

>  <RI>
0

>  <Rbt.Current_Directory>
/home/itssahil/PROJECTS/Mol_Feturizer/New_Systems/rnas/6bfb

>  <Rbt.Executable>
rbdock ($Id: //depot/dev/client3/rdock/2013.1/src/exe/rbdock.cxx#4 $)

>  <Rbt.Library>
libRbt.so (2013.1, Build901 2013/11/27)

>  <Rbt.Parameter_File>
/export/apps/rDock/src/rDock_2013.1_src/data/scripts/dock_solv.prm

>  <Rbt.Receptor>
prm/blind_docking_80.prm

>  <SCORE>
-33.7309

>  <SCORE.INTER>
-28.7647

>  <SCORE.INTER.CONST>
1

>  <SCORE.INTER.POLAR>
-1.71043

>  <SCORE.INTER.ROT>
3

>  <SCORE.INTER.SOLV>
12.3708

>  <SCORE.INTER.VDW>
-23.1986

>  <SCORE.INTER.norm>
-0.958823

>  <SCORE.INTRA>
-4.96621

>  <SCORE.INTRA.DIHEDRAL>
-6.91888

>  <SCORE.INTRA.DIHEDRAL.0>
9.41909

>  <SCORE.INTRA.POLAR>
0

>  <SCORE.INTRA.POLAR.0>
0

>  <SCORE.INTRA.REPUL>
0

>  <SCORE.INTRA.REPUL.0>
0

>  <SCORE.INTRA.SOLV>
0.0141769

>  <SCORE.INTRA.SOLV.lig_0>
-26.2491

>  <SCORE.INTRA.VDW>
-1.51385

>  <SCORE.INTRA.VDW.0>
2.57239

>  <SCORE.INTRA.norm>
-0.16554

>  <SCORE.RESTR>
0

>  <SCORE.RESTR.CAVITY>
0

>  <SCORE.RESTR.norm>
0

>  <SCORE.SYSTEM>
0

>  <SCORE.SYSTEM.CONST>
0

>  <SCORE.SYSTEM.DIHEDRAL>
0

>  <SCORE.SYSTEM.SOLV>
0

>  <SCORE.SYSTEM.norm>
0

>  <SCORE.heavy>
30

>  <SCORE.norm>
-1.12436

>  <RMSD>
8.451

$$$$
lig.pdb
 OpenBabel11021811523D
libRbt.so/2013.1/901 2013/11/27
 30 34  0  0  0  0  0  0  0  0999 V2000
   28.0005   39.7697   20.9528 N   0  0  0  0  0  0  0  0  0  0  0  0
   24.9801   36.2353   19.2522 N   0  0  0  0  0  0  0  0  0  0  0  0
   27.8016   41.0646   20.2948 C   0  0  0  0  0  0  0  0  0  0  0  0
   27.9376   42.0293   21.4632 C   0  0  2  0  0  0  0  0  0  0  0  0
   27.7870   38.5277   20.2185 C   0  0  0  0  0  0  0  0  0  0  0  0
   28.8239   37.7967   19.6034 C   0  0  0  0  0  0  0  0  0  0  0  0
   28.6228   36.6430   18.8876 C   0  0  0  0  0  0  0  0  0  0  0  0
   27.1102   34.9116   17.9139 C   0  0  0  0  0  0  0  0  0  0  0  0
   22.7970   36.0371   19.8155 C   0  0  0  0  0  0  0  0  0  0  0  0
   24.2934   37.7941   20.9965 C   0  0  0  0  0  0  0  0  0  0  0  0
   26.4738   37.9956   20.0827 C   0  0  0  0  0  0  0  0  0  0  0  0
   26.1827   32.9024   16.0738 O   0  0  0  0  0  0  0  0  0  0  0  0
   25.3904   33.2809   16.9393 C   0  0  0  0  0  0  0  0  0  0  0  0
   24.2249   32.6821   17.1513 O   0  0  0  0  0  0  0  0  0  0  0  0
   25.6997   34.4602   17.7909 C   0  0  1  0  0  0  0  0  0  0  0  0
   28.0538   34.2984   17.4033 O   0  0  0  0  0  0  0  0  0  0  0  0
   24.6665   35.1203   18.4785 C   0  0  0  0  0  0  0  0  0  0  0  0
   23.9206   36.7294   20.0261 C   0  0  0  0  0  0  0  0  0  0  0  0
   23.0068   34.7525   18.6988 S   0  0  0  0  0  0  0  0  0  0  0  0
   26.2685   36.7956   19.3646 C   0  0  0  0  0  0  0  0  0  0  0  0
   27.3343   36.1301   18.7395 C   0  0  0  0  0  0  0  0  0  0  0  0
   30.0935   38.2291   19.7398 F   0  0  0  0  0  0  0  0  0  0  0  0
   25.3667   38.6873   20.5985 N   0  0  0  0  0  0  0  0  0  0  0  0
   24.9827   39.7773   19.7271 C   0  0  0  0  0  0  0  0  0  0  0  0
   27.7559   39.8569   22.3881 C   0  0  0  0  0  0  0  0  0  0  0  0
   28.9714   42.9882   21.2361 O   0  0  0  0  0  0  0  0  0  0  0  0
   28.3994   41.2056   22.6626 C   0  0  2  0  0  0  0  0  0  0  0  0
   27.9731   41.9002   23.8925 N   0  0  0  0  0  0  0  0  0  0  0  0
   26.5155   42.0400   24.0631 C   0  0  0  0  0  0  0  0  0  0  0  0
   28.6323   41.3897   25.1044 C   0  0  0  0  0  0  0  0  0  0  0  0
  1  5  1  0  0  0  0
  2 17  1  0  0  0  0
  3  1  1  0  0  0  0
  4  3  1  0  0  0  0
  4 26  1  6  0  0  0
  5 11  2  0  0  0  0
  5  6  1  0  0  0  0
  6  7  2  0  0  0  0
  7 21  1  0  0  0  0
  8 15  1  0  0  0  0
  8 16  2  0  0  0  0
  9 19  1  0  0  0  0
 10 18  1  0  0  0  0
 11 20  1  0  0  0  0
 13 14  1  0  0  0  0
 13 12  2  0  0  0  0
 15 13  1  1  0  0  0
 17 19  2  0  0  0  0
 17 15  1  0  0  0  0
 18  2  1  0  0  0  0
 18  9  2  0  0  0  0
 20 21  2  0  0  0  0
 20  2  1  0  0  0  0
 21  8  1  0  0  0  0
 22  6  1  0  0  0  0
 23 11  1  0  0  0  0
 23 10  1  0  0  0  0
 24 23  1  0  0  0  0
 25  1  1  0  0  0  0
 27  4  1  0  0  0  0
 27 25  1  0  0  0  0
 27 28  1  1  0  0  0
 29 28  1  0  0  0  0
 30 28  1  0  0  0  0
M  END
>  <CHROM.1>
96.52947761,2.13255190,-19.68476813,59.92599961,62.74980160,26.50379375,37.65538528
19.94373451,-1.22183706,-0.22260682,-2.48149232

>  <Name>
lig.pdb

>  <RI>
0

>  <Rbt.Current_Directory>
/home/itssahil/PROJECTS/Mol_Feturizer/New_Systems/rnas/6bfb

>  <Rbt.Executable>
rbdock ($Id: //depot/dev/client3/rdock/2013.1/src/exe/rbdock.cxx#4 $)

>  <Rbt.Library>
libRbt.so (2013.1, Build901 2013/11/27)

>  <Rbt.Parameter_File>
/export/apps/rDock/src/rDock_2013.1_src/data/scripts/dock_solv.prm

>  <Rbt.Receptor>
prm/blind_docking_60.prm

>  <SCORE>
-29.3873

>  <SCORE.INTER>
-24.3329

>  <SCORE.INTER.CONST>
1

>  <SCORE.INTER.POLAR>
-1.15533

>  <SCORE.INTER.ROT>
3

>  <SCORE.INTER.SOLV>
11.6864

>  <SCORE.INTER.VDW>
-21.8663

>  <SCORE.INTER.norm>
-0.811098

>  <SCORE.INTRA>
-5.17169

>  <SCORE.INTRA.DIHEDRAL>
-7.59675

>  <SCORE.INTRA.DIHEDRAL.0>
9.41909

>  <SCORE.INTRA.POLAR>
0

>  <SCORE.INTRA.POLAR.0>
0

>  <SCORE.INTRA.REPUL>
0

>  <SCORE.INTRA.REPUL.0>
0

>  <SCORE.INTRA.SOLV>
-0.0868838

>  <SCORE.INTRA.SOLV.lig_0>
-26.2491

>  <SCORE.INTRA.VDW>
-1.32987

>  <SCORE.INTRA.VDW.0>
2.57239

>  <SCORE.INTRA.norm>
-0.17239

>  <SCORE.RESTR>
0.117319

>  <SCORE.RESTR.CAVITY>
0.117319

>  <SCORE.RESTR.norm>
0.00391062

>  <SCORE.SYSTEM>
0

>  <SCORE.SYSTEM.CONST>
0

>  <SCORE.SYSTEM.DIHEDRAL>
0

>  <SCORE.SYSTEM.SOLV>
0

>  <SCORE.SYSTEM.norm>
0

>  <SCORE.heavy>
30

>  <SCORE.norm>
-0.979577

>  <RMSD>
8.590

$$$$
lig.pdb
 OpenBabel11021811523D
libRbt.so/2013.1/901 2013/11/27
 30 34  0  0  0  0  0  0  0  0999 V2000
   24.8912   43.4099   16.5818 N   0  0  0  0  0  0  0  0  0  0  0  0
   21.0962   45.8321   18.6405 N   0  0  0  0  0  0  0  0  0  0  0  0
   26.1071   44.2106   16.7544 C   0  0  0  0  0  0  0  0  0  0  0  0
   27.1510   43.1351   17.0156 C   0  0  2  0  0  0  0  0  0  0  0  0
   23.5895   44.0585   16.4712 C   0  0  0  0  0  0  0  0  0  0  0  0
   22.8673   44.1582   15.2644 C   0  0  0  0  0  0  0  0  0  0  0  0
   21.6555   44.7926   15.1511 C   0  0  0  0  0  0  0  0  0  0  0  0
   19.7844   46.1210   16.1352 C   0  0  0  0  0  0  0  0  0  0  0  0
   20.8324   46.1426   20.8668 C   0  0  0  0  0  0  0  0  0  0  0  0
   22.7434   44.6323   19.9789 C   0  0  0  0  0  0  0  0  0  0  0  0
   22.9845   44.6450   17.6185 C   0  0  0  0  0  0  0  0  0  0  0  0
   17.6779   48.1163   16.2716 O   0  0  0  0  0  0  0  0  0  0  0  0
   18.0034   47.5392   17.3114 C   0  0  0  0  0  0  0  0  0  0  0  0
   17.2794   47.6064   18.4219 O   0  0  0  0  0  0  0  0  0  0  0  0
   19.2560   46.7405   17.3784 C   0  0  1  0  0  0  0  0  0  0  0  0
   19.1827   46.1712   15.0571 O   0  0  0  0  0  0  0  0  0  0  0  0
   19.9132   46.5666   18.6088 C   0  0  0  0  0  0  0  0  0  0  0  0
   21.5930   45.5747   19.9260 C   0  0  0  0  0  0  0  0  0  0  0  0
   19.4810   46.9746   20.2167 S   0  0  0  0  0  0  0  0  0  0  0  0
   21.7263   45.2791   17.5074 C   0  0  0  0  0  0  0  0  0  0  0  0
   21.0700   45.3826   16.2712 C   0  0  0  0  0  0  0  0  0  0  0  0
   23.3708   43.5793   14.1559 F   0  0  0  0  0  0  0  0  0  0  0  0
   23.6568   44.6601   18.8506 N   0  0  0  0  0  0  0  0  0  0  0  0
   24.6593   45.7036   18.8829 C   0  0  0  0  0  0  0  0  0  0  0  0
   25.0340   42.0866   17.1786 C   0  0  0  0  0  0  0  0  0  0  0  0
   28.2190   43.1979   16.0693 O   0  0  0  0  0  0  0  0  0  0  0  0
   26.4684   41.7913   16.7740 C   0  0  2  0  0  0  0  0  0  0  0  0
   27.1765   40.7645   17.5621 N   0  0  0  0  0  0  0  0  0  0  0  0
   27.0127   40.8692   19.0235 C   0  0  0  0  0  0  0  0  0  0  0  0
   26.9491   39.3972   17.0697 C   0  0  0  0  0  0  0  0  0  0  0  0
  1  5  1  0  0  0  0
  2 17  1  0  0  0  0
  3  1  1  0  0  0  0
  4  3  1  0  0  0  0
  4 26  1  6  0  0  0
  5 11  2  0  0  0  0
  5  6  1  0  0  0  0
  6  7  2  0  0  0  0
  7 21  1  0  0  0  0
  8 15  1  0  0  0  0
  8 16  2  0  0  0  0
  9 19  1  0  0  0  0
 10 18  1  0  0  0  0
 11 20  1  0  0  0  0
 13 14  1  0  0  0  0
 13 12  2  0  0  0  0
 15 13  1  1  0  0  0
 17 19  2  0  0  0  0
 17 15  1  0  0  0  0
 18  2  1  0  0  0  0
 18  9  2  0  0  0  0
 20 21  2  0  0  0  0
 20  2  1  0  0  0  0
 21  8  1  0  0  0  0
 22  6  1  0  0  0  0
 23 11  1  0  0  0  0
 23 10  1  0  0  0  0
 24 23  1  0  0  0  0
 25  1  1  0  0  0  0
 27  4  1  0  0  0  0
 27 25  1  0  0  0  0
 27 28  1  1  0  0  0
 29 28  1  0  0  0  0
 30 28  1  0  0  0  0
M  END
>  <CHROM.1>
106.72919703,157.70917391,-27.68404608,86.30196441,69.30034127,22.63072793
44.70390507,17.51001046,0.17296099,0.56231110,-1.69572924

>  <Name>
lig.pdb

>  <RI>
0

>  <Rbt.Current_Directory>
/home/itssahil/PROJECTS/Mol_Feturizer/New_Systems/rnas/6bfb

>  <Rbt.Executable>
rbdock ($Id: //depot/dev/client3/rdock/2013.1/src/exe/rbdock.cxx#4 $)

>  <Rbt.Library>
libRbt.so (2013.1, Build901 2013/11/27)

>  <Rbt.Parameter_File>
/export/apps/rDock/src/rDock_2013.1_src/data/scripts/dock_solv.prm

>  <Rbt.Receptor>
prm/blind_docking_100.prm

>  <SCORE>
12.3718

>  <SCORE.INTER>
11.6213

>  <SCORE.INTER.CONST>
1

>  <SCORE.INTER.POLAR>
-1.14891

>  <SCORE.INTER.ROT>
3

>  <SCORE.INTER.SOLV>
26.8259

>  <SCORE.INTER.VDW>
-2.96469

>  <SCORE.INTER.norm>
0.387378

>  <SCORE.INTRA>
0.139987

>  <SCORE.INTRA.DIHEDRAL>
-1.08511

>  <SCORE.INTRA.DIHEDRAL.0>
9.41909

>  <SCORE.INTRA.POLAR>
0

>  <SCORE.INTRA.POLAR.0>
0

>  <SCORE.INTRA.REPUL>
0

>  <SCORE.INTRA.REPUL.0>
0

>  <SCORE.INTRA.SOLV>
-0.171157

>  <SCORE.INTRA.SOLV.lig_0>
-26.2491

>  <SCORE.INTRA.VDW>
0.768121

>  <SCORE.INTRA.VDW.0>
2.57239

>  <SCORE.INTRA.norm>
0.00466624

>  <SCORE.RESTR>
0.610427

>  <SCORE.RESTR.CAVITY>
0.610427

>  <SCORE.RESTR.norm>
0.0203476

>  <SCORE.SYSTEM>
0

>  <SCORE.SYSTEM.CONST>
0

>  <SCORE.SYSTEM.DIHEDRAL>
0

>  <SCORE.SYSTEM.SOLV>
0

>  <SCORE.SYSTEM.norm>
0

>  <SCORE.heavy>
30

>  <SCORE.norm>
0.412392

>  <RMSD>
8.879

$$$$
lig.pdb
 OpenBabel11021811523D
libRbt.so/2013.1/901 2013/11/27
 30 34  0  0  0  0  0  0  0  0999 V2000
   24.7768   43.3968   16.6267 N   0  0  0  0  0  0  0  0  0  0  0  0
   21.0282   45.8918   18.6833 N   0  0  0  0  0  0  0  0  0  0  0  0
   26.0191   44.1718   16.7003 C   0  0  0  0  0  0  0  0  0  0  0  0
   27.0426   43.0873   17.0016 C   0  0  2  0  0  0  0  0  0  0  0  0
   23.4897   44.0738   16.5146 C   0  0  0  0  0  0  0  0  0  0  0  0
   22.7738   44.1940   15.3060 C   0  0  0  0  0  0  0  0  0  0  0  0
   21.5763   44.8549   15.1915 C   0  0  0  0  0  0  0  0  0  0  0  0
   19.7311   46.2193   16.1751 C   0  0  0  0  0  0  0  0  0  0  0  0
   20.7639   46.1987   20.9101 C   0  0  0  0  0  0  0  0  0  0  0  0
   22.6448   44.6513   20.0219 C   0  0  0  0  0  0  0  0  0  0  0  0
   22.8938   44.6684   17.6624 C   0  0  0  0  0  0  0  0  0  0  0  0
   17.4683   47.9570   16.2657 O   0  0  0  0  0  0  0  0  0  0  0  0
   17.9772   47.6707   17.3515 C   0  0  0  0  0  0  0  0  0  0  0  0
   17.4750   48.0875   18.5074 O   0  0  0  0  0  0  0  0  0  0  0  0
   19.2121   46.8449   17.4192 C   0  0  1  0  0  0  0  0  0  0  0  0
   19.1341   46.2869   15.0953 O   0  0  0  0  0  0  0  0  0  0  0  0
   19.8613   46.6518   18.6510 C   0  0  0  0  0  0  0  0  0  0  0  0
   21.5151   45.6184   19.9693 C   0  0  0  0  0  0  0  0  0  0  0  0
   19.4328   47.0624   20.2592 S   0  0  0  0  0  0  0  0  0  0  0  0
   21.6499   45.3300   17.5499 C   0  0  0  0  0  0  0  0  0  0  0  0
   21.0000   45.4527   16.3121 C   0  0  0  0  0  0  0  0  0  0  0  0
   23.2683   43.6090   14.1966 F   0  0  0  0  0  0  0  0  0  0  0  0
   23.5622   44.6640   18.8967 N   0  0  0  0  0  0  0  0  0  0  0  0
   24.5869   45.6855   18.9365 C   0  0  0  0  0  0  0  0  0  0  0  0
   24.9056   42.1151   17.3108 C   0  0  0  0  0  0  0  0  0  0  0  0
   28.0770   43.0524   16.0174 O   0  0  0  0  0  0  0  0  0  0  0  0
   26.3161   41.7503   16.8796 C   0  0  2  0  0  0  0  0  0  0  0  0
   27.0244   40.7612   17.7142 N   0  0  0  0  0  0  0  0  0  0  0  0
   26.1907   39.6593   18.2282 C   0  0  0  0  0  0  0  0  0  0  0  0
   28.2754   40.2808   17.1075 C   0  0  0  0  0  0  0  0  0  0  0  0
  1  5  1  0  0  0  0
  2 17  1  0  0  0  0
  3  1  1  0  0  0  0
  4  3  1  0  0  0  0
  4 26  1  6  0  0  0
  5 11  2  0  0  0  0
  5  6  1  0  0  0  0
  6  7  2  0  0  0  0
  7 21  1  0  0  0  0
  8 15  1  0  0  0  0
  8 16  2  0  0  0  0
  9 19  1  0  0  0  0
 10 18  1  0  0  0  0
 11 20  1  0  0  0  0
 13 14  1  0  0  0  0
 13 12  2  0  0  0  0
 15 13  1  1  0  0  0
 17 19  2  0  0  0  0
 17 15  1  0  0  0  0
 18  2  1  0  0  0  0
 18  9  2  0  0  0  0
 20 21  2  0  0  0  0
 20  2  1  0  0  0  0
 21  8  1  0  0  0  0
 22  6  1  0  0  0  0
 23 11  1  0  0  0  0
 23 10  1  0  0  0  0
 24 23  1  0  0  0  0
 25  1  1  0  0  0  0
 27  4  1  0  0  0  0
 27 25  1  0  0  0  0
 27 28  1  1  0  0  0
 29 28  1  0  0  0  0
 30 28  1  0  0  0  0
M  END
>  <CHROM.1>
101.89459996,-18.73829263,-7.84417239,77.60607302,152.55826075,22.57291657
44.73631022,17.52112482,0.17993535,0.57845067,-1.68799592

>  <Name>
lig.pdb

>  <RI>
0

>  <Rbt.Current_Directory>
/home/itssahil/PROJECTS/Mol_Feturizer/New_Systems/rnas/6bfb

>  <Rbt.Executable>
rbdock ($Id: //depot/dev/client3/rdock/2013.1/src/exe/rbdock.cxx#4 $)

>  <Rbt.Library>
libRbt.so (2013.1, Build901 2013/11/27)

>  <Rbt.Parameter_File>
/export/apps/rDock/src/rDock_2013.1_src/data/scripts/dock_solv.prm

>  <Rbt.Receptor>
prm/blind_docking_80.prm

>  <SCORE>
4.21527

>  <SCORE.INTER>
5.56385

>  <SCORE.INTER.CONST>
1

>  <SCORE.INTER.POLAR>
-2.24301

>  <SCORE.INTER.ROT>
3

>  <SCORE.INTER.SOLV>
26.8465

>  <SCORE.INTER.VDW>
-3.36293

>  <SCORE.INTER.norm>
0.185462

>  <SCORE.INTRA>
-2.08187

>  <SCORE.INTRA.DIHEDRAL>
-3.18281

>  <SCORE.INTRA.DIHEDRAL.0>
9.41909

>  <SCORE.INTRA.POLAR>
0

>  <SCORE.INTRA.POLAR.0>
0

>  <SCORE.INTRA.REPUL>
0

>  <SCORE.INTRA.REPUL.0>
0

>  <SCORE.INTRA.SOLV>
0.0247916

>  <SCORE.INTRA.SOLV.lig_0>
-26.2491

>  <SCORE.INTRA.VDW>
-0.502866

>  <SCORE.INTRA.VDW.0>
2.57239

>  <SCORE.INTRA.norm>
-0.0693958

>  <SCORE.RESTR>
0.733295

>  <SCORE.RESTR.CAVITY>
0.733295

>  <SCORE.RESTR.norm>
0.0244432

>  <SCORE.SYSTEM>
0

>  <SCORE.SYSTEM.CONST>
0

>  <SCORE.SYSTEM.DIHEDRAL>
0

>  <SCORE.SYSTEM.SOLV>
0

>  <SCORE.SYSTEM.norm>
0

>  <SCORE.heavy>
30

>  <SCORE.norm>
0.140509

>  <RMSD>
8.886

$$$$
lig.pdb
 OpenBabel11021811523D
libRbt.so/2013.1/901 2013/11/27
 30 34  0  0  0  0  0  0  0  0999 V2000
   26.1816   43.7943   27.3620 N   0  0  0  0  0  0  0  0  0  0  0  0
   24.5137   40.4684   24.0965 N   0  0  0  0  0  0  0  0  0  0  0  0
   27.3624   44.0993   28.1758 C   0  0  0  0  0  0  0  0  0  0  0  0
   26.7731   45.0018   29.2494 C   0  0  2  0  0  0  0  0  0  0  0  0
   26.3197   43.0733   26.1016 C   0  0  0  0  0  0  0  0  0  0  0  0
   27.3949   43.2607   25.2091 C   0  0  0  0  0  0  0  0  0  0  0  0
   27.5132   42.6048   24.0092 C   0  0  0  0  0  0  0  0  0  0  0  0
   26.6353   41.0237   22.2878 C   0  0  0  0  0  0  0  0  0  0  0  0
   22.7750   39.0685   24.4700 C   0  0  0  0  0  0  0  0  0  0  0  0
   23.6748   40.5685   26.3835 C   0  0  0  0  0  0  0  0  0  0  0  0
   25.3313   42.1274   25.7085 C   0  0  0  0  0  0  0  0  0  0  0  0
   25.6513   38.2025   20.5202 O   0  0  0  0  0  0  0  0  0  0  0  0
   25.5328   39.4260   20.6149 C   0  0  0  0  0  0  0  0  0  0  0  0
   25.4186   40.2164   19.5546 O   0  0  0  0  0  0  0  0  0  0  0  0
   25.5311   40.0898   21.9456 C   0  0  1  0  0  0  0  0  0  0  0  0
   27.6041   41.2121   21.5442 O   0  0  0  0  0  0  0  0  0  0  0  0
   24.5035   39.8171   22.8653 C   0  0  0  0  0  0  0  0  0  0  0  0
   23.5479   40.0173   25.0071 C   0  0  0  0  0  0  0  0  0  0  0  0
   23.2212   38.6795   22.8604 S   0  0  0  0  0  0  0  0  0  0  0  0
   25.4637   41.4352   24.4834 C   0  0  0  0  0  0  0  0  0  0  0  0
   26.5364   41.6905   23.6153 C   0  0  0  0  0  0  0  0  0  0  0  0
   28.3843   44.1098   25.5524 F   0  0  0  0  0  0  0  0  0  0  0  0
   24.1869   41.9226   26.4950 N   0  0  0  0  0  0  0  0  0  0  0  0
   23.2176   42.9771   26.2868 C   0  0  0  0  0  0  0  0  0  0  0  0
   25.1253   44.7797   27.5632 C   0  0  0  0  0  0  0  0  0  0  0  0
   27.0082   44.4835   30.5594 O   0  0  0  0  0  0  0  0  0  0  0  0
   25.2581   44.9749   29.0642 C   0  0  2  0  0  0  0  0  0  0  0  0
   24.7022   46.2247   29.6171 N   0  0  0  0  0  0  0  0  0  0  0  0
   23.3538   46.5795   29.1385 C   0  0  0  0  0  0  0  0  0  0  0  0
   24.8179   46.3125   31.0809 C   0  0  0  0  0  0  0  0  0  0  0  0
  1  5  1  0  0  0  0
  2 17  1  0  0  0  0
  3  1  1  0  0  0  0
  4  3  1  0  0  0  0
  4 26  1  1  0  0  0
  5 11  2  0  0  0  0
  5  6  1  0  0  0  0
  6  7  2  0  0  0  0
  7 21  1  0  0  0  0
  8 15  1  0  0  0  0
  8 16  2  0  0  0  0
  9 19  1  0  0  0  0
 10 18  1  0  0  0  0
 11 20  1  0  0  0  0
 13 14  1  0  0  0  0
 13 12  2  0  0  0  0
 15 13  1  1  0  0  0
 17 19  2  0  0  0  0
 17 15  1  0  0  0  0
 18  2  1  0  0  0  0
 18  9  2  0  0  0  0
 20 21  2  0  0  0  0
 20  2  1  0  0  0  0
 21  8  1  0  0  0  0
 22  6  1  0  0  0  0
 23 11  1  0  0  0  0
 23 10  1  0  0  0  0
 24 23  1  0  0  0  0
 25  1  1  0  0  0  0
 27  4  1  0  0  0  0
 27 25  1  0  0  0  0
 27 28  1  6  0  0  0
 29 28  1  0  0  0  0
 30 28  1  0  0  0  0
M  END
>  <CHROM.1>
-37.39067694,0.93929114,115.32777725,70.38216628,160.42781073,25.39258545
42.18294163,25.31005460,-1.50501300,-0.46740171,-2.19231571

>  <Name>
lig.pdb

>  <RI>
0

>  <Rbt.Current_Directory>
/home/itssahil/PROJECTS/Mol_Feturizer/New_Systems/rnas/6bfb

>  <Rbt.Executable>
rbdock ($Id: //depot/dev/client3/rdock/2013.1/src/exe/rbdock.cxx#4 $)

>  <Rbt.Library>
libRbt.so (2013.1, Build901 2013/11/27)

>  <Rbt.Parameter_File>
/export/apps/rDock/src/rDock_2013.1_src/data/scripts/dock_solv.prm

>  <Rbt.Receptor>
prm/pocket_docking_7.prm

>  <SCORE>
-35.4014

>  <SCORE.INTER>
-32.5112

>  <SCORE.INTER.CONST>
1

>  <SCORE.INTER.POLAR>
-0.80688

>  <SCORE.INTER.ROT>
3

>  <SCORE.INTER.SOLV>
14.0858

>  <SCORE.INTER.VDW>
-29.2798

>  <SCORE.INTER.norm>
-1.08371

>  <SCORE.INTRA>
-2.92736

>  <SCORE.INTRA.DIHEDRAL>
-6.93421

>  <SCORE.INTRA.DIHEDRAL.0>
9.41909

>  <SCORE.INTRA.POLAR>
0

>  <SCORE.INTRA.POLAR.0>
0

>  <SCORE.INTRA.REPUL>
0.049766

>  <SCORE.INTRA.REPUL.0>
0

>  <SCORE.INTRA.SOLV>
-0.142593

>  <SCORE.INTRA.SOLV.lig_0>
-26.2491

>  <SCORE.INTRA.VDW>
0.362215

>  <SCORE.INTRA.VDW.0>
2.57239

>  <SCORE.INTRA.norm>
-0.0975786

>  <SCORE.RESTR>
0.0371689

>  <SCORE.RESTR.CAVITY>
0.0371689

>  <SCORE.RESTR.norm>
0.00123896

>  <SCORE.SYSTEM>
0

>  <SCORE.SYSTEM.CONST>
0

>  <SCORE.SYSTEM.DIHEDRAL>
0

>  <SCORE.SYSTEM.SOLV>
0

>  <SCORE.SYSTEM.norm>
0

>  <SCORE.heavy>
30

>  <SCORE.norm>
-1.18005

>  <RMSD>
8.896

$$$$
lig.pdb
 OpenBabel11021811523D
libRbt.so/2013.1/901 2013/11/27
 30 34  0  0  0  0  0  0  0  0999 V2000
   26.2329   43.9329   27.4733 N   0  0  0  0  0  0  0  0  0  0  0  0
   24.6180   40.6478   24.1405 N   0  0  0  0  0  0  0  0  0  0  0  0
   27.4113   44.1946   28.3053 C   0  0  0  0  0  0  0  0  0  0  0  0
   26.8253   45.0663   29.4058 C   0  0  2  0  0  0  0  0  0  0  0  0
   26.3713   43.2546   26.1895 C   0  0  0  0  0  0  0  0  0  0  0  0
   27.4218   43.5060   25.2834 C   0  0  0  0  0  0  0  0  0  0  0  0
   27.5393   42.8903   24.0623 C   0  0  0  0  0  0  0  0  0  0  0  0
   26.6834   41.3306   22.3105 C   0  0  0  0  0  0  0  0  0  0  0  0
   22.9365   39.1771   24.5037 C   0  0  0  0  0  0  0  0  0  0  0  0
   23.8209   40.6509   26.4445 C   0  0  0  0  0  0  0  0  0  0  0  0
   25.4088   42.2865   25.7863 C   0  0  0  0  0  0  0  0  0  0  0  0
   25.3524   40.4144   19.6067 O   0  0  0  0  0  0  0  0  0  0  0  0
   25.6046   39.7450   20.6109 C   0  0  0  0  0  0  0  0  0  0  0  0
   25.8692   38.4455   20.5548 O   0  0  0  0  0  0  0  0  0  0  0  0
   25.6058   40.3689   21.9608 C   0  0  1  0  0  0  0  0  0  0  0  0
   27.6304   41.5748   21.5552 O   0  0  0  0  0  0  0  0  0  0  0  0
   24.6064   40.0331   22.8906 C   0  0  0  0  0  0  0  0  0  0  0  0
   23.6864   40.1363   25.0548 C   0  0  0  0  0  0  0  0  0  0  0  0
   23.3645   38.8516   22.8752 S   0  0  0  0  0  0  0  0  0  0  0  0
   25.5412   41.6357   24.5388 C   0  0  0  0  0  0  0  0  0  0  0  0
   26.5873   41.9541   23.6591 C   0  0  0  0  0  0  0  0  0  0  0  0
   28.3876   44.3789   25.6337 F   0  0  0  0  0  0  0  0  0  0  0  0
   24.2877   42.0183   26.5873 N   0  0  0  0  0  0  0  0  0  0  0  0
   23.2785   43.0437   26.4289 C   0  0  0  0  0  0  0  0  0  0  0  0
   25.1872   44.9237   27.7017 C   0  0  0  0  0  0  0  0  0  0  0  0
   27.0445   44.4998   30.6984 O   0  0  0  0  0  0  0  0  0  0  0  0
   25.3115   45.0648   29.2094 C   0  0  2  0  0  0  0  0  0  0  0  0
   24.7669   46.3013   29.8019 N   0  0  0  0  0  0  0  0  0  0  0  0
   25.2379   47.5549   29.1854 C   0  0  0  0  0  0  0  0  0  0  0  0
   23.3051   46.2715   29.9634 C   0  0  0  0  0  0  0  0  0  0  0  0
  1  5  1  0  0  0  0
  2 17  1  0  0  0  0
  3  1  1  0  0  0  0
  4  3  1  0  0  0  0
  4 26  1  1  0  0  0
  5 11  2  0  0  0  0
  5  6  1  0  0  0  0
  6  7  2  0  0  0  0
  7 21  1  0  0  0  0
  8 15  1  0  0  0  0
  8 16  2  0  0  0  0
  9 19  1  0  0  0  0
 10 18  1  0  0  0  0
 11 20  1  0  0  0  0
 13 14  1  0  0  0  0
 13 12  2  0  0  0  0
 15 13  1  1  0  0  0
 17 19  2  0  0  0  0
 17 15  1  0  0  0  0
 18  2  1  0  0  0  0
 18  9  2  0  0  0  0
 20 21  2  0  0  0  0
 20  2  1  0  0  0  0
 21  8  1  0  0  0  0
 22  6  1  0  0  0  0
 23 11  1  0  0  0  0
 23 10  1  0  0  0  0
 24 23  1  0  0  0  0
 25  1  1  0  0  0  0
 27  4  1  0  0  0  0
 27 25  1  0  0  0  0
 27 28  1  6  0  0  0
 29 28  1  0  0  0  0
 30 28  1  0  0  0  0
M  END
>  <CHROM.1>
-40.49871124,0.65066881,-69.75158592,67.95330114,62.40855328,25.47494359
42.37546835,25.34237717,-1.49906520,-0.52133335,-2.19435469

>  <Name>
lig.pdb

>  <RI>
0

>  <Rbt.Current_Directory>
/home/itssahil/PROJECTS/Mol_Feturizer/New_Systems/rnas/6bfb

>  <Rbt.Executable>
rbdock ($Id: //depot/dev/client3/rdock/2013.1/src/exe/rbdock.cxx#4 $)

>  <Rbt.Library>
libRbt.so (2013.1, Build901 2013/11/27)

>  <Rbt.Parameter_File>
/export/apps/rDock/src/rDock_2013.1_src/data/scripts/dock_solv.prm

>  <Rbt.Receptor>
prm/pocket_docking_8.prm

>  <SCORE>
-37.1925

>  <SCORE.INTER>
-33.0419

>  <SCORE.INTER.CONST>
1

>  <SCORE.INTER.POLAR>
-0.894282

>  <SCORE.INTER.ROT>
3

>  <SCORE.INTER.SOLV>
14.5761

>  <SCORE.INTER.VDW>
-29.5057

>  <SCORE.INTER.norm>
-1.1014

>  <SCORE.INTRA>
-4.15059

>  <SCORE.INTRA.DIHEDRAL>
-7.33657

>  <SCORE.INTRA.DIHEDRAL.0>
9.41909

>  <SCORE.INTRA.POLAR>
0

>  <SCORE.INTRA.POLAR.0>
0

>  <SCORE.INTRA.REPUL>
0.0570468

>  <SCORE.INTRA.REPUL.0>
0

>  <SCORE.INTRA.SOLV>
-0.272083

>  <SCORE.INTRA.SOLV.lig_0>
-26.2491

>  <SCORE.INTRA.VDW>
-0.631501

>  <SCORE.INTRA.VDW.0>
2.57239

>  <SCORE.INTRA.norm>
-0.138353

>  <SCORE.RESTR>
0

>  <SCORE.RESTR.CAVITY>
0

>  <SCORE.RESTR.norm>
0

>  <SCORE.SYSTEM>
0

>  <SCORE.SYSTEM.CONST>
0

>  <SCORE.SYSTEM.DIHEDRAL>
0

>  <SCORE.SYSTEM.SOLV>
0

>  <SCORE.SYSTEM.norm>
0

>  <SCORE.heavy>
30

>  <SCORE.norm>
-1.23975

>  <RMSD>
8.921

$$$$
lig.pdb
 OpenBabel11021811523D
libRbt.so/2013.1/901 2013/11/27
 30 34  0  0  0  0  0  0  0  0999 V2000
   24.2209   44.3872   28.0042 N   0  0  0  0  0  0  0  0  0  0  0  0
   25.2479   40.9159   24.6274 N   0  0  0  0  0  0  0  0  0  0  0  0
   23.8352   45.7382   27.5854 C   0  0  0  0  0  0  0  0  0  0  0  0
   22.7005   46.0487   28.5499 C   0  0  2  0  0  0  0  0  0  0  0  0
   25.1869   43.6202   27.2256 C   0  0  0  0  0  0  0  0  0  0  0  0
   26.5828   43.7879   27.3304 C   0  0  0  0  0  0  0  0  0  0  0  0
   27.4935   43.0881   26.5788 C   0  0  0  0  0  0  0  0  0  0  0  0
   28.0387   41.4303   24.7932 C   0  0  0  0  0  0  0  0  0  0  0  0
   23.7181   39.5077   23.7333 C   0  0  0  0  0  0  0  0  0  0  0  0
   23.0532   41.0923   25.6745 C   0  0  0  0  0  0  0  0  0  0  0  0
   24.7371   42.6466   26.2897 C   0  0  0  0  0  0  0  0  0  0  0  0
   28.2367   38.5547   22.6476 O   0  0  0  0  0  0  0  0  0  0  0  0
   28.3890   39.7547   22.8863 C   0  0  0  0  0  0  0  0  0  0  0  0
   29.3741   40.4688   22.3556 O   0  0  0  0  0  0  0  0  0  0  0  0
   27.4707   40.4690   23.8125 C   0  0  1  0  0  0  0  0  0  0  0  0
   29.2546   41.6032   24.9303 O   0  0  0  0  0  0  0  0  0  0  0  0
   26.0884   40.2177   23.7636 C   0  0  0  0  0  0  0  0  0  0  0  0
   23.9132   40.4870   24.6217 C   0  0  0  0  0  0  0  0  0  0  0  0
   25.1541   39.0634   22.9075 S   0  0  0  0  0  0  0  0  0  0  0  0
   25.6748   41.9097   25.5312 C   0  0  0  0  0  0  0  0  0  0  0  0
   27.0531   42.1461   25.6492 C   0  0  0  0  0  0  0  0  0  0  0  0
   27.0663   44.6630   28.2348 F   0  0  0  0  0  0  0  0  0  0  0  0
   23.3652   42.4565   26.0614 N   0  0  0  0  0  0  0  0  0  0  0  0
   22.8341   43.4889   25.1971 C   0  0  0  0  0  0  0  0  0  0  0  0
   23.1499   43.7320   28.7465 C   0  0  0  0  0  0  0  0  0  0  0  0
   22.9602   47.2339   29.3034 O   0  0  0  0  0  0  0  0  0  0  0  0
   22.6672   44.9139   29.5704 C   0  0  2  0  0  0  0  0  0  0  0  0
   21.2992   44.8217   30.1151 N   0  0  0  0  0  0  0  0  0  0  0  0
   20.2622   44.4205   29.1471 C   0  0  0  0  0  0  0  0  0  0  0  0
   21.2246   44.0523   31.3666 C   0  0  0  0  0  0  0  0  0  0  0  0
  1  5  1  0  0  0  0
  2 17  1  0  0  0  0
  3  1  1  0  0  0  0
  4  3  1  0  0  0  0
  4 26  1  1  0  0  0
  5 11  2  0  0  0  0
  5  6  1  0  0  0  0
  6  7  2  0  0  0  0
  7 21  1  0  0  0  0
  8 15  1  0  0  0  0
  8 16  2  0  0  0  0
  9 19  1  0  0  0  0
 10 18  1  0  0  0  0
 11 20  1  0  0  0  0
 13 14  1  0  0  0  0
 13 12  2  0  0  0  0
 15 13  1  1  0  0  0
 17 19  2  0  0  0  0
 17 15  1  0  0  0  0
 18  2  1  0  0  0  0
 18  9  2  0  0  0  0
 20 21  2  0  0  0  0
 20  2  1  0  0  0  0
 21  8  1  0  0  0  0
 22  6  1  0  0  0  0
 23 11  1  0  0  0  0
 23 10  1  0  0  0  0
 24 23  1  0  0  0  0
 25  1  1  0  0  0  0
 27  4  1  0  0  0  0
 27 25  1  0  0  0  0
 27 28  1  6  0  0  0
 29 28  1  0  0  0  0
 30 28  1  0  0  0  0
M  END
>  <CHROM.1>
81.34495627,0.59710815,137.76091917,61.63418224,65.57176699,25.01796669,42.47141899
26.14580263,-2.13677789,-0.18051437,-2.40135600

>  <Name>
lig.pdb

>  <RI>
0

>  <Rbt.Current_Directory>
/home/itssahil/PROJECTS/Mol_Feturizer/New_Systems/rnas/6bfb

>  <Rbt.Executable>
rbdock ($Id: //depot/dev/client3/rdock/2013.1/src/exe/rbdock.cxx#4 $)

>  <Rbt.Library>
libRbt.so (2013.1, Build901 2013/11/27)

>  <Rbt.Parameter_File>
/export/apps/rDock/src/rDock_2013.1_src/data/scripts/dock_solv.prm

>  <Rbt.Receptor>
prm/pocket_docking_7.prm

>  <SCORE>
-30.8666

>  <SCORE.INTER>
-24.6691

>  <SCORE.INTER.CONST>
1

>  <SCORE.INTER.POLAR>
0

>  <SCORE.INTER.ROT>
3

>  <SCORE.INTER.SOLV>
11.3776

>  <SCORE.INTER.VDW>
-25.8386

>  <SCORE.INTER.norm>
-0.822305

>  <SCORE.INTRA>
-6.19749

>  <SCORE.INTRA.DIHEDRAL>
-7.54078

>  <SCORE.INTRA.DIHEDRAL.0>
9.41909

>  <SCORE.INTRA.POLAR>
0

>  <SCORE.INTRA.POLAR.0>
0

>  <SCORE.INTRA.REPUL>
0

>  <SCORE.INTRA.REPUL.0>
0

>  <SCORE.INTRA.SOLV>
-0.116671

>  <SCORE.INTRA.SOLV.lig_0>
-26.2491

>  <SCORE.INTRA.VDW>
-2.36876

>  <SCORE.INTRA.VDW.0>
2.57239

>  <SCORE.INTRA.norm>
-0.206583

>  <SCORE.RESTR>
0

>  <SCORE.RESTR.CAVITY>
0

>  <SCORE.RESTR.norm>
0

>  <SCORE.SYSTEM>
0

>  <SCORE.SYSTEM.CONST>
0

>  <SCORE.SYSTEM.DIHEDRAL>
0

>  <SCORE.SYSTEM.SOLV>
0

>  <SCORE.SYSTEM.norm>
0

>  <SCORE.heavy>
30

>  <SCORE.norm>
-1.02889

>  <RMSD>
9.067

$$$$
lig.pdb
 OpenBabel11021811523D
libRbt.so/2013.1/901 2013/11/27
 30 34  0  0  0  0  0  0  0  0999 V2000
   24.9418   44.3602   28.3076 N   0  0  0  0  0  0  0  0  0  0  0  0
   24.7126   40.8102   24.8649 N   0  0  0  0  0  0  0  0  0  0  0  0
   24.8018   45.7914   28.0221 C   0  0  0  0  0  0  0  0  0  0  0  0
   23.9112   46.2494   29.1673 C   0  0  2  0  0  0  0  0  0  0  0  0
   25.5972   43.4768   27.3497 C   0  0  0  0  0  0  0  0  0  0  0  0
   26.9905   43.4546   27.1353 C   0  0  0  0  0  0  0  0  0  0  0  0
   27.6075   42.6449   26.2146 C   0  0  0  0  0  0  0  0  0  0  0  0
   27.5121   40.9435   24.3898 C   0  0  0  0  0  0  0  0  0  0  0  0
   22.8479   39.6276   24.3679 C   0  0  0  0  0  0  0  0  0  0  0  0
   22.8531   41.2712   26.3729 C   0  0  0  0  0  0  0  0  0  0  0  0
   24.8232   42.5801   26.5603 C   0  0  0  0  0  0  0  0  0  0  0  0
   26.7210   39.2809   21.3546 O   0  0  0  0  0  0  0  0  0  0  0  0
   27.1988   39.2517   22.4908 C   0  0  0  0  0  0  0  0  0  0  0  0
   28.2340   38.4848   22.8105 O   0  0  0  0  0  0  0  0  0  0  0  0
   26.6155   40.0753   23.5830 C   0  0  1  0  0  0  0  0  0  0  0  0
   28.7395   40.9504   24.2471 O   0  0  0  0  0  0  0  0  0  0  0  0
   25.2369   40.0125   23.8506 C   0  0  0  0  0  0  0  0  0  0  0  0
   23.3660   40.5645   25.1680 C   0  0  0  0  0  0  0  0  0  0  0  0
   23.9892   39.0011   23.2516 S   0  0  0  0  0  0  0  0  0  0  0  0
   25.4599   41.7301   25.6277 C   0  0  0  0  0  0  0  0  0  0  0  0
   26.8483   41.7783   25.4286 C   0  0  0  0  0  0  0  0  0  0  0  0
   27.7769   44.2493   27.8886 F   0  0  0  0  0  0  0  0  0  0  0  0
   23.4224   42.5779   26.6495 N   0  0  0  0  0  0  0  0  0  0  0  0
   22.8523   43.6793   25.9033 C   0  0  0  0  0  0  0  0  0  0  0  0
   23.8718   43.8817   29.1756 C   0  0  0  0  0  0  0  0  0  0  0  0
   24.5263   47.2897   29.9284 O   0  0  0  0  0  0  0  0  0  0  0  0
   23.7794   45.0662   30.1227 C   0  0  2  0  0  0  0  0  0  0  0  0
   22.5162   45.2140   30.8706 N   0  0  0  0  0  0  0  0  0  0  0  0
   21.2896   45.1239   30.0578 C   0  0  0  0  0  0  0  0  0  0  0  0
   22.4534   44.3709   32.0743 C   0  0  0  0  0  0  0  0  0  0  0  0
  1  5  1  0  0  0  0
  2 17  1  0  0  0  0
  3  1  1  0  0  0  0
  4  3  1  0  0  0  0
  4 26  1  1  0  0  0
  5 11  2  0  0  0  0
  5  6  1  0  0  0  0
  6  7  2  0  0  0  0
  7 21  1  0  0  0  0
  8 15  1  0  0  0  0
  8 16  2  0  0  0  0
  9 19  1  0  0  0  0
 10 18  1  0  0  0  0
 11 20  1  0  0  0  0
 13 14  1  0  0  0  0
 13 12  2  0  0  0  0
 15 13  1  1  0  0  0
 17 19  2  0  0  0  0
 17 15  1  0  0  0  0
 18  2  1  0  0  0  0
 18  9  2  0  0  0  0
 20 21  2  0  0  0  0
 20  2  1  0  0  0  0
 21  8  1  0  0  0  0
 22  6  1  0  0  0  0
 23 11  1  0  0  0  0
 23 10  1  0  0  0  0
 24 23  1  0  0  0  0
 25  1  1  0  0  0  0
 27  4  1  0  0  0  0
 27 25  1  0  0  0  0
 27 28  1  6  0  0  0
 29 28  1  0  0  0  0
 30 28  1  0  0  0  0
M  END
>  <CHROM.1>
73.82716230,0.09599090,-128.91058826,177.24199316,65.23744004,25.02510805
42.36928531,26.35426768,-1.87990825,-0.20641216,-2.35030656

>  <Name>
lig.pdb

>  <RI>
0

>  <Rbt.Current_Directory>
/home/itssahil/PROJECTS/Mol_Feturizer/New_Systems/rnas/6bfb

>  <Rbt.Executable>
rbdock ($Id: //depot/dev/client3/rdock/2013.1/src/exe/rbdock.cxx#4 $)

>  <Rbt.Library>
libRbt.so (2013.1, Build901 2013/11/27)

>  <Rbt.Parameter_File>
/export/apps/rDock/src/rDock_2013.1_src/data/scripts/dock_solv.prm

>  <Rbt.Receptor>
prm/pocket_docking_7.prm

>  <SCORE>
-30.717

>  <SCORE.INTER>
-24.5583

>  <SCORE.INTER.CONST>
1

>  <SCORE.INTER.POLAR>
0

>  <SCORE.INTER.ROT>
3

>  <SCORE.INTER.SOLV>
10.4777

>  <SCORE.INTER.VDW>
-25.4647

>  <SCORE.INTER.norm>
-0.818609

>  <SCORE.INTRA>
-6.16604

>  <SCORE.INTRA.DIHEDRAL>
-7.51191

>  <SCORE.INTRA.DIHEDRAL.0>
9.41909

>  <SCORE.INTRA.POLAR>
0

>  <SCORE.INTRA.POLAR.0>
0

>  <SCORE.INTRA.REPUL>
0

>  <SCORE.INTRA.REPUL.0>
0

>  <SCORE.INTRA.SOLV>
-0.0794236

>  <SCORE.INTRA.SOLV.lig_0>
-26.2491

>  <SCORE.INTRA.VDW>
-2.37037

>  <SCORE.INTRA.VDW.0>
2.57239

>  <SCORE.INTRA.norm>
-0.205535

>  <SCORE.RESTR>
0.00730455

>  <SCORE.RESTR.CAVITY>
0.00730455

>  <SCORE.RESTR.norm>
0.000243485

>  <SCORE.SYSTEM>
0

>  <SCORE.SYSTEM.CONST>
0

>  <SCORE.SYSTEM.DIHEDRAL>
0

>  <SCORE.SYSTEM.SOLV>
0

>  <SCORE.SYSTEM.norm>
0

>  <SCORE.heavy>
30

>  <SCORE.norm>
-1.0239

>  <RMSD>
9.274

$$$$
lig.pdb
 OpenBabel11021811523D
libRbt.so/2013.1/901 2013/11/27
 30 34  0  0  0  0  0  0  0  0999 V2000
   24.9545   44.4539   28.3602 N   0  0  0  0  0  0  0  0  0  0  0  0
   24.7894   40.9105   24.9071 N   0  0  0  0  0  0  0  0  0  0  0  0
   24.7724   45.8754   28.0507 C   0  0  0  0  0  0  0  0  0  0  0  0
   23.8774   46.3285   29.1944 C   0  0  2  0  0  0  0  0  0  0  0  0
   25.6276   43.5723   27.4130 C   0  0  0  0  0  0  0  0  0  0  0  0
   27.0247   43.5503   27.2247 C   0  0  0  0  0  0  0  0  0  0  0  0
   27.6588   42.7424   26.3141 C   0  0  0  0  0  0  0  0  0  0  0  0
   27.5973   41.0444   24.4846 C   0  0  0  0  0  0  0  0  0  0  0  0
   22.9343   39.7291   24.3731 C   0  0  0  0  0  0  0  0  0  0  0  0
   22.9022   41.3689   26.3809 C   0  0  0  0  0  0  0  0  0  0  0  0
   24.8685   42.6772   26.6076 C   0  0  0  0  0  0  0  0  0  0  0  0
   28.3415   38.6973   22.7799 O   0  0  0  0  0  0  0  0  0  0  0  0
   27.3195   39.3563   22.5768 C   0  0  0  0  0  0  0  0  0  0  0  0
   26.7132   39.3880   21.3964 O   0  0  0  0  0  0  0  0  0  0  0  0
   26.7159   40.1779   23.6596 C   0  0  1  0  0  0  0  0  0  0  0  0
   28.8272   41.0514   24.3649 O   0  0  0  0  0  0  0  0  0  0  0  0
   25.3326   40.1147   23.9012 C   0  0  0  0  0  0  0  0  0  0  0  0
   23.4374   40.6643   25.1845 C   0  0  0  0  0  0  0  0  0  0  0  0
   24.0962   39.1046   23.2771 S   0  0  0  0  0  0  0  0  0  0  0  0
   25.5225   41.8289   25.6855 C   0  0  0  0  0  0  0  0  0  0  0  0
   26.9143   41.8773   25.5124 C   0  0  0  0  0  0  0  0  0  0  0  0
   27.7969   44.3435   27.9941 F   0  0  0  0  0  0  0  0  0  0  0  0
   23.4663   42.6750   26.6706 N   0  0  0  0  0  0  0  0  0  0  0  0
   22.9103   43.7779   25.9160 C   0  0  0  0  0  0  0  0  0  0  0  0
   23.9046   43.9612   29.2446 C   0  0  0  0  0  0  0  0  0  0  0  0
   24.4685   47.3990   29.9324 O   0  0  0  0  0  0  0  0  0  0  0  0
   23.7857   45.1593   30.1715 C   0  0  2  0  0  0  0  0  0  0  0  0
   22.5242   45.2850   30.9262 N   0  0  0  0  0  0  0  0  0  0  0  0
   21.2950   45.1221   30.1288 C   0  0  0  0  0  0  0  0  0  0  0  0
   22.5033   44.4811   32.1579 C   0  0  0  0  0  0  0  0  0  0  0  0
  1  5  1  0  0  0  0
  2 17  1  0  0  0  0
  3  1  1  0  0  0  0
  4  3  1  0  0  0  0
  4 26  1  1  0  0  0
  5 11  2  0  0  0  0
  5  6  1  0  0  0  0
  6  7  2  0  0  0  0
  7 21  1  0  0  0  0
  8 15  1  0  0  0  0
  8 16  2  0  0  0  0
  9 19  1  0  0  0  0
 10 18  1  0  0  0  0
 11 20  1  0  0  0  0
 13 14  1  0  0  0  0
 13 12  2  0  0  0  0
 15 13  1  1  0  0  0
 17 19  2  0  0  0  0
 17 15  1  0  0  0  0
 18  2  1  0  0  0  0
 18  9  2  0  0  0  0
 20 21  2  0  0  0  0
 20  2  1  0  0  0  0
 21  8  1  0  0  0  0
 22  6  1  0  0  0  0
 23 11  1  0  0  0  0
 23 10  1  0  0  0  0
 24 23  1  0  0  0  0
 25  1  1  0  0  0  0
 27  4  1  0  0  0  0
 27 25  1  0  0  0  0
 27 28  1  6  0  0  0
 29 28  1  0  0  0  0
 30 28  1  0  0  0  0
M  END
>  <CHROM.1>
76.29381192,0.21102431,46.17905025,63.87757979,66.29255290,25.07052347,42.47038282
26.39837751,-1.88575950,-0.20176303,-2.34550359

>  <Name>
lig.pdb

>  <RI>
0

>  <Rbt.Current_Directory>
/home/itssahil/PROJECTS/Mol_Feturizer/New_Systems/rnas/6bfb

>  <Rbt.Executable>
rbdock ($Id: //depot/dev/client3/rdock/2013.1/src/exe/rbdock.cxx#4 $)

>  <Rbt.Library>
libRbt.so (2013.1, Build901 2013/11/27)

>  <Rbt.Parameter_File>
/export/apps/rDock/src/rDock_2013.1_src/data/scripts/dock_solv.prm

>  <Rbt.Receptor>
prm/pocket_docking_8.prm

>  <SCORE>
-30.3669

>  <SCORE.INTER>
-24.1801

>  <SCORE.INTER.CONST>
1

>  <SCORE.INTER.POLAR>
0

>  <SCORE.INTER.ROT>
3

>  <SCORE.INTER.SOLV>
10.3831

>  <SCORE.INTER.VDW>
-25.1811

>  <SCORE.INTER.norm>
-0.806003

>  <SCORE.INTRA>
-6.18676

>  <SCORE.INTRA.DIHEDRAL>
-7.45513

>  <SCORE.INTRA.DIHEDRAL.0>
9.41909

>  <SCORE.INTRA.POLAR>
0

>  <SCORE.INTRA.POLAR.0>
0

>  <SCORE.INTRA.REPUL>
0

>  <SCORE.INTRA.REPUL.0>
0

>  <SCORE.INTRA.SOLV>
-0.141071

>  <SCORE.INTRA.SOLV.lig_0>
-26.2491

>  <SCORE.INTRA.VDW>
-2.38866

>  <SCORE.INTRA.VDW.0>
2.57239

>  <SCORE.INTRA.norm>
-0.206225

>  <SCORE.RESTR>
0

>  <SCORE.RESTR.CAVITY>
0

>  <SCORE.RESTR.norm>
0

>  <SCORE.SYSTEM>
0

>  <SCORE.SYSTEM.CONST>
0

>  <SCORE.SYSTEM.DIHEDRAL>
0

>  <SCORE.SYSTEM.SOLV>
0

>  <SCORE.SYSTEM.norm>
0

>  <SCORE.heavy>
30

>  <SCORE.norm>
-1.01223

>  <RMSD>
9.303

$$$$
lig.pdb
 OpenBabel11021811523D
libRbt.so/2013.1/901 2013/11/27
 30 34  0  0  0  0  0  0  0  0999 V2000
   26.1847   39.3224   19.8572 N   0  0  0  0  0  0  0  0  0  0  0  0
   25.8515   34.7785   17.9209 N   0  0  0  0  0  0  0  0  0  0  0  0
   24.9194   39.6304   20.5307 C   0  0  0  0  0  0  0  0  0  0  0  0
   25.3983   40.4067   21.7482 C   0  0  2  0  0  0  0  0  0  0  0  0
   26.2092   38.4289   18.7045 C   0  0  0  0  0  0  0  0  0  0  0  0
   26.4214   38.8676   17.3815 C   0  0  0  0  0  0  0  0  0  0  0  0
   26.4167   38.0334   16.2915 C   0  0  0  0  0  0  0  0  0  0  0  0
   26.1327   35.7719   15.2723 C   0  0  0  0  0  0  0  0  0  0  0  0
   25.7603   32.8722   19.1376 C   0  0  0  0  0  0  0  0  0  0  0  0
   26.1896   35.1457   20.3073 C   0  0  0  0  0  0  0  0  0  0  0  0
   26.0013   37.0317   18.8800 C   0  0  0  0  0  0  0  0  0  0  0  0
   24.7967   33.4874   13.6161 O   0  0  0  0  0  0  0  0  0  0  0  0
   25.7329   33.3912   14.4126 C   0  0  0  0  0  0  0  0  0  0  0  0
   26.6579   32.4441   14.3161 O   0  0  0  0  0  0  0  0  0  0  0  0
   25.8628   34.3376   15.5523 C   0  0  1  0  0  0  0  0  0  0  0  0
   26.3367   36.2020   14.1320 O   0  0  0  0  0  0  0  0  0  0  0  0
   25.7471   33.8677   16.8722 C   0  0  0  0  0  0  0  0  0  0  0  0
   25.8854   34.2014   19.1981 C   0  0  0  0  0  0  0  0  0  0  0  0
   25.6303   32.2891   17.5300 S   0  0  0  0  0  0  0  0  0  0  0  0
   26.0184   36.1689   17.7607 C   0  0  0  0  0  0  0  0  0  0  0  0
   26.1960   36.6666   16.4606 C   0  0  0  0  0  0  0  0  0  0  0  0
   26.6705   40.1742   17.1620 F   0  0  0  0  0  0  0  0  0  0  0  0
   25.7110   36.5073   20.1493 N   0  0  0  0  0  0  0  0  0  0  0  0
   24.3235   36.7270   20.4976 C   0  0  0  0  0  0  0  0  0  0  0  0
   27.3140   39.4104   20.7760 C   0  0  0  0  0  0  0  0  0  0  0  0
   24.8097   41.7067   21.8080 O   0  0  0  0  0  0  0  0  0  0  0  0
   26.8945   40.6431   21.5590 C   0  0  2  0  0  0  0  0  0  0  0  0
   27.5072   40.8177   22.8897 N   0  0  0  0  0  0  0  0  0  0  0  0
   27.4356   39.6408   23.7746 C   0  0  0  0  0  0  0  0  0  0  0  0
   28.8590   41.3950   22.8340 C   0  0  0  0  0  0  0  0  0  0  0  0
  1  5  1  0  0  0  0
  2 17  1  0  0  0  0
  3  1  1  0  0  0  0
  4  3  1  0  0  0  0
  4 26  1  6  0  0  0
  5 11  2  0  0  0  0
  5  6  1  0  0  0  0
  6  7  2  0  0  0  0
  7 21  1  0  0  0  0
  8 15  1  0  0  0  0
  8 16  2  0  0  0  0
  9 19  1  0  0  0  0
 10 18  1  0  0  0  0
 11 20  1  0  0  0  0
 13 14  1  0  0  0  0
 13 12  2  0  0  0  0
 15 13  1  1  0  0  0
 17 19  2  0  0  0  0
 17 15  1  0  0  0  0
 18  2  1  0  0  0  0
 18  9  2  0  0  0  0
 20 21  2  0  0  0  0
 20  2  1  0  0  0  0
 21  8  1  0  0  0  0
 22  6  1  0  0  0  0
 23 11  1  0  0  0  0
 23 10  1  0  0  0  0
 24 23  1  0  0  0  0
 25  1  1  0  0  0  0
 27  4  1  0  0  0  0
 27 25  1  0  0  0  0
 27 28  1  1  0  0  0
 29 28  1  0  0  0  0
 30 28  1  0  0  0  0
M  END
>  <CHROM.1>
107.45132447,179.60098609,-65.81139511,45.23418993,63.77953348,26.11306344
36.88616015,18.54912819,-0.65218283,-1.45724108,-1.49698140

>  <Name>
lig.pdb

>  <RI>
0

>  <Rbt.Current_Directory>
/home/itssahil/PROJECTS/Mol_Feturizer/New_Systems/rnas/6bfb

>  <Rbt.Executable>
rbdock ($Id: //depot/dev/client3/rdock/2013.1/src/exe/rbdock.cxx#4 $)

>  <Rbt.Library>
libRbt.so (2013.1, Build901 2013/11/27)

>  <Rbt.Parameter_File>
/export/apps/rDock/src/rDock_2013.1_src/data/scripts/dock_solv.prm

>  <Rbt.Receptor>
prm/blind_docking_100.prm

>  <SCORE>
-16.4032

>  <SCORE.INTER>
-12.5082

>  <SCORE.INTER.CONST>
1

>  <SCORE.INTER.POLAR>
-0.89442

>  <SCORE.INTER.ROT>
3

>  <SCORE.INTER.SOLV>
12.9981

>  <SCORE.INTER.VDW>
-15.2901

>  <SCORE.INTER.norm>
-0.416939

>  <SCORE.INTRA>
-3.89502

>  <SCORE.INTRA.DIHEDRAL>
-6.59659

>  <SCORE.INTRA.DIHEDRAL.0>
9.41909

>  <SCORE.INTRA.POLAR>
0

>  <SCORE.INTRA.POLAR.0>
0

>  <SCORE.INTRA.REPUL>
0

>  <SCORE.INTRA.REPUL.0>
0

>  <SCORE.INTRA.SOLV>
-0.223778

>  <SCORE.INTRA.SOLV.lig_0>
-26.2491

>  <SCORE.INTRA.VDW>
-0.48484

>  <SCORE.INTRA.VDW.0>
2.57239

>  <SCORE.INTRA.norm>
-0.129834

>  <SCORE.RESTR>
0

>  <SCORE.RESTR.CAVITY>
0

>  <SCORE.RESTR.norm>
0

>  <SCORE.SYSTEM>
0

>  <SCORE.SYSTEM.CONST>
0

>  <SCORE.SYSTEM.DIHEDRAL>
0

>  <SCORE.SYSTEM.SOLV>
0

>  <SCORE.SYSTEM.norm>
0

>  <SCORE.heavy>
30

>  <SCORE.norm>
-0.546773

>  <RMSD>
9.425

$$$$
lig.pdb
 OpenBabel11021811523D
libRbt.so/2013.1/901 2013/11/27
 30 34  0  0  0  0  0  0  0  0999 V2000
   24.4710   44.6854   28.6101 N   0  0  0  0  0  0  0  0  0  0  0  0
   25.6367   41.5701   24.9436 N   0  0  0  0  0  0  0  0  0  0  0  0
   24.7207   44.6391   30.0541 C   0  0  0  0  0  0  0  0  0  0  0  0
   23.5734   45.4802   30.5932 C   0  0  2  0  0  0  0  0  0  0  0  0
   25.4446   44.1340   27.6744 C   0  0  0  0  0  0  0  0  0  0  0  0
   26.7895   44.5521   27.6110 C   0  0  0  0  0  0  0  0  0  0  0  0
   27.7009   44.0556   26.7128 C   0  0  0  0  0  0  0  0  0  0  0  0
   28.2878   42.5833   24.7836 C   0  0  0  0  0  0  0  0  0  0  0  0
   24.2762   39.9335   24.1734 C   0  0  0  0  0  0  0  0  0  0  0  0
   23.6066   41.3069   26.2678 C   0  0  0  0  0  0  0  0  0  0  0  0
   25.0538   43.1242   26.7504 C   0  0  0  0  0  0  0  0  0  0  0  0
   28.9008   39.8558   22.6413 O   0  0  0  0  0  0  0  0  0  0  0  0
   28.6715   41.0616   22.7578 C   0  0  0  0  0  0  0  0  0  0  0  0
   29.2147   41.9721   21.9591 O   0  0  0  0  0  0  0  0  0  0  0  0
   27.7736   41.5653   23.8309 C   0  0  1  0  0  0  0  0  0  0  0  0
   29.4607   42.9724   24.7752 O   0  0  0  0  0  0  0  0  0  0  0  0
   26.4644   41.0659   23.9431 C   0  0  0  0  0  0  0  0  0  0  0  0
   24.4112   40.9034   25.0829 C   0  0  0  0  0  0  0  0  0  0  0  0
   25.6442   39.7869   23.1494 S   0  0  0  0  0  0  0  0  0  0  0  0
   25.9973   42.5965   25.8399 C   0  0  0  0  0  0  0  0  0  0  0  0
   27.3145   43.0785   25.7956 C   0  0  0  0  0  0  0  0  0  0  0  0
   27.2265   45.4722   28.4941 F   0  0  0  0  0  0  0  0  0  0  0  0
   23.7197   42.6924   26.6872 N   0  0  0  0  0  0  0  0  0  0  0  0
   22.9020   43.6362   25.9555 C   0  0  0  0  0  0  0  0  0  0  0  0
   23.6269   45.8191   28.2501 C   0  0  0  0  0  0  0  0  0  0  0  0
   22.7791   44.7489   31.5282 O   0  0  0  0  0  0  0  0  0  0  0  0
   22.6504   45.7738   29.4133 C   0  0  2  0  0  0  0  0  0  0  0  0
   21.9123   47.0182   29.7019 N   0  0  0  0  0  0  0  0  0  0  0  0
   22.7369   48.2386   29.7655 C   0  0  0  0  0  0  0  0  0  0  0  0
   20.7185   47.1923   28.8602 C   0  0  0  0  0  0  0  0  0  0  0  0
  1  5  1  0  0  0  0
  2 17  1  0  0  0  0
  3  1  1  0  0  0  0
  4  3  1  0  0  0  0
  4 26  1  1  0  0  0
  5 11  2  0  0  0  0
  5  6  1  0  0  0  0
  6  7  2  0  0  0  0
  7 21  1  0  0  0  0
  8 15  1  0  0  0  0
  8 16  2  0  0  0  0
  9 19  1  0  0  0  0
 10 18  1  0  0  0  0
 11 20  1  0  0  0  0
 13 14  1  0  0  0  0
 13 12  2  0  0  0  0
 15 13  1  1  0  0  0
 17 19  2  0  0  0  0
 17 15  1  0  0  0  0
 18  2  1  0  0  0  0
 18  9  2  0  0  0  0
 20 21  2  0  0  0  0
 20  2  1  0  0  0  0
 21  8  1  0  0  0  0
 22  6  1  0  0  0  0
 23 11  1  0  0  0  0
 23 10  1  0  0  0  0
 24 23  1  0  0  0  0
 25  1  1  0  0  0  0
 27  4  1  0  0  0  0
 27 25  1  0  0  0  0
 27 28  1  1  0  0  0
 29 28  1  0  0  0  0
 30 28  1  0  0  0  0
M  END
>  <CHROM.1>
-57.20417761,-0.90281324,123.78376287,62.77538925,66.22750319,25.40043435
43.29351556,26.45846558,-2.09792023,-0.22491276,-2.38443064

>  <Name>
lig.pdb

>  <RI>
0

>  <Rbt.Current_Directory>
/home/itssahil/PROJECTS/Mol_Feturizer/New_Systems/rnas/6bfb

>  <Rbt.Executable>
rbdock ($Id: //depot/dev/client3/rdock/2013.1/src/exe/rbdock.cxx#4 $)

>  <Rbt.Library>
libRbt.so (2013.1, Build901 2013/11/27)

>  <Rbt.Parameter_File>
/export/apps/rDock/src/rDock_2013.1_src/data/scripts/dock_solv.prm

>  <Rbt.Receptor>
prm/pocket_docking_8.prm

>  <SCORE>
-33.2134

>  <SCORE.INTER>
-27.3758

>  <SCORE.INTER.CONST>
1

>  <SCORE.INTER.POLAR>
-0.73759

>  <SCORE.INTER.ROT>
3

>  <SCORE.INTER.SOLV>
9.93903

>  <SCORE.INTER.VDW>
-24.7049

>  <SCORE.INTER.norm>
-0.912528

>  <SCORE.INTRA>
-5.83755

>  <SCORE.INTRA.DIHEDRAL>
-7.47604

>  <SCORE.INTRA.DIHEDRAL.0>
9.41909

>  <SCORE.INTRA.POLAR>
0

>  <SCORE.INTRA.POLAR.0>
0

>  <SCORE.INTRA.REPUL>
0.0902508

>  <SCORE.INTRA.REPUL.0>
0

>  <SCORE.INTRA.SOLV>
-0.283532

>  <SCORE.INTRA.SOLV.lig_0>
-26.2491

>  <SCORE.INTRA.VDW>
-2.40902

>  <SCORE.INTRA.VDW.0>
2.57239

>  <SCORE.INTRA.norm>
-0.194585

>  <SCORE.RESTR>
0

>  <SCORE.RESTR.CAVITY>
0

>  <SCORE.RESTR.norm>
0

>  <SCORE.SYSTEM>
0

>  <SCORE.SYSTEM.CONST>
0

>  <SCORE.SYSTEM.DIHEDRAL>
0

>  <SCORE.SYSTEM.SOLV>
0

>  <SCORE.SYSTEM.norm>
0

>  <SCORE.heavy>
30

>  <SCORE.norm>
-1.10711

>  <RMSD>
9.498

$$$$
lig.pdb
 OpenBabel11021811523D
libRbt.so/2013.1/901 2013/11/27
 30 34  0  0  0  0  0  0  0  0999 V2000
   23.8272   44.5357   28.9362 N   0  0  0  0  0  0  0  0  0  0  0  0
   24.9383   41.3380   25.3242 N   0  0  0  0  0  0  0  0  0  0  0  0
   23.8065   44.2976   30.3827 C   0  0  0  0  0  0  0  0  0  0  0  0
   22.7867   45.3251   30.8504 C   0  0  2  0  0  0  0  0  0  0  0  0
   24.8101   43.8661   28.0917 C   0  0  0  0  0  0  0  0  0  0  0  0
   26.1988   44.0925   28.1807 C   0  0  0  0  0  0  0  0  0  0  0  0
   27.1240   43.4855   27.3686 C   0  0  0  0  0  0  0  0  0  0  0  0
   27.7056   41.9719   25.4700 C   0  0  0  0  0  0  0  0  0  0  0  0
   23.4556   39.9187   24.3703 C   0  0  0  0  0  0  0  0  0  0  0  0
   22.7613   41.3438   26.4217 C   0  0  0  0  0  0  0  0  0  0  0  0
   24.3851   42.9337   27.1038 C   0  0  0  0  0  0  0  0  0  0  0  0
   28.7192   41.1430   22.6596 O   0  0  0  0  0  0  0  0  0  0  0  0
   28.0906   40.4390   23.4529 C   0  0  0  0  0  0  0  0  0  0  0  0
   28.1881   39.1153   23.4650 O   0  0  0  0  0  0  0  0  0  0  0  0
   27.1609   41.0490   24.4404 C   0  0  1  0  0  0  0  0  0  0  0  0
   28.9149   42.1929   25.5949 O   0  0  0  0  0  0  0  0  0  0  0  0
   25.7909   40.7364   24.4015 C   0  0  0  0  0  0  0  0  0  0  0  0
   23.6249   40.8477   25.3161 C   0  0  0  0  0  0  0  0  0  0  0  0
   24.8920   39.5959   23.4906 S   0  0  0  0  0  0  0  0  0  0  0  0
   25.3388   42.2914   26.2819 C   0  0  0  0  0  0  0  0  0  0  0  0
   26.7071   42.5847   26.3888 C   0  0  0  0  0  0  0  0  0  0  0  0
   26.6614   44.9303   29.1303 F   0  0  0  0  0  0  0  0  0  0  0  0
   23.0187   42.6939   26.8897 N   0  0  0  0  0  0  0  0  0  0  0  0
   22.4221   43.7528   26.1039 C   0  0  0  0  0  0  0  0  0  0  0  0
   23.3172   45.8616   28.6058 C   0  0  0  0  0  0  0  0  0  0  0  0
   21.7057   44.7109   31.5534 O   0  0  0  0  0  0  0  0  0  0  0  0
   22.1661   45.9325   29.5950 C   0  0  2  0  0  0  0  0  0  0  0  0
   21.6685   47.2802   29.9305 N   0  0  0  0  0  0  0  0  0  0  0  0
   20.4152   47.3133   30.7061 C   0  0  0  0  0  0  0  0  0  0  0  0
   22.7042   48.1544   30.5025 C   0  0  0  0  0  0  0  0  0  0  0  0
  1  5  1  0  0  0  0
  2 17  1  0  0  0  0
  3  1  1  0  0  0  0
  4  3  1  0  0  0  0
  4 26  1  1  0  0  0
  5 11  2  0  0  0  0
  5  6  1  0  0  0  0
  6  7  2  0  0  0  0
  7 21  1  0  0  0  0
  8 15  1  0  0  0  0
  8 16  2  0  0  0  0
  9 19  1  0  0  0  0
 10 18  1  0  0  0  0
 11 20  1  0  0  0  0
 13 14  1  0  0  0  0
 13 12  2  0  0  0  0
 15 13  1  1  0  0  0
 17 19  2  0  0  0  0
 17 15  1  0  0  0  0
 18  2  1  0  0  0  0
 18  9  2  0  0  0  0
 20 21  2  0  0  0  0
 20  2  1  0  0  0  0
 21  8  1  0  0  0  0
 22  6  1  0  0  0  0
 23 11  1  0  0  0  0
 23 10  1  0  0  0  0
 24 23  1  0  0  0  0
 25  1  1  0  0  0  0
 27  4  1  0  0  0  0
 27 25  1  0  0  0  0
 27 28  1  1  0  0  0
 29 28  1  0  0  0  0
 30 28  1  0  0  0  0
M  END
>  <CHROM.1>
-65.09739989,173.89462771,-62.71800859,62.63261963,-75.71126549,24.77983475
43.02794732,26.94500127,-2.05791923,-0.10289297,-2.36313777

>  <Name>
lig.pdb

>  <RI>
0

>  <Rbt.Current_Directory>
/home/itssahil/PROJECTS/Mol_Feturizer/New_Systems/rnas/6bfb

>  <Rbt.Executable>
rbdock ($Id: //depot/dev/client3/rdock/2013.1/src/exe/rbdock.cxx#4 $)

>  <Rbt.Library>
libRbt.so (2013.1, Build901 2013/11/27)

>  <Rbt.Parameter_File>
/export/apps/rDock/src/rDock_2013.1_src/data/scripts/dock_solv.prm

>  <Rbt.Receptor>
prm/pocket_docking_8.prm

>  <SCORE>
-31.4036

>  <SCORE.INTER>
-27.0443

>  <SCORE.INTER.CONST>
1

>  <SCORE.INTER.POLAR>
-1.09545

>  <SCORE.INTER.ROT>
3

>  <SCORE.INTER.SOLV>
9.44861

>  <SCORE.INTER.VDW>
-23.1276

>  <SCORE.INTER.norm>
-0.901476

>  <SCORE.INTRA>
-4.35937

>  <SCORE.INTRA.DIHEDRAL>
-7.25114

>  <SCORE.INTRA.DIHEDRAL.0>
9.41909

>  <SCORE.INTRA.POLAR>
0

>  <SCORE.INTRA.POLAR.0>
0

>  <SCORE.INTRA.REPUL>
0.0966608

>  <SCORE.INTRA.REPUL.0>
0

>  <SCORE.INTRA.SOLV>
-0.0967885

>  <SCORE.INTRA.SOLV.lig_0>
-26.2491

>  <SCORE.INTRA.VDW>
-1.16871

>  <SCORE.INTRA.VDW.0>
2.57239

>  <SCORE.INTRA.norm>
-0.145312

>  <SCORE.RESTR>
0

>  <SCORE.RESTR.CAVITY>
0

>  <SCORE.RESTR.norm>
0

>  <SCORE.SYSTEM>
0

>  <SCORE.SYSTEM.CONST>
0

>  <SCORE.SYSTEM.DIHEDRAL>
0

>  <SCORE.SYSTEM.SOLV>
0

>  <SCORE.SYSTEM.norm>
0

>  <SCORE.heavy>
30

>  <SCORE.norm>
-1.04679

>  <RMSD>
9.726

$$$$
lig.pdb
 OpenBabel11021811523D
libRbt.so/2013.1/901 2013/11/27
 30 34  0  0  0  0  0  0  0  0999 V2000
   28.6009   38.2647   20.0202 N   0  0  0  0  0  0  0  0  0  0  0  0
   29.6260   34.9329   16.5051 N   0  0  0  0  0  0  0  0  0  0  0  0
   27.8214   37.4049   20.9160 C   0  0  0  0  0  0  0  0  0  0  0  0
   27.1766   38.4262   21.8410 C   0  0  2  0  0  0  0  0  0  0  0  0
   29.5268   37.6803   19.0565 C   0  0  0  0  0  0  0  0  0  0  0  0
   30.8465   38.1383   18.8657 C   0  0  0  0  0  0  0  0  0  0  0  0
   31.7109   37.6093   17.9400 C   0  0  0  0  0  0  0  0  0  0  0  0
   32.2174   36.0216   16.0808 C   0  0  0  0  0  0  0  0  0  0  0  0
   28.2797   33.1993   15.9530 C   0  0  0  0  0  0  0  0  0  0  0  0
   27.7064   34.6976   17.9896 C   0  0  0  0  0  0  0  0  0  0  0  0
   29.1117   36.5934   18.2365 C   0  0  0  0  0  0  0  0  0  0  0  0
   33.4672   33.6250   14.3889 O   0  0  0  0  0  0  0  0  0  0  0  0
   32.5164   34.3707   14.1438 C   0  0  0  0  0  0  0  0  0  0  0  0
   32.1970   34.7381   12.9089 O   0  0  0  0  0  0  0  0  0  0  0  0
   31.6774   34.9202   15.2419 C   0  0  1  0  0  0  0  0  0  0  0  0
   33.3705   36.4488   15.9593 O   0  0  0  0  0  0  0  0  0  0  0  0
   30.4000   34.3859   15.4844 C   0  0  0  0  0  0  0  0  0  0  0  0
   28.4405   34.2368   16.7801 C   0  0  0  0  0  0  0  0  0  0  0  0
   29.5766   33.0255   14.8444 S   0  0  0  0  0  0  0  0  0  0  0  0
   30.0084   36.0334   17.2985 C   0  0  0  0  0  0  0  0  0  0  0  0
   31.2994   36.5555   17.1242 C   0  0  0  0  0  0  0  0  0  0  0  0
   31.3084   39.1345   19.6478 F   0  0  0  0  0  0  0  0  0  0  0  0
   27.7944   36.1129   18.3016 N   0  0  0  0  0  0  0  0  0  0  0  0
   26.8907   36.9726   17.5675 C   0  0  0  0  0  0  0  0  0  0  0  0
   28.8482   39.5725   20.6166 C   0  0  0  0  0  0  0  0  0  0  0  0
   25.7521   38.3235   21.8264 O   0  0  0  0  0  0  0  0  0  0  0  0
   27.4937   39.8038   21.2650 C   0  0  2  0  0  0  0  0  0  0  0  0
   27.4496   40.7863   22.3647 N   0  0  0  0  0  0  0  0  0  0  0  0
   28.4318   40.5690   23.4424 C   0  0  0  0  0  0  0  0  0  0  0  0
   27.4320   42.1804   21.8959 C   0  0  0  0  0  0  0  0  0  0  0  0
  1  5  1  0  0  0  0
  2 17  1  0  0  0  0
  3  1  1  0  0  0  0
  4  3  1  0  0  0  0
  4 26  1  6  0  0  0
  5 11  2  0  0  0  0
  5  6  1  0  0  0  0
  6  7  2  0  0  0  0
  7 21  1  0  0  0  0
  8 15  1  0  0  0  0
  8 16  2  0  0  0  0
  9 19  1  0  0  0  0
 10 18  1  0  0  0  0
 11 20  1  0  0  0  0
 13 14  1  0  0  0  0
 13 12  2  0  0  0  0
 15 13  1  1  0  0  0
 17 19  2  0  0  0  0
 17 15  1  0  0  0  0
 18  2  1  0  0  0  0
 18  9  2  0  0  0  0
 20 21  2  0  0  0  0
 20  2  1  0  0  0  0
 21  8  1  0  0  0  0
 22  6  1  0  0  0  0
 23 11  1  0  0  0  0
 23 10  1  0  0  0  0
 24 23  1  0  0  0  0
 25  1  1  0  0  0  0
 27  4  1  0  0  0  0
 27 25  1  0  0  0  0
 27 28  1  1  0  0  0
 29 28  1  0  0  0  0
 30 28  1  0  0  0  0
M  END
>  <CHROM.1>
-133.09000103,-5.93731481,75.13062026,59.27509812,61.91873034,29.56578517
36.72686591,18.05495394,-1.99258160,-0.39066463,-2.41818688

>  <Name>
lig.pdb

>  <RI>
0

>  <Rbt.Current_Directory>
/home/itssahil/PROJECTS/Mol_Feturizer/New_Systems/rnas/6bfb

>  <Rbt.Executable>
rbdock ($Id: //depot/dev/client3/rdock/2013.1/src/exe/rbdock.cxx#4 $)

>  <Rbt.Library>
libRbt.so (2013.1, Build901 2013/11/27)

>  <Rbt.Parameter_File>
/export/apps/rDock/src/rDock_2013.1_src/data/scripts/dock_solv.prm

>  <Rbt.Receptor>
prm/blind_docking_80.prm

>  <SCORE>
-23.5802

>  <SCORE.INTER>
-18.7938

>  <SCORE.INTER.CONST>
1

>  <SCORE.INTER.POLAR>
-0.986958

>  <SCORE.INTER.ROT>
3

>  <SCORE.INTER.SOLV>
11.2786

>  <SCORE.INTER.VDW>
-18.5989

>  <SCORE.INTER.norm>
-0.626459

>  <SCORE.INTRA>
-4.78638

>  <SCORE.INTRA.DIHEDRAL>
-7.35414

>  <SCORE.INTRA.DIHEDRAL.0>
9.41909

>  <SCORE.INTRA.POLAR>
0

>  <SCORE.INTRA.POLAR.0>
0

>  <SCORE.INTRA.REPUL>
0

>  <SCORE.INTRA.REPUL.0>
0

>  <SCORE.INTRA.SOLV>
-0.232877

>  <SCORE.INTRA.SOLV.lig_0>
-26.2491

>  <SCORE.INTRA.VDW>
-0.992873

>  <SCORE.INTRA.VDW.0>
2.57239

>  <SCORE.INTRA.norm>
-0.159546

>  <SCORE.RESTR>
0

>  <SCORE.RESTR.CAVITY>
0

>  <SCORE.RESTR.norm>
0

>  <SCORE.SYSTEM>
0

>  <SCORE.SYSTEM.CONST>
0

>  <SCORE.SYSTEM.DIHEDRAL>
0

>  <SCORE.SYSTEM.SOLV>
0

>  <SCORE.SYSTEM.norm>
0

>  <SCORE.heavy>
30

>  <SCORE.norm>
-0.786005

>  <RMSD>
10.426

$$$$
lig.pdb
 OpenBabel11021811523D
libRbt.so/2013.1/901 2013/11/27
 30 34  0  0  0  0  0  0  0  0999 V2000
   16.5175   47.3298   15.3388 N   0  0  0  0  0  0  0  0  0  0  0  0
   19.5910   46.6382   19.1575 N   0  0  0  0  0  0  0  0  0  0  0  0
   16.4805   48.3687   14.3050 C   0  0  0  0  0  0  0  0  0  0  0  0
   15.0063   48.3785   13.9294 C   0  0  2  0  0  0  0  0  0  0  0  0
   17.7925   46.8658   15.8741 C   0  0  0  0  0  0  0  0  0  0  0  0
   18.8095   46.2942   15.0823 C   0  0  0  0  0  0  0  0  0  0  0  0
   19.9988   45.8306   15.5868 C   0  0  0  0  0  0  0  0  0  0  0  0
   21.5206   45.3578   17.5089 C   0  0  0  0  0  0  0  0  0  0  0  0
   19.2459   47.4505   21.2417 C   0  0  0  0  0  0  0  0  0  0  0  0
   17.6624   48.1228   19.3021 C   0  0  0  0  0  0  0  0  0  0  0  0
   18.0608   46.9676   17.2683 C   0  0  0  0  0  0  0  0  0  0  0  0
   22.8877   43.7450   20.0796 O   0  0  0  0  0  0  0  0  0  0  0  0
   22.9031   44.8868   19.6145 C   0  0  0  0  0  0  0  0  0  0  0  0
   23.9786   45.6632   19.6635 O   0  0  0  0  0  0  0  0  0  0  0  0
   21.6890   45.4671   18.9814 C   0  0  1  0  0  0  0  0  0  0  0  0
   22.3879   44.8760   16.7723 O   0  0  0  0  0  0  0  0  0  0  0  0
   20.7294   46.1224   19.7725 C   0  0  0  0  0  0  0  0  0  0  0  0
   18.7722   47.4115   19.9926 C   0  0  0  0  0  0  0  0  0  0  0  0
   20.7105   46.5773   21.4251 S   0  0  0  0  0  0  0  0  0  0  0  0
   19.2942   46.5108   17.7855 C   0  0  0  0  0  0  0  0  0  0  0  0
   20.2555   45.9142   16.9552 C   0  0  0  0  0  0  0  0  0  0  0  0
   18.6285   46.2160   13.7487 F   0  0  0  0  0  0  0  0  0  0  0  0
   17.0835   47.4568   18.1491 N   0  0  0  0  0  0  0  0  0  0  0  0
   16.0948   46.4418   18.4441 C   0  0  0  0  0  0  0  0  0  0  0  0
   15.3629   46.4433   15.2467 C   0  0  0  0  0  0  0  0  0  0  0  0
   14.4277   49.6727   14.1037 O   0  0  0  0  0  0  0  0  0  0  0  0
   14.2914   47.4724   14.9284 C   0  0  2  0  0  0  0  0  0  0  0  0
   13.0596   46.9655   14.2940 N   0  0  0  0  0  0  0  0  0  0  0  0
   13.2656   45.9693   13.2269 C   0  0  0  0  0  0  0  0  0  0  0  0
   12.0393   46.5426   15.2655 C   0  0  0  0  0  0  0  0  0  0  0  0
  1  5  1  0  0  0  0
  2 17  1  0  0  0  0
  3  1  1  0  0  0  0
  4  3  1  0  0  0  0
  4 26  1  1  0  0  0
  5 11  2  0  0  0  0
  5  6  1  0  0  0  0
  6  7  2  0  0  0  0
  7 21  1  0  0  0  0
  8 15  1  0  0  0  0
  8 16  2  0  0  0  0
  9 19  1  0  0  0  0
 10 18  1  0  0  0  0
 11 20  1  0  0  0  0
 13 14  1  0  0  0  0
 13 12  2  0  0  0  0
 15 13  1  6  0  0  0
 17 19  2  0  0  0  0
 17 15  1  0  0  0  0
 18  2  1  0  0  0  0
 18  9  2  0  0  0  0
 20 21  2  0  0  0  0
 20  2  1  0  0  0  0
 21  8  1  0  0  0  0
 22  6  1  0  0  0  0
 23 11  1  0  0  0  0
 23 10  1  0  0  0  0
 24 23  1  0  0  0  0
 25  1  1  0  0  0  0
 27  4  1  0  0  0  0
 27 25  1  0  0  0  0
 27 28  1  6  0  0  0
 29 28  1  0  0  0  0
 30 28  1  0  0  0  0
M  END
>  <CHROM.1>
-58.92712299,-172.27276890,-94.25105382,61.29938591,71.54218879,18.35137827
46.59922324,17.21404257,-2.58429535,-0.33843317,1.39702328

>  <Name>
lig.pdb

>  <RI>
0

>  <Rbt.Current_Directory>
/home/itssahil/PROJECTS/Mol_Feturizer/New_Systems/rnas/6bfb

>  <Rbt.Executable>
rbdock ($Id: //depot/dev/client3/rdock/2013.1/src/exe/rbdock.cxx#4 $)

>  <Rbt.Library>
libRbt.so (2013.1, Build901 2013/11/27)

>  <Rbt.Parameter_File>
/export/apps/rDock/src/rDock_2013.1_src/data/scripts/dock_solv.prm

>  <Rbt.Receptor>
prm/blind_docking_80.prm

>  <SCORE>
30.7988

>  <SCORE.INTER>
35.4132

>  <SCORE.INTER.CONST>
1

>  <SCORE.INTER.POLAR>
-0.98788

>  <SCORE.INTER.ROT>
3

>  <SCORE.INTER.SOLV>
27.4313

>  <SCORE.INTER.VDW>
12.158

>  <SCORE.INTER.norm>
1.18044

>  <SCORE.INTRA>
-5.34802

>  <SCORE.INTRA.DIHEDRAL>
-6.93912

>  <SCORE.INTRA.DIHEDRAL.0>
9.41909

>  <SCORE.INTRA.POLAR>
0

>  <SCORE.INTRA.POLAR.0>
0

>  <SCORE.INTRA.REPUL>
0.0928531

>  <SCORE.INTRA.REPUL.0>
0

>  <SCORE.INTRA.SOLV>
-0.361215

>  <SCORE.INTRA.SOLV.lig_0>
-26.2491

>  <SCORE.INTRA.VDW>
-2.16211

>  <SCORE.INTRA.VDW.0>
2.57239

>  <SCORE.INTRA.norm>
-0.178267

>  <SCORE.RESTR>
0.733613

>  <SCORE.RESTR.CAVITY>
0.733613

>  <SCORE.RESTR.norm>
0.0244538

>  <SCORE.SYSTEM>
0

>  <SCORE.SYSTEM.CONST>
0

>  <SCORE.SYSTEM.DIHEDRAL>
0

>  <SCORE.SYSTEM.SOLV>
0

>  <SCORE.SYSTEM.norm>
0

>  <SCORE.heavy>
30

>  <SCORE.norm>
1.02663

>  <RMSD>
12.642

$$$$
lig.pdb
 OpenBabel11021811523D
libRbt.so/2013.1/901 2013/11/27
 30 34  0  0  0  0  0  0  0  0999 V2000
   15.6817   25.8998   16.2963 N   0  0  0  0  0  0  0  0  0  0  0  0
   17.4251   26.2405   11.6755 N   0  0  0  0  0  0  0  0  0  0  0  0
   15.7280   24.4867   16.6842 C   0  0  0  0  0  0  0  0  0  0  0  0
   14.7053   24.4414   17.8095 C   0  0  2  0  0  0  0  0  0  0  0  0
   16.6432   26.4346   15.3387 C   0  0  0  0  0  0  0  0  0  0  0  0
   17.6878   27.3140   15.6899 C   0  0  0  0  0  0  0  0  0  0  0  0
   18.5767   27.8414   14.7868 C   0  0  0  0  0  0  0  0  0  0  0  0
   19.4041   28.1290   12.4487 C   0  0  0  0  0  0  0  0  0  0  0  0
   16.7243   24.9605    9.9455 C   0  0  0  0  0  0  0  0  0  0  0  0
   15.8856   24.4744   12.3500 C   0  0  0  0  0  0  0  0  0  0  0  0
   16.5509   26.0828   13.9625 C   0  0  0  0  0  0  0  0  0  0  0  0
   19.7007   29.3878    9.4070 O   0  0  0  0  0  0  0  0  0  0  0  0
   20.0525   28.3543    9.9798 C   0  0  0  0  0  0  0  0  0  0  0  0
   21.1861   27.7276    9.6896 O   0  0  0  0  0  0  0  0  0  0  0  0
   19.1988   27.7377   11.0299 C   0  0  1  0  0  0  0  0  0  0  0  0
   20.3122   28.8866   12.8070 O   0  0  0  0  0  0  0  0  0  0  0  0
   18.2261   26.7868   10.6754 C   0  0  0  0  0  0  0  0  0  0  0  0
   16.5985   25.1886   11.2563 C   0  0  0  0  0  0  0  0  0  0  0  0
   17.8702   25.9944    9.1976 S   0  0  0  0  0  0  0  0  0  0  0  0
   17.4794   26.6078   13.0353 C   0  0  0  0  0  0  0  0  0  0  0  0
   18.4765   27.5107   13.4355 C   0  0  0  0  0  0  0  0  0  0  0  0
   17.8514   27.6439   16.9868 F   0  0  0  0  0  0  0  0  0  0  0  0
   15.5029   25.2702   13.5024 N   0  0  0  0  0  0  0  0  0  0  0  0
   14.2799   26.0309   13.3591 C   0  0  0  0  0  0  0  0  0  0  0  0
   15.1273   26.7280   17.3612 C   0  0  0  0  0  0  0  0  0  0  0  0
   13.6698   23.4949   17.5413 O   0  0  0  0  0  0  0  0  0  0  0  0
   14.0179   25.8042   17.8347 C   0  0  2  0  0  0  0  0  0  0  0  0
   13.5036   26.0377   19.1977 N   0  0  0  0  0  0  0  0  0  0  0  0
   14.5250   26.0587   20.2605 C   0  0  0  0  0  0  0  0  0  0  0  0
   12.5843   27.1830   19.2818 C   0  0  0  0  0  0  0  0  0  0  0  0
  1  5  1  0  0  0  0
  2 17  1  0  0  0  0
  3  1  1  0  0  0  0
  4  3  1  0  0  0  0
  4 26  1  6  0  0  0
  5 11  2  0  0  0  0
  5  6  1  0  0  0  0
  6  7  2  0  0  0  0
  7 21  1  0  0  0  0
  8 15  1  0  0  0  0
  8 16  2  0  0  0  0
  9 19  1  0  0  0  0
 10 18  1  0  0  0  0
 11 20  1  0  0  0  0
 13 14  1  0  0  0  0
 13 12  2  0  0  0  0
 15 13  1  1  0  0  0
 17 19  2  0  0  0  0
 17 15  1  0  0  0  0
 18  2  1  0  0  0  0
 18  9  2  0  0  0  0
 20 21  2  0  0  0  0
 20  2  1  0  0  0  0
 21  8  1  0  0  0  0
 22  6  1  0  0  0  0
 23 11  1  0  0  0  0
 23 10  1  0  0  0  0
 24 23  1  0  0  0  0
 25  1  1  0  0  0  0
 27  4  1  0  0  0  0
 27 25  1  0  0  0  0
 27 28  1  1  0  0  0
 29 28  1  0  0  0  0
 30 28  1  0  0  0  0
M  END
>  <CHROM.1>
-108.82017807,-177.77140476,-91.05077955,179.82673433,60.62949457,16.86625387
26.47897309,13.96656273,-2.29336377,-0.69662459,-1.88232380

>  <Name>
lig.pdb

>  <RI>
0

>  <Rbt.Current_Directory>
/home/itssahil/PROJECTS/Mol_Feturizer/New_Systems/rnas/6bfb

>  <Rbt.Executable>
rbdock ($Id: //depot/dev/client3/rdock/2013.1/src/exe/rbdock.cxx#4 $)

>  <Rbt.Library>
libRbt.so (2013.1, Build901 2013/11/27)

>  <Rbt.Parameter_File>
/export/apps/rDock/src/rDock_2013.1_src/data/scripts/dock_solv.prm

>  <Rbt.Receptor>
prm/blind_docking_40.prm

>  <SCORE>
2.69581

>  <SCORE.INTER>
-6.51239

>  <SCORE.INTER.CONST>
1

>  <SCORE.INTER.POLAR>
0

>  <SCORE.INTER.ROT>
3

>  <SCORE.INTER.SOLV>
14.9876

>  <SCORE.INTER.VDW>
-14.9375

>  <SCORE.INTER.norm>
-0.21708

>  <SCORE.INTRA>
-5.78867

>  <SCORE.INTRA.DIHEDRAL>
-7.66948

>  <SCORE.INTRA.DIHEDRAL.0>
9.41909

>  <SCORE.INTRA.POLAR>
0

>  <SCORE.INTRA.POLAR.0>
0

>  <SCORE.INTRA.REPUL>
0.0576091

>  <SCORE.INTRA.REPUL.0>
0

>  <SCORE.INTRA.SOLV>
-0.300493

>  <SCORE.INTRA.SOLV.lig_0>
-26.2491

>  <SCORE.INTRA.VDW>
-2.09173

>  <SCORE.INTRA.VDW.0>
2.57239

>  <SCORE.INTRA.norm>
-0.192956

>  <SCORE.RESTR>
14.9969

>  <SCORE.RESTR.CAVITY>
14.9969

>  <SCORE.RESTR.norm>
0.499896

>  <SCORE.SYSTEM>
0

>  <SCORE.SYSTEM.CONST>
0

>  <SCORE.SYSTEM.DIHEDRAL>
0

>  <SCORE.SYSTEM.SOLV>
0

>  <SCORE.SYSTEM.norm>
0

>  <SCORE.heavy>
30

>  <SCORE.norm>
0.0898605

>  <RMSD>
19.707

$$$$
lig.pdb
 OpenBabel11021811523D
libRbt.so/2013.1/901 2013/11/27
 30 34  0  0  0  0  0  0  0  0999 V2000
   15.6799   25.8806   16.2861 N   0  0  0  0  0  0  0  0  0  0  0  0
   17.4137   26.2464   11.6636 N   0  0  0  0  0  0  0  0  0  0  0  0
   15.7297   24.4666   16.6702 C   0  0  0  0  0  0  0  0  0  0  0  0
   14.7076   24.4159   17.7958 C   0  0  2  0  0  0  0  0  0  0  0  0
   16.6397   26.4202   15.3295 C   0  0  0  0  0  0  0  0  0  0  0  0
   17.6856   27.2969   15.6834 C   0  0  0  0  0  0  0  0  0  0  0  0
   18.5729   27.8289   14.7815 C   0  0  0  0  0  0  0  0  0  0  0  0
   19.3955   28.1293   12.4433 C   0  0  0  0  0  0  0  0  0  0  0  0
   16.7083   24.9768    9.9278 C   0  0  0  0  0  0  0  0  0  0  0  0
   15.8744   24.4775   12.3313 C   0  0  0  0  0  0  0  0  0  0  0  0
   16.5442   26.0763   13.9515 C   0  0  0  0  0  0  0  0  0  0  0  0
   21.1019   27.8453    9.6330 O   0  0  0  0  0  0  0  0  0  0  0  0
   20.0388   28.3681    9.9743 C   0  0  0  0  0  0  0  0  0  0  0  0
   19.6028   29.5072    9.4505 O   0  0  0  0  0  0  0  0  0  0  0  0
   19.1869   27.7462   11.0227 C   0  0  1  0  0  0  0  0  0  0  0  0
   20.3049   28.8843   12.8039 O   0  0  0  0  0  0  0  0  0  0  0  0
   18.2128   26.7979   10.6649 C   0  0  0  0  0  0  0  0  0  0  0  0
   16.5854   25.1975   11.2402 C   0  0  0  0  0  0  0  0  0  0  0  0
   17.8532   26.0142    9.1834 S   0  0  0  0  0  0  0  0  0  0  0  0
   17.4711   26.6060   13.0253 C   0  0  0  0  0  0  0  0  0  0  0  0
   18.4696   27.5060   13.4285 C   0  0  0  0  0  0  0  0  0  0  0  0
   17.8522   27.6193   16.9818 F   0  0  0  0  0  0  0  0  0  0  0  0
   15.4947   25.2670   13.4891 N   0  0  0  0  0  0  0  0  0  0  0  0
   14.2719   26.0293   13.3527 C   0  0  0  0  0  0  0  0  0  0  0  0
   15.1241   26.7047   17.3535 C   0  0  0  0  0  0  0  0  0  0  0  0
   13.6742   23.4677   17.5256 O   0  0  0  0  0  0  0  0  0  0  0  0
   14.0170   25.7770   17.8251 C   0  0  2  0  0  0  0  0  0  0  0  0
   13.5029   26.0056   19.1889 N   0  0  0  0  0  0  0  0  0  0  0  0
   14.5182   25.9755   20.2574 C   0  0  0  0  0  0  0  0  0  0  0  0
   12.6218   27.1794   19.2868 C   0  0  0  0  0  0  0  0  0  0  0  0
  1  5  1  0  0  0  0
  2 17  1  0  0  0  0
  3  1  1  0  0  0  0
  4  3  1  0  0  0  0
  4 26  1  6  0  0  0
  5 11  2  0  0  0  0
  5  6  1  0  0  0  0
  6  7  2  0  0  0  0
  7 21  1  0  0  0  0
  8 15  1  0  0  0  0
  8 16  2  0  0  0  0
  9 19  1  0  0  0  0
 10 18  1  0  0  0  0
 11 20  1  0  0  0  0
 13 14  1  0  0  0  0
 13 12  2  0  0  0  0
 15 13  1  1  0  0  0
 17 19  2  0  0  0  0
 17 15  1  0  0  0  0
 18  2  1  0  0  0  0
 18  9  2  0  0  0  0
 20 21  2  0  0  0  0
 20  2  1  0  0  0  0
 21  8  1  0  0  0  0
 22  6  1  0  0  0  0
 23 11  1  0  0  0  0
 23 10  1  0  0  0  0
 24 23  1  0  0  0  0
 25  1  1  0  0  0  0
 27  4  1  0  0  0  0
 27 25  1  0  0  0  0
 27 28  1  1  0  0  0
 29 28  1  0  0  0  0
 30 28  1  0  0  0  0
M  END
>  <CHROM.1>
-108.56108692,177.95359607,90.33426582,60.13564476,58.41916157,16.85132631
26.48405733,13.95436129,-2.29408230,-0.71281618,-1.87936591

>  <Name>
lig.pdb

>  <RI>
0

>  <Rbt.Current_Directory>
/home/itssahil/PROJECTS/Mol_Feturizer/New_Systems/rnas/6bfb

>  <Rbt.Executable>
rbdock ($Id: //depot/dev/client3/rdock/2013.1/src/exe/rbdock.cxx#4 $)

>  <Rbt.Library>
libRbt.so (2013.1, Build901 2013/11/27)

>  <Rbt.Parameter_File>
/export/apps/rDock/src/rDock_2013.1_src/data/scripts/dock_solv.prm

>  <Rbt.Receptor>
prm/blind_docking_40.prm

>  <SCORE>
1.49756

>  <SCORE.INTER>
-7.91169

>  <SCORE.INTER.CONST>
1

>  <SCORE.INTER.POLAR>
-0.184845

>  <SCORE.INTER.ROT>
3

>  <SCORE.INTER.SOLV>
15.5678

>  <SCORE.INTER.VDW>
-15.4476

>  <SCORE.INTER.norm>
-0.263723

>  <SCORE.INTRA>
-5.5759

>  <SCORE.INTRA.DIHEDRAL>
-7.66024

>  <SCORE.INTRA.DIHEDRAL.0>
9.41909

>  <SCORE.INTRA.POLAR>
0

>  <SCORE.INTRA.POLAR.0>
0

>  <SCORE.INTRA.REPUL>
0.0582029

>  <SCORE.INTRA.REPUL.0>
0

>  <SCORE.INTRA.SOLV>
-0.35592

>  <SCORE.INTRA.SOLV.lig_0>
-26.2491

>  <SCORE.INTRA.VDW>
-1.85883

>  <SCORE.INTRA.VDW.0>
2.57239

>  <SCORE.INTRA.norm>
-0.185863

>  <SCORE.RESTR>
14.9852

>  <SCORE.RESTR.CAVITY>
14.9852

>  <SCORE.RESTR.norm>
0.499505

>  <SCORE.SYSTEM>
0

>  <SCORE.SYSTEM.CONST>
0

>  <SCORE.SYSTEM.DIHEDRAL>
0

>  <SCORE.SYSTEM.SOLV>
0

>  <SCORE.SYSTEM.norm>
0

>  <SCORE.heavy>
30

>  <SCORE.norm>
0.0499187

>  <RMSD>
19.709

$$$$
lig.pdb
 OpenBabel11021811523D
libRbt.so/2013.1/901 2013/11/27
 30 34  0  0  0  0  0  0  0  0999 V2000
   15.7114   25.7457   16.2512 N   0  0  0  0  0  0  0  0  0  0  0  0
   17.4657   26.2157   11.6459 N   0  0  0  0  0  0  0  0  0  0  0  0
   15.6329   24.2912   16.4177 C   0  0  0  0  0  0  0  0  0  0  0  0
   14.6914   24.1666   17.6062 C   0  0  2  0  0  0  0  0  0  0  0  0
   16.6561   26.3309   15.3064 C   0  0  0  0  0  0  0  0  0  0  0  0
   17.6625   27.2467   15.6752 C   0  0  0  0  0  0  0  0  0  0  0  0
   18.5347   27.8209   14.7843 C   0  0  0  0  0  0  0  0  0  0  0  0
   19.3630   28.1717   12.4552 C   0  0  0  0  0  0  0  0  0  0  0  0
   16.8265   24.9313    9.8955 C   0  0  0  0  0  0  0  0  0  0  0  0
   15.9944   24.3809   12.2884 C   0  0  0  0  0  0  0  0  0  0  0  0
   16.5856   25.9935   13.9253 C   0  0  0  0  0  0  0  0  0  0  0  0
   19.6513   29.5103    9.4709 O   0  0  0  0  0  0  0  0  0  0  0  0
   20.0157   28.4547    9.9934 C   0  0  0  0  0  0  0  0  0  0  0  0
   21.1462   27.8451    9.6581 O   0  0  0  0  0  0  0  0  0  0  0  0
   19.1815   27.7910   11.0303 C   0  0  1  0  0  0  0  0  0  0  0  0
   20.2380   28.9604   12.8287 O   0  0  0  0  0  0  0  0  0  0  0  0
   18.2497   26.8065   10.6578 C   0  0  0  0  0  0  0  0  0  0  0  0
   16.6842   25.1371   11.2083 C   0  0  0  0  0  0  0  0  0  0  0  0
   17.9342   26.0198    9.1679 S   0  0  0  0  0  0  0  0  0  0  0  0
   17.4976   26.5672   13.0106 C   0  0  0  0  0  0  0  0  0  0  0  0
   18.4553   27.5041   13.4283 C   0  0  0  0  0  0  0  0  0  0  0  0
   17.8055   27.5661   16.9771 F   0  0  0  0  0  0  0  0  0  0  0  0
   15.5736   25.1457   13.4485 N   0  0  0  0  0  0  0  0  0  0  0  0
   14.3220   25.8587   13.3074 C   0  0  0  0  0  0  0  0  0  0  0  0
   15.3238   26.4446   17.4714 C   0  0  0  0  0  0  0  0  0  0  0  0
   13.5445   23.3770   17.2882 O   0  0  0  0  0  0  0  0  0  0  0  0
   14.1573   25.5674   17.8936 C   0  0  2  0  0  0  0  0  0  0  0  0
   13.7666   25.6310   19.3148 N   0  0  0  0  0  0  0  0  0  0  0  0
   14.8501   25.9838   20.2501 C   0  0  0  0  0  0  0  0  0  0  0  0
   12.5478   26.4216   19.5459 C   0  0  0  0  0  0  0  0  0  0  0  0
  1  5  1  0  0  0  0
  2 17  1  0  0  0  0
  3  1  1  0  0  0  0
  4  3  1  0  0  0  0
  4 26  1  6  0  0  0
  5 11  2  0  0  0  0
  5  6  1  0  0  0  0
  6  7  2  0  0  0  0
  7 21  1  0  0  0  0
  8 15  1  0  0  0  0
  8 16  2  0  0  0  0
  9 19  1  0  0  0  0
 10 18  1  0  0  0  0
 11 20  1  0  0  0  0
 13 14  1  0  0  0  0
 13 12  2  0  0  0  0
 15 13  1  1  0  0  0
 17 19  2  0  0  0  0
 17 15  1  0  0  0  0
 18  2  1  0  0  0  0
 18  9  2  0  0  0  0
 20 21  2  0  0  0  0
 20  2  1  0  0  0  0
 21  8  1  0  0  0  0
 22  6  1  0  0  0  0
 23 11  1  0  0  0  0
 23 10  1  0  0  0  0
 24 23  1  0  0  0  0
 25  1  1  0  0  0  0
 27  4  1  0  0  0  0
 27 25  1  0  0  0  0
 27 28  1  1  0  0  0
 29 28  1  0  0  0  0
 30 28  1  0  0  0  0
M  END
>  <CHROM.1>
-121.27012803,-178.36380233,-88.05420039,-56.82617302,86.53156912,16.89619024
26.38842873,13.94141923,-2.30034454,-0.72590881,-1.86465599

>  <Name>
lig.pdb

>  <RI>
0

>  <Rbt.Current_Directory>
/home/itssahil/PROJECTS/Mol_Feturizer/New_Systems/rnas/6bfb

>  <Rbt.Executable>
rbdock ($Id: //depot/dev/client3/rdock/2013.1/src/exe/rbdock.cxx#4 $)

>  <Rbt.Library>
libRbt.so (2013.1, Build901 2013/11/27)

>  <Rbt.Parameter_File>
/export/apps/rDock/src/rDock_2013.1_src/data/scripts/dock_solv.prm

>  <Rbt.Receptor>
prm/blind_docking_40.prm

>  <SCORE>
3.75313

>  <SCORE.INTER>
-7.78044

>  <SCORE.INTER.CONST>
1

>  <SCORE.INTER.POLAR>
0

>  <SCORE.INTER.ROT>
3

>  <SCORE.INTER.SOLV>
15.0109

>  <SCORE.INTER.VDW>
-15.7906

>  <SCORE.INTER.norm>
-0.259348

>  <SCORE.INTRA>
-3.96051

>  <SCORE.INTRA.DIHEDRAL>
-6.45133

>  <SCORE.INTRA.DIHEDRAL.0>
9.41909

>  <SCORE.INTRA.POLAR>
0

>  <SCORE.INTRA.POLAR.0>
0

>  <SCORE.INTRA.REPUL>
0.0272868

>  <SCORE.INTRA.REPUL.0>
0

>  <SCORE.INTRA.SOLV>
-0.325444

>  <SCORE.INTRA.SOLV.lig_0>
-26.2491

>  <SCORE.INTRA.VDW>
-0.708553

>  <SCORE.INTRA.VDW.0>
2.57239

>  <SCORE.INTRA.norm>
-0.132017

>  <SCORE.RESTR>
15.4941

>  <SCORE.RESTR.CAVITY>
15.4941

>  <SCORE.RESTR.norm>
0.516469

>  <SCORE.SYSTEM>
0

>  <SCORE.SYSTEM.CONST>
0

>  <SCORE.SYSTEM.DIHEDRAL>
0

>  <SCORE.SYSTEM.SOLV>
0

>  <SCORE.SYSTEM.norm>
0

>  <SCORE.heavy>
30

>  <SCORE.norm>
0.125104

>  <RMSD>
19.751

$$$$
lig.pdb
 OpenBabel11021811523D
libRbt.so/2013.1/901 2013/11/27
 30 34  0  0  0  0  0  0  0  0999 V2000
   15.7270   25.7061   16.1549 N   0  0  0  0  0  0  0  0  0  0  0  0
   17.5138   26.2274   11.5676 N   0  0  0  0  0  0  0  0  0  0  0  0
   15.1566   24.3811   15.8933 C   0  0  0  0  0  0  0  0  0  0  0  0
   14.3996   24.1100   17.1847 C   0  0  2  0  0  0  0  0  0  0  0  0
   16.6839   26.2948   15.2247 C   0  0  0  0  0  0  0  0  0  0  0  0
   17.6988   27.1930   15.6136 C   0  0  0  0  0  0  0  0  0  0  0  0
   18.5828   27.7707   14.7369 C   0  0  0  0  0  0  0  0  0  0  0  0
   19.4289   28.1482   12.4184 C   0  0  0  0  0  0  0  0  0  0  0  0
   16.8701   24.9780    9.7936 C   0  0  0  0  0  0  0  0  0  0  0  0
   16.0175   24.4000   12.1728 C   0  0  0  0  0  0  0  0  0  0  0  0
   16.6178   25.9799   13.8382 C   0  0  0  0  0  0  0  0  0  0  0  0
   19.6993   29.4669    9.3736 O   0  0  0  0  0  0  0  0  0  0  0  0
   20.0994   28.4619    9.9650 C   0  0  0  0  0  0  0  0  0  0  0  0
   21.2832   27.9133    9.7205 O   0  0  0  0  0  0  0  0  0  0  0  0
   19.2514   27.7918   10.9866 C   0  0  1  0  0  0  0  0  0  0  0  0
   20.3108   28.9206   12.8091 O   0  0  0  0  0  0  0  0  0  0  0  0
   18.3104   26.8243   10.5934 C   0  0  0  0  0  0  0  0  0  0  0  0
   16.7224   25.1650   11.1087 C   0  0  0  0  0  0  0  0  0  0  0  0
   17.9946   26.0647    9.0895 S   0  0  0  0  0  0  0  0  0  0  0  0
   17.5417   26.5571   12.9378 C   0  0  0  0  0  0  0  0  0  0  0  0
   18.5078   27.4761   13.3757 C   0  0  0  0  0  0  0  0  0  0  0  0
   17.8377   27.4902   16.9212 F   0  0  0  0  0  0  0  0  0  0  0  0
   15.5988   25.1516   13.3423 N   0  0  0  0  0  0  0  0  0  0  0  0
   14.3563   25.8812   13.2052 C   0  0  0  0  0  0  0  0  0  0  0  0
   15.7805   25.9918   17.5842 C   0  0  0  0  0  0  0  0  0  0  0  0
   13.0149   23.8597   16.9401 O   0  0  0  0  0  0  0  0  0  0  0  0
   14.4446   25.3995   18.0004 C   0  0  2  0  0  0  0  0  0  0  0  0
   14.2949   25.0506   19.4260 N   0  0  0  0  0  0  0  0  0  0  0  0
   15.2997   24.1088   19.9522 C   0  0  0  0  0  0  0  0  0  0  0  0
   14.1189   26.2247   20.2946 C   0  0  0  0  0  0  0  0  0  0  0  0
  1  5  1  0  0  0  0
  2 17  1  0  0  0  0
  3  1  1  0  0  0  0
  4  3  1  0  0  0  0
  4 26  1  6  0  0  0
  5 11  2  0  0  0  0
  5  6  1  0  0  0  0
  6  7  2  0  0  0  0
  7 21  1  0  0  0  0
  8 15  1  0  0  0  0
  8 16  2  0  0  0  0
  9 19  1  0  0  0  0
 10 18  1  0  0  0  0
 11 20  1  0  0  0  0
 13 14  1  0  0  0  0
 13 12  2  0  0  0  0
 15 13  1  1  0  0  0
 17 19  2  0  0  0  0
 17 15  1  0  0  0  0
 18  2  1  0  0  0  0
 18  9  2  0  0  0  0
 20 21  2  0  0  0  0
 20  2  1  0  0  0  0
 21  8  1  0  0  0  0
 22  6  1  0  0  0  0
 23 11  1  0  0  0  0
 23 10  1  0  0  0  0
 24 23  1  0  0  0  0
 25  1  1  0  0  0  0
 27  4  1  0  0  0  0
 27 25  1  0  0  0  0
 27 28  1  1  0  0  0
 29 28  1  0  0  0  0
 30 28  1  0  0  0  0
M  END
>  <CHROM.1>
-150.44570042,1.00104786,-94.34790023,-57.40373196,57.40569589,17.00047253
26.29934990,13.87368337,-2.23979981,-0.70560832,-1.75900436

>  <Name>
lig.pdb

>  <RI>
0

>  <Rbt.Current_Directory>
/home/itssahil/PROJECTS/Mol_Feturizer/New_Systems/rnas/6bfb

>  <Rbt.Executable>
rbdock ($Id: //depot/dev/client3/rdock/2013.1/src/exe/rbdock.cxx#4 $)

>  <Rbt.Library>
libRbt.so (2013.1, Build901 2013/11/27)

>  <Rbt.Parameter_File>
/export/apps/rDock/src/rDock_2013.1_src/data/scripts/dock_solv.prm

>  <Rbt.Receptor>
prm/blind_docking_40.prm

>  <SCORE>
3.48434

>  <SCORE.INTER>
-9.30573

>  <SCORE.INTER.CONST>
1

>  <SCORE.INTER.POLAR>
0

>  <SCORE.INTER.ROT>
3

>  <SCORE.INTER.SOLV>
15.3778

>  <SCORE.INTER.VDW>
-16.9298

>  <SCORE.INTER.norm>
-0.310191

>  <SCORE.INTRA>
-2.46928

>  <SCORE.INTRA.DIHEDRAL>
-7.69466

>  <SCORE.INTRA.DIHEDRAL.0>
9.41909

>  <SCORE.INTRA.POLAR>
0

>  <SCORE.INTRA.POLAR.0>
0

>  <SCORE.INTRA.REPUL>
0

>  <SCORE.INTRA.REPUL.0>
0

>  <SCORE.INTRA.SOLV>
-0.121574

>  <SCORE.INTRA.SOLV.lig_0>
-26.2491

>  <SCORE.INTRA.VDW>
1.43884

>  <SCORE.INTRA.VDW.0>
2.57239

>  <SCORE.INTRA.norm>
-0.0823092

>  <SCORE.RESTR>
15.2593

>  <SCORE.RESTR.CAVITY>
15.2593

>  <SCORE.RESTR.norm>
0.508645

>  <SCORE.SYSTEM>
0

>  <SCORE.SYSTEM.CONST>
0

>  <SCORE.SYSTEM.DIHEDRAL>
0

>  <SCORE.SYSTEM.SOLV>
0

>  <SCORE.SYSTEM.norm>
0

>  <SCORE.heavy>
30

>  <SCORE.norm>
0.116145

>  <RMSD>
19.790

$$$$
lig.pdb
 OpenBabel11021811523D
libRbt.so/2013.1/901 2013/11/27
 30 34  0  0  0  0  0  0  0  0999 V2000
   15.6480   25.8834   16.3973 N   0  0  0  0  0  0  0  0  0  0  0  0
   17.1685   26.2018   11.6969 N   0  0  0  0  0  0  0  0  0  0  0  0
   15.8534   24.5418   16.9518 C   0  0  0  0  0  0  0  0  0  0  0  0
   14.8165   24.5051   18.0644 C   0  0  2  0  0  0  0  0  0  0  0  0
   16.5615   26.4148   15.3920 C   0  0  0  0  0  0  0  0  0  0  0  0
   17.6195   27.2983   15.6883 C   0  0  0  0  0  0  0  0  0  0  0  0
   18.4632   27.8225   14.7410 C   0  0  0  0  0  0  0  0  0  0  0  0
   19.1777   28.0988   12.3646 C   0  0  0  0  0  0  0  0  0  0  0  0
   16.3892   24.9107   10.0093 C   0  0  0  0  0  0  0  0  0  0  0  0
   15.6671   24.4363   12.4536 C   0  0  0  0  0  0  0  0  0  0  0  0
   16.4046   26.0551   14.0238 C   0  0  0  0  0  0  0  0  0  0  0  0
   20.3633   27.6084    9.0949 O   0  0  0  0  0  0  0  0  0  0  0  0
   19.7072   28.3115    9.8664 C   0  0  0  0  0  0  0  0  0  0  0  0
   19.6879   29.6362    9.7837 O   0  0  0  0  0  0  0  0  0  0  0  0
   18.9059   27.6991   10.9593 C   0  0  1  0  0  0  0  0  0  0  0  0
   20.1000   28.8603   12.6751 O   0  0  0  0  0  0  0  0  0  0  0  0
   17.9197   26.7441   10.6568 C   0  0  0  0  0  0  0  0  0  0  0  0
   16.3253   25.1459   11.3234 C   0  0  0  0  0  0  0  0  0  0  0  0
   17.4957   25.9428    9.2020 S   0  0  0  0  0  0  0  0  0  0  0  0
   17.2867   26.5768   13.0505 C   0  0  0  0  0  0  0  0  0  0  0  0
   18.2995   27.4841   13.3978 C   0  0  0  0  0  0  0  0  0  0  0  0
   17.8439   27.6358   16.9741 F   0  0  0  0  0  0  0  0  0  0  0  0
   15.3377   25.2378   13.6186 N   0  0  0  0  0  0  0  0  0  0  0  0
   14.1075   25.9951   13.5295 C   0  0  0  0  0  0  0  0  0  0  0  0
   14.9730   26.7575   17.3502 C   0  0  0  0  0  0  0  0  0  0  0  0
   13.9083   23.4149   17.9012 O   0  0  0  0  0  0  0  0  0  0  0  0
   13.9708   25.7677   17.9199 C   0  0  2  0  0  0  0  0  0  0  0  0
   13.3996   26.0955   19.2401 N   0  0  0  0  0  0  0  0  0  0  0  0
   12.7735   27.4263   19.3419 C   0  0  0  0  0  0  0  0  0  0  0  0
   12.5416   25.0301   19.7809 C   0  0  0  0  0  0  0  0  0  0  0  0
  1  5  1  0  0  0  0
  2 17  1  0  0  0  0
  3  1  1  0  0  0  0
  4  3  1  0  0  0  0
  4 26  1  6  0  0  0
  5 11  2  0  0  0  0
  5  6  1  0  0  0  0
  6  7  2  0  0  0  0
  7 21  1  0  0  0  0
  8 15  1  0  0  0  0
  8 16  2  0  0  0  0
  9 19  1  0  0  0  0
 10 18  1  0  0  0  0
 11 20  1  0  0  0  0
 13 14  1  0  0  0  0
 13 12  2  0  0  0  0
 15 13  1  1  0  0  0
 17 19  2  0  0  0  0
 17 15  1  0  0  0  0
 18  2  1  0  0  0  0
 18  9  2  0  0  0  0
 20 21  2  0  0  0  0
 20  2  1  0  0  0  0
 21  8  1  0  0  0  0
 22  6  1  0  0  0  0
 23 11  1  0  0  0  0
 23 10  1  0  0  0  0
 24 23  1  0  0  0  0
 25  1  1  0  0  0  0
 27  4  1  0  0  0  0
 27 25  1  0  0  0  0
 27 28  1  1  0  0  0
 29 28  1  0  0  0  0
 30 28  1  0  0  0  0
M  END
>  <CHROM.1>
-98.70176953,0.70196555,122.11518018,-58.20662097,168.51677719,16.64191614
26.44473867,13.97999414,-2.30437284,-0.73219960,-1.89011600

>  <Name>
lig.pdb

>  <RI>
0

>  <Rbt.Current_Directory>
/home/itssahil/PROJECTS/Mol_Feturizer/New_Systems/rnas/6bfb

>  <Rbt.Executable>
rbdock ($Id: //depot/dev/client3/rdock/2013.1/src/exe/rbdock.cxx#4 $)

>  <Rbt.Library>
libRbt.so (2013.1, Build901 2013/11/27)

>  <Rbt.Parameter_File>
/export/apps/rDock/src/rDock_2013.1_src/data/scripts/dock_solv.prm

>  <Rbt.Receptor>
prm/blind_docking_40.prm

>  <SCORE>
4.64921

>  <SCORE.INTER>
-5.83534

>  <SCORE.INTER.CONST>
1

>  <SCORE.INTER.POLAR>
0

>  <SCORE.INTER.ROT>
3

>  <SCORE.INTER.SOLV>
17.0213

>  <SCORE.INTER.VDW>
-15.164

>  <SCORE.INTER.norm>
-0.194511

>  <SCORE.INTRA>
-5.05222

>  <SCORE.INTRA.DIHEDRAL>
-7.6742

>  <SCORE.INTRA.DIHEDRAL.0>
9.41909

>  <SCORE.INTRA.POLAR>
0

>  <SCORE.INTRA.POLAR.0>
0

>  <SCORE.INTRA.REPUL>
0.0791208

>  <SCORE.INTRA.REPUL.0>
0

>  <SCORE.INTRA.SOLV>
-0.144898

>  <SCORE.INTRA.SOLV.lig_0>
-26.2491

>  <SCORE.INTRA.VDW>
-1.53828

>  <SCORE.INTRA.VDW.0>
2.57239

>  <SCORE.INTRA.norm>
-0.168407

>  <SCORE.RESTR>
15.5368

>  <SCORE.RESTR.CAVITY>
15.5368

>  <SCORE.RESTR.norm>
0.517892

>  <SCORE.SYSTEM>
0

>  <SCORE.SYSTEM.CONST>
0

>  <SCORE.SYSTEM.DIHEDRAL>
0

>  <SCORE.SYSTEM.SOLV>
0

>  <SCORE.SYSTEM.norm>
0

>  <SCORE.heavy>
30

>  <SCORE.norm>
0.154974

>  <RMSD>
19.828

$$$$
lig.pdb
 OpenBabel11021811523D
libRbt.so/2013.1/901 2013/11/27
 30 34  0  0  0  0  0  0  0  0999 V2000
   15.9700   25.7635   16.3280 N   0  0  0  0  0  0  0  0  0  0  0  0
   17.3349   26.2047   11.5899 N   0  0  0  0  0  0  0  0  0  0  0  0
   16.3966   25.7644   17.7307 C   0  0  0  0  0  0  0  0  0  0  0  0
   15.1565   25.2295   18.4311 C   0  0  2  0  0  0  0  0  0  0  0  0
   16.8106   26.3672   15.3002 C   0  0  0  0  0  0  0  0  0  0  0  0
   17.8011   27.3335   15.5705 C   0  0  0  0  0  0  0  0  0  0  0  0
   18.5743   27.9243   14.6025 C   0  0  0  0  0  0  0  0  0  0  0  0
   19.2009   28.2579   12.2087 C   0  0  0  0  0  0  0  0  0  0  0  0
   16.6181   24.8551    9.9204 C   0  0  0  0  0  0  0  0  0  0  0  0
   16.0017   24.3234   12.3818 C   0  0  0  0  0  0  0  0  0  0  0  0
   16.6471   25.9962   13.9357 C   0  0  0  0  0  0  0  0  0  0  0  0
   20.3071   27.8617    8.8870 O   0  0  0  0  0  0  0  0  0  0  0  0
   19.6453   28.5132    9.6979 C   0  0  0  0  0  0  0  0  0  0  0  0
   19.5486   29.8359    9.6418 O   0  0  0  0  0  0  0  0  0  0  0  0
   18.9253   27.8378   10.8102 C   0  0  1  0  0  0  0  0  0  0  0  0
   20.0666   29.0915   12.4965 O   0  0  0  0  0  0  0  0  0  0  0  0
   18.0119   26.8062   10.5316 C   0  0  0  0  0  0  0  0  0  0  0  0
   16.5703   25.0841   11.2362 C   0  0  0  0  0  0  0  0  0  0  0  0
   17.6158   25.9734    9.0866 S   0  0  0  0  0  0  0  0  0  0  0  0
   17.4581   26.5878   12.9407 C   0  0  0  0  0  0  0  0  0  0  0  0
   18.4030   27.5740   13.2633 C   0  0  0  0  0  0  0  0  0  0  0  0
   18.0315   27.6878   16.8507 F   0  0  0  0  0  0  0  0  0  0  0  0
   15.6395   25.0954   13.5570 N   0  0  0  0  0  0  0  0  0  0  0  0
   14.3502   25.7507   13.5021 C   0  0  0  0  0  0  0  0  0  0  0  0
   14.5161   25.7517   16.2119 C   0  0  0  0  0  0  0  0  0  0  0  0
   15.4463   24.0541   19.1889 O   0  0  0  0  0  0  0  0  0  0  0  0
   14.1906   24.7833   17.3366 C   0  0  2  0  0  0  0  0  0  0  0  0
   12.8195   24.8404   17.8782 N   0  0  0  0  0  0  0  0  0  0  0  0
   12.3642   26.1781   18.2987 C   0  0  0  0  0  0  0  0  0  0  0  0
   11.8325   24.1539   17.0305 C   0  0  0  0  0  0  0  0  0  0  0  0
  1  5  1  0  0  0  0
  2 17  1  0  0  0  0
  3  1  1  0  0  0  0
  4  3  1  0  0  0  0
  4 26  1  1  0  0  0
  5 11  2  0  0  0  0
  5  6  1  0  0  0  0
  6  7  2  0  0  0  0
  7 21  1  0  0  0  0
  8 15  1  0  0  0  0
  8 16  2  0  0  0  0
  9 19  1  0  0  0  0
 10 18  1  0  0  0  0
 11 20  1  0  0  0  0
 13 14  1  0  0  0  0
 13 12  2  0  0  0  0
 15 13  1  1  0  0  0
 17 19  2  0  0  0  0
 17 15  1  0  0  0  0
 18  2  1  0  0  0  0
 18  9  2  0  0  0  0
 20 21  2  0  0  0  0
 20  2  1  0  0  0  0
 21  8  1  0  0  0  0
 22  6  1  0  0  0  0
 23 11  1  0  0  0  0
 23 10  1  0  0  0  0
 24 23  1  0  0  0  0
 25  1  1  0  0  0  0
 27  4  1  0  0  0  0
 27 25  1  0  0  0  0
 27 28  1  1  0  0  0
 29 28  1  0  0  0  0
 30 28  1  0  0  0  0
M  END
>  <CHROM.1>
-21.47180182,178.84137589,124.02734704,-54.27859019,61.61586310,16.76207874
26.37922013,13.75486601,-2.26728711,-0.66419946,-1.73559237

>  <Name>
lig.pdb

>  <RI>
0

>  <Rbt.Current_Directory>
/home/itssahil/PROJECTS/Mol_Feturizer/New_Systems/rnas/6bfb

>  <Rbt.Executable>
rbdock ($Id: //depot/dev/client3/rdock/2013.1/src/exe/rbdock.cxx#4 $)

>  <Rbt.Library>
libRbt.so (2013.1, Build901 2013/11/27)

>  <Rbt.Parameter_File>
/export/apps/rDock/src/rDock_2013.1_src/data/scripts/dock_solv.prm

>  <Rbt.Receptor>
prm/blind_docking_40.prm

>  <SCORE>
13.5123

>  <SCORE.INTER>
-4.04939

>  <SCORE.INTER.CONST>
1

>  <SCORE.INTER.POLAR>
-0.19352

>  <SCORE.INTER.ROT>
3

>  <SCORE.INTER.SOLV>
18.3253

>  <SCORE.INTER.VDW>
-13.7629

>  <SCORE.INTER.norm>
-0.13498

>  <SCORE.INTRA>
2.34261

>  <SCORE.INTRA.DIHEDRAL>
-7.48174

>  <SCORE.INTRA.DIHEDRAL.0>
9.41909

>  <SCORE.INTRA.POLAR>
0

>  <SCORE.INTRA.POLAR.0>
0

>  <SCORE.INTRA.REPUL>
0.00961177

>  <SCORE.INTRA.REPUL.0>
0

>  <SCORE.INTRA.SOLV>
-0.159891

>  <SCORE.INTRA.SOLV.lig_0>
-26.2491

>  <SCORE.INTRA.VDW>
6.11537

>  <SCORE.INTRA.VDW.0>
2.57239

>  <SCORE.INTRA.norm>
0.0780871

>  <SCORE.RESTR>
15.2191

>  <SCORE.RESTR.CAVITY>
15.2191

>  <SCORE.RESTR.norm>
0.507304

>  <SCORE.SYSTEM>
0

>  <SCORE.SYSTEM.CONST>
0

>  <SCORE.SYSTEM.DIHEDRAL>
0

>  <SCORE.SYSTEM.SOLV>
0

>  <SCORE.SYSTEM.norm>
0

>  <SCORE.heavy>
30

>  <SCORE.norm>
0.450411

>  <RMSD>
19.835

$$$$
lig.pdb
 OpenBabel11021811523D
libRbt.so/2013.1/901 2013/11/27
 30 34  0  0  0  0  0  0  0  0999 V2000
   15.6482   25.7818   16.3198 N   0  0  0  0  0  0  0  0  0  0  0  0
   17.1542   26.2084   11.6233 N   0  0  0  0  0  0  0  0  0  0  0  0
   15.7734   24.3801   16.7311 C   0  0  0  0  0  0  0  0  0  0  0  0
   14.7886   24.3086   17.8885 C   0  0  2  0  0  0  0  0  0  0  0  0
   16.5537   26.3425   15.3231 C   0  0  0  0  0  0  0  0  0  0  0  0
   17.6029   27.2313   15.6343 C   0  0  0  0  0  0  0  0  0  0  0  0
   18.4387   27.7829   14.6957 C   0  0  0  0  0  0  0  0  0  0  0  0
   19.1446   28.1133   12.3237 C   0  0  0  0  0  0  0  0  0  0  0  0
   16.3845   24.9424    9.9123 C   0  0  0  0  0  0  0  0  0  0  0  0
   15.6733   24.4125   12.3484 C   0  0  0  0  0  0  0  0  0  0  0  0
   16.3973   26.0080   13.9484 C   0  0  0  0  0  0  0  0  0  0  0  0
   20.3470   27.7015    9.0577 O   0  0  0  0  0  0  0  0  0  0  0  0
   19.6659   28.3806    9.8290 C   0  0  0  0  0  0  0  0  0  0  0  0
   19.6104   29.7048    9.7553 O   0  0  0  0  0  0  0  0  0  0  0  0
   18.8737   27.7384   10.9114 C   0  0  1  0  0  0  0  0  0  0  0  0
   20.0595   28.8784   12.6470 O   0  0  0  0  0  0  0  0  0  0  0  0
   17.8970   26.7790   10.5924 C   0  0  0  0  0  0  0  0  0  0  0  0
   16.3214   25.1511   11.2309 C   0  0  0  0  0  0  0  0  0  0  0  0
   17.4781   26.0019    9.1230 S   0  0  0  0  0  0  0  0  0  0  0  0
   17.2715   26.5581   12.9837 C   0  0  0  0  0  0  0  0  0  0  0  0
   18.2754   27.4691   13.3465 C   0  0  0  0  0  0  0  0  0  0  0  0
   17.8268   27.5459   16.9260 F   0  0  0  0  0  0  0  0  0  0  0  0
   15.3383   25.1874   13.5296 N   0  0  0  0  0  0  0  0  0  0  0  0
   14.0999   25.9331   13.4581 C   0  0  0  0  0  0  0  0  0  0  0  0
   15.0877   26.6034   17.3866 C   0  0  0  0  0  0  0  0  0  0  0  0
   13.7916   23.3096   17.6698 O   0  0  0  0  0  0  0  0  0  0  0  0
   14.0383   25.6378   17.9110 C   0  0  2  0  0  0  0  0  0  0  0  0
   13.5553   25.8732   19.2850 N   0  0  0  0  0  0  0  0  0  0  0  0
   14.5960   26.2349   20.2645 C   0  0  0  0  0  0  0  0  0  0  0  0
   12.3934   26.7733   19.3445 C   0  0  0  0  0  0  0  0  0  0  0  0
  1  5  1  0  0  0  0
  2 17  1  0  0  0  0
  3  1  1  0  0  0  0
  4  3  1  0  0  0  0
  4 26  1  6  0  0  0
  5 11  2  0  0  0  0
  5  6  1  0  0  0  0
  6  7  2  0  0  0  0
  7 21  1  0  0  0  0
  8 15  1  0  0  0  0
  8 16  2  0  0  0  0
  9 19  1  0  0  0  0
 10 18  1  0  0  0  0
 11 20  1  0  0  0  0
 13 14  1  0  0  0  0
 13 12  2  0  0  0  0
 15 13  1  1  0  0  0
 17 19  2  0  0  0  0
 17 15  1  0  0  0  0
 18  2  1  0  0  0  0
 18  9  2  0  0  0  0
 20 21  2  0  0  0  0
 20  2  1  0  0  0  0
 21  8  1  0  0  0  0
 22  6  1  0  0  0  0
 23 11  1  0  0  0  0
 23 10  1  0  0  0  0
 24 23  1  0  0  0  0
 25  1  1  0  0  0  0
 27  4  1  0  0  0  0
 27 25  1  0  0  0  0
 27 28  1  1  0  0  0
 29 28  1  0  0  0  0
 30 28  1  0  0  0  0
M  END
>  <CHROM.1>
-105.92445972,-179.25346369,120.77519252,-58.55109010,72.55821461,16.68572073
26.43082466,13.93508145,-2.25492457,-0.73925284,-1.85108760

>  <Name>
lig.pdb

>  <RI>
0

>  <Rbt.Current_Directory>
/home/itssahil/PROJECTS/Mol_Feturizer/New_Systems/rnas/6bfb

>  <Rbt.Executable>
rbdock ($Id: //depot/dev/client3/rdock/2013.1/src/exe/rbdock.cxx#4 $)

>  <Rbt.Library>
libRbt.so (2013.1, Build901 2013/11/27)

>  <Rbt.Parameter_File>
/export/apps/rDock/src/rDock_2013.1_src/data/scripts/dock_solv.prm

>  <Rbt.Receptor>
prm/blind_docking_40.prm

>  <SCORE>
1.58226

>  <SCORE.INTER>
-8.3433

>  <SCORE.INTER.CONST>
1

>  <SCORE.INTER.POLAR>
0

>  <SCORE.INTER.ROT>
3

>  <SCORE.INTER.SOLV>
16.6862

>  <SCORE.INTER.VDW>
-16.7243

>  <SCORE.INTER.norm>
-0.27811

>  <SCORE.INTRA>
-5.19471

>  <SCORE.INTRA.DIHEDRAL>
-7.26117

>  <SCORE.INTRA.DIHEDRAL.0>
9.41909

>  <SCORE.INTRA.POLAR>
0

>  <SCORE.INTRA.POLAR.0>
0

>  <SCORE.INTRA.REPUL>
0.0641338

>  <SCORE.INTRA.REPUL.0>
0

>  <SCORE.INTRA.SOLV>
-0.277501

>  <SCORE.INTRA.SOLV.lig_0>
-26.2491

>  <SCORE.INTRA.VDW>
-1.74605

>  <SCORE.INTRA.VDW.0>
2.57239

>  <SCORE.INTRA.norm>
-0.173157

>  <SCORE.RESTR>
15.1203

>  <SCORE.RESTR.CAVITY>
15.1203

>  <SCORE.RESTR.norm>
0.504009

>  <SCORE.SYSTEM>
0

>  <SCORE.SYSTEM.CONST>
0

>  <SCORE.SYSTEM.DIHEDRAL>
0

>  <SCORE.SYSTEM.SOLV>
0

>  <SCORE.SYSTEM.norm>
0

>  <SCORE.heavy>
30

>  <SCORE.norm>
0.0527422

>  <RMSD>
19.836

$$$$
lig.pdb
 OpenBabel11021811523D
libRbt.so/2013.1/901 2013/11/27
 30 34  0  0  0  0  0  0  0  0999 V2000
   15.6516   25.8039   16.3048 N   0  0  0  0  0  0  0  0  0  0  0  0
   17.2036   26.1803   11.6191 N   0  0  0  0  0  0  0  0  0  0  0  0
   15.7747   24.4104   16.7439 C   0  0  0  0  0  0  0  0  0  0  0  0
   14.7724   24.3569   17.8871 C   0  0  2  0  0  0  0  0  0  0  0  0
   16.5705   26.3492   15.3121 C   0  0  0  0  0  0  0  0  0  0  0  0
   17.6240   27.2321   15.6257 C   0  0  0  0  0  0  0  0  0  0  0  0
   18.4727   27.7694   14.6904 C   0  0  0  0  0  0  0  0  0  0  0  0
   19.2028   28.0749   12.3223 C   0  0  0  0  0  0  0  0  0  0  0  0
   16.4395   24.9066    9.9114 C   0  0  0  0  0  0  0  0  0  0  0  0
   15.7019   24.4022   12.3450 C   0  0  0  0  0  0  0  0  0  0  0  0
   16.4240   26.0048   13.9387 C   0  0  0  0  0  0  0  0  0  0  0  0
   19.7482   29.5403    9.6710 O   0  0  0  0  0  0  0  0  0  0  0  0
   19.7490   28.3178    9.8305 C   0  0  0  0  0  0  0  0  0  0  0  0
   20.4434   27.4966    9.0523 O   0  0  0  0  0  0  0  0  0  0  0  0
   18.9419   27.6907   10.9107 C   0  0  1  0  0  0  0  0  0  0  0  0
   20.1209   28.8353   12.6479 O   0  0  0  0  0  0  0  0  0  0  0  0
   17.9604   26.7366   10.5905 C   0  0  0  0  0  0  0  0  0  0  0  0
   16.3660   25.1265   11.2276 C   0  0  0  0  0  0  0  0  0  0  0  0
   17.5487   25.9509    9.1237 S   0  0  0  0  0  0  0  0  0  0  0  0
   17.3114   26.5401   12.9776 C   0  0  0  0  0  0  0  0  0  0  0  0
   18.3193   27.4460   13.3423 C   0  0  0  0  0  0  0  0  0  0  0  0
   17.8386   27.5554   16.9168 F   0  0  0  0  0  0  0  0  0  0  0  0
   15.3623   25.1893   13.5169 N   0  0  0  0  0  0  0  0  0  0  0  0
   14.1306   25.9443   13.4279 C   0  0  0  0  0  0  0  0  0  0  0  0
   15.0721   26.6431   17.3476 C   0  0  0  0  0  0  0  0  0  0  0  0
   13.7820   23.3506   17.6715 O   0  0  0  0  0  0  0  0  0  0  0  0
   14.0177   25.6837   17.8735 C   0  0  2  0  0  0  0  0  0  0  0  0
   13.5128   25.9427   19.2353 N   0  0  0  0  0  0  0  0  0  0  0  0
   14.5455   26.0252   20.2842 C   0  0  0  0  0  0  0  0  0  0  0  0
   12.5611   27.0626   19.2972 C   0  0  0  0  0  0  0  0  0  0  0  0
  1  5  1  0  0  0  0
  2 17  1  0  0  0  0
  3  1  1  0  0  0  0
  4  3  1  0  0  0  0
  4 26  1  6  0  0  0
  5 11  2  0  0  0  0
  5  6  1  0  0  0  0
  6  7  2  0  0  0  0
  7 21  1  0  0  0  0
  8 15  1  0  0  0  0
  8 16  2  0  0  0  0
  9 19  1  0  0  0  0
 10 18  1  0  0  0  0
 11 20  1  0  0  0  0
 13 14  1  0  0  0  0
 13 12  2  0  0  0  0
 15 13  1  1  0  0  0
 17 19  2  0  0  0  0
 17 15  1  0  0  0  0
 18  2  1  0  0  0  0
 18  9  2  0  0  0  0
 20 21  2  0  0  0  0
 20  2  1  0  0  0  0
 21  8  1  0  0  0  0
 22  6  1  0  0  0  0
 23 11  1  0  0  0  0
 23 10  1  0  0  0  0
 24 23  1  0  0  0  0
 25  1  1  0  0  0  0
 27  4  1  0  0  0  0
 27 25  1  0  0  0  0
 27 28  1  1  0  0  0
 29 28  1  0  0  0  0
 30 28  1  0  0  0  0
M  END
>  <CHROM.1>
-104.97784058,1.04528010,-59.43229204,177.95959391,59.34788603,16.72752127
26.40986372,13.92225935,-2.25695831,-0.72544818,-1.86270835

>  <Name>
lig.pdb

>  <RI>
0

>  <Rbt.Current_Directory>
/home/itssahil/PROJECTS/Mol_Feturizer/New_Systems/rnas/6bfb

>  <Rbt.Executable>
rbdock ($Id: //depot/dev/client3/rdock/2013.1/src/exe/rbdock.cxx#4 $)

>  <Rbt.Library>
libRbt.so (2013.1, Build901 2013/11/27)

>  <Rbt.Parameter_File>
/export/apps/rDock/src/rDock_2013.1_src/data/scripts/dock_solv.prm

>  <Rbt.Receptor>
prm/blind_docking_40.prm

>  <SCORE>
1.0956

>  <SCORE.INTER>
-7.859

>  <SCORE.INTER.CONST>
1

>  <SCORE.INTER.POLAR>
0

>  <SCORE.INTER.ROT>
3

>  <SCORE.INTER.SOLV>
15.8471

>  <SCORE.INTER.VDW>
-16.1217

>  <SCORE.INTER.norm>
-0.261967

>  <SCORE.INTRA>
-6.16226

>  <SCORE.INTRA.DIHEDRAL>
-7.67939

>  <SCORE.INTRA.DIHEDRAL.0>
9.41909

>  <SCORE.INTRA.POLAR>
0

>  <SCORE.INTRA.POLAR.0>
0

>  <SCORE.INTRA.REPUL>
0.0662098

>  <SCORE.INTRA.REPUL.0>
0

>  <SCORE.INTRA.SOLV>
-0.250318

>  <SCORE.INTRA.SOLV.lig_0>
-26.2491

>  <SCORE.INTRA.VDW>
-2.52845

>  <SCORE.INTRA.VDW.0>
2.57239

>  <SCORE.INTRA.norm>
-0.205409

>  <SCORE.RESTR>
15.1169

>  <SCORE.RESTR.CAVITY>
15.1169

>  <SCORE.RESTR.norm>
0.503895

>  <SCORE.SYSTEM>
0

>  <SCORE.SYSTEM.CONST>
0

>  <SCORE.SYSTEM.DIHEDRAL>
0

>  <SCORE.SYSTEM.SOLV>
0

>  <SCORE.SYSTEM.norm>
0

>  <SCORE.heavy>
30

>  <SCORE.norm>
0.0365199

>  <RMSD>
19.841

$$$$
lig.pdb
 OpenBabel11021811523D
libRbt.so/2013.1/901 2013/11/27
 30 34  0  0  0  0  0  0  0  0999 V2000
   15.6449   25.8172   16.2929 N   0  0  0  0  0  0  0  0  0  0  0  0
   17.1891   26.1746   11.6030 N   0  0  0  0  0  0  0  0  0  0  0  0
   15.7485   24.4192   16.7225 C   0  0  0  0  0  0  0  0  0  0  0  0
   14.7532   24.3747   17.8722 C   0  0  2  0  0  0  0  0  0  0  0  0
   16.5659   26.3538   15.2972 C   0  0  0  0  0  0  0  0  0  0  0  0
   17.6270   27.2288   15.6071 C   0  0  0  0  0  0  0  0  0  0  0  0
   18.4778   27.7581   14.6690 C   0  0  0  0  0  0  0  0  0  0  0  0
   19.2047   28.0543   12.2988 C   0  0  0  0  0  0  0  0  0  0  0  0
   16.4109   24.9044    9.8989 C   0  0  0  0  0  0  0  0  0  0  0  0
   15.6750   24.4094   12.3350 C   0  0  0  0  0  0  0  0  0  0  0  0
   16.4135   26.0086   13.9247 C   0  0  0  0  0  0  0  0  0  0  0  0
   19.7455   29.5104    9.6359 O   0  0  0  0  0  0  0  0  0  0  0  0
   19.7471   28.2892    9.8054 C   0  0  0  0  0  0  0  0  0  0  0  0
   20.4445   27.4625    9.0359 O   0  0  0  0  0  0  0  0  0  0  0  0
   18.9375   27.6701   10.8884 C   0  0  1  0  0  0  0  0  0  0  0  0
   20.1296   28.8079   12.6211 O   0  0  0  0  0  0  0  0  0  0  0  0
   17.9478   26.7233   10.5718 C   0  0  0  0  0  0  0  0  0  0  0  0
   16.3422   25.1268   11.2150 C   0  0  0  0  0  0  0  0  0  0  0  0
   17.5265   25.9387    9.1071 S   0  0  0  0  0  0  0  0  0  0  0  0
   17.3028   26.5354   12.9608 C   0  0  0  0  0  0  0  0  0  0  0  0
   18.3186   27.4339   13.3218 C   0  0  0  0  0  0  0  0  0  0  0  0
   17.8471   27.5523   16.8972 F   0  0  0  0  0  0  0  0  0  0  0  0
   15.3444   25.2009   13.5065 N   0  0  0  0  0  0  0  0  0  0  0  0
   14.1185   25.9654   13.4192 C   0  0  0  0  0  0  0  0  0  0  0  0
   15.0862   26.6591   17.3446 C   0  0  0  0  0  0  0  0  0  0  0  0
   13.7452   23.3859   17.6573 O   0  0  0  0  0  0  0  0  0  0  0  0
   14.0200   25.7136   17.8719 C   0  0  2  0  0  0  0  0  0  0  0  0
   13.5286   25.9722   19.2387 N   0  0  0  0  0  0  0  0  0  0  0  0
   14.5748   26.1071   20.2685 C   0  0  0  0  0  0  0  0  0  0  0  0
   12.5370   27.0569   19.3024 C   0  0  0  0  0  0  0  0  0  0  0  0
  1  5  1  0  0  0  0
  2 17  1  0  0  0  0
  3  1  1  0  0  0  0
  4  3  1  0  0  0  0
  4 26  1  6  0  0  0
  5 11  2  0  0  0  0
  5  6  1  0  0  0  0
  6  7  2  0  0  0  0
  7 21  1  0  0  0  0
  8 15  1  0  0  0  0
  8 16  2  0  0  0  0
  9 19  1  0  0  0  0
 10 18  1  0  0  0  0
 11 20  1  0  0  0  0
 13 14  1  0  0  0  0
 13 12  2  0  0  0  0
 15 13  1  1  0  0  0
 17 19  2  0  0  0  0
 17 15  1  0  0  0  0
 18  2  1  0  0  0  0
 18  9  2  0  0  0  0
 20 21  2  0  0  0  0
 20  2  1  0  0  0  0
 21  8  1  0  0  0  0
 22  6  1  0  0  0  0
 23 11  1  0  0  0  0
 23 10  1  0  0  0  0
 24 23  1  0  0  0  0
 25  1  1  0  0  0  0
 27  4  1  0  0  0  0
 27 25  1  0  0  0  0
 27 28  1  1  0  0  0
 29 28  1  0  0  0  0
 30 28  1  0  0  0  0
M  END
>  <CHROM.1>
-105.67187977,179.69084986,-60.13844288,177.38707251,62.64768894,16.71844410
26.40775396,13.90931260,-2.24995543,-0.71717035,-1.86040078

>  <Name>
lig.pdb

>  <RI>
0

>  <Rbt.Current_Directory>
/home/itssahil/PROJECTS/Mol_Feturizer/New_Systems/rnas/6bfb

>  <Rbt.Executable>
rbdock ($Id: //depot/dev/client3/rdock/2013.1/src/exe/rbdock.cxx#4 $)

>  <Rbt.Library>
libRbt.so (2013.1, Build901 2013/11/27)

>  <Rbt.Parameter_File>
/export/apps/rDock/src/rDock_2013.1_src/data/scripts/dock_solv.prm

>  <Rbt.Receptor>
prm/blind_docking_40.prm

>  <SCORE>
1.5007

>  <SCORE.INTER>
-7.68587

>  <SCORE.INTER.CONST>
1

>  <SCORE.INTER.POLAR>
0

>  <SCORE.INTER.ROT>
3

>  <SCORE.INTER.SOLV>
15.7935

>  <SCORE.INTER.VDW>
-15.9884

>  <SCORE.INTER.norm>
-0.256196

>  <SCORE.INTRA>
-5.9293

>  <SCORE.INTRA.DIHEDRAL>
-7.60031

>  <SCORE.INTRA.DIHEDRAL.0>
9.41909

>  <SCORE.INTRA.POLAR>
0

>  <SCORE.INTRA.POLAR.0>
0

>  <SCORE.INTRA.REPUL>
0.0646906

>  <SCORE.INTRA.REPUL.0>
0

>  <SCORE.INTRA.SOLV>
-0.321045

>  <SCORE.INTRA.SOLV.lig_0>
-26.2491

>  <SCORE.INTRA.VDW>
-2.29208

>  <SCORE.INTRA.VDW.0>
2.57239

>  <SCORE.INTRA.norm>
-0.197643

>  <SCORE.RESTR>
15.1159

>  <SCORE.RESTR.CAVITY>
15.1159

>  <SCORE.RESTR.norm>
0.503862

>  <SCORE.SYSTEM>
0

>  <SCORE.SYSTEM.CONST>
0

>  <SCORE.SYSTEM.DIHEDRAL>
0

>  <SCORE.SYSTEM.SOLV>
0

>  <SCORE.SYSTEM.norm>
0

>  <SCORE.heavy>
30

>  <SCORE.norm>
0.0500233

>  <RMSD>
19.853

$$$$
lig.pdb
 OpenBabel11021811523D
libRbt.so/2013.1/901 2013/11/27
 30 34  0  0  0  0  0  0  0  0999 V2000
   15.7392   25.7054   16.0930 N   0  0  0  0  0  0  0  0  0  0  0  0
   17.3868   26.2172   11.4529 N   0  0  0  0  0  0  0  0  0  0  0  0
   15.1998   24.3606   15.8696 C   0  0  0  0  0  0  0  0  0  0  0  0
   14.4767   24.0957   17.1816 C   0  0  2  0  0  0  0  0  0  0  0  0
   16.6607   26.3005   15.1317 C   0  0  0  0  0  0  0  0  0  0  0  0
   17.6733   27.2158   15.4850 C   0  0  0  0  0  0  0  0  0  0  0  0
   18.5236   27.7993   14.5792 C   0  0  0  0  0  0  0  0  0  0  0  0
   19.2978   28.1711   12.2348 C   0  0  0  0  0  0  0  0  0  0  0  0
   16.7107   24.9456    9.7070 C   0  0  0  0  0  0  0  0  0  0  0  0
   15.9347   24.3737   12.1137 C   0  0  0  0  0  0  0  0  0  0  0  0
   16.5595   25.9743   13.7499 C   0  0  0  0  0  0  0  0  0  0  0  0
   20.8371   27.8943    9.2211 O   0  0  0  0  0  0  0  0  0  0  0  0
   19.8935   28.4757    9.7611 C   0  0  0  0  0  0  0  0  0  0  0  0
   19.5560   29.7233    9.4582 O   0  0  0  0  0  0  0  0  0  0  0  0
   19.0847   27.8016   10.8113 C   0  0  1  0  0  0  0  0  0  0  0  0
   20.1794   28.9587   12.5947 O   0  0  0  0  0  0  0  0  0  0  0  0
   18.1468   26.8180   10.4521 C   0  0  0  0  0  0  0  0  0  0  0  0
   16.5980   25.1404   11.0244 C   0  0  0  0  0  0  0  0  0  0  0  0
   17.7991   26.0427    8.9633 S   0  0  0  0  0  0  0  0  0  0  0  0
   17.4491   26.5577   12.8193 C   0  0  0  0  0  0  0  0  0  0  0  0
   18.4141   27.4934   13.2228 C   0  0  0  0  0  0  0  0  0  0  0  0
   17.8453   27.5248   16.7859 F   0  0  0  0  0  0  0  0  0  0  0  0
   15.5388   25.1280   13.2894 N   0  0  0  0  0  0  0  0  0  0  0  0
   14.2826   25.8391   13.1827 C   0  0  0  0  0  0  0  0  0  0  0  0
   15.8140   26.0214   17.5150 C   0  0  0  0  0  0  0  0  0  0  0  0
   13.0947   23.8035   16.9709 O   0  0  0  0  0  0  0  0  0  0  0  0
   14.5034   25.4022   17.9706 C   0  0  2  0  0  0  0  0  0  0  0  0
   14.3921   25.0784   19.4056 N   0  0  0  0  0  0  0  0  0  0  0  0
   15.4131   24.1486   19.9219 C   0  0  0  0  0  0  0  0  0  0  0  0
   14.2356   26.2673   20.2575 C   0  0  0  0  0  0  0  0  0  0  0  0
  1  5  1  0  0  0  0
  2 17  1  0  0  0  0
  3  1  1  0  0  0  0
  4  3  1  0  0  0  0
  4 26  1  6  0  0  0
  5 11  2  0  0  0  0
  5  6  1  0  0  0  0
  6  7  2  0  0  0  0
  7 21  1  0  0  0  0
  8 15  1  0  0  0  0
  8 16  2  0  0  0  0
  9 19  1  0  0  0  0
 10 18  1  0  0  0  0
 11 20  1  0  0  0  0
 13 14  1  0  0  0  0
 13 12  2  0  0  0  0
 15 13  1  1  0  0  0
 17 19  2  0  0  0  0
 17 15  1  0  0  0  0
 18  2  1  0  0  0  0
 18  9  2  0  0  0  0
 20 21  2  0  0  0  0
 20  2  1  0  0  0  0
 21  8  1  0  0  0  0
 22  6  1  0  0  0  0
 23 11  1  0  0  0  0
 23 10  1  0  0  0  0
 24 23  1  0  0  0  0
 25  1  1  0  0  0  0
 27  4  1  0  0  0  0
 27 25  1  0  0  0  0
 27 28  1  1  0  0  0
 29 28  1  0  0  0  0
 30 28  1  0  0  0  0
M  END
>  <CHROM.1>
-149.31673678,170.72670266,103.75358469,177.44080143,55.97136151,16.92537539
26.31027153,13.77876889,-2.21485141,-0.74635086,-1.75720891

>  <Name>
lig.pdb

>  <RI>
0

>  <Rbt.Current_Directory>
/home/itssahil/PROJECTS/Mol_Feturizer/New_Systems/rnas/6bfb

>  <Rbt.Executable>
rbdock ($Id: //depot/dev/client3/rdock/2013.1/src/exe/rbdock.cxx#4 $)

>  <Rbt.Library>
libRbt.so (2013.1, Build901 2013/11/27)

>  <Rbt.Parameter_File>
/export/apps/rDock/src/rDock_2013.1_src/data/scripts/dock_solv.prm

>  <Rbt.Receptor>
prm/blind_docking_40.prm

>  <SCORE>
2.98514

>  <SCORE.INTER>
-9.83734

>  <SCORE.INTER.CONST>
1

>  <SCORE.INTER.POLAR>
-0.25989

>  <SCORE.INTER.ROT>
3

>  <SCORE.INTER.SOLV>
16.8439

>  <SCORE.INTER.VDW>
-16.9066

>  <SCORE.INTER.norm>
-0.327911

>  <SCORE.INTRA>
-2.23989

>  <SCORE.INTRA.DIHEDRAL>
-7.0298

>  <SCORE.INTRA.DIHEDRAL.0>
9.41909

>  <SCORE.INTRA.POLAR>
0

>  <SCORE.INTRA.POLAR.0>
0

>  <SCORE.INTRA.REPUL>
0

>  <SCORE.INTRA.REPUL.0>
0

>  <SCORE.INTRA.SOLV>
-0.108154

>  <SCORE.INTRA.SOLV.lig_0>
-26.2491

>  <SCORE.INTRA.VDW>
1.32909

>  <SCORE.INTRA.VDW.0>
2.57239

>  <SCORE.INTRA.norm>
-0.074663

>  <SCORE.RESTR>
15.0624

>  <SCORE.RESTR.CAVITY>
15.0624

>  <SCORE.RESTR.norm>
0.502079

>  <SCORE.SYSTEM>
0

>  <SCORE.SYSTEM.CONST>
0

>  <SCORE.SYSTEM.DIHEDRAL>
0

>  <SCORE.SYSTEM.SOLV>
0

>  <SCORE.SYSTEM.norm>
0

>  <SCORE.heavy>
30

>  <SCORE.norm>
0.0995046

>  <RMSD>
19.860

$$$$
lig.pdb
 OpenBabel11021811523D
libRbt.so/2013.1/901 2013/11/27
 30 34  0  0  0  0  0  0  0  0999 V2000
   15.7262   25.6841   16.0897 N   0  0  0  0  0  0  0  0  0  0  0  0
   17.3866   26.1941   11.4539 N   0  0  0  0  0  0  0  0  0  0  0  0
   15.1990   24.3344   15.8662 C   0  0  0  0  0  0  0  0  0  0  0  0
   14.4769   24.0637   17.1776 C   0  0  2  0  0  0  0  0  0  0  0  0
   16.6435   26.2869   15.1291 C   0  0  0  0  0  0  0  0  0  0  0  0
   17.6416   27.2182   15.4817 C   0  0  0  0  0  0  0  0  0  0  0  0
   18.4875   27.8087   14.5764 C   0  0  0  0  0  0  0  0  0  0  0  0
   19.2666   28.1788   12.2333 C   0  0  0  0  0  0  0  0  0  0  0  0
   16.7359   24.9038    9.7120 C   0  0  0  0  0  0  0  0  0  0  0  0
   15.9576   24.3339   12.1184 C   0  0  0  0  0  0  0  0  0  0  0  0
   16.5529   25.9519   13.7486 C   0  0  0  0  0  0  0  0  0  0  0  0
   20.6371   27.8375    9.0404 O   0  0  0  0  0  0  0  0  0  0  0  0
   19.8687   28.4786    9.7606 C   0  0  0  0  0  0  0  0  0  0  0  0
   19.7251   29.7942    9.6585 O   0  0  0  0  0  0  0  0  0  0  0  0
   19.0648   27.7987   10.8109 C   0  0  1  0  0  0  0  0  0  0  0  0
   20.1354   28.9807   12.5927 O   0  0  0  0  0  0  0  0  0  0  0  0
   18.1424   26.8001   10.4530 C   0  0  0  0  0  0  0  0  0  0  0  0
   16.6148   25.1040   11.0279 C   0  0  0  0  0  0  0  0  0  0  0  0
   17.8120   26.0121    8.9670 S   0  0  0  0  0  0  0  0  0  0  0  0
   17.4382   26.5427   12.8187 C   0  0  0  0  0  0  0  0  0  0  0  0
   18.3882   27.4940   13.2212 C   0  0  0  0  0  0  0  0  0  0  0  0
   17.8035   27.5365   16.7816 F   0  0  0  0  0  0  0  0  0  0  0  0
   15.5461   25.0889   13.2883 N   0  0  0  0  0  0  0  0  0  0  0  0
   14.2806   25.7817   13.1724 C   0  0  0  0  0  0  0  0  0  0  0  0
   15.7967   26.0013   17.5116 C   0  0  0  0  0  0  0  0  0  0  0  0
   13.0977   23.7592   16.9655 O   0  0  0  0  0  0  0  0  0  0  0  0
   14.4911   25.3707   17.9660 C   0  0  2  0  0  0  0  0  0  0  0  0
   14.3812   25.0465   19.4011 N   0  0  0  0  0  0  0  0  0  0  0  0
   15.4234   24.1444   19.9240 C   0  0  0  0  0  0  0  0  0  0  0  0
   14.1897   26.2325   20.2500 C   0  0  0  0  0  0  0  0  0  0  0  0
  1  5  1  0  0  0  0
  2 17  1  0  0  0  0
  3  1  1  0  0  0  0
  4  3  1  0  0  0  0
  4 26  1  6  0  0  0
  5 11  2  0  0  0  0
  5  6  1  0  0  0  0
  6  7  2  0  0  0  0
  7 21  1  0  0  0  0
  8 15  1  0  0  0  0
  8 16  2  0  0  0  0
  9 19  1  0  0  0  0
 10 18  1  0  0  0  0
 11 20  1  0  0  0  0
 13 14  1  0  0  0  0
 13 12  2  0  0  0  0
 15 13  1  1  0  0  0
 17 19  2  0  0  0  0
 17 15  1  0  0  0  0
 18  2  1  0  0  0  0
 18  9  2  0  0  0  0
 20 21  2  0  0  0  0
 20  2  1  0  0  0  0
 21  8  1  0  0  0  0
 22  6  1  0  0  0  0
 23 11  1  0  0  0  0
 23 10  1  0  0  0  0
 24 23  1  0  0  0  0
 25  1  1  0  0  0  0
 27  4  1  0  0  0  0
 27 25  1  0  0  0  0
 27 28  1  1  0  0  0
 29 28  1  0  0  0  0
 30 28  1  0  0  0  0
M  END
>  <CHROM.1>
-149.76680639,179.30072669,118.55485653,179.48118522,56.97474204,16.91595080
26.29320207,13.77904445,-2.22810067,-0.76298444,-1.77378336

>  <Name>
lig.pdb

>  <RI>
0

>  <Rbt.Current_Directory>
/home/itssahil/PROJECTS/Mol_Feturizer/New_Systems/rnas/6bfb

>  <Rbt.Executable>
rbdock ($Id: //depot/dev/client3/rdock/2013.1/src/exe/rbdock.cxx#4 $)

>  <Rbt.Library>
libRbt.so (2013.1, Build901 2013/11/27)

>  <Rbt.Parameter_File>
/export/apps/rDock/src/rDock_2013.1_src/data/scripts/dock_solv.prm

>  <Rbt.Receptor>
prm/blind_docking_40.prm

>  <SCORE>
2.86578

>  <SCORE.INTER>
-9.83762

>  <SCORE.INTER.CONST>
1

>  <SCORE.INTER.POLAR>
0

>  <SCORE.INTER.ROT>
3

>  <SCORE.INTER.SOLV>
16.7153

>  <SCORE.INTER.VDW>
-17.7302

>  <SCORE.INTER.norm>
-0.327921

>  <SCORE.INTRA>
-2.46004

>  <SCORE.INTRA.DIHEDRAL>
-7.7108

>  <SCORE.INTRA.DIHEDRAL.0>
9.41909

>  <SCORE.INTRA.POLAR>
0

>  <SCORE.INTRA.POLAR.0>
0

>  <SCORE.INTRA.REPUL>
0

>  <SCORE.INTRA.REPUL.0>
0

>  <SCORE.INTRA.SOLV>
-0.0705867

>  <SCORE.INTRA.SOLV.lig_0>
-26.2491

>  <SCORE.INTRA.VDW>
1.43065

>  <SCORE.INTRA.VDW.0>
2.57239

>  <SCORE.INTRA.norm>
-0.0820015

>  <SCORE.RESTR>
15.1634

>  <SCORE.RESTR.CAVITY>
15.1634

>  <SCORE.RESTR.norm>
0.505448

>  <SCORE.SYSTEM>
0

>  <SCORE.SYSTEM.CONST>
0

>  <SCORE.SYSTEM.DIHEDRAL>
0

>  <SCORE.SYSTEM.SOLV>
0

>  <SCORE.SYSTEM.norm>
0

>  <SCORE.heavy>
30

>  <SCORE.norm>
0.0955261

>  <RMSD>
19.875

$$$$
lig.pdb
 OpenBabel11021811523D
libRbt.so/2013.1/901 2013/11/27
 30 34  0  0  0  0  0  0  0  0999 V2000
   15.8043   25.7117   16.6699 N   0  0  0  0  0  0  0  0  0  0  0  0
   17.0912   26.1496   11.9097 N   0  0  0  0  0  0  0  0  0  0  0  0
   14.5515   26.3606   17.0685 C   0  0  0  0  0  0  0  0  0  0  0  0
   13.9470   25.3201   17.9992 C   0  0  2  0  0  0  0  0  0  0  0  0
   16.6420   26.2992   15.6304 C   0  0  0  0  0  0  0  0  0  0  0  0
   17.6643   27.2352   15.8883 C   0  0  0  0  0  0  0  0  0  0  0  0
   18.4354   27.8114   14.9098 C   0  0  0  0  0  0  0  0  0  0  0  0
   19.0257   28.1450   12.5069 C   0  0  0  0  0  0  0  0  0  0  0  0
   16.3053   24.8330   10.2449 C   0  0  0  0  0  0  0  0  0  0  0  0
   15.7208   24.3005   12.7140 C   0  0  0  0  0  0  0  0  0  0  0  0
   16.4424   25.9431   14.2667 C   0  0  0  0  0  0  0  0  0  0  0  0
   20.0163   27.7402    9.1343 O   0  0  0  0  0  0  0  0  0  0  0  0
   19.4295   28.4064    9.9898 C   0  0  0  0  0  0  0  0  0  0  0  0
   19.4152   29.7337    9.9754 O   0  0  0  0  0  0  0  0  0  0  0  0
   18.7120   27.7432   11.1109 C   0  0  1  0  0  0  0  0  0  0  0  0
   19.9198   28.9519   12.7838 O   0  0  0  0  0  0  0  0  0  0  0  0
   17.7648   26.7397   10.8428 C   0  0  0  0  0  0  0  0  0  0  0  0
   16.2888   25.0535   11.5630 C   0  0  0  0  0  0  0  0  0  0  0  0
   17.3181   25.9291    9.3999 S   0  0  0  0  0  0  0  0  0  0  0  0
   17.2507   26.5191   13.2605 C   0  0  0  0  0  0  0  0  0  0  0  0
   18.2290   27.4759   13.5718 C   0  0  0  0  0  0  0  0  0  0  0  0
   17.9287   27.5734   17.1663 F   0  0  0  0  0  0  0  0  0  0  0  0
   15.4028   25.0736   13.9011 N   0  0  0  0  0  0  0  0  0  0  0  0
   14.1316   25.7652   13.8754 C   0  0  0  0  0  0  0  0  0  0  0  0
   15.7479   24.2690   16.8768 C   0  0  0  0  0  0  0  0  0  0  0  0
   13.6931   25.8596   19.2971 O   0  0  0  0  0  0  0  0  0  0  0  0
   15.0089   24.2428   18.2042 C   0  0  2  0  0  0  0  0  0  0  0  0
   14.3273   22.9818   18.5533 N   0  0  0  0  0  0  0  0  0  0  0  0
   14.9442   21.7604   18.0049 C   0  0  0  0  0  0  0  0  0  0  0  0
   14.0292   22.8625   19.9888 C   0  0  0  0  0  0  0  0  0  0  0  0
  1  5  1  0  0  0  0
  2 17  1  0  0  0  0
  3  1  1  0  0  0  0
  4  3  1  0  0  0  0
  4 26  1  1  0  0  0
  5 11  2  0  0  0  0
  5  6  1  0  0  0  0
  6  7  2  0  0  0  0
  7 21  1  0  0  0  0
  8 15  1  0  0  0  0
  8 16  2  0  0  0  0
  9 19  1  0  0  0  0
 10 18  1  0  0  0  0
 11 20  1  0  0  0  0
 13 14  1  0  0  0  0
 13 12  2  0  0  0  0
 15 13  1  1  0  0  0
 17 19  2  0  0  0  0
 17 15  1  0  0  0  0
 18  2  1  0  0  0  0
 18  9  2  0  0  0  0
 20 21  2  0  0  0  0
 20  2  1  0  0  0  0
 21  8  1  0  0  0  0
 22  6  1  0  0  0  0
 23 11  1  0  0  0  0
 23 10  1  0  0  0  0
 24 23  1  0  0  0  0
 25  1  1  0  0  0  0
 27  4  1  0  0  0  0
 27 25  1  0  0  0  0
 27 28  1  6  0  0  0
 29 28  1  0  0  0  0
 30 28  1  0  0  0  0
M  END
>  <CHROM.1>
89.66524473,179.83863122,126.70718040,165.47461929,143.69289769,16.71824480
26.09705795,14.12173178,-2.30447368,-0.88076436,-1.78662416

>  <Name>
lig.pdb

>  <RI>
0

>  <Rbt.Current_Directory>
/home/itssahil/PROJECTS/Mol_Feturizer/New_Systems/rnas/6bfb

>  <Rbt.Executable>
rbdock ($Id: //depot/dev/client3/rdock/2013.1/src/exe/rbdock.cxx#4 $)

>  <Rbt.Library>
libRbt.so (2013.1, Build901 2013/11/27)

>  <Rbt.Parameter_File>
/export/apps/rDock/src/rDock_2013.1_src/data/scripts/dock_solv.prm

>  <Rbt.Receptor>
prm/blind_docking_40.prm

>  <SCORE>
9.35293

>  <SCORE.INTER>
-4.2614

>  <SCORE.INTER.CONST>
1

>  <SCORE.INTER.POLAR>
0

>  <SCORE.INTER.ROT>
3

>  <SCORE.INTER.SOLV>
16.8583

>  <SCORE.INTER.VDW>
-14.0604

>  <SCORE.INTER.norm>
-0.142047

>  <SCORE.INTRA>
-3.79053

>  <SCORE.INTRA.DIHEDRAL>
-5.60856

>  <SCORE.INTRA.DIHEDRAL.0>
9.41909

>  <SCORE.INTRA.POLAR>
0

>  <SCORE.INTRA.POLAR.0>
0

>  <SCORE.INTRA.REPUL>
0

>  <SCORE.INTRA.REPUL.0>
0

>  <SCORE.INTRA.SOLV>
-0.0183099

>  <SCORE.INTRA.SOLV.lig_0>
-26.2491

>  <SCORE.INTRA.VDW>
-0.977092

>  <SCORE.INTRA.VDW.0>
2.57239

>  <SCORE.INTRA.norm>
-0.126351

>  <SCORE.RESTR>
17.4049

>  <SCORE.RESTR.CAVITY>
17.4049

>  <SCORE.RESTR.norm>
0.580162

>  <SCORE.SYSTEM>
0

>  <SCORE.SYSTEM.CONST>
0

>  <SCORE.SYSTEM.DIHEDRAL>
0

>  <SCORE.SYSTEM.SOLV>
0

>  <SCORE.SYSTEM.norm>
0

>  <SCORE.heavy>
30

>  <SCORE.norm>
0.311764

>  <RMSD>
19.897

$$$$
lig.pdb
 OpenBabel11021811523D
libRbt.so/2013.1/901 2013/11/27
 30 34  0  0  0  0  0  0  0  0999 V2000
   15.8634   25.4845   16.2422 N   0  0  0  0  0  0  0  0  0  0  0  0
   17.2659   26.1252   11.5380 N   0  0  0  0  0  0  0  0  0  0  0  0
   15.5492   24.0562   16.1389 C   0  0  0  0  0  0  0  0  0  0  0  0
   14.8279   23.8026   17.4542 C   0  0  2  0  0  0  0  0  0  0  0  0
   16.7160   26.1267   15.2481 C   0  0  0  0  0  0  0  0  0  0  0  0
   17.7118   27.0721   15.5680 C   0  0  0  0  0  0  0  0  0  0  0  0
   18.4964   27.6994   14.6326 C   0  0  0  0  0  0  0  0  0  0  0  0
   19.1428   28.1342   12.2605 C   0  0  0  0  0  0  0  0  0  0  0  0
   16.5511   24.8568    9.8051 C   0  0  0  0  0  0  0  0  0  0  0  0
   15.9129   24.2210   12.2361 C   0  0  0  0  0  0  0  0  0  0  0  0
   16.5596   25.8180   13.8674 C   0  0  0  0  0  0  0  0  0  0  0  0
   20.2576   27.8765    8.9231 O   0  0  0  0  0  0  0  0  0  0  0  0
   19.6073   28.4974    9.7667 C   0  0  0  0  0  0  0  0  0  0  0  0
   19.5349   29.8228    9.7789 O   0  0  0  0  0  0  0  0  0  0  0  0
   18.8742   27.7789   10.8427 C   0  0  1  0  0  0  0  0  0  0  0  0
   20.0126   28.9473   12.5911 O   0  0  0  0  0  0  0  0  0  0  0  0
   17.9551   26.7679   10.5122 C   0  0  0  0  0  0  0  0  0  0  0  0
   16.4955   25.0275   11.1295 C   0  0  0  0  0  0  0  0  0  0  0  0
   17.5632   26.0033    9.0289 S   0  0  0  0  0  0  0  0  0  0  0  0
   17.3822   26.4469   12.9054 C   0  0  0  0  0  0  0  0  0  0  0  0
   18.3322   27.4103   13.2780 C   0  0  0  0  0  0  0  0  0  0  0  0
   17.9355   27.3674   16.8642 F   0  0  0  0  0  0  0  0  0  0  0  0
   15.5481   24.9428   13.4419 N   0  0  0  0  0  0  0  0  0  0  0  0
   14.2641   25.6100   13.4074 C   0  0  0  0  0  0  0  0  0  0  0  0
   15.8349   25.9388   17.6279 C   0  0  0  0  0  0  0  0  0  0  0  0
   13.5172   23.2762   17.2423 O   0  0  0  0  0  0  0  0  0  0  0  0
   14.6209   25.1642   18.1125 C   0  0  2  0  0  0  0  0  0  0  0  0
   14.5081   24.9613   19.5694 N   0  0  0  0  0  0  0  0  0  0  0  0
   15.7623   24.5960   20.2528 C   0  0  0  0  0  0  0  0  0  0  0  0
   13.7951   26.0514   20.2528 C   0  0  0  0  0  0  0  0  0  0  0  0
  1  5  1  0  0  0  0
  2 17  1  0  0  0  0
  3  1  1  0  0  0  0
  4  3  1  0  0  0  0
  4 26  1  6  0  0  0
  5 11  2  0  0  0  0
  5  6  1  0  0  0  0
  6  7  2  0  0  0  0
  7 21  1  0  0  0  0
  8 15  1  0  0  0  0
  8 16  2  0  0  0  0
  9 19  1  0  0  0  0
 10 18  1  0  0  0  0
 11 20  1  0  0  0  0
 13 14  1  0  0  0  0
 13 12  2  0  0  0  0
 15 13  1  1  0  0  0
 17 19  2  0  0  0  0
 17 15  1  0  0  0  0
 18  2  1  0  0  0  0
 18  9  2  0  0  0  0
 20 21  2  0  0  0  0
 20  2  1  0  0  0  0
 21  8  1  0  0  0  0
 22  6  1  0  0  0  0
 23 11  1  0  0  0  0
 23 10  1  0  0  0  0
 24 23  1  0  0  0  0
 25  1  1  0  0  0  0
 27  4  1  0  0  0  0
 27 25  1  0  0  0  0
 27 28  1  1  0  0  0
 29 28  1  0  0  0  0
 30 28  1  0  0  0  0
M  END
>  <CHROM.1>
-138.80510073,-179.14970855,124.85991356,179.53766345,71.65199661,16.89265758
26.19990764,13.88926800,-2.18559221,-0.79787106,-1.74461147

>  <Name>
lig.pdb

>  <RI>
0

>  <Rbt.Current_Directory>
/home/itssahil/PROJECTS/Mol_Feturizer/New_Systems/rnas/6bfb

>  <Rbt.Executable>
rbdock ($Id: //depot/dev/client3/rdock/2013.1/src/exe/rbdock.cxx#4 $)

>  <Rbt.Library>
libRbt.so (2013.1, Build901 2013/11/27)

>  <Rbt.Parameter_File>
/export/apps/rDock/src/rDock_2013.1_src/data/scripts/dock_solv.prm

>  <Rbt.Receptor>
prm/blind_docking_40.prm

>  <SCORE>
2.2491

>  <SCORE.INTER>
-9.2949

>  <SCORE.INTER.CONST>
1

>  <SCORE.INTER.POLAR>
0

>  <SCORE.INTER.ROT>
3

>  <SCORE.INTER.SOLV>
17.0426

>  <SCORE.INTER.VDW>
-17.4775

>  <SCORE.INTER.norm>
-0.30983

>  <SCORE.INTRA>
-3.83573

>  <SCORE.INTRA.DIHEDRAL>
-7.30881

>  <SCORE.INTRA.DIHEDRAL.0>
9.41909

>  <SCORE.INTRA.POLAR>
0

>  <SCORE.INTRA.POLAR.0>
0

>  <SCORE.INTRA.REPUL>
0

>  <SCORE.INTRA.REPUL.0>
0

>  <SCORE.INTRA.SOLV>
-0.120682

>  <SCORE.INTRA.SOLV.lig_0>
-26.2491

>  <SCORE.INTRA.VDW>
-0.120984

>  <SCORE.INTRA.VDW.0>
2.57239

>  <SCORE.INTRA.norm>
-0.127858

>  <SCORE.RESTR>
15.3797

>  <SCORE.RESTR.CAVITY>
15.3797

>  <SCORE.RESTR.norm>
0.512658

>  <SCORE.SYSTEM>
0

>  <SCORE.SYSTEM.CONST>
0

>  <SCORE.SYSTEM.DIHEDRAL>
0

>  <SCORE.SYSTEM.SOLV>
0

>  <SCORE.SYSTEM.norm>
0

>  <SCORE.heavy>
30

>  <SCORE.norm>
0.07497

>  <RMSD>
19.904

$$$$
lig.pdb
 OpenBabel11021811523D
libRbt.so/2013.1/901 2013/11/27
 30 34  0  0  0  0  0  0  0  0999 V2000
   15.7863   25.6979   16.6643 N   0  0  0  0  0  0  0  0  0  0  0  0
   17.0619   26.1766   11.9051 N   0  0  0  0  0  0  0  0  0  0  0  0
   14.5499   26.3640   17.0852 C   0  0  0  0  0  0  0  0  0  0  0  0
   13.9322   25.3187   18.0018 C   0  0  2  0  0  0  0  0  0  0  0  0
   16.6272   26.2878   15.6288 C   0  0  0  0  0  0  0  0  0  0  0  0
   17.6612   27.2088   15.8940 C   0  0  0  0  0  0  0  0  0  0  0  0
   18.4356   27.7874   14.9196 C   0  0  0  0  0  0  0  0  0  0  0  0
   19.0216   28.1423   12.5186 C   0  0  0  0  0  0  0  0  0  0  0  0
   16.2550   24.8888   10.2279 C   0  0  0  0  0  0  0  0  0  0  0  0
   15.6728   24.3343   12.6926 C   0  0  0  0  0  0  0  0  0  0  0  0
   16.4188   25.9500   14.2618 C   0  0  0  0  0  0  0  0  0  0  0  0
   19.9751   27.7656    9.1247 O   0  0  0  0  0  0  0  0  0  0  0  0
   19.4198   28.4285   10.0034 C   0  0  0  0  0  0  0  0  0  0  0  0
   19.4442   29.7556   10.0194 O   0  0  0  0  0  0  0  0  0  0  0  0
   18.6984   27.7606   11.1192 C   0  0  1  0  0  0  0  0  0  0  0  0
   19.9259   28.9354   12.8018 O   0  0  0  0  0  0  0  0  0  0  0  0
   17.7386   26.7714   10.8427 C   0  0  0  0  0  0  0  0  0  0  0  0
   16.2456   25.0940   11.5484 C   0  0  0  0  0  0  0  0  0  0  0  0
   17.2776   25.9830    9.3921 S   0  0  0  0  0  0  0  0  0  0  0  0
   17.2303   26.5283   13.2596 C   0  0  0  0  0  0  0  0  0  0  0  0
   18.2207   27.4701   13.5785 C   0  0  0  0  0  0  0  0  0  0  0  0
   17.9339   27.5289   17.1749 F   0  0  0  0  0  0  0  0  0  0  0  0
   15.3679   25.0970   13.8898 N   0  0  0  0  0  0  0  0  0  0  0  0
   14.1048   25.8036   13.8767 C   0  0  0  0  0  0  0  0  0  0  0  0
   15.7027   24.2530   16.8453 C   0  0  0  0  0  0  0  0  0  0  0  0
   13.6995   25.8390   19.3114 O   0  0  0  0  0  0  0  0  0  0  0  0
   14.9740   24.2170   18.1781 C   0  0  2  0  0  0  0  0  0  0  0  0
   14.2702   22.9635   18.5098 N   0  0  0  0  0  0  0  0  0  0  0  0
   13.3374   22.4738   17.4785 C   0  0  0  0  0  0  0  0  0  0  0  0
   15.1685   21.9067   18.9996 C   0  0  0  0  0  0  0  0  0  0  0  0
  1  5  1  0  0  0  0
  2 17  1  0  0  0  0
  3  1  1  0  0  0  0
  4  3  1  0  0  0  0
  4 26  1  1  0  0  0
  5 11  2  0  0  0  0
  5  6  1  0  0  0  0
  6  7  2  0  0  0  0
  7 21  1  0  0  0  0
  8 15  1  0  0  0  0
  8 16  2  0  0  0  0
  9 19  1  0  0  0  0
 10 18  1  0  0  0  0
 11 20  1  0  0  0  0
 13 14  1  0  0  0  0
 13 12  2  0  0  0  0
 15 13  1  1  0  0  0
 17 19  2  0  0  0  0
 17 15  1  0  0  0  0
 18  2  1  0  0  0  0
 18  9  2  0  0  0  0
 20 21  2  0  0  0  0
 20  2  1  0  0  0  0
 21  8  1  0  0  0  0
 22  6  1  0  0  0  0
 23 11  1  0  0  0  0
 23 10  1  0  0  0  0
 24 23  1  0  0  0  0
 25  1  1  0  0  0  0
 27  4  1  0  0  0  0
 27 25  1  0  0  0  0
 27 28  1  6  0  0  0
 29 28  1  0  0  0  0
 30 28  1  0  0  0  0
M  END
>  <CHROM.1>
88.99922866,0.61295317,128.04017177,178.03142340,61.73073568,16.68596842
26.09590974,14.06466582,-2.30363062,-0.85341943,-1.75415556

>  <Name>
lig.pdb

>  <RI>
0

>  <Rbt.Current_Directory>
/home/itssahil/PROJECTS/Mol_Feturizer/New_Systems/rnas/6bfb

>  <Rbt.Executable>
rbdock ($Id: //depot/dev/client3/rdock/2013.1/src/exe/rbdock.cxx#4 $)

>  <Rbt.Library>
libRbt.so (2013.1, Build901 2013/11/27)

>  <Rbt.Parameter_File>
/export/apps/rDock/src/rDock_2013.1_src/data/scripts/dock_solv.prm

>  <Rbt.Receptor>
prm/blind_docking_40.prm

>  <SCORE>
7.13417

>  <SCORE.INTER>
-4.1174

>  <SCORE.INTER.CONST>
1

>  <SCORE.INTER.POLAR>
0

>  <SCORE.INTER.ROT>
3

>  <SCORE.INTER.SOLV>
16.9854

>  <SCORE.INTER.VDW>
-14.0067

>  <SCORE.INTER.norm>
-0.137247

>  <SCORE.INTRA>
-6.37193

>  <SCORE.INTRA.DIHEDRAL>
-7.63583

>  <SCORE.INTRA.DIHEDRAL.0>
9.41909

>  <SCORE.INTRA.POLAR>
0

>  <SCORE.INTRA.POLAR.0>
0

>  <SCORE.INTRA.REPUL>
0

>  <SCORE.INTRA.REPUL.0>
0

>  <SCORE.INTRA.SOLV>
-0.0739294

>  <SCORE.INTRA.SOLV.lig_0>
-26.2491

>  <SCORE.INTRA.VDW>
-2.51705

>  <SCORE.INTRA.VDW.0>
2.57239

>  <SCORE.INTRA.norm>
-0.212398

>  <SCORE.RESTR>
17.6235

>  <SCORE.RESTR.CAVITY>
17.6235

>  <SCORE.RESTR.norm>
0.58745

>  <SCORE.SYSTEM>
0

>  <SCORE.SYSTEM.CONST>
0

>  <SCORE.SYSTEM.DIHEDRAL>
0

>  <SCORE.SYSTEM.SOLV>
0

>  <SCORE.SYSTEM.norm>
0

>  <SCORE.heavy>
30

>  <SCORE.norm>
0.237806

>  <RMSD>
19.912

$$$$
lig.pdb
 OpenBabel11021811523D
libRbt.so/2013.1/901 2013/11/27
 30 34  0  0  0  0  0  0  0  0999 V2000
   15.9441   25.7066   16.0304 N   0  0  0  0  0  0  0  0  0  0  0  0
   17.4057   26.1690   11.3233 N   0  0  0  0  0  0  0  0  0  0  0  0
   15.2459   24.4465   15.7581 C   0  0  0  0  0  0  0  0  0  0  0  0
   14.6339   24.1329   17.1151 C   0  0  2  0  0  0  0  0  0  0  0  0
   16.8225   26.2960   15.0261 C   0  0  0  0  0  0  0  0  0  0  0  0
   17.8404   27.2238   15.3276 C   0  0  0  0  0  0  0  0  0  0  0  0
   18.6499   27.8018   14.3818 C   0  0  0  0  0  0  0  0  0  0  0  0
   19.3292   28.1482   12.0043 C   0  0  0  0  0  0  0  0  0  0  0  0
   16.6729   24.8688    9.6218 C   0  0  0  0  0  0  0  0  0  0  0  0
   15.9959   24.3231   12.0642 C   0  0  0  0  0  0  0  0  0  0  0  0
   16.6704   25.9505   13.6537 C   0  0  0  0  0  0  0  0  0  0  0  0
   20.4646   27.7613    8.6856 O   0  0  0  0  0  0  0  0  0  0  0  0
   19.8257   28.4243    9.5055 C   0  0  0  0  0  0  0  0  0  0  0  0
   19.7913   29.7510    9.4796 O   0  0  0  0  0  0  0  0  0  0  0  0
   19.0640   27.7579   10.5952 C   0  0  1  0  0  0  0  0  0  0  0  0
   20.2175   28.9475   12.3192 O   0  0  0  0  0  0  0  0  0  0  0  0
   18.1211   26.7622   10.2857 C   0  0  0  0  0  0  0  0  0  0  0  0
   16.6099   25.0804   10.9399 C   0  0  0  0  0  0  0  0  0  0  0  0
   17.7223   25.9643    8.8219 S   0  0  0  0  0  0  0  0  0  0  0  0
   17.5182   26.5282   12.6816 C   0  0  0  0  0  0  0  0  0  0  0  0
   18.4903   27.4768   13.0349 C   0  0  0  0  0  0  0  0  0  0  0  0
   18.0602   27.5516   16.6167 F   0  0  0  0  0  0  0  0  0  0  0  0
   15.6397   25.0900   13.2445 N   0  0  0  0  0  0  0  0  0  0  0  0
   14.3744   25.7897   13.1775 C   0  0  0  0  0  0  0  0  0  0  0  0
   16.1937   25.8815   17.4567 C   0  0  0  0  0  0  0  0  0  0  0  0
   13.2146   23.9961   17.0330 O   0  0  0  0  0  0  0  0  0  0  0  0
   14.8772   25.3525   18.0003 C   0  0  2  0  0  0  0  0  0  0  0  0
   14.8765   24.9100   19.4078 N   0  0  0  0  0  0  0  0  0  0  0  0
   15.6263   25.7727   20.3389 C   0  0  0  0  0  0  0  0  0  0  0  0
   13.5345   24.5776   19.9100 C   0  0  0  0  0  0  0  0  0  0  0  0
  1  5  1  0  0  0  0
  2 17  1  0  0  0  0
  3  1  1  0  0  0  0
  4  3  1  0  0  0  0
  4 26  1  6  0  0  0
  5 11  2  0  0  0  0
  5  6  1  0  0  0  0
  6  7  2  0  0  0  0
  7 21  1  0  0  0  0
  8 15  1  0  0  0  0
  8 16  2  0  0  0  0
  9 19  1  0  0  0  0
 10 18  1  0  0  0  0
 11 20  1  0  0  0  0
 13 14  1  0  0  0  0
 13 12  2  0  0  0  0
 15 13  1  1  0  0  0
 17 19  2  0  0  0  0
 17 15  1  0  0  0  0
 18  2  1  0  0  0  0
 18  9  2  0  0  0  0
 20 21  2  0  0  0  0
 20  2  1  0  0  0  0
 21  8  1  0  0  0  0
 22  6  1  0  0  0  0
 23 11  1  0  0  0  0
 23 10  1  0  0  0  0
 24 23  1  0  0  0  0
 25  1  1  0  0  0  0
 27  4  1  0  0  0  0
 27 25  1  0  0  0  0
 27 28  1  1  0  0  0
 29 28  1  0  0  0  0
 30 28  1  0  0  0  0
M  END
>  <CHROM.1>
-158.64357506,-0.63227780,125.00609391,63.20613719,155.43439604,16.99547147
26.28128146,13.66016388,-2.18245638,-0.74041083,-1.73438961

>  <Name>
lig.pdb

>  <RI>
0

>  <Rbt.Current_Directory>
/home/itssahil/PROJECTS/Mol_Feturizer/New_Systems/rnas/6bfb

>  <Rbt.Executable>
rbdock ($Id: //depot/dev/client3/rdock/2013.1/src/exe/rbdock.cxx#4 $)

>  <Rbt.Library>
libRbt.so (2013.1, Build901 2013/11/27)

>  <Rbt.Parameter_File>
/export/apps/rDock/src/rDock_2013.1_src/data/scripts/dock_solv.prm

>  <Rbt.Receptor>
prm/blind_docking_40.prm

>  <SCORE>
5.07506

>  <SCORE.INTER>
-8.52555

>  <SCORE.INTER.CONST>
1

>  <SCORE.INTER.POLAR>
0

>  <SCORE.INTER.ROT>
3

>  <SCORE.INTER.SOLV>
17.1049

>  <SCORE.INTER.VDW>
-16.9853

>  <SCORE.INTER.norm>
-0.284185

>  <SCORE.INTRA>
-1.12152

>  <SCORE.INTRA.DIHEDRAL>
-7.17445

>  <SCORE.INTRA.DIHEDRAL.0>
9.41909

>  <SCORE.INTRA.POLAR>
0

>  <SCORE.INTRA.POLAR.0>
0

>  <SCORE.INTRA.REPUL>
0

>  <SCORE.INTRA.REPUL.0>
0

>  <SCORE.INTRA.SOLV>
0.00971269

>  <SCORE.INTRA.SOLV.lig_0>
-26.2491

>  <SCORE.INTRA.VDW>
2.46085

>  <SCORE.INTRA.VDW.0>
2.57239

>  <SCORE.INTRA.norm>
-0.0373839

>  <SCORE.RESTR>
14.7221

>  <SCORE.RESTR.CAVITY>
14.7221

>  <SCORE.RESTR.norm>
0.490738

>  <SCORE.SYSTEM>
0

>  <SCORE.SYSTEM.CONST>
0

>  <SCORE.SYSTEM.DIHEDRAL>
0

>  <SCORE.SYSTEM.SOLV>
0

>  <SCORE.SYSTEM.norm>
0

>  <SCORE.heavy>
30

>  <SCORE.norm>
0.169169

>  <RMSD>
19.916

$$$$
lig.pdb
 OpenBabel11021811523D
libRbt.so/2013.1/901 2013/11/27
 30 34  0  0  0  0  0  0  0  0999 V2000
   16.0197   25.3947   10.6127 N   0  0  0  0  0  0  0  0  0  0  0  0
   16.2881   26.2951   15.4732 N   0  0  0  0  0  0  0  0  0  0  0  0
   16.3343   24.1208    9.9587 C   0  0  0  0  0  0  0  0  0  0  0  0
   16.7548   24.5813    8.5711 C   0  0  2  0  0  0  0  0  0  0  0  0
   15.4061   25.4137   11.9358 C   0  0  0  0  0  0  0  0  0  0  0  0
   14.0774   25.0138   12.1857 C   0  0  0  0  0  0  0  0  0  0  0  0
   13.4881   25.0574   13.4245 C   0  0  0  0  0  0  0  0  0  0  0  0
   13.5544   25.6166   15.8570 C   0  0  0  0  0  0  0  0  0  0  0  0
   18.1965   26.8081   16.5765 C   0  0  0  0  0  0  0  0  0  0  0  0
   18.2802   26.1177   14.0789 C   0  0  0  0  0  0  0  0  0  0  0  0
   16.1516   25.8637   13.0618 C   0  0  0  0  0  0  0  0  0  0  0  0
   13.5877   25.3544   19.0411 O   0  0  0  0  0  0  0  0  0  0  0  0
   13.7963   26.3236   18.3082 C   0  0  0  0  0  0  0  0  0  0  0  0
   13.4865   27.5652   18.6608 O   0  0  0  0  0  0  0  0  0  0  0  0
   14.3989   26.1430   16.9606 C   0  0  1  0  0  0  0  0  0  0  0  0
   12.3892   25.2426   16.0288 O   0  0  0  0  0  0  0  0  0  0  0  0
   15.7538   26.4529   16.7498 C   0  0  0  0  0  0  0  0  0  0  0  0
   17.6765   26.4719   15.3921 C   0  0  0  0  0  0  0  0  0  0  0  0
   17.0195   26.8868   17.8213 S   0  0  0  0  0  0  0  0  0  0  0  0
   15.5527   25.8879   14.3418 C   0  0  0  0  0  0  0  0  0  0  0  0
   14.2124   25.5143   14.5254 C   0  0  0  0  0  0  0  0  0  0  0  0
   13.3399   24.5343   11.1641 F   0  0  0  0  0  0  0  0  0  0  0  0
   17.4591   26.3495   12.9042 N   0  0  0  0  0  0  0  0  0  0  0  0
   17.4521   27.7076   12.4039 C   0  0  0  0  0  0  0  0  0  0  0  0
   15.7556   26.4454    9.6362 C   0  0  0  0  0  0  0  0  0  0  0  0
   18.0751   24.1422    8.2488 O   0  0  0  0  0  0  0  0  0  0  0  0
   16.8299   26.1053    8.6170 C   0  0  2  0  0  0  0  0  0  0  0  0
   16.6262   26.6198    7.2493 N   0  0  0  0  0  0  0  0  0  0  0  0
   15.2741   26.4202    6.6968 C   0  0  0  0  0  0  0  0  0  0  0  0
   17.1056   27.9991    7.0718 C   0  0  0  0  0  0  0  0  0  0  0  0
  1  5  1  0  0  0  0
  2 17  1  0  0  0  0
  3  1  1  0  0  0  0
  4  3  1  0  0  0  0
  4 26  1  1  0  0  0
  5 11  2  0  0  0  0
  5  6  1  0  0  0  0
  6  7  2  0  0  0  0
  7 21  1  0  0  0  0
  8 15  1  0  0  0  0
  8 16  2  0  0  0  0
  9 19  1  0  0  0  0
 10 18  1  0  0  0  0
 11 20  1  0  0  0  0
 13 14  1  0  0  0  0
 13 12  2  0  0  0  0
 15 13  1  1  0  0  0
 17 19  2  0  0  0  0
 17 15  1  0  0  0  0
 18  2  1  0  0  0  0
 18  9  2  0  0  0  0
 20 21  2  0  0  0  0
 20  2  1  0  0  0  0
 21  8  1  0  0  0  0
 22  6  1  0  0  0  0
 23 11  1  0  0  0  0
 23 10  1  0  0  0  0
 24 23  1  0  0  0  0
 25  1  1  0  0  0  0
 27  4  1  0  0  0  0
 27 25  1  0  0  0  0
 27 28  1  6  0  0  0
 29 28  1  0  0  0  0
 30 28  1  0  0  0  0
M  END
>  <CHROM.1>
-70.02581299,179.33397829,76.00211981,-58.68756087,67.73431163,15.71218608
25.98321963,13.24317325,1.39315429,-0.31020620,-1.68157360

>  <Name>
lig.pdb

>  <RI>
0

>  <Rbt.Current_Directory>
/home/itssahil/PROJECTS/Mol_Feturizer/New_Systems/rnas/6bfb

>  <Rbt.Executable>
rbdock ($Id: //depot/dev/client3/rdock/2013.1/src/exe/rbdock.cxx#4 $)

>  <Rbt.Library>
libRbt.so (2013.1, Build901 2013/11/27)

>  <Rbt.Parameter_File>
/export/apps/rDock/src/rDock_2013.1_src/data/scripts/dock_solv.prm

>  <Rbt.Receptor>
prm/blind_docking_40.prm

>  <SCORE>
11.5162

>  <SCORE.INTER>
-3.6718

>  <SCORE.INTER.CONST>
1

>  <SCORE.INTER.POLAR>
0

>  <SCORE.INTER.ROT>
3

>  <SCORE.INTER.SOLV>
16.786

>  <SCORE.INTER.VDW>
-13.6432

>  <SCORE.INTER.norm>
-0.122393

>  <SCORE.INTRA>
-5.5266

>  <SCORE.INTRA.DIHEDRAL>
-7.44653

>  <SCORE.INTRA.DIHEDRAL.0>
9.41909

>  <SCORE.INTRA.POLAR>
0

>  <SCORE.INTRA.POLAR.0>
0

>  <SCORE.INTRA.REPUL>
0.0966608

>  <SCORE.INTRA.REPUL.0>
0

>  <SCORE.INTRA.SOLV>
-0.352045

>  <SCORE.INTRA.SOLV.lig_0>
-26.2491

>  <SCORE.INTRA.VDW>
-2.11061

>  <SCORE.INTRA.VDW.0>
2.57239

>  <SCORE.INTRA.norm>
-0.18422

>  <SCORE.RESTR>
20.7146

>  <SCORE.RESTR.CAVITY>
20.7146

>  <SCORE.RESTR.norm>
0.690487

>  <SCORE.SYSTEM>
0

>  <SCORE.SYSTEM.CONST>
0

>  <SCORE.SYSTEM.DIHEDRAL>
0

>  <SCORE.SYSTEM.SOLV>
0

>  <SCORE.SYSTEM.norm>
0

>  <SCORE.heavy>
30

>  <SCORE.norm>
0.383874

>  <RMSD>
19.917

$$$$
lig.pdb
 OpenBabel11021811523D
libRbt.so/2013.1/901 2013/11/27
 30 34  0  0  0  0  0  0  0  0999 V2000
   15.7854   25.7115   16.6643 N   0  0  0  0  0  0  0  0  0  0  0  0
   17.0599   26.1758   11.9033 N   0  0  0  0  0  0  0  0  0  0  0  0
   14.5464   26.3760   17.0801 C   0  0  0  0  0  0  0  0  0  0  0  0
   13.9308   25.3336   18.0014 C   0  0  2  0  0  0  0  0  0  0  0  0
   16.6258   26.2986   15.6267 C   0  0  0  0  0  0  0  0  0  0  0  0
   17.6594   27.2210   15.8888 C   0  0  0  0  0  0  0  0  0  0  0  0
   18.4332   27.7969   14.9124 C   0  0  0  0  0  0  0  0  0  0  0  0
   19.0186   28.1445   12.5102 C   0  0  0  0  0  0  0  0  0  0  0  0
   16.2534   24.8822   10.2303 C   0  0  0  0  0  0  0  0  0  0  0  0
   15.6720   24.3352   12.6969 C   0  0  0  0  0  0  0  0  0  0  0  0
   16.4173   25.9563   14.2609 C   0  0  0  0  0  0  0  0  0  0  0  0
   19.4558   29.6524    9.9113 O   0  0  0  0  0  0  0  0  0  0  0  0
   19.4162   28.4229    9.9940 C   0  0  0  0  0  0  0  0  0  0  0  0
   19.9887   27.6282    9.0980 O   0  0  0  0  0  0  0  0  0  0  0  0
   18.6954   27.7581   11.1121 C   0  0  1  0  0  0  0  0  0  0  0  0
   19.9226   28.9390   12.7907 O   0  0  0  0  0  0  0  0  0  0  0  0
   17.7361   26.7675   10.8389 C   0  0  0  0  0  0  0  0  0  0  0  0
   16.2441   25.0916   11.5502 C   0  0  0  0  0  0  0  0  0  0  0  0
   17.2753   25.9742    9.3909 S   0  0  0  0  0  0  0  0  0  0  0  0
   17.2283   26.5319   13.2566 C   0  0  0  0  0  0  0  0  0  0  0  0
   18.2183   27.4752   13.5723 C   0  0  0  0  0  0  0  0  0  0  0  0
   17.9321   27.5454   17.1686 F   0  0  0  0  0  0  0  0  0  0  0  0
   15.3669   25.1016   13.8917 N   0  0  0  0  0  0  0  0  0  0  0  0
   14.1034   25.8074   13.8766 C   0  0  0  0  0  0  0  0  0  0  0  0
   15.7061   24.2674   16.8528 C   0  0  0  0  0  0  0  0  0  0  0  0
   13.6948   25.8601   19.3079 O   0  0  0  0  0  0  0  0  0  0  0  0
   14.9758   24.2361   18.1848 C   0  0  2  0  0  0  0  0  0  0  0  0
   14.2754   22.9822   18.5222 N   0  0  0  0  0  0  0  0  0  0  0  0
   13.3649   22.4705   17.4818 C   0  0  0  0  0  0  0  0  0  0  0  0
   15.1727   21.9394   19.0431 C   0  0  0  0  0  0  0  0  0  0  0  0
  1  5  1  0  0  0  0
  2 17  1  0  0  0  0
  3  1  1  0  0  0  0
  4  3  1  0  0  0  0
  4 26  1  1  0  0  0
  5 11  2  0  0  0  0
  5  6  1  0  0  0  0
  6  7  2  0  0  0  0
  7 21  1  0  0  0  0
  8 15  1  0  0  0  0
  8 16  2  0  0  0  0
  9 19  1  0  0  0  0
 10 18  1  0  0  0  0
 11 20  1  0  0  0  0
 13 14  1  0  0  0  0
 13 12  2  0  0  0  0
 15 13  1  1  0  0  0
 17 19  2  0  0  0  0
 17 15  1  0  0  0  0
 18  2  1  0  0  0  0
 18  9  2  0  0  0  0
 20 21  2  0  0  0  0
 20  2  1  0  0  0  0
 21  8  1  0  0  0  0
 22  6  1  0  0  0  0
 23 11  1  0  0  0  0
 23 10  1  0  0  0  0
 24 23  1  0  0  0  0
 25  1  1  0  0  0  0
 27  4  1  0  0  0  0
 27 25  1  0  0  0  0
 27 28  1  6  0  0  0
 29 28  1  0  0  0  0
 30 28  1  0  0  0  0
M  END
>  <CHROM.1>
89.20562807,-179.58791752,-53.01960354,178.66907512,62.84278728,16.68648162
26.08502719,14.05999124,-2.29826595,-0.84980324,-1.75991540

>  <Name>
lig.pdb

>  <RI>
0

>  <Rbt.Current_Directory>
/home/itssahil/PROJECTS/Mol_Feturizer/New_Systems/rnas/6bfb

>  <Rbt.Executable>
rbdock ($Id: //depot/dev/client3/rdock/2013.1/src/exe/rbdock.cxx#4 $)

>  <Rbt.Library>
libRbt.so (2013.1, Build901 2013/11/27)

>  <Rbt.Parameter_File>
/export/apps/rDock/src/rDock_2013.1_src/data/scripts/dock_solv.prm

>  <Rbt.Receptor>
prm/blind_docking_40.prm

>  <SCORE>
8.35685

>  <SCORE.INTER>
-3.30733

>  <SCORE.INTER.CONST>
1

>  <SCORE.INTER.POLAR>
0

>  <SCORE.INTER.ROT>
3

>  <SCORE.INTER.SOLV>
16.5193

>  <SCORE.INTER.VDW>
-13.3113

>  <SCORE.INTER.norm>
-0.110244

>  <SCORE.INTRA>
-5.96396

>  <SCORE.INTRA.DIHEDRAL>
-7.61103

>  <SCORE.INTRA.DIHEDRAL.0>
9.41909

>  <SCORE.INTRA.POLAR>
0

>  <SCORE.INTRA.POLAR.0>
0

>  <SCORE.INTRA.REPUL>
0

>  <SCORE.INTRA.REPUL.0>
0

>  <SCORE.INTRA.SOLV>
-0.163073

>  <SCORE.INTRA.SOLV.lig_0>
-26.2491

>  <SCORE.INTRA.VDW>
-2.07691

>  <SCORE.INTRA.VDW.0>
2.57239

>  <SCORE.INTRA.norm>
-0.198799

>  <SCORE.RESTR>
17.6282

>  <SCORE.RESTR.CAVITY>
17.6282

>  <SCORE.RESTR.norm>
0.587605

>  <SCORE.SYSTEM>
0

>  <SCORE.SYSTEM.CONST>
0

>  <SCORE.SYSTEM.DIHEDRAL>
0

>  <SCORE.SYSTEM.SOLV>
0

>  <SCORE.SYSTEM.norm>
0

>  <SCORE.heavy>
30

>  <SCORE.norm>
0.278562

>  <RMSD>
19.919

$$$$
lig.pdb
 OpenBabel11021811523D
libRbt.so/2013.1/901 2013/11/27
 30 34  0  0  0  0  0  0  0  0999 V2000
   15.7871   25.7005   16.6553 N   0  0  0  0  0  0  0  0  0  0  0  0
   17.0531   26.1902   11.8946 N   0  0  0  0  0  0  0  0  0  0  0  0
   14.5514   26.3670   17.0774 C   0  0  0  0  0  0  0  0  0  0  0  0
   13.9337   25.3213   17.9937 C   0  0  2  0  0  0  0  0  0  0  0  0
   16.6277   26.2908   15.6197 C   0  0  0  0  0  0  0  0  0  0  0  0
   17.6657   27.2071   15.8854 C   0  0  0  0  0  0  0  0  0  0  0  0
   18.4398   27.7861   14.9110 C   0  0  0  0  0  0  0  0  0  0  0  0
   19.0214   28.1467   12.5098 C   0  0  0  0  0  0  0  0  0  0  0  0
   16.2374   24.9108   10.2151 C   0  0  0  0  0  0  0  0  0  0  0  0
   15.6591   24.3504   12.6794 C   0  0  0  0  0  0  0  0  0  0  0  0
   16.4148   25.9582   14.2521 C   0  0  0  0  0  0  0  0  0  0  0  0
   19.4632   29.6695    9.9224 O   0  0  0  0  0  0  0  0  0  0  0  0
   19.4145   28.4396    9.9946 C   0  0  0  0  0  0  0  0  0  0  0  0
   19.9771   27.6485    9.0893 O   0  0  0  0  0  0  0  0  0  0  0  0
   18.6934   27.7707   11.1100 C   0  0  1  0  0  0  0  0  0  0  0  0
   19.9293   28.9356   12.7934 O   0  0  0  0  0  0  0  0  0  0  0  0
   17.7294   26.7859   10.8326 C   0  0  0  0  0  0  0  0  0  0  0  0
   16.2319   25.1118   11.5364 C   0  0  0  0  0  0  0  0  0  0  0  0
   17.2620   26.0040    9.3805 S   0  0  0  0  0  0  0  0  0  0  0  0
   17.2260   26.5369   13.2498 C   0  0  0  0  0  0  0  0  0  0  0  0
   18.2206   27.4739   13.5694 C   0  0  0  0  0  0  0  0  0  0  0  0
   17.9427   27.5220   17.1667 F   0  0  0  0  0  0  0  0  0  0  0  0
   15.3599   25.1103   13.8799 N   0  0  0  0  0  0  0  0  0  0  0  0
   14.0993   25.8215   13.8721 C   0  0  0  0  0  0  0  0  0  0  0  0
   15.7030   24.2556   16.8354 C   0  0  0  0  0  0  0  0  0  0  0  0
   13.7020   25.8408   19.3037 O   0  0  0  0  0  0  0  0  0  0  0  0
   14.9751   24.2190   18.1686 C   0  0  2  0  0  0  0  0  0  0  0  0
   14.2708   22.9656   18.4999 N   0  0  0  0  0  0  0  0  0  0  0  0
   13.3611   22.4602   17.4557 C   0  0  0  0  0  0  0  0  0  0  0  0
   15.1644   21.9186   19.0187 C   0  0  0  0  0  0  0  0  0  0  0  0
  1  5  1  0  0  0  0
  2 17  1  0  0  0  0
  3  1  1  0  0  0  0
  4  3  1  0  0  0  0
  4 26  1  1  0  0  0
  5 11  2  0  0  0  0
  5  6  1  0  0  0  0
  6  7  2  0  0  0  0
  7 21  1  0  0  0  0
  8 15  1  0  0  0  0
  8 16  2  0  0  0  0
  9 19  1  0  0  0  0
 10 18  1  0  0  0  0
 11 20  1  0  0  0  0
 13 14  1  0  0  0  0
 13 12  2  0  0  0  0
 15 13  1  1  0  0  0
 17 19  2  0  0  0  0
 17 15  1  0  0  0  0
 18  2  1  0  0  0  0
 18  9  2  0  0  0  0
 20 21  2  0  0  0  0
 20  2  1  0  0  0  0
 21  8  1  0  0  0  0
 22  6  1  0  0  0  0
 23 11  1  0  0  0  0
 23 10  1  0  0  0  0
 24 23  1  0  0  0  0
 25  1  1  0  0  0  0
 27  4  1  0  0  0  0
 27 25  1  0  0  0  0
 27 28  1  6  0  0  0
 29 28  1  0  0  0  0
 30 28  1  0  0  0  0
M  END
>  <CHROM.1>
89.25563506,179.23694242,-52.75662959,63.65267704,63.10804202,16.68368066
26.09041725,14.05026293,-2.29563620,-0.84718297,-1.75332192

>  <Name>
lig.pdb

>  <RI>
0

>  <Rbt.Current_Directory>
/home/itssahil/PROJECTS/Mol_Feturizer/New_Systems/rnas/6bfb

>  <Rbt.Executable>
rbdock ($Id: //depot/dev/client3/rdock/2013.1/src/exe/rbdock.cxx#4 $)

>  <Rbt.Library>
libRbt.so (2013.1, Build901 2013/11/27)

>  <Rbt.Parameter_File>
/export/apps/rDock/src/rDock_2013.1_src/data/scripts/dock_solv.prm

>  <Rbt.Receptor>
prm/blind_docking_40.prm

>  <SCORE>
8.29911

>  <SCORE.INTER>
-3.47449

>  <SCORE.INTER.CONST>
1

>  <SCORE.INTER.POLAR>
0

>  <SCORE.INTER.ROT>
3

>  <SCORE.INTER.SOLV>
16.6838

>  <SCORE.INTER.VDW>
-13.4776

>  <SCORE.INTER.norm>
-0.115816

>  <SCORE.INTRA>
-5.8894

>  <SCORE.INTRA.DIHEDRAL>
-7.53829

>  <SCORE.INTRA.DIHEDRAL.0>
9.41909

>  <SCORE.INTRA.POLAR>
0

>  <SCORE.INTRA.POLAR.0>
0

>  <SCORE.INTRA.REPUL>
0

>  <SCORE.INTRA.REPUL.0>
0

>  <SCORE.INTRA.SOLV>
-0.220478

>  <SCORE.INTRA.SOLV.lig_0>
-26.2491

>  <SCORE.INTRA.VDW>
-2.01002

>  <SCORE.INTRA.VDW.0>
2.57239

>  <SCORE.INTRA.norm>
-0.196313

>  <SCORE.RESTR>
17.663

>  <SCORE.RESTR.CAVITY>
17.663

>  <SCORE.RESTR.norm>
0.588766

>  <SCORE.SYSTEM>
0

>  <SCORE.SYSTEM.CONST>
0

>  <SCORE.SYSTEM.DIHEDRAL>
0

>  <SCORE.SYSTEM.SOLV>
0

>  <SCORE.SYSTEM.norm>
0

>  <SCORE.heavy>
30

>  <SCORE.norm>
0.276637

>  <RMSD>
19.920

$$$$
lig.pdb
 OpenBabel11021811523D
libRbt.so/2013.1/901 2013/11/27
 30 34  0  0  0  0  0  0  0  0999 V2000
   15.9243   25.6935   16.0310 N   0  0  0  0  0  0  0  0  0  0  0  0
   17.4018   26.1673   11.3300 N   0  0  0  0  0  0  0  0  0  0  0  0
   15.2695   24.4073   15.7734 C   0  0  0  0  0  0  0  0  0  0  0  0
   14.6407   24.1044   17.1252 C   0  0  2  0  0  0  0  0  0  0  0  0
   16.8042   26.2875   15.0308 C   0  0  0  0  0  0  0  0  0  0  0  0
   17.8174   27.2189   15.3372 C   0  0  0  0  0  0  0  0  0  0  0  0
   18.6282   27.8011   14.3952 C   0  0  0  0  0  0  0  0  0  0  0  0
   19.3151   28.1531   12.0207 C   0  0  0  0  0  0  0  0  0  0  0  0
   16.6804   24.8664    9.6242 C   0  0  0  0  0  0  0  0  0  0  0  0
   15.9963   24.3151   12.0634 C   0  0  0  0  0  0  0  0  0  0  0  0
   16.6586   25.9430   13.6574 C   0  0  0  0  0  0  0  0  0  0  0  0
   20.4647   27.7746    8.7060 O   0  0  0  0  0  0  0  0  0  0  0  0
   19.8199   28.4341    9.5241 C   0  0  0  0  0  0  0  0  0  0  0  0
   19.7801   29.7607    9.4994 O   0  0  0  0  0  0  0  0  0  0  0  0
   19.0566   27.7635   10.6100 C   0  0  1  0  0  0  0  0  0  0  0  0
   20.1990   28.9554   12.3399 O   0  0  0  0  0  0  0  0  0  0  0  0
   18.1188   26.7646   10.2958 C   0  0  0  0  0  0  0  0  0  0  0  0
   16.6116   25.0761   10.9423 C   0  0  0  0  0  0  0  0  0  0  0  0
   17.7285   25.9669    8.8296 S   0  0  0  0  0  0  0  0  0  0  0  0
   17.5078   26.5253   12.6891 C   0  0  0  0  0  0  0  0  0  0  0  0
   18.4749   27.4772   13.0473 C   0  0  0  0  0  0  0  0  0  0  0  0
   18.0311   27.5459   16.6275 F   0  0  0  0  0  0  0  0  0  0  0  0
   15.6327   25.0792   13.2432 N   0  0  0  0  0  0  0  0  0  0  0  0
   14.3650   25.7740   13.1723 C   0  0  0  0  0  0  0  0  0  0  0  0
   16.1407   25.9064   17.4576 C   0  0  0  0  0  0  0  0  0  0  0  0
   13.2279   23.9231   17.0193 O   0  0  0  0  0  0  0  0  0  0  0  0
   14.8302   25.3495   17.9878 C   0  0  2  0  0  0  0  0  0  0  0  0
   14.8152   24.9376   19.4043 N   0  0  0  0  0  0  0  0  0  0  0  0
   15.5007   25.8542   20.3335 C   0  0  0  0  0  0  0  0  0  0  0  0
   13.4780   24.5531   19.8818 C   0  0  0  0  0  0  0  0  0  0  0  0
  1  5  1  0  0  0  0
  2 17  1  0  0  0  0
  3  1  1  0  0  0  0
  4  3  1  0  0  0  0
  4 26  1  6  0  0  0
  5 11  2  0  0  0  0
  5  6  1  0  0  0  0
  6  7  2  0  0  0  0
  7 21  1  0  0  0  0
  8 15  1  0  0  0  0
  8 16  2  0  0  0  0
  9 19  1  0  0  0  0
 10 18  1  0  0  0  0
 11 20  1  0  0  0  0
 13 14  1  0  0  0  0
 13 12  2  0  0  0  0
 15 13  1  1  0  0  0
 17 19  2  0  0  0  0
 17 15  1  0  0  0  0
 18  2  1  0  0  0  0
 18  9  2  0  0  0  0
 20 21  2  0  0  0  0
 20  2  1  0  0  0  0
 21  8  1  0  0  0  0
 22  6  1  0  0  0  0
 23 11  1  0  0  0  0
 23 10  1  0  0  0  0
 24 23  1  0  0  0  0
 25  1  1  0  0  0  0
 27  4  1  0  0  0  0
 27 25  1  0  0  0  0
 27 28  1  1  0  0  0
 29 28  1  0  0  0  0
 30 28  1  0  0  0  0
M  END
>  <CHROM.1>
-156.46047666,1.29403798,124.98783101,62.58292497,156.44089985,16.97891357
26.27911062,13.66537909,-2.19361884,-0.74744235,-1.74505162

>  <Name>
lig.pdb

>  <RI>
0

>  <Rbt.Current_Directory>
/home/itssahil/PROJECTS/Mol_Feturizer/New_Systems/rnas/6bfb

>  <Rbt.Executable>
rbdock ($Id: //depot/dev/client3/rdock/2013.1/src/exe/rbdock.cxx#4 $)

>  <Rbt.Library>
libRbt.so (2013.1, Build901 2013/11/27)

>  <Rbt.Parameter_File>
/export/apps/rDock/src/rDock_2013.1_src/data/scripts/dock_solv.prm

>  <Rbt.Receptor>
prm/blind_docking_40.prm

>  <SCORE>
4.53718

>  <SCORE.INTER>
-8.78627

>  <SCORE.INTER.CONST>
1

>  <SCORE.INTER.POLAR>
0

>  <SCORE.INTER.ROT>
3

>  <SCORE.INTER.SOLV>
16.9701

>  <SCORE.INTER.VDW>
-17.1142

>  <SCORE.INTER.norm>
-0.292876

>  <SCORE.INTRA>
-1.525

>  <SCORE.INTRA.DIHEDRAL>
-7.24274

>  <SCORE.INTRA.DIHEDRAL.0>
9.41909

>  <SCORE.INTRA.POLAR>
0

>  <SCORE.INTRA.POLAR.0>
0

>  <SCORE.INTRA.REPUL>
0

>  <SCORE.INTRA.REPUL.0>
0

>  <SCORE.INTRA.SOLV>
0.00490456

>  <SCORE.INTRA.SOLV.lig_0>
-26.2491

>  <SCORE.INTRA.VDW>
2.09392

>  <SCORE.INTRA.VDW.0>
2.57239

>  <SCORE.INTRA.norm>
-0.0508332

>  <SCORE.RESTR>
14.8484

>  <SCORE.RESTR.CAVITY>
14.8484

>  <SCORE.RESTR.norm>
0.494948

>  <SCORE.SYSTEM>
0

>  <SCORE.SYSTEM.CONST>
0

>  <SCORE.SYSTEM.DIHEDRAL>
0

>  <SCORE.SYSTEM.SOLV>
0

>  <SCORE.SYSTEM.norm>
0

>  <SCORE.heavy>
30

>  <SCORE.norm>
0.151239

>  <RMSD>
19.921

$$$$
lig.pdb
 OpenBabel11021811523D
libRbt.so/2013.1/901 2013/11/27
 30 34  0  0  0  0  0  0  0  0999 V2000
   15.7900   25.6916   16.6396 N   0  0  0  0  0  0  0  0  0  0  0  0
   17.0809   26.1769   11.8851 N   0  0  0  0  0  0  0  0  0  0  0  0
   14.5688   26.3714   17.0825 C   0  0  0  0  0  0  0  0  0  0  0  0
   13.9407   25.3210   17.9860 C   0  0  2  0  0  0  0  0  0  0  0  0
   16.6325   26.2849   15.6074 C   0  0  0  0  0  0  0  0  0  0  0  0
   17.6622   27.2096   15.8766 C   0  0  0  0  0  0  0  0  0  0  0  0
   18.4380   27.7913   14.9052 C   0  0  0  0  0  0  0  0  0  0  0  0
   19.0313   28.1494   12.5065 C   0  0  0  0  0  0  0  0  0  0  0  0
   16.2847   24.8869   10.2045 C   0  0  0  0  0  0  0  0  0  0  0  0
   15.6956   24.3292   12.6669 C   0  0  0  0  0  0  0  0  0  0  0  0
   16.4302   25.9470   14.2395 C   0  0  0  0  0  0  0  0  0  0  0  0
   19.9886   27.7776    9.1096 O   0  0  0  0  0  0  0  0  0  0  0  0
   19.4374   28.4380    9.9929 C   0  0  0  0  0  0  0  0  0  0  0  0
   19.4680   29.7649   10.0165 O   0  0  0  0  0  0  0  0  0  0  0  0
   18.7145   27.7670   11.1059 C   0  0  1  0  0  0  0  0  0  0  0  0
   19.9318   28.9456   12.7933 O   0  0  0  0  0  0  0  0  0  0  0  0
   17.7593   26.7745   10.8255 C   0  0  0  0  0  0  0  0  0  0  0  0
   16.2698   25.0915   11.5252 C   0  0  0  0  0  0  0  0  0  0  0  0
   17.3063   25.9850    9.3729 S   0  0  0  0  0  0  0  0  0  0  0  0
   17.2432   26.5286   13.2404 C   0  0  0  0  0  0  0  0  0  0  0  0
   18.2291   27.4738   13.5632 C   0  0  0  0  0  0  0  0  0  0  0  0
   17.9291   27.5301   17.1586 F   0  0  0  0  0  0  0  0  0  0  0  0
   15.3837   25.0904   13.8633 N   0  0  0  0  0  0  0  0  0  0  0  0
   14.1181   25.7924   13.8460 C   0  0  0  0  0  0  0  0  0  0  0  0
   15.6828   24.2454   16.7963 C   0  0  0  0  0  0  0  0  0  0  0  0
   13.7277   25.8223   19.3064 O   0  0  0  0  0  0  0  0  0  0  0  0
   14.9646   24.1987   18.1344 C   0  0  2  0  0  0  0  0  0  0  0  0
   14.2419   22.9519   18.4503 N   0  0  0  0  0  0  0  0  0  0  0  0
   13.7208   22.8580   19.8261 C   0  0  0  0  0  0  0  0  0  0  0  0
   13.2302   22.5975   17.4429 C   0  0  0  0  0  0  0  0  0  0  0  0
  1  5  1  0  0  0  0
  2 17  1  0  0  0  0
  3  1  1  0  0  0  0
  4  3  1  0  0  0  0
  4 26  1  1  0  0  0
  5 11  2  0  0  0  0
  5  6  1  0  0  0  0
  6  7  2  0  0  0  0
  7 21  1  0  0  0  0
  8 15  1  0  0  0  0
  8 16  2  0  0  0  0
  9 19  1  0  0  0  0
 10 18  1  0  0  0  0
 11 20  1  0  0  0  0
 13 14  1  0  0  0  0
 13 12  2  0  0  0  0
 15 13  1  1  0  0  0
 17 19  2  0  0  0  0
 17 15  1  0  0  0  0
 18  2  1  0  0  0  0
 18  9  2  0  0  0  0
 20 21  2  0  0  0  0
 20  2  1  0  0  0  0
 21  8  1  0  0  0  0
 22  6  1  0  0  0  0
 23 11  1  0  0  0  0
 23 10  1  0  0  0  0
 24 23  1  0  0  0  0
 25  1  1  0  0  0  0
 27  4  1  0  0  0  0
 27 25  1  0  0  0  0
 27 28  1  6  0  0  0
 29 28  1  0  0  0  0
 30 28  1  0  0  0  0
M  END
>  <CHROM.1>
87.31271852,1.45146256,128.66763907,62.68989214,-74.22902910,16.64217967
26.13625565,14.07185781,-2.30619210,-0.81986279,-1.76331766

>  <Name>
lig.pdb

>  <RI>
0

>  <Rbt.Current_Directory>
/home/itssahil/PROJECTS/Mol_Feturizer/New_Systems/rnas/6bfb

>  <Rbt.Executable>
rbdock ($Id: //depot/dev/client3/rdock/2013.1/src/exe/rbdock.cxx#4 $)

>  <Rbt.Library>
libRbt.so (2013.1, Build901 2013/11/27)

>  <Rbt.Parameter_File>
/export/apps/rDock/src/rDock_2013.1_src/data/scripts/dock_solv.prm

>  <Rbt.Receptor>
prm/blind_docking_40.prm

>  <SCORE>
7.71434

>  <SCORE.INTER>
-4.76038

>  <SCORE.INTER.CONST>
1

>  <SCORE.INTER.POLAR>
0

>  <SCORE.INTER.ROT>
3

>  <SCORE.INTER.SOLV>
17.05

>  <SCORE.INTER.VDW>
-14.4569

>  <SCORE.INTER.norm>
-0.158679

>  <SCORE.INTRA>
-5.02395

>  <SCORE.INTRA.DIHEDRAL>
-7.58448

>  <SCORE.INTRA.DIHEDRAL.0>
9.41909

>  <SCORE.INTRA.POLAR>
0

>  <SCORE.INTRA.POLAR.0>
0

>  <SCORE.INTRA.REPUL>
0

>  <SCORE.INTRA.REPUL.0>
0

>  <SCORE.INTRA.SOLV>
0.142825

>  <SCORE.INTRA.SOLV.lig_0>
-26.2491

>  <SCORE.INTRA.VDW>
-1.30313

>  <SCORE.INTRA.VDW.0>
2.57239

>  <SCORE.INTRA.norm>
-0.167465

>  <SCORE.RESTR>
17.4987

>  <SCORE.RESTR.CAVITY>
17.4987

>  <SCORE.RESTR.norm>
0.583289

>  <SCORE.SYSTEM>
0

>  <SCORE.SYSTEM.CONST>
0

>  <SCORE.SYSTEM.DIHEDRAL>
0

>  <SCORE.SYSTEM.SOLV>
0

>  <SCORE.SYSTEM.norm>
0

>  <SCORE.heavy>
30

>  <SCORE.norm>
0.257145

>  <RMSD>
19.921

$$$$
lig.pdb
 OpenBabel11021811523D
libRbt.so/2013.1/901 2013/11/27
 30 34  0  0  0  0  0  0  0  0999 V2000
   16.3063   25.9395   15.2634 N   0  0  0  0  0  0  0  0  0  0  0  0
   19.1400   27.1572   11.3910 N   0  0  0  0  0  0  0  0  0  0  0  0
   16.6336   27.0966   16.1021 C   0  0  0  0  0  0  0  0  0  0  0  0
   16.0533   26.6790   17.4449 C   0  0  2  0  0  0  0  0  0  0  0  0
   16.5389   25.9815   13.8240 C   0  0  0  0  0  0  0  0  0  0  0  0
   15.6280   25.4808   12.8715 C   0  0  0  0  0  0  0  0  0  0  0  0
   15.8563   25.4929   11.5181 C   0  0  0  0  0  0  0  0  0  0  0  0
   17.3161   25.9842    9.5530 C   0  0  0  0  0  0  0  0  0  0  0  0
   21.0155   28.4172   11.5234 C   0  0  0  0  0  0  0  0  0  0  0  0
   19.5150   28.0902   13.6121 C   0  0  0  0  0  0  0  0  0  0  0  0
   17.7435   26.5405   13.3117 C   0  0  0  0  0  0  0  0  0  0  0  0
   19.1109   27.5299    7.0203 O   0  0  0  0  0  0  0  0  0  0  0  0
   18.9870   26.4946    7.6783 C   0  0  0  0  0  0  0  0  0  0  0  0
   19.1521   25.2884    7.1494 O   0  0  0  0  0  0  0  0  0  0  0  0
   18.6209   26.5476    9.1187 C   0  0  1  0  0  0  0  0  0  0  0  0
   16.4806   25.5449    8.7555 O   0  0  0  0  0  0  0  0  0  0  0  0
   19.4971   27.1398   10.0448 C   0  0  0  0  0  0  0  0  0  0  0  0
   19.9921   27.9064   12.2146 C   0  0  0  0  0  0  0  0  0  0  0  0
   20.9511   28.0276    9.8544 S   0  0  0  0  0  0  0  0  0  0  0  0
   17.9697   26.5737   11.9169 C   0  0  0  0  0  0  0  0  0  0  0  0
   17.0439   26.0249   11.0162 C   0  0  0  0  0  0  0  0  0  0  0  0
   14.4499   24.9827   13.2977 F   0  0  0  0  0  0  0  0  0  0  0  0
   18.7437   27.0003   14.1826 N   0  0  0  0  0  0  0  0  0  0  0  0
   19.5167   25.8982   14.7143 C   0  0  0  0  0  0  0  0  0  0  0  0
   15.2175   25.1558   15.8358 C   0  0  0  0  0  0  0  0  0  0  0  0
   17.0474   26.6790   18.4704 O   0  0  0  0  0  0  0  0  0  0  0  0
   15.6134   25.2243   17.3012 C   0  0  2  0  0  0  0  0  0  0  0  0
   14.5446   24.9649   18.2845 N   0  0  0  0  0  0  0  0  0  0  0  0
   15.0014   24.4585   19.5915 C   0  0  0  0  0  0  0  0  0  0  0  0
   13.5958   26.0812   18.4170 C   0  0  0  0  0  0  0  0  0  0  0  0
  1  5  1  0  0  0  0
  2 17  1  0  0  0  0
  3  1  1  0  0  0  0
  4  3  1  0  0  0  0
  4 26  1  1  0  0  0
  5 11  2  0  0  0  0
  5  6  1  0  0  0  0
  6  7  2  0  0  0  0
  7 21  1  0  0  0  0
  8 15  1  0  0  0  0
  8 16  2  0  0  0  0
  9 19  1  0  0  0  0
 10 18  1  0  0  0  0
 11 20  1  0  0  0  0
 13 14  1  0  0  0  0
 13 12  2  0  0  0  0
 15 13  1  6  0  0  0
 17 19  2  0  0  0  0
 17 15  1  0  0  0  0
 18  2  1  0  0  0  0
 18  9  2  0  0  0  0
 20 21  2  0  0  0  0
 20  2  1  0  0  0  0
 21  8  1  0  0  0  0
 22  6  1  0  0  0  0
 23 11  1  0  0  0  0
 23 10  1  0  0  0  0
 24 23  1  0  0  0  0
 25  1  1  0  0  0  0
 27  4  1  0  0  0  0
 27 25  1  0  0  0  0
 27 28  1  1  0  0  0
 29 28  1  0  0  0  0
 30 28  1  0  0  0  0
M  END
>  <CHROM.1>
-137.65063973,-178.12982471,114.71076608,59.24984617,-91.38083988,17.54006700
26.38542620,12.96134375,2.05477415,0.49869064,1.46889858

>  <Name>
lig.pdb

>  <RI>
0

>  <Rbt.Current_Directory>
/home/itssahil/PROJECTS/Mol_Feturizer/New_Systems/rnas/6bfb

>  <Rbt.Executable>
rbdock ($Id: //depot/dev/client3/rdock/2013.1/src/exe/rbdock.cxx#4 $)

>  <Rbt.Library>
libRbt.so (2013.1, Build901 2013/11/27)

>  <Rbt.Parameter_File>
/export/apps/rDock/src/rDock_2013.1_src/data/scripts/dock_solv.prm

>  <Rbt.Receptor>
prm/blind_docking_40.prm

>  <SCORE>
13.1746

>  <SCORE.INTER>
-1.25018

>  <SCORE.INTER.CONST>
1

>  <SCORE.INTER.POLAR>
0

>  <SCORE.INTER.ROT>
3

>  <SCORE.INTER.SOLV>
20.5101

>  <SCORE.INTER.VDW>
-13.2702

>  <SCORE.INTER.norm>
-0.0416728

>  <SCORE.INTRA>
-1.20374

>  <SCORE.INTRA.DIHEDRAL>
-6.84846

>  <SCORE.INTRA.DIHEDRAL.0>
9.41909

>  <SCORE.INTRA.POLAR>
0

>  <SCORE.INTRA.POLAR.0>
0

>  <SCORE.INTRA.REPUL>
0

>  <SCORE.INTRA.REPUL.0>
0

>  <SCORE.INTRA.SOLV>
0.0741623

>  <SCORE.INTRA.SOLV.lig_0>
-26.2491

>  <SCORE.INTRA.VDW>
2.18341

>  <SCORE.INTRA.VDW.0>
2.57239

>  <SCORE.INTRA.norm>
-0.0401247

>  <SCORE.RESTR>
15.6285

>  <SCORE.RESTR.CAVITY>
15.6285

>  <SCORE.RESTR.norm>
0.52095

>  <SCORE.SYSTEM>
0

>  <SCORE.SYSTEM.CONST>
0

>  <SCORE.SYSTEM.DIHEDRAL>
0

>  <SCORE.SYSTEM.SOLV>
0

>  <SCORE.SYSTEM.norm>
0

>  <SCORE.heavy>
30

>  <SCORE.norm>
0.439152

>  <RMSD>
19.925

$$$$
lig.pdb
 OpenBabel11021811523D
libRbt.so/2013.1/901 2013/11/27
 30 34  0  0  0  0  0  0  0  0999 V2000
   15.6410   25.8697   16.9676 N   0  0  0  0  0  0  0  0  0  0  0  0
   17.1233   25.8106   12.2446 N   0  0  0  0  0  0  0  0  0  0  0  0
   14.2784   26.4004   17.0733 C   0  0  0  0  0  0  0  0  0  0  0  0
   13.6828   25.5099   18.1534 C   0  0  2  0  0  0  0  0  0  0  0  0
   16.5341   26.3332   15.9117 C   0  0  0  0  0  0  0  0  0  0  0  0
   17.5707   27.2659   16.1200 C   0  0  0  0  0  0  0  0  0  0  0  0
   18.3946   27.7256   15.1231 C   0  0  0  0  0  0  0  0  0  0  0  0
   19.0868   27.8092   12.7256 C   0  0  0  0  0  0  0  0  0  0  0  0
   16.3671   24.3564   10.6838 C   0  0  0  0  0  0  0  0  0  0  0  0
   15.6729   24.0814   13.1665 C   0  0  0  0  0  0  0  0  0  0  0  0
   16.3780   25.8504   14.5817 C   0  0  0  0  0  0  0  0  0  0  0  0
   19.4458   28.9785    9.8372 O   0  0  0  0  0  0  0  0  0  0  0  0
   19.5950   27.8141   10.2140 C   0  0  0  0  0  0  0  0  0  0  0  0
   20.4313   26.9726    9.6186 O   0  0  0  0  0  0  0  0  0  0  0  0
   18.8167   27.2804   11.3633 C   0  0  1  0  0  0  0  0  0  0  0  0
   19.9910   28.6182   12.9600 O   0  0  0  0  0  0  0  0  0  0  0  0
   17.8536   26.2779   11.1544 C   0  0  0  0  0  0  0  0  0  0  0  0
   16.3055   24.7049   11.9726 C   0  0  0  0  0  0  0  0  0  0  0  0
   17.4415   25.3409    9.7794 S   0  0  0  0  0  0  0  0  0  0  0  0
   17.2402   26.3064   13.5589 C   0  0  0  0  0  0  0  0  0  0  0  0
   18.2313   27.2660   13.8164 C   0  0  0  0  0  0  0  0  0  0  0  0
   17.7943   27.7210   17.3691 F   0  0  0  0  0  0  0  0  0  0  0  0
   15.3302   24.9739   14.2592 N   0  0  0  0  0  0  0  0  0  0  0  0
   14.0802   25.6891   14.1143 C   0  0  0  0  0  0  0  0  0  0  0  0
   15.7285   24.5137   17.4976 C   0  0  0  0  0  0  0  0  0  0  0  0
   13.1964   26.2752   19.2569 O   0  0  0  0  0  0  0  0  0  0  0  0
   14.8279   24.6688   18.7115 C   0  0  2  0  0  0  0  0  0  0  0  0
   14.2598   23.4281   19.2724 N   0  0  0  0  0  0  0  0  0  0  0  0
   13.6858   22.4962   18.2849 C   0  0  0  0  0  0  0  0  0  0  0  0
   15.1614   22.7547   20.2198 C   0  0  0  0  0  0  0  0  0  0  0  0
  1  5  1  0  0  0  0
  2 17  1  0  0  0  0
  3  1  1  0  0  0  0
  4  3  1  0  0  0  0
  4 26  1  1  0  0  0
  5 11  2  0  0  0  0
  5  6  1  0  0  0  0
  6  7  2  0  0  0  0
  7 21  1  0  0  0  0
  8 15  1  0  0  0  0
  8 16  2  0  0  0  0
  9 19  1  0  0  0  0
 10 18  1  0  0  0  0
 11 20  1  0  0  0  0
 13 14  1  0  0  0  0
 13 12  2  0  0  0  0
 15 13  1  1  0  0  0
 17 19  2  0  0  0  0
 17 15  1  0  0  0  0
 18  2  1  0  0  0  0
 18  9  2  0  0  0  0
 20 21  2  0  0  0  0
 20  2  1  0  0  0  0
 21  8  1  0  0  0  0
 22  6  1  0  0  0  0
 23 11  1  0  0  0  0
 23 10  1  0  0  0  0
 24 23  1  0  0  0  0
 25  1  1  0  0  0  0
 27  4  1  0  0  0  0
 27 25  1  0  0  0  0
 27 28  1  6  0  0  0
 29 28  1  0  0  0  0
 30 28  1  0  0  0  0
M  END
>  <CHROM.1>
102.29733271,-179.36596259,-67.90980659,-55.69994499,67.94091307,16.69386988
25.95487453,14.40786706,-2.31330192,-0.81813564,-1.87132456

>  <Name>
lig.pdb

>  <RI>
0

>  <Rbt.Current_Directory>
/home/itssahil/PROJECTS/Mol_Feturizer/New_Systems/rnas/6bfb

>  <Rbt.Executable>
rbdock ($Id: //depot/dev/client3/rdock/2013.1/src/exe/rbdock.cxx#4 $)

>  <Rbt.Library>
libRbt.so (2013.1, Build901 2013/11/27)

>  <Rbt.Parameter_File>
/export/apps/rDock/src/rDock_2013.1_src/data/scripts/dock_solv.prm

>  <Rbt.Receptor>
prm/blind_docking_40.prm

>  <SCORE>
6.11715

>  <SCORE.INTER>
-6.88139

>  <SCORE.INTER.CONST>
1

>  <SCORE.INTER.POLAR>
-0.72111

>  <SCORE.INTER.ROT>
3

>  <SCORE.INTER.SOLV>
14.9975

>  <SCORE.INTER.VDW>
-12.7831

>  <SCORE.INTER.norm>
-0.22938

>  <SCORE.INTRA>
-4.94429

>  <SCORE.INTRA.DIHEDRAL>
-7.37992

>  <SCORE.INTRA.DIHEDRAL.0>
9.41909

>  <SCORE.INTRA.POLAR>
0

>  <SCORE.INTRA.POLAR.0>
0

>  <SCORE.INTRA.REPUL>
0

>  <SCORE.INTRA.REPUL.0>
0

>  <SCORE.INTRA.SOLV>
-0.197305

>  <SCORE.INTRA.SOLV.lig_0>
-26.2491

>  <SCORE.INTRA.VDW>
-1.15568

>  <SCORE.INTRA.VDW.0>
2.57239

>  <SCORE.INTRA.norm>
-0.16481

>  <SCORE.RESTR>
17.9428

>  <SCORE.RESTR.CAVITY>
17.9428

>  <SCORE.RESTR.norm>
0.598094

>  <SCORE.SYSTEM>
0

>  <SCORE.SYSTEM.CONST>
0

>  <SCORE.SYSTEM.DIHEDRAL>
0

>  <SCORE.SYSTEM.SOLV>
0

>  <SCORE.SYSTEM.norm>
0

>  <SCORE.heavy>
30

>  <SCORE.norm>
0.203905

>  <RMSD>
19.926

$$$$
lig.pdb
 OpenBabel11021811523D
libRbt.so/2013.1/901 2013/11/27
 30 34  0  0  0  0  0  0  0  0999 V2000
   15.9291   25.6898   16.0194 N   0  0  0  0  0  0  0  0  0  0  0  0
   17.4108   26.1629   11.3197 N   0  0  0  0  0  0  0  0  0  0  0  0
   15.2750   24.4030   15.7627 C   0  0  0  0  0  0  0  0  0  0  0  0
   14.6432   24.1025   17.1135 C   0  0  2  0  0  0  0  0  0  0  0  0
   16.8112   26.2821   15.0202 C   0  0  0  0  0  0  0  0  0  0  0  0
   17.8266   27.2106   15.3279 C   0  0  0  0  0  0  0  0  0  0  0  0
   18.6395   27.7914   14.3867 C   0  0  0  0  0  0  0  0  0  0  0  0
   19.3288   28.1431   12.0129 C   0  0  0  0  0  0  0  0  0  0  0  0
   16.6870   24.8650    9.6126 C   0  0  0  0  0  0  0  0  0  0  0  0
   16.0000   24.3139   12.0509 C   0  0  0  0  0  0  0  0  0  0  0  0
   16.6655   25.9390   13.6464 C   0  0  0  0  0  0  0  0  0  0  0  0
   19.8908   29.6544    9.4494 O   0  0  0  0  0  0  0  0  0  0  0  0
   19.8359   28.4246    9.5168 C   0  0  0  0  0  0  0  0  0  0  0  0
   20.4311   27.6338    8.6322 O   0  0  0  0  0  0  0  0  0  0  0  0
   19.0702   27.7552   10.6018 C   0  0  1  0  0  0  0  0  0  0  0  0
   20.2147   28.9429   12.3332 O   0  0  0  0  0  0  0  0  0  0  0  0
   18.1300   26.7590   10.2864 C   0  0  0  0  0  0  0  0  0  0  0  0
   16.6179   25.0740   10.9308 C   0  0  0  0  0  0  0  0  0  0  0  0
   17.7386   25.9633    8.8193 S   0  0  0  0  0  0  0  0  0  0  0  0
   17.5169   26.5197   12.6791 C   0  0  0  0  0  0  0  0  0  0  0  0
   18.4862   27.4688   13.0385 C   0  0  0  0  0  0  0  0  0  0  0  0
   18.0403   27.5362   16.6185 F   0  0  0  0  0  0  0  0  0  0  0  0
   15.6376   25.0781   13.2310 N   0  0  0  0  0  0  0  0  0  0  0  0
   14.3718   25.7764   13.1599 C   0  0  0  0  0  0  0  0  0  0  0  0
   16.1422   25.9052   17.4462 C   0  0  0  0  0  0  0  0  0  0  0  0
   13.2307   23.9208   17.0048 O   0  0  0  0  0  0  0  0  0  0  0  0
   14.8306   25.3491   17.9743 C   0  0  2  0  0  0  0  0  0  0  0  0
   14.8124   24.9396   19.3916 N   0  0  0  0  0  0  0  0  0  0  0  0
   15.7153   25.6974   20.2771 C   0  0  0  0  0  0  0  0  0  0  0  0
   13.4540   24.8235   19.9438 C   0  0  0  0  0  0  0  0  0  0  0  0
  1  5  1  0  0  0  0
  2 17  1  0  0  0  0
  3  1  1  0  0  0  0
  4  3  1  0  0  0  0
  4 26  1  6  0  0  0
  5 11  2  0  0  0  0
  5  6  1  0  0  0  0
  6  7  2  0  0  0  0
  7 21  1  0  0  0  0
  8 15  1  0  0  0  0
  8 16  2  0  0  0  0
  9 19  1  0  0  0  0
 10 18  1  0  0  0  0
 11 20  1  0  0  0  0
 13 14  1  0  0  0  0
 13 12  2  0  0  0  0
 15 13  1  1  0  0  0
 17 19  2  0  0  0  0
 17 15  1  0  0  0  0
 18  2  1  0  0  0  0
 18  9  2  0  0  0  0
 20 21  2  0  0  0  0
 20  2  1  0  0  0  0
 21  8  1  0  0  0  0
 22  6  1  0  0  0  0
 23 11  1  0  0  0  0
 23 10  1  0  0  0  0
 24 23  1  0  0  0  0
 25  1  1  0  0  0  0
 27  4  1  0  0  0  0
 27 25  1  0  0  0  0
 27 28  1  1  0  0  0
 29 28  1  0  0  0  0
 30 28  1  0  0  0  0
M  END
>  <CHROM.1>
-156.23033069,-0.29211855,-51.76586754,165.76981350,144.58247109,16.99587753
26.26630893,13.65345925,-2.18294092,-0.73359979,-1.74087198

>  <Name>
lig.pdb

>  <RI>
0

>  <Rbt.Current_Directory>
/home/itssahil/PROJECTS/Mol_Feturizer/New_Systems/rnas/6bfb

>  <Rbt.Executable>
rbdock ($Id: //depot/dev/client3/rdock/2013.1/src/exe/rbdock.cxx#4 $)

>  <Rbt.Library>
libRbt.so (2013.1, Build901 2013/11/27)

>  <Rbt.Parameter_File>
/export/apps/rDock/src/rDock_2013.1_src/data/scripts/dock_solv.prm

>  <Rbt.Receptor>
prm/blind_docking_40.prm

>  <SCORE>
6.39375

>  <SCORE.INTER>
-8.43941

>  <SCORE.INTER.CONST>
1

>  <SCORE.INTER.POLAR>
0

>  <SCORE.INTER.ROT>
3

>  <SCORE.INTER.SOLV>
16.5877

>  <SCORE.INTER.VDW>
-16.7555

>  <SCORE.INTER.norm>
-0.281314

>  <SCORE.INTRA>
-0.0255394

>  <SCORE.INTRA.DIHEDRAL>
-5.6867

>  <SCORE.INTRA.DIHEDRAL.0>
9.41909

>  <SCORE.INTRA.POLAR>
0

>  <SCORE.INTRA.POLAR.0>
0

>  <SCORE.INTRA.REPUL>
0

>  <SCORE.INTRA.REPUL.0>
0

>  <SCORE.INTRA.SOLV>
0.00690263

>  <SCORE.INTRA.SOLV.lig_0>
-26.2491

>  <SCORE.INTRA.VDW>
2.81436

>  <SCORE.INTRA.VDW.0>
2.57239

>  <SCORE.INTRA.norm>
-0.000851312

>  <SCORE.RESTR>
14.8587

>  <SCORE.RESTR.CAVITY>
14.8587

>  <SCORE.RESTR.norm>
0.49529

>  <SCORE.SYSTEM>
0

>  <SCORE.SYSTEM.CONST>
0

>  <SCORE.SYSTEM.DIHEDRAL>
0

>  <SCORE.SYSTEM.SOLV>
0

>  <SCORE.SYSTEM.norm>
0

>  <SCORE.heavy>
30

>  <SCORE.norm>
0.213125

>  <RMSD>
19.928

$$$$
lig.pdb
 OpenBabel11021811523D
libRbt.so/2013.1/901 2013/11/27
 30 34  0  0  0  0  0  0  0  0999 V2000
   15.7322   25.6956   16.6423 N   0  0  0  0  0  0  0  0  0  0  0  0
   17.0412   26.1682   11.8915 N   0  0  0  0  0  0  0  0  0  0  0  0
   14.3902   26.2301   16.8932 C   0  0  0  0  0  0  0  0  0  0  0  0
   13.8297   25.2106   17.8733 C   0  0  2  0  0  0  0  0  0  0  0  0
   16.5807   26.2838   15.6120 C   0  0  0  0  0  0  0  0  0  0  0  0
   17.6133   27.2046   15.8834 C   0  0  0  0  0  0  0  0  0  0  0  0
   18.3948   27.7816   14.9137 C   0  0  0  0  0  0  0  0  0  0  0  0
   18.9977   28.1335   12.5165 C   0  0  0  0  0  0  0  0  0  0  0  0
   16.2452   24.8790   10.2102 C   0  0  0  0  0  0  0  0  0  0  0  0
   15.6456   24.3276   12.6714 C   0  0  0  0  0  0  0  0  0  0  0  0
   16.3815   25.9446   14.2440 C   0  0  0  0  0  0  0  0  0  0  0  0
   19.4850   29.6459    9.9434 O   0  0  0  0  0  0  0  0  0  0  0  0
   19.4136   28.4166   10.0038 C   0  0  0  0  0  0  0  0  0  0  0  0
   19.9580   27.6239    9.0888 O   0  0  0  0  0  0  0  0  0  0  0  0
   18.6840   27.7503   11.1153 C   0  0  1  0  0  0  0  0  0  0  0  0
   19.9005   28.9264   12.8051 O   0  0  0  0  0  0  0  0  0  0  0  0
   17.7257   26.7614   10.8333 C   0  0  0  0  0  0  0  0  0  0  0  0
   16.2268   25.0857   11.5305 C   0  0  0  0  0  0  0  0  0  0  0  0
   17.2743   25.9716    9.3804 S   0  0  0  0  0  0  0  0  0  0  0  0
   17.2004   26.5214   13.2468 C   0  0  0  0  0  0  0  0  0  0  0  0
   18.1891   27.4629   13.5715 C   0  0  0  0  0  0  0  0  0  0  0  0
   17.8773   27.5260   17.1658 F   0  0  0  0  0  0  0  0  0  0  0  0
   15.3328   25.0919   13.8656 N   0  0  0  0  0  0  0  0  0  0  0  0
   14.0702   25.7991   13.8429 C   0  0  0  0  0  0  0  0  0  0  0  0
   15.8139   24.2785   16.9780 C   0  0  0  0  0  0  0  0  0  0  0  0
   13.4197   25.8259   19.0953 O   0  0  0  0  0  0  0  0  0  0  0  0
   14.9812   24.2816   18.2489 C   0  0  2  0  0  0  0  0  0  0  0  0
   14.4128   22.9858   18.6665 N   0  0  0  0  0  0  0  0  0  0  0  0
   15.3100   21.8262   18.5125 C   0  0  0  0  0  0  0  0  0  0  0  0
   13.7796   23.0314   19.9934 C   0  0  0  0  0  0  0  0  0  0  0  0
  1  5  1  0  0  0  0
  2 17  1  0  0  0  0
  3  1  1  0  0  0  0
  4  3  1  0  0  0  0
  4 26  1  1  0  0  0
  5 11  2  0  0  0  0
  5  6  1  0  0  0  0
  6  7  2  0  0  0  0
  7 21  1  0  0  0  0
  8 15  1  0  0  0  0
  8 16  2  0  0  0  0
  9 19  1  0  0  0  0
 10 18  1  0  0  0  0
 11 20  1  0  0  0  0
 13 14  1  0  0  0  0
 13 12  2  0  0  0  0
 15 13  1  1  0  0  0
 17 19  2  0  0  0  0
 17 15  1  0  0  0  0
 18  2  1  0  0  0  0
 18  9  2  0  0  0  0
 20 21  2  0  0  0  0
 20  2  1  0  0  0  0
 21  8  1  0  0  0  0
 22  6  1  0  0  0  0
 23 11  1  0  0  0  0
 23 10  1  0  0  0  0
 24 23  1  0  0  0  0
 25  1  1  0  0  0  0
 27  4  1  0  0  0  0
 27 25  1  0  0  0  0
 27 28  1  6  0  0  0
 29 28  1  0  0  0  0
 30 28  1  0  0  0  0
M  END
>  <CHROM.1>
99.55303580,-0.80297597,-51.09459256,-55.48059662,155.00131802,16.68189929
26.09198588,14.11298659,-2.26697443,-0.84702177,-1.74775370

>  <Name>
lig.pdb

>  <RI>
0

>  <Rbt.Current_Directory>
/home/itssahil/PROJECTS/Mol_Feturizer/New_Systems/rnas/6bfb

>  <Rbt.Executable>
rbdock ($Id: //depot/dev/client3/rdock/2013.1/src/exe/rbdock.cxx#4 $)

>  <Rbt.Library>
libRbt.so (2013.1, Build901 2013/11/27)

>  <Rbt.Parameter_File>
/export/apps/rDock/src/rDock_2013.1_src/data/scripts/dock_solv.prm

>  <Rbt.Receptor>
prm/blind_docking_40.prm

>  <SCORE>
5.06834

>  <SCORE.INTER>
-7.92252

>  <SCORE.INTER.CONST>
1

>  <SCORE.INTER.POLAR>
-0.719947

>  <SCORE.INTER.ROT>
3

>  <SCORE.INTER.SOLV>
16.663

>  <SCORE.INTER.VDW>
-14.0362

>  <SCORE.INTER.norm>
-0.264084

>  <SCORE.INTRA>
-4.77695

>  <SCORE.INTRA.DIHEDRAL>
-7.09632

>  <SCORE.INTRA.DIHEDRAL.0>
9.41909

>  <SCORE.INTRA.POLAR>
0

>  <SCORE.INTRA.POLAR.0>
0

>  <SCORE.INTRA.REPUL>
0

>  <SCORE.INTRA.REPUL.0>
0

>  <SCORE.INTRA.SOLV>
-0.0205824

>  <SCORE.INTRA.SOLV.lig_0>
-26.2491

>  <SCORE.INTRA.VDW>
-1.2185

>  <SCORE.INTRA.VDW.0>
2.57239

>  <SCORE.INTRA.norm>
-0.159232

>  <SCORE.RESTR>
17.7678

>  <SCORE.RESTR.CAVITY>
17.7678

>  <SCORE.RESTR.norm>
0.59226

>  <SCORE.SYSTEM>
0

>  <SCORE.SYSTEM.CONST>
0

>  <SCORE.SYSTEM.DIHEDRAL>
0

>  <SCORE.SYSTEM.SOLV>
0

>  <SCORE.SYSTEM.norm>
0

>  <SCORE.heavy>
30

>  <SCORE.norm>
0.168945

>  <RMSD>
19.929

$$$$
lig.pdb
 OpenBabel11021811523D
libRbt.so/2013.1/901 2013/11/27
 30 34  0  0  0  0  0  0  0  0999 V2000
   15.9388   25.6924   16.0191 N   0  0  0  0  0  0  0  0  0  0  0  0
   17.4094   26.1652   11.3158 N   0  0  0  0  0  0  0  0  0  0  0  0
   15.2799   24.4081   15.7622 C   0  0  0  0  0  0  0  0  0  0  0  0
   14.6520   24.1069   17.1147 C   0  0  2  0  0  0  0  0  0  0  0  0
   16.8191   26.2840   15.0178 C   0  0  0  0  0  0  0  0  0  0  0  0
   17.8363   27.2113   15.3233 C   0  0  0  0  0  0  0  0  0  0  0  0
   18.6476   27.7914   14.3803 C   0  0  0  0  0  0  0  0  0  0  0  0
   19.3314   28.1430   12.0049 C   0  0  0  0  0  0  0  0  0  0  0  0
   16.6799   24.8686    9.6101 C   0  0  0  0  0  0  0  0  0  0  0  0
   15.9982   24.3176   12.0500 C   0  0  0  0  0  0  0  0  0  0  0  0
   16.6696   25.9415   13.6443 C   0  0  0  0  0  0  0  0  0  0  0  0
   19.9143   29.6538    9.4580 O   0  0  0  0  0  0  0  0  0  0  0  0
   19.8327   28.4246    9.5077 C   0  0  0  0  0  0  0  0  0  0  0  0
   20.3961   27.6345    8.6019 O   0  0  0  0  0  0  0  0  0  0  0  0
   19.0689   27.7558   10.5944 C   0  0  1  0  0  0  0  0  0  0  0  0
   20.2190   28.9417   12.3232 O   0  0  0  0  0  0  0  0  0  0  0  0
   18.1267   26.7607   10.2809 C   0  0  0  0  0  0  0  0  0  0  0  0
   16.6143   25.0773   10.9286 C   0  0  0  0  0  0  0  0  0  0  0  0
   17.7308   25.9660    8.8146 S   0  0  0  0  0  0  0  0  0  0  0  0
   17.5192   26.5215   12.6751 C   0  0  0  0  0  0  0  0  0  0  0  0
   18.4906   27.4693   13.0324 C   0  0  0  0  0  0  0  0  0  0  0  0
   18.0536   27.5363   16.6135 F   0  0  0  0  0  0  0  0  0  0  0  0
   15.6397   25.0819   13.2312 N   0  0  0  0  0  0  0  0  0  0  0  0
   14.3745   25.7817   13.1634 C   0  0  0  0  0  0  0  0  0  0  0  0
   16.1576   25.9045   17.4455 C   0  0  0  0  0  0  0  0  0  0  0  0
   13.2386   23.9297   17.0107 O   0  0  0  0  0  0  0  0  0  0  0  0
   14.8462   25.3513   17.9772 C   0  0  2  0  0  0  0  0  0  0  0  0
   14.8318   24.9392   19.3938 N   0  0  0  0  0  0  0  0  0  0  0  0
   15.5464   25.8384   20.3180 C   0  0  0  0  0  0  0  0  0  0  0  0
   13.4893   24.5871   19.8812 C   0  0  0  0  0  0  0  0  0  0  0  0
  1  5  1  0  0  0  0
  2 17  1  0  0  0  0
  3  1  1  0  0  0  0
  4  3  1  0  0  0  0
  4 26  1  6  0  0  0
  5 11  2  0  0  0  0
  5  6  1  0  0  0  0
  6  7  2  0  0  0  0
  7 21  1  0  0  0  0
  8 15  1  0  0  0  0
  8 16  2  0  0  0  0
  9 19  1  0  0  0  0
 10 18  1  0  0  0  0
 11 20  1  0  0  0  0
 13 14  1  0  0  0  0
 13 12  2  0  0  0  0
 15 13  1  1  0  0  0
 17 19  2  0  0  0  0
 17 15  1  0  0  0  0
 18  2  1  0  0  0  0
 18  9  2  0  0  0  0
 20 21  2  0  0  0  0
 20  2  1  0  0  0  0
 21  8  1  0  0  0  0
 22  6  1  0  0  0  0
 23 11  1  0  0  0  0
 23 10  1  0  0  0  0
 24 23  1  0  0  0  0
 25  1  1  0  0  0  0
 27  4  1  0  0  0  0
 27 25  1  0  0  0  0
 27 28  1  1  0  0  0
 29 28  1  0  0  0  0
 30 28  1  0  0  0  0
M  END
>  <CHROM.1>
-156.38302768,1.47493573,-50.09099668,-57.69270636,155.15877079,16.99408163
26.26780581,13.64665501,-2.18421239,-0.73482110,-1.74166134

>  <Name>
lig.pdb

>  <RI>
0

>  <Rbt.Current_Directory>
/home/itssahil/PROJECTS/Mol_Feturizer/New_Systems/rnas/6bfb

>  <Rbt.Executable>
rbdock ($Id: //depot/dev/client3/rdock/2013.1/src/exe/rbdock.cxx#4 $)

>  <Rbt.Library>
libRbt.so (2013.1, Build901 2013/11/27)

>  <Rbt.Parameter_File>
/export/apps/rDock/src/rDock_2013.1_src/data/scripts/dock_solv.prm

>  <Rbt.Receptor>
prm/blind_docking_40.prm

>  <SCORE>
5.3462

>  <SCORE.INTER>
-8.40427

>  <SCORE.INTER.CONST>
1

>  <SCORE.INTER.POLAR>
0

>  <SCORE.INTER.ROT>
3

>  <SCORE.INTER.SOLV>
16.5554

>  <SCORE.INTER.VDW>
-16.7213

>  <SCORE.INTER.norm>
-0.280142

>  <SCORE.INTRA>
-1.12532

>  <SCORE.INTRA.DIHEDRAL>
-7.17619

>  <SCORE.INTRA.DIHEDRAL.0>
9.41909

>  <SCORE.INTRA.POLAR>
0

>  <SCORE.INTRA.POLAR.0>
0

>  <SCORE.INTRA.REPUL>
0

>  <SCORE.INTRA.REPUL.0>
0

>  <SCORE.INTRA.SOLV>
0.0113138

>  <SCORE.INTRA.SOLV.lig_0>
-26.2491

>  <SCORE.INTRA.VDW>
2.45712

>  <SCORE.INTRA.VDW.0>
2.57239

>  <SCORE.INTRA.norm>
-0.0375108

>  <SCORE.RESTR>
14.8758

>  <SCORE.RESTR.CAVITY>
14.8758

>  <SCORE.RESTR.norm>
0.49586

>  <SCORE.SYSTEM>
0

>  <SCORE.SYSTEM.CONST>
0

>  <SCORE.SYSTEM.DIHEDRAL>
0

>  <SCORE.SYSTEM.SOLV>
0

>  <SCORE.SYSTEM.norm>
0

>  <SCORE.heavy>
30

>  <SCORE.norm>
0.178207

>  <RMSD>
19.932

$$$$
lig.pdb
 OpenBabel11021811523D
libRbt.so/2013.1/901 2013/11/27
 30 34  0  0  0  0  0  0  0  0999 V2000
   16.3555   26.1354   15.4442 N   0  0  0  0  0  0  0  0  0  0  0  0
   19.0308   27.0676   11.3845 N   0  0  0  0  0  0  0  0  0  0  0  0
   16.7100   27.3371   16.2056 C   0  0  0  0  0  0  0  0  0  0  0  0
   16.2033   26.9829   17.5956 C   0  0  2  0  0  0  0  0  0  0  0  0
   16.5148   26.1061   13.9946 C   0  0  0  0  0  0  0  0  0  0  0  0
   15.5369   25.6033   13.1122 C   0  0  0  0  0  0  0  0  0  0  0  0
   15.6952   25.5481   11.7499 C   0  0  0  0  0  0  0  0  0  0  0  0
   17.0697   25.8938    9.6943 C   0  0  0  0  0  0  0  0  0  0  0  0
   20.9587   28.2532   11.3664 C   0  0  0  0  0  0  0  0  0  0  0  0
   19.5565   28.0784   13.5400 C   0  0  0  0  0  0  0  0  0  0  0  0
   17.7123   26.5922   13.3982 C   0  0  0  0  0  0  0  0  0  0  0  0
   17.8995   26.7391    6.8774 O   0  0  0  0  0  0  0  0  0  0  0  0
   18.6601   26.2537    7.7176 C   0  0  0  0  0  0  0  0  0  0  0  0
   19.7557   25.5819    7.3853 O   0  0  0  0  0  0  0  0  0  0  0  0
   18.3714   26.3834    9.1706 C   0  0  1  0  0  0  0  0  0  0  0  0
   16.1775   25.4558    8.9601 O   0  0  0  0  0  0  0  0  0  0  0  0
   19.3169   26.9778   10.0243 C   0  0  0  0  0  0  0  0  0  0  0  0
   19.9531   27.8153   12.1301 C   0  0  0  0  0  0  0  0  0  0  0  0
   20.7929   27.7955    9.7219 S   0  0  0  0  0  0  0  0  0  0  0  0
   17.8672   26.5562   11.9938 C   0  0  0  0  0  0  0  0  0  0  0  0
   16.8753   26.0084   11.1660 C   0  0  0  0  0  0  0  0  0  0  0  0
   14.3638   25.1733   13.6185 F   0  0  0  0  0  0  0  0  0  0  0  0
   18.7736   27.0469   14.1966 N   0  0  0  0  0  0  0  0  0  0  0  0
   19.5291   25.9374   14.7379 C   0  0  0  0  0  0  0  0  0  0  0  0
   15.3069   25.3712   16.1102 C   0  0  0  0  0  0  0  0  0  0  0  0
   17.2476   27.0453   18.5679 O   0  0  0  0  0  0  0  0  0  0  0  0
   15.7750   25.5185   17.5482 C   0  0  2  0  0  0  0  0  0  0  0  0
   14.7604   25.2990   18.5965 N   0  0  0  0  0  0  0  0  0  0  0  0
   13.4371   25.8891   18.3248 C   0  0  0  0  0  0  0  0  0  0  0  0
   14.6696   23.8964   19.0304 C   0  0  0  0  0  0  0  0  0  0  0  0
  1  5  1  0  0  0  0
  2 17  1  0  0  0  0
  3  1  1  0  0  0  0
  4  3  1  0  0  0  0
  4 26  1  1  0  0  0
  5 11  2  0  0  0  0
  5  6  1  0  0  0  0
  6  7  2  0  0  0  0
  7 21  1  0  0  0  0
  8 15  1  0  0  0  0
  8 16  2  0  0  0  0
  9 19  1  0  0  0  0
 10 18  1  0  0  0  0
 11 20  1  0  0  0  0
 13 14  1  0  0  0  0
 13 12  2  0  0  0  0
 15 13  1  6  0  0  0
 17 19  2  0  0  0  0
 17 15  1  0  0  0  0
 18  2  1  0  0  0  0
 18  9  2  0  0  0  0
 20 21  2  0  0  0  0
 20  2  1  0  0  0  0
 21  8  1  0  0  0  0
 22  6  1  0  0  0  0
 23 11  1  0  0  0  0
 23 10  1  0  0  0  0
 24 23  1  0  0  0  0
 25  1  1  0  0  0  0
 27  4  1  0  0  0  0
 27 25  1  0  0  0  0
 27 28  1  1  0  0  0
 29 28  1  0  0  0  0
 30 28  1  0  0  0  0
M  END
>  <CHROM.1>
-134.65783748,-0.19766170,56.08273161,-66.75504680,72.35320731,17.45945783
26.37393575,13.01864264,2.02451415,0.45972401,1.47290458

>  <Name>
lig.pdb

>  <RI>
0

>  <Rbt.Current_Directory>
/home/itssahil/PROJECTS/Mol_Feturizer/New_Systems/rnas/6bfb

>  <Rbt.Executable>
rbdock ($Id: //depot/dev/client3/rdock/2013.1/src/exe/rbdock.cxx#4 $)

>  <Rbt.Library>
libRbt.so (2013.1, Build901 2013/11/27)

>  <Rbt.Parameter_File>
/export/apps/rDock/src/rDock_2013.1_src/data/scripts/dock_solv.prm

>  <Rbt.Receptor>
prm/blind_docking_40.prm

>  <SCORE>
3.73843

>  <SCORE.INTER>
-7.25665

>  <SCORE.INTER.CONST>
1

>  <SCORE.INTER.POLAR>
-0.694995

>  <SCORE.INTER.ROT>
3

>  <SCORE.INTER.SOLV>
21.4367

>  <SCORE.INTER.VDW>
-15.2667

>  <SCORE.INTER.norm>
-0.241888

>  <SCORE.INTRA>
-4.0935

>  <SCORE.INTRA.DIHEDRAL>
-7.05733

>  <SCORE.INTRA.DIHEDRAL.0>
9.41909

>  <SCORE.INTRA.POLAR>
0

>  <SCORE.INTRA.POLAR.0>
0

>  <SCORE.INTRA.REPUL>
0

>  <SCORE.INTRA.REPUL.0>
0

>  <SCORE.INTRA.SOLV>
-0.184728

>  <SCORE.INTRA.SOLV.lig_0>
-26.2491

>  <SCORE.INTRA.VDW>
-0.47247

>  <SCORE.INTRA.VDW.0>
2.57239

>  <SCORE.INTRA.norm>
-0.13645

>  <SCORE.RESTR>
15.0886

>  <SCORE.RESTR.CAVITY>
15.0886

>  <SCORE.RESTR.norm>
0.502953

>  <SCORE.SYSTEM>
0

>  <SCORE.SYSTEM.CONST>
0

>  <SCORE.SYSTEM.DIHEDRAL>
0

>  <SCORE.SYSTEM.SOLV>
0

>  <SCORE.SYSTEM.norm>
0

>  <SCORE.heavy>
30

>  <SCORE.norm>
0.124614

>  <RMSD>
19.933

$$$$
lig.pdb
 OpenBabel11021811523D
libRbt.so/2013.1/901 2013/11/27
 30 34  0  0  0  0  0  0  0  0999 V2000
   15.4680   25.6805   16.6349 N   0  0  0  0  0  0  0  0  0  0  0  0
   16.8788   26.1056   11.9088 N   0  0  0  0  0  0  0  0  0  0  0  0
   16.0199   25.0566   17.8414 C   0  0  0  0  0  0  0  0  0  0  0  0
   14.7645   24.8145   18.6659 C   0  0  2  0  0  0  0  0  0  0  0  0
   16.3552   26.2383   15.6203 C   0  0  0  0  0  0  0  0  0  0  0  0
   17.4144   27.1223   15.9107 C   0  0  0  0  0  0  0  0  0  0  0  0
   18.2331   27.6714   14.9556 C   0  0  0  0  0  0  0  0  0  0  0  0
   18.8914   28.0013   12.5699 C   0  0  0  0  0  0  0  0  0  0  0  0
   16.0688   24.8446   10.2128 C   0  0  0  0  0  0  0  0  0  0  0  0
   15.4056   24.3152   12.6625 C   0  0  0  0  0  0  0  0  0  0  0  0
   16.1691   25.9059   14.2488 C   0  0  0  0  0  0  0  0  0  0  0  0
   19.9191   27.5850    9.2036 O   0  0  0  0  0  0  0  0  0  0  0  0
   19.3624   28.2689   10.0652 C   0  0  0  0  0  0  0  0  0  0  0  0
   19.4297   29.5946   10.0782 O   0  0  0  0  0  0  0  0  0  0  0  0
   18.5899   27.6290   11.1631 C   0  0  1  0  0  0  0  0  0  0  0  0
   19.8160   28.7621   12.8751 O   0  0  0  0  0  0  0  0  0  0  0  0
   17.6027   26.6741   10.8633 C   0  0  0  0  0  0  0  0  0  0  0  0
   16.0336   25.0522   11.5326 C   0  0  0  0  0  0  0  0  0  0  0  0
   17.1504   25.9003    9.4022 S   0  0  0  0  0  0  0  0  0  0  0  0
   17.0256   26.4533   13.2668 C   0  0  0  0  0  0  0  0  0  0  0  0
   18.0407   27.3597   13.6098 C   0  0  0  0  0  0  0  0  0  0  0  0
   17.6661   27.4346   17.1978 F   0  0  0  0  0  0  0  0  0  0  0  0
   15.0982   25.0903   13.8511 N   0  0  0  0  0  0  0  0  0  0  0  0
   13.8618   25.8414   13.8058 C   0  0  0  0  0  0  0  0  0  0  0  0
   14.1453   26.2433   16.8819 C   0  0  0  0  0  0  0  0  0  0  0  0
   14.6150   23.4348   19.0036 O   0  0  0  0  0  0  0  0  0  0  0  0
   13.5764   25.1472   17.7670 C   0  0  2  0  0  0  0  0  0  0  0  0
   12.4365   25.5201   18.6262 N   0  0  0  0  0  0  0  0  0  0  0  0
   12.6302   26.7371   19.4354 C   0  0  0  0  0  0  0  0  0  0  0  0
   11.1497   25.5204   17.9136 C   0  0  0  0  0  0  0  0  0  0  0  0
  1  5  1  0  0  0  0
  2 17  1  0  0  0  0
  3  1  1  0  0  0  0
  4  3  1  0  0  0  0
  4 26  1  6  0  0  0
  5 11  2  0  0  0  0
  5  6  1  0  0  0  0
  6  7  2  0  0  0  0
  7 21  1  0  0  0  0
  8 15  1  0  0  0  0
  8 16  2  0  0  0  0
  9 19  1  0  0  0  0
 10 18  1  0  0  0  0
 11 20  1  0  0  0  0
 13 14  1  0  0  0  0
 13 12  2  0  0  0  0
 15 13  1  1  0  0  0
 17 19  2  0  0  0  0
 17 15  1  0  0  0  0
 18  2  1  0  0  0  0
 18  9  2  0  0  0  0
 20 21  2  0  0  0  0
 20  2  1  0  0  0  0
 21  8  1  0  0  0  0
 22  6  1  0  0  0  0
 23 11  1  0  0  0  0
 23 10  1  0  0  0  0
 24 23  1  0  0  0  0
 25  1  1  0  0  0  0
 27  4  1  0  0  0  0
 27 25  1  0  0  0  0
 27 28  1  1  0  0  0
 29 28  1  0  0  0  0
 30 28  1  0  0  0  0
M  END
>  <CHROM.1>
-49.58198493,1.35905747,127.80912229,-59.49520646,63.78021535,16.34831211
26.32975238,14.12694321,-2.24568875,-0.61645971,-1.75361290

>  <Name>
lig.pdb

>  <RI>
0

>  <Rbt.Current_Directory>
/home/itssahil/PROJECTS/Mol_Feturizer/New_Systems/rnas/6bfb

>  <Rbt.Executable>
rbdock ($Id: //depot/dev/client3/rdock/2013.1/src/exe/rbdock.cxx#4 $)

>  <Rbt.Library>
libRbt.so (2013.1, Build901 2013/11/27)

>  <Rbt.Parameter_File>
/export/apps/rDock/src/rDock_2013.1_src/data/scripts/dock_solv.prm

>  <Rbt.Receptor>
prm/blind_docking_40.prm

>  <SCORE>
8.39148

>  <SCORE.INTER>
-3.90914

>  <SCORE.INTER.CONST>
1

>  <SCORE.INTER.POLAR>
0

>  <SCORE.INTER.ROT>
3

>  <SCORE.INTER.SOLV>
16.798

>  <SCORE.INTER.VDW>
-13.8054

>  <SCORE.INTER.norm>
-0.130305

>  <SCORE.INTRA>
-4.87466

>  <SCORE.INTRA.DIHEDRAL>
-7.59536

>  <SCORE.INTRA.DIHEDRAL.0>
9.41909

>  <SCORE.INTRA.POLAR>
0

>  <SCORE.INTRA.POLAR.0>
0

>  <SCORE.INTRA.REPUL>
0.0766216

>  <SCORE.INTRA.REPUL.0>
0

>  <SCORE.INTRA.SOLV>
-0.222103

>  <SCORE.INTRA.SOLV.lig_0>
-26.2491

>  <SCORE.INTRA.VDW>
-1.34904

>  <SCORE.INTRA.VDW.0>
2.57239

>  <SCORE.INTRA.norm>
-0.162489

>  <SCORE.RESTR>
17.1753

>  <SCORE.RESTR.CAVITY>
17.1753

>  <SCORE.RESTR.norm>
0.572509

>  <SCORE.SYSTEM>
0

>  <SCORE.SYSTEM.CONST>
0

>  <SCORE.SYSTEM.DIHEDRAL>
0

>  <SCORE.SYSTEM.SOLV>
0

>  <SCORE.SYSTEM.norm>
0

>  <SCORE.heavy>
30

>  <SCORE.norm>
0.279716

>  <RMSD>
19.943

$$$$
lig.pdb
 OpenBabel11021811523D
libRbt.so/2013.1/901 2013/11/27
 30 34  0  0  0  0  0  0  0  0999 V2000
   16.3457   26.1535   15.4109 N   0  0  0  0  0  0  0  0  0  0  0  0
   19.0631   27.0234   11.3653 N   0  0  0  0  0  0  0  0  0  0  0  0
   16.7278   27.3511   16.1653 C   0  0  0  0  0  0  0  0  0  0  0  0
   16.1977   27.0242   17.5533 C   0  0  2  0  0  0  0  0  0  0  0  0
   16.5179   26.1066   13.9632 C   0  0  0  0  0  0  0  0  0  0  0  0
   15.5450   25.5996   13.0777 C   0  0  0  0  0  0  0  0  0  0  0  0
   15.7153   25.5277   11.7176 C   0  0  0  0  0  0  0  0  0  0  0  0
   17.1103   25.8418    9.6709 C   0  0  0  0  0  0  0  0  0  0  0  0
   20.9981   28.1973   11.3512 C   0  0  0  0  0  0  0  0  0  0  0  0
   19.5753   28.0557   13.5138 C   0  0  0  0  0  0  0  0  0  0  0  0
   17.7237   26.5789   13.3722 C   0  0  0  0  0  0  0  0  0  0  0  0
   19.7557   25.6153    7.3287 O   0  0  0  0  0  0  0  0  0  0  0  0
   18.7207   26.1697    7.7047 C   0  0  0  0  0  0  0  0  0  0  0  0
   17.8335   26.6759    6.8569 O   0  0  0  0  0  0  0  0  0  0  0  0
   18.4196   26.3177    9.1535 C   0  0  1  0  0  0  0  0  0  0  0  0
   16.2222   25.4007    8.9335 O   0  0  0  0  0  0  0  0  0  0  0  0
   19.3609   26.9163   10.0089 C   0  0  0  0  0  0  0  0  0  0  0  0
   19.9831   27.7741   12.1107 C   0  0  0  0  0  0  0  0  0  0  0  0
   20.8444   27.7218    9.7106 S   0  0  0  0  0  0  0  0  0  0  0  0
   17.8910   26.5258   11.9698 C   0  0  0  0  0  0  0  0  0  0  0  0
   16.9033   25.9744   11.1392 C   0  0  0  0  0  0  0  0  0  0  0  0
   14.3649   25.1822   13.5782 F   0  0  0  0  0  0  0  0  0  0  0  0
   18.7803   27.0364   14.1750 N   0  0  0  0  0  0  0  0  0  0  0  0
   19.5243   25.9288   14.7358 C   0  0  0  0  0  0  0  0  0  0  0  0
   15.2689   25.4261   16.0731 C   0  0  0  0  0  0  0  0  0  0  0  0
   17.2341   27.0649   18.5352 O   0  0  0  0  0  0  0  0  0  0  0  0
   15.7274   25.5725   17.5143 C   0  0  2  0  0  0  0  0  0  0  0  0
   14.6968   25.3920   18.5545 N   0  0  0  0  0  0  0  0  0  0  0  0
   13.3932   26.0160   18.2636 C   0  0  0  0  0  0  0  0  0  0  0  0
   14.5626   23.9970   19.0013 C   0  0  0  0  0  0  0  0  0  0  0  0
  1  5  1  0  0  0  0
  2 17  1  0  0  0  0
  3  1  1  0  0  0  0
  4  3  1  0  0  0  0
  4 26  1  1  0  0  0
  5 11  2  0  0  0  0
  5  6  1  0  0  0  0
  6  7  2  0  0  0  0
  7 21  1  0  0  0  0
  8 15  1  0  0  0  0
  8 16  2  0  0  0  0
  9 19  1  0  0  0  0
 10 18  1  0  0  0  0
 11 20  1  0  0  0  0
 13 14  1  0  0  0  0
 13 12  2  0  0  0  0
 15 13  1  6  0  0  0
 17 19  2  0  0  0  0
 17 15  1  0  0  0  0
 18  2  1  0  0  0  0
 18  9  2  0  0  0  0
 20 21  2  0  0  0  0
 20  2  1  0  0  0  0
 21  8  1  0  0  0  0
 22  6  1  0  0  0  0
 23 11  1  0  0  0  0
 23 10  1  0  0  0  0
 24 23  1  0  0  0  0
 25  1  1  0  0  0  0
 27  4  1  0  0  0  0
 27 25  1  0  0  0  0
 27 28  1  1  0  0  0
 29 28  1  0  0  0  0
 30 28  1  0  0  0  0
M  END
>  <CHROM.1>
-135.99852145,-172.08329314,-127.12813890,-66.84038497,72.45717974,17.45756099
26.37097919,12.99264723,2.02742694,0.44498032,1.46666732

>  <Name>
lig.pdb

>  <RI>
0

>  <Rbt.Current_Directory>
/home/itssahil/PROJECTS/Mol_Feturizer/New_Systems/rnas/6bfb

>  <Rbt.Executable>
rbdock ($Id: //depot/dev/client3/rdock/2013.1/src/exe/rbdock.cxx#4 $)

>  <Rbt.Library>
libRbt.so (2013.1, Build901 2013/11/27)

>  <Rbt.Parameter_File>
/export/apps/rDock/src/rDock_2013.1_src/data/scripts/dock_solv.prm

>  <Rbt.Receptor>
prm/blind_docking_40.prm

>  <SCORE>
1.24788

>  <SCORE.INTER>
-10.6999

>  <SCORE.INTER.CONST>
1

>  <SCORE.INTER.POLAR>
-1.05939

>  <SCORE.INTER.ROT>
3

>  <SCORE.INTER.SOLV>
21.325

>  <SCORE.INTER.VDW>
-16.3103

>  <SCORE.INTER.norm>
-0.356663

>  <SCORE.INTRA>
-3.28028

>  <SCORE.INTRA.DIHEDRAL>
-6.64796

>  <SCORE.INTRA.DIHEDRAL.0>
9.41909

>  <SCORE.INTRA.POLAR>
0

>  <SCORE.INTRA.POLAR.0>
0

>  <SCORE.INTRA.REPUL>
0

>  <SCORE.INTRA.REPUL.0>
0

>  <SCORE.INTRA.SOLV>
-0.162285

>  <SCORE.INTRA.SOLV.lig_0>
-26.2491

>  <SCORE.INTRA.VDW>
0.124839

>  <SCORE.INTRA.VDW.0>
2.57239

>  <SCORE.INTRA.norm>
-0.109343

>  <SCORE.RESTR>
15.228

>  <SCORE.RESTR.CAVITY>
15.228

>  <SCORE.RESTR.norm>
0.507601

>  <SCORE.SYSTEM>
0

>  <SCORE.SYSTEM.CONST>
0

>  <SCORE.SYSTEM.DIHEDRAL>
0

>  <SCORE.SYSTEM.SOLV>
0

>  <SCORE.SYSTEM.norm>
0

>  <SCORE.heavy>
30

>  <SCORE.norm>
0.0415959

>  <RMSD>
19.947

$$$$
lig.pdb
 OpenBabel11021811523D
libRbt.so/2013.1/901 2013/11/27
 30 34  0  0  0  0  0  0  0  0999 V2000
   15.9110   26.0804   16.3117 N   0  0  0  0  0  0  0  0  0  0  0  0
   17.3387   26.0514   11.5716 N   0  0  0  0  0  0  0  0  0  0  0  0
   14.6227   26.7471   16.5249 C   0  0  0  0  0  0  0  0  0  0  0  0
   13.9727   25.8399   17.5588 C   0  0  2  0  0  0  0  0  0  0  0  0
   16.8088   26.5300   15.2537 C   0  0  0  0  0  0  0  0  0  0  0  0
   17.8809   27.4207   15.4662 C   0  0  0  0  0  0  0  0  0  0  0  0
   18.7100   27.8679   14.4680 C   0  0  0  0  0  0  0  0  0  0  0  0
   19.3786   27.9689   12.0645 C   0  0  0  0  0  0  0  0  0  0  0  0
   16.5132   24.6534    9.9947 C   0  0  0  0  0  0  0  0  0  0  0  0
   15.8364   24.3597   12.4801 C   0  0  0  0  0  0  0  0  0  0  0  0
   16.6208   26.0768   13.9175 C   0  0  0  0  0  0  0  0  0  0  0  0
   19.9118   29.2105    9.3203 O   0  0  0  0  0  0  0  0  0  0  0  0
   19.8593   27.9999    9.5476 C   0  0  0  0  0  0  0  0  0  0  0  0
   20.4740   27.1032    8.7859 O   0  0  0  0  0  0  0  0  0  0  0  0
   19.0747   27.4744   10.6964 C   0  0  1  0  0  0  0  0  0  0  0  0
   20.3142   28.7403   12.3024 O   0  0  0  0  0  0  0  0  0  0  0  0
   18.0736   26.5112   10.4814 C   0  0  0  0  0  0  0  0  0  0  0  0
   16.4783   24.9810   11.2900 C   0  0  0  0  0  0  0  0  0  0  0  0
   17.6127   25.6143    9.0952 S   0  0  0  0  0  0  0  0  0  0  0  0
   17.4878   26.5193   12.8928 C   0  0  0  0  0  0  0  0  0  0  0  0
   18.5159   27.4378   13.1555 C   0  0  0  0  0  0  0  0  0  0  0  0
   18.1345   27.8453   16.7203 F   0  0  0  0  0  0  0  0  0  0  0  0
   15.5384   25.2445   13.5920 N   0  0  0  0  0  0  0  0  0  0  0  0
   14.3137   26.0069   13.4739 C   0  0  0  0  0  0  0  0  0  0  0  0
   15.8647   24.6833   16.7280 C   0  0  0  0  0  0  0  0  0  0  0  0
   13.6201   26.5585   18.7416 O   0  0  0  0  0  0  0  0  0  0  0  0
   15.0359   24.8340   17.9924 C   0  0  2  0  0  0  0  0  0  0  0  0
   14.3531   23.6207   18.4804 N   0  0  0  0  0  0  0  0  0  0  0  0
   13.5956   22.8719   17.4611 C   0  0  0  0  0  0  0  0  0  0  0  0
   15.2243   22.7487   19.2833 C   0  0  0  0  0  0  0  0  0  0  0  0
  1  5  1  0  0  0  0
  2 17  1  0  0  0  0
  3  1  1  0  0  0  0
  4  3  1  0  0  0  0
  4 26  1  1  0  0  0
  5 11  2  0  0  0  0
  5  6  1  0  0  0  0
  6  7  2  0  0  0  0
  7 21  1  0  0  0  0
  8 15  1  0  0  0  0
  8 16  2  0  0  0  0
  9 19  1  0  0  0  0
 10 18  1  0  0  0  0
 11 20  1  0  0  0  0
 13 14  1  0  0  0  0
 13 12  2  0  0  0  0
 15 13  1  1  0  0  0
 17 19  2  0  0  0  0
 17 15  1  0  0  0  0
 18  2  1  0  0  0  0
 18  9  2  0  0  0  0
 20 21  2  0  0  0  0
 20  2  1  0  0  0  0
 21  8  1  0  0  0  0
 22  6  1  0  0  0  0
 23 11  1  0  0  0  0
 23 10  1  0  0  0  0
 24 23  1  0  0  0  0
 25  1  1  0  0  0  0
 27  4  1  0  0  0  0
 27 25  1  0  0  0  0
 27 28  1  6  0  0  0
 29 28  1  0  0  0  0
 30 28  1  0  0  0  0
M  END
>  <CHROM.1>
96.29514132,-179.81900412,-56.52012475,68.07067697,65.69402033,16.91900708
26.17330524,13.72708187,-2.30600434,-0.79330526,-1.85380263

>  <Name>
lig.pdb

>  <RI>
0

>  <Rbt.Current_Directory>
/home/itssahil/PROJECTS/Mol_Feturizer/New_Systems/rnas/6bfb

>  <Rbt.Executable>
rbdock ($Id: //depot/dev/client3/rdock/2013.1/src/exe/rbdock.cxx#4 $)

>  <Rbt.Library>
libRbt.so (2013.1, Build901 2013/11/27)

>  <Rbt.Parameter_File>
/export/apps/rDock/src/rDock_2013.1_src/data/scripts/dock_solv.prm

>  <Rbt.Receptor>
prm/blind_docking_40.prm

>  <SCORE>
26.3829

>  <SCORE.INTER>
16.0576

>  <SCORE.INTER.CONST>
1

>  <SCORE.INTER.POLAR>
0

>  <SCORE.INTER.ROT>
3

>  <SCORE.INTER.SOLV>
14.3404

>  <SCORE.INTER.VDW>
0.324921

>  <SCORE.INTER.norm>
0.535253

>  <SCORE.INTRA>
-5.65324

>  <SCORE.INTRA.DIHEDRAL>
-7.22912

>  <SCORE.INTRA.DIHEDRAL.0>
9.41909

>  <SCORE.INTRA.POLAR>
0

>  <SCORE.INTRA.POLAR.0>
0

>  <SCORE.INTRA.REPUL>
0

>  <SCORE.INTRA.REPUL.0>
0

>  <SCORE.INTRA.SOLV>
-0.223268

>  <SCORE.INTRA.SOLV.lig_0>
-26.2491

>  <SCORE.INTRA.VDW>
-1.92704

>  <SCORE.INTRA.VDW.0>
2.57239

>  <SCORE.INTRA.norm>
-0.188441

>  <SCORE.RESTR>
15.9785

>  <SCORE.RESTR.CAVITY>
15.9785

>  <SCORE.RESTR.norm>
0.532618

>  <SCORE.SYSTEM>
0

>  <SCORE.SYSTEM.CONST>
0

>  <SCORE.SYSTEM.DIHEDRAL>
0

>  <SCORE.SYSTEM.SOLV>
0

>  <SCORE.SYSTEM.norm>
0

>  <SCORE.heavy>
30

>  <SCORE.norm>
0.87943

>  <RMSD>
19.949

$$$$
lig.pdb
 OpenBabel11021811523D
libRbt.so/2013.1/901 2013/11/27
 30 34  0  0  0  0  0  0  0  0999 V2000
   16.3550   26.1201   15.4485 N   0  0  0  0  0  0  0  0  0  0  0  0
   19.0268   27.0414   11.3841 N   0  0  0  0  0  0  0  0  0  0  0  0
   16.7099   27.3258   16.2034 C   0  0  0  0  0  0  0  0  0  0  0  0
   16.2021   26.9798   17.5951 C   0  0  2  0  0  0  0  0  0  0  0  0
   16.5150   26.0825   13.9992 C   0  0  0  0  0  0  0  0  0  0  0  0
   15.5403   25.5688   13.1196 C   0  0  0  0  0  0  0  0  0  0  0  0
   15.6995   25.5058   11.7577 C   0  0  0  0  0  0  0  0  0  0  0  0
   17.0729   25.8461    9.7006 C   0  0  0  0  0  0  0  0  0  0  0  0
   20.9481   28.2376   11.3592 C   0  0  0  0  0  0  0  0  0  0  0  0
   19.5460   28.0687   13.5333 C   0  0  0  0  0  0  0  0  0  0  0  0
   17.7101   26.5715   13.4002 C   0  0  0  0  0  0  0  0  0  0  0  0
   19.0408   27.1710    7.0601 O   0  0  0  0  0  0  0  0  0  0  0  0
   18.6622   26.2023    7.7222 C   0  0  0  0  0  0  0  0  0  0  0  0
   18.4759   25.0014    7.1882 O   0  0  0  0  0  0  0  0  0  0  0  0
   18.3721   26.3396    9.1743 C   0  0  1  0  0  0  0  0  0  0  0  0
   16.1834   25.3986    8.9687 O   0  0  0  0  0  0  0  0  0  0  0  0
   19.3139   26.9446   10.0245 C   0  0  0  0  0  0  0  0  0  0  0  0
   19.9446   27.7989   12.1253 C   0  0  0  0  0  0  0  0  0  0  0  0
   20.7855   27.7685    9.7176 S   0  0  0  0  0  0  0  0  0  0  0  0
   17.8658   26.5275   11.9962 C   0  0  0  0  0  0  0  0  0  0  0  0
   16.8772   25.9689   11.1714 C   0  0  0  0  0  0  0  0  0  0  0  0
   14.3694   25.1355   13.6282 F   0  0  0  0  0  0  0  0  0  0  0  0
   18.7684   27.0371   14.1961 N   0  0  0  0  0  0  0  0  0  0  0  0
   19.5299   25.9352   14.7448 C   0  0  0  0  0  0  0  0  0  0  0  0
   15.3054   25.3604   16.1183 C   0  0  0  0  0  0  0  0  0  0  0  0
   17.2459   27.0470   18.5676 O   0  0  0  0  0  0  0  0  0  0  0  0
   15.7729   25.5154   17.5556 C   0  0  2  0  0  0  0  0  0  0  0  0
   14.7575   25.3026   18.6046 N   0  0  0  0  0  0  0  0  0  0  0  0
   13.4277   25.8705   18.3176 C   0  0  0  0  0  0  0  0  0  0  0  0
   14.6831   23.9073   19.0644 C   0  0  0  0  0  0  0  0  0  0  0  0
  1  5  1  0  0  0  0
  2 17  1  0  0  0  0
  3  1  1  0  0  0  0
  4  3  1  0  0  0  0
  4 26  1  1  0  0  0
  5 11  2  0  0  0  0
  5  6  1  0  0  0  0
  6  7  2  0  0  0  0
  7 21  1  0  0  0  0
  8 15  1  0  0  0  0
  8 16  2  0  0  0  0
  9 19  1  0  0  0  0
 10 18  1  0  0  0  0
 11 20  1  0  0  0  0
 13 14  1  0  0  0  0
 13 12  2  0  0  0  0
 15 13  1  6  0  0  0
 17 19  2  0  0  0  0
 17 15  1  0  0  0  0
 18  2  1  0  0  0  0
 18  9  2  0  0  0  0
 20 21  2  0  0  0  0
 20  2  1  0  0  0  0
 21  8  1  0  0  0  0
 22  6  1  0  0  0  0
 23 11  1  0  0  0  0
 23 10  1  0  0  0  0
 24 23  1  0  0  0  0
 25  1  1  0  0  0  0
 27  4  1  0  0  0  0
 27 25  1  0  0  0  0
 27 28  1  1  0  0  0
 29 28  1  0  0  0  0
 30 28  1  0  0  0  0
M  END
>  <CHROM.1>
-135.01775604,-178.68754862,128.84177386,-67.51589466,73.44275553,17.44915136
26.34563094,13.02456446,2.02975767,0.49526330,1.45205740

>  <Name>
lig.pdb

>  <RI>
0

>  <Rbt.Current_Directory>
/home/itssahil/PROJECTS/Mol_Feturizer/New_Systems/rnas/6bfb

>  <Rbt.Executable>
rbdock ($Id: //depot/dev/client3/rdock/2013.1/src/exe/rbdock.cxx#4 $)

>  <Rbt.Library>
libRbt.so (2013.1, Build901 2013/11/27)

>  <Rbt.Parameter_File>
/export/apps/rDock/src/rDock_2013.1_src/data/scripts/dock_solv.prm

>  <Rbt.Receptor>
prm/blind_docking_40.prm

>  <SCORE>
4.02468

>  <SCORE.INTER>
-7.83932

>  <SCORE.INTER.CONST>
1

>  <SCORE.INTER.POLAR>
-0.716146

>  <SCORE.INTER.ROT>
3

>  <SCORE.INTER.SOLV>
21.231

>  <SCORE.INTER.VDW>
-15.516

>  <SCORE.INTER.norm>
-0.261311

>  <SCORE.INTRA>
-3.39064

>  <SCORE.INTRA.DIHEDRAL>
-6.95339

>  <SCORE.INTRA.DIHEDRAL.0>
9.41909

>  <SCORE.INTRA.POLAR>
0

>  <SCORE.INTRA.POLAR.0>
0

>  <SCORE.INTRA.REPUL>
0

>  <SCORE.INTRA.REPUL.0>
0

>  <SCORE.INTRA.SOLV>
-0.155709

>  <SCORE.INTRA.SOLV.lig_0>
-26.2491

>  <SCORE.INTRA.VDW>
0.163912

>  <SCORE.INTRA.VDW.0>
2.57239

>  <SCORE.INTRA.norm>
-0.113021

>  <SCORE.RESTR>
15.2546

>  <SCORE.RESTR.CAVITY>
15.2546

>  <SCORE.RESTR.norm>
0.508488

>  <SCORE.SYSTEM>
0

>  <SCORE.SYSTEM.CONST>
0

>  <SCORE.SYSTEM.DIHEDRAL>
0

>  <SCORE.SYSTEM.SOLV>
0

>  <SCORE.SYSTEM.norm>
0

>  <SCORE.heavy>
30

>  <SCORE.norm>
0.134156

>  <RMSD>
19.949

$$$$
lig.pdb
 OpenBabel11021811523D
libRbt.so/2013.1/901 2013/11/27
 30 34  0  0  0  0  0  0  0  0999 V2000
   16.3210   26.1376   15.4149 N   0  0  0  0  0  0  0  0  0  0  0  0
   19.0454   27.0380   11.3808 N   0  0  0  0  0  0  0  0  0  0  0  0
   16.7546   27.3060   16.1871 C   0  0  0  0  0  0  0  0  0  0  0  0
   16.2064   26.9838   17.5692 C   0  0  2  0  0  0  0  0  0  0  0  0
   16.4950   26.1033   13.9672 C   0  0  0  0  0  0  0  0  0  0  0  0
   15.5222   25.6062   13.0759 C   0  0  0  0  0  0  0  0  0  0  0  0
   15.6940   25.5463   11.7154 C   0  0  0  0  0  0  0  0  0  0  0  0
   17.0923   25.8758    9.6733 C   0  0  0  0  0  0  0  0  0  0  0  0
   20.9828   28.2081   11.3797 C   0  0  0  0  0  0  0  0  0  0  0  0
   19.5570   28.0499   13.5391 C   0  0  0  0  0  0  0  0  0  0  0  0
   17.7025   26.5783   13.3819 C   0  0  0  0  0  0  0  0  0  0  0  0
   19.0387   27.1983    7.0427 O   0  0  0  0  0  0  0  0  0  0  0  0
   18.7059   26.2180    7.7122 C   0  0  0  0  0  0  0  0  0  0  0  0
   18.5818   25.0045    7.1885 O   0  0  0  0  0  0  0  0  0  0  0  0
   18.4033   26.3536    9.1619 C   0  0  1  0  0  0  0  0  0  0  0  0
   16.2042   25.4432    8.9310 O   0  0  0  0  0  0  0  0  0  0  0  0
   19.3447   26.9425   10.0238 C   0  0  0  0  0  0  0  0  0  0  0  0
   19.9660   27.7802   12.1340 C   0  0  0  0  0  0  0  0  0  0  0  0
   20.8303   27.7475    9.7347 S   0  0  0  0  0  0  0  0  0  0  0  0
   17.8715   26.5375   11.9793 C   0  0  0  0  0  0  0  0  0  0  0  0
   16.8837   25.9956   11.1426 C   0  0  0  0  0  0  0  0  0  0  0  0
   14.3405   25.1869   13.5712 F   0  0  0  0  0  0  0  0  0  0  0  0
   18.7590   27.0264   14.1901 N   0  0  0  0  0  0  0  0  0  0  0  0
   19.5000   25.9123   14.7419 C   0  0  0  0  0  0  0  0  0  0  0  0
   15.2106   25.4502   16.0645 C   0  0  0  0  0  0  0  0  0  0  0  0
   17.2408   26.9639   18.5538 O   0  0  0  0  0  0  0  0  0  0  0  0
   15.6713   25.5555   17.5086 C   0  0  2  0  0  0  0  0  0  0  0  0
   14.6307   25.4070   18.5439 N   0  0  0  0  0  0  0  0  0  0  0  0
   13.3724   26.1281   18.2792 C   0  0  0  0  0  0  0  0  0  0  0  0
   14.4022   24.0088   18.9395 C   0  0  0  0  0  0  0  0  0  0  0  0
  1  5  1  0  0  0  0
  2 17  1  0  0  0  0
  3  1  1  0  0  0  0
  4  3  1  0  0  0  0
  4 26  1  1  0  0  0
  5 11  2  0  0  0  0
  5  6  1  0  0  0  0
  6  7  2  0  0  0  0
  7 21  1  0  0  0  0
  8 15  1  0  0  0  0
  8 16  2  0  0  0  0
  9 19  1  0  0  0  0
 10 18  1  0  0  0  0
 11 20  1  0  0  0  0
 13 14  1  0  0  0  0
 13 12  2  0  0  0  0
 15 13  1  6  0  0  0
 17 19  2  0  0  0  0
 17 15  1  0  0  0  0
 18  2  1  0  0  0  0
 18  9  2  0  0  0  0
 20 21  2  0  0  0  0
 20  2  1  0  0  0  0
 21  8  1  0  0  0  0
 22  6  1  0  0  0  0
 23 11  1  0  0  0  0
 23 10  1  0  0  0  0
 24 23  1  0  0  0  0
 25  1  1  0  0  0  0
 27  4  1  0  0  0  0
 27 25  1  0  0  0  0
 27 28  1  1  0  0  0
 29 28  1  0  0  0  0
 30 28  1  0  0  0  0
M  END
>  <CHROM.1>
-138.48081339,1.67929852,125.12479870,56.14637445,70.60567051,17.43901435
26.37351485,12.99825499,2.04029062,0.47423342,1.44662158

>  <Name>
lig.pdb

>  <RI>
0

>  <Rbt.Current_Directory>
/home/itssahil/PROJECTS/Mol_Feturizer/New_Systems/rnas/6bfb

>  <Rbt.Executable>
rbdock ($Id: //depot/dev/client3/rdock/2013.1/src/exe/rbdock.cxx#4 $)

>  <Rbt.Library>
libRbt.so (2013.1, Build901 2013/11/27)

>  <Rbt.Parameter_File>
/export/apps/rDock/src/rDock_2013.1_src/data/scripts/dock_solv.prm

>  <Rbt.Receptor>
prm/blind_docking_40.prm

>  <SCORE>
6.41621

>  <SCORE.INTER>
-4.7087

>  <SCORE.INTER.CONST>
1

>  <SCORE.INTER.POLAR>
0

>  <SCORE.INTER.ROT>
3

>  <SCORE.INTER.SOLV>
20.6298

>  <SCORE.INTER.VDW>
-15.6157

>  <SCORE.INTER.norm>
-0.156957

>  <SCORE.INTRA>
-4.18109

>  <SCORE.INTRA.DIHEDRAL>
-7.27542

>  <SCORE.INTRA.DIHEDRAL.0>
9.41909

>  <SCORE.INTRA.POLAR>
0

>  <SCORE.INTRA.POLAR.0>
0

>  <SCORE.INTRA.REPUL>
0

>  <SCORE.INTRA.REPUL.0>
0

>  <SCORE.INTRA.SOLV>
-0.182847

>  <SCORE.INTRA.SOLV.lig_0>
-26.2491

>  <SCORE.INTRA.VDW>
-0.451958

>  <SCORE.INTRA.VDW.0>
2.57239

>  <SCORE.INTRA.norm>
-0.13937

>  <SCORE.RESTR>
15.306

>  <SCORE.RESTR.CAVITY>
15.306

>  <SCORE.RESTR.norm>
0.5102

>  <SCORE.SYSTEM>
0

>  <SCORE.SYSTEM.CONST>
0

>  <SCORE.SYSTEM.DIHEDRAL>
0

>  <SCORE.SYSTEM.SOLV>
0

>  <SCORE.SYSTEM.norm>
0

>  <SCORE.heavy>
30

>  <SCORE.norm>
0.213874

>  <RMSD>
19.950

$$$$
lig.pdb
 OpenBabel11021811523D
libRbt.so/2013.1/901 2013/11/27
 30 34  0  0  0  0  0  0  0  0999 V2000
   16.3063   26.1265   15.2784 N   0  0  0  0  0  0  0  0  0  0  0  0
   19.0853   27.1293   11.3062 N   0  0  0  0  0  0  0  0  0  0  0  0
   16.7833   27.2560   16.0822 C   0  0  0  0  0  0  0  0  0  0  0  0
   16.1904   26.9370   17.4463 C   0  0  2  0  0  0  0  0  0  0  0  0
   16.5086   26.1104   13.8340 C   0  0  0  0  0  0  0  0  0  0  0  0
   15.5649   25.5995   12.9195 C   0  0  0  0  0  0  0  0  0  0  0  0
   15.7641   25.5568   11.5622 C   0  0  0  0  0  0  0  0  0  0  0  0
   17.1930   25.9387    9.5506 C   0  0  0  0  0  0  0  0  0  0  0  0
   20.9945   28.3440   11.3534 C   0  0  0  0  0  0  0  0  0  0  0  0
   19.5318   28.1318   13.4833 C   0  0  0  0  0  0  0  0  0  0  0  0
   17.7156   26.6190   13.2767 C   0  0  0  0  0  0  0  0  0  0  0  0
   19.0157   25.2343    7.1038 O   0  0  0  0  0  0  0  0  0  0  0  0
   18.8352   26.3373    7.6243 C   0  0  0  0  0  0  0  0  0  0  0  0
   18.9418   27.4731    6.9455 O   0  0  0  0  0  0  0  0  0  0  0  0
   18.5019   26.4517    9.0690 C   0  0  1  0  0  0  0  0  0  0  0  0
   16.3296   25.4927    8.7873 O   0  0  0  0  0  0  0  0  0  0  0  0
   19.4127   27.0540    9.9544 C   0  0  0  0  0  0  0  0  0  0  0  0
   19.9737   27.8853   12.0840 C   0  0  0  0  0  0  0  0  0  0  0  0
   20.8842   27.8961    9.7016 S   0  0  0  0  0  0  0  0  0  0  0  0
   17.9123   26.5958   11.8773 C   0  0  0  0  0  0  0  0  0  0  0  0
   16.9536   26.0392   11.0166 C   0  0  0  0  0  0  0  0  0  0  0  0
   14.3842   25.1480   13.3880 F   0  0  0  0  0  0  0  0  0  0  0  0
   18.7458   27.0837   14.1092 N   0  0  0  0  0  0  0  0  0  0  0  0
   19.5020   25.9818   14.6649 C   0  0  0  0  0  0  0  0  0  0  0  0
   15.1485   25.4858   15.8919 C   0  0  0  0  0  0  0  0  0  0  0  0
   17.2014   26.8448   18.4508 O   0  0  0  0  0  0  0  0  0  0  0  0
   15.5835   25.5398   17.3467 C   0  0  2  0  0  0  0  0  0  0  0  0
   14.5152   25.4264   18.3579 N   0  0  0  0  0  0  0  0  0  0  0  0
   13.3386   26.2846   18.1291 C   0  0  0  0  0  0  0  0  0  0  0  0
   14.1436   24.0343   18.6545 C   0  0  0  0  0  0  0  0  0  0  0  0
  1  5  1  0  0  0  0
  2 17  1  0  0  0  0
  3  1  1  0  0  0  0
  4  3  1  0  0  0  0
  4 26  1  1  0  0  0
  5 11  2  0  0  0  0
  5  6  1  0  0  0  0
  6  7  2  0  0  0  0
  7 21  1  0  0  0  0
  8 15  1  0  0  0  0
  8 16  2  0  0  0  0
  9 19  1  0  0  0  0
 10 18  1  0  0  0  0
 11 20  1  0  0  0  0
 13 14  1  0  0  0  0
 13 12  2  0  0  0  0
 15 13  1  6  0  0  0
 17 19  2  0  0  0  0
 17 15  1  0  0  0  0
 18  2  1  0  0  0  0
 18  9  2  0  0  0  0
 20 21  2  0  0  0  0
 20  2  1  0  0  0  0
 21  8  1  0  0  0  0
 22  6  1  0  0  0  0
 23 11  1  0  0  0  0
 23 10  1  0  0  0  0
 24 23  1  0  0  0  0
 25  1  1  0  0  0  0
 27  4  1  0  0  0  0
 27 25  1  0  0  0  0
 27 28  1  1  0  0  0
 29 28  1  0  0  0  0
 30 28  1  0  0  0  0
M  END
>  <CHROM.1>
-142.82898026,-0.41117802,-67.14391015,-173.47807259,66.72689079,17.45965606
26.43764158,12.88610121,2.06443804,0.47705407,1.45306649

>  <Name>
lig.pdb

>  <RI>
0

>  <Rbt.Current_Directory>
/home/itssahil/PROJECTS/Mol_Feturizer/New_Systems/rnas/6bfb

>  <Rbt.Executable>
rbdock ($Id: //depot/dev/client3/rdock/2013.1/src/exe/rbdock.cxx#4 $)

>  <Rbt.Library>
libRbt.so (2013.1, Build901 2013/11/27)

>  <Rbt.Parameter_File>
/export/apps/rDock/src/rDock_2013.1_src/data/scripts/dock_solv.prm

>  <Rbt.Receptor>
prm/blind_docking_40.prm

>  <SCORE>
4.41395

>  <SCORE.INTER>
-7.40031

>  <SCORE.INTER.CONST>
1

>  <SCORE.INTER.POLAR>
-0.504879

>  <SCORE.INTER.ROT>
3

>  <SCORE.INTER.SOLV>
20.0758

>  <SCORE.INTER.VDW>
-15.5426

>  <SCORE.INTER.norm>
-0.246677

>  <SCORE.INTRA>
-3.84599

>  <SCORE.INTRA.DIHEDRAL>
-7.30318

>  <SCORE.INTRA.DIHEDRAL.0>
9.41909

>  <SCORE.INTRA.POLAR>
0

>  <SCORE.INTRA.POLAR.0>
0

>  <SCORE.INTRA.REPUL>
0

>  <SCORE.INTRA.REPUL.0>
0

>  <SCORE.INTRA.SOLV>
-0.127671

>  <SCORE.INTRA.SOLV.lig_0>
-26.2491

>  <SCORE.INTRA.VDW>
-0.130562

>  <SCORE.INTRA.VDW.0>
2.57239

>  <SCORE.INTRA.norm>
-0.1282

>  <SCORE.RESTR>
15.6602

>  <SCORE.RESTR.CAVITY>
15.6602

>  <SCORE.RESTR.norm>
0.522008

>  <SCORE.SYSTEM>
0

>  <SCORE.SYSTEM.CONST>
0

>  <SCORE.SYSTEM.DIHEDRAL>
0

>  <SCORE.SYSTEM.SOLV>
0

>  <SCORE.SYSTEM.norm>
0

>  <SCORE.heavy>
30

>  <SCORE.norm>
0.147132

>  <RMSD>
19.950

$$$$
lig.pdb
 OpenBabel11021811523D
libRbt.so/2013.1/901 2013/11/27
 30 34  0  0  0  0  0  0  0  0999 V2000
   16.3066   26.1295   15.2769 N   0  0  0  0  0  0  0  0  0  0  0  0
   19.0901   27.1299   11.3071 N   0  0  0  0  0  0  0  0  0  0  0  0
   16.7941   27.2530   16.0829 C   0  0  0  0  0  0  0  0  0  0  0  0
   16.1969   26.9375   17.4460 C   0  0  2  0  0  0  0  0  0  0  0  0
   16.5099   26.1139   13.8326 C   0  0  0  0  0  0  0  0  0  0  0  0
   15.5660   25.6052   12.9171 C   0  0  0  0  0  0  0  0  0  0  0  0
   15.7660   25.5629   11.5599 C   0  0  0  0  0  0  0  0  0  0  0  0
   17.1970   25.9435    9.5496 C   0  0  0  0  0  0  0  0  0  0  0  0
   21.0013   28.3413   11.3563 C   0  0  0  0  0  0  0  0  0  0  0  0
   19.5368   28.1304   13.4852 C   0  0  0  0  0  0  0  0  0  0  0  0
   17.7181   26.6208   13.2764 C   0  0  0  0  0  0  0  0  0  0  0  0
   19.1796   27.3322    6.9749 O   0  0  0  0  0  0  0  0  0  0  0  0
   18.8412   26.3405    7.6246 C   0  0  0  0  0  0  0  0  0  0  0  0
   18.7385   25.1330    7.0828 O   0  0  0  0  0  0  0  0  0  0  0  0
   18.5071   26.4546    9.0692 C   0  0  1  0  0  0  0  0  0  0  0  0
   16.3333   25.4995    8.7853 O   0  0  0  0  0  0  0  0  0  0  0  0
   19.4182   27.0548    9.9555 C   0  0  0  0  0  0  0  0  0  0  0  0
   19.9792   27.8839   12.0859 C   0  0  0  0  0  0  0  0  0  0  0  0
   20.8914   27.8946    9.7042 S   0  0  0  0  0  0  0  0  0  0  0  0
   17.9158   26.5981   11.8771 C   0  0  0  0  0  0  0  0  0  0  0  0
   16.9568   26.0437   11.0154 C   0  0  0  0  0  0  0  0  0  0  0  0
   14.3841   25.1554   13.3845 F   0  0  0  0  0  0  0  0  0  0  0  0
   18.7485   27.0833   14.1099 N   0  0  0  0  0  0  0  0  0  0  0  0
   19.5025   25.9797   14.6654 C   0  0  0  0  0  0  0  0  0  0  0  0
   15.1421   25.4992   15.8884 C   0  0  0  0  0  0  0  0  0  0  0  0
   17.2062   26.8337   18.4512 O   0  0  0  0  0  0  0  0  0  0  0  0
   15.5765   25.5465   17.3436 C   0  0  2  0  0  0  0  0  0  0  0  0
   14.5063   25.4417   18.3537 N   0  0  0  0  0  0  0  0  0  0  0  0
   13.3327   26.3024   18.1185 C   0  0  0  0  0  0  0  0  0  0  0  0
   14.1301   24.0525   18.6573 C   0  0  0  0  0  0  0  0  0  0  0  0
  1  5  1  0  0  0  0
  2 17  1  0  0  0  0
  3  1  1  0  0  0  0
  4  3  1  0  0  0  0
  4 26  1  1  0  0  0
  5 11  2  0  0  0  0
  5  6  1  0  0  0  0
  6  7  2  0  0  0  0
  7 21  1  0  0  0  0
  8 15  1  0  0  0  0
  8 16  2  0  0  0  0
  9 19  1  0  0  0  0
 10 18  1  0  0  0  0
 11 20  1  0  0  0  0
 13 14  1  0  0  0  0
 13 12  2  0  0  0  0
 15 13  1  6  0  0  0
 17 19  2  0  0  0  0
 17 15  1  0  0  0  0
 18  2  1  0  0  0  0
 18  9  2  0  0  0  0
 20 21  2  0  0  0  0
 20  2  1  0  0  0  0
 21  8  1  0  0  0  0
 22  6  1  0  0  0  0
 23 11  1  0  0  0  0
 23 10  1  0  0  0  0
 24 23  1  0  0  0  0
 25  1  1  0  0  0  0
 27  4  1  0  0  0  0
 27 25  1  0  0  0  0
 27 28  1  1  0  0  0
 29 28  1  0  0  0  0
 30 28  1  0  0  0  0
M  END
>  <CHROM.1>
-143.29629970,0.23078025,125.90486985,-172.98687285,67.29052254,17.45945789
26.42682175,12.88608126,2.06607538,0.48064266,1.44368867

>  <Name>
lig.pdb

>  <RI>
0

>  <Rbt.Current_Directory>
/home/itssahil/PROJECTS/Mol_Feturizer/New_Systems/rnas/6bfb

>  <Rbt.Executable>
rbdock ($Id: //depot/dev/client3/rdock/2013.1/src/exe/rbdock.cxx#4 $)

>  <Rbt.Library>
libRbt.so (2013.1, Build901 2013/11/27)

>  <Rbt.Parameter_File>
/export/apps/rDock/src/rDock_2013.1_src/data/scripts/dock_solv.prm

>  <Rbt.Receptor>
prm/blind_docking_40.prm

>  <SCORE>
4.53232

>  <SCORE.INTER>
-7.49585

>  <SCORE.INTER.CONST>
1

>  <SCORE.INTER.POLAR>
-0.502784

>  <SCORE.INTER.ROT>
3

>  <SCORE.INTER.SOLV>
20.0665

>  <SCORE.INTER.VDW>
-15.6101

>  <SCORE.INTER.norm>
-0.249862

>  <SCORE.INTRA>
-3.64915

>  <SCORE.INTRA.DIHEDRAL>
-7.25519

>  <SCORE.INTRA.DIHEDRAL.0>
9.41909

>  <SCORE.INTRA.POLAR>
0

>  <SCORE.INTRA.POLAR.0>
0

>  <SCORE.INTRA.REPUL>
0

>  <SCORE.INTRA.REPUL.0>
0

>  <SCORE.INTRA.SOLV>
-0.0980589

>  <SCORE.INTRA.SOLV.lig_0>
-26.2491

>  <SCORE.INTRA.VDW>
0.0274783

>  <SCORE.INTRA.VDW.0>
2.57239

>  <SCORE.INTRA.norm>
-0.121638

>  <SCORE.RESTR>
15.6773

>  <SCORE.RESTR.CAVITY>
15.6773

>  <SCORE.RESTR.norm>
0.522577

>  <SCORE.SYSTEM>
0

>  <SCORE.SYSTEM.CONST>
0

>  <SCORE.SYSTEM.DIHEDRAL>
0

>  <SCORE.SYSTEM.SOLV>
0

>  <SCORE.SYSTEM.norm>
0

>  <SCORE.heavy>
30

>  <SCORE.norm>
0.151077

>  <RMSD>
19.952

$$$$
lig.pdb
 OpenBabel11021811523D
libRbt.so/2013.1/901 2013/11/27
 30 34  0  0  0  0  0  0  0  0999 V2000
   16.3452   26.1246   15.4513 N   0  0  0  0  0  0  0  0  0  0  0  0
   18.9970   27.0304   11.3703 N   0  0  0  0  0  0  0  0  0  0  0  0
   16.7038   27.3317   16.2021 C   0  0  0  0  0  0  0  0  0  0  0  0
   16.2046   26.9874   17.5974 C   0  0  2  0  0  0  0  0  0  0  0  0
   16.4965   26.0849   14.0011 C   0  0  0  0  0  0  0  0  0  0  0  0
   15.5144   25.5745   13.1277 C   0  0  0  0  0  0  0  0  0  0  0  0
   15.6654   25.5094   11.7650 C   0  0  0  0  0  0  0  0  0  0  0  0
   17.0281   25.8419    9.6995 C   0  0  0  0  0  0  0  0  0  0  0  0
   20.9232   28.2183   11.3329 C   0  0  0  0  0  0  0  0  0  0  0  0
   19.5332   28.0576   13.5154 C   0  0  0  0  0  0  0  0  0  0  0  0
   17.6902   26.5681   13.3946 C   0  0  0  0  0  0  0  0  0  0  0  0
   18.9769   27.1579    7.0441 O   0  0  0  0  0  0  0  0  0  0  0  0
   18.6072   26.1893    7.7114 C   0  0  0  0  0  0  0  0  0  0  0  0
   18.4229   24.9861    7.1820 O   0  0  0  0  0  0  0  0  0  0  0  0
   18.3263   26.3292    9.1651 C   0  0  1  0  0  0  0  0  0  0  0  0
   16.1324   25.3974    8.9733 O   0  0  0  0  0  0  0  0  0  0  0  0
   19.2757   26.9311   10.0091 C   0  0  0  0  0  0  0  0  0  0  0  0
   19.9224   27.7847   12.1053 C   0  0  0  0  0  0  0  0  0  0  0  0
   20.7489   27.7483    9.6927 S   0  0  0  0  0  0  0  0  0  0  0  0
   17.8374   26.5221   11.9897 C   0  0  0  0  0  0  0  0  0  0  0  0
   16.8416   25.9669   11.1713 C   0  0  0  0  0  0  0  0  0  0  0  0
   14.3447   25.1467   13.6436 F   0  0  0  0  0  0  0  0  0  0  0  0
   18.7552   27.0299   14.1838 N   0  0  0  0  0  0  0  0  0  0  0  0
   19.5151   25.9254   14.7290 C   0  0  0  0  0  0  0  0  0  0  0  0
   15.3001   25.3652   16.1284 C   0  0  0  0  0  0  0  0  0  0  0  0
   17.2542   27.0568   18.5635 O   0  0  0  0  0  0  0  0  0  0  0  0
   15.7762   25.5227   17.5627 C   0  0  2  0  0  0  0  0  0  0  0  0
   14.7673   25.3108   18.6181 N   0  0  0  0  0  0  0  0  0  0  0  0
   13.4477   25.9143   18.3575 C   0  0  0  0  0  0  0  0  0  0  0  0
   14.6661   23.9082   19.0498 C   0  0  0  0  0  0  0  0  0  0  0  0
  1  5  1  0  0  0  0
  2 17  1  0  0  0  0
  3  1  1  0  0  0  0
  4  3  1  0  0  0  0
  4 26  1  1  0  0  0
  5 11  2  0  0  0  0
  5  6  1  0  0  0  0
  6  7  2  0  0  0  0
  7 21  1  0  0  0  0
  8 15  1  0  0  0  0
  8 16  2  0  0  0  0
  9 19  1  0  0  0  0
 10 18  1  0  0  0  0
 11 20  1  0  0  0  0
 13 14  1  0  0  0  0
 13 12  2  0  0  0  0
 15 13  1  6  0  0  0
 17 19  2  0  0  0  0
 17 15  1  0  0  0  0
 18  2  1  0  0  0  0
 18  9  2  0  0  0  0
 20 21  2  0  0  0  0
 20  2  1  0  0  0  0
 21  8  1  0  0  0  0
 22  6  1  0  0  0  0
 23 11  1  0  0  0  0
 23 10  1  0  0  0  0
 24 23  1  0  0  0  0
 25  1  1  0  0  0  0
 27  4  1  0  0  0  0
 27 25  1  0  0  0  0
 27 28  1  1  0  0  0
 29 28  1  0  0  0  0
 30 28  1  0  0  0  0
M  END
>  <CHROM.1>
-134.73112462,-178.68030844,128.31774406,-67.91831129,71.57815578,17.42583180
26.34323521,13.02036049,2.02305163,0.49260684,1.45364578

>  <Name>
lig.pdb

>  <RI>
0

>  <Rbt.Current_Directory>
/home/itssahil/PROJECTS/Mol_Feturizer/New_Systems/rnas/6bfb

>  <Rbt.Executable>
rbdock ($Id: //depot/dev/client3/rdock/2013.1/src/exe/rbdock.cxx#4 $)

>  <Rbt.Library>
libRbt.so (2013.1, Build901 2013/11/27)

>  <Rbt.Parameter_File>
/export/apps/rDock/src/rDock_2013.1_src/data/scripts/dock_solv.prm

>  <Rbt.Receptor>
prm/blind_docking_40.prm

>  <SCORE>
4.30848

>  <SCORE.INTER>
-7.41434

>  <SCORE.INTER.CONST>
1

>  <SCORE.INTER.POLAR>
-0.717178

>  <SCORE.INTER.ROT>
3

>  <SCORE.INTER.SOLV>
21.3316

>  <SCORE.INTER.VDW>
-15.2628

>  <SCORE.INTER.norm>
-0.247145

>  <SCORE.INTRA>
-3.47945

>  <SCORE.INTRA.DIHEDRAL>
-7.01221

>  <SCORE.INTRA.DIHEDRAL.0>
9.41909

>  <SCORE.INTRA.POLAR>
0

>  <SCORE.INTRA.POLAR.0>
0

>  <SCORE.INTRA.REPUL>
0

>  <SCORE.INTRA.REPUL.0>
0

>  <SCORE.INTRA.SOLV>
-0.155969

>  <SCORE.INTRA.SOLV.lig_0>
-26.2491

>  <SCORE.INTRA.VDW>
0.104645

>  <SCORE.INTRA.VDW.0>
2.57239

>  <SCORE.INTRA.norm>
-0.115982

>  <SCORE.RESTR>
15.2023

>  <SCORE.RESTR.CAVITY>
15.2023

>  <SCORE.RESTR.norm>
0.506742

>  <SCORE.SYSTEM>
0

>  <SCORE.SYSTEM.CONST>
0

>  <SCORE.SYSTEM.DIHEDRAL>
0

>  <SCORE.SYSTEM.SOLV>
0

>  <SCORE.SYSTEM.norm>
0

>  <SCORE.heavy>
30

>  <SCORE.norm>
0.143616

>  <RMSD>
19.963

$$$$
lig.pdb
 OpenBabel11021811523D
libRbt.so/2013.1/901 2013/11/27
 30 34  0  0  0  0  0  0  0  0999 V2000
   16.3135   26.1280   15.4136 N   0  0  0  0  0  0  0  0  0  0  0  0
   19.0141   27.0332   11.3645 N   0  0  0  0  0  0  0  0  0  0  0  0
   16.7544   27.2976   16.1797 C   0  0  0  0  0  0  0  0  0  0  0  0
   16.2094   26.9831   17.5648 C   0  0  2  0  0  0  0  0  0  0  0  0
   16.4826   26.0873   13.9654 C   0  0  0  0  0  0  0  0  0  0  0  0
   15.5117   25.5754   13.0805 C   0  0  0  0  0  0  0  0  0  0  0  0
   15.6793   25.5095   11.7198 C   0  0  0  0  0  0  0  0  0  0  0  0
   17.0668   25.8416    9.6707 C   0  0  0  0  0  0  0  0  0  0  0  0
   20.9395   28.2228   11.3497 C   0  0  0  0  0  0  0  0  0  0  0  0
   19.5231   28.0624   13.5153 C   0  0  0  0  0  0  0  0  0  0  0  0
   17.6831   26.5712   13.3731 C   0  0  0  0  0  0  0  0  0  0  0  0
   19.7071   25.6421    7.3215 O   0  0  0  0  0  0  0  0  0  0  0  0
   18.6697   26.1890    7.7018 C   0  0  0  0  0  0  0  0  0  0  0  0
   17.7778   26.6934    6.8580 O   0  0  0  0  0  0  0  0  0  0  0  0
   18.3710   26.3298    9.1518 C   0  0  1  0  0  0  0  0  0  0  0  0
   16.1804   25.3958    8.9341 O   0  0  0  0  0  0  0  0  0  0  0  0
   19.3095   26.9331   10.0070 C   0  0  0  0  0  0  0  0  0  0  0  0
   19.9298   27.7889   12.1102 C   0  0  0  0  0  0  0  0  0  0  0  0
   20.7857   27.7515    9.7079 S   0  0  0  0  0  0  0  0  0  0  0  0
   17.8475   26.5242   11.9701 C   0  0  0  0  0  0  0  0  0  0  0  0
   16.8623   25.9676   11.1401 C   0  0  0  0  0  0  0  0  0  0  0  0
   14.3361   25.1469   13.5824 F   0  0  0  0  0  0  0  0  0  0  0  0
   18.7380   27.0346   14.1749 N   0  0  0  0  0  0  0  0  0  0  0  0
   19.4922   25.9311   14.7302 C   0  0  0  0  0  0  0  0  0  0  0  0
   15.2025   25.4477   16.0695 C   0  0  0  0  0  0  0  0  0  0  0  0
   17.2470   26.9629   18.5461 O   0  0  0  0  0  0  0  0  0  0  0  0
   15.6682   25.5568   17.5116 C   0  0  2  0  0  0  0  0  0  0  0  0
   14.6305   25.4167   18.5509 N   0  0  0  0  0  0  0  0  0  0  0  0
   13.3771   26.1481   18.2911 C   0  0  0  0  0  0  0  0  0  0  0  0
   14.3921   24.0203   18.9472 C   0  0  0  0  0  0  0  0  0  0  0  0
  1  5  1  0  0  0  0
  2 17  1  0  0  0  0
  3  1  1  0  0  0  0
  4  3  1  0  0  0  0
  4 26  1  1  0  0  0
  5 11  2  0  0  0  0
  5  6  1  0  0  0  0
  6  7  2  0  0  0  0
  7 21  1  0  0  0  0
  8 15  1  0  0  0  0
  8 16  2  0  0  0  0
  9 19  1  0  0  0  0
 10 18  1  0  0  0  0
 11 20  1  0  0  0  0
 13 14  1  0  0  0  0
 13 12  2  0  0  0  0
 15 13  1  6  0  0  0
 17 19  2  0  0  0  0
 17 15  1  0  0  0  0
 18  2  1  0  0  0  0
 18  9  2  0  0  0  0
 20 21  2  0  0  0  0
 20  2  1  0  0  0  0
 21  8  1  0  0  0  0
 22  6  1  0  0  0  0
 23 11  1  0  0  0  0
 23 10  1  0  0  0  0
 24 23  1  0  0  0  0
 25  1  1  0  0  0  0
 27  4  1  0  0  0  0
 27 25  1  0  0  0  0
 27 28  1  1  0  0  0
 29 28  1  0  0  0  0
 30 28  1  0  0  0  0
M  END
>  <CHROM.1>
-139.30402223,-172.66159048,-126.99250372,56.09124456,70.27662330,17.41322961
26.37641721,12.99273633,2.02776094,0.44861528,1.46546363

>  <Name>
lig.pdb

>  <RI>
0

>  <Rbt.Current_Directory>
/home/itssahil/PROJECTS/Mol_Feturizer/New_Systems/rnas/6bfb

>  <Rbt.Executable>
rbdock ($Id: //depot/dev/client3/rdock/2013.1/src/exe/rbdock.cxx#4 $)

>  <Rbt.Library>
libRbt.so (2013.1, Build901 2013/11/27)

>  <Rbt.Parameter_File>
/export/apps/rDock/src/rDock_2013.1_src/data/scripts/dock_solv.prm

>  <Rbt.Receptor>
prm/blind_docking_40.prm

>  <SCORE>
4.72157

>  <SCORE.INTER>
-6.8917

>  <SCORE.INTER.CONST>
1

>  <SCORE.INTER.POLAR>
-0.308409

>  <SCORE.INTER.ROT>
3

>  <SCORE.INTER.SOLV>
21.025

>  <SCORE.INTER.VDW>
-16.1748

>  <SCORE.INTER.norm>
-0.229723

>  <SCORE.INTRA>
-3.518

>  <SCORE.INTRA.DIHEDRAL>
-6.95492

>  <SCORE.INTRA.DIHEDRAL.0>
9.41909

>  <SCORE.INTRA.POLAR>
0

>  <SCORE.INTRA.POLAR.0>
0

>  <SCORE.INTRA.REPUL>
0

>  <SCORE.INTRA.REPUL.0>
0

>  <SCORE.INTRA.SOLV>
-0.178091

>  <SCORE.INTRA.SOLV.lig_0>
-26.2491

>  <SCORE.INTRA.VDW>
0.0485097

>  <SCORE.INTRA.VDW.0>
2.57239

>  <SCORE.INTRA.norm>
-0.117267

>  <SCORE.RESTR>
15.1313

>  <SCORE.RESTR.CAVITY>
15.1313

>  <SCORE.RESTR.norm>
0.504375

>  <SCORE.SYSTEM>
0

>  <SCORE.SYSTEM.CONST>
0

>  <SCORE.SYSTEM.DIHEDRAL>
0

>  <SCORE.SYSTEM.SOLV>
0

>  <SCORE.SYSTEM.norm>
0

>  <SCORE.heavy>
30

>  <SCORE.norm>
0.157386

>  <RMSD>
19.964

$$$$
lig.pdb
 OpenBabel11021811523D
libRbt.so/2013.1/901 2013/11/27
 30 34  0  0  0  0  0  0  0  0999 V2000
   16.3290   26.1208   15.4553 N   0  0  0  0  0  0  0  0  0  0  0  0
   18.9677   27.0328   11.3672 N   0  0  0  0  0  0  0  0  0  0  0  0
   16.6897   27.3252   16.2095 C   0  0  0  0  0  0  0  0  0  0  0  0
   16.1971   26.9748   17.6055 C   0  0  2  0  0  0  0  0  0  0  0  0
   16.4740   26.0871   14.0044 C   0  0  0  0  0  0  0  0  0  0  0  0
   15.4857   25.5855   13.1328 C   0  0  0  0  0  0  0  0  0  0  0  0
   15.6305   25.5260   11.7692 C   0  0  0  0  0  0  0  0  0  0  0  0
   16.9859   25.8615    9.6994 C   0  0  0  0  0  0  0  0  0  0  0  0
   20.8994   28.2115   11.3270 C   0  0  0  0  0  0  0  0  0  0  0  0
   19.5180   28.0474   13.5147 C   0  0  0  0  0  0  0  0  0  0  0  0
   17.6673   26.5674   13.3950 C   0  0  0  0  0  0  0  0  0  0  0  0
   19.4921   25.5147    7.3016 O   0  0  0  0  0  0  0  0  0  0  0  0
   18.5582   26.2106    7.7062 C   0  0  0  0  0  0  0  0  0  0  0  0
   17.7629   26.8856    6.8853 O   0  0  0  0  0  0  0  0  0  0  0  0
   18.2842   26.3451    9.1617 C   0  0  1  0  0  0  0  0  0  0  0  0
   16.0851   25.4247    8.9751 O   0  0  0  0  0  0  0  0  0  0  0  0
   19.2401   26.9384   10.0045 C   0  0  0  0  0  0  0  0  0  0  0  0
   19.8999   27.7792   12.1017 C   0  0  0  0  0  0  0  0  0  0  0  0
   20.7159   27.7501    9.6855 S   0  0  0  0  0  0  0  0  0  0  0  0
   17.8083   26.5271   11.9892 C   0  0  0  0  0  0  0  0  0  0  0  0
   16.8064   25.9806   11.1726 C   0  0  0  0  0  0  0  0  0  0  0  0
   14.3162   25.1609   13.6518 F   0  0  0  0  0  0  0  0  0  0  0  0
   18.7379   27.0204   14.1817 N   0  0  0  0  0  0  0  0  0  0  0  0
   19.4949   25.9097   14.7186 C   0  0  0  0  0  0  0  0  0  0  0  0
   15.2879   25.3575   16.1341 C   0  0  0  0  0  0  0  0  0  0  0  0
   17.2510   27.0415   18.5672 O   0  0  0  0  0  0  0  0  0  0  0  0
   15.7701   25.5098   17.5669 C   0  0  2  0  0  0  0  0  0  0  0  0
   14.7661   25.2925   18.6259 N   0  0  0  0  0  0  0  0  0  0  0  0
   13.4390   25.8790   18.3647 C   0  0  0  0  0  0  0  0  0  0  0  0
   14.6823   23.8915   19.0662 C   0  0  0  0  0  0  0  0  0  0  0  0
  1  5  1  0  0  0  0
  2 17  1  0  0  0  0
  3  1  1  0  0  0  0
  4  3  1  0  0  0  0
  4 26  1  1  0  0  0
  5 11  2  0  0  0  0
  5  6  1  0  0  0  0
  6  7  2  0  0  0  0
  7 21  1  0  0  0  0
  8 15  1  0  0  0  0
  8 16  2  0  0  0  0
  9 19  1  0  0  0  0
 10 18  1  0  0  0  0
 11 20  1  0  0  0  0
 13 14  1  0  0  0  0
 13 12  2  0  0  0  0
 15 13  1  6  0  0  0
 17 19  2  0  0  0  0
 17 15  1  0  0  0  0
 18  2  1  0  0  0  0
 18  9  2  0  0  0  0
 20 21  2  0  0  0  0
 20  2  1  0  0  0  0
 21  8  1  0  0  0  0
 22  6  1  0  0  0  0
 23 11  1  0  0  0  0
 23 10  1  0  0  0  0
 24 23  1  0  0  0  0
 25  1  1  0  0  0  0
 27  4  1  0  0  0  0
 27 25  1  0  0  0  0
 27 28  1  1  0  0  0
 29 28  1  0  0  0  0
 30 28  1  0  0  0  0
M  END
>  <CHROM.1>
-134.39125035,0.86327434,-117.62736230,-66.29628757,72.42414071,17.39947631
26.35748787,13.01561022,2.00662992,0.45619285,1.48314584

>  <Name>
lig.pdb

>  <RI>
0

>  <Rbt.Current_Directory>
/home/itssahil/PROJECTS/Mol_Feturizer/New_Systems/rnas/6bfb

>  <Rbt.Executable>
rbdock ($Id: //depot/dev/client3/rdock/2013.1/src/exe/rbdock.cxx#4 $)

>  <Rbt.Library>
libRbt.so (2013.1, Build901 2013/11/27)

>  <Rbt.Parameter_File>
/export/apps/rDock/src/rDock_2013.1_src/data/scripts/dock_solv.prm

>  <Rbt.Receptor>
prm/blind_docking_40.prm

>  <SCORE>
3.89596

>  <SCORE.INTER>
-6.91762

>  <SCORE.INTER.CONST>
1

>  <SCORE.INTER.POLAR>
-0.679138

>  <SCORE.INTER.ROT>
3

>  <SCORE.INTER.SOLV>
21.5559

>  <SCORE.INTER.VDW>
-15.1333

>  <SCORE.INTER.norm>
-0.230587

>  <SCORE.INTRA>
-4.11573

>  <SCORE.INTRA.DIHEDRAL>
-7.0829

>  <SCORE.INTRA.DIHEDRAL.0>
9.41909

>  <SCORE.INTRA.POLAR>
0

>  <SCORE.INTRA.POLAR.0>
0

>  <SCORE.INTRA.REPUL>
0

>  <SCORE.INTRA.REPUL.0>
0

>  <SCORE.INTRA.SOLV>
-0.188446

>  <SCORE.INTRA.SOLV.lig_0>
-26.2491

>  <SCORE.INTRA.VDW>
-0.480059

>  <SCORE.INTRA.VDW.0>
2.57239

>  <SCORE.INTRA.norm>
-0.137191

>  <SCORE.RESTR>
14.9293

>  <SCORE.RESTR.CAVITY>
14.9293

>  <SCORE.RESTR.norm>
0.497644

>  <SCORE.SYSTEM>
0

>  <SCORE.SYSTEM.CONST>
0

>  <SCORE.SYSTEM.DIHEDRAL>
0

>  <SCORE.SYSTEM.SOLV>
0

>  <SCORE.SYSTEM.norm>
0

>  <SCORE.heavy>
30

>  <SCORE.norm>
0.129865

>  <RMSD>
19.966

$$$$
lig.pdb
 OpenBabel11021811523D
libRbt.so/2013.1/901 2013/11/27
 30 34  0  0  0  0  0  0  0  0999 V2000
   16.2967   26.1206   15.3048 N   0  0  0  0  0  0  0  0  0  0  0  0
   19.0497   27.1114   11.3114 N   0  0  0  0  0  0  0  0  0  0  0  0
   16.7892   27.2476   16.1029 C   0  0  0  0  0  0  0  0  0  0  0  0
   16.2017   26.9372   17.4714 C   0  0  2  0  0  0  0  0  0  0  0  0
   16.4900   26.0993   13.8592 C   0  0  0  0  0  0  0  0  0  0  0  0
   15.5411   25.5840   12.9526 C   0  0  0  0  0  0  0  0  0  0  0  0
   15.7318   25.5364   11.5942 C   0  0  0  0  0  0  0  0  0  0  0  0
   17.1476   25.9122    9.5723 C   0  0  0  0  0  0  0  0  0  0  0  0
   20.9577   28.3284   11.3420 C   0  0  0  0  0  0  0  0  0  0  0  0
   19.5087   28.1226   13.4819 C   0  0  0  0  0  0  0  0  0  0  0  0
   17.6929   26.6071   13.2924 C   0  0  0  0  0  0  0  0  0  0  0  0
   18.0164   26.7599    6.7772 O   0  0  0  0  0  0  0  0  0  0  0  0
   18.7773   26.3053    7.6341 C   0  0  0  0  0  0  0  0  0  0  0  0
   19.9051   25.6765    7.3263 O   0  0  0  0  0  0  0  0  0  0  0  0
   18.4529   26.4248    9.0805 C   0  0  1  0  0  0  0  0  0  0  0  0
   16.2799   25.4624    8.8160 O   0  0  0  0  0  0  0  0  0  0  0  0
   19.3686   27.0314    9.9579 C   0  0  0  0  0  0  0  0  0  0  0  0
   19.9421   27.8713   12.0807 C   0  0  0  0  0  0  0  0  0  0  0  0
   20.8375   27.8741    9.6926 S   0  0  0  0  0  0  0  0  0  0  0  0
   17.8808   26.5789   11.8919 C   0  0  0  0  0  0  0  0  0  0  0  0
   16.9174   26.0180   11.0393 C   0  0  0  0  0  0  0  0  0  0  0  0
   14.3638   25.1330   13.4302 F   0  0  0  0  0  0  0  0  0  0  0  0
   18.7277   27.0760   14.1167 N   0  0  0  0  0  0  0  0  0  0  0  0
   19.4886   25.9770   14.6717 C   0  0  0  0  0  0  0  0  0  0  0  0
   15.1368   25.4921   15.9269 C   0  0  0  0  0  0  0  0  0  0  0  0
   17.2180   26.8380   18.4699 O   0  0  0  0  0  0  0  0  0  0  0  0
   15.5813   25.5455   17.3789 C   0  0  2  0  0  0  0  0  0  0  0  0
   14.5182   25.4444   18.3968 N   0  0  0  0  0  0  0  0  0  0  0  0
   13.3261   26.2749   18.1464 C   0  0  0  0  0  0  0  0  0  0  0  0
   14.1718   24.0558   18.7368 C   0  0  0  0  0  0  0  0  0  0  0  0
  1  5  1  0  0  0  0
  2 17  1  0  0  0  0
  3  1  1  0  0  0  0
  4  3  1  0  0  0  0
  4 26  1  1  0  0  0
  5 11  2  0  0  0  0
  5  6  1  0  0  0  0
  6  7  2  0  0  0  0
  7 21  1  0  0  0  0
  8 15  1  0  0  0  0
  8 16  2  0  0  0  0
  9 19  1  0  0  0  0
 10 18  1  0  0  0  0
 11 20  1  0  0  0  0
 13 14  1  0  0  0  0
 13 12  2  0  0  0  0
 15 13  1  6  0  0  0
 17 19  2  0  0  0  0
 17 15  1  0  0  0  0
 18  2  1  0  0  0  0
 18  9  2  0  0  0  0
 20 21  2  0  0  0  0
 20  2  1  0  0  0  0
 21  8  1  0  0  0  0
 22  6  1  0  0  0  0
 23 11  1  0  0  0  0
 23 10  1  0  0  0  0
 24 23  1  0  0  0  0
 25  1  1  0  0  0  0
 27  4  1  0  0  0  0
 27 25  1  0  0  0  0
 27 28  1  1  0  0  0
 29 28  1  0  0  0  0
 30 28  1  0  0  0  0
M  END
>  <CHROM.1>
-143.42868249,1.97361808,54.74610098,-173.58224584,68.94556845,17.44012215
26.41309023,12.90652790,2.05483943,0.45417348,1.45845555

>  <Name>
lig.pdb

>  <RI>
0

>  <Rbt.Current_Directory>
/home/itssahil/PROJECTS/Mol_Feturizer/New_Systems/rnas/6bfb

>  <Rbt.Executable>
rbdock ($Id: //depot/dev/client3/rdock/2013.1/src/exe/rbdock.cxx#4 $)

>  <Rbt.Library>
libRbt.so (2013.1, Build901 2013/11/27)

>  <Rbt.Parameter_File>
/export/apps/rDock/src/rDock_2013.1_src/data/scripts/dock_solv.prm

>  <Rbt.Receptor>
prm/blind_docking_40.prm

>  <SCORE>
4.78333

>  <SCORE.INTER>
-7.02439

>  <SCORE.INTER.CONST>
1

>  <SCORE.INTER.POLAR>
-0.489525

>  <SCORE.INTER.ROT>
3

>  <SCORE.INTER.SOLV>
20.2714

>  <SCORE.INTER.VDW>
-15.4083

>  <SCORE.INTER.norm>
-0.234146

>  <SCORE.INTRA>
-3.67781

>  <SCORE.INTRA.DIHEDRAL>
-7.21237

>  <SCORE.INTRA.DIHEDRAL.0>
9.41909

>  <SCORE.INTRA.POLAR>
0

>  <SCORE.INTRA.POLAR.0>
0

>  <SCORE.INTRA.REPUL>
0

>  <SCORE.INTRA.REPUL.0>
0

>  <SCORE.INTRA.SOLV>
-0.114041

>  <SCORE.INTRA.SOLV.lig_0>
-26.2491

>  <SCORE.INTRA.VDW>
-0.014602

>  <SCORE.INTRA.VDW.0>
2.57239

>  <SCORE.INTRA.norm>
-0.122594

>  <SCORE.RESTR>
15.4855

>  <SCORE.RESTR.CAVITY>
15.4855

>  <SCORE.RESTR.norm>
0.516184

>  <SCORE.SYSTEM>
0

>  <SCORE.SYSTEM.CONST>
0

>  <SCORE.SYSTEM.DIHEDRAL>
0

>  <SCORE.SYSTEM.SOLV>
0

>  <SCORE.SYSTEM.norm>
0

>  <SCORE.heavy>
30

>  <SCORE.norm>
0.159444

>  <RMSD>
19.969

$$$$
lig.pdb
 OpenBabel11021811523D
libRbt.so/2013.1/901 2013/11/27
 30 34  0  0  0  0  0  0  0  0999 V2000
   16.3262   26.1208   15.4002 N   0  0  0  0  0  0  0  0  0  0  0  0
   19.0158   27.0468   11.3486 N   0  0  0  0  0  0  0  0  0  0  0  0
   16.7638   27.2900   16.1690 C   0  0  0  0  0  0  0  0  0  0  0  0
   16.2230   26.9691   17.5542 C   0  0  2  0  0  0  0  0  0  0  0  0
   16.4924   26.0852   13.9515 C   0  0  0  0  0  0  0  0  0  0  0  0
   15.5213   25.5732   13.0670 C   0  0  0  0  0  0  0  0  0  0  0  0
   15.6863   25.5121   11.7057 C   0  0  0  0  0  0  0  0  0  0  0  0
   17.0686   25.8548    9.6550 C   0  0  0  0  0  0  0  0  0  0  0  0
   20.9377   28.2421   11.3337 C   0  0  0  0  0  0  0  0  0  0  0  0
   19.5262   28.0707   13.5015 C   0  0  0  0  0  0  0  0  0  0  0  0
   17.6903   26.5745   13.3584 C   0  0  0  0  0  0  0  0  0  0  0  0
   17.8747   26.6317    6.8366 O   0  0  0  0  0  0  0  0  0  0  0  0
   18.6665   26.2132    7.6839 C   0  0  0  0  0  0  0  0  0  0  0  0
   19.8046   25.6107    7.3617 O   0  0  0  0  0  0  0  0  0  0  0  0
   18.3703   26.3484    9.1350 C   0  0  1  0  0  0  0  0  0  0  0  0
   16.1821   25.4087    8.9187 O   0  0  0  0  0  0  0  0  0  0  0  0
   19.3087   26.9519    9.9901 C   0  0  0  0  0  0  0  0  0  0  0  0
   19.9308   27.8028   12.0948 C   0  0  0  0  0  0  0  0  0  0  0  0
   20.7819   27.7755    9.6907 S   0  0  0  0  0  0  0  0  0  0  0  0
   17.8520   26.5325   11.9549 C   0  0  0  0  0  0  0  0  0  0  0  0
   16.8667   25.9755   11.1251 C   0  0  0  0  0  0  0  0  0  0  0  0
   14.3480   25.1397   13.5700 F   0  0  0  0  0  0  0  0  0  0  0  0
   18.7454   27.0385   14.1595 N   0  0  0  0  0  0  0  0  0  0  0  0
   19.5040   25.9356   14.7098 C   0  0  0  0  0  0  0  0  0  0  0  0
   15.2193   25.4341   16.0563 C   0  0  0  0  0  0  0  0  0  0  0  0
   17.2626   26.9501   18.5334 O   0  0  0  0  0  0  0  0  0  0  0  0
   15.6876   25.5407   17.4978 C   0  0  2  0  0  0  0  0  0  0  0  0
   14.6525   25.3932   18.5388 N   0  0  0  0  0  0  0  0  0  0  0  0
   13.3990   26.1276   18.2882 C   0  0  0  0  0  0  0  0  0  0  0  0
   14.4142   23.9939   18.9247 C   0  0  0  0  0  0  0  0  0  0  0  0
  1  5  1  0  0  0  0
  2 17  1  0  0  0  0
  3  1  1  0  0  0  0
  4  3  1  0  0  0  0
  4 26  1  1  0  0  0
  5 11  2  0  0  0  0
  5  6  1  0  0  0  0
  6  7  2  0  0  0  0
  7 21  1  0  0  0  0
  8 15  1  0  0  0  0
  8 16  2  0  0  0  0
  9 19  1  0  0  0  0
 10 18  1  0  0  0  0
 11 20  1  0  0  0  0
 13 14  1  0  0  0  0
 13 12  2  0  0  0  0
 15 13  1  6  0  0  0
 17 19  2  0  0  0  0
 17 15  1  0  0  0  0
 18  2  1  0  0  0  0
 18  9  2  0  0  0  0
 20 21  2  0  0  0  0
 20  2  1  0  0  0  0
 21  8  1  0  0  0  0
 22  6  1  0  0  0  0
 23 11  1  0  0  0  0
 23 10  1  0  0  0  0
 24 23  1  0  0  0  0
 25  1  1  0  0  0  0
 27  4  1  0  0  0  0
 27 25  1  0  0  0  0
 27 28  1  1  0  0  0
 29 28  1  0  0  0  0
 30 28  1  0  0  0  0
M  END
>  <CHROM.1>
-139.23717699,-0.14309079,52.43822557,56.96231495,69.87829452,17.43432680
26.37096213,12.97774056,2.03291705,0.45595813,1.45997173

>  <Name>
lig.pdb

>  <RI>
0

>  <Rbt.Current_Directory>
/home/itssahil/PROJECTS/Mol_Feturizer/New_Systems/rnas/6bfb

>  <Rbt.Executable>
rbdock ($Id: //depot/dev/client3/rdock/2013.1/src/exe/rbdock.cxx#4 $)

>  <Rbt.Library>
libRbt.so (2013.1, Build901 2013/11/27)

>  <Rbt.Parameter_File>
/export/apps/rDock/src/rDock_2013.1_src/data/scripts/dock_solv.prm

>  <Rbt.Receptor>
prm/blind_docking_40.prm

>  <SCORE>
6.13159

>  <SCORE.INTER>
-4.92083

>  <SCORE.INTER.CONST>
1

>  <SCORE.INTER.POLAR>
0

>  <SCORE.INTER.ROT>
3

>  <SCORE.INTER.SOLV>
20.6996

>  <SCORE.INTER.VDW>
-15.7804

>  <SCORE.INTER.norm>
-0.164028

>  <SCORE.INTRA>
-4.1808

>  <SCORE.INTRA.DIHEDRAL>
-7.34404

>  <SCORE.INTRA.DIHEDRAL.0>
9.41909

>  <SCORE.INTRA.POLAR>
0

>  <SCORE.INTRA.POLAR.0>
0

>  <SCORE.INTRA.REPUL>
0

>  <SCORE.INTRA.REPUL.0>
0

>  <SCORE.INTRA.SOLV>
-0.18913

>  <SCORE.INTRA.SOLV.lig_0>
-26.2491

>  <SCORE.INTRA.VDW>
-0.414213

>  <SCORE.INTRA.VDW.0>
2.57239

>  <SCORE.INTRA.norm>
-0.13936

>  <SCORE.RESTR>
15.2332

>  <SCORE.RESTR.CAVITY>
15.2332

>  <SCORE.RESTR.norm>
0.507774

>  <SCORE.SYSTEM>
0

>  <SCORE.SYSTEM.CONST>
0

>  <SCORE.SYSTEM.DIHEDRAL>
0

>  <SCORE.SYSTEM.SOLV>
0

>  <SCORE.SYSTEM.norm>
0

>  <SCORE.heavy>
30

>  <SCORE.norm>
0.204386

>  <RMSD>
19.971

$$$$
lig.pdb
 OpenBabel11021811523D
libRbt.so/2013.1/901 2013/11/27
 30 34  0  0  0  0  0  0  0  0999 V2000
   16.3247   26.1188   15.4188 N   0  0  0  0  0  0  0  0  0  0  0  0
   19.0011   27.0380   11.3569 N   0  0  0  0  0  0  0  0  0  0  0  0
   16.7513   27.2944   16.1840 C   0  0  0  0  0  0  0  0  0  0  0  0
   16.2203   26.9690   17.5720 C   0  0  2  0  0  0  0  0  0  0  0  0
   16.4852   26.0830   13.9695 C   0  0  0  0  0  0  0  0  0  0  0  0
   15.5092   25.5738   13.0887 C   0  0  0  0  0  0  0  0  0  0  0  0
   15.6687   25.5125   11.7268 C   0  0  0  0  0  0  0  0  0  0  0  0
   17.0440   25.8517    9.6707 C   0  0  0  0  0  0  0  0  0  0  0  0
   20.9262   28.2280   11.3347 C   0  0  0  0  0  0  0  0  0  0  0  0
   19.5227   28.0601   13.5080 C   0  0  0  0  0  0  0  0  0  0  0  0
   17.6821   26.5691   13.3718 C   0  0  0  0  0  0  0  0  0  0  0  0
   17.8795   26.6946    6.8507 O   0  0  0  0  0  0  0  0  0  0  0  0
   18.6351   26.2060    7.6935 C   0  0  0  0  0  0  0  0  0  0  0  0
   19.7264   25.5253    7.3650 O   0  0  0  0  0  0  0  0  0  0  0  0
   18.3450   26.3418    9.1457 C   0  0  1  0  0  0  0  0  0  0  0  0
   16.1534   25.4082    8.9378 O   0  0  0  0  0  0  0  0  0  0  0  0
   19.2884   26.9425    9.9973 C   0  0  0  0  0  0  0  0  0  0  0  0
   19.9210   27.7914   12.0997 C   0  0  0  0  0  0  0  0  0  0  0  0
   20.7627   27.7621    9.6923 S   0  0  0  0  0  0  0  0  0  0  0  0
   17.8382   26.5268   11.9677 C   0  0  0  0  0  0  0  0  0  0  0  0
   16.8481   25.9728   11.1416 C   0  0  0  0  0  0  0  0  0  0  0  0
   14.3367   25.1434   13.5962 F   0  0  0  0  0  0  0  0  0  0  0  0
   18.7416   27.0299   14.1688 N   0  0  0  0  0  0  0  0  0  0  0  0
   19.4993   25.9248   14.7160 C   0  0  0  0  0  0  0  0  0  0  0  0
   15.2291   25.4195   16.0807 C   0  0  0  0  0  0  0  0  0  0  0  0
   17.2643   26.9643   18.5467 O   0  0  0  0  0  0  0  0  0  0  0  0
   15.7022   25.5341   17.5200 C   0  0  2  0  0  0  0  0  0  0  0  0
   14.6735   25.3755   18.5656 N   0  0  0  0  0  0  0  0  0  0  0  0
   13.3986   26.0682   18.3042 C   0  0  0  0  0  0  0  0  0  0  0  0
   14.4768   23.9772   18.9776 C   0  0  0  0  0  0  0  0  0  0  0  0
  1  5  1  0  0  0  0
  2 17  1  0  0  0  0
  3  1  1  0  0  0  0
  4  3  1  0  0  0  0
  4 26  1  1  0  0  0
  5 11  2  0  0  0  0
  5  6  1  0  0  0  0
  6  7  2  0  0  0  0
  7 21  1  0  0  0  0
  8 15  1  0  0  0  0
  8 16  2  0  0  0  0
  9 19  1  0  0  0  0
 10 18  1  0  0  0  0
 11 20  1  0  0  0  0
 13 14  1  0  0  0  0
 13 12  2  0  0  0  0
 15 13  1  6  0  0  0
 17 19  2  0  0  0  0
 17 15  1  0  0  0  0
 18  2  1  0  0  0  0
 18  9  2  0  0  0  0
 20 21  2  0  0  0  0
 20  2  1  0  0  0  0
 21  8  1  0  0  0  0
 22  6  1  0  0  0  0
 23 11  1  0  0  0  0
 23 10  1  0  0  0  0
 24 23  1  0  0  0  0
 25  1  1  0  0  0  0
 27  4  1  0  0  0  0
 27 25  1  0  0  0  0
 27 28  1  1  0  0  0
 29 28  1  0  0  0  0
 30 28  1  0  0  0  0
M  END
>  <CHROM.1>
-138.37013628,-178.92320055,56.64453850,56.78839283,71.25710332,17.42583725
26.36203886,12.99666313,2.02880884,0.45561526,1.46283497

>  <Name>
lig.pdb

>  <RI>
0

>  <Rbt.Current_Directory>
/home/itssahil/PROJECTS/Mol_Feturizer/New_Systems/rnas/6bfb

>  <Rbt.Executable>
rbdock ($Id: //depot/dev/client3/rdock/2013.1/src/exe/rbdock.cxx#4 $)

>  <Rbt.Library>
libRbt.so (2013.1, Build901 2013/11/27)

>  <Rbt.Parameter_File>
/export/apps/rDock/src/rDock_2013.1_src/data/scripts/dock_solv.prm

>  <Rbt.Receptor>
prm/blind_docking_40.prm

>  <SCORE>
6.77189

>  <SCORE.INTER>
-4.45796

>  <SCORE.INTER.CONST>
1

>  <SCORE.INTER.POLAR>
0

>  <SCORE.INTER.ROT>
3

>  <SCORE.INTER.SOLV>
20.8644

>  <SCORE.INTER.VDW>
-15.5268

>  <SCORE.INTER.norm>
-0.148599

>  <SCORE.INTRA>
-3.93287

>  <SCORE.INTRA.DIHEDRAL>
-7.27541

>  <SCORE.INTRA.DIHEDRAL.0>
9.41909

>  <SCORE.INTRA.POLAR>
0

>  <SCORE.INTRA.POLAR.0>
0

>  <SCORE.INTRA.REPUL>
0

>  <SCORE.INTRA.REPUL.0>
0

>  <SCORE.INTRA.SOLV>
-0.264032

>  <SCORE.INTRA.SOLV.lig_0>
-26.2491

>  <SCORE.INTRA.VDW>
-0.163152

>  <SCORE.INTRA.VDW.0>
2.57239

>  <SCORE.INTRA.norm>
-0.131096

>  <SCORE.RESTR>
15.1627

>  <SCORE.RESTR.CAVITY>
15.1627

>  <SCORE.RESTR.norm>
0.505424

>  <SCORE.SYSTEM>
0

>  <SCORE.SYSTEM.CONST>
0

>  <SCORE.SYSTEM.DIHEDRAL>
0

>  <SCORE.SYSTEM.SOLV>
0

>  <SCORE.SYSTEM.norm>
0

>  <SCORE.heavy>
30

>  <SCORE.norm>
0.22573

>  <RMSD>
19.973

$$$$
lig.pdb
 OpenBabel11021811523D
libRbt.so/2013.1/901 2013/11/27
 30 34  0  0  0  0  0  0  0  0999 V2000
   16.3294   26.1117   15.4581 N   0  0  0  0  0  0  0  0  0  0  0  0
   18.9571   27.0310   11.3645 N   0  0  0  0  0  0  0  0  0  0  0  0
   16.6915   27.3194   16.2064 C   0  0  0  0  0  0  0  0  0  0  0  0
   16.1977   26.9767   17.6039 C   0  0  2  0  0  0  0  0  0  0  0  0
   16.4751   26.0706   14.0074 C   0  0  0  0  0  0  0  0  0  0  0  0
   15.4934   25.5509   13.1390 C   0  0  0  0  0  0  0  0  0  0  0  0
   15.6392   25.4847   11.7758 C   0  0  0  0  0  0  0  0  0  0  0  0
   16.9907   25.8240    9.7040 C   0  0  0  0  0  0  0  0  0  0  0  0
   20.8738   28.2338   11.3170 C   0  0  0  0  0  0  0  0  0  0  0  0
   19.4941   28.0661   13.5056 C   0  0  0  0  0  0  0  0  0  0  0  0
   17.6624   26.5621   13.3951 C   0  0  0  0  0  0  0  0  0  0  0  0
   19.5645   25.5879    7.3117 O   0  0  0  0  0  0  0  0  0  0  0  0
   18.5588   26.1802    7.7088 C   0  0  0  0  0  0  0  0  0  0  0  0
   17.6831   26.7353    6.8799 O   0  0  0  0  0  0  0  0  0  0  0  0
   18.2828   26.3206    9.1634 C   0  0  1  0  0  0  0  0  0  0  0  0
   16.0955   25.3713    8.9824 O   0  0  0  0  0  0  0  0  0  0  0  0
   19.2309   26.9313   10.0024 C   0  0  0  0  0  0  0  0  0  0  0  0
   19.8796   27.7938   12.0943 C   0  0  0  0  0  0  0  0  0  0  0  0
   20.6964   27.7595    9.6784 S   0  0  0  0  0  0  0  0  0  0  0  0
   17.8041   26.5146   11.9896 C   0  0  0  0  0  0  0  0  0  0  0  0
   16.8093   25.9503   11.1764 C   0  0  0  0  0  0  0  0  0  0  0  0
   14.3292   25.1149   13.6605 F   0  0  0  0  0  0  0  0  0  0  0  0
   18.7270   27.0336   14.1790 N   0  0  0  0  0  0  0  0  0  0  0  0
   19.4978   25.9361   14.7230 C   0  0  0  0  0  0  0  0  0  0  0  0
   15.2868   25.3534   16.1401 C   0  0  0  0  0  0  0  0  0  0  0  0
   17.2511   27.0465   18.5658 O   0  0  0  0  0  0  0  0  0  0  0  0
   15.7685   25.5121   17.5724 C   0  0  2  0  0  0  0  0  0  0  0  0
   14.7637   25.3015   18.6319 N   0  0  0  0  0  0  0  0  0  0  0  0
   13.4371   25.8873   18.3664 C   0  0  0  0  0  0  0  0  0  0  0  0
   14.6787   23.9031   19.0803 C   0  0  0  0  0  0  0  0  0  0  0  0
  1  5  1  0  0  0  0
  2 17  1  0  0  0  0
  3  1  1  0  0  0  0
  4  3  1  0  0  0  0
  4 26  1  1  0  0  0
  5 11  2  0  0  0  0
  5  6  1  0  0  0  0
  6  7  2  0  0  0  0
  7 21  1  0  0  0  0
  8 15  1  0  0  0  0
  8 16  2  0  0  0  0
  9 19  1  0  0  0  0
 10 18  1  0  0  0  0
 11 20  1  0  0  0  0
 13 14  1  0  0  0  0
 13 12  2  0  0  0  0
 15 13  1  6  0  0  0
 17 19  2  0  0  0  0
 17 15  1  0  0  0  0
 18  2  1  0  0  0  0
 18  9  2  0  0  0  0
 20 21  2  0  0  0  0
 20  2  1  0  0  0  0
 21  8  1  0  0  0  0
 22  6  1  0  0  0  0
 23 11  1  0  0  0  0
 23 10  1  0  0  0  0
 24 23  1  0  0  0  0
 25  1  1  0  0  0  0
 27  4  1  0  0  0  0
 27 25  1  0  0  0  0
 27 28  1  1  0  0  0
 29 28  1  0  0  0  0
 30 28  1  0  0  0  0
M  END
>  <CHROM.1>
-135.20606122,0.61553420,-123.76432312,-68.19435438,72.49265954,17.39573274
26.34782634,13.01688932,2.00797189,0.46529806,1.47629571

>  <Name>
lig.pdb

>  <RI>
0

>  <Rbt.Current_Directory>
/home/itssahil/PROJECTS/Mol_Feturizer/New_Systems/rnas/6bfb

>  <Rbt.Executable>
rbdock ($Id: //depot/dev/client3/rdock/2013.1/src/exe/rbdock.cxx#4 $)

>  <Rbt.Library>
libRbt.so (2013.1, Build901 2013/11/27)

>  <Rbt.Parameter_File>
/export/apps/rDock/src/rDock_2013.1_src/data/scripts/dock_solv.prm

>  <Rbt.Receptor>
prm/blind_docking_40.prm

>  <SCORE>
3.75904

>  <SCORE.INTER>
-7.28132

>  <SCORE.INTER.CONST>
1

>  <SCORE.INTER.POLAR>
-0.719543

>  <SCORE.INTER.ROT>
3

>  <SCORE.INTER.SOLV>
21.4433

>  <SCORE.INTER.VDW>
-15.2035

>  <SCORE.INTER.norm>
-0.242711

>  <SCORE.INTRA>
-3.91426

>  <SCORE.INTRA.DIHEDRAL>
-6.94663

>  <SCORE.INTRA.DIHEDRAL.0>
9.41909

>  <SCORE.INTRA.POLAR>
0

>  <SCORE.INTRA.POLAR.0>
0

>  <SCORE.INTRA.REPUL>
0

>  <SCORE.INTRA.REPUL.0>
0

>  <SCORE.INTRA.SOLV>
-0.174428

>  <SCORE.INTRA.SOLV.lig_0>
-26.2491

>  <SCORE.INTRA.VDW>
-0.353728

>  <SCORE.INTRA.VDW.0>
2.57239

>  <SCORE.INTRA.norm>
-0.130475

>  <SCORE.RESTR>
14.9546

>  <SCORE.RESTR.CAVITY>
14.9546

>  <SCORE.RESTR.norm>
0.498488

>  <SCORE.SYSTEM>
0

>  <SCORE.SYSTEM.CONST>
0

>  <SCORE.SYSTEM.DIHEDRAL>
0

>  <SCORE.SYSTEM.SOLV>
0

>  <SCORE.SYSTEM.norm>
0

>  <SCORE.heavy>
30

>  <SCORE.norm>
0.125301

>  <RMSD>
19.975

$$$$
lig.pdb
 OpenBabel11021811523D
libRbt.so/2013.1/901 2013/11/27
 30 34  0  0  0  0  0  0  0  0999 V2000
   16.3524   26.1047   15.4411 N   0  0  0  0  0  0  0  0  0  0  0  0
   18.9346   27.0732   11.3299 N   0  0  0  0  0  0  0  0  0  0  0  0
   16.7368   27.3035   16.1924 C   0  0  0  0  0  0  0  0  0  0  0  0
   16.2470   26.9616   17.5916 C   0  0  2  0  0  0  0  0  0  0  0  0
   16.4881   26.0680   13.9893 C   0  0  0  0  0  0  0  0  0  0  0  0
   15.5089   25.5334   13.1272 C   0  0  0  0  0  0  0  0  0  0  0  0
   15.6458   25.4715   11.7629 C   0  0  0  0  0  0  0  0  0  0  0  0
   16.9763   25.8362    9.6819 C   0  0  0  0  0  0  0  0  0  0  0  0
   20.8306   28.3076   11.2704 C   0  0  0  0  0  0  0  0  0  0  0  0
   19.4699   28.1140   13.4686 C   0  0  0  0  0  0  0  0  0  0  0  0
   17.6626   26.5800   13.3691 C   0  0  0  0  0  0  0  0  0  0  0  0
   17.7436   26.6919    6.8453 O   0  0  0  0  0  0  0  0  0  0  0  0
   18.5237   26.2212    7.6759 C   0  0  0  0  0  0  0  0  0  0  0  0
   19.6229   25.5623    7.3300 O   0  0  0  0  0  0  0  0  0  0  0  0
   18.2561   26.3548    9.1326 C   0  0  1  0  0  0  0  0  0  0  0  0
   16.0836   25.3697    8.9661 O   0  0  0  0  0  0  0  0  0  0  0  0
   19.2001   26.9800    9.9658 C   0  0  0  0  0  0  0  0  0  0  0  0
   19.8496   27.8501   12.0542 C   0  0  0  0  0  0  0  0  0  0  0  0
   20.6492   27.8329    9.6324 S   0  0  0  0  0  0  0  0  0  0  0  0
   17.7949   26.5369   11.9626 C   0  0  0  0  0  0  0  0  0  0  0  0
   16.8037   25.9573   11.1557 C   0  0  0  0  0  0  0  0  0  0  0  0
   14.3559   25.0774   13.6566 F   0  0  0  0  0  0  0  0  0  0  0  0
   18.7249   27.0680   14.1460 N   0  0  0  0  0  0  0  0  0  0  0  0
   19.5178   25.9826   14.6828 C   0  0  0  0  0  0  0  0  0  0  0  0
   15.3031   25.3585   16.1264 C   0  0  0  0  0  0  0  0  0  0  0  0
   17.3075   27.0117   18.5469 O   0  0  0  0  0  0  0  0  0  0  0  0
   15.7963   25.5036   17.5562 C   0  0  2  0  0  0  0  0  0  0  0  0
   14.7953   25.3029   18.6213 N   0  0  0  0  0  0  0  0  0  0  0  0
   13.4746   25.9058   18.3652 C   0  0  0  0  0  0  0  0  0  0  0  0
   14.6957   23.9045   19.0668 C   0  0  0  0  0  0  0  0  0  0  0  0
  1  5  1  0  0  0  0
  2 17  1  0  0  0  0
  3  1  1  0  0  0  0
  4  3  1  0  0  0  0
  4 26  1  1  0  0  0
  5 11  2  0  0  0  0
  5  6  1  0  0  0  0
  6  7  2  0  0  0  0
  7 21  1  0  0  0  0
  8 15  1  0  0  0  0
  8 16  2  0  0  0  0
  9 19  1  0  0  0  0
 10 18  1  0  0  0  0
 11 20  1  0  0  0  0
 13 14  1  0  0  0  0
 13 12  2  0  0  0  0
 15 13  1  6  0  0  0
 17 19  2  0  0  0  0
 17 15  1  0  0  0  0
 18  2  1  0  0  0  0
 18  9  2  0  0  0  0
 20 21  2  0  0  0  0
 20  2  1  0  0  0  0
 21  8  1  0  0  0  0
 22  6  1  0  0  0  0
 23 11  1  0  0  0  0
 23 10  1  0  0  0  0
 24 23  1  0  0  0  0
 25  1  1  0  0  0  0
 27  4  1  0  0  0  0
 27 25  1  0  0  0  0
 27 28  1  1  0  0  0
 29 28  1  0  0  0  0
 30 28  1  0  0  0  0
M  END
>  <CHROM.1>
-136.99950900,-178.55896114,56.80421647,57.63557993,72.66462311,17.40659099
26.36139885,12.99969758,2.01114435,0.48378713,1.46870868

>  <Name>
lig.pdb

>  <RI>
0

>  <Rbt.Current_Directory>
/home/itssahil/PROJECTS/Mol_Feturizer/New_Systems/rnas/6bfb

>  <Rbt.Executable>
rbdock ($Id: //depot/dev/client3/rdock/2013.1/src/exe/rbdock.cxx#4 $)

>  <Rbt.Library>
libRbt.so (2013.1, Build901 2013/11/27)

>  <Rbt.Parameter_File>
/export/apps/rDock/src/rDock_2013.1_src/data/scripts/dock_solv.prm

>  <Rbt.Receptor>
prm/blind_docking_40.prm

>  <SCORE>
7.37712

>  <SCORE.INTER>
-3.52761

>  <SCORE.INTER.CONST>
1

>  <SCORE.INTER.POLAR>
0

>  <SCORE.INTER.ROT>
3

>  <SCORE.INTER.SOLV>
21.5094

>  <SCORE.INTER.VDW>
-15.1215

>  <SCORE.INTER.norm>
-0.117587

>  <SCORE.INTRA>
-4.04138

>  <SCORE.INTRA.DIHEDRAL>
-7.2288

>  <SCORE.INTRA.DIHEDRAL.0>
9.41909

>  <SCORE.INTRA.POLAR>
0

>  <SCORE.INTRA.POLAR.0>
0

>  <SCORE.INTRA.REPUL>
0

>  <SCORE.INTRA.REPUL.0>
0

>  <SCORE.INTRA.SOLV>
-0.272157

>  <SCORE.INTRA.SOLV.lig_0>
-26.2491

>  <SCORE.INTRA.VDW>
-0.290898

>  <SCORE.INTRA.VDW.0>
2.57239

>  <SCORE.INTRA.norm>
-0.134713

>  <SCORE.RESTR>
14.9461

>  <SCORE.RESTR.CAVITY>
14.9461

>  <SCORE.RESTR.norm>
0.498204

>  <SCORE.SYSTEM>
0

>  <SCORE.SYSTEM.CONST>
0

>  <SCORE.SYSTEM.DIHEDRAL>
0

>  <SCORE.SYSTEM.SOLV>
0

>  <SCORE.SYSTEM.norm>
0

>  <SCORE.heavy>
30

>  <SCORE.norm>
0.245904

>  <RMSD>
19.979

$$$$
lig.pdb
 OpenBabel11021811523D
libRbt.so/2013.1/901 2013/11/27
 30 34  0  0  0  0  0  0  0  0999 V2000
   16.3533   26.0977   15.4508 N   0  0  0  0  0  0  0  0  0  0  0  0
   18.9294   27.0717   11.3371 N   0  0  0  0  0  0  0  0  0  0  0  0
   16.7047   27.3087   16.1987 C   0  0  0  0  0  0  0  0  0  0  0  0
   16.2272   26.9563   17.5995 C   0  0  2  0  0  0  0  0  0  0  0  0
   16.4876   26.0616   13.9988 C   0  0  0  0  0  0  0  0  0  0  0  0
   15.5084   25.5254   13.1377 C   0  0  0  0  0  0  0  0  0  0  0  0
   15.6440   25.4640   11.7732 C   0  0  0  0  0  0  0  0  0  0  0  0
   16.9716   25.8315    9.6909 C   0  0  0  0  0  0  0  0  0  0  0  0
   20.8232   28.3096   11.2758 C   0  0  0  0  0  0  0  0  0  0  0  0
   19.4652   28.1131   13.4754 C   0  0  0  0  0  0  0  0  0  0  0  0
   17.6605   26.5758   13.3775 C   0  0  0  0  0  0  0  0  0  0  0  0
   17.7855   26.7685    6.8557 O   0  0  0  0  0  0  0  0  0  0  0  0
   18.5162   26.2197    7.6833 C   0  0  0  0  0  0  0  0  0  0  0  0
   19.5576   25.4747    7.3335 O   0  0  0  0  0  0  0  0  0  0  0  0
   18.2499   26.3526    9.1404 C   0  0  1  0  0  0  0  0  0  0  0  0
   16.0789   25.3635    8.9759 O   0  0  0  0  0  0  0  0  0  0  0  0
   19.1936   26.9793    9.9726 C   0  0  0  0  0  0  0  0  0  0  0  0
   19.8438   27.8501   12.0606 C   0  0  0  0  0  0  0  0  0  0  0  0
   20.6409   27.8348    9.6379 S   0  0  0  0  0  0  0  0  0  0  0  0
   17.7913   26.5332   11.9709 C   0  0  0  0  0  0  0  0  0  0  0  0
   16.8003   25.9520   11.1649 C   0  0  0  0  0  0  0  0  0  0  0  0
   14.3568   25.0672   13.6682 F   0  0  0  0  0  0  0  0  0  0  0  0
   18.7227   27.0656   14.1534 N   0  0  0  0  0  0  0  0  0  0  0  0
   19.5181   25.9815   14.6891 C   0  0  0  0  0  0  0  0  0  0  0  0
   15.3269   25.3235   16.1396 C   0  0  0  0  0  0  0  0  0  0  0  0
   17.2875   27.0388   18.5529 O   0  0  0  0  0  0  0  0  0  0  0  0
   15.8182   25.4859   17.5683 C   0  0  2  0  0  0  0  0  0  0  0  0
   14.8251   25.2593   18.6355 N   0  0  0  0  0  0  0  0  0  0  0  0
   13.5003   25.8617   18.4006 C   0  0  0  0  0  0  0  0  0  0  0  0
   14.7341   23.8516   19.0529 C   0  0  0  0  0  0  0  0  0  0  0  0
  1  5  1  0  0  0  0
  2 17  1  0  0  0  0
  3  1  1  0  0  0  0
  4  3  1  0  0  0  0
  4 26  1  1  0  0  0
  5 11  2  0  0  0  0
  5  6  1  0  0  0  0
  6  7  2  0  0  0  0
  7 21  1  0  0  0  0
  8 15  1  0  0  0  0
  8 16  2  0  0  0  0
  9 19  1  0  0  0  0
 10 18  1  0  0  0  0
 11 20  1  0  0  0  0
 13 14  1  0  0  0  0
 13 12  2  0  0  0  0
 15 13  1  6  0  0  0
 17 19  2  0  0  0  0
 17 15  1  0  0  0  0
 18  2  1  0  0  0  0
 18  9  2  0  0  0  0
 20 21  2  0  0  0  0
 20  2  1  0  0  0  0
 21  8  1  0  0  0  0
 22  6  1  0  0  0  0
 23 11  1  0  0  0  0
 23 10  1  0  0  0  0
 24 23  1  0  0  0  0
 25  1  1  0  0  0  0
 27  4  1  0  0  0  0
 27 25  1  0  0  0  0
 27 28  1  1  0  0  0
 29 28  1  0  0  0  0
 30 28  1  0  0  0  0
M  END
>  <CHROM.1>
-135.46355469,3.66823929,61.91833436,-68.05009671,70.73176308,17.40500613
26.35018236,13.00364829,2.00838059,0.48910301,1.47110679

>  <Name>
lig.pdb

>  <RI>
0

>  <Rbt.Current_Directory>
/home/itssahil/PROJECTS/Mol_Feturizer/New_Systems/rnas/6bfb

>  <Rbt.Executable>
rbdock ($Id: //depot/dev/client3/rdock/2013.1/src/exe/rbdock.cxx#4 $)

>  <Rbt.Library>
libRbt.so (2013.1, Build901 2013/11/27)

>  <Rbt.Parameter_File>
/export/apps/rDock/src/rDock_2013.1_src/data/scripts/dock_solv.prm

>  <Rbt.Receptor>
prm/blind_docking_40.prm

>  <SCORE>
4.32408

>  <SCORE.INTER>
-6.64485

>  <SCORE.INTER.CONST>
1

>  <SCORE.INTER.POLAR>
-0.687839

>  <SCORE.INTER.ROT>
3

>  <SCORE.INTER.SOLV>
21.7358

>  <SCORE.INTER.VDW>
-14.9824

>  <SCORE.INTER.norm>
-0.221495

>  <SCORE.INTRA>
-3.97354

>  <SCORE.INTRA.DIHEDRAL>
-6.9653

>  <SCORE.INTRA.DIHEDRAL.0>
9.41909

>  <SCORE.INTRA.POLAR>
0

>  <SCORE.INTRA.POLAR.0>
0

>  <SCORE.INTRA.REPUL>
0

>  <SCORE.INTRA.REPUL.0>
0

>  <SCORE.INTRA.SOLV>
-0.184494

>  <SCORE.INTRA.SOLV.lig_0>
-26.2491

>  <SCORE.INTRA.VDW>
-0.398644

>  <SCORE.INTRA.VDW.0>
2.57239

>  <SCORE.INTRA.norm>
-0.132451

>  <SCORE.RESTR>
14.9425

>  <SCORE.RESTR.CAVITY>
14.9425

>  <SCORE.RESTR.norm>
0.498082

>  <SCORE.SYSTEM>
0

>  <SCORE.SYSTEM.CONST>
0

>  <SCORE.SYSTEM.DIHEDRAL>
0

>  <SCORE.SYSTEM.SOLV>
0

>  <SCORE.SYSTEM.norm>
0

>  <SCORE.heavy>
30

>  <SCORE.norm>
0.144136

>  <RMSD>
19.980

$$$$
lig.pdb
 OpenBabel11021811523D
libRbt.so/2013.1/901 2013/11/27
 30 34  0  0  0  0  0  0  0  0999 V2000
   16.3230   26.1150   15.4534 N   0  0  0  0  0  0  0  0  0  0  0  0
   18.9495   27.0408   11.3605 N   0  0  0  0  0  0  0  0  0  0  0  0
   16.6854   27.3208   16.2045 C   0  0  0  0  0  0  0  0  0  0  0  0
   16.1927   26.9743   17.6015 C   0  0  2  0  0  0  0  0  0  0  0  0
   16.4675   26.0777   14.0024 C   0  0  0  0  0  0  0  0  0  0  0  0
   15.4842   25.5624   13.1333 C   0  0  0  0  0  0  0  0  0  0  0  0
   15.6289   25.4997   11.7698 C   0  0  0  0  0  0  0  0  0  0  0  0
   16.9795   25.8424    9.6980 C   0  0  0  0  0  0  0  0  0  0  0  0
   20.8684   28.2401   11.3150 C   0  0  0  0  0  0  0  0  0  0  0  0
   19.4900   28.0689   13.5041 C   0  0  0  0  0  0  0  0  0  0  0  0
   17.6553   26.5687   13.3906 C   0  0  0  0  0  0  0  0  0  0  0  0
   17.7782   26.6826    6.8675 O   0  0  0  0  0  0  0  0  0  0  0  0
   18.5469   26.2012    7.7027 C   0  0  0  0  0  0  0  0  0  0  0  0
   19.6392   25.5277    7.3632 O   0  0  0  0  0  0  0  0  0  0  0  0
   18.2722   26.3380    9.1578 C   0  0  1  0  0  0  0  0  0  0  0  0
   16.0830   25.3933    8.9758 O   0  0  0  0  0  0  0  0  0  0  0  0
   19.2221   26.9445    9.9979 C   0  0  0  0  0  0  0  0  0  0  0  0
   19.8740   27.7998   12.0918 C   0  0  0  0  0  0  0  0  0  0  0  0
   20.6890   27.7708    9.6752 S   0  0  0  0  0  0  0  0  0  0  0  0
   17.7960   26.5249   11.9850 C   0  0  0  0  0  0  0  0  0  0  0  0
   16.7995   25.9648   11.1708 C   0  0  0  0  0  0  0  0  0  0  0  0
   14.3196   25.1271   13.6544 F   0  0  0  0  0  0  0  0  0  0  0  0
   18.7214   27.0360   14.1751 N   0  0  0  0  0  0  0  0  0  0  0  0
   19.4905   25.9354   14.7155 C   0  0  0  0  0  0  0  0  0  0  0  0
   15.2810   25.3547   16.1342 C   0  0  0  0  0  0  0  0  0  0  0  0
   17.2469   27.0418   18.5628 O   0  0  0  0  0  0  0  0  0  0  0  0
   15.7638   25.5097   17.5665 C   0  0  2  0  0  0  0  0  0  0  0  0
   14.7598   25.2963   18.6262 N   0  0  0  0  0  0  0  0  0  0  0  0
   13.4383   25.8979   18.3715 C   0  0  0  0  0  0  0  0  0  0  0  0
   14.6625   23.8935   19.0581 C   0  0  0  0  0  0  0  0  0  0  0  0
  1  5  1  0  0  0  0
  2 17  1  0  0  0  0
  3  1  1  0  0  0  0
  4  3  1  0  0  0  0
  4 26  1  1  0  0  0
  5 11  2  0  0  0  0
  5  6  1  0  0  0  0
  6  7  2  0  0  0  0
  7 21  1  0  0  0  0
  8 15  1  0  0  0  0
  8 16  2  0  0  0  0
  9 19  1  0  0  0  0
 10 18  1  0  0  0  0
 11 20  1  0  0  0  0
 13 14  1  0  0  0  0
 13 12  2  0  0  0  0
 15 13  1  6  0  0  0
 17 19  2  0  0  0  0
 17 15  1  0  0  0  0
 18  2  1  0  0  0  0
 18  9  2  0  0  0  0
 20 21  2  0  0  0  0
 20  2  1  0  0  0  0
 21  8  1  0  0  0  0
 22  6  1  0  0  0  0
 23 11  1  0  0  0  0
 23 10  1  0  0  0  0
 24 23  1  0  0  0  0
 25  1  1  0  0  0  0
 27  4  1  0  0  0  0
 27 25  1  0  0  0  0
 27 28  1  1  0  0  0
 29 28  1  0  0  0  0
 30 28  1  0  0  0  0
M  END
>  <CHROM.1>
-135.08568859,-179.64578978,56.50898576,-68.65608726,71.70726707,17.40018413
26.34695706,13.01902150,2.01529399,0.46628565,1.47110792

>  <Name>
lig.pdb

>  <RI>
0

>  <Rbt.Current_Directory>
/home/itssahil/PROJECTS/Mol_Feturizer/New_Systems/rnas/6bfb

>  <Rbt.Executable>
rbdock ($Id: //depot/dev/client3/rdock/2013.1/src/exe/rbdock.cxx#4 $)

>  <Rbt.Library>
libRbt.so (2013.1, Build901 2013/11/27)

>  <Rbt.Parameter_File>
/export/apps/rDock/src/rDock_2013.1_src/data/scripts/dock_solv.prm

>  <Rbt.Receptor>
prm/blind_docking_40.prm

>  <SCORE>
4.26143

>  <SCORE.INTER>
-7.09308

>  <SCORE.INTER.CONST>
1

>  <SCORE.INTER.POLAR>
-0.72209

>  <SCORE.INTER.ROT>
3

>  <SCORE.INTER.SOLV>
21.4507

>  <SCORE.INTER.VDW>
-15.072

>  <SCORE.INTER.norm>
-0.236436

>  <SCORE.INTRA>
-3.64308

>  <SCORE.INTRA.DIHEDRAL>
-6.95158

>  <SCORE.INTRA.DIHEDRAL.0>
9.41909

>  <SCORE.INTRA.POLAR>
0

>  <SCORE.INTRA.POLAR.0>
0

>  <SCORE.INTRA.REPUL>
0

>  <SCORE.INTRA.REPUL.0>
0

>  <SCORE.INTRA.SOLV>
-0.245321

>  <SCORE.INTRA.SOLV.lig_0>
-26.2491

>  <SCORE.INTRA.VDW>
-0.044635

>  <SCORE.INTRA.VDW.0>
2.57239

>  <SCORE.INTRA.norm>
-0.121436

>  <SCORE.RESTR>
14.9976

>  <SCORE.RESTR.CAVITY>
14.9976

>  <SCORE.RESTR.norm>
0.49992

>  <SCORE.SYSTEM>
0

>  <SCORE.SYSTEM.CONST>
0

>  <SCORE.SYSTEM.DIHEDRAL>
0

>  <SCORE.SYSTEM.SOLV>
0

>  <SCORE.SYSTEM.norm>
0

>  <SCORE.heavy>
30

>  <SCORE.norm>
0.142048

>  <RMSD>
19.981

$$$$
lig.pdb
 OpenBabel11021811523D
libRbt.so/2013.1/901 2013/11/27
 30 34  0  0  0  0  0  0  0  0999 V2000
   16.3559   26.0779   15.4598 N   0  0  0  0  0  0  0  0  0  0  0  0
   18.9140   27.0658   11.3383 N   0  0  0  0  0  0  0  0  0  0  0  0
   16.7260   27.2831   16.2082 C   0  0  0  0  0  0  0  0  0  0  0  0
   16.2467   26.9359   17.6097 C   0  0  2  0  0  0  0  0  0  0  0  0
   16.4864   26.0415   14.0075 C   0  0  0  0  0  0  0  0  0  0  0  0
   15.5085   25.4979   13.1496 C   0  0  0  0  0  0  0  0  0  0  0  0
   15.6408   25.4363   11.7848 C   0  0  0  0  0  0  0  0  0  0  0  0
   16.9602   25.8110    9.6985 C   0  0  0  0  0  0  0  0  0  0  0  0
   20.7992   28.3164   11.2707 C   0  0  0  0  0  0  0  0  0  0  0  0
   19.4486   28.1126   13.4742 C   0  0  0  0  0  0  0  0  0  0  0  0
   17.6541   26.5631   13.3826 C   0  0  0  0  0  0  0  0  0  0  0  0
   19.4644   25.5636    7.2759 O   0  0  0  0  0  0  0  0  0  0  0  0
   18.4966   26.2079    7.6864 C   0  0  0  0  0  0  0  0  0  0  0  0
   17.6532   26.8275    6.8699 O   0  0  0  0  0  0  0  0  0  0  0  0
   18.2334   26.3402    9.1440 C   0  0  1  0  0  0  0  0  0  0  0  0
   16.0687   25.3364    8.9864 O   0  0  0  0  0  0  0  0  0  0  0  0
   19.1751   26.9740    9.9731 C   0  0  0  0  0  0  0  0  0  0  0  0
   19.8251   27.8510   12.0586 C   0  0  0  0  0  0  0  0  0  0  0  0
   20.6156   27.8390    9.6337 S   0  0  0  0  0  0  0  0  0  0  0  0
   17.7814   26.5202   11.9756 C   0  0  0  0  0  0  0  0  0  0  0  0
   16.7921   25.9316   11.1729 C   0  0  0  0  0  0  0  0  0  0  0  0
   14.3615   25.0325   13.6836 F   0  0  0  0  0  0  0  0  0  0  0  0
   18.7152   27.0607   14.1551 N   0  0  0  0  0  0  0  0  0  0  0  0
   19.5193   25.9824   14.6895 C   0  0  0  0  0  0  0  0  0  0  0  0
   15.3202   25.3175   16.1502 C   0  0  0  0  0  0  0  0  0  0  0  0
   17.3101   27.0025   18.5608 O   0  0  0  0  0  0  0  0  0  0  0  0
   15.8169   25.4715   17.5779 C   0  0  2  0  0  0  0  0  0  0  0  0
   14.8231   25.2577   18.6471 N   0  0  0  0  0  0  0  0  0  0  0  0
   13.4918   25.8382   18.3940 C   0  0  0  0  0  0  0  0  0  0  0  0
   14.7479   23.8593   19.0971 C   0  0  0  0  0  0  0  0  0  0  0  0
  1  5  1  0  0  0  0
  2 17  1  0  0  0  0
  3  1  1  0  0  0  0
  4  3  1  0  0  0  0
  4 26  1  1  0  0  0
  5 11  2  0  0  0  0
  5  6  1  0  0  0  0
  6  7  2  0  0  0  0
  7 21  1  0  0  0  0
  8 15  1  0  0  0  0
  8 16  2  0  0  0  0
  9 19  1  0  0  0  0
 10 18  1  0  0  0  0
 11 20  1  0  0  0  0
 13 14  1  0  0  0  0
 13 12  2  0  0  0  0
 15 13  1  6  0  0  0
 17 19  2  0  0  0  0
 17 15  1  0  0  0  0
 18  2  1  0  0  0  0
 18  9  2  0  0  0  0
 20 21  2  0  0  0  0
 20  2  1  0  0  0  0
 21  8  1  0  0  0  0
 22  6  1  0  0  0  0
 23 11  1  0  0  0  0
 23 10  1  0  0  0  0
 24 23  1  0  0  0  0
 25  1  1  0  0  0  0
 27  4  1  0  0  0  0
 27 25  1  0  0  0  0
 27 28  1  1  0  0  0
 29 28  1  0  0  0  0
 30 28  1  0  0  0  0
M  END
>  <CHROM.1>
-136.66364617,1.46444790,-118.82393156,56.22274040,72.81729148,17.38681018
26.35042546,13.00736037,1.99963351,0.49211415,1.47776086

>  <Name>
lig.pdb

>  <RI>
0

>  <Rbt.Current_Directory>
/home/itssahil/PROJECTS/Mol_Feturizer/New_Systems/rnas/6bfb

>  <Rbt.Executable>
rbdock ($Id: //depot/dev/client3/rdock/2013.1/src/exe/rbdock.cxx#4 $)

>  <Rbt.Library>
libRbt.so (2013.1, Build901 2013/11/27)

>  <Rbt.Parameter_File>
/export/apps/rDock/src/rDock_2013.1_src/data/scripts/dock_solv.prm

>  <Rbt.Receptor>
prm/blind_docking_40.prm

>  <SCORE>
7.10453

>  <SCORE.INTER>
-3.42723

>  <SCORE.INTER.CONST>
1

>  <SCORE.INTER.POLAR>
0

>  <SCORE.INTER.ROT>
3

>  <SCORE.INTER.SOLV>
21.6455

>  <SCORE.INTER.VDW>
-15.1

>  <SCORE.INTER.norm>
-0.114241

>  <SCORE.INTRA>
-4.31539

>  <SCORE.INTRA.DIHEDRAL>
-7.17808

>  <SCORE.INTRA.DIHEDRAL.0>
9.41909

>  <SCORE.INTRA.POLAR>
0

>  <SCORE.INTRA.POLAR.0>
0

>  <SCORE.INTRA.REPUL>
0

>  <SCORE.INTRA.REPUL.0>
0

>  <SCORE.INTRA.SOLV>
-0.209384

>  <SCORE.INTRA.SOLV.lig_0>
-26.2491

>  <SCORE.INTRA.VDW>
-0.621654

>  <SCORE.INTRA.VDW.0>
2.57239

>  <SCORE.INTRA.norm>
-0.143846

>  <SCORE.RESTR>
14.8471

>  <SCORE.RESTR.CAVITY>
14.8471

>  <SCORE.RESTR.norm>
0.494905

>  <SCORE.SYSTEM>
0

>  <SCORE.SYSTEM.CONST>
0

>  <SCORE.SYSTEM.DIHEDRAL>
0

>  <SCORE.SYSTEM.SOLV>
0

>  <SCORE.SYSTEM.norm>
0

>  <SCORE.heavy>
30

>  <SCORE.norm>
0.236818

>  <RMSD>
19.982

$$$$
lig.pdb
 OpenBabel11021811523D
libRbt.so/2013.1/901 2013/11/27
 30 34  0  0  0  0  0  0  0  0999 V2000
   16.2902   26.1228   15.2776 N   0  0  0  0  0  0  0  0  0  0  0  0
   19.0531   27.1045   11.2889 N   0  0  0  0  0  0  0  0  0  0  0  0
   16.7750   27.2536   16.0751 C   0  0  0  0  0  0  0  0  0  0  0  0
   16.1871   26.9415   17.4430 C   0  0  2  0  0  0  0  0  0  0  0  0
   16.4858   26.1008   13.8324 C   0  0  0  0  0  0  0  0  0  0  0  0
   15.5368   25.5887   12.9241 C   0  0  0  0  0  0  0  0  0  0  0  0
   15.7296   25.5404   11.5661 C   0  0  0  0  0  0  0  0  0  0  0  0
   17.1501   25.9115    9.5465 C   0  0  0  0  0  0  0  0  0  0  0  0
   20.9651   28.3151   11.3227 C   0  0  0  0  0  0  0  0  0  0  0  0
   19.5118   28.1142   13.4601 C   0  0  0  0  0  0  0  0  0  0  0  0
   17.6913   26.6047   13.2675 C   0  0  0  0  0  0  0  0  0  0  0  0
   19.1213   27.2876    6.9558 O   0  0  0  0  0  0  0  0  0  0  0  0
   18.7843   26.2992    7.6111 C   0  0  0  0  0  0  0  0  0  0  0  0
   18.6763   25.0898    7.0747 O   0  0  0  0  0  0  0  0  0  0  0  0
   18.4579   26.4198    9.0570 C   0  0  1  0  0  0  0  0  0  0  0  0
   16.2822   25.4646    8.7888 O   0  0  0  0  0  0  0  0  0  0  0  0
   19.3740   27.0234    9.9359 C   0  0  0  0  0  0  0  0  0  0  0  0
   19.9467   27.8614   12.0597 C   0  0  0  0  0  0  0  0  0  0  0  0
   20.8462   27.8613    9.6731 S   0  0  0  0  0  0  0  0  0  0  0  0
   17.8815   26.5758   11.8673 C   0  0  0  0  0  0  0  0  0  0  0  0
   16.9177   26.0181   11.0132 C   0  0  0  0  0  0  0  0  0  0  0  0
   14.3572   25.1416   13.3998 F   0  0  0  0  0  0  0  0  0  0  0  0
   18.7264   27.0702   14.0936 N   0  0  0  0  0  0  0  0  0  0  0  0
   19.4827   25.9687   14.6499 C   0  0  0  0  0  0  0  0  0  0  0  0
   15.1330   25.4885   15.8987 C   0  0  0  0  0  0  0  0  0  0  0  0
   17.2025   26.8493   18.4433 O   0  0  0  0  0  0  0  0  0  0  0  0
   15.5749   25.5462   17.3513 C   0  0  2  0  0  0  0  0  0  0  0  0
   14.5108   25.4402   18.3677 N   0  0  0  0  0  0  0  0  0  0  0  0
   13.3209   26.2753   18.1225 C   0  0  0  0  0  0  0  0  0  0  0  0
   14.1609   24.0499   18.6974 C   0  0  0  0  0  0  0  0  0  0  0  0
  1  5  1  0  0  0  0
  2 17  1  0  0  0  0
  3  1  1  0  0  0  0
  4  3  1  0  0  0  0
  4 26  1  1  0  0  0
  5 11  2  0  0  0  0
  5  6  1  0  0  0  0
  6  7  2  0  0  0  0
  7 21  1  0  0  0  0
  8 15  1  0  0  0  0
  8 16  2  0  0  0  0
  9 19  1  0  0  0  0
 10 18  1  0  0  0  0
 11 20  1  0  0  0  0
 13 14  1  0  0  0  0
 13 12  2  0  0  0  0
 15 13  1  6  0  0  0
 17 19  2  0  0  0  0
 17 15  1  0  0  0  0
 18  2  1  0  0  0  0
 18  9  2  0  0  0  0
 20 21  2  0  0  0  0
 20  2  1  0  0  0  0
 21  8  1  0  0  0  0
 22  6  1  0  0  0  0
 23 11  1  0  0  0  0
 23 10  1  0  0  0  0
 24 23  1  0  0  0  0
 25  1  1  0  0  0  0
 27  4  1  0  0  0  0
 27 25  1  0  0  0  0
 27 28  1  1  0  0  0
 29 28  1  0  0  0  0
 30 28  1  0  0  0  0
M  END
>  <CHROM.1>
-142.90535856,0.27616182,125.99489046,-173.57390547,68.27161892,17.43102520
26.40746548,12.87970265,2.05986850,0.48165401,1.44270147

>  <Name>
lig.pdb

>  <RI>
0

>  <Rbt.Current_Directory>
/home/itssahil/PROJECTS/Mol_Feturizer/New_Systems/rnas/6bfb

>  <Rbt.Executable>
rbdock ($Id: //depot/dev/client3/rdock/2013.1/src/exe/rbdock.cxx#4 $)

>  <Rbt.Library>
libRbt.so (2013.1, Build901 2013/11/27)

>  <Rbt.Parameter_File>
/export/apps/rDock/src/rDock_2013.1_src/data/scripts/dock_solv.prm

>  <Rbt.Receptor>
prm/blind_docking_40.prm

>  <SCORE>
4.43543

>  <SCORE.INTER>
-7.56023

>  <SCORE.INTER.CONST>
1

>  <SCORE.INTER.POLAR>
-0.511272

>  <SCORE.INTER.ROT>
3

>  <SCORE.INTER.SOLV>
20.0659

>  <SCORE.INTER.VDW>
-15.6246

>  <SCORE.INTER.norm>
-0.252008

>  <SCORE.INTRA>
-3.71046

>  <SCORE.INTRA.DIHEDRAL>
-7.25592

>  <SCORE.INTRA.DIHEDRAL.0>
9.41909

>  <SCORE.INTRA.POLAR>
0

>  <SCORE.INTRA.POLAR.0>
0

>  <SCORE.INTRA.REPUL>
0

>  <SCORE.INTRA.REPUL.0>
0

>  <SCORE.INTRA.SOLV>
-0.100572

>  <SCORE.INTRA.SOLV.lig_0>
-26.2491

>  <SCORE.INTRA.VDW>
-0.0322178

>  <SCORE.INTRA.VDW.0>
2.57239

>  <SCORE.INTRA.norm>
-0.123682

>  <SCORE.RESTR>
15.7061

>  <SCORE.RESTR.CAVITY>
15.7061

>  <SCORE.RESTR.norm>
0.523537

>  <SCORE.SYSTEM>
0

>  <SCORE.SYSTEM.CONST>
0

>  <SCORE.SYSTEM.DIHEDRAL>
0

>  <SCORE.SYSTEM.SOLV>
0

>  <SCORE.SYSTEM.norm>
0

>  <SCORE.heavy>
30

>  <SCORE.norm>
0.147848

>  <RMSD>
19.982

$$$$
lig.pdb
 OpenBabel11021811523D
libRbt.so/2013.1/901 2013/11/27
 30 34  0  0  0  0  0  0  0  0999 V2000
   16.3455   26.1216   15.4409 N   0  0  0  0  0  0  0  0  0  0  0  0
   18.9321   27.0594   11.3254 N   0  0  0  0  0  0  0  0  0  0  0  0
   16.7069   27.3318   16.1853 C   0  0  0  0  0  0  0  0  0  0  0  0
   16.2259   26.9877   17.5870 C   0  0  2  0  0  0  0  0  0  0  0  0
   16.4800   26.0799   13.9891 C   0  0  0  0  0  0  0  0  0  0  0  0
   15.4962   25.5503   13.1292 C   0  0  0  0  0  0  0  0  0  0  0  0
   15.6317   25.4836   11.7650 C   0  0  0  0  0  0  0  0  0  0  0  0
   16.9635   25.8326    9.6821 C   0  0  0  0  0  0  0  0  0  0  0  0
   20.8373   28.2795   11.2612 C   0  0  0  0  0  0  0  0  0  0  0  0
   19.4767   28.1021   13.4609 C   0  0  0  0  0  0  0  0  0  0  0  0
   17.6578   26.5814   13.3668 C   0  0  0  0  0  0  0  0  0  0  0  0
   17.7321   26.6694    6.8425 O   0  0  0  0  0  0  0  0  0  0  0  0
   18.5124   26.2005    7.6740 C   0  0  0  0  0  0  0  0  0  0  0  0
   19.6100   25.5384    7.3293 O   0  0  0  0  0  0  0  0  0  0  0  0
   18.2467   26.3402    9.1305 C   0  0  1  0  0  0  0  0  0  0  0  0
   16.0668   25.3708    8.9682 O   0  0  0  0  0  0  0  0  0  0  0  0
   19.1959   26.9606    9.9613 C   0  0  0  0  0  0  0  0  0  0  0  0
   19.8534   27.8315   12.0469 C   0  0  0  0  0  0  0  0  0  0  0  0
   20.6512   27.8016    9.6246 S   0  0  0  0  0  0  0  0  0  0  0  0
   17.7888   26.5334   11.9603 C   0  0  0  0  0  0  0  0  0  0  0  0
   16.7928   25.9591   11.1557 C   0  0  0  0  0  0  0  0  0  0  0  0
   14.3402   25.1044   13.6605 F   0  0  0  0  0  0  0  0  0  0  0  0
   18.7243   27.0636   14.1416 N   0  0  0  0  0  0  0  0  0  0  0  0
   19.5094   25.9737   14.6808 C   0  0  0  0  0  0  0  0  0  0  0  0
   15.3124   25.3582   16.1317 C   0  0  0  0  0  0  0  0  0  0  0  0
   17.2865   27.0641   18.5405 O   0  0  0  0  0  0  0  0  0  0  0  0
   15.8045   25.5208   17.5600 C   0  0  2  0  0  0  0  0  0  0  0  0
   14.8092   25.3057   18.6276 N   0  0  0  0  0  0  0  0  0  0  0  0
   13.4828   25.8999   18.3803 C   0  0  0  0  0  0  0  0  0  0  0  0
   14.7221   23.9039   19.0648 C   0  0  0  0  0  0  0  0  0  0  0  0
  1  5  1  0  0  0  0
  2 17  1  0  0  0  0
  3  1  1  0  0  0  0
  4  3  1  0  0  0  0
  4 26  1  1  0  0  0
  5 11  2  0  0  0  0
  5  6  1  0  0  0  0
  6  7  2  0  0  0  0
  7 21  1  0  0  0  0
  8 15  1  0  0  0  0
  8 16  2  0  0  0  0
  9 19  1  0  0  0  0
 10 18  1  0  0  0  0
 11 20  1  0  0  0  0
 13 14  1  0  0  0  0
 13 12  2  0  0  0  0
 15 13  1  6  0  0  0
 17 19  2  0  0  0  0
 17 15  1  0  0  0  0
 18  2  1  0  0  0  0
 18  9  2  0  0  0  0
 20 21  2  0  0  0  0
 20  2  1  0  0  0  0
 21  8  1  0  0  0  0
 22  6  1  0  0  0  0
 23 11  1  0  0  0  0
 23 10  1  0  0  0  0
 24 23  1  0  0  0  0
 25  1  1  0  0  0  0
 27  4  1  0  0  0  0
 27 25  1  0  0  0  0
 27 28  1  1  0  0  0
 29 28  1  0  0  0  0
 30 28  1  0  0  0  0
M  END
>  <CHROM.1>
-135.41605902,-0.58335138,56.46878582,-68.13913804,71.69143450,17.40115216
26.35680187,12.99369290,2.00742222,0.47809254,1.46977471

>  <Name>
lig.pdb

>  <RI>
0

>  <Rbt.Current_Directory>
/home/itssahil/PROJECTS/Mol_Feturizer/New_Systems/rnas/6bfb

>  <Rbt.Executable>
rbdock ($Id: //depot/dev/client3/rdock/2013.1/src/exe/rbdock.cxx#4 $)

>  <Rbt.Library>
libRbt.so (2013.1, Build901 2013/11/27)

>  <Rbt.Parameter_File>
/export/apps/rDock/src/rDock_2013.1_src/data/scripts/dock_solv.prm

>  <Rbt.Receptor>
prm/blind_docking_40.prm

>  <SCORE>
4.10235

>  <SCORE.INTER>
-6.88085

>  <SCORE.INTER.CONST>
1

>  <SCORE.INTER.POLAR>
-0.693522

>  <SCORE.INTER.ROT>
3

>  <SCORE.INTER.SOLV>
21.6655

>  <SCORE.INTER.VDW>
-15.0973

>  <SCORE.INTER.norm>
-0.229362

>  <SCORE.INTRA>
-3.96797

>  <SCORE.INTRA.DIHEDRAL>
-6.98587

>  <SCORE.INTRA.DIHEDRAL.0>
9.41909

>  <SCORE.INTRA.POLAR>
0

>  <SCORE.INTRA.POLAR.0>
0

>  <SCORE.INTRA.REPUL>
0

>  <SCORE.INTRA.REPUL.0>
0

>  <SCORE.INTRA.SOLV>
-0.179581

>  <SCORE.INTRA.SOLV.lig_0>
-26.2491

>  <SCORE.INTRA.VDW>
-0.38524

>  <SCORE.INTRA.VDW.0>
2.57239

>  <SCORE.INTRA.norm>
-0.132266

>  <SCORE.RESTR>
14.9512

>  <SCORE.RESTR.CAVITY>
14.9512

>  <SCORE.RESTR.norm>
0.498372

>  <SCORE.SYSTEM>
0

>  <SCORE.SYSTEM.CONST>
0

>  <SCORE.SYSTEM.DIHEDRAL>
0

>  <SCORE.SYSTEM.SOLV>
0

>  <SCORE.SYSTEM.norm>
0

>  <SCORE.heavy>
30

>  <SCORE.norm>
0.136745

>  <RMSD>
19.984

$$$$
lig.pdb
 OpenBabel11021811523D
libRbt.so/2013.1/901 2013/11/27
 30 34  0  0  0  0  0  0  0  0999 V2000
   16.3478   26.1173   15.4277 N   0  0  0  0  0  0  0  0  0  0  0  0
   18.9352   27.0589   11.3135 N   0  0  0  0  0  0  0  0  0  0  0  0
   16.7446   27.3135   16.1769 C   0  0  0  0  0  0  0  0  0  0  0  0
   16.2520   26.9788   17.5768 C   0  0  2  0  0  0  0  0  0  0  0  0
   16.4826   26.0769   13.9759 C   0  0  0  0  0  0  0  0  0  0  0  0
   15.4990   25.5481   13.1153 C   0  0  0  0  0  0  0  0  0  0  0  0
   15.6348   25.4826   11.7510 C   0  0  0  0  0  0  0  0  0  0  0  0
   16.9670   25.8334    9.6687 C   0  0  0  0  0  0  0  0  0  0  0  0
   20.8403   28.2791   11.2507 C   0  0  0  0  0  0  0  0  0  0  0  0
   19.4793   28.0997   13.4500 C   0  0  0  0  0  0  0  0  0  0  0  0
   17.6605   26.5790   13.3542 C   0  0  0  0  0  0  0  0  0  0  0  0
   17.7524   26.6995    6.8305 O   0  0  0  0  0  0  0  0  0  0  0  0
   18.5162   26.2031    7.6613 C   0  0  0  0  0  0  0  0  0  0  0  0
   19.5952   25.5115    7.3156 O   0  0  0  0  0  0  0  0  0  0  0  0
   18.2503   26.3415    9.1179 C   0  0  1  0  0  0  0  0  0  0  0  0
   16.0704   25.3722    8.9542 O   0  0  0  0  0  0  0  0  0  0  0  0
   19.1993   26.9612    9.9493 C   0  0  0  0  0  0  0  0  0  0  0  0
   19.8563   27.8303   12.0359 C   0  0  0  0  0  0  0  0  0  0  0  0
   20.6546   27.8026    9.6137 S   0  0  0  0  0  0  0  0  0  0  0  0
   17.7918   26.5323   11.9477 C   0  0  0  0  0  0  0  0  0  0  0  0
   16.7959   25.9586   11.1424 C   0  0  0  0  0  0  0  0  0  0  0  0
   14.3429   25.1017   13.6460 F   0  0  0  0  0  0  0  0  0  0  0  0
   18.7269   27.0605   14.1297 N   0  0  0  0  0  0  0  0  0  0  0  0
   19.5119   25.9702   14.6681 C   0  0  0  0  0  0  0  0  0  0  0  0
   15.2914   25.3828   16.1146 C   0  0  0  0  0  0  0  0  0  0  0  0
   17.3133   27.0199   18.5316 O   0  0  0  0  0  0  0  0  0  0  0  0
   15.7866   25.5254   17.5440 C   0  0  2  0  0  0  0  0  0  0  0  0
   14.7841   25.3365   18.6098 N   0  0  0  0  0  0  0  0  0  0  0  0
   13.4724   25.9602   18.3575 C   0  0  0  0  0  0  0  0  0  0  0  0
   14.6638   23.9383   19.0509 C   0  0  0  0  0  0  0  0  0  0  0  0
  1  5  1  0  0  0  0
  2 17  1  0  0  0  0
  3  1  1  0  0  0  0
  4  3  1  0  0  0  0
  4 26  1  1  0  0  0
  5 11  2  0  0  0  0
  5  6  1  0  0  0  0
  6  7  2  0  0  0  0
  7 21  1  0  0  0  0
  8 15  1  0  0  0  0
  8 16  2  0  0  0  0
  9 19  1  0  0  0  0
 10 18  1  0  0  0  0
 11 20  1  0  0  0  0
 13 14  1  0  0  0  0
 13 12  2  0  0  0  0
 15 13  1  6  0  0  0
 17 19  2  0  0  0  0
 17 15  1  0  0  0  0
 18  2  1  0  0  0  0
 18  9  2  0  0  0  0
 20 21  2  0  0  0  0
 20  2  1  0  0  0  0
 21  8  1  0  0  0  0
 22  6  1  0  0  0  0
 23 11  1  0  0  0  0
 23 10  1  0  0  0  0
 24 23  1  0  0  0  0
 25  1  1  0  0  0  0
 27  4  1  0  0  0  0
 27 25  1  0  0  0  0
 27 28  1  1  0  0  0
 29 28  1  0  0  0  0
 30 28  1  0  0  0  0
M  END
>  <CHROM.1>
-137.14845896,-179.05334832,58.16888805,57.35962832,72.25119360,17.40233326
26.36209430,12.98516589,2.00989973,0.47655387,1.46698882

>  <Name>
lig.pdb

>  <RI>
0

>  <Rbt.Current_Directory>
/home/itssahil/PROJECTS/Mol_Feturizer/New_Systems/rnas/6bfb

>  <Rbt.Executable>
rbdock ($Id: //depot/dev/client3/rdock/2013.1/src/exe/rbdock.cxx#4 $)

>  <Rbt.Library>
libRbt.so (2013.1, Build901 2013/11/27)

>  <Rbt.Parameter_File>
/export/apps/rDock/src/rDock_2013.1_src/data/scripts/dock_solv.prm

>  <Rbt.Receptor>
prm/blind_docking_40.prm

>  <SCORE>
7.2215

>  <SCORE.INTER>
-3.71356

>  <SCORE.INTER.CONST>
1

>  <SCORE.INTER.POLAR>
0

>  <SCORE.INTER.ROT>
3

>  <SCORE.INTER.SOLV>
21.4263

>  <SCORE.INTER.VDW>
-15.2178

>  <SCORE.INTER.norm>
-0.123785

>  <SCORE.INTRA>
-4.04691

>  <SCORE.INTRA.DIHEDRAL>
-7.24621

>  <SCORE.INTRA.DIHEDRAL.0>
9.41909

>  <SCORE.INTRA.POLAR>
0

>  <SCORE.INTRA.POLAR.0>
0

>  <SCORE.INTRA.REPUL>
0

>  <SCORE.INTRA.REPUL.0>
0

>  <SCORE.INTRA.SOLV>
-0.271929

>  <SCORE.INTRA.SOLV.lig_0>
-26.2491

>  <SCORE.INTRA.VDW>
-0.287845

>  <SCORE.INTRA.VDW.0>
2.57239

>  <SCORE.INTRA.norm>
-0.134897

>  <SCORE.RESTR>
14.982

>  <SCORE.RESTR.CAVITY>
14.982

>  <SCORE.RESTR.norm>
0.499399

>  <SCORE.SYSTEM>
0

>  <SCORE.SYSTEM.CONST>
0

>  <SCORE.SYSTEM.DIHEDRAL>
0

>  <SCORE.SYSTEM.SOLV>
0

>  <SCORE.SYSTEM.norm>
0

>  <SCORE.heavy>
30

>  <SCORE.norm>
0.240717

>  <RMSD>
19.989

$$$$
lig.pdb
 OpenBabel11021811523D
libRbt.so/2013.1/901 2013/11/27
 30 34  0  0  0  0  0  0  0  0999 V2000
   16.3049   26.1248   15.2535 N   0  0  0  0  0  0  0  0  0  0  0  0
   19.0546   27.1020   11.2546 N   0  0  0  0  0  0  0  0  0  0  0  0
   16.7953   27.2574   16.0450 C   0  0  0  0  0  0  0  0  0  0  0  0
   16.2079   26.9542   17.4151 C   0  0  2  0  0  0  0  0  0  0  0  0
   16.4986   26.0952   13.8081 C   0  0  0  0  0  0  0  0  0  0  0  0
   15.5522   25.5701   12.9046 C   0  0  0  0  0  0  0  0  0  0  0  0
   15.7434   25.5147   11.5465 C   0  0  0  0  0  0  0  0  0  0  0  0
   17.1581   25.8837    9.5226 C   0  0  0  0  0  0  0  0  0  0  0  0
   20.9575   28.3272   11.2779 C   0  0  0  0  0  0  0  0  0  0  0  0
   19.5088   28.1288   13.4187 C   0  0  0  0  0  0  0  0  0  0  0  0
   17.6995   26.6045   13.2384 C   0  0  0  0  0  0  0  0  0  0  0  0
   19.6036   25.4353    7.1907 O   0  0  0  0  0  0  0  0  0  0  0  0
   18.7866   26.2715    7.5824 C   0  0  0  0  0  0  0  0  0  0  0  0
   18.1693   27.1077    6.7568 O   0  0  0  0  0  0  0  0  0  0  0  0
   18.4614   26.3988    9.0279 C   0  0  1  0  0  0  0  0  0  0  0  0
   16.2926   25.4255    8.7690 O   0  0  0  0  0  0  0  0  0  0  0  0
   19.3742   27.0148    9.9016 C   0  0  0  0  0  0  0  0  0  0  0  0
   19.9436   27.8705   12.0192 C   0  0  0  0  0  0  0  0  0  0  0  0
   20.8397   27.8620    9.6314 S   0  0  0  0  0  0  0  0  0  0  0  0
   17.8879   26.5682   11.8381 C   0  0  0  0  0  0  0  0  0  0  0  0
   16.9271   25.9979   10.9889 C   0  0  0  0  0  0  0  0  0  0  0  0
   14.3767   25.1172   13.3847 F   0  0  0  0  0  0  0  0  0  0  0  0
   18.7322   27.0830   14.0599 N   0  0  0  0  0  0  0  0  0  0  0  0
   19.4976   25.9907   14.6220 C   0  0  0  0  0  0  0  0  0  0  0  0
   15.1459   25.4982   15.8790 C   0  0  0  0  0  0  0  0  0  0  0  0
   17.2241   26.8626   18.4145 O   0  0  0  0  0  0  0  0  0  0  0  0
   15.5898   25.5610   17.3308 C   0  0  2  0  0  0  0  0  0  0  0  0
   14.5266   25.4641   18.3490 N   0  0  0  0  0  0  0  0  0  0  0  0
   13.3653   26.3459   18.1319 C   0  0  0  0  0  0  0  0  0  0  0  0
   14.1302   24.0784   18.6429 C   0  0  0  0  0  0  0  0  0  0  0  0
  1  5  1  0  0  0  0
  2 17  1  0  0  0  0
  3  1  1  0  0  0  0
  4  3  1  0  0  0  0
  4 26  1  1  0  0  0
  5 11  2  0  0  0  0
  5  6  1  0  0  0  0
  6  7  2  0  0  0  0
  7 21  1  0  0  0  0
  8 15  1  0  0  0  0
  8 16  2  0  0  0  0
  9 19  1  0  0  0  0
 10 18  1  0  0  0  0
 11 20  1  0  0  0  0
 13 14  1  0  0  0  0
 13 12  2  0  0  0  0
 15 13  1  6  0  0  0
 17 19  2  0  0  0  0
 17 15  1  0  0  0  0
 18  2  1  0  0  0  0
 18  9  2  0  0  0  0
 20 21  2  0  0  0  0
 20  2  1  0  0  0  0
 21  8  1  0  0  0  0
 22  6  1  0  0  0  0
 23 11  1  0  0  0  0
 23 10  1  0  0  0  0
 24 23  1  0  0  0  0
 25  1  1  0  0  0  0
 27  4  1  0  0  0  0
 27 25  1  0  0  0  0
 27 28  1  1  0  0  0
 29 28  1  0  0  0  0
 30 28  1  0  0  0  0
M  END
>  <CHROM.1>
-143.57706978,-179.77002053,-105.70240694,-174.94490326,65.75182930,17.43476357
26.42089300,12.85333976,2.05135221,0.46134229,1.45673181

>  <Name>
lig.pdb

>  <RI>
0

>  <Rbt.Current_Directory>
/home/itssahil/PROJECTS/Mol_Feturizer/New_Systems/rnas/6bfb

>  <Rbt.Executable>
rbdock ($Id: //depot/dev/client3/rdock/2013.1/src/exe/rbdock.cxx#4 $)

>  <Rbt.Library>
libRbt.so (2013.1, Build901 2013/11/27)

>  <Rbt.Parameter_File>
/export/apps/rDock/src/rDock_2013.1_src/data/scripts/dock_solv.prm

>  <Rbt.Receptor>
prm/blind_docking_40.prm

>  <SCORE>
4.25106

>  <SCORE.INTER>
-7.97075

>  <SCORE.INTER.CONST>
1

>  <SCORE.INTER.POLAR>
-0.539408

>  <SCORE.INTER.ROT>
3

>  <SCORE.INTER.SOLV>
19.9635

>  <SCORE.INTER.VDW>
-15.7703

>  <SCORE.INTER.norm>
-0.265692

>  <SCORE.INTRA>
-3.43697

>  <SCORE.INTRA.DIHEDRAL>
-7.4256

>  <SCORE.INTRA.DIHEDRAL.0>
9.41909

>  <SCORE.INTRA.POLAR>
0

>  <SCORE.INTRA.POLAR.0>
0

>  <SCORE.INTRA.REPUL>
0

>  <SCORE.INTRA.REPUL.0>
0

>  <SCORE.INTRA.SOLV>
-0.140315

>  <SCORE.INTRA.SOLV.lig_0>
-26.2491

>  <SCORE.INTRA.VDW>
0.345992

>  <SCORE.INTRA.VDW.0>
2.57239

>  <SCORE.INTRA.norm>
-0.114566

>  <SCORE.RESTR>
15.6588

>  <SCORE.RESTR.CAVITY>
15.6588

>  <SCORE.RESTR.norm>
0.521959

>  <SCORE.SYSTEM>
0

>  <SCORE.SYSTEM.CONST>
0

>  <SCORE.SYSTEM.DIHEDRAL>
0

>  <SCORE.SYSTEM.SOLV>
0

>  <SCORE.SYSTEM.norm>
0

>  <SCORE.heavy>
30

>  <SCORE.norm>
0.141702

>  <RMSD>
19.989

$$$$
lig.pdb
 OpenBabel11021811523D
libRbt.so/2013.1/901 2013/11/27
 30 34  0  0  0  0  0  0  0  0999 V2000
   16.2991   26.1224   15.2598 N   0  0  0  0  0  0  0  0  0  0  0  0
   19.0615   27.0981   11.2692 N   0  0  0  0  0  0  0  0  0  0  0  0
   16.7726   27.2601   16.0540 C   0  0  0  0  0  0  0  0  0  0  0  0
   16.1884   26.9459   17.4230 C   0  0  2  0  0  0  0  0  0  0  0  0
   16.4945   26.0984   13.8145 C   0  0  0  0  0  0  0  0  0  0  0  0
   15.5452   25.5852   12.9072 C   0  0  0  0  0  0  0  0  0  0  0  0
   15.7377   25.5351   11.5491 C   0  0  0  0  0  0  0  0  0  0  0  0
   17.1579   25.9032    9.5288 C   0  0  0  0  0  0  0  0  0  0  0  0
   20.9738   28.3083   11.3011 C   0  0  0  0  0  0  0  0  0  0  0  0
   19.5209   28.1105   13.4390 C   0  0  0  0  0  0  0  0  0  0  0  0
   17.7000   26.6012   13.2488 C   0  0  0  0  0  0  0  0  0  0  0  0
   18.1276   26.8856    6.7431 O   0  0  0  0  0  0  0  0  0  0  0  0
   18.7919   26.2880    7.5926 C   0  0  0  0  0  0  0  0  0  0  0  0
   19.8106   25.4979    7.2765 O   0  0  0  0  0  0  0  0  0  0  0  0
   18.4657   26.4106    9.0384 C   0  0  1  0  0  0  0  0  0  0  0  0
   16.2898   25.4555    8.7719 O   0  0  0  0  0  0  0  0  0  0  0  0
   19.3822   27.0151    9.9163 C   0  0  0  0  0  0  0  0  0  0  0  0
   19.9555   27.8558   12.0388 C   0  0  0  0  0  0  0  0  0  0  0  0
   20.8545   27.8523    9.6521 S   0  0  0  0  0  0  0  0  0  0  0  0
   17.8899   26.5705   11.8486 C   0  0  0  0  0  0  0  0  0  0  0  0
   16.9258   26.0119   10.9954 C   0  0  0  0  0  0  0  0  0  0  0  0
   14.3656   25.1390   13.3836 F   0  0  0  0  0  0  0  0  0  0  0  0
   18.7353   27.0676   14.0740 N   0  0  0  0  0  0  0  0  0  0  0  0
   19.4915   25.9667   14.6317 C   0  0  0  0  0  0  0  0  0  0  0  0
   15.1486   25.4780   15.8830 C   0  0  0  0  0  0  0  0  0  0  0  0
   17.2050   26.8667   18.4231 O   0  0  0  0  0  0  0  0  0  0  0  0
   15.5904   25.5442   17.3353 C   0  0  2  0  0  0  0  0  0  0  0  0
   14.5278   25.4301   18.3523 N   0  0  0  0  0  0  0  0  0  0  0  0
   13.3581   26.3022   18.1408 C   0  0  0  0  0  0  0  0  0  0  0  0
   14.1446   24.0386   18.6365 C   0  0  0  0  0  0  0  0  0  0  0  0
  1  5  1  0  0  0  0
  2 17  1  0  0  0  0
  3  1  1  0  0  0  0
  4  3  1  0  0  0  0
  4 26  1  1  0  0  0
  5 11  2  0  0  0  0
  5  6  1  0  0  0  0
  6  7  2  0  0  0  0
  7 21  1  0  0  0  0
  8 15  1  0  0  0  0
  8 16  2  0  0  0  0
  9 19  1  0  0  0  0
 10 18  1  0  0  0  0
 11 20  1  0  0  0  0
 13 14  1  0  0  0  0
 13 12  2  0  0  0  0
 15 13  1  6  0  0  0
 17 19  2  0  0  0  0
 17 15  1  0  0  0  0
 18  2  1  0  0  0  0
 18  9  2  0  0  0  0
 20 21  2  0  0  0  0
 20  2  1  0  0  0  0
 21  8  1  0  0  0  0
 22  6  1  0  0  0  0
 23 11  1  0  0  0  0
 23 10  1  0  0  0  0
 24 23  1  0  0  0  0
 25  1  1  0  0  0  0
 27  4  1  0  0  0  0
 27 25  1  0  0  0  0
 27 28  1  1  0  0  0
 29 28  1  0  0  0  0
 30 28  1  0  0  0  0
M  END
>  <CHROM.1>
-142.30606070,0.41505403,63.95270375,-172.72212401,65.36811518,17.44651577
26.40561548,12.86231578,2.05680283,0.45655288,1.45341468

>  <Name>
lig.pdb

>  <RI>
0

>  <Rbt.Current_Directory>
/home/itssahil/PROJECTS/Mol_Feturizer/New_Systems/rnas/6bfb

>  <Rbt.Executable>
rbdock ($Id: //depot/dev/client3/rdock/2013.1/src/exe/rbdock.cxx#4 $)

>  <Rbt.Library>
libRbt.so (2013.1, Build901 2013/11/27)

>  <Rbt.Parameter_File>
/export/apps/rDock/src/rDock_2013.1_src/data/scripts/dock_solv.prm

>  <Rbt.Receptor>
prm/blind_docking_40.prm

>  <SCORE>
3.9329

>  <SCORE.INTER>
-7.92525

>  <SCORE.INTER.CONST>
1

>  <SCORE.INTER.POLAR>
-0.50886

>  <SCORE.INTER.ROT>
3

>  <SCORE.INTER.SOLV>
20.0443

>  <SCORE.INTER.VDW>
-15.8687

>  <SCORE.INTER.norm>
-0.264175

>  <SCORE.INTRA>
-3.83588

>  <SCORE.INTRA.DIHEDRAL>
-7.29748

>  <SCORE.INTRA.DIHEDRAL.0>
9.41909

>  <SCORE.INTRA.POLAR>
0

>  <SCORE.INTRA.POLAR.0>
0

>  <SCORE.INTRA.REPUL>
0

>  <SCORE.INTRA.REPUL.0>
0

>  <SCORE.INTRA.SOLV>
-0.126034

>  <SCORE.INTRA.SOLV.lig_0>
-26.2491

>  <SCORE.INTRA.VDW>
-0.12412

>  <SCORE.INTRA.VDW.0>
2.57239

>  <SCORE.INTRA.norm>
-0.127863

>  <SCORE.RESTR>
15.694

>  <SCORE.RESTR.CAVITY>
15.694

>  <SCORE.RESTR.norm>
0.523134

>  <SCORE.SYSTEM>
0

>  <SCORE.SYSTEM.CONST>
0

>  <SCORE.SYSTEM.DIHEDRAL>
0

>  <SCORE.SYSTEM.SOLV>
0

>  <SCORE.SYSTEM.norm>
0

>  <SCORE.heavy>
30

>  <SCORE.norm>
0.131097

>  <RMSD>
19.992

$$$$
lig.pdb
 OpenBabel11021811523D
libRbt.so/2013.1/901 2013/11/27
 30 34  0  0  0  0  0  0  0  0999 V2000
   15.6815   26.2216   15.5234 N   0  0  0  0  0  0  0  0  0  0  0  0
   18.6603   27.0053   11.6478 N   0  0  0  0  0  0  0  0  0  0  0  0
   14.3876   26.6972   16.0225 C   0  0  0  0  0  0  0  0  0  0  0  0
   14.5039   26.4043   17.5108 C   0  0  2  0  0  0  0  0  0  0  0  0
   15.9420   26.1589   14.0896 C   0  0  0  0  0  0  0  0  0  0  0  0
   15.0162   25.6625   13.1492 C   0  0  0  0  0  0  0  0  0  0  0  0
   15.2690   25.5756   11.8029 C   0  0  0  0  0  0  0  0  0  0  0  0
   16.7937   25.8458    9.8444 C   0  0  0  0  0  0  0  0  0  0  0  0
   20.6146   28.1427   11.7449 C   0  0  0  0  0  0  0  0  0  0  0  0
   19.0583   28.0464   13.8161 C   0  0  0  0  0  0  0  0  0  0  0  0
   17.1909   26.6034   13.5710 C   0  0  0  0  0  0  0  0  0  0  0  0
   19.5410   25.4941    7.6701 O   0  0  0  0  0  0  0  0  0  0  0  0
   18.5287   26.1263    7.9795 C   0  0  0  0  0  0  0  0  0  0  0  0
   17.7437   26.7031    7.0777 O   0  0  0  0  0  0  0  0  0  0  0  0
   18.1415   26.2925    9.4056 C   0  0  1  0  0  0  0  0  0  0  0  0
   15.9446   25.4149    9.0567 O   0  0  0  0  0  0  0  0  0  0  0  0
   19.0393   26.8809   10.3133 C   0  0  0  0  0  0  0  0  0  0  0  0
   19.5466   27.7451   12.4431 C   0  0  0  0  0  0  0  0  0  0  0  0
   20.5537   27.6558   10.1016 S   0  0  0  0  0  0  0  0  0  0  0  0
   17.4437   26.5350   12.1821 C   0  0  0  0  0  0  0  0  0  0  0  0
   16.4988   25.9949   11.2960 C   0  0  0  0  0  0  0  0  0  0  0  0
   13.7996   25.2717   13.5787 F   0  0  0  0  0  0  0  0  0  0  0  0
   18.2044   27.0480   14.4343 N   0  0  0  0  0  0  0  0  0  0  0  0
   18.8909   25.9316   15.0485 C   0  0  0  0  0  0  0  0  0  0  0  0
   16.2983   25.2800   16.4508 C   0  0  0  0  0  0  0  0  0  0  0  0
   14.3238   27.5846   18.2947 O   0  0  0  0  0  0  0  0  0  0  0  0
   15.9433   25.9621   17.7613 C   0  0  2  0  0  0  0  0  0  0  0  0
   15.9637   25.1165   18.9701 N   0  0  0  0  0  0  0  0  0  0  0  0
   15.9487   25.8480   20.2500 C   0  0  0  0  0  0  0  0  0  0  0  0
   14.9723   24.0304   18.9343 C   0  0  0  0  0  0  0  0  0  0  0  0
  1  5  1  0  0  0  0
  2 17  1  0  0  0  0
  3  1  1  0  0  0  0
  4  3  1  0  0  0  0
  4 26  1  1  0  0  0
  5 11  2  0  0  0  0
  5  6  1  0  0  0  0
  6  7  2  0  0  0  0
  7 21  1  0  0  0  0
  8 15  1  0  0  0  0
  8 16  2  0  0  0  0
  9 19  1  0  0  0  0
 10 18  1  0  0  0  0
 11 20  1  0  0  0  0
 13 14  1  0  0  0  0
 13 12  2  0  0  0  0
 15 13  1  6  0  0  0
 17 19  2  0  0  0  0
 17 15  1  0  0  0  0
 18  2  1  0  0  0  0
 18  9  2  0  0  0  0
 20 21  2  0  0  0  0
 20  2  1  0  0  0  0
 21  8  1  0  0  0  0
 22  6  1  0  0  0  0
 23 11  1  0  0  0  0
 23 10  1  0  0  0  0
 24 23  1  0  0  0  0
 25  1  1  0  0  0  0
 27  4  1  0  0  0  0
 27 25  1  0  0  0  0
 27 28  1  1  0  0  0
 29 28  1  0  0  0  0
 30 28  1  0  0  0  0
M  END
>  <CHROM.1>
-43.80049723,-178.79351443,-123.63343966,-46.85189386,-80.30043594,17.10303203
26.34708978,13.24613350,1.97682489,0.37094982,1.50563041

>  <Name>
lig.pdb

>  <RI>
0

>  <Rbt.Current_Directory>
/home/itssahil/PROJECTS/Mol_Feturizer/New_Systems/rnas/6bfb

>  <Rbt.Executable>
rbdock ($Id: //depot/dev/client3/rdock/2013.1/src/exe/rbdock.cxx#4 $)

>  <Rbt.Library>
libRbt.so (2013.1, Build901 2013/11/27)

>  <Rbt.Parameter_File>
/export/apps/rDock/src/rDock_2013.1_src/data/scripts/dock_solv.prm

>  <Rbt.Receptor>
prm/blind_docking_40.prm

>  <SCORE>
43.5024

>  <SCORE.INTER>
31.3747

>  <SCORE.INTER.CONST>
1

>  <SCORE.INTER.POLAR>
-0.188708

>  <SCORE.INTER.ROT>
3

>  <SCORE.INTER.SOLV>
20.443

>  <SCORE.INTER.VDW>
9.13117

>  <SCORE.INTER.norm>
1.04582

>  <SCORE.INTRA>
-1.8381

>  <SCORE.INTRA.DIHEDRAL>
-6.60748

>  <SCORE.INTRA.DIHEDRAL.0>
9.41909

>  <SCORE.INTRA.POLAR>
0

>  <SCORE.INTRA.POLAR.0>
0

>  <SCORE.INTRA.REPUL>
0.0644901

>  <SCORE.INTRA.REPUL.0>
0

>  <SCORE.INTRA.SOLV>
0.0417907

>  <SCORE.INTRA.SOLV.lig_0>
-26.2491

>  <SCORE.INTRA.VDW>
1.1223

>  <SCORE.INTRA.VDW.0>
2.57239

>  <SCORE.INTRA.norm>
-0.0612699

>  <SCORE.RESTR>
13.9658

>  <SCORE.RESTR.CAVITY>
13.9658

>  <SCORE.RESTR.norm>
0.465525

>  <SCORE.SYSTEM>
0

>  <SCORE.SYSTEM.CONST>
0

>  <SCORE.SYSTEM.DIHEDRAL>
0

>  <SCORE.SYSTEM.SOLV>
0

>  <SCORE.SYSTEM.norm>
0

>  <SCORE.heavy>
30

>  <SCORE.norm>
1.45008

>  <RMSD>
20.036

$$$$
