@<TRIPOS>MOLECULE
6bfb_rdock.pdb
 2340 2619 0 0 0
SMALL
GASTEIGER

@<TRIPOS>ATOM
      1  O5'       -6.1570   38.5730   18.6650 O.3     1  G1         -0.2176
      2  C5'       -5.5840   37.3440   19.1180 C.3     1  G1          0.2141
      3  C4'       -6.5510   36.6040   20.0270 C.3     1  G1          0.1802
      4  O4'       -7.8000   36.3960   19.3180 O.3     1  G1         -0.3306
      5  C3'       -6.1130   35.2070   20.4540 C.3     1  G1          0.1861
      6  O3'       -5.3300   35.2610   21.6320 O.3     1  G1         -0.3112
      7  C2'       -7.4520   34.5130   20.6900 C.3     1  G1          0.2309
      8  O2'       -8.0570   34.8710   21.9230 O.3     1  G1         -0.2156
      9  C1'       -8.2660   35.0670   19.5310 C.3     1  G1          0.2408
     10   N9       -8.1410   34.2960   18.2750 N.ar    1  G1         -0.2693
     11   C8       -7.4950   34.6880   17.1100 C.ar    1  G1          0.1817
     12   N7       -7.5940   33.8250   16.1380 N.ar    1  G1         -0.2173
     13   C5       -8.3520   32.7890   16.6810 C.ar    1  G1          0.1748
     14   C6       -8.7930   31.5780   16.0890 C.ar    1  G1          0.3023
     15   O6       -8.5750   31.1750   14.9400 O.2     1  G1         -0.2633
     16   N.1      -9.5490   30.7950   16.9820 N.ar    1  G1         -0.1709
     17   C.2      -9.8140   31.1350   18.2940 C.ar    1  G1          0.2606
     18   N.2     -10.5230   30.2500   19.0050 N.pl3   1  G1         -0.0859
     19   N.3      -9.4350   32.2840   18.8550 N.ar    1  G1         -0.1918
     20   C4       -8.7060   33.0630   17.9930 C.ar    1  G1          0.1723
     21    P.3     -4.1340   34.2050   21.8560 P.3     2  G2          0.2141
     22  OP1       -3.4350   34.5720   23.1130 O.3     2  G2         -0.4373
     23  OP2       -3.3480   34.1120   20.5920 O.2     2  G2         -0.5172
     24  O5'       -4.9190   32.8070   22.0680 O.3     2  G2         -0.3114
     25  C5'       -4.8450   32.1030   23.3190 C.3     2  G2          0.1812
     26  C4'       -5.6500   30.8150   23.2770 C.3     2  G2          0.1773
     27  O4'       -6.7730   30.9660   22.3650 O.3     2  G2         -0.3307
     28  C3'       -4.9180   29.5860   22.7520 C.3     2  G2          0.1860
     29  O3'       -4.0910   28.9860   23.7670 O.3     2  G2         -0.3112
     30  C2'       -6.0970   28.6940   22.3600 C.3     2  G2          0.2309
     31  O2'       -6.7300   28.0720   23.4730 O.3     2  G2         -0.2156
     32  C1'       -7.0340   29.7220   21.7130 C.3     2  G2          0.2408
     33   N9       -6.8150   29.8770   20.2570 N.ar    2  G2         -0.2693
     34   C8       -6.1960   30.9320   19.6110 C.ar    2  G2          0.1817
     35   N7       -6.0920   30.7700   18.3180 N.ar    2  G2         -0.2173
     36   C5       -6.6570   29.5190   18.0850 C.ar    2  G2          0.1748
     37   C6       -6.8340   28.8060   16.8650 C.ar    2  G2          0.3023
     38   O6       -6.4920   29.1480   15.7210 O.2     2  G2         -0.2633
     39   N.1      -7.4470   27.5570   17.0710 N.ar    2  G2         -0.1709
     40   C.2      -7.8480   27.0690   18.3020 C.ar    2  G2          0.2606
     41   N.2      -8.4020   25.8490   18.3090 N.pl3   2  G2         -0.0859
     42   N.3      -7.7080   27.7340   19.4470 N.ar    2  G2         -0.1918
     43   C4       -7.1130   28.9540   19.2660 C.ar    2  G2          0.1723
     44    P.3     -2.7270   28.2100   23.3630 P.3     3  A3          0.2141
     45  OP1       -2.0210   27.8390   24.6150 O.3     3  A3         -0.4373
     46  OP2       -2.0100   29.0100   22.3380 O.2     3  A3         -0.5172
     47  O5'       -3.2670   26.8690   22.6520 O.3     3  A3         -0.3114
     48  C5'       -3.9230   25.8440   23.4190 C.3     3  A3          0.1812
     49  C4'       -4.4680   24.7320   22.5240 C.3     3  A3          0.1773
     50  O4'       -5.5120   25.2600   21.6450 O.3     3  A3         -0.3307
     51  C3'       -3.4680   24.1010   21.5590 C.3     3  A3          0.1860
     52  O3'       -2.6210   23.1340   22.2000 O.3     3  A3         -0.3112
     53  C2'       -4.4150   23.4960   20.5190 C.3     3  A3          0.2309
     54  O2'       -5.1140   22.3480   20.9890 O.3     3  A3         -0.2156
     55  C1'       -5.3820   24.6710   20.3430 C.3     3  A3          0.2408
     56   N9       -4.8930   25.6970   19.3840 N.ar    3  A3         -0.2693
     57   C8       -4.4010   26.9460   19.6820 C.ar    3  A3          0.1816
     58   N7       -4.0050   27.6340   18.6370 N.ar    3  A3         -0.2193
     59   C5       -4.2280   26.7810   17.5720 C.ar    3  A3          0.1518
     60   C6       -4.0390   26.9300   16.1770 C.ar    3  A3          0.1919
     61   N6       -3.5210   28.0300   15.6210 N.pl3   3  A3         -0.1054
     62   N.1      -4.3570   25.8790   15.3790 N.ar    3  A3         -0.2040
     63   C.2      -4.8390   24.7570   15.9430 C.ar    3  A3          0.2016
     64   N.3      -5.1030   24.5120   17.2340 N.ar    3  A3         -0.2048
     65   C4       -4.7630   25.5720   18.0080 C.ar    3  A3          0.1692
     66    P.3     -1.0650   23.0100   21.7640 P.3     4  U4          0.2141
     67  OP1       -0.4080   22.0670   22.7000 O.3     4  U4         -0.4373
     68  OP2       -0.4990   24.3770   21.5870 O.2     4  U4         -0.5172
     69  O5'       -1.1520   22.3270   20.3150 O.3     4  U4         -0.3114
     70  C5'       -1.6620   20.9840   20.1690 C.3     4  U4          0.1812
     71  C4'       -1.6470   20.5470   18.7110 C.3     4  U4          0.1773
     72  O4'       -2.4750   21.4480   17.9210 O.3     4  U4         -0.3307
     73  C3'       -0.2870   20.6080   18.0290 C.3     4  U4          0.1860
     74  O3'        0.4920   19.4500   18.3190 O.3     4  U4         -0.3112
     75  C2'       -0.6870   20.6910   16.5600 C.3     4  U4          0.2309
     76  O2'       -1.0740   19.4390   16.0120 O.3     4  U4         -0.2156
     77  C1'       -1.8840   21.6350   16.6330 C.3     4  U4          0.2420
     78   N.1      -1.5260   23.1250   16.4190 N.ar    4  U4         -0.2534
     79   C.2      -1.3980   23.6220   15.1150 C.ar    4  U4          0.3546
     80   O.2      -1.5440   22.9370   14.1110 O.2     4  U4         -0.2443
     81   N.3      -1.1020   24.9700   15.0360 N.ar    4  U4         -0.1530
     82   C4       -0.9330   25.8560   16.0920 C.ar    4  U4          0.2846
     83   O4       -0.6890   27.0330   15.8600 O.2     4  U4         -0.2650
     84   C5       -1.0650   25.2730   17.4080 C.ar    4  U4          0.0814
     85   C6       -1.3540   23.9640   17.5220 C.ar    4  U4          0.0870
     86    P.3      2.0450   19.5940   18.7330 P.3     5  C5          0.2141
     87  OP1        2.3870   18.3980   19.5440 O.3     5  C5         -0.4373
     88  OP2        2.2780   20.9600   19.2900 O.2     5  C5         -0.5172
     89  O5'        2.8180   19.4900   17.3260 O.3     5  C5         -0.3114
     90  C5'        3.1190   20.6540   16.5590 C.3     5  C5          0.1812
     91  C4'        2.7800   20.4210   15.0990 C.3     5  C5          0.1773
     92  O4'        1.6510   21.2500   14.7300 O.3     5  C5         -0.3307
     93  C3'        3.8870   20.7710   14.1230 C.3     5  C5          0.1860
     94  O3'        4.6700   19.6200   13.8660 O.3     5  C5         -0.3112
     95  C2'        3.1130   21.2280   12.8870 C.3     5  C5          0.2309
     96  O2'        2.6930   20.1490   12.0650 O.3     5  C5         -0.2156
     97  C1'        1.9060   21.9210   13.5140 C.3     5  C5          0.2420
     98   N.1       2.0870   23.4310   13.8000 N.ar    5  C5         -0.2535
     99   C.2       2.0690   24.3700   12.7340 C.ar    5  C5          0.3532
    100   O.2       1.9820   23.9720   11.5620 O.2     5  C5         -0.2443
    101   N.3       2.1930   25.7010   13.0260 N.ar    5  C5         -0.1739
    102   C4        2.3020   26.1090   14.3000 C.ar    5  C5          0.1759
    103   N.4       2.3990   27.4220   14.5280 N.pl3   5  C5         -0.1070
    104   C5        2.3060   25.1830   15.3930 C.ar    5  C5          0.0566
    105   C6        2.1650   23.8780   15.1050 C.ar    5  C5          0.0850
    106    P.3      6.2720   19.6990   13.8680 P.3     6  U6          0.2141
    107  OP1        6.7800   18.3040   13.8320 O.2     6  U6         -0.5172
    108  OP2        6.7030   20.6110   14.9570 O.3     6  U6         -0.4373
    109  O5'        6.5960   20.4150   12.4700 O.3     6  U6         -0.3114
    110  C5'        6.2070   19.7870   11.2430 C.3     6  U6          0.1812
    111  C4'        6.1790   20.7750   10.0910 C.3     6  U6          0.1773
    112  O4'        5.1370   21.7640   10.2930 O.3     6  U6         -0.3307
    113  C3'        7.4280   21.6080    9.9120 C.3     6  U6          0.1860
    114  O3'        8.4460   20.8570    9.2800 O.3     6  U6         -0.3112
    115  C2'        6.8980   22.7290    9.0270 C.3     6  U6          0.2309
    116  O2'        6.7620   22.3460    7.6670 O.3     6  U6         -0.2156
    117  C1'        5.5230   22.9810    9.6480 C.3     6  U6          0.2420
    118   N.1       5.5040   24.1520   10.6540 N.ar    6  U6         -0.2534
    119   C.2       5.5110   25.4720   10.1810 C.ar    6  U6          0.3546
    120   O.2       5.5160   25.7710    8.9930 O.2     6  U6         -0.2443
    121   N.3       5.4860   26.4370   11.1670 N.ar    6  U6         -0.1530
    122   C4        5.4490   26.2360   12.5430 C.ar    6  U6          0.2846
    123   O4        5.4310   27.2040   13.2950 O.2     6  U6         -0.2650
    124   C5        5.4680   24.8520   12.9610 C.ar    6  U6          0.0814
    125   C6        5.4930   23.8850   12.0250 C.ar    6  U6          0.0870
    126    P.3      9.9860   21.1330    9.6320 P.3     7  U7          0.2141
    127  OP1       10.7820   20.0470    9.0130 O.2     7  U7         -0.5172
    128  OP2       10.1030   21.3850   11.0910 O.3     7  U7         -0.4373
    129  O5'       10.2840   22.5180    8.8680 O.3     7  U7         -0.3114
    130  C5'       10.2370   22.5820    7.4330 C.3     7  U7          0.1812
    131  C4'       10.0560   24.0110    6.9350 C.3     7  U7          0.1773
    132  O4'        8.8750   24.6030    7.5350 O.3     7  U7         -0.3307
    133  C3'       11.1530   24.9820    7.3090 C.3     7  U7          0.1860
    134  O3'       12.2960   24.8240    6.4950 O.3     7  U7         -0.3112
    135  C2'       10.4470   26.3230    7.1090 C.3     7  U7          0.2309
    136  O2'       10.2980   26.6870    5.7450 O.3     7  U7         -0.2156
    137  C1'        9.0830   26.0090    7.7120 C.3     7  U7          0.2420
    138   N.1       8.9550   26.3810    9.2050 N.ar    7  U7         -0.2534
    139   C.2       8.7060   27.7070    9.5640 C.ar    7  U7          0.3546
    140   O.2       8.6060   28.6170    8.7570 O.2     7  U7         -0.2443
    141   N.3       8.5740   27.9240   10.9230 N.ar    7  U7         -0.1530
    142   C4        8.6750   26.9810   11.9420 C.ar    7  U7          0.2846
    143   O4        8.5170   27.3240   13.1090 O.2     7  U7         -0.2650
    144   C5        8.9290   25.6300   11.4970 C.ar    7  U7          0.0814
    145   C6        9.0620   25.3860   10.1810 C.ar    7  U7          0.0870
    146    P.3     13.7470   24.9030    7.1760 P.3     8  C8          0.2141
    147  OP1       14.7350   24.3470    6.2200 O.2     8  C8         -0.5172
    148  OP2       13.6520   24.3250    8.5430 O.3     8  C8         -0.4373
    149  O5'       13.9790   26.4880    7.3210 O.3     8  C8         -0.3114
    150  C5'       14.2710   27.2790    6.1670 C.3     8  C8          0.1812
    151  C4'       13.8640   28.7320    6.3630 C.3     8  C8          0.1773
    152  O4'       12.5520   28.7970    6.9800 O.3     8  C8         -0.3307
    153  C3'       14.7360   29.5390    7.3060 C.3     8  C8          0.1860
    154  O3'       15.9430   29.9770    6.6880 O.3     8  C8         -0.3112
    155  C2'       13.8010   30.6880    7.6670 C.3     8  C8          0.2309
    156  O2'       13.6690   31.6640    6.6440 O.3     8  C8         -0.2156
    157  C1'       12.4920   29.9260    7.8490 C.3     8  C8          0.2420
    158   N.1      12.2550   29.4660    9.2830 N.ar    8  C8         -0.2535
    159   C.2      11.8740   30.4060   10.2530 C.ar    8  C8          0.3532
    160   O.2      11.7300   31.5880    9.9210 O.2     8  C8         -0.2443
    161   N.3      11.6460   29.9870   11.5310 N.ar    8  C8         -0.1739
    162   C4       11.8210   28.7030   11.8600 C.ar    8  C8          0.1759
    163   N.4      11.5900   28.3440   13.1280 N.pl3   8  C8         -0.1070
    164   C5       12.2500   27.7310   10.8990 C.ar    8  C8          0.0566
    165   C6       12.4510   28.1500    9.6380 C.ar    8  C8          0.0850
    166    P.3     17.3180   29.9200    7.5240 P.3     9  G9          0.2141
    167  OP1       18.4200   30.3730    6.6410 O.2     9  G9         -0.5172
    168  OP2       17.4050   28.5990    8.1930 O.3     9  G9         -0.4373
    169  O5'       17.0790   31.0210    8.6590 O.3     9  G9         -0.3114
    170  C5'       16.8570   32.3960    8.3070 C.3     9  G9          0.1812
    171  C4'       16.4530   33.2010    9.5270 C.3     9  G9          0.1773
    172  O4'       15.2080   32.6870   10.0760 O.3     9  G9         -0.3307
    173  C3'       17.4300   33.1230   10.6830 C.3     9  G9          0.1860
    174  O3'       18.4830   34.0320   10.4760 O.3     9  G9         -0.3112
    175  C2'       16.5400   33.5390   11.8490 C.3     9  G9          0.2309
    176  O2'       16.3470   34.9400   11.9150 O.3     9  G9         -0.2156
    177  C1'       15.2200   32.8430   11.4950 C.3     9  G9          0.2408
    178   N9       15.0550   31.5250   12.1540 N.ar    9  G9         -0.2693
    179   C8       15.3490   30.2840   11.6290 C.ar    9  G9          0.1817
    180   N7       15.1490   29.3010   12.4650 N.ar    9  G9         -0.2173
    181   C5       14.7280   29.9220   13.6310 C.ar    9  G9          0.1748
    182   C6       14.3530   29.3640   14.8860 C.ar    9  G9          0.3023
    183   O6       14.3260   28.1700   15.2170 O.2     9  G9         -0.2633
    184   N.1      13.9940   30.3510   15.8110 N.ar    9  G9         -0.1709
    185   C.2      13.9980   31.7050   15.5550 C.ar    9  G9          0.2606
    186   N.2      13.6360   32.5030   16.5660 N.pl3   9  G9         -0.0859
    187   N.3      14.3140   32.2370   14.3780 N.ar    9  G9         -0.1918
    188   C4       14.6750   31.2920   13.4650 C.ar    9  G9          0.1723
    189    P.3     20.0140   33.5590   10.5300 P.3    10  G10         0.2141
    190  OP1       20.3310   32.7900    9.3030 O.2    10  G10        -0.5172
    191  OP2       20.2890   32.9670   11.8610 O.3    10  G10        -0.4373
    192  O5'       20.7470   34.9580   10.4680 O.3    10  G10        -0.3114
    193  C5'       20.7060   35.7710    9.2900 C.3    10  G10         0.1812
    194  C4'       22.0430   36.4790    9.1340 C.3    10  G10         0.1773
    195  O4'       22.2850   37.3220   10.3130 O.3    10  G10        -0.3307
    196  C3'       23.2450   35.5210    9.0610 C.3    10  G10         0.1860
    197  O3'       24.2360   36.0560    8.2110 O.3    10  G10        -0.3112
    198  C2'       23.7070   35.4680   10.5250 C.3    10  G10         0.2309
    199  O2'       25.0600   35.0640   10.6920 O.3    10  G10        -0.2156
    200  C1'       23.4980   36.9240   10.9320 C.3    10  G10         0.2408
    201   N9       23.4290   37.1450   12.3790 N.ar   10  G10        -0.2693
    202   C8       23.2840   36.1870   13.3570 C.ar   10  G10         0.1817
    203   N7       23.3880   36.6540   14.5700 N.ar   10  G10        -0.2173
    204   C5       23.6710   37.9980   14.3940 C.ar   10  G10         0.1748
    205   C6       23.8830   39.0190   15.3570 C.ar   10  G10         0.3023
    206   O6       23.8610   38.9250   16.5860 O.2    10  G10        -0.2633
    207   N.1      24.1330   40.2570   14.7640 N.ar   10  G10        -0.1709
    208   C.2      24.1510   40.4900   13.4030 C.ar   10  G10         0.2606
    209   N.2      24.3880   41.7570   13.0260 N.pl3  10  G10        -0.0859
    210   N.3      23.9500   39.5410   12.4790 N.ar   10  G10        -0.1918
    211   C4       23.7320   38.3160   13.0480 C.ar   10  G10         0.1723
    212    P.3     25.1940   35.0940    7.3510 P.3    11  G11         0.2141
    213  OP1       24.3990   34.5650    6.2080 O.2    11  G11        -0.5172
    214  OP2       25.8980   34.1580    8.2740 O.3    11  G11        -0.4373
    215  O5'       26.2710   36.1360    6.7990 O.3    11  G11        -0.3114
    216  C5'       25.8170   37.2480    6.0330 C.3    11  G11         0.1812
    217  C4'       26.4430   38.5400    6.5100 C.3    11  G11         0.1773
    218  O4'       25.9990   38.8670    7.8420 O.3    11  G11        -0.3307
    219  C3'       27.9430   38.5280    6.5990 C.3    11  G11         0.1860
    220  O3'       28.4730   38.7330    5.2840 O.3    11  G11        -0.3112
    221  C2'       28.1930   39.7170    7.5310 C.3    11  G11         0.2309
    222  O2'       28.1590   40.9520    6.8470 O.3    11  G11        -0.2156
    223  C1'       26.9950   39.6360    8.4860 C.3    11  G11         0.2408
    224   N9       27.2770   39.0230    9.7840 N.ar   11  G11        -0.2693
    225   C8       27.2980   37.6760   10.0720 C.ar   11  G11         0.1817
    226   N7       27.4950   37.4130   11.3310 N.ar   11  G11        -0.2173
    227   C5       27.5140   38.6530   11.9350 C.ar   11  G11         0.1748
    228   C6       27.6650   38.9880   13.2990 C.ar   11  G11         0.3023
    229   O6       27.8300   38.2170   14.2620 O.2    11  G11        -0.2633
    230   N.1      27.7000   40.3750   13.4950 N.ar   11  G11        -0.1709
    231   C.2      27.5770   41.3150   12.4890 C.ar   11  G11         0.2606
    232   N.2      27.6140   42.6010   12.8710 N.pl3  11  G11        -0.0859
    233   N.3      27.4220   41.0110   11.2020 N.ar   11  G11        -0.1918
    234   C4       27.3970   39.6630   10.9990 C.ar   11  G11         0.1723
    235    P.3     29.7940   37.9720    4.7830 P.3    12  G12         0.2141
    236  OP1       29.7370   37.8960    3.3000 O.2    12  G12        -0.5172
    237  OP2       30.0060   36.7250    5.5810 O.3    12  G12        -0.4373
    238  O5'       30.9210   39.0080    5.2010 O.3    12  G12        -0.3114
    239  C5'       30.9530   40.3160    4.6560 C.3    12  G12         0.1812
    240  C4'       31.8110   41.1750    5.5310 C.3    12  G12         0.1773
    241  O4'       31.2070   41.2030    6.8340 O.3    12  G12        -0.3307
    242  C3'       33.2040   40.6220    5.7730 C.3    12  G12         0.1860
    243  O3'       34.0820   41.0950    4.7540 O.3    12  G12        -0.3112
    244  C2'       33.5490   41.1910    7.1570 C.3    12  G12         0.2309
    245  O2'       34.0660   42.5110    7.1030 O.3    12  G12        -0.2156
    246  C1'       32.1890   41.2050    7.8470 C.3    12  G12         0.2408
    247   N9       31.9410   40.0670    8.7230 N.ar   12  G12        -0.2693
    248   C8       31.9300   38.7440    8.3710 C.ar   12  G12         0.1817
    249   N7       31.7340   37.9370    9.3750 N.ar   12  G12        -0.2173
    250   C5       31.4820   38.7770   10.4420 C.ar   12  G12         0.1748
    251   C6       31.1570   38.4660   11.7860 C.ar   12  G12         0.3023
    252   O6       30.9850   37.3490   12.2860 O.2    12  G12        -0.2633
    253   N.1      31.0890   39.6120   12.5880 N.ar   12  G12        -0.1709
    254   C.2      31.1940   40.9100   12.1090 C.ar   12  G12         0.2606
    255   N.2      31.0180   41.8950   13.0110 N.pl3  12  G12        -0.0859
    256   N.3      31.4420   41.2170   10.8320 N.ar   12  G12        -0.1918
    257   C4       31.6040   40.1010   10.0630 C.ar   12  G12         0.1723
    258    P.3     35.3550   40.2530    4.2790 P.3    13  C13         0.2141
    259  OP1       35.5950   40.5980    2.8590 O.2    13  C13        -0.5172
    260  OP2       35.1750   38.8350    4.6780 O.3    13  C13        -0.4373
    261  O5'       36.5240   40.8560    5.1570 O.3    13  C13        -0.3114
    262  C5'       37.8140   40.3520    5.0380 C.3    13  C13         0.1812
    263  C4'       38.8160   41.4140    5.3970 C.3    13  C13         0.1773
    264  O4'       38.6580   41.7690    6.7710 O.3    13  C13        -0.3307
    265  C3'       40.2360   40.9690    5.3190 C.3    13  C13         0.1860
    266  O3'       40.6980   41.0750    4.0010 O.3    13  C13        -0.3112
    267  C2'       40.9580   41.9200    6.2910 C.3    13  C13         0.2309
    268  O2'       41.5470   43.0340    5.6660 O.3    13  C13        -0.2156
    269  C1'       39.8420   42.3910    7.2060 C.3    13  C13         0.2420
    270   N.1      40.0620   42.1070    8.6590 N.ar   13  C13        -0.2535
    271   C.2      40.8710   42.9720    9.4340 C.ar   13  C13         0.3532
    272   O.2      41.4560   43.9280    8.8810 O.2    13  C13        -0.2443
    273   N.3      40.9970   42.7190   10.7840 N.ar   13  C13        -0.1739
    274   C4       40.3880   41.6470   11.3310 C.ar   13  C13         0.1759
    275   N.4      40.5330   41.4330   12.6390 N.pl3  13  C13        -0.1070
    276   C5       39.5860   40.7590   10.5520 C.ar   13  C13         0.0566
    277   C6       39.4430   41.0270    9.2430 C.ar   13  C13         0.0850
    278    P.3     41.8440   40.0870    3.4620 P.3    14  A14         0.2141
    279  OP1       41.3230   38.7140    3.5070 O.2    14  A14        -0.5172
    280  OP2       43.1330   40.4220    4.1480 O.3    14  A14        -0.4373
    281  O5'       41.9550   40.5450    1.9460 O.3    14  A14        -0.3114
    282  C5'       40.8270   40.4560    1.1130 C.3    14  A14         0.1812
    283  C4'       40.7550   41.6300    0.1700 C.3    14  A14         0.1773
    284  O4'       40.0950   42.7520    0.8000 O.3    14  A14        -0.3307
    285  C3'       42.0690   42.2210   -0.2870 C.3    14  A14         0.1860
    286  O3'       42.6580   41.4230   -1.2320 O.3    14  A14        -0.3112
    287  C2'       41.5870   43.5300   -0.8860 C.3    14  A14         0.2309
    288  O2'       40.9970   43.3620   -2.1770 O.3    14  A14        -0.2156
    289  C1'       40.5400   43.9550    0.1580 C.3    14  A14         0.2408
    290   N9       41.1020   44.8390    1.1880 N.ar   14  A14        -0.2693
    291   C8       41.3340   44.5290    2.4990 C.ar   14  A14         0.1816
    292   N7       41.8900   45.4930    3.1820 N.ar   14  A14        -0.2193
    293   C5       42.0500   46.5090    2.2610 C.ar   14  A14         0.1518
    294   C6       42.6070   47.7990    2.3620 C.ar   14  A14         0.1919
    295   N6       43.1450   48.2800    3.4830 N.pl3  14  A14        -0.1054
    296   N.1      42.6430   48.5540    1.2530 N.ar   14  A14        -0.2040
    297   C.2      42.1560   48.0460    0.1070 C.ar   14  A14         0.2016
    298   N.3      41.6060   46.8500   -0.1150 N.ar   14  A14        -0.2048
    299   C4       41.5850   46.1210    1.0190 C.ar   14  A14         0.1692
    300    P.3     44.2190   41.1860   -1.1700 P.3    15  G15         0.2141
    301  OP1       44.6400   40.5190   -2.4220 O.2    15  G15        -0.5172
    302  OP2       44.5290   40.5540    0.1300 O.3    15  G15        -0.4373
    303  O5'       44.8110   42.6670   -1.1190 O.3    15  G15        -0.3114
    304  C5'       44.9320   43.4530   -2.2930 C.3    15  G15         0.1812
    305  C4'       45.6250   44.7700   -1.9930 C.3    15  G15         0.1773
    306  O4'       44.8140   45.5810   -1.0890 O.3    15  G15        -0.3307
    307  C3'       46.9360   44.6420   -1.2720 C.3    15  G15         0.1860
    308  O3'       47.9620   44.3040   -2.1620 O.3    15  G15        -0.3112
    309  C2'       47.0860   46.0310   -0.6660 C.3    15  G15         0.2309
    310  O2'       47.4650   47.0010   -1.6130 O.3    15  G15        -0.2156
    311  C1'       45.6650   46.2780   -0.1890 C.3    15  G15         0.2408
    312   N9       45.4200   45.7960    1.1760 N.ar   15  G15        -0.2693
    313   C8       44.9180   44.5680    1.5700 C.ar   15  G15         0.1817
    314   N7       44.8260   44.4340    2.8720 N.ar   15  G15        -0.2173
    315   C5       45.3530   45.6250    3.3710 C.ar   15  G15         0.1748
    316   C6       45.5210   46.0800    4.7140 C.ar   15  G15         0.3023
    317   O6       45.2170   45.5070    5.7760 O.2    15  G15        -0.2633
    318   N.1      46.0800   47.3590    4.7590 N.ar   15  G15        -0.1709
    319   C.2      46.4380   48.1070    3.6590 C.ar   15  G15         0.2606
    320   N.2      46.9630   49.3170    3.8980 N.pl3  15  G15        -0.0859
    321   N.3      46.3090   47.6880    2.4110 N.ar   15  G15        -0.1918
    322   C4       45.7470   46.4530    2.3370 C.ar   15  G15         0.1723
    323    P.3     49.2880   43.6160   -1.5960 P.3    16  G16         0.2141
    324  OP1       50.3290   43.7070   -2.6510 O.2    16  G16        -0.5172
    325  OP2       48.9320   42.3030   -1.0030 O.3    16  G16        -0.4373
    326  O5'       49.6160   44.6150   -0.4110 O.3    16  G16        -0.3114
    327  C5'       50.6660   44.4360    0.4470 C.3    16  G16         0.1812
    328  C4'       50.8440   45.7250    1.1990 C.3    16  G16         0.1773
    329  O4'       49.5680   46.1660    1.7430 O.3    16  G16        -0.3307
    330  C3'       51.7540   45.6580    2.3820 C.3    16  G16         0.1860
    331  O3'       53.0650   45.7870    1.9650 O.3    16  G16        -0.3112
    332  C2'       51.2780   46.8720    3.1760 C.3    16  G16         0.2309
    333  O2'       51.6970   48.0960    2.5970 O.3    16  G16        -0.2156
    334  C1'       49.7700   46.7100    3.0370 C.3    16  G16         0.2408
    335   N9       49.1830   45.7990    4.0340 N.ar   16  G16        -0.2693
    336   C8       48.5080   44.6190    3.7980 C.ar   16  G16         0.1817
    337   N7       48.0870   44.0290    4.8820 N.ar   16  G16        -0.2173
    338   C5       48.5370   44.8550    5.9140 C.ar   16  G16         0.1748
    339   C6       48.3910   44.7370    7.3360 C.ar   16  G16         0.3023
    340   O6       47.8010   43.8460    7.9910 O.2    16  G16        -0.2633
    341   N.1      48.9740   45.8190    8.0040 N.ar   16  G16        -0.1709
    342   C.2      49.6110   46.8730    7.3850 C.ar   16  G16         0.2606
    343   N.2      50.1200   47.8160    8.1800 N.pl3  16  G16        -0.0859
    344   N.3      49.7430   46.9950    6.0750 N.ar   16  G16        -0.1918
    345   C4       49.2030   45.9500    5.4020 C.ar   16  G16         0.1723
    346    P.3     54.1980   44.9910    2.7270 P.3    17  G17         0.2141
    347  OP1       55.4600   45.1870    1.9660 O.2    17  G17        -0.5172
    348  OP2       53.7120   43.6160    3.0000 O.3    17  G17        -0.4373
    349  O5'       54.2870   45.7710    4.1260 O.3    17  G17        -0.3114
    350  C5'       54.6070   47.1650    4.1590 C.3    17  G17         0.1812
    351  C4'       54.9320   47.6170    5.5660 C.3    17  G17         0.1773
    352  O4'       53.7110   47.7730    6.3310 O.3    17  G17        -0.3307
    353  C3'       55.7830   46.6560    6.3770 C.3    17  G17         0.1860
    354  O3'       57.1740   46.9070    6.1270 O.3    17  G17        -0.3112
    355  C2'       55.3840   47.0330    7.7950 C.3    17  G17         0.2309
    356  O2'       56.0050   48.2240    8.2140 O.3    17  G17        -0.2156
    357  C1'       53.9000   47.2720    7.6410 C.3    17  G17         0.2408
    358   N9       53.0650   46.0750    7.8520 N.ar   17  G17        -0.2693
    359   C8       52.5100   45.2710    6.8910 C.ar   17  G17         0.1817
    360   N7       51.7770   44.3080    7.3700 N.ar   17  G17        -0.2173
    361   C5       51.8740   44.4580    8.7430 C.ar   17  G17         0.1748
    362   C6       51.2610   43.7180    9.7890 C.ar   17  G17         0.3023
    363   O6       50.5260   42.7250    9.7090 O.2    17  G17        -0.2633
    364   N.1      51.5790   44.2290   11.0340 N.ar   17  G17        -0.1709
    365   C.2      52.4280   45.2860   11.2610 C.ar   17  G17         0.2606
    366   N.2      52.6080   45.6300   12.5450 N.pl3  17  G17        -0.0859
    367   N.3      52.9880   46.0090   10.2930 N.ar   17  G17        -0.1918
    368   C4       52.6550   45.5470    9.0590 C.ar   17  G17         0.1723
    369    P.3     58.2750   45.7860    6.4290 P.3    18  U18         0.2141
    370  OP1       59.6070   46.3910    6.1950 O.3    18  U18        -0.4373
    371  OP2       57.8890   44.5410    5.7210 O.2    18  U18        -0.5172
    372  O5'       58.0890   45.5120    7.9910 O.3    18  U18        -0.3114
    373  C5'       58.7030   46.3430    8.9590 C.3    18  U18         0.1812
    374  C4'       58.4580   45.7900   10.3440 C.3    18  U18         0.1773
    375  O4'       57.0320   45.6990   10.5870 O.3    18  U18        -0.3307
    376  C3'       58.9260   44.3690   10.5570 C.3    18  U18         0.1860
    377  O3'       60.2970   44.3290   10.7660 O.3    18  U18        -0.3112
    378  C2'       58.1320   43.9880   11.8020 C.3    18  U18         0.2309
    379  O2'       58.6770   44.5060   13.0020 O.3    18  U18        -0.2156
    380  C1'       56.7850   44.6440   11.5120 C.3    18  U18         0.2420
    381   N.1      55.7790   43.6820   10.9470 N.ar   18  U18        -0.2534
    382   C.2      55.0670   42.8610   11.8130 C.ar   18  U18         0.3546
    383   O.2      55.1690   42.9090   13.0150 O.2    18  U18        -0.2443
    384   N.3      54.2140   41.9700   11.2040 N.ar   18  U18        -0.1530
    385   C4       53.9950   41.8200    9.8470 C.ar   18  U18         0.2846
    386   O4       53.1840   41.0020    9.4630 O.2    18  U18        -0.2650
    387   C5       54.7750   42.6900    9.0020 C.ar   18  U18         0.0814
    388   C6       55.6290   43.5630    9.5690 C.ar   18  U18         0.0870
    389    P.3     61.2110   43.2640    9.9740 P.3    19  G19         0.2141
    390  OP1       62.6470   43.6310   10.2150 O.3    19  G19        -0.4373
    391  OP2       60.7070   43.1590    8.5830 O.2    19  G19        -0.5172
    392  O5'       60.8980   41.8760   10.7220 O.3    19  G19        -0.3114
    393  C5'       61.1760   41.7460   12.1180 C.3    19  G19         0.1812
    394  C4'       60.2570   40.7390   12.7760 C.3    19  G19         0.1773
    395  O4'       58.8610   41.0970   12.5540 O.3    19  G19        -0.3307
    396  C3'       60.3450   39.3480   12.2190 C.3    19  G19         0.1860
    397  O3'       61.5140   38.6900   12.6780 O.3    19  G19        -0.3112
    398  C2'       59.0510   38.7510   12.7570 C.3    19  G19         0.2309
    399  O2'       59.1150   38.4510   14.1390 O.3    19  G19        -0.2156
    400  C1'       58.0760   39.9150   12.5230 C.3    19  G19         0.2408
    401   N9       57.3580   39.8200   11.2340 N.ar   19  G19        -0.2693
    402   C8       57.7780   40.2940   10.0070 C.ar   19  G19         0.1817
    403   N7       57.0150   39.9390    9.0100 N.ar   19  G19        -0.2173
    404   C5       56.0170   39.1690    9.5940 C.ar   19  G19         0.1748
    405   C6       54.8840   38.5100    9.0020 C.ar   19  G19         0.3023
    406   O6       54.5130   38.4970    7.7940 O.2    19  G19        -0.2633
    407   N.1      54.1320   37.8330    9.9660 N.ar   19  G19        -0.1709
    408   C.2      54.4230   37.7910   11.3190 C.ar   19  G19         0.2606
    409   N.2      53.5570   37.1060   12.0800 N.pl3  19  G19        -0.0859
    410   N.3      55.4470   38.4240   11.8880 N.ar   19  G19        -0.1918
    411   C4       56.2120   39.0780   10.9690 C.ar   19  G19         0.1723
    412    P.3     62.4220   37.8550   11.6340 P.3    20  A20         0.2141
    413  OP1       63.8270   37.8870   12.1180 O.3    20  A20        -0.4373
    414  OP2       62.1060   38.3270   10.2590 O.2    20  A20        -0.5172
    415  O5'       61.8520   36.3600   11.7930 O.3    20  A20        -0.3114
    416  C5'       61.9410   35.4250   10.7130 C.3    20  A20         0.1812
    417  C4'       61.1250   34.1760   11.0020 C.3    20  A20         0.1773
    418  O4'       61.4860   33.6470   12.3000 O.3    20  A20        -0.3307
    419  C3'       59.6450   34.4090   11.0820 C.3    20  A20         0.1860
    420  O3'       59.0530   34.3560    9.7820 O.3    20  A20        -0.3112
    421  C2'       59.1650   33.2940   12.0240 C.3    20  A20         0.2309
    422  O2'       58.8990   32.0600   11.3660 O.3    20  A20        -0.2156
    423  C1'       60.3410   33.1640   12.9850 C.3    20  A20         0.2408
    424   N9       60.2030   33.9220   14.2410 N.ar   20  A20        -0.2693
    425   C8       60.7850   35.1330   14.5370 C.ar   20  A20         0.1816
    426   N7       60.5890   35.5450   15.7720 N.ar   20  A20        -0.2193
    427   C5       59.8290   34.5370   16.3410 C.ar   20  A20         0.1518
    428   C6       59.2870   34.3710   17.6480 C.ar   20  A20         0.1919
    429   N6       59.4720   35.2680   18.6390 N.pl3  20  A20        -0.1054
    430   N.1      58.5600   33.2390   17.8960 N.ar   20  A20        -0.2040
    431   C.2      58.4010   32.3390   16.8980 C.ar   20  A20         0.2016
    432   N.3      58.8600   32.3860   15.6280 N.ar   20  A20        -0.2048
    433   C4       59.5830   33.5160   15.4140 C.ar   20  A20         0.1692
    434    P.3     57.8430   35.3470    9.4460 P.3    21  A21         0.2141
    435  OP1       57.4640   35.1600    8.0230 O.2    21  A21        -0.5172
    436  OP2       58.2180   36.6970    9.9350 O.3    21  A21        -0.4373
    437  O5'       56.6700   34.7730   10.3840 O.3    21  A21        -0.3114
    438  C5'       56.0760   33.4920   10.0850 C.3    21  A21         0.1812
    439  C4'       55.1890   32.9950   11.2170 C.3    21  A21         0.1773
    440  O4'       55.9620   32.9120   12.4300 O.3    21  A21        -0.3307
    441  C3'       54.0080   33.8850   11.5450 C.3    21  A21         0.1860
    442  O3'       52.8780   33.4850   10.7840 O.3    21  A21        -0.3112
    443  C2'       53.7960   33.6500   13.0380 C.3    21  A21         0.2309
    444  O2'       52.9290   32.5590   13.3180 O.3    21  A21        -0.2156
    445  C1'       55.2040   33.3590   13.5350 C.3    21  A21         0.2408
    446   N9       55.8770   34.5210   14.1100 N.ar   21  A21        -0.2693
    447   C8       56.6850   35.4180   13.4540 C.ar   21  A21         0.1816
    448   N7       57.2140   36.3300   14.2340 N.ar   21  A21        -0.2193
    449   C5       56.7170   36.0210   15.4920 C.ar   21  A21         0.1518
    450   C6       56.9100   36.6100   16.7670 C.ar   21  A21         0.1919
    451   N6       57.6330   37.7100   16.9630 N.pl3  21  A21        -0.1054
    452   N.1      56.3040   36.0270   17.8310 N.ar   21  A21        -0.2040
    453   C.2      55.5230   34.9480   17.6190 C.ar   21  A21         0.2016
    454   N.3      55.2570   34.3120   16.4710 N.ar   21  A21        -0.2048
    455   C4       55.8850   34.9070   15.4330 C.ar   21  A21         0.1692
    456    P.3     51.9630   34.5800   10.0630 P.3    22  A22         0.2141
    457  OP1       50.8130   33.8750    9.4280 O.3    22  A22        -0.4373
    458  OP2       52.8490   35.4370    9.2400 O.2    22  A22        -0.5172
    459  O5'       51.4230   35.4630   11.2890 O.3    22  A22        -0.3114
    460  C5'       50.4110   34.9360   12.1950 C.3    22  A22         0.1812
    461  C4'       49.6250   36.0610   12.8500 C.3    22  A22         0.1773
    462  O4'       50.5260   36.9540   13.5040 O.3    22  A22        -0.3307
    463  C3'       48.8610   36.9450   11.8870 C.3    22  A22         0.1860
    464  O3'       47.5450   36.4770   11.7740 O.3    22  A22        -0.3112
    465  C2'       48.9440   38.3590   12.5210 C.3    22  A22         0.2309
    466  O2'       47.6920   38.8720   12.9580 O.3    22  A22        -0.2156
    467  C1'       49.8610   38.1560   13.7140 C.3    22  A22         0.2408
    468   N9       50.8520   39.2120   13.8850 N.ar   22  A22        -0.2693
    469   C8       51.6870   39.7390   12.9320 C.ar   22  A22         0.1816
    470   N7       52.4340   40.7160   13.3700 N.ar   22  A22        -0.2193
    471   C5       52.0660   40.8420   14.7050 C.ar   22  A22         0.1518
    472   C6       52.4960   41.7070   15.7440 C.ar   22  A22         0.1919
    473   N6       53.4600   42.6240   15.5890 N.pl3  22  A22        -0.1054
    474   N.1      51.9280   41.5580   16.9650 N.ar   22  A22        -0.2040
    475   C.2      50.9780   40.6280   17.1330 C.ar   22  A22         0.2016
    476   N.3      50.5030   39.7550   16.2480 N.ar   22  A22        -0.2048
    477   C4       51.1100   39.9060   15.0420 C.ar   22  A22         0.1692
    478    P.3     47.1040   35.5500   10.5510 P.3    23  U23         0.2141
    479  OP1       46.4400   34.3420   11.1030 O.3    23  U23        -0.4373
    480  OP2       48.2620   35.3900    9.6100 O.2    23  U23        -0.5172
    481  O5'       46.0010   36.4560    9.8420 O.3    23  U23        -0.3114
    482  C5'       46.3740   37.7130    9.2690 C.3    23  U23         0.1812
    483  C4'       45.1840   38.6550    9.1900 C.3    23  U23         0.1773
    484  O4'       44.2680   38.2120    8.1520 O.3    23  U23        -0.3307
    485  C3'       44.3690   38.7800   10.4780 C.3    23  U23         0.1860
    486  O3'       44.1170   40.1450   10.7360 O.3    23  U23        -0.3112
    487  C2'       43.0980   37.9790   10.1570 C.3    23  U23         0.2309
    488  O2'       41.9590   38.4430   10.8160 O.3    23  U23        -0.2156
    489  C1'       42.9540   38.1790    8.6550 C.3    23  U23         0.2420
    490   N.1      42.1930   37.0700    7.9790 N.ar   23  U23        -0.2534
    491   C.2      40.9440   37.3390    7.4430 C.ar   23  U23         0.3546
    492   O.2      40.4580   38.4470    7.4070 O.2    23  U23        -0.2443
    493   N.3      40.2620   36.2410    6.9670 N.ar   23  U23        -0.1530
    494   C4       40.7090   34.9220    6.9670 C.ar   23  U23         0.2846
    495   O4       40.0110   34.0470    6.4680 O.2    23  U23        -0.2650
    496   C5       42.0160   34.7200    7.5510 C.ar   23  U23         0.0814
    497   C6       42.6860   35.7740    8.0270 C.ar   23  U23         0.0870
    498    P.3     45.1360   41.0060   11.6250 P.3    24  U24         0.2141
    499  OP1       44.7090   42.4250   11.5650 O.3    24  U24        -0.4373
    500  OP2       46.5340   40.6460   11.2650 O.2    24  U24        -0.5172
    501  O5'       44.8670   40.4430   13.0860 O.3    24  U24        -0.3114
    502  C5'       43.6020   40.5970   13.6640 C.3    24  U24         0.1812
    503  C4'       43.6660   40.3130   15.1310 C.3    24  U24         0.1773
    504  O4'       43.8520   38.8910   15.3430 O.3    24  U24        -0.3307
    505  C3'       44.7960   41.0260   15.8800 C.3    24  U24         0.1860
    506  O3'       44.2620   41.6840   17.0240 O.3    24  U24        -0.3112
    507  C2'       45.7310   39.8910   16.2820 C.3    24  U24         0.2309
    508  O2'       46.3740   40.1450   17.5160 O.3    24  U24        -0.2156
    509  C1'       44.7620   38.7090   16.3930 C.3    24  U24         0.2420
    510   N.1      45.4240   37.3660   16.2440 N.ar   24  U24        -0.2534
    511   C.2      45.6840   36.6020   17.3820 C.ar   24  U24         0.3546
    512   O.2      45.3320   36.9230   18.5040 O.2    24  U24        -0.2443
    513   N.3      46.3300   35.4110   17.1470 N.ar   24  U24        -0.1530
    514   C4       46.7740   34.9280   15.9270 C.ar   24  U24         0.2846
    515   O4       47.4170   33.8730   15.8840 O.2    24  U24        -0.2650
    516   C5       46.4370   35.7580   14.7850 C.ar   24  U24         0.0814
    517   C6       45.8330   36.9400   14.9870 C.ar   24  U24         0.0870
    518    P.3     44.3600   43.2680   17.1840 P.3    25  C25         0.2141
    519  OP1       43.5780   43.6460   18.3980 O.3    25  C25        -0.4373
    520  OP2       44.0530   43.8890   15.8760 O.2    25  C25        -0.5172
    521  O5'       45.9080   43.4920   17.4630 O.3    25  C25        -0.3114
    522  C5'       46.3890   43.7620   18.7690 C.3    25  C25         0.1812
    523  C4'       47.7650   44.3920   18.6950 C.3    25  C25         0.1773
    524  O4'       48.7080   43.4340   18.1400 O.3    25  C25        -0.3307
    525  C3'       47.8570   45.5960   17.7760 C.3    25  C25         0.1860
    526  O3'       47.4840   46.7690   18.4560 O.3    25  C25        -0.3112
    527  C2'       49.3280   45.5970   17.3840 C.3    25  C25         0.2309
    528  O2'       50.1670   46.1700   18.3780 O.3    25  C25        -0.2156
    529  C1'       49.6010   44.1000   17.2460 C.3    25  C25         0.2420
    530   N.1      49.4030   43.5630   15.8290 N.ar   25  C25        -0.2535
    531   C.2      50.2940   43.9460   14.7680 C.ar   25  C25         0.3532
    532   O.2      51.2270   44.7390   14.9940 O.2    25  C25        -0.2443
    533   N.3      50.0910   43.4240   13.5130 N.ar   25  C25        -0.1739
    534   C4       49.0860   42.5630   13.3020 C.ar   25  C25         0.1759
    535   N.4      48.9130   42.0940   12.0730 N.pl3  25  C25        -0.1070
    536   C5       48.2010   42.1510   14.3560 C.ar   25  C25         0.0566
    537   C6       48.3830   42.6780   15.5810 C.ar   25  C25         0.0850
    538    P.3     46.7320   47.9330   17.6680 P.3    26  C26         0.2141
    539  OP1       46.5880   49.0870   18.5840 O.3    26  C26        -0.4373
    540  OP2       45.5340   47.3630   17.0080 O.2    26  C26        -0.5172
    541  O5'       47.7780   48.3000   16.5260 O.3    26  C26        -0.3114
    542  C5'       48.8870   49.1360   16.8040 C.3    26  C26         0.1812
    543  C4'       49.5560   49.5450   15.5220 C.3    26  C26         0.1773
    544  O4'       50.1190   48.3670   14.8870 O.3    26  C26        -0.3307
    545  C3'       48.6160   50.0830   14.4700 C.3    26  C26         0.1860
    546  O3'       48.2520   51.4240   14.7210 O.3    26  C26        -0.3112
    547  C2'       49.4560   49.9070   13.2090 C.3    26  C26         0.2309
    548  O2'       50.4620   50.8940   13.0720 O.3    26  C26        -0.2156
    549  C1'       50.0840   48.5340   13.4700 C.3    26  C26         0.2420
    550   N.1      49.3200   47.3820   12.8140 N.ar   26  C26        -0.2535
    551   C.2      49.5590   47.0600   11.4610 C.ar   26  C26         0.3532
    552   O.2      50.4450   47.6380   10.8530 O.2    26  C26        -0.2443
    553   N.3      48.8350   46.0710   10.8750 N.ar   26  C26        -0.1739
    554   C4       47.8910   45.4240   11.5750 C.ar   26  C26         0.1759
    555   N.4      47.2230   44.4330   10.9690 N.pl3  26  C26        -0.1070
    556   C5       47.6130   45.7540   12.9380 C.ar   26  C26         0.0566
    557   C6       48.3370   46.7300   13.5060 C.ar   26  C26         0.0850
    558    P.3     46.9400   52.0470   14.0100 P.3    27  C27         0.2141
    559  OP1       46.8130   53.4470   14.4940 O.3    27  C27        -0.4373
    560  OP2       45.7910   51.0980   14.1530 O.2    27  C27        -0.5172
    561  O5'       47.3320   52.0690   12.4390 O.3    27  C27        -0.3114
    562  C5'       47.9270   53.2180   11.8760 C.3    27  C27         0.1812
    563  C4'       48.0850   53.1010   10.3800 C.3    27  C27         0.1773
    564  O4'       48.6780   51.8290   10.0330 O.3    27  C27        -0.3307
    565  C3'       46.8110   53.1190    9.5680 C.3    27  C27         0.1860
    566  O3'       46.2740   54.4200    9.4610 O.3    27  C27        -0.3112
    567  C2'       47.3500   52.6290    8.2400 C.3    27  C27         0.2309
    568  O2'       48.0980   53.6280    7.5670 O.3    27  C27        -0.2156
    569  C1'       48.2650   51.4830    8.7040 C.3    27  C27         0.2420
    570   N.1      47.5580   50.1160    8.7290 N.ar   27  C27        -0.2535
    571   C.2      47.3290   49.3870    7.5190 C.ar   27  C27         0.3532
    572   O.2      47.7490   49.8200    6.4450 O.2    27  C27        -0.2443
    573   N.3      46.6550   48.2030    7.5880 N.ar   27  C27        -0.1739
    574   C4       46.2090   47.7490    8.7680 C.ar   27  C27         0.1759
    575   N.4      45.5860   46.5820    8.7830 N.pl3  27  C27        -0.1070
    576   C5       46.4030   48.4630    9.9820 C.ar   27  C27         0.0566
    577   C6       47.0600   49.6290    9.9230 C.ar   27  C27         0.0850
    578    P.3     44.6730   54.6350    9.4930 P.3    28  G28         0.2141
    579  OP1       44.4070   56.0760    9.2170 O.2    28  G28        -0.5172
    580  OP2       44.1280   54.0120   10.7320 O.3    28  G28        -0.4373
    581  O5'       44.1350   53.7470    8.2620 O.3    28  G28        -0.3114
    582  C5'       44.1920   54.2070    6.9110 C.3    28  G28         0.1812
    583  C4'       43.8940   53.0580    5.9450 C.3    28  G28         0.1773
    584  O4'       44.6730   51.8780    6.3190 O.3    28  G28        -0.3307
    585  C3'       42.4520   52.5370    5.9240 C.3    28  G28         0.1860
    586  O3'       41.6000   53.3320    5.0810 O.3    28  G28        -0.3112
    587  C2'       42.6790   51.1610    5.3260 C.3    28  G28         0.2309
    588  O2'       42.9790   51.2130    3.9420 O.3    28  G28        -0.2156
    589  C1'       43.8940   50.7110    6.1020 C.3    28  G28         0.2408
    590   N9       43.5440   50.0900    7.3790 N.ar   28  G28        -0.2693
    591   C8       43.5940   50.6620    8.6220 C.ar   28  G28         0.1817
    592   N7       43.2020   49.8630    9.5810 N.ar   28  G28        -0.2173
    593   C5       42.7780   48.7170    8.9220 C.ar   28  G28         0.1748
    594   C6       42.2530   47.5030    9.4420 C.ar   28  G28         0.3023
    595   O6       42.0190   47.2110   10.6320 O.2    28  G28        -0.2633
    596   N.1      42.0280   46.5630    8.4480 N.ar   28  G28        -0.1709
    597   C.2      42.2290   46.7730    7.1030 C.ar   28  G28         0.2606
    598   N.2      41.9140   45.7540    6.2850 N.pl3  28  G28        -0.0859
    599   N.3      42.6990   47.9150    6.5920 N.ar   28  G28        -0.1918
    600   C4       42.9750   48.8360    7.5650 C.ar   28  G28         0.1723
    601    P.3     39.9950   53.2840    5.2680 P.3    29  A29         0.2141
    602  OP1       39.4040   54.1430    4.1990 O.2    29  A29        -0.5172
    603  OP2       39.6780   53.5510    6.6970 O.3    29  A29        -0.4373
    604  O5'       39.6050   51.7510    4.9800 O.3    29  A29        -0.3114
    605  C5'       39.6940   51.2340    3.6640 C.3    29  A29         0.1812
    606  C4'       39.3460   49.7580    3.6160 C.3    29  A29         0.1773
    607  O4'       40.1190   49.0220    4.5890 O.3    29  A29        -0.3307
    608  C3'       37.9250   49.4090    3.9740 C.3    29  A29         0.1860
    609  O3'       37.0260   49.7010    2.9050 O.3    29  A29        -0.3112
    610  C2'       38.0610   47.9130    4.2510 C.3    29  A29         0.2309
    611  O2'       38.1740   47.1130    3.0890 O.3    29  A29        -0.2156
    612  C1'       39.3690   47.8840    5.0060 C.3    29  A29         0.2408
    613   N9       39.1970   47.9120    6.4440 N.ar   29  A29        -0.2693
    614   C8       39.5120   48.9290    7.2890 C.ar   29  A29         0.1816
    615   N7       39.2970   48.6500    8.5550 N.ar   29  A29        -0.2193
    616   C5       38.8010   47.3550    8.5260 C.ar   29  A29         0.1518
    617   C6       38.4160   46.4590    9.5430 C.ar   29  A29         0.1919
    618   N6       38.4150   46.7800   10.8130 N.pl3  29  A29        -0.1054
    619   N.1      37.9430   45.2530    9.1840 N.ar   29  A29        -0.2040
    620   C.2      37.8920   44.9490    7.8770 C.ar   29  A29         0.2016
    621   N.3      38.2200   45.7110    6.8320 N.ar   29  A29        -0.2048
    622   C4       38.6860   46.9060    7.2290 C.ar   29  A29         0.1692
    623    P.3     35.5470   50.2450    3.2390 P.3    30  C30         0.2141
    624  OP1       34.8380   50.4860    1.9530 O.2    30  C30        -0.5172
    625  OP2       35.6510   51.3340    4.2510 O.3    30  C30        -0.4373
    626  O5'       34.8700   48.9980    3.9670 O.3    30  C30        -0.3114
    627  C5'       34.4930   47.8710    3.2090 C.3    30  C30         0.1812
    628  C4'       34.2340   46.6970    4.1130 C.3    30  C30         0.1773
    629  O4'       35.2380   46.6380    5.1340 O.3    30  C30        -0.3307
    630  C3'       32.9700   46.7670    4.9190 C.3    30  C30         0.1860
    631  O3'       31.8950   46.4730    4.1330 O.3    30  C30        -0.3112
    632  C2'       33.2560   45.6680    5.9430 C.3    30  C30         0.2309
    633  O2'       33.1530   44.3540    5.4070 O.3    30  C30        -0.2156
    634  C1'       34.7050   45.9540    6.2520 C.3    30  C30         0.2420
    635   N.1      34.9160   46.7460    7.4910 N.ar   30  C30        -0.2535
    636   C.2      34.7840   46.1000    8.7330 C.ar   30  C30         0.3532
    637   O.2      34.4250   44.9090    8.7620 O.2    30  C30        -0.2443
    638   N.3      35.0850   46.7920    9.8710 N.ar   30  C30        -0.1739
    639   C4       35.4650   48.0670    9.8050 C.ar   30  C30         0.1759
    640   N.4      35.7480   48.6800   10.9560 N.pl3  30  C30        -0.1070
    641   C5       35.6100   48.7510    8.5530 C.ar   30  C30         0.0566
    642   C6       35.3250   48.0640    7.4300 C.ar   30  C30         0.0850
    643    P.3     30.4720   47.1010    4.4380 P.3    31  C31         0.2141
    644  OP1       29.6210   46.8680    3.2340 O.2    31  C31        -0.5172
    645  OP2       30.6500   48.4790    4.9770 O.3    31  C31        -0.4373
    646  O5'       29.9320   46.1900    5.6340 O.3    31  C31        -0.3114
    647  C5'       29.7420   44.8110    5.4200 C.3    31  C31         0.1812
    648  C4'       29.4480   44.1190    6.7130 C.3    31  C31         0.1773
    649  O4'       30.5620   44.2840    7.6090 O.3    31  C31        -0.3307
    650  C3'       28.3050   44.7010    7.4810 C.3    31  C31         0.1860
    651  O3'       27.1200   44.2500    6.9390 O.3    31  C31        -0.3112
    652  C2'       28.5710   44.1360    8.8680 C.3    31  C31         0.2309
    653  O2'       28.1840   42.7860    8.9760 O.3    31  C31        -0.2156
    654  C1'       30.0890   44.2250    8.9380 C.3    31  C31         0.2420
    655   N.1      30.6390   45.3830    9.7310 N.ar   31  C31        -0.2535
    656   C.2      30.7480   45.2570   11.1210 C.ar   31  C31         0.3532
    657   O.2      30.3080   44.2410   11.6660 O.2    31  C31        -0.2443
    658   N.3      31.3490   46.2560   11.8370 N.ar   31  C31        -0.1739
    659   C4       31.8420   47.3350   11.2140 C.ar   31  C31         0.1759
    660   N.4      32.3850   48.2920   11.9760 N.pl3  31  C31        -0.1070
    661   C5       31.7540   47.4890    9.7890 C.ar   31  C31         0.0566
    662   C6       31.1690   46.4910    9.0900 C.ar   31  C31         0.0850
    663    P.3     25.8030   45.1440    7.0020 P.3    32  G32         0.2141
    664  OP1       24.8240   44.5640    6.0440 O.2    32  G32        -0.5172
    665  OP2       26.1750   46.5780    6.8890 O.3    32  G32        -0.4373
    666  O5'       25.3160   44.9040    8.5080 O.3    32  G32        -0.3114
    667  C5'       24.9190   43.6340    8.9690 C.3    32  G32         0.1812
    668  C4'       24.5830   43.7180   10.4490 C.3    32  G32         0.1773
    669  O4'       25.7400   44.2260   11.1920 O.3    32  G32        -0.3307
    670  C3'       23.4360   44.6670   10.8150 C.3    32  G32         0.1860
    671  O3'       22.7630   44.1880   11.9930 O.3    32  G32        -0.3112
    672  C2'       24.1910   45.9640   11.1070 C.3    32  G32         0.2309
    673  O2'       23.4660   46.8550   11.8990 O.3    32  G32        -0.2156
    674  C1'       25.3750   45.4180   11.8780 C.3    32  G32         0.2408
    675   N9       26.5070   46.3240   11.9200 N.ar   32  G32        -0.2693
    676   C8       27.0330   47.0340   10.8700 C.ar   32  G32         0.1817
    677   N7       27.9860   47.8480   11.2150 N.ar   32  G32        -0.2173
    678   C5       28.1100   47.6590   12.5830 C.ar   32  G32         0.1748
    679   C6       28.9910   48.2620   13.5090 C.ar   32  G32         0.3023
    680   O6       29.8860   49.0910   13.2850 O.2    32  G32        -0.2633
    681   N.1      28.7570   47.8240   14.8170 N.ar   32  G32        -0.1709
    682   C.2      27.8020   46.9200   15.1700 C.ar   32  G32         0.2606
    683   N.2      27.7360   46.6100   16.4610 N.pl3  32  G32        -0.0859
    684   N.3      26.9740   46.3410   14.3090 N.ar   32  G32        -0.1918
    685   C4       27.2080   46.7250   13.0320 C.ar   32  G32         0.1723
    686    P.3     21.1650   44.1000   12.0440 P.3    33  G33         0.2141
    687  OP1       20.6250   43.9580   10.6480 O.2    33  G33        -0.5172
    688  OP2       20.6680   45.2070   12.8940 O.3    33  G33        -0.4373
    689  O5'       20.9500   42.7250   12.8430 O.3    33  G33        -0.3114
    690  C5'       20.9030   41.5030   12.1190 C.3    33  G33         0.1812
    691  C4'       20.3180   40.3960   12.9560 C.3    33  G33         0.1773
    692  O4'       21.0860   40.2330   14.1690 O.3    33  G33        -0.3307
    693  C3'       18.9030   40.6250   13.4360 C.3    33  G33         0.1860
    694  O3'       17.9960   40.2790   12.4230 O.3    33  G33        -0.3112
    695  C2'       18.8500   39.6660   14.6070 C.3    33  G33         0.2309
    696  O2'       18.7860   38.3130   14.1870 O.3    33  G33        -0.2156
    697  C1'       20.2140   39.9240   15.2400 C.3    33  G33         0.2408
    698   N9       20.2490   41.0300   16.2020 N.ar   33  G33        -0.2693
    699   C8       21.0040   42.1790   16.1010 C.ar   33  G33         0.1817
    700   N7       20.8950   42.9700   17.1300 N.ar   33  G33        -0.2173
    701   C5       20.0050   42.3100   17.9680 C.ar   33  G33         0.1748
    702   C6       19.5170   42.6790   19.2470 C.ar   33  G33         0.3023
    703   O6       19.7750   43.6960   19.9010 O.2    33  G33        -0.2633
    704   N.1      18.6050   41.7610   19.7410 N.ar   33  G33        -0.1709
    705   C.2      18.2510   40.5960   19.1100 C.ar   33  G33         0.2606
    706   N.2      17.3590   39.8300   19.7480 N.pl3  33  G33        -0.0859
    707   N.3      18.7480   40.2060   17.9360 N.ar   33  G33        -0.1918
    708   C4       19.6140   41.1080   17.4230 C.ar   33  G33         0.1723
    709    P.3     16.7430   41.2080   12.1190 P.3    34  U34         0.2141
    710  OP1       16.1420   40.7450   10.8540 O.2    34  U34        -0.5172
    711  OP2       17.1300   42.6380   12.2680 O.3    34  U34        -0.4373
    712  O5'       15.7590   40.8460   13.3230 O.3    34  U34        -0.3114
    713  C5'       15.2220   39.5330   13.4530 C.3    34  U34         0.1812
    714  C4'       14.3530   39.4370   14.6860 C.3    34  U34         0.1773
    715  O4'       15.1840   39.5260   15.8670 O.3    34  U34        -0.3307
    716  C3'       13.3780   40.5670   14.8620 C.3    34  U34         0.1860
    717  O3'       12.2360   40.3730   14.0590 O.3    34  U34        -0.3112
    718  C2'       13.0790   40.4830   16.3580 C.3    34  U34         0.2309
    719  O2'       12.1600   39.4670   16.6870 O.3    34  U34        -0.2156
    720  C1'       14.4610   40.1440   16.9180 C.3    34  U34         0.2420
    721   N.1      15.2180   41.3540   17.4030 N.ar   34  U34        -0.2534
    722   C.2      14.8470   41.9520   18.5990 C.ar   34  U34         0.3546
    723   O.2      13.9550   41.5370   19.3000 O.2    34  U34        -0.2443
    724   N.3      15.5490   43.0860   18.9280 N.ar   34  U34        -0.1530
    725   C4       16.5480   43.6980   18.1860 C.ar   34  U34         0.2846
    726   O4       17.1000   44.6920   18.6280 O.2    34  U34        -0.2650
    727   C5       16.8810   43.0350   16.9480 C.ar   34  U34         0.0814
    728   C6       16.2120   41.9170   16.6030 C.ar   34  U34         0.0870
    729    P.3     11.3970   41.6430   13.5540 P.3    35  G35         0.2141
    730  OP1       10.3520   41.1520   12.6240 O.2    35  G35        -0.5172
    731  OP2       12.3390   42.6930   13.1000 O.3    35  G35        -0.4373
    732  O5'       10.7120   42.1670   14.9020 O.3    35  G35        -0.3114
    733  C5'        9.4480   41.6820   15.2990 C.3    35  G35         0.1812
    734  C4'        9.0710   42.2110   16.6670 C.3    35  G35         0.1773
    735  O4'       10.1870   42.0750   17.5760 O.3    35  G35        -0.3307
    736  C3'        8.7600   43.6880   16.7460 C.3    35  G35         0.1860
    737  O3'        7.4790   43.9890   16.2230 O.3    35  G35        -0.3112
    738  C2'        8.8490   43.8910   18.2580 C.3    35  G35         0.2309
    739  O2'        7.7720   43.3070   18.9870 O.3    35  G35        -0.2156
    740  C1'       10.1290   43.1280   18.5410 C.3    35  G35         0.2408
    741   N9       11.3150   43.9730   18.4120 N.ar   35  G35        -0.2693
    742   C8       12.2310   43.9510   17.4010 C.ar   35  G35         0.1817
    743   N7       13.1400   44.8650   17.5070 N.ar   35  G35        -0.2173
    744   C5       12.8050   45.5540   18.6600 C.ar   35  G35         0.1748
    745   C6       13.4610   46.6360   19.3020 C.ar   35  G35         0.3023
    746   O6       14.4960   47.2100   18.9610 O.2    35  G35        -0.2633
    747   N.1      12.7890   47.0520   20.4430 N.ar   35  G35        -0.1709
    748   C.2      11.6470   46.4670   20.9360 C.ar   35  G35         0.2606
    749   N.2      11.1630   46.9860   22.0650 N.pl3  35  G35        -0.0859
    750   N.3      11.0490   45.4210   20.3750 N.ar   35  G35        -0.1918
    751   C4       11.6800   45.0240   19.2310 C.ar   35  G35         0.1723
    752    P.3      7.2260   45.4130   15.5450 P.3    36  G36         0.2141
    753  OP1        5.8350   45.4500   15.0460 O.3    36  G36        -0.4373
    754  OP2        8.3280   45.6830   14.5990 O.2    36  G36        -0.5172
    755  O5'        7.3720   46.4270   16.7780 O.3    36  G36        -0.3114
    756  C5'        6.3880   46.4510   17.8020 C.3    36  G36         0.1812
    757  C4'        6.6550   47.5560   18.8100 C.3    36  G36         0.1773
    758  O4'        7.9520   47.3640   19.4190 O.3    36  G36        -0.3307
    759  C3'        6.7130   48.9520   18.2360 C.3    36  G36         0.1860
    760  O3'        5.4230   49.4650   18.0690 O.3    36  G36        -0.3112
    761  C2'        7.5120   49.6990   19.2990 C.3    36  G36         0.2309
    762  O2'        6.7320   50.1160   20.4010 O.3    36  G36        -0.2156
    763  C1'        8.5270   48.6320   19.7220 C.3    36  G36         0.2408
    764   N9        9.8130   48.7520   19.0190 N.ar   36  G36        -0.2693
    765   C8       10.1880   48.1140   17.8690 C.ar   36  G36         0.1817
    766   N7       11.3560   48.4820   17.4310 N.ar   36  G36        -0.2173
    767   C5       11.7840   49.4330   18.3390 C.ar   36  G36         0.1748
    768   C6       12.9840   50.2040   18.3770 C.ar   36  G36         0.3023
    769   O6       13.9440   50.1970   17.5780 O.2    36  G36        -0.2633
    770   N.1      12.9880   51.0910   19.4470 N.ar   36  G36        -0.1709
    771   C.2      11.9760   51.2120   20.3690 C.ar   36  G36         0.2606
    772   N.2      12.1680   52.0920   21.3500 N.pl3  36  G36        -0.0859
    773   N.3      10.8490   50.5180   20.3300 N.ar   36  G36        -0.1918
    774   C4       10.8330   49.6290   19.3090 C.ar   36  G36         0.1723
    775    P.3      4.9770   50.0500   16.6400 P.3    37  U37         0.2141
    776  OP1        3.4930   50.0940   16.6040 O.3    37  U37        -0.4373
    777  OP2        5.7150   49.3000   15.5900 O.2    37  U37        -0.5172
    778  O5'        5.5360   51.5570   16.6720 O.3    37  U37        -0.3114
    779  C5'        5.1370   52.4630   17.7040 C.3    37  U37         0.1812
    780  C4'        6.2170   53.4990   17.9790 C.3    37  U37         0.1773
    781  O4'        7.4250   52.8260   18.4240 O.3    37  U37        -0.3307
    782  C3'        6.6660   54.3140   16.7800 C.3    37  U37         0.1860
    783  O3'        5.7810   55.3920   16.5280 O.3    37  U37        -0.3112
    784  C2'        8.0430   54.7900   17.2280 C.3    37  U37         0.2309
    785  O2'        8.0020   55.9550   18.0330 O.3    37  U37        -0.2156
    786  C1'        8.5630   53.5790   18.0290 C.3    37  U37         0.2420
    787   N.1       9.5130   52.7020   17.2190 N.ar   37  U37        -0.2534
    788   C.2      10.8830   52.9710   17.2530 C.ar   37  U37         0.3546
    789   O.2      11.3870   53.7980   17.9900 O.2    37  U37        -0.2443
    790   N.3      11.6470   52.2130   16.3890 N.ar   37  U37        -0.1530
    791   C4       11.1980   51.2520   15.4940 C.ar   37  U37         0.2846
    792   O4       12.0070   50.6670   14.7650 O.2    37  U37        -0.2650
    793   C5        9.7690   51.0440   15.4910 C.ar   37  U37         0.0814
    794   C6        8.9960   51.7740   16.3130 C.ar   37  U37         0.0870
    795    P.3      4.8400   55.3640   15.2190 P.3    38  A38         0.2141
    796  OP1        3.8670   56.4850   15.3070 O.3    38  A38        -0.4373
    797  OP2        4.3490   53.9730   15.0370 O.2    38  A38        -0.5172
    798  O5'        5.8540   55.6290   14.0140 O.3    38  A38        -0.3114
    799  C5'        6.1670   56.9210   13.5660 C.3    38  A38         0.1812
    800  C4'        7.3020   56.8070   12.5740 C.3    38  A38         0.1773
    801  O4'        7.5080   58.0600   11.8680 O.3    38  A38        -0.3307
    802  C3'        8.6570   56.4460   13.1820 C.3    38  A38         0.1860
    803  O3'        9.3410   55.5990   12.2860 O.3    38  A38        -0.3112
    804  C2'        9.3120   57.8210   13.2580 C.3    38  A38         0.2309
    805  O2'       10.7080   57.7760   13.3390 O.3    38  A38        -0.2156
    806  C1'        8.8770   58.3610   11.9240 C.3    38  A38         0.2408
    807   N9        9.0520   59.7860   11.7450 N.ar   38  A38        -0.2693
    808   C8        9.2300   60.7330   12.7120 C.ar   38  A38         0.1816
    809   N7        9.3490   61.9440   12.2440 N.ar   38  A38        -0.2193
    810   C5        9.1960   61.7890   10.8800 C.ar   38  A38         0.1518
    811   C6        9.2470   62.7040    9.8040 C.ar   38  A38         0.1919
    812   N6        9.4040   64.0230    9.9670 N.pl3  38  A38        -0.1054
    813   N.1       9.0600   62.2100    8.5540 N.ar   38  A38        -0.2040
    814   C.2       8.8980   60.8790    8.3960 C.ar   38  A38         0.2016
    815   N.3       8.8430   59.9290    9.3270 N.ar   38  A38        -0.2048
    816   C4        9.0170   60.4560   10.5560 C.ar   38  A38         0.1692
    817    P.3      9.5640   54.0450   12.6020 P.3    39  U39         0.2141
    818  OP1        8.3020   53.3350   12.2990 O.2    39  U39        -0.5172
    819  OP2       10.1720   53.9180   13.9400 O.3    39  U39        -0.4373
    820  O5'       10.6800   53.6580   11.5200 O.3    39  U39        -0.3114
    821  C5'       11.0390   52.3070   11.2720 C.3    39  U39         0.1812
    822  C4'       12.1410   52.2130   10.1980 C.3    39  U39         0.1773
    823  O4'       11.7670   52.9820    9.0170 O.3    39  U39        -0.3307
    824  C3'       13.5140   52.7320   10.6100 C.3    39  U39         0.1860
    825  O3'       14.5090   51.8970   10.0600 O.3    39  U39        -0.3112
    826  C2'       13.5170   54.1430    9.9980 C.3    39  U39         0.2309
    827  O2'       14.7950   54.6500    9.7130 O.3    39  U39        -0.2156
    828  C1'       12.7760   53.9080    8.7140 C.3    39  U39         0.2420
    829   N.1      12.1650   55.1530    8.1360 N.ar   39  U39        -0.2534
    830   C.2      12.7830   55.7500    7.0530 C.ar   39  U39         0.3546
    831   O.2      13.7750   55.2950    6.5130 O.2    39  U39        -0.2443
    832   N.3      12.1630   56.8650    6.5820 N.ar   39  U39        -0.1530
    833   C4       11.0610   57.4950    7.0980 C.ar   39  U39         0.2846
    834   O4       10.6410   58.5330    6.5550 O.2    39  U39        -0.2650
    835   C5       10.5000   56.8610    8.2680 C.ar   39  U39         0.0814
    836   C6       11.0410   55.7280    8.7220 C.ar   39  U39         0.0870
    837    P.3     15.1020   50.6620   10.8960 P.3    40  A40         0.2141
    838  OP1       15.8610   49.8090    9.9670 O.2    40  A40        -0.5172
    839  OP2       14.0140   50.0730   11.7220 O.3    40  A40        -0.4373
    840  O5'       16.1090   51.3530   11.9110 O.3    40  A40        -0.3114
    841  C5'       17.1980   52.1350   11.4700 C.3    40  A40         0.1812
    842  C4'       18.2110   52.2770   12.5960 C.3    40  A40         0.1773
    843  O4'       17.6810   53.1730   13.6320 O.3    40  A40        -0.3307
    844  C3'       18.5580   50.9690   13.3140 C.3    40  A40         0.1860
    845  O3'       19.9160   50.9840   13.7020 O.3    40  A40        -0.3112
    846  C2'       17.6440   51.0240   14.5390 C.3    40  A40         0.2309
    847  O2'       18.1330   50.2560   15.6190 O.3    40  A40        -0.2156
    848  C1'       17.6720   52.5140   14.8690 C.3    40  A40         0.2408
    849   N9       16.5210   52.9800   15.6230 N.ar   40  A40        -0.2693
    850   C8       15.2150   52.6010   15.4620 C.ar   40  A40         0.1816
    851   N7       14.3980   53.1440   16.3330 N.ar   40  A40        -0.2193
    852   C5       15.2180   53.9420   17.1170 C.ar   40  A40         0.1518
    853   C6       14.9580   54.7940   18.2150 C.ar   40  A40         0.1919
    854   N6       13.7520   54.9900   18.7180 N.pl3  40  A40        -0.1054
    855   N.1      15.9960   55.4430   18.7700 N.ar   40  A40        -0.2040
    856   C.2      17.2210   55.2700   18.2430 C.ar   40  A40         0.2016
    857   N.3      17.5940   54.4730   17.2510 N.ar   40  A40        -0.2048
    858   C4       16.5310   53.8400   16.7100 C.ar   40  A40         0.1692
    859    P.3     21.0610   50.4000   12.7720 P.3    41  G41         0.2141
    860  OP1       21.9560   51.5410   12.4200 O.3    41  G41        -0.4373
    861  OP2       20.4570   49.5750   11.6990 O.2    41  G41        -0.5172
    862  O5'       21.8450   49.4240   13.7590 O.3    41  G41        -0.3114
    863  C5'       21.1990   48.3330   14.3760 C.3    41  G41         0.1812
    864  C4'       22.0520   47.8360   15.5000 C.3    41  G41         0.1773
    865  O4'       23.3540   47.4820   14.9620 O.3    41  G41        -0.3307
    866  C3'       22.3470   48.8840   16.5530 C.3    41  G41         0.1860
    867  O3'       21.3580   48.8800   17.5670 O.3    41  G41        -0.3112
    868  C2'       23.7120   48.4600   17.0710 C.3    41  G41         0.2309
    869  O2'       23.6450   47.3700   17.9640 O.3    41  G41        -0.2156
    870  C1'       24.3820   48.0130   15.7880 C.3    41  G41         0.2408
    871   N9       25.0770   49.0610   15.0520 N.ar   41  G41        -0.2693
    872   C8       24.9780   49.2870   13.7130 C.ar   41  G41         0.1817
    873   N7       25.8280   50.1600   13.2680 N.ar   41  G41        -0.2173
    874   C5       26.5190   50.5740   14.3880 C.ar   41  G41         0.1748
    875   C6       27.5560   51.5090   14.5020 C.ar   41  G41         0.3023
    876   O6       28.0370   52.2130   13.6140 O.2    41  G41        -0.2633
    877   N.1      27.9940   51.6580   15.8020 N.ar   41  G41        -0.1709
    878   C.2      27.5200   50.9480   16.8640 C.ar   41  G41         0.2606
    879   N.2      28.0650   51.2310   18.0640 N.pl3  41  G41        -0.0859
    880   N.3      26.5470   50.0320   16.7660 N.ar   41  G41        -0.1918
    881   C4       26.1020   49.8920   15.4930 C.ar   41  G41         0.1723
    882    P.3     20.5190   50.2170   17.8740 P.3    42  U42         0.2141
    883  OP1       19.2760   49.8230   18.5440 O.3    42  U42        -0.4373
    884  OP2       20.4660   51.0320   16.6420 O.2    42  U42        -0.5172
    885  O5'       21.4310   51.0290   18.9040 O.3    42  U42        -0.3114
    886  C5'       21.9910   50.4310   20.0500 C.3    42  U42         0.1812
    887  C4'       22.8050   51.4750   20.8140 C.3    42  U42         0.1773
    888  O4'       24.0180   51.7610   20.0890 O.3    42  U42        -0.3307
    889  C3'       22.0980   52.8250   21.0410 C.3    42  U42         0.1860
    890  O3'       22.3080   53.2930   22.3620 O.3    42  U42        -0.3112
    891  C2'       22.7610   53.7510   20.0300 C.3    42  U42         0.2309
    892  O2'       22.8240   55.0990   20.4860 O.3    42  U42        -0.2156
    893  C1'       24.1630   53.1390   19.9020 C.3    42  U42         0.2420
    894   N.1      24.7570   53.3480   18.5690 N.ar   42  U42        -0.2534
    895   C.2      25.9660   53.9910   18.4590 C.ar   42  U42         0.3546
    896   O.2      26.6170   54.3630   19.4210 O.2    42  U42        -0.2443
    897   N.3      26.3880   54.1900   17.1700 N.ar   42  U42        -0.1530
    898   C4       25.7100   53.8610   16.0190 C.ar   42  U42         0.2846
    899   O4       26.1910   54.1330   14.9200 O.2    42  U42        -0.2650
    900   C5       24.4630   53.1960   16.2210 C.ar   42  U42         0.0814
    901   C6       24.0490   52.9550   17.4510 C.ar   42  U42         0.0870
    902    P.3     21.5370   52.6290   23.5860 P.3    43  C43         0.2141
    903  OP1       22.5670   52.2260   24.5790 O.3    43  C43        -0.4373
    904  OP2       20.5770   51.6110   23.0720 O.2    43  C43        -0.5172
    905  O5'       20.6610   53.8370   24.2130 O.3    43  C43        -0.3114
    906  C5'       19.9590   54.7610   23.3720 C.3    43  C43         0.1812
    907  C4'       18.5840   55.1430   23.9370 C.3    43  C43         0.1773
    908  O4'       17.7550   55.5910   22.8320 O.3    43  C43        -0.3307
    909  C3'       17.7890   54.0110   24.5870 C.3    43  C43         0.1860
    910  O3'       17.9340   54.0360   25.9900 O.3    43  C43        -0.3112
    911  C2'       16.3520   54.3120   24.1640 C.3    43  C43         0.2309
    912  O2'       15.7210   55.2810   24.9700 O.3    43  C43        -0.2156
    913  C1'       16.5560   54.8560   22.7840 C.3    43  C43         0.2420
    914   N.1      16.5920   53.7850   21.6820 N.ar   43  C43        -0.2535
    915   C.2      15.3770   53.2560   21.1940 C.ar   43  C43         0.3532
    916   O.2      14.3110   53.6520   21.6570 O.2    43  C43        -0.2443
    917   N.3      15.4090   52.3250   20.2140 N.ar   43  C43        -0.1739
    918   C4       16.5690   51.9170   19.7060 C.ar   43  C43         0.1759
    919   N.4      16.5230   51.0110   18.7310 N.pl3  43  C43        -0.1070
    920   C5       17.8240   52.4180   20.1840 C.ar   43  C43         0.0566
    921   C6       17.7890   53.3450   21.1590 C.ar   43  C43         0.0850
    922    P.3     17.7760   52.6940   26.8520 P.3    44  C44         0.2141
    923  OP1       17.9500   53.0730   28.2760 O.3    44  C44        -0.4373
    924  OP2       18.6440   51.6520   26.2470 O.2    44  C44        -0.5172
    925  O5'       16.2490   52.2690   26.6180 O.3    44  C44        -0.3114
    926  C5'       15.2310   52.8290   27.4080 C.3    44  C44         0.1812
    927  C4'       13.8980   52.1720   27.1150 C.3    44  C44         0.1773
    928  O4'       13.5470   52.3740   25.7190 O.3    44  C44        -0.3307
    929  C3'       13.8530   50.6600   27.2910 C.3    44  C44         0.1860
    930  O3'       13.6610   50.3000   28.6330 O.3    44  C44        -0.3112
    931  C2'       12.6530   50.2860   26.4340 C.3    44  C44         0.2309
    932  O2'       11.4020   50.5080   27.0860 O.3    44  C44        -0.2156
    933  C1'       12.8350   51.2290   25.2370 C.3    44  C44         0.2420
    934   N.1      13.6180   50.5730   24.0960 N.ar   44  C44        -0.2535
    935   C.2      12.9720   49.6390   23.2430 C.ar   44  C44         0.3532
    936   O.2      11.7580   49.4300   23.3690 O.2    44  C44        -0.2443
    937   N.3      13.6980   49.0390   22.2610 N.ar   44  C44        -0.1739
    938   C4       15.0010   49.2950   22.1380 C.ar   44  C44         0.1759
    939   N.4      15.6610   48.6850   21.1600 N.pl3  44  C44        -0.1070
    940   C5       15.6910   50.1760   23.0280 C.ar   44  C44         0.0566
    941   C6       14.9760   50.7860   23.9790 C.ar   44  C44         0.0850
    942    P.3     14.3620   48.9780   29.2030 P.3    45  A45         0.2141
    943  OP1       13.9750   48.8570   30.6330 O.3    45  A45        -0.4373
    944  OP2       15.8070   49.0070   28.8250 O.2    45  A45        -0.5172
    945  O5'       13.6670   47.7980   28.3530 O.3    45  A45        -0.3114
    946  C5'       12.3180   47.4200   28.6280 C.3    45  A45         0.1812
    947  C4'       11.8330   46.3240   27.6950 C.3    45  A45         0.1773
    948  O4'       11.8280   46.7900   26.3200 O.3    45  A45        -0.3307
    949  C3'       12.6740   45.0640   27.6490 C.3    45  A45         0.1860
    950  O3'       12.4060   44.2380   28.7540 O.3    45  A45        -0.3112
    951  C2'       12.1690   44.4460   26.3580 C.3    45  A45         0.2309
    952  O2'       10.8910   43.8370   26.5110 O.3    45  A45        -0.2156
    953  C1'       12.0910   45.6870   25.4600 C.3    45  A45         0.2408
    954   N9       13.3390   45.9380   24.7240 N.ar   45  A45        -0.2693
    955   C8       14.3720   46.7610   25.0920 C.ar   45  A45         0.1816
    956   N7       15.4050   46.7310   24.2670 N.ar   45  A45        -0.2193
    957   C5       15.0340   45.8140   23.2990 C.ar   45  A45         0.1518
    958   C6       15.6740   45.3450   22.1140 C.ar   45  A45         0.1919
    959   N6       16.8750   45.7620   21.6880 N.pl3  45  A45        -0.1054
    960   N.1      15.0180   44.4260   21.3810 N.ar   45  A45        -0.2040
    961   C.2      13.8070   44.0020   21.7900 C.ar   45  A45         0.2016
    962   N.3      13.0890   44.3960   22.8440 N.ar   45  A45        -0.2048
    963   C4       13.7610   45.3110   23.5670 C.ar   45  A45         0.1692
    964    P.3     13.5470   43.2630   29.3320 P.3    46  C46         0.2141
    965  OP1       12.8480   42.2140   30.1210 O.3    46  C46        -0.4373
    966  OP2       14.6060   44.0920   29.9770 O.2    46  C46        -0.5172
    967  O5'       14.1910   42.6130   28.0080 O.3    46  C46        -0.3114
    968  C5'       14.4500   41.2280   27.9180 C.3    46  C46         0.1812
    969  C4'       14.0950   40.6870   26.5390 C.3    46  C46         0.1773
    970  O4'       14.0320   41.7680   25.5450 O.3    46  C46        -0.3307
    971  C3'       15.1100   39.7250   25.9490 C.3    46  C46         0.1860
    972  O3'       14.9640   38.4140   26.5220 O.3    46  C46        -0.3112
    973  C2'       14.7210   39.7720   24.4700 C.3    46  C46         0.2309
    974  O2'       13.5110   39.0640   24.1940 O.3    46  C46        -0.2156
    975  C1'       14.5100   41.2820   24.2820 C.3    46  C46         0.2420
    976   N.1      15.7930   42.0320   23.8990 N.ar   46  C46        -0.2535
    977   C.2      16.4000   41.8210   22.6340 C.ar   46  C46         0.3532
    978   O.2      15.8670   41.0720   21.8080 O.2    46  C46        -0.2443
    979   N.3      17.5460   42.4870   22.3420 N.ar   46  C46        -0.1739
    980   C4       18.1060   43.3020   23.2500 C.ar   46  C46         0.1759
    981   N.4      19.2300   43.9410   22.9070 N.pl3  46  C46        -0.1070
    982   C5       17.5140   43.5320   24.5270 C.ar   46  C46         0.0566
    983   C6       16.3780   42.8840   24.8080 C.ar   46  C46         0.0850
    984    P.3     16.2590   37.4840   26.7870 P.3    47  G47         0.2141
    985  OP1       15.7710   36.2190   27.3880 O.2    47  G47        -0.5172
    986  OP2       17.2850   38.2900   27.4890 O.3    47  G47        -0.4373
    987  O5'       16.8090   37.1920   25.3160 O.3    47  G47        -0.3114
    988  C5'       16.0220   36.4610   24.3830 C.3    47  G47         0.1812
    989  C4'       16.8160   36.1840   23.1410 C.3    47  G47         0.1773
    990  O4'       17.0890   37.4280   22.4640 O.3    47  G47        -0.3307
    991  C3'       18.1710   35.5850   23.4180 C.3    47  G47         0.1860
    992  O3'       18.0500   34.1640   23.5860 O.3    47  G47        -0.3112
    993  C2'       18.9980   36.0210   22.1930 C.3    47  G47         0.2309
    994  O2'       18.8930   35.1430   21.0840 O.3    47  G47        -0.2156
    995  C1'       18.3690   37.3780   21.8550 C.3    47  G47         0.2408
    996   N9       19.1540   38.5400   22.2960 N.ar   47  G47        -0.2693
    997   C8       19.0170   39.2540   23.4660 C.ar   47  G47         0.1817
    998   N7       19.8270   40.2770   23.5610 N.ar   47  G47        -0.2173
    999   C5       20.5640   40.2230   22.3930 C.ar   47  G47         0.1748
   1000   C6       21.5640   41.1070   21.9010 C.ar   47  G47         0.3023
   1001   O6       22.0190   42.1270   22.4510 O.2    47  G47        -0.2633
   1002   N.1      22.0340   40.7170   20.6330 N.ar   47  G47        -0.1709
   1003   C.2      21.5610   39.6190   19.9230 C.ar   47  G47         0.2606
   1004   N.2      22.0760   39.4170   18.6970 N.pl3  47  G47        -0.0859
   1005   N.3      20.6250   38.7930   20.3780 N.ar   47  G47        -0.1918
   1006   C4       20.1530   39.1660   21.5980 C.ar   47  G47         0.1723
   1007    P.3     18.9950   33.3710   24.6170 P.3    48  A48         0.2141
   1008  OP1       18.4600   31.9950   24.7400 O.2    48  A48        -0.5172
   1009  OP2       19.1920   34.1920   25.8490 O.3    48  A48        -0.4373
   1010  O5'       20.3840   33.3220   23.8170 O.3    48  A48        -0.3114
   1011  C5'       20.5030   32.5180   22.6430 C.3    48  A48         0.1812
   1012  C4'       21.9250   32.5250   22.1190 C.3    48  A48         0.1773
   1013  O4'       22.2990   33.8850   21.7890 O.3    48  A48        -0.3307
   1014  C3'       22.9930   32.1030   23.1100 C.3    48  A48         0.1860
   1015  O3'       23.1120   30.6920   23.2250 O.3    48  A48        -0.3112
   1016  C2'       24.2300   32.7530   22.5140 C.3    48  A48         0.2309
   1017  O2'       24.7230   32.0870   21.3660 O.3    48  A48        -0.2156
   1018  C1'       23.6620   34.1080   22.1370 C.3    48  A48         0.2408
   1019   N9       23.7180   35.0630   23.2430 N.ar   48  A48        -0.2693
   1020   C8       22.6640   35.5130   24.0000 C.ar   48  A48         0.1816
   1021   N7       23.0070   36.3370   24.9570 N.ar   48  A48        -0.2193
   1022   C5       24.3970   36.4130   24.8550 C.ar   48  A48         0.1518
   1023   C6       25.3760   37.1540   25.5830 C.ar   48  A48         0.1919
   1024   N6       25.0630   37.9510   26.6250 N.pl3  48  A48        -0.1054
   1025   N.1      26.6850   37.0320   25.1950 N.ar   48  A48        -0.2040
   1026   C.2      26.9820   36.2290   24.1480 C.ar   48  A48         0.2016
   1027   N.3      26.1560   35.5030   23.3780 N.ar   48  A48        -0.2048
   1028   C4       24.8590   35.6330   23.7950 C.ar   48  A48         0.1692
   1029    P.3     23.4390   30.0730   24.6660 P.3    49  A49         0.2141
   1030  OP1       23.4990   28.5920   24.5560 O.2    49  A49        -0.5172
   1031  OP2       22.5190   30.7070   25.6460 O.3    49  A49        -0.4373
   1032  O5'       24.9090   30.6420   24.9700 O.3    49  A49        -0.3114
   1033  C5'       26.0730   30.2040   24.2480 C.3    49  A49         0.1812
   1034  C4'       27.2970   30.9460   24.7570 C.3    49  A49         0.1773
   1035  O4'       27.0390   32.3730   24.6910 O.3    49  A49        -0.3307
   1036  C3'       27.6370   30.6770   26.2200 C.3    49  A49         0.1860
   1037  O3'       28.5170   29.5730   26.3280 O.3    49  A49        -0.3112
   1038  C2'       28.2720   31.9960   26.6740 C.3    49  A49         0.2309
   1039  O2'       29.6370   32.1250   26.3190 O.3    49  A49        -0.2156
   1040  C1'       27.4470   33.0080   25.8980 C.3    49  A49         0.2408
   1041   N9       26.2600   33.5230   26.6010 N.ar   49  A49        -0.2693
   1042   C8       24.9560   33.2740   26.2840 C.ar   49  A49         0.1816
   1043   N7       24.0890   33.9360   27.0080 N.ar   49  A49        -0.2193
   1044   C5       24.8700   34.7350   27.8150 C.ar   49  A49         0.1518
   1045   C6       24.5450   35.7150   28.7860 C.ar   49  A49         0.1919
   1046   N6       23.2900   36.0620   29.1000 N.pl3  49  A49        -0.1054
   1047   N.1      25.5670   36.3060   29.4400 N.ar   49  A49        -0.2040
   1048   C.2      26.8300   35.9790   29.1040 C.ar   49  A49         0.2016
   1049   N.3      27.2560   35.0920   28.1970 N.ar   49  A49        -0.2048
   1050   C4       26.2180   34.5010   27.5770 C.ar   49  A49         0.1692
   1051    P.3     28.2290   28.3970   27.3980 P.3    50  A50         0.2141
   1052  OP1       29.0030   27.2060   26.9760 O.2    50  A50        -0.5172
   1053  OP2       26.7620   28.2870   27.6000 O.3    50  A50        -0.4373
   1054  O5'       28.8710   28.9710   28.7540 O.3    50  A50        -0.3114
   1055  C5'       30.2630   29.3510   28.8060 C.3    50  A50         0.1812
   1056  C4'       30.5450   30.2750   29.9860 C.3    50  A50         0.1773
   1057  O4'       30.0020   31.5950   29.7110 O.3    50  A50        -0.3307
   1058  C3'       29.9040   29.8620   31.3110 C.3    50  A50         0.1860
   1059  O3'       30.7240   28.9280   32.0130 O.3    50  A50        -0.3112
   1060  C2'       29.7910   31.1950   32.0460 C.3    50  A50         0.2309
   1061  O2'       30.9960   31.5810   32.6930 O.3    50  A50        -0.2156
   1062  C1'       29.4510   32.1500   30.9010 C.3    50  A50         0.2408
   1063   N9       28.0060   32.3360   30.7290 N.ar   50  A50        -0.2693
   1064   C8       27.1610   31.6190   29.9190 C.ar   50  A50         0.1816
   1065   N7       25.8980   31.9480   30.0400 N.ar   50  A50        -0.2193
   1066   C5       25.9040   32.9330   31.0150 C.ar   50  A50         0.1518
   1067   C6       24.8740   33.7230   31.5940 C.ar   50  A50         0.1919
   1068   N6       23.5780   33.6250   31.2530 N.pl3  50  A50        -0.1054
   1069   N.1      25.2290   34.6030   32.5640 N.ar   50  A50        -0.2040
   1070   C.2      26.5170   34.6840   32.9330 C.ar   50  A50         0.2016
   1071   N.3      27.5700   34.0240   32.4440 N.ar   50  A50        -0.2048
   1072   C4       27.1940   33.1590   31.4760 C.ar   50  A50         0.1692
   1073    P.3     30.0390   27.8040   32.9320 P.3    51  G51         0.2141
   1074  OP1       31.1200   26.9160   33.4410 O.3    51  G51        -0.4373
   1075  OP2       28.9000   27.2140   32.1810 O.2    51  G51        -0.5172
   1076  O5'       29.4290   28.6620   34.1600 O.3    51  G51        -0.3114
   1077  C5'       30.3130   29.2110   35.1650 C.3    51  G51         0.1812
   1078  C4'       29.6080   30.2050   36.0820 C.3    51  G51         0.1773
   1079  O4'       29.0220   31.2860   35.3160 O.3    51  G51        -0.3307
   1080  C3'       28.4430   29.6550   36.8700 C.3    51  G51         0.1860
   1081  O3'       28.8780   28.9170   37.9880 O.3    51  G51        -0.3112
   1082  C2'       27.7070   30.9310   37.2600 C.3    51  G51         0.2309
   1083  O2'       28.2720   31.5980   38.3770 O.3    51  G51        -0.2156
   1084  C1'       27.8550   31.7590   35.9830 C.3    51  G51         0.2408
   1085   N9       26.6960   31.5990   35.1000 N.ar   51  G51        -0.2693
   1086   C8       26.5810   30.7640   34.0050 C.ar   51  G51         0.1817
   1087   N7       25.3740   30.7380   33.4910 N.ar   51  G51        -0.2173
   1088   C5       24.6310   31.5680   34.3240 C.ar   51  G51         0.1748
   1089   C6       23.2560   31.9500   34.2710 C.ar   51  G51         0.3023
   1090   O6       22.3780   31.5920   33.4620 O.2    51  G51        -0.2633
   1091   N.1      22.9230   32.8010   35.3290 N.ar   51  G51        -0.1709
   1092   C.2      23.8000   33.2220   36.3150 C.ar   51  G51         0.2606
   1093   N.2      23.3090   34.0320   37.2530 N.pl3  51  G51        -0.0859
   1094   N.3      25.0730   32.8830   36.3670 N.ar   51  G51        -0.1918
   1095   C4       25.4270   32.0700   35.3420 C.ar   51  G51         0.1723
   1096    P.3     28.0010   27.6740   38.4720 P.3    52  C52         0.2141
   1097  OP1       28.7870   26.9310   39.4880 O.3    52  C52        -0.4373
   1098  OP2       27.5010   26.9630   37.2710 O.2    52  C52        -0.5172
   1099  O5'       26.7390   28.3840   39.1680 O.3    52  C52        -0.3114
   1100  C5'       26.8910   29.0460   40.4240 C.3    52  C52         0.1812
   1101  C4'       25.6610   29.8600   40.7690 C.3    52  C52         0.1773
   1102  O4'       25.2730   30.6580   39.6260 O.3    52  C52        -0.3307
   1103  C3'       24.4130   29.0530   41.0960 C.3    52  C52         0.1860
   1104  O3'       24.4280   28.5890   42.4530 O.3    52  C52        -0.3112
   1105  C2'       23.3160   30.0800   40.8560 C.3    52  C52         0.2309
   1106  O2'       23.1070   30.9540   41.9540 O.3    52  C52        -0.2156
   1107  C1'       23.8600   30.8450   39.6410 C.3    52  C52         0.2420
   1108   N.1      23.2590   30.3580   38.3270 N.ar   52  C52        -0.2535
   1109   C.2      21.9060   30.6670   38.0140 C.ar   52  C52         0.3532
   1110   O.2      21.2490   31.3970   38.7750 O.2    52  C52        -0.2443
   1111   N.3      21.3610   30.1570   36.8730 N.ar   52  C52        -0.1739
   1112   C4       22.0960   29.3770   36.0630 C.ar   52  C52         0.1759
   1113   N.4      21.5160   28.9130   34.9500 N.pl3  52  C52        -0.1070
   1114   C5       23.4560   29.0300   36.3700 C.ar   52  C52         0.0566
   1115   C6       23.9880   29.5270   37.5010 C.ar   52  C52         0.0850
   1116    P.3     23.8190   27.1460   42.8190 P.3    53  U53         0.2141
   1117  OP1       24.1670   26.8490   44.2310 O.3    53  U53        -0.4373
   1118  OP2       24.2230   26.1940   41.7570 O.2    53  U53        -0.5172
   1119  O5'       22.2330   27.3690   42.6970 O.3    53  U53        -0.3114
   1120  C5'       21.5370   28.1830   43.6410 C.3    53  U53         0.1812
   1121  C4'       20.1480   28.5480   43.1350 C.3    53  U53         0.1775
   1122  O4'       20.2420   29.1830   41.8330 O.3    53  U53        -0.3307
   1123  C3'       19.2090   27.3810   42.8920 C.3    53  U53         0.1904
   1124  O3'       18.6440   26.9150   44.1070 O.3    53  U53        -0.2674
   1125  C2'       18.1670   28.0150   41.9660 C.3    53  U53         0.2311
   1126  O2'       17.1950   28.7910   42.6490 O.3    53  U53        -0.2156
   1127  C1'       19.0480   28.9190   41.0940 C.3    53  U53         0.2420
   1128   N.1      19.3890   28.2980   39.7400 N.ar   53  U53        -0.2534
   1129   C.2      18.4320   28.3080   38.7300 C.ar   53  U53         0.3546
   1130   O.2      17.3530   28.8540   38.8380 O.2    53  U53        -0.2443
   1131   N.3      18.8130   27.6880   37.5590 N.ar   53  U53        -0.1530
   1132   C4       20.0120   27.0350   37.3120 C.ar   53  U53         0.2846
   1133   O4       20.2090   26.5190   36.2170 O.2    53  U53        -0.2650
   1134   C5       20.9520   27.0520   38.4090 C.ar   53  U53         0.0814
   1135   C6       20.6130   27.6670   39.5550 C.ar   53  U53         0.0870
   1136    P.3     18.6950   25.3480   44.4570 Pac    54  U54         0.5327
   1137  OP1       20.0820   25.0160   44.8790 O.3    54  U54        -0.1145
   1138  OP2       18.0680   24.6050   43.3360 O.2    54  U54        -0.2224
   1139  O5'       17.7160   25.2330   45.7230 O.3    54  U54        -0.1145
   1140    P.3     11.4950   33.9130   31.8270 Pac    57  G57         0.3942
   1141  OP1       10.0410   34.2560   31.9530 O.3    57  G57        -0.1425
   1142  OP2       12.1200   34.7390   30.7520 O.3    57  G57        -0.1425
   1143  O5'       12.2640   34.2050   33.2250 O.3    57  G57        -0.2926
   1144  C5'       11.6120   34.9460   34.2800 C.3    57  G57         0.1829
   1145  C4'       12.3460   34.8230   35.6140 C.3    57  G57         0.1774
   1146  O4'       12.7260   33.4420   35.8740 O.3    57  G57        -0.3307
   1147  C3'       13.6620   35.5840   35.7400 C.3    57  G57         0.1860
   1148  O3'       13.4450   36.9710   35.9650 O.3    57  G57        -0.3112
   1149  C2'       14.2540   34.8880   36.9600 C.3    57  G57         0.2309
   1150  O2'       13.5840   35.2330   38.1700 O.3    57  G57        -0.2156
   1151  C1'       13.9600   33.4300   36.6000 C.3    57  G57         0.2408
   1152   N9       15.0220   32.8030   35.7830 N.ar   57  G57        -0.2693
   1153   C8       15.0230   32.5920   34.4200 C.ar   57  G57         0.1817
   1154   N7       16.1320   32.0650   33.9710 N.ar   57  G57        -0.2173
   1155   C5       16.9180   31.9080   35.1040 C.ar   57  G57         0.1748
   1156   C6       18.2280   31.3690   35.2500 C.ar   57  G57         0.3023
   1157   O6       18.9770   30.9230   34.3710 O.2    57  G57        -0.2633
   1158   N.1      18.6920   31.4740   36.5640 N.ar   57  G57        -0.1709
   1159   C.2      17.9670   32.0000   37.6130 C.ar   57  G57         0.2606
   1160   N.2      18.5520   31.9730   38.8210 N.pl3  57  G57        -0.0859
   1161   N.3      16.7330   32.4810   37.4940 N.ar   57  G57        -0.1918
   1162   C4       16.2670   32.3970   36.2200 C.ar   57  G57         0.1723
   1163    P.3     14.5110   38.0560   35.4380 P.3    58  C58         0.2141
   1164  OP1       13.9180   39.3930   35.6640 O.3    58  C58        -0.4373
   1165  OP2       14.9510   37.6810   34.0650 O.2    58  C58        -0.5172
   1166  O5'       15.7590   37.8490   36.4280 O.3    58  C58        -0.3114
   1167  C5'       15.7280   38.3750   37.7490 C.3    58  C58         0.1812
   1168  C4'       16.9150   37.8880   38.5530 C.3    58  C58         0.1773
   1169  O4'       17.0650   36.4550   38.3630 O.3    58  C58        -0.3307
   1170  C3'       18.2710   38.4480   38.1360 C.3    58  C58         0.1860
   1171  O3'       18.5150   39.7600   38.6780 O.3    58  C58        -0.3112
   1172  C2'       19.2150   37.3990   38.7190 C.3    58  C58         0.2309
   1173  O2'       19.4470   37.5480   40.1130 O.3    58  C58        -0.2156
   1174  C1'       18.4480   36.1110   38.4290 C.3    58  C58         0.2420
   1175   N.1      18.8930   35.4370   37.1270 N.ar   58  C58        -0.2535
   1176   C.2      20.1500   34.7830   37.0820 C.ar   58  C58         0.3532
   1177   O.2      20.8460   34.7300   38.1090 O.2    58  C58        -0.2443
   1178   N.3      20.5520   34.1990   35.9170 N.ar   58  C58        -0.1739
   1179   C4       19.7710   34.2500   34.8320 C.ar   58  C58         0.1759
   1180   N.4      20.1990   33.6240   33.7340 N.pl3  58  C58        -0.1070
   1181   C5       18.5070   34.9390   34.8330 C.ar   58  C58         0.0566
   1182   C6       18.1150   35.5220   35.9850 C.ar   58  C58         0.0850
   1183    P.3     19.4480   40.8050   37.8700 P.3    59  U59         0.2141
   1184  OP1       19.4560   42.0830   38.6300 O.3    59  U59        -0.4373
   1185  OP2       19.0290   40.7960   36.4430 O.2    59  U59        -0.5172
   1186  O5'       20.9070   40.1420   37.9430 O.3    59  U59        -0.3114
   1187  C5'       21.6090   40.0750   39.1890 C.3    59  U59         0.1812
   1188  C4'       22.9710   39.4300   39.0090 C.3    59  U59         0.1773
   1189  O4'       22.8110   38.0600   38.5660 O.3    59  U59        -0.3307
   1190  C3'       23.8410   40.0400   37.9310 C.3    59  U59         0.1860
   1191  O3'       24.4610   41.2250   38.3790 O.3    59  U59        -0.3112
   1192  C2'       24.8370   38.9190   37.6830 C.3    59  U59         0.2309
   1193  O2'       25.8310   38.8180   38.6950 O.3    59  U59        -0.2156
   1194  C1'       23.9110   37.7070   37.7240 C.3    59  U59         0.2420
   1195   N.1      23.3990   37.2570   36.3350 N.ar   59  U59        -0.2534
   1196   C.2      24.2620   36.5630   35.4690 C.ar   59  U59         0.3546
   1197   O.2      25.4250   36.3050   35.7290 O.2    59  U59        -0.2443
   1198   N.3      23.6950   36.1550   34.2920 N.ar   59  U59        -0.1530
   1199   C4       22.3980   36.3520   33.8750 C.ar   59  U59         0.2846
   1200   O4       22.0510   35.9250   32.7790 O.2    59  U59        -0.2650
   1201   C5       21.5640   37.0990   34.8000 C.ar   59  U59         0.0814
   1202   C6       22.0750   37.4940   35.9780 C.ar   59  U59         0.0870
   1203    P.3     24.6900   42.4510   37.3580 P.3    60  U60         0.2141
   1204  OP1       25.1420   43.6100   38.1710 O.3    60  U60        -0.4373
   1205  OP2       23.4840   42.5830   36.4830 O.2    60  U60        -0.5172
   1206  O5'       25.9090   41.9460   36.4370 O.3    60  U60        -0.3114
   1207  C5'       27.1710   41.6280   37.0360 C.3    60  U60         0.1812
   1208  C4'       28.0620   40.8580   36.0800 C.3    60  U60         0.1773
   1209  O4'       27.4840   39.5610   35.7800 O.3    60  U60        -0.3307
   1210  C3'       28.2330   41.4830   34.7210 C.3    60  U60         0.1860
   1211  O3'       29.1360   42.5660   34.7700 O.3    60  U60        -0.3112
   1212  C2'       28.7440   40.2950   33.9090 C.3    60  U60         0.2309
   1213  O2'       30.1100   39.9940   34.1530 O.3    60  U60        -0.2156
   1214  C1'       27.8490   39.1780   34.4520 C.3    60  U60         0.2420
   1215   N.1      26.5800   38.9360   33.6020 N.ar   60  U60        -0.2534
   1216   C.2      26.6600   38.1140   32.4780 C.ar   60  U60         0.3546
   1217   O.2      27.6920   37.5520   32.1220 O.2    60  U60        -0.2443
   1218   N.3      25.4700   37.9660   31.7790 N.ar   60  U60        -0.1530
   1219   C4       24.2450   38.5610   32.0610 C.ar   60  U60         0.2846
   1220   O4       23.2760   38.3430   31.3310 O.2    60  U60        -0.2650
   1221   C5       24.2390   39.4120   33.2340 C.ar   60  U60         0.0814
   1222   C6       25.3800   39.5770   33.9350 C.ar   60  U60         0.0870
   1223    P.3     28.8300   43.8840   33.9030 P.3    61  U61         0.2141
   1224  OP1       29.7820   44.9360   34.3180 O.3    61  U61        -0.4373
   1225  OP2       27.3720   44.1570   33.9540 O.2    61  U61        -0.5172
   1226  O5'       29.1940   43.4040   32.4170 O.3    61  U61        -0.3114
   1227  C5'       30.5360   42.9610   32.1150 C.3    61  U61         0.1812
   1228  C4'       30.6170   42.2980   30.7470 C.3    61  U61         0.1773
   1229  O4'       29.8140   41.0860   30.7340 O.3    61  U61        -0.3307
   1230  C3'       30.0660   43.1190   29.5930 C.3    61  U61         0.1860
   1231  O3'       31.0130   44.1000   29.1660 O.3    61  U61        -0.3112
   1232  C2'       29.8010   42.0300   28.5470 C.3    61  U61         0.2309
   1233  O2'       30.9770   41.6030   27.8790 O.3    61  U61        -0.2156
   1234  C1'       29.2520   40.9020   29.4340 C.3    61  U61         0.2420
   1235   N.1      27.7320   40.8950   29.5400 N.ar   61  U61        -0.2534
   1236   C.2      26.9870   40.1710   28.6130 C.ar   61  U61         0.3546
   1237   O.2      27.4870   39.5150   27.6950 O.2    61  U61        -0.2443
   1238   N.3      25.6150   40.2560   28.7940 N.ar   61  U61        -0.1530
   1239   C4       24.9310   40.9860   29.7710 C.ar   61  U61         0.2846
   1240   O4       23.6960   40.9820   29.7950 O.2    61  U61        -0.2650
   1241   C5       25.7770   41.7060   30.6910 C.ar   61  U61         0.0814
   1242   C6       27.1070   41.6390   30.5450 C.ar   61  U61         0.0870
   1243    P.3     30.6120   45.6660   29.1750 P.3    62  G62         0.2141
   1244  OP1       31.8740   46.4490   29.1900 O.2    62  G62        -0.5172
   1245  OP2       29.5880   45.8980   30.2180 O.3    62  G62        -0.4373
   1246  O5'       29.8840   45.8720   27.7780 O.3    62  G62        -0.3114
   1247  C5'       30.6200   45.7640   26.5670 C.3    62  G62         0.1812
   1248  C4'       30.4510   47.0090   25.7100 C.3    62  G62         0.1773
   1249  O4'       29.5080   46.7600   24.6600 O.3    62  G62        -0.3307
   1250  C3'       29.9780   48.2690   26.4160 C.3    62  G62         0.1860
   1251  O3'       30.6690   49.3960   25.8380 O.3    62  G62        -0.3112
   1252  C2'       28.4770   48.2820   26.1170 C.3    62  G62         0.2309
   1253  O2'       27.9510   49.5890   26.0870 O.3    62  G62        -0.2156
   1254  C1'       28.4430   47.6710   24.7270 C.3    62  G62         0.2408
   1255   N9       27.2320   46.9330   24.3720 N.ar   62  G62        -0.2693
   1256   C8       26.1650   46.6130   25.1800 C.ar   62  G62         0.1817
   1257   N7       25.2710   45.8680   24.5870 N.ar   62  G62        -0.2173
   1258   C5       25.7860   45.6560   23.3120 C.ar   62  G62         0.1748
   1259   C6       25.2460   44.9350   22.2090 C.ar   62  G62         0.3023
   1260   O6       24.1840   44.3020   22.1530 O.2    62  G62        -0.2633
   1261   N.1      26.0780   44.9840   21.0870 N.ar   62  G62        -0.1709
   1262   C.2      27.2840   45.6460   21.0300 C.ar   62  G62         0.2606
   1263   N.2      27.9480   45.5660   19.8630 N.pl3  62  G62        -0.0859
   1264   N.3      27.7970   46.3450   22.0480 N.ar   62  G62        -0.1918
   1265   C4       26.9970   46.2940   23.1630 C.ar   62  G62         0.1723
   1266    P.3     30.8860   50.7690   26.6490 P.3    63  A63         0.2141
   1267  OP1       32.2700   51.2310   26.3690 O.2    63  A63        -0.5172
   1268  OP2       30.4190   50.5930   28.0560 O.3    63  A63        -0.4373
   1269  O5'       29.8190   51.7300   25.9270 O.3    63  A63        -0.3114
   1270  C5'       30.2380   52.7900   25.1220 C.3    63  A63         0.1812
   1271  C4'       29.6320   52.7060   23.7450 C.3    63  A63         0.1773
   1272  O4'       29.0090   51.4390   23.5180 O.3    63  A63        -0.3307
   1273  C3'       28.5040   53.6510   23.4680 C.3    63  A63         0.1860
   1274  O3'       28.9920   54.9590   23.3010 O.3    63  A63        -0.3112
   1275  C2'       27.9710   53.0800   22.1570 C.3    63  A63         0.2309
   1276  O2'       28.6920   53.5720   21.0430 O.3    63  A63        -0.2156
   1277  C1'       28.2330   51.5800   22.3370 C.3    63  A63         0.2408
   1278   N9       27.0330   50.7710   22.4470 N.ar   63  A63        -0.2693
   1279   C8       26.1980   50.6760   23.5180 C.ar   63  A63         0.1816
   1280   N7       25.2260   49.8040   23.3570 N.ar   63  A63        -0.2193
   1281   C5       25.4240   49.3200   22.0860 C.ar   63  A63         0.1518
   1282   C6       24.7330   48.3660   21.3220 C.ar   63  A63         0.1919
   1283   N6       23.6480   47.7340   21.7540 N.pl3  63  A63        -0.1054
   1284   N.1      25.2390   48.0360   20.1120 N.ar   63  A63        -0.2040
   1285   C.2      26.3240   48.6900   19.6660 C.ar   63  A63         0.2016
   1286   N.3      27.0610   49.6070   20.2960 N.ar   63  A63        -0.2048
   1287   C4       26.5550   49.8740   21.5210 C.ar   63  A63         0.1692
   1288    P.3     28.3780   56.1550   24.1760 P.3    64  U64         0.2141
   1289  OP1       29.2090   57.3590   23.9100 O.2    64  U64        -0.5172
   1290  OP2       28.1870   55.6750   25.5710 O.3    64  U64        -0.4373
   1291  O5'       26.9240   56.3700   23.5390 O.3    64  U64        -0.3114
   1292  C5'       26.7780   56.5050   22.1420 C.3    64  U64         0.1812
   1293  C4'       26.8040   57.9580   21.7420 C.3    64  U64         0.1773
   1294  O4'       27.1150   58.0630   20.3180 O.3    64  U64        -0.3307
   1295  C3'       25.4760   58.6980   21.9350 C.3    64  U64         0.1860
   1296  O3'       25.7390   60.0520   22.3450 O.3    64  U64        -0.3112
   1297  C2'       24.8830   58.6540   20.5270 C.3    64  U64         0.2309
   1298  O2'       23.9510   59.6820   20.3000 O.3    64  U64        -0.2156
   1299  C1'       26.1530   58.8870   19.7180 C.3    64  U64         0.2420
   1300   N.1      26.0680   58.5810   18.2580 N.ar   64  U64        -0.2534
   1301   C.2      26.8100   59.3460   17.3680 C.ar   64  U64         0.3546
   1302   O.2      27.5830   60.2380   17.7090 O.2    64  U64        -0.2443
   1303   N.3      26.6040   59.0400   16.0530 N.ar   64  U64        -0.1530
   1304   C4       25.8030   58.0510   15.5420 C.ar   64  U64         0.2846
   1305   O4       25.7610   57.8810   14.3360 O.2    64  U64        -0.2650
   1306   C5       25.0700   57.2950   16.5160 C.ar   64  U64         0.0814
   1307   C6       25.2080   57.5940   17.8080 C.ar   64  U64         0.0870
   1308    P.3     25.0010   60.6830   23.6070 P.3    65  U65         0.2141
   1309  OP1       25.8870   60.4500   24.7730 O.3    65  U65        -0.4373
   1310  OP2       23.5920   60.2090   23.6400 O.2    65  U65        -0.5172
   1311  O5'       24.9860   62.2440   23.2740 O.3    65  U65        -0.3114
   1312  C5'       24.5460   62.7160   22.0110 C.3    65  U65         0.1812
   1313  C4'       25.6180   63.5720   21.3780 C.3    65  U65         0.1773
   1314  O4'       26.3950   62.7610   20.4630 O.3    65  U65        -0.3307
   1315  C3'       25.1080   64.7170   20.5290 C.3    65  U65         0.1860
   1316  O3'       24.8370   65.8390   21.3260 O.3    65  U65        -0.3112
   1317  C2'       26.2860   64.9500   19.5900 C.3    65  U65         0.2309
   1318  O2'       27.3460   65.6720   20.1830 O.3    65  U65        -0.2156
   1319  C1'       26.7190   63.5250   19.3060 C.3    65  U65         0.2420
   1320   N.1      26.0520   62.9240   18.0760 N.ar   65  U65        -0.2534
   1321   C.2      26.5750   63.2090   16.8270 C.ar   65  U65         0.3546
   1322   O.2      27.5470   63.9430   16.6550 O.2    65  U65        -0.2443
   1323   N.3      25.8930   62.6240   15.7680 N.ar   65  U65        -0.1530
   1324   C4       24.7780   61.7930   15.8360 C.ar   65  U65         0.2846
   1325   O4       24.2980   61.3240   14.8060 O.2    65  U65        -0.2650
   1326   C5       24.2790   61.5610   17.1680 C.ar   65  U65         0.0814
   1327   C6       24.9210   62.1140   18.2120 C.ar   65  U65         0.0870
   1328    P.3     23.6670   66.8530   20.9240 P.3    66  U66         0.2141
   1329  OP1       23.5500   67.8440   22.0210 O.3    66  U66        -0.4373
   1330  OP2       22.4810   66.0710   20.5190 O.2    66  U66        -0.5172
   1331  O5'       24.2480   67.5820   19.6110 O.3    66  U66        -0.3114
   1332  C5'       25.3500   68.5080   19.7200 C.3    66  U66         0.1812
   1333  C4'       25.8230   68.9980   18.3580 C.3    66  U66         0.1773
   1334  O4'       26.3970   67.8980   17.6040 O.3    66  U66        -0.3307
   1335  C3'       24.7430   69.5470   17.4410 C.3    66  U66         0.1860
   1336  O3'       24.4160   70.8730   17.7670 O.3    66  U66        -0.3112
   1337  C2'       25.4100   69.4270   16.0680 C.3    66  U66         0.2309
   1338  O2'       26.3410   70.4650   15.7700 O.3    66  U66        -0.2156
   1339  C1'       26.1100   68.0710   16.2030 C.3    66  U66         0.2420
   1340   N.1      25.2330   66.9040   15.6910 N.ar   66  U66        -0.2534
   1341   C.2      25.0010   66.7610   14.3190 C.ar   66  U66         0.3546
   1342   O.2      25.4870   67.4860   13.4680 O.2    66  U66        -0.2443
   1343   N.3      24.1410   65.7400   13.9870 N.ar   66  U66        -0.1530
   1344   C4       23.5140   64.8510   14.8550 C.ar   66  U66         0.2846
   1345   O4       22.7750   63.9820   14.4080 O.2    66  U66        -0.2650
   1346   C5       23.7790   65.0730   16.2510 C.ar   66  U66         0.0814
   1347   C6       24.6060   66.0670   16.6080 C.ar   66  U66         0.0870
   1348    P.3     22.9280   71.4180   17.5300 P.3    67  G67         0.2141
   1349  OP1       22.8710   72.7810   18.1130 O.3    67  G67        -0.4373
   1350  OP2       21.9700   70.3850   17.9760 O.2    67  G67        -0.5172
   1351  O5'       22.8190   71.5180   15.9430 O.3    67  G67        -0.3114
   1352  C5'       23.4670   72.5790   15.2550 C.3    67  G67         0.1812
   1353  C4'       23.4860   72.3320   13.7640 C.3    67  G67         0.1773
   1354  O4'       24.0610   71.0270   13.4940 O.3    67  G67        -0.3307
   1355  C3'       22.1290   72.2380   13.1010 C.3    67  G67         0.1860
   1356  O3'       21.5450   73.4850   12.8990 O.3    67  G67        -0.3112
   1357  C2'       22.5020   71.5630   11.7970 C.3    67  G67         0.2309
   1358  O2'       23.1580   72.4360   10.8900 O.3    67  G67        -0.2156
   1359  C1'       23.4510   70.4870   12.3170 C.3    67  G67         0.2408
   1360   N9       22.7500   69.2350   12.6480 N.ar   67  G67        -0.2693
   1361   C8       22.3960   68.7690   13.9000 C.ar   67  G67         0.1817
   1362   N7       21.7290   67.6390   13.8700 N.ar   67  G67        -0.2173
   1363   C5       21.5800   67.3680   12.5060 C.ar   67  G67         0.1748
   1364   C6       20.9460   66.2730   11.8340 C.ar   67  G67         0.3023
   1365   O6       20.3730   65.2920   12.3250 O.2    67  G67        -0.2633
   1366   N.1      21.0340   66.3920   10.4490 N.ar   67  G67        -0.1709
   1367   C.2      21.6680   67.4190    9.7880 C.ar   67  G67         0.2606
   1368   N.2      21.6520   67.3680    8.4570 N.pl3  67  G67        -0.0859
   1369   N.3      22.2320   68.4590   10.3920 N.ar   67  G67        -0.1918
   1370   C4       22.1830   68.3540   11.7470 C.ar   67  G67         0.1723
   1371    P.3     19.9510   73.6180   13.0020 P.3    68  G68         0.2141
   1372  OP1       19.6150   75.0580   12.9230 O.2    68  G68        -0.5172
   1373  OP2       19.4910   72.8150   14.1670 O.3    68  G68        -0.4373
   1374  O5'       19.4240   72.8910   11.6720 O.3    68  G68        -0.3114
   1375  C5'       19.8210   73.3630   10.3910 C.3    68  G68         0.1812
   1376  C4'       19.3600   72.4290    9.2880 C.3    68  G68         0.1773
   1377  O4'       19.9560   71.1120    9.4500 O.3    68  G68        -0.3307
   1378  C3'       17.8690   72.1570    9.2470 C.3    68  G68         0.1860
   1379  O3'       17.1740   73.2340    8.6310 O.3    68  G68        -0.3112
   1380  C2'       17.8310   70.8770    8.4110 C.3    68  G68         0.2309
   1381  O2'       17.9890   71.1100    7.0200 O.3    68  G68        -0.2156
   1382  C1'       19.0440   70.1250    8.9640 C.3    68  G68         0.2408
   1383   N9       18.6910   69.2040   10.0470 N.ar   68  G68        -0.2693
   1384   C8       18.7330   69.4540   11.4010 C.ar   68  G68         0.1817
   1385   N7       18.3110   68.4600   12.1310 N.ar   68  G68        -0.2173
   1386   C5       17.9160   67.5020   11.2100 C.ar   68  G68         0.1748
   1387   C6       17.4000   66.1900   11.4120 C.ar   68  G68         0.3023
   1388   O6       17.1360   65.6230   12.4880 O.2    68  G68        -0.2633
   1389   N.1      17.1180   65.5480   10.1890 N.ar   68  G68        -0.1709
   1390   C.2      17.3370   66.0950    8.9330 C.ar   68  G68         0.2606
   1391   N.2      17.0030   65.3340    7.8810 N.pl3  68  G68        -0.0859
   1392   N.3      17.8420   67.3110    8.7350 N.ar   68  G68        -0.1918
   1393   C4       18.1110   67.9580    9.9140 C.ar   68  G68         0.1723
   1394    P.3     15.7180   73.6610    9.1530 P.3    69  U69         0.2141
   1395  OP1       15.3820   74.9640    8.5340 O.2    69  U69        -0.5172
   1396  OP2       15.6860   73.5170   10.6320 O.3    69  U69        -0.4373
   1397  O5'       14.7740   72.5320    8.5340 O.3    69  U69        -0.3114
   1398  C5'       14.6490   72.3930    7.1210 C.3    69  U69         0.1812
   1399  C4'       13.8880   71.1270    6.7650 C.3    69  U69         0.1773
   1400  O4'       14.6540   69.9500    7.1550 O.3    69  U69        -0.3307
   1401  C3'       12.5670   70.9390    7.4880 C.3    69  U69         0.1860
   1402  O3'       11.5460   71.7350    6.9230 O.3    69  U69        -0.3112
   1403  C2'       12.3310   69.4480    7.2870 C.3    69  U69         0.2309
   1404  O2'       11.8730   69.1300    5.9800 O.3    69  U69        -0.2156
   1405  C1'       13.7460   68.9020    7.5030 C.3    69  U69         0.2420
   1406   N.1      13.9990   68.4520    8.9300 N.ar   69  U69        -0.2534
   1407   C.2      13.6030   67.1690    9.3230 C.ar   69  U69         0.3546
   1408   O.2      13.0710   66.3740    8.5750 O.2    69  U69        -0.2443
   1409   N.3      13.8650   66.8580   10.6430 N.ar   69  U69        -0.1530
   1410   C4       14.4590   67.6840   11.5940 C.ar   69  U69         0.2846
   1411   O4       14.6500   67.2660   12.7280 O.2    69  U69        -0.2650
   1412   C5       14.8190   69.0040   11.1220 C.ar   69  U69         0.0814
   1413   C6       14.5720   69.3370    9.8430 C.ar   69  U69         0.0870
   1414    P.3     10.4630   72.4080    7.8860 P.3    70  G70         0.2141
   1415  OP1        9.6080   73.3010    7.0630 O.2    70  G70        -0.5172
   1416  OP2       11.1760   72.9510    9.0660 O.3    70  G70        -0.4373
   1417  O5'        9.6020   71.1540    8.3840 O.3    70  G70        -0.3114
   1418  C5'        8.7310   70.4910    7.4860 C.3    70  G70         0.1812
   1419  C4'        8.1900   69.2150    8.0880 C.3    70  G70         0.1773
   1420  O4'        9.2930   68.3140    8.4170 O.3    70  G70        -0.3307
   1421  C3'        7.4340   69.3780    9.3950 C.3    70  G70         0.1860
   1422  O3'        6.0920   69.8140    9.1670 O.3    70  G70        -0.3112
   1423  C2'        7.5140   67.9500    9.9420 C.3    70  G70         0.2309
   1424  O2'        6.6160   67.0620    9.2850 O.3    70  G70        -0.2156
   1425  C1'        8.9800   67.5910    9.6060 C.3    70  G70         0.2408
   1426   N9        9.9280   67.9860   10.6670 N.ar   70  G70        -0.2693
   1427   C8       10.4990   69.2290   10.8400 C.ar   70  G70         0.1817
   1428   N7       11.1850   69.3490   11.9440 N.ar   70  G70        -0.2173
   1429   C5       11.0790   68.1090   12.5460 C.ar   70  G70         0.1748
   1430   C6       11.6440   67.6360   13.7600 C.ar   70  G70         0.3023
   1431   O6       12.3670   68.2450   14.5550 O.2    70  G70        -0.2633
   1432   N.1      11.2990   66.3130   14.0150 N.ar   70  G70        -0.1709
   1433   C.2      10.5250   65.5310   13.1890 C.ar   70  G70         0.2606
   1434   N.2      10.3050   64.2790   13.5990 N.pl3  70  G70        -0.0859
   1435   N.3      10.0020   65.9520   12.0350 N.ar   70  G70        -0.1918
   1436   C4       10.2900   67.2590   11.7900 C.ar   70  G70         0.1723
   1437    P.3      5.3790   70.8480   10.1930 P.3    71  A71         0.2141
   1438  OP1        4.0850   71.2670    9.5970 O.2    71  A71        -0.5172
   1439  OP2        6.3700   71.8770   10.5920 O.3    71  A71        -0.4373
   1440  O5'        5.0780   69.9460   11.4840 O.3    71  A71        -0.3114
   1441  C5'        4.6090   70.5480   12.6960 C.3    71  A71         0.1812
   1442  C4'        4.1750   69.4880   13.6940 C.3    71  A71         0.1773
   1443  O4'        3.0790   68.7450   13.1310 O.3    71  A71        -0.3307
   1444  C3'        5.2340   68.4450   14.0260 C.3    71  A71         0.1860
   1445  O3'        6.0330   68.8680   15.1420 O.3    71  A71        -0.3112
   1446  C2'        4.4160   67.1850   14.3280 C.3    71  A71         0.2309
   1447  O2'        4.0180   67.0670   15.6800 O.3    71  A71        -0.2156
   1448  C1'        3.1990   67.3650   13.4460 C.3    71  A71         0.2408
   1449   N9        3.2340   66.6000   12.2100 N.ar   71  A71        -0.2693
   1450   C8        3.2730   67.1080   10.9450 C.ar   71  A71         0.1816
   1451   N7        3.1920   66.2040   10.0070 N.ar   71  A71        -0.2193
   1452   C5        3.0510   65.0200   10.6980 C.ar   71  A71         0.1518
   1453   C6        2.9020   63.6890   10.2610 C.ar   71  A71         0.1919
   1454   N6        2.8990   63.3550    8.9660 N.pl3  71  A71        -0.1054
   1455   N.1       2.8760   62.7060   11.2060 N.ar   71  A71        -0.2040
   1456   C.2       2.9090   63.0630   12.5050 C.ar   71  A71         0.2016
   1457   N.3       3.0130   64.2960   13.0350 N.ar   71  A71        -0.2048
   1458   C4        3.0790   65.2380   12.0630 C.ar   71  A71         0.1692
   1459    P.3      7.6050   68.5450   15.1680 P.3    72  A72         0.2141
   1460  OP1        8.2240   69.2440   16.3180 O.3    72  A72        -0.4373
   1461  OP2        8.1360   68.7750   13.8080 O.2    72  A72        -0.5172
   1462  O5'        7.6190   66.9830   15.4630 O.3    72  A72        -0.3114
   1463  C5'        7.0260   66.4810   16.6740 C.3    72  A72         0.1812
   1464  C4'        6.8840   64.9740   16.6170 C.3    72  A72         0.1773
   1465  O4'        5.9320   64.6180   15.5910 O.3    72  A72        -0.3307
   1466  C3'        8.1570   64.2710   16.2590 C.3    72  A72         0.1860
   1467  O3'        8.8780   63.9530   17.4420 O.3    72  A72        -0.3112
   1468  C2'        7.6930   63.0410   15.4710 C.3    72  A72         0.2309
   1469  O2'        7.5260   61.8760   16.2660 O.3    72  A72        -0.2156
   1470  C1'        6.3650   63.4850   14.8790 C.3    72  A72         0.2408
   1471   N9        6.4160   63.8060   13.4490 N.ar   72  A72        -0.2693
   1472   C8        6.6720   65.0290   12.8780 C.ar   72  A72         0.1816
   1473   N7        6.5850   65.0400   11.5650 N.ar   72  A72        -0.2193
   1474   C5        6.2730   63.7250   11.2430 C.ar   72  A72         0.1518
   1475   C6        6.0900   63.0550   10.0020 C.ar   72  A72         0.1919
   1476   N6        6.1540   63.6680    8.8250 N.pl3  72  A72        -0.1054
   1477   N.1       5.8240   61.7210   10.0310 N.ar   72  A72        -0.2040
   1478   C.2       5.7430   61.0950   11.2270 C.ar   72  A72         0.2016
   1479   N.3       5.9010   61.6100   12.4530 N.ar   72  A72        -0.2048
   1480   C4        6.1700   62.9460   12.3950 C.ar   72  A72         0.1692
   1481    P.3     10.4730   64.1060   17.4590 P.3    73  A73         0.2141
   1482  OP1       10.9990   63.6330   18.7810 O.3    73  A73        -0.4373
   1483  OP2       10.8140   65.4630   16.9550 O.2    73  A73        -0.5172
   1484  O5'       10.9200   63.0530   16.3600 O.3    73  A73        -0.3114
   1485  C5'       10.8140   61.6660   16.6270 C.3    73  A73         0.1812
   1486  C4'       11.8290   60.9140   15.8160 C.3    73  A73         0.1773
   1487  O4'       11.7330   61.3230   14.4570 O.3    73  A73        -0.3307
   1488  C3'       13.2520   61.1960   16.2150 C.3    73  A73         0.1860
   1489  O3'       13.6700   60.1700   17.0700 O.3    73  A73        -0.3112
   1490  C2'       14.0280   61.2230   14.8880 C.3    73  A73         0.2309
   1491  O2'       14.9620   60.1700   14.7790 O.3    73  A73        -0.2156
   1492  C1'       12.9390   61.0360   13.8370 C.3    73  A73         0.2408
   1493   N9       13.0460   61.9000   12.6680 N.ar   73  A73        -0.2693
   1494   C8       13.2530   63.2520   12.6530 C.ar   73  A73         0.1816
   1495   N7       13.2120   63.7770   11.4560 N.ar   73  A73        -0.2193
   1496   C5       12.8740   62.7170   10.6430 C.ar   73  A73         0.1518
   1497   C6       12.6690   62.6160    9.2540 C.ar   73  A73         0.1919
   1498   N6       12.7980   63.6500    8.4290 N.pl3  73  A73        -0.1054
   1499   N.1      12.4130   61.3800    8.7330 N.ar   73  A73        -0.2040
   1500   C.2      12.3530   60.3220    9.5640 C.ar   73  A73         0.2016
   1501   N.3      12.5080   60.3030   10.8910 N.ar   73  A73        -0.2048
   1502   C4       12.7660   61.5490   11.3730 C.ar   73  A73         0.1692
   1503    P.3     14.0310   60.4850   18.5870 P.3    74  U74         0.2141
   1504  OP1       14.4260   59.2080   19.2330 O.3    74  U74        -0.4373
   1505  OP2       12.9420   61.3110   19.1850 O.2    74  U74        -0.5172
   1506  O5'       15.2970   61.4380   18.3890 O.3    74  U74        -0.3114
   1507  C5'       16.3710   61.3900   19.2560 C.3    74  U74         0.1812
   1508  C4'       17.6640   61.2630   18.4800 C.3    74  U74         0.1773
   1509  O4'       18.7700   61.1960   19.4040 O.3    74  U74        -0.3307
   1510  C3'       17.8010   60.0230   17.6120 C.3    74  U74         0.1860
   1511  O3'       18.7630   60.3000   16.5870 O.3    74  U74        -0.3112
   1512  C2'       18.3430   58.9990   18.6240 C.3    74  U74         0.2309
   1513  O2'       19.1220   57.9840   18.0190 O.3    74  U74        -0.2156
   1514  C1'       19.2390   59.8730   19.5020 C.3    74  U74         0.2420
   1515   N.1      19.2880   59.4770   20.9550 N.ar   74  U74        -0.2534
   1516   C.2      20.4800   58.9680   21.4750 C.ar   74  U74         0.3546
   1517   O.2      21.4920   58.7650   20.7970 O.2    74  U74        -0.2443
   1518   N.3      20.4370   58.6560   22.8160 N.ar   74  U74        -0.1530
   1519   C4       19.3450   58.7400   23.6530 C.ar   74  U74         0.2846
   1520   O4       19.4620   58.4020   24.8280 O.2    74  U74        -0.2650
   1521   C5       18.1380   59.2600   23.0390 C.ar   74  U74         0.0814
   1522   C6       18.1540   59.5940   21.7440 C.ar   74  U74         0.0870
   1523    P.3     18.4880   60.0590   15.0200 P.3    75  U75         0.2141
   1524  OP1       19.8210   60.0250   14.3720 O.2    75  U75        -0.5172
   1525  OP2       17.4850   61.0310   14.5680 O.3    75  U75        -0.4373
   1526  O5'       17.8290   58.6110   14.9290 O.3    75  U75        -0.3114
   1527  C5'       18.6340   57.4820   14.6030 C.3    75  U75         0.1812
   1528  C4'       17.8400   56.4500   13.8290 C.3    75  U75         0.1773
   1529  O4'       16.6810   56.0420   14.5960 O.3    75  U75        -0.3307
   1530  C3'       17.3090   56.9170   12.4620 C.3    75  U75         0.1860
   1531  O3'       17.6250   55.9610   11.4860 O.3    75  U75        -0.3112
   1532  C2'       15.7910   57.0020   12.6690 C.3    75  U75         0.2309
   1533  O2'       15.0690   56.6750   11.4940 O.3    75  U75        -0.2156
   1534  C1'       15.5800   55.9380   13.7280 C.3    75  U75         0.2420
   1535   N.1      14.3210   56.0820   14.4860 N.ar   75  U75        -0.2534
   1536   C.2      13.2830   55.2000   14.2370 C.ar   75  U75         0.3546
   1537   O.2      13.3640   54.2560   13.4800 O.2    75  U75        -0.2443
   1538   N.3      12.1680   55.4030   14.9790 N.ar   75  U75        -0.1530
   1539   C4       11.9500   56.3870   15.8940 C.ar   75  U75         0.2846
   1540   O4       10.8680   56.4360   16.4610 O.2    75  U75        -0.2650
   1541   C5       13.0610   57.2840   16.1090 C.ar   75  U75         0.0814
   1542   C6       14.1830   57.1080   15.4030 C.ar   75  U75         0.0870
   1543    P.3     18.3640   56.3830   10.1470 P.3    76  C76         0.2141
   1544  OP1       18.7270   55.1310    9.4210 O.2    76  C76        -0.5172
   1545  OP2       19.4250   57.3570   10.4870 O.3    76  C76        -0.4373
   1546  O5'       17.2140   57.1430    9.3320 O.3    76  C76        -0.3114
   1547  C5'       16.8830   56.7150    8.0140 C.3    76  C76         0.1812
   1548  C4'       16.2150   57.8170    7.2110 C.3    76  C76         0.1773
   1549  O4'       15.3280   58.5910    8.0580 O.3    76  C76        -0.3307
   1550  C3'       17.1650   58.8190    6.5970 C.3    76  C76         0.1860
   1551  O3'       17.6110   58.3420    5.3260 O.3    76  C76        -0.3112
   1552  C2'       16.2960   60.0910    6.5000 C.3    76  C76         0.2309
   1553  O2'       15.4350   60.1140    5.3720 O.3    76  C76        -0.2156
   1554  C1'       15.4450   59.9810    7.7560 C.3    76  C76         0.2420
   1555   N.1      15.9520   60.7430    8.9700 N.ar   76  C76        -0.2535
   1556   C.2      16.0550   62.1640    8.9380 C.ar   76  C76         0.3532
   1557   O.2      15.8210   62.7810    7.8910 O.2    76  C76        -0.2443
   1558   N.3      16.4380   62.8190   10.0640 N.ar   76  C76        -0.1739
   1559   C4       16.6140   62.1430   11.2100 C.ar   76  C76         0.1759
   1560   N.4      16.9640   62.8390   12.2960 N.pl3  76  C76        -0.1070
   1561   C5       16.4770   60.7120   11.2780 C.ar   76  C76         0.0566
   1562   C6       16.1630   60.0660   10.1480 C.ar   76  C76         0.0850
   1563    P.3     19.1730   58.2970    4.9880 P.3    77  C77         0.2141
   1564  OP1       19.3350   57.5610    3.7110 O.2    77  C77        -0.5172
   1565  OP2       19.9340   57.8370    6.1790 O.3    77  C77        -0.4373
   1566  O5'       19.4880   59.8530    4.7710 O.3    77  C77        -0.3114
   1567  C5'       18.9940   60.5220    3.5910 C.3    77  C77         0.1812
   1568  C4'       19.3830   61.9860    3.5740 C.3    77  C77         0.1773
   1569  O4'       18.6490   62.6580    4.6230 O.3    77  C77        -0.3307
   1570  C3'       20.8460   62.3030    3.8990 C.3    77  C77         0.1860
   1571  O3'       21.6930   62.1590    2.7550 O.3    77  C77        -0.3112
   1572  C2'       20.7270   63.7550    4.3780 C.3    77  C77         0.2309
   1573  O2'       20.5140   64.6800    3.3180 O.3    77  C77        -0.2156
   1574  C1'       19.4620   63.6640    5.2120 C.3    77  C77         0.2420
   1575   N.1      19.6830   63.3430    6.6530 N.ar   77  C77        -0.2535
   1576   C.2      20.0110   64.3690    7.5520 C.ar   77  C77         0.3532
   1577   O.2      20.1660   65.5120    7.1270 O.2    77  C77        -0.2443
   1578   N.3      20.1370   64.0720    8.8810 N.ar   77  C77        -0.1739
   1579   C4       19.8810   62.8310    9.3190 C.ar   77  C77         0.1759
   1580   N.4      19.9750   62.5900   10.6290 N.pl3  77  C77        -0.1070
   1581   C5       19.5220   61.7840    8.4270 C.ar   77  C77         0.0566
   1582   C6       19.4080   62.0870    7.1200 C.ar   77  C77         0.0850
   1583    P.3     23.2450   61.7890    2.9520 P.3    78  A78         0.2141
   1584  OP1       23.8610   61.6520    1.6100 O.2    78  A78        -0.5172
   1585  OP2       23.3520   60.6660    3.9190 O.3    78  A78        -0.4373
   1586  O5'       23.8470   63.0860    3.6780 O.3    78  A78        -0.3114
   1587  C5'       24.1610   64.2760    2.9510 C.3    78  A78         0.1812
   1588  C4'       24.8180   65.3060    3.8650 C.3    78  A78         0.1773
   1589  O4'       23.8730   65.7570    4.8680 O.3    78  A78        -0.3307
   1590  C3'       25.9880   64.7950    4.6840 C.3    78  A78         0.1860
   1591  O3'       27.1770   64.7640    3.9080 O.3    78  A78        -0.3112
   1592  C2'       26.0370   65.8170    5.8190 C.3    78  A78         0.2309
   1593  O2'       26.6300   67.0490    5.4600 O.3    78  A78        -0.2156
   1594  C1'       24.5600   66.0270    6.0870 C.3    78  A78         0.2408
   1595   N9       24.0510   65.1740    7.1670 N.ar   78  A78        -0.2693
   1596   C8       23.3640   63.9940    7.0520 C.ar   78  A78         0.1816
   1597   N7       23.0900   63.4210    8.2100 N.ar   78  A78        -0.2193
   1598   C5       23.6510   64.2720    9.1460 C.ar   78  A78         0.1518
   1599   C6       23.7090   64.2390   10.5630 C.ar   78  A78         0.1919
   1600   N6       23.1400   63.2920   11.3030 N.pl3  78  A78        -0.1054
   1601   N.1      24.3720   65.2370   11.1890 N.ar   78  A78        -0.2040
   1602   C.2      24.9280   66.2130   10.4480 C.ar   78  A78         0.2016
   1603   N.3      24.9330   66.3610    9.1180 N.ar   78  A78        -0.2048
   1604   C4       24.2710   65.3470    8.5190 C.ar   78  A78         0.1692
   1605    P.3     28.2900   63.6380    4.1760 P.3    79  A79         0.2141
   1606  OP1       29.2790   63.7340    3.0760 O.2    79  A79        -0.5172
   1607  OP2       27.6200   62.3450    4.4370 O.3    79  A79        -0.4373
   1608  O5'       28.9520   64.1060    5.5720 O.3    79  A79        -0.3114
   1609  C5'       29.6920   65.3300    5.6640 C.3    79  A79         0.1812
   1610  C4'       29.9840   65.7070    7.1150 C.3    79  A79         0.1773
   1611  O4'       28.7440   65.8240    7.8630 O.3    79  A79        -0.3307
   1612  C3'       30.7700   64.6950    7.9150 C.3    79  A79         0.1860
   1613  O3'       32.1320   64.7410    7.6130 O.3    79  A79        -0.3112
   1614  C2'       30.4660   65.1340    9.3440 C.3    79  A79         0.2309
   1615  O2'       31.2300   66.2540    9.7620 O.3    79  A79        -0.2156
   1616  C1'       28.9820   65.4920    9.2350 C.3    79  A79         0.2408
   1617   N9       28.0990   64.3810    9.6190 N.ar   79  A79        -0.2693
   1618   C8       27.6090   63.3960    8.7990 C.ar   79  A79         0.1816
   1619   N7       26.9290   62.4660    9.4280 N.ar   79  A79        -0.2193
   1620   C5       26.9720   62.8610   10.7470 C.ar   79  A79         0.1518
   1621   C6       26.4030   62.3190   11.9120 C.ar   79  A79         0.1919
   1622   N6       25.6380   61.2320   11.9160 N.pl3  79  A79        -0.1054
   1623   N.1      26.6550   62.9420   13.0840 N.ar   79  A79        -0.2040
   1624   C.2      27.3930   64.0630   13.0780 C.ar   79  A79         0.2016
   1625   N.3      27.9570   64.6870   12.0340 N.ar   79  A79        -0.2048
   1626   C4       27.7060   64.0300   10.8890 C.ar   79  A79         0.1692
   1627    P.3     33.0050   63.4010    7.7500 P.3    80  A80         0.2141
   1628  OP1       34.3120   63.6420    7.1000 O.2    80  A80        -0.5172
   1629  OP2       32.1790   62.2450    7.3160 O.3    80  A80        -0.4373
   1630  O5'       33.2130   63.2790    9.3400 O.3    80  A80        -0.3114
   1631  C5'       34.0220   64.2280   10.0330 C.3    80  A80         0.1812
   1632  C4'       33.7770   64.1780   11.5270 C.3    80  A80         0.1773
   1633  O4'       32.3660   64.3890   11.8110 O.3    80  A80        -0.3307
   1634  C3'       34.1050   62.8630   12.1970 C.3    80  A80         0.1860
   1635  O3'       35.4600   62.7760   12.4660 O.3    80  A80        -0.3112
   1636  C2'       33.2630   62.9510   13.4670 C.3    80  A80         0.2309
   1637  O2'       33.8540   63.7500   14.4860 O.3    80  A80        -0.2156
   1638  C1'       31.9780   63.5880   12.9210 C.3    80  A80         0.2408
   1639   N9       31.0050   62.5790   12.4700 N.ar   80  A80        -0.2693
   1640   C8       30.8860   62.0200   11.2110 C.ar   80  A80         0.1816
   1641   N7       29.9960   61.0550   11.1340 N.ar   80  A80        -0.2193
   1642   C5       29.5270   60.9430   12.4310 C.ar   80  A80         0.1518
   1643   C6       28.5950   60.0800   13.0350 C.ar   80  A80         0.1919
   1644   N6       27.8950   59.1710   12.3630 N.pl3  80  A80        -0.1054
   1645   N.1      28.3850   60.2100   14.3620 N.ar   80  A80        -0.2040
   1646   C.2      29.0830   61.1210   15.0560 C.ar   80  A80         0.2016
   1647   N.3      30.0030   61.9720   14.6130 N.ar   80  A80        -0.2048
   1648   C4       30.1740   61.8410   13.2760 C.ar   80  A80         0.1692
   1649    P.3     36.1630   61.3450   12.6220 P.3    81  A81         0.2141
   1650  OP1       37.6310   61.5630   12.5280 O.3    81  A81        -0.4373
   1651  OP2       35.5090   60.3790   11.7010 O.2    81  A81        -0.5172
   1652  O5'       35.7930   60.9330   14.1280 O.3    81  A81        -0.3114
   1653  C5'       34.9330   59.8320   14.3910 C.3    81  A81         0.1812
   1654  C4'       34.3770   59.9320   15.7920 C.3    81  A81         0.1773
   1655  O4'       32.9870   60.3560   15.7400 O.3    81  A81        -0.3307
   1656  C3'       34.3760   58.6300   16.5510 C.3    81  A81         0.1860
   1657  O3'       35.5770   58.4890   17.2840 O.3    81  A81        -0.3112
   1658  C2'       33.1550   58.7670   17.4590 C.3    81  A81         0.2309
   1659  O2'       33.4170   59.4970   18.6510 O.3    81  A81        -0.2156
   1660  C1'       32.1900   59.5190   16.5590 C.3    81  A81         0.2408
   1661   N9       31.3760   58.6370   15.7000 N.ar   81  A81        -0.2693
   1662   C8       31.5140   58.4350   14.3460 C.ar   81  A81         0.1816
   1663   N7       30.6560   57.5870   13.8450 N.ar   81  A81        -0.2193
   1664   C5       29.9090   57.1860   14.9370 C.ar   81  A81         0.1518
   1665   C6       28.8160   56.2900   15.0680 C.ar   81  A81         0.1919
   1666   N6       28.3020   55.6100   14.0390 N.pl3  81  A81        -0.1054
   1667   N.1      28.3030   56.0940   16.3120 N.ar   81  A81        -0.2040
   1668   C.2      28.8460   56.7620   17.3430 C.ar   81  A81         0.2016
   1669   N.3      29.8520   57.6490   17.3350 N.ar   81  A81        -0.2048
   1670   C4       30.3470   57.8110   16.0940 C.ar   81  A81         0.1692
   1671    P.3     36.2680   57.0560   17.3830 P.3    82  C82         0.2141
   1672  OP1       37.4700   57.1940   18.2190 O.3    82  C82        -0.4373
   1673  OP2       36.3760   56.5090   16.0140 O.2    82  C82        -0.5172
   1674  O5'       35.1950   56.1880   18.1790 O.3    82  C82        -0.3114
   1675  C5'       34.9430   56.4680   19.5600 C.3    82  C82         0.1812
   1676  C4'       33.6490   55.8250   20.0320 C.3    82  C82         0.1773
   1677  O4'       32.5640   56.1410   19.1220 O.3    82  C82        -0.3307
   1678  C3'       33.6620   54.3140   20.0780 C.3    82  C82         0.1860
   1679  O3'       34.3170   53.8730   21.2710 O.3    82  C82        -0.3112
   1680  C2'       32.1550   54.0120   20.0750 C.3    82  C82         0.2309
   1681  O2'       31.5400   54.2140   21.3420 O.3    82  C82        -0.2156
   1682  C1'       31.6430   55.0600   19.0990 C.3    82  C82         0.2420
   1683   N.1      31.4740   54.5720   17.6930 N.ar   82  C82        -0.2535
   1684   C.2      30.3450   53.8070   17.3490 C.ar   82  C82         0.3532
   1685   O.2      29.5200   53.5290   18.2130 O.2    82  C82        -0.2443
   1686   N.3      30.1730   53.4400   16.0520 N.ar   82  C82        -0.1739
   1687   C4       31.0840   53.7830   15.1290 C.ar   82  C82         0.1759
   1688   N.4      30.8600   53.4250   13.8640 N.pl3  82  C82        -0.1070
   1689   C5       32.2430   54.5380   15.4610 C.ar   82  C82         0.0566
   1690   C6       32.4030   54.8990   16.7380 C.ar   82  C82         0.0850
   1691    P.3     35.0270   52.4260   21.3540 P.3    83  C83         0.2141
   1692  OP1       35.6750   52.3340   22.7020 O.3    83  C83        -0.4373
   1693  OP2       35.8230   52.2220   20.1260 O.2    83  C83        -0.5172
   1694  O5'       33.7950   51.4080   21.3090 O.3    83  C83        -0.3114
   1695  C5'       32.9590   51.2680   22.4330 C.3    83  C83         0.1812
   1696  C4'       31.8910   50.2490   22.1670 C.3    83  C83         0.1773
   1697  O4'       31.1250   50.6700   21.0230 O.3    83  C83        -0.3307
   1698  C3'       32.3890   48.8710   21.7790 C.3    83  C83         0.1860
   1699  O3'       32.7050   48.1350   22.9340 O.3    83  C83        -0.3112
   1700  C2'       31.1620   48.3070   21.0640 C.3    83  C83         0.2309
   1701  O2'       30.1360   47.8980   21.9660 O.3    83  C83        -0.2156
   1702  C1'       30.6740   49.5230   20.3130 C.3    83  C83         0.2420
   1703   N.1      31.0770   49.6070   18.8790 N.ar   83  C83        -0.2535
   1704   C.2      30.2680   48.9840   17.8970 C.ar   83  C83         0.3532
   1705   O.2      29.3520   48.2330   18.2600 O.2    83  C83        -0.2443
   1706   N.3      30.5200   49.2290   16.5740 N.ar   83  C83        -0.1739
   1707   C4       31.5530   50.0140   16.2370 C.ar   83  C83         0.1759
   1708   N.4      31.7860   50.2260   14.9460 N.pl3  83  C83        -0.1070
   1709   C5       32.3770   50.6450   17.2200 C.ar   83  C83         0.0566
   1710   C6       32.0860   50.4440   18.5070 C.ar   83  C83         0.0850
   1711    P.3     33.9260   47.0910   22.9550 P.3    84  G84         0.2141
   1712  OP1       34.3040   46.9020   24.3760 O.3    84  G84        -0.4373
   1713  OP2       34.9620   47.5190   21.9740 O.2    84  G84        -0.5172
   1714  O5'       33.2740   45.7460   22.3810 O.3    84  G84        -0.3114
   1715  C5'       32.0450   45.2430   22.8790 C.3    84  G84         0.1812
   1716  C4'       31.3860   44.3310   21.8570 C.3    84  G84         0.1773
   1717  O4'       30.9960   45.1010   20.7110 O.3    84  G84        -0.3307
   1718  C3'       32.2770   43.2230   21.3270 C.3    84  G84         0.1860
   1719  O3'       32.0570   42.0990   22.0980 O.3    84  G84        -0.3112
   1720  C2'       31.7800   43.0080   19.8940 C.3    84  G84         0.2309
   1721  O2'       30.8000   41.9710   19.7910 O.3    84  G84        -0.2156
   1722  C1'       31.1650   44.3490   19.5260 C.3    84  G84         0.2408
   1723   N9       31.9320   45.1390   18.5570 N.ar   84  G84        -0.2693
   1724   C8       32.9470   46.0280   18.8230 C.ar   84  G84         0.1817
   1725   N7       33.3540   46.6890   17.7690 N.ar   84  G84        -0.2173
   1726   C5       32.5520   46.2240   16.7460 C.ar   84  G84         0.1748
   1727   C6       32.5070   46.6000   15.3820 C.ar   84  G84         0.3023
   1728   O6       33.2080   47.4320   14.7940 O.2    84  G84        -0.2633
   1729   N.1      31.5310   45.8930   14.6760 N.ar   84  G84        -0.1709
   1730   C.2      30.6960   44.9440   15.2260 C.ar   84  G84         0.2606
   1731   N.2      29.8240   44.3690   14.3920 N.pl3  84  G84        -0.0859
   1732   N.3      30.7050   44.6020   16.5150 N.ar   84  G84        -0.1918
   1733   C4       31.6590   45.2800   17.2130 C.ar   84  G84         0.1723
   1734    P.3     33.1610   40.9730   22.2370 P.3    85  A85         0.2141
   1735  OP1       34.3330   41.5550   22.9390 O.3    85  A85        -0.4373
   1736  OP2       33.3370   40.3120   20.9180 O.2    85  A85        -0.5172
   1737  O5'       32.4230   39.9070   23.1990 O.3    85  A85        -0.3114
   1738  C5'       31.9370   40.2820   24.5050 C.3    85  A85         0.1812
   1739  C4'       31.4650   39.0600   25.2830 C.3    85  A85         0.1773
   1740  O4'       30.3390   38.4430   24.5910 O.3    85  A85        -0.3307
   1741  C3'       32.4840   37.9380   25.4040 C.3    85  A85         0.1860
   1742  O3'       33.3660   38.1650   26.4700 O.3    85  A85        -0.3112
   1743  C2'       31.5860   36.7130   25.6110 C.3    85  A85         0.2309
   1744  O2'       31.0650   36.5920   26.9330 O.3    85  A85        -0.2156
   1745  C1'       30.4600   37.0170   24.6260 C.3    85  A85         0.2408
   1746   N9       30.7070   36.5010   23.2630 N.ar   85  A85        -0.2693
   1747   C8       31.1640   37.2070   22.1830 C.ar   85  A85         0.1816
   1748   N7       31.3150   36.4870   21.0970 N.ar   85  A85        -0.2193
   1749   C5       30.9630   35.2090   21.4880 C.ar   85  A85         0.1518
   1750   C6       30.9160   33.9680   20.7880 C.ar   85  A85         0.1919
   1751   N6       31.2600   33.8350   19.5050 N.pl3  85  A85        -0.1054
   1752   N.1      30.5500   32.8650   21.4780 N.ar   85  A85        -0.2040
   1753   C.2      30.2550   32.9930   22.7850 C.ar   85  A85         0.2016
   1754   N.3      30.2360   34.1060   23.5440 N.ar   85  A85        -0.2048
   1755   C4       30.6090   35.1900   22.8290 C.ar   85  A85         0.1692
   1756    P.3     34.8960   37.7150   26.3450 P.3    86  C86         0.2141
   1757  OP1       35.5820   38.0750   27.6040 O.3    86  C86        -0.4373
   1758  OP2       35.4250   38.2160   25.0500 O.2    86  C86        -0.5172
   1759  O5'       34.7920   36.1240   26.2740 O.3    86  C86        -0.3114
   1760  C5'       34.4750   35.3930   27.4630 C.3    86  C86         0.1812
   1761  C4'       34.1130   33.9670   27.1470 C.3    86  C86         0.1773
   1762  O4'       33.1780   33.9370   26.0540 O.3    86  C86        -0.3307
   1763  C3'       35.2580   33.1250   26.6500 C.3    86  C86         0.1860
   1764  O3'       36.0380   32.6840   27.7200 O.3    86  C86        -0.3112
   1765  C2'       34.5250   31.9930   25.9600 C.3    86  C86         0.2309
   1766  O2'       33.9650   31.0550   26.8670 O.3    86  C86        -0.2156
   1767  C1'       33.4160   32.7700   25.2690 C.3    86  C86         0.2420
   1768   N.1      33.7370   33.1610   23.8260 N.ar   86  C86        -0.2535
   1769   C.2      33.6660   32.1800   22.8150 C.ar   86  C86         0.3532
   1770   O.2      33.3660   31.0190   23.1230 O.2    86  C86        -0.2443
   1771   N.3      33.9010   32.5450   21.5200 N.ar   86  C86        -0.1739
   1772   C4       34.1830   33.8180   21.2250 C.ar   86  C86         0.1759
   1773   N.4      34.4210   34.1130   19.9540 N.pl3  86  C86        -0.1070
   1774   C5       34.2610   34.8360   22.2300 C.ar   86  C86         0.0566
   1775   C6       34.0330   34.4740   23.5010 C.ar   86  C86         0.0850
   1776    P.3     37.6350   32.7900   27.6410 P.3    87  A87         0.2141
   1777  OP1       38.1460   32.5460   29.0110 O.3    87  A87        -0.4373
   1778  OP2       37.9920   34.0470   26.9170 O.2    87  A87        -0.5172
   1779  O5'       38.0160   31.5410   26.7060 O.3    87  A87        -0.3114
   1780  C5'       37.7770   30.2200   27.1860 C.3    87  A87         0.1812
   1781  C4'       37.8030   29.1980   26.0700 C.3    87  A87         0.1773
   1782  O4'       36.7930   29.5170   25.0910 O.3    87  A87        -0.3307
   1783  C3'       39.0600   29.1640   25.2390 C.3    87  A87         0.1860
   1784  O3'       40.0880   28.5470   25.8840 O.3    87  A87        -0.3112
   1785  C2'       38.5900   28.3910   24.0270 C.3    87  A87         0.2309
   1786  O2'       38.4440   27.0070   24.2570 O.3    87  A87        -0.2156
   1787  C1'       37.2300   29.0380   23.8150 C.3    87  A87         0.2408
   1788   N9       37.2820   30.1480   22.8660 N.ar   87  A87        -0.2693
   1789   C8       37.1570   31.4850   23.1350 C.ar   87  A87         0.1816
   1790   N7       37.2370   32.2490   22.0660 N.ar   87  A87        -0.2193
   1791   C5       37.4710   31.3560   21.0400 C.ar   87  A87         0.1518
   1792   C6       37.6200   31.5230   19.6550 C.ar   87  A87         0.1919
   1793   N6       37.5520   32.7050   19.0440 N.pl3  87  A87        -0.1054
   1794   N.1      37.8430   30.4210   18.9150 N.ar   87  A87        -0.2040
   1795   C.2      37.9110   29.2320   19.5190 C.ar   87  A87         0.2016
   1796   N.3      37.7460   28.9440   20.8030 N.ar   87  A87        -0.2048
   1797   C4       37.5200   30.0600   21.5170 C.ar   87  A87         0.1692
   1798    P.3     41.5570   29.1530   25.7180 P.3    88  G88         0.2141
   1799  OP1       42.4440   28.4460   26.6790 O.3    88  G88        -0.4373
   1800  OP2       41.4520   30.6310   25.7570 O.2    88  G88        -0.5172
   1801  O5'       41.9570   28.7440   24.2200 O.3    88  G88        -0.3114
   1802  C5'       42.1770   27.3730   23.8930 C.3    88  G88         0.1812
   1803  C4'       42.5450   27.2040   22.4350 C.3    88  G88         0.1773
   1804  O4'       41.5060   27.7550   21.6210 O.3    88  G88        -0.3307
   1805  C3'       43.7870   27.9470   22.0040 C.3    88  G88         0.1860
   1806  O3'       44.9400   27.2080   22.3070 O.3    88  G88        -0.3112
   1807  C2'       43.5750   28.1050   20.5050 C.3    88  G88         0.2309
   1808  O2'       43.9940   26.9770   19.7560 O.3    88  G88        -0.2156
   1809  C1'       42.0630   28.2760   20.4250 C.3    88  G88         0.2408
   1810   N9       41.6460   29.6600   20.2990 N.ar   88  G88        -0.2693
   1811   C8       41.3420   30.5280   21.3200 C.ar   88  G88         0.1817
   1812   N7       40.9940   31.7140   20.9110 N.ar   88  G88        -0.2173
   1813   C5       41.0370   31.6150   19.5290 C.ar   88  G88         0.1748
   1814   C6       40.7350   32.5800   18.5410 C.ar   88  G88         0.3023
   1815   O6       40.3510   33.7340   18.7110 O.2    88  G88        -0.2633
   1816   N.1      40.9040   32.0750   17.2430 N.ar   88  G88        -0.1709
   1817   C.2      41.3390   30.7930   16.9500 C.ar   88  G88         0.2606
   1818   N.2      41.4340   30.4740   15.6540 N.pl3  88  G88        -0.0859
   1819   N.3      41.6490   29.8850   17.8750 N.ar   88  G88        -0.1918
   1820   C4       41.4640   30.3610   19.1380 C.ar   88  G88         0.1723
   1821    P.3     46.2010   27.9730   22.8940 P.3    89  U89         0.2141
   1822  OP1       47.2440   26.9600   23.1590 O.2    89  U89        -0.5172
   1823  OP2       45.7340   28.8550   23.9900 O.3    89  U89        -0.4373
   1824  O5'       46.6710   28.9200   21.6710 O.3    89  U89        -0.3114
   1825  C5'       47.5330   28.4120   20.6310 C.3    89  U89         0.1812
   1826  C4'       47.4810   29.2850   19.3840 C.3    89  U89         0.1773
   1827  O4'       46.1260   29.7160   19.1510 O.3    89  U89        -0.3307
   1828  C3'       48.2810   30.5720   19.4600 C.3    89  U89         0.1860
   1829  O3'       49.6080   30.3370   19.0930 O.3    89  U89        -0.3112
   1830  C2'       47.5940   31.4490   18.4260 C.3    89  U89         0.2309
   1831  O2'       48.1340   31.2780   17.1280 O.3    89  U89        -0.2156
   1832  C1'       46.1360   30.9720   18.4880 C.3    89  U89         0.2420
   1833   N.1      45.1940   31.9520   19.2020 N.ar   89  U89        -0.2534
   1834   C.2      44.4760   32.8560   18.4450 C.ar   89  U89         0.3546
   1835   O.2      44.5260   32.8820   17.2290 O.2    89  U89        -0.2443
   1836   N.3      43.7020   33.7600   19.1790 N.ar   89  U89        -0.1530
   1837   C4       43.5640   33.8250   20.5670 C.ar   89  U89         0.2846
   1838   O4       42.7880   34.6590   21.0890 O.2    89  U89        -0.2650
   1839   C5       44.3430   32.8390   21.2820 C.ar   89  U89         0.0814
   1840   C6       45.1280   31.9790   20.5950 C.ar   89  U89         0.0870
   1841    P.3     50.7930   30.7190   20.0890 P.3    90  A90         0.2141
   1842  OP1       52.0680   30.2400   19.4910 O.2    90  A90        -0.5172
   1843  OP2       50.3980   30.2800   21.4530 O.3    90  A90        -0.4373
   1844  O5'       50.7860   32.3060   20.0820 O.3    90  A90        -0.3114
   1845  C5'       51.2780   33.0100   18.9890 C.3    90  A90         0.1812
   1846  C4'       51.0340   34.4780   19.2070 C.3    90  A90         0.1773
   1847  O4'       52.0710   35.2550   18.5870 O.3    90  A90        -0.3307
   1848  C3'       49.7030   35.0120   18.6660 C.3    90  A90         0.1860
   1849  O3'       49.0750   35.7330   19.6840 O.3    90  A90        -0.3112
   1850  C2'       50.1300   35.9580   17.5380 C.3    90  A90         0.2309
   1851  O2'       49.2660   37.0910   17.4190 O.3    90  A90        -0.2156
   1852  C1'       51.4860   36.3960   18.0630 C.3    90  A90         0.2408
   1853   N9       52.3740   36.9720   17.0870 N.ar   90  A90        -0.2693
   1854   C8       52.4950   36.6430   15.7660 C.ar   90  A90         0.1816
   1855   N7       53.3550   37.3800   15.1150 N.ar   90  A90        -0.2193
   1856   C5       53.8730   38.2180   16.0880 C.ar   90  A90         0.1518
   1857   C6       54.8350   39.2550   16.0490 C.ar   90  A90         0.1919
   1858   N6       55.4830   39.6160   14.9380 N.pl3  90  A90        -0.1054
   1859   N.1      55.0850   39.9210   17.2000 N.ar   90  A90        -0.2040
   1860   C.2      54.4120   39.5800   18.3160 C.ar   90  A90         0.2016
   1861   N.3      53.5210   38.6080   18.4880 N.ar   90  A90        -0.2048
   1862   C4       53.2810   37.9680   17.3170 C.ar   90  A90         0.1692
   1863    P.3     47.9030   35.1120   20.5400 P.3    91  G91         0.2141
   1864  OP1       48.5040   34.4280   21.7160 O.3    91  G91        -0.4373
   1865  OP2       47.0030   34.3790   19.6430 O.2    91  G91        -0.5172
   1866  O5'       47.1590   36.4320   21.0140 O.3    91  G91        -0.3114
   1867  C5'       46.1450   36.4070   21.9900 C.3    91  G91         0.1812
   1868  C4'       45.7200   37.8250   22.3100 C.3    91  G91         0.1773
   1869  O4'       46.8940   38.6360   22.5890 O.3    91  G91        -0.3307
   1870  C3'       44.9580   38.5560   21.2020 C.3    91  G91         0.1860
   1871  O3'       43.9330   39.2910   21.7940 O.3    91  G91        -0.3112
   1872  C2'       46.0360   39.4770   20.5740 C.3    91  G91         0.2309
   1873  O2'       45.5160   40.6870   20.0390 O.3    91  G91        -0.2156
   1874  C1'       46.8960   39.7860   21.7710 C.3    91  G91         0.2408
   1875   N9       48.2690   40.1600   21.4620 N.ar   91  G91        -0.2693
   1876   C8       49.3460   39.3270   21.2280 C.ar   91  G91         0.1817
   1877   N7       50.4930   39.9660   21.1480 N.ar   91  G91        -0.2173
   1878   C5       50.1490   41.2940   21.3690 C.ar   91  G91         0.1748
   1879   C6       50.9590   42.4510   21.4430 C.ar   91  G91         0.3023
   1880   O6       52.1770   42.5380   21.2660 O.2    91  G91        -0.2633
   1881   N.1      50.2110   43.5990   21.7480 N.ar   91  G91        -0.1709
   1882   C.2      48.8360   43.6180   21.9110 C.ar   91  G91         0.2606
   1883   N.2      48.2570   44.8150   22.1000 N.pl3  91  G91        -0.0859
   1884   N.3      48.0740   42.5470   21.8290 N.ar   91  G91        -0.1918
   1885   C4       48.7920   41.4210   21.5790 C.ar   91  G91         0.1723
   1886    P.3     42.4220   38.8290   21.6850 P.3    92  A92         0.2141
   1887  OP1       41.6380   39.7470   22.5290 O.3    92  A92        -0.4373
   1888  OP2       42.3190   37.3390   21.9250 O.2    92  A92        -0.5172
   1889  O5'       42.0940   39.1130   20.1620 O.3    92  A92        -0.3114
   1890  C5'       41.9300   40.4180   19.6730 C.3    92  A92         0.1812
   1891  C4'       40.9780   40.4000   18.4950 C.3    92  A92         0.1773
   1892  O4'       41.4810   39.5200   17.4610 O.3    92  A92        -0.3307
   1893  C3'       39.5760   39.9020   18.8070 C.3    92  A92         0.1860
   1894  O3'       38.6440   40.6320   18.0190 O.3    92  A92        -0.3112
   1895  C2'       39.6360   38.4210   18.3900 C.3    92  A92         0.2309
   1896  O2'       38.3740   37.9020   18.0310 O.3    92  A92        -0.2156
   1897  C1'       40.5470   38.4900   17.1790 C.3    92  A92         0.2408
   1898   N9       41.2910   37.2550   16.8960 N.ar   92  A92        -0.2693
   1899   C8       42.0470   36.5310   17.7740 C.ar   92  A92         0.1816
   1900   N7       42.6860   35.5260   17.2220 N.ar   92  A92        -0.2193
   1901   C5       42.3890   35.6380   15.8730 C.ar   92  A92         0.1518
   1902   C6       42.7730   34.8800   14.7360 C.ar   92  A92         0.1919
   1903   N6       43.5590   33.8000   14.7950 N.pl3  92  A92        -0.1054
   1904   N.1      42.3240   35.2770   13.5320 N.ar   92  A92        -0.2040
   1905   C.2      41.5310   36.3390   13.4680 C.ar   92  A92         0.2016
   1906   N.3      41.0910   37.1190   14.4590 N.ar   92  A92        -0.2048
   1907   C4       41.5460   36.7020   15.6510 C.ar   92  A92         0.1692
   1908    P.3     38.0590   42.0400   18.5170 P.3    93  G93         0.2141
   1909  OP1       38.7260   43.0980   17.7300 O.2    93  G93        -0.5172
   1910  OP2       38.0970   42.0860   20.0140 O.3    93  G93        -0.4373
   1911  O5'       36.5290   41.9210   18.0620 O.3    93  G93        -0.3114
   1912  C5'       35.8290   40.7150   18.3130 C.3    93  G93         0.1812
   1913  C4'       34.5520   40.6460   17.5370 C.3    93  G93         0.1773
   1914  O4'       33.9290   41.9470   17.4900 O.3    93  G93        -0.3307
   1915  C3'       34.7250   40.2230   16.1000 C.3    93  G93         0.1860
   1916  O3'       34.6890   38.7870   16.0310 O.3    93  G93        -0.3112
   1917  C2'       33.5070   40.8860   15.4470 C.3    93  G93         0.2309
   1918  O2'       32.2930   40.1930   15.7350 O.3    93  G93        -0.2156
   1919  C1'       33.4790   42.2190   16.1780 C.3    93  G93         0.2408
   1920   N9       34.3180   43.2970   15.6290 N.ar   93  G93        -0.2693
   1921   C8       35.1090   44.1470   16.3750 C.ar   93  G93         0.1817
   1922   N7       35.6700   45.0950   15.6840 N.ar   93  G93        -0.2173
   1923   C5       35.1840   44.9020   14.3950 C.ar   93  G93         0.1748
   1924   C6       35.3530   45.7010   13.2460 C.ar   93  G93         0.3023
   1925   O6       36.0850   46.7000   13.1050 O.2    93  G93        -0.2633
   1926   N.1      34.7000   45.1710   12.1480 N.ar   93  G93        -0.1709
   1927   C.2      33.9440   44.0410   12.1570 C.ar   93  G93         0.2606
   1928   N.2      33.3730   43.7150   10.9940 N.pl3  93  G93        -0.0859
   1929   N.3      33.6970   43.3220   13.2550 N.ar   93  G93        -0.1918
   1930   C4       34.3300   43.8230   14.3430 C.ar   93  G93         0.1723
   1931    P.3     35.9980   37.9450   15.6040 P.3    94  U94         0.2141
   1932  OP1       35.8820   36.5660   16.1420 O.3    94  U94        -0.4373
   1933  OP2       37.2100   38.7560   15.8870 O.2    94  U94        -0.5172
   1934  O5'       35.8070   37.8820   14.0340 O.3    94  U94        -0.3114
   1935  C5'       34.5230   37.5900   13.4780 C.3    94  U94         0.1812
   1936  C4'       34.5130   37.9200   12.0010 C.3    94  U94         0.1773
   1937  O4'       34.5600   39.3520   11.8300 O.3    94  U94        -0.3307
   1938  C3'       35.6730   37.3590   11.2020 C.3    94  U94         0.1860
   1939  O3'       35.1950   36.8040    9.9640 O.3    94  U94        -0.3112
   1940  C2'       36.5670   38.5690   11.0120 C.3    94  U94         0.2309
   1941  O2'       37.3560   38.5090    9.8500 O.3    94  U94        -0.2156
   1942  C1'       35.5550   39.6880   10.9290 C.3    94  U94         0.2420
   1943   N.1      36.1060   40.9670   11.3480 N.ar   94  U94        -0.2534
   1944   C.2      36.2370   41.9630   10.4220 C.ar   94  U94         0.3546
   1945   O.2      35.8520   41.8480    9.2830 O.2    94  U94        -0.2443
   1946   N.3      36.9050   43.0830   10.8660 N.ar   94  U94        -0.1530
   1947   C4       37.4570   43.2800   12.1250 C.ar   94  U94         0.2846
   1948   O4       37.9610   44.3410   12.3970 O.2    94  U94        -0.2650
   1949   C5       37.2800   42.1990   13.0510 C.ar   94  U94         0.0814
   1950   C6       36.6430   41.0950   12.6340 C.ar   94  U94         0.0870
   1951    P.3     35.0110   35.2180    9.8550 P.3    95  C95         0.2141
   1952  OP1       34.4660   34.8820    8.5060 O.2    95  C95        -0.5172
   1953  OP2       34.2900   34.7540   11.0730 O.3    95  C95        -0.4373
   1954  O5'       36.5150   34.7100    9.9900 O.3    95  C95        -0.3114
   1955  C5'       37.2800   34.3540    8.8940 C.3    95  C95         0.1812
   1956  C4'       38.4430   33.5240    9.3670 C.3    95  C95         0.1773
   1957  O4'       39.2050   34.2550   10.3590 O.3    95  C95        -0.3307
   1958  C3'       38.0570   32.2600   10.0820 C.3    95  C95         0.1860
   1959  O3'       37.7670   31.2820    9.1370 O.3    95  C95        -0.3112
   1960  C2'       39.3510   31.9550   10.8260 C.3    95  C95         0.2309
   1961  O2'       40.3370   31.4000    9.9780 O.3    95  C95        -0.2156
   1962  C1'       39.7840   33.3420   11.2700 C.3    95  C95         0.2420
   1963   N.1      39.3830   33.7080   12.6920 N.ar   95  C95        -0.2535
   1964   C.2      40.0540   33.1160   13.7970 C.ar   95  C95         0.3532
   1965   O.2      40.9320   32.2880   13.6000 O.2    95  C95        -0.2443
   1966   N.3      39.7380   33.5020   15.0540 N.ar   95  C95        -0.1739
   1967   C4       38.7940   34.4250   15.2500 C.ar   95  C95         0.1759
   1968   N.4      38.4990   34.7530   16.5170 N.pl3  95  C95        -0.1070
   1969   C5       38.0670   35.0180   14.1480 C.ar   95  C95         0.0566
   1970   C6       38.4280   34.6700   12.9050 C.ar   95  C95         0.0850
   1971    P.3     36.6040   30.2140    9.3630 P.3    96  U96         0.2141
   1972  OP1       36.5370   29.4000    8.1230 O.2    96  U96        -0.5172
   1973  OP2       35.3840   30.9160    9.8500 O.3    96  U96        -0.4373
   1974  O5'       37.1800   29.3040   10.5410 O.3    96  U96        -0.3114
   1975  C5'       38.0860   28.2620   10.2420 C.3    96  U96         0.1812
   1976  C4'       38.6420   27.6610   11.5090 C.3    96  U96         0.1773
   1977  O4'       39.2490   28.7100   12.2980 O.3    96  U96        -0.3307
   1978  C3'       37.6020   27.0890   12.4480 C.3    96  U96         0.1860
   1979  O3'       37.1760   25.8070   12.0480 O.3    96  U96        -0.3112
   1980  C2'       38.3480   27.0980   13.7820 C.3    96  U96         0.2309
   1981  O2'       39.3150   26.0620   13.9270 O.3    96  U96        -0.2156
   1982  C1'       39.0500   28.4400   13.6900 C.3    96  U96         0.2420
   1983   N.1      38.2790   29.5680   14.3430 N.ar   96  U96        -0.2534
   1984   C.2      38.2150   29.6330   15.7320 C.ar   96  U96         0.3546
   1985   O.2      38.7230   28.7990   16.4720 O.2    96  U96        -0.2443
   1986   N.3      37.5320   30.7210   16.2260 N.ar   96  U96        -0.1530
   1987   C4       36.9110   31.7180   15.5010 C.ar   96  U96         0.2846
   1988   O4       36.3320   32.6300   16.0870 O.2    96  U96        -0.2650
   1989   C5       37.0130   31.5810   14.0690 C.ar   96  U96         0.0814
   1990   C6       37.6810   30.5390   13.5560 C.ar   96  U96         0.0870
   1991    P.3     35.6100   25.4520   12.1070 P.3    97  G97         0.2141
   1992  OP1       35.4120   24.2060   11.3220 O.2    97  G97        -0.5172
   1993  OP2       34.8310   26.6680   11.7650 O.3    97  G97        -0.4373
   1994  O5'       35.3600   25.1440   13.6620 O.3    97  G97        -0.3114
   1995  C5'       36.1630   24.1950   14.3630 C.3    97  G97         0.1812
   1996  C4'       35.8960   24.2660   15.8540 C.3    97  G97         0.1773
   1997  O4'       36.4810   25.4760   16.3950 O.3    97  G97        -0.3307
   1998  C3'       34.4360   24.3760   16.2440 C.3    97  G97         0.1860
   1999  O3'       33.7900   23.1110   16.2000 O.3    97  G97        -0.3112
   2000  C2'       34.5440   24.9490   17.6570 C.3    97  G97         0.2309
   2001  O2'       34.8940   23.9900   18.6330 O.3    97  G97        -0.2156
   2002  C1'       35.6870   25.9420   17.4850 C.3    97  G97         0.2408
   2003   N9       35.2360   27.3340   17.2470 N.ar   97  G97        -0.2693
   2004   C8       35.1100   27.9880   16.0440 C.ar   97  G97         0.1817
   2005   N7       34.7010   29.2290   16.1650 N.ar   97  G97        -0.2173
   2006   C5       34.5630   29.4140   17.5410 C.ar   97  G97         0.1748
   2007   C6       34.1440   30.5650   18.3000 C.ar   97  G97         0.3023
   2008   O6       33.7700   31.6800   17.8830 O.2    97  G97        -0.2633
   2009   N.1      34.0770   30.2880   19.6700 N.ar   97  G97        -0.1709
   2010   C.2      34.4190   29.0790   20.2400 C.ar   97  G97         0.2606
   2011   N.2      34.3550   29.0040   21.5730 N.pl3  97  G97        -0.0859
   2012   N.3      34.8060   28.0140   19.5490 N.ar   97  G97        -0.1918
   2013   C4       34.8290   28.2390   18.2100 C.ar   97  G97         0.1723
   2014    P.3     32.2280   23.0040   15.7910 P.3    98  G98         0.2141
   2015  OP1       31.9630   21.6340   15.2880 O.3    98  G98        -0.4373
   2016  OP2       31.8730   24.1580   14.9340 O.2    98  G98        -0.5172
   2017  O5'       31.4900   23.1960   17.1990 O.3    98  G98        -0.3114
   2018  C5'       31.7390   22.2860   18.2740 C.3    98  G98         0.1812
   2019  C4'       31.2460   22.8520   19.5930 C.3    98  G98         0.1773
   2020  O4'       31.9770   24.0620   19.9040 O.3    98  G98        -0.3307
   2021  C3'       29.7800   23.2620   19.6210 C.3    98  G98         0.1860
   2022  O3'       28.9630   22.1340   19.9120 O.3    98  G98        -0.3112
   2023  C2'       29.7600   24.2960   20.7460 C.3    98  G98         0.2309
   2024  O2'       29.6620   23.7150   22.0330 O.3    98  G98        -0.2156
   2025  C1'       31.1230   24.9700   20.5830 C.3    98  G98         0.2408
   2026   N9       31.0730   26.2330   19.8440 N.ar   98  G98        -0.2693
   2027   C8       31.1120   26.4050   18.4780 C.ar   98  G98         0.1817
   2028   N7       31.0560   27.6540   18.1060 N.ar   98  G98        -0.2173
   2029   C5       30.9780   28.3570   19.3010 C.ar   98  G98         0.1748
   2030   C6       30.8970   29.7570   19.5360 C.ar   98  G98         0.3023
   2031   O6       30.8530   30.6700   18.7020 O.2    98  G98        -0.2633
   2032   N.1      30.8330   30.0530   20.9020 N.ar   98  G98        -0.1709
   2033   C.2      30.8270   29.1070   21.9160 C.ar   98  G98         0.2606
   2034   N.2      30.7560   29.5740   23.1740 N.pl3  98  G98        -0.0859
   2035   N.3      30.9030   27.7940   21.7060 N.ar   98  G98        -0.1918
   2036   C4       30.9720   27.4930   20.3800 C.ar   98  G98         0.1723
   2037    P.3     27.5390   21.9440   19.1850 P.3    99  A99         0.2141
   2038  OP1       26.5540   22.8100   19.8820 O.3    99  A99        -0.4373
   2039  OP2       27.2930   20.4830   19.0740 O.2    99  A99        -0.5172
   2040  O5'       27.7840   22.5350   17.7090 O.3    99  A99        -0.3114
   2041  C5'       26.8910   22.2040   16.6370 C.3    99  A99         0.1812
   2042  C4'       26.7690   23.3500   15.6320 C.3    99  A99         0.1773
   2043  O4'       26.3680   24.5680   16.3030 O.3    99  A99        -0.3307
   2044  C3'       28.0310   23.7100   14.8490 C.3    99  A99         0.1860
   2045  O3'       27.6450   24.1550   13.5420 O.3    99  A99        -0.3112
   2046  C2'       28.6040   24.8720   15.6720 C.3    99  A99         0.2309
   2047  O2'       29.4250   25.7240   14.9070 O.3    99  A99        -0.2156
   2048  C1'       27.3230   25.5910   16.0660 C.3    99  A99         0.2408
   2049   N9       27.4290   26.3910   17.2780 N.ar   99  A99        -0.2693
   2050   C8       27.2930   25.9420   18.5670 C.ar   99  A99         0.1816
   2051   N7       27.3510   26.8850   19.4730 N.ar   99  A99        -0.2193
   2052   C5       27.4890   28.0430   18.7310 C.ar   99  A99         0.1518
   2053   C6       27.5860   29.3990   19.1070 C.ar   99  A99         0.1919
   2054   N6       27.5820   29.7970   20.3900 N.pl3  99  A99        -0.1054
   2055   N.1      27.7490   30.3230   18.1140 N.ar   99  A99        -0.2040
   2056   C.2      27.7630   29.9070   16.8340 C.ar   99  A99         0.2016
   2057   N.3      27.6390   28.6620   16.3540 N.ar   99  A99        -0.2048
   2058   C4       27.5150   27.7630   17.3670 C.ar   99  A99         0.1692
   2059    P.3     27.8830   23.2540   12.2370 P.3   100  U100        0.2141
   2060  OP1       28.7690   22.1060   12.5830 O.3   100  U100       -0.4373
   2061  OP2       28.2600   24.1770   11.1380 O.2   100  U100       -0.5172
   2062  O5'       26.4160   22.6960   11.9290 O.3   100  U100       -0.3114
   2063  C5'       25.3230   23.6020   11.6530 C.3   100  U100        0.1812
   2064  C4'       24.0420   22.8210   11.4010 C.3   100  U100        0.1773
   2065  O4'       24.3060   21.7440   10.4630 O.3   100  U100       -0.3307
   2066  C3'       23.4300   22.1640   12.6430 C.3   100  U100        0.1860
   2067  O3'       21.9700   22.2580   12.6080 O.3   100  U100       -0.3112
   2068  C2'       23.9220   20.7110   12.5470 C.3   100  U100        0.2309
   2069  O2'       23.0420   19.7890   13.1670 O.3   100  U100       -0.2156
   2070  C1'       23.9440   20.5000   11.0330 C.3   100  U100        0.2420
   2071   N.1      24.9190   19.4340   10.5490 N.ar  100  U100       -0.2534
   2072   C.2      24.4240   18.3180    9.8630 C.ar  100  U100        0.3546
   2073   O.2      23.2320   18.1370    9.6350 O.2   100  U100       -0.2443
   2074   N.3      25.3910   17.4110    9.4560 N.ar  100  U100       -0.1530
   2075   C4       26.7700   17.5100    9.6500 C.ar  100  U100        0.2846
   2076   O4       27.5110   16.6270    9.2180 O.2   100  U100       -0.2650
   2077   C5       27.2070   18.6930   10.3720 C.ar  100  U100        0.0814
   2078   C6       26.2900   19.5930   10.7770 C.ar  100  U100        0.0870
   2079    P.3     21.1950   23.4520   13.3810 P.3   101  G101        0.2141
   2080  OP1       19.7590   23.0640   13.5130 O.3   101  G101       -0.4373
   2081  OP2       21.5530   24.7290   12.7090 O.2   101  G101       -0.5172
   2082  O5'       21.8710   23.4800   14.8450 O.3   101  G101       -0.3114
   2083  C5'       21.7770   22.3500   15.7340 C.3   101  G101        0.1812
   2084  C4'       22.2040   22.7340   17.1400 C.3   101  G101        0.1773
   2085  O4'       23.5210   23.3510   17.1000 O.3   101  G101       -0.3307
   2086  C3'       21.3090   23.7650   17.8030 C.3   101  G101        0.1860
   2087  O3'       20.1910   23.1310   18.4380 O.3   101  G101       -0.3112
   2088  C2'       22.2590   24.4330   18.7920 C.3   101  G101        0.2309
   2089  O2'       22.4150   23.7170   20.0010 O.3   101  G101       -0.2156
   2090  C1'       23.5680   24.4460   18.0010 C.3   101  G101        0.2408
   2091   N9       23.7850   25.6900   17.2420 N.ar  101  G101       -0.2693
   2092   C8       23.7880   25.8480   15.8700 C.ar  101  G101        0.1817
   2093   N7       24.0370   27.0740   15.4840 N.ar  101  G101       -0.2173
   2094   C5       24.1300   27.7910   16.6690 C.ar  101  G101        0.1748
   2095   C6       24.3440   29.1760   16.8860 C.ar  101  G101        0.3023
   2096   O6       24.4910   30.0650   16.0400 O.2   101  G101       -0.2633
   2097   N.1      24.3650   29.4990   18.2510 N.ar  101  G101       -0.1709
   2098   C.2      24.1980   28.5890   19.2760 C.ar  101  G101        0.2606
   2099   N.2      24.2600   29.0690   20.5250 N.pl3 101  G101       -0.0859
   2100   N.3      24.0160   27.2900   19.0870 N.ar  101  G101       -0.1918
   2101   C4       23.9880   26.9580   17.7620 C.ar  101  G101        0.1723
   2102    P.3     18.7070   23.7330   18.2550 P.3   102  A102        0.2141
   2103  OP1       17.7470   22.7700   18.8550 O.3   102  A102       -0.4373
   2104  OP2       18.5290   24.1610   16.8380 O.2   102  A102       -0.5172
   2105  O5'       18.7510   25.0550   19.1540 O.3   102  A102       -0.3114
   2106  C5'       18.8950   24.9620   20.5650 C.3   102  A102        0.1812
   2107  C4'       19.3160   26.2910   21.1410 C.3   102  A102        0.1773
   2108  O4'       20.5340   26.7110   20.4860 O.3   102  A102       -0.3307
   2109  C3'       18.3470   27.4330   20.8930 C.3   102  A102        0.1860
   2110  O3'       17.3250   27.4550   21.8680 O.3   102  A102       -0.3112
   2111  C2'       19.2660   28.6490   20.9760 C.3   102  A102        0.2309
   2112  O2'       19.5840   29.0260   22.3080 O.3   102  A102       -0.2156
   2113  C1'       20.5110   28.1170   20.2810 C.3   102  A102        0.2408
   2114   N9       20.5720   28.4010   18.8430 N.ar  102  A102       -0.2693
   2115   C8       20.4680   27.5000   17.8110 C.ar  102  A102        0.1816
   2116   N7       20.6640   28.0210   16.6190 N.ar  102  A102       -0.2193
   2117   C5       20.9210   29.3560   16.8810 C.ar  102  A102        0.1518
   2118   C6       21.2510   30.4510   16.0420 C.ar  102  A102        0.1919
   2119   N6       21.3590   30.3490   14.7060 N.pl3 102  A102       -0.1054
   2120   N.1      21.4290   31.6720   16.6330 N.ar  102  A102       -0.2040
   2121   C.2      21.3450   31.7680   17.9760 C.ar  102  A102        0.2016
   2122   N.3      21.0900   30.8040   18.8690 N.ar  102  A102       -0.2048
   2123   C4       20.8790   29.6100   18.2520 C.ar  102  A102        0.1692
   2124    P.3     15.8160   27.8000   21.4360 P.3   103  G103        0.2141
   2125  OP1       14.9530   27.6870   22.6410 O.3   103  G103       -0.4373
   2126  OP2       15.4820   27.0140   20.2250 O.2   103  G103       -0.5172
   2127  O5'       15.9230   29.3290   20.9910 O.3   103  G103       -0.3114
   2128  C5'       15.9930   30.3590   21.9600 C.3   103  G103        0.1812
   2129  C4'       16.3480   31.6800   21.3080 C.3   103  G103        0.1773
   2130  O4'       17.5000   31.5100   20.4530 O.3   103  G103       -0.3307
   2131  C3'       15.2970   32.2500   20.3780 C.3   103  G103        0.1860
   2132  O3'       14.2880   32.9250   21.1170 O.3   103  G103       -0.3112
   2133  C2'       16.1350   33.2150   19.5460 C.3   103  G103        0.2309
   2134  O2'       16.4180   34.4110   20.2390 O.3   103  G103       -0.2156
   2135  C1'       17.4250   32.4300   19.3720 C.3   103  G103        0.2408
   2136   N9       17.5080   31.7020   18.1060 N.ar  103  G103       -0.2693
   2137   C8       17.1180   30.4020   17.8670 C.ar  103  G103        0.1817
   2138   N7       17.3260   30.0100   16.6400 N.ar  103  G103       -0.2173
   2139   C5       17.9020   31.1180   16.0200 C.ar  103  G103        0.1748
   2140   C6       18.3130   31.3030   14.6680 C.ar  103  G103        0.3023
   2141   O6       18.3080   30.4750   13.7480 O.2   103  G103       -0.2633
   2142   N.1      18.8130   32.5890   14.4390 N.ar  103  G103       -0.1709
   2143   C.2      18.9000   33.5810   15.3930 C.ar  103  G103        0.2606
   2144   N.2      19.4260   34.7560   14.9830 N.pl3 103  G103       -0.0859
   2145   N.3      18.4940   33.4310   16.6640 N.ar  103  G103       -0.1918
   2146   C4       18.0110   32.1750   16.9060 C.ar  103  G103        0.1723
   2147    P.3     12.7390   32.6800   20.7760 P.3   104  A104        0.2141
   2148  OP1       12.1760   31.7640   21.8070 O.3   104  A104       -0.4373
   2149  OP2       12.6280   32.3180   19.3380 O.2   104  A104       -0.5172
   2150  O5'       12.0950   34.1370   20.9540 O.3   104  A104       -0.3114
   2151  C5'       12.2670   34.8600   22.1550 C.3   104  A104        0.1812
   2152  C4'       12.8850   36.2060   21.8680 C.3   104  A104        0.1773
   2153  O4'       14.1250   36.0030   21.1460 O.3   104  A104       -0.3307
   2154  C3'       12.0660   37.1080   20.9530 C.3   104  A104        0.1860
   2155  O3'       11.0660   37.8050   21.6840 O.3   104  A104       -0.3112
   2156  C2'       13.1420   38.0410   20.3720 C.3   104  A104        0.2309
   2157  O2'       13.4730   39.1250   21.2320 O.3   104  A104       -0.2156
   2158  C1'       14.3360   37.0790   20.2320 C.3   104  A104        0.2408
   2159   N9       14.4870   36.5250   18.8830 N.ar  104  A104       -0.2693
   2160   C8       13.6240   35.6770   18.2320 C.ar  104  A104        0.1816
   2161   N7       13.9850   35.3830   17.0030 N.ar  104  A104       -0.2193
   2162   C5       15.1840   36.0510   16.8480 C.ar  104  A104        0.1518
   2163   C6       16.0910   36.1300   15.7740 C.ar  104  A104        0.1919
   2164   N6       15.9070   35.5080   14.6060 N.pl3 104  A104       -0.1054
   2165   N.1      17.2030   36.8830   15.9460 N.ar  104  A104       -0.2040
   2166   C.2      17.3980   37.4960   17.1220 C.ar  104  A104        0.2016
   2167   N.3      16.6130   37.5070   18.1970 N.ar  104  A104       -0.2048
   2168   C4       15.5060   36.7670   17.9940 C.ar  104  A104        0.1692
   2169    P.3      9.5090   37.4090   21.5200 P.3   105  G105        0.2141
   2170  OP1        8.7140   38.6670   21.6500 O.2   105  G105       -0.5172
   2171  OP2        9.2270   36.2650   22.4250 O.3   105  G105       -0.4373
   2172  O5'        9.3980   36.8520   20.0150 O.3   105  G105       -0.3114
   2173  C5'        8.6990   37.5810   19.0160 C.3   105  G105        0.1812
   2174  C4'        9.5180   37.7020   17.7470 C.3   105  G105        0.1773
   2175  O4'       10.6000   36.7280   17.7520 O.3   105  G105       -0.3307
   2176  C3'        8.7530   37.4280   16.4740 C.3   105  G105        0.1860
   2177  O3'        8.1070   38.5920   16.0370 O.3   105  G105       -0.3112
   2178  C2'        9.8580   36.9850   15.5210 C.3   105  G105        0.2309
   2179  O2'       10.5810   38.0610   14.9520 O.3   105  G105       -0.2156
   2180  C1'       10.7660   36.1930   16.4540 C.3   105  G105        0.2408
   2181   N9       10.5030   34.7480   16.4750 N.ar  105  G105       -0.2693
   2182   C8       10.0730   33.9880   17.5370 C.ar  105  G105        0.1817
   2183   N7       10.0420   32.7070   17.2830 N.ar  105  G105       -0.2173
   2184   C5       10.4420   32.6150   15.9570 C.ar  105  G105        0.1748
   2185   C6       10.5790   31.4780   15.1080 C.ar  105  G105        0.3023
   2186   O6       10.3760   30.2870   15.3730 O.2   105  G105       -0.2633
   2187   N.1      10.9850   31.8370   13.8250 N.ar  105  G105       -0.1709
   2188   C.2      11.2890   33.1230   13.4290 C.ar  105  G105        0.2606
   2189   N.2      11.7400   33.2760   12.1720 N.pl3 105  G105       -0.0859
   2190   N.3      11.1560   34.1890   14.2070 N.ar  105  G105       -0.1918
   2191   C4       10.7280   33.8640   15.4500 C.ar  105  G105        0.1723
   2192    P.3      6.6550   38.5050   15.3560 P.3   106  A106        0.2141
   2193  OP1        6.1130   39.8880   15.2680 O.2   106  A106       -0.5172
   2194  OP2        5.8630   37.4490   16.0390 O.3   106  A106       -0.4373
   2195  O5'        6.9880   37.9680   13.8890 O.3   106  A106       -0.3114
   2196  C5'        7.6840   38.7890   12.9590 C.3   106  A106        0.1812
   2197  C4'        8.0800   37.9900   11.7270 C.3   106  A106        0.1773
   2198  O4'        8.9840   36.9170   12.1020 O.3   106  A106       -0.3307
   2199  C3'        6.9480   37.2680   11.0270 C.3   106  A106        0.1860
   2200  O3'        6.1860   38.1520   10.2220 O.3   106  A106       -0.3112
   2201  C2'        7.7200   36.2090   10.2310 C.3   106  A106        0.2309
   2202  O2'        8.3750   36.7210    9.0760 O.3   106  A106       -0.2156
   2203  C1'        8.7540   35.7810   11.2710 C.3   106  A106        0.2408
   2204   N9        8.3080   34.6680   12.1120 N.ar  106  A106       -0.2693
   2205   C8        7.6990   34.7510   13.3450 C.ar  106  A106        0.1816
   2206   N7        7.3730   33.5860   13.8640 N.ar  106  A106       -0.2193
   2207   C5        7.8090   32.6690   12.9150 C.ar  106  A106        0.1518
   2208   C6        7.7700   31.2540   12.8670 C.ar  106  A106        0.1919
   2209   N6        7.2730   30.4980   13.8520 N.pl3 106  A106       -0.1054
   2210   N.1       8.2620   30.6490   11.7560 N.ar  106  A106       -0.2040
   2211   C.2       8.7260   31.4100   10.7510 C.ar  106  A106        0.2016
   2212   N.3       8.8660   32.7390   10.6990 N.ar  106  A106       -0.2048
   2213   C4        8.3660   33.3200   11.8150 C.ar  106  A106        0.1692
   2214    P.3      4.5890   37.9840   10.1580 P.3   107  A107        0.2141
   2215  OP1        4.0190   39.2320    9.5760 O.2   107  A107       -0.5172
   2216  OP2        4.0940   37.5040   11.4760 O.3   107  A107       -0.4373
   2217  O5'        4.4180   36.7700    9.1180 O.3   107  A107       -0.3114
   2218  C5'        4.8090   36.9220    7.7470 C.3   107  A107        0.1812
   2219  C4'        4.9860   35.5710    7.0660 C.3   107  A107        0.1773
   2220  O4'        5.9550   34.7770    7.8010 O.3   107  A107       -0.3307
   2221  C3'        3.7550   34.6830    7.0240 C.3   107  A107        0.1860
   2222  O3'        2.8500   35.0680    5.9890 O.3   107  A107       -0.3112
   2223  C2'        4.3920   33.3110    6.7940 C.3   107  A107        0.2309
   2224  O2'        4.8090   33.0850    5.4520 O.3   107  A107       -0.2156
   2225  C1'        5.6010   33.3970    7.7250 C.3   107  A107        0.2408
   2226   N9        5.3090   32.8980    9.0750 N.ar  107  A107       -0.2693
   2227   C8        4.7810   33.6120   10.1270 C.ar  107  A107        0.1816
   2228   N7        4.5000   32.8810   11.1830 N.ar  107  A107       -0.2193
   2229   C5        4.8450   31.5930   10.7970 C.ar  107  A107        0.1518
   2230   C6        4.8060   30.3460   11.4760 C.ar  107  A107        0.1919
   2231   N6        4.3920   30.2090   12.7440 N.pl3 107  A107       -0.1054
   2232   N.1       5.2300   29.2460   10.8000 N.ar  107  A107       -0.2040
   2233   C.2       5.6270   29.3810    9.5200 C.ar  107  A107        0.2016
   2234   N.3       5.7040   30.4940    8.7770 N.ar  107  A107       -0.2048
   2235   C4        5.3110   31.5790    9.4850 C.ar  107  A107        0.1692
   2236    P.3      1.2730   34.7770    6.1640 P.3   108  G108        0.2141
   2237  OP1        0.5400   35.5340    5.1190 O.2   108  G108       -0.5172
   2238  OP2        0.9090   34.9780    7.5870 O.3   108  G108       -0.4373
   2239  O5'        1.1690   33.2090    5.8430 O.3   108  G108       -0.3114
   2240  C5'        1.5070   32.7230    4.5380 C.3   108  G108        0.1812
   2241  C4'        1.6760   31.2130    4.5320 C.3   108  G108        0.1773
   2242  O4'        2.7220   30.8270    5.4620 O.3   108  G108       -0.3307
   2243  C3'        0.4680   30.4230    4.9930 C.3   108  G108        0.1860
   2244  O3'       -0.4910   30.2910    3.9630 O.3   108  G108       -0.3112
   2245  C2'        1.1000   29.0910    5.3800 C.3   108  G108        0.2309
   2246  O2'        1.3600   28.2420    4.2710 O.3   108  G108       -0.2156
   2247  C1'        2.4030   29.5590    6.0350 C.3   108  G108        0.2408
   2248   N9        2.2780   29.6980    7.4920 N.ar  108  G108       -0.2693
   2249   C8        2.0240   30.8520    8.2030 C.ar  108  G108        0.1817
   2250   N7        1.8720   30.6540    9.4860 N.ar  108  G108       -0.2173
   2251   C5        1.9830   29.2780    9.6340 C.ar  108  G108        0.1748
   2252   C6        1.9230   28.4710   10.8060 C.ar  108  G108        0.3023
   2253   O6        1.7350   28.8340   11.9790 O.2   108  G108       -0.2633
   2254   N.1       2.1090   27.1100   10.5120 N.ar  108  G108       -0.1709
   2255   C.2       2.3210   26.5980    9.2430 C.ar  108  G108        0.2606
   2256   N.2       2.4580   25.2660    9.1460 N.pl3 108  G108       -0.0859
   2257   N.3       2.3740   27.3440    8.1420 N.ar  108  G108       -0.1918
   2258   C4        2.2100   28.6700    8.4110 C.ar  108  G108        0.1723
   2259    P.3     -2.0470   30.2320    4.3520 P.3   109  A109        0.2141
   2260  OP1       -2.8450   30.3350    3.1030 O.2   109  A109       -0.5172
   2261  OP2       -2.2860   31.2020    5.4480 O.3   109  A109       -0.4373
   2262  O5'       -2.2080   28.7510    4.9600 O.3   109  A109       -0.3114
   2263  C5'       -1.9970   27.6040    4.1260 C.3   109  A109        0.1812
   2264  C4'       -1.8910   26.3280    4.9440 C.3   109  A109        0.1773
   2265  O4'       -0.8760   26.4650    5.9680 O.3   109  A109       -0.3307
   2266  C3'       -3.1320   25.9470    5.7190 C.3   109  A109        0.1860
   2267  O3'       -4.1000   25.3410    4.8620 O.3   109  A109       -0.3112
   2268  C2'       -2.5550   24.9680    6.7380 C.3   109  A109        0.2309
   2269  O2'       -2.3340   23.6750    6.2010 O.3   109  A109       -0.2156
   2270  C1'       -1.2220   25.6370    7.0800 C.3   109  A109        0.2408
   2271   N9       -1.2720   26.4530    8.3050 N.ar  109  A109       -0.2693
   2272   C8       -1.4160   27.8170    8.3930 C.ar  109  A109        0.1816
   2273   N7       -1.4480   28.2740    9.6260 N.ar  109  A109       -0.2193
   2274   C5       -1.3120   27.1380   10.4060 C.ar  109  A109        0.1518
   2275   C6       -1.2760   26.9410   11.8080 C.ar  109  A109        0.1919
   2276   N6       -1.3770   27.9390   12.6920 N.pl3 109  A109       -0.1054
   2277   N.1      -1.1800   25.6670   12.2640 N.ar  109  A109       -0.2040
   2278   C.2      -1.1260   24.6590   11.3740 C.ar  109  A109        0.2016
   2279   N.3      -1.1280   24.7180   10.0380 N.ar  109  A109       -0.2048
   2280   C4       -1.2290   25.9990    9.6110 C.ar  109  A109        0.1692
   2281    P.3     -5.6690   25.5530    5.1470 P.3   110  U110        0.2141
   2282  OP1       -6.4240   25.0410    3.9740 O.2   110  U110       -0.5172
   2283  OP2       -5.8780   26.9510    5.5970 O.3   110  U110       -0.4373
   2284  O5'       -5.9330   24.5840    6.3990 O.3   110  U110       -0.3114
   2285  C5'       -5.7500   23.1690    6.2570 C.3   110  U110        0.1812
   2286  C4'       -5.7170   22.4640    7.6020 C.3   110  U110        0.1773
   2287  O4'       -4.6350   22.9650    8.4150 O.3   110  U110       -0.3307
   2288  C3'       -6.9230   22.6740    8.4790 C.3   110  U110        0.1860
   2289  O3'       -8.0030   21.8950    8.0350 O.3   110  U110       -0.3112
   2290  C2'       -6.3910   22.2140    9.8300 C.3   110  U110        0.2309
   2291  O2'       -6.3980   20.8060    9.9870 O.3   110  U110       -0.2156
   2292  C1'       -4.9570   22.7420    9.7890 C.3   110  U110        0.2420
   2293   N.1      -4.7700   24.0260   10.5860 N.ar  110  U110       -0.2534
   2294   C.2      -4.6710   23.9620   11.9820 C.ar  110  U110        0.3546
   2295   O.2      -4.7170   22.9170   12.6200 O.2   110  U110       -0.2443
   2296   N.3      -4.5120   25.1870   12.6070 N.ar  110  U110       -0.1530
   2297   C4       -4.4600   26.4390   12.0040 C.ar  110  U110        0.2846
   2298   O4       -4.3290   27.4430   12.6970 O.2   110  U110       -0.2650
   2299   C5       -4.5920   26.4280   10.5630 C.ar  110  U110        0.0814
   2300   C6       -4.7390   25.2510    9.9220 C.ar  110  U110        0.0870
   2301    P.3     -9.4880   22.4630    8.1710 P.3   111  U111        0.2141
   2302  OP1      -10.3970   21.5140    7.4840 O.2   111  U111       -0.5172
   2303  OP2       -9.4740   23.8920    7.7620 O.3   111  U111       -0.4373
   2304  O5'       -9.7530   22.4000    9.7590 O.3   111  U111       -0.3114
   2305  C5'       -9.9610   21.1320   10.4140 C.3   111  U111        0.1812
   2306  C4'       -9.7920   21.2420   11.9260 C.3   111  U111        0.1773
   2307  O4'       -8.5430   21.9080   12.2330 O.3   111  U111       -0.3307
   2308  C3'      -10.8550   22.0550   12.6480 C.3   111  U111        0.1860
   2309  O3'      -11.9890   21.2370   12.9520 O.3   111  U111       -0.3112
   2310  C2'      -10.1220   22.5000   13.9140 C.3   111  U111        0.2309
   2311  O2'      -10.1720   21.5350   14.9510 O.3   111  U111       -0.2156
   2312  C1'       -8.6830   22.6810   13.4190 C.3   111  U111        0.2420
   2313   N.1      -8.2990   24.1420   13.1390 N.ar  111  U111       -0.2534
   2314   C.2      -7.9140   24.9690   14.2000 C.ar  111  U111        0.3546
   2315   O.2      -7.8580   24.5980   15.3630 O.2   111  U111       -0.2443
   2316   N.3      -7.6110   26.2660   13.8410 N.ar  111  U111       -0.1530
   2317   C4       -7.6610   26.8170   12.5670 C.ar  111  U111        0.2846
   2318   O4       -7.3330   27.9860   12.4000 O.2   111  U111       -0.2650
   2319   C5       -8.0530   25.9020   11.5190 C.ar  111  U111        0.0814
   2320   C6       -8.3610   24.6330   11.8350 C.ar  111  U111        0.0870
   2321    P.3    -13.4720   21.8630   12.9460 P.3   112  C112        0.2141
   2322  OP1      -14.4270   20.7690   13.2760 O.3   112  C112       -0.4373
   2323  OP2      -13.6450   22.6280   11.6840 O.2   112  C112       -0.5172
   2324  O5'      -13.4210   22.9260   14.1580 O.3   112  C112       -0.3114
   2325  C5'      -14.2010   22.7310   15.3540 C.3   112  C112        0.1813
   2326  C4'      -13.3220   22.7590   16.6060 C.3   112  C112        0.1801
   2327  O4'      -12.1180   23.5320   16.3650 O.3   112  C112       -0.3306
   2328  C3'      -13.9690   23.3540   17.8530 C.3   112  C112        0.2161
   2329  O3'      -13.5940   22.5990   19.0030 O.3   112  C112       -0.2175
   2330  C2'      -13.4280   24.7920   17.9000 C.3   112  C112        0.2338
   2331  O2'      -13.2440   25.2670   19.2220 O.3   112  C112       -0.2155
   2332  C1'      -12.0750   24.6790   17.2020 C.3   112  C112        0.2421
   2333   N.1     -11.7020   25.9070   16.3550 N.ar  112  C112       -0.2535
   2334   C.2     -11.1890   27.0810   16.9750 C.ar  112  C112        0.3532
   2335   O.2     -11.0740   27.1290   18.2110 O.2   112  C112       -0.2443
   2336   N.3     -10.8340   28.1390   16.1860 N.ar  112  C112       -0.1739
   2337   C4      -10.9660   28.0630   14.8520 C.ar  112  C112        0.1759
   2338   N.4     -10.6050   29.1250   14.1290 N.pl3 112  C112       -0.1070
   2339   C5      -11.4810   26.8930   14.2060 C.ar  112  C112        0.0566
   2340   C6      -11.8330   25.8530   14.9830 C.ar  112  C112        0.0850
@<TRIPOS>BOND
     1   324   323    2
     2   301   300    2
     3   304   305    1
     4   304   303    1
     5   288   287    1
     6   308   323    1
     7   308   307    1
     8   305   307    1
     9   305   306    1
    10   310   309    1
    11   323   325    1
    12   323   326    1
    13   307   309    1
    14   286   300    1
    15   286   285    1
    16   300   303    1
    17   300   302    1
    18   306   311    1
    19   287   285    1
    20   287   289    1
    21   309   311    1
    22   326   327    1
    23   285   283    1
    24   311   312    1
    25   298   297   ar
    26   298   299   ar
    27   297   296   ar
    28   289   284    1
    29   289   290    1
    30   283   284    1
    31   283   282    1
    32   327   328    1
    33   299   290   ar
    34   299   293   ar
    35   282   281    1
    36   312   313   ar
    37   312   322   ar
    38   290   291   ar
    39   328   329    1
    40   328   330    1
    41   296   294   ar
    42   313   314   ar
    43  1584  1583    2
    44   329   334    1
    45   281   278    1
    46   624   623    2
    47   331   330    1
    48   331   346    1
    49   347   346    2
    50   293   294   ar
    51   293   292   ar
    52   322   321   ar
    53   322   315   ar
    54   294   295    1
    55   330   332    1
    56   321   319   ar
    57   291   292   ar
    58   333   332    1
    59   346   348    1
    60   346   349    1
    61  1571  1583    1
    62  1571  1570    1
    63   259   258    2
    64   314   315   ar
    65   609   623    1
    66   609   608    1
    67  1587  1586    1
    68  1587  1588    1
    69  1583  1586    1
    70  1583  1585    1
    71   334   332    1
    72   334   335    1
    73  1606  1605    2
    74   611   610    1
    75  2260  2259    2
    76   627   626    1
    77   627   628    1
    78   644   643    2
    79   623   626    1
    80   623   625    1
    81   236   235    2
    82  1573  1572    1
    83   315   316   ar
    84   278   279    2
    85   278   266    1
    86   278   280    1
    87  1568  1567    1
    88  1568  1570    1
    89  1568  1569    1
    90  1567  1566    1
    91   606   605    1
    92   606   608    1
    93   606   607    1
    94   319   320    1
    95   319   318   ar
    96   605   604    1
    97  1564  1563    2
    98   336   335   ar
    99   336   337   ar
   100  1588  1590    1
   101  1588  1589    1
   102  1570  1572    1
   103  1591  1605    1
   104  1591  1590    1
   105   588   587    1
   106  2244  2259    1
   107  2244  2243    1
   108   608   610    1
   109  2282  2281    2
   110   266   265    1
   111   335   345   ar
   112   628   630    1
   113   628   629    1
   114  2263  2264    1
   115  2263  2262    1
   116   349   350    1
   117   631   643    1
   118   631   630    1
   119   350   351    1
   120  1605  1607    1
   121  1605  1608    1
   122   602   601    2
   123   610   612    1
   124  2246  2245    1
   125   258   260    1
   126   258   243    1
   127   258   261    1
   128  2259  2262    1
   129  2259  2261    1
   130  1572  1574    1
   131   643   645    1
   132   643   646    1
   133  2241  2240    1
   134  2241  2243    1
   135  2241  2242    1
   136  2240  2239    1
   137   607   612    1
   138  1569  1574    1
   139   239   238    1
   140   239   240    1
   141  1590  1592    1
   142   316   318   ar
   143   316   317    2
   144   243   242    1
   145  1566  1563    1
   146   235   238    1
   147   235   220    1
   148   235   237    1
   149  2267  2281    1
   150  2267  2266    1
   151  1589  1594    1
   152   337   338   ar
   153   630   632    1
   154  2264  2266    1
   155  2264  2265    1
   156   604   601    1
   157  1563  1551    1
   158  1563  1565    1
   159  2243  2245    1
   160   612   613    1
   161   262   261    1
   162   262   263    1
   163   586   601    1
   164   586   585    1
   165  2237  2236    2
   166   629   634    1
   167  2281  2283    1
   168  2281  2284    1
   169  1574  1575    1
   170   601   603    1
   171   220   219    1
   172   265   263    1
   173   265   267    1
   174  1551  1550    1
   175   587   585    1
   176   587   589    1
   177  1553  1552    1
   178  2245  2247    1
   179   263   264    1
   180   345   338   ar
   181   345   344   ar
   182   633   632    1
   183   647   646    1
   184   647   648    1
   185  2224  2223    1
   186  1593  1592    1
   187  2242  2247    1
   188   240   242    1
   189   240   241    1
   190   351   352    1
   191   351   353    1
   192  1608  1609    1
   193  1609  1610    1
   194   268   267    1
   195  2266  2268    1
   196   371   369    2
   197   136   135    1
   198   242   244    1
   199  1592  1594    1
   200  2239  2236    1
   201   338   339   ar
   202   585   583    1
   203   632   634    1
   204   583   584    1
   205   583   582    1
   206  2265  2270    1
   207  1404  1403    1
   208  2222  2236    1
   209  2222  2221    1
   210   216   217    1
   211   216   215    1
   212  2247  2248    1
   213   664   663    2
   214   344   342   ar
   215  1594  1595    1
   216   589   584    1
   217   589   590    1
   218   354   353    1
   219   354   369    1
   220  2236  2238    1
   221   150   151    1
   222   150   149    1
   223   370   369    1
   224  2269  2268    1
   225   213   212    2
   226   147   146    2
   227   634   635    1
   228  2285  2284    1
   229  2285  2286    1
   230   598   597    1
   231   267   269    1
   232   352   357    1
   233   151   152    1
   234   151   153    1
   235   353   355    1
   236   369   372    1
   237   613   622   ar
   238   613   614   ar
   239   572   571    2
   240   495   494    2
   241   134   146    1
   242   134   133    1
   243  1552  1550    1
   244  1552  1554    1
   245   217   219    1
   246   217   218    1
   247   831   830    2
   248   834   833    2
   249   832   830   ar
   250   832   833   ar
   251   599   597   ar
   252   599   600   ar
   253  1550  1548    1
   254   219   221    1
   255   167   166    2
   256   156   155    1
   257  1575  1582   ar
   258  1575  1576   ar
   259   154   153    1
   260   154   166    1
   261   648   650    1
   262   648   649    1
   263  2268  2270    1
   264  1399  1398    1
   265  1399  1400    1
   266  1399  1401    1
   267   264   269    1
   268  2223  2221    1
   269  2223  2225    1
   270   215   212    1
   271   621   622   ar
   272   621   620   ar
   273   241   246    1
   274   222   221    1
   275   665   663    1
   276   359   360   ar
   277   359   358   ar
   278   582   581    1
   279  1402  1401    1
   280  1402  1414    1
   281   131   133    1
   282   131   130    1
   283   131   132    1
   284   651   663    1
   285   651   650    1
   286   493   494   ar
   287   493   491   ar
   288   494   496   ar
   289   152   157    1
   290   663   666    1
   291  1381  1380    1
   292  2221  2219    1
   293  1596  1595   ar
   294  1596  1597   ar
   295   830   829   ar
   296  1415  1414    2
   297  2219  2218    1
   298  2219  2220    1
   299  2270  2271    1
   300   833   835   ar
   301  1628  1627    2
   302   245   244    1
   303   597   596   ar
   304   135   133    1
   305   135   137    1
   306  1610  1611    1
   307  1610  1612    1
   308  1582  1581   ar
   309  1398  1397    1
   310  1577  1576    2
   311  1400  1405    1
   312   244   246    1
   313  1595  1604   ar
   314   146   149    1
   315   146   148    1
   316   269   270    1
   317  1548  1547    1
   318  1548  1549    1
   319   622   616   ar
   320  1403  1401    1
   321  1403  1405    1
   322   614   615   ar
   323   153   155    1
   324  1629  1627    1
   325   339   340    2
   326   339   341   ar
   327   212   197    1
   328   212   214    1
   329   360   361   ar
   330   590   600   ar
   331   590   591   ar
   332   342   341   ar
   333   342   343    1
   334   492   491    2
   335   642   635   ar
   336   642   641   ar
   337   130   129    1
   338   491   490   ar
   339   650   652    1
   340  2302  2301    2
   341  1418  1419    1
   342  1418  1417    1
   343   635   636   ar
   344  2248  2249   ar
   345  2248  2258   ar
   346  1405  1406    1
   347   571   573   ar
   348   571   570   ar
   349   166   168    1
   350   166   169    1
   351   221   223    1
   352   132   137    1
   353   496   497   ar
   354  1576  1578   ar
   355   600   593   ar
   356   568   567    1
   357   573   574   ar
   358  2286  2287    1
   359  2286  2288    1
   360   649   654    1
   361  1613  1627    1
   362  1613  1612    1
   363   357   355    1
   364   357   358    1
   365   155   157    1
   366   116   115    1
   367   137   138    1
   368  2225  2220    1
   369  2225  2226    1
   370  2218  2217    1
   371  1627  1630    1
   372  1554  1549    1
   373  1554  1555    1
   374  2303  2301    1
   375   406   405    2
   376   355   356    1
   377   218   223    1
   378   246   247    1
   379   157   158    1
   380   358   368   ar
   381  1611  1616    1
   382   620   619   ar
   383  1391  1390    1
   384  1414  1417    1
   385  1414  1416    1
   386  1557  1556    2
   387  1612  1614    1
   388   490   497   ar
   389   490   489    1
   390   372   373    1
   391  1547  1546    1
   392   435   434    2
   393  2289  2301    1
   394  2289  2288    1
   395  1419  1420    1
   396  1419  1421    1
   397  1972  1971    2
   398   829   828    1
   399   829   836   ar
   400  2257  2258   ar
   401  2257  2255   ar
   402   484   489    1
   403   484   483    1
   404  2301  2304    1
   405  2249  2250   ar
   406  1597  1598   ar
   407   197   196    1
   408   567   569    1
   409   567   565    1
   410   581   578    1
   411   835   836   ar
   412  2271  2272   ar
   413  2271  2280   ar
   414   170   169    1
   415   170   171    1
   416   248   247   ar
   417   248   249   ar
   418  2272  2273   ar
   419   814   813   ar
   420   814   815   ar
   421  2258  2251   ar
   422  1380  1382    1
   423  1380  1378    1
   424  2287  2292    1
   425  1420  1425    1
   426  1581  1579   ar
   427  1498  1497    1
   428   596   594   ar
   429  1368  1367    1
   430  2288  2290    1
   431   223   224    1
   432  1952  1951    2
   433   666   667    1
   434  1604  1603   ar
   435  1604  1598   ar
   436   616   615   ar
   437   616   617   ar
   438  1397  1394    1
   439  1395  1394    2
   440   641   639   ar
   441   813   811   ar
   442  1408  1407    2
   443   391   389    2
   444   591   592   ar
   445  1379  1394    1
   446  1379  1378    1
   447   489   487    1
   448   270   277   ar
   449   270   271   ar
   450   569   570    1
   451   569   564    1
   452   828   823    1
   453   828   826    1
   454   247   257   ar
   455   570   577   ar
   456  1499  1497   ar
   457  1499  1500   ar
   458   636   637    2
   459   636   638   ar
   460  1392  1390   ar
   461  1392  1393   ar
   462   361   368   ar
   463   361   362   ar
   464   140   139    2
   465   574   575    1
   466   574   576   ar
   467  2234  2235   ar
   468  2234  2233   ar
   469  1618  1619   ar
   470  1618  1617   ar
   471  1476  1475    1
   472   129   126    1
   473   652   654    1
   474   652   653    1
   475   272   271    2
   476  1578  1579   ar
   477  1955  1956    1
   478  1955  1954    1
   479   593   594   ar
   480   593   592   ar
   481  1406  1407   ar
   482  1406  1413   ar
   483  1390  1389   ar
   484   654   655    1
   485  1556  1555   ar
   486  1556  1558   ar
   487   373   374    1
   488  1382  1377    1
   489  1382  1383    1
   490  1454  1453    1
   491   667   668    1
   492  1555  1562   ar
   493   120   119    2
   494   405   404   ar
   495   405   407   ar
   496   387   388   ar
   497   387   385   ar
   498   403   404   ar
   499   403   402   ar
   500   127   126    2
   501   823   822    1
   502   115   117    1
   503   115   113    1
   504   368   367   ar
   505   196   194    1
   506   196   198    1
   507  2226  2235   ar
   508  2226  2227   ar
   509  2202  2201    1
   510   662   655   ar
   511   662   661   ar
   512  2217  2214    1
   513  1603  1602   ar
   514   194   193    1
   515   194   195    1
   516  1959  1971    1
   517  1959  1958    1
   518  1598  1599   ar
   519  2256  2255    1
   520  1394  1396    1
   521  1422  1421    1
   522  1422  1437    1
   523   619   617   ar
   524   483   482    1
   525   483   485    1
   526   138   139   ar
   527   138   145   ar
   528   579   578    2
   529  2076  2075    2
   530  1616  1614    1
   531  1616  1617    1
   532   458   456    2
   533   277   276   ar
   534  2255  2254   ar
   535  1378  1376    1
   536  1497  1496   ar
   537   482   481    1
   538   114   126    1
   539   114   113    1
   540  1945  1944    2
   541   158   165   ar
   542   158   159   ar
   543  1424  1423    1
   544  1376  1377    1
   545  1376  1375    1
   546   193   192    1
   547   190   189    2
   548  1579  1580    1
   549  1407  1409   ar
   550   815   816   ar
   551  1546  1543    1
   552  1630  1631    1
   553  1614  1615    1
   554  1971  1973    1
   555  1971  1974    1
   556  1956  1958    1
   557  1956  1957    1
   558   249   250   ar
   559  1421  1423    1
   560  1544  1543    2
   561  1619  1620   ar
   562   457   456    1
   563   271   273   ar
   564   594   595    2
   565   434   420    1
   566   434   436    1
   567   434   437    1
   568  2074  2075   ar
   569  2074  2072   ar
   570   566   578    1
   571   566   565    1
   572   386   385    2
   573  2235  2229   ar
   574  2250  2251   ar
   575   578   580    1
   576  2233  2232   ar
   577   171   172    1
   578   171   173    1
   579   617   618    1
   580   139   141   ar
   581  1500  1501   ar
   582   565   563    1
   583   388   381   ar
   584  2215  2214    2
   585   404   411   ar
   586  1438  1437    2
   587  1425  1423    1
   588  1425  1426    1
   589   480   478    2
   590  2280  2279   ar
   591  2280  2274   ar
   592  1617  1626   ar
   593  2273  2274   ar
   594   126   128    1
   595  2251  2252   ar
   596  2073  2072    2
   597   165   164   ar
   598   117   112    1
   599   117   118    1
   600  2075  2077   ar
   601   363   362    2
   602   827   826    1
   603   655   656   ar
   604  2304  2305    1
   605   420   419    1
   606   224   225   ar
   607   224   234   ar
   608  1367  1369   ar
   609  1367  1366   ar
   610   661   659   ar
   611   362   364   ar
   612  2292  2290    1
   613  2292  2293    1
   614   811   812    1
   615   811   810   ar
   616   639   638   ar
   617   639   640    1
   618  2290  2291    1
   619   481   478    1
   620  1413  1412   ar
   621   385   384   ar
   622  1941  1940    1
   623  1951  1939    1
   624  1951  1954    1
   625  1951  1953    1
   626  2072  2071   ar
   627   113   111    1
   628  1393  1383   ar
   629  1393  1386   ar
   630   160   159    2
   631  2300  2299   ar
   632  2300  2293   ar
   633   577   576   ar
   634  1939  1938    1
   635   407   408   ar
   636   838   837    2
   637   389   390    1
   638   389   392    1
   639   389   377    1
   640  1961  1960    1
   641   826   824    1
   642  1475  1477   ar
   643  1475  1474   ar
   644  1451  1452   ar
   645  1451  1450   ar
   646   402   401   ar
   647  1477  1478   ar
   648   564   563    1
   649  1631  1632    1
   650  2279  2278   ar
   651  1383  1384   ar
   652   825   824    1
   653   825   837    1
   654   257   250   ar
   655   257   256   ar
   656   456   442    1
   657   456   459    1
   658  1558  1559   ar
   659   225   226   ar
   660   172   177    1
   661  1958  1960    1
   662   438   437    1
   663   438   439    1
   664   111   112    1
   665   111   110    1
   666  2227  2228   ar
   667  1543  1545    1
   668  1543  1531    1
   669  1562  1561   ar
   670   487   485    1
   671   487   488    1
   672  2214  2200    1
   673  2214  2216    1
   674   145   144   ar
   675   119   118   ar
   676   119   121   ar
   677  1389  1387   ar
   678  1437  1439    1
   679  1437  1440    1
   680   822   824    1
   681   822   821    1
   682  2200  2199    1
   683  2201  2199    1
   684  2201  2203    1
   685  1975  1974    1
   686  1975  1976    1
   687   159   161   ar
   688   414   412    2
   689  1453  1452   ar
   690  1453  1455   ar
   691   367   365   ar
   692   195   200    1
   693   374   376    1
   694   374   375    1
   695  1957  1962    1
   696  2077  2078   ar
   697   563   562    1
   698  1375  1374    1
   699  1369  1370   ar
   700  2274  2275   ar
   701  2305  2306    1
   702  1944  1946   ar
   703  1944  1943   ar
   704   250   251   ar
   705  1602  1601   ar
   706   668   670    1
   707   668   669    1
   708  1366  1364   ar
   709  2065  2070    1
   710  2065  2064    1
   711   192   189    1
   712   174   189    1
   713   174   173    1
   714   485   486    1
   715  2254  2252   ar
   716   198   199    1
   717   198   200    1
   718   189   191    1
   719  2071  2078   ar
   720  2071  2070    1
   721   478   479    1
   722   478   464    1
   723   276   274   ar
   724   816   810   ar
   725   816   807   ar
   726   376   377    1
   727   376   378    1
   728  1599  1601   ar
   729  1599  1600    1
   730  2299  2297   ar
   731  2293  2294   ar
   732   375   380    1
   733  1409  1410   ar
   734  1496  1502   ar
   735  1496  1495   ar
   736   687   686    2
   737   118   125   ar
   738  1426  1427   ar
   739  1426  1436   ar
   740   173   175    1
   741  1452  1458   ar
   742  2212  2211   ar
   743  2212  2213   ar
   744   416   417    1
   745   416   415    1
   746   392   393    1
   747   486   498    1
   748  1620  1626   ar
   749  1620  1621   ar
   750  2211  2210   ar
   751   273   274   ar
   752   442   441    1
   753  2229  2228   ar
   754  2229  2230   ar
   755  2232  2230   ar
   756  2252  2253    2
   757   670   672    1
   758   670   671    1
   759  1960  1962    1
   760   256   254   ar
   761  1427  1428   ar
   762   552   551    2
   763   710   709    2
   764  1946  1947   ar
   765   676   677   ar
   766   676   675   ar
   767   553   551   ar
   768   553   554   ar
   769   810   809   ar
   770  1626  1625   ar
   771  1358  1357    1
   772  1501  1502   ar
   773   837   839    1
   774   837   840    1
   775   164   162   ar
   776   141   142   ar
   777  1942  1940    1
   778  1942  1943    1
   779  1942  1937    1
   780   200   201    1
   781  1450  1449   ar
   782   381   380    1
   783   381   382   ar
   784   555   554    1
   785   411   401   ar
   786   411   410   ar
   787  1928  1927    1
   788   234   233   ar
   789   234   227   ar
   790   417   419    1
   791   417   418    1
   792  1940  1938    1
   793  2199  2197    1
   794  2070  2068    1
   795   364   365   ar
   796   419   421    1
   797   672   674    1
   798   672   673    1
   799   656   657    2
   800   656   658   ar
   801  1412  1410   ar
   802  1641  1640   ar
   803  1641  1642   ar
   804  2061  2059    2
   805   121   122   ar
   806   669   674    1
   807   233   231   ar
   808  1938  1936    1
   809   384   382   ar
   810  1455  1456   ar
   811  1559  1561   ar
   812  1559  1560    1
   813  1386  1387   ar
   814  1386  1385   ar
   815  1640  1639   ar
   816   659   658   ar
   817   659   660    1
   818   677   678   ar
   819   439   441    1
   820   439   440    1
   821  1478  1479   ar
   822   401   400    1
   823  1474  1473   ar
   824  1474  1480   ar
   825   110   109    1
   826   365   366    1
   827   500   498    2
   828  1962  1963    1
   829  2203  2198    1
   830  2203  2204    1
   831   821   820    1
   832   459   460    1
   833   408   410   ar
   834   408   409    1
   835  1992  1991    2
   836   274   275    1
   837   226   227   ar
   838  1943  1950   ar
   839   422   421    1
   840  1502  1493   ar
   841  2278  2277   ar
   842  2064  2063    1
   843  2064  2066    1
   844  1384  1385   ar
   845  1387  1388    2
   846  1495  1494   ar
   847   551   550   ar
   848   841   840    1
   849   841   842    1
   850  2230  2231    1
   851  1440  1441    1
   852  1531  1530    1
   853  1533  1532    1
   854   177   175    1
   855   177   178    1
   856   144   142   ar
   857  1976  1977    1
   858  1976  1978    1
   859   380   378    1
   860  2319  2320   ar
   861  2319  2317   ar
   862   820   817    1
   863  1632  1633    1
   864  1632  1634    1
   865   161   162   ar
   866   441   443    1
   867   100    99    2
   868   499   498    1
   869  1473  1472   ar
   870   554   556   ar
   871  1410  1411    2
   872   498   501    1
   873   179   178   ar
   874   179   180   ar
   875   412   415    1
   876   412   413    1
   877   412   397    1
   878  2063  2062    1
   879  1374  1371    1
   880  2323  2321    2
   881   861   859    2
   882  1651  1649    2
   883  2197  2198    1
   884  2197  2196    1
   885   807   806    1
   886   807   808   ar
   887  1370  1363   ar
   888  1370  1360   ar
   889  2210  2208   ar
   890  1993  1991    1
   891   464   463    1
   892   251   252    2
   893   251   253   ar
   894  1436  1435   ar
   895  1436  1429   ar
   896  1357  1359    1
   897  1357  1355    1
   898   378   379    1
   899  2275  2277   ar
   900  2275  2276    1
   901  1633  1638    1
   902   382   383    2
   903  2213  2204   ar
   904  2213  2207   ar
   905  1937  1936    1
   906  1364  1365    2
   907  1364  1363   ar
   908  2320  2313   ar
   909   175   176    1
   910   162   163    1
   911   801   806    1
   912   801   800    1
   913   562   561    1
   914   674   675    1
   915   463   465    1
   916   463   461    1
   917  1621  1622    1
   918  1621  1623   ar
   919   675   685   ar
   920   806   804    1
   921  2306  2307    1
   922  2306  2308    1
   923  2062  2059    1
   924   227   228   ar
   925   142   143    2
   926  1428  1429   ar
   927  2294  2296   ar
   928  2294  2295    2
   929   671   686    1
   930  1936  1935    1
   931  2297  2296   ar
   932  2297  2298    2
   933   421   423    1
   934   125   124   ar
   935  1625  1624   ar
   936  1435  1433   ar
   937   686   689    1
   938   686   688    1
   939  1979  1991    1
   940  1979  1978    1
   941  1458  1449   ar
   942  1458  1457   ar
   943    96    95    1
   944   535   534    1
   945  1991  1994    1
   946   254   253   ar
   947   254   255    1
   948  2204  2205   ar
   949   393   394    1
   950   690   689    1
   951   690   691    1
   952   709   711    1
   953   709   694    1
   954   709   712    1
   955  1947  1948    2
   956  1947  1949   ar
   957  1926  1927   ar
   958  1926  1924   ar
   959   178   188   ar
   960  1927  1929   ar
   961  2189  2188    1
   962   460   461    1
   963  1634  1635    1
   964  1634  1636    1
   965  1449  1448    1
   966   396   397    1
   967   396   398    1
   968   396   394    1
   969  2307  2312    1
   970  2059  2060    1
   971  2059  2045    1
   972   809   808   ar
   973   803   817    1
   974   803   802    1
   975  1977  1982    1
   976   818   817    2
   977   418   423    1
   978  1359  1360    1
   979  1359  1354    1
   980  1644  1643    1
   981   201   211   ar
   982   201   202   ar
   983  1480  1479   ar
   984  1480  1471   ar
   985  2318  2317    2
   986   860   859    1
   987   694   693    1
   988   440   445    1
   989  1642  1643   ar
   990  1642  1648   ar
   991   561   558    1
   992  1978  1980    1
   993  1530  1532    1
   994  1530  1528    1
   995   180   181   ar
   996  1635  1649    1
   997  1639  1638    1
   998  1639  1648   ar
   999   109   106    1
  1000   210   211   ar
  1001   210   208   ar
  1002   231   232    1
  1003   231   230   ar
  1004  1456  1457   ar
  1005  1363  1362   ar
  1006   465   466    1
  1007   465   467    1
  1008   400   395    1
  1009   400   398    1
  1010  1650  1649    1
  1011   122   124   ar
  1012   122   123    2
  1013  1429  1430   ar
  1014  2068  2066    1
  1015  2068  2069    1
  1016   395   394    1
  1017  2317  2316   ar
  1018   800   802    1
  1019   800   799    1
  1020   678   685   ar
  1021   678   679   ar
  1022   842   844    1
  1023   842   843    1
  1024   817   819    1
  1025  2067  2066    1
  1026  2067  2079    1
  1027  1649  1652    1
  1028   730   729    2
  1029  1950  1949   ar
  1030  2308  2309    1
  1031  2308  2310    1
  1032  1360  1361   ar
  1033  1494  1493   ar
  1034  1493  1492    1
  1035  1532  1534    1
  1036  1963  1970   ar
  1037  1963  1964   ar
  1038  1441  1442    1
  1039  2081  2079    2
  1040    99   101   ar
  1041    99    98   ar
  1042   398   399    1
  1043   859   845    1
  1044   859   862    1
  1045   550   549    1
  1046   550   557   ar
  1047   461   462    1
  1048  2208  2207   ar
  1049  2208  2209    1
  1050  1472  1471   ar
  1051    95    97    1
  1052    95    93    1
  1053  1356  1371    1
  1054  1356  1355    1
  1055  1970  1969   ar
  1056  2207  2206   ar
  1057  1638  1636    1
  1058  1372  1371    2
  1059   469   470   ar
  1060   469   468   ar
  1061   556   557   ar
  1062  2321  2309    1
  1063  2321  2322    1
  1064  2321  2324    1
  1065   691   693    1
  1066   691   692    1
  1067  2196  2195    1
  1068   423   424    1
  1069  1371  1373    1
  1070   101   102   ar
  1071   209   208    1
  1072   685   684   ar
  1073  1643  1645   ar
  1074   443   444    1
  1075   443   445    1
  1076   211   204   ar
  1077   548   547    1
  1078  1624  1623   ar
  1079   501   502    1
  1080   731   729    1
  1081  1355  1353    1
  1082  1925  1924    2
  1083  1443  1448    1
  1084  1443  1442    1
  1085  2313  2312    1
  1086  2313  2314   ar
  1087   802   804    1
  1088  1433  1434    1
  1089  1433  1432   ar
  1090   547   549    1
  1091   547   545    1
  1092  1924  1923   ar
  1093  1929  1930   ar
  1094   804   805    1
  1095   873   872   ar
  1096   873   874   ar
  1097  1648  1647   ar
  1098   680   679    2
  1099   228   230   ar
  1100   228   229    2
  1101   534   533   ar
  1102   534   536   ar
  1103   844   845    1
  1104   844   846    1
  1105   712   713    1
  1106  2205  2206   ar
  1107   202   203   ar
  1108   470   471   ar
  1109  2079  2080    1
  1110  2079  2082    1
  1111   208   207   ar
  1112  2312  2310    1
  1113  2188  2187   ar
  1114  2188  2190   ar
  1115   693   695    1
  1116  1448  1446    1
  1117  1471  1470    1
  1118   713   714    1
  1119   447   446   ar
  1120   447   448   ar
  1121   188   181   ar
  1122   188   187   ar
  1123  1636  1637    1
  1124  1342  1341    2
  1125  1905  1904   ar
  1126  1905  1906   ar
  1127   549   544    1
  1128  1935  1934    1
  1129  1537  1536    2
  1130  1354  1353    1
  1131   462   467    1
  1132   679   681   ar
  1133   533   531   ar
  1134    97    98    1
  1135    97    92    1
  1136  1904  1902   ar
  1137   445   446    1
  1138  2045  2044    1
  1139   729   717    1
  1140   729   732    1
  1141  1990  1989   ar
  1142  1990  1983   ar
  1143   799   798    1
  1144  1965  1964    2
  1145   876   875    2
  1146   181   182   ar
  1147   843   848    1
  1148  1994  1995    1
  1149   502   503    1
  1150  1982  1980    1
  1151  1982  1983    1
  1152  1442  1444    1
  1153   872   871   ar
  1154   467   468    1
  1155  1534  1535    1
  1156  1534  1529    1
  1157  2141  2140    2
  1158   862   863    1
  1159  1430  1432   ar
  1160  1430  1431    2
  1161  1353  1352    1
  1162  1980  1981    1
  1163  1964  1966   ar
  1164    98   105   ar
  1165  1461  1459    2
  1166  2187  2185   ar
  1167  1528  1529    1
  1168  1528  1527    1
  1169   107   106    2
  1170  1492  1487    1
  1171  1492  1490    1
  1172  2316  2314   ar
  1173  1663  1662   ar
  1174  1663  1664   ar
  1175  1688  1687    1
  1176    94   106    1
  1177    94    93    1
  1178   106   108    1
  1179  1362  1361   ar
  1180   468   477   ar
  1181  2195  2192    1
  1182  2310  2311    1
  1183  1343  1341   ar
  1184  1343  1344   ar
  1185   558   560    2
  1186   558   559    1
  1187   558   546    1
  1188   798   795    1
  1189  1444  1446    1
  1190  1444  1445    1
  1191  1934  1931    1
  1192  1666  1665    1
  1193   717   716    1
  1194  1989  1987   ar
  1195   446   455   ar
  1196    80    79    2
  1197    93    91    1
  1198  1652  1653    1
  1199  2338  2337    1
  1200  1969  1967   ar
  1201  2324  2325    1
  1202   692   697    1
  1203   696   695    1
  1204  2314  2315    2
  1205  2339  2337   ar
  1206  2339  2340   ar
  1207  2190  2191   ar
  1208   448   449   ar
  1209  1536  1535   ar
  1210  1536  1538   ar
  1211   424   425   ar
  1212   424   433   ar
  1213   102   103    1
  1214   102   104   ar
  1215   684   682   ar
  1216  1341  1340   ar
  1217  1446  1447    1
  1218  1305  1304    2
  1219  1930  1923   ar
  1220  1930  1920   ar
  1221  1983  1984   ar
  1222  1662  1661   ar
  1223   536   537   ar
  1224  1645  1646   ar
  1225  1995  1996    1
  1226  1524  1523    2
  1227   863   864    1
  1228   187   185   ar
  1229   874   875   ar
  1230   874   881   ar
  1231  1653  1654    1
  1232  1731  1730    1
  1233   204   203   ar
  1234   204   205   ar
  1235  1923  1922   ar
  1236  1345  1344    2
  1237  2142  2140   ar
  1238  2142  2143   ar
  1239  1487  1486    1
  1240  1906  1907   ar
  1241   545   546    1
  1242   545   543    1
  1243  1535  1542   ar
  1244   875   877   ar
  1245   425   426   ar
  1246   846   848    1
  1247   846   847    1
  1248  1525  1523    1
  1249   754   752    2
  1250  1527  1526    1
  1251  2164  2163    1
  1252   695   697    1
  1253  1647  1646   ar
  1254  2140  2139   ar
  1255  1729  1730   ar
  1256  1729  1727   ar
  1257   714   716    1
  1258   714   715    1
  1259   471   477   ar
  1260   471   472   ar
  1261  2119  2118    1
  1262    92    91    1
  1263  1902  1903    1
  1264  1902  1901   ar
  1265   207   205   ar
  1266   792   791    2
  1267   531   532    2
  1268   531   530   ar
  1269  1491  1490    1
  1270   516   517   ar
  1271   516   514   ar
  1272  1728  1727    2
  1273  1325  1324    2
  1274   681   682   ar
  1275  2082  2083    1
  1276  2044  2042    1
  1277  2044  2046    1
  1278  2337  2336   ar
  1279  1344  1346   ar
  1280   716   718    1
  1281   848   849    1
  1282  1470  1468    1
  1283  1470  1465    1
  1284   182   183    2
  1285   182   184   ar
  1286   544   543    1
  1287  1490  1488    1
  1288   732   733    1
  1289  2047  2046    1
  1290   899   898    2
  1291  1526  1523    1
  1292  2016  2014    2
  1293  1664  1665   ar
  1294  1664  1670   ar
  1295  1858  1857    1
  1296    15    14    2
  1297  1708  1707    1
  1298  2179  2178    1
  1299   865   864    1
  1300   865   870    1
  1301  1538  1539   ar
  1302  2340  2333   ar
  1303  2144  2143    1
  1304   517   510   ar
  1305  1523  1511    1
  1306    81    79   ar
  1307    81    82   ar
  1308   797   795    2
  1309   477   476   ar
  1310   753   752    1
  1311   871   881   ar
  1312   871   870    1
  1313  1966  1967   ar
  1314  1665  1667   ar
  1315    91    90    1
  1316   105   104   ar
  1317  2185  2186    2
  1318  2185  2184   ar
  1319    79    78   ar
  1320  1855  1854   ar
  1321  1855  1856   ar
  1322  1687  1689   ar
  1323  1687  1686   ar
  1324   503   504    1
  1325   503   505    1
  1326  1445  1459    1
  1327  1459  1462    1
  1328  1459  1460    1
  1329   682   683    1
  1330   795   796    1
  1331   795   783    1
  1332  1730  1732   ar
  1333   697   698    1
  1334  1967  1968    1
  1335  1352  1351    1
  1336  2193  2192    2
  1337  2015  2014    1
  1338   733   734    1
  1339   504   509    1
  1340  2325  2326    1
  1341  2192  2177    1
  1342  2192  2194    1
  1343   205   206    2
  1344    62    63   ar
  1345    62    60   ar
  1346  1727  1726   ar
  1347  2143  2145   ar
  1348  1542  1541   ar
  1349   433   432   ar
  1350   433   427   ar
  1351   455   449   ar
  1352   455   454   ar
  1353  1917  1918    1
  1354  1917  1915    1
  1355  1917  1919    1
  1356  2191  2184   ar
  1357  2191  2181   ar
  1358  1689  1690   ar
  1359   850   849   ar
  1360   850   851   ar
  1361  1462  1463    1
  1362  1468  1466    1
  1363  1468  1469    1
  1364  2093  2092   ar
  1365  2093  2094   ar
  1366   793   791   ar
  1367   793   794   ar
  1368   449   450   ar
  1369   881   880   ar
  1370   791   790   ar
  1371   864   866    1
  1372  1987  1988    2
  1373  1987  1986   ar
  1374  2178  2180    1
  1375  2178  2176    1
  1376   543   542    1
  1377  1304  1303   ar
  1378  1304  1306   ar
  1379   752   737    1
  1380   752   755    1
  1381   185   184   ar
  1382   185   186    1
  1383   537   530   ar
  1384   473   472    1
  1385   777   775    2
  1386  1465  1464    1
  1387  1931  1933    2
  1388  1931  1916    1
  1389  1931  1932    1
  1390    61    60    1
  1391   849   858   ar
  1392   432   431   ar
  1393  1920  1919    1
  1394  1920  1921   ar
  1395  2042  2043    1
  1396  2042  2041    1
  1397  1907  1901   ar
  1398  1907  1898   ar
  1399  1818  1817    1
  1400  2046  2048    1
  1401  1922  1921   ar
  1402  1340  1339    1
  1403  1340  1347   ar
  1404  1661  1670   ar
  1405  1661  1660    1
  1406    38    37    2
  1407  1984  1986   ar
  1408  1984  1985    2
  1409  2083  2084    1
  1410  1655  1654    1
  1411  1655  1660    1
  1412   472   474   ar
  1413  1854  1853   ar
  1414  1323  1324   ar
  1415  1323  1321   ar
  1416  1338  1337    1
  1417   426   427   ar
  1418  2163  2165   ar
  1419  2163  2162   ar
  1420   870   868    1
  1421  2014  1999    1
  1422  2014  2017    1
  1423  1654  1656    1
  1424   877   878   ar
  1425  1486  1488    1
  1426  1486  1485    1
  1427   530   529    1
  1428  1324  1326   ar
  1429  1996  1998    1
  1430  1996  1997    1
  1431    83    82    2
  1432   715   720    1
  1433  2092  2091   ar
  1434  1901  1900   ar
  1435   520   518    2
  1436   505   507    1
  1437   505   506    1
  1438   515   514    2
  1439  1539  1541   ar
  1440  1539  1540    2
  1441   514   513   ar
  1442    63    64   ar
  1443  1351  1348    1
  1444  2165  2166   ar
  1445  2184  2183   ar
  1446    76    75    1
  1447  1673  1671    2
  1448   898   900   ar
  1449   898   897   ar
  1450  2139  2138   ar
  1451  2139  2146   ar
  1452  1916  1915    1
  1453  2177  2176    1
  1454  2096  2095    2
  1455  2118  2120   ar
  1456  2118  2117   ar
  1457  2004  2005   ar
  1458  2004  2003   ar
  1459  1857  1856   ar
  1460  1857  1859   ar
  1461  1686  1684   ar
  1462  1303  1301   ar
  1463  2048  2043    1
  1464  2048  2049    1
  1465  1337  1339    1
  1466  1337  1335    1
  1467  1856  1862   ar
  1468    14    13   ar
  1469    14    16   ar
  1470    82    84   ar
  1471  1670  1669   ar
  1472  1915  1913    1
  1473   699   698   ar
  1474   699   700   ar
  1475    12    13   ar
  1476    12    11   ar
  1477  2005  2006   ar
  1478    60    59   ar
  1479  1919  1914    1
  1480  2336  2334   ar
  1481  1999  1998    1
  1482   698   708   ar
  1483  1339  1334    1
  1484  1488  1489    1
  1485   900   901   ar
  1486   737   736    1
  1487  1707  1706   ar
  1488  1707  1709   ar
  1489   510   509    1
  1490   510   511   ar
  1491  1998  2000    1
  1492   476   475   ar
  1493  1346  1347   ar
  1494  1466  1464    1
  1495  1466  1467    1
  1496   507   509    1
  1497   507   508    1
  1498  1667  1668   ar
  1499   794   787   ar
  1500   851   852   ar
  1501   427   428   ar
  1502  2057  2056   ar
  1503  2057  2058   ar
  1504  2333  2334   ar
  1505  2333  2332    1
  1506   718   719    1
  1507   718   720    1
  1508  1484  1485    1
  1509  1484  1481    1
  1510  2327  2326    1
  1511  2327  2332    1
  1512   790   788   ar
  1513  1997  2002    1
  1514    78    77    1
  1515    78    85   ar
  1516  2180  2181    1
  1517  2180  2175    1
  1518   454   453   ar
  1519  2176  2174    1
  1520  2181  2182   ar
  1521  1732  1733   ar
  1522  1306  1307   ar
  1523   541   542    1
  1524   541   538    1
  1525   783   782    1
  1526  1656  1657    1
  1527  1656  1658    1
  1528   866   868    1
  1529   866   867    1
  1530  1660  1658    1
  1531    90    89    1
  1532    75    77    1
  1533    75    73    1
  1534  1706  1704   ar
  1535  1511  1510    1
  1536   728   727   ar
  1537   728   721   ar
  1538   776   775    1
  1539  2326  2328    1
  1540  1464  1463    1
  1541  2116  2117   ar
  1542  2116  2115   ar
  1543    77    72    1
  1544  2120  2121   ar
  1545  2041  2040    1
  1546   775   778    1
  1547   775   760    1
  1548  2138  2137   ar
  1549   884   882    2
  1550  1322  1321    2
  1551  2145  2146   ar
  1552   734   736    1
  1553   734   735    1
  1554  2094  2095   ar
  1555  2094  2101   ar
  1556   778   779    1
  1557    13    20   ar
  1558   858   852   ar
  1559   858   857   ar
  1560  1690  1683   ar
  1561   736   738    1
  1562  1726  1733   ar
  1563  1726  1725   ar
  1564   880   878   ar
  1565   450   451    1
  1566   450   452   ar
  1567   755   756    1
  1568   782   784    1
  1569   782   780    1
  1570  1321  1320   ar
  1571  2056  2055   ar
  1572  2104  2102    2
  1573  2162  2161   ar
  1574  2162  2168   ar
  1575   878   879    1
  1576    37    39   ar
  1577    37    36   ar
  1578  2117  2123   ar
  1579  2095  2097   ar
  1580  1898  1897    1
  1581  1898  1899   ar
  1582   431   430   ar
  1583  2146  2136   ar
  1584   720   721    1
  1585   727   725   ar
  1586  1817  1816   ar
  1587  1817  1819   ar
  1588  1483  1481    2
  1589   474   475   ar
  1590  2334  2335    2
  1591    16    17   ar
  1592  2161  2160   ar
  1593   540   538    2
  1594   506   518    1
  1595  1489  1503    1
  1596    39    40   ar
  1597   868   869    1
  1598  1853  1862   ar
  1599  1853  1852    1
  1600  2085  2084    1
  1601  2085  2090    1
  1602    11    10   ar
  1603   852   853   ar
  1604  2166  2167   ar
  1605  1831  1830    1
  1606   700   701   ar
  1607  2084  2086    1
  1608   513   511   ar
  1609  1326  1327   ar
  1610   897   895   ar
  1611  1897  1892    1
  1612  1897  1895    1
  1613   518   521    1
  1614   518   519    1
  1615  2017  2018    1
  1616  1859  1860   ar
  1617  2332  2330    1
  1618  1733  1723   ar
  1619   787   788   ar
  1620   787   786    1
  1621  1709  1710   ar
  1622  1900  1899   ar
  1623   784   786    1
  1624   784   785    1
  1625  1835  1834    2
  1626    64    65   ar
  1627  2091  2101   ar
  1628  2091  2090    1
  1629  1816  1814   ar
  1630   529   527    1
  1631   529   524    1
  1632  2003  2002    1
  1633  2003  2013   ar
  1634   857   856   ar
  1635   788   789    2
  1636  2049  2058   ar
  1637  2049  2050   ar
  1638  2183  2182   ar
  1639  1657  1671    1
  1640  1862  1861   ar
  1641    89    86    1
  1642  1669  1668   ar
  1643  1684  1683   ar
  1644  1684  1685    2
  1645  2058  2052   ar
  1646  1301  1302    2
  1647  1301  1300   ar
  1648   511   512    2
  1649  1671  1674    1
  1650  1671  1672    1
  1651   527   525    1
  1652   527   528    1
  1653   742   743   ar
  1654   742   741   ar
  1655   721   722   ar
  1656    84    85   ar
  1657  1851  1850    1
  1658   708   707   ar
  1659   708   701   ar
  1660   766   765   ar
  1661   766   767   ar
  1662  1335  1336    1
  1663  1335  1333    1
  1664  1467  1481    1
  1665   901   894   ar
  1666  1658  1659    1
  1667  1481  1482    1
  1668  1892  1891    1
  1669   521   522    1
  1670  2002  2000    1
  1671  1914  1913    1
  1672   743   744   ar
  1673  1348  1336    1
  1674  1348  1350    2
  1675  1348  1349    1
  1676  1913  1912    1
  1677  1850  1852    1
  1678  1850  1848    1
  1679  2006  2013   ar
  1680  2006  2007   ar
  1681   867   882    1
  1682    59    65   ar
  1683    59    58   ar
  1684   735   740    1
  1685   769   768    2
  1686  1334  1333    1
  1687  1510  1508    1
  1688  1510  1512    1
  1689   453   452   ar
  1690   428   430   ar
  1691   428   429    1
  1692  2000  2001    1
  1693   538   526    1
  1694   538   539    1
  1695  1683  1682    1
  1696   779   780    1
  1697  2040  2037    1
  1698  1909  1908    2
  1699  2174  2175    1
  1700  2174  2173    1
  1701  2101  2100   ar
  1702  1725  1724   ar
  1703   525   526    1
  1704   525   523    1
  1705   756   757    1
  1706  2086  2087    1
  1707  2086  2088    1
  1708  1307  1300   ar
  1709  2115  2114   ar
  1710  2328  2330    1
  1711  2328  2329    1
  1712  2137  2136   ar
  1713   765   764   ar
  1714   882   883    1
  1715   882   885    1
  1716  1819  1820   ar
  1717  2008  2007    2
  1718  1704  1705    2
  1719  1704  1703   ar
  1720  2330  2331    1
  1721    72    71    1
  1722   707   705   ar
  1723   701   702   ar
  1724  2121  2122   ar
  1725   780   781    1
  1726    20    10   ar
  1727    20    19   ar
  1728  2168  2167   ar
  1729  2168  2159   ar
  1730  2090  2088    1
  1731    65    56   ar
  1732  1513  1512    1
  1733  1894  1908    1
  1734  1894  1893    1
  1735    73    74    1
  1736    73    71    1
  1737   786   781    1
  1738  1896  1895    1
  1739  1911  1912    1
  1740  1911  1908    1
  1741  1852  1847    1
  1742   760   759    1
  1743  1320  1327   ar
  1744  1320  1319    1
  1745    36    35   ar
  1746    36    43   ar
  1747  2136  2135    1
  1748  2028  2027   ar
  1749  2028  2029   ar
  1750  2055  2053   ar
  1751   524   523    1
  1752  1674  1675    1
  1753   725   726    2
  1754   725   724   ar
  1755  2013  2012   ar
  1756   853   854    1
  1757   853   855   ar
  1758  2160  2159   ar
  1759   759   757    1
  1760   759   761    1
  1761   856   855   ar
  1762  2097  2098   ar
  1763  2123  2114   ar
  1764  2123  2122   ar
  1765  2102  2087    1
  1766  2102  2103    1
  1767  2102  2105    1
  1768  1300  1299    1
  1769   738   740    1
  1770   738   739    1
  1771  2018  2019    1
  1772    10     9    1
  1773    17    19   ar
  1774    17    18    1
  1775  2007  2009   ar
  1776    40    41    1
  1777    40    42   ar
  1778  1860  1861   ar
  1779    35    34   ar
  1780    74    86    1
  1781   767   768   ar
  1782   767   774   ar
  1783  1333  1332    1
  1784   768   770   ar
  1785  1506  1503    1
  1786  1506  1507    1
  1787  1895  1893    1
  1788   741   740    1
  1789   741   751   ar
  1790  1830  1832    1
  1791  1830  1828    1
  1792  1834  1836   ar
  1793  1834  1833   ar
  1794   895   894   ar
  1795   895   896    2
  1796  2027  2026   ar
  1797  1508  1507    1
  1798  1508  1509    1
  1799  1832  1827    1
  1800  1832  1833    1
  1801  1891  1893    1
  1802  1891  1890    1
  1803  1710  1703   ar
  1804  1908  1910    1
  1805  1814  1815    2
  1806  1814  1813   ar
  1807  1723  1724   ar
  1808  1723  1722    1
  1809  2050  2051   ar
  1810   894   893    1
  1811  1503  1505    2
  1812  1503  1504    1
  1813  1847  1846    1
  1814   722   724   ar
  1815   722   723    2
  1816  1512  1514    1
  1817    58    57   ar
  1818   744   751   ar
  1819   744   745   ar
  1820     1     2    1
  1821  1848  1846    1
  1822  1848  1849    1
  1823   523   522    1
  1824  1004  1003    1
  1825  2031  2030    2
  1826    71    70    1
  1827  2052  2053   ar
  1828  2052  2051   ar
  1829   919   918    1
  1830    86    88    2
  1831    86    87    1
  1832  2088  2089    1
  1833   757   758    1
  1834  2114  2113    1
  1835  1703  1702    1
  1836  2159  2158    1
  1837   885   886    1
  1838  1794  1795   ar
  1839  1794  1792   ar
  1840   746   745    2
  1841  1845  1846    1
  1842  1845  1844    1
  1843  2173  2172    1
  1844   764   774   ar
  1845   764   763    1
  1846  1793  1792    1
  1847  2039  2037    2
  1848  2100  2098   ar
  1849  1829  1828    1
  1850  1829  1841    1
  1851  1682  1677    1
  1852  1682  1680    1
  1853  2053  2054    1
  1854   705   704   ar
  1855   705   706    1
  1856     2     3    1
  1857  1677  1676    1
  1858  1820  1813   ar
  1859  1820  1810   ar
  1860  1827  1826    1
  1861  2105  2106    1
  1862  1836  1837   ar
  1863  2037  2038    1
  1864  2037  2022    1
  1865  1833  1840   ar
  1866   751   750   ar
  1867   702   704   ar
  1868   702   703    2
  1869    43    42   ar
  1870    43    33   ar
  1871  2098  2099    1
  1872   761   763    1
  1873   761   762    1
  1874  2029  2030   ar
  1875  2029  2036   ar
  1876   745   747   ar
  1877  1319  1317    1
  1878  1319  1314    1
  1879   774   773   ar
  1880     4     9    1
  1881     4     3    1
  1882  2149  2147    2
  1883  2135  2133    1
  1884  2135  2130    1
  1885  1826  1828    1
  1886  1826  1825    1
  1887    56    57   ar
  1888    56    55    1
  1889  1509  1514    1
  1890   758   763    1
  1891   770   771   ar
  1892  1842  1841    2
  1893  1514  1515    1
  1894  1751  1750    1
  1895  1795  1796   ar
  1896  1722  1720    1
  1897  1722  1717    1
  1898  1813  1812   ar
  1899     9     7    1
  1900  2030  2032   ar
  1901  2133  2134    1
  1902  2133  2131    1
  1903  2012  2010   ar
  1904  1675  1676    1
  1905  1317  1318    1
  1906  1317  1315    1
  1907  2019  2021    1
  1908  2019  2020    1
  1909  1331  1332    1
  1910  1331  1328    1
  1911    34    33   ar
  1912  2021  2022    1
  1913  2021  2023    1
  1914  1865  1863    2
  1915  1792  1791   ar
  1916  1285  1284   ar
  1917  1285  1286   ar
  1918  2009  2010   ar
  1919  1890  1889    1
  1920  1849  1863    1
  1921   918   920   ar
  1922   918   917   ar
  1923  1299  1294    1
  1924  1299  1297    1
  1925  1808  1807    1
  1926  1721  1720    1
  1927  2026  2036   ar
  1928  2026  2025    1
  1929  1263  1262    1
  1930  1720  1718    1
  1931   893   891    1
  1932   893   888    1
  1933  2020  2025    1
  1934  1003  1005   ar
  1935  1003  1002   ar
  1936  1773  1772    1
  1937  2172  2169    1
  1938     3     5    1
  1939   891   892    1
  1940   891   889    1
  1941  1676  1678    1
  1942  1873  1872    1
  1943   886   887    1
  1944  1680  1678    1
  1945  1680  1681    1
  1946  1678  1679    1
  1947  1844  1841    1
  1948  1841  1843    1
  1949   888   887    1
  1950  1284  1282   ar
  1951  1693  1691    2
  1952  1889  1886    1
  1953    70    69    1
  1954   920   921   ar
  1955   917   915   ar
  1956  2126  2124    2
  1957  2158  2156    1
  1958  2158  2153    1
  1959  2010  2011    1
  1960    33    32    1
  1961  2113  2108    1
  1962  2113  2111    1
  1963  1286  1287   ar
  1964  1810  1809    1
  1965  1810  1811   ar
  1966  1298  1297    1
  1967  1702  1697    1
  1968  1702  1700    1
  1969    69    66    1
  1970  1294  1293    1
  1971   773   771   ar
  1972    55    53    1
  1973    55    50    1
  1974   771   772    1
  1975  2156  2154    1
  1976  2156  2157    1
  1977   750   748   ar
  1978  2131  2132    1
  1979  2131  2129    1
  1980  1005  1006   ar
  1981  2036  2035   ar
  1982  1809  1807    1
  1983  1809  1804    1
  1984   747   748   ar
  1985  2130  2129    1
  1986     5     7    1
  1987     5     6    1
  1988  1314  1313    1
  1989  2108  2107    1
  1990  1807  1805    1
  1991    53    54    1
  1992    53    51    1
  1993  1330  1328    2
  1994  1297  1295    1
  1995  1315  1316    1
  1996  1315  1313    1
  1997  1863  1866    1
  1998  1863  1864    1
  1999  2106  2107    1
  2000  1837  1838    2
  2001  1837  1839   ar
  2002  1872  1870    1
  2003  1872  1874    1
  2004  2025  2023    1
  2005    23    21    2
  2006  1840  1839   ar
  2007  1825  1824    1
  2008  1002  1000   ar
  2009     7     8    1
  2010  1717  1716    1
  2011  2023  2024    1
  2012  2147  2150    1
  2013  2147  2132    1
  2014  2147  2148    1
  2015  1750  1752   ar
  2016  1750  1749   ar
  2017  1517  1516    2
  2018  1796  1797   ar
  2019   887   889    1
  2020  2109  2111    1
  2021  2109  2107    1
  2022  2109  2110    1
  2023  2032  2033   ar
  2024  1812  1811   ar
  2025  1736  1734    2
  2026  1328  1316    1
  2027  1328  1329    1
  2028   748   749    1
  2029  2154  2155    1
  2030  2154  2152    1
  2031  2150  2151    1
  2032  1515  1516   ar
  2033  1515  1522   ar
  2034  2111  2112    1
  2035  2127  2124    1
  2036  2127  2128    1
  2037  1866  1867    1
  2038  1697  1696    1
  2039  1262  1261   ar
  2040  1262  1264   ar
  2041  1791  1797   ar
  2042  1791  1790   ar
  2043   889   890    1
  2044  1276  1275    1
  2045  1700  1698    1
  2046  1700  1701    1
  2047   994   993    1
  2048  1261  1259   ar
  2049  1748  1749   ar
  2050  1748  1747   ar
  2051  2153  2152    1
  2052  1877  1876   ar
  2053  1877  1878   ar
  2054   921   914   ar
  2055   939   938    1
  2056   915   916    2
  2057   915   914   ar
  2058  1870  1871    1
  2059  1870  1868    1
  2060  1772  1771   ar
  2061  1772  1774   ar
  2062  1876  1875   ar
  2063  1880  1879    2
  2064  1679  1691    1
  2065  2129  2128    1
  2066  1694  1691    1
  2067  1694  1695    1
  2068  1282  1283    1
  2069  1282  1281   ar
  2070  1718  1716    1
  2071  1718  1719    1
  2072  1691  1692    1
  2073  1017  1016    1
  2074  1878  1879   ar
  2075  1878  1885   ar
  2076  1313  1312    1
  2077   960   961   ar
  2078   960   958   ar
  2079  2124  2110    1
  2080  2124  2125    1
  2081  1879  1881   ar
  2082  1875  1885   ar
  2083  1875  1874    1
  2084  1516  1518   ar
  2085  1752  1753   ar
  2086  1749  1755   ar
  2087  1797  1788   ar
  2088  1771  1769   ar
  2089  2169  2170    2
  2090  2169  2155    1
  2091  2169  2171    1
  2092  1287  1281   ar
  2093  1287  1278   ar
  2094    51    52    1
  2095    51    49    1
  2096  1885  1884   ar
  2097    68    66    2
  2098  1006   996   ar
  2099  1006   999   ar
  2100  1804  1803    1
  2101     6    21    1
  2102    50    49    1
  2103  1824  1821    1
  2104   914   913    1
  2105  1886  1871    1
  2106  1886  1888    2
  2107  1886  1887    1
  2108   959   958    1
  2109  2035  2033   ar
  2110    32    30    1
  2111    32    27    1
  2112  1293  1295    1
  2113  1293  1292    1
  2114  1522  1521   ar
  2115  1881  1882   ar
  2116    66    52    1
  2117    66    67    1
  2118  1874  1869    1
  2119  1698  1696    1
  2120  1698  1699    1
  2121  1013  1012    1
  2122  1013  1018    1
  2123   961   962   ar
  2124   978   977    2
  2125  1884  1882   ar
  2126   995   993    1
  2127   995   996    1
  2128   995   990    1
  2129    21    24    1
  2130    21    22    1
  2131  1716  1715    1
  2132  2152  2151    1
  2133  1000   999   ar
  2134  1000  1001    2
  2135  1882  1883    1
  2136  2033  2034    1
  2137  1295  1296    1
  2138  1713  1711    2
  2139  1867  1868    1
  2140  1805  1806    1
  2141  1805  1803    1
  2142  1312  1311    1
  2143  1264  1265   ar
  2144  1790  1789   ar
  2145    24    25    1
  2146  1281  1280   ar
  2147  1719  1734    1
  2148   958   957   ar
  2149  1012  1011    1
  2150  1012  1014    1
  2151  1018  1016    1
  2152  1018  1019    1
  2153   938   937   ar
  2154   938   940   ar
  2155  1292  1291    1
  2156  1260  1259    2
  2157  1275  1277    1
  2158  1275  1273    1
  2159  1696  1695    1
  2160  1747  1746   ar
  2161   993   991    1
  2162  1259  1258   ar
  2163  1774  1775   ar
  2164  1734  1735    1
  2165  1734  1737    1
  2166   937   935   ar
  2167   996   997   ar
  2168  1806  1821    1
  2169  1868  1869    1
  2170  1277  1278    1
  2171  1277  1272    1
  2172    46    44    2
  2173   979   977   ar
  2174   979   980   ar
  2175  1296  1308    1
  2176    30    28    1
  2177    30    31    1
  2178   890   902    1
  2179    27    26    1
  2180  1714  1715    1
  2181  1714  1711    1
  2182   999   998   ar
  2183  1803  1802    1
  2184  1278  1279   ar
  2185   990   989    1
  2186  1016  1014    1
  2187    49    48    1
  2188   977   976   ar
  2189  1011  1010    1
  2190    47    44    1
  2191    47    48    1
  2192    28    26    1
  2193    28    29    1
  2194   913   908    1
  2195   913   911    1
  2196  1753  1754   ar
  2197  1769  1770    2
  2198  1769  1768   ar
  2199  1518  1519   ar
  2200  1755  1746   ar
  2201  1755  1754   ar
  2202   908   907    1
  2203   962   963   ar
  2204  1788  1789   ar
  2205  1788  1787    1
  2206  1821  1822    2
  2207  1821  1823    1
  2208   981   980    1
  2209  1699  1711    1
  2210  1711  1712    1
  2211   940   941   ar
  2212  1521  1519   ar
  2213   904   902    2
  2214  1014  1015    1
  2215   989   991    1
  2216   989   988    1
  2217  1265  1258   ar
  2218  1265  1255   ar
  2219  1737  1738    1
  2220  1015  1029    1
  2221   935   936    2
  2222   935   934   ar
  2223  1019  1028   ar
  2224  1019  1020   ar
  2225   980   982   ar
  2226  1746  1745    1
  2227  1311  1308    1
  2228    26    25    1
  2229   957   963   ar
  2230   957   956   ar
  2231  1274  1273    1
  2232  1274  1288    1
  2233  1258  1257   ar
  2234  1280  1279   ar
  2235    44    29    1
  2236    44    45    1
  2237   906   907    1
  2238   906   905    1
  2239  1027  1028   ar
  2240  1027  1026   ar
  2241   991   992    1
  2242   997   998   ar
  2243  1273  1271    1
  2244  1775  1768   ar
  2245  1272  1271    1
  2246  1291  1288    1
  2247   963   954   ar
  2248   902   905    1
  2249   902   903    1
  2250   992  1007    1
  2251  1308  1310    2
  2252  1308  1309    1
  2253  1519  1520    2
  2254  1271  1270    1
  2255  1028  1022   ar
  2256  1787  1785    1
  2257  1787  1782    1
  2258  1010  1007    1
  2259  1768  1767    1
  2260  1802  1801    1
  2261   976   975    1
  2262   976   983   ar
  2263  1289  1288    2
  2264   907   909    1
  2265   941   934   ar
  2266  1020  1021   ar
  2267  1785  1786    1
  2268  1785  1783    1
  2269   934   933    1
  2270  1026  1025   ar
  2271   911   909    1
  2272   911   912    1
  2273  1288  1290    1
  2274   974   973    1
  2275  1801  1798    1
  2276  1033  1034    1
  2277  1033  1032    1
  2278   956   955   ar
  2279   975   973    1
  2280   975   970    1
  2281  1255  1254    1
  2282  1255  1256   ar
  2283   988   987    1
  2284   973   971    1
  2285  1738  1739    1
  2286   982   983   ar
  2287  1030  1029    2
  2288  1257  1256   ar
  2289   909   910    1
  2290  1740  1745    1
  2291  1740  1739    1
  2292  1007  1008    2
  2293  1007  1009    1
  2294  1745  1743    1
  2295  1249  1254    1
  2296  1249  1248    1
  2297  1029  1032    1
  2298  1029  1031    1
  2299  1035  1034    1
  2300  1035  1040    1
  2301   954   955   ar
  2302   954   953    1
  2303  1254  1252    1
  2304  1034  1036    1
  2305  1022  1021   ar
  2306  1022  1023   ar
  2307  1758  1756    2
  2308  1782  1781    1
  2309  1270  1269    1
  2310  1025  1023   ar
  2311   933   928    1
  2312   933   931    1
  2313  1783  1784    1
  2314  1783  1781    1
  2315  1767  1765    1
  2316  1767  1762    1
  2317  1739  1741    1
  2318   987   984    1
  2319  1741  1743    1
  2320  1741  1742    1
  2321   953   948    1
  2322   953   951    1
  2323   970   969    1
  2324  1023  1024    1
  2325  1743  1744    1
  2326  1248  1250    1
  2327  1248  1247    1
  2328  1798  1800    2
  2329  1798  1784    1
  2330  1798  1799    1
  2331   928   927    1
  2332  1251  1250    1
  2333  1251  1266    1
  2334  1040  1041    1
  2335  1040  1038    1
  2336  1269  1266    1
  2337   971   972    1
  2338   971   969    1
  2339  1765  1763    1
  2340  1765  1766    1
  2341   910   922    1
  2342  1762  1761    1
  2343  1781  1780    1
  2344  1253  1252    1
  2345  1252  1250    1
  2346  1036  1037    1
  2347  1036  1038    1
  2348   924   922    2
  2349  1759  1756    1
  2350  1759  1760    1
  2351  1042  1041   ar
  2352  1042  1043   ar
  2353  1039  1038    1
  2354   948   947    1
  2355  1037  1051    1
  2356  1756  1742    1
  2357  1756  1757    1
  2358   951   952    1
  2359   951   949    1
  2360  1267  1266    2
  2361   931   932    1
  2362   931   929    1
  2363   972   984    1
  2364   969   968    1
  2365  1247  1246    1
  2366  1041  1050   ar
  2367   925   922    1
  2368   925   926    1
  2369  1266  1268    1
  2370  1763  1761    1
  2371  1763  1764    1
  2372  1779  1780    1
  2373  1779  1776    1
  2374   984   985    2
  2375   984   986    1
  2376   922   923    1
  2377  1778  1776    2
  2378  1052  1051    2
  2379  1043  1044   ar
  2380   927   929    1
  2381   927   926    1
  2382  1761  1760    1
  2383   929   930    1
  2384  1051  1053    1
  2385  1051  1054    1
  2386  1050  1044   ar
  2387  1050  1049   ar
  2388  1776  1764    1
  2389  1776  1777    1
  2390   949   947    1
  2391   949   950    1
  2392   947   946    1
  2393  1237  1236    2
  2394  1246  1243    1
  2395  1044  1045   ar
  2396  1233  1232    1
  2397   968   967    1
  2398   967   964    1
  2399  1049  1048   ar
  2400   945   946    1
  2401   945   942    1
  2402  1232  1234    1
  2403  1232  1230    1
  2404  1236  1238   ar
  2405  1236  1235   ar
  2406   930   942    1
  2407  1054  1055    1
  2408   950   964    1
  2409  1045  1046    1
  2410  1045  1047   ar
  2411  1238  1239   ar
  2412  1055  1056    1
  2413   944   942    2
  2414  1048  1047   ar
  2415  1231  1243    1
  2416  1231  1230    1
  2417  1243  1244    2
  2418  1243  1245    1
  2419   942   943    1
  2420   964   966    2
  2421   964   965    1
  2422  1234  1235    1
  2423  1234  1229    1
  2424  1235  1242   ar
  2425  1230  1228    1
  2426  1057  1056    1
  2427  1057  1062    1
  2428  1239  1240    2
  2429  1239  1241   ar
  2430  1064  1065   ar
  2431  1064  1063   ar
  2432  1056  1058    1
  2433  1065  1066   ar
  2434  1242  1241   ar
  2435  1063  1062    1
  2436  1063  1072   ar
  2437  1229  1228    1
  2438  1228  1227    1
  2439  1142  1140    1
  2440  1062  1060    1
  2441  1066  1072   ar
  2442  1066  1067   ar
  2443  1068  1067    1
  2444  1058  1059    1
  2445  1058  1060    1
  2446  1220  1219    2
  2447  1072  1071   ar
  2448  1067  1069   ar
  2449  1218  1219   ar
  2450  1218  1216   ar
  2451  1140  1141    1
  2452  1140  1143    1
  2453  1059  1073    1
  2454  1060  1061    1
  2455  1219  1221   ar
  2456  1227  1226    1
  2457  1217  1216    2
  2458  1075  1073    2
  2459  1226  1223    1
  2460  1071  1070   ar
  2461  1216  1215   ar
  2462  1069  1070   ar
  2463  1200  1199    2
  2464  1073  1074    1
  2465  1073  1076    1
  2466  1143  1144    1
  2467  1221  1222   ar
  2468  1090  1089    2
  2469  1087  1086   ar
  2470  1087  1088   ar
  2471  1215  1222   ar
  2472  1215  1214    1
  2473  1180  1179    1
  2474  1199  1198   ar
  2475  1199  1201   ar
  2476  1223  1225    2
  2477  1223  1224    1
  2478  1223  1211    1
  2479  1212  1213    1
  2480  1212  1214    1
  2481  1212  1210    1
  2482  1154  1153   ar
  2483  1154  1155   ar
  2484  1086  1085   ar
  2485  1165  1163    2
  2486  1076  1077    1
  2487  1089  1088   ar
  2488  1089  1091   ar
  2489  1144  1145    1
  2490  1198  1196   ar
  2491  1088  1095   ar
  2492  1157  1156    2
  2493  1153  1152   ar
  2494  1214  1209    1
  2495  1210  1211    1
  2496  1210  1208    1
  2497  1201  1202   ar
  2498  1179  1181   ar
  2499  1179  1178   ar
  2500  1181  1182   ar
  2501  1113  1112    1
  2502  1085  1095   ar
  2503  1085  1084    1
  2504  1155  1156   ar
  2505  1155  1162   ar
  2506  1077  1078    1
  2507  1156  1158   ar
  2508  1079  1084    1
  2509  1079  1078    1
  2510  1091  1092   ar
  2511  1095  1094   ar
  2512  1163  1164    1
  2513  1163  1148    1
  2514  1163  1166    1
  2515  1196  1197    2
  2516  1196  1195   ar
  2517  1145  1147    1
  2518  1145  1146    1
  2519  1147  1148    1
  2520  1147  1149    1
  2521  1209  1208    1
  2522  1152  1162   ar
  2523  1152  1151    1
  2524  1146  1151    1
  2525  1178  1176   ar
  2526  1202  1195   ar
  2527  1084  1082    1
  2528  1182  1175   ar
  2529  1112  1114   ar
  2530  1112  1111   ar
  2531  1208  1207    1
  2532  1078  1080    1
  2533  1133  1132    2
  2534  1162  1161   ar
  2535  1092  1094   ar
  2536  1092  1093    1
  2537  1195  1194    1
  2538  1114  1115   ar
  2539  1166  1167    1
  2540  1206  1207    1
  2541  1206  1203    1
  2542  1185  1183    2
  2543  1205  1203    2
  2544  1158  1159   ar
  2545  1151  1149    1
  2546  1080  1082    1
  2547  1080  1081    1
  2548  1111  1109   ar
  2549  1149  1150    1
  2550  1176  1175   ar
  2551  1176  1177    2
  2552  1175  1174    1
  2553  1082  1083    1
  2554  1098  1096    2
  2555  1132  1131   ar
  2556  1132  1134   ar
  2557  1203  1204    1
  2558  1203  1191    1
  2559  1161  1159   ar
  2560  1115  1108   ar
  2561  1131  1129   ar
  2562  1159  1160    1
  2563  1192  1194    1
  2564  1192  1190    1
  2565  1192  1193    1
  2566  1194  1189    1
  2567  1167  1168    1
  2568  1183  1186    1
  2569  1183  1184    1
  2570  1183  1171    1
  2571  1190  1191    1
  2572  1190  1188    1
  2573  1186  1187    1
  2574  1081  1096    1
  2575  1109  1108   ar
  2576  1109  1110    2
  2577  1170  1168    1
  2578  1170  1171    1
  2579  1170  1172    1
  2580  1108  1107    1
  2581  1169  1174    1
  2582  1169  1168    1
  2583  1134  1135   ar
  2584  1174  1172    1
  2585  1096  1099    1
  2586  1096  1097    1
  2587  1189  1188    1
  2588  1172  1173    1
  2589  1129  1130    2
  2590  1129  1128   ar
  2591  1188  1187    1
  2592  1099  1100    1
  2593  1135  1128   ar
  2594  1102  1107    1
  2595  1102  1101    1
  2596  1107  1105    1
  2597  1128  1127    1
  2598  1100  1101    1
  2599  1101  1103    1
  2600  1105  1103    1
  2601  1105  1106    1
  2602  1127  1122    1
  2603  1127  1125    1
  2604  1103  1104    1
  2605  1118  1116    2
  2606  1122  1121    1
  2607  1125  1126    1
  2608  1125  1123    1
  2609  1104  1116    1
  2610  1119  1116    1
  2611  1119  1120    1
  2612  1116  1117    1
  2613  1123  1121    1
  2614  1123  1124    1
  2615  1121  1120    1
  2616  1138  1136    2
  2617  1124  1136    1
  2618  1136  1137    1
  2619  1136  1139    1
