ligand
 OpenBabel11021811483D
libRbt.so/2013.1/901 2013/11/27
 13 14  0  0  0  0  0  0  0  0999 V2000
   12.7853   43.9357   64.9398 N   0  0  0  0  0  0  0  0  0  0  0  0
   10.9166   43.1802   66.0847 N   0  0  0  0  0  0  0  0  0  0  0  0
   12.1799   43.6440   66.0875 C   0  0  0  0  0  0  0  0  0  0  0  0
   12.8683   43.8101   67.2885 N   0  0  0  0  0  0  0  0  0  0  0  0
   12.2121   43.4964   68.4804 C   0  0  0  0  0  0  0  0  0  0  0  0
   10.9010   43.0325   68.4509 C   0  0  0  0  0  0  0  0  0  0  0  0
   12.7963   43.6255   69.5556 O   0  0  0  0  0  0  0  0  0  0  0  0
   10.2547   42.6763   69.6499 N   0  0  0  0  0  0  0  0  0  0  0  0
    8.8352   42.2231   69.6873 C   0  0  2  0  0  0  0  0  0  0  0  0
    8.4847   41.5475   68.3507 C   0  0  0  0  0  0  0  0  0  0  0  0
   10.2748   42.8645   67.2240 C   0  0  0  0  0  0  0  0  0  0  0  0
    8.9638   42.3743   67.1899 N   0  0  0  0  0  0  0  0  0  0  0  0
    7.9225   43.4667   69.9065 C   0  0  0  0  0  0  0  0  0  0  0  0
  1  3  1  0  0  0  0
  2  3  2  0  0  0  0
  2 11  1  0  0  0  0
  3  4  1  0  0  0  0
  4  5  1  0  0  0  0
  5  6  1  0  0  0  0
  5  7  2  0  0  0  0
  6  8  1  0  0  0  0
  6 11  2  0  0  0  0
  8  9  1  0  0  0  0
  9 10  1  0  0  0  0
  9 13  1  6  0  0  0
 10 12  1  0  0  0  0
 11 12  1  0  0  0  0
M  END
>  <CHROM.1>
10.70983082,43.07195860,67.95139759,0.60732125,-0.31377602,-1.59274205

>  <Name>
ligand

>  <RI>
0

>  <Rbt.Current_Directory>
/home/itssahil/PROJECTS/Mol_Feturizer/New_Systems/rnas/3SUX

>  <Rbt.Executable>
rbdock ($Id: //depot/dev/client3/rdock/2013.1/src/exe/rbdock.cxx#4 $)

>  <Rbt.Library>
libRbt.so (2013.1, Build901 2013/11/27)

>  <Rbt.Parameter_File>
/export/apps/rDock/src/rDock_2013.1_src/data/scripts/dock_solv.prm

>  <Rbt.Receptor>
prm/pocket_docking_8.prm

>  <SCORE>
-8.69147

>  <SCORE.INTER>
-8.69147

>  <SCORE.INTER.CONST>
1

>  <SCORE.INTER.POLAR>
0

>  <SCORE.INTER.ROT>
0

>  <SCORE.INTER.SOLV>
21.3472

>  <SCORE.INTER.VDW>
-16.51

>  <SCORE.INTER.norm>
-0.668575

>  <SCORE.INTRA>
0

>  <SCORE.INTRA.DIHEDRAL>
0

>  <SCORE.INTRA.DIHEDRAL.0>
0

>  <SCORE.INTRA.POLAR>
0

>  <SCORE.INTRA.POLAR.0>
0

>  <SCORE.INTRA.REPUL>
0

>  <SCORE.INTRA.REPUL.0>
0

>  <SCORE.INTRA.SOLV>
0

>  <SCORE.INTRA.SOLV.lig_0>
-48.6608

>  <SCORE.INTRA.VDW>
0

>  <SCORE.INTRA.VDW.0>
0

>  <SCORE.INTRA.norm>
0

>  <SCORE.RESTR>
0

>  <SCORE.RESTR.CAVITY>
0

>  <SCORE.RESTR.norm>
0

>  <SCORE.SYSTEM>
0

>  <SCORE.SYSTEM.CONST>
0

>  <SCORE.SYSTEM.DIHEDRAL>
0

>  <SCORE.SYSTEM.SOLV>
0

>  <SCORE.SYSTEM.norm>
0

>  <SCORE.heavy>
13

>  <SCORE.norm>
-0.668575

>  <RMSD>
0.778

$$$$
ligand
 OpenBabel11021811483D
libRbt.so/2013.1/901 2013/11/27
 13 14  0  0  0  0  0  0  0  0999 V2000
   12.8402   43.9525   65.0509 N   0  0  0  0  0  0  0  0  0  0  0  0
   10.9380   43.1848   66.1307 N   0  0  0  0  0  0  0  0  0  0  0  0
   12.1983   43.6546   66.1769 C   0  0  0  0  0  0  0  0  0  0  0  0
   12.8455   43.8204   67.4007 N   0  0  0  0  0  0  0  0  0  0  0  0
   12.1514   43.5001   68.5692 C   0  0  0  0  0  0  0  0  0  0  0  0
   10.8442   43.0302   68.4947 C   0  0  0  0  0  0  0  0  0  0  0  0
   12.6989   43.6288   69.6636 O   0  0  0  0  0  0  0  0  0  0  0  0
   10.1601   42.6675   69.6705 N   0  0  0  0  0  0  0  0  0  0  0  0
    8.7424   42.2075   69.6593 C   0  0  2  0  0  0  0  0  0  0  0  0
    8.4397   41.5342   68.3099 C   0  0  0  0  0  0  0  0  0  0  0  0
   10.2601   42.8628   67.2472 C   0  0  0  0  0  0  0  0  0  0  0  0
    8.9533   42.3666   67.1680 N   0  0  0  0  0  0  0  0  0  0  0  0
    7.8169   43.4461   69.8514 C   0  0  0  0  0  0  0  0  0  0  0  0
  1  3  1  0  0  0  0
  2  3  2  0  0  0  0
  2 11  1  0  0  0  0
  3  4  1  0  0  0  0
  4  5  1  0  0  0  0
  5  6  1  0  0  0  0
  5  7  2  0  0  0  0
  6  8  1  0  0  0  0
  6 11  2  0  0  0  0
  8  9  1  0  0  0  0
  9 10  1  0  0  0  0
  9 13  1  6  0  0  0
 10 12  1  0  0  0  0
 11 12  1  0  0  0  0
M  END
>  <CHROM.1>
10.66965923,43.07019901,67.98921246,0.57214272,-0.31763627,-1.60082756

>  <Name>
ligand

>  <RI>
0

>  <Rbt.Current_Directory>
/home/itssahil/PROJECTS/Mol_Feturizer/New_Systems/rnas/3SUX

>  <Rbt.Executable>
rbdock ($Id: //depot/dev/client3/rdock/2013.1/src/exe/rbdock.cxx#4 $)

>  <Rbt.Library>
libRbt.so (2013.1, Build901 2013/11/27)

>  <Rbt.Parameter_File>
/export/apps/rDock/src/rDock_2013.1_src/data/scripts/dock_solv.prm

>  <Rbt.Receptor>
prm/pocket_docking_5.prm

>  <SCORE>
-8.57118

>  <SCORE.INTER>
-8.57118

>  <SCORE.INTER.CONST>
1

>  <SCORE.INTER.POLAR>
0

>  <SCORE.INTER.ROT>
0

>  <SCORE.INTER.SOLV>
21.2761

>  <SCORE.INTER.VDW>
-16.4061

>  <SCORE.INTER.norm>
-0.659321

>  <SCORE.INTRA>
0

>  <SCORE.INTRA.DIHEDRAL>
0

>  <SCORE.INTRA.DIHEDRAL.0>
0

>  <SCORE.INTRA.POLAR>
0

>  <SCORE.INTRA.POLAR.0>
0

>  <SCORE.INTRA.REPUL>
0

>  <SCORE.INTRA.REPUL.0>
0

>  <SCORE.INTRA.SOLV>
0

>  <SCORE.INTRA.SOLV.lig_0>
-48.6608

>  <SCORE.INTRA.VDW>
0

>  <SCORE.INTRA.VDW.0>
0

>  <SCORE.INTRA.norm>
0

>  <SCORE.RESTR>
0

>  <SCORE.RESTR.CAVITY>
0

>  <SCORE.RESTR.norm>
0

>  <SCORE.SYSTEM>
0

>  <SCORE.SYSTEM.CONST>
0

>  <SCORE.SYSTEM.DIHEDRAL>
0

>  <SCORE.SYSTEM.SOLV>
0

>  <SCORE.SYSTEM.norm>
0

>  <SCORE.heavy>
13

>  <SCORE.norm>
-0.659321

>  <RMSD>
0.792

$$$$
ligand
 OpenBabel11021811483D
libRbt.so/2013.1/901 2013/11/27
 13 14  0  0  0  0  0  0  0  0999 V2000
   12.8358   43.9694   65.0682 N   0  0  0  0  0  0  0  0  0  0  0  0
   10.9325   43.2018   66.1462 N   0  0  0  0  0  0  0  0  0  0  0  0
   12.1965   43.6615   66.1930 C   0  0  0  0  0  0  0  0  0  0  0  0
   12.8501   43.8064   67.4161 N   0  0  0  0  0  0  0  0  0  0  0  0
   12.1585   43.4760   68.5833 C   0  0  0  0  0  0  0  0  0  0  0  0
   10.8476   43.0167   68.5083 C   0  0  0  0  0  0  0  0  0  0  0  0
   12.7116   43.5862   69.6769 O   0  0  0  0  0  0  0  0  0  0  0  0
   10.1657   42.6437   69.6822 N   0  0  0  0  0  0  0  0  0  0  0  0
    8.7446   42.1944   69.6711 C   0  0  2  0  0  0  0  0  0  0  0  0
    8.4313   41.5412   68.3143 C   0  0  0  0  0  0  0  0  0  0  0  0
   10.2570   42.8701   67.2612 C   0  0  0  0  0  0  0  0  0  0  0  0
    8.9462   42.3847   67.1812 N   0  0  0  0  0  0  0  0  0  0  0  0
    7.8292   43.4372   69.8834 C   0  0  0  0  0  0  0  0  0  0  0  0
  1  3  1  0  0  0  0
  2  3  2  0  0  0  0
  2 11  1  0  0  0  0
  3  4  1  0  0  0  0
  4  5  1  0  0  0  0
  5  6  1  0  0  0  0
  5  7  2  0  0  0  0
  6  8  1  0  0  0  0
  6 11  2  0  0  0  0
  8  9  1  0  0  0  0
  9 10  1  0  0  0  0
  9 13  1  6  0  0  0
 10 12  1  0  0  0  0
 11 12  1  0  0  0  0
M  END
>  <CHROM.1>
10.67121647,43.06470033,68.00413309,0.57681001,-0.31030831,-1.58625218

>  <Name>
ligand

>  <RI>
0

>  <Rbt.Current_Directory>
/home/itssahil/PROJECTS/Mol_Feturizer/New_Systems/rnas/3SUX

>  <Rbt.Executable>
rbdock ($Id: //depot/dev/client3/rdock/2013.1/src/exe/rbdock.cxx#4 $)

>  <Rbt.Library>
libRbt.so (2013.1, Build901 2013/11/27)

>  <Rbt.Parameter_File>
/export/apps/rDock/src/rDock_2013.1_src/data/scripts/dock_solv.prm

>  <Rbt.Receptor>
prm/pocket_docking_5.prm

>  <SCORE>
-8.54353

>  <SCORE.INTER>
-8.54353

>  <SCORE.INTER.CONST>
1

>  <SCORE.INTER.POLAR>
0

>  <SCORE.INTER.ROT>
0

>  <SCORE.INTER.SOLV>
21.2648

>  <SCORE.INTER.VDW>
-16.384

>  <SCORE.INTER.norm>
-0.657195

>  <SCORE.INTRA>
0

>  <SCORE.INTRA.DIHEDRAL>
0

>  <SCORE.INTRA.DIHEDRAL.0>
0

>  <SCORE.INTRA.POLAR>
0

>  <SCORE.INTRA.POLAR.0>
0

>  <SCORE.INTRA.REPUL>
0

>  <SCORE.INTRA.REPUL.0>
0

>  <SCORE.INTRA.SOLV>
0

>  <SCORE.INTRA.SOLV.lig_0>
-48.6608

>  <SCORE.INTRA.VDW>
0

>  <SCORE.INTRA.VDW.0>
0

>  <SCORE.INTRA.norm>
0

>  <SCORE.RESTR>
0

>  <SCORE.RESTR.CAVITY>
0

>  <SCORE.RESTR.norm>
0

>  <SCORE.SYSTEM>
0

>  <SCORE.SYSTEM.CONST>
0

>  <SCORE.SYSTEM.DIHEDRAL>
0

>  <SCORE.SYSTEM.SOLV>
0

>  <SCORE.SYSTEM.norm>
0

>  <SCORE.heavy>
13

>  <SCORE.norm>
-0.657195

>  <RMSD>
0.794

$$$$
ligand
 OpenBabel11021811483D
libRbt.so/2013.1/901 2013/11/27
 13 14  0  0  0  0  0  0  0  0999 V2000
   12.8321   43.9675   65.0672 N   0  0  0  0  0  0  0  0  0  0  0  0
   10.9283   43.2005   66.1447 N   0  0  0  0  0  0  0  0  0  0  0  0
   12.1923   43.6604   66.1919 C   0  0  0  0  0  0  0  0  0  0  0  0
   12.8452   43.8062   67.4151 N   0  0  0  0  0  0  0  0  0  0  0  0
   12.1531   43.4767   68.5822 C   0  0  0  0  0  0  0  0  0  0  0  0
   10.8422   43.0173   68.5069 C   0  0  0  0  0  0  0  0  0  0  0  0
   12.7055   43.5877   69.6761 O   0  0  0  0  0  0  0  0  0  0  0  0
   10.1597   42.6451   69.6807 N   0  0  0  0  0  0  0  0  0  0  0  0
    8.7386   42.1957   69.6692 C   0  0  2  0  0  0  0  0  0  0  0  0
    8.4261   41.5414   68.3128 C   0  0  0  0  0  0  0  0  0  0  0  0
   10.2523   42.8696   67.2596 C   0  0  0  0  0  0  0  0  0  0  0  0
    8.9415   42.3841   67.1793 N   0  0  0  0  0  0  0  0  0  0  0  0
    7.8231   43.4386   69.8801 C   0  0  0  0  0  0  0  0  0  0  0  0
  1  3  1  0  0  0  0
  2  3  2  0  0  0  0
  2 11  1  0  0  0  0
  3  4  1  0  0  0  0
  4  5  1  0  0  0  0
  5  6  1  0  0  0  0
  5  7  2  0  0  0  0
  6  8  1  0  0  0  0
  6 11  2  0  0  0  0
  8  9  1  0  0  0  0
  9 10  1  0  0  0  0
  9 13  1  6  0  0  0
 10 12  1  0  0  0  0
 11 12  1  0  0  0  0
M  END
>  <CHROM.1>
10.66606048,43.06484383,68.00262518,0.57626052,-0.31036056,-1.58718726

>  <Name>
ligand

>  <RI>
0

>  <Rbt.Current_Directory>
/home/itssahil/PROJECTS/Mol_Feturizer/New_Systems/rnas/3SUX

>  <Rbt.Executable>
rbdock ($Id: //depot/dev/client3/rdock/2013.1/src/exe/rbdock.cxx#4 $)

>  <Rbt.Library>
libRbt.so (2013.1, Build901 2013/11/27)

>  <Rbt.Parameter_File>
/export/apps/rDock/src/rDock_2013.1_src/data/scripts/dock_solv.prm

>  <Rbt.Receptor>
prm/pocket_docking_5.prm

>  <SCORE>
-8.53944

>  <SCORE.INTER>
-8.53944

>  <SCORE.INTER.CONST>
1

>  <SCORE.INTER.POLAR>
0

>  <SCORE.INTER.ROT>
0

>  <SCORE.INTER.SOLV>
21.2714

>  <SCORE.INTER.VDW>
-16.3834

>  <SCORE.INTER.norm>
-0.65688

>  <SCORE.INTRA>
0

>  <SCORE.INTRA.DIHEDRAL>
0

>  <SCORE.INTRA.DIHEDRAL.0>
0

>  <SCORE.INTRA.POLAR>
0

>  <SCORE.INTRA.POLAR.0>
0

>  <SCORE.INTRA.REPUL>
0

>  <SCORE.INTRA.REPUL.0>
0

>  <SCORE.INTRA.SOLV>
0

>  <SCORE.INTRA.SOLV.lig_0>
-48.6608

>  <SCORE.INTRA.VDW>
0

>  <SCORE.INTRA.VDW.0>
0

>  <SCORE.INTRA.norm>
0

>  <SCORE.RESTR>
0

>  <SCORE.RESTR.CAVITY>
0

>  <SCORE.RESTR.norm>
0

>  <SCORE.SYSTEM>
0

>  <SCORE.SYSTEM.CONST>
0

>  <SCORE.SYSTEM.DIHEDRAL>
0

>  <SCORE.SYSTEM.SOLV>
0

>  <SCORE.SYSTEM.norm>
0

>  <SCORE.heavy>
13

>  <SCORE.norm>
-0.65688

>  <RMSD>
0.796

$$$$
ligand
 OpenBabel11021811483D
libRbt.so/2013.1/901 2013/11/27
 13 14  0  0  0  0  0  0  0  0999 V2000
   12.8173   43.8796   64.8457 N   0  0  0  0  0  0  0  0  0  0  0  0
   10.9495   43.1792   66.0266 N   0  0  0  0  0  0  0  0  0  0  0  0
   12.2118   43.6454   66.0065 C   0  0  0  0  0  0  0  0  0  0  0  0
   12.8991   43.8740   67.1978 N   0  0  0  0  0  0  0  0  0  0  0  0
   12.2427   43.6200   68.4038 C   0  0  0  0  0  0  0  0  0  0  0  0
   10.9327   43.1523   68.3973 C   0  0  0  0  0  0  0  0  0  0  0  0
   12.8260   43.8050   69.4714 O   0  0  0  0  0  0  0  0  0  0  0  0
   10.2864   42.8562   69.6126 N   0  0  0  0  0  0  0  0  0  0  0  0
    8.8680   42.4023   69.6723 C   0  0  2  0  0  0  0  0  0  0  0  0
    8.5198   41.6587   68.3717 C   0  0  0  0  0  0  0  0  0  0  0  0
   10.3077   42.9205   67.1802 C   0  0  0  0  0  0  0  0  0  0  0  0
    8.9978   42.4263   67.1705 N   0  0  0  0  0  0  0  0  0  0  0  0
    7.9523   43.6534   69.8273 C   0  0  0  0  0  0  0  0  0  0  0  0
  1  3  1  0  0  0  0
  2  3  2  0  0  0  0
  2 11  1  0  0  0  0
  3  4  1  0  0  0  0
  4  5  1  0  0  0  0
  5  6  1  0  0  0  0
  5  7  2  0  0  0  0
  6  8  1  0  0  0  0
  6 11  2  0  0  0  0
  8  9  1  0  0  0  0
  9 10  1  0  0  0  0
  9 13  1  6  0  0  0
 10 12  1  0  0  0  0
 11 12  1  0  0  0  0
M  END
>  <CHROM.1>
10.74179146,43.16579457,67.89635188,0.60659473,-0.31597597,-1.64396775

>  <Name>
ligand

>  <RI>
0

>  <Rbt.Current_Directory>
/home/itssahil/PROJECTS/Mol_Feturizer/New_Systems/rnas/3SUX

>  <Rbt.Executable>
rbdock ($Id: //depot/dev/client3/rdock/2013.1/src/exe/rbdock.cxx#4 $)

>  <Rbt.Library>
libRbt.so (2013.1, Build901 2013/11/27)

>  <Rbt.Parameter_File>
/export/apps/rDock/src/rDock_2013.1_src/data/scripts/dock_solv.prm

>  <Rbt.Receptor>
prm/pocket_docking_4.prm

>  <SCORE>
-8.79017

>  <SCORE.INTER>
-8.79017

>  <SCORE.INTER.CONST>
1

>  <SCORE.INTER.POLAR>
0

>  <SCORE.INTER.ROT>
0

>  <SCORE.INTER.SOLV>
21.4799

>  <SCORE.INTER.VDW>
-16.6201

>  <SCORE.INTER.norm>
-0.676167

>  <SCORE.INTRA>
0

>  <SCORE.INTRA.DIHEDRAL>
0

>  <SCORE.INTRA.DIHEDRAL.0>
0

>  <SCORE.INTRA.POLAR>
0

>  <SCORE.INTRA.POLAR.0>
0

>  <SCORE.INTRA.REPUL>
0

>  <SCORE.INTRA.REPUL.0>
0

>  <SCORE.INTRA.SOLV>
0

>  <SCORE.INTRA.SOLV.lig_0>
-48.6608

>  <SCORE.INTRA.VDW>
0

>  <SCORE.INTRA.VDW.0>
0

>  <SCORE.INTRA.norm>
0

>  <SCORE.RESTR>
0

>  <SCORE.RESTR.CAVITY>
0

>  <SCORE.RESTR.norm>
0

>  <SCORE.SYSTEM>
0

>  <SCORE.SYSTEM.CONST>
0

>  <SCORE.SYSTEM.DIHEDRAL>
0

>  <SCORE.SYSTEM.SOLV>
0

>  <SCORE.SYSTEM.norm>
0

>  <SCORE.heavy>
13

>  <SCORE.norm>
-0.676167

>  <RMSD>
0.804

$$$$
ligand
 OpenBabel11021811483D
libRbt.so/2013.1/901 2013/11/27
 13 14  0  0  0  0  0  0  0  0999 V2000
   12.8196   43.8821   64.8264 N   0  0  0  0  0  0  0  0  0  0  0  0
   10.9573   43.1771   66.0133 N   0  0  0  0  0  0  0  0  0  0  0  0
   12.2198   43.6428   65.9890 C   0  0  0  0  0  0  0  0  0  0  0  0
   12.9131   43.8654   67.1780 N   0  0  0  0  0  0  0  0  0  0  0  0
   12.2626   43.6061   68.3861 C   0  0  0  0  0  0  0  0  0  0  0  0
   10.9523   43.1391   68.3839 C   0  0  0  0  0  0  0  0  0  0  0  0
   12.8514   43.7857   69.4515 O   0  0  0  0  0  0  0  0  0  0  0  0
   10.3120   42.8376   69.6009 N   0  0  0  0  0  0  0  0  0  0  0  0
    8.8936   42.3842   69.6656 C   0  0  2  0  0  0  0  0  0  0  0  0
    8.5385   41.6469   68.3633 C   0  0  0  0  0  0  0  0  0  0  0  0
   10.3212   42.9133   67.1689 C   0  0  0  0  0  0  0  0  0  0  0  0
    9.0109   42.4199   67.1633 N   0  0  0  0  0  0  0  0  0  0  0  0
    7.9794   43.6350   69.8311 C   0  0  0  0  0  0  0  0  0  0  0  0
  1  3  1  0  0  0  0
  2  3  2  0  0  0  0
  2 11  1  0  0  0  0
  3  4  1  0  0  0  0
  4  5  1  0  0  0  0
  5  6  1  0  0  0  0
  5  7  2  0  0  0  0
  6  8  1  0  0  0  0
  6 11  2  0  0  0  0
  8  9  1  0  0  0  0
  9 10  1  0  0  0  0
  9 13  1  6  0  0  0
 10 12  1  0  0  0  0
 11 12  1  0  0  0  0
M  END
>  <CHROM.1>
10.75894251,43.15503491,67.88395437,0.61187483,-0.31577932,-1.63761658

>  <Name>
ligand

>  <RI>
0

>  <Rbt.Current_Directory>
/home/itssahil/PROJECTS/Mol_Feturizer/New_Systems/rnas/3SUX

>  <Rbt.Executable>
rbdock ($Id: //depot/dev/client3/rdock/2013.1/src/exe/rbdock.cxx#4 $)

>  <Rbt.Library>
libRbt.so (2013.1, Build901 2013/11/27)

>  <Rbt.Parameter_File>
/export/apps/rDock/src/rDock_2013.1_src/data/scripts/dock_solv.prm

>  <Rbt.Receptor>
prm/pocket_docking_2.prm

>  <SCORE>
-8.7968

>  <SCORE.INTER>
-8.7968

>  <SCORE.INTER.CONST>
1

>  <SCORE.INTER.POLAR>
0

>  <SCORE.INTER.ROT>
0

>  <SCORE.INTER.SOLV>
21.5098

>  <SCORE.INTER.VDW>
-16.6345

>  <SCORE.INTER.norm>
-0.676677

>  <SCORE.INTRA>
0

>  <SCORE.INTRA.DIHEDRAL>
0

>  <SCORE.INTRA.DIHEDRAL.0>
0

>  <SCORE.INTRA.POLAR>
0

>  <SCORE.INTRA.POLAR.0>
0

>  <SCORE.INTRA.REPUL>
0

>  <SCORE.INTRA.REPUL.0>
0

>  <SCORE.INTRA.SOLV>
0

>  <SCORE.INTRA.SOLV.lig_0>
-48.6608

>  <SCORE.INTRA.VDW>
0

>  <SCORE.INTRA.VDW.0>
0

>  <SCORE.INTRA.norm>
0

>  <SCORE.RESTR>
0

>  <SCORE.RESTR.CAVITY>
0

>  <SCORE.RESTR.norm>
0

>  <SCORE.SYSTEM>
0

>  <SCORE.SYSTEM.CONST>
0

>  <SCORE.SYSTEM.DIHEDRAL>
0

>  <SCORE.SYSTEM.SOLV>
0

>  <SCORE.SYSTEM.norm>
0

>  <SCORE.heavy>
13

>  <SCORE.norm>
-0.676677

>  <RMSD>
0.805

$$$$
ligand
 OpenBabel11021811483D
libRbt.so/2013.1/901 2013/11/27
 13 14  0  0  0  0  0  0  0  0999 V2000
   12.8170   43.8785   64.8459 N   0  0  0  0  0  0  0  0  0  0  0  0
   10.9490   43.1790   66.0268 N   0  0  0  0  0  0  0  0  0  0  0  0
   12.2124   43.6423   66.0066 C   0  0  0  0  0  0  0  0  0  0  0  0
   12.9015   43.8657   67.1978 N   0  0  0  0  0  0  0  0  0  0  0  0
   12.2459   43.6097   68.4038 C   0  0  0  0  0  0  0  0  0  0  0  0
   10.9348   43.1450   68.3974 C   0  0  0  0  0  0  0  0  0  0  0  0
   12.8309   43.7901   69.4713 O   0  0  0  0  0  0  0  0  0  0  0  0
   10.2892   42.8468   69.6125 N   0  0  0  0  0  0  0  0  0  0  0  0
    8.8698   42.3961   69.6725 C   0  0  2  0  0  0  0  0  0  0  0  0
    8.5183   41.6572   68.3700 C   0  0  0  0  0  0  0  0  0  0  0  0
   10.3079   42.9183   67.1804 C   0  0  0  0  0  0  0  0  0  0  0  0
    8.9968   42.4273   67.1706 N   0  0  0  0  0  0  0  0  0  0  0  0
    7.9573   43.6488   69.8323 C   0  0  0  0  0  0  0  0  0  0  0  0
  1  3  1  0  0  0  0
  2  3  2  0  0  0  0
  2 11  1  0  0  0  0
  3  4  1  0  0  0  0
  4  5  1  0  0  0  0
  5  6  1  0  0  0  0
  5  7  2  0  0  0  0
  6  8  1  0  0  0  0
  6 11  2  0  0  0  0
  8  9  1  0  0  0  0
  9 10  1  0  0  0  0
  9 13  1  6  0  0  0
 10 12  1  0  0  0  0
 11 12  1  0  0  0  0
M  END
>  <CHROM.1>
10.74335820,43.16045599,67.89670260,0.60796832,-0.31371541,-1.64053766

>  <Name>
ligand

>  <RI>
0

>  <Rbt.Current_Directory>
/home/itssahil/PROJECTS/Mol_Feturizer/New_Systems/rnas/3SUX

>  <Rbt.Executable>
rbdock ($Id: //depot/dev/client3/rdock/2013.1/src/exe/rbdock.cxx#4 $)

>  <Rbt.Library>
libRbt.so (2013.1, Build901 2013/11/27)

>  <Rbt.Parameter_File>
/export/apps/rDock/src/rDock_2013.1_src/data/scripts/dock_solv.prm

>  <Rbt.Receptor>
prm/pocket_docking_2.prm

>  <SCORE>
-8.79662

>  <SCORE.INTER>
-8.79662

>  <SCORE.INTER.CONST>
1

>  <SCORE.INTER.POLAR>
0

>  <SCORE.INTER.ROT>
0

>  <SCORE.INTER.SOLV>
21.4872

>  <SCORE.INTER.VDW>
-16.6268

>  <SCORE.INTER.norm>
-0.676663

>  <SCORE.INTRA>
0

>  <SCORE.INTRA.DIHEDRAL>
0

>  <SCORE.INTRA.DIHEDRAL.0>
0

>  <SCORE.INTRA.POLAR>
0

>  <SCORE.INTRA.POLAR.0>
0

>  <SCORE.INTRA.REPUL>
0

>  <SCORE.INTRA.REPUL.0>
0

>  <SCORE.INTRA.SOLV>
0

>  <SCORE.INTRA.SOLV.lig_0>
-48.6608

>  <SCORE.INTRA.VDW>
0

>  <SCORE.INTRA.VDW.0>
0

>  <SCORE.INTRA.norm>
0

>  <SCORE.RESTR>
0

>  <SCORE.RESTR.CAVITY>
0

>  <SCORE.RESTR.norm>
0

>  <SCORE.SYSTEM>
0

>  <SCORE.SYSTEM.CONST>
0

>  <SCORE.SYSTEM.DIHEDRAL>
0

>  <SCORE.SYSTEM.SOLV>
0

>  <SCORE.SYSTEM.norm>
0

>  <SCORE.heavy>
13

>  <SCORE.norm>
-0.676663

>  <RMSD>
0.805

$$$$
ligand
 OpenBabel11021811483D
libRbt.so/2013.1/901 2013/11/27
 13 14  0  0  0  0  0  0  0  0999 V2000
   12.8167   43.8795   64.8348 N   0  0  0  0  0  0  0  0  0  0  0  0
   10.9519   43.1785   66.0201 N   0  0  0  0  0  0  0  0  0  0  0  0
   12.2158   43.6403   65.9969 C   0  0  0  0  0  0  0  0  0  0  0  0
   12.9094   43.8591   67.1865 N   0  0  0  0  0  0  0  0  0  0  0  0
   12.2577   43.5999   68.3939 C   0  0  0  0  0  0  0  0  0  0  0  0
   10.9459   43.1369   68.3906 C   0  0  0  0  0  0  0  0  0  0  0  0
   12.8466   43.7762   69.4599 O   0  0  0  0  0  0  0  0  0  0  0  0
   10.3042   42.8356   69.6069 N   0  0  0  0  0  0  0  0  0  0  0  0
    8.8845   42.3864   69.6704 C   0  0  2  0  0  0  0  0  0  0  0  0
    8.5276   41.6522   68.3668 C   0  0  0  0  0  0  0  0  0  0  0  0
   10.3145   42.9149   67.1750 C   0  0  0  0  0  0  0  0  0  0  0  0
    9.0028   42.4255   67.1682 N   0  0  0  0  0  0  0  0  0  0  0  0
    7.9741   43.6398   69.8374 C   0  0  0  0  0  0  0  0  0  0  0  0
  1  3  1  0  0  0  0
  2  3  2  0  0  0  0
  2 11  1  0  0  0  0
  3  4  1  0  0  0  0
  4  5  1  0  0  0  0
  5  6  1  0  0  0  0
  5  7  2  0  0  0  0
  6  8  1  0  0  0  0
  6 11  2  0  0  0  0
  8  9  1  0  0  0  0
  9 10  1  0  0  0  0
  9 13  1  6  0  0  0
 10 12  1  0  0  0  0
 11 12  1  0  0  0  0
M  END
>  <CHROM.1>
10.75278963,43.15422207,67.89057619,0.61170827,-0.31271741,-1.63617787

>  <Name>
ligand

>  <RI>
0

>  <Rbt.Current_Directory>
/home/itssahil/PROJECTS/Mol_Feturizer/New_Systems/rnas/3SUX

>  <Rbt.Executable>
rbdock ($Id: //depot/dev/client3/rdock/2013.1/src/exe/rbdock.cxx#4 $)

>  <Rbt.Library>
libRbt.so (2013.1, Build901 2013/11/27)

>  <Rbt.Parameter_File>
/export/apps/rDock/src/rDock_2013.1_src/data/scripts/dock_solv.prm

>  <Rbt.Receptor>
prm/pocket_docking_2.prm

>  <SCORE>
-8.8025

>  <SCORE.INTER>
-8.8025

>  <SCORE.INTER.CONST>
1

>  <SCORE.INTER.POLAR>
0

>  <SCORE.INTER.ROT>
0

>  <SCORE.INTER.SOLV>
21.5033

>  <SCORE.INTER.VDW>
-16.6361

>  <SCORE.INTER.norm>
-0.677116

>  <SCORE.INTRA>
0

>  <SCORE.INTRA.DIHEDRAL>
0

>  <SCORE.INTRA.DIHEDRAL.0>
0

>  <SCORE.INTRA.POLAR>
0

>  <SCORE.INTRA.POLAR.0>
0

>  <SCORE.INTRA.REPUL>
0

>  <SCORE.INTRA.REPUL.0>
0

>  <SCORE.INTRA.SOLV>
0

>  <SCORE.INTRA.SOLV.lig_0>
-48.6608

>  <SCORE.INTRA.VDW>
0

>  <SCORE.INTRA.VDW.0>
0

>  <SCORE.INTRA.norm>
0

>  <SCORE.RESTR>
0

>  <SCORE.RESTR.CAVITY>
0

>  <SCORE.RESTR.norm>
0

>  <SCORE.SYSTEM>
0

>  <SCORE.SYSTEM.CONST>
0

>  <SCORE.SYSTEM.DIHEDRAL>
0

>  <SCORE.SYSTEM.SOLV>
0

>  <SCORE.SYSTEM.norm>
0

>  <SCORE.heavy>
13

>  <SCORE.norm>
-0.677116

>  <RMSD>
0.806

$$$$
ligand
 OpenBabel11021811483D
libRbt.so/2013.1/901 2013/11/27
 13 14  0  0  0  0  0  0  0  0999 V2000
   12.8253   43.9289   64.9390 N   0  0  0  0  0  0  0  0  0  0  0  0
   10.9395   43.1712   66.0541 N   0  0  0  0  0  0  0  0  0  0  0  0
   12.2003   43.6413   66.0771 C   0  0  0  0  0  0  0  0  0  0  0  0
   12.8657   43.8182   67.2896 N   0  0  0  0  0  0  0  0  0  0  0  0
   12.1891   43.5086   68.4711 C   0  0  0  0  0  0  0  0  0  0  0  0
   10.8810   43.0380   68.4205 C   0  0  0  0  0  0  0  0  0  0  0  0
   12.7529   43.6472   69.5561 O   0  0  0  0  0  0  0  0  0  0  0  0
   10.2145   42.6861   69.6096 N   0  0  0  0  0  0  0  0  0  0  0  0
    8.7969   42.2261   69.6238 C   0  0  2  0  0  0  0  0  0  0  0  0
    8.4742   41.5405   68.2852 C   0  0  0  0  0  0  0  0  0  0  0  0
   10.2784   42.8593   67.1834 C   0  0  0  0  0  0  0  0  0  0  0  0
    8.9706   42.3625   67.1282 N   0  0  0  0  0  0  0  0  0  0  0  0
    7.8742   43.4664   69.8184 C   0  0  0  0  0  0  0  0  0  0  0  0
  1  3  1  0  0  0  0
  2  3  2  0  0  0  0
  2 11  1  0  0  0  0
  3  4  1  0  0  0  0
  4  5  1  0  0  0  0
  5  6  1  0  0  0  0
  5  7  2  0  0  0  0
  6  8  1  0  0  0  0
  6 11  2  0  0  0  0
  8  9  1  0  0  0  0
  9 10  1  0  0  0  0
  9 13  1  6  0  0  0
 10 12  1  0  0  0  0
 11 12  1  0  0  0  0
M  END
>  <CHROM.1>
10.69893691,43.07346483,67.91730536,0.58784129,-0.31815483,-1.60501436

>  <Name>
ligand

>  <RI>
0

>  <Rbt.Current_Directory>
/home/itssahil/PROJECTS/Mol_Feturizer/New_Systems/rnas/3SUX

>  <Rbt.Executable>
rbdock ($Id: //depot/dev/client3/rdock/2013.1/src/exe/rbdock.cxx#4 $)

>  <Rbt.Library>
libRbt.so (2013.1, Build901 2013/11/27)

>  <Rbt.Parameter_File>
/export/apps/rDock/src/rDock_2013.1_src/data/scripts/dock_solv.prm

>  <Rbt.Receptor>
prm/pocket_docking_8.prm

>  <SCORE>
-8.71057

>  <SCORE.INTER>
-8.71057

>  <SCORE.INTER.CONST>
1

>  <SCORE.INTER.POLAR>
0

>  <SCORE.INTER.ROT>
0

>  <SCORE.INTER.SOLV>
21.5022

>  <SCORE.INTER.VDW>
-16.5744

>  <SCORE.INTER.norm>
-0.670044

>  <SCORE.INTRA>
0

>  <SCORE.INTRA.DIHEDRAL>
0

>  <SCORE.INTRA.DIHEDRAL.0>
0

>  <SCORE.INTRA.POLAR>
0

>  <SCORE.INTRA.POLAR.0>
0

>  <SCORE.INTRA.REPUL>
0

>  <SCORE.INTRA.REPUL.0>
0

>  <SCORE.INTRA.SOLV>
0

>  <SCORE.INTRA.SOLV.lig_0>
-48.6608

>  <SCORE.INTRA.VDW>
0

>  <SCORE.INTRA.VDW.0>
0

>  <SCORE.INTRA.norm>
0

>  <SCORE.RESTR>
0

>  <SCORE.RESTR.CAVITY>
0

>  <SCORE.RESTR.norm>
0

>  <SCORE.SYSTEM>
0

>  <SCORE.SYSTEM.CONST>
0

>  <SCORE.SYSTEM.DIHEDRAL>
0

>  <SCORE.SYSTEM.SOLV>
0

>  <SCORE.SYSTEM.norm>
0

>  <SCORE.heavy>
13

>  <SCORE.norm>
-0.670044

>  <RMSD>
0.806

$$$$
ligand
 OpenBabel11021811483D
libRbt.so/2013.1/901 2013/11/27
 13 14  0  0  0  0  0  0  0  0999 V2000
   12.8028   43.8770   64.8260 N   0  0  0  0  0  0  0  0  0  0  0  0
   10.9401   43.1744   66.0137 N   0  0  0  0  0  0  0  0  0  0  0  0
   12.2006   43.6454   65.9889 C   0  0  0  0  0  0  0  0  0  0  0  0
   12.8894   43.8816   67.1779 N   0  0  0  0  0  0  0  0  0  0  0  0
   12.2365   43.6302   68.3863 C   0  0  0  0  0  0  0  0  0  0  0  0
   10.9283   43.1574   68.3845 C   0  0  0  0  0  0  0  0  0  0  0  0
   12.8213   43.8219   69.4519 O   0  0  0  0  0  0  0  0  0  0  0  0
   10.2857   42.8639   69.6023 N   0  0  0  0  0  0  0  0  0  0  0  0
    8.8691   42.4049   69.6669 C   0  0  2  0  0  0  0  0  0  0  0  0
    8.5211   41.6545   68.3701 C   0  0  0  0  0  0  0  0  0  0  0  0
   10.3017   42.9181   67.1697 C   0  0  0  0  0  0  0  0  0  0  0  0
    8.9937   42.4189   67.1647 N   0  0  0  0  0  0  0  0  0  0  0  0
    7.9490   43.6530   69.8186 C   0  0  0  0  0  0  0  0  0  0  0  0
  1  3  1  0  0  0  0
  2  3  2  0  0  0  0
  2 11  1  0  0  0  0
  3  4  1  0  0  0  0
  4  5  1  0  0  0  0
  5  6  1  0  0  0  0
  5  7  2  0  0  0  0
  6  8  1  0  0  0  0
  6 11  2  0  0  0  0
  8  9  1  0  0  0  0
  9 10  1  0  0  0  0
  9 13  1  6  0  0  0
 10 12  1  0  0  0  0
 11 12  1  0  0  0  0
M  END
>  <CHROM.1>
10.73632345,43.16804816,67.88387154,0.60846338,-0.31995948,-1.64756835

>  <Name>
ligand

>  <RI>
0

>  <Rbt.Current_Directory>
/home/itssahil/PROJECTS/Mol_Feturizer/New_Systems/rnas/3SUX

>  <Rbt.Executable>
rbdock ($Id: //depot/dev/client3/rdock/2013.1/src/exe/rbdock.cxx#4 $)

>  <Rbt.Library>
libRbt.so (2013.1, Build901 2013/11/27)

>  <Rbt.Parameter_File>
/export/apps/rDock/src/rDock_2013.1_src/data/scripts/dock_solv.prm

>  <Rbt.Receptor>
prm/pocket_docking_4.prm

>  <SCORE>
-8.7879

>  <SCORE.INTER>
-8.7879

>  <SCORE.INTER.CONST>
1

>  <SCORE.INTER.POLAR>
0

>  <SCORE.INTER.ROT>
0

>  <SCORE.INTER.SOLV>
21.4898

>  <SCORE.INTER.VDW>
-16.6219

>  <SCORE.INTER.norm>
-0.675993

>  <SCORE.INTRA>
0

>  <SCORE.INTRA.DIHEDRAL>
0

>  <SCORE.INTRA.DIHEDRAL.0>
0

>  <SCORE.INTRA.POLAR>
0

>  <SCORE.INTRA.POLAR.0>
0

>  <SCORE.INTRA.REPUL>
0

>  <SCORE.INTRA.REPUL.0>
0

>  <SCORE.INTRA.SOLV>
0

>  <SCORE.INTRA.SOLV.lig_0>
-48.6608

>  <SCORE.INTRA.VDW>
0

>  <SCORE.INTRA.VDW.0>
0

>  <SCORE.INTRA.norm>
0

>  <SCORE.RESTR>
0

>  <SCORE.RESTR.CAVITY>
0

>  <SCORE.RESTR.norm>
0

>  <SCORE.SYSTEM>
0

>  <SCORE.SYSTEM.CONST>
0

>  <SCORE.SYSTEM.DIHEDRAL>
0

>  <SCORE.SYSTEM.SOLV>
0

>  <SCORE.SYSTEM.norm>
0

>  <SCORE.heavy>
13

>  <SCORE.norm>
-0.675993

>  <RMSD>
0.807

$$$$
ligand
 OpenBabel11021811483D
libRbt.so/2013.1/901 2013/11/27
 13 14  0  0  0  0  0  0  0  0999 V2000
   12.8218   43.8769   64.8365 N   0  0  0  0  0  0  0  0  0  0  0  0
   10.9544   43.1797   66.0200 N   0  0  0  0  0  0  0  0  0  0  0  0
   12.2197   43.6376   65.9980 C   0  0  0  0  0  0  0  0  0  0  0  0
   12.9136   43.8521   67.1881 N   0  0  0  0  0  0  0  0  0  0  0  0
   12.2607   43.5930   68.3949 C   0  0  0  0  0  0  0  0  0  0  0  0
   10.9475   43.1341   68.3904 C   0  0  0  0  0  0  0  0  0  0  0  0
   12.8498   43.7656   69.4614 O   0  0  0  0  0  0  0  0  0  0  0  0
   10.3045   42.8328   69.6060 N   0  0  0  0  0  0  0  0  0  0  0  0
    8.8833   42.3880   69.6683 C   0  0  2  0  0  0  0  0  0  0  0  0
    8.5245   41.6570   68.3634 C   0  0  0  0  0  0  0  0  0  0  0  0
   10.3158   42.9162   67.1743 C   0  0  0  0  0  0  0  0  0  0  0  0
    9.0026   42.4309   67.1662 N   0  0  0  0  0  0  0  0  0  0  0  0
    7.9768   43.6438   69.8372 C   0  0  0  0  0  0  0  0  0  0  0  0
  1  3  1  0  0  0  0
  2  3  2  0  0  0  0
  2 11  1  0  0  0  0
  3  4  1  0  0  0  0
  4  5  1  0  0  0  0
  5  6  1  0  0  0  0
  5  7  2  0  0  0  0
  6  8  1  0  0  0  0
  6 11  2  0  0  0  0
  8  9  1  0  0  0  0
  9 10  1  0  0  0  0
  9 13  1  6  0  0  0
 10 12  1  0  0  0  0
 11 12  1  0  0  0  0
M  END
>  <CHROM.1>
10.75459758,43.15288737,67.89038255,0.61158969,-0.30956444,-1.63451767

>  <Name>
ligand

>  <RI>
0

>  <Rbt.Current_Directory>
/home/itssahil/PROJECTS/Mol_Feturizer/New_Systems/rnas/3SUX

>  <Rbt.Executable>
rbdock ($Id: //depot/dev/client3/rdock/2013.1/src/exe/rbdock.cxx#4 $)

>  <Rbt.Library>
libRbt.so (2013.1, Build901 2013/11/27)

>  <Rbt.Parameter_File>
/export/apps/rDock/src/rDock_2013.1_src/data/scripts/dock_solv.prm

>  <Rbt.Receptor>
prm/pocket_docking_4.prm

>  <SCORE>
-8.80329

>  <SCORE.INTER>
-8.80329

>  <SCORE.INTER.CONST>
1

>  <SCORE.INTER.POLAR>
0

>  <SCORE.INTER.ROT>
0

>  <SCORE.INTER.SOLV>
21.5241

>  <SCORE.INTER.VDW>
-16.6435

>  <SCORE.INTER.norm>
-0.677176

>  <SCORE.INTRA>
0

>  <SCORE.INTRA.DIHEDRAL>
0

>  <SCORE.INTRA.DIHEDRAL.0>
0

>  <SCORE.INTRA.POLAR>
0

>  <SCORE.INTRA.POLAR.0>
0

>  <SCORE.INTRA.REPUL>
0

>  <SCORE.INTRA.REPUL.0>
0

>  <SCORE.INTRA.SOLV>
0

>  <SCORE.INTRA.SOLV.lig_0>
-48.6608

>  <SCORE.INTRA.VDW>
0

>  <SCORE.INTRA.VDW.0>
0

>  <SCORE.INTRA.norm>
0

>  <SCORE.RESTR>
0

>  <SCORE.RESTR.CAVITY>
0

>  <SCORE.RESTR.norm>
0

>  <SCORE.SYSTEM>
0

>  <SCORE.SYSTEM.CONST>
0

>  <SCORE.SYSTEM.DIHEDRAL>
0

>  <SCORE.SYSTEM.SOLV>
0

>  <SCORE.SYSTEM.norm>
0

>  <SCORE.heavy>
13

>  <SCORE.norm>
-0.677176

>  <RMSD>
0.809

$$$$
ligand
 OpenBabel11021811483D
libRbt.so/2013.1/901 2013/11/27
 13 14  0  0  0  0  0  0  0  0999 V2000
   12.7998   43.8936   64.8316 N   0  0  0  0  0  0  0  0  0  0  0  0
   10.9363   43.1885   66.0164 N   0  0  0  0  0  0  0  0  0  0  0  0
   12.1981   43.6560   65.9936 C   0  0  0  0  0  0  0  0  0  0  0  0
   12.8887   43.8822   67.1834 N   0  0  0  0  0  0  0  0  0  0  0  0
   12.2363   43.6246   68.3908 C   0  0  0  0  0  0  0  0  0  0  0  0
   10.9266   43.1556   68.3870 C   0  0  0  0  0  0  0  0  0  0  0  0
   12.8226   43.8074   69.4570 O   0  0  0  0  0  0  0  0  0  0  0  0
   10.2843   42.8559   69.6034 N   0  0  0  0  0  0  0  0  0  0  0  0
    8.8665   42.4005   69.6663 C   0  0  2  0  0  0  0  0  0  0  0  0
    8.5150   41.6598   68.3649 C   0  0  0  0  0  0  0  0  0  0  0  0
   10.2982   42.9263   67.1712 C   0  0  0  0  0  0  0  0  0  0  0  0
    8.9887   42.4309   67.1641 N   0  0  0  0  0  0  0  0  0  0  0  0
    7.9502   43.6503   69.8272 C   0  0  0  0  0  0  0  0  0  0  0  0
  1  3  1  0  0  0  0
  2  3  2  0  0  0  0
  2 11  1  0  0  0  0
  3  4  1  0  0  0  0
  4  5  1  0  0  0  0
  5  6  1  0  0  0  0
  5  7  2  0  0  0  0
  6  8  1  0  0  0  0
  6 11  2  0  0  0  0
  8  9  1  0  0  0  0
  9 10  1  0  0  0  0
  9 13  1  6  0  0  0
 10 12  1  0  0  0  0
 11 12  1  0  0  0  0
M  END
>  <CHROM.1>
10.73422600,43.17018619,67.88665692,0.60968826,-0.31712302,-1.64047420

>  <Name>
ligand

>  <RI>
0

>  <Rbt.Current_Directory>
/home/itssahil/PROJECTS/Mol_Feturizer/New_Systems/rnas/3SUX

>  <Rbt.Executable>
rbdock ($Id: //depot/dev/client3/rdock/2013.1/src/exe/rbdock.cxx#4 $)

>  <Rbt.Library>
libRbt.so (2013.1, Build901 2013/11/27)

>  <Rbt.Parameter_File>
/export/apps/rDock/src/rDock_2013.1_src/data/scripts/dock_solv.prm

>  <Rbt.Receptor>
prm/pocket_docking_2.prm

>  <SCORE>
-8.78387

>  <SCORE.INTER>
-8.78387

>  <SCORE.INTER.CONST>
1

>  <SCORE.INTER.POLAR>
0

>  <SCORE.INTER.ROT>
0

>  <SCORE.INTER.SOLV>
21.5093

>  <SCORE.INTER.VDW>
-16.6257

>  <SCORE.INTER.norm>
-0.675682

>  <SCORE.INTRA>
0

>  <SCORE.INTRA.DIHEDRAL>
0

>  <SCORE.INTRA.DIHEDRAL.0>
0

>  <SCORE.INTRA.POLAR>
0

>  <SCORE.INTRA.POLAR.0>
0

>  <SCORE.INTRA.REPUL>
0

>  <SCORE.INTRA.REPUL.0>
0

>  <SCORE.INTRA.SOLV>
0

>  <SCORE.INTRA.SOLV.lig_0>
-48.6608

>  <SCORE.INTRA.VDW>
0

>  <SCORE.INTRA.VDW.0>
0

>  <SCORE.INTRA.norm>
0

>  <SCORE.RESTR>
0

>  <SCORE.RESTR.CAVITY>
0

>  <SCORE.RESTR.norm>
0

>  <SCORE.SYSTEM>
0

>  <SCORE.SYSTEM.CONST>
0

>  <SCORE.SYSTEM.DIHEDRAL>
0

>  <SCORE.SYSTEM.SOLV>
0

>  <SCORE.SYSTEM.norm>
0

>  <SCORE.heavy>
13

>  <SCORE.norm>
-0.675682

>  <RMSD>
0.810

$$$$
ligand
 OpenBabel11021811483D
libRbt.so/2013.1/901 2013/11/27
 13 14  0  0  0  0  0  0  0  0999 V2000
   12.7993   43.9435   64.8773 N   0  0  0  0  0  0  0  0  0  0  0  0
   10.9306   43.1895   66.0233 N   0  0  0  0  0  0  0  0  0  0  0  0
   12.1927   43.6567   66.0256 C   0  0  0  0  0  0  0  0  0  0  0  0
   12.8786   43.8315   67.2269 N   0  0  0  0  0  0  0  0  0  0  0  0
   12.2210   43.5229   68.4194 C   0  0  0  0  0  0  0  0  0  0  0  0
   10.9112   43.0553   68.3903 C   0  0  0  0  0  0  0  0  0  0  0  0
   12.8030   43.6596   69.4949 O   0  0  0  0  0  0  0  0  0  0  0  0
   10.2638   42.7042   69.5901 N   0  0  0  0  0  0  0  0  0  0  0  0
    8.8455   42.2474   69.6277 C   0  0  2  0  0  0  0  0  0  0  0  0
    8.4991   41.5633   68.2943 C   0  0  0  0  0  0  0  0  0  0  0  0
   10.2877   42.8785   67.1633 C   0  0  0  0  0  0  0  0  0  0  0  0
    8.9781   42.3847   67.1296 N   0  0  0  0  0  0  0  0  0  0  0  0
    7.9291   43.4897   69.8381 C   0  0  0  0  0  0  0  0  0  0  0  0
  1  3  1  0  0  0  0
  2  3  2  0  0  0  0
  2 11  1  0  0  0  0
  3  4  1  0  0  0  0
  4  5  1  0  0  0  0
  5  6  1  0  0  0  0
  5  7  2  0  0  0  0
  6  8  1  0  0  0  0
  6 11  2  0  0  0  0
  8  9  1  0  0  0  0
  9 10  1  0  0  0  0
  9 13  1  6  0  0  0
 10 12  1  0  0  0  0
 11 12  1  0  0  0  0
M  END
>  <CHROM.1>
10.72087215,43.09134952,67.89021012,0.60540650,-0.31641490,-1.59905707

>  <Name>
ligand

>  <RI>
0

>  <Rbt.Current_Directory>
/home/itssahil/PROJECTS/Mol_Feturizer/New_Systems/rnas/3SUX

>  <Rbt.Executable>
rbdock ($Id: //depot/dev/client3/rdock/2013.1/src/exe/rbdock.cxx#4 $)

>  <Rbt.Library>
libRbt.so (2013.1, Build901 2013/11/27)

>  <Rbt.Parameter_File>
/export/apps/rDock/src/rDock_2013.1_src/data/scripts/dock_solv.prm

>  <Rbt.Receptor>
prm/pocket_docking_4.prm

>  <SCORE>
-8.72765

>  <SCORE.INTER>
-8.72765

>  <SCORE.INTER.CONST>
1

>  <SCORE.INTER.POLAR>
0

>  <SCORE.INTER.ROT>
0

>  <SCORE.INTER.SOLV>
21.5762

>  <SCORE.INTER.VDW>
-16.6105

>  <SCORE.INTER.norm>
-0.671358

>  <SCORE.INTRA>
0

>  <SCORE.INTRA.DIHEDRAL>
0

>  <SCORE.INTRA.DIHEDRAL.0>
0

>  <SCORE.INTRA.POLAR>
0

>  <SCORE.INTRA.POLAR.0>
0

>  <SCORE.INTRA.REPUL>
0

>  <SCORE.INTRA.REPUL.0>
0

>  <SCORE.INTRA.SOLV>
0

>  <SCORE.INTRA.SOLV.lig_0>
-48.6608

>  <SCORE.INTRA.VDW>
0

>  <SCORE.INTRA.VDW.0>
0

>  <SCORE.INTRA.norm>
0

>  <SCORE.RESTR>
0

>  <SCORE.RESTR.CAVITY>
0

>  <SCORE.RESTR.norm>
0

>  <SCORE.SYSTEM>
0

>  <SCORE.SYSTEM.CONST>
0

>  <SCORE.SYSTEM.DIHEDRAL>
0

>  <SCORE.SYSTEM.SOLV>
0

>  <SCORE.SYSTEM.norm>
0

>  <SCORE.heavy>
13

>  <SCORE.norm>
-0.671358

>  <RMSD>
0.810

$$$$
ligand
 OpenBabel11021811483D
libRbt.so/2013.1/901 2013/11/27
 13 14  0  0  0  0  0  0  0  0999 V2000
   12.8111   43.8803   64.8497 N   0  0  0  0  0  0  0  0  0  0  0  0
   10.9409   43.1868   66.0307 N   0  0  0  0  0  0  0  0  0  0  0  0
   12.2064   43.6441   66.0104 C   0  0  0  0  0  0  0  0  0  0  0  0
   12.8978   43.8613   67.2015 N   0  0  0  0  0  0  0  0  0  0  0  0
   12.2422   43.6055   68.4075 C   0  0  0  0  0  0  0  0  0  0  0  0
   10.9288   43.1471   68.4013 C   0  0  0  0  0  0  0  0  0  0  0  0
   12.8290   43.7805   69.4748 O   0  0  0  0  0  0  0  0  0  0  0  0
   10.2830   42.8491   69.6162 N   0  0  0  0  0  0  0  0  0  0  0  0
    8.8614   42.4050   69.6765 C   0  0  2  0  0  0  0  0  0  0  0  0
    8.5052   41.6710   68.3726 C   0  0  0  0  0  0  0  0  0  0  0  0
   10.2997   42.9264   67.1843 C   0  0  0  0  0  0  0  0  0  0  0  0
    8.9862   42.4417   67.1746 N   0  0  0  0  0  0  0  0  0  0  0  0
    7.9551   43.6617   69.8403 C   0  0  0  0  0  0  0  0  0  0  0  0
  1  3  1  0  0  0  0
  2  3  2  0  0  0  0
  2 11  1  0  0  0  0
  3  4  1  0  0  0  0
  4  5  1  0  0  0  0
  5  6  1  0  0  0  0
  5  7  2  0  0  0  0
  6  8  1  0  0  0  0
  6 11  2  0  0  0  0
  8  9  1  0  0  0  0
  9 10  1  0  0  0  0
  9 13  1  6  0  0  0
 10 12  1  0  0  0  0
 11 12  1  0  0  0  0
M  END
>  <CHROM.1>
10.73696342,43.16471510,67.90077482,0.60932458,-0.30899967,-1.63769106

>  <Name>
ligand

>  <RI>
0

>  <Rbt.Current_Directory>
/home/itssahil/PROJECTS/Mol_Feturizer/New_Systems/rnas/3SUX

>  <Rbt.Executable>
rbdock ($Id: //depot/dev/client3/rdock/2013.1/src/exe/rbdock.cxx#4 $)

>  <Rbt.Library>
libRbt.so (2013.1, Build901 2013/11/27)

>  <Rbt.Parameter_File>
/export/apps/rDock/src/rDock_2013.1_src/data/scripts/dock_solv.prm

>  <Rbt.Receptor>
prm/pocket_docking_4.prm

>  <SCORE>
-8.79604

>  <SCORE.INTER>
-8.79604

>  <SCORE.INTER.CONST>
1

>  <SCORE.INTER.POLAR>
0

>  <SCORE.INTER.ROT>
0

>  <SCORE.INTER.SOLV>
21.4983

>  <SCORE.INTER.VDW>
-16.6301

>  <SCORE.INTER.norm>
-0.676618

>  <SCORE.INTRA>
0

>  <SCORE.INTRA.DIHEDRAL>
0

>  <SCORE.INTRA.DIHEDRAL.0>
0

>  <SCORE.INTRA.POLAR>
0

>  <SCORE.INTRA.POLAR.0>
0

>  <SCORE.INTRA.REPUL>
0

>  <SCORE.INTRA.REPUL.0>
0

>  <SCORE.INTRA.SOLV>
0

>  <SCORE.INTRA.SOLV.lig_0>
-48.6608

>  <SCORE.INTRA.VDW>
0

>  <SCORE.INTRA.VDW.0>
0

>  <SCORE.INTRA.norm>
0

>  <SCORE.RESTR>
0

>  <SCORE.RESTR.CAVITY>
0

>  <SCORE.RESTR.norm>
0

>  <SCORE.SYSTEM>
0

>  <SCORE.SYSTEM.CONST>
0

>  <SCORE.SYSTEM.DIHEDRAL>
0

>  <SCORE.SYSTEM.SOLV>
0

>  <SCORE.SYSTEM.norm>
0

>  <SCORE.heavy>
13

>  <SCORE.norm>
-0.676618

>  <RMSD>
0.810

$$$$
ligand
 OpenBabel11021811483D
libRbt.so/2013.1/901 2013/11/27
 13 14  0  0  0  0  0  0  0  0999 V2000
   12.7995   43.7335   64.7469 N   0  0  0  0  0  0  0  0  0  0  0  0
   10.9497   43.0982   65.9912 N   0  0  0  0  0  0  0  0  0  0  0  0
   12.2150   43.5524   65.9276 C   0  0  0  0  0  0  0  0  0  0  0  0
   12.9270   43.8239   67.0952 N   0  0  0  0  0  0  0  0  0  0  0  0
   12.2923   43.6253   68.3230 C   0  0  0  0  0  0  0  0  0  0  0  0
   10.9788   43.1689   68.3608 C   0  0  0  0  0  0  0  0  0  0  0  0
   12.8977   43.8490   69.3706 O   0  0  0  0  0  0  0  0  0  0  0  0
   10.3540   42.9286   69.5994 N   0  0  0  0  0  0  0  0  0  0  0  0
    8.9336   42.4897   69.7049 C   0  0  2  0  0  0  0  0  0  0  0  0
    8.5543   41.6963   68.4430 C   0  0  0  0  0  0  0  0  0  0  0  0
   10.3285   42.8927   67.1665 C   0  0  0  0  0  0  0  0  0  0  0  0
    9.0148   42.4098   67.2022 N   0  0  0  0  0  0  0  0  0  0  0  0
    8.0309   43.7539   69.8257 C   0  0  0  0  0  0  0  0  0  0  0  0
  1  3  1  0  0  0  0
  2  3  2  0  0  0  0
  2 11  1  0  0  0  0
  3  4  1  0  0  0  0
  4  5  1  0  0  0  0
  5  6  1  0  0  0  0
  5  7  2  0  0  0  0
  6  8  1  0  0  0  0
  6 11  2  0  0  0  0
  8  9  1  0  0  0  0
  9 10  1  0  0  0  0
  9 13  1  6  0  0  0
 10 12  1  0  0  0  0
 11 12  1  0  0  0  0
M  END
>  <CHROM.1>
10.77831455,43.16346153,67.86348120,0.62757206,-0.30958937,-1.67870694

>  <Name>
ligand

>  <RI>
0

>  <Rbt.Current_Directory>
/home/itssahil/PROJECTS/Mol_Feturizer/New_Systems/rnas/3SUX

>  <Rbt.Executable>
rbdock ($Id: //depot/dev/client3/rdock/2013.1/src/exe/rbdock.cxx#4 $)

>  <Rbt.Library>
libRbt.so (2013.1, Build901 2013/11/27)

>  <Rbt.Parameter_File>
/export/apps/rDock/src/rDock_2013.1_src/data/scripts/dock_solv.prm

>  <Rbt.Receptor>
prm/pocket_docking_2.prm

>  <SCORE>
-8.71579

>  <SCORE.INTER>
-8.71579

>  <SCORE.INTER.CONST>
1

>  <SCORE.INTER.POLAR>
0

>  <SCORE.INTER.ROT>
0

>  <SCORE.INTER.SOLV>
21.4171

>  <SCORE.INTER.VDW>
-16.5495

>  <SCORE.INTER.norm>
-0.670446

>  <SCORE.INTRA>
0

>  <SCORE.INTRA.DIHEDRAL>
0

>  <SCORE.INTRA.DIHEDRAL.0>
0

>  <SCORE.INTRA.POLAR>
0

>  <SCORE.INTRA.POLAR.0>
0

>  <SCORE.INTRA.REPUL>
0

>  <SCORE.INTRA.REPUL.0>
0

>  <SCORE.INTRA.SOLV>
0

>  <SCORE.INTRA.SOLV.lig_0>
-48.6608

>  <SCORE.INTRA.VDW>
0

>  <SCORE.INTRA.VDW.0>
0

>  <SCORE.INTRA.norm>
0

>  <SCORE.RESTR>
0

>  <SCORE.RESTR.CAVITY>
0

>  <SCORE.RESTR.norm>
0

>  <SCORE.SYSTEM>
0

>  <SCORE.SYSTEM.CONST>
0

>  <SCORE.SYSTEM.DIHEDRAL>
0

>  <SCORE.SYSTEM.SOLV>
0

>  <SCORE.SYSTEM.norm>
0

>  <SCORE.heavy>
13

>  <SCORE.norm>
-0.670446

>  <RMSD>
0.811

$$$$
ligand
 OpenBabel11021811483D
libRbt.so/2013.1/901 2013/11/27
 13 14  0  0  0  0  0  0  0  0999 V2000
   12.8173   43.8756   64.8255 N   0  0  0  0  0  0  0  0  0  0  0  0
   10.9522   43.1779   66.0123 N   0  0  0  0  0  0  0  0  0  0  0  0
   12.2174   43.6360   65.9880 C   0  0  0  0  0  0  0  0  0  0  0  0
   12.9135   43.8504   67.1769 N   0  0  0  0  0  0  0  0  0  0  0  0
   12.2630   43.5909   68.3849 C   0  0  0  0  0  0  0  0  0  0  0  0
   10.9499   43.1318   68.3828 C   0  0  0  0  0  0  0  0  0  0  0  0
   12.8541   43.7634   69.4502 O   0  0  0  0  0  0  0  0  0  0  0  0
   10.3092   42.8302   69.5996 N   0  0  0  0  0  0  0  0  0  0  0  0
    8.8881   42.3851   69.6644 C   0  0  2  0  0  0  0  0  0  0  0  0
    8.5270   41.6544   68.3601 C   0  0  0  0  0  0  0  0  0  0  0  0
   10.3159   42.9141   67.1678 C   0  0  0  0  0  0  0  0  0  0  0  0
    9.0027   42.4286   67.1621 N   0  0  0  0  0  0  0  0  0  0  0  0
    7.9818   43.6409   69.8353 C   0  0  0  0  0  0  0  0  0  0  0  0
  1  3  1  0  0  0  0
  2  3  2  0  0  0  0
  2 11  1  0  0  0  0
  3  4  1  0  0  0  0
  4  5  1  0  0  0  0
  5  6  1  0  0  0  0
  5  7  2  0  0  0  0
  6  8  1  0  0  0  0
  6 11  2  0  0  0  0
  8  9  1  0  0  0  0
  9 10  1  0  0  0  0
  9 13  1  6  0  0  0
 10 12  1  0  0  0  0
 11 12  1  0  0  0  0
M  END
>  <CHROM.1>
10.75596629,43.15067968,67.88310721,0.61356550,-0.30982457,-1.63372158

>  <Name>
ligand

>  <RI>
0

>  <Rbt.Current_Directory>
/home/itssahil/PROJECTS/Mol_Feturizer/New_Systems/rnas/3SUX

>  <Rbt.Executable>
rbdock ($Id: //depot/dev/client3/rdock/2013.1/src/exe/rbdock.cxx#4 $)

>  <Rbt.Library>
libRbt.so (2013.1, Build901 2013/11/27)

>  <Rbt.Parameter_File>
/export/apps/rDock/src/rDock_2013.1_src/data/scripts/dock_solv.prm

>  <Rbt.Receptor>
prm/pocket_docking_2.prm

>  <SCORE>
-8.80252

>  <SCORE.INTER>
-8.80252

>  <SCORE.INTER.CONST>
1

>  <SCORE.INTER.POLAR>
0

>  <SCORE.INTER.ROT>
0

>  <SCORE.INTER.SOLV>
21.5387

>  <SCORE.INTER.VDW>
-16.6479

>  <SCORE.INTER.norm>
-0.677117

>  <SCORE.INTRA>
0

>  <SCORE.INTRA.DIHEDRAL>
0

>  <SCORE.INTRA.DIHEDRAL.0>
0

>  <SCORE.INTRA.POLAR>
0

>  <SCORE.INTRA.POLAR.0>
0

>  <SCORE.INTRA.REPUL>
0

>  <SCORE.INTRA.REPUL.0>
0

>  <SCORE.INTRA.SOLV>
0

>  <SCORE.INTRA.SOLV.lig_0>
-48.6608

>  <SCORE.INTRA.VDW>
0

>  <SCORE.INTRA.VDW.0>
0

>  <SCORE.INTRA.norm>
0

>  <SCORE.RESTR>
0

>  <SCORE.RESTR.CAVITY>
0

>  <SCORE.RESTR.norm>
0

>  <SCORE.SYSTEM>
0

>  <SCORE.SYSTEM.CONST>
0

>  <SCORE.SYSTEM.DIHEDRAL>
0

>  <SCORE.SYSTEM.SOLV>
0

>  <SCORE.SYSTEM.norm>
0

>  <SCORE.heavy>
13

>  <SCORE.norm>
-0.677117

>  <RMSD>
0.812

$$$$
ligand
 OpenBabel11021811483D
libRbt.so/2013.1/901 2013/11/27
 13 14  0  0  0  0  0  0  0  0999 V2000
   12.8284   43.8245   64.8035 N   0  0  0  0  0  0  0  0  0  0  0  0
   10.9654   43.1594   66.0121 N   0  0  0  0  0  0  0  0  0  0  0  0
   12.2318   43.6133   65.9732 C   0  0  0  0  0  0  0  0  0  0  0  0
   12.9324   43.8530   67.1545 N   0  0  0  0  0  0  0  0  0  0  0  0
   12.2852   43.6232   68.3703 C   0  0  0  0  0  0  0  0  0  0  0  0
   10.9708   43.1678   68.3830 C   0  0  0  0  0  0  0  0  0  0  0  0
   12.8802   43.8185   69.4295 O   0  0  0  0  0  0  0  0  0  0  0  0
   10.3333   42.8960   69.6085 N   0  0  0  0  0  0  0  0  0  0  0  0
    8.9113   42.4565   69.6882 C   0  0  2  0  0  0  0  0  0  0  0  0
    8.5439   41.6970   68.4021 C   0  0  0  0  0  0  0  0  0  0  0  0
   10.3322   42.9240   67.1754 C   0  0  0  0  0  0  0  0  0  0  0  0
    9.0177   42.4422   67.1852 N   0  0  0  0  0  0  0  0  0  0  0  0
    8.0090   43.7184   69.8331 C   0  0  0  0  0  0  0  0  0  0  0  0
  1  3  1  0  0  0  0
  2  3  2  0  0  0  0
  2 11  1  0  0  0  0
  3  4  1  0  0  0  0
  4  5  1  0  0  0  0
  5  6  1  0  0  0  0
  5  7  2  0  0  0  0
  6  8  1  0  0  0  0
  6 11  2  0  0  0  0
  8  9  1  0  0  0  0
  9 10  1  0  0  0  0
  9 13  1  6  0  0  0
 10 12  1  0  0  0  0
 11 12  1  0  0  0  0
M  END
>  <CHROM.1>
10.77531546,43.17574051,67.88365631,0.61721897,-0.30732907,-1.65558479

>  <Name>
ligand

>  <RI>
0

>  <Rbt.Current_Directory>
/home/itssahil/PROJECTS/Mol_Feturizer/New_Systems/rnas/3SUX

>  <Rbt.Executable>
rbdock ($Id: //depot/dev/client3/rdock/2013.1/src/exe/rbdock.cxx#4 $)

>  <Rbt.Library>
libRbt.so (2013.1, Build901 2013/11/27)

>  <Rbt.Parameter_File>
/export/apps/rDock/src/rDock_2013.1_src/data/scripts/dock_solv.prm

>  <Rbt.Receptor>
prm/pocket_docking_4.prm

>  <SCORE>
-8.76231

>  <SCORE.INTER>
-8.76231

>  <SCORE.INTER.CONST>
1

>  <SCORE.INTER.POLAR>
0

>  <SCORE.INTER.ROT>
0

>  <SCORE.INTER.SOLV>
21.4967

>  <SCORE.INTER.VDW>
-16.6071

>  <SCORE.INTER.norm>
-0.674024

>  <SCORE.INTRA>
0

>  <SCORE.INTRA.DIHEDRAL>
0

>  <SCORE.INTRA.DIHEDRAL.0>
0

>  <SCORE.INTRA.POLAR>
0

>  <SCORE.INTRA.POLAR.0>
0

>  <SCORE.INTRA.REPUL>
0

>  <SCORE.INTRA.REPUL.0>
0

>  <SCORE.INTRA.SOLV>
0

>  <SCORE.INTRA.SOLV.lig_0>
-48.6608

>  <SCORE.INTRA.VDW>
0

>  <SCORE.INTRA.VDW.0>
0

>  <SCORE.INTRA.norm>
0

>  <SCORE.RESTR>
0

>  <SCORE.RESTR.CAVITY>
0

>  <SCORE.RESTR.norm>
0

>  <SCORE.SYSTEM>
0

>  <SCORE.SYSTEM.CONST>
0

>  <SCORE.SYSTEM.DIHEDRAL>
0

>  <SCORE.SYSTEM.SOLV>
0

>  <SCORE.SYSTEM.norm>
0

>  <SCORE.heavy>
13

>  <SCORE.norm>
-0.674024

>  <RMSD>
0.812

$$$$
ligand
 OpenBabel11021811483D
libRbt.so/2013.1/901 2013/11/27
 13 14  0  0  0  0  0  0  0  0999 V2000
   12.8167   43.8770   64.8323 N   0  0  0  0  0  0  0  0  0  0  0  0
   10.9495   43.1816   66.0170 N   0  0  0  0  0  0  0  0  0  0  0  0
   12.2154   43.6378   65.9942 C   0  0  0  0  0  0  0  0  0  0  0  0
   12.9106   43.8507   67.1838 N   0  0  0  0  0  0  0  0  0  0  0  0
   12.2584   43.5917   68.3910 C   0  0  0  0  0  0  0  0  0  0  0  0
   10.9446   43.1346   68.3874 C   0  0  0  0  0  0  0  0  0  0  0  0
   12.8487   43.7629   69.4571 O   0  0  0  0  0  0  0  0  0  0  0  0
   10.3022   42.8334   69.6034 N   0  0  0  0  0  0  0  0  0  0  0  0
    8.8805   42.3904   69.6667 C   0  0  2  0  0  0  0  0  0  0  0  0
    8.5196   41.6607   68.3616 C   0  0  0  0  0  0  0  0  0  0  0  0
   10.3115   42.9182   67.1717 C   0  0  0  0  0  0  0  0  0  0  0  0
    8.9976   42.4347   67.1645 N   0  0  0  0  0  0  0  0  0  0  0  0
    7.9758   43.6474   69.8371 C   0  0  0  0  0  0  0  0  0  0  0  0
  1  3  1  0  0  0  0
  2  3  2  0  0  0  0
  2 11  1  0  0  0  0
  3  4  1  0  0  0  0
  4  5  1  0  0  0  0
  5  6  1  0  0  0  0
  5  7  2  0  0  0  0
  6  8  1  0  0  0  0
  6 11  2  0  0  0  0
  8  9  1  0  0  0  0
  9 10  1  0  0  0  0
  9 13  1  6  0  0  0
 10 12  1  0  0  0  0
 11 12  1  0  0  0  0
M  END
>  <CHROM.1>
10.75126321,43.15391508,67.88754601,0.61259658,-0.30828664,-1.63359862

>  <Name>
ligand

>  <RI>
0

>  <Rbt.Current_Directory>
/home/itssahil/PROJECTS/Mol_Feturizer/New_Systems/rnas/3SUX

>  <Rbt.Executable>
rbdock ($Id: //depot/dev/client3/rdock/2013.1/src/exe/rbdock.cxx#4 $)

>  <Rbt.Library>
libRbt.so (2013.1, Build901 2013/11/27)

>  <Rbt.Parameter_File>
/export/apps/rDock/src/rDock_2013.1_src/data/scripts/dock_solv.prm

>  <Rbt.Receptor>
prm/pocket_docking_2.prm

>  <SCORE>
-8.803

>  <SCORE.INTER>
-8.803

>  <SCORE.INTER.CONST>
1

>  <SCORE.INTER.POLAR>
0

>  <SCORE.INTER.ROT>
0

>  <SCORE.INTER.SOLV>
21.5365

>  <SCORE.INTER.VDW>
-16.6475

>  <SCORE.INTER.norm>
-0.677154

>  <SCORE.INTRA>
0

>  <SCORE.INTRA.DIHEDRAL>
0

>  <SCORE.INTRA.DIHEDRAL.0>
0

>  <SCORE.INTRA.POLAR>
0

>  <SCORE.INTRA.POLAR.0>
0

>  <SCORE.INTRA.REPUL>
0

>  <SCORE.INTRA.REPUL.0>
0

>  <SCORE.INTRA.SOLV>
0

>  <SCORE.INTRA.SOLV.lig_0>
-48.6608

>  <SCORE.INTRA.VDW>
0

>  <SCORE.INTRA.VDW.0>
0

>  <SCORE.INTRA.norm>
0

>  <SCORE.RESTR>
0

>  <SCORE.RESTR.CAVITY>
0

>  <SCORE.RESTR.norm>
0

>  <SCORE.SYSTEM>
0

>  <SCORE.SYSTEM.CONST>
0

>  <SCORE.SYSTEM.DIHEDRAL>
0

>  <SCORE.SYSTEM.SOLV>
0

>  <SCORE.SYSTEM.norm>
0

>  <SCORE.heavy>
13

>  <SCORE.norm>
-0.677154

>  <RMSD>
0.813

$$$$
ligand
 OpenBabel11021811483D
libRbt.so/2013.1/901 2013/11/27
 13 14  0  0  0  0  0  0  0  0999 V2000
   12.7852   43.8763   64.7833 N   0  0  0  0  0  0  0  0  0  0  0  0
   10.9334   43.1744   65.9882 N   0  0  0  0  0  0  0  0  0  0  0  0
   12.1962   43.6385   65.9517 C   0  0  0  0  0  0  0  0  0  0  0  0
   12.9010   43.8610   67.1340 N   0  0  0  0  0  0  0  0  0  0  0  0
   12.2616   43.6032   68.3483 C   0  0  0  0  0  0  0  0  0  0  0  0
   10.9507   43.1378   68.3588 C   0  0  0  0  0  0  0  0  0  0  0  0
   12.8606   43.7828   69.4080 O   0  0  0  0  0  0  0  0  0  0  0  0
   10.3215   42.8380   69.5820 N   0  0  0  0  0  0  0  0  0  0  0  0
    8.9033   42.3864   69.6603 C   0  0  2  0  0  0  0  0  0  0  0  0
    8.5349   41.6487   68.3619 C   0  0  0  0  0  0  0  0  0  0  0  0
   10.3078   42.9122   67.1499 C   0  0  0  0  0  0  0  0  0  0  0  0
    8.9970   42.4204   67.1570 N   0  0  0  0  0  0  0  0  0  0  0  0
    7.9923   43.6384   69.8337 C   0  0  0  0  0  0  0  0  0  0  0  0
  1  3  1  0  0  0  0
  2  3  2  0  0  0  0
  2 11  1  0  0  0  0
  3  4  1  0  0  0  0
  4  5  1  0  0  0  0
  5  6  1  0  0  0  0
  5  7  2  0  0  0  0
  6  8  1  0  0  0  0
  6 11  2  0  0  0  0
  8  9  1  0  0  0  0
  9 10  1  0  0  0  0
  9 13  1  6  0  0  0
 10 12  1  0  0  0  0
 11 12  1  0  0  0  0
M  END
>  <CHROM.1>
10.75266254,43.15375502,67.86067090,0.62187382,-0.31514737,-1.63514641

>  <Name>
ligand

>  <RI>
0

>  <Rbt.Current_Directory>
/home/itssahil/PROJECTS/Mol_Feturizer/New_Systems/rnas/3SUX

>  <Rbt.Executable>
rbdock ($Id: //depot/dev/client3/rdock/2013.1/src/exe/rbdock.cxx#4 $)

>  <Rbt.Library>
libRbt.so (2013.1, Build901 2013/11/27)

>  <Rbt.Parameter_File>
/export/apps/rDock/src/rDock_2013.1_src/data/scripts/dock_solv.prm

>  <Rbt.Receptor>
prm/pocket_docking_4.prm

>  <SCORE>
-8.79024

>  <SCORE.INTER>
-8.79024

>  <SCORE.INTER.CONST>
1

>  <SCORE.INTER.POLAR>
0

>  <SCORE.INTER.ROT>
0

>  <SCORE.INTER.SOLV>
21.5534

>  <SCORE.INTER.VDW>
-16.6446

>  <SCORE.INTER.norm>
-0.676172

>  <SCORE.INTRA>
0

>  <SCORE.INTRA.DIHEDRAL>
0

>  <SCORE.INTRA.DIHEDRAL.0>
0

>  <SCORE.INTRA.POLAR>
0

>  <SCORE.INTRA.POLAR.0>
0

>  <SCORE.INTRA.REPUL>
0

>  <SCORE.INTRA.REPUL.0>
0

>  <SCORE.INTRA.SOLV>
0

>  <SCORE.INTRA.SOLV.lig_0>
-48.6608

>  <SCORE.INTRA.VDW>
0

>  <SCORE.INTRA.VDW.0>
0

>  <SCORE.INTRA.norm>
0

>  <SCORE.RESTR>
0

>  <SCORE.RESTR.CAVITY>
0

>  <SCORE.RESTR.norm>
0

>  <SCORE.SYSTEM>
0

>  <SCORE.SYSTEM.CONST>
0

>  <SCORE.SYSTEM.DIHEDRAL>
0

>  <SCORE.SYSTEM.SOLV>
0

>  <SCORE.SYSTEM.norm>
0

>  <SCORE.heavy>
13

>  <SCORE.norm>
-0.676172

>  <RMSD>
0.815

$$$$
ligand
 OpenBabel11021811483D
libRbt.so/2013.1/901 2013/11/27
 13 14  0  0  0  0  0  0  0  0999 V2000
   12.7969   43.7521   64.7581 N   0  0  0  0  0  0  0  0  0  0  0  0
   10.9430   43.1130   65.9943 N   0  0  0  0  0  0  0  0  0  0  0  0
   12.2064   43.5731   65.9362 C   0  0  0  0  0  0  0  0  0  0  0  0
   12.9103   43.8530   67.1067 N   0  0  0  0  0  0  0  0  0  0  0  0
   12.2695   43.6564   68.3316 C   0  0  0  0  0  0  0  0  0  0  0  0
   10.9580   43.1937   68.3638 C   0  0  0  0  0  0  0  0  0  0  0  0
   12.8677   43.8875   69.3818 O   0  0  0  0  0  0  0  0  0  0  0  0
   10.3273   42.9555   69.5997 N   0  0  0  0  0  0  0  0  0  0  0  0
    8.9083   42.5101   69.6988 C   0  0  2  0  0  0  0  0  0  0  0  0
    8.5404   41.7095   68.4381 C   0  0  0  0  0  0  0  0  0  0  0  0
   10.3160   42.9093   67.1669 C   0  0  0  0  0  0  0  0  0  0  0  0
    9.0046   42.4201   67.1970 N   0  0  0  0  0  0  0  0  0  0  0  0
    7.9988   43.7703   69.8090 C   0  0  0  0  0  0  0  0  0  0  0  0
  1  3  1  0  0  0  0
  2  3  2  0  0  0  0
  2 11  1  0  0  0  0
  3  4  1  0  0  0  0
  4  5  1  0  0  0  0
  5  6  1  0  0  0  0
  5  7  2  0  0  0  0
  6  8  1  0  0  0  0
  6 11  2  0  0  0  0
  8  9  1  0  0  0  0
  9 10  1  0  0  0  0
  9 13  1  6  0  0  0
 10 12  1  0  0  0  0
 11 12  1  0  0  0  0
M  END
>  <CHROM.1>
10.76045738,43.18520723,67.86527367,0.62093852,-0.31383059,-1.68493922

>  <Name>
ligand

>  <RI>
0

>  <Rbt.Current_Directory>
/home/itssahil/PROJECTS/Mol_Feturizer/New_Systems/rnas/3SUX

>  <Rbt.Executable>
rbdock ($Id: //depot/dev/client3/rdock/2013.1/src/exe/rbdock.cxx#4 $)

>  <Rbt.Library>
libRbt.so (2013.1, Build901 2013/11/27)

>  <Rbt.Parameter_File>
/export/apps/rDock/src/rDock_2013.1_src/data/scripts/dock_solv.prm

>  <Rbt.Receptor>
prm/pocket_docking_4.prm

>  <SCORE>
-8.74741

>  <SCORE.INTER>
-8.74741

>  <SCORE.INTER.CONST>
1

>  <SCORE.INTER.POLAR>
0

>  <SCORE.INTER.ROT>
0

>  <SCORE.INTER.SOLV>
21.4418

>  <SCORE.INTER.VDW>
-16.5789

>  <SCORE.INTER.norm>
-0.672878

>  <SCORE.INTRA>
0

>  <SCORE.INTRA.DIHEDRAL>
0

>  <SCORE.INTRA.DIHEDRAL.0>
0

>  <SCORE.INTRA.POLAR>
0

>  <SCORE.INTRA.POLAR.0>
0

>  <SCORE.INTRA.REPUL>
0

>  <SCORE.INTRA.REPUL.0>
0

>  <SCORE.INTRA.SOLV>
0

>  <SCORE.INTRA.SOLV.lig_0>
-48.6608

>  <SCORE.INTRA.VDW>
0

>  <SCORE.INTRA.VDW.0>
0

>  <SCORE.INTRA.norm>
0

>  <SCORE.RESTR>
0

>  <SCORE.RESTR.CAVITY>
0

>  <SCORE.RESTR.norm>
0

>  <SCORE.SYSTEM>
0

>  <SCORE.SYSTEM.CONST>
0

>  <SCORE.SYSTEM.DIHEDRAL>
0

>  <SCORE.SYSTEM.SOLV>
0

>  <SCORE.SYSTEM.norm>
0

>  <SCORE.heavy>
13

>  <SCORE.norm>
-0.672878

>  <RMSD>
0.815

$$$$
ligand
 OpenBabel11021811483D
libRbt.so/2013.1/901 2013/11/27
 13 14  0  0  0  0  0  0  0  0999 V2000
   12.7897   43.8857   64.7851 N   0  0  0  0  0  0  0  0  0  0  0  0
   10.9367   43.1804   65.9862 N   0  0  0  0  0  0  0  0  0  0  0  0
   12.1990   43.6459   65.9523 C   0  0  0  0  0  0  0  0  0  0  0  0
   12.9016   43.8677   67.1359 N   0  0  0  0  0  0  0  0  0  0  0  0
   12.2606   43.6079   68.3489 C   0  0  0  0  0  0  0  0  0  0  0  0
   10.9502   43.1411   68.3567 C   0  0  0  0  0  0  0  0  0  0  0  0
   12.8577   43.7868   69.4098 O   0  0  0  0  0  0  0  0  0  0  0  0
   10.3194   42.8391   69.5786 N   0  0  0  0  0  0  0  0  0  0  0  0
    8.9015   42.3859   69.6541 C   0  0  2  0  0  0  0  0  0  0  0  0
    8.5360   41.6493   68.3542 C   0  0  0  0  0  0  0  0  0  0  0  0
   10.3095   42.9161   67.1466 C   0  0  0  0  0  0  0  0  0  0  0  0
    8.9992   42.4229   67.1510 N   0  0  0  0  0  0  0  0  0  0  0  0
    7.9889   43.6367   69.8274 C   0  0  0  0  0  0  0  0  0  0  0  0
  1  3  1  0  0  0  0
  2  3  2  0  0  0  0
  2 11  1  0  0  0  0
  3  4  1  0  0  0  0
  4  5  1  0  0  0  0
  5  6  1  0  0  0  0
  5  7  2  0  0  0  0
  6  8  1  0  0  0  0
  6 11  2  0  0  0  0
  8  9  1  0  0  0  0
  9 10  1  0  0  0  0
  9 13  1  6  0  0  0
 10 12  1  0  0  0  0
 11 12  1  0  0  0  0
M  END
>  <CHROM.1>
10.75294243,43.15733928,67.85833275,0.62010519,-0.31612260,-1.63451598

>  <Name>
ligand

>  <RI>
0

>  <Rbt.Current_Directory>
/home/itssahil/PROJECTS/Mol_Feturizer/New_Systems/rnas/3SUX

>  <Rbt.Executable>
rbdock ($Id: //depot/dev/client3/rdock/2013.1/src/exe/rbdock.cxx#4 $)

>  <Rbt.Library>
libRbt.so (2013.1, Build901 2013/11/27)

>  <Rbt.Parameter_File>
/export/apps/rDock/src/rDock_2013.1_src/data/scripts/dock_solv.prm

>  <Rbt.Receptor>
prm/pocket_docking_2.prm

>  <SCORE>
-8.78148

>  <SCORE.INTER>
-8.78148

>  <SCORE.INTER.CONST>
1

>  <SCORE.INTER.POLAR>
0

>  <SCORE.INTER.ROT>
0

>  <SCORE.INTER.SOLV>
21.575

>  <SCORE.INTER.VDW>
-16.646

>  <SCORE.INTER.norm>
-0.675498

>  <SCORE.INTRA>
0

>  <SCORE.INTRA.DIHEDRAL>
0

>  <SCORE.INTRA.DIHEDRAL.0>
0

>  <SCORE.INTRA.POLAR>
0

>  <SCORE.INTRA.POLAR.0>
0

>  <SCORE.INTRA.REPUL>
0

>  <SCORE.INTRA.REPUL.0>
0

>  <SCORE.INTRA.SOLV>
0

>  <SCORE.INTRA.SOLV.lig_0>
-48.6608

>  <SCORE.INTRA.VDW>
0

>  <SCORE.INTRA.VDW.0>
0

>  <SCORE.INTRA.norm>
0

>  <SCORE.RESTR>
0

>  <SCORE.RESTR.CAVITY>
0

>  <SCORE.RESTR.norm>
0

>  <SCORE.SYSTEM>
0

>  <SCORE.SYSTEM.CONST>
0

>  <SCORE.SYSTEM.DIHEDRAL>
0

>  <SCORE.SYSTEM.SOLV>
0

>  <SCORE.SYSTEM.norm>
0

>  <SCORE.heavy>
13

>  <SCORE.norm>
-0.675498

>  <RMSD>
0.818

$$$$
ligand
 OpenBabel11021811483D
libRbt.so/2013.1/901 2013/11/27
 13 14  0  0  0  0  0  0  0  0999 V2000
   12.8035   43.8554   64.7690 N   0  0  0  0  0  0  0  0  0  0  0  0
   10.9502   43.1556   65.9728 N   0  0  0  0  0  0  0  0  0  0  0  0
   12.2105   43.6263   65.9372 C   0  0  0  0  0  0  0  0  0  0  0  0
   12.9088   43.8648   67.1202 N   0  0  0  0  0  0  0  0  0  0  0  0
   12.2654   43.6160   68.3342 C   0  0  0  0  0  0  0  0  0  0  0  0
   10.9571   43.1434   68.3437 C   0  0  0  0  0  0  0  0  0  0  0  0
   12.8586   43.8097   69.3947 O   0  0  0  0  0  0  0  0  0  0  0  0
   10.3241   42.8525   69.5671 N   0  0  0  0  0  0  0  0  0  0  0  0
    8.9080   42.3939   69.6438 C   0  0  2  0  0  0  0  0  0  0  0  0
    8.5496   41.6409   68.3514 C   0  0  0  0  0  0  0  0  0  0  0  0
   10.3209   42.9017   67.1344 C   0  0  0  0  0  0  0  0  0  0  0  0
    9.0128   42.4027   67.1407 N   0  0  0  0  0  0  0  0  0  0  0  0
    7.9893   43.6425   69.8002 C   0  0  0  0  0  0  0  0  0  0  0  0
  1  3  1  0  0  0  0
  2  3  2  0  0  0  0
  2 11  1  0  0  0  0
  3  4  1  0  0  0  0
  4  5  1  0  0  0  0
  5  6  1  0  0  0  0
  5  7  2  0  0  0  0
  6  8  1  0  0  0  0
  6 11  2  0  0  0  0
  8  9  1  0  0  0  0
  9 10  1  0  0  0  0
  9 13  1  6  0  0  0
 10 12  1  0  0  0  0
 11 12  1  0  0  0  0
M  END
>  <CHROM.1>
10.76118437,43.15307530,67.84457271,0.61677322,-0.32039605,-1.64699408

>  <Name>
ligand

>  <RI>
0

>  <Rbt.Current_Directory>
/home/itssahil/PROJECTS/Mol_Feturizer/New_Systems/rnas/3SUX

>  <Rbt.Executable>
rbdock ($Id: //depot/dev/client3/rdock/2013.1/src/exe/rbdock.cxx#4 $)

>  <Rbt.Library>
libRbt.so (2013.1, Build901 2013/11/27)

>  <Rbt.Parameter_File>
/export/apps/rDock/src/rDock_2013.1_src/data/scripts/dock_solv.prm

>  <Rbt.Receptor>
prm/pocket_docking_2.prm

>  <SCORE>
-8.79185

>  <SCORE.INTER>
-8.79185

>  <SCORE.INTER.CONST>
1

>  <SCORE.INTER.POLAR>
0

>  <SCORE.INTER.ROT>
0

>  <SCORE.INTER.SOLV>
21.5722

>  <SCORE.INTER.VDW>
-16.652

>  <SCORE.INTER.norm>
-0.676296

>  <SCORE.INTRA>
0

>  <SCORE.INTRA.DIHEDRAL>
0

>  <SCORE.INTRA.DIHEDRAL.0>
0

>  <SCORE.INTRA.POLAR>
0

>  <SCORE.INTRA.POLAR.0>
0

>  <SCORE.INTRA.REPUL>
0

>  <SCORE.INTRA.REPUL.0>
0

>  <SCORE.INTRA.SOLV>
0

>  <SCORE.INTRA.SOLV.lig_0>
-48.6608

>  <SCORE.INTRA.VDW>
0

>  <SCORE.INTRA.VDW.0>
0

>  <SCORE.INTRA.norm>
0

>  <SCORE.RESTR>
0

>  <SCORE.RESTR.CAVITY>
0

>  <SCORE.RESTR.norm>
0

>  <SCORE.SYSTEM>
0

>  <SCORE.SYSTEM.CONST>
0

>  <SCORE.SYSTEM.DIHEDRAL>
0

>  <SCORE.SYSTEM.SOLV>
0

>  <SCORE.SYSTEM.norm>
0

>  <SCORE.heavy>
13

>  <SCORE.norm>
-0.676296

>  <RMSD>
0.819

$$$$
ligand
 OpenBabel11021811483D
libRbt.so/2013.1/901 2013/11/27
 13 14  0  0  0  0  0  0  0  0999 V2000
   12.8364   43.8754   64.7940 N   0  0  0  0  0  0  0  0  0  0  0  0
   10.9761   43.1789   65.9889 N   0  0  0  0  0  0  0  0  0  0  0  0
   12.2384   43.6447   65.9593 C   0  0  0  0  0  0  0  0  0  0  0  0
   12.9334   43.8764   67.1456 N   0  0  0  0  0  0  0  0  0  0  0  0
   12.2847   43.6260   68.3565 C   0  0  0  0  0  0  0  0  0  0  0  0
   10.9745   43.1586   68.3597 C   0  0  0  0  0  0  0  0  0  0  0  0
   12.8749   43.8138   69.4197 O   0  0  0  0  0  0  0  0  0  0  0  0
   10.3360   42.8662   69.5799 N   0  0  0  0  0  0  0  0  0  0  0  0
    8.9179   42.4129   69.6500 C   0  0  2  0  0  0  0  0  0  0  0  0
    8.5610   41.6658   68.3538 C   0  0  0  0  0  0  0  0  0  0  0  0
   10.3417   42.9237   67.1473 C   0  0  0  0  0  0  0  0  0  0  0  0
    9.0316   42.4299   67.1474 N   0  0  0  0  0  0  0  0  0  0  0  0
    8.0036   43.6646   69.8075 C   0  0  0  0  0  0  0  0  0  0  0  0
  1  3  1  0  0  0  0
  2  3  2  0  0  0  0
  2 11  1  0  0  0  0
  3  4  1  0  0  0  0
  4  5  1  0  0  0  0
  5  6  1  0  0  0  0
  5  7  2  0  0  0  0
  6  8  1  0  0  0  0
  6 11  2  0  0  0  0
  8  9  1  0  0  0  0
  9 10  1  0  0  0  0
  9 13  1  6  0  0  0
 10 12  1  0  0  0  0
 11 12  1  0  0  0  0
M  END
>  <CHROM.1>
10.78041934,43.17080852,67.85994518,0.61337684,-0.31614294,-1.64464197

>  <Name>
ligand

>  <RI>
0

>  <Rbt.Current_Directory>
/home/itssahil/PROJECTS/Mol_Feturizer/New_Systems/rnas/3SUX

>  <Rbt.Executable>
rbdock ($Id: //depot/dev/client3/rdock/2013.1/src/exe/rbdock.cxx#4 $)

>  <Rbt.Library>
libRbt.so (2013.1, Build901 2013/11/27)

>  <Rbt.Parameter_File>
/export/apps/rDock/src/rDock_2013.1_src/data/scripts/dock_solv.prm

>  <Rbt.Receptor>
prm/pocket_docking_3.prm

>  <SCORE>
-8.83873

>  <SCORE.INTER>
-8.83873

>  <SCORE.INTER.CONST>
1

>  <SCORE.INTER.POLAR>
0

>  <SCORE.INTER.ROT>
0

>  <SCORE.INTER.SOLV>
21.5857

>  <SCORE.INTER.VDW>
-16.6877

>  <SCORE.INTER.norm>
-0.679902

>  <SCORE.INTRA>
0

>  <SCORE.INTRA.DIHEDRAL>
0

>  <SCORE.INTRA.DIHEDRAL.0>
0

>  <SCORE.INTRA.POLAR>
0

>  <SCORE.INTRA.POLAR.0>
0

>  <SCORE.INTRA.REPUL>
0

>  <SCORE.INTRA.REPUL.0>
0

>  <SCORE.INTRA.SOLV>
0

>  <SCORE.INTRA.SOLV.lig_0>
-48.6608

>  <SCORE.INTRA.VDW>
0

>  <SCORE.INTRA.VDW.0>
0

>  <SCORE.INTRA.norm>
0

>  <SCORE.RESTR>
0

>  <SCORE.RESTR.CAVITY>
0

>  <SCORE.RESTR.norm>
0

>  <SCORE.SYSTEM>
0

>  <SCORE.SYSTEM.CONST>
0

>  <SCORE.SYSTEM.DIHEDRAL>
0

>  <SCORE.SYSTEM.SOLV>
0

>  <SCORE.SYSTEM.norm>
0

>  <SCORE.heavy>
13

>  <SCORE.norm>
-0.679902

>  <RMSD>
0.819

$$$$
ligand
 OpenBabel11021811483D
libRbt.so/2013.1/901 2013/11/27
 13 14  0  0  0  0  0  0  0  0999 V2000
   12.8249   43.8916   64.8135 N   0  0  0  0  0  0  0  0  0  0  0  0
   10.9611   43.1890   65.9993 N   0  0  0  0  0  0  0  0  0  0  0  0
   12.2272   43.6446   65.9756 C   0  0  0  0  0  0  0  0  0  0  0  0
   12.9264   43.8487   67.1644 N   0  0  0  0  0  0  0  0  0  0  0  0
   12.2780   43.5816   68.3719 C   0  0  0  0  0  0  0  0  0  0  0  0
   10.9640   43.1252   68.3693 C   0  0  0  0  0  0  0  0  0  0  0  0
   12.8719   43.7449   69.4372 O   0  0  0  0  0  0  0  0  0  0  0  0
   10.3254   42.8158   69.5853 N   0  0  0  0  0  0  0  0  0  0  0  0
    8.9036   42.3732   69.6500 C   0  0  2  0  0  0  0  0  0  0  0  0
    8.5380   41.6530   68.3411 C   0  0  0  0  0  0  0  0  0  0  0  0
   10.3268   42.9178   67.1542 C   0  0  0  0  0  0  0  0  0  0  0  0
    9.0126   42.4351   67.1479 N   0  0  0  0  0  0  0  0  0  0  0  0
    8.0002   43.6295   69.8323 C   0  0  0  0  0  0  0  0  0  0  0  0
  1  3  1  0  0  0  0
  2  3  2  0  0  0  0
  2 11  1  0  0  0  0
  3  4  1  0  0  0  0
  4  5  1  0  0  0  0
  5  6  1  0  0  0  0
  5  7  2  0  0  0  0
  6  8  1  0  0  0  0
  6 11  2  0  0  0  0
  8  9  1  0  0  0  0
  9 10  1  0  0  0  0
  9 13  1  6  0  0  0
 10 12  1  0  0  0  0
 11 12  1  0  0  0  0
M  END
>  <CHROM.1>
10.76898890,43.14818248,67.87026442,0.61605073,-0.30790056,-1.62550716

>  <Name>
ligand

>  <RI>
0

>  <Rbt.Current_Directory>
/home/itssahil/PROJECTS/Mol_Feturizer/New_Systems/rnas/3SUX

>  <Rbt.Executable>
rbdock ($Id: //depot/dev/client3/rdock/2013.1/src/exe/rbdock.cxx#4 $)

>  <Rbt.Library>
libRbt.so (2013.1, Build901 2013/11/27)

>  <Rbt.Parameter_File>
/export/apps/rDock/src/rDock_2013.1_src/data/scripts/dock_solv.prm

>  <Rbt.Receptor>
prm/pocket_docking_4.prm

>  <SCORE>
-8.82125

>  <SCORE.INTER>
-8.82125

>  <SCORE.INTER.CONST>
1

>  <SCORE.INTER.POLAR>
0

>  <SCORE.INTER.ROT>
0

>  <SCORE.INTER.SOLV>
21.6033

>  <SCORE.INTER.VDW>
-16.6819

>  <SCORE.INTER.norm>
-0.678558

>  <SCORE.INTRA>
0

>  <SCORE.INTRA.DIHEDRAL>
0

>  <SCORE.INTRA.DIHEDRAL.0>
0

>  <SCORE.INTRA.POLAR>
0

>  <SCORE.INTRA.POLAR.0>
0

>  <SCORE.INTRA.REPUL>
0

>  <SCORE.INTRA.REPUL.0>
0

>  <SCORE.INTRA.SOLV>
0

>  <SCORE.INTRA.SOLV.lig_0>
-48.6608

>  <SCORE.INTRA.VDW>
0

>  <SCORE.INTRA.VDW.0>
0

>  <SCORE.INTRA.norm>
0

>  <SCORE.RESTR>
0

>  <SCORE.RESTR.CAVITY>
0

>  <SCORE.RESTR.norm>
0

>  <SCORE.SYSTEM>
0

>  <SCORE.SYSTEM.CONST>
0

>  <SCORE.SYSTEM.DIHEDRAL>
0

>  <SCORE.SYSTEM.SOLV>
0

>  <SCORE.SYSTEM.norm>
0

>  <SCORE.heavy>
13

>  <SCORE.norm>
-0.678558

>  <RMSD>
0.820

$$$$
ligand
 OpenBabel11021811483D
libRbt.so/2013.1/901 2013/11/27
 13 14  0  0  0  0  0  0  0  0999 V2000
   12.8329   43.8765   64.8064 N   0  0  0  0  0  0  0  0  0  0  0  0
   10.9689   43.1764   65.9933 N   0  0  0  0  0  0  0  0  0  0  0  0
   12.2349   43.6323   65.9689 C   0  0  0  0  0  0  0  0  0  0  0  0
   12.9335   43.8398   67.1574 N   0  0  0  0  0  0  0  0  0  0  0  0
   12.2848   43.5757   68.3654 C   0  0  0  0  0  0  0  0  0  0  0  0
   10.9708   43.1189   68.3635 C   0  0  0  0  0  0  0  0  0  0  0  0
   12.8781   43.7421   69.4305 O   0  0  0  0  0  0  0  0  0  0  0  0
   10.3319   42.8126   69.5800 N   0  0  0  0  0  0  0  0  0  0  0  0
    8.9102   42.3697   69.6454 C   0  0  2  0  0  0  0  0  0  0  0  0
    8.5453   41.6459   68.3382 C   0  0  0  0  0  0  0  0  0  0  0  0
   10.3342   42.9081   67.1487 C   0  0  0  0  0  0  0  0  0  0  0  0
    9.0202   42.4250   67.1431 N   0  0  0  0  0  0  0  0  0  0  0  0
    8.0063   43.6262   69.8239 C   0  0  0  0  0  0  0  0  0  0  0  0
  1  3  1  0  0  0  0
  2  3  2  0  0  0  0
  2 11  1  0  0  0  0
  3  4  1  0  0  0  0
  4  5  1  0  0  0  0
  5  6  1  0  0  0  0
  5  7  2  0  0  0  0
  6  8  1  0  0  0  0
  6 11  2  0  0  0  0
  8  9  1  0  0  0  0
  9 10  1  0  0  0  0
  9 13  1  6  0  0  0
 10 12  1  0  0  0  0
 11 12  1  0  0  0  0
M  END
>  <CHROM.1>
10.77604323,43.14051385,67.86430350,0.61561880,-0.30819505,-1.62831133

>  <Name>
ligand

>  <RI>
0

>  <Rbt.Current_Directory>
/home/itssahil/PROJECTS/Mol_Feturizer/New_Systems/rnas/3SUX

>  <Rbt.Executable>
rbdock ($Id: //depot/dev/client3/rdock/2013.1/src/exe/rbdock.cxx#4 $)

>  <Rbt.Library>
libRbt.so (2013.1, Build901 2013/11/27)

>  <Rbt.Parameter_File>
/export/apps/rDock/src/rDock_2013.1_src/data/scripts/dock_solv.prm

>  <Rbt.Receptor>
prm/pocket_docking_2.prm

>  <SCORE>
-8.84109

>  <SCORE.INTER>
-8.84109

>  <SCORE.INTER.CONST>
1

>  <SCORE.INTER.POLAR>
0

>  <SCORE.INTER.ROT>
0

>  <SCORE.INTER.SOLV>
21.6147

>  <SCORE.INTER.VDW>
-16.699

>  <SCORE.INTER.norm>
-0.680084

>  <SCORE.INTRA>
0

>  <SCORE.INTRA.DIHEDRAL>
0

>  <SCORE.INTRA.DIHEDRAL.0>
0

>  <SCORE.INTRA.POLAR>
0

>  <SCORE.INTRA.POLAR.0>
0

>  <SCORE.INTRA.REPUL>
0

>  <SCORE.INTRA.REPUL.0>
0

>  <SCORE.INTRA.SOLV>
0

>  <SCORE.INTRA.SOLV.lig_0>
-48.6608

>  <SCORE.INTRA.VDW>
0

>  <SCORE.INTRA.VDW.0>
0

>  <SCORE.INTRA.norm>
0

>  <SCORE.RESTR>
0

>  <SCORE.RESTR.CAVITY>
0

>  <SCORE.RESTR.norm>
0

>  <SCORE.SYSTEM>
0

>  <SCORE.SYSTEM.CONST>
0

>  <SCORE.SYSTEM.DIHEDRAL>
0

>  <SCORE.SYSTEM.SOLV>
0

>  <SCORE.SYSTEM.norm>
0

>  <SCORE.heavy>
13

>  <SCORE.norm>
-0.680084

>  <RMSD>
0.821

$$$$
ligand
 OpenBabel11021811483D
libRbt.so/2013.1/901 2013/11/27
 13 14  0  0  0  0  0  0  0  0999 V2000
   12.8332   43.8764   64.8064 N   0  0  0  0  0  0  0  0  0  0  0  0
   10.9688   43.1760   65.9926 N   0  0  0  0  0  0  0  0  0  0  0  0
   12.2348   43.6321   65.9687 C   0  0  0  0  0  0  0  0  0  0  0  0
   12.9330   43.8396   67.1575 N   0  0  0  0  0  0  0  0  0  0  0  0
   12.2838   43.5753   68.3652 C   0  0  0  0  0  0  0  0  0  0  0  0
   10.9700   43.1184   68.3628 C   0  0  0  0  0  0  0  0  0  0  0  0
   12.8768   43.7416   69.4305 O   0  0  0  0  0  0  0  0  0  0  0  0
   10.3306   42.8118   69.5791 N   0  0  0  0  0  0  0  0  0  0  0  0
    8.9089   42.3688   69.6440 C   0  0  2  0  0  0  0  0  0  0  0  0
    8.5446   41.6451   68.3366 C   0  0  0  0  0  0  0  0  0  0  0  0
   10.3338   42.9076   67.1477 C   0  0  0  0  0  0  0  0  0  0  0  0
    9.0198   42.4243   67.1417 N   0  0  0  0  0  0  0  0  0  0  0  0
    8.0049   43.6252   69.8223 C   0  0  0  0  0  0  0  0  0  0  0  0
  1  3  1  0  0  0  0
  2  3  2  0  0  0  0
  2 11  1  0  0  0  0
  3  4  1  0  0  0  0
  4  5  1  0  0  0  0
  5  6  1  0  0  0  0
  5  7  2  0  0  0  0
  6  8  1  0  0  0  0
  6 11  2  0  0  0  0
  8  9  1  0  0  0  0
  9 10  1  0  0  0  0
  9 13  1  6  0  0  0
 10 12  1  0  0  0  0
 11 12  1  0  0  0  0
M  END
>  <CHROM.1>
10.77534733,43.13998759,67.86357347,0.61525196,-0.30826648,-1.62832494

>  <Name>
ligand

>  <RI>
0

>  <Rbt.Current_Directory>
/home/itssahil/PROJECTS/Mol_Feturizer/New_Systems/rnas/3SUX

>  <Rbt.Executable>
rbdock ($Id: //depot/dev/client3/rdock/2013.1/src/exe/rbdock.cxx#4 $)

>  <Rbt.Library>
libRbt.so (2013.1, Build901 2013/11/27)

>  <Rbt.Parameter_File>
/export/apps/rDock/src/rDock_2013.1_src/data/scripts/dock_solv.prm

>  <Rbt.Receptor>
prm/pocket_docking_2.prm

>  <SCORE>
-8.83904

>  <SCORE.INTER>
-8.83904

>  <SCORE.INTER.CONST>
1

>  <SCORE.INTER.POLAR>
0

>  <SCORE.INTER.ROT>
0

>  <SCORE.INTER.SOLV>
21.6183

>  <SCORE.INTER.VDW>
-16.6988

>  <SCORE.INTER.norm>
-0.679926

>  <SCORE.INTRA>
0

>  <SCORE.INTRA.DIHEDRAL>
0

>  <SCORE.INTRA.DIHEDRAL.0>
0

>  <SCORE.INTRA.POLAR>
0

>  <SCORE.INTRA.POLAR.0>
0

>  <SCORE.INTRA.REPUL>
0

>  <SCORE.INTRA.REPUL.0>
0

>  <SCORE.INTRA.SOLV>
0

>  <SCORE.INTRA.SOLV.lig_0>
-48.6608

>  <SCORE.INTRA.VDW>
0

>  <SCORE.INTRA.VDW.0>
0

>  <SCORE.INTRA.norm>
0

>  <SCORE.RESTR>
0

>  <SCORE.RESTR.CAVITY>
0

>  <SCORE.RESTR.norm>
0

>  <SCORE.SYSTEM>
0

>  <SCORE.SYSTEM.CONST>
0

>  <SCORE.SYSTEM.DIHEDRAL>
0

>  <SCORE.SYSTEM.SOLV>
0

>  <SCORE.SYSTEM.norm>
0

>  <SCORE.heavy>
13

>  <SCORE.norm>
-0.679926

>  <RMSD>
0.821

$$$$
ligand
 OpenBabel11021811483D
libRbt.so/2013.1/901 2013/11/27
 13 14  0  0  0  0  0  0  0  0999 V2000
   12.8304   43.8880   64.8251 N   0  0  0  0  0  0  0  0  0  0  0  0
   10.9613   43.1884   66.0043 N   0  0  0  0  0  0  0  0  0  0  0  0
   12.2269   43.6454   65.9852 C   0  0  0  0  0  0  0  0  0  0  0  0
   12.9197   43.8557   67.1767 N   0  0  0  0  0  0  0  0  0  0  0  0
   12.2653   43.5932   68.3820 C   0  0  0  0  0  0  0  0  0  0  0  0
   10.9518   43.1352   68.3746 C   0  0  0  0  0  0  0  0  0  0  0  0
   12.8534   43.7620   69.4496 O   0  0  0  0  0  0  0  0  0  0  0  0
   10.3073   42.8305   69.5886 N   0  0  0  0  0  0  0  0  0  0  0  0
    8.8857   42.3864   69.6479 C   0  0  2  0  0  0  0  0  0  0  0  0
    8.5278   41.6599   68.3403 C   0  0  0  0  0  0  0  0  0  0  0  0
   10.3213   42.9216   67.1571 C   0  0  0  0  0  0  0  0  0  0  0  0
    9.0077   42.4373   67.1461 N   0  0  0  0  0  0  0  0  0  0  0  0
    7.9799   43.6424   69.8198 C   0  0  0  0  0  0  0  0  0  0  0  0
  1  3  1  0  0  0  0
  2  3  2  0  0  0  0
  2 11  1  0  0  0  0
  3  4  1  0  0  0  0
  4  5  1  0  0  0  0
  5  6  1  0  0  0  0
  5  7  2  0  0  0  0
  6  8  1  0  0  0  0
  6 11  2  0  0  0  0
  8  9  1  0  0  0  0
  9 10  1  0  0  0  0
  9 13  1  6  0  0  0
 10 12  1  0  0  0  0
 11 12  1  0  0  0  0
M  END
>  <CHROM.1>
10.75943335,43.15571556,67.87444360,0.61051627,-0.30878557,-1.63165003

>  <Name>
ligand

>  <RI>
0

>  <Rbt.Current_Directory>
/home/itssahil/PROJECTS/Mol_Feturizer/New_Systems/rnas/3SUX

>  <Rbt.Executable>
rbdock ($Id: //depot/dev/client3/rdock/2013.1/src/exe/rbdock.cxx#4 $)

>  <Rbt.Library>
libRbt.so (2013.1, Build901 2013/11/27)

>  <Rbt.Parameter_File>
/export/apps/rDock/src/rDock_2013.1_src/data/scripts/dock_solv.prm

>  <Rbt.Receptor>
prm/pocket_docking_2.prm

>  <SCORE>
-8.78736

>  <SCORE.INTER>
-8.78736

>  <SCORE.INTER.CONST>
1

>  <SCORE.INTER.POLAR>
0

>  <SCORE.INTER.ROT>
0

>  <SCORE.INTER.SOLV>
21.6011

>  <SCORE.INTER.VDW>
-16.6586

>  <SCORE.INTER.norm>
-0.675951

>  <SCORE.INTRA>
0

>  <SCORE.INTRA.DIHEDRAL>
0

>  <SCORE.INTRA.DIHEDRAL.0>
0

>  <SCORE.INTRA.POLAR>
0

>  <SCORE.INTRA.POLAR.0>
0

>  <SCORE.INTRA.REPUL>
0

>  <SCORE.INTRA.REPUL.0>
0

>  <SCORE.INTRA.SOLV>
0

>  <SCORE.INTRA.SOLV.lig_0>
-48.6608

>  <SCORE.INTRA.VDW>
0

>  <SCORE.INTRA.VDW.0>
0

>  <SCORE.INTRA.norm>
0

>  <SCORE.RESTR>
0

>  <SCORE.RESTR.CAVITY>
0

>  <SCORE.RESTR.norm>
0

>  <SCORE.SYSTEM>
0

>  <SCORE.SYSTEM.CONST>
0

>  <SCORE.SYSTEM.DIHEDRAL>
0

>  <SCORE.SYSTEM.SOLV>
0

>  <SCORE.SYSTEM.norm>
0

>  <SCORE.heavy>
13

>  <SCORE.norm>
-0.675951

>  <RMSD>
0.821

$$$$
ligand
 OpenBabel11021811483D
libRbt.so/2013.1/901 2013/11/27
 13 14  0  0  0  0  0  0  0  0999 V2000
   12.8134   43.8733   64.7688 N   0  0  0  0  0  0  0  0  0  0  0  0
   10.9617   43.1803   65.9791 N   0  0  0  0  0  0  0  0  0  0  0  0
   12.2252   43.6420   65.9389 C   0  0  0  0  0  0  0  0  0  0  0  0
   12.9316   43.8690   67.1193 N   0  0  0  0  0  0  0  0  0  0  0  0
   12.2932   43.6182   68.3356 C   0  0  0  0  0  0  0  0  0  0  0  0
   10.9815   43.1551   68.3497 C   0  0  0  0  0  0  0  0  0  0  0  0
   12.8936   43.8019   69.3938 O   0  0  0  0  0  0  0  0  0  0  0  0
   10.3532   42.8622   69.5751 N   0  0  0  0  0  0  0  0  0  0  0  0
    8.9342   42.4134   69.6571 C   0  0  2  0  0  0  0  0  0  0  0  0
    8.5632   41.6701   68.3626 C   0  0  0  0  0  0  0  0  0  0  0  0
   10.3369   42.9247   67.1427 C   0  0  0  0  0  0  0  0  0  0  0  0
    9.0253   42.4352   67.1536 N   0  0  0  0  0  0  0  0  0  0  0  0
    8.0255   43.6678   69.8254 C   0  0  0  0  0  0  0  0  0  0  0  0
  1  3  1  0  0  0  0
  2  3  2  0  0  0  0
  2 11  1  0  0  0  0
  3  4  1  0  0  0  0
  4  5  1  0  0  0  0
  5  6  1  0  0  0  0
  5  7  2  0  0  0  0
  6  8  1  0  0  0  0
  6 11  2  0  0  0  0
  8  9  1  0  0  0  0
  9 10  1  0  0  0  0
  9 13  1  6  0  0  0
 10 12  1  0  0  0  0
 11 12  1  0  0  0  0
M  END
>  <CHROM.1>
10.78293961,43.16895328,67.85176745,0.62313340,-0.31354240,-1.63956617

>  <Name>
ligand

>  <RI>
0

>  <Rbt.Current_Directory>
/home/itssahil/PROJECTS/Mol_Feturizer/New_Systems/rnas/3SUX

>  <Rbt.Executable>
rbdock ($Id: //depot/dev/client3/rdock/2013.1/src/exe/rbdock.cxx#4 $)

>  <Rbt.Library>
libRbt.so (2013.1, Build901 2013/11/27)

>  <Rbt.Parameter_File>
/export/apps/rDock/src/rDock_2013.1_src/data/scripts/dock_solv.prm

>  <Rbt.Receptor>
prm/pocket_docking_3.prm

>  <SCORE>
-8.79241

>  <SCORE.INTER>
-8.79241

>  <SCORE.INTER.CONST>
1

>  <SCORE.INTER.POLAR>
0

>  <SCORE.INTER.ROT>
0

>  <SCORE.INTER.SOLV>
21.5875

>  <SCORE.INTER.VDW>
-16.6575

>  <SCORE.INTER.norm>
-0.676339

>  <SCORE.INTRA>
0

>  <SCORE.INTRA.DIHEDRAL>
0

>  <SCORE.INTRA.DIHEDRAL.0>
0

>  <SCORE.INTRA.POLAR>
0

>  <SCORE.INTRA.POLAR.0>
0

>  <SCORE.INTRA.REPUL>
0

>  <SCORE.INTRA.REPUL.0>
0

>  <SCORE.INTRA.SOLV>
0

>  <SCORE.INTRA.SOLV.lig_0>
-48.6608

>  <SCORE.INTRA.VDW>
0

>  <SCORE.INTRA.VDW.0>
0

>  <SCORE.INTRA.norm>
0

>  <SCORE.RESTR>
0

>  <SCORE.RESTR.CAVITY>
0

>  <SCORE.RESTR.norm>
0

>  <SCORE.SYSTEM>
0

>  <SCORE.SYSTEM.CONST>
0

>  <SCORE.SYSTEM.DIHEDRAL>
0

>  <SCORE.SYSTEM.SOLV>
0

>  <SCORE.SYSTEM.norm>
0

>  <SCORE.heavy>
13

>  <SCORE.norm>
-0.676339

>  <RMSD>
0.822

$$$$
ligand
 OpenBabel11021811483D
libRbt.so/2013.1/901 2013/11/27
 13 14  0  0  0  0  0  0  0  0999 V2000
   12.8350   43.8786   64.7995 N   0  0  0  0  0  0  0  0  0  0  0  0
   10.9730   43.1893   65.9958 N   0  0  0  0  0  0  0  0  0  0  0  0
   12.2392   43.6443   65.9651 C   0  0  0  0  0  0  0  0  0  0  0  0
   12.9404   43.8609   67.1506 N   0  0  0  0  0  0  0  0  0  0  0  0
   12.2940   43.6070   68.3619 C   0  0  0  0  0  0  0  0  0  0  0  0
   10.9798   43.1510   68.3664 C   0  0  0  0  0  0  0  0  0  0  0  0
   12.8896   43.7816   69.4244 O   0  0  0  0  0  0  0  0  0  0  0  0
   10.3431   42.8548   69.5867 N   0  0  0  0  0  0  0  0  0  0  0  0
    8.9213   42.4134   69.6585 C   0  0  2  0  0  0  0  0  0  0  0  0
    8.5534   41.6792   68.3580 C   0  0  0  0  0  0  0  0  0  0  0  0
   10.3405   42.9307   67.1546 C   0  0  0  0  0  0  0  0  0  0  0  0
    9.0262   42.4483   67.1557 N   0  0  0  0  0  0  0  0  0  0  0  0
    8.0186   43.6718   69.8288 C   0  0  0  0  0  0  0  0  0  0  0  0
  1  3  1  0  0  0  0
  2  3  2  0  0  0  0
  2 11  1  0  0  0  0
  3  4  1  0  0  0  0
  4  5  1  0  0  0  0
  5  6  1  0  0  0  0
  5  7  2  0  0  0  0
  6  8  1  0  0  0  0
  6 11  2  0  0  0  0
  8  9  1  0  0  0  0
  9 10  1  0  0  0  0
  9 13  1  6  0  0  0
 10 12  1  0  0  0  0
 11 12  1  0  0  0  0
M  END
>  <CHROM.1>
10.78397264,43.16863609,67.86744994,0.61780619,-0.30772549,-1.63571577

>  <Name>
ligand

>  <RI>
0

>  <Rbt.Current_Directory>
/home/itssahil/PROJECTS/Mol_Feturizer/New_Systems/rnas/3SUX

>  <Rbt.Executable>
rbdock ($Id: //depot/dev/client3/rdock/2013.1/src/exe/rbdock.cxx#4 $)

>  <Rbt.Library>
libRbt.so (2013.1, Build901 2013/11/27)

>  <Rbt.Parameter_File>
/export/apps/rDock/src/rDock_2013.1_src/data/scripts/dock_solv.prm

>  <Rbt.Receptor>
prm/pocket_docking_3.prm

>  <SCORE>
-8.82127

>  <SCORE.INTER>
-8.82127

>  <SCORE.INTER.CONST>
1

>  <SCORE.INTER.POLAR>
0

>  <SCORE.INTER.ROT>
0

>  <SCORE.INTER.SOLV>
21.5968

>  <SCORE.INTER.VDW>
-16.6798

>  <SCORE.INTER.norm>
-0.67856

>  <SCORE.INTRA>
0

>  <SCORE.INTRA.DIHEDRAL>
0

>  <SCORE.INTRA.DIHEDRAL.0>
0

>  <SCORE.INTRA.POLAR>
0

>  <SCORE.INTRA.POLAR.0>
0

>  <SCORE.INTRA.REPUL>
0

>  <SCORE.INTRA.REPUL.0>
0

>  <SCORE.INTRA.SOLV>
0

>  <SCORE.INTRA.SOLV.lig_0>
-48.6608

>  <SCORE.INTRA.VDW>
0

>  <SCORE.INTRA.VDW.0>
0

>  <SCORE.INTRA.norm>
0

>  <SCORE.RESTR>
0

>  <SCORE.RESTR.CAVITY>
0

>  <SCORE.RESTR.norm>
0

>  <SCORE.SYSTEM>
0

>  <SCORE.SYSTEM.CONST>
0

>  <SCORE.SYSTEM.DIHEDRAL>
0

>  <SCORE.SYSTEM.SOLV>
0

>  <SCORE.SYSTEM.norm>
0

>  <SCORE.heavy>
13

>  <SCORE.norm>
-0.67856

>  <RMSD>
0.822

$$$$
ligand
 OpenBabel11021811483D
libRbt.so/2013.1/901 2013/11/27
 13 14  0  0  0  0  0  0  0  0999 V2000
   12.8126   43.8791   64.8135 N   0  0  0  0  0  0  0  0  0  0  0  0
   10.9460   43.1811   65.9977 N   0  0  0  0  0  0  0  0  0  0  0  0
   12.2079   43.6484   65.9753 C   0  0  0  0  0  0  0  0  0  0  0  0
   12.8955   43.8818   67.1655 N   0  0  0  0  0  0  0  0  0  0  0  0
   12.2400   43.6315   68.3727 C   0  0  0  0  0  0  0  0  0  0  0  0
   10.9304   43.1624   68.3685 C   0  0  0  0  0  0  0  0  0  0  0  0
   12.8236   43.8207   69.4394 O   0  0  0  0  0  0  0  0  0  0  0  0
   10.2849   42.8700   69.5851 N   0  0  0  0  0  0  0  0  0  0  0  0
    8.8670   42.4150   69.6470 C   0  0  2  0  0  0  0  0  0  0  0  0
    8.5188   41.6665   68.3492 C   0  0  0  0  0  0  0  0  0  0  0  0
   10.3050   42.9258   67.1525 C   0  0  0  0  0  0  0  0  0  0  0  0
    8.9956   42.4304   67.1451 N   0  0  0  0  0  0  0  0  0  0  0  0
    7.9502   43.6657   69.7981 C   0  0  0  0  0  0  0  0  0  0  0  0
  1  3  1  0  0  0  0
  2  3  2  0  0  0  0
  2 11  1  0  0  0  0
  3  4  1  0  0  0  0
  4  5  1  0  0  0  0
  5  6  1  0  0  0  0
  5  7  2  0  0  0  0
  6  8  1  0  0  0  0
  6 11  2  0  0  0  0
  8  9  1  0  0  0  0
  9 10  1  0  0  0  0
  9 13  1  6  0  0  0
 10 12  1  0  0  0  0
 11 12  1  0  0  0  0
M  END
>  <CHROM.1>
10.73920470,43.17402191,67.86756968,0.60701830,-0.31695339,-1.64732989

>  <Name>
ligand

>  <RI>
0

>  <Rbt.Current_Directory>
/home/itssahil/PROJECTS/Mol_Feturizer/New_Systems/rnas/3SUX

>  <Rbt.Executable>
rbdock ($Id: //depot/dev/client3/rdock/2013.1/src/exe/rbdock.cxx#4 $)

>  <Rbt.Library>
libRbt.so (2013.1, Build901 2013/11/27)

>  <Rbt.Parameter_File>
/export/apps/rDock/src/rDock_2013.1_src/data/scripts/dock_solv.prm

>  <Rbt.Receptor>
prm/pocket_docking_3.prm

>  <SCORE>
-8.8038

>  <SCORE.INTER>
-8.8038

>  <SCORE.INTER.CONST>
1

>  <SCORE.INTER.POLAR>
0

>  <SCORE.INTER.ROT>
0

>  <SCORE.INTER.SOLV>
21.58

>  <SCORE.INTER.VDW>
-16.6625

>  <SCORE.INTER.norm>
-0.677215

>  <SCORE.INTRA>
0

>  <SCORE.INTRA.DIHEDRAL>
0

>  <SCORE.INTRA.DIHEDRAL.0>
0

>  <SCORE.INTRA.POLAR>
0

>  <SCORE.INTRA.POLAR.0>
0

>  <SCORE.INTRA.REPUL>
0

>  <SCORE.INTRA.REPUL.0>
0

>  <SCORE.INTRA.SOLV>
0

>  <SCORE.INTRA.SOLV.lig_0>
-48.6608

>  <SCORE.INTRA.VDW>
0

>  <SCORE.INTRA.VDW.0>
0

>  <SCORE.INTRA.norm>
0

>  <SCORE.RESTR>
0

>  <SCORE.RESTR.CAVITY>
0

>  <SCORE.RESTR.norm>
0

>  <SCORE.SYSTEM>
0

>  <SCORE.SYSTEM.CONST>
0

>  <SCORE.SYSTEM.DIHEDRAL>
0

>  <SCORE.SYSTEM.SOLV>
0

>  <SCORE.SYSTEM.norm>
0

>  <SCORE.heavy>
13

>  <SCORE.norm>
-0.677215

>  <RMSD>
0.822

$$$$
ligand
 OpenBabel11021811483D
libRbt.so/2013.1/901 2013/11/27
 13 14  0  0  0  0  0  0  0  0999 V2000
   12.8387   43.8798   64.8147 N   0  0  0  0  0  0  0  0  0  0  0  0
   10.9713   43.1785   65.9955 N   0  0  0  0  0  0  0  0  0  0  0  0
   12.2385   43.6311   65.9751 C   0  0  0  0  0  0  0  0  0  0  0  0
   12.9362   43.8304   67.1656 N   0  0  0  0  0  0  0  0  0  0  0  0
   12.2852   43.5617   68.3713 C   0  0  0  0  0  0  0  0  0  0  0  0
   10.9700   43.1085   68.3654 C   0  0  0  0  0  0  0  0  0  0  0  0
   12.8777   43.7208   69.4380 O   0  0  0  0  0  0  0  0  0  0  0  0
   10.3287   42.7975   69.5795 N   0  0  0  0  0  0  0  0  0  0  0  0
    8.9057   42.3581   69.6407 C   0  0  2  0  0  0  0  0  0  0  0  0
    8.5406   41.6422   68.3293 C   0  0  0  0  0  0  0  0  0  0  0  0
   10.3344   42.9059   67.1487 C   0  0  0  0  0  0  0  0  0  0  0  0
    9.0190   42.4263   67.1389 N   0  0  0  0  0  0  0  0  0  0  0  0
    8.0051   43.6161   69.8248 C   0  0  0  0  0  0  0  0  0  0  0  0
  1  3  1  0  0  0  0
  2  3  2  0  0  0  0
  2 11  1  0  0  0  0
  3  4  1  0  0  0  0
  4  5  1  0  0  0  0
  5  6  1  0  0  0  0
  5  7  2  0  0  0  0
  6  8  1  0  0  0  0
  6 11  2  0  0  0  0
  8  9  1  0  0  0  0
  9 10  1  0  0  0  0
  9 13  1  6  0  0  0
 10 12  1  0  0  0  0
 11 12  1  0  0  0  0
M  END
>  <CHROM.1>
10.77595286,43.13327116,67.86608492,0.61445852,-0.30540103,-1.62335930

>  <Name>
ligand

>  <RI>
0

>  <Rbt.Current_Directory>
/home/itssahil/PROJECTS/Mol_Feturizer/New_Systems/rnas/3SUX

>  <Rbt.Executable>
rbdock ($Id: //depot/dev/client3/rdock/2013.1/src/exe/rbdock.cxx#4 $)

>  <Rbt.Library>
libRbt.so (2013.1, Build901 2013/11/27)

>  <Rbt.Parameter_File>
/export/apps/rDock/src/rDock_2013.1_src/data/scripts/dock_solv.prm

>  <Rbt.Receptor>
prm/pocket_docking_2.prm

>  <SCORE>
-8.82953

>  <SCORE.INTER>
-8.82953

>  <SCORE.INTER.CONST>
1

>  <SCORE.INTER.POLAR>
0

>  <SCORE.INTER.ROT>
0

>  <SCORE.INTER.SOLV>
21.6371

>  <SCORE.INTER.VDW>
-16.6987

>  <SCORE.INTER.norm>
-0.679194

>  <SCORE.INTRA>
0

>  <SCORE.INTRA.DIHEDRAL>
0

>  <SCORE.INTRA.DIHEDRAL.0>
0

>  <SCORE.INTRA.POLAR>
0

>  <SCORE.INTRA.POLAR.0>
0

>  <SCORE.INTRA.REPUL>
0

>  <SCORE.INTRA.REPUL.0>
0

>  <SCORE.INTRA.SOLV>
0

>  <SCORE.INTRA.SOLV.lig_0>
-48.6608

>  <SCORE.INTRA.VDW>
0

>  <SCORE.INTRA.VDW.0>
0

>  <SCORE.INTRA.norm>
0

>  <SCORE.RESTR>
0

>  <SCORE.RESTR.CAVITY>
0

>  <SCORE.RESTR.norm>
0

>  <SCORE.SYSTEM>
0

>  <SCORE.SYSTEM.CONST>
0

>  <SCORE.SYSTEM.DIHEDRAL>
0

>  <SCORE.SYSTEM.SOLV>
0

>  <SCORE.SYSTEM.norm>
0

>  <SCORE.heavy>
13

>  <SCORE.norm>
-0.679194

>  <RMSD>
0.823

$$$$
ligand
 OpenBabel11021811483D
libRbt.so/2013.1/901 2013/11/27
 13 14  0  0  0  0  0  0  0  0999 V2000
   12.8314   43.8753   64.7916 N   0  0  0  0  0  0  0  0  0  0  0  0
   10.9710   43.1884   65.9919 N   0  0  0  0  0  0  0  0  0  0  0  0
   12.2363   43.6458   65.9586 C   0  0  0  0  0  0  0  0  0  0  0  0
   12.9373   43.8701   67.1427 N   0  0  0  0  0  0  0  0  0  0  0  0
   12.2916   43.6212   68.3555 C   0  0  0  0  0  0  0  0  0  0  0  0
   10.9783   43.1626   68.3627 C   0  0  0  0  0  0  0  0  0  0  0  0
   12.8871   43.8026   69.4170 O   0  0  0  0  0  0  0  0  0  0  0  0
   10.3425   42.8715   69.5846 N   0  0  0  0  0  0  0  0  0  0  0  0
    8.9216   42.4275   69.6591 C   0  0  2  0  0  0  0  0  0  0  0  0
    8.5549   41.6858   68.3624 C   0  0  0  0  0  0  0  0  0  0  0  0
   10.3393   42.9346   67.1522 C   0  0  0  0  0  0  0  0  0  0  0  0
    9.0260   42.4496   67.1560 N   0  0  0  0  0  0  0  0  0  0  0  0
    8.0164   43.6849   69.8229 C   0  0  0  0  0  0  0  0  0  0  0  0
  1  3  1  0  0  0  0
  2  3  2  0  0  0  0
  2 11  1  0  0  0  0
  3  4  1  0  0  0  0
  4  5  1  0  0  0  0
  5  6  1  0  0  0  0
  5  7  2  0  0  0  0
  6  8  1  0  0  0  0
  6 11  2  0  0  0  0
  8  9  1  0  0  0  0
  9 10  1  0  0  0  0
  9 13  1  6  0  0  0
 10 12  1  0  0  0  0
 11 12  1  0  0  0  0
M  END
>  <CHROM.1>
10.78239972,43.17719935,67.86366910,0.61786451,-0.30977948,-1.64092688

>  <Name>
ligand

>  <RI>
0

>  <Rbt.Current_Directory>
/home/itssahil/PROJECTS/Mol_Feturizer/New_Systems/rnas/3SUX

>  <Rbt.Executable>
rbdock ($Id: //depot/dev/client3/rdock/2013.1/src/exe/rbdock.cxx#4 $)

>  <Rbt.Library>
libRbt.so (2013.1, Build901 2013/11/27)

>  <Rbt.Parameter_File>
/export/apps/rDock/src/rDock_2013.1_src/data/scripts/dock_solv.prm

>  <Rbt.Receptor>
prm/pocket_docking_4.prm

>  <SCORE>
-8.85534

>  <SCORE.INTER>
-8.85534

>  <SCORE.INTER.CONST>
1

>  <SCORE.INTER.POLAR>
0

>  <SCORE.INTER.ROT>
0

>  <SCORE.INTER.SOLV>
21.5925

>  <SCORE.INTER.VDW>
-16.7011

>  <SCORE.INTER.norm>
-0.68118

>  <SCORE.INTRA>
0

>  <SCORE.INTRA.DIHEDRAL>
0

>  <SCORE.INTRA.DIHEDRAL.0>
0

>  <SCORE.INTRA.POLAR>
0

>  <SCORE.INTRA.POLAR.0>
0

>  <SCORE.INTRA.REPUL>
0

>  <SCORE.INTRA.REPUL.0>
0

>  <SCORE.INTRA.SOLV>
0

>  <SCORE.INTRA.SOLV.lig_0>
-48.6608

>  <SCORE.INTRA.VDW>
0

>  <SCORE.INTRA.VDW.0>
0

>  <SCORE.INTRA.norm>
0

>  <SCORE.RESTR>
0

>  <SCORE.RESTR.CAVITY>
0

>  <SCORE.RESTR.norm>
0

>  <SCORE.SYSTEM>
0

>  <SCORE.SYSTEM.CONST>
0

>  <SCORE.SYSTEM.DIHEDRAL>
0

>  <SCORE.SYSTEM.SOLV>
0

>  <SCORE.SYSTEM.norm>
0

>  <SCORE.heavy>
13

>  <SCORE.norm>
-0.68118

>  <RMSD>
0.823

$$$$
ligand
 OpenBabel11021811483D
libRbt.so/2013.1/901 2013/11/27
 13 14  0  0  0  0  0  0  0  0999 V2000
   12.8328   43.8752   64.7905 N   0  0  0  0  0  0  0  0  0  0  0  0
   10.9727   43.1872   65.9907 N   0  0  0  0  0  0  0  0  0  0  0  0
   12.2376   43.6455   65.9575 C   0  0  0  0  0  0  0  0  0  0  0  0
   12.9382   43.8706   67.1417 N   0  0  0  0  0  0  0  0  0  0  0  0
   12.2925   43.6215   68.3544 C   0  0  0  0  0  0  0  0  0  0  0  0
   10.9795   43.1620   68.3614 C   0  0  0  0  0  0  0  0  0  0  0  0
   12.8876   43.8036   69.4159 O   0  0  0  0  0  0  0  0  0  0  0  0
   10.3437   42.8707   69.5833 N   0  0  0  0  0  0  0  0  0  0  0  0
    8.9231   42.4257   69.6576 C   0  0  2  0  0  0  0  0  0  0  0  0
    8.5572   41.6835   68.3611 C   0  0  0  0  0  0  0  0  0  0  0  0
   10.3409   42.9333   67.1508 C   0  0  0  0  0  0  0  0  0  0  0  0
    9.0279   42.4473   67.1546 N   0  0  0  0  0  0  0  0  0  0  0  0
    8.0169   43.6826   69.8209 C   0  0  0  0  0  0  0  0  0  0  0  0
  1  3  1  0  0  0  0
  2  3  2  0  0  0  0
  2 11  1  0  0  0  0
  3  4  1  0  0  0  0
  4  5  1  0  0  0  0
  5  6  1  0  0  0  0
  5  7  2  0  0  0  0
  6  8  1  0  0  0  0
  6 11  2  0  0  0  0
  8  9  1  0  0  0  0
  9 10  1  0  0  0  0
  9 13  1  6  0  0  0
 10 12  1  0  0  0  0
 11 12  1  0  0  0  0
M  END
>  <CHROM.1>
10.78368806,43.17633972,67.86237074,0.61760062,-0.31047715,-1.64125926

>  <Name>
ligand

>  <RI>
0

>  <Rbt.Current_Directory>
/home/itssahil/PROJECTS/Mol_Feturizer/New_Systems/rnas/3SUX

>  <Rbt.Executable>
rbdock ($Id: //depot/dev/client3/rdock/2013.1/src/exe/rbdock.cxx#4 $)

>  <Rbt.Library>
libRbt.so (2013.1, Build901 2013/11/27)

>  <Rbt.Parameter_File>
/export/apps/rDock/src/rDock_2013.1_src/data/scripts/dock_solv.prm

>  <Rbt.Receptor>
prm/pocket_docking_4.prm

>  <SCORE>
-8.85404

>  <SCORE.INTER>
-8.85404

>  <SCORE.INTER.CONST>
1

>  <SCORE.INTER.POLAR>
0

>  <SCORE.INTER.ROT>
0

>  <SCORE.INTER.SOLV>
21.5943

>  <SCORE.INTER.VDW>
-16.7008

>  <SCORE.INTER.norm>
-0.68108

>  <SCORE.INTRA>
0

>  <SCORE.INTRA.DIHEDRAL>
0

>  <SCORE.INTRA.DIHEDRAL.0>
0

>  <SCORE.INTRA.POLAR>
0

>  <SCORE.INTRA.POLAR.0>
0

>  <SCORE.INTRA.REPUL>
0

>  <SCORE.INTRA.REPUL.0>
0

>  <SCORE.INTRA.SOLV>
0

>  <SCORE.INTRA.SOLV.lig_0>
-48.6608

>  <SCORE.INTRA.VDW>
0

>  <SCORE.INTRA.VDW.0>
0

>  <SCORE.INTRA.norm>
0

>  <SCORE.RESTR>
0

>  <SCORE.RESTR.CAVITY>
0

>  <SCORE.RESTR.norm>
0

>  <SCORE.SYSTEM>
0

>  <SCORE.SYSTEM.CONST>
0

>  <SCORE.SYSTEM.DIHEDRAL>
0

>  <SCORE.SYSTEM.SOLV>
0

>  <SCORE.SYSTEM.norm>
0

>  <SCORE.heavy>
13

>  <SCORE.norm>
-0.68108

>  <RMSD>
0.823

$$$$
ligand
 OpenBabel11021811483D
libRbt.so/2013.1/901 2013/11/27
 13 14  0  0  0  0  0  0  0  0999 V2000
   12.8367   43.8775   64.7937 N   0  0  0  0  0  0  0  0  0  0  0  0
   10.9751   43.1881   65.9907 N   0  0  0  0  0  0  0  0  0  0  0  0
   12.2397   43.6477   65.9596 C   0  0  0  0  0  0  0  0  0  0  0  0
   12.9379   43.8739   67.1450 N   0  0  0  0  0  0  0  0  0  0  0  0
   12.2903   43.6246   68.3567 C   0  0  0  0  0  0  0  0  0  0  0  0
   10.9778   43.1637   68.3615 C   0  0  0  0  0  0  0  0  0  0  0  0
   12.8833   43.8076   69.4192 O   0  0  0  0  0  0  0  0  0  0  0  0
   10.3401   42.8722   69.5823 N   0  0  0  0  0  0  0  0  0  0  0  0
    8.9198   42.4258   69.6542 C   0  0  2  0  0  0  0  0  0  0  0  0
    8.5570   41.6827   68.3573 C   0  0  0  0  0  0  0  0  0  0  0  0
   10.3416   42.9339   67.1498 C   0  0  0  0  0  0  0  0  0  0  0  0
    9.0291   42.4466   67.1514 N   0  0  0  0  0  0  0  0  0  0  0  0
    8.0120   43.6818   69.8155 C   0  0  0  0  0  0  0  0  0  0  0  0
  1  3  1  0  0  0  0
  2  3  2  0  0  0  0
  2 11  1  0  0  0  0
  3  4  1  0  0  0  0
  4  5  1  0  0  0  0
  5  6  1  0  0  0  0
  5  7  2  0  0  0  0
  6  8  1  0  0  0  0
  6 11  2  0  0  0  0
  8  9  1  0  0  0  0
  9 10  1  0  0  0  0
  9 13  1  6  0  0  0
 10 12  1  0  0  0  0
 11 12  1  0  0  0  0
M  END
>  <CHROM.1>
10.78282396,43.17766949,67.86206994,0.61565982,-0.31135652,-1.64218882

>  <Name>
ligand

>  <RI>
0

>  <Rbt.Current_Directory>
/home/itssahil/PROJECTS/Mol_Feturizer/New_Systems/rnas/3SUX

>  <Rbt.Executable>
rbdock ($Id: //depot/dev/client3/rdock/2013.1/src/exe/rbdock.cxx#4 $)

>  <Rbt.Library>
libRbt.so (2013.1, Build901 2013/11/27)

>  <Rbt.Parameter_File>
/export/apps/rDock/src/rDock_2013.1_src/data/scripts/dock_solv.prm

>  <Rbt.Receptor>
prm/pocket_docking_2.prm

>  <SCORE>
-8.84772

>  <SCORE.INTER>
-8.84772

>  <SCORE.INTER.CONST>
1

>  <SCORE.INTER.POLAR>
0

>  <SCORE.INTER.ROT>
0

>  <SCORE.INTER.SOLV>
21.6021

>  <SCORE.INTER.VDW>
-16.6992

>  <SCORE.INTER.norm>
-0.680594

>  <SCORE.INTRA>
0

>  <SCORE.INTRA.DIHEDRAL>
0

>  <SCORE.INTRA.DIHEDRAL.0>
0

>  <SCORE.INTRA.POLAR>
0

>  <SCORE.INTRA.POLAR.0>
0

>  <SCORE.INTRA.REPUL>
0

>  <SCORE.INTRA.REPUL.0>
0

>  <SCORE.INTRA.SOLV>
0

>  <SCORE.INTRA.SOLV.lig_0>
-48.6608

>  <SCORE.INTRA.VDW>
0

>  <SCORE.INTRA.VDW.0>
0

>  <SCORE.INTRA.norm>
0

>  <SCORE.RESTR>
0

>  <SCORE.RESTR.CAVITY>
0

>  <SCORE.RESTR.norm>
0

>  <SCORE.SYSTEM>
0

>  <SCORE.SYSTEM.CONST>
0

>  <SCORE.SYSTEM.DIHEDRAL>
0

>  <SCORE.SYSTEM.SOLV>
0

>  <SCORE.SYSTEM.norm>
0

>  <SCORE.heavy>
13

>  <SCORE.norm>
-0.680594

>  <RMSD>
0.824

$$$$
ligand
 OpenBabel11021811483D
libRbt.so/2013.1/901 2013/11/27
 13 14  0  0  0  0  0  0  0  0999 V2000
   12.8355   43.8825   64.8066 N   0  0  0  0  0  0  0  0  0  0  0  0
   10.9697   43.1830   65.9912 N   0  0  0  0  0  0  0  0  0  0  0  0
   12.2366   43.6365   65.9683 C   0  0  0  0  0  0  0  0  0  0  0  0
   12.9353   43.8395   67.1577 N   0  0  0  0  0  0  0  0  0  0  0  0
   12.2857   43.5735   68.3647 C   0  0  0  0  0  0  0  0  0  0  0  0
   10.9709   43.1193   68.3612 C   0  0  0  0  0  0  0  0  0  0  0  0
   12.8791   43.7359   69.4304 O   0  0  0  0  0  0  0  0  0  0  0  0
   10.3310   42.8110   69.5768 N   0  0  0  0  0  0  0  0  0  0  0  0
    8.9084   42.3707   69.6406 C   0  0  2  0  0  0  0  0  0  0  0  0
    8.5425   41.6511   68.3314 C   0  0  0  0  0  0  0  0  0  0  0  0
   10.3342   42.9129   67.1457 C   0  0  0  0  0  0  0  0  0  0  0  0
    9.0192   42.4324   67.1385 N   0  0  0  0  0  0  0  0  0  0  0  0
    8.0070   43.6285   69.8222 C   0  0  0  0  0  0  0  0  0  0  0  0
  1  3  1  0  0  0  0
  2  3  2  0  0  0  0
  2 11  1  0  0  0  0
  3  4  1  0  0  0  0
  4  5  1  0  0  0  0
  5  6  1  0  0  0  0
  5  7  2  0  0  0  0
  6  8  1  0  0  0  0
  6 11  2  0  0  0  0
  8  9  1  0  0  0  0
  9 10  1  0  0  0  0
  9 13  1  6  0  0  0
 10 12  1  0  0  0  0
 11 12  1  0  0  0  0
M  END
>  <CHROM.1>
10.77628666,43.14257099,67.86204755,0.61543548,-0.30620417,-1.62572182

>  <Name>
ligand

>  <RI>
0

>  <Rbt.Current_Directory>
/home/itssahil/PROJECTS/Mol_Feturizer/New_Systems/rnas/3SUX

>  <Rbt.Executable>
rbdock ($Id: //depot/dev/client3/rdock/2013.1/src/exe/rbdock.cxx#4 $)

>  <Rbt.Library>
libRbt.so (2013.1, Build901 2013/11/27)

>  <Rbt.Parameter_File>
/export/apps/rDock/src/rDock_2013.1_src/data/scripts/dock_solv.prm

>  <Rbt.Receptor>
prm/pocket_docking_2.prm

>  <SCORE>
-8.83903

>  <SCORE.INTER>
-8.83903

>  <SCORE.INTER.CONST>
1

>  <SCORE.INTER.POLAR>
0

>  <SCORE.INTER.ROT>
0

>  <SCORE.INTER.SOLV>
21.6413

>  <SCORE.INTER.VDW>
-16.7064

>  <SCORE.INTER.norm>
-0.679925

>  <SCORE.INTRA>
0

>  <SCORE.INTRA.DIHEDRAL>
0

>  <SCORE.INTRA.DIHEDRAL.0>
0

>  <SCORE.INTRA.POLAR>
0

>  <SCORE.INTRA.POLAR.0>
0

>  <SCORE.INTRA.REPUL>
0

>  <SCORE.INTRA.REPUL.0>
0

>  <SCORE.INTRA.SOLV>
0

>  <SCORE.INTRA.SOLV.lig_0>
-48.6608

>  <SCORE.INTRA.VDW>
0

>  <SCORE.INTRA.VDW.0>
0

>  <SCORE.INTRA.norm>
0

>  <SCORE.RESTR>
0

>  <SCORE.RESTR.CAVITY>
0

>  <SCORE.RESTR.norm>
0

>  <SCORE.SYSTEM>
0

>  <SCORE.SYSTEM.CONST>
0

>  <SCORE.SYSTEM.DIHEDRAL>
0

>  <SCORE.SYSTEM.SOLV>
0

>  <SCORE.SYSTEM.norm>
0

>  <SCORE.heavy>
13

>  <SCORE.norm>
-0.679925

>  <RMSD>
0.825

$$$$
ligand
 OpenBabel11021811483D
libRbt.so/2013.1/901 2013/11/27
 13 14  0  0  0  0  0  0  0  0999 V2000
   12.8321   43.8752   64.7914 N   0  0  0  0  0  0  0  0  0  0  0  0
   10.9709   43.1897   65.9912 N   0  0  0  0  0  0  0  0  0  0  0  0
   12.2366   43.6459   65.9582 C   0  0  0  0  0  0  0  0  0  0  0  0
   12.9377   43.8690   67.1425 N   0  0  0  0  0  0  0  0  0  0  0  0
   12.2915   43.6203   68.3551 C   0  0  0  0  0  0  0  0  0  0  0  0
   10.9778   43.1629   68.3619 C   0  0  0  0  0  0  0  0  0  0  0  0
   12.8870   43.8006   69.4167 O   0  0  0  0  0  0  0  0  0  0  0  0
   10.3415   42.8720   69.5836 N   0  0  0  0  0  0  0  0  0  0  0  0
    8.9202   42.4294   69.6577 C   0  0  2  0  0  0  0  0  0  0  0  0
    8.5529   41.6886   68.3608 C   0  0  0  0  0  0  0  0  0  0  0  0
   10.3387   42.9361   67.1512 C   0  0  0  0  0  0  0  0  0  0  0  0
    9.0249   42.4524   67.1547 N   0  0  0  0  0  0  0  0  0  0  0  0
    8.0162   43.6877   69.8219 C   0  0  0  0  0  0  0  0  0  0  0  0
  1  3  1  0  0  0  0
  2  3  2  0  0  0  0
  2 11  1  0  0  0  0
  3  4  1  0  0  0  0
  4  5  1  0  0  0  0
  5  6  1  0  0  0  0
  5  7  2  0  0  0  0
  6  8  1  0  0  0  0
  6 11  2  0  0  0  0
  8  9  1  0  0  0  0
  9 10  1  0  0  0  0
  9 13  1  6  0  0  0
 10 12  1  0  0  0  0
 11 12  1  0  0  0  0
M  END
>  <CHROM.1>
10.78196938,43.17796375,67.86289957,0.61778683,-0.30876138,-1.64056811

>  <Name>
ligand

>  <RI>
0

>  <Rbt.Current_Directory>
/home/itssahil/PROJECTS/Mol_Feturizer/New_Systems/rnas/3SUX

>  <Rbt.Executable>
rbdock ($Id: //depot/dev/client3/rdock/2013.1/src/exe/rbdock.cxx#4 $)

>  <Rbt.Library>
libRbt.so (2013.1, Build901 2013/11/27)

>  <Rbt.Parameter_File>
/export/apps/rDock/src/rDock_2013.1_src/data/scripts/dock_solv.prm

>  <Rbt.Receptor>
prm/pocket_docking_3.prm

>  <SCORE>
-8.85491

>  <SCORE.INTER>
-8.85491

>  <SCORE.INTER.CONST>
1

>  <SCORE.INTER.POLAR>
0

>  <SCORE.INTER.ROT>
0

>  <SCORE.INTER.SOLV>
21.6025

>  <SCORE.INTER.VDW>
-16.7041

>  <SCORE.INTER.norm>
-0.681147

>  <SCORE.INTRA>
0

>  <SCORE.INTRA.DIHEDRAL>
0

>  <SCORE.INTRA.DIHEDRAL.0>
0

>  <SCORE.INTRA.POLAR>
0

>  <SCORE.INTRA.POLAR.0>
0

>  <SCORE.INTRA.REPUL>
0

>  <SCORE.INTRA.REPUL.0>
0

>  <SCORE.INTRA.SOLV>
0

>  <SCORE.INTRA.SOLV.lig_0>
-48.6608

>  <SCORE.INTRA.VDW>
0

>  <SCORE.INTRA.VDW.0>
0

>  <SCORE.INTRA.norm>
0

>  <SCORE.RESTR>
0

>  <SCORE.RESTR.CAVITY>
0

>  <SCORE.RESTR.norm>
0

>  <SCORE.SYSTEM>
0

>  <SCORE.SYSTEM.CONST>
0

>  <SCORE.SYSTEM.DIHEDRAL>
0

>  <SCORE.SYSTEM.SOLV>
0

>  <SCORE.SYSTEM.norm>
0

>  <SCORE.heavy>
13

>  <SCORE.norm>
-0.681147

>  <RMSD>
0.825

$$$$
ligand
 OpenBabel11021811483D
libRbt.so/2013.1/901 2013/11/27
 13 14  0  0  0  0  0  0  0  0999 V2000
   12.8406   43.8838   64.8119 N   0  0  0  0  0  0  0  0  0  0  0  0
   10.9734   43.1837   65.9940 N   0  0  0  0  0  0  0  0  0  0  0  0
   12.2403   43.6374   65.9728 C   0  0  0  0  0  0  0  0  0  0  0  0
   12.9375   43.8403   67.1631 N   0  0  0  0  0  0  0  0  0  0  0  0
   12.2863   43.5740   68.3692 C   0  0  0  0  0  0  0  0  0  0  0  0
   10.9716   43.1196   68.3640 C   0  0  0  0  0  0  0  0  0  0  0  0
   12.8783   43.7362   69.4357 O   0  0  0  0  0  0  0  0  0  0  0  0
   10.3302   42.8110   69.5787 N   0  0  0  0  0  0  0  0  0  0  0  0
    8.9076   42.3706   69.6406 C   0  0  2  0  0  0  0  0  0  0  0  0
    8.5434   41.6511   68.3308 C   0  0  0  0  0  0  0  0  0  0  0  0
   10.3365   42.9134   67.1476 C   0  0  0  0  0  0  0  0  0  0  0  0
    9.0216   42.4327   67.1387 N   0  0  0  0  0  0  0  0  0  0  0  0
    8.0058   43.6282   69.8213 C   0  0  0  0  0  0  0  0  0  0  0  0
  1  3  1  0  0  0  0
  2  3  2  0  0  0  0
  2 11  1  0  0  0  0
  3  4  1  0  0  0  0
  4  5  1  0  0  0  0
  5  6  1  0  0  0  0
  5  7  2  0  0  0  0
  6  8  1  0  0  0  0
  6 11  2  0  0  0  0
  8  9  1  0  0  0  0
  9 10  1  0  0  0  0
  9 13  1  6  0  0  0
 10 12  1  0  0  0  0
 11 12  1  0  0  0  0
M  END
>  <CHROM.1>
10.77761503,43.14297198,67.86459105,0.61409713,-0.30626629,-1.62594041

>  <Name>
ligand

>  <RI>
0

>  <Rbt.Current_Directory>
/home/itssahil/PROJECTS/Mol_Feturizer/New_Systems/rnas/3SUX

>  <Rbt.Executable>
rbdock ($Id: //depot/dev/client3/rdock/2013.1/src/exe/rbdock.cxx#4 $)

>  <Rbt.Library>
libRbt.so (2013.1, Build901 2013/11/27)

>  <Rbt.Parameter_File>
/export/apps/rDock/src/rDock_2013.1_src/data/scripts/dock_solv.prm

>  <Rbt.Receptor>
prm/pocket_docking_4.prm

>  <SCORE>
-8.83796

>  <SCORE.INTER>
-8.83796

>  <SCORE.INTER.CONST>
1

>  <SCORE.INTER.POLAR>
0

>  <SCORE.INTER.ROT>
0

>  <SCORE.INTER.SOLV>
21.6393

>  <SCORE.INTER.VDW>
-16.7051

>  <SCORE.INTER.norm>
-0.679843

>  <SCORE.INTRA>
0

>  <SCORE.INTRA.DIHEDRAL>
0

>  <SCORE.INTRA.DIHEDRAL.0>
0

>  <SCORE.INTRA.POLAR>
0

>  <SCORE.INTRA.POLAR.0>
0

>  <SCORE.INTRA.REPUL>
0

>  <SCORE.INTRA.REPUL.0>
0

>  <SCORE.INTRA.SOLV>
0

>  <SCORE.INTRA.SOLV.lig_0>
-48.6608

>  <SCORE.INTRA.VDW>
0

>  <SCORE.INTRA.VDW.0>
0

>  <SCORE.INTRA.norm>
0

>  <SCORE.RESTR>
0

>  <SCORE.RESTR.CAVITY>
0

>  <SCORE.RESTR.norm>
0

>  <SCORE.SYSTEM>
0

>  <SCORE.SYSTEM.CONST>
0

>  <SCORE.SYSTEM.DIHEDRAL>
0

>  <SCORE.SYSTEM.SOLV>
0

>  <SCORE.SYSTEM.norm>
0

>  <SCORE.heavy>
13

>  <SCORE.norm>
-0.679843

>  <RMSD>
0.825

$$$$
ligand
 OpenBabel11021811483D
libRbt.so/2013.1/901 2013/11/27
 13 14  0  0  0  0  0  0  0  0999 V2000
   12.8328   43.8858   64.8011 N   0  0  0  0  0  0  0  0  0  0  0  0
   10.9691   43.1838   65.9873 N   0  0  0  0  0  0  0  0  0  0  0  0
   12.2353   43.6392   65.9633 C   0  0  0  0  0  0  0  0  0  0  0  0
   12.9347   43.8435   67.1520 N   0  0  0  0  0  0  0  0  0  0  0  0
   12.2864   43.5768   68.3596 C   0  0  0  0  0  0  0  0  0  0  0  0
   10.9722   43.1207   68.3574 C   0  0  0  0  0  0  0  0  0  0  0  0
   12.8804   43.7403   69.4248 O   0  0  0  0  0  0  0  0  0  0  0  0
   10.3338   42.8117   69.5735 N   0  0  0  0  0  0  0  0  0  0  0  0
    8.9119   42.3694   69.6386 C   0  0  2  0  0  0  0  0  0  0  0  0
    8.5460   41.6489   68.3299 C   0  0  0  0  0  0  0  0  0  0  0  0
   10.3349   42.9131   67.1424 C   0  0  0  0  0  0  0  0  0  0  0  0
    9.0206   42.4307   67.1364 N   0  0  0  0  0  0  0  0  0  0  0  0
    8.0088   43.6260   69.8206 C   0  0  0  0  0  0  0  0  0  0  0  0
  1  3  1  0  0  0  0
  2  3  2  0  0  0  0
  2 11  1  0  0  0  0
  3  4  1  0  0  0  0
  4  5  1  0  0  0  0
  5  6  1  0  0  0  0
  5  7  2  0  0  0  0
  6  8  1  0  0  0  0
  6 11  2  0  0  0  0
  8  9  1  0  0  0  0
  9 10  1  0  0  0  0
  9 13  1  6  0  0  0
 10 12  1  0  0  0  0
 11 12  1  0  0  0  0
M  END
>  <CHROM.1>
10.77719694,43.14356687,67.85832826,0.61620924,-0.30770518,-1.62572513

>  <Name>
ligand

>  <RI>
0

>  <Rbt.Current_Directory>
/home/itssahil/PROJECTS/Mol_Feturizer/New_Systems/rnas/3SUX

>  <Rbt.Executable>
rbdock ($Id: //depot/dev/client3/rdock/2013.1/src/exe/rbdock.cxx#4 $)

>  <Rbt.Library>
libRbt.so (2013.1, Build901 2013/11/27)

>  <Rbt.Parameter_File>
/export/apps/rDock/src/rDock_2013.1_src/data/scripts/dock_solv.prm

>  <Rbt.Receptor>
prm/pocket_docking_2.prm

>  <SCORE>
-8.83647

>  <SCORE.INTER>
-8.83647

>  <SCORE.INTER.CONST>
1

>  <SCORE.INTER.POLAR>
0

>  <SCORE.INTER.ROT>
0

>  <SCORE.INTER.SOLV>
21.6461

>  <SCORE.INTER.VDW>
-16.7064

>  <SCORE.INTER.norm>
-0.679728

>  <SCORE.INTRA>
0

>  <SCORE.INTRA.DIHEDRAL>
0

>  <SCORE.INTRA.DIHEDRAL.0>
0

>  <SCORE.INTRA.POLAR>
0

>  <SCORE.INTRA.POLAR.0>
0

>  <SCORE.INTRA.REPUL>
0

>  <SCORE.INTRA.REPUL.0>
0

>  <SCORE.INTRA.SOLV>
0

>  <SCORE.INTRA.SOLV.lig_0>
-48.6608

>  <SCORE.INTRA.VDW>
0

>  <SCORE.INTRA.VDW.0>
0

>  <SCORE.INTRA.norm>
0

>  <SCORE.RESTR>
0

>  <SCORE.RESTR.CAVITY>
0

>  <SCORE.RESTR.norm>
0

>  <SCORE.SYSTEM>
0

>  <SCORE.SYSTEM.CONST>
0

>  <SCORE.SYSTEM.DIHEDRAL>
0

>  <SCORE.SYSTEM.SOLV>
0

>  <SCORE.SYSTEM.norm>
0

>  <SCORE.heavy>
13

>  <SCORE.norm>
-0.679728

>  <RMSD>
0.826

$$$$
ligand
 OpenBabel11021811483D
libRbt.so/2013.1/901 2013/11/27
 13 14  0  0  0  0  0  0  0  0999 V2000
   12.8425   43.8765   64.7966 N   0  0  0  0  0  0  0  0  0  0  0  0
   10.9785   43.1874   65.9901 N   0  0  0  0  0  0  0  0  0  0  0  0
   12.2435   43.6458   65.9614 C   0  0  0  0  0  0  0  0  0  0  0  0
   12.9402   43.8699   67.1481 N   0  0  0  0  0  0  0  0  0  0  0  0
   12.2905   43.6197   68.3585 C   0  0  0  0  0  0  0  0  0  0  0  0
   10.9776   43.1600   68.3608 C   0  0  0  0  0  0  0  0  0  0  0  0
   12.8822   43.8009   69.4221 O   0  0  0  0  0  0  0  0  0  0  0  0
   10.3378   42.8677   69.5804 N   0  0  0  0  0  0  0  0  0  0  0  0
    8.9171   42.4226   69.6497 C   0  0  2  0  0  0  0  0  0  0  0  0
    8.5554   41.6814   68.3514 C   0  0  0  0  0  0  0  0  0  0  0  0
   10.3430   42.9324   67.1480 C   0  0  0  0  0  0  0  0  0  0  0  0
    9.0300   42.4463   67.1470 N   0  0  0  0  0  0  0  0  0  0  0  0
    8.0102   43.6792   69.8112 C   0  0  0  0  0  0  0  0  0  0  0  0
  1  3  1  0  0  0  0
  2  3  2  0  0  0  0
  2 11  1  0  0  0  0
  3  4  1  0  0  0  0
  4  5  1  0  0  0  0
  5  6  1  0  0  0  0
  5  7  2  0  0  0  0
  6  8  1  0  0  0  0
  6 11  2  0  0  0  0
  8  9  1  0  0  0  0
  9 10  1  0  0  0  0
  9 13  1  6  0  0  0
 10 12  1  0  0  0  0
 11 12  1  0  0  0  0
M  END
>  <CHROM.1>
10.78340835,43.17485410,67.86119109,0.61419241,-0.31032199,-1.64142747

>  <Name>
ligand

>  <RI>
0

>  <Rbt.Current_Directory>
/home/itssahil/PROJECTS/Mol_Feturizer/New_Systems/rnas/3SUX

>  <Rbt.Executable>
rbdock ($Id: //depot/dev/client3/rdock/2013.1/src/exe/rbdock.cxx#4 $)

>  <Rbt.Library>
libRbt.so (2013.1, Build901 2013/11/27)

>  <Rbt.Parameter_File>
/export/apps/rDock/src/rDock_2013.1_src/data/scripts/dock_solv.prm

>  <Rbt.Receptor>
prm/pocket_docking_3.prm

>  <SCORE>
-8.84613

>  <SCORE.INTER>
-8.84613

>  <SCORE.INTER.CONST>
1

>  <SCORE.INTER.POLAR>
0

>  <SCORE.INTER.ROT>
0

>  <SCORE.INTER.SOLV>
21.6181

>  <SCORE.INTER.VDW>
-16.7035

>  <SCORE.INTER.norm>
-0.680472

>  <SCORE.INTRA>
0

>  <SCORE.INTRA.DIHEDRAL>
0

>  <SCORE.INTRA.DIHEDRAL.0>
0

>  <SCORE.INTRA.POLAR>
0

>  <SCORE.INTRA.POLAR.0>
0

>  <SCORE.INTRA.REPUL>
0

>  <SCORE.INTRA.REPUL.0>
0

>  <SCORE.INTRA.SOLV>
0

>  <SCORE.INTRA.SOLV.lig_0>
-48.6608

>  <SCORE.INTRA.VDW>
0

>  <SCORE.INTRA.VDW.0>
0

>  <SCORE.INTRA.norm>
0

>  <SCORE.RESTR>
0

>  <SCORE.RESTR.CAVITY>
0

>  <SCORE.RESTR.norm>
0

>  <SCORE.SYSTEM>
0

>  <SCORE.SYSTEM.CONST>
0

>  <SCORE.SYSTEM.DIHEDRAL>
0

>  <SCORE.SYSTEM.SOLV>
0

>  <SCORE.SYSTEM.norm>
0

>  <SCORE.heavy>
13

>  <SCORE.norm>
-0.680472

>  <RMSD>
0.826

$$$$
ligand
 OpenBabel11021811483D
libRbt.so/2013.1/901 2013/11/27
 13 14  0  0  0  0  0  0  0  0999 V2000
   12.8330   43.8750   64.7911 N   0  0  0  0  0  0  0  0  0  0  0  0
   10.9713   43.1876   65.9891 N   0  0  0  0  0  0  0  0  0  0  0  0
   12.2368   43.6446   65.9573 C   0  0  0  0  0  0  0  0  0  0  0  0
   12.9368   43.8673   67.1423 N   0  0  0  0  0  0  0  0  0  0  0  0
   12.2900   43.6174   68.3543 C   0  0  0  0  0  0  0  0  0  0  0  0
   10.9765   43.1593   68.3598 C   0  0  0  0  0  0  0  0  0  0  0  0
   12.8846   43.7974   69.4164 O   0  0  0  0  0  0  0  0  0  0  0  0
   10.3395   42.8672   69.5808 N   0  0  0  0  0  0  0  0  0  0  0  0
    8.9184   42.4238   69.6536 C   0  0  2  0  0  0  0  0  0  0  0  0
    8.5525   41.6836   68.3559 C   0  0  0  0  0  0  0  0  0  0  0  0
   10.3385   42.9329   67.1485 C   0  0  0  0  0  0  0  0  0  0  0  0
    9.0249   42.4485   67.1507 N   0  0  0  0  0  0  0  0  0  0  0  0
    8.0135   43.6814   69.8179 C   0  0  0  0  0  0  0  0  0  0  0  0
  1  3  1  0  0  0  0
  2  3  2  0  0  0  0
  2 11  1  0  0  0  0
  3  4  1  0  0  0  0
  4  5  1  0  0  0  0
  5  6  1  0  0  0  0
  5  7  2  0  0  0  0
  6  8  1  0  0  0  0
  6 11  2  0  0  0  0
  8  9  1  0  0  0  0
  9 10  1  0  0  0  0
  9 13  1  6  0  0  0
 10 12  1  0  0  0  0
 11 12  1  0  0  0  0
M  END
>  <CHROM.1>
10.78102732,43.17454935,67.86061610,0.61697677,-0.30928567,-1.64015270

>  <Name>
ligand

>  <RI>
0

>  <Rbt.Current_Directory>
/home/itssahil/PROJECTS/Mol_Feturizer/New_Systems/rnas/3SUX

>  <Rbt.Executable>
rbdock ($Id: //depot/dev/client3/rdock/2013.1/src/exe/rbdock.cxx#4 $)

>  <Rbt.Library>
libRbt.so (2013.1, Build901 2013/11/27)

>  <Rbt.Parameter_File>
/export/apps/rDock/src/rDock_2013.1_src/data/scripts/dock_solv.prm

>  <Rbt.Receptor>
prm/pocket_docking_3.prm

>  <SCORE>
-8.85319

>  <SCORE.INTER>
-8.85319

>  <SCORE.INTER.CONST>
1

>  <SCORE.INTER.POLAR>
0

>  <SCORE.INTER.ROT>
0

>  <SCORE.INTER.SOLV>
21.6106

>  <SCORE.INTER.VDW>
-16.7057

>  <SCORE.INTER.norm>
-0.681015

>  <SCORE.INTRA>
0

>  <SCORE.INTRA.DIHEDRAL>
0

>  <SCORE.INTRA.DIHEDRAL.0>
0

>  <SCORE.INTRA.POLAR>
0

>  <SCORE.INTRA.POLAR.0>
0

>  <SCORE.INTRA.REPUL>
0

>  <SCORE.INTRA.REPUL.0>
0

>  <SCORE.INTRA.SOLV>
0

>  <SCORE.INTRA.SOLV.lig_0>
-48.6608

>  <SCORE.INTRA.VDW>
0

>  <SCORE.INTRA.VDW.0>
0

>  <SCORE.INTRA.norm>
0

>  <SCORE.RESTR>
0

>  <SCORE.RESTR.CAVITY>
0

>  <SCORE.RESTR.norm>
0

>  <SCORE.SYSTEM>
0

>  <SCORE.SYSTEM.CONST>
0

>  <SCORE.SYSTEM.DIHEDRAL>
0

>  <SCORE.SYSTEM.SOLV>
0

>  <SCORE.SYSTEM.norm>
0

>  <SCORE.heavy>
13

>  <SCORE.norm>
-0.681015

>  <RMSD>
0.826

$$$$
ligand
 OpenBabel11021811483D
libRbt.so/2013.1/901 2013/11/27
 13 14  0  0  0  0  0  0  0  0999 V2000
   12.8335   43.8766   64.7895 N   0  0  0  0  0  0  0  0  0  0  0  0
   10.9722   43.1929   65.9903 N   0  0  0  0  0  0  0  0  0  0  0  0
   12.2387   43.6469   65.9566 C   0  0  0  0  0  0  0  0  0  0  0  0
   12.9413   43.8675   67.1405 N   0  0  0  0  0  0  0  0  0  0  0  0
   12.2960   43.6185   68.3535 C   0  0  0  0  0  0  0  0  0  0  0  0
   10.9814   43.1634   68.3610 C   0  0  0  0  0  0  0  0  0  0  0  0
   12.8928   43.7966   69.4147 O   0  0  0  0  0  0  0  0  0  0  0  0
   10.3459   42.8722   69.5830 N   0  0  0  0  0  0  0  0  0  0  0  0
    8.9238   42.4320   69.6580 C   0  0  2  0  0  0  0  0  0  0  0  0
    8.5540   41.6933   68.3606 C   0  0  0  0  0  0  0  0  0  0  0  0
   10.3408   42.9391   67.1507 C   0  0  0  0  0  0  0  0  0  0  0  0
    9.0261   42.4577   67.1549 N   0  0  0  0  0  0  0  0  0  0  0  0
    8.0222   43.6916   69.8245 C   0  0  0  0  0  0  0  0  0  0  0  0
  1  3  1  0  0  0  0
  2  3  2  0  0  0  0
  2 11  1  0  0  0  0
  3  4  1  0  0  0  0
  4  5  1  0  0  0  0
  5  6  1  0  0  0  0
  5  7  2  0  0  0  0
  6  8  1  0  0  0  0
  6 11  2  0  0  0  0
  8  9  1  0  0  0  0
  9 10  1  0  0  0  0
  9 13  1  6  0  0  0
 10 12  1  0  0  0  0
 11 12  1  0  0  0  0
M  END
>  <CHROM.1>
10.78514580,43.17935872,67.86220767,0.61894491,-0.30710482,-1.63906106

>  <Name>
ligand

>  <RI>
0

>  <Rbt.Current_Directory>
/home/itssahil/PROJECTS/Mol_Feturizer/New_Systems/rnas/3SUX

>  <Rbt.Executable>
rbdock ($Id: //depot/dev/client3/rdock/2013.1/src/exe/rbdock.cxx#4 $)

>  <Rbt.Library>
libRbt.so (2013.1, Build901 2013/11/27)

>  <Rbt.Parameter_File>
/export/apps/rDock/src/rDock_2013.1_src/data/scripts/dock_solv.prm

>  <Rbt.Receptor>
prm/pocket_docking_4.prm

>  <SCORE>
-8.85506

>  <SCORE.INTER>
-8.85506

>  <SCORE.INTER.CONST>
1

>  <SCORE.INTER.POLAR>
0

>  <SCORE.INTER.ROT>
0

>  <SCORE.INTER.SOLV>
21.6131

>  <SCORE.INTER.VDW>
-16.7077

>  <SCORE.INTER.norm>
-0.681158

>  <SCORE.INTRA>
0

>  <SCORE.INTRA.DIHEDRAL>
0

>  <SCORE.INTRA.DIHEDRAL.0>
0

>  <SCORE.INTRA.POLAR>
0

>  <SCORE.INTRA.POLAR.0>
0

>  <SCORE.INTRA.REPUL>
0

>  <SCORE.INTRA.REPUL.0>
0

>  <SCORE.INTRA.SOLV>
0

>  <SCORE.INTRA.SOLV.lig_0>
-48.6608

>  <SCORE.INTRA.VDW>
0

>  <SCORE.INTRA.VDW.0>
0

>  <SCORE.INTRA.norm>
0

>  <SCORE.RESTR>
0

>  <SCORE.RESTR.CAVITY>
0

>  <SCORE.RESTR.norm>
0

>  <SCORE.SYSTEM>
0

>  <SCORE.SYSTEM.CONST>
0

>  <SCORE.SYSTEM.DIHEDRAL>
0

>  <SCORE.SYSTEM.SOLV>
0

>  <SCORE.SYSTEM.norm>
0

>  <SCORE.heavy>
13

>  <SCORE.norm>
-0.681158

>  <RMSD>
0.827

$$$$
ligand
 OpenBabel11021811483D
libRbt.so/2013.1/901 2013/11/27
 13 14  0  0  0  0  0  0  0  0999 V2000
   12.8395   43.8753   64.7880 N   0  0  0  0  0  0  0  0  0  0  0  0
   10.9776   43.1926   65.9883 N   0  0  0  0  0  0  0  0  0  0  0  0
   12.2447   43.6448   65.9549 C   0  0  0  0  0  0  0  0  0  0  0  0
   12.9479   43.8626   67.1390 N   0  0  0  0  0  0  0  0  0  0  0  0
   12.3025   43.6128   68.3517 C   0  0  0  0  0  0  0  0  0  0  0  0
   10.9874   43.1596   68.3590 C   0  0  0  0  0  0  0  0  0  0  0  0
   12.8999   43.7885   69.4130 O   0  0  0  0  0  0  0  0  0  0  0  0
   10.3517   42.8676   69.5807 N   0  0  0  0  0  0  0  0  0  0  0  0
    8.9290   42.4293   69.6554 C   0  0  2  0  0  0  0  0  0  0  0  0
    8.5578   41.6930   68.3570 C   0  0  0  0  0  0  0  0  0  0  0  0
   10.3461   42.9380   67.1485 C   0  0  0  0  0  0  0  0  0  0  0  0
    9.0307   42.4585   67.1524 N   0  0  0  0  0  0  0  0  0  0  0  0
    8.0292   43.6901   69.8240 C   0  0  0  0  0  0  0  0  0  0  0  0
  1  3  1  0  0  0  0
  2  3  2  0  0  0  0
  2 11  1  0  0  0  0
  3  4  1  0  0  0  0
  4  5  1  0  0  0  0
  5  6  1  0  0  0  0
  5  7  2  0  0  0  0
  6  8  1  0  0  0  0
  6 11  2  0  0  0  0
  8  9  1  0  0  0  0
  9 10  1  0  0  0  0
  9 13  1  6  0  0  0
 10 12  1  0  0  0  0
 11 12  1  0  0  0  0
M  END
>  <CHROM.1>
10.79095478,43.17658531,67.86022788,0.61931185,-0.30567779,-1.63751606

>  <Name>
ligand

>  <RI>
0

>  <Rbt.Current_Directory>
/home/itssahil/PROJECTS/Mol_Feturizer/New_Systems/rnas/3SUX

>  <Rbt.Executable>
rbdock ($Id: //depot/dev/client3/rdock/2013.1/src/exe/rbdock.cxx#4 $)

>  <Rbt.Library>
libRbt.so (2013.1, Build901 2013/11/27)

>  <Rbt.Parameter_File>
/export/apps/rDock/src/rDock_2013.1_src/data/scripts/dock_solv.prm

>  <Rbt.Receptor>
prm/pocket_docking_2.prm

>  <SCORE>
-8.85567

>  <SCORE.INTER>
-8.85567

>  <SCORE.INTER.CONST>
1

>  <SCORE.INTER.POLAR>
0

>  <SCORE.INTER.ROT>
0

>  <SCORE.INTER.SOLV>
21.6282

>  <SCORE.INTER.VDW>
-16.7132

>  <SCORE.INTER.norm>
-0.681205

>  <SCORE.INTRA>
0

>  <SCORE.INTRA.DIHEDRAL>
0

>  <SCORE.INTRA.DIHEDRAL.0>
0

>  <SCORE.INTRA.POLAR>
0

>  <SCORE.INTRA.POLAR.0>
0

>  <SCORE.INTRA.REPUL>
0

>  <SCORE.INTRA.REPUL.0>
0

>  <SCORE.INTRA.SOLV>
0

>  <SCORE.INTRA.SOLV.lig_0>
-48.6608

>  <SCORE.INTRA.VDW>
0

>  <SCORE.INTRA.VDW.0>
0

>  <SCORE.INTRA.norm>
0

>  <SCORE.RESTR>
0

>  <SCORE.RESTR.CAVITY>
0

>  <SCORE.RESTR.norm>
0

>  <SCORE.SYSTEM>
0

>  <SCORE.SYSTEM.CONST>
0

>  <SCORE.SYSTEM.DIHEDRAL>
0

>  <SCORE.SYSTEM.SOLV>
0

>  <SCORE.SYSTEM.norm>
0

>  <SCORE.heavy>
13

>  <SCORE.norm>
-0.681205

>  <RMSD>
0.829

$$$$
ligand
 OpenBabel11021811483D
libRbt.so/2013.1/901 2013/11/27
 13 14  0  0  0  0  0  0  0  0999 V2000
   12.8341   43.8751   64.7899 N   0  0  0  0  0  0  0  0  0  0  0  0
   10.9720   43.1936   65.9907 N   0  0  0  0  0  0  0  0  0  0  0  0
   12.2393   43.6452   65.9570 C   0  0  0  0  0  0  0  0  0  0  0  0
   12.9428   43.8632   67.1409 N   0  0  0  0  0  0  0  0  0  0  0  0
   12.2974   43.6140   68.3538 C   0  0  0  0  0  0  0  0  0  0  0  0
   10.9821   43.1614   68.3613 C   0  0  0  0  0  0  0  0  0  0  0  0
   12.8951   43.7898   69.4150 O   0  0  0  0  0  0  0  0  0  0  0  0
   10.3464   42.8701   69.5833 N   0  0  0  0  0  0  0  0  0  0  0  0
    8.9236   42.4325   69.6583 C   0  0  2  0  0  0  0  0  0  0  0  0
    8.5519   41.6959   68.3602 C   0  0  0  0  0  0  0  0  0  0  0  0
   10.3405   42.9397   67.1510 C   0  0  0  0  0  0  0  0  0  0  0  0
    9.0250   42.4608   67.1553 N   0  0  0  0  0  0  0  0  0  0  0  0
    8.0244   43.6937   69.8266 C   0  0  0  0  0  0  0  0  0  0  0  0
  1  3  1  0  0  0  0
  2  3  2  0  0  0  0
  2 11  1  0  0  0  0
  3  4  1  0  0  0  0
  4  5  1  0  0  0  0
  5  6  1  0  0  0  0
  5  7  2  0  0  0  0
  6  8  1  0  0  0  0
  6 11  2  0  0  0  0
  8  9  1  0  0  0  0
  9 10  1  0  0  0  0
  9 13  1  6  0  0  0
 10 12  1  0  0  0  0
 11 12  1  0  0  0  0
M  END
>  <CHROM.1>
10.78561893,43.17831762,67.86263680,0.61948690,-0.30523280,-1.63779962

>  <Name>
ligand

>  <RI>
0

>  <Rbt.Current_Directory>
/home/itssahil/PROJECTS/Mol_Feturizer/New_Systems/rnas/3SUX

>  <Rbt.Executable>
rbdock ($Id: //depot/dev/client3/rdock/2013.1/src/exe/rbdock.cxx#4 $)

>  <Rbt.Library>
libRbt.so (2013.1, Build901 2013/11/27)

>  <Rbt.Parameter_File>
/export/apps/rDock/src/rDock_2013.1_src/data/scripts/dock_solv.prm

>  <Rbt.Receptor>
prm/pocket_docking_3.prm

>  <SCORE>
-8.8574

>  <SCORE.INTER>
-8.8574

>  <SCORE.INTER.CONST>
1

>  <SCORE.INTER.POLAR>
0

>  <SCORE.INTER.ROT>
0

>  <SCORE.INTER.SOLV>
21.6191

>  <SCORE.INTER.VDW>
-16.7113

>  <SCORE.INTER.norm>
-0.681338

>  <SCORE.INTRA>
0

>  <SCORE.INTRA.DIHEDRAL>
0

>  <SCORE.INTRA.DIHEDRAL.0>
0

>  <SCORE.INTRA.POLAR>
0

>  <SCORE.INTRA.POLAR.0>
0

>  <SCORE.INTRA.REPUL>
0

>  <SCORE.INTRA.REPUL.0>
0

>  <SCORE.INTRA.SOLV>
0

>  <SCORE.INTRA.SOLV.lig_0>
-48.6608

>  <SCORE.INTRA.VDW>
0

>  <SCORE.INTRA.VDW.0>
0

>  <SCORE.INTRA.norm>
0

>  <SCORE.RESTR>
0

>  <SCORE.RESTR.CAVITY>
0

>  <SCORE.RESTR.norm>
0

>  <SCORE.SYSTEM>
0

>  <SCORE.SYSTEM.CONST>
0

>  <SCORE.SYSTEM.DIHEDRAL>
0

>  <SCORE.SYSTEM.SOLV>
0

>  <SCORE.SYSTEM.norm>
0

>  <SCORE.heavy>
13

>  <SCORE.norm>
-0.681338

>  <RMSD>
0.829

$$$$
ligand
 OpenBabel11021811483D
libRbt.so/2013.1/901 2013/11/27
 13 14  0  0  0  0  0  0  0  0999 V2000
   12.8315   43.8752   64.7894 N   0  0  0  0  0  0  0  0  0  0  0  0
   10.9697   43.1943   65.9910 N   0  0  0  0  0  0  0  0  0  0  0  0
   12.2370   43.6460   65.9568 C   0  0  0  0  0  0  0  0  0  0  0  0
   12.9407   43.8645   67.1404 N   0  0  0  0  0  0  0  0  0  0  0  0
   12.2956   43.6160   68.3536 C   0  0  0  0  0  0  0  0  0  0  0  0
   10.9803   43.1634   68.3616 C   0  0  0  0  0  0  0  0  0  0  0  0
   12.8934   43.7923   69.4145 O   0  0  0  0  0  0  0  0  0  0  0  0
   10.3449   42.8726   69.5839 N   0  0  0  0  0  0  0  0  0  0  0  0
    8.9221   42.4350   69.6594 C   0  0  2  0  0  0  0  0  0  0  0  0
    8.5501   41.6978   68.3618 C   0  0  0  0  0  0  0  0  0  0  0  0
   10.3385   42.9410   67.1516 C   0  0  0  0  0  0  0  0  0  0  0  0
    9.0229   42.4620   67.1563 N   0  0  0  0  0  0  0  0  0  0  0  0
    8.0228   43.6962   69.8272 C   0  0  0  0  0  0  0  0  0  0  0  0
  1  3  1  0  0  0  0
  2  3  2  0  0  0  0
  2 11  1  0  0  0  0
  3  4  1  0  0  0  0
  4  5  1  0  0  0  0
  5  6  1  0  0  0  0
  5  7  2  0  0  0  0
  6  8  1  0  0  0  0
  6 11  2  0  0  0  0
  8  9  1  0  0  0  0
  9 10  1  0  0  0  0
  9 13  1  6  0  0  0
 10 12  1  0  0  0  0
 11 12  1  0  0  0  0
M  END
>  <CHROM.1>
10.78368460,43.17997000,67.86296000,0.61970607,-0.30528634,-1.63824270

>  <Name>
ligand

>  <RI>
0

>  <Rbt.Current_Directory>
/home/itssahil/PROJECTS/Mol_Feturizer/New_Systems/rnas/3SUX

>  <Rbt.Executable>
rbdock ($Id: //depot/dev/client3/rdock/2013.1/src/exe/rbdock.cxx#4 $)

>  <Rbt.Library>
libRbt.so (2013.1, Build901 2013/11/27)

>  <Rbt.Parameter_File>
/export/apps/rDock/src/rDock_2013.1_src/data/scripts/dock_solv.prm

>  <Rbt.Receptor>
prm/pocket_docking_3.prm

>  <SCORE>
-8.8571

>  <SCORE.INTER>
-8.8571

>  <SCORE.INTER.CONST>
1

>  <SCORE.INTER.POLAR>
0

>  <SCORE.INTER.ROT>
0

>  <SCORE.INTER.SOLV>
21.6162

>  <SCORE.INTER.VDW>
-16.7101

>  <SCORE.INTER.norm>
-0.681316

>  <SCORE.INTRA>
0

>  <SCORE.INTRA.DIHEDRAL>
0

>  <SCORE.INTRA.DIHEDRAL.0>
0

>  <SCORE.INTRA.POLAR>
0

>  <SCORE.INTRA.POLAR.0>
0

>  <SCORE.INTRA.REPUL>
0

>  <SCORE.INTRA.REPUL.0>
0

>  <SCORE.INTRA.SOLV>
0

>  <SCORE.INTRA.SOLV.lig_0>
-48.6608

>  <SCORE.INTRA.VDW>
0

>  <SCORE.INTRA.VDW.0>
0

>  <SCORE.INTRA.norm>
0

>  <SCORE.RESTR>
0

>  <SCORE.RESTR.CAVITY>
0

>  <SCORE.RESTR.norm>
0

>  <SCORE.SYSTEM>
0

>  <SCORE.SYSTEM.CONST>
0

>  <SCORE.SYSTEM.DIHEDRAL>
0

>  <SCORE.SYSTEM.SOLV>
0

>  <SCORE.SYSTEM.norm>
0

>  <SCORE.heavy>
13

>  <SCORE.norm>
-0.681316

>  <RMSD>
0.829

$$$$
ligand
 OpenBabel11021811483D
libRbt.so/2013.1/901 2013/11/27
 13 14  0  0  0  0  0  0  0  0999 V2000
   12.8350   43.8753   64.7884 N   0  0  0  0  0  0  0  0  0  0  0  0
   10.9729   43.1923   65.9884 N   0  0  0  0  0  0  0  0  0  0  0  0
   12.2399   43.6448   65.9552 C   0  0  0  0  0  0  0  0  0  0  0  0
   12.9429   43.8629   67.1394 N   0  0  0  0  0  0  0  0  0  0  0  0
   12.2973   43.6130   68.3520 C   0  0  0  0  0  0  0  0  0  0  0  0
   10.9822   43.1596   68.3590 C   0  0  0  0  0  0  0  0  0  0  0  0
   12.8944   43.7889   69.4135 O   0  0  0  0  0  0  0  0  0  0  0  0
   10.3463   42.8675   69.5807 N   0  0  0  0  0  0  0  0  0  0  0  0
    8.9237   42.4289   69.6551 C   0  0  2  0  0  0  0  0  0  0  0  0
    8.5530   41.6925   68.3567 C   0  0  0  0  0  0  0  0  0  0  0  0
   10.3412   42.9377   67.1484 C   0  0  0  0  0  0  0  0  0  0  0  0
    9.0260   42.4579   67.1521 N   0  0  0  0  0  0  0  0  0  0  0  0
    8.0236   43.6895   69.8234 C   0  0  0  0  0  0  0  0  0  0  0  0
  1  3  1  0  0  0  0
  2  3  2  0  0  0  0
  2 11  1  0  0  0  0
  3  4  1  0  0  0  0
  4  5  1  0  0  0  0
  5  6  1  0  0  0  0
  5  7  2  0  0  0  0
  6  8  1  0  0  0  0
  6 11  2  0  0  0  0
  8  9  1  0  0  0  0
  9 10  1  0  0  0  0
  9 13  1  6  0  0  0
 10 12  1  0  0  0  0
 11 12  1  0  0  0  0
M  END
>  <CHROM.1>
10.78588925,43.17643466,67.86025127,0.61907864,-0.30587273,-1.63766251

>  <Name>
ligand

>  <RI>
0

>  <Rbt.Current_Directory>
/home/itssahil/PROJECTS/Mol_Feturizer/New_Systems/rnas/3SUX

>  <Rbt.Executable>
rbdock ($Id: //depot/dev/client3/rdock/2013.1/src/exe/rbdock.cxx#4 $)

>  <Rbt.Library>
libRbt.so (2013.1, Build901 2013/11/27)

>  <Rbt.Parameter_File>
/export/apps/rDock/src/rDock_2013.1_src/data/scripts/dock_solv.prm

>  <Rbt.Receptor>
prm/pocket_docking_3.prm

>  <SCORE>
-8.85602

>  <SCORE.INTER>
-8.85602

>  <SCORE.INTER.CONST>
1

>  <SCORE.INTER.POLAR>
0

>  <SCORE.INTER.ROT>
0

>  <SCORE.INTER.SOLV>
21.6264

>  <SCORE.INTER.VDW>
-16.7128

>  <SCORE.INTER.norm>
-0.681233

>  <SCORE.INTRA>
0

>  <SCORE.INTRA.DIHEDRAL>
0

>  <SCORE.INTRA.DIHEDRAL.0>
0

>  <SCORE.INTRA.POLAR>
0

>  <SCORE.INTRA.POLAR.0>
0

>  <SCORE.INTRA.REPUL>
0

>  <SCORE.INTRA.REPUL.0>
0

>  <SCORE.INTRA.SOLV>
0

>  <SCORE.INTRA.SOLV.lig_0>
-48.6608

>  <SCORE.INTRA.VDW>
0

>  <SCORE.INTRA.VDW.0>
0

>  <SCORE.INTRA.norm>
0

>  <SCORE.RESTR>
0

>  <SCORE.RESTR.CAVITY>
0

>  <SCORE.RESTR.norm>
0

>  <SCORE.SYSTEM>
0

>  <SCORE.SYSTEM.CONST>
0

>  <SCORE.SYSTEM.DIHEDRAL>
0

>  <SCORE.SYSTEM.SOLV>
0

>  <SCORE.SYSTEM.norm>
0

>  <SCORE.heavy>
13

>  <SCORE.norm>
-0.681233

>  <RMSD>
0.829

$$$$
ligand
 OpenBabel11021811483D
libRbt.so/2013.1/901 2013/11/27
 13 14  0  0  0  0  0  0  0  0999 V2000
   12.8390   43.8330   64.7992 N   0  0  0  0  0  0  0  0  0  0  0  0
   10.9695   43.1690   65.9983 N   0  0  0  0  0  0  0  0  0  0  0  0
   12.2387   43.6156   65.9658 C   0  0  0  0  0  0  0  0  0  0  0  0
   12.9382   43.8411   67.1506 N   0  0  0  0  0  0  0  0  0  0  0  0
   12.2870   43.6050   68.3630 C   0  0  0  0  0  0  0  0  0  0  0  0
   10.9699   43.1575   68.3692 C   0  0  0  0  0  0  0  0  0  0  0  0
   12.8810   43.7877   69.4251 O   0  0  0  0  0  0  0  0  0  0  0  0
   10.3282   42.8792   69.5910 N   0  0  0  0  0  0  0  0  0  0  0  0
    8.9034   42.4476   69.6640 C   0  0  2  0  0  0  0  0  0  0  0  0
    8.5341   41.7012   68.3709 C   0  0  0  0  0  0  0  0  0  0  0  0
   10.3324   42.9276   67.1582 C   0  0  0  0  0  0  0  0  0  0  0  0
    9.0150   42.4537   67.1612 N   0  0  0  0  0  0  0  0  0  0  0  0
    8.0083   43.7136   69.8177 C   0  0  0  0  0  0  0  0  0  0  0  0
  1  3  1  0  0  0  0
  2  3  2  0  0  0  0
  2 11  1  0  0  0  0
  3  4  1  0  0  0  0
  4  5  1  0  0  0  0
  5  6  1  0  0  0  0
  5  7  2  0  0  0  0
  6  8  1  0  0  0  0
  6 11  2  0  0  0  0
  8  9  1  0  0  0  0
  9 10  1  0  0  0  0
  9 13  1  6  0  0  0
 10 12  1  0  0  0  0
 11 12  1  0  0  0  0
M  END
>  <CHROM.1>
10.77550738,43.17073789,67.86953082,0.61552533,-0.30114624,-1.64767146

>  <Name>
ligand

>  <RI>
0

>  <Rbt.Current_Directory>
/home/itssahil/PROJECTS/Mol_Feturizer/New_Systems/rnas/3SUX

>  <Rbt.Executable>
rbdock ($Id: //depot/dev/client3/rdock/2013.1/src/exe/rbdock.cxx#4 $)

>  <Rbt.Library>
libRbt.so (2013.1, Build901 2013/11/27)

>  <Rbt.Parameter_File>
/export/apps/rDock/src/rDock_2013.1_src/data/scripts/dock_solv.prm

>  <Rbt.Receptor>
prm/pocket_docking_4.prm

>  <SCORE>
-8.78918

>  <SCORE.INTER>
-8.78918

>  <SCORE.INTER.CONST>
1

>  <SCORE.INTER.POLAR>
0

>  <SCORE.INTER.ROT>
0

>  <SCORE.INTER.SOLV>
21.6068

>  <SCORE.INTER.VDW>
-16.6617

>  <SCORE.INTER.norm>
-0.676091

>  <SCORE.INTRA>
0

>  <SCORE.INTRA.DIHEDRAL>
0

>  <SCORE.INTRA.DIHEDRAL.0>
0

>  <SCORE.INTRA.POLAR>
0

>  <SCORE.INTRA.POLAR.0>
0

>  <SCORE.INTRA.REPUL>
0

>  <SCORE.INTRA.REPUL.0>
0

>  <SCORE.INTRA.SOLV>
0

>  <SCORE.INTRA.SOLV.lig_0>
-48.6608

>  <SCORE.INTRA.VDW>
0

>  <SCORE.INTRA.VDW.0>
0

>  <SCORE.INTRA.norm>
0

>  <SCORE.RESTR>
0

>  <SCORE.RESTR.CAVITY>
0

>  <SCORE.RESTR.norm>
0

>  <SCORE.SYSTEM>
0

>  <SCORE.SYSTEM.CONST>
0

>  <SCORE.SYSTEM.DIHEDRAL>
0

>  <SCORE.SYSTEM.SOLV>
0

>  <SCORE.SYSTEM.norm>
0

>  <SCORE.heavy>
13

>  <SCORE.norm>
-0.676091

>  <RMSD>
0.829

$$$$
ligand
 OpenBabel11021811483D
libRbt.so/2013.1/901 2013/11/27
 13 14  0  0  0  0  0  0  0  0999 V2000
   12.8375   43.8757   64.7940 N   0  0  0  0  0  0  0  0  0  0  0  0
   10.9732   43.1915   65.9899 N   0  0  0  0  0  0  0  0  0  0  0  0
   12.2399   43.6451   65.9595 C   0  0  0  0  0  0  0  0  0  0  0  0
   12.9399   43.8641   67.1452 N   0  0  0  0  0  0  0  0  0  0  0  0
   12.2917   43.6141   68.3564 C   0  0  0  0  0  0  0  0  0  0  0  0
   10.9770   43.1595   68.3605 C   0  0  0  0  0  0  0  0  0  0  0  0
   12.8862   43.7909   69.4192 O   0  0  0  0  0  0  0  0  0  0  0  0
   10.3385   42.8673   69.5808 N   0  0  0  0  0  0  0  0  0  0  0  0
    8.9162   42.4276   69.6521 C   0  0  2  0  0  0  0  0  0  0  0  0
    8.5490   41.6904   68.3530 C   0  0  0  0  0  0  0  0  0  0  0  0
   10.3390   42.9367   67.1485 C   0  0  0  0  0  0  0  0  0  0  0  0
    9.0242   42.4558   67.1493 N   0  0  0  0  0  0  0  0  0  0  0  0
    8.0146   43.6874   69.8179 C   0  0  0  0  0  0  0  0  0  0  0  0
  1  3  1  0  0  0  0
  2  3  2  0  0  0  0
  2 11  1  0  0  0  0
  3  4  1  0  0  0  0
  4  5  1  0  0  0  0
  5  6  1  0  0  0  0
  5  7  2  0  0  0  0
  6  8  1  0  0  0  0
  6 11  2  0  0  0  0
  8  9  1  0  0  0  0
  9 10  1  0  0  0  0
  9 13  1  6  0  0  0
 10 12  1  0  0  0  0
 11 12  1  0  0  0  0
M  END
>  <CHROM.1>
10.78186165,43.17608143,67.86129504,0.61659084,-0.30655543,-1.63874102

>  <Name>
ligand

>  <RI>
0

>  <Rbt.Current_Directory>
/home/itssahil/PROJECTS/Mol_Feturizer/New_Systems/rnas/3SUX

>  <Rbt.Executable>
rbdock ($Id: //depot/dev/client3/rdock/2013.1/src/exe/rbdock.cxx#4 $)

>  <Rbt.Library>
libRbt.so (2013.1, Build901 2013/11/27)

>  <Rbt.Parameter_File>
/export/apps/rDock/src/rDock_2013.1_src/data/scripts/dock_solv.prm

>  <Rbt.Receptor>
prm/pocket_docking_4.prm

>  <SCORE>
-8.85258

>  <SCORE.INTER>
-8.85258

>  <SCORE.INTER.CONST>
1

>  <SCORE.INTER.POLAR>
0

>  <SCORE.INTER.ROT>
0

>  <SCORE.INTER.SOLV>
21.6292

>  <SCORE.INTER.VDW>
-16.7114

>  <SCORE.INTER.norm>
-0.680968

>  <SCORE.INTRA>
0

>  <SCORE.INTRA.DIHEDRAL>
0

>  <SCORE.INTRA.DIHEDRAL.0>
0

>  <SCORE.INTRA.POLAR>
0

>  <SCORE.INTRA.POLAR.0>
0

>  <SCORE.INTRA.REPUL>
0

>  <SCORE.INTRA.REPUL.0>
0

>  <SCORE.INTRA.SOLV>
0

>  <SCORE.INTRA.SOLV.lig_0>
-48.6608

>  <SCORE.INTRA.VDW>
0

>  <SCORE.INTRA.VDW.0>
0

>  <SCORE.INTRA.norm>
0

>  <SCORE.RESTR>
0

>  <SCORE.RESTR.CAVITY>
0

>  <SCORE.RESTR.norm>
0

>  <SCORE.SYSTEM>
0

>  <SCORE.SYSTEM.CONST>
0

>  <SCORE.SYSTEM.DIHEDRAL>
0

>  <SCORE.SYSTEM.SOLV>
0

>  <SCORE.SYSTEM.norm>
0

>  <SCORE.heavy>
13

>  <SCORE.norm>
-0.680968

>  <RMSD>
0.829

$$$$
ligand
 OpenBabel11021811483D
libRbt.so/2013.1/901 2013/11/27
 13 14  0  0  0  0  0  0  0  0999 V2000
   12.7756   43.8740   64.7760 N   0  0  0  0  0  0  0  0  0  0  0  0
   10.9199   43.1819   65.9805 N   0  0  0  0  0  0  0  0  0  0  0  0
   12.1862   43.6363   65.9442 C   0  0  0  0  0  0  0  0  0  0  0  0
   12.8941   43.8488   67.1264 N   0  0  0  0  0  0  0  0  0  0  0  0
   12.2543   43.5913   68.3405 C   0  0  0  0  0  0  0  0  0  0  0  0
   10.9399   43.1361   68.3509 C   0  0  0  0  0  0  0  0  0  0  0  0
   12.8560   43.7622   69.4002 O   0  0  0  0  0  0  0  0  0  0  0  0
   10.3099   42.8364   69.5738 N   0  0  0  0  0  0  0  0  0  0  0  0
    8.8882   42.3955   69.6522 C   0  0  2  0  0  0  0  0  0  0  0  0
    8.5126   41.6658   68.3514 C   0  0  0  0  0  0  0  0  0  0  0  0
   10.2938   42.9201   67.1420 C   0  0  0  0  0  0  0  0  0  0  0  0
    8.9792   42.4385   67.1489 N   0  0  0  0  0  0  0  0  0  0  0  0
    7.9872   43.6539   69.8314 C   0  0  0  0  0  0  0  0  0  0  0  0
  1  3  1  0  0  0  0
  2  3  2  0  0  0  0
  2 11  1  0  0  0  0
  3  4  1  0  0  0  0
  4  5  1  0  0  0  0
  5  6  1  0  0  0  0
  5  7  2  0  0  0  0
  6  8  1  0  0  0  0
  6 11  2  0  0  0  0
  8  9  1  0  0  0  0
  9 10  1  0  0  0  0
  9 13  1  6  0  0  0
 10 12  1  0  0  0  0
 11 12  1  0  0  0  0
M  END
>  <CHROM.1>
10.74131397,43.15544708,67.85310438,0.62369301,-0.30747835,-1.63074553

>  <Name>
ligand

>  <RI>
0

>  <Rbt.Current_Directory>
/home/itssahil/PROJECTS/Mol_Feturizer/New_Systems/rnas/3SUX

>  <Rbt.Executable>
rbdock ($Id: //depot/dev/client3/rdock/2013.1/src/exe/rbdock.cxx#4 $)

>  <Rbt.Library>
libRbt.so (2013.1, Build901 2013/11/27)

>  <Rbt.Parameter_File>
/export/apps/rDock/src/rDock_2013.1_src/data/scripts/dock_solv.prm

>  <Rbt.Receptor>
prm/pocket_docking_2.prm

>  <SCORE>
-8.79932

>  <SCORE.INTER>
-8.79932

>  <SCORE.INTER.CONST>
1

>  <SCORE.INTER.POLAR>
0

>  <SCORE.INTER.ROT>
0

>  <SCORE.INTER.SOLV>
21.6204

>  <SCORE.INTER.VDW>
-16.673

>  <SCORE.INTER.norm>
-0.676871

>  <SCORE.INTRA>
0

>  <SCORE.INTRA.DIHEDRAL>
0

>  <SCORE.INTRA.DIHEDRAL.0>
0

>  <SCORE.INTRA.POLAR>
0

>  <SCORE.INTRA.POLAR.0>
0

>  <SCORE.INTRA.REPUL>
0

>  <SCORE.INTRA.REPUL.0>
0

>  <SCORE.INTRA.SOLV>
0

>  <SCORE.INTRA.SOLV.lig_0>
-48.6608

>  <SCORE.INTRA.VDW>
0

>  <SCORE.INTRA.VDW.0>
0

>  <SCORE.INTRA.norm>
0

>  <SCORE.RESTR>
0

>  <SCORE.RESTR.CAVITY>
0

>  <SCORE.RESTR.norm>
0

>  <SCORE.SYSTEM>
0

>  <SCORE.SYSTEM.CONST>
0

>  <SCORE.SYSTEM.DIHEDRAL>
0

>  <SCORE.SYSTEM.SOLV>
0

>  <SCORE.SYSTEM.norm>
0

>  <SCORE.heavy>
13

>  <SCORE.norm>
-0.676871

>  <RMSD>
0.830

$$$$
ligand
 OpenBabel11021811483D
libRbt.so/2013.1/901 2013/11/27
 13 14  0  0  0  0  0  0  0  0999 V2000
   12.8367   43.8754   64.7849 N   0  0  0  0  0  0  0  0  0  0  0  0
   10.9756   43.1930   65.9868 N   0  0  0  0  0  0  0  0  0  0  0  0
   12.2429   43.6447   65.9523 C   0  0  0  0  0  0  0  0  0  0  0  0
   12.9474   43.8618   67.1358 N   0  0  0  0  0  0  0  0  0  0  0  0
   12.3030   43.6117   68.3491 C   0  0  0  0  0  0  0  0  0  0  0  0
   10.9877   43.1590   68.3574 C   0  0  0  0  0  0  0  0  0  0  0  0
   12.9015   43.7867   69.4099 O   0  0  0  0  0  0  0  0  0  0  0  0
   10.3531   42.8667   69.5797 N   0  0  0  0  0  0  0  0  0  0  0  0
    8.9304   42.4290   69.6556 C   0  0  2  0  0  0  0  0  0  0  0  0
    8.5576   41.6934   68.3572 C   0  0  0  0  0  0  0  0  0  0  0  0
   10.3452   42.9381   67.1475 C   0  0  0  0  0  0  0  0  0  0  0  0
    9.0296   42.4591   67.1524 N   0  0  0  0  0  0  0  0  0  0  0  0
    8.0312   43.6900   69.8255 C   0  0  0  0  0  0  0  0  0  0  0  0
  1  3  1  0  0  0  0
  2  3  2  0  0  0  0
  2 11  1  0  0  0  0
  3  4  1  0  0  0  0
  4  5  1  0  0  0  0
  5  6  1  0  0  0  0
  5  7  2  0  0  0  0
  6  8  1  0  0  0  0
  6 11  2  0  0  0  0
  8  9  1  0  0  0  0
  9 10  1  0  0  0  0
  9 13  1  6  0  0  0
 10 12  1  0  0  0  0
 11 12  1  0  0  0  0
M  END
>  <CHROM.1>
10.79081928,43.17626471,67.85886850,0.62036125,-0.30535854,-1.63679015

>  <Name>
ligand

>  <RI>
0

>  <Rbt.Current_Directory>
/home/itssahil/PROJECTS/Mol_Feturizer/New_Systems/rnas/3SUX

>  <Rbt.Executable>
rbdock ($Id: //depot/dev/client3/rdock/2013.1/src/exe/rbdock.cxx#4 $)

>  <Rbt.Library>
libRbt.so (2013.1, Build901 2013/11/27)

>  <Rbt.Parameter_File>
/export/apps/rDock/src/rDock_2013.1_src/data/scripts/dock_solv.prm

>  <Rbt.Receptor>
prm/pocket_docking_2.prm

>  <SCORE>
-8.85617

>  <SCORE.INTER>
-8.85617

>  <SCORE.INTER.CONST>
1

>  <SCORE.INTER.POLAR>
0

>  <SCORE.INTER.ROT>
0

>  <SCORE.INTER.SOLV>
21.6311

>  <SCORE.INTER.VDW>
-16.7145

>  <SCORE.INTER.norm>
-0.681244

>  <SCORE.INTRA>
0

>  <SCORE.INTRA.DIHEDRAL>
0

>  <SCORE.INTRA.DIHEDRAL.0>
0

>  <SCORE.INTRA.POLAR>
0

>  <SCORE.INTRA.POLAR.0>
0

>  <SCORE.INTRA.REPUL>
0

>  <SCORE.INTRA.REPUL.0>
0

>  <SCORE.INTRA.SOLV>
0

>  <SCORE.INTRA.SOLV.lig_0>
-48.6608

>  <SCORE.INTRA.VDW>
0

>  <SCORE.INTRA.VDW.0>
0

>  <SCORE.INTRA.norm>
0

>  <SCORE.RESTR>
0

>  <SCORE.RESTR.CAVITY>
0

>  <SCORE.RESTR.norm>
0

>  <SCORE.SYSTEM>
0

>  <SCORE.SYSTEM.CONST>
0

>  <SCORE.SYSTEM.DIHEDRAL>
0

>  <SCORE.SYSTEM.SOLV>
0

>  <SCORE.SYSTEM.norm>
0

>  <SCORE.heavy>
13

>  <SCORE.norm>
-0.681244

>  <RMSD>
0.830

$$$$
ligand
 OpenBabel11021811483D
libRbt.so/2013.1/901 2013/11/27
 13 14  0  0  0  0  0  0  0  0999 V2000
   12.8340   43.8755   64.7918 N   0  0  0  0  0  0  0  0  0  0  0  0
   10.9708   43.1933   65.9905 N   0  0  0  0  0  0  0  0  0  0  0  0
   12.2380   43.6456   65.9582 C   0  0  0  0  0  0  0  0  0  0  0  0
   12.9400   43.8640   67.1429 N   0  0  0  0  0  0  0  0  0  0  0  0
   12.2933   43.6148   68.3551 C   0  0  0  0  0  0  0  0  0  0  0  0
   10.9781   43.1616   68.3612 C   0  0  0  0  0  0  0  0  0  0  0  0
   12.8896   43.7911   69.4169 O   0  0  0  0  0  0  0  0  0  0  0  0
   10.3412   42.8702   69.5824 N   0  0  0  0  0  0  0  0  0  0  0  0
    8.9185   42.4319   69.6559 C   0  0  2  0  0  0  0  0  0  0  0  0
    8.5487   41.6949   68.3575 C   0  0  0  0  0  0  0  0  0  0  0  0
   10.3381   42.9393   67.1502 C   0  0  0  0  0  0  0  0  0  0  0  0
    9.0228   42.4597   67.1529 N   0  0  0  0  0  0  0  0  0  0  0  0
    8.0184   43.6927   69.8229 C   0  0  0  0  0  0  0  0  0  0  0  0
  1  3  1  0  0  0  0
  2  3  2  0  0  0  0
  2 11  1  0  0  0  0
  3  4  1  0  0  0  0
  4  5  1  0  0  0  0
  5  6  1  0  0  0  0
  5  7  2  0  0  0  0
  6  8  1  0  0  0  0
  6 11  2  0  0  0  0
  8  9  1  0  0  0  0
  9 10  1  0  0  0  0
  9 13  1  6  0  0  0
 10 12  1  0  0  0  0
 11 12  1  0  0  0  0
M  END
>  <CHROM.1>
10.78225644,43.17828725,67.86223549,0.61822091,-0.30563994,-1.63836399

>  <Name>
ligand

>  <RI>
0

>  <Rbt.Current_Directory>
/home/itssahil/PROJECTS/Mol_Feturizer/New_Systems/rnas/3SUX

>  <Rbt.Executable>
rbdock ($Id: //depot/dev/client3/rdock/2013.1/src/exe/rbdock.cxx#4 $)

>  <Rbt.Library>
libRbt.so (2013.1, Build901 2013/11/27)

>  <Rbt.Parameter_File>
/export/apps/rDock/src/rDock_2013.1_src/data/scripts/dock_solv.prm

>  <Rbt.Receptor>
prm/pocket_docking_2.prm

>  <SCORE>
-8.85535

>  <SCORE.INTER>
-8.85535

>  <SCORE.INTER.CONST>
1

>  <SCORE.INTER.POLAR>
0

>  <SCORE.INTER.ROT>
0

>  <SCORE.INTER.SOLV>
21.6234

>  <SCORE.INTER.VDW>
-16.7114

>  <SCORE.INTER.norm>
-0.681181

>  <SCORE.INTRA>
0

>  <SCORE.INTRA.DIHEDRAL>
0

>  <SCORE.INTRA.DIHEDRAL.0>
0

>  <SCORE.INTRA.POLAR>
0

>  <SCORE.INTRA.POLAR.0>
0

>  <SCORE.INTRA.REPUL>
0

>  <SCORE.INTRA.REPUL.0>
0

>  <SCORE.INTRA.SOLV>
0

>  <SCORE.INTRA.SOLV.lig_0>
-48.6608

>  <SCORE.INTRA.VDW>
0

>  <SCORE.INTRA.VDW.0>
0

>  <SCORE.INTRA.norm>
0

>  <SCORE.RESTR>
0

>  <SCORE.RESTR.CAVITY>
0

>  <SCORE.RESTR.norm>
0

>  <SCORE.SYSTEM>
0

>  <SCORE.SYSTEM.CONST>
0

>  <SCORE.SYSTEM.DIHEDRAL>
0

>  <SCORE.SYSTEM.SOLV>
0

>  <SCORE.SYSTEM.norm>
0

>  <SCORE.heavy>
13

>  <SCORE.norm>
-0.681181

>  <RMSD>
0.830

$$$$
ligand
 OpenBabel11021811483D
libRbt.so/2013.1/901 2013/11/27
 13 14  0  0  0  0  0  0  0  0999 V2000
   12.7845   43.8724   64.7871 N   0  0  0  0  0  0  0  0  0  0  0  0
   10.9242   43.1818   65.9854 N   0  0  0  0  0  0  0  0  0  0  0  0
   12.1887   43.6414   65.9535 C   0  0  0  0  0  0  0  0  0  0  0  0
   12.8882   43.8663   67.1383 N   0  0  0  0  0  0  0  0  0  0  0  0
   12.2418   43.6157   68.3504 C   0  0  0  0  0  0  0  0  0  0  0  0
   10.9294   43.1548   68.3562 C   0  0  0  0  0  0  0  0  0  0  0  0
   12.8360   43.7976   69.4125 O   0  0  0  0  0  0  0  0  0  0  0  0
   10.2929   42.8621   69.5774 N   0  0  0  0  0  0  0  0  0  0  0  0
    8.8727   42.4157   69.6504 C   0  0  2  0  0  0  0  0  0  0  0  0
    8.5085   41.6740   68.3531 C   0  0  0  0  0  0  0  0  0  0  0  0
   10.2918   42.9264   67.1450 C   0  0  0  0  0  0  0  0  0  0  0  0
    8.9793   42.4391   67.1474 N   0  0  0  0  0  0  0  0  0  0  0  0
    7.9652   43.6715   69.8139 C   0  0  0  0  0  0  0  0  0  0  0  0
  1  3  1  0  0  0  0
  2  3  2  0  0  0  0
  2 11  1  0  0  0  0
  3  4  1  0  0  0  0
  4  5  1  0  0  0  0
  5  6  1  0  0  0  0
  5  7  2  0  0  0  0
  6  8  1  0  0  0  0
  6 11  2  0  0  0  0
  8  9  1  0  0  0  0
  9 10  1  0  0  0  0
  9 13  1  6  0  0  0
 10 12  1  0  0  0  0
 11 12  1  0  0  0  0
M  END
>  <CHROM.1>
10.73386808,43.16939176,67.85700126,0.61678226,-0.31140737,-1.64080673

>  <Name>
ligand

>  <RI>
0

>  <Rbt.Current_Directory>
/home/itssahil/PROJECTS/Mol_Feturizer/New_Systems/rnas/3SUX

>  <Rbt.Executable>
rbdock ($Id: //depot/dev/client3/rdock/2013.1/src/exe/rbdock.cxx#4 $)

>  <Rbt.Library>
libRbt.so (2013.1, Build901 2013/11/27)

>  <Rbt.Parameter_File>
/export/apps/rDock/src/rDock_2013.1_src/data/scripts/dock_solv.prm

>  <Rbt.Receptor>
prm/pocket_docking_2.prm

>  <SCORE>
-8.79877

>  <SCORE.INTER>
-8.79877

>  <SCORE.INTER.CONST>
1

>  <SCORE.INTER.POLAR>
0

>  <SCORE.INTER.ROT>
0

>  <SCORE.INTER.SOLV>
21.609

>  <SCORE.INTER.VDW>
-16.6688

>  <SCORE.INTER.norm>
-0.676828

>  <SCORE.INTRA>
0

>  <SCORE.INTRA.DIHEDRAL>
0

>  <SCORE.INTRA.DIHEDRAL.0>
0

>  <SCORE.INTRA.POLAR>
0

>  <SCORE.INTRA.POLAR.0>
0

>  <SCORE.INTRA.REPUL>
0

>  <SCORE.INTRA.REPUL.0>
0

>  <SCORE.INTRA.SOLV>
0

>  <SCORE.INTRA.SOLV.lig_0>
-48.6608

>  <SCORE.INTRA.VDW>
0

>  <SCORE.INTRA.VDW.0>
0

>  <SCORE.INTRA.norm>
0

>  <SCORE.RESTR>
0

>  <SCORE.RESTR.CAVITY>
0

>  <SCORE.RESTR.norm>
0

>  <SCORE.SYSTEM>
0

>  <SCORE.SYSTEM.CONST>
0

>  <SCORE.SYSTEM.DIHEDRAL>
0

>  <SCORE.SYSTEM.SOLV>
0

>  <SCORE.SYSTEM.norm>
0

>  <SCORE.heavy>
13

>  <SCORE.norm>
-0.676828

>  <RMSD>
0.830

$$$$
ligand
 OpenBabel11021811483D
libRbt.so/2013.1/901 2013/11/27
 13 14  0  0  0  0  0  0  0  0999 V2000
   12.8392   43.8756   64.7897 N   0  0  0  0  0  0  0  0  0  0  0  0
   10.9761   43.1900   65.9866 N   0  0  0  0  0  0  0  0  0  0  0  0
   12.2425   43.6445   65.9555 C   0  0  0  0  0  0  0  0  0  0  0  0
   12.9430   43.8641   67.1409 N   0  0  0  0  0  0  0  0  0  0  0  0
   12.2956   43.6136   68.3524 C   0  0  0  0  0  0  0  0  0  0  0  0
   10.9812   43.1580   68.3572 C   0  0  0  0  0  0  0  0  0  0  0  0
   12.8905   43.7909   69.4149 O   0  0  0  0  0  0  0  0  0  0  0  0
   10.3436   42.8653   69.5778 N   0  0  0  0  0  0  0  0  0  0  0  0
    8.9217   42.4245   69.6499 C   0  0  2  0  0  0  0  0  0  0  0  0
    8.5544   41.6870   68.3511 C   0  0  0  0  0  0  0  0  0  0  0  0
   10.3428   42.9347   67.1456 C   0  0  0  0  0  0  0  0  0  0  0  0
    9.0283   42.4528   67.1470 N   0  0  0  0  0  0  0  0  0  0  0  0
    8.0192   43.6837   69.8161 C   0  0  0  0  0  0  0  0  0  0  0  0
  1  3  1  0  0  0  0
  2  3  2  0  0  0  0
  2 11  1  0  0  0  0
  3  4  1  0  0  0  0
  4  5  1  0  0  0  0
  5  6  1  0  0  0  0
  5  7  2  0  0  0  0
  6  8  1  0  0  0  0
  6 11  2  0  0  0  0
  8  9  1  0  0  0  0
  9 10  1  0  0  0  0
  9 13  1  6  0  0  0
 10 12  1  0  0  0  0
 11 12  1  0  0  0  0
M  END
>  <CHROM.1>
10.78579943,43.17441139,67.85809754,0.61709603,-0.30736744,-1.63860695

>  <Name>
ligand

>  <RI>
0

>  <Rbt.Current_Directory>
/home/itssahil/PROJECTS/Mol_Feturizer/New_Systems/rnas/3SUX

>  <Rbt.Executable>
rbdock ($Id: //depot/dev/client3/rdock/2013.1/src/exe/rbdock.cxx#4 $)

>  <Rbt.Library>
libRbt.so (2013.1, Build901 2013/11/27)

>  <Rbt.Parameter_File>
/export/apps/rDock/src/rDock_2013.1_src/data/scripts/dock_solv.prm

>  <Rbt.Receptor>
prm/pocket_docking_3.prm

>  <SCORE>
-8.85192

>  <SCORE.INTER>
-8.85192

>  <SCORE.INTER.CONST>
1

>  <SCORE.INTER.POLAR>
0

>  <SCORE.INTER.ROT>
0

>  <SCORE.INTER.SOLV>
21.634

>  <SCORE.INTER.VDW>
-16.7126

>  <SCORE.INTER.norm>
-0.680917

>  <SCORE.INTRA>
0

>  <SCORE.INTRA.DIHEDRAL>
0

>  <SCORE.INTRA.DIHEDRAL.0>
0

>  <SCORE.INTRA.POLAR>
0

>  <SCORE.INTRA.POLAR.0>
0

>  <SCORE.INTRA.REPUL>
0

>  <SCORE.INTRA.REPUL.0>
0

>  <SCORE.INTRA.SOLV>
0

>  <SCORE.INTRA.SOLV.lig_0>
-48.6608

>  <SCORE.INTRA.VDW>
0

>  <SCORE.INTRA.VDW.0>
0

>  <SCORE.INTRA.norm>
0

>  <SCORE.RESTR>
0

>  <SCORE.RESTR.CAVITY>
0

>  <SCORE.RESTR.norm>
0

>  <SCORE.SYSTEM>
0

>  <SCORE.SYSTEM.CONST>
0

>  <SCORE.SYSTEM.DIHEDRAL>
0

>  <SCORE.SYSTEM.SOLV>
0

>  <SCORE.SYSTEM.norm>
0

>  <SCORE.heavy>
13

>  <SCORE.norm>
-0.680917

>  <RMSD>
0.830

$$$$
ligand
 OpenBabel11021811483D
libRbt.so/2013.1/901 2013/11/27
 13 14  0  0  0  0  0  0  0  0999 V2000
   12.8429   43.8759   64.7924 N   0  0  0  0  0  0  0  0  0  0  0  0
   10.9782   43.1917   65.9875 N   0  0  0  0  0  0  0  0  0  0  0  0
   12.2452   43.6445   65.9577 C   0  0  0  0  0  0  0  0  0  0  0  0
   12.9452   43.8621   67.1437 N   0  0  0  0  0  0  0  0  0  0  0  0
   12.2968   43.6113   68.3546 C   0  0  0  0  0  0  0  0  0  0  0  0
   10.9818   43.1575   68.3582 C   0  0  0  0  0  0  0  0  0  0  0  0
   12.8913   43.7868   69.4176 O   0  0  0  0  0  0  0  0  0  0  0  0
   10.3431   42.8645   69.5781 N   0  0  0  0  0  0  0  0  0  0  0  0
    8.9205   42.4255   69.6489 C   0  0  2  0  0  0  0  0  0  0  0  0
    8.5531   41.6897   68.3492 C   0  0  0  0  0  0  0  0  0  0  0  0
   10.3438   42.9362   67.1459 C   0  0  0  0  0  0  0  0  0  0  0  0
    9.0287   42.4559   67.1461 N   0  0  0  0  0  0  0  0  0  0  0  0
    8.0196   43.6857   69.8158 C   0  0  0  0  0  0  0  0  0  0  0  0
  1  3  1  0  0  0  0
  2  3  2  0  0  0  0
  2 11  1  0  0  0  0
  3  4  1  0  0  0  0
  4  5  1  0  0  0  0
  5  6  1  0  0  0  0
  5  7  2  0  0  0  0
  6  8  1  0  0  0  0
  6 11  2  0  0  0  0
  8  9  1  0  0  0  0
  9 10  1  0  0  0  0
  9 13  1  6  0  0  0
 10 12  1  0  0  0  0
 11 12  1  0  0  0  0
M  END
>  <CHROM.1>
10.78672151,43.17459987,67.85895069,0.61654750,-0.30601494,-1.63784073

>  <Name>
ligand

>  <RI>
0

>  <Rbt.Current_Directory>
/home/itssahil/PROJECTS/Mol_Feturizer/New_Systems/rnas/3SUX

>  <Rbt.Executable>
rbdock ($Id: //depot/dev/client3/rdock/2013.1/src/exe/rbdock.cxx#4 $)

>  <Rbt.Library>
libRbt.so (2013.1, Build901 2013/11/27)

>  <Rbt.Parameter_File>
/export/apps/rDock/src/rDock_2013.1_src/data/scripts/dock_solv.prm

>  <Rbt.Receptor>
prm/pocket_docking_2.prm

>  <SCORE>
-8.85133

>  <SCORE.INTER>
-8.85133

>  <SCORE.INTER.CONST>
1

>  <SCORE.INTER.POLAR>
0

>  <SCORE.INTER.ROT>
0

>  <SCORE.INTER.SOLV>
21.6426

>  <SCORE.INTER.VDW>
-16.7151

>  <SCORE.INTER.norm>
-0.680872

>  <SCORE.INTRA>
0

>  <SCORE.INTRA.DIHEDRAL>
0

>  <SCORE.INTRA.DIHEDRAL.0>
0

>  <SCORE.INTRA.POLAR>
0

>  <SCORE.INTRA.POLAR.0>
0

>  <SCORE.INTRA.REPUL>
0

>  <SCORE.INTRA.REPUL.0>
0

>  <SCORE.INTRA.SOLV>
0

>  <SCORE.INTRA.SOLV.lig_0>
-48.6608

>  <SCORE.INTRA.VDW>
0

>  <SCORE.INTRA.VDW.0>
0

>  <SCORE.INTRA.norm>
0

>  <SCORE.RESTR>
0

>  <SCORE.RESTR.CAVITY>
0

>  <SCORE.RESTR.norm>
0

>  <SCORE.SYSTEM>
0

>  <SCORE.SYSTEM.CONST>
0

>  <SCORE.SYSTEM.DIHEDRAL>
0

>  <SCORE.SYSTEM.SOLV>
0

>  <SCORE.SYSTEM.norm>
0

>  <SCORE.heavy>
13

>  <SCORE.norm>
-0.680872

>  <RMSD>
0.831

$$$$
ligand
 OpenBabel11021811483D
libRbt.so/2013.1/901 2013/11/27
 13 14  0  0  0  0  0  0  0  0999 V2000
   12.8347   43.8758   64.7858 N   0  0  0  0  0  0  0  0  0  0  0  0
   10.9731   43.1960   65.9883 N   0  0  0  0  0  0  0  0  0  0  0  0
   12.2412   43.6453   65.9534 C   0  0  0  0  0  0  0  0  0  0  0  0
   12.9468   43.8603   67.1366 N   0  0  0  0  0  0  0  0  0  0  0  0
   12.3027   43.6105   68.3501 C   0  0  0  0  0  0  0  0  0  0  0  0
   10.9865   43.1603   68.3588 C   0  0  0  0  0  0  0  0  0  0  0  0
   12.9021   43.7837   69.4106 O   0  0  0  0  0  0  0  0  0  0  0  0
   10.3521   42.8683   69.5813 N   0  0  0  0  0  0  0  0  0  0  0  0
    8.9286   42.4332   69.6577 C   0  0  2  0  0  0  0  0  0  0  0  0
    8.5537   41.6992   68.3590 C   0  0  0  0  0  0  0  0  0  0  0  0
   10.3429   42.9415   67.1491 C   0  0  0  0  0  0  0  0  0  0  0  0
    9.0264   42.4649   67.1545 N   0  0  0  0  0  0  0  0  0  0  0  0
    8.0319   43.6958   69.8291 C   0  0  0  0  0  0  0  0  0  0  0  0
  1  3  1  0  0  0  0
  2  3  2  0  0  0  0
  2 11  1  0  0  0  0
  3  4  1  0  0  0  0
  4  5  1  0  0  0  0
  5  6  1  0  0  0  0
  5  7  2  0  0  0  0
  6  8  1  0  0  0  0
  6 11  2  0  0  0  0
  8  9  1  0  0  0  0
  9 10  1  0  0  0  0
  9 13  1  6  0  0  0
 10 12  1  0  0  0  0
 11 12  1  0  0  0  0
M  END
>  <CHROM.1>
10.78939069,43.17826498,67.86043994,0.62110063,-0.30352230,-1.63585088

>  <Name>
ligand

>  <RI>
0

>  <Rbt.Current_Directory>
/home/itssahil/PROJECTS/Mol_Feturizer/New_Systems/rnas/3SUX

>  <Rbt.Executable>
rbdock ($Id: //depot/dev/client3/rdock/2013.1/src/exe/rbdock.cxx#4 $)

>  <Rbt.Library>
libRbt.so (2013.1, Build901 2013/11/27)

>  <Rbt.Parameter_File>
/export/apps/rDock/src/rDock_2013.1_src/data/scripts/dock_solv.prm

>  <Rbt.Receptor>
prm/pocket_docking_2.prm

>  <SCORE>
-8.85682

>  <SCORE.INTER>
-8.85682

>  <SCORE.INTER.CONST>
1

>  <SCORE.INTER.POLAR>
0

>  <SCORE.INTER.ROT>
0

>  <SCORE.INTER.SOLV>
21.6334

>  <SCORE.INTER.VDW>
-16.7157

>  <SCORE.INTER.norm>
-0.681294

>  <SCORE.INTRA>
0

>  <SCORE.INTRA.DIHEDRAL>
0

>  <SCORE.INTRA.DIHEDRAL.0>
0

>  <SCORE.INTRA.POLAR>
0

>  <SCORE.INTRA.POLAR.0>
0

>  <SCORE.INTRA.REPUL>
0

>  <SCORE.INTRA.REPUL.0>
0

>  <SCORE.INTRA.SOLV>
0

>  <SCORE.INTRA.SOLV.lig_0>
-48.6608

>  <SCORE.INTRA.VDW>
0

>  <SCORE.INTRA.VDW.0>
0

>  <SCORE.INTRA.norm>
0

>  <SCORE.RESTR>
0

>  <SCORE.RESTR.CAVITY>
0

>  <SCORE.RESTR.norm>
0

>  <SCORE.SYSTEM>
0

>  <SCORE.SYSTEM.CONST>
0

>  <SCORE.SYSTEM.DIHEDRAL>
0

>  <SCORE.SYSTEM.SOLV>
0

>  <SCORE.SYSTEM.norm>
0

>  <SCORE.heavy>
13

>  <SCORE.norm>
-0.681294

>  <RMSD>
0.831

$$$$
ligand
 OpenBabel11021811483D
libRbt.so/2013.1/901 2013/11/27
 13 14  0  0  0  0  0  0  0  0999 V2000
   12.8399   43.8849   64.8081 N   0  0  0  0  0  0  0  0  0  0  0  0
   10.9712   43.1868   65.9888 N   0  0  0  0  0  0  0  0  0  0  0  0
   12.2385   43.6393   65.9685 C   0  0  0  0  0  0  0  0  0  0  0  0
   12.9349   43.8416   67.1593 N   0  0  0  0  0  0  0  0  0  0  0  0
   12.2826   43.5761   68.3650 C   0  0  0  0  0  0  0  0  0  0  0  0
   10.9674   43.1230   68.3588 C   0  0  0  0  0  0  0  0  0  0  0  0
   12.8739   43.7380   69.4319 O   0  0  0  0  0  0  0  0  0  0  0  0
   10.3247   42.8152   69.5730 N   0  0  0  0  0  0  0  0  0  0  0  0
    8.9017   42.3762   69.6339 C   0  0  2  0  0  0  0  0  0  0  0  0
    8.5379   41.6568   68.3239 C   0  0  0  0  0  0  0  0  0  0  0  0
   10.3330   42.9172   67.1419 C   0  0  0  0  0  0  0  0  0  0  0  0
    9.0177   42.4378   67.1320 N   0  0  0  0  0  0  0  0  0  0  0  0
    8.0009   43.6347   69.8137 C   0  0  0  0  0  0  0  0  0  0  0  0
  1  3  1  0  0  0  0
  2  3  2  0  0  0  0
  2 11  1  0  0  0  0
  3  4  1  0  0  0  0
  4  5  1  0  0  0  0
  5  6  1  0  0  0  0
  5  7  2  0  0  0  0
  6  8  1  0  0  0  0
  6 11  2  0  0  0  0
  8  9  1  0  0  0  0
  9 10  1  0  0  0  0
  9 13  1  6  0  0  0
 10 12  1  0  0  0  0
 11 12  1  0  0  0  0
M  END
>  <CHROM.1>
10.77384568,43.14649459,67.85920724,0.61334311,-0.30525938,-1.62631113

>  <Name>
ligand

>  <RI>
0

>  <Rbt.Current_Directory>
/home/itssahil/PROJECTS/Mol_Feturizer/New_Systems/rnas/3SUX

>  <Rbt.Executable>
rbdock ($Id: //depot/dev/client3/rdock/2013.1/src/exe/rbdock.cxx#4 $)

>  <Rbt.Library>
libRbt.so (2013.1, Build901 2013/11/27)

>  <Rbt.Parameter_File>
/export/apps/rDock/src/rDock_2013.1_src/data/scripts/dock_solv.prm

>  <Rbt.Receptor>
prm/pocket_docking_2.prm

>  <SCORE>
-8.8331

>  <SCORE.INTER>
-8.8331

>  <SCORE.INTER.CONST>
1

>  <SCORE.INTER.POLAR>
0

>  <SCORE.INTER.ROT>
0

>  <SCORE.INTER.SOLV>
21.6678

>  <SCORE.INTER.VDW>
-16.7114

>  <SCORE.INTER.norm>
-0.679469

>  <SCORE.INTRA>
0

>  <SCORE.INTRA.DIHEDRAL>
0

>  <SCORE.INTRA.DIHEDRAL.0>
0

>  <SCORE.INTRA.POLAR>
0

>  <SCORE.INTRA.POLAR.0>
0

>  <SCORE.INTRA.REPUL>
0

>  <SCORE.INTRA.REPUL.0>
0

>  <SCORE.INTRA.SOLV>
0

>  <SCORE.INTRA.SOLV.lig_0>
-48.6608

>  <SCORE.INTRA.VDW>
0

>  <SCORE.INTRA.VDW.0>
0

>  <SCORE.INTRA.norm>
0

>  <SCORE.RESTR>
0

>  <SCORE.RESTR.CAVITY>
0

>  <SCORE.RESTR.norm>
0

>  <SCORE.SYSTEM>
0

>  <SCORE.SYSTEM.CONST>
0

>  <SCORE.SYSTEM.DIHEDRAL>
0

>  <SCORE.SYSTEM.SOLV>
0

>  <SCORE.SYSTEM.norm>
0

>  <SCORE.heavy>
13

>  <SCORE.norm>
-0.679469

>  <RMSD>
0.831

$$$$
ligand
 OpenBabel11021811483D
libRbt.so/2013.1/901 2013/11/27
 13 14  0  0  0  0  0  0  0  0999 V2000
   12.8408   43.8758   64.7890 N   0  0  0  0  0  0  0  0  0  0  0  0
   10.9780   43.1948   65.9890 N   0  0  0  0  0  0  0  0  0  0  0  0
   12.2455   43.6458   65.9558 C   0  0  0  0  0  0  0  0  0  0  0  0
   12.9487   43.8630   67.1400 N   0  0  0  0  0  0  0  0  0  0  0  0
   12.3029   43.6138   68.3526 C   0  0  0  0  0  0  0  0  0  0  0  0
   10.9873   43.1618   68.3596 C   0  0  0  0  0  0  0  0  0  0  0  0
   12.9002   43.7889   69.4141 O   0  0  0  0  0  0  0  0  0  0  0  0
   10.3511   42.8704   69.5812 N   0  0  0  0  0  0  0  0  0  0  0  0
    8.9280   42.4334   69.6557 C   0  0  2  0  0  0  0  0  0  0  0  0
    8.5564   41.6975   68.3572 C   0  0  0  0  0  0  0  0  0  0  0  0
   10.3460   42.9408   67.1490 C   0  0  0  0  0  0  0  0  0  0  0  0
    9.0302   42.4625   67.1526 N   0  0  0  0  0  0  0  0  0  0  0  0
    8.0293   43.6950   69.8240 C   0  0  0  0  0  0  0  0  0  0  0  0
  1  3  1  0  0  0  0
  2  3  2  0  0  0  0
  2 11  1  0  0  0  0
  3  4  1  0  0  0  0
  4  5  1  0  0  0  0
  5  6  1  0  0  0  0
  5  7  2  0  0  0  0
  6  8  1  0  0  0  0
  6 11  2  0  0  0  0
  8  9  1  0  0  0  0
  9 10  1  0  0  0  0
  9 13  1  6  0  0  0
 10 12  1  0  0  0  0
 11 12  1  0  0  0  0
M  END
>  <CHROM.1>
10.79098407,43.17896087,67.86081907,0.61917142,-0.30473521,-1.63754772

>  <Name>
ligand

>  <RI>
0

>  <Rbt.Current_Directory>
/home/itssahil/PROJECTS/Mol_Feturizer/New_Systems/rnas/3SUX

>  <Rbt.Executable>
rbdock ($Id: //depot/dev/client3/rdock/2013.1/src/exe/rbdock.cxx#4 $)

>  <Rbt.Library>
libRbt.so (2013.1, Build901 2013/11/27)

>  <Rbt.Parameter_File>
/export/apps/rDock/src/rDock_2013.1_src/data/scripts/dock_solv.prm

>  <Rbt.Receptor>
prm/pocket_docking_6.prm

>  <SCORE>
-8.85469

>  <SCORE.INTER>
-8.85469

>  <SCORE.INTER.CONST>
1

>  <SCORE.INTER.POLAR>
0

>  <SCORE.INTER.ROT>
0

>  <SCORE.INTER.SOLV>
21.6331

>  <SCORE.INTER.VDW>
-16.7142

>  <SCORE.INTER.norm>
-0.68113

>  <SCORE.INTRA>
0

>  <SCORE.INTRA.DIHEDRAL>
0

>  <SCORE.INTRA.DIHEDRAL.0>
0

>  <SCORE.INTRA.POLAR>
0

>  <SCORE.INTRA.POLAR.0>
0

>  <SCORE.INTRA.REPUL>
0

>  <SCORE.INTRA.REPUL.0>
0

>  <SCORE.INTRA.SOLV>
0

>  <SCORE.INTRA.SOLV.lig_0>
-48.6608

>  <SCORE.INTRA.VDW>
0

>  <SCORE.INTRA.VDW.0>
0

>  <SCORE.INTRA.norm>
0

>  <SCORE.RESTR>
0

>  <SCORE.RESTR.CAVITY>
0

>  <SCORE.RESTR.norm>
0

>  <SCORE.SYSTEM>
0

>  <SCORE.SYSTEM.CONST>
0

>  <SCORE.SYSTEM.DIHEDRAL>
0

>  <SCORE.SYSTEM.SOLV>
0

>  <SCORE.SYSTEM.norm>
0

>  <SCORE.heavy>
13

>  <SCORE.norm>
-0.68113

>  <RMSD>
0.831

$$$$
ligand
 OpenBabel11021811483D
libRbt.so/2013.1/901 2013/11/27
 13 14  0  0  0  0  0  0  0  0999 V2000
   12.8398   43.8759   64.7891 N   0  0  0  0  0  0  0  0  0  0  0  0
   10.9765   43.1946   65.9881 N   0  0  0  0  0  0  0  0  0  0  0  0
   12.2443   43.6451   65.9556 C   0  0  0  0  0  0  0  0  0  0  0  0
   12.9474   43.8609   67.1401 N   0  0  0  0  0  0  0  0  0  0  0  0
   12.3012   43.6108   68.3524 C   0  0  0  0  0  0  0  0  0  0  0  0
   10.9854   43.1594   68.3587 C   0  0  0  0  0  0  0  0  0  0  0  0
   12.8984   43.7847   69.4141 O   0  0  0  0  0  0  0  0  0  0  0  0
   10.3489   42.8670   69.5800 N   0  0  0  0  0  0  0  0  0  0  0  0
    8.9257   42.4306   69.6538 C   0  0  2  0  0  0  0  0  0  0  0  0
    8.5539   41.6961   68.3545 C   0  0  0  0  0  0  0  0  0  0  0  0
   10.3443   42.9398   67.1478 C   0  0  0  0  0  0  0  0  0  0  0  0
    9.0283   42.4620   67.1508 N   0  0  0  0  0  0  0  0  0  0  0  0
    8.0275   43.6924   69.8232 C   0  0  0  0  0  0  0  0  0  0  0  0
  1  3  1  0  0  0  0
  2  3  2  0  0  0  0
  2 11  1  0  0  0  0
  3  4  1  0  0  0  0
  4  5  1  0  0  0  0
  5  6  1  0  0  0  0
  5  7  2  0  0  0  0
  6  8  1  0  0  0  0
  6 11  2  0  0  0  0
  8  9  1  0  0  0  0
  9 10  1  0  0  0  0
  9 13  1  6  0  0  0
 10 12  1  0  0  0  0
 11 12  1  0  0  0  0
M  END
>  <CHROM.1>
10.78922846,43.17707693,67.85994024,0.61903145,-0.30431148,-1.63665435

>  <Name>
ligand

>  <RI>
0

>  <Rbt.Current_Directory>
/home/itssahil/PROJECTS/Mol_Feturizer/New_Systems/rnas/3SUX

>  <Rbt.Executable>
rbdock ($Id: //depot/dev/client3/rdock/2013.1/src/exe/rbdock.cxx#4 $)

>  <Rbt.Library>
libRbt.so (2013.1, Build901 2013/11/27)

>  <Rbt.Parameter_File>
/export/apps/rDock/src/rDock_2013.1_src/data/scripts/dock_solv.prm

>  <Rbt.Receptor>
prm/pocket_docking_2.prm

>  <SCORE>
-8.85475

>  <SCORE.INTER>
-8.85475

>  <SCORE.INTER.CONST>
1

>  <SCORE.INTER.POLAR>
0

>  <SCORE.INTER.ROT>
0

>  <SCORE.INTER.SOLV>
21.6394

>  <SCORE.INTER.VDW>
-16.7163

>  <SCORE.INTER.norm>
-0.681134

>  <SCORE.INTRA>
0

>  <SCORE.INTRA.DIHEDRAL>
0

>  <SCORE.INTRA.DIHEDRAL.0>
0

>  <SCORE.INTRA.POLAR>
0

>  <SCORE.INTRA.POLAR.0>
0

>  <SCORE.INTRA.REPUL>
0

>  <SCORE.INTRA.REPUL.0>
0

>  <SCORE.INTRA.SOLV>
0

>  <SCORE.INTRA.SOLV.lig_0>
-48.6608

>  <SCORE.INTRA.VDW>
0

>  <SCORE.INTRA.VDW.0>
0

>  <SCORE.INTRA.norm>
0

>  <SCORE.RESTR>
0

>  <SCORE.RESTR.CAVITY>
0

>  <SCORE.RESTR.norm>
0

>  <SCORE.SYSTEM>
0

>  <SCORE.SYSTEM.CONST>
0

>  <SCORE.SYSTEM.DIHEDRAL>
0

>  <SCORE.SYSTEM.SOLV>
0

>  <SCORE.SYSTEM.norm>
0

>  <SCORE.heavy>
13

>  <SCORE.norm>
-0.681134

>  <RMSD>
0.832

$$$$
ligand
 OpenBabel11021811483D
libRbt.so/2013.1/901 2013/11/27
 13 14  0  0  0  0  0  0  0  0999 V2000
   12.8370   43.8757   64.7884 N   0  0  0  0  0  0  0  0  0  0  0  0
   10.9730   43.1901   65.9838 N   0  0  0  0  0  0  0  0  0  0  0  0
   12.2398   43.6434   65.9538 C   0  0  0  0  0  0  0  0  0  0  0  0
   12.9402   43.8605   67.1396 N   0  0  0  0  0  0  0  0  0  0  0  0
   12.2923   43.6088   68.3507 C   0  0  0  0  0  0  0  0  0  0  0  0
   10.9775   43.1545   68.3545 C   0  0  0  0  0  0  0  0  0  0  0  0
   12.8872   43.7838   69.4135 O   0  0  0  0  0  0  0  0  0  0  0  0
   10.3393   42.8606   69.5745 N   0  0  0  0  0  0  0  0  0  0  0  0
    8.9169   42.4211   69.6455 C   0  0  2  0  0  0  0  0  0  0  0  0
    8.5492   41.6859   68.3455 C   0  0  0  0  0  0  0  0  0  0  0  0
   10.3391   42.9337   67.1423 C   0  0  0  0  0  0  0  0  0  0  0  0
    9.0241   42.4531   67.1427 N   0  0  0  0  0  0  0  0  0  0  0  0
    8.0157   43.6808   69.8135 C   0  0  0  0  0  0  0  0  0  0  0  0
  1  3  1  0  0  0  0
  2  3  2  0  0  0  0
  2 11  1  0  0  0  0
  3  4  1  0  0  0  0
  4  5  1  0  0  0  0
  5  6  1  0  0  0  0
  5  7  2  0  0  0  0
  6  8  1  0  0  0  0
  6 11  2  0  0  0  0
  8  9  1  0  0  0  0
  9 10  1  0  0  0  0
  9 13  1  6  0  0  0
 10 12  1  0  0  0  0
 11 12  1  0  0  0  0
M  END
>  <CHROM.1>
10.78218809,43.17185252,67.85531231,0.61693051,-0.30635762,-1.63712220

>  <Name>
ligand

>  <RI>
0

>  <Rbt.Current_Directory>
/home/itssahil/PROJECTS/Mol_Feturizer/New_Systems/rnas/3SUX

>  <Rbt.Executable>
rbdock ($Id: //depot/dev/client3/rdock/2013.1/src/exe/rbdock.cxx#4 $)

>  <Rbt.Library>
libRbt.so (2013.1, Build901 2013/11/27)

>  <Rbt.Parameter_File>
/export/apps/rDock/src/rDock_2013.1_src/data/scripts/dock_solv.prm

>  <Rbt.Receptor>
prm/pocket_docking_2.prm

>  <SCORE>
-8.84965

>  <SCORE.INTER>
-8.84965

>  <SCORE.INTER.CONST>
1

>  <SCORE.INTER.POLAR>
0

>  <SCORE.INTER.ROT>
0

>  <SCORE.INTER.SOLV>
21.6512

>  <SCORE.INTER.VDW>
-16.7168

>  <SCORE.INTER.norm>
-0.680742

>  <SCORE.INTRA>
0

>  <SCORE.INTRA.DIHEDRAL>
0

>  <SCORE.INTRA.DIHEDRAL.0>
0

>  <SCORE.INTRA.POLAR>
0

>  <SCORE.INTRA.POLAR.0>
0

>  <SCORE.INTRA.REPUL>
0

>  <SCORE.INTRA.REPUL.0>
0

>  <SCORE.INTRA.SOLV>
0

>  <SCORE.INTRA.SOLV.lig_0>
-48.6608

>  <SCORE.INTRA.VDW>
0

>  <SCORE.INTRA.VDW.0>
0

>  <SCORE.INTRA.norm>
0

>  <SCORE.RESTR>
0

>  <SCORE.RESTR.CAVITY>
0

>  <SCORE.RESTR.norm>
0

>  <SCORE.SYSTEM>
0

>  <SCORE.SYSTEM.CONST>
0

>  <SCORE.SYSTEM.DIHEDRAL>
0

>  <SCORE.SYSTEM.SOLV>
0

>  <SCORE.SYSTEM.norm>
0

>  <SCORE.heavy>
13

>  <SCORE.norm>
-0.680742

>  <RMSD>
0.832

$$$$
ligand
 OpenBabel11021811483D
libRbt.so/2013.1/901 2013/11/27
 13 14  0  0  0  0  0  0  0  0999 V2000
   12.8544   43.8816   64.8104 N   0  0  0  0  0  0  0  0  0  0  0  0
   10.9840   43.1963   65.9960 N   0  0  0  0  0  0  0  0  0  0  0  0
   12.2531   43.6435   65.9725 C   0  0  0  0  0  0  0  0  0  0  0  0
   12.9515   43.8483   67.1617 N   0  0  0  0  0  0  0  0  0  0  0  0
   12.2993   43.5907   68.3692 C   0  0  0  0  0  0  0  0  0  0  0  0
   10.9823   43.1429   68.3663 C   0  0  0  0  0  0  0  0  0  0  0  0
   12.8923   43.7549   69.4348 O   0  0  0  0  0  0  0  0  0  0  0  0
   10.3396   42.8430   69.5824 N   0  0  0  0  0  0  0  0  0  0  0  0
    8.9148   42.4100   69.6466 C   0  0  2  0  0  0  0  0  0  0  0  0
    8.5468   41.6864   68.3402 C   0  0  0  0  0  0  0  0  0  0  0  0
   10.3459   42.9343   67.1509 C   0  0  0  0  0  0  0  0  0  0  0  0
    9.0286   42.4602   67.1444 N   0  0  0  0  0  0  0  0  0  0  0  0
    8.0193   43.6729   69.8217 C   0  0  0  0  0  0  0  0  0  0  0  0
  1  3  1  0  0  0  0
  2  3  2  0  0  0  0
  2 11  1  0  0  0  0
  3  4  1  0  0  0  0
  4  5  1  0  0  0  0
  5  6  1  0  0  0  0
  5  7  2  0  0  0  0
  6  8  1  0  0  0  0
  6 11  2  0  0  0  0
  8  9  1  0  0  0  0
  9 10  1  0  0  0  0
  9 13  1  6  0  0  0
 10 12  1  0  0  0  0
 11 12  1  0  0  0  0
M  END
>  <CHROM.1>
10.78833739,43.16496167,67.86675822,0.61459872,-0.30129233,-1.63032894

>  <Name>
ligand

>  <RI>
0

>  <Rbt.Current_Directory>
/home/itssahil/PROJECTS/Mol_Feturizer/New_Systems/rnas/3SUX

>  <Rbt.Executable>
rbdock ($Id: //depot/dev/client3/rdock/2013.1/src/exe/rbdock.cxx#4 $)

>  <Rbt.Library>
libRbt.so (2013.1, Build901 2013/11/27)

>  <Rbt.Parameter_File>
/export/apps/rDock/src/rDock_2013.1_src/data/scripts/dock_solv.prm

>  <Rbt.Receptor>
prm/pocket_docking_4.prm

>  <SCORE>
-8.80886

>  <SCORE.INTER>
-8.80886

>  <SCORE.INTER.CONST>
1

>  <SCORE.INTER.POLAR>
0

>  <SCORE.INTER.ROT>
0

>  <SCORE.INTER.SOLV>
21.6609

>  <SCORE.INTER.VDW>
-16.6929

>  <SCORE.INTER.norm>
-0.677605

>  <SCORE.INTRA>
0

>  <SCORE.INTRA.DIHEDRAL>
0

>  <SCORE.INTRA.DIHEDRAL.0>
0

>  <SCORE.INTRA.POLAR>
0

>  <SCORE.INTRA.POLAR.0>
0

>  <SCORE.INTRA.REPUL>
0

>  <SCORE.INTRA.REPUL.0>
0

>  <SCORE.INTRA.SOLV>
0

>  <SCORE.INTRA.SOLV.lig_0>
-48.6608

>  <SCORE.INTRA.VDW>
0

>  <SCORE.INTRA.VDW.0>
0

>  <SCORE.INTRA.norm>
0

>  <SCORE.RESTR>
0

>  <SCORE.RESTR.CAVITY>
0

>  <SCORE.RESTR.norm>
0

>  <SCORE.SYSTEM>
0

>  <SCORE.SYSTEM.CONST>
0

>  <SCORE.SYSTEM.DIHEDRAL>
0

>  <SCORE.SYSTEM.SOLV>
0

>  <SCORE.SYSTEM.norm>
0

>  <SCORE.heavy>
13

>  <SCORE.norm>
-0.677605

>  <RMSD>
0.832

$$$$
ligand
 OpenBabel11021811483D
libRbt.so/2013.1/901 2013/11/27
 13 14  0  0  0  0  0  0  0  0999 V2000
   12.8352   43.8753   64.7944 N   0  0  0  0  0  0  0  0  0  0  0  0
   10.9695   43.1971   65.9915 N   0  0  0  0  0  0  0  0  0  0  0  0
   12.2380   43.6456   65.9603 C   0  0  0  0  0  0  0  0  0  0  0  0
   12.9402   43.8603   67.1455 N   0  0  0  0  0  0  0  0  0  0  0  0
   12.2924   43.6113   68.3572 C   0  0  0  0  0  0  0  0  0  0  0  0
   10.9759   43.1621   68.3621 C   0  0  0  0  0  0  0  0  0  0  0  0
   12.8888   43.7844   69.4195 O   0  0  0  0  0  0  0  0  0  0  0  0
   10.3376   42.8709   69.5828 N   0  0  0  0  0  0  0  0  0  0  0  0
    8.9135   42.4368   69.6551 C   0  0  2  0  0  0  0  0  0  0  0  0
    8.5420   41.7027   68.3555 C   0  0  0  0  0  0  0  0  0  0  0  0
   10.3356   42.9434   67.1506 C   0  0  0  0  0  0  0  0  0  0  0  0
    9.0189   42.4678   67.1522 N   0  0  0  0  0  0  0  0  0  0  0  0
    8.0172   43.7001   69.8235 C   0  0  0  0  0  0  0  0  0  0  0  0
  1  3  1  0  0  0  0
  2  3  2  0  0  0  0
  2 11  1  0  0  0  0
  3  4  1  0  0  0  0
  4  5  1  0  0  0  0
  5  6  1  0  0  0  0
  5  7  2  0  0  0  0
  6  8  1  0  0  0  0
  6 11  2  0  0  0  0
  8  9  1  0  0  0  0
  9 10  1  0  0  0  0
  9 13  1  6  0  0  0
 10 12  1  0  0  0  0
 11 12  1  0  0  0  0
M  END
>  <CHROM.1>
10.78022302,43.18004609,67.86315879,0.61804748,-0.30261040,-1.63703616

>  <Name>
ligand

>  <RI>
0

>  <Rbt.Current_Directory>
/home/itssahil/PROJECTS/Mol_Feturizer/New_Systems/rnas/3SUX

>  <Rbt.Executable>
rbdock ($Id: //depot/dev/client3/rdock/2013.1/src/exe/rbdock.cxx#4 $)

>  <Rbt.Library>
libRbt.so (2013.1, Build901 2013/11/27)

>  <Rbt.Parameter_File>
/export/apps/rDock/src/rDock_2013.1_src/data/scripts/dock_solv.prm

>  <Rbt.Receptor>
prm/pocket_docking_2.prm

>  <SCORE>
-8.8531

>  <SCORE.INTER>
-8.8531

>  <SCORE.INTER.CONST>
1

>  <SCORE.INTER.POLAR>
0

>  <SCORE.INTER.ROT>
0

>  <SCORE.INTER.SOLV>
21.6405

>  <SCORE.INTER.VDW>
-16.7156

>  <SCORE.INTER.norm>
-0.681008

>  <SCORE.INTRA>
0

>  <SCORE.INTRA.DIHEDRAL>
0

>  <SCORE.INTRA.DIHEDRAL.0>
0

>  <SCORE.INTRA.POLAR>
0

>  <SCORE.INTRA.POLAR.0>
0

>  <SCORE.INTRA.REPUL>
0

>  <SCORE.INTRA.REPUL.0>
0

>  <SCORE.INTRA.SOLV>
0

>  <SCORE.INTRA.SOLV.lig_0>
-48.6608

>  <SCORE.INTRA.VDW>
0

>  <SCORE.INTRA.VDW.0>
0

>  <SCORE.INTRA.norm>
0

>  <SCORE.RESTR>
0

>  <SCORE.RESTR.CAVITY>
0

>  <SCORE.RESTR.norm>
0

>  <SCORE.SYSTEM>
0

>  <SCORE.SYSTEM.CONST>
0

>  <SCORE.SYSTEM.DIHEDRAL>
0

>  <SCORE.SYSTEM.SOLV>
0

>  <SCORE.SYSTEM.norm>
0

>  <SCORE.heavy>
13

>  <SCORE.norm>
-0.681008

>  <RMSD>
0.833

$$$$
ligand
 OpenBabel11021811483D
libRbt.so/2013.1/901 2013/11/27
 13 14  0  0  0  0  0  0  0  0999 V2000
   12.8441   43.8757   64.7880 N   0  0  0  0  0  0  0  0  0  0  0  0
   10.9800   43.1938   65.9855 N   0  0  0  0  0  0  0  0  0  0  0  0
   12.2476   43.6449   65.9540 C   0  0  0  0  0  0  0  0  0  0  0  0
   12.9495   43.8613   67.1391 N   0  0  0  0  0  0  0  0  0  0  0  0
   12.3024   43.6111   68.3509 C   0  0  0  0  0  0  0  0  0  0  0  0
   10.9868   43.1591   68.3561 C   0  0  0  0  0  0  0  0  0  0  0  0
   12.8986   43.7855   69.4130 O   0  0  0  0  0  0  0  0  0  0  0  0
   10.3493   42.8668   69.5769 N   0  0  0  0  0  0  0  0  0  0  0  0
    8.9262   42.4298   69.6495 C   0  0  2  0  0  0  0  0  0  0  0  0
    8.5559   41.6948   68.3501 C   0  0  0  0  0  0  0  0  0  0  0  0
   10.3468   42.9390   67.1447 C   0  0  0  0  0  0  0  0  0  0  0  0
    9.0310   42.4606   67.1466 N   0  0  0  0  0  0  0  0  0  0  0  0
    8.0273   43.6912   69.8178 C   0  0  0  0  0  0  0  0  0  0  0  0
  1  3  1  0  0  0  0
  2  3  2  0  0  0  0
  2 11  1  0  0  0  0
  3  4  1  0  0  0  0
  4  5  1  0  0  0  0
  5  6  1  0  0  0  0
  5  7  2  0  0  0  0
  6  8  1  0  0  0  0
  6 11  2  0  0  0  0
  8  9  1  0  0  0  0
  9 10  1  0  0  0  0
  9 13  1  6  0  0  0
 10 12  1  0  0  0  0
 11 12  1  0  0  0  0
M  END
>  <CHROM.1>
10.79102403,43.17663592,67.85715923,0.61806852,-0.30469026,-1.63717326

>  <Name>
ligand

>  <RI>
0

>  <Rbt.Current_Directory>
/home/itssahil/PROJECTS/Mol_Feturizer/New_Systems/rnas/3SUX

>  <Rbt.Executable>
rbdock ($Id: //depot/dev/client3/rdock/2013.1/src/exe/rbdock.cxx#4 $)

>  <Rbt.Library>
libRbt.so (2013.1, Build901 2013/11/27)

>  <Rbt.Parameter_File>
/export/apps/rDock/src/rDock_2013.1_src/data/scripts/dock_solv.prm

>  <Rbt.Receptor>
prm/pocket_docking_4.prm

>  <SCORE>
-8.85186

>  <SCORE.INTER>
-8.85186

>  <SCORE.INTER.CONST>
1

>  <SCORE.INTER.POLAR>
0

>  <SCORE.INTER.ROT>
0

>  <SCORE.INTER.SOLV>
21.6521

>  <SCORE.INTER.VDW>
-16.7186

>  <SCORE.INTER.norm>
-0.680913

>  <SCORE.INTRA>
0

>  <SCORE.INTRA.DIHEDRAL>
0

>  <SCORE.INTRA.DIHEDRAL.0>
0

>  <SCORE.INTRA.POLAR>
0

>  <SCORE.INTRA.POLAR.0>
0

>  <SCORE.INTRA.REPUL>
0

>  <SCORE.INTRA.REPUL.0>
0

>  <SCORE.INTRA.SOLV>
0

>  <SCORE.INTRA.SOLV.lig_0>
-48.6608

>  <SCORE.INTRA.VDW>
0

>  <SCORE.INTRA.VDW.0>
0

>  <SCORE.INTRA.norm>
0

>  <SCORE.RESTR>
0

>  <SCORE.RESTR.CAVITY>
0

>  <SCORE.RESTR.norm>
0

>  <SCORE.SYSTEM>
0

>  <SCORE.SYSTEM.CONST>
0

>  <SCORE.SYSTEM.DIHEDRAL>
0

>  <SCORE.SYSTEM.SOLV>
0

>  <SCORE.SYSTEM.norm>
0

>  <SCORE.heavy>
13

>  <SCORE.norm>
-0.680913

>  <RMSD>
0.833

$$$$
ligand
 OpenBabel11021811483D
libRbt.so/2013.1/901 2013/11/27
 13 14  0  0  0  0  0  0  0  0999 V2000
   12.8399   43.8877   64.8107 N   0  0  0  0  0  0  0  0  0  0  0  0
   10.9702   43.1927   65.9918 N   0  0  0  0  0  0  0  0  0  0  0  0
   12.2405   43.6367   65.9710 C   0  0  0  0  0  0  0  0  0  0  0  0
   12.9423   43.8245   67.1611 N   0  0  0  0  0  0  0  0  0  0  0  0
   12.2921   43.5535   68.3667 C   0  0  0  0  0  0  0  0  0  0  0  0
   10.9738   43.1094   68.3612 C   0  0  0  0  0  0  0  0  0  0  0  0
   12.8880   43.7025   69.4330 O   0  0  0  0  0  0  0  0  0  0  0  0
   10.3331   42.7959   69.5750 N   0  0  0  0  0  0  0  0  0  0  0  0
    8.9072   42.3661   69.6370 C   0  0  2  0  0  0  0  0  0  0  0  0
    8.5342   41.6601   68.3224 C   0  0  0  0  0  0  0  0  0  0  0  0
   10.3341   42.9179   67.1448 C   0  0  0  0  0  0  0  0  0  0  0  0
    9.0154   42.4476   67.1354 N   0  0  0  0  0  0  0  0  0  0  0  0
    8.0157   43.6292   69.8302 C   0  0  0  0  0  0  0  0  0  0  0  0
  1  3  1  0  0  0  0
  2  3  2  0  0  0  0
  2 11  1  0  0  0  0
  3  4  1  0  0  0  0
  4  5  1  0  0  0  0
  5  6  1  0  0  0  0
  5  7  2  0  0  0  0
  6  8  1  0  0  0  0
  6 11  2  0  0  0  0
  8  9  1  0  0  0  0
  9 10  1  0  0  0  0
  9 13  1  6  0  0  0
 10 12  1  0  0  0  0
 11 12  1  0  0  0  0
M  END
>  <CHROM.1>
10.77879487,43.13827453,67.86251494,0.61716788,-0.29862279,-1.61693801

>  <Name>
ligand

>  <RI>
0

>  <Rbt.Current_Directory>
/home/itssahil/PROJECTS/Mol_Feturizer/New_Systems/rnas/3SUX

>  <Rbt.Executable>
rbdock ($Id: //depot/dev/client3/rdock/2013.1/src/exe/rbdock.cxx#4 $)

>  <Rbt.Library>
libRbt.so (2013.1, Build901 2013/11/27)

>  <Rbt.Parameter_File>
/export/apps/rDock/src/rDock_2013.1_src/data/scripts/dock_solv.prm

>  <Rbt.Receptor>
prm/pocket_docking_2.prm

>  <SCORE>
-8.82925

>  <SCORE.INTER>
-8.82925

>  <SCORE.INTER.CONST>
1

>  <SCORE.INTER.POLAR>
0

>  <SCORE.INTER.ROT>
0

>  <SCORE.INTER.SOLV>
21.6879

>  <SCORE.INTER.VDW>
-16.7154

>  <SCORE.INTER.norm>
-0.679173

>  <SCORE.INTRA>
0

>  <SCORE.INTRA.DIHEDRAL>
0

>  <SCORE.INTRA.DIHEDRAL.0>
0

>  <SCORE.INTRA.POLAR>
0

>  <SCORE.INTRA.POLAR.0>
0

>  <SCORE.INTRA.REPUL>
0

>  <SCORE.INTRA.REPUL.0>
0

>  <SCORE.INTRA.SOLV>
0

>  <SCORE.INTRA.SOLV.lig_0>
-48.6608

>  <SCORE.INTRA.VDW>
0

>  <SCORE.INTRA.VDW.0>
0

>  <SCORE.INTRA.norm>
0

>  <SCORE.RESTR>
0

>  <SCORE.RESTR.CAVITY>
0

>  <SCORE.RESTR.norm>
0

>  <SCORE.SYSTEM>
0

>  <SCORE.SYSTEM.CONST>
0

>  <SCORE.SYSTEM.DIHEDRAL>
0

>  <SCORE.SYSTEM.SOLV>
0

>  <SCORE.SYSTEM.norm>
0

>  <SCORE.heavy>
13

>  <SCORE.norm>
-0.679173

>  <RMSD>
0.834

$$$$
ligand
 OpenBabel11021811483D
libRbt.so/2013.1/901 2013/11/27
 13 14  0  0  0  0  0  0  0  0999 V2000
   12.8498   43.8772   64.7962 N   0  0  0  0  0  0  0  0  0  0  0  0
   10.9827   43.1959   65.9892 N   0  0  0  0  0  0  0  0  0  0  0  0
   12.2505   43.6465   65.9608 C   0  0  0  0  0  0  0  0  0  0  0  0
   12.9497   43.8625   67.1476 N   0  0  0  0  0  0  0  0  0  0  0  0
   12.2996   43.6124   68.3578 C   0  0  0  0  0  0  0  0  0  0  0  0
   10.9838   43.1609   68.3598 C   0  0  0  0  0  0  0  0  0  0  0  0
   12.8933   43.7865   69.4214 O   0  0  0  0  0  0  0  0  0  0  0  0
   10.3433   42.8687   69.5790 N   0  0  0  0  0  0  0  0  0  0  0  0
    8.9199   42.4322   69.6482 C   0  0  2  0  0  0  0  0  0  0  0  0
    8.5524   41.6974   68.3479 C   0  0  0  0  0  0  0  0  0  0  0  0
   10.3467   42.9411   67.1469 C   0  0  0  0  0  0  0  0  0  0  0  0
    9.0307   42.4632   67.1456 N   0  0  0  0  0  0  0  0  0  0  0  0
    8.0210   43.6939   69.8146 C   0  0  0  0  0  0  0  0  0  0  0  0
  1  3  1  0  0  0  0
  2  3  2  0  0  0  0
  2 11  1  0  0  0  0
  3  4  1  0  0  0  0
  4  5  1  0  0  0  0
  5  6  1  0  0  0  0
  5  7  2  0  0  0  0
  6  8  1  0  0  0  0
  6 11  2  0  0  0  0
  8  9  1  0  0  0  0
  9 10  1  0  0  0  0
  9 13  1  6  0  0  0
 10 12  1  0  0  0  0
 11 12  1  0  0  0  0
M  END
>  <CHROM.1>
10.78923608,43.17853747,67.86041554,0.61559818,-0.30417166,-1.63780320

>  <Name>
ligand

>  <RI>
0

>  <Rbt.Current_Directory>
/home/itssahil/PROJECTS/Mol_Feturizer/New_Systems/rnas/3SUX

>  <Rbt.Executable>
rbdock ($Id: //depot/dev/client3/rdock/2013.1/src/exe/rbdock.cxx#4 $)

>  <Rbt.Library>
libRbt.so (2013.1, Build901 2013/11/27)

>  <Rbt.Parameter_File>
/export/apps/rDock/src/rDock_2013.1_src/data/scripts/dock_solv.prm

>  <Rbt.Receptor>
prm/pocket_docking_3.prm

>  <SCORE>
-8.84751

>  <SCORE.INTER>
-8.84751

>  <SCORE.INTER.CONST>
1

>  <SCORE.INTER.POLAR>
0

>  <SCORE.INTER.ROT>
0

>  <SCORE.INTER.SOLV>
21.6565

>  <SCORE.INTER.VDW>
-16.7172

>  <SCORE.INTER.norm>
-0.680578

>  <SCORE.INTRA>
0

>  <SCORE.INTRA.DIHEDRAL>
0

>  <SCORE.INTRA.DIHEDRAL.0>
0

>  <SCORE.INTRA.POLAR>
0

>  <SCORE.INTRA.POLAR.0>
0

>  <SCORE.INTRA.REPUL>
0

>  <SCORE.INTRA.REPUL.0>
0

>  <SCORE.INTRA.SOLV>
0

>  <SCORE.INTRA.SOLV.lig_0>
-48.6608

>  <SCORE.INTRA.VDW>
0

>  <SCORE.INTRA.VDW.0>
0

>  <SCORE.INTRA.norm>
0

>  <SCORE.RESTR>
0

>  <SCORE.RESTR.CAVITY>
0

>  <SCORE.RESTR.norm>
0

>  <SCORE.SYSTEM>
0

>  <SCORE.SYSTEM.CONST>
0

>  <SCORE.SYSTEM.DIHEDRAL>
0

>  <SCORE.SYSTEM.SOLV>
0

>  <SCORE.SYSTEM.norm>
0

>  <SCORE.heavy>
13

>  <SCORE.norm>
-0.680578

>  <RMSD>
0.834

$$$$
ligand
 OpenBabel11021811483D
libRbt.so/2013.1/901 2013/11/27
 13 14  0  0  0  0  0  0  0  0999 V2000
   12.8459   43.8763   64.7943 N   0  0  0  0  0  0  0  0  0  0  0  0
   10.9794   43.1966   65.9893 N   0  0  0  0  0  0  0  0  0  0  0  0
   12.2479   43.6453   65.9595 C   0  0  0  0  0  0  0  0  0  0  0  0
   12.9491   43.8588   67.1455 N   0  0  0  0  0  0  0  0  0  0  0  0
   12.3003   43.6084   68.3564 C   0  0  0  0  0  0  0  0  0  0  0  0
   10.9839   43.1589   68.3598 C   0  0  0  0  0  0  0  0  0  0  0  0
   12.8959   43.7803   69.4193 O   0  0  0  0  0  0  0  0  0  0  0  0
   10.3447   42.8663   69.5796 N   0  0  0  0  0  0  0  0  0  0  0  0
    8.9207   42.4319   69.6504 C   0  0  2  0  0  0  0  0  0  0  0  0
    8.5502   41.6993   68.3497 C   0  0  0  0  0  0  0  0  0  0  0  0
   10.3446   42.9415   67.1475 C   0  0  0  0  0  0  0  0  0  0  0  0
    9.0279   42.4657   67.1476 N   0  0  0  0  0  0  0  0  0  0  0  0
    8.0241   43.6949   69.8195 C   0  0  0  0  0  0  0  0  0  0  0  0
  1  3  1  0  0  0  0
  2  3  2  0  0  0  0
  2 11  1  0  0  0  0
  3  4  1  0  0  0  0
  4  5  1  0  0  0  0
  5  6  1  0  0  0  0
  5  7  2  0  0  0  0
  6  8  1  0  0  0  0
  6 11  2  0  0  0  0
  8  9  1  0  0  0  0
  9 10  1  0  0  0  0
  9 13  1  6  0  0  0
 10 12  1  0  0  0  0
 11 12  1  0  0  0  0
M  END
>  <CHROM.1>
10.78862739,43.17742941,67.86071376,0.61722645,-0.30270182,-1.63617669

>  <Name>
ligand

>  <RI>
0

>  <Rbt.Current_Directory>
/home/itssahil/PROJECTS/Mol_Feturizer/New_Systems/rnas/3SUX

>  <Rbt.Executable>
rbdock ($Id: //depot/dev/client3/rdock/2013.1/src/exe/rbdock.cxx#4 $)

>  <Rbt.Library>
libRbt.so (2013.1, Build901 2013/11/27)

>  <Rbt.Parameter_File>
/export/apps/rDock/src/rDock_2013.1_src/data/scripts/dock_solv.prm

>  <Rbt.Receptor>
prm/pocket_docking_3.prm

>  <SCORE>
-8.85131

>  <SCORE.INTER>
-8.85131

>  <SCORE.INTER.CONST>
1

>  <SCORE.INTER.POLAR>
0

>  <SCORE.INTER.ROT>
0

>  <SCORE.INTER.SOLV>
21.6554

>  <SCORE.INTER.VDW>
-16.7194

>  <SCORE.INTER.norm>
-0.68087

>  <SCORE.INTRA>
0

>  <SCORE.INTRA.DIHEDRAL>
0

>  <SCORE.INTRA.DIHEDRAL.0>
0

>  <SCORE.INTRA.POLAR>
0

>  <SCORE.INTRA.POLAR.0>
0

>  <SCORE.INTRA.REPUL>
0

>  <SCORE.INTRA.REPUL.0>
0

>  <SCORE.INTRA.SOLV>
0

>  <SCORE.INTRA.SOLV.lig_0>
-48.6608

>  <SCORE.INTRA.VDW>
0

>  <SCORE.INTRA.VDW.0>
0

>  <SCORE.INTRA.norm>
0

>  <SCORE.RESTR>
0

>  <SCORE.RESTR.CAVITY>
0

>  <SCORE.RESTR.norm>
0

>  <SCORE.SYSTEM>
0

>  <SCORE.SYSTEM.CONST>
0

>  <SCORE.SYSTEM.DIHEDRAL>
0

>  <SCORE.SYSTEM.SOLV>
0

>  <SCORE.SYSTEM.norm>
0

>  <SCORE.heavy>
13

>  <SCORE.norm>
-0.68087

>  <RMSD>
0.834

$$$$
ligand
 OpenBabel11021811483D
libRbt.so/2013.1/901 2013/11/27
 13 14  0  0  0  0  0  0  0  0999 V2000
   12.8355   43.8757   64.7846 N   0  0  0  0  0  0  0  0  0  0  0  0
   10.9726   43.1943   65.9842 N   0  0  0  0  0  0  0  0  0  0  0  0
   12.2405   43.6443   65.9513 C   0  0  0  0  0  0  0  0  0  0  0  0
   12.9443   43.8590   67.1356 N   0  0  0  0  0  0  0  0  0  0  0  0
   12.2987   43.6083   68.3480 C   0  0  0  0  0  0  0  0  0  0  0  0
   10.9827   43.1575   68.3548 C   0  0  0  0  0  0  0  0  0  0  0  0
   12.8966   43.7813   69.4095 O   0  0  0  0  0  0  0  0  0  0  0  0
   10.3467   42.8646   69.5762 N   0  0  0  0  0  0  0  0  0  0  0  0
    8.9233   42.4287   69.6504 C   0  0  2  0  0  0  0  0  0  0  0  0
    8.5506   41.6952   68.3509 C   0  0  0  0  0  0  0  0  0  0  0  0
   10.3408   42.9390   67.1441 C   0  0  0  0  0  0  0  0  0  0  0  0
    9.0246   42.4617   67.1474 N   0  0  0  0  0  0  0  0  0  0  0  0
    8.0258   43.6908   69.8212 C   0  0  0  0  0  0  0  0  0  0  0  0
  1  3  1  0  0  0  0
  2  3  2  0  0  0  0
  2 11  1  0  0  0  0
  3  4  1  0  0  0  0
  4  5  1  0  0  0  0
  5  6  1  0  0  0  0
  5  7  2  0  0  0  0
  6  8  1  0  0  0  0
  6 11  2  0  0  0  0
  8  9  1  0  0  0  0
  9 10  1  0  0  0  0
  9 13  1  6  0  0  0
 10 12  1  0  0  0  0
 11 12  1  0  0  0  0
M  END
>  <CHROM.1>
10.78625333,43.17559629,67.85610379,0.61962547,-0.30392192,-1.63579861

>  <Name>
ligand

>  <RI>
0

>  <Rbt.Current_Directory>
/home/itssahil/PROJECTS/Mol_Feturizer/New_Systems/rnas/3SUX

>  <Rbt.Executable>
rbdock ($Id: //depot/dev/client3/rdock/2013.1/src/exe/rbdock.cxx#4 $)

>  <Rbt.Library>
libRbt.so (2013.1, Build901 2013/11/27)

>  <Rbt.Parameter_File>
/export/apps/rDock/src/rDock_2013.1_src/data/scripts/dock_solv.prm

>  <Rbt.Receptor>
prm/pocket_docking_3.prm

>  <SCORE>
-8.85377

>  <SCORE.INTER>
-8.85377

>  <SCORE.INTER.CONST>
1

>  <SCORE.INTER.POLAR>
0

>  <SCORE.INTER.ROT>
0

>  <SCORE.INTER.SOLV>
21.6528

>  <SCORE.INTER.VDW>
-16.7201

>  <SCORE.INTER.norm>
-0.68106

>  <SCORE.INTRA>
0

>  <SCORE.INTRA.DIHEDRAL>
0

>  <SCORE.INTRA.DIHEDRAL.0>
0

>  <SCORE.INTRA.POLAR>
0

>  <SCORE.INTRA.POLAR.0>
0

>  <SCORE.INTRA.REPUL>
0

>  <SCORE.INTRA.REPUL.0>
0

>  <SCORE.INTRA.SOLV>
0

>  <SCORE.INTRA.SOLV.lig_0>
-48.6608

>  <SCORE.INTRA.VDW>
0

>  <SCORE.INTRA.VDW.0>
0

>  <SCORE.INTRA.norm>
0

>  <SCORE.RESTR>
0

>  <SCORE.RESTR.CAVITY>
0

>  <SCORE.RESTR.norm>
0

>  <SCORE.SYSTEM>
0

>  <SCORE.SYSTEM.CONST>
0

>  <SCORE.SYSTEM.DIHEDRAL>
0

>  <SCORE.SYSTEM.SOLV>
0

>  <SCORE.SYSTEM.norm>
0

>  <SCORE.heavy>
13

>  <SCORE.norm>
-0.68106

>  <RMSD>
0.834

$$$$
ligand
 OpenBabel11021811483D
libRbt.so/2013.1/901 2013/11/27
 13 14  0  0  0  0  0  0  0  0999 V2000
   12.8337   43.8764   64.7880 N   0  0  0  0  0  0  0  0  0  0  0  0
   10.9696   43.1957   65.9861 N   0  0  0  0  0  0  0  0  0  0  0  0
   12.2379   43.6448   65.9542 C   0  0  0  0  0  0  0  0  0  0  0  0
   12.9411   43.8584   67.1390 N   0  0  0  0  0  0  0  0  0  0  0  0
   12.2946   43.6075   68.3509 C   0  0  0  0  0  0  0  0  0  0  0  0
   10.9783   43.1575   68.3566 C   0  0  0  0  0  0  0  0  0  0  0  0
   12.8920   43.7794   69.4129 O   0  0  0  0  0  0  0  0  0  0  0  0
   10.3414   42.8644   69.5775 N   0  0  0  0  0  0  0  0  0  0  0  0
    8.9177   42.4294   69.6507 C   0  0  2  0  0  0  0  0  0  0  0  0
    8.5452   41.6969   68.3505 C   0  0  0  0  0  0  0  0  0  0  0  0
   10.3370   42.9401   67.1454 C   0  0  0  0  0  0  0  0  0  0  0  0
    9.0205   42.4638   67.1477 N   0  0  0  0  0  0  0  0  0  0  0  0
    8.0209   43.6920   69.8216 C   0  0  0  0  0  0  0  0  0  0  0  0
  1  3  1  0  0  0  0
  2  3  2  0  0  0  0
  2 11  1  0  0  0  0
  3  4  1  0  0  0  0
  4  5  1  0  0  0  0
  5  6  1  0  0  0  0
  5  7  2  0  0  0  0
  6  8  1  0  0  0  0
  6 11  2  0  0  0  0
  8  9  1  0  0  0  0
  9 10  1  0  0  0  0
  9 13  1  6  0  0  0
 10 12  1  0  0  0  0
 11 12  1  0  0  0  0
M  END
>  <CHROM.1>
10.78217707,43.17603079,67.85785259,0.61905093,-0.30319626,-1.63540476

>  <Name>
ligand

>  <RI>
0

>  <Rbt.Current_Directory>
/home/itssahil/PROJECTS/Mol_Feturizer/New_Systems/rnas/3SUX

>  <Rbt.Executable>
rbdock ($Id: //depot/dev/client3/rdock/2013.1/src/exe/rbdock.cxx#4 $)

>  <Rbt.Library>
libRbt.so (2013.1, Build901 2013/11/27)

>  <Rbt.Parameter_File>
/export/apps/rDock/src/rDock_2013.1_src/data/scripts/dock_solv.prm

>  <Rbt.Receptor>
prm/pocket_docking_2.prm

>  <SCORE>
-8.85302

>  <SCORE.INTER>
-8.85302

>  <SCORE.INTER.CONST>
1

>  <SCORE.INTER.POLAR>
0

>  <SCORE.INTER.ROT>
0

>  <SCORE.INTER.SOLV>
21.6531

>  <SCORE.INTER.VDW>
-16.7197

>  <SCORE.INTER.norm>
-0.681001

>  <SCORE.INTRA>
0

>  <SCORE.INTRA.DIHEDRAL>
0

>  <SCORE.INTRA.DIHEDRAL.0>
0

>  <SCORE.INTRA.POLAR>
0

>  <SCORE.INTRA.POLAR.0>
0

>  <SCORE.INTRA.REPUL>
0

>  <SCORE.INTRA.REPUL.0>
0

>  <SCORE.INTRA.SOLV>
0

>  <SCORE.INTRA.SOLV.lig_0>
-48.6608

>  <SCORE.INTRA.VDW>
0

>  <SCORE.INTRA.VDW.0>
0

>  <SCORE.INTRA.norm>
0

>  <SCORE.RESTR>
0

>  <SCORE.RESTR.CAVITY>
0

>  <SCORE.RESTR.norm>
0

>  <SCORE.SYSTEM>
0

>  <SCORE.SYSTEM.CONST>
0

>  <SCORE.SYSTEM.DIHEDRAL>
0

>  <SCORE.SYSTEM.SOLV>
0

>  <SCORE.SYSTEM.norm>
0

>  <SCORE.heavy>
13

>  <SCORE.norm>
-0.681001

>  <RMSD>
0.835

$$$$
ligand
 OpenBabel11021811483D
libRbt.so/2013.1/901 2013/11/27
 13 14  0  0  0  0  0  0  0  0999 V2000
   12.8353   43.8750   64.7866 N   0  0  0  0  0  0  0  0  0  0  0  0
   10.9716   43.1974   65.9870 N   0  0  0  0  0  0  0  0  0  0  0  0
   12.2405   43.6446   65.9535 C   0  0  0  0  0  0  0  0  0  0  0  0
   12.9455   43.8573   67.1375 N   0  0  0  0  0  0  0  0  0  0  0  0
   12.3000   43.6076   68.3502 C   0  0  0  0  0  0  0  0  0  0  0  0
   10.9830   43.1596   68.3576 C   0  0  0  0  0  0  0  0  0  0  0  0
   12.8989   43.7788   69.4114 O   0  0  0  0  0  0  0  0  0  0  0  0
   10.3471   42.8677   69.5792 N   0  0  0  0  0  0  0  0  0  0  0  0
    8.9228   42.4350   69.6542 C   0  0  2  0  0  0  0  0  0  0  0  0
    8.5477   41.7027   68.3546 C   0  0  0  0  0  0  0  0  0  0  0  0
   10.3400   42.9430   67.1472 C   0  0  0  0  0  0  0  0  0  0  0  0
    9.0227   42.4687   67.1511 N   0  0  0  0  0  0  0  0  0  0  0  0
    8.0281   43.6989   69.8259 C   0  0  0  0  0  0  0  0  0  0  0  0
  1  3  1  0  0  0  0
  2  3  2  0  0  0  0
  2 11  1  0  0  0  0
  3  4  1  0  0  0  0
  4  5  1  0  0  0  0
  5  6  1  0  0  0  0
  5  7  2  0  0  0  0
  6  8  1  0  0  0  0
  6 11  2  0  0  0  0
  8  9  1  0  0  0  0
  9 10  1  0  0  0  0
  9 13  1  6  0  0  0
 10 12  1  0  0  0  0
 11 12  1  0  0  0  0
M  END
>  <CHROM.1>
10.78632354,43.17836921,67.85902718,0.62039141,-0.30175510,-1.63520591

>  <Name>
ligand

>  <RI>
0

>  <Rbt.Current_Directory>
/home/itssahil/PROJECTS/Mol_Feturizer/New_Systems/rnas/3SUX

>  <Rbt.Executable>
rbdock ($Id: //depot/dev/client3/rdock/2013.1/src/exe/rbdock.cxx#4 $)

>  <Rbt.Library>
libRbt.so (2013.1, Build901 2013/11/27)

>  <Rbt.Parameter_File>
/export/apps/rDock/src/rDock_2013.1_src/data/scripts/dock_solv.prm

>  <Rbt.Receptor>
prm/pocket_docking_3.prm

>  <SCORE>
-8.85504

>  <SCORE.INTER>
-8.85504

>  <SCORE.INTER.CONST>
1

>  <SCORE.INTER.POLAR>
0

>  <SCORE.INTER.ROT>
0

>  <SCORE.INTER.SOLV>
21.6512

>  <SCORE.INTER.VDW>
-16.7204

>  <SCORE.INTER.norm>
-0.681157

>  <SCORE.INTRA>
0

>  <SCORE.INTRA.DIHEDRAL>
0

>  <SCORE.INTRA.DIHEDRAL.0>
0

>  <SCORE.INTRA.POLAR>
0

>  <SCORE.INTRA.POLAR.0>
0

>  <SCORE.INTRA.REPUL>
0

>  <SCORE.INTRA.REPUL.0>
0

>  <SCORE.INTRA.SOLV>
0

>  <SCORE.INTRA.SOLV.lig_0>
-48.6608

>  <SCORE.INTRA.VDW>
0

>  <SCORE.INTRA.VDW.0>
0

>  <SCORE.INTRA.norm>
0

>  <SCORE.RESTR>
0

>  <SCORE.RESTR.CAVITY>
0

>  <SCORE.RESTR.norm>
0

>  <SCORE.SYSTEM>
0

>  <SCORE.SYSTEM.CONST>
0

>  <SCORE.SYSTEM.DIHEDRAL>
0

>  <SCORE.SYSTEM.SOLV>
0

>  <SCORE.SYSTEM.norm>
0

>  <SCORE.heavy>
13

>  <SCORE.norm>
-0.681157

>  <RMSD>
0.835

$$$$
ligand
 OpenBabel11021811483D
libRbt.so/2013.1/901 2013/11/27
 13 14  0  0  0  0  0  0  0  0999 V2000
   12.8423   43.8958   64.8076 N   0  0  0  0  0  0  0  0  0  0  0  0
   10.9727   43.1959   65.9859 N   0  0  0  0  0  0  0  0  0  0  0  0
   12.2409   43.6460   65.9672 C   0  0  0  0  0  0  0  0  0  0  0  0
   12.9383   43.8414   67.1585 N   0  0  0  0  0  0  0  0  0  0  0  0
   12.2860   43.5715   68.3633 C   0  0  0  0  0  0  0  0  0  0  0  0
   10.9699   43.1210   68.3556 C   0  0  0  0  0  0  0  0  0  0  0  0
   12.8781   43.7271   69.4306 O   0  0  0  0  0  0  0  0  0  0  0  0
   10.3272   42.8087   69.5687 N   0  0  0  0  0  0  0  0  0  0  0  0
    8.9033   42.3721   69.6281 C   0  0  2  0  0  0  0  0  0  0  0  0
    8.5375   41.6597   68.3150 C   0  0  0  0  0  0  0  0  0  0  0  0
   10.3346   42.9221   67.1381 C   0  0  0  0  0  0  0  0  0  0  0  0
    9.0183   42.4453   67.1266 N   0  0  0  0  0  0  0  0  0  0  0  0
    8.0051   43.6316   69.8143 C   0  0  0  0  0  0  0  0  0  0  0  0
  1  3  1  0  0  0  0
  2  3  2  0  0  0  0
  2 11  1  0  0  0  0
  3  4  1  0  0  0  0
  4  5  1  0  0  0  0
  5  6  1  0  0  0  0
  5  7  2  0  0  0  0
  6  8  1  0  0  0  0
  6 11  2  0  0  0  0
  8  9  1  0  0  0  0
  9 10  1  0  0  0  0
  9 13  1  6  0  0  0
 10 12  1  0  0  0  0
 11 12  1  0  0  0  0
M  END
>  <CHROM.1>
10.77617737,43.14715315,67.85622113,0.61393805,-0.30333622,-1.62143652

>  <Name>
ligand

>  <RI>
0

>  <Rbt.Current_Directory>
/home/itssahil/PROJECTS/Mol_Feturizer/New_Systems/rnas/3SUX

>  <Rbt.Executable>
rbdock ($Id: //depot/dev/client3/rdock/2013.1/src/exe/rbdock.cxx#4 $)

>  <Rbt.Library>
libRbt.so (2013.1, Build901 2013/11/27)

>  <Rbt.Parameter_File>
/export/apps/rDock/src/rDock_2013.1_src/data/scripts/dock_solv.prm

>  <Rbt.Receptor>
prm/pocket_docking_4.prm

>  <SCORE>
-8.8239

>  <SCORE.INTER>
-8.8239

>  <SCORE.INTER.CONST>
1

>  <SCORE.INTER.POLAR>
0

>  <SCORE.INTER.ROT>
0

>  <SCORE.INTER.SOLV>
21.7033

>  <SCORE.INTER.VDW>
-16.717

>  <SCORE.INTER.norm>
-0.678761

>  <SCORE.INTRA>
0

>  <SCORE.INTRA.DIHEDRAL>
0

>  <SCORE.INTRA.DIHEDRAL.0>
0

>  <SCORE.INTRA.POLAR>
0

>  <SCORE.INTRA.POLAR.0>
0

>  <SCORE.INTRA.REPUL>
0

>  <SCORE.INTRA.REPUL.0>
0

>  <SCORE.INTRA.SOLV>
0

>  <SCORE.INTRA.SOLV.lig_0>
-48.6608

>  <SCORE.INTRA.VDW>
0

>  <SCORE.INTRA.VDW.0>
0

>  <SCORE.INTRA.norm>
0

>  <SCORE.RESTR>
0

>  <SCORE.RESTR.CAVITY>
0

>  <SCORE.RESTR.norm>
0

>  <SCORE.SYSTEM>
0

>  <SCORE.SYSTEM.CONST>
0

>  <SCORE.SYSTEM.DIHEDRAL>
0

>  <SCORE.SYSTEM.SOLV>
0

>  <SCORE.SYSTEM.norm>
0

>  <SCORE.heavy>
13

>  <SCORE.norm>
-0.678761

>  <RMSD>
0.835

$$$$
ligand
 OpenBabel11021811483D
libRbt.so/2013.1/901 2013/11/27
 13 14  0  0  0  0  0  0  0  0999 V2000
   12.8495   43.8765   64.7903 N   0  0  0  0  0  0  0  0  0  0  0  0
   10.9834   43.1968   65.9859 N   0  0  0  0  0  0  0  0  0  0  0  0
   12.2521   43.6450   65.9557 C   0  0  0  0  0  0  0  0  0  0  0  0
   12.9541   43.8576   67.1414 N   0  0  0  0  0  0  0  0  0  0  0  0
   12.3059   43.6067   68.3525 C   0  0  0  0  0  0  0  0  0  0  0  0
   10.9893   43.1578   68.3565 C   0  0  0  0  0  0  0  0  0  0  0  0
   12.9022   43.7778   69.4152 O   0  0  0  0  0  0  0  0  0  0  0  0
   10.3507   42.8647   69.5765 N   0  0  0  0  0  0  0  0  0  0  0  0
    8.9266   42.4309   69.6478 C   0  0  2  0  0  0  0  0  0  0  0  0
    8.5550   41.6991   68.3469 C   0  0  0  0  0  0  0  0  0  0  0  0
   10.3493   42.9413   67.1444 C   0  0  0  0  0  0  0  0  0  0  0  0
    9.0323   42.4660   67.1450 N   0  0  0  0  0  0  0  0  0  0  0  0
    8.0306   43.6941   69.8181 C   0  0  0  0  0  0  0  0  0  0  0  0
  1  3  1  0  0  0  0
  2  3  2  0  0  0  0
  2 11  1  0  0  0  0
  3  4  1  0  0  0  0
  4  5  1  0  0  0  0
  5  6  1  0  0  0  0
  5  7  2  0  0  0  0
  6  8  1  0  0  0  0
  6 11  2  0  0  0  0
  8  9  1  0  0  0  0
  9 10  1  0  0  0  0
  9 13  1  6  0  0  0
 10 12  1  0  0  0  0
 11 12  1  0  0  0  0
M  END
>  <CHROM.1>
10.79376181,43.17667426,67.85746596,0.61787115,-0.30234078,-1.63541114

>  <Name>
ligand

>  <RI>
0

>  <Rbt.Current_Directory>
/home/itssahil/PROJECTS/Mol_Feturizer/New_Systems/rnas/3SUX

>  <Rbt.Executable>
rbdock ($Id: //depot/dev/client3/rdock/2013.1/src/exe/rbdock.cxx#4 $)

>  <Rbt.Library>
libRbt.so (2013.1, Build901 2013/11/27)

>  <Rbt.Parameter_File>
/export/apps/rDock/src/rDock_2013.1_src/data/scripts/dock_solv.prm

>  <Rbt.Receptor>
prm/pocket_docking_6.prm

>  <SCORE>
-8.84971

>  <SCORE.INTER>
-8.84971

>  <SCORE.INTER.CONST>
1

>  <SCORE.INTER.POLAR>
0

>  <SCORE.INTER.ROT>
0

>  <SCORE.INTER.SOLV>
21.6686

>  <SCORE.INTER.VDW>
-16.7227

>  <SCORE.INTER.norm>
-0.680747

>  <SCORE.INTRA>
0

>  <SCORE.INTRA.DIHEDRAL>
0

>  <SCORE.INTRA.DIHEDRAL.0>
0

>  <SCORE.INTRA.POLAR>
0

>  <SCORE.INTRA.POLAR.0>
0

>  <SCORE.INTRA.REPUL>
0

>  <SCORE.INTRA.REPUL.0>
0

>  <SCORE.INTRA.SOLV>
0

>  <SCORE.INTRA.SOLV.lig_0>
-48.6608

>  <SCORE.INTRA.VDW>
0

>  <SCORE.INTRA.VDW.0>
0

>  <SCORE.INTRA.norm>
0

>  <SCORE.RESTR>
0

>  <SCORE.RESTR.CAVITY>
0

>  <SCORE.RESTR.norm>
0

>  <SCORE.SYSTEM>
0

>  <SCORE.SYSTEM.CONST>
0

>  <SCORE.SYSTEM.DIHEDRAL>
0

>  <SCORE.SYSTEM.SOLV>
0

>  <SCORE.SYSTEM.norm>
0

>  <SCORE.heavy>
13

>  <SCORE.norm>
-0.680747

>  <RMSD>
0.836

$$$$
ligand
 OpenBabel11021811483D
libRbt.so/2013.1/901 2013/11/27
 13 14  0  0  0  0  0  0  0  0999 V2000
   12.8474   43.8790   64.7869 N   0  0  0  0  0  0  0  0  0  0  0  0
   10.9824   43.1981   65.9834 N   0  0  0  0  0  0  0  0  0  0  0  0
   12.2510   43.6462   65.9526 C   0  0  0  0  0  0  0  0  0  0  0  0
   12.9542   43.8571   67.1379 N   0  0  0  0  0  0  0  0  0  0  0  0
   12.3071   43.6049   68.3492 C   0  0  0  0  0  0  0  0  0  0  0  0
   10.9904   43.1561   68.3539 C   0  0  0  0  0  0  0  0  0  0  0  0
   12.9044   43.7745   69.4116 O   0  0  0  0  0  0  0  0  0  0  0  0
   10.3529   42.8616   69.5741 N   0  0  0  0  0  0  0  0  0  0  0  0
    8.9287   42.4279   69.6462 C   0  0  2  0  0  0  0  0  0  0  0  0
    8.5559   41.6978   68.3447 C   0  0  0  0  0  0  0  0  0  0  0  0
   10.3492   42.9413   67.1421 C   0  0  0  0  0  0  0  0  0  0  0  0
    9.0322   42.4662   67.1433 N   0  0  0  0  0  0  0  0  0  0  0  0
    8.0331   43.6911   69.8189 C   0  0  0  0  0  0  0  0  0  0  0  0
  1  3  1  0  0  0  0
  2  3  2  0  0  0  0
  2 11  1  0  0  0  0
  3  4  1  0  0  0  0
  4  5  1  0  0  0  0
  5  6  1  0  0  0  0
  5  7  2  0  0  0  0
  6  8  1  0  0  0  0
  6 11  2  0  0  0  0
  8  9  1  0  0  0  0
  9 10  1  0  0  0  0
  9 13  1  6  0  0  0
 10 12  1  0  0  0  0
 11 12  1  0  0  0  0
M  END
>  <CHROM.1>
10.79440761,43.17565573,67.85507472,0.61883590,-0.30223610,-1.63385794

>  <Name>
ligand

>  <RI>
0

>  <Rbt.Current_Directory>
/home/itssahil/PROJECTS/Mol_Feturizer/New_Systems/rnas/3SUX

>  <Rbt.Executable>
rbdock ($Id: //depot/dev/client3/rdock/2013.1/src/exe/rbdock.cxx#4 $)

>  <Rbt.Library>
libRbt.so (2013.1, Build901 2013/11/27)

>  <Rbt.Parameter_File>
/export/apps/rDock/src/rDock_2013.1_src/data/scripts/dock_solv.prm

>  <Rbt.Receptor>
prm/pocket_docking_2.prm

>  <SCORE>
-8.84777

>  <SCORE.INTER>
-8.84777

>  <SCORE.INTER.CONST>
1

>  <SCORE.INTER.POLAR>
0

>  <SCORE.INTER.ROT>
0

>  <SCORE.INTER.SOLV>
21.6784

>  <SCORE.INTER.VDW>
-16.7246

>  <SCORE.INTER.norm>
-0.680598

>  <SCORE.INTRA>
0

>  <SCORE.INTRA.DIHEDRAL>
0

>  <SCORE.INTRA.DIHEDRAL.0>
0

>  <SCORE.INTRA.POLAR>
0

>  <SCORE.INTRA.POLAR.0>
0

>  <SCORE.INTRA.REPUL>
0

>  <SCORE.INTRA.REPUL.0>
0

>  <SCORE.INTRA.SOLV>
0

>  <SCORE.INTRA.SOLV.lig_0>
-48.6608

>  <SCORE.INTRA.VDW>
0

>  <SCORE.INTRA.VDW.0>
0

>  <SCORE.INTRA.norm>
0

>  <SCORE.RESTR>
0

>  <SCORE.RESTR.CAVITY>
0

>  <SCORE.RESTR.norm>
0

>  <SCORE.SYSTEM>
0

>  <SCORE.SYSTEM.CONST>
0

>  <SCORE.SYSTEM.DIHEDRAL>
0

>  <SCORE.SYSTEM.SOLV>
0

>  <SCORE.SYSTEM.norm>
0

>  <SCORE.heavy>
13

>  <SCORE.norm>
-0.680598

>  <RMSD>
0.837

$$$$
ligand
 OpenBabel11021811483D
libRbt.so/2013.1/901 2013/11/27
 13 14  0  0  0  0  0  0  0  0999 V2000
   12.8330   43.8781   64.8039 N   0  0  0  0  0  0  0  0  0  0  0  0
   10.9621   43.1903   65.9873 N   0  0  0  0  0  0  0  0  0  0  0  0
   12.2333   43.6316   65.9651 C   0  0  0  0  0  0  0  0  0  0  0  0
   12.9357   43.8212   67.1545 N   0  0  0  0  0  0  0  0  0  0  0  0
   12.2852   43.5549   68.3610 C   0  0  0  0  0  0  0  0  0  0  0  0
   10.9659   43.1136   68.3570 C   0  0  0  0  0  0  0  0  0  0  0  0
   12.8816   43.7056   69.4267 O   0  0  0  0  0  0  0  0  0  0  0  0
   10.3247   42.8049   69.5717 N   0  0  0  0  0  0  0  0  0  0  0  0
    8.8980   42.3783   69.6352 C   0  0  2  0  0  0  0  0  0  0  0  0
    8.5233   41.6694   68.3226 C   0  0  0  0  0  0  0  0  0  0  0  0
   10.3256   42.9202   67.1412 C   0  0  0  0  0  0  0  0  0  0  0  0
    9.0059   42.4526   67.1333 N   0  0  0  0  0  0  0  0  0  0  0  0
    8.0092   43.6438   69.8250 C   0  0  0  0  0  0  0  0  0  0  0  0
  1  3  1  0  0  0  0
  2  3  2  0  0  0  0
  2 11  1  0  0  0  0
  3  4  1  0  0  0  0
  4  5  1  0  0  0  0
  5  6  1  0  0  0  0
  5  7  2  0  0  0  0
  6  8  1  0  0  0  0
  6 11  2  0  0  0  0
  8  9  1  0  0  0  0
  9 10  1  0  0  0  0
  9 13  1  6  0  0  0
 10 12  1  0  0  0  0
 11 12  1  0  0  0  0
M  END
>  <CHROM.1>
10.77089156,43.14155521,67.85819975,0.61744943,-0.29651383,-1.61964467

>  <Name>
ligand

>  <RI>
0

>  <Rbt.Current_Directory>
/home/itssahil/PROJECTS/Mol_Feturizer/New_Systems/rnas/3SUX

>  <Rbt.Executable>
rbdock ($Id: //depot/dev/client3/rdock/2013.1/src/exe/rbdock.cxx#4 $)

>  <Rbt.Library>
libRbt.so (2013.1, Build901 2013/11/27)

>  <Rbt.Parameter_File>
/export/apps/rDock/src/rDock_2013.1_src/data/scripts/dock_solv.prm

>  <Rbt.Receptor>
prm/pocket_docking_2.prm

>  <SCORE>
-8.82759

>  <SCORE.INTER>
-8.82759

>  <SCORE.INTER.CONST>
1

>  <SCORE.INTER.POLAR>
0

>  <SCORE.INTER.ROT>
0

>  <SCORE.INTER.SOLV>
21.7044

>  <SCORE.INTER.VDW>
-16.7199

>  <SCORE.INTER.norm>
-0.679045

>  <SCORE.INTRA>
0

>  <SCORE.INTRA.DIHEDRAL>
0

>  <SCORE.INTRA.DIHEDRAL.0>
0

>  <SCORE.INTRA.POLAR>
0

>  <SCORE.INTRA.POLAR.0>
0

>  <SCORE.INTRA.REPUL>
0

>  <SCORE.INTRA.REPUL.0>
0

>  <SCORE.INTRA.SOLV>
0

>  <SCORE.INTRA.SOLV.lig_0>
-48.6608

>  <SCORE.INTRA.VDW>
0

>  <SCORE.INTRA.VDW.0>
0

>  <SCORE.INTRA.norm>
0

>  <SCORE.RESTR>
0

>  <SCORE.RESTR.CAVITY>
0

>  <SCORE.RESTR.norm>
0

>  <SCORE.SYSTEM>
0

>  <SCORE.SYSTEM.CONST>
0

>  <SCORE.SYSTEM.DIHEDRAL>
0

>  <SCORE.SYSTEM.SOLV>
0

>  <SCORE.SYSTEM.norm>
0

>  <SCORE.heavy>
13

>  <SCORE.norm>
-0.679045

>  <RMSD>
0.839

$$$$
ligand
 OpenBabel11021811483D
libRbt.so/2013.1/901 2013/11/27
 13 14  0  0  0  0  0  0  0  0999 V2000
   12.8432   43.8759   64.7916 N   0  0  0  0  0  0  0  0  0  0  0  0
   10.9750   43.1944   65.9829 N   0  0  0  0  0  0  0  0  0  0  0  0
   12.2436   43.6431   65.9556 C   0  0  0  0  0  0  0  0  0  0  0  0
   12.9432   43.8548   67.1428 N   0  0  0  0  0  0  0  0  0  0  0  0
   12.2928   43.6026   68.3524 C   0  0  0  0  0  0  0  0  0  0  0  0
   10.9763   43.1532   68.3534 C   0  0  0  0  0  0  0  0  0  0  0  0
   12.8869   43.7729   69.4165 O   0  0  0  0  0  0  0  0  0  0  0  0
   10.3355   42.8587   69.5719 N   0  0  0  0  0  0  0  0  0  0  0  0
    8.9113   42.4243   69.6401 C   0  0  2  0  0  0  0  0  0  0  0  0
    8.5426   41.6936   68.3378 C   0  0  0  0  0  0  0  0  0  0  0  0
   10.3387   42.9376   67.1400 C   0  0  0  0  0  0  0  0  0  0  0  0
    9.0220   42.4618   67.1375 N   0  0  0  0  0  0  0  0  0  0  0  0
    8.0145   43.6870   69.8099 C   0  0  0  0  0  0  0  0  0  0  0  0
  1  3  1  0  0  0  0
  2  3  2  0  0  0  0
  2 11  1  0  0  0  0
  3  4  1  0  0  0  0
  4  5  1  0  0  0  0
  5  6  1  0  0  0  0
  5  7  2  0  0  0  0
  6  8  1  0  0  0  0
  6 11  2  0  0  0  0
  8  9  1  0  0  0  0
  9 10  1  0  0  0  0
  9 13  1  6  0  0  0
 10 12  1  0  0  0  0
 11 12  1  0  0  0  0
M  END
>  <CHROM.1>
10.78174270,43.17243457,67.85408208,0.61581459,-0.30257776,-1.63507873

>  <Name>
ligand

>  <RI>
0

>  <Rbt.Current_Directory>
/home/itssahil/PROJECTS/Mol_Feturizer/New_Systems/rnas/3SUX

>  <Rbt.Executable>
rbdock ($Id: //depot/dev/client3/rdock/2013.1/src/exe/rbdock.cxx#4 $)

>  <Rbt.Library>
libRbt.so (2013.1, Build901 2013/11/27)

>  <Rbt.Parameter_File>
/export/apps/rDock/src/rDock_2013.1_src/data/scripts/dock_solv.prm

>  <Rbt.Receptor>
prm/pocket_docking_6.prm

>  <SCORE>
-8.84492

>  <SCORE.INTER>
-8.84492

>  <SCORE.INTER.CONST>
1

>  <SCORE.INTER.POLAR>
0

>  <SCORE.INTER.ROT>
0

>  <SCORE.INTER.SOLV>
21.6856

>  <SCORE.INTER.VDW>
-16.7252

>  <SCORE.INTER.norm>
-0.680379

>  <SCORE.INTRA>
0

>  <SCORE.INTRA.DIHEDRAL>
0

>  <SCORE.INTRA.DIHEDRAL.0>
0

>  <SCORE.INTRA.POLAR>
0

>  <SCORE.INTRA.POLAR.0>
0

>  <SCORE.INTRA.REPUL>
0

>  <SCORE.INTRA.REPUL.0>
0

>  <SCORE.INTRA.SOLV>
0

>  <SCORE.INTRA.SOLV.lig_0>
-48.6608

>  <SCORE.INTRA.VDW>
0

>  <SCORE.INTRA.VDW.0>
0

>  <SCORE.INTRA.norm>
0

>  <SCORE.RESTR>
0

>  <SCORE.RESTR.CAVITY>
0

>  <SCORE.RESTR.norm>
0

>  <SCORE.SYSTEM>
0

>  <SCORE.SYSTEM.CONST>
0

>  <SCORE.SYSTEM.DIHEDRAL>
0

>  <SCORE.SYSTEM.SOLV>
0

>  <SCORE.SYSTEM.norm>
0

>  <SCORE.heavy>
13

>  <SCORE.norm>
-0.680379

>  <RMSD>
0.839

$$$$
ligand
 OpenBabel11021811483D
libRbt.so/2013.1/901 2013/11/27
 13 14  0  0  0  0  0  0  0  0999 V2000
   12.8866   43.9075   64.6621 N   0  0  0  0  0  0  0  0  0  0  0  0
   11.0583   43.1742   65.8841 N   0  0  0  0  0  0  0  0  0  0  0  0
   12.3171   43.6478   65.8355 C   0  0  0  0  0  0  0  0  0  0  0  0
   13.0383   43.8575   67.0102 N   0  0  0  0  0  0  0  0  0  0  0  0
   12.4194   43.5769   68.2300 C   0  0  0  0  0  0  0  0  0  0  0  0
   11.1121   43.1019   68.2532 C   0  0  0  0  0  0  0  0  0  0  0  0
   13.0332   43.7447   69.2831 O   0  0  0  0  0  0  0  0  0  0  0  0
   10.5037   42.7791   69.4812 N   0  0  0  0  0  0  0  0  0  0  0  0
    9.0900   42.3162   69.5741 C   0  0  2  0  0  0  0  0  0  0  0  0
    8.7071   41.5955   68.2703 C   0  0  0  0  0  0  0  0  0  0  0  0
   10.4524   42.8899   67.0510 C   0  0  0  0  0  0  0  0  0  0  0  0
    9.1453   42.3887   67.0705 N   0  0  0  0  0  0  0  0  0  0  0  0
    8.1731   43.5588   69.7802 C   0  0  0  0  0  0  0  0  0  0  0  0
  1  3  1  0  0  0  0
  2  3  2  0  0  0  0
  2 11  1  0  0  0  0
  3  4  1  0  0  0  0
  4  5  1  0  0  0  0
  5  6  1  0  0  0  0
  5  7  2  0  0  0  0
  6  8  1  0  0  0  0
  6 11  2  0  0  0  0
  8  9  1  0  0  0  0
  9 10  1  0  0  0  0
  9 13  1  6  0  0  0
 10 12  1  0  0  0  0
 11 12  1  0  0  0  0
M  END
>  <CHROM.1>
10.90632518,43.12393331,67.75850404,0.63746353,-0.32306425,-1.61509328

>  <Name>
ligand

>  <RI>
0

>  <Rbt.Current_Directory>
/home/itssahil/PROJECTS/Mol_Feturizer/New_Systems/rnas/3SUX

>  <Rbt.Executable>
rbdock ($Id: //depot/dev/client3/rdock/2013.1/src/exe/rbdock.cxx#4 $)

>  <Rbt.Library>
libRbt.so (2013.1, Build901 2013/11/27)

>  <Rbt.Parameter_File>
/export/apps/rDock/src/rDock_2013.1_src/data/scripts/dock_solv.prm

>  <Rbt.Receptor>
prm/pocket_docking_2.prm

>  <SCORE>
-8.78528

>  <SCORE.INTER>
-8.78528

>  <SCORE.INTER.CONST>
1

>  <SCORE.INTER.POLAR>
0

>  <SCORE.INTER.ROT>
0

>  <SCORE.INTER.SOLV>
21.8996

>  <SCORE.INTER.VDW>
-16.7567

>  <SCORE.INTER.norm>
-0.675791

>  <SCORE.INTRA>
0

>  <SCORE.INTRA.DIHEDRAL>
0

>  <SCORE.INTRA.DIHEDRAL.0>
0

>  <SCORE.INTRA.POLAR>
0

>  <SCORE.INTRA.POLAR.0>
0

>  <SCORE.INTRA.REPUL>
0

>  <SCORE.INTRA.REPUL.0>
0

>  <SCORE.INTRA.SOLV>
0

>  <SCORE.INTRA.SOLV.lig_0>
-48.6608

>  <SCORE.INTRA.VDW>
0

>  <SCORE.INTRA.VDW.0>
0

>  <SCORE.INTRA.norm>
0

>  <SCORE.RESTR>
0

>  <SCORE.RESTR.CAVITY>
0

>  <SCORE.RESTR.norm>
0

>  <SCORE.SYSTEM>
0

>  <SCORE.SYSTEM.CONST>
0

>  <SCORE.SYSTEM.DIHEDRAL>
0

>  <SCORE.SYSTEM.SOLV>
0

>  <SCORE.SYSTEM.norm>
0

>  <SCORE.heavy>
13

>  <SCORE.norm>
-0.675791

>  <RMSD>
0.862

$$$$
ligand
 OpenBabel11021811483D
libRbt.so/2013.1/901 2013/11/27
 13 14  0  0  0  0  0  0  0  0999 V2000
   12.8928   43.9022   64.6574 N   0  0  0  0  0  0  0  0  0  0  0  0
   11.0615   43.1750   65.8786 N   0  0  0  0  0  0  0  0  0  0  0  0
   12.3216   43.6452   65.8306 C   0  0  0  0  0  0  0  0  0  0  0  0
   13.0424   43.8541   67.0057 N   0  0  0  0  0  0  0  0  0  0  0  0
   12.4217   43.5764   68.2253 C   0  0  0  0  0  0  0  0  0  0  0  0
   11.1131   43.1050   68.2479 C   0  0  0  0  0  0  0  0  0  0  0  0
   13.0350   43.7437   69.2788 O   0  0  0  0  0  0  0  0  0  0  0  0
   10.5028   42.7850   69.4756 N   0  0  0  0  0  0  0  0  0  0  0  0
    9.0878   42.3260   69.5678 C   0  0  2  0  0  0  0  0  0  0  0  0
    8.7040   41.6051   68.2644 C   0  0  0  0  0  0  0  0  0  0  0  0
   10.4539   42.8935   67.0453 C   0  0  0  0  0  0  0  0  0  0  0  0
    9.1454   42.3958   67.0641 N   0  0  0  0  0  0  0  0  0  0  0  0
    8.1740   43.5713   69.7719 C   0  0  0  0  0  0  0  0  0  0  0  0
  1  3  1  0  0  0  0
  2  3  2  0  0  0  0
  2 11  1  0  0  0  0
  3  4  1  0  0  0  0
  4  5  1  0  0  0  0
  5  6  1  0  0  0  0
  5  7  2  0  0  0  0
  6  8  1  0  0  0  0
  6 11  2  0  0  0  0
  8  9  1  0  0  0  0
  9 10  1  0  0  0  0
  9 13  1  6  0  0  0
 10 12  1  0  0  0  0
 11 12  1  0  0  0  0
M  END
>  <CHROM.1>
10.90780784,43.12704671,67.75296386,0.63668372,-0.32033749,-1.61634465

>  <Name>
ligand

>  <RI>
0

>  <Rbt.Current_Directory>
/home/itssahil/PROJECTS/Mol_Feturizer/New_Systems/rnas/3SUX

>  <Rbt.Executable>
rbdock ($Id: //depot/dev/client3/rdock/2013.1/src/exe/rbdock.cxx#4 $)

>  <Rbt.Library>
libRbt.so (2013.1, Build901 2013/11/27)

>  <Rbt.Parameter_File>
/export/apps/rDock/src/rDock_2013.1_src/data/scripts/dock_solv.prm

>  <Rbt.Receptor>
prm/pocket_docking_2.prm

>  <SCORE>
-8.78664

>  <SCORE.INTER>
-8.78664

>  <SCORE.INTER.CONST>
1

>  <SCORE.INTER.POLAR>
0

>  <SCORE.INTER.ROT>
0

>  <SCORE.INTER.SOLV>
21.9327

>  <SCORE.INTER.VDW>
-16.7687

>  <SCORE.INTER.norm>
-0.675895

>  <SCORE.INTRA>
0

>  <SCORE.INTRA.DIHEDRAL>
0

>  <SCORE.INTRA.DIHEDRAL.0>
0

>  <SCORE.INTRA.POLAR>
0

>  <SCORE.INTRA.POLAR.0>
0

>  <SCORE.INTRA.REPUL>
0

>  <SCORE.INTRA.REPUL.0>
0

>  <SCORE.INTRA.SOLV>
0

>  <SCORE.INTRA.SOLV.lig_0>
-48.6608

>  <SCORE.INTRA.VDW>
0

>  <SCORE.INTRA.VDW.0>
0

>  <SCORE.INTRA.norm>
0

>  <SCORE.RESTR>
0

>  <SCORE.RESTR.CAVITY>
0

>  <SCORE.RESTR.norm>
0

>  <SCORE.SYSTEM>
0

>  <SCORE.SYSTEM.CONST>
0

>  <SCORE.SYSTEM.DIHEDRAL>
0

>  <SCORE.SYSTEM.SOLV>
0

>  <SCORE.SYSTEM.norm>
0

>  <SCORE.heavy>
13

>  <SCORE.norm>
-0.675895

>  <RMSD>
0.869

$$$$
ligand
 OpenBabel11021811483D
libRbt.so/2013.1/901 2013/11/27
 13 14  0  0  0  0  0  0  0  0999 V2000
   12.8905   43.8892   64.6346 N   0  0  0  0  0  0  0  0  0  0  0  0
   11.0588   43.1814   65.8665 N   0  0  0  0  0  0  0  0  0  0  0  0
   12.3262   43.6305   65.8108 C   0  0  0  0  0  0  0  0  0  0  0  0
   13.0617   43.8155   66.9808 N   0  0  0  0  0  0  0  0  0  0  0  0
   12.4479   43.5364   68.2035 C   0  0  0  0  0  0  0  0  0  0  0  0
   11.1318   43.0873   68.2344 C   0  0  0  0  0  0  0  0  0  0  0  0
   13.0741   43.6828   69.2526 O   0  0  0  0  0  0  0  0  0  0  0  0
   10.5278   42.7657   69.4648 N   0  0  0  0  0  0  0  0  0  0  0  0
    9.1060   42.3301   69.5663 C   0  0  2  0  0  0  0  0  0  0  0  0
    8.6975   41.6287   68.2598 C   0  0  0  0  0  0  0  0  0  0  0  0
   10.4575   42.8989   67.0362 C   0  0  0  0  0  0  0  0  0  0  0  0
    9.1409   42.4235   67.0630 N   0  0  0  0  0  0  0  0  0  0  0  0
    8.2158   43.5888   69.7913 C   0  0  0  0  0  0  0  0  0  0  0  0
  1  3  1  0  0  0  0
  2  3  2  0  0  0  0
  2 11  1  0  0  0  0
  3  4  1  0  0  0  0
  4  5  1  0  0  0  0
  5  6  1  0  0  0  0
  5  7  2  0  0  0  0
  6  8  1  0  0  0  0
  6 11  2  0  0  0  0
  8  9  1  0  0  0  0
  9 10  1  0  0  0  0
  9 13  1  6  0  0  0
 10 12  1  0  0  0  0
 11 12  1  0  0  0  0
M  END
>  <CHROM.1>
10.92215846,43.11769329,67.74167313,0.64751109,-0.30358091,-1.60327892

>  <Name>
ligand

>  <RI>
0

>  <Rbt.Current_Directory>
/home/itssahil/PROJECTS/Mol_Feturizer/New_Systems/rnas/3SUX

>  <Rbt.Executable>
rbdock ($Id: //depot/dev/client3/rdock/2013.1/src/exe/rbdock.cxx#4 $)

>  <Rbt.Library>
libRbt.so (2013.1, Build901 2013/11/27)

>  <Rbt.Parameter_File>
/export/apps/rDock/src/rDock_2013.1_src/data/scripts/dock_solv.prm

>  <Rbt.Receptor>
prm/pocket_docking_2.prm

>  <SCORE>
-8.79626

>  <SCORE.INTER>
-8.79626

>  <SCORE.INTER.CONST>
1

>  <SCORE.INTER.POLAR>
0

>  <SCORE.INTER.ROT>
0

>  <SCORE.INTER.SOLV>
22.0282

>  <SCORE.INTER.VDW>
-16.8069

>  <SCORE.INTER.norm>
-0.676636

>  <SCORE.INTRA>
0

>  <SCORE.INTRA.DIHEDRAL>
0

>  <SCORE.INTRA.DIHEDRAL.0>
0

>  <SCORE.INTRA.POLAR>
0

>  <SCORE.INTRA.POLAR.0>
0

>  <SCORE.INTRA.REPUL>
0

>  <SCORE.INTRA.REPUL.0>
0

>  <SCORE.INTRA.SOLV>
0

>  <SCORE.INTRA.SOLV.lig_0>
-48.6608

>  <SCORE.INTRA.VDW>
0

>  <SCORE.INTRA.VDW.0>
0

>  <SCORE.INTRA.norm>
0

>  <SCORE.RESTR>
0

>  <SCORE.RESTR.CAVITY>
0

>  <SCORE.RESTR.norm>
0

>  <SCORE.SYSTEM>
0

>  <SCORE.SYSTEM.CONST>
0

>  <SCORE.SYSTEM.DIHEDRAL>
0

>  <SCORE.SYSTEM.SOLV>
0

>  <SCORE.SYSTEM.norm>
0

>  <SCORE.heavy>
13

>  <SCORE.norm>
-0.676636

>  <RMSD>
0.891

$$$$
ligand
 OpenBabel11021811483D
libRbt.so/2013.1/901 2013/11/27
 13 14  0  0  0  0  0  0  0  0999 V2000
   12.8981   43.9057   64.6421 N   0  0  0  0  0  0  0  0  0  0  0  0
   11.0621   43.1876   65.8616 N   0  0  0  0  0  0  0  0  0  0  0  0
   12.3264   43.6466   65.8145 C   0  0  0  0  0  0  0  0  0  0  0  0
   13.0508   43.8415   66.9898 N   0  0  0  0  0  0  0  0  0  0  0  0
   12.4295   43.5618   68.2085 C   0  0  0  0  0  0  0  0  0  0  0  0
   11.1167   43.1022   68.2303 C   0  0  0  0  0  0  0  0  0  0  0  0
   13.0459   43.7168   69.2621 O   0  0  0  0  0  0  0  0  0  0  0  0
   10.5054   42.7801   69.4570 N   0  0  0  0  0  0  0  0  0  0  0  0
    9.0864   42.3334   69.5486 C   0  0  2  0  0  0  0  0  0  0  0  0
    8.6941   41.6242   68.2413 C   0  0  0  0  0  0  0  0  0  0  0  0
   10.4537   42.9043   67.0274 C   0  0  0  0  0  0  0  0  0  0  0  0
    9.1408   42.4184   67.0453 N   0  0  0  0  0  0  0  0  0  0  0  0
    8.1843   43.5857   69.7619 C   0  0  0  0  0  0  0  0  0  0  0  0
  1  3  1  0  0  0  0
  2  3  2  0  0  0  0
  2 11  1  0  0  0  0
  3  4  1  0  0  0  0
  4  5  1  0  0  0  0
  5  6  1  0  0  0  0
  5  7  2  0  0  0  0
  6  8  1  0  0  0  0
  6 11  2  0  0  0  0
  8  9  1  0  0  0  0
  9 10  1  0  0  0  0
  9 13  1  6  0  0  0
 10 12  1  0  0  0  0
 11 12  1  0  0  0  0
M  END
>  <CHROM.1>
10.91085027,43.12923007,67.73584846,0.63874515,-0.31129474,-1.60941909

>  <Name>
ligand

>  <RI>
0

>  <Rbt.Current_Directory>
/home/itssahil/PROJECTS/Mol_Feturizer/New_Systems/rnas/3SUX

>  <Rbt.Executable>
rbdock ($Id: //depot/dev/client3/rdock/2013.1/src/exe/rbdock.cxx#4 $)

>  <Rbt.Library>
libRbt.so (2013.1, Build901 2013/11/27)

>  <Rbt.Parameter_File>
/export/apps/rDock/src/rDock_2013.1_src/data/scripts/dock_solv.prm

>  <Rbt.Receptor>
prm/pocket_docking_2.prm

>  <SCORE>
-8.79811

>  <SCORE.INTER>
-8.79811

>  <SCORE.INTER.CONST>
1

>  <SCORE.INTER.POLAR>
0

>  <SCORE.INTER.ROT>
0

>  <SCORE.INTER.SOLV>
22.0502

>  <SCORE.INTER.VDW>
-16.8155

>  <SCORE.INTER.norm>
-0.676778

>  <SCORE.INTRA>
0

>  <SCORE.INTRA.DIHEDRAL>
0

>  <SCORE.INTRA.DIHEDRAL.0>
0

>  <SCORE.INTRA.POLAR>
0

>  <SCORE.INTRA.POLAR.0>
0

>  <SCORE.INTRA.REPUL>
0

>  <SCORE.INTRA.REPUL.0>
0

>  <SCORE.INTRA.SOLV>
0

>  <SCORE.INTRA.SOLV.lig_0>
-48.6608

>  <SCORE.INTRA.VDW>
0

>  <SCORE.INTRA.VDW.0>
0

>  <SCORE.INTRA.norm>
0

>  <SCORE.RESTR>
0

>  <SCORE.RESTR.CAVITY>
0

>  <SCORE.RESTR.norm>
0

>  <SCORE.SYSTEM>
0

>  <SCORE.SYSTEM.CONST>
0

>  <SCORE.SYSTEM.DIHEDRAL>
0

>  <SCORE.SYSTEM.SOLV>
0

>  <SCORE.SYSTEM.norm>
0

>  <SCORE.heavy>
13

>  <SCORE.norm>
-0.676778

>  <RMSD>
0.892

$$$$
ligand
 OpenBabel11021811483D
libRbt.so/2013.1/901 2013/11/27
 13 14  0  0  0  0  0  0  0  0999 V2000
   12.8715   43.9673   64.6236 N   0  0  0  0  0  0  0  0  0  0  0  0
   11.0495   43.2244   65.8491 N   0  0  0  0  0  0  0  0  0  0  0  0
   12.3132   43.6842   65.7970 C   0  0  0  0  0  0  0  0  0  0  0  0
   13.0511   43.8551   66.9676 N   0  0  0  0  0  0  0  0  0  0  0  0
   12.4437   43.5505   68.1874 C   0  0  0  0  0  0  0  0  0  0  0  0
   11.1311   43.0906   68.2148 C   0  0  0  0  0  0  0  0  0  0  0  0
   13.0723   43.6839   69.2368 O   0  0  0  0  0  0  0  0  0  0  0  0
   10.5339   42.7434   69.4415 N   0  0  0  0  0  0  0  0  0  0  0  0
    9.1159   42.2950   69.5402 C   0  0  2  0  0  0  0  0  0  0  0  0
    8.7084   41.6128   68.2233 C   0  0  0  0  0  0  0  0  0  0  0  0
   10.4544   42.9174   67.0158 C   0  0  0  0  0  0  0  0  0  0  0  0
    9.1416   42.4313   67.0387 N   0  0  0  0  0  0  0  0  0  0  0  0
    8.2166   43.5427   69.7895 C   0  0  0  0  0  0  0  0  0  0  0  0
  1  3  1  0  0  0  0
  2  3  2  0  0  0  0
  2 11  1  0  0  0  0
  3  4  1  0  0  0  0
  4  5  1  0  0  0  0
  5  6  1  0  0  0  0
  5  7  2  0  0  0  0
  6  8  1  0  0  0  0
  6 11  2  0  0  0  0
  8  9  1  0  0  0  0
  9 10  1  0  0  0  0
  9 13  1  6  0  0  0
 10 12  1  0  0  0  0
 11 12  1  0  0  0  0
M  END
>  <CHROM.1>
10.91966852,43.12773146,67.72338328,0.65077506,-0.31145146,-1.58526676

>  <Name>
ligand

>  <RI>
0

>  <Rbt.Current_Directory>
/home/itssahil/PROJECTS/Mol_Feturizer/New_Systems/rnas/3SUX

>  <Rbt.Executable>
rbdock ($Id: //depot/dev/client3/rdock/2013.1/src/exe/rbdock.cxx#4 $)

>  <Rbt.Library>
libRbt.so (2013.1, Build901 2013/11/27)

>  <Rbt.Parameter_File>
/export/apps/rDock/src/rDock_2013.1_src/data/scripts/dock_solv.prm

>  <Rbt.Receptor>
prm/pocket_docking_2.prm

>  <SCORE>
-8.78055

>  <SCORE.INTER>
-8.78055

>  <SCORE.INTER.CONST>
1

>  <SCORE.INTER.POLAR>
0

>  <SCORE.INTER.ROT>
0

>  <SCORE.INTER.SOLV>
22.1228

>  <SCORE.INTER.VDW>
-16.828

>  <SCORE.INTER.norm>
-0.675427

>  <SCORE.INTRA>
0

>  <SCORE.INTRA.DIHEDRAL>
0

>  <SCORE.INTRA.DIHEDRAL.0>
0

>  <SCORE.INTRA.POLAR>
0

>  <SCORE.INTRA.POLAR.0>
0

>  <SCORE.INTRA.REPUL>
0

>  <SCORE.INTRA.REPUL.0>
0

>  <SCORE.INTRA.SOLV>
0

>  <SCORE.INTRA.SOLV.lig_0>
-48.6608

>  <SCORE.INTRA.VDW>
0

>  <SCORE.INTRA.VDW.0>
0

>  <SCORE.INTRA.norm>
0

>  <SCORE.RESTR>
0

>  <SCORE.RESTR.CAVITY>
0

>  <SCORE.RESTR.norm>
0

>  <SCORE.SYSTEM>
0

>  <SCORE.SYSTEM.CONST>
0

>  <SCORE.SYSTEM.DIHEDRAL>
0

>  <SCORE.SYSTEM.SOLV>
0

>  <SCORE.SYSTEM.norm>
0

>  <SCORE.heavy>
13

>  <SCORE.norm>
-0.675427

>  <RMSD>
0.901

$$$$
ligand
 OpenBabel11021811483D
libRbt.so/2013.1/901 2013/11/27
 13 14  0  0  0  0  0  0  0  0999 V2000
   12.8863   43.9713   64.6490 N   0  0  0  0  0  0  0  0  0  0  0  0
   11.0514   43.2357   65.8597 N   0  0  0  0  0  0  0  0  0  0  0  0
   12.3164   43.6930   65.8180 C   0  0  0  0  0  0  0  0  0  0  0  0
   13.0436   43.8661   66.9949 N   0  0  0  0  0  0  0  0  0  0  0  0
   12.4242   43.5665   68.2099 C   0  0  0  0  0  0  0  0  0  0  0  0
   11.1105   43.1092   68.2264 C   0  0  0  0  0  0  0  0  0  0  0  0
   13.0430   43.7021   69.2648 O   0  0  0  0  0  0  0  0  0  0  0  0
   10.5011   42.7670   69.4486 N   0  0  0  0  0  0  0  0  0  0  0  0
    9.0814   42.3216   69.5353 C   0  0  2  0  0  0  0  0  0  0  0  0
    8.6850   41.6359   68.2167 C   0  0  0  0  0  0  0  0  0  0  0  0
   10.4448   42.9334   67.0217 C   0  0  0  0  0  0  0  0  0  0  0  0
    9.1309   42.4499   67.0338 N   0  0  0  0  0  0  0  0  0  0  0  0
    8.1822   43.5717   69.7721 C   0  0  0  0  0  0  0  0  0  0  0  0
  1  3  1  0  0  0  0
  2  3  2  0  0  0  0
  2 11  1  0  0  0  0
  3  4  1  0  0  0  0
  4  5  1  0  0  0  0
  5  6  1  0  0  0  0
  5  7  2  0  0  0  0
  6  8  1  0  0  0  0
  6 11  2  0  0  0  0
  8  9  1  0  0  0  0
  9 10  1  0  0  0  0
  9 13  1  6  0  0  0
 10 12  1  0  0  0  0
 11 12  1  0  0  0  0
M  END
>  <CHROM.1>
10.90375835,43.14516031,67.73291602,0.64092059,-0.30940632,-1.59144158

>  <Name>
ligand

>  <RI>
0

>  <Rbt.Current_Directory>
/home/itssahil/PROJECTS/Mol_Feturizer/New_Systems/rnas/3SUX

>  <Rbt.Executable>
rbdock ($Id: //depot/dev/client3/rdock/2013.1/src/exe/rbdock.cxx#4 $)

>  <Rbt.Library>
libRbt.so (2013.1, Build901 2013/11/27)

>  <Rbt.Parameter_File>
/export/apps/rDock/src/rDock_2013.1_src/data/scripts/dock_solv.prm

>  <Rbt.Receptor>
prm/pocket_docking_3.prm

>  <SCORE>
-8.79172

>  <SCORE.INTER>
-8.79172

>  <SCORE.INTER.CONST>
1

>  <SCORE.INTER.POLAR>
0

>  <SCORE.INTER.ROT>
0

>  <SCORE.INTER.SOLV>
22.1421

>  <SCORE.INTER.VDW>
-16.8418

>  <SCORE.INTER.norm>
-0.676286

>  <SCORE.INTRA>
0

>  <SCORE.INTRA.DIHEDRAL>
0

>  <SCORE.INTRA.DIHEDRAL.0>
0

>  <SCORE.INTRA.POLAR>
0

>  <SCORE.INTRA.POLAR.0>
0

>  <SCORE.INTRA.REPUL>
0

>  <SCORE.INTRA.REPUL.0>
0

>  <SCORE.INTRA.SOLV>
0

>  <SCORE.INTRA.SOLV.lig_0>
-48.6608

>  <SCORE.INTRA.VDW>
0

>  <SCORE.INTRA.VDW.0>
0

>  <SCORE.INTRA.norm>
0

>  <SCORE.RESTR>
0

>  <SCORE.RESTR.CAVITY>
0

>  <SCORE.RESTR.norm>
0

>  <SCORE.SYSTEM>
0

>  <SCORE.SYSTEM.CONST>
0

>  <SCORE.SYSTEM.DIHEDRAL>
0

>  <SCORE.SYSTEM.SOLV>
0

>  <SCORE.SYSTEM.norm>
0

>  <SCORE.heavy>
13

>  <SCORE.norm>
-0.676286

>  <RMSD>
0.902

$$$$
ligand
 OpenBabel11021811483D
libRbt.so/2013.1/901 2013/11/27
 13 14  0  0  0  0  0  0  0  0999 V2000
   12.8892   43.9727   64.6539 N   0  0  0  0  0  0  0  0  0  0  0  0
   11.0495   43.2472   65.8634 N   0  0  0  0  0  0  0  0  0  0  0  0
   12.3181   43.6945   65.8223 C   0  0  0  0  0  0  0  0  0  0  0  0
   13.0476   43.8575   66.9993 N   0  0  0  0  0  0  0  0  0  0  0  0
   12.4268   43.5583   68.2137 C   0  0  0  0  0  0  0  0  0  0  0  0
   11.1096   43.1114   68.2296 C   0  0  0  0  0  0  0  0  0  0  0  0
   13.0477   43.6850   69.2685 O   0  0  0  0  0  0  0  0  0  0  0  0
   10.4984   42.7696   69.4510 N   0  0  0  0  0  0  0  0  0  0  0  0
    9.0753   42.3351   69.5373 C   0  0  2  0  0  0  0  0  0  0  0  0
    8.6724   41.6576   68.2165 C   0  0  0  0  0  0  0  0  0  0  0  0
   10.4414   42.9455   67.0248 C   0  0  0  0  0  0  0  0  0  0  0  0
    9.1238   42.4724   67.0362 N   0  0  0  0  0  0  0  0  0  0  0  0
    8.1863   43.5916   69.7796 C   0  0  0  0  0  0  0  0  0  0  0  0
  1  3  1  0  0  0  0
  2  3  2  0  0  0  0
  2 11  1  0  0  0  0
  3  4  1  0  0  0  0
  4  5  1  0  0  0  0
  5  6  1  0  0  0  0
  5  7  2  0  0  0  0
  6  8  1  0  0  0  0
  6 11  2  0  0  0  0
  8  9  1  0  0  0  0
  9 10  1  0  0  0  0
  9 13  1  6  0  0  0
 10 12  1  0  0  0  0
 11 12  1  0  0  0  0
M  END
>  <CHROM.1>
10.90270359,43.15088543,67.73643007,0.64196772,-0.30142291,-1.58738024

>  <Name>
ligand

>  <RI>
0

>  <Rbt.Current_Directory>
/home/itssahil/PROJECTS/Mol_Feturizer/New_Systems/rnas/3SUX

>  <Rbt.Executable>
rbdock ($Id: //depot/dev/client3/rdock/2013.1/src/exe/rbdock.cxx#4 $)

>  <Rbt.Library>
libRbt.so (2013.1, Build901 2013/11/27)

>  <Rbt.Parameter_File>
/export/apps/rDock/src/rDock_2013.1_src/data/scripts/dock_solv.prm

>  <Rbt.Receptor>
prm/pocket_docking_2.prm

>  <SCORE>
-8.81911

>  <SCORE.INTER>
-8.81911

>  <SCORE.INTER.CONST>
1

>  <SCORE.INTER.POLAR>
0

>  <SCORE.INTER.ROT>
0

>  <SCORE.INTER.SOLV>
22.177

>  <SCORE.INTER.VDW>
-16.8717

>  <SCORE.INTER.norm>
-0.678393

>  <SCORE.INTRA>
0

>  <SCORE.INTRA.DIHEDRAL>
0

>  <SCORE.INTRA.DIHEDRAL.0>
0

>  <SCORE.INTRA.POLAR>
0

>  <SCORE.INTRA.POLAR.0>
0

>  <SCORE.INTRA.REPUL>
0

>  <SCORE.INTRA.REPUL.0>
0

>  <SCORE.INTRA.SOLV>
0

>  <SCORE.INTRA.SOLV.lig_0>
-48.6608

>  <SCORE.INTRA.VDW>
0

>  <SCORE.INTRA.VDW.0>
0

>  <SCORE.INTRA.norm>
0

>  <SCORE.RESTR>
0

>  <SCORE.RESTR.CAVITY>
0

>  <SCORE.RESTR.norm>
0

>  <SCORE.SYSTEM>
0

>  <SCORE.SYSTEM.CONST>
0

>  <SCORE.SYSTEM.DIHEDRAL>
0

>  <SCORE.SYSTEM.SOLV>
0

>  <SCORE.SYSTEM.norm>
0

>  <SCORE.heavy>
13

>  <SCORE.norm>
-0.678393

>  <RMSD>
0.909

$$$$
ligand
 OpenBabel11021811483D
libRbt.so/2013.1/901 2013/11/27
 13 14  0  0  0  0  0  0  0  0999 V2000
   12.8842   43.9618   64.6464 N   0  0  0  0  0  0  0  0  0  0  0  0
   11.0462   43.2437   65.8629 N   0  0  0  0  0  0  0  0  0  0  0  0
   12.3169   43.6844   65.8169 C   0  0  0  0  0  0  0  0  0  0  0  0
   13.0527   43.8412   66.9908 N   0  0  0  0  0  0  0  0  0  0  0  0
   12.4359   43.5428   68.2075 C   0  0  0  0  0  0  0  0  0  0  0  0
   11.1164   43.1028   68.2286 C   0  0  0  0  0  0  0  0  0  0  0  0
   13.0622   43.6642   69.2597 O   0  0  0  0  0  0  0  0  0  0  0  0
   10.5091   42.7618   69.4521 N   0  0  0  0  0  0  0  0  0  0  0  0
    9.0840   42.3347   69.5440 C   0  0  2  0  0  0  0  0  0  0  0  0
    8.6715   41.6619   68.2238 C   0  0  0  0  0  0  0  0  0  0  0  0
   10.4419   42.9428   67.0265 C   0  0  0  0  0  0  0  0  0  0  0  0
    9.1218   42.4766   67.0430 N   0  0  0  0  0  0  0  0  0  0  0  0
    8.2028   43.5953   69.7929 C   0  0  0  0  0  0  0  0  0  0  0  0
  1  3  1  0  0  0  0
  2  3  2  0  0  0  0
  2 11  1  0  0  0  0
  3  4  1  0  0  0  0
  4  5  1  0  0  0  0
  5  6  1  0  0  0  0
  5  7  2  0  0  0  0
  6  8  1  0  0  0  0
  6 11  2  0  0  0  0
  8  9  1  0  0  0  0
  9 10  1  0  0  0  0
  9 13  1  6  0  0  0
 10 12  1  0  0  0  0
 11 12  1  0  0  0  0
M  END
>  <CHROM.1>
10.90745751,43.14437957,67.73641132,0.64684315,-0.29624014,-1.58397351

>  <Name>
ligand

>  <RI>
0

>  <Rbt.Current_Directory>
/home/itssahil/PROJECTS/Mol_Feturizer/New_Systems/rnas/3SUX

>  <Rbt.Executable>
rbdock ($Id: //depot/dev/client3/rdock/2013.1/src/exe/rbdock.cxx#4 $)

>  <Rbt.Library>
libRbt.so (2013.1, Build901 2013/11/27)

>  <Rbt.Parameter_File>
/export/apps/rDock/src/rDock_2013.1_src/data/scripts/dock_solv.prm

>  <Rbt.Receptor>
prm/pocket_docking_2.prm

>  <SCORE>
-8.84798

>  <SCORE.INTER>
-8.84798

>  <SCORE.INTER.CONST>
1

>  <SCORE.INTER.POLAR>
0

>  <SCORE.INTER.ROT>
0

>  <SCORE.INTER.SOLV>
22.18

>  <SCORE.INTER.VDW>
-16.892

>  <SCORE.INTER.norm>
-0.680614

>  <SCORE.INTRA>
0

>  <SCORE.INTRA.DIHEDRAL>
0

>  <SCORE.INTRA.DIHEDRAL.0>
0

>  <SCORE.INTRA.POLAR>
0

>  <SCORE.INTRA.POLAR.0>
0

>  <SCORE.INTRA.REPUL>
0

>  <SCORE.INTRA.REPUL.0>
0

>  <SCORE.INTRA.SOLV>
0

>  <SCORE.INTRA.SOLV.lig_0>
-48.6608

>  <SCORE.INTRA.VDW>
0

>  <SCORE.INTRA.VDW.0>
0

>  <SCORE.INTRA.norm>
0

>  <SCORE.RESTR>
0

>  <SCORE.RESTR.CAVITY>
0

>  <SCORE.RESTR.norm>
0

>  <SCORE.SYSTEM>
0

>  <SCORE.SYSTEM.CONST>
0

>  <SCORE.SYSTEM.DIHEDRAL>
0

>  <SCORE.SYSTEM.SOLV>
0

>  <SCORE.SYSTEM.norm>
0

>  <SCORE.heavy>
13

>  <SCORE.norm>
-0.680614

>  <RMSD>
0.911

$$$$
ligand
 OpenBabel11021811483D
libRbt.so/2013.1/901 2013/11/27
 13 14  0  0  0  0  0  0  0  0999 V2000
   12.8950   43.9511   64.6456 N   0  0  0  0  0  0  0  0  0  0  0  0
   11.0551   43.2362   65.8610 N   0  0  0  0  0  0  0  0  0  0  0  0
   12.3260   43.6766   65.8159 C   0  0  0  0  0  0  0  0  0  0  0  0
   13.0600   43.8362   66.9905 N   0  0  0  0  0  0  0  0  0  0  0  0
   12.4413   43.5409   68.2069 C   0  0  0  0  0  0  0  0  0  0  0  0
   11.1218   43.1011   68.2271 C   0  0  0  0  0  0  0  0  0  0  0  0
   13.0661   43.6647   69.2598 O   0  0  0  0  0  0  0  0  0  0  0  0
   10.5126   42.7632   69.4505 N   0  0  0  0  0  0  0  0  0  0  0  0
    9.0873   42.3365   69.5414 C   0  0  2  0  0  0  0  0  0  0  0  0
    8.6767   41.6605   68.2222 C   0  0  0  0  0  0  0  0  0  0  0  0
   10.4490   42.9383   67.0244 C   0  0  0  0  0  0  0  0  0  0  0  0
    9.1289   42.4723   67.0401 N   0  0  0  0  0  0  0  0  0  0  0  0
    8.2059   43.5978   69.7858 C   0  0  0  0  0  0  0  0  0  0  0  0
  1  3  1  0  0  0  0
  2  3  2  0  0  0  0
  2 11  1  0  0  0  0
  3  4  1  0  0  0  0
  4  5  1  0  0  0  0
  5  6  1  0  0  0  0
  5  7  2  0  0  0  0
  6  8  1  0  0  0  0
  6 11  2  0  0  0  0
  8  9  1  0  0  0  0
  9 10  1  0  0  0  0
  9 13  1  6  0  0  0
 10 12  1  0  0  0  0
 11 12  1  0  0  0  0
M  END
>  <CHROM.1>
10.91358264,43.14149428,67.73455428,0.64528264,-0.29607599,-1.58687713

>  <Name>
ligand

>  <RI>
0

>  <Rbt.Current_Directory>
/home/itssahil/PROJECTS/Mol_Feturizer/New_Systems/rnas/3SUX

>  <Rbt.Executable>
rbdock ($Id: //depot/dev/client3/rdock/2013.1/src/exe/rbdock.cxx#4 $)

>  <Rbt.Library>
libRbt.so (2013.1, Build901 2013/11/27)

>  <Rbt.Parameter_File>
/export/apps/rDock/src/rDock_2013.1_src/data/scripts/dock_solv.prm

>  <Rbt.Receptor>
prm/pocket_docking_3.prm

>  <SCORE>
-8.83436

>  <SCORE.INTER>
-8.83436

>  <SCORE.INTER.CONST>
1

>  <SCORE.INTER.POLAR>
0

>  <SCORE.INTER.ROT>
0

>  <SCORE.INTER.SOLV>
22.1849

>  <SCORE.INTER.VDW>
-16.8845

>  <SCORE.INTER.norm>
-0.679566

>  <SCORE.INTRA>
0

>  <SCORE.INTRA.DIHEDRAL>
0

>  <SCORE.INTRA.DIHEDRAL.0>
0

>  <SCORE.INTRA.POLAR>
0

>  <SCORE.INTRA.POLAR.0>
0

>  <SCORE.INTRA.REPUL>
0

>  <SCORE.INTRA.REPUL.0>
0

>  <SCORE.INTRA.SOLV>
0

>  <SCORE.INTRA.SOLV.lig_0>
-48.6608

>  <SCORE.INTRA.VDW>
0

>  <SCORE.INTRA.VDW.0>
0

>  <SCORE.INTRA.norm>
0

>  <SCORE.RESTR>
0

>  <SCORE.RESTR.CAVITY>
0

>  <SCORE.RESTR.norm>
0

>  <SCORE.SYSTEM>
0

>  <SCORE.SYSTEM.CONST>
0

>  <SCORE.SYSTEM.DIHEDRAL>
0

>  <SCORE.SYSTEM.SOLV>
0

>  <SCORE.SYSTEM.norm>
0

>  <SCORE.heavy>
13

>  <SCORE.norm>
-0.679566

>  <RMSD>
0.912

$$$$
ligand
 OpenBabel11021811483D
libRbt.so/2013.1/901 2013/11/27
 13 14  0  0  0  0  0  0  0  0999 V2000
   12.8981   43.9615   64.6443 N   0  0  0  0  0  0  0  0  0  0  0  0
   11.0570   43.2365   65.8520 N   0  0  0  0  0  0  0  0  0  0  0  0
   12.3245   43.6871   65.8124 C   0  0  0  0  0  0  0  0  0  0  0  0
   13.0503   43.8574   66.9906 N   0  0  0  0  0  0  0  0  0  0  0  0
   12.4270   43.5619   68.2046 C   0  0  0  0  0  0  0  0  0  0  0  0
   11.1110   43.1114   68.2189 C   0  0  0  0  0  0  0  0  0  0  0  0
   13.0446   43.6951   69.2606 O   0  0  0  0  0  0  0  0  0  0  0  0
   10.4974   42.7734   69.4402 N   0  0  0  0  0  0  0  0  0  0  0  0
    9.0752   42.3354   69.5245 C   0  0  2  0  0  0  0  0  0  0  0  0
    8.6778   41.6509   68.2057 C   0  0  0  0  0  0  0  0  0  0  0  0
   10.4466   42.9383   67.0130 C   0  0  0  0  0  0  0  0  0  0  0  0
    9.1303   42.4615   67.0230 N   0  0  0  0  0  0  0  0  0  0  0  0
    8.1821   43.5904   69.7587 C   0  0  0  0  0  0  0  0  0  0  0  0
  1  3  1  0  0  0  0
  2  3  2  0  0  0  0
  2 11  1  0  0  0  0
  3  4  1  0  0  0  0
  4  5  1  0  0  0  0
  5  6  1  0  0  0  0
  5  7  2  0  0  0  0
  6  8  1  0  0  0  0
  6 11  2  0  0  0  0
  8  9  1  0  0  0  0
  9 10  1  0  0  0  0
  9 13  1  6  0  0  0
 10 12  1  0  0  0  0
 11 12  1  0  0  0  0
M  END
>  <CHROM.1>
10.90534227,43.14812493,67.72500693,0.63902442,-0.30414964,-1.59276304

>  <Name>
ligand

>  <RI>
0

>  <Rbt.Current_Directory>
/home/itssahil/PROJECTS/Mol_Feturizer/New_Systems/rnas/3SUX

>  <Rbt.Executable>
rbdock ($Id: //depot/dev/client3/rdock/2013.1/src/exe/rbdock.cxx#4 $)

>  <Rbt.Library>
libRbt.so (2013.1, Build901 2013/11/27)

>  <Rbt.Parameter_File>
/export/apps/rDock/src/rDock_2013.1_src/data/scripts/dock_solv.prm

>  <Rbt.Receptor>
prm/pocket_docking_2.prm

>  <SCORE>
-8.82116

>  <SCORE.INTER>
-8.82116

>  <SCORE.INTER.CONST>
1

>  <SCORE.INTER.POLAR>
0

>  <SCORE.INTER.ROT>
0

>  <SCORE.INTER.SOLV>
22.1993

>  <SCORE.INTER.VDW>
-16.8805

>  <SCORE.INTER.norm>
-0.67855

>  <SCORE.INTRA>
0

>  <SCORE.INTRA.DIHEDRAL>
0

>  <SCORE.INTRA.DIHEDRAL.0>
0

>  <SCORE.INTRA.POLAR>
0

>  <SCORE.INTRA.POLAR.0>
0

>  <SCORE.INTRA.REPUL>
0

>  <SCORE.INTRA.REPUL.0>
0

>  <SCORE.INTRA.SOLV>
0

>  <SCORE.INTRA.SOLV.lig_0>
-48.6608

>  <SCORE.INTRA.VDW>
0

>  <SCORE.INTRA.VDW.0>
0

>  <SCORE.INTRA.norm>
0

>  <SCORE.RESTR>
0

>  <SCORE.RESTR.CAVITY>
0

>  <SCORE.RESTR.norm>
0

>  <SCORE.SYSTEM>
0

>  <SCORE.SYSTEM.CONST>
0

>  <SCORE.SYSTEM.DIHEDRAL>
0

>  <SCORE.SYSTEM.SOLV>
0

>  <SCORE.SYSTEM.norm>
0

>  <SCORE.heavy>
13

>  <SCORE.norm>
-0.67855

>  <RMSD>
0.914

$$$$
ligand
 OpenBabel11021811483D
libRbt.so/2013.1/901 2013/11/27
 13 14  0  0  0  0  0  0  0  0999 V2000
   12.8850   43.9737   64.6388 N   0  0  0  0  0  0  0  0  0  0  0  0
   11.0497   43.2500   65.8561 N   0  0  0  0  0  0  0  0  0  0  0  0
   12.3188   43.6956   65.8096 C   0  0  0  0  0  0  0  0  0  0  0  0
   13.0538   43.8568   66.9833 N   0  0  0  0  0  0  0  0  0  0  0  0
   12.4381   43.5577   68.2004 C   0  0  0  0  0  0  0  0  0  0  0  0
   11.1204   43.1126   68.2220 C   0  0  0  0  0  0  0  0  0  0  0  0
   13.0639   43.6828   69.2524 O   0  0  0  0  0  0  0  0  0  0  0  0
   10.5143   42.7708   69.4459 N   0  0  0  0  0  0  0  0  0  0  0  0
    9.0909   42.3383   69.5384 C   0  0  2  0  0  0  0  0  0  0  0  0
    8.6811   41.6622   68.2190 C   0  0  0  0  0  0  0  0  0  0  0  0
   10.4465   42.9484   67.0201 C   0  0  0  0  0  0  0  0  0  0  0  0
    9.1283   42.4771   67.0372 N   0  0  0  0  0  0  0  0  0  0  0  0
    8.2048   43.5958   69.7855 C   0  0  0  0  0  0  0  0  0  0  0  0
  1  3  1  0  0  0  0
  2  3  2  0  0  0  0
  2 11  1  0  0  0  0
  3  4  1  0  0  0  0
  4  5  1  0  0  0  0
  5  6  1  0  0  0  0
  5  7  2  0  0  0  0
  6  8  1  0  0  0  0
  6 11  2  0  0  0  0
  8  9  1  0  0  0  0
  9 10  1  0  0  0  0
  9 13  1  6  0  0  0
 10 12  1  0  0  0  0
 11 12  1  0  0  0  0
M  END
>  <CHROM.1>
10.91129617,43.15267886,67.72977149,0.64674179,-0.30010712,-1.58533149

>  <Name>
ligand

>  <RI>
0

>  <Rbt.Current_Directory>
/home/itssahil/PROJECTS/Mol_Feturizer/New_Systems/rnas/3SUX

>  <Rbt.Executable>
rbdock ($Id: //depot/dev/client3/rdock/2013.1/src/exe/rbdock.cxx#4 $)

>  <Rbt.Library>
libRbt.so (2013.1, Build901 2013/11/27)

>  <Rbt.Parameter_File>
/export/apps/rDock/src/rDock_2013.1_src/data/scripts/dock_solv.prm

>  <Rbt.Receptor>
prm/pocket_docking_2.prm

>  <SCORE>
-8.83881

>  <SCORE.INTER>
-8.83881

>  <SCORE.INTER.CONST>
1

>  <SCORE.INTER.POLAR>
0

>  <SCORE.INTER.ROT>
0

>  <SCORE.INTER.SOLV>
22.187

>  <SCORE.INTER.VDW>
-16.8882

>  <SCORE.INTER.norm>
-0.679909

>  <SCORE.INTRA>
0

>  <SCORE.INTRA.DIHEDRAL>
0

>  <SCORE.INTRA.DIHEDRAL.0>
0

>  <SCORE.INTRA.POLAR>
0

>  <SCORE.INTRA.POLAR.0>
0

>  <SCORE.INTRA.REPUL>
0

>  <SCORE.INTRA.REPUL.0>
0

>  <SCORE.INTRA.SOLV>
0

>  <SCORE.INTRA.SOLV.lig_0>
-48.6608

>  <SCORE.INTRA.VDW>
0

>  <SCORE.INTRA.VDW.0>
0

>  <SCORE.INTRA.norm>
0

>  <SCORE.RESTR>
0

>  <SCORE.RESTR.CAVITY>
0

>  <SCORE.RESTR.norm>
0

>  <SCORE.SYSTEM>
0

>  <SCORE.SYSTEM.CONST>
0

>  <SCORE.SYSTEM.DIHEDRAL>
0

>  <SCORE.SYSTEM.SOLV>
0

>  <SCORE.SYSTEM.norm>
0

>  <SCORE.heavy>
13

>  <SCORE.norm>
-0.679909

>  <RMSD>
0.914

$$$$
ligand
 OpenBabel11021811483D
libRbt.so/2013.1/901 2013/11/27
 13 14  0  0  0  0  0  0  0  0999 V2000
   12.8982   43.9496   64.6510 N   0  0  0  0  0  0  0  0  0  0  0  0
   11.0512   43.2319   65.8541 N   0  0  0  0  0  0  0  0  0  0  0  0
   12.3211   43.6759   65.8176 C   0  0  0  0  0  0  0  0  0  0  0  0
   13.0457   43.8402   66.9974 N   0  0  0  0  0  0  0  0  0  0  0  0
   12.4187   43.5456   68.2098 C   0  0  0  0  0  0  0  0  0  0  0  0
   11.1003   43.1020   68.2209 C   0  0  0  0  0  0  0  0  0  0  0  0
   13.0351   43.6735   69.2670 O   0  0  0  0  0  0  0  0  0  0  0  0
   10.4829   42.7649   69.4404 N   0  0  0  0  0  0  0  0  0  0  0  0
    9.0582   42.3342   69.5214 C   0  0  2  0  0  0  0  0  0  0  0  0
    8.6596   41.6543   68.2006 C   0  0  0  0  0  0  0  0  0  0  0  0
   10.4372   42.9347   67.0135 C   0  0  0  0  0  0  0  0  0  0  0  0
    9.1183   42.4649   67.0202 N   0  0  0  0  0  0  0  0  0  0  0  0
    8.1713   43.5935   69.7564 C   0  0  0  0  0  0  0  0  0  0  0  0
  1  3  1  0  0  0  0
  2  3  2  0  0  0  0
  2 11  1  0  0  0  0
  3  4  1  0  0  0  0
  4  5  1  0  0  0  0
  5  6  1  0  0  0  0
  5  7  2  0  0  0  0
  6  8  1  0  0  0  0
  6 11  2  0  0  0  0
  8  9  1  0  0  0  0
  9 10  1  0  0  0  0
  9 13  1  6  0  0  0
 10 12  1  0  0  0  0
 11 12  1  0  0  0  0
M  END
>  <CHROM.1>
10.89577017,43.14076963,67.72668685,0.63730230,-0.29886928,-1.59136048

>  <Name>
ligand

>  <RI>
0

>  <Rbt.Current_Directory>
/home/itssahil/PROJECTS/Mol_Feturizer/New_Systems/rnas/3SUX

>  <Rbt.Executable>
rbdock ($Id: //depot/dev/client3/rdock/2013.1/src/exe/rbdock.cxx#4 $)

>  <Rbt.Library>
libRbt.so (2013.1, Build901 2013/11/27)

>  <Rbt.Parameter_File>
/export/apps/rDock/src/rDock_2013.1_src/data/scripts/dock_solv.prm

>  <Rbt.Receptor>
prm/pocket_docking_3.prm

>  <SCORE>
-8.8474

>  <SCORE.INTER>
-8.8474

>  <SCORE.INTER.CONST>
1

>  <SCORE.INTER.POLAR>
0

>  <SCORE.INTER.ROT>
0

>  <SCORE.INTER.SOLV>
22.2245

>  <SCORE.INTER.VDW>
-16.9064

>  <SCORE.INTER.norm>
-0.680569

>  <SCORE.INTRA>
0

>  <SCORE.INTRA.DIHEDRAL>
0

>  <SCORE.INTRA.DIHEDRAL.0>
0

>  <SCORE.INTRA.POLAR>
0

>  <SCORE.INTRA.POLAR.0>
0

>  <SCORE.INTRA.REPUL>
0

>  <SCORE.INTRA.REPUL.0>
0

>  <SCORE.INTRA.SOLV>
0

>  <SCORE.INTRA.SOLV.lig_0>
-48.6608

>  <SCORE.INTRA.VDW>
0

>  <SCORE.INTRA.VDW.0>
0

>  <SCORE.INTRA.norm>
0

>  <SCORE.RESTR>
0

>  <SCORE.RESTR.CAVITY>
0

>  <SCORE.RESTR.norm>
0

>  <SCORE.SYSTEM>
0

>  <SCORE.SYSTEM.CONST>
0

>  <SCORE.SYSTEM.DIHEDRAL>
0

>  <SCORE.SYSTEM.SOLV>
0

>  <SCORE.SYSTEM.norm>
0

>  <SCORE.heavy>
13

>  <SCORE.norm>
-0.680569

>  <RMSD>
0.917

$$$$
ligand
 OpenBabel11021811483D
libRbt.so/2013.1/901 2013/11/27
 13 14  0  0  0  0  0  0  0  0999 V2000
   12.9006   43.9458   64.6466 N   0  0  0  0  0  0  0  0  0  0  0  0
   11.0539   43.2300   65.8511 N   0  0  0  0  0  0  0  0  0  0  0  0
   12.3239   43.6739   65.8137 C   0  0  0  0  0  0  0  0  0  0  0  0
   13.0489   43.8396   66.9930 N   0  0  0  0  0  0  0  0  0  0  0  0
   12.4222   43.5469   68.2060 C   0  0  0  0  0  0  0  0  0  0  0  0
   11.1037   43.1035   68.2181 C   0  0  0  0  0  0  0  0  0  0  0  0
   13.0389   43.6762   69.2629 O   0  0  0  0  0  0  0  0  0  0  0  0
   10.4865   42.7681   69.4383 N   0  0  0  0  0  0  0  0  0  0  0  0
    9.0619   42.3378   69.5203 C   0  0  2  0  0  0  0  0  0  0  0  0
    8.6628   41.6560   68.2005 C   0  0  0  0  0  0  0  0  0  0  0  0
   10.4402   42.9345   67.0111 C   0  0  0  0  0  0  0  0  0  0  0  0
    9.1213   42.4649   67.0189 N   0  0  0  0  0  0  0  0  0  0  0  0
    8.1752   43.5975   69.7538 C   0  0  0  0  0  0  0  0  0  0  0  0
  1  3  1  0  0  0  0
  2  3  2  0  0  0  0
  2 11  1  0  0  0  0
  3  4  1  0  0  0  0
  4  5  1  0  0  0  0
  5  6  1  0  0  0  0
  5  7  2  0  0  0  0
  6  8  1  0  0  0  0
  6 11  2  0  0  0  0
  8  9  1  0  0  0  0
  9 10  1  0  0  0  0
  9 13  1  6  0  0  0
 10 12  1  0  0  0  0
 11 12  1  0  0  0  0
M  END
>  <CHROM.1>
10.89899887,43.14154892,67.72391128,0.63761241,-0.29873266,-1.59265998

>  <Name>
ligand

>  <RI>
0

>  <Rbt.Current_Directory>
/home/itssahil/PROJECTS/Mol_Feturizer/New_Systems/rnas/3SUX

>  <Rbt.Executable>
rbdock ($Id: //depot/dev/client3/rdock/2013.1/src/exe/rbdock.cxx#4 $)

>  <Rbt.Library>
libRbt.so (2013.1, Build901 2013/11/27)

>  <Rbt.Parameter_File>
/export/apps/rDock/src/rDock_2013.1_src/data/scripts/dock_solv.prm

>  <Rbt.Receptor>
prm/pocket_docking_3.prm

>  <SCORE>
-8.84496

>  <SCORE.INTER>
-8.84496

>  <SCORE.INTER.CONST>
1

>  <SCORE.INTER.POLAR>
0

>  <SCORE.INTER.ROT>
0

>  <SCORE.INTER.SOLV>
22.2287

>  <SCORE.INTER.VDW>
-16.9062

>  <SCORE.INTER.norm>
-0.680382

>  <SCORE.INTRA>
0

>  <SCORE.INTRA.DIHEDRAL>
0

>  <SCORE.INTRA.DIHEDRAL.0>
0

>  <SCORE.INTRA.POLAR>
0

>  <SCORE.INTRA.POLAR.0>
0

>  <SCORE.INTRA.REPUL>
0

>  <SCORE.INTRA.REPUL.0>
0

>  <SCORE.INTRA.SOLV>
0

>  <SCORE.INTRA.SOLV.lig_0>
-48.6608

>  <SCORE.INTRA.VDW>
0

>  <SCORE.INTRA.VDW.0>
0

>  <SCORE.INTRA.norm>
0

>  <SCORE.RESTR>
0

>  <SCORE.RESTR.CAVITY>
0

>  <SCORE.RESTR.norm>
0

>  <SCORE.SYSTEM>
0

>  <SCORE.SYSTEM.CONST>
0

>  <SCORE.SYSTEM.DIHEDRAL>
0

>  <SCORE.SYSTEM.SOLV>
0

>  <SCORE.SYSTEM.norm>
0

>  <SCORE.heavy>
13

>  <SCORE.norm>
-0.680382

>  <RMSD>
0.919

$$$$
ligand
 OpenBabel11021811483D
libRbt.so/2013.1/901 2013/11/27
 13 14  0  0  0  0  0  0  0  0999 V2000
   12.9025   43.9425   64.6371 N   0  0  0  0  0  0  0  0  0  0  0  0
   11.0593   43.2261   65.8467 N   0  0  0  0  0  0  0  0  0  0  0  0
   12.3284   43.6721   65.8059 C   0  0  0  0  0  0  0  0  0  0  0  0
   13.0553   43.8418   66.9835 N   0  0  0  0  0  0  0  0  0  0  0  0
   12.4314   43.5506   68.1983 C   0  0  0  0  0  0  0  0  0  0  0  0
   11.1138   43.1048   68.2138 C   0  0  0  0  0  0  0  0  0  0  0  0
   13.0498   43.6833   69.2537 O   0  0  0  0  0  0  0  0  0  0  0  0
   10.4995   42.7710   69.4359 N   0  0  0  0  0  0  0  0  0  0  0  0
    9.0758   42.3382   69.5215 C   0  0  2  0  0  0  0  0  0  0  0  0
    8.6754   41.6529   68.2040 C   0  0  0  0  0  0  0  0  0  0  0  0
   10.4483   42.9320   67.0085 C   0  0  0  0  0  0  0  0  0  0  0  0
    9.1303   42.4600   67.0197 N   0  0  0  0  0  0  0  0  0  0  0  0
    8.1873   43.5968   69.7539 C   0  0  0  0  0  0  0  0  0  0  0  0
  1  3  1  0  0  0  0
  2  3  2  0  0  0  0
  2 11  1  0  0  0  0
  3  4  1  0  0  0  0
  4  5  1  0  0  0  0
  5  6  1  0  0  0  0
  5  7  2  0  0  0  0
  6  8  1  0  0  0  0
  6 11  2  0  0  0  0
  8  9  1  0  0  0  0
  9 10  1  0  0  0  0
  9 13  1  6  0  0  0
 10 12  1  0  0  0  0
 11 12  1  0  0  0  0
M  END
>  <CHROM.1>
10.90806388,43.14140558,67.71994235,0.63952388,-0.30059735,-1.59429390

>  <Name>
ligand

>  <RI>
0

>  <Rbt.Current_Directory>
/home/itssahil/PROJECTS/Mol_Feturizer/New_Systems/rnas/3SUX

>  <Rbt.Executable>
rbdock ($Id: //depot/dev/client3/rdock/2013.1/src/exe/rbdock.cxx#4 $)

>  <Rbt.Library>
libRbt.so (2013.1, Build901 2013/11/27)

>  <Rbt.Parameter_File>
/export/apps/rDock/src/rDock_2013.1_src/data/scripts/dock_solv.prm

>  <Rbt.Receptor>
prm/pocket_docking_3.prm

>  <SCORE>
-8.83817

>  <SCORE.INTER>
-8.83817

>  <SCORE.INTER.CONST>
1

>  <SCORE.INTER.POLAR>
0

>  <SCORE.INTER.ROT>
0

>  <SCORE.INTER.SOLV>
22.2182

>  <SCORE.INTER.VDW>
-16.8982

>  <SCORE.INTER.norm>
-0.67986

>  <SCORE.INTRA>
0

>  <SCORE.INTRA.DIHEDRAL>
0

>  <SCORE.INTRA.DIHEDRAL.0>
0

>  <SCORE.INTRA.POLAR>
0

>  <SCORE.INTRA.POLAR.0>
0

>  <SCORE.INTRA.REPUL>
0

>  <SCORE.INTRA.REPUL.0>
0

>  <SCORE.INTRA.SOLV>
0

>  <SCORE.INTRA.SOLV.lig_0>
-48.6608

>  <SCORE.INTRA.VDW>
0

>  <SCORE.INTRA.VDW.0>
0

>  <SCORE.INTRA.norm>
0

>  <SCORE.RESTR>
0

>  <SCORE.RESTR.CAVITY>
0

>  <SCORE.RESTR.norm>
0

>  <SCORE.SYSTEM>
0

>  <SCORE.SYSTEM.CONST>
0

>  <SCORE.SYSTEM.DIHEDRAL>
0

>  <SCORE.SYSTEM.SOLV>
0

>  <SCORE.SYSTEM.norm>
0

>  <SCORE.heavy>
13

>  <SCORE.norm>
-0.67986

>  <RMSD>
0.919

$$$$
ligand
 OpenBabel11021811483D
libRbt.so/2013.1/901 2013/11/27
 13 14  0  0  0  0  0  0  0  0999 V2000
   12.9053   43.9390   64.6289 N   0  0  0  0  0  0  0  0  0  0  0  0
   11.0646   43.2233   65.8427 N   0  0  0  0  0  0  0  0  0  0  0  0
   12.3333   43.6703   65.7990 C   0  0  0  0  0  0  0  0  0  0  0  0
   13.0618   43.8429   66.9752 N   0  0  0  0  0  0  0  0  0  0  0  0
   12.4400   43.5535   68.1915 C   0  0  0  0  0  0  0  0  0  0  0  0
   11.1228   43.1067   68.2100 C   0  0  0  0  0  0  0  0  0  0  0  0
   13.0599   43.6888   69.2458 O   0  0  0  0  0  0  0  0  0  0  0  0
   10.5106   42.7748   69.4336 N   0  0  0  0  0  0  0  0  0  0  0  0
    9.0874   42.3410   69.5222 C   0  0  2  0  0  0  0  0  0  0  0  0
    8.6856   41.6527   68.2066 C   0  0  0  0  0  0  0  0  0  0  0  0
   10.4556   42.9310   67.0060 C   0  0  0  0  0  0  0  0  0  0  0  0
    9.1380   42.4579   67.0201 N   0  0  0  0  0  0  0  0  0  0  0  0
    8.1982   43.5993   69.7535 C   0  0  0  0  0  0  0  0  0  0  0  0
  1  3  1  0  0  0  0
  2  3  2  0  0  0  0
  2 11  1  0  0  0  0
  3  4  1  0  0  0  0
  4  5  1  0  0  0  0
  5  6  1  0  0  0  0
  5  7  2  0  0  0  0
  6  8  1  0  0  0  0
  6 11  2  0  0  0  0
  8  9  1  0  0  0  0
  9 10  1  0  0  0  0
  9 13  1  6  0  0  0
 10 12  1  0  0  0  0
 11 12  1  0  0  0  0
M  END
>  <CHROM.1>
10.91628310,43.14216436,67.71629399,0.64109884,-0.30146182,-1.59575818

>  <Name>
ligand

>  <RI>
0

>  <Rbt.Current_Directory>
/home/itssahil/PROJECTS/Mol_Feturizer/New_Systems/rnas/3SUX

>  <Rbt.Executable>
rbdock ($Id: //depot/dev/client3/rdock/2013.1/src/exe/rbdock.cxx#4 $)

>  <Rbt.Library>
libRbt.so (2013.1, Build901 2013/11/27)

>  <Rbt.Parameter_File>
/export/apps/rDock/src/rDock_2013.1_src/data/scripts/dock_solv.prm

>  <Rbt.Receptor>
prm/pocket_docking_2.prm

>  <SCORE>
-8.83122

>  <SCORE.INTER>
-8.83122

>  <SCORE.INTER.CONST>
1

>  <SCORE.INTER.POLAR>
0

>  <SCORE.INTER.ROT>
0

>  <SCORE.INTER.SOLV>
22.2134

>  <SCORE.INTER.VDW>
-16.8919

>  <SCORE.INTER.norm>
-0.679325

>  <SCORE.INTRA>
0

>  <SCORE.INTRA.DIHEDRAL>
0

>  <SCORE.INTRA.DIHEDRAL.0>
0

>  <SCORE.INTRA.POLAR>
0

>  <SCORE.INTRA.POLAR.0>
0

>  <SCORE.INTRA.REPUL>
0

>  <SCORE.INTRA.REPUL.0>
0

>  <SCORE.INTRA.SOLV>
0

>  <SCORE.INTRA.SOLV.lig_0>
-48.6608

>  <SCORE.INTRA.VDW>
0

>  <SCORE.INTRA.VDW.0>
0

>  <SCORE.INTRA.norm>
0

>  <SCORE.RESTR>
0

>  <SCORE.RESTR.CAVITY>
0

>  <SCORE.RESTR.norm>
0

>  <SCORE.SYSTEM>
0

>  <SCORE.SYSTEM.CONST>
0

>  <SCORE.SYSTEM.DIHEDRAL>
0

>  <SCORE.SYSTEM.SOLV>
0

>  <SCORE.SYSTEM.norm>
0

>  <SCORE.heavy>
13

>  <SCORE.norm>
-0.679325

>  <RMSD>
0.920

$$$$
ligand
 OpenBabel11021811483D
libRbt.so/2013.1/901 2013/11/27
 13 14  0  0  0  0  0  0  0  0999 V2000
   12.8911   43.9725   64.6394 N   0  0  0  0  0  0  0  0  0  0  0  0
   11.0525   43.2423   65.8478 N   0  0  0  0  0  0  0  0  0  0  0  0
   12.3226   43.6856   65.8070 C   0  0  0  0  0  0  0  0  0  0  0  0
   13.0563   43.8351   66.9831 N   0  0  0  0  0  0  0  0  0  0  0  0
   12.4382   43.5269   68.1966 C   0  0  0  0  0  0  0  0  0  0  0  0
   11.1195   43.0845   68.2125 C   0  0  0  0  0  0  0  0  0  0  0  0
   13.0627   43.6417   69.2506 O   0  0  0  0  0  0  0  0  0  0  0  0
   10.5109   42.7335   69.4326 N   0  0  0  0  0  0  0  0  0  0  0  0
    9.0865   42.3033   69.5193 C   0  0  2  0  0  0  0  0  0  0  0  0
    8.6771   41.6394   68.1936 C   0  0  0  0  0  0  0  0  0  0  0  0
   10.4470   42.9320   67.0083 C   0  0  0  0  0  0  0  0  0  0  0  0
    9.1278   42.4634   67.0194 N   0  0  0  0  0  0  0  0  0  0  0  0
    8.2027   43.5605   69.7759 C   0  0  0  0  0  0  0  0  0  0  0  0
  1  3  1  0  0  0  0
  2  3  2  0  0  0  0
  2 11  1  0  0  0  0
  3  4  1  0  0  0  0
  4  5  1  0  0  0  0
  5  6  1  0  0  0  0
  5  7  2  0  0  0  0
  6  8  1  0  0  0  0
  6 11  2  0  0  0  0
  8  9  1  0  0  0  0
  9 10  1  0  0  0  0
  9 13  1  6  0  0  0
 10 12  1  0  0  0  0
 11 12  1  0  0  0  0
M  END
>  <CHROM.1>
10.91118632,43.12922706,67.72035383,0.64525264,-0.29797406,-1.57718939

>  <Name>
ligand

>  <RI>
0

>  <Rbt.Current_Directory>
/home/itssahil/PROJECTS/Mol_Feturizer/New_Systems/rnas/3SUX

>  <Rbt.Executable>
rbdock ($Id: //depot/dev/client3/rdock/2013.1/src/exe/rbdock.cxx#4 $)

>  <Rbt.Library>
libRbt.so (2013.1, Build901 2013/11/27)

>  <Rbt.Parameter_File>
/export/apps/rDock/src/rDock_2013.1_src/data/scripts/dock_solv.prm

>  <Rbt.Receptor>
prm/pocket_docking_2.prm

>  <SCORE>
-8.81433

>  <SCORE.INTER>
-8.81433

>  <SCORE.INTER.CONST>
1

>  <SCORE.INTER.POLAR>
0

>  <SCORE.INTER.ROT>
0

>  <SCORE.INTER.SOLV>
22.257

>  <SCORE.INTER.VDW>
-16.8952

>  <SCORE.INTER.norm>
-0.678025

>  <SCORE.INTRA>
0

>  <SCORE.INTRA.DIHEDRAL>
0

>  <SCORE.INTRA.DIHEDRAL.0>
0

>  <SCORE.INTRA.POLAR>
0

>  <SCORE.INTRA.POLAR.0>
0

>  <SCORE.INTRA.REPUL>
0

>  <SCORE.INTRA.REPUL.0>
0

>  <SCORE.INTRA.SOLV>
0

>  <SCORE.INTRA.SOLV.lig_0>
-48.6608

>  <SCORE.INTRA.VDW>
0

>  <SCORE.INTRA.VDW.0>
0

>  <SCORE.INTRA.norm>
0

>  <SCORE.RESTR>
0

>  <SCORE.RESTR.CAVITY>
0

>  <SCORE.RESTR.norm>
0

>  <SCORE.SYSTEM>
0

>  <SCORE.SYSTEM.CONST>
0

>  <SCORE.SYSTEM.DIHEDRAL>
0

>  <SCORE.SYSTEM.SOLV>
0

>  <SCORE.SYSTEM.norm>
0

>  <SCORE.heavy>
13

>  <SCORE.norm>
-0.678025

>  <RMSD>
0.921

$$$$
ligand
 OpenBabel11021811483D
libRbt.so/2013.1/901 2013/11/27
 13 14  0  0  0  0  0  0  0  0999 V2000
   12.9019   43.8206   64.5930 N   0  0  0  0  0  0  0  0  0  0  0  0
   11.0533   43.1804   65.8366 N   0  0  0  0  0  0  0  0  0  0  0  0
   12.3245   43.6178   65.7737 C   0  0  0  0  0  0  0  0  0  0  0  0
   13.0500   43.8489   66.9417 N   0  0  0  0  0  0  0  0  0  0  0  0
   12.4226   43.6281   68.1694 C   0  0  0  0  0  0  0  0  0  0  0  0
   11.1029   43.1899   68.2069 C   0  0  0  0  0  0  0  0  0  0  0  0
   13.0398   43.8162   69.2172 O   0  0  0  0  0  0  0  0  0  0  0  0
   10.4849   42.9270   69.4443 N   0  0  0  0  0  0  0  0  0  0  0  0
    9.0591   42.5060   69.5508 C   0  0  2  0  0  0  0  0  0  0  0  0
    8.6579   41.7508   68.2723 C   0  0  0  0  0  0  0  0  0  0  0  0
   10.4388   42.9538   67.0116 C   0  0  0  0  0  0  0  0  0  0  0  0
    9.1186   42.4891   67.0462 N   0  0  0  0  0  0  0  0  0  0  0  0
    8.1760   43.7796   69.7115 C   0  0  0  0  0  0  0  0  0  0  0  0
  1  3  1  0  0  0  0
  2  3  2  0  0  0  0
  2 11  1  0  0  0  0
  3  4  1  0  0  0  0
  4  5  1  0  0  0  0
  5  6  1  0  0  0  0
  5  7  2  0  0  0  0
  6  8  1  0  0  0  0
  6 11  2  0  0  0  0
  8  9  1  0  0  0  0
  9 10  1  0  0  0  0
  9 13  1  6  0  0  0
 10 12  1  0  0  0  0
 11 12  1  0  0  0  0
M  END
>  <CHROM.1>
10.89827323,43.20010833,67.71133013,0.63777449,-0.29590360,-1.65008149

>  <Name>
ligand

>  <RI>
0

>  <Rbt.Current_Directory>
/home/itssahil/PROJECTS/Mol_Feturizer/New_Systems/rnas/3SUX

>  <Rbt.Executable>
rbdock ($Id: //depot/dev/client3/rdock/2013.1/src/exe/rbdock.cxx#4 $)

>  <Rbt.Library>
libRbt.so (2013.1, Build901 2013/11/27)

>  <Rbt.Parameter_File>
/export/apps/rDock/src/rDock_2013.1_src/data/scripts/dock_solv.prm

>  <Rbt.Receptor>
prm/pocket_docking_3.prm

>  <SCORE>
-8.79313

>  <SCORE.INTER>
-8.79313

>  <SCORE.INTER.CONST>
1

>  <SCORE.INTER.POLAR>
0

>  <SCORE.INTER.ROT>
0

>  <SCORE.INTER.SOLV>
22.1407

>  <SCORE.INTER.VDW>
-16.8423

>  <SCORE.INTER.norm>
-0.676395

>  <SCORE.INTRA>
0

>  <SCORE.INTRA.DIHEDRAL>
0

>  <SCORE.INTRA.DIHEDRAL.0>
0

>  <SCORE.INTRA.POLAR>
0

>  <SCORE.INTRA.POLAR.0>
0

>  <SCORE.INTRA.REPUL>
0

>  <SCORE.INTRA.REPUL.0>
0

>  <SCORE.INTRA.SOLV>
0

>  <SCORE.INTRA.SOLV.lig_0>
-48.6608

>  <SCORE.INTRA.VDW>
0

>  <SCORE.INTRA.VDW.0>
0

>  <SCORE.INTRA.norm>
0

>  <SCORE.RESTR>
0

>  <SCORE.RESTR.CAVITY>
0

>  <SCORE.RESTR.norm>
0

>  <SCORE.SYSTEM>
0

>  <SCORE.SYSTEM.CONST>
0

>  <SCORE.SYSTEM.DIHEDRAL>
0

>  <SCORE.SYSTEM.SOLV>
0

>  <SCORE.SYSTEM.norm>
0

>  <SCORE.heavy>
13

>  <SCORE.norm>
-0.676395

>  <RMSD>
0.934

$$$$
ligand
 OpenBabel11021811483D
libRbt.so/2013.1/901 2013/11/27
 13 14  0  0  0  0  0  0  0  0999 V2000
   12.9400   43.8822   64.5909 N   0  0  0  0  0  0  0  0  0  0  0  0
   11.0929   43.2221   65.8263 N   0  0  0  0  0  0  0  0  0  0  0  0
   12.3642   43.6601   65.7689 C   0  0  0  0  0  0  0  0  0  0  0  0
   13.0914   43.8717   66.9395 N   0  0  0  0  0  0  0  0  0  0  0  0
   12.4656   43.6309   68.1643 C   0  0  0  0  0  0  0  0  0  0  0  0
   11.1458   43.1925   68.1964 C   0  0  0  0  0  0  0  0  0  0  0  0
   13.0843   43.8015   69.2142 O   0  0  0  0  0  0  0  0  0  0  0  0
   10.5295   42.9094   69.4301 N   0  0  0  0  0  0  0  0  0  0  0  0
    9.1036   42.4872   69.5316 C   0  0  2  0  0  0  0  0  0  0  0  0
    8.7004   41.7533   68.2415 C   0  0  0  0  0  0  0  0  0  0  0  0
   10.4800   42.9763   66.9983 C   0  0  0  0  0  0  0  0  0  0  0  0
    9.1597   42.5116   67.0271 N   0  0  0  0  0  0  0  0  0  0  0  0
    8.2212   43.7582   69.7146 C   0  0  0  0  0  0  0  0  0  0  0  0
  1  3  1  0  0  0  0
  2  3  2  0  0  0  0
  2 11  1  0  0  0  0
  3  4  1  0  0  0  0
  4  5  1  0  0  0  0
  5  6  1  0  0  0  0
  5  7  2  0  0  0  0
  6  8  1  0  0  0  0
  6 11  2  0  0  0  0
  8  9  1  0  0  0  0
  9 10  1  0  0  0  0
  9 13  1  6  0  0  0
 10 12  1  0  0  0  0
 11 12  1  0  0  0  0
M  END
>  <CHROM.1>
10.94051770,43.21096002,67.70133222,0.63923978,-0.29568441,-1.63317474

>  <Name>
ligand

>  <RI>
0

>  <Rbt.Current_Directory>
/home/itssahil/PROJECTS/Mol_Feturizer/New_Systems/rnas/3SUX

>  <Rbt.Executable>
rbdock ($Id: //depot/dev/client3/rdock/2013.1/src/exe/rbdock.cxx#4 $)

>  <Rbt.Library>
libRbt.so (2013.1, Build901 2013/11/27)

>  <Rbt.Parameter_File>
/export/apps/rDock/src/rDock_2013.1_src/data/scripts/dock_solv.prm

>  <Rbt.Receptor>
prm/pocket_docking_3.prm

>  <SCORE>
-8.76799

>  <SCORE.INTER>
-8.76799

>  <SCORE.INTER.CONST>
1

>  <SCORE.INTER.POLAR>
0

>  <SCORE.INTER.ROT>
0

>  <SCORE.INTER.SOLV>
22.2277

>  <SCORE.INTER.VDW>
-16.8546

>  <SCORE.INTER.norm>
-0.674461

>  <SCORE.INTRA>
0

>  <SCORE.INTRA.DIHEDRAL>
0

>  <SCORE.INTRA.DIHEDRAL.0>
0

>  <SCORE.INTRA.POLAR>
0

>  <SCORE.INTRA.POLAR.0>
0

>  <SCORE.INTRA.REPUL>
0

>  <SCORE.INTRA.REPUL.0>
0

>  <SCORE.INTRA.SOLV>
0

>  <SCORE.INTRA.SOLV.lig_0>
-48.6608

>  <SCORE.INTRA.VDW>
0

>  <SCORE.INTRA.VDW.0>
0

>  <SCORE.INTRA.norm>
0

>  <SCORE.RESTR>
0

>  <SCORE.RESTR.CAVITY>
0

>  <SCORE.RESTR.norm>
0

>  <SCORE.SYSTEM>
0

>  <SCORE.SYSTEM.CONST>
0

>  <SCORE.SYSTEM.DIHEDRAL>
0

>  <SCORE.SYSTEM.SOLV>
0

>  <SCORE.SYSTEM.norm>
0

>  <SCORE.heavy>
13

>  <SCORE.norm>
-0.674461

>  <RMSD>
0.948

$$$$
ligand
 OpenBabel11021811483D
libRbt.so/2013.1/901 2013/11/27
 13 14  0  0  0  0  0  0  0  0999 V2000
   13.0049   45.5938   69.3437 N   0  0  0  0  0  0  0  0  0  0  0  0
   10.9973   44.5318   69.8075 N   0  0  0  0  0  0  0  0  0  0  0  0
   12.0545   44.7299   68.9987 C   0  0  0  0  0  0  0  0  0  0  0  0
   12.1564   44.0436   67.7893 N   0  0  0  0  0  0  0  0  0  0  0  0
   11.1458   43.1424   67.4484 C   0  0  0  0  0  0  0  0  0  0  0  0
   10.0708   42.9452   68.3091 C   0  0  0  0  0  0  0  0  0  0  0  0
   11.2043   42.5277   66.3841 O   0  0  0  0  0  0  0  0  0  0  0  0
    9.0313   42.0683   67.9451 N   0  0  0  0  0  0  0  0  0  0  0  0
    7.8810   41.7764   68.8469 C   0  0  2  0  0  0  0  0  0  0  0  0
    7.6299   42.9915   69.7558 C   0  0  0  0  0  0  0  0  0  0  0  0
   10.0111   43.6745   69.4881 C   0  0  0  0  0  0  0  0  0  0  0  0
    8.9180   43.4962   70.3446 N   0  0  0  0  0  0  0  0  0  0  0  0
    8.2335   40.5311   69.7144 C   0  0  0  0  0  0  0  0  0  0  0  0
  1  3  1  0  0  0  0
  2  3  2  0  0  0  0
  2 11  1  0  0  0  0
  3  4  1  0  0  0  0
  4  5  1  0  0  0  0
  5  6  1  0  0  0  0
  5  7  2  0  0  0  0
  6  8  1  0  0  0  0
  6 11  2  0  0  0  0
  8  9  1  0  0  0  0
  9 10  1  0  0  0  0
  9 13  1  1  0  0  0
 10 12  1  0  0  0  0
 11 12  1  0  0  0  0
M  END
>  <CHROM.1>
10.16370671,43.20156396,68.77084294,0.20818319,0.58475157,0.93713518

>  <Name>
ligand

>  <RI>
0

>  <Rbt.Current_Directory>
/home/itssahil/PROJECTS/Mol_Feturizer/New_Systems/rnas/3SUX

>  <Rbt.Executable>
rbdock ($Id: //depot/dev/client3/rdock/2013.1/src/exe/rbdock.cxx#4 $)

>  <Rbt.Library>
libRbt.so (2013.1, Build901 2013/11/27)

>  <Rbt.Parameter_File>
/export/apps/rDock/src/rDock_2013.1_src/data/scripts/dock_solv.prm

>  <Rbt.Receptor>
prm/pocket_docking_2.prm

>  <SCORE>
-6.29668

>  <SCORE.INTER>
-6.29668

>  <SCORE.INTER.CONST>
1

>  <SCORE.INTER.POLAR>
0

>  <SCORE.INTER.ROT>
0

>  <SCORE.INTER.SOLV>
12.0675

>  <SCORE.INTER.VDW>
-11.8203

>  <SCORE.INTER.norm>
-0.48436

>  <SCORE.INTRA>
0

>  <SCORE.INTRA.DIHEDRAL>
0

>  <SCORE.INTRA.DIHEDRAL.0>
0

>  <SCORE.INTRA.POLAR>
0

>  <SCORE.INTRA.POLAR.0>
0

>  <SCORE.INTRA.REPUL>
0

>  <SCORE.INTRA.REPUL.0>
0

>  <SCORE.INTRA.SOLV>
0

>  <SCORE.INTRA.SOLV.lig_0>
-48.6608

>  <SCORE.INTRA.VDW>
0

>  <SCORE.INTRA.VDW.0>
0

>  <SCORE.INTRA.norm>
0

>  <SCORE.RESTR>
0

>  <SCORE.RESTR.CAVITY>
0

>  <SCORE.RESTR.norm>
0

>  <SCORE.SYSTEM>
0

>  <SCORE.SYSTEM.CONST>
0

>  <SCORE.SYSTEM.DIHEDRAL>
0

>  <SCORE.SYSTEM.SOLV>
0

>  <SCORE.SYSTEM.norm>
0

>  <SCORE.heavy>
13

>  <SCORE.norm>
-0.48436

>  <RMSD>
2.859

$$$$
ligand
 OpenBabel11021811483D
libRbt.so/2013.1/901 2013/11/27
 13 14  0  0  0  0  0  0  0  0999 V2000
   13.0035   45.5968   69.3776 N   0  0  0  0  0  0  0  0  0  0  0  0
   10.9934   44.5133   69.7767 N   0  0  0  0  0  0  0  0  0  0  0  0
   12.0638   44.7381   68.9925 C   0  0  0  0  0  0  0  0  0  0  0  0
   12.1909   44.0851   67.7672 N   0  0  0  0  0  0  0  0  0  0  0  0
   11.1911   43.1886   67.3842 C   0  0  0  0  0  0  0  0  0  0  0  0
   10.1021   42.9632   68.2198 C   0  0  0  0  0  0  0  0  0  0  0  0
   11.2718   42.6030   66.3050 O   0  0  0  0  0  0  0  0  0  0  0  0
    9.0737   42.0915   67.8139 N   0  0  0  0  0  0  0  0  0  0  0  0
    7.9091   41.7701   68.6867 C   0  0  2  0  0  0  0  0  0  0  0  0
    7.6355   42.9591   69.6233 C   0  0  0  0  0  0  0  0  0  0  0  0
   10.0176   43.6602   69.4168 C   0  0  0  0  0  0  0  0  0  0  0  0
    8.9104   43.4538   70.2484 N   0  0  0  0  0  0  0  0  0  0  0  0
    8.2525   40.5036   69.5267 C   0  0  0  0  0  0  0  0  0  0  0  0
  1  3  1  0  0  0  0
  2  3  2  0  0  0  0
  2 11  1  0  0  0  0
  3  4  1  0  0  0  0
  4  5  1  0  0  0  0
  5  6  1  0  0  0  0
  5  7  2  0  0  0  0
  6  8  1  0  0  0  0
  6 11  2  0  0  0  0
  8  9  1  0  0  0  0
  9 10  1  0  0  0  0
  9 13  1  1  0  0  0
 10 12  1  0  0  0  0
 11 12  1  0  0  0  0
M  END
>  <CHROM.1>
10.18537345,43.20754129,68.68991821,0.22898642,0.57829225,0.95258364

>  <Name>
ligand

>  <RI>
0

>  <Rbt.Current_Directory>
/home/itssahil/PROJECTS/Mol_Feturizer/New_Systems/rnas/3SUX

>  <Rbt.Executable>
rbdock ($Id: //depot/dev/client3/rdock/2013.1/src/exe/rbdock.cxx#4 $)

>  <Rbt.Library>
libRbt.so (2013.1, Build901 2013/11/27)

>  <Rbt.Parameter_File>
/export/apps/rDock/src/rDock_2013.1_src/data/scripts/dock_solv.prm

>  <Rbt.Receptor>
prm/pocket_docking_2.prm

>  <SCORE>
-6.38324

>  <SCORE.INTER>
-6.38324

>  <SCORE.INTER.CONST>
1

>  <SCORE.INTER.POLAR>
0

>  <SCORE.INTER.ROT>
0

>  <SCORE.INTER.SOLV>
12.4716

>  <SCORE.INTER.VDW>
-12.0127

>  <SCORE.INTER.norm>
-0.491019

>  <SCORE.INTRA>
0

>  <SCORE.INTRA.DIHEDRAL>
0

>  <SCORE.INTRA.DIHEDRAL.0>
0

>  <SCORE.INTRA.POLAR>
0

>  <SCORE.INTRA.POLAR.0>
0

>  <SCORE.INTRA.REPUL>
0

>  <SCORE.INTRA.REPUL.0>
0

>  <SCORE.INTRA.SOLV>
0

>  <SCORE.INTRA.SOLV.lig_0>
-48.6608

>  <SCORE.INTRA.VDW>
0

>  <SCORE.INTRA.VDW.0>
0

>  <SCORE.INTRA.norm>
0

>  <SCORE.RESTR>
0

>  <SCORE.RESTR.CAVITY>
0

>  <SCORE.RESTR.norm>
0

>  <SCORE.SYSTEM>
0

>  <SCORE.SYSTEM.CONST>
0

>  <SCORE.SYSTEM.DIHEDRAL>
0

>  <SCORE.SYSTEM.SOLV>
0

>  <SCORE.SYSTEM.norm>
0

>  <SCORE.heavy>
13

>  <SCORE.norm>
-0.491019

>  <RMSD>
2.861

$$$$
ligand
 OpenBabel11021811483D
libRbt.so/2013.1/901 2013/11/27
 13 14  0  0  0  0  0  0  0  0999 V2000
   12.7458   46.0255   69.4733 N   0  0  0  0  0  0  0  0  0  0  0  0
   10.8264   44.7736   69.8231 N   0  0  0  0  0  0  0  0  0  0  0  0
   11.9153   45.0615   69.0865 C   0  0  0  0  0  0  0  0  0  0  0  0
   12.1752   44.3633   67.9079 N   0  0  0  0  0  0  0  0  0  0  0  0
   11.2884   43.3561   67.5220 C   0  0  0  0  0  0  0  0  0  0  0  0
   10.1780   43.0683   68.3090 C   0  0  0  0  0  0  0  0  0  0  0  0
   11.4872   42.7276   66.4829 O   0  0  0  0  0  0  0  0  0  0  0  0
    9.2618   42.0818   67.8973 N   0  0  0  0  0  0  0  0  0  0  0  0
    8.0830   41.6931   68.7225 C   0  0  2  0  0  0  0  0  0  0  0  0
    7.6443   42.8955   69.5755 C   0  0  0  0  0  0  0  0  0  0  0  0
    9.9579   43.8130   69.4590 C   0  0  0  0  0  0  0  0  0  0  0  0
    8.8279   43.5422   70.2400 N   0  0  0  0  0  0  0  0  0  0  0  0
    8.4939   40.5096   69.6489 C   0  0  0  0  0  0  0  0  0  0  0  0
  1  3  1  0  0  0  0
  2  3  2  0  0  0  0
  2 11  1  0  0  0  0
  3  4  1  0  0  0  0
  4  5  1  0  0  0  0
  5  6  1  0  0  0  0
  5  7  2  0  0  0  0
  6  8  1  0  0  0  0
  6 11  2  0  0  0  0
  8  9  1  0  0  0  0
  9 10  1  0  0  0  0
  9 13  1  1  0  0  0
 10 12  1  0  0  0  0
 11 12  1  0  0  0  0
M  END
>  <CHROM.1>
10.21008902,43.34283019,68.76855208,0.35499501,0.61716142,0.82855840

>  <Name>
ligand

>  <RI>
0

>  <Rbt.Current_Directory>
/home/itssahil/PROJECTS/Mol_Feturizer/New_Systems/rnas/3SUX

>  <Rbt.Executable>
rbdock ($Id: //depot/dev/client3/rdock/2013.1/src/exe/rbdock.cxx#4 $)

>  <Rbt.Library>
libRbt.so (2013.1, Build901 2013/11/27)

>  <Rbt.Parameter_File>
/export/apps/rDock/src/rDock_2013.1_src/data/scripts/dock_solv.prm

>  <Rbt.Receptor>
prm/pocket_docking_5.prm

>  <SCORE>
-7.03687

>  <SCORE.INTER>
-7.03687

>  <SCORE.INTER.CONST>
1

>  <SCORE.INTER.POLAR>
0

>  <SCORE.INTER.ROT>
0

>  <SCORE.INTER.SOLV>
11.1098

>  <SCORE.INTER.VDW>
-11.9945

>  <SCORE.INTER.norm>
-0.541298

>  <SCORE.INTRA>
0

>  <SCORE.INTRA.DIHEDRAL>
0

>  <SCORE.INTRA.DIHEDRAL.0>
0

>  <SCORE.INTRA.POLAR>
0

>  <SCORE.INTRA.POLAR.0>
0

>  <SCORE.INTRA.REPUL>
0

>  <SCORE.INTRA.REPUL.0>
0

>  <SCORE.INTRA.SOLV>
0

>  <SCORE.INTRA.SOLV.lig_0>
-48.6608

>  <SCORE.INTRA.VDW>
0

>  <SCORE.INTRA.VDW.0>
0

>  <SCORE.INTRA.norm>
0

>  <SCORE.RESTR>
0

>  <SCORE.RESTR.CAVITY>
0

>  <SCORE.RESTR.norm>
0

>  <SCORE.SYSTEM>
0

>  <SCORE.SYSTEM.CONST>
0

>  <SCORE.SYSTEM.DIHEDRAL>
0

>  <SCORE.SYSTEM.SOLV>
0

>  <SCORE.SYSTEM.norm>
0

>  <SCORE.heavy>
13

>  <SCORE.norm>
-0.541298

>  <RMSD>
2.877

$$$$
ligand
 OpenBabel11021811483D
libRbt.so/2013.1/901 2013/11/27
 13 14  0  0  0  0  0  0  0  0999 V2000
   12.9990   45.5998   69.4314 N   0  0  0  0  0  0  0  0  0  0  0  0
   10.9756   44.5423   69.8328 N   0  0  0  0  0  0  0  0  0  0  0  0
   12.0510   44.7484   69.0504 C   0  0  0  0  0  0  0  0  0  0  0  0
   12.1748   44.0836   67.8311 N   0  0  0  0  0  0  0  0  0  0  0  0
   11.1664   43.1952   67.4523 C   0  0  0  0  0  0  0  0  0  0  0  0
   10.0721   42.9891   68.2861 C   0  0  0  0  0  0  0  0  0  0  0  0
   11.2440   42.5995   66.3784 O   0  0  0  0  0  0  0  0  0  0  0  0
    9.0354   42.1255   67.8841 N   0  0  0  0  0  0  0  0  0  0  0  0
    7.8643   41.8245   68.7556 C   0  0  2  0  0  0  0  0  0  0  0  0
    7.6010   43.0245   69.6811 C   0  0  0  0  0  0  0  0  0  0  0  0
    9.9914   43.6971   69.4768 C   0  0  0  0  0  0  0  0  0  0  0  0
    8.8792   43.5102   70.3064 N   0  0  0  0  0  0  0  0  0  0  0  0
    8.1908   40.5615   69.6074 C   0  0  0  0  0  0  0  0  0  0  0  0
  1  3  1  0  0  0  0
  2  3  2  0  0  0  0
  2 11  1  0  0  0  0
  3  4  1  0  0  0  0
  4  5  1  0  0  0  0
  5  6  1  0  0  0  0
  5  7  2  0  0  0  0
  6  8  1  0  0  0  0
  6 11  2  0  0  0  0
  8  9  1  0  0  0  0
  9 10  1  0  0  0  0
  9 13  1  1  0  0  0
 10 12  1  0  0  0  0
 11 12  1  0  0  0  0
M  END
>  <CHROM.1>
10.15656733,43.23642670,68.75437154,0.22450082,0.56722831,0.94652145

>  <Name>
ligand

>  <RI>
0

>  <Rbt.Current_Directory>
/home/itssahil/PROJECTS/Mol_Feturizer/New_Systems/rnas/3SUX

>  <Rbt.Executable>
rbdock ($Id: //depot/dev/client3/rdock/2013.1/src/exe/rbdock.cxx#4 $)

>  <Rbt.Library>
libRbt.so (2013.1, Build901 2013/11/27)

>  <Rbt.Parameter_File>
/export/apps/rDock/src/rDock_2013.1_src/data/scripts/dock_solv.prm

>  <Rbt.Receptor>
prm/pocket_docking_2.prm

>  <SCORE>
-6.4085

>  <SCORE.INTER>
-6.4085

>  <SCORE.INTER.CONST>
1

>  <SCORE.INTER.POLAR>
0

>  <SCORE.INTER.ROT>
0

>  <SCORE.INTER.SOLV>
12.0472

>  <SCORE.INTER.VDW>
-11.8881

>  <SCORE.INTER.norm>
-0.492961

>  <SCORE.INTRA>
0

>  <SCORE.INTRA.DIHEDRAL>
0

>  <SCORE.INTRA.DIHEDRAL.0>
0

>  <SCORE.INTRA.POLAR>
0

>  <SCORE.INTRA.POLAR.0>
0

>  <SCORE.INTRA.REPUL>
0

>  <SCORE.INTRA.REPUL.0>
0

>  <SCORE.INTRA.SOLV>
0

>  <SCORE.INTRA.SOLV.lig_0>
-48.6608

>  <SCORE.INTRA.VDW>
0

>  <SCORE.INTRA.VDW.0>
0

>  <SCORE.INTRA.norm>
0

>  <SCORE.RESTR>
0

>  <SCORE.RESTR.CAVITY>
0

>  <SCORE.RESTR.norm>
0

>  <SCORE.SYSTEM>
0

>  <SCORE.SYSTEM.CONST>
0

>  <SCORE.SYSTEM.DIHEDRAL>
0

>  <SCORE.SYSTEM.SOLV>
0

>  <SCORE.SYSTEM.norm>
0

>  <SCORE.heavy>
13

>  <SCORE.norm>
-0.492961

>  <RMSD>
2.878

$$$$
ligand
 OpenBabel11021811483D
libRbt.so/2013.1/901 2013/11/27
 13 14  0  0  0  0  0  0  0  0999 V2000
   12.9996   45.6003   69.4414 N   0  0  0  0  0  0  0  0  0  0  0  0
   10.9769   44.5398   69.8383 N   0  0  0  0  0  0  0  0  0  0  0  0
   12.0520   44.7504   69.0566 C   0  0  0  0  0  0  0  0  0  0  0  0
   12.1756   44.0917   67.8339 N   0  0  0  0  0  0  0  0  0  0  0  0
   11.1675   43.2047   67.4511 C   0  0  0  0  0  0  0  0  0  0  0  0
   10.0736   42.9939   68.2842 C   0  0  0  0  0  0  0  0  0  0  0  0
   11.2450   42.6145   66.3742 O   0  0  0  0  0  0  0  0  0  0  0  0
    9.0372   42.1318   67.8783 N   0  0  0  0  0  0  0  0  0  0  0  0
    7.8665   41.8259   68.7487 C   0  0  2  0  0  0  0  0  0  0  0  0
    7.6030   43.0211   69.6803 C   0  0  0  0  0  0  0  0  0  0  0  0
    9.9930   43.6960   69.4784 C   0  0  0  0  0  0  0  0  0  0  0  0
    8.8812   43.5044   70.3075 N   0  0  0  0  0  0  0  0  0  0  0  0
    8.1940   40.5588   69.5941 C   0  0  0  0  0  0  0  0  0  0  0  0
  1  3  1  0  0  0  0
  2  3  2  0  0  0  0
  2 11  1  0  0  0  0
  3  4  1  0  0  0  0
  4  5  1  0  0  0  0
  5  6  1  0  0  0  0
  5  7  2  0  0  0  0
  6  8  1  0  0  0  0
  6 11  2  0  0  0  0
  8  9  1  0  0  0  0
  9 10  1  0  0  0  0
  9 13  1  1  0  0  0
 10 12  1  0  0  0  0
 11 12  1  0  0  0  0
M  END
>  <CHROM.1>
10.15811090,43.23895553,68.75367697,0.22448011,0.56784083,0.95152464

>  <Name>
ligand

>  <RI>
0

>  <Rbt.Current_Directory>
/home/itssahil/PROJECTS/Mol_Feturizer/New_Systems/rnas/3SUX

>  <Rbt.Executable>
rbdock ($Id: //depot/dev/client3/rdock/2013.1/src/exe/rbdock.cxx#4 $)

>  <Rbt.Library>
libRbt.so (2013.1, Build901 2013/11/27)

>  <Rbt.Parameter_File>
/export/apps/rDock/src/rDock_2013.1_src/data/scripts/dock_solv.prm

>  <Rbt.Receptor>
prm/pocket_docking_2.prm

>  <SCORE>
-6.41058

>  <SCORE.INTER>
-6.41091

>  <SCORE.INTER.CONST>
1

>  <SCORE.INTER.POLAR>
0

>  <SCORE.INTER.ROT>
0

>  <SCORE.INTER.SOLV>
12.0359

>  <SCORE.INTER.VDW>
-11.8859

>  <SCORE.INTER.norm>
-0.493147

>  <SCORE.INTRA>
0

>  <SCORE.INTRA.DIHEDRAL>
0

>  <SCORE.INTRA.DIHEDRAL.0>
0

>  <SCORE.INTRA.POLAR>
0

>  <SCORE.INTRA.POLAR.0>
0

>  <SCORE.INTRA.REPUL>
0

>  <SCORE.INTRA.REPUL.0>
0

>  <SCORE.INTRA.SOLV>
0

>  <SCORE.INTRA.SOLV.lig_0>
-48.6608

>  <SCORE.INTRA.VDW>
0

>  <SCORE.INTRA.VDW.0>
0

>  <SCORE.INTRA.norm>
0

>  <SCORE.RESTR>
0.000332609

>  <SCORE.RESTR.CAVITY>
0.000332609

>  <SCORE.RESTR.norm>
2.55853e-05

>  <SCORE.SYSTEM>
0

>  <SCORE.SYSTEM.CONST>
0

>  <SCORE.SYSTEM.DIHEDRAL>
0

>  <SCORE.SYSTEM.SOLV>
0

>  <SCORE.SYSTEM.norm>
0

>  <SCORE.heavy>
13

>  <SCORE.norm>
-0.493122

>  <RMSD>
2.880

$$$$
ligand
 OpenBabel11021811483D
libRbt.so/2013.1/901 2013/11/27
 13 14  0  0  0  0  0  0  0  0999 V2000
   12.9972   45.5998   69.4012 N   0  0  0  0  0  0  0  0  0  0  0  0
   10.9721   44.5639   69.8479 N   0  0  0  0  0  0  0  0  0  0  0  0
   12.0391   44.7475   69.0486 C   0  0  0  0  0  0  0  0  0  0  0  0
   12.1435   44.0582   67.8411 N   0  0  0  0  0  0  0  0  0  0  0  0
   11.1247   43.1694   67.4921 C   0  0  0  0  0  0  0  0  0  0  0  0
   10.0395   42.9870   68.3431 C   0  0  0  0  0  0  0  0  0  0  0  0
   11.1852   42.5524   66.4292 O   0  0  0  0  0  0  0  0  0  0  0  0
    8.9923   42.1227   67.9707 N   0  0  0  0  0  0  0  0  0  0  0  0
    7.8302   41.8467   68.8622 C   0  0  2  0  0  0  0  0  0  0  0  0
    7.5861   43.0662   69.7672 C   0  0  0  0  0  0  0  0  0  0  0  0
    9.9782   43.7186   69.5206 C   0  0  0  0  0  0  0  0  0  0  0  0
    8.8751   43.5554   70.3672 N   0  0  0  0  0  0  0  0  0  0  0  0
    8.1589   40.5983   69.7345 C   0  0  0  0  0  0  0  0  0  0  0  0
  1  3  1  0  0  0  0
  2  3  2  0  0  0  0
  2 11  1  0  0  0  0
  3  4  1  0  0  0  0
  4  5  1  0  0  0  0
  5  6  1  0  0  0  0
  5  7  2  0  0  0  0
  6  8  1  0  0  0  0
  6 11  2  0  0  0  0
  8  9  1  0  0  0  0
  9 10  1  0  0  0  0
  9 13  1  1  0  0  0
 10 12  1  0  0  0  0
 11 12  1  0  0  0  0
M  END
>  <CHROM.1>
10.13135157,43.24283239,68.80534143,0.20809435,0.56912270,0.93582000

>  <Name>
ligand

>  <RI>
0

>  <Rbt.Current_Directory>
/home/itssahil/PROJECTS/Mol_Feturizer/New_Systems/rnas/3SUX

>  <Rbt.Executable>
rbdock ($Id: //depot/dev/client3/rdock/2013.1/src/exe/rbdock.cxx#4 $)

>  <Rbt.Library>
libRbt.so (2013.1, Build901 2013/11/27)

>  <Rbt.Parameter_File>
/export/apps/rDock/src/rDock_2013.1_src/data/scripts/dock_solv.prm

>  <Rbt.Receptor>
prm/pocket_docking_2.prm

>  <SCORE>
-6.36264

>  <SCORE.INTER>
-6.36264

>  <SCORE.INTER.CONST>
1

>  <SCORE.INTER.POLAR>
0

>  <SCORE.INTER.ROT>
0

>  <SCORE.INTER.SOLV>
11.8355

>  <SCORE.INTER.VDW>
-11.7869

>  <SCORE.INTER.norm>
-0.489434

>  <SCORE.INTRA>
0

>  <SCORE.INTRA.DIHEDRAL>
0

>  <SCORE.INTRA.DIHEDRAL.0>
0

>  <SCORE.INTRA.POLAR>
0

>  <SCORE.INTRA.POLAR.0>
0

>  <SCORE.INTRA.REPUL>
0

>  <SCORE.INTRA.REPUL.0>
0

>  <SCORE.INTRA.SOLV>
0

>  <SCORE.INTRA.SOLV.lig_0>
-48.6608

>  <SCORE.INTRA.VDW>
0

>  <SCORE.INTRA.VDW.0>
0

>  <SCORE.INTRA.norm>
0

>  <SCORE.RESTR>
0

>  <SCORE.RESTR.CAVITY>
0

>  <SCORE.RESTR.norm>
0

>  <SCORE.SYSTEM>
0

>  <SCORE.SYSTEM.CONST>
0

>  <SCORE.SYSTEM.DIHEDRAL>
0

>  <SCORE.SYSTEM.SOLV>
0

>  <SCORE.SYSTEM.norm>
0

>  <SCORE.heavy>
13

>  <SCORE.norm>
-0.489434

>  <RMSD>
2.880

$$$$
ligand
 OpenBabel11021811483D
libRbt.so/2013.1/901 2013/11/27
 13 14  0  0  0  0  0  0  0  0999 V2000
   12.7435   46.0268   69.4838 N   0  0  0  0  0  0  0  0  0  0  0  0
   10.8216   44.7757   69.8226 N   0  0  0  0  0  0  0  0  0  0  0  0
   11.9144   45.0636   69.0918 C   0  0  0  0  0  0  0  0  0  0  0  0
   12.1798   44.3664   67.9139 N   0  0  0  0  0  0  0  0  0  0  0  0
   11.2944   43.3602   67.5224 C   0  0  0  0  0  0  0  0  0  0  0  0
   10.1798   43.0723   68.3034 C   0  0  0  0  0  0  0  0  0  0  0  0
   11.4981   42.7327   66.4838 O   0  0  0  0  0  0  0  0  0  0  0  0
    9.2652   42.0868   67.8861 N   0  0  0  0  0  0  0  0  0  0  0  0
    8.0820   41.6979   68.7050 C   0  0  2  0  0  0  0  0  0  0  0  0
    7.6397   42.8997   69.5569 C   0  0  0  0  0  0  0  0  0  0  0  0
    9.9544   43.8159   69.4531 C   0  0  0  0  0  0  0  0  0  0  0  0
    8.8203   43.5450   70.2280 N   0  0  0  0  0  0  0  0  0  0  0  0
    8.4874   40.5133   69.6322 C   0  0  0  0  0  0  0  0  0  0  0  0
  1  3  1  0  0  0  0
  2  3  2  0  0  0  0
  2 11  1  0  0  0  0
  3  4  1  0  0  0  0
  4  5  1  0  0  0  0
  5  6  1  0  0  0  0
  5  7  2  0  0  0  0
  6  8  1  0  0  0  0
  6 11  2  0  0  0  0
  8  9  1  0  0  0  0
  9 10  1  0  0  0  0
  9 13  1  1  0  0  0
 10 12  1  0  0  0  0
 11 12  1  0  0  0  0
M  END
>  <CHROM.1>
10.20978675,43.34631561,68.76345511,0.35908570,0.61327636,0.82720929

>  <Name>
ligand

>  <RI>
0

>  <Rbt.Current_Directory>
/home/itssahil/PROJECTS/Mol_Feturizer/New_Systems/rnas/3SUX

>  <Rbt.Executable>
rbdock ($Id: //depot/dev/client3/rdock/2013.1/src/exe/rbdock.cxx#4 $)

>  <Rbt.Library>
libRbt.so (2013.1, Build901 2013/11/27)

>  <Rbt.Parameter_File>
/export/apps/rDock/src/rDock_2013.1_src/data/scripts/dock_solv.prm

>  <Rbt.Receptor>
prm/pocket_docking_4.prm

>  <SCORE>
-7.03871

>  <SCORE.INTER>
-7.03871

>  <SCORE.INTER.CONST>
1

>  <SCORE.INTER.POLAR>
0

>  <SCORE.INTER.ROT>
0

>  <SCORE.INTER.SOLV>
11.1182

>  <SCORE.INTER.VDW>
-11.9986

>  <SCORE.INTER.norm>
-0.541439

>  <SCORE.INTRA>
0

>  <SCORE.INTRA.DIHEDRAL>
0

>  <SCORE.INTRA.DIHEDRAL.0>
0

>  <SCORE.INTRA.POLAR>
0

>  <SCORE.INTRA.POLAR.0>
0

>  <SCORE.INTRA.REPUL>
0

>  <SCORE.INTRA.REPUL.0>
0

>  <SCORE.INTRA.SOLV>
0

>  <SCORE.INTRA.SOLV.lig_0>
-48.6608

>  <SCORE.INTRA.VDW>
0

>  <SCORE.INTRA.VDW.0>
0

>  <SCORE.INTRA.norm>
0

>  <SCORE.RESTR>
0

>  <SCORE.RESTR.CAVITY>
0

>  <SCORE.RESTR.norm>
0

>  <SCORE.SYSTEM>
0

>  <SCORE.SYSTEM.CONST>
0

>  <SCORE.SYSTEM.DIHEDRAL>
0

>  <SCORE.SYSTEM.SOLV>
0

>  <SCORE.SYSTEM.norm>
0

>  <SCORE.heavy>
13

>  <SCORE.norm>
-0.541439

>  <RMSD>
2.880

$$$$
ligand
 OpenBabel11021811483D
libRbt.so/2013.1/901 2013/11/27
 13 14  0  0  0  0  0  0  0  0999 V2000
   12.7626   45.9917   69.4799 N   0  0  0  0  0  0  0  0  0  0  0  0
   10.8309   44.7587   69.8291 N   0  0  0  0  0  0  0  0  0  0  0  0
   11.9194   45.0402   69.0895 C   0  0  0  0  0  0  0  0  0  0  0  0
   12.1656   44.3487   67.9041 N   0  0  0  0  0  0  0  0  0  0  0  0
   11.2657   43.3546   67.5145 C   0  0  0  0  0  0  0  0  0  0  0  0
   10.1559   43.0730   68.3046 C   0  0  0  0  0  0  0  0  0  0  0  0
   11.4524   42.7325   66.4694 O   0  0  0  0  0  0  0  0  0  0  0  0
    9.2267   42.1002   67.8895 N   0  0  0  0  0  0  0  0  0  0  0  0
    8.0477   41.7181   68.7174 C   0  0  2  0  0  0  0  0  0  0  0  0
    7.6266   42.9184   69.5822 C   0  0  0  0  0  0  0  0  0  0  0  0
    9.9499   43.8108   69.4616 C   0  0  0  0  0  0  0  0  0  0  0  0
    8.8207   43.5464   70.2460 N   0  0  0  0  0  0  0  0  0  0  0  0
    8.4496   40.5227   69.6322 C   0  0  0  0  0  0  0  0  0  0  0  0
  1  3  1  0  0  0  0
  2  3  2  0  0  0  0
  2 11  1  0  0  0  0
  3  4  1  0  0  0  0
  4  5  1  0  0  0  0
  5  6  1  0  0  0  0
  5  7  2  0  0  0  0
  6  8  1  0  0  0  0
  6 11  2  0  0  0  0
  8  9  1  0  0  0  0
  9 10  1  0  0  0  0
  9 13  1  1  0  0  0
 10 12  1  0  0  0  0
 11 12  1  0  0  0  0
M  END
>  <CHROM.1>
10.19336620,43.34343864,68.76617229,0.34133112,0.61208445,0.84449812

>  <Name>
ligand

>  <RI>
0

>  <Rbt.Current_Directory>
/home/itssahil/PROJECTS/Mol_Feturizer/New_Systems/rnas/3SUX

>  <Rbt.Executable>
rbdock ($Id: //depot/dev/client3/rdock/2013.1/src/exe/rbdock.cxx#4 $)

>  <Rbt.Library>
libRbt.so (2013.1, Build901 2013/11/27)

>  <Rbt.Parameter_File>
/export/apps/rDock/src/rDock_2013.1_src/data/scripts/dock_solv.prm

>  <Rbt.Receptor>
prm/pocket_docking_3.prm

>  <SCORE>
-7.04133

>  <SCORE.INTER>
-7.04133

>  <SCORE.INTER.CONST>
1

>  <SCORE.INTER.POLAR>
0

>  <SCORE.INTER.ROT>
0

>  <SCORE.INTER.SOLV>
11.2162

>  <SCORE.INTER.VDW>
-12.0329

>  <SCORE.INTER.norm>
-0.541641

>  <SCORE.INTRA>
0

>  <SCORE.INTRA.DIHEDRAL>
0

>  <SCORE.INTRA.DIHEDRAL.0>
0

>  <SCORE.INTRA.POLAR>
0

>  <SCORE.INTRA.POLAR.0>
0

>  <SCORE.INTRA.REPUL>
0

>  <SCORE.INTRA.REPUL.0>
0

>  <SCORE.INTRA.SOLV>
0

>  <SCORE.INTRA.SOLV.lig_0>
-48.6608

>  <SCORE.INTRA.VDW>
0

>  <SCORE.INTRA.VDW.0>
0

>  <SCORE.INTRA.norm>
0

>  <SCORE.RESTR>
0

>  <SCORE.RESTR.CAVITY>
0

>  <SCORE.RESTR.norm>
0

>  <SCORE.SYSTEM>
0

>  <SCORE.SYSTEM.CONST>
0

>  <SCORE.SYSTEM.DIHEDRAL>
0

>  <SCORE.SYSTEM.SOLV>
0

>  <SCORE.SYSTEM.norm>
0

>  <SCORE.heavy>
13

>  <SCORE.norm>
-0.541641

>  <RMSD>
2.883

$$$$
ligand
 OpenBabel11021811483D
libRbt.so/2013.1/901 2013/11/27
 13 14  0  0  0  0  0  0  0  0999 V2000
   12.7234   46.0338   69.4671 N   0  0  0  0  0  0  0  0  0  0  0  0
   10.8022   44.7863   69.8228 N   0  0  0  0  0  0  0  0  0  0  0  0
   11.8866   45.0755   69.0799 C   0  0  0  0  0  0  0  0  0  0  0  0
   12.1350   44.3845   67.8946 N   0  0  0  0  0  0  0  0  0  0  0  0
   11.2417   43.3831   67.5085 C   0  0  0  0  0  0  0  0  0  0  0  0
   10.1363   43.0938   68.3019 C   0  0  0  0  0  0  0  0  0  0  0  0
   11.4304   42.7612   66.4636 O   0  0  0  0  0  0  0  0  0  0  0  0
    9.2135   42.1134   67.8903 N   0  0  0  0  0  0  0  0  0  0  0  0
    8.0397   41.7231   68.7218 C   0  0  2  0  0  0  0  0  0  0  0  0
    7.6117   42.9211   69.5864 C   0  0  0  0  0  0  0  0  0  0  0  0
    9.9276   43.8313   69.4587 C   0  0  0  0  0  0  0  0  0  0  0  0
    8.8026   43.5590   70.2463 N   0  0  0  0  0  0  0  0  0  0  0  0
    8.4533   40.5318   69.6368 C   0  0  0  0  0  0  0  0  0  0  0  0
  1  3  1  0  0  0  0
  2  3  2  0  0  0  0
  2 11  1  0  0  0  0
  3  4  1  0  0  0  0
  4  5  1  0  0  0  0
  5  6  1  0  0  0  0
  5  7  2  0  0  0  0
  6  8  1  0  0  0  0
  6 11  2  0  0  0  0
  8  9  1  0  0  0  0
  9 10  1  0  0  0  0
  9 13  1  1  0  0  0
 10 12  1  0  0  0  0
 11 12  1  0  0  0  0
M  END
>  <CHROM.1>
10.17285232,43.36502136,68.76306194,0.34519910,0.61962533,0.84116003

>  <Name>
ligand

>  <RI>
0

>  <Rbt.Current_Directory>
/home/itssahil/PROJECTS/Mol_Feturizer/New_Systems/rnas/3SUX

>  <Rbt.Executable>
rbdock ($Id: //depot/dev/client3/rdock/2013.1/src/exe/rbdock.cxx#4 $)

>  <Rbt.Library>
libRbt.so (2013.1, Build901 2013/11/27)

>  <Rbt.Parameter_File>
/export/apps/rDock/src/rDock_2013.1_src/data/scripts/dock_solv.prm

>  <Rbt.Receptor>
prm/pocket_docking_3.prm

>  <SCORE>
-7.04745

>  <SCORE.INTER>
-7.04745

>  <SCORE.INTER.CONST>
1

>  <SCORE.INTER.POLAR>
0

>  <SCORE.INTER.ROT>
0

>  <SCORE.INTER.SOLV>
11.2377

>  <SCORE.INTER.VDW>
-12.0442

>  <SCORE.INTER.norm>
-0.542111

>  <SCORE.INTRA>
0

>  <SCORE.INTRA.DIHEDRAL>
0

>  <SCORE.INTRA.DIHEDRAL.0>
0

>  <SCORE.INTRA.POLAR>
0

>  <SCORE.INTRA.POLAR.0>
0

>  <SCORE.INTRA.REPUL>
0

>  <SCORE.INTRA.REPUL.0>
0

>  <SCORE.INTRA.SOLV>
0

>  <SCORE.INTRA.SOLV.lig_0>
-48.6608

>  <SCORE.INTRA.VDW>
0

>  <SCORE.INTRA.VDW.0>
0

>  <SCORE.INTRA.norm>
0

>  <SCORE.RESTR>
0

>  <SCORE.RESTR.CAVITY>
0

>  <SCORE.RESTR.norm>
0

>  <SCORE.SYSTEM>
0

>  <SCORE.SYSTEM.CONST>
0

>  <SCORE.SYSTEM.DIHEDRAL>
0

>  <SCORE.SYSTEM.SOLV>
0

>  <SCORE.SYSTEM.norm>
0

>  <SCORE.heavy>
13

>  <SCORE.norm>
-0.542111

>  <RMSD>
2.889

$$$$
ligand
 OpenBabel11021811483D
libRbt.so/2013.1/901 2013/11/27
 13 14  0  0  0  0  0  0  0  0999 V2000
   13.0017   45.5985   69.4376 N   0  0  0  0  0  0  0  0  0  0  0  0
   10.9718   44.5641   69.8655 N   0  0  0  0  0  0  0  0  0  0  0  0
   12.0406   44.7559   69.0704 C   0  0  0  0  0  0  0  0  0  0  0  0
   12.1436   44.0854   67.8522 N   0  0  0  0  0  0  0  0  0  0  0  0
   11.1216   43.2065   67.4880 C   0  0  0  0  0  0  0  0  0  0  0  0
   10.0346   43.0151   68.3347 C   0  0  0  0  0  0  0  0  0  0  0  0
   11.1808   42.6062   66.4155 O   0  0  0  0  0  0  0  0  0  0  0  0
    8.9843   42.1612   67.9475 N   0  0  0  0  0  0  0  0  0  0  0  0
    7.8199   41.8759   68.8331 C   0  0  2  0  0  0  0  0  0  0  0  0
    7.5798   43.0819   69.7571 C   0  0  0  0  0  0  0  0  0  0  0  0
    9.9748   43.7282   69.5236 C   0  0  0  0  0  0  0  0  0  0  0  0
    8.8700   43.5562   70.3662 N   0  0  0  0  0  0  0  0  0  0  0  0
    8.1425   40.6125   69.6860 C   0  0  0  0  0  0  0  0  0  0  0  0
  1  3  1  0  0  0  0
  2  3  2  0  0  0  0
  2 11  1  0  0  0  0
  3  4  1  0  0  0  0
  4  5  1  0  0  0  0
  5  6  1  0  0  0  0
  5  7  2  0  0  0  0
  6  8  1  0  0  0  0
  6 11  2  0  0  0  0
  8  9  1  0  0  0  0
  9 10  1  0  0  0  0
  9 13  1  1  0  0  0
 10 12  1  0  0  0  0
 11 12  1  0  0  0  0
M  END
>  <CHROM.1>
10.12690086,43.26319586,68.80111090,0.20636874,0.56507526,0.95259727

>  <Name>
ligand

>  <RI>
0

>  <Rbt.Current_Directory>
/home/itssahil/PROJECTS/Mol_Feturizer/New_Systems/rnas/3SUX

>  <Rbt.Executable>
rbdock ($Id: //depot/dev/client3/rdock/2013.1/src/exe/rbdock.cxx#4 $)

>  <Rbt.Library>
libRbt.so (2013.1, Build901 2013/11/27)

>  <Rbt.Parameter_File>
/export/apps/rDock/src/rDock_2013.1_src/data/scripts/dock_solv.prm

>  <Rbt.Receptor>
prm/pocket_docking_2.prm

>  <SCORE>
-6.35568

>  <SCORE.INTER>
-6.35573

>  <SCORE.INTER.CONST>
1

>  <SCORE.INTER.POLAR>
0

>  <SCORE.INTER.ROT>
0

>  <SCORE.INTER.SOLV>
11.8491

>  <SCORE.INTER.VDW>
-11.7868

>  <SCORE.INTER.norm>
-0.488902

>  <SCORE.INTRA>
0

>  <SCORE.INTRA.DIHEDRAL>
0

>  <SCORE.INTRA.DIHEDRAL.0>
0

>  <SCORE.INTRA.POLAR>
0

>  <SCORE.INTRA.POLAR.0>
0

>  <SCORE.INTRA.REPUL>
0

>  <SCORE.INTRA.REPUL.0>
0

>  <SCORE.INTRA.SOLV>
0

>  <SCORE.INTRA.SOLV.lig_0>
-48.6608

>  <SCORE.INTRA.VDW>
0

>  <SCORE.INTRA.VDW.0>
0

>  <SCORE.INTRA.norm>
0

>  <SCORE.RESTR>
4.76816e-05

>  <SCORE.RESTR.CAVITY>
4.76816e-05

>  <SCORE.RESTR.norm>
3.66782e-06

>  <SCORE.SYSTEM>
0

>  <SCORE.SYSTEM.CONST>
0

>  <SCORE.SYSTEM.DIHEDRAL>
0

>  <SCORE.SYSTEM.SOLV>
0

>  <SCORE.SYSTEM.norm>
0

>  <SCORE.heavy>
13

>  <SCORE.norm>
-0.488899

>  <RMSD>
2.890

$$$$
ligand
 OpenBabel11021811483D
libRbt.so/2013.1/901 2013/11/27
 13 14  0  0  0  0  0  0  0  0999 V2000
   12.9999   45.5999   69.4389 N   0  0  0  0  0  0  0  0  0  0  0  0
   10.9687   44.5680   69.8670 N   0  0  0  0  0  0  0  0  0  0  0  0
   12.0391   44.7562   69.0732 C   0  0  0  0  0  0  0  0  0  0  0  0
   12.1441   44.0809   67.8580 N   0  0  0  0  0  0  0  0  0  0  0  0
   11.1225   43.2009   67.4953 C   0  0  0  0  0  0  0  0  0  0  0  0
   10.0338   43.0133   68.3406 C   0  0  0  0  0  0  0  0  0  0  0  0
   11.1836   42.5964   66.4253 O   0  0  0  0  0  0  0  0  0  0  0  0
    8.9839   42.1583   67.9548 N   0  0  0  0  0  0  0  0  0  0  0  0
    7.8177   41.8769   68.8393 C   0  0  2  0  0  0  0  0  0  0  0  0
    7.5763   43.0867   69.7581 C   0  0  0  0  0  0  0  0  0  0  0  0
    9.9720   43.7312   69.5266 C   0  0  0  0  0  0  0  0  0  0  0  0
    8.8656   43.5629   70.3678 N   0  0  0  0  0  0  0  0  0  0  0  0
    8.1381   40.6168   69.6977 C   0  0  0  0  0  0  0  0  0  0  0  0
  1  3  1  0  0  0  0
  2  3  2  0  0  0  0
  2 11  1  0  0  0  0
  3  4  1  0  0  0  0
  4  5  1  0  0  0  0
  5  6  1  0  0  0  0
  5  7  2  0  0  0  0
  6  8  1  0  0  0  0
  6 11  2  0  0  0  0
  8  9  1  0  0  0  0
  9 10  1  0  0  0  0
  9 13  1  1  0  0  0
 10 12  1  0  0  0  0
 11 12  1  0  0  0  0
M  END
>  <CHROM.1>
10.12533297,43.26320911,68.80620364,0.20792846,0.56363635,0.94781205

>  <Name>
ligand

>  <RI>
0

>  <Rbt.Current_Directory>
/home/itssahil/PROJECTS/Mol_Feturizer/New_Systems/rnas/3SUX

>  <Rbt.Executable>
rbdock ($Id: //depot/dev/client3/rdock/2013.1/src/exe/rbdock.cxx#4 $)

>  <Rbt.Library>
libRbt.so (2013.1, Build901 2013/11/27)

>  <Rbt.Parameter_File>
/export/apps/rDock/src/rDock_2013.1_src/data/scripts/dock_solv.prm

>  <Rbt.Receptor>
prm/pocket_docking_2.prm

>  <SCORE>
-6.35911

>  <SCORE.INTER>
-6.35911

>  <SCORE.INTER.CONST>
1

>  <SCORE.INTER.POLAR>
0

>  <SCORE.INTER.ROT>
0

>  <SCORE.INTER.SOLV>
11.8085

>  <SCORE.INTER.VDW>
-11.7756

>  <SCORE.INTER.norm>
-0.489162

>  <SCORE.INTRA>
0

>  <SCORE.INTRA.DIHEDRAL>
0

>  <SCORE.INTRA.DIHEDRAL.0>
0

>  <SCORE.INTRA.POLAR>
0

>  <SCORE.INTRA.POLAR.0>
0

>  <SCORE.INTRA.REPUL>
0

>  <SCORE.INTRA.REPUL.0>
0

>  <SCORE.INTRA.SOLV>
0

>  <SCORE.INTRA.SOLV.lig_0>
-48.6608

>  <SCORE.INTRA.VDW>
0

>  <SCORE.INTRA.VDW.0>
0

>  <SCORE.INTRA.norm>
0

>  <SCORE.RESTR>
0

>  <SCORE.RESTR.CAVITY>
0

>  <SCORE.RESTR.norm>
0

>  <SCORE.SYSTEM>
0

>  <SCORE.SYSTEM.CONST>
0

>  <SCORE.SYSTEM.DIHEDRAL>
0

>  <SCORE.SYSTEM.SOLV>
0

>  <SCORE.SYSTEM.norm>
0

>  <SCORE.heavy>
13

>  <SCORE.norm>
-0.489162

>  <RMSD>
2.891

$$$$
ligand
 OpenBabel11021811483D
libRbt.so/2013.1/901 2013/11/27
 13 14  0  0  0  0  0  0  0  0999 V2000
   12.7233   46.0346   69.4645 N   0  0  0  0  0  0  0  0  0  0  0  0
   10.8082   44.7798   69.8272 N   0  0  0  0  0  0  0  0  0  0  0  0
   11.8852   45.0775   69.0770 C   0  0  0  0  0  0  0  0  0  0  0  0
   12.1244   44.3969   67.8839 N   0  0  0  0  0  0  0  0  0  0  0  0
   11.2300   43.3967   67.4976 C   0  0  0  0  0  0  0  0  0  0  0  0
   10.1324   43.0983   68.2984 C   0  0  0  0  0  0  0  0  0  0  0  0
   11.4106   42.7839   66.4460 O   0  0  0  0  0  0  0  0  0  0  0  0
    9.2081   42.1192   67.8871 N   0  0  0  0  0  0  0  0  0  0  0  0
    8.0427   41.7194   68.7259 C   0  0  2  0  0  0  0  0  0  0  0  0
    7.6198   42.9092   69.6041 C   0  0  0  0  0  0  0  0  0  0  0  0
    9.9325   43.8258   69.4631 C   0  0  0  0  0  0  0  0  0  0  0  0
    8.8152   43.5445   70.2585 N   0  0  0  0  0  0  0  0  0  0  0  0
    8.4672   40.5216   69.6273 C   0  0  0  0  0  0  0  0  0  0  0  0
  1  3  1  0  0  0  0
  2  3  2  0  0  0  0
  2 11  1  0  0  0  0
  3  4  1  0  0  0  0
  4  5  1  0  0  0  0
  5  6  1  0  0  0  0
  5  7  2  0  0  0  0
  6  8  1  0  0  0  0
  6 11  2  0  0  0  0
  8  9  1  0  0  0  0
  9 10  1  0  0  0  0
  9 13  1  1  0  0  0
 10 12  1  0  0  0  0
 11 12  1  0  0  0  0
M  END
>  <CHROM.1>
10.17248620,43.36581733,68.76151297,0.33872879,0.62728296,0.85317593

>  <Name>
ligand

>  <RI>
0

>  <Rbt.Current_Directory>
/home/itssahil/PROJECTS/Mol_Feturizer/New_Systems/rnas/3SUX

>  <Rbt.Executable>
rbdock ($Id: //depot/dev/client3/rdock/2013.1/src/exe/rbdock.cxx#4 $)

>  <Rbt.Library>
libRbt.so (2013.1, Build901 2013/11/27)

>  <Rbt.Parameter_File>
/export/apps/rDock/src/rDock_2013.1_src/data/scripts/dock_solv.prm

>  <Rbt.Receptor>
prm/pocket_docking_4.prm

>  <SCORE>
-7.07549

>  <SCORE.INTER>
-7.07549

>  <SCORE.INTER.CONST>
1

>  <SCORE.INTER.POLAR>
0

>  <SCORE.INTER.ROT>
0

>  <SCORE.INTER.SOLV>
11.2525

>  <SCORE.INTER.VDW>
-12.0678

>  <SCORE.INTER.norm>
-0.544269

>  <SCORE.INTRA>
0

>  <SCORE.INTRA.DIHEDRAL>
0

>  <SCORE.INTRA.DIHEDRAL.0>
0

>  <SCORE.INTRA.POLAR>
0

>  <SCORE.INTRA.POLAR.0>
0

>  <SCORE.INTRA.REPUL>
0

>  <SCORE.INTRA.REPUL.0>
0

>  <SCORE.INTRA.SOLV>
0

>  <SCORE.INTRA.SOLV.lig_0>
-48.6608

>  <SCORE.INTRA.VDW>
0

>  <SCORE.INTRA.VDW.0>
0

>  <SCORE.INTRA.norm>
0

>  <SCORE.RESTR>
0

>  <SCORE.RESTR.CAVITY>
0

>  <SCORE.RESTR.norm>
0

>  <SCORE.SYSTEM>
0

>  <SCORE.SYSTEM.CONST>
0

>  <SCORE.SYSTEM.DIHEDRAL>
0

>  <SCORE.SYSTEM.SOLV>
0

>  <SCORE.SYSTEM.norm>
0

>  <SCORE.heavy>
13

>  <SCORE.norm>
-0.544269

>  <RMSD>
2.891

$$$$
ligand
 OpenBabel11021811483D
libRbt.so/2013.1/901 2013/11/27
 13 14  0  0  0  0  0  0  0  0999 V2000
   12.7309   46.0226   69.4636 N   0  0  0  0  0  0  0  0  0  0  0  0
   10.8132   44.7728   69.8297 N   0  0  0  0  0  0  0  0  0  0  0  0
   11.8886   45.0689   69.0767 C   0  0  0  0  0  0  0  0  0  0  0  0
   12.1218   44.3903   67.8813 N   0  0  0  0  0  0  0  0  0  0  0  0
   11.2230   43.3937   67.4957 C   0  0  0  0  0  0  0  0  0  0  0  0
   10.1271   43.0969   68.2995 C   0  0  0  0  0  0  0  0  0  0  0  0
   11.3984   42.7826   66.4421 O   0  0  0  0  0  0  0  0  0  0  0  0
    9.1985   42.1216   67.8890 N   0  0  0  0  0  0  0  0  0  0  0  0
    8.0346   41.7235   68.7307 C   0  0  2  0  0  0  0  0  0  0  0  0
    7.6183   42.9127   69.6129 C   0  0  0  0  0  0  0  0  0  0  0  0
    9.9333   43.8224   69.4664 C   0  0  0  0  0  0  0  0  0  0  0  0
    8.8178   43.5427   70.2648 N   0  0  0  0  0  0  0  0  0  0  0  0
    8.4583   40.5223   69.6280 C   0  0  0  0  0  0  0  0  0  0  0  0
  1  3  1  0  0  0  0
  2  3  2  0  0  0  0
  2 11  1  0  0  0  0
  3  4  1  0  0  0  0
  4  5  1  0  0  0  0
  5  6  1  0  0  0  0
  5  7  2  0  0  0  0
  6  8  1  0  0  0  0
  6 11  2  0  0  0  0
  8  9  1  0  0  0  0
  9 10  1  0  0  0  0
  9 13  1  1  0  0  0
 10 12  1  0  0  0  0
 11 12  1  0  0  0  0
M  END
>  <CHROM.1>
10.16958945,43.36323417,68.76299102,0.33318316,0.62709137,0.85865389

>  <Name>
ligand

>  <RI>
0

>  <Rbt.Current_Directory>
/home/itssahil/PROJECTS/Mol_Feturizer/New_Systems/rnas/3SUX

>  <Rbt.Executable>
rbdock ($Id: //depot/dev/client3/rdock/2013.1/src/exe/rbdock.cxx#4 $)

>  <Rbt.Library>
libRbt.so (2013.1, Build901 2013/11/27)

>  <Rbt.Parameter_File>
/export/apps/rDock/src/rDock_2013.1_src/data/scripts/dock_solv.prm

>  <Rbt.Receptor>
prm/pocket_docking_4.prm

>  <SCORE>
-7.07656

>  <SCORE.INTER>
-7.07656

>  <SCORE.INTER.CONST>
1

>  <SCORE.INTER.POLAR>
0

>  <SCORE.INTER.ROT>
0

>  <SCORE.INTER.SOLV>
11.2638

>  <SCORE.INTER.VDW>
-12.0723

>  <SCORE.INTER.norm>
-0.544351

>  <SCORE.INTRA>
0

>  <SCORE.INTRA.DIHEDRAL>
0

>  <SCORE.INTRA.DIHEDRAL.0>
0

>  <SCORE.INTRA.POLAR>
0

>  <SCORE.INTRA.POLAR.0>
0

>  <SCORE.INTRA.REPUL>
0

>  <SCORE.INTRA.REPUL.0>
0

>  <SCORE.INTRA.SOLV>
0

>  <SCORE.INTRA.SOLV.lig_0>
-48.6608

>  <SCORE.INTRA.VDW>
0

>  <SCORE.INTRA.VDW.0>
0

>  <SCORE.INTRA.norm>
0

>  <SCORE.RESTR>
0

>  <SCORE.RESTR.CAVITY>
0

>  <SCORE.RESTR.norm>
0

>  <SCORE.SYSTEM>
0

>  <SCORE.SYSTEM.CONST>
0

>  <SCORE.SYSTEM.DIHEDRAL>
0

>  <SCORE.SYSTEM.SOLV>
0

>  <SCORE.SYSTEM.norm>
0

>  <SCORE.heavy>
13

>  <SCORE.norm>
-0.544351

>  <RMSD>
2.891

$$$$
ligand
 OpenBabel11021811483D
libRbt.so/2013.1/901 2013/11/27
 13 14  0  0  0  0  0  0  0  0999 V2000
   12.7312   46.0202   69.4646 N   0  0  0  0  0  0  0  0  0  0  0  0
   10.8096   44.7753   69.8269 N   0  0  0  0  0  0  0  0  0  0  0  0
   11.8877   45.0680   69.0765 C   0  0  0  0  0  0  0  0  0  0  0  0
   12.1227   44.3874   67.8826 N   0  0  0  0  0  0  0  0  0  0  0  0
   11.2227   43.3924   67.4957 C   0  0  0  0  0  0  0  0  0  0  0  0
   10.1240   43.0991   68.2968 C   0  0  0  0  0  0  0  0  0  0  0  0
   11.3996   42.7797   66.4433 O   0  0  0  0  0  0  0  0  0  0  0  0
    9.1943   42.1253   67.8849 N   0  0  0  0  0  0  0  0  0  0  0  0
    8.0271   41.7309   68.7238 C   0  0  2  0  0  0  0  0  0  0  0  0
    7.6111   42.9221   69.6035 C   0  0  0  0  0  0  0  0  0  0  0  0
    9.9286   43.8263   69.4623 C   0  0  0  0  0  0  0  0  0  0  0  0
    8.8102   43.5502   70.2580 N   0  0  0  0  0  0  0  0  0  0  0  0
    8.4457   40.5299   69.6238 C   0  0  0  0  0  0  0  0  0  0  0  0
  1  3  1  0  0  0  0
  2  3  2  0  0  0  0
  2 11  1  0  0  0  0
  3  4  1  0  0  0  0
  4  5  1  0  0  0  0
  5  6  1  0  0  0  0
  5  7  2  0  0  0  0
  6  8  1  0  0  0  0
  6 11  2  0  0  0  0
  8  9  1  0  0  0  0
  9 10  1  0  0  0  0
  9 13  1  1  0  0  0
 10 12  1  0  0  0  0
 11 12  1  0  0  0  0
M  END
>  <CHROM.1>
10.16574570,43.36584476,68.76010885,0.33393685,0.62357628,0.85701992

>  <Name>
ligand

>  <RI>
0

>  <Rbt.Current_Directory>
/home/itssahil/PROJECTS/Mol_Feturizer/New_Systems/rnas/3SUX

>  <Rbt.Executable>
rbdock ($Id: //depot/dev/client3/rdock/2013.1/src/exe/rbdock.cxx#4 $)

>  <Rbt.Library>
libRbt.so (2013.1, Build901 2013/11/27)

>  <Rbt.Parameter_File>
/export/apps/rDock/src/rDock_2013.1_src/data/scripts/dock_solv.prm

>  <Rbt.Receptor>
prm/pocket_docking_4.prm

>  <SCORE>
-7.07602

>  <SCORE.INTER>
-7.07602

>  <SCORE.INTER.CONST>
1

>  <SCORE.INTER.POLAR>
0

>  <SCORE.INTER.ROT>
0

>  <SCORE.INTER.SOLV>
11.3015

>  <SCORE.INTER.VDW>
-12.0845

>  <SCORE.INTER.norm>
-0.544309

>  <SCORE.INTRA>
0

>  <SCORE.INTRA.DIHEDRAL>
0

>  <SCORE.INTRA.DIHEDRAL.0>
0

>  <SCORE.INTRA.POLAR>
0

>  <SCORE.INTRA.POLAR.0>
0

>  <SCORE.INTRA.REPUL>
0

>  <SCORE.INTRA.REPUL.0>
0

>  <SCORE.INTRA.SOLV>
0

>  <SCORE.INTRA.SOLV.lig_0>
-48.6608

>  <SCORE.INTRA.VDW>
0

>  <SCORE.INTRA.VDW.0>
0

>  <SCORE.INTRA.norm>
0

>  <SCORE.RESTR>
0

>  <SCORE.RESTR.CAVITY>
0

>  <SCORE.RESTR.norm>
0

>  <SCORE.SYSTEM>
0

>  <SCORE.SYSTEM.CONST>
0

>  <SCORE.SYSTEM.DIHEDRAL>
0

>  <SCORE.SYSTEM.SOLV>
0

>  <SCORE.SYSTEM.norm>
0

>  <SCORE.heavy>
13

>  <SCORE.norm>
-0.544309

>  <RMSD>
2.892

$$$$
ligand
 OpenBabel11021811483D
libRbt.so/2013.1/901 2013/11/27
 13 14  0  0  0  0  0  0  0  0999 V2000
   12.7821   46.0411   69.5106 N   0  0  0  0  0  0  0  0  0  0  0  0
   10.8401   44.8165   69.8309 N   0  0  0  0  0  0  0  0  0  0  0  0
   11.9417   45.0920   69.1086 C   0  0  0  0  0  0  0  0  0  0  0  0
   12.2047   44.3965   67.9291 N   0  0  0  0  0  0  0  0  0  0  0  0
   11.3074   43.4051   67.5271 C   0  0  0  0  0  0  0  0  0  0  0  0
   10.1837   43.1298   68.2995 C   0  0  0  0  0  0  0  0  0  0  0  0
   11.5088   42.7796   66.4868 O   0  0  0  0  0  0  0  0  0  0  0  0
    9.2576   42.1596   67.8715 N   0  0  0  0  0  0  0  0  0  0  0  0
    8.0636   41.7841   68.6807 C   0  0  2  0  0  0  0  0  0  0  0  0
    7.6331   42.9882   69.5356 C   0  0  0  0  0  0  0  0  0  0  0  0
    9.9615   43.8712   69.4512 C   0  0  0  0  0  0  0  0  0  0  0  0
    8.8185   43.6132   70.2174 N   0  0  0  0  0  0  0  0  0  0  0  0
    8.4457   40.5894   69.6049 C   0  0  0  0  0  0  0  0  0  0  0  0
  1  3  1  0  0  0  0
  2  3  2  0  0  0  0
  2 11  1  0  0  0  0
  3  4  1  0  0  0  0
  4  5  1  0  0  0  0
  5  6  1  0  0  0  0
  5  7  2  0  0  0  0
  6  8  1  0  0  0  0
  6 11  2  0  0  0  0
  8  9  1  0  0  0  0
  9 10  1  0  0  0  0
  9 13  1  1  0  0  0
 10 12  1  0  0  0  0
 11 12  1  0  0  0  0
M  END
>  <CHROM.1>
10.21456808,43.40116211,68.76096208,0.35307499,0.59815919,0.83537073

>  <Name>
ligand

>  <RI>
0

>  <Rbt.Current_Directory>
/home/itssahil/PROJECTS/Mol_Feturizer/New_Systems/rnas/3SUX

>  <Rbt.Executable>
rbdock ($Id: //depot/dev/client3/rdock/2013.1/src/exe/rbdock.cxx#4 $)

>  <Rbt.Library>
libRbt.so (2013.1, Build901 2013/11/27)

>  <Rbt.Parameter_File>
/export/apps/rDock/src/rDock_2013.1_src/data/scripts/dock_solv.prm

>  <Rbt.Receptor>
prm/pocket_docking_6.prm

>  <SCORE>
-7.02401

>  <SCORE.INTER>
-7.02401

>  <SCORE.INTER.CONST>
1

>  <SCORE.INTER.POLAR>
0

>  <SCORE.INTER.ROT>
0

>  <SCORE.INTER.SOLV>
11.3288

>  <SCORE.INTER.VDW>
-12.0589

>  <SCORE.INTER.norm>
-0.540308

>  <SCORE.INTRA>
0

>  <SCORE.INTRA.DIHEDRAL>
0

>  <SCORE.INTRA.DIHEDRAL.0>
0

>  <SCORE.INTRA.POLAR>
0

>  <SCORE.INTRA.POLAR.0>
0

>  <SCORE.INTRA.REPUL>
0

>  <SCORE.INTRA.REPUL.0>
0

>  <SCORE.INTRA.SOLV>
0

>  <SCORE.INTRA.SOLV.lig_0>
-48.6608

>  <SCORE.INTRA.VDW>
0

>  <SCORE.INTRA.VDW.0>
0

>  <SCORE.INTRA.norm>
0

>  <SCORE.RESTR>
0

>  <SCORE.RESTR.CAVITY>
0

>  <SCORE.RESTR.norm>
0

>  <SCORE.SYSTEM>
0

>  <SCORE.SYSTEM.CONST>
0

>  <SCORE.SYSTEM.DIHEDRAL>
0

>  <SCORE.SYSTEM.SOLV>
0

>  <SCORE.SYSTEM.norm>
0

>  <SCORE.heavy>
13

>  <SCORE.norm>
-0.540308

>  <RMSD>
2.892

$$$$
ligand
 OpenBabel11021811483D
libRbt.so/2013.1/901 2013/11/27
 13 14  0  0  0  0  0  0  0  0999 V2000
   12.7309   46.0251   69.4700 N   0  0  0  0  0  0  0  0  0  0  0  0
   10.8143   44.7719   69.8304 N   0  0  0  0  0  0  0  0  0  0  0  0
   11.8892   45.0728   69.0785 C   0  0  0  0  0  0  0  0  0  0  0  0
   12.1225   44.4005   67.8795 N   0  0  0  0  0  0  0  0  0  0  0  0
   11.2244   43.4052   67.4890 C   0  0  0  0  0  0  0  0  0  0  0  0
   10.1291   43.1034   68.2917 C   0  0  0  0  0  0  0  0  0  0  0  0
   11.3998   42.7998   66.4322 O   0  0  0  0  0  0  0  0  0  0  0  0
    9.2011   42.1294   67.8765 N   0  0  0  0  0  0  0  0  0  0  0  0
    8.0378   41.7260   68.7166 C   0  0  2  0  0  0  0  0  0  0  0  0
    7.6209   42.9102   69.6052 C   0  0  0  0  0  0  0  0  0  0  0  0
    9.9351   43.8226   69.4624 C   0  0  0  0  0  0  0  0  0  0  0  0
    8.8201   43.5379   70.2599 N   0  0  0  0  0  0  0  0  0  0  0  0
    8.4629   40.5206   69.6074 C   0  0  0  0  0  0  0  0  0  0  0  0
  1  3  1  0  0  0  0
  2  3  2  0  0  0  0
  2 11  1  0  0  0  0
  3  4  1  0  0  0  0
  4  5  1  0  0  0  0
  5  6  1  0  0  0  0
  5  7  2  0  0  0  0
  6  8  1  0  0  0  0
  6 11  2  0  0  0  0
  8  9  1  0  0  0  0
  9 10  1  0  0  0  0
  9 13  1  1  0  0  0
 10 12  1  0  0  0  0
 11 12  1  0  0  0  0
M  END
>  <CHROM.1>
10.17147410,43.36731554,68.75656861,0.33347036,0.62797510,0.86369406

>  <Name>
ligand

>  <RI>
0

>  <Rbt.Current_Directory>
/home/itssahil/PROJECTS/Mol_Feturizer/New_Systems/rnas/3SUX

>  <Rbt.Executable>
rbdock ($Id: //depot/dev/client3/rdock/2013.1/src/exe/rbdock.cxx#4 $)

>  <Rbt.Library>
libRbt.so (2013.1, Build901 2013/11/27)

>  <Rbt.Parameter_File>
/export/apps/rDock/src/rDock_2013.1_src/data/scripts/dock_solv.prm

>  <Rbt.Receptor>
prm/pocket_docking_3.prm

>  <SCORE>
-7.07295

>  <SCORE.INTER>
-7.07295

>  <SCORE.INTER.CONST>
1

>  <SCORE.INTER.POLAR>
0

>  <SCORE.INTER.ROT>
0

>  <SCORE.INTER.SOLV>
11.2949

>  <SCORE.INTER.VDW>
-12.0803

>  <SCORE.INTER.norm>
-0.544073

>  <SCORE.INTRA>
0

>  <SCORE.INTRA.DIHEDRAL>
0

>  <SCORE.INTRA.DIHEDRAL.0>
0

>  <SCORE.INTRA.POLAR>
0

>  <SCORE.INTRA.POLAR.0>
0

>  <SCORE.INTRA.REPUL>
0

>  <SCORE.INTRA.REPUL.0>
0

>  <SCORE.INTRA.SOLV>
0

>  <SCORE.INTRA.SOLV.lig_0>
-48.6608

>  <SCORE.INTRA.VDW>
0

>  <SCORE.INTRA.VDW.0>
0

>  <SCORE.INTRA.norm>
0

>  <SCORE.RESTR>
0

>  <SCORE.RESTR.CAVITY>
0

>  <SCORE.RESTR.norm>
0

>  <SCORE.SYSTEM>
0

>  <SCORE.SYSTEM.CONST>
0

>  <SCORE.SYSTEM.DIHEDRAL>
0

>  <SCORE.SYSTEM.SOLV>
0

>  <SCORE.SYSTEM.norm>
0

>  <SCORE.heavy>
13

>  <SCORE.norm>
-0.544073

>  <RMSD>
2.893

$$$$
ligand
 OpenBabel11021811483D
libRbt.so/2013.1/901 2013/11/27
 13 14  0  0  0  0  0  0  0  0999 V2000
   12.7272   46.0270   69.4616 N   0  0  0  0  0  0  0  0  0  0  0  0
   10.8095   44.7767   69.8261 N   0  0  0  0  0  0  0  0  0  0  0  0
   11.8849   45.0738   69.0734 C   0  0  0  0  0  0  0  0  0  0  0  0
   12.1182   44.3967   67.8772 N   0  0  0  0  0  0  0  0  0  0  0  0
   11.2194   43.4006   67.4903 C   0  0  0  0  0  0  0  0  0  0  0  0
   10.1235   43.1028   68.2936 C   0  0  0  0  0  0  0  0  0  0  0  0
   11.3948   42.7909   66.4359 O   0  0  0  0  0  0  0  0  0  0  0  0
    9.1949   42.1279   67.8819 N   0  0  0  0  0  0  0  0  0  0  0  0
    8.0310   41.7288   68.7230 C   0  0  2  0  0  0  0  0  0  0  0  0
    7.6146   42.9167   69.6068 C   0  0  0  0  0  0  0  0  0  0  0  0
    9.9296   43.8267   69.4615 C   0  0  0  0  0  0  0  0  0  0  0  0
    8.8141   43.5460   70.2595 N   0  0  0  0  0  0  0  0  0  0  0  0
    8.4547   40.5264   69.6188 C   0  0  0  0  0  0  0  0  0  0  0  0
  1  3  1  0  0  0  0
  2  3  2  0  0  0  0
  2 11  1  0  0  0  0
  3  4  1  0  0  0  0
  4  5  1  0  0  0  0
  5  6  1  0  0  0  0
  5  7  2  0  0  0  0
  6  8  1  0  0  0  0
  6 11  2  0  0  0  0
  8  9  1  0  0  0  0
  9 10  1  0  0  0  0
  9 13  1  1  0  0  0
 10 12  1  0  0  0  0
 11 12  1  0  0  0  0
M  END
>  <CHROM.1>
10.16595549,43.36849113,68.75748699,0.33323676,0.62709283,0.85991362

>  <Name>
ligand

>  <RI>
0

>  <Rbt.Current_Directory>
/home/itssahil/PROJECTS/Mol_Feturizer/New_Systems/rnas/3SUX

>  <Rbt.Executable>
rbdock ($Id: //depot/dev/client3/rdock/2013.1/src/exe/rbdock.cxx#4 $)

>  <Rbt.Library>
libRbt.so (2013.1, Build901 2013/11/27)

>  <Rbt.Parameter_File>
/export/apps/rDock/src/rDock_2013.1_src/data/scripts/dock_solv.prm

>  <Rbt.Receptor>
prm/pocket_docking_5.prm

>  <SCORE>
-7.07306

>  <SCORE.INTER>
-7.07306

>  <SCORE.INTER.CONST>
1

>  <SCORE.INTER.POLAR>
0

>  <SCORE.INTER.ROT>
0

>  <SCORE.INTER.SOLV>
11.3202

>  <SCORE.INTER.VDW>
-12.0888

>  <SCORE.INTER.norm>
-0.544082

>  <SCORE.INTRA>
0

>  <SCORE.INTRA.DIHEDRAL>
0

>  <SCORE.INTRA.DIHEDRAL.0>
0

>  <SCORE.INTRA.POLAR>
0

>  <SCORE.INTRA.POLAR.0>
0

>  <SCORE.INTRA.REPUL>
0

>  <SCORE.INTRA.REPUL.0>
0

>  <SCORE.INTRA.SOLV>
0

>  <SCORE.INTRA.SOLV.lig_0>
-48.6608

>  <SCORE.INTRA.VDW>
0

>  <SCORE.INTRA.VDW.0>
0

>  <SCORE.INTRA.norm>
0

>  <SCORE.RESTR>
0

>  <SCORE.RESTR.CAVITY>
0

>  <SCORE.RESTR.norm>
0

>  <SCORE.SYSTEM>
0

>  <SCORE.SYSTEM.CONST>
0

>  <SCORE.SYSTEM.DIHEDRAL>
0

>  <SCORE.SYSTEM.SOLV>
0

>  <SCORE.SYSTEM.norm>
0

>  <SCORE.heavy>
13

>  <SCORE.norm>
-0.544082

>  <RMSD>
2.893

$$$$
ligand
 OpenBabel11021811483D
libRbt.so/2013.1/901 2013/11/27
 13 14  0  0  0  0  0  0  0  0999 V2000
   12.7266   46.0281   69.4617 N   0  0  0  0  0  0  0  0  0  0  0  0
   10.8115   44.7747   69.8289 N   0  0  0  0  0  0  0  0  0  0  0  0
   11.8844   45.0748   69.0739 C   0  0  0  0  0  0  0  0  0  0  0  0
   12.1151   44.4006   67.8755 N   0  0  0  0  0  0  0  0  0  0  0  0
   11.2165   43.4042   67.4890 C   0  0  0  0  0  0  0  0  0  0  0  0
   10.1232   43.1033   68.2948 C   0  0  0  0  0  0  0  0  0  0  0  0
   11.3896   42.7970   66.4328 O   0  0  0  0  0  0  0  0  0  0  0  0
    9.1947   42.1282   67.8836 N   0  0  0  0  0  0  0  0  0  0  0  0
    8.0336   41.7257   68.7271 C   0  0  2  0  0  0  0  0  0  0  0  0
    7.6183   42.9113   69.6147 C   0  0  0  0  0  0  0  0  0  0  0  0
    9.9318   43.8244   69.4648 C   0  0  0  0  0  0  0  0  0  0  0  0
    8.8189   43.5406   70.2654 N   0  0  0  0  0  0  0  0  0  0  0  0
    8.4614   40.5220   69.6191 C   0  0  0  0  0  0  0  0  0  0  0  0
  1  3  1  0  0  0  0
  2  3  2  0  0  0  0
  2 11  1  0  0  0  0
  3  4  1  0  0  0  0
  4  5  1  0  0  0  0
  5  6  1  0  0  0  0
  5  7  2  0  0  0  0
  6  8  1  0  0  0  0
  6 11  2  0  0  0  0
  8  9  1  0  0  0  0
  9 10  1  0  0  0  0
  9 13  1  1  0  0  0
 10 12  1  0  0  0  0
 11 12  1  0  0  0  0
M  END
>  <CHROM.1>
10.16665930,43.36802344,68.75912768,0.33154960,0.62988727,0.86309344

>  <Name>
ligand

>  <RI>
0

>  <Rbt.Current_Directory>
/home/itssahil/PROJECTS/Mol_Feturizer/New_Systems/rnas/3SUX

>  <Rbt.Executable>
rbdock ($Id: //depot/dev/client3/rdock/2013.1/src/exe/rbdock.cxx#4 $)

>  <Rbt.Library>
libRbt.so (2013.1, Build901 2013/11/27)

>  <Rbt.Parameter_File>
/export/apps/rDock/src/rDock_2013.1_src/data/scripts/dock_solv.prm

>  <Rbt.Receptor>
prm/pocket_docking_5.prm

>  <SCORE>
-7.07296

>  <SCORE.INTER>
-7.07296

>  <SCORE.INTER.CONST>
1

>  <SCORE.INTER.POLAR>
0

>  <SCORE.INTER.ROT>
0

>  <SCORE.INTER.SOLV>
11.3018

>  <SCORE.INTER.VDW>
-12.0826

>  <SCORE.INTER.norm>
-0.544074

>  <SCORE.INTRA>
0

>  <SCORE.INTRA.DIHEDRAL>
0

>  <SCORE.INTRA.DIHEDRAL.0>
0

>  <SCORE.INTRA.POLAR>
0

>  <SCORE.INTRA.POLAR.0>
0

>  <SCORE.INTRA.REPUL>
0

>  <SCORE.INTRA.REPUL.0>
0

>  <SCORE.INTRA.SOLV>
0

>  <SCORE.INTRA.SOLV.lig_0>
-48.6608

>  <SCORE.INTRA.VDW>
0

>  <SCORE.INTRA.VDW.0>
0

>  <SCORE.INTRA.norm>
0

>  <SCORE.RESTR>
0

>  <SCORE.RESTR.CAVITY>
0

>  <SCORE.RESTR.norm>
0

>  <SCORE.SYSTEM>
0

>  <SCORE.SYSTEM.CONST>
0

>  <SCORE.SYSTEM.DIHEDRAL>
0

>  <SCORE.SYSTEM.SOLV>
0

>  <SCORE.SYSTEM.norm>
0

>  <SCORE.heavy>
13

>  <SCORE.norm>
-0.544074

>  <RMSD>
2.893

$$$$
ligand
 OpenBabel11021811483D
libRbt.so/2013.1/901 2013/11/27
 13 14  0  0  0  0  0  0  0  0999 V2000
   12.7320   46.0259   69.4735 N   0  0  0  0  0  0  0  0  0  0  0  0
   10.8147   44.7726   69.8298 N   0  0  0  0  0  0  0  0  0  0  0  0
   11.8914   45.0733   69.0804 C   0  0  0  0  0  0  0  0  0  0  0  0
   12.1277   44.4006   67.8822 N   0  0  0  0  0  0  0  0  0  0  0  0
   11.2306   43.4050   67.4900 C   0  0  0  0  0  0  0  0  0  0  0  0
   10.1334   43.1034   68.2901 C   0  0  0  0  0  0  0  0  0  0  0  0
   11.4086   42.7992   66.4339 O   0  0  0  0  0  0  0  0  0  0  0  0
    9.2065   42.1292   67.8731 N   0  0  0  0  0  0  0  0  0  0  0  0
    8.0412   41.7260   68.7105 C   0  0  2  0  0  0  0  0  0  0  0  0
    7.6220   42.9105   69.5976 C   0  0  0  0  0  0  0  0  0  0  0  0
    9.9365   43.8230   69.4601 C   0  0  0  0  0  0  0  0  0  0  0  0
    8.8196   43.5385   70.2550 N   0  0  0  0  0  0  0  0  0  0  0  0
    8.4643   40.5209   69.6029 C   0  0  0  0  0  0  0  0  0  0  0  0
  1  3  1  0  0  0  0
  2  3  2  0  0  0  0
  2 11  1  0  0  0  0
  3  4  1  0  0  0  0
  4  5  1  0  0  0  0
  5  6  1  0  0  0  0
  5  7  2  0  0  0  0
  6  8  1  0  0  0  0
  6 11  2  0  0  0  0
  8  9  1  0  0  0  0
  9 10  1  0  0  0  0
  9 13  1  1  0  0  0
 10 12  1  0  0  0  0
 11 12  1  0  0  0  0
M  END
>  <CHROM.1>
10.17462206,43.36751849,68.75501980,0.33583396,0.62648800,0.86189606

>  <Name>
ligand

>  <RI>
0

>  <Rbt.Current_Directory>
/home/itssahil/PROJECTS/Mol_Feturizer/New_Systems/rnas/3SUX

>  <Rbt.Executable>
rbdock ($Id: //depot/dev/client3/rdock/2013.1/src/exe/rbdock.cxx#4 $)

>  <Rbt.Library>
libRbt.so (2013.1, Build901 2013/11/27)

>  <Rbt.Parameter_File>
/export/apps/rDock/src/rDock_2013.1_src/data/scripts/dock_solv.prm

>  <Rbt.Receptor>
prm/pocket_docking_6.prm

>  <SCORE>
-7.0721

>  <SCORE.INTER>
-7.0721

>  <SCORE.INTER.CONST>
1

>  <SCORE.INTER.POLAR>
0

>  <SCORE.INTER.ROT>
0

>  <SCORE.INTER.SOLV>
11.2927

>  <SCORE.INTER.VDW>
-12.079

>  <SCORE.INTER.norm>
-0.544007

>  <SCORE.INTRA>
0

>  <SCORE.INTRA.DIHEDRAL>
0

>  <SCORE.INTRA.DIHEDRAL.0>
0

>  <SCORE.INTRA.POLAR>
0

>  <SCORE.INTRA.POLAR.0>
0

>  <SCORE.INTRA.REPUL>
0

>  <SCORE.INTRA.REPUL.0>
0

>  <SCORE.INTRA.SOLV>
0

>  <SCORE.INTRA.SOLV.lig_0>
-48.6608

>  <SCORE.INTRA.VDW>
0

>  <SCORE.INTRA.VDW.0>
0

>  <SCORE.INTRA.norm>
0

>  <SCORE.RESTR>
0

>  <SCORE.RESTR.CAVITY>
0

>  <SCORE.RESTR.norm>
0

>  <SCORE.SYSTEM>
0

>  <SCORE.SYSTEM.CONST>
0

>  <SCORE.SYSTEM.DIHEDRAL>
0

>  <SCORE.SYSTEM.SOLV>
0

>  <SCORE.SYSTEM.norm>
0

>  <SCORE.heavy>
13

>  <SCORE.norm>
-0.544007

>  <RMSD>
2.893

$$$$
ligand
 OpenBabel11021811483D
libRbt.so/2013.1/901 2013/11/27
 13 14  0  0  0  0  0  0  0  0999 V2000
   12.7396   46.0332   69.4802 N   0  0  0  0  0  0  0  0  0  0  0  0
   10.8182   44.7880   69.8425 N   0  0  0  0  0  0  0  0  0  0  0  0
   11.8959   45.0814   69.0918 C   0  0  0  0  0  0  0  0  0  0  0  0
   12.1302   44.4019   67.8971 N   0  0  0  0  0  0  0  0  0  0  0  0
   11.2299   43.4073   67.5098 C   0  0  0  0  0  0  0  0  0  0  0  0
   10.1316   43.1133   68.3112 C   0  0  0  0  0  0  0  0  0  0  0  0
   11.4061   42.7955   66.4567 O   0  0  0  0  0  0  0  0  0  0  0  0
    9.2016   42.1400   67.8990 N   0  0  0  0  0  0  0  0  0  0  0  0
    8.0350   41.7448   68.7383 C   0  0  2  0  0  0  0  0  0  0  0  0
    7.6195   42.9352   69.6193 C   0  0  0  0  0  0  0  0  0  0  0  0
    9.9369   43.8395   69.4775 C   0  0  0  0  0  0  0  0  0  0  0  0
    8.8190   43.5626   70.2736 N   0  0  0  0  0  0  0  0  0  0  0  0
    8.4540   40.5429   69.6368 C   0  0  0  0  0  0  0  0  0  0  0  0
  1  3  1  0  0  0  0
  2  3  2  0  0  0  0
  2 11  1  0  0  0  0
  3  4  1  0  0  0  0
  4  5  1  0  0  0  0
  5  6  1  0  0  0  0
  5  7  2  0  0  0  0
  6  8  1  0  0  0  0
  6 11  2  0  0  0  0
  8  9  1  0  0  0  0
  9 10  1  0  0  0  0
  9 13  1  1  0  0  0
 10 12  1  0  0  0  0
 11 12  1  0  0  0  0
M  END
>  <CHROM.1>
10.17366439,43.37960734,68.77477835,0.33334929,0.62392401,0.85829318

>  <Name>
ligand

>  <RI>
0

>  <Rbt.Current_Directory>
/home/itssahil/PROJECTS/Mol_Feturizer/New_Systems/rnas/3SUX

>  <Rbt.Executable>
rbdock ($Id: //depot/dev/client3/rdock/2013.1/src/exe/rbdock.cxx#4 $)

>  <Rbt.Library>
libRbt.so (2013.1, Build901 2013/11/27)

>  <Rbt.Parameter_File>
/export/apps/rDock/src/rDock_2013.1_src/data/scripts/dock_solv.prm

>  <Rbt.Receptor>
prm/pocket_docking_3.prm

>  <SCORE>
-7.06254

>  <SCORE.INTER>
-7.06254

>  <SCORE.INTER.CONST>
1

>  <SCORE.INTER.POLAR>
0

>  <SCORE.INTER.ROT>
0

>  <SCORE.INTER.SOLV>
11.1859

>  <SCORE.INTER.VDW>
-12.037

>  <SCORE.INTER.norm>
-0.543272

>  <SCORE.INTRA>
0

>  <SCORE.INTRA.DIHEDRAL>
0

>  <SCORE.INTRA.DIHEDRAL.0>
0

>  <SCORE.INTRA.POLAR>
0

>  <SCORE.INTRA.POLAR.0>
0

>  <SCORE.INTRA.REPUL>
0

>  <SCORE.INTRA.REPUL.0>
0

>  <SCORE.INTRA.SOLV>
0

>  <SCORE.INTRA.SOLV.lig_0>
-48.6608

>  <SCORE.INTRA.VDW>
0

>  <SCORE.INTRA.VDW.0>
0

>  <SCORE.INTRA.norm>
0

>  <SCORE.RESTR>
0

>  <SCORE.RESTR.CAVITY>
0

>  <SCORE.RESTR.norm>
0

>  <SCORE.SYSTEM>
0

>  <SCORE.SYSTEM.CONST>
0

>  <SCORE.SYSTEM.DIHEDRAL>
0

>  <SCORE.SYSTEM.SOLV>
0

>  <SCORE.SYSTEM.norm>
0

>  <SCORE.heavy>
13

>  <SCORE.norm>
-0.543272

>  <RMSD>
2.895

$$$$
ligand
 OpenBabel11021811483D
libRbt.so/2013.1/901 2013/11/27
 13 14  0  0  0  0  0  0  0  0999 V2000
   12.8215   45.9627   69.5120 N   0  0  0  0  0  0  0  0  0  0  0  0
   10.8741   44.7538   69.8581 N   0  0  0  0  0  0  0  0  0  0  0  0
   11.9574   45.0349   69.1106 C   0  0  0  0  0  0  0  0  0  0  0  0
   12.1763   44.3680   67.9059 N   0  0  0  0  0  0  0  0  0  0  0  0
   11.2546   43.3986   67.5051 C   0  0  0  0  0  0  0  0  0  0  0  0
   10.1508   43.1166   68.3032 C   0  0  0  0  0  0  0  0  0  0  0  0
   11.4170   42.7987   66.4431 O   0  0  0  0  0  0  0  0  0  0  0  0
    9.1999   42.1695   67.8778 N   0  0  0  0  0  0  0  0  0  0  0  0
    8.0256   41.7872   68.7124 C   0  0  2  0  0  0  0  0  0  0  0  0
    7.6363   42.9732   69.6111 C   0  0  0  0  0  0  0  0  0  0  0  0
    9.9725   43.8297   69.4802 C   0  0  0  0  0  0  0  0  0  0  0  0
    8.8495   43.5653   70.2733 N   0  0  0  0  0  0  0  0  0  0  0  0
    8.4194   40.5637   69.5930 C   0  0  0  0  0  0  0  0  0  0  0  0
  1  3  1  0  0  0  0
  2  3  2  0  0  0  0
  2 11  1  0  0  0  0
  3  4  1  0  0  0  0
  4  5  1  0  0  0  0
  5  6  1  0  0  0  0
  5  7  2  0  0  0  0
  6  8  1  0  0  0  0
  6 11  2  0  0  0  0
  8  9  1  0  0  0  0
  9 10  1  0  0  0  0
  9 13  1  1  0  0  0
 10 12  1  0  0  0  0
 11 12  1  0  0  0  0
M  END
>  <CHROM.1>
10.19888124,43.37515555,68.77058221,0.31567276,0.60808910,0.88305749

>  <Name>
ligand

>  <RI>
0

>  <Rbt.Current_Directory>
/home/itssahil/PROJECTS/Mol_Feturizer/New_Systems/rnas/3SUX

>  <Rbt.Executable>
rbdock ($Id: //depot/dev/client3/rdock/2013.1/src/exe/rbdock.cxx#4 $)

>  <Rbt.Library>
libRbt.so (2013.1, Build901 2013/11/27)

>  <Rbt.Parameter_File>
/export/apps/rDock/src/rDock_2013.1_src/data/scripts/dock_solv.prm

>  <Rbt.Receptor>
prm/pocket_docking_5.prm

>  <SCORE>
-7.04393

>  <SCORE.INTER>
-7.04393

>  <SCORE.INTER.CONST>
1

>  <SCORE.INTER.POLAR>
0

>  <SCORE.INTER.ROT>
0

>  <SCORE.INTER.SOLV>
11.3947

>  <SCORE.INTER.VDW>
-12.0942

>  <SCORE.INTER.norm>
-0.54184

>  <SCORE.INTRA>
0

>  <SCORE.INTRA.DIHEDRAL>
0

>  <SCORE.INTRA.DIHEDRAL.0>
0

>  <SCORE.INTRA.POLAR>
0

>  <SCORE.INTRA.POLAR.0>
0

>  <SCORE.INTRA.REPUL>
0

>  <SCORE.INTRA.REPUL.0>
0

>  <SCORE.INTRA.SOLV>
0

>  <SCORE.INTRA.SOLV.lig_0>
-48.6608

>  <SCORE.INTRA.VDW>
0

>  <SCORE.INTRA.VDW.0>
0

>  <SCORE.INTRA.norm>
0

>  <SCORE.RESTR>
0

>  <SCORE.RESTR.CAVITY>
0

>  <SCORE.RESTR.norm>
0

>  <SCORE.SYSTEM>
0

>  <SCORE.SYSTEM.CONST>
0

>  <SCORE.SYSTEM.DIHEDRAL>
0

>  <SCORE.SYSTEM.SOLV>
0

>  <SCORE.SYSTEM.norm>
0

>  <SCORE.heavy>
13

>  <SCORE.norm>
-0.54184

>  <RMSD>
2.895

$$$$
ligand
 OpenBabel11021811483D
libRbt.so/2013.1/901 2013/11/27
 13 14  0  0  0  0  0  0  0  0999 V2000
   12.7403   46.0430   69.4766 N   0  0  0  0  0  0  0  0  0  0  0  0
   10.8190   44.8008   69.8498 N   0  0  0  0  0  0  0  0  0  0  0  0
   11.8954   45.0893   69.0954 C   0  0  0  0  0  0  0  0  0  0  0  0
   12.1272   44.4025   67.9043 N   0  0  0  0  0  0  0  0  0  0  0  0
   11.2258   43.4060   67.5246 C   0  0  0  0  0  0  0  0  0  0  0  0
   10.1288   43.1173   68.3298 C   0  0  0  0  0  0  0  0  0  0  0  0
   11.3998   42.7880   66.4749 O   0  0  0  0  0  0  0  0  0  0  0  0
    9.1977   42.1420   67.9250 N   0  0  0  0  0  0  0  0  0  0  0  0
    8.0324   41.7524   68.7687 C   0  0  2  0  0  0  0  0  0  0  0  0
    7.6190   42.9481   69.6434 C   0  0  0  0  0  0  0  0  0  0  0  0
    9.9366   43.8505   69.4921 C   0  0  0  0  0  0  0  0  0  0  0  0
    8.8200   43.5789   70.2919 N   0  0  0  0  0  0  0  0  0  0  0  0
    8.4525   40.5557   69.6737 C   0  0  0  0  0  0  0  0  0  0  0  0
  1  3  1  0  0  0  0
  2  3  2  0  0  0  0
  2 11  1  0  0  0  0
  3  4  1  0  0  0  0
  4  5  1  0  0  0  0
  5  6  1  0  0  0  0
  5  7  2  0  0  0  0
  6  8  1  0  0  0  0
  6 11  2  0  0  0  0
  8  9  1  0  0  0  0
  9 10  1  0  0  0  0
  9 13  1  1  0  0  0
 10 12  1  0  0  0  0
 11 12  1  0  0  0  0
M  END
>  <CHROM.1>
10.17186022,43.38639270,68.79165104,0.33129599,0.62477169,0.85354013

>  <Name>
ligand

>  <RI>
0

>  <Rbt.Current_Directory>
/home/itssahil/PROJECTS/Mol_Feturizer/New_Systems/rnas/3SUX

>  <Rbt.Executable>
rbdock ($Id: //depot/dev/client3/rdock/2013.1/src/exe/rbdock.cxx#4 $)

>  <Rbt.Library>
libRbt.so (2013.1, Build901 2013/11/27)

>  <Rbt.Parameter_File>
/export/apps/rDock/src/rDock_2013.1_src/data/scripts/dock_solv.prm

>  <Rbt.Receptor>
prm/pocket_docking_4.prm

>  <SCORE>
-7.0332

>  <SCORE.INTER>
-7.0332

>  <SCORE.INTER.CONST>
1

>  <SCORE.INTER.POLAR>
0

>  <SCORE.INTER.ROT>
0

>  <SCORE.INTER.SOLV>
11.0938

>  <SCORE.INTER.VDW>
-11.9867

>  <SCORE.INTER.norm>
-0.541015

>  <SCORE.INTRA>
0

>  <SCORE.INTRA.DIHEDRAL>
0

>  <SCORE.INTRA.DIHEDRAL.0>
0

>  <SCORE.INTRA.POLAR>
0

>  <SCORE.INTRA.POLAR.0>
0

>  <SCORE.INTRA.REPUL>
0

>  <SCORE.INTRA.REPUL.0>
0

>  <SCORE.INTRA.SOLV>
0

>  <SCORE.INTRA.SOLV.lig_0>
-48.6608

>  <SCORE.INTRA.VDW>
0

>  <SCORE.INTRA.VDW.0>
0

>  <SCORE.INTRA.norm>
0

>  <SCORE.RESTR>
0

>  <SCORE.RESTR.CAVITY>
0

>  <SCORE.RESTR.norm>
0

>  <SCORE.SYSTEM>
0

>  <SCORE.SYSTEM.CONST>
0

>  <SCORE.SYSTEM.DIHEDRAL>
0

>  <SCORE.SYSTEM.SOLV>
0

>  <SCORE.SYSTEM.norm>
0

>  <SCORE.heavy>
13

>  <SCORE.norm>
-0.541015

>  <RMSD>
2.896

$$$$
ligand
 OpenBabel11021811483D
libRbt.so/2013.1/901 2013/11/27
 13 14  0  0  0  0  0  0  0  0999 V2000
   12.7269   46.0198   69.4360 N   0  0  0  0  0  0  0  0  0  0  0  0
   10.8072   44.7762   69.8125 N   0  0  0  0  0  0  0  0  0  0  0  0
   11.8758   45.0735   69.0503 C   0  0  0  0  0  0  0  0  0  0  0  0
   12.0927   44.4038   67.8469 N   0  0  0  0  0  0  0  0  0  0  0  0
   11.1850   43.4148   67.4628 C   0  0  0  0  0  0  0  0  0  0  0  0
   10.0964   43.1165   68.2759 C   0  0  0  0  0  0  0  0  0  0  0  0
   11.3459   42.8118   66.4023 O   0  0  0  0  0  0  0  0  0  0  0  0
    9.1587   42.1491   67.8675 N   0  0  0  0  0  0  0  0  0  0  0  0
    8.0020   41.7496   68.7185 C   0  0  2  0  0  0  0  0  0  0  0  0
    7.6011   42.9332   69.6151 C   0  0  0  0  0  0  0  0  0  0  0  0
    9.9188   43.8331   69.4509 C   0  0  0  0  0  0  0  0  0  0  0  0
    8.8107   43.5521   70.2591 N   0  0  0  0  0  0  0  0  0  0  0  0
    8.4297   40.5389   69.6011 C   0  0  0  0  0  0  0  0  0  0  0  0
  1  3  1  0  0  0  0
  2  3  2  0  0  0  0
  2 11  1  0  0  0  0
  3  4  1  0  0  0  0
  4  5  1  0  0  0  0
  5  6  1  0  0  0  0
  5  7  2  0  0  0  0
  6  8  1  0  0  0  0
  6 11  2  0  0  0  0
  8  9  1  0  0  0  0
  9 10  1  0  0  0  0
  9 13  1  1  0  0  0
 10 12  1  0  0  0  0
 11 12  1  0  0  0  0
M  END
>  <CHROM.1>
10.14521975,43.37873141,68.74117542,0.31906685,0.63046056,0.87532686

>  <Name>
ligand

>  <RI>
0

>  <Rbt.Current_Directory>
/home/itssahil/PROJECTS/Mol_Feturizer/New_Systems/rnas/3SUX

>  <Rbt.Executable>
rbdock ($Id: //depot/dev/client3/rdock/2013.1/src/exe/rbdock.cxx#4 $)

>  <Rbt.Library>
libRbt.so (2013.1, Build901 2013/11/27)

>  <Rbt.Parameter_File>
/export/apps/rDock/src/rDock_2013.1_src/data/scripts/dock_solv.prm

>  <Rbt.Receptor>
prm/pocket_docking_7.prm

>  <SCORE>
-7.07778

>  <SCORE.INTER>
-7.07778

>  <SCORE.INTER.CONST>
1

>  <SCORE.INTER.POLAR>
0

>  <SCORE.INTER.ROT>
0

>  <SCORE.INTER.SOLV>
11.5745

>  <SCORE.INTER.VDW>
-12.1767

>  <SCORE.INTER.norm>
-0.544444

>  <SCORE.INTRA>
0

>  <SCORE.INTRA.DIHEDRAL>
0

>  <SCORE.INTRA.DIHEDRAL.0>
0

>  <SCORE.INTRA.POLAR>
0

>  <SCORE.INTRA.POLAR.0>
0

>  <SCORE.INTRA.REPUL>
0

>  <SCORE.INTRA.REPUL.0>
0

>  <SCORE.INTRA.SOLV>
0

>  <SCORE.INTRA.SOLV.lig_0>
-48.6608

>  <SCORE.INTRA.VDW>
0

>  <SCORE.INTRA.VDW.0>
0

>  <SCORE.INTRA.norm>
0

>  <SCORE.RESTR>
0

>  <SCORE.RESTR.CAVITY>
0

>  <SCORE.RESTR.norm>
0

>  <SCORE.SYSTEM>
0

>  <SCORE.SYSTEM.CONST>
0

>  <SCORE.SYSTEM.DIHEDRAL>
0

>  <SCORE.SYSTEM.SOLV>
0

>  <SCORE.SYSTEM.norm>
0

>  <SCORE.heavy>
13

>  <SCORE.norm>
-0.544444

>  <RMSD>
2.896

$$$$
ligand
 OpenBabel11021811483D
libRbt.so/2013.1/901 2013/11/27
 13 14  0  0  0  0  0  0  0  0999 V2000
   12.8199   45.9744   69.5331 N   0  0  0  0  0  0  0  0  0  0  0  0
   10.8687   44.7683   69.8676 N   0  0  0  0  0  0  0  0  0  0  0  0
   11.9598   45.0437   69.1295 C   0  0  0  0  0  0  0  0  0  0  0  0
   12.1913   44.3677   67.9323 N   0  0  0  0  0  0  0  0  0  0  0  0
   11.2738   43.3955   67.5290 C   0  0  0  0  0  0  0  0  0  0  0  0
   10.1615   43.1195   68.3175 C   0  0  0  0  0  0  0  0  0  0  0  0
   11.4473   42.7875   66.4733 O   0  0  0  0  0  0  0  0  0  0  0  0
    9.2150   42.1694   67.8892 N   0  0  0  0  0  0  0  0  0  0  0  0
    8.0319   41.7935   68.7141 C   0  0  2  0  0  0  0  0  0  0  0  0
    7.6333   42.9863   69.5997 C   0  0  0  0  0  0  0  0  0  0  0  0
    9.9709   43.8415   69.4871 C   0  0  0  0  0  0  0  0  0  0  0  0
    8.8395   43.5831   70.2703 N   0  0  0  0  0  0  0  0  0  0  0  0
    8.4161   40.5766   69.6080 C   0  0  0  0  0  0  0  0  0  0  0  0
  1  3  1  0  0  0  0
  2  3  2  0  0  0  0
  2 11  1  0  0  0  0
  3  4  1  0  0  0  0
  4  5  1  0  0  0  0
  5  6  1  0  0  0  0
  5  7  2  0  0  0  0
  6  8  1  0  0  0  0
  6 11  2  0  0  0  0
  8  9  1  0  0  0  0
  9 10  1  0  0  0  0
  9 13  1  1  0  0  0
 10 12  1  0  0  0  0
 11 12  1  0  0  0  0
M  END
>  <CHROM.1>
10.20471020,43.38161640,68.78338890,0.32544804,0.60120277,0.86999860

>  <Name>
ligand

>  <RI>
0

>  <Rbt.Current_Directory>
/home/itssahil/PROJECTS/Mol_Feturizer/New_Systems/rnas/3SUX

>  <Rbt.Executable>
rbdock ($Id: //depot/dev/client3/rdock/2013.1/src/exe/rbdock.cxx#4 $)

>  <Rbt.Library>
libRbt.so (2013.1, Build901 2013/11/27)

>  <Rbt.Parameter_File>
/export/apps/rDock/src/rDock_2013.1_src/data/scripts/dock_solv.prm

>  <Rbt.Receptor>
prm/pocket_docking_4.prm

>  <SCORE>
-7.02961

>  <SCORE.INTER>
-7.02961

>  <SCORE.INTER.CONST>
1

>  <SCORE.INTER.POLAR>
0

>  <SCORE.INTER.ROT>
0

>  <SCORE.INTER.SOLV>
11.2453

>  <SCORE.INTER.VDW>
-12.0348

>  <SCORE.INTER.norm>
-0.540739

>  <SCORE.INTRA>
0

>  <SCORE.INTRA.DIHEDRAL>
0

>  <SCORE.INTRA.DIHEDRAL.0>
0

>  <SCORE.INTRA.POLAR>
0

>  <SCORE.INTRA.POLAR.0>
0

>  <SCORE.INTRA.REPUL>
0

>  <SCORE.INTRA.REPUL.0>
0

>  <SCORE.INTRA.SOLV>
0

>  <SCORE.INTRA.SOLV.lig_0>
-48.6608

>  <SCORE.INTRA.VDW>
0

>  <SCORE.INTRA.VDW.0>
0

>  <SCORE.INTRA.norm>
0

>  <SCORE.RESTR>
0

>  <SCORE.RESTR.CAVITY>
0

>  <SCORE.RESTR.norm>
0

>  <SCORE.SYSTEM>
0

>  <SCORE.SYSTEM.CONST>
0

>  <SCORE.SYSTEM.DIHEDRAL>
0

>  <SCORE.SYSTEM.SOLV>
0

>  <SCORE.SYSTEM.norm>
0

>  <SCORE.heavy>
13

>  <SCORE.norm>
-0.540739

>  <RMSD>
2.897

$$$$
ligand
 OpenBabel11021811483D
libRbt.so/2013.1/901 2013/11/27
 13 14  0  0  0  0  0  0  0  0999 V2000
   12.8547   45.9049   69.4703 N   0  0  0  0  0  0  0  0  0  0  0  0
   10.8932   44.7248   69.8356 N   0  0  0  0  0  0  0  0  0  0  0  0
   11.9647   45.0015   69.0698 C   0  0  0  0  0  0  0  0  0  0  0  0
   12.1443   44.3556   67.8473 N   0  0  0  0  0  0  0  0  0  0  0  0
   11.1961   43.4116   67.4478 C   0  0  0  0  0  0  0  0  0  0  0  0
   10.1051   43.1334   68.2648 C   0  0  0  0  0  0  0  0  0  0  0  0
   11.3237   42.8308   66.3706 O   0  0  0  0  0  0  0  0  0  0  0  0
    9.1275   42.2128   67.8419 N   0  0  0  0  0  0  0  0  0  0  0  0
    7.9651   41.8349   68.6948 C   0  0  2  0  0  0  0  0  0  0  0  0
    7.6180   43.0091   69.6257 C   0  0  0  0  0  0  0  0  0  0  0  0
    9.9663   43.8253   69.4596 C   0  0  0  0  0  0  0  0  0  0  0  0
    8.8563   43.5652   70.2723 N   0  0  0  0  0  0  0  0  0  0  0  0
    8.3553   40.5865   69.5414 C   0  0  0  0  0  0  0  0  0  0  0  0
  1  3  1  0  0  0  0
  2  3  2  0  0  0  0
  2 11  1  0  0  0  0
  3  4  1  0  0  0  0
  4  5  1  0  0  0  0
  5  6  1  0  0  0  0
  5  7  2  0  0  0  0
  6  8  1  0  0  0  0
  6 11  2  0  0  0  0
  8  9  1  0  0  0  0
  9 10  1  0  0  0  0
  9 13  1  1  0  0  0
 10 12  1  0  0  0  0
 11 12  1  0  0  0  0
M  END
>  <CHROM.1>
10.16836031,43.38140435,68.73605766,0.28039445,0.60740027,0.92357257

>  <Name>
ligand

>  <RI>
0

>  <Rbt.Current_Directory>
/home/itssahil/PROJECTS/Mol_Feturizer/New_Systems/rnas/3SUX

>  <Rbt.Executable>
rbdock ($Id: //depot/dev/client3/rdock/2013.1/src/exe/rbdock.cxx#4 $)

>  <Rbt.Library>
libRbt.so (2013.1, Build901 2013/11/27)

>  <Rbt.Parameter_File>
/export/apps/rDock/src/rDock_2013.1_src/data/scripts/dock_solv.prm

>  <Rbt.Receptor>
prm/pocket_docking_3.prm

>  <SCORE>
-7.02593

>  <SCORE.INTER>
-7.02593

>  <SCORE.INTER.CONST>
1

>  <SCORE.INTER.POLAR>
0

>  <SCORE.INTER.ROT>
0

>  <SCORE.INTER.SOLV>
11.9424

>  <SCORE.INTER.VDW>
-12.2648

>  <SCORE.INTER.norm>
-0.540456

>  <SCORE.INTRA>
0

>  <SCORE.INTRA.DIHEDRAL>
0

>  <SCORE.INTRA.DIHEDRAL.0>
0

>  <SCORE.INTRA.POLAR>
0

>  <SCORE.INTRA.POLAR.0>
0

>  <SCORE.INTRA.REPUL>
0

>  <SCORE.INTRA.REPUL.0>
0

>  <SCORE.INTRA.SOLV>
0

>  <SCORE.INTRA.SOLV.lig_0>
-48.6608

>  <SCORE.INTRA.VDW>
0

>  <SCORE.INTRA.VDW.0>
0

>  <SCORE.INTRA.norm>
0

>  <SCORE.RESTR>
0

>  <SCORE.RESTR.CAVITY>
0

>  <SCORE.RESTR.norm>
0

>  <SCORE.SYSTEM>
0

>  <SCORE.SYSTEM.CONST>
0

>  <SCORE.SYSTEM.DIHEDRAL>
0

>  <SCORE.SYSTEM.SOLV>
0

>  <SCORE.SYSTEM.norm>
0

>  <SCORE.heavy>
13

>  <SCORE.norm>
-0.540456

>  <RMSD>
2.899

$$$$
ligand
 OpenBabel11021811483D
libRbt.so/2013.1/901 2013/11/27
 13 14  0  0  0  0  0  0  0  0999 V2000
   12.8645   45.9285   69.5408 N   0  0  0  0  0  0  0  0  0  0  0  0
   10.9083   44.7309   69.8770 N   0  0  0  0  0  0  0  0  0  0  0  0
   11.9888   45.0169   69.1273 C   0  0  0  0  0  0  0  0  0  0  0  0
   12.1928   44.3721   67.9081 N   0  0  0  0  0  0  0  0  0  0  0  0
   11.2593   43.4195   67.4948 C   0  0  0  0  0  0  0  0  0  0  0  0
   10.1586   43.1317   68.2953 C   0  0  0  0  0  0  0  0  0  0  0  0
   11.4085   42.8393   66.4199 O   0  0  0  0  0  0  0  0  0  0  0  0
    9.1959   42.2022   67.8581 N   0  0  0  0  0  0  0  0  0  0  0  0
    8.0241   41.8142   68.6935 C   0  0  2  0  0  0  0  0  0  0  0  0
    7.6523   42.9856   69.6184 C   0  0  0  0  0  0  0  0  0  0  0  0
    9.9954   43.8229   69.4874 C   0  0  0  0  0  0  0  0  0  0  0  0
    8.8756   43.5531   70.2833 N   0  0  0  0  0  0  0  0  0  0  0  0
    8.4126   40.5697   69.5467 C   0  0  0  0  0  0  0  0  0  0  0  0
  1  3  1  0  0  0  0
  2  3  2  0  0  0  0
  2 11  1  0  0  0  0
  3  4  1  0  0  0  0
  4  5  1  0  0  0  0
  5  6  1  0  0  0  0
  5  7  2  0  0  0  0
  6  8  1  0  0  0  0
  6 11  2  0  0  0  0
  8  9  1  0  0  0  0
  9 10  1  0  0  0  0
  9 13  1  1  0  0  0
 10 12  1  0  0  0  0
 11 12  1  0  0  0  0
M  END
>  <CHROM.1>
10.21245654,43.38053022,68.76728573,0.30173369,0.60532676,0.91090335

>  <Name>
ligand

>  <RI>
0

>  <Rbt.Current_Directory>
/home/itssahil/PROJECTS/Mol_Feturizer/New_Systems/rnas/3SUX

>  <Rbt.Executable>
rbdock ($Id: //depot/dev/client3/rdock/2013.1/src/exe/rbdock.cxx#4 $)

>  <Rbt.Library>
libRbt.so (2013.1, Build901 2013/11/27)

>  <Rbt.Parameter_File>
/export/apps/rDock/src/rDock_2013.1_src/data/scripts/dock_solv.prm

>  <Rbt.Receptor>
prm/pocket_docking_4.prm

>  <SCORE>
-7.03357

>  <SCORE.INTER>
-7.03357

>  <SCORE.INTER.CONST>
1

>  <SCORE.INTER.POLAR>
0

>  <SCORE.INTER.ROT>
0

>  <SCORE.INTER.SOLV>
11.5034

>  <SCORE.INTER.VDW>
-12.1235

>  <SCORE.INTER.norm>
-0.541044

>  <SCORE.INTRA>
0

>  <SCORE.INTRA.DIHEDRAL>
0

>  <SCORE.INTRA.DIHEDRAL.0>
0

>  <SCORE.INTRA.POLAR>
0

>  <SCORE.INTRA.POLAR.0>
0

>  <SCORE.INTRA.REPUL>
0

>  <SCORE.INTRA.REPUL.0>
0

>  <SCORE.INTRA.SOLV>
0

>  <SCORE.INTRA.SOLV.lig_0>
-48.6608

>  <SCORE.INTRA.VDW>
0

>  <SCORE.INTRA.VDW.0>
0

>  <SCORE.INTRA.norm>
0

>  <SCORE.RESTR>
0

>  <SCORE.RESTR.CAVITY>
0

>  <SCORE.RESTR.norm>
0

>  <SCORE.SYSTEM>
0

>  <SCORE.SYSTEM.CONST>
0

>  <SCORE.SYSTEM.DIHEDRAL>
0

>  <SCORE.SYSTEM.SOLV>
0

>  <SCORE.SYSTEM.norm>
0

>  <SCORE.heavy>
13

>  <SCORE.norm>
-0.541044

>  <RMSD>
2.899

$$$$
ligand
 OpenBabel11021811483D
libRbt.so/2013.1/901 2013/11/27
 13 14  0  0  0  0  0  0  0  0999 V2000
   12.7412   46.0346   69.4852 N   0  0  0  0  0  0  0  0  0  0  0  0
   10.8144   44.7963   69.8425 N   0  0  0  0  0  0  0  0  0  0  0  0
   11.8953   45.0856   69.0947 C   0  0  0  0  0  0  0  0  0  0  0  0
   12.1307   44.4048   67.9009 N   0  0  0  0  0  0  0  0  0  0  0  0
   11.2281   43.4132   67.5115 C   0  0  0  0  0  0  0  0  0  0  0  0
   10.1264   43.1233   68.3099 C   0  0  0  0  0  0  0  0  0  0  0  0
   11.4051   42.8004   66.4592 O   0  0  0  0  0  0  0  0  0  0  0  0
    9.1943   42.1530   67.8954 N   0  0  0  0  0  0  0  0  0  0  0  0
    8.0238   41.7623   68.7315 C   0  0  2  0  0  0  0  0  0  0  0  0
    7.6100   42.9544   69.6108 C   0  0  0  0  0  0  0  0  0  0  0  0
    9.9309   43.8506   69.4753 C   0  0  0  0  0  0  0  0  0  0  0  0
    8.8098   43.5780   70.2684 N   0  0  0  0  0  0  0  0  0  0  0  0
    8.4361   40.5593   69.6317 C   0  0  0  0  0  0  0  0  0  0  0  0
  1  3  1  0  0  0  0
  2  3  2  0  0  0  0
  2 11  1  0  0  0  0
  3  4  1  0  0  0  0
  4  5  1  0  0  0  0
  5  6  1  0  0  0  0
  5  7  2  0  0  0  0
  6  8  1  0  0  0  0
  6 11  2  0  0  0  0
  8  9  1  0  0  0  0
  9 10  1  0  0  0  0
  9 13  1  1  0  0  0
 10 12  1  0  0  0  0
 11 12  1  0  0  0  0
M  END
>  <CHROM.1>
10.16809705,43.38967223,68.77344899,0.33322030,0.61942904,0.85796360

>  <Name>
ligand

>  <RI>
0

>  <Rbt.Current_Directory>
/home/itssahil/PROJECTS/Mol_Feturizer/New_Systems/rnas/3SUX

>  <Rbt.Executable>
rbdock ($Id: //depot/dev/client3/rdock/2013.1/src/exe/rbdock.cxx#4 $)

>  <Rbt.Library>
libRbt.so (2013.1, Build901 2013/11/27)

>  <Rbt.Parameter_File>
/export/apps/rDock/src/rDock_2013.1_src/data/scripts/dock_solv.prm

>  <Rbt.Receptor>
prm/pocket_docking_6.prm

>  <SCORE>
-7.06478

>  <SCORE.INTER>
-7.06478

>  <SCORE.INTER.CONST>
1

>  <SCORE.INTER.POLAR>
0

>  <SCORE.INTER.ROT>
0

>  <SCORE.INTER.SOLV>
11.231

>  <SCORE.INTER.VDW>
-12.0535

>  <SCORE.INTER.norm>
-0.543445

>  <SCORE.INTRA>
0

>  <SCORE.INTRA.DIHEDRAL>
0

>  <SCORE.INTRA.DIHEDRAL.0>
0

>  <SCORE.INTRA.POLAR>
0

>  <SCORE.INTRA.POLAR.0>
0

>  <SCORE.INTRA.REPUL>
0

>  <SCORE.INTRA.REPUL.0>
0

>  <SCORE.INTRA.SOLV>
0

>  <SCORE.INTRA.SOLV.lig_0>
-48.6608

>  <SCORE.INTRA.VDW>
0

>  <SCORE.INTRA.VDW.0>
0

>  <SCORE.INTRA.norm>
0

>  <SCORE.RESTR>
0

>  <SCORE.RESTR.CAVITY>
0

>  <SCORE.RESTR.norm>
0

>  <SCORE.SYSTEM>
0

>  <SCORE.SYSTEM.CONST>
0

>  <SCORE.SYSTEM.DIHEDRAL>
0

>  <SCORE.SYSTEM.SOLV>
0

>  <SCORE.SYSTEM.norm>
0

>  <SCORE.heavy>
13

>  <SCORE.norm>
-0.543445

>  <RMSD>
2.899

$$$$
ligand
 OpenBabel11021811483D
libRbt.so/2013.1/901 2013/11/27
 13 14  0  0  0  0  0  0  0  0999 V2000
   12.7449   46.0321   69.4884 N   0  0  0  0  0  0  0  0  0  0  0  0
   10.8157   44.7972   69.8444 N   0  0  0  0  0  0  0  0  0  0  0  0
   11.8972   45.0851   69.0970 C   0  0  0  0  0  0  0  0  0  0  0  0
   12.1313   44.4050   67.9026 N   0  0  0  0  0  0  0  0  0  0  0  0
   11.2267   43.4155   67.5121 C   0  0  0  0  0  0  0  0  0  0  0  0
   10.1245   43.1270   68.3102 C   0  0  0  0  0  0  0  0  0  0  0  0
   11.4027   42.8033   66.4593 O   0  0  0  0  0  0  0  0  0  0  0  0
    9.1904   42.1590   67.8948 N   0  0  0  0  0  0  0  0  0  0  0  0
    8.0192   41.7698   68.7304 C   0  0  2  0  0  0  0  0  0  0  0  0
    7.6076   42.9619   69.6108 C   0  0  0  0  0  0  0  0  0  0  0  0
    9.9303   43.8537   69.4763 C   0  0  0  0  0  0  0  0  0  0  0  0
    8.8086   43.5825   70.2690 N   0  0  0  0  0  0  0  0  0  0  0  0
    8.4290   40.5651   69.6295 C   0  0  0  0  0  0  0  0  0  0  0  0
  1  3  1  0  0  0  0
  2  3  2  0  0  0  0
  2 11  1  0  0  0  0
  3  4  1  0  0  0  0
  4  5  1  0  0  0  0
  5  6  1  0  0  0  0
  5  7  2  0  0  0  0
  6  8  1  0  0  0  0
  6 11  2  0  0  0  0
  8  9  1  0  0  0  0
  9 10  1  0  0  0  0
  9 13  1  1  0  0  0
 10 12  1  0  0  0  0
 11 12  1  0  0  0  0
M  END
>  <CHROM.1>
10.16663135,43.39288393,68.77403263,0.33170740,0.61788798,0.85977873

>  <Name>
ligand

>  <RI>
0

>  <Rbt.Current_Directory>
/home/itssahil/PROJECTS/Mol_Feturizer/New_Systems/rnas/3SUX

>  <Rbt.Executable>
rbdock ($Id: //depot/dev/client3/rdock/2013.1/src/exe/rbdock.cxx#4 $)

>  <Rbt.Library>
libRbt.so (2013.1, Build901 2013/11/27)

>  <Rbt.Parameter_File>
/export/apps/rDock/src/rDock_2013.1_src/data/scripts/dock_solv.prm

>  <Rbt.Receptor>
prm/pocket_docking_4.prm

>  <SCORE>
-7.06367

>  <SCORE.INTER>
-7.06367

>  <SCORE.INTER.CONST>
1

>  <SCORE.INTER.POLAR>
0

>  <SCORE.INTER.ROT>
0

>  <SCORE.INTER.SOLV>
11.2458

>  <SCORE.INTER.VDW>
-12.0577

>  <SCORE.INTER.norm>
-0.543359

>  <SCORE.INTRA>
0

>  <SCORE.INTRA.DIHEDRAL>
0

>  <SCORE.INTRA.DIHEDRAL.0>
0

>  <SCORE.INTRA.POLAR>
0

>  <SCORE.INTRA.POLAR.0>
0

>  <SCORE.INTRA.REPUL>
0

>  <SCORE.INTRA.REPUL.0>
0

>  <SCORE.INTRA.SOLV>
0

>  <SCORE.INTRA.SOLV.lig_0>
-48.6608

>  <SCORE.INTRA.VDW>
0

>  <SCORE.INTRA.VDW.0>
0

>  <SCORE.INTRA.norm>
0

>  <SCORE.RESTR>
0

>  <SCORE.RESTR.CAVITY>
0

>  <SCORE.RESTR.norm>
0

>  <SCORE.SYSTEM>
0

>  <SCORE.SYSTEM.CONST>
0

>  <SCORE.SYSTEM.DIHEDRAL>
0

>  <SCORE.SYSTEM.SOLV>
0

>  <SCORE.SYSTEM.norm>
0

>  <SCORE.heavy>
13

>  <SCORE.norm>
-0.543359

>  <RMSD>
2.900

$$$$
ligand
 OpenBabel11021811483D
libRbt.so/2013.1/901 2013/11/27
 13 14  0  0  0  0  0  0  0  0999 V2000
   12.7431   46.0348   69.4876 N   0  0  0  0  0  0  0  0  0  0  0  0
   10.8130   44.8010   69.8429 N   0  0  0  0  0  0  0  0  0  0  0  0
   11.8959   45.0870   69.0968 C   0  0  0  0  0  0  0  0  0  0  0  0
   12.1322   44.4040   67.9045 N   0  0  0  0  0  0  0  0  0  0  0  0
   11.2282   43.4137   67.5146 C   0  0  0  0  0  0  0  0  0  0  0  0
   10.1245   43.1272   68.3113 C   0  0  0  0  0  0  0  0  0  0  0  0
   11.4061   42.7990   66.4636 O   0  0  0  0  0  0  0  0  0  0  0  0
    9.1911   42.1584   67.8964 N   0  0  0  0  0  0  0  0  0  0  0  0
    8.0182   41.7712   68.7308 C   0  0  2  0  0  0  0  0  0  0  0  0
    7.6051   42.9655   69.6076 C   0  0  0  0  0  0  0  0  0  0  0  0
    9.9282   43.8567   69.4754 C   0  0  0  0  0  0  0  0  0  0  0  0
    8.8050   43.5875   70.2666 N   0  0  0  0  0  0  0  0  0  0  0  0
    8.4262   40.5687   69.6335 C   0  0  0  0  0  0  0  0  0  0  0  0
  1  3  1  0  0  0  0
  2  3  2  0  0  0  0
  2 11  1  0  0  0  0
  3  4  1  0  0  0  0
  4  5  1  0  0  0  0
  5  6  1  0  0  0  0
  5  7  2  0  0  0  0
  6  8  1  0  0  0  0
  6 11  2  0  0  0  0
  8  9  1  0  0  0  0
  9 10  1  0  0  0  0
  9 13  1  1  0  0  0
 10 12  1  0  0  0  0
 11 12  1  0  0  0  0
M  END
>  <CHROM.1>
10.16578173,43.39420272,68.77460123,0.33333961,0.61657868,0.85647281

>  <Name>
ligand

>  <RI>
0

>  <Rbt.Current_Directory>
/home/itssahil/PROJECTS/Mol_Feturizer/New_Systems/rnas/3SUX

>  <Rbt.Executable>
rbdock ($Id: //depot/dev/client3/rdock/2013.1/src/exe/rbdock.cxx#4 $)

>  <Rbt.Library>
libRbt.so (2013.1, Build901 2013/11/27)

>  <Rbt.Parameter_File>
/export/apps/rDock/src/rDock_2013.1_src/data/scripts/dock_solv.prm

>  <Rbt.Receptor>
prm/pocket_docking_7.prm

>  <SCORE>
-7.06417

>  <SCORE.INTER>
-7.06417

>  <SCORE.INTER.CONST>
1

>  <SCORE.INTER.POLAR>
0

>  <SCORE.INTER.ROT>
0

>  <SCORE.INTER.SOLV>
11.2424

>  <SCORE.INTER.VDW>
-12.0569

>  <SCORE.INTER.norm>
-0.543398

>  <SCORE.INTRA>
0

>  <SCORE.INTRA.DIHEDRAL>
0

>  <SCORE.INTRA.DIHEDRAL.0>
0

>  <SCORE.INTRA.POLAR>
0

>  <SCORE.INTRA.POLAR.0>
0

>  <SCORE.INTRA.REPUL>
0

>  <SCORE.INTRA.REPUL.0>
0

>  <SCORE.INTRA.SOLV>
0

>  <SCORE.INTRA.SOLV.lig_0>
-48.6608

>  <SCORE.INTRA.VDW>
0

>  <SCORE.INTRA.VDW.0>
0

>  <SCORE.INTRA.norm>
0

>  <SCORE.RESTR>
0

>  <SCORE.RESTR.CAVITY>
0

>  <SCORE.RESTR.norm>
0

>  <SCORE.SYSTEM>
0

>  <SCORE.SYSTEM.CONST>
0

>  <SCORE.SYSTEM.DIHEDRAL>
0

>  <SCORE.SYSTEM.SOLV>
0

>  <SCORE.SYSTEM.norm>
0

>  <SCORE.heavy>
13

>  <SCORE.norm>
-0.543398

>  <RMSD>
2.900

$$$$
ligand
 OpenBabel11021811483D
libRbt.so/2013.1/901 2013/11/27
 13 14  0  0  0  0  0  0  0  0999 V2000
   12.8653   45.9346   69.5239 N   0  0  0  0  0  0  0  0  0  0  0  0
   10.8952   44.7570   69.8495 N   0  0  0  0  0  0  0  0  0  0  0  0
   11.9874   45.0251   69.1103 C   0  0  0  0  0  0  0  0  0  0  0  0
   12.2016   44.3639   67.9016 N   0  0  0  0  0  0  0  0  0  0  0  0
   11.2656   43.4139   67.4880 C   0  0  0  0  0  0  0  0  0  0  0  0
   10.1525   43.1449   68.2777 C   0  0  0  0  0  0  0  0  0  0  0  0
   11.4235   42.8195   66.4222 O   0  0  0  0  0  0  0  0  0  0  0  0
    9.1878   42.2178   67.8396 N   0  0  0  0  0  0  0  0  0  0  0  0
    8.0023   41.8495   68.6645 C   0  0  2  0  0  0  0  0  0  0  0  0
    7.6285   43.0351   69.5704 C   0  0  0  0  0  0  0  0  0  0  0  0
    9.9799   43.8518   69.4593 C   0  0  0  0  0  0  0  0  0  0  0  0
    8.8479   43.6007   70.2440 N   0  0  0  0  0  0  0  0  0  0  0  0
    8.3697   40.6125   69.5376 C   0  0  0  0  0  0  0  0  0  0  0  0
  1  3  1  0  0  0  0
  2  3  2  0  0  0  0
  2 11  1  0  0  0  0
  3  4  1  0  0  0  0
  4  5  1  0  0  0  0
  5  6  1  0  0  0  0
  5  7  2  0  0  0  0
  6  8  1  0  0  0  0
  6 11  2  0  0  0  0
  8  9  1  0  0  0  0
  9 10  1  0  0  0  0
  9 13  1  1  0  0  0
 10 12  1  0  0  0  0
 11 12  1  0  0  0  0
M  END
>  <CHROM.1>
10.20238132,43.39892123,68.74737392,0.30770814,0.59104688,0.89542342

>  <Name>
ligand

>  <RI>
0

>  <Rbt.Current_Directory>
/home/itssahil/PROJECTS/Mol_Feturizer/New_Systems/rnas/3SUX

>  <Rbt.Executable>
rbdock ($Id: //depot/dev/client3/rdock/2013.1/src/exe/rbdock.cxx#4 $)

>  <Rbt.Library>
libRbt.so (2013.1, Build901 2013/11/27)

>  <Rbt.Parameter_File>
/export/apps/rDock/src/rDock_2013.1_src/data/scripts/dock_solv.prm

>  <Rbt.Receptor>
prm/pocket_docking_3.prm

>  <SCORE>
-7.04655

>  <SCORE.INTER>
-7.04655

>  <SCORE.INTER.CONST>
1

>  <SCORE.INTER.POLAR>
0

>  <SCORE.INTER.ROT>
0

>  <SCORE.INTER.SOLV>
11.7455

>  <SCORE.INTER.VDW>
-12.2129

>  <SCORE.INTER.norm>
-0.542042

>  <SCORE.INTRA>
0

>  <SCORE.INTRA.DIHEDRAL>
0

>  <SCORE.INTRA.DIHEDRAL.0>
0

>  <SCORE.INTRA.POLAR>
0

>  <SCORE.INTRA.POLAR.0>
0

>  <SCORE.INTRA.REPUL>
0

>  <SCORE.INTRA.REPUL.0>
0

>  <SCORE.INTRA.SOLV>
0

>  <SCORE.INTRA.SOLV.lig_0>
-48.6608

>  <SCORE.INTRA.VDW>
0

>  <SCORE.INTRA.VDW.0>
0

>  <SCORE.INTRA.norm>
0

>  <SCORE.RESTR>
0

>  <SCORE.RESTR.CAVITY>
0

>  <SCORE.RESTR.norm>
0

>  <SCORE.SYSTEM>
0

>  <SCORE.SYSTEM.CONST>
0

>  <SCORE.SYSTEM.DIHEDRAL>
0

>  <SCORE.SYSTEM.SOLV>
0

>  <SCORE.SYSTEM.norm>
0

>  <SCORE.heavy>
13

>  <SCORE.norm>
-0.542042

>  <RMSD>
2.901

$$$$
ligand
 OpenBabel11021811483D
libRbt.so/2013.1/901 2013/11/27
 13 14  0  0  0  0  0  0  0  0999 V2000
   12.7336   46.0146   69.4504 N   0  0  0  0  0  0  0  0  0  0  0  0
   10.8082   44.7786   69.8229 N   0  0  0  0  0  0  0  0  0  0  0  0
   11.8783   45.0733   69.0618 C   0  0  0  0  0  0  0  0  0  0  0  0
   12.0925   44.4061   67.8564 N   0  0  0  0  0  0  0  0  0  0  0  0
   11.1804   43.4223   67.4692 C   0  0  0  0  0  0  0  0  0  0  0  0
   10.0904   43.1266   68.2813 C   0  0  0  0  0  0  0  0  0  0  0  0
   11.3388   42.8217   66.4070 O   0  0  0  0  0  0  0  0  0  0  0  0
    9.1484   42.1645   67.8698 N   0  0  0  0  0  0  0  0  0  0  0  0
    7.9898   41.7677   68.7194 C   0  0  2  0  0  0  0  0  0  0  0  0
    7.5940   42.9505   69.6194 C   0  0  0  0  0  0  0  0  0  0  0  0
    9.9157   43.8404   69.4583 C   0  0  0  0  0  0  0  0  0  0  0  0
    8.8062   43.5620   70.2655 N   0  0  0  0  0  0  0  0  0  0  0  0
    8.4118   40.5525   69.5985 C   0  0  0  0  0  0  0  0  0  0  0  0
  1  3  1  0  0  0  0
  2  3  2  0  0  0  0
  2 11  1  0  0  0  0
  3  4  1  0  0  0  0
  4  5  1  0  0  0  0
  5  6  1  0  0  0  0
  5  7  2  0  0  0  0
  6  8  1  0  0  0  0
  6 11  2  0  0  0  0
  8  9  1  0  0  0  0
  9 10  1  0  0  0  0
  9 13  1  1  0  0  0
 10 12  1  0  0  0  0
 11 12  1  0  0  0  0
M  END
>  <CHROM.1>
10.14024596,43.38717430,68.74731779,0.31573164,0.62688342,0.88022172

>  <Name>
ligand

>  <RI>
0

>  <Rbt.Current_Directory>
/home/itssahil/PROJECTS/Mol_Feturizer/New_Systems/rnas/3SUX

>  <Rbt.Executable>
rbdock ($Id: //depot/dev/client3/rdock/2013.1/src/exe/rbdock.cxx#4 $)

>  <Rbt.Library>
libRbt.so (2013.1, Build901 2013/11/27)

>  <Rbt.Parameter_File>
/export/apps/rDock/src/rDock_2013.1_src/data/scripts/dock_solv.prm

>  <Rbt.Receptor>
prm/pocket_docking_3.prm

>  <SCORE>
-7.05361

>  <SCORE.INTER>
-7.05361

>  <SCORE.INTER.CONST>
1

>  <SCORE.INTER.POLAR>
0

>  <SCORE.INTER.ROT>
0

>  <SCORE.INTER.SOLV>
11.5465

>  <SCORE.INTER.VDW>
-12.1512

>  <SCORE.INTER.norm>
-0.542585

>  <SCORE.INTRA>
0

>  <SCORE.INTRA.DIHEDRAL>
0

>  <SCORE.INTRA.DIHEDRAL.0>
0

>  <SCORE.INTRA.POLAR>
0

>  <SCORE.INTRA.POLAR.0>
0

>  <SCORE.INTRA.REPUL>
0

>  <SCORE.INTRA.REPUL.0>
0

>  <SCORE.INTRA.SOLV>
0

>  <SCORE.INTRA.SOLV.lig_0>
-48.6608

>  <SCORE.INTRA.VDW>
0

>  <SCORE.INTRA.VDW.0>
0

>  <SCORE.INTRA.norm>
0

>  <SCORE.RESTR>
0

>  <SCORE.RESTR.CAVITY>
0

>  <SCORE.RESTR.norm>
0

>  <SCORE.SYSTEM>
0

>  <SCORE.SYSTEM.CONST>
0

>  <SCORE.SYSTEM.DIHEDRAL>
0

>  <SCORE.SYSTEM.SOLV>
0

>  <SCORE.SYSTEM.norm>
0

>  <SCORE.heavy>
13

>  <SCORE.norm>
-0.542585

>  <RMSD>
2.901

$$$$
ligand
 OpenBabel11021811483D
libRbt.so/2013.1/901 2013/11/27
 13 14  0  0  0  0  0  0  0  0999 V2000
   12.8717   45.9385   69.5240 N   0  0  0  0  0  0  0  0  0  0  0  0
   10.9001   44.7656   69.8571 N   0  0  0  0  0  0  0  0  0  0  0  0
   11.9911   45.0298   69.1147 C   0  0  0  0  0  0  0  0  0  0  0  0
   12.2010   44.3654   67.9070 N   0  0  0  0  0  0  0  0  0  0  0  0
   11.2621   43.4163   67.4979 C   0  0  0  0  0  0  0  0  0  0  0  0
   10.1504   43.1513   68.2909 C   0  0  0  0  0  0  0  0  0  0  0  0
   11.4163   42.8191   66.4331 O   0  0  0  0  0  0  0  0  0  0  0  0
    9.1827   42.2252   67.8573 N   0  0  0  0  0  0  0  0  0  0  0  0
    7.9985   41.8612   68.6859 C   0  0  2  0  0  0  0  0  0  0  0  0
    7.6293   43.0496   69.5899 C   0  0  0  0  0  0  0  0  0  0  0  0
    9.9820   43.8613   69.4712 C   0  0  0  0  0  0  0  0  0  0  0  0
    8.8514   43.6144   70.2593 N   0  0  0  0  0  0  0  0  0  0  0  0
    8.3656   40.6254   69.5609 C   0  0  0  0  0  0  0  0  0  0  0  0
  1  3  1  0  0  0  0
  2  3  2  0  0  0  0
  2 11  1  0  0  0  0
  3  4  1  0  0  0  0
  4  5  1  0  0  0  0
  5  6  1  0  0  0  0
  5  7  2  0  0  0  0
  6  8  1  0  0  0  0
  6 11  2  0  0  0  0
  8  9  1  0  0  0  0
  9 10  1  0  0  0  0
  9 13  1  1  0  0  0
 10 12  1  0  0  0  0
 11 12  1  0  0  0  0
M  END
>  <CHROM.1>
10.20188875,43.40635153,68.75985721,0.30394760,0.59098482,0.89518294

>  <Name>
ligand

>  <RI>
0

>  <Rbt.Current_Directory>
/home/itssahil/PROJECTS/Mol_Feturizer/New_Systems/rnas/3SUX

>  <Rbt.Executable>
rbdock ($Id: //depot/dev/client3/rdock/2013.1/src/exe/rbdock.cxx#4 $)

>  <Rbt.Library>
libRbt.so (2013.1, Build901 2013/11/27)

>  <Rbt.Parameter_File>
/export/apps/rDock/src/rDock_2013.1_src/data/scripts/dock_solv.prm

>  <Rbt.Receptor>
prm/pocket_docking_3.prm

>  <SCORE>
-7.05778

>  <SCORE.INTER>
-7.05778

>  <SCORE.INTER.CONST>
1

>  <SCORE.INTER.POLAR>
0

>  <SCORE.INTER.ROT>
0

>  <SCORE.INTER.SOLV>
11.6996

>  <SCORE.INTER.VDW>
-12.205

>  <SCORE.INTER.norm>
-0.542906

>  <SCORE.INTRA>
0

>  <SCORE.INTRA.DIHEDRAL>
0

>  <SCORE.INTRA.DIHEDRAL.0>
0

>  <SCORE.INTRA.POLAR>
0

>  <SCORE.INTRA.POLAR.0>
0

>  <SCORE.INTRA.REPUL>
0

>  <SCORE.INTRA.REPUL.0>
0

>  <SCORE.INTRA.SOLV>
0

>  <SCORE.INTRA.SOLV.lig_0>
-48.6608

>  <SCORE.INTRA.VDW>
0

>  <SCORE.INTRA.VDW.0>
0

>  <SCORE.INTRA.norm>
0

>  <SCORE.RESTR>
0

>  <SCORE.RESTR.CAVITY>
0

>  <SCORE.RESTR.norm>
0

>  <SCORE.SYSTEM>
0

>  <SCORE.SYSTEM.CONST>
0

>  <SCORE.SYSTEM.DIHEDRAL>
0

>  <SCORE.SYSTEM.SOLV>
0

>  <SCORE.SYSTEM.norm>
0

>  <SCORE.heavy>
13

>  <SCORE.norm>
-0.542906

>  <RMSD>
2.902

$$$$
ligand
 OpenBabel11021811483D
libRbt.so/2013.1/901 2013/11/27
 13 14  0  0  0  0  0  0  0  0999 V2000
   12.6699   46.0445   69.5014 N   0  0  0  0  0  0  0  0  0  0  0  0
   10.7515   44.7886   69.8421 N   0  0  0  0  0  0  0  0  0  0  0  0
   11.8404   45.0823   69.1078 C   0  0  0  0  0  0  0  0  0  0  0  0
   12.1013   44.3922   67.9248 N   0  0  0  0  0  0  0  0  0  0  0  0
   11.2156   43.3868   67.5318 C   0  0  0  0  0  0  0  0  0  0  0  0
   10.1051   43.0929   68.3164 C   0  0  0  0  0  0  0  0  0  0  0  0
   11.4153   42.7655   66.4887 O   0  0  0  0  0  0  0  0  0  0  0  0
    9.1900   42.1083   67.8978 N   0  0  0  0  0  0  0  0  0  0  0  0
    8.0113   41.7131   68.7200 C   0  0  2  0  0  0  0  0  0  0  0  0
    7.5712   42.9093   69.5808 C   0  0  0  0  0  0  0  0  0  0  0  0
    9.8840   43.8297   69.4713 C   0  0  0  0  0  0  0  0  0  0  0  0
    8.7540   43.5526   70.2500 N   0  0  0  0  0  0  0  0  0  0  0  0
    8.4228   40.5238   69.6386 C   0  0  0  0  0  0  0  0  0  0  0  0
  1  3  1  0  0  0  0
  2  3  2  0  0  0  0
  2 11  1  0  0  0  0
  3  4  1  0  0  0  0
  4  5  1  0  0  0  0
  5  6  1  0  0  0  0
  5  7  2  0  0  0  0
  6  8  1  0  0  0  0
  6 11  2  0  0  0  0
  8  9  1  0  0  0  0
  9 10  1  0  0  0  0
  9 13  1  1  0  0  0
 10 12  1  0  0  0  0
 11 12  1  0  0  0  0
M  END
>  <CHROM.1>
10.13684677,43.36431658,68.77783295,0.35606795,0.61756469,0.83460777

>  <Name>
ligand

>  <RI>
0

>  <Rbt.Current_Directory>
/home/itssahil/PROJECTS/Mol_Feturizer/New_Systems/rnas/3SUX

>  <Rbt.Executable>
rbdock ($Id: //depot/dev/client3/rdock/2013.1/src/exe/rbdock.cxx#4 $)

>  <Rbt.Library>
libRbt.so (2013.1, Build901 2013/11/27)

>  <Rbt.Parameter_File>
/export/apps/rDock/src/rDock_2013.1_src/data/scripts/dock_solv.prm

>  <Rbt.Receptor>
prm/pocket_docking_3.prm

>  <SCORE>
-7.00825

>  <SCORE.INTER>
-7.00825

>  <SCORE.INTER.CONST>
1

>  <SCORE.INTER.POLAR>
0

>  <SCORE.INTER.ROT>
0

>  <SCORE.INTER.SOLV>
11.023

>  <SCORE.INTER.VDW>
-11.9465

>  <SCORE.INTER.norm>
-0.539096

>  <SCORE.INTRA>
0

>  <SCORE.INTRA.DIHEDRAL>
0

>  <SCORE.INTRA.DIHEDRAL.0>
0

>  <SCORE.INTRA.POLAR>
0

>  <SCORE.INTRA.POLAR.0>
0

>  <SCORE.INTRA.REPUL>
0

>  <SCORE.INTRA.REPUL.0>
0

>  <SCORE.INTRA.SOLV>
0

>  <SCORE.INTRA.SOLV.lig_0>
-48.6608

>  <SCORE.INTRA.VDW>
0

>  <SCORE.INTRA.VDW.0>
0

>  <SCORE.INTRA.norm>
0

>  <SCORE.RESTR>
0

>  <SCORE.RESTR.CAVITY>
0

>  <SCORE.RESTR.norm>
0

>  <SCORE.SYSTEM>
0

>  <SCORE.SYSTEM.CONST>
0

>  <SCORE.SYSTEM.DIHEDRAL>
0

>  <SCORE.SYSTEM.SOLV>
0

>  <SCORE.SYSTEM.norm>
0

>  <SCORE.heavy>
13

>  <SCORE.norm>
-0.539096

>  <RMSD>
2.903

$$$$
ligand
 OpenBabel11021811483D
libRbt.so/2013.1/901 2013/11/27
 13 14  0  0  0  0  0  0  0  0999 V2000
   12.8702   45.9309   69.5336 N   0  0  0  0  0  0  0  0  0  0  0  0
   10.8985   44.7563   69.8593 N   0  0  0  0  0  0  0  0  0  0  0  0
   11.9901   45.0242   69.1191 C   0  0  0  0  0  0  0  0  0  0  0  0
   12.2011   44.3657   67.9084 N   0  0  0  0  0  0  0  0  0  0  0  0
   11.2627   43.4184   67.4938 C   0  0  0  0  0  0  0  0  0  0  0  0
   10.1503   43.1495   68.2846 C   0  0  0  0  0  0  0  0  0  0  0  0
   11.4179   42.8265   66.4263 O   0  0  0  0  0  0  0  0  0  0  0  0
    9.1832   42.2254   67.8456 N   0  0  0  0  0  0  0  0  0  0  0  0
    7.9982   41.8573   68.6714 C   0  0  2  0  0  0  0  0  0  0  0  0
    7.6281   43.0412   69.5808 C   0  0  0  0  0  0  0  0  0  0  0  0
    9.9808   43.8537   69.4682 C   0  0  0  0  0  0  0  0  0  0  0  0
    8.8496   43.6029   70.2540 N   0  0  0  0  0  0  0  0  0  0  0  0
    8.3647   40.6173   69.5407 C   0  0  0  0  0  0  0  0  0  0  0  0
  1  3  1  0  0  0  0
  2  3  2  0  0  0  0
  2 11  1  0  0  0  0
  3  4  1  0  0  0  0
  4  5  1  0  0  0  0
  5  6  1  0  0  0  0
  5  7  2  0  0  0  0
  6  8  1  0  0  0  0
  6 11  2  0  0  0  0
  8  9  1  0  0  0  0
  9 10  1  0  0  0  0
  9 13  1  1  0  0  0
 10 12  1  0  0  0  0
 11 12  1  0  0  0  0
M  END
>  <CHROM.1>
10.20138140,43.40227739,68.75479155,0.30486446,0.59051232,0.89953199

>  <Name>
ligand

>  <RI>
0

>  <Rbt.Current_Directory>
/home/itssahil/PROJECTS/Mol_Feturizer/New_Systems/rnas/3SUX

>  <Rbt.Executable>
rbdock ($Id: //depot/dev/client3/rdock/2013.1/src/exe/rbdock.cxx#4 $)

>  <Rbt.Library>
libRbt.so (2013.1, Build901 2013/11/27)

>  <Rbt.Parameter_File>
/export/apps/rDock/src/rDock_2013.1_src/data/scripts/dock_solv.prm

>  <Rbt.Receptor>
prm/pocket_docking_3.prm

>  <SCORE>
-7.05357

>  <SCORE.INTER>
-7.05357

>  <SCORE.INTER.CONST>
1

>  <SCORE.INTER.POLAR>
0

>  <SCORE.INTER.ROT>
0

>  <SCORE.INTER.SOLV>
11.6998

>  <SCORE.INTER.VDW>
-12.2023

>  <SCORE.INTER.norm>
-0.542583

>  <SCORE.INTRA>
0

>  <SCORE.INTRA.DIHEDRAL>
0

>  <SCORE.INTRA.DIHEDRAL.0>
0

>  <SCORE.INTRA.POLAR>
0

>  <SCORE.INTRA.POLAR.0>
0

>  <SCORE.INTRA.REPUL>
0

>  <SCORE.INTRA.REPUL.0>
0

>  <SCORE.INTRA.SOLV>
0

>  <SCORE.INTRA.SOLV.lig_0>
-48.6608

>  <SCORE.INTRA.VDW>
0

>  <SCORE.INTRA.VDW.0>
0

>  <SCORE.INTRA.norm>
0

>  <SCORE.RESTR>
0

>  <SCORE.RESTR.CAVITY>
0

>  <SCORE.RESTR.norm>
0

>  <SCORE.SYSTEM>
0

>  <SCORE.SYSTEM.CONST>
0

>  <SCORE.SYSTEM.DIHEDRAL>
0

>  <SCORE.SYSTEM.SOLV>
0

>  <SCORE.SYSTEM.norm>
0

>  <SCORE.heavy>
13

>  <SCORE.norm>
-0.542583

>  <RMSD>
2.903

$$$$
ligand
 OpenBabel11021811483D
libRbt.so/2013.1/901 2013/11/27
 13 14  0  0  0  0  0  0  0  0999 V2000
   12.8145   45.9671   69.5155 N   0  0  0  0  0  0  0  0  0  0  0  0
   10.8534   44.7728   69.8339 N   0  0  0  0  0  0  0  0  0  0  0  0
   11.9486   45.0467   69.1012 C   0  0  0  0  0  0  0  0  0  0  0  0
   12.1781   44.3799   67.8984 N   0  0  0  0  0  0  0  0  0  0  0  0
   11.2544   43.4183   67.4839 C   0  0  0  0  0  0  0  0  0  0  0  0
   10.1380   43.1436   68.2671 C   0  0  0  0  0  0  0  0  0  0  0  0
   11.4261   42.8188   66.4232 O   0  0  0  0  0  0  0  0  0  0  0  0
    9.1855   42.2046   67.8277 N   0  0  0  0  0  0  0  0  0  0  0  0
    7.9974   41.8302   68.6461 C   0  0  2  0  0  0  0  0  0  0  0  0
    7.6055   43.0178   69.5415 C   0  0  0  0  0  0  0  0  0  0  0  0
    9.9497   43.8563   69.4427 C   0  0  0  0  0  0  0  0  0  0  0  0
    8.8143   43.5994   70.2205 N   0  0  0  0  0  0  0  0  0  0  0  0
    8.3701   40.6023   69.5298 C   0  0  0  0  0  0  0  0  0  0  0  0
  1  3  1  0  0  0  0
  2  3  2  0  0  0  0
  2 11  1  0  0  0  0
  3  4  1  0  0  0  0
  4  5  1  0  0  0  0
  5  6  1  0  0  0  0
  5  7  2  0  0  0  0
  6  8  1  0  0  0  0
  6 11  2  0  0  0  0
  8  9  1  0  0  0  0
  9 10  1  0  0  0  0
  9 13  1  1  0  0  0
 10 12  1  0  0  0  0
 11 12  1  0  0  0  0
M  END
>  <CHROM.1>
10.18191342,43.40114475,68.73541504,0.32201775,0.59374268,0.88104603

>  <Name>
ligand

>  <RI>
0

>  <Rbt.Current_Directory>
/home/itssahil/PROJECTS/Mol_Feturizer/New_Systems/rnas/3SUX

>  <Rbt.Executable>
rbdock ($Id: //depot/dev/client3/rdock/2013.1/src/exe/rbdock.cxx#4 $)

>  <Rbt.Library>
libRbt.so (2013.1, Build901 2013/11/27)

>  <Rbt.Parameter_File>
/export/apps/rDock/src/rDock_2013.1_src/data/scripts/dock_solv.prm

>  <Rbt.Receptor>
prm/pocket_docking_5.prm

>  <SCORE>
-7.03788

>  <SCORE.INTER>
-7.03788

>  <SCORE.INTER.CONST>
1

>  <SCORE.INTER.POLAR>
0

>  <SCORE.INTER.ROT>
0

>  <SCORE.INTER.SOLV>
11.7164

>  <SCORE.INTER.VDW>
-12.1974

>  <SCORE.INTER.norm>
-0.541375

>  <SCORE.INTRA>
0

>  <SCORE.INTRA.DIHEDRAL>
0

>  <SCORE.INTRA.DIHEDRAL.0>
0

>  <SCORE.INTRA.POLAR>
0

>  <SCORE.INTRA.POLAR.0>
0

>  <SCORE.INTRA.REPUL>
0

>  <SCORE.INTRA.REPUL.0>
0

>  <SCORE.INTRA.SOLV>
0

>  <SCORE.INTRA.SOLV.lig_0>
-48.6608

>  <SCORE.INTRA.VDW>
0

>  <SCORE.INTRA.VDW.0>
0

>  <SCORE.INTRA.norm>
0

>  <SCORE.RESTR>
0

>  <SCORE.RESTR.CAVITY>
0

>  <SCORE.RESTR.norm>
0

>  <SCORE.SYSTEM>
0

>  <SCORE.SYSTEM.CONST>
0

>  <SCORE.SYSTEM.DIHEDRAL>
0

>  <SCORE.SYSTEM.SOLV>
0

>  <SCORE.SYSTEM.norm>
0

>  <SCORE.heavy>
13

>  <SCORE.norm>
-0.541375

>  <RMSD>
2.904

$$$$
ligand
 OpenBabel11021811483D
libRbt.so/2013.1/901 2013/11/27
 13 14  0  0  0  0  0  0  0  0999 V2000
   13.6055   45.3690   70.6079 N   0  0  0  0  0  0  0  0  0  0  0  0
   11.5042   44.4143   70.3919 N   0  0  0  0  0  0  0  0  0  0  0  0
   12.7076   44.7195   69.8726 C   0  0  0  0  0  0  0  0  0  0  0  0
   13.0187   44.3706   68.5590 N   0  0  0  0  0  0  0  0  0  0  0  0
   12.0596   43.6898   67.8065 C   0  0  0  0  0  0  0  0  0  0  0  0
   10.8286   43.3733   68.3717 C   0  0  0  0  0  0  0  0  0  0  0  0
   12.3024   43.3753   66.6419 O   0  0  0  0  0  0  0  0  0  0  0  0
    9.8467   42.7246   67.5989 N   0  0  0  0  0  0  0  0  0  0  0  0
    8.5298   42.3135   68.1632 C   0  0  2  0  0  0  0  0  0  0  0  0
    8.1536   43.2633   69.3131 C   0  0  0  0  0  0  0  0  0  0  0  0
   10.5666   43.7676   69.6761 C   0  0  0  0  0  0  0  0  0  0  0  0
    9.3193   43.4722   70.2395 N   0  0  0  0  0  0  0  0  0  0  0  0
    8.6528   40.8561   68.7002 C   0  0  0  0  0  0  0  0  0  0  0  0
  1  3  1  0  0  0  0
  2  3  2  0  0  0  0
  2 11  1  0  0  0  0
  3  4  1  0  0  0  0
  4  5  1  0  0  0  0
  5  6  1  0  0  0  0
  5  7  2  0  0  0  0
  6  8  1  0  0  0  0
  6 11  2  0  0  0  0
  8  9  1  0  0  0  0
  9 10  1  0  0  0  0
  9 13  1  1  0  0  0
 10 12  1  0  0  0  0
 11 12  1  0  0  0  0
M  END
>  <CHROM.1>
10.83861738,43.48885301,68.89530409,0.35746296,0.42861135,1.14134314

>  <Name>
ligand

>  <RI>
0

>  <Rbt.Current_Directory>
/home/itssahil/PROJECTS/Mol_Feturizer/New_Systems/rnas/3SUX

>  <Rbt.Executable>
rbdock ($Id: //depot/dev/client3/rdock/2013.1/src/exe/rbdock.cxx#4 $)

>  <Rbt.Library>
libRbt.so (2013.1, Build901 2013/11/27)

>  <Rbt.Parameter_File>
/export/apps/rDock/src/rDock_2013.1_src/data/scripts/dock_solv.prm

>  <Rbt.Receptor>
prm/pocket_docking_4.prm

>  <SCORE>
-6.39342

>  <SCORE.INTER>
-6.39342

>  <SCORE.INTER.CONST>
1

>  <SCORE.INTER.POLAR>
0

>  <SCORE.INTER.ROT>
0

>  <SCORE.INTER.SOLV>
10.7944

>  <SCORE.INTER.VDW>
-11.4604

>  <SCORE.INTER.norm>
-0.491801

>  <SCORE.INTRA>
0

>  <SCORE.INTRA.DIHEDRAL>
0

>  <SCORE.INTRA.DIHEDRAL.0>
0

>  <SCORE.INTRA.POLAR>
0

>  <SCORE.INTRA.POLAR.0>
0

>  <SCORE.INTRA.REPUL>
0

>  <SCORE.INTRA.REPUL.0>
0

>  <SCORE.INTRA.SOLV>
0

>  <SCORE.INTRA.SOLV.lig_0>
-48.6608

>  <SCORE.INTRA.VDW>
0

>  <SCORE.INTRA.VDW.0>
0

>  <SCORE.INTRA.norm>
0

>  <SCORE.RESTR>
0

>  <SCORE.RESTR.CAVITY>
0

>  <SCORE.RESTR.norm>
0

>  <SCORE.SYSTEM>
0

>  <SCORE.SYSTEM.CONST>
0

>  <SCORE.SYSTEM.DIHEDRAL>
0

>  <SCORE.SYSTEM.SOLV>
0

>  <SCORE.SYSTEM.norm>
0

>  <SCORE.heavy>
13

>  <SCORE.norm>
-0.491801

>  <RMSD>
3.059

$$$$
ligand
 OpenBabel11021811483D
libRbt.so/2013.1/901 2013/11/27
 13 14  0  0  0  0  0  0  0  0999 V2000
   14.3701   45.6643   71.2960 N   0  0  0  0  0  0  0  0  0  0  0  0
   13.0883   44.9555   69.4993 N   0  0  0  0  0  0  0  0  0  0  0  0
   13.6713   44.7105   70.6872 C   0  0  0  0  0  0  0  0  0  0  0  0
   13.5596   43.4548   71.2828 N   0  0  0  0  0  0  0  0  0  0  0  0
   12.8215   42.4693   70.6242 C   0  0  0  0  0  0  0  0  0  0  0  0
   12.2166   42.7527   69.4041 C   0  0  0  0  0  0  0  0  0  0  0  0
   12.7115   41.3491   71.1214 O   0  0  0  0  0  0  0  0  0  0  0  0
   11.5082   41.7461   68.7206 N   0  0  0  0  0  0  0  0  0  0  0  0
   10.7957   42.0030   67.4369 C   0  0  2  0  0  0  0  0  0  0  0  0
   11.5027   43.1436   66.6854 C   0  0  0  0  0  0  0  0  0  0  0  0
   12.3825   44.0133   68.8483 C   0  0  0  0  0  0  0  0  0  0  0  0
   11.7954   44.2938   67.6086 N   0  0  0  0  0  0  0  0  0  0  0  0
    9.3268   42.4119   67.7574 C   0  0  0  0  0  0  0  0  0  0  0  0
  1  3  1  0  0  0  0
  2  3  2  0  0  0  0
  2 11  1  0  0  0  0
  3  4  1  0  0  0  0
  4  5  1  0  0  0  0
  5  6  1  0  0  0  0
  5  7  2  0  0  0  0
  6  8  1  0  0  0  0
  6 11  2  0  0  0  0
  8  9  1  0  0  0  0
  9 10  1  0  0  0  0
  9 13  1  1  0  0  0
 10 12  1  0  0  0  0
 11 12  1  0  0  0  0
M  END
>  <CHROM.1>
12.26230095,43.27695117,69.30070659,-0.11902012,-0.89579336,-0.63610400

>  <Name>
ligand

>  <RI>
0

>  <Rbt.Current_Directory>
/home/itssahil/PROJECTS/Mol_Feturizer/New_Systems/rnas/3SUX

>  <Rbt.Executable>
rbdock ($Id: //depot/dev/client3/rdock/2013.1/src/exe/rbdock.cxx#4 $)

>  <Rbt.Library>
libRbt.so (2013.1, Build901 2013/11/27)

>  <Rbt.Parameter_File>
/export/apps/rDock/src/rDock_2013.1_src/data/scripts/dock_solv.prm

>  <Rbt.Receptor>
prm/pocket_docking_4.prm

>  <SCORE>
-7.12083

>  <SCORE.INTER>
-7.12083

>  <SCORE.INTER.CONST>
1

>  <SCORE.INTER.POLAR>
0

>  <SCORE.INTER.ROT>
0

>  <SCORE.INTER.SOLV>
13.6539

>  <SCORE.INTER.VDW>
-12.8985

>  <SCORE.INTER.norm>
-0.547756

>  <SCORE.INTRA>
0

>  <SCORE.INTRA.DIHEDRAL>
0

>  <SCORE.INTRA.DIHEDRAL.0>
0

>  <SCORE.INTRA.POLAR>
0

>  <SCORE.INTRA.POLAR.0>
0

>  <SCORE.INTRA.REPUL>
0

>  <SCORE.INTRA.REPUL.0>
0

>  <SCORE.INTRA.SOLV>
0

>  <SCORE.INTRA.SOLV.lig_0>
-48.6608

>  <SCORE.INTRA.VDW>
0

>  <SCORE.INTRA.VDW.0>
0

>  <SCORE.INTRA.norm>
0

>  <SCORE.RESTR>
0

>  <SCORE.RESTR.CAVITY>
0

>  <SCORE.RESTR.norm>
0

>  <SCORE.SYSTEM>
0

>  <SCORE.SYSTEM.CONST>
0

>  <SCORE.SYSTEM.DIHEDRAL>
0

>  <SCORE.SYSTEM.SOLV>
0

>  <SCORE.SYSTEM.norm>
0

>  <SCORE.heavy>
13

>  <SCORE.norm>
-0.547756

>  <RMSD>
3.774

$$$$
ligand
 OpenBabel11021811483D
libRbt.so/2013.1/901 2013/11/27
 13 14  0  0  0  0  0  0  0  0999 V2000
   14.4127   45.6519   71.2876 N   0  0  0  0  0  0  0  0  0  0  0  0
   13.0890   44.9652   69.5128 N   0  0  0  0  0  0  0  0  0  0  0  0
   13.7203   44.6985   70.6710 C   0  0  0  0  0  0  0  0  0  0  0  0
   13.6655   43.4210   71.2269 N   0  0  0  0  0  0  0  0  0  0  0  0
   12.9329   42.4364   70.5609 C   0  0  0  0  0  0  0  0  0  0  0  0
   12.2775   42.7420   69.3725 C   0  0  0  0  0  0  0  0  0  0  0  0
   12.8725   41.2977   71.0231 O   0  0  0  0  0  0  0  0  0  0  0  0
   11.5744   41.7380   68.6798 N   0  0  0  0  0  0  0  0  0  0  0  0
   10.8100   42.0159   67.4308 C   0  0  2  0  0  0  0  0  0  0  0  0
   11.4574   43.2013   66.6948 C   0  0  0  0  0  0  0  0  0  0  0  0
   12.3878   44.0247   68.8546 C   0  0  0  0  0  0  0  0  0  0  0  0
   11.7496   44.3284   67.6461 N   0  0  0  0  0  0  0  0  0  0  0  0
    9.3423   42.3703   67.8153 C   0  0  0  0  0  0  0  0  0  0  0  0
  1  3  1  0  0  0  0
  2  3  2  0  0  0  0
  2 11  1  0  0  0  0
  3  4  1  0  0  0  0
  4  5  1  0  0  0  0
  5  6  1  0  0  0  0
  5  7  2  0  0  0  0
  6  8  1  0  0  0  0
  6 11  2  0  0  0  0
  8  9  1  0  0  0  0
  9 10  1  0  0  0  0
  9 13  1  1  0  0  0
 10 12  1  0  0  0  0
 11 12  1  0  0  0  0
M  END
>  <CHROM.1>
12.30463984,43.27048089,69.28558354,-0.04990261,-0.88313690,-0.54881353

>  <Name>
ligand

>  <RI>
0

>  <Rbt.Current_Directory>
/home/itssahil/PROJECTS/Mol_Feturizer/New_Systems/rnas/3SUX

>  <Rbt.Executable>
rbdock ($Id: //depot/dev/client3/rdock/2013.1/src/exe/rbdock.cxx#4 $)

>  <Rbt.Library>
libRbt.so (2013.1, Build901 2013/11/27)

>  <Rbt.Parameter_File>
/export/apps/rDock/src/rDock_2013.1_src/data/scripts/dock_solv.prm

>  <Rbt.Receptor>
prm/pocket_docking_5.prm

>  <SCORE>
-7.09285

>  <SCORE.INTER>
-7.09285

>  <SCORE.INTER.CONST>
1

>  <SCORE.INTER.POLAR>
0

>  <SCORE.INTER.ROT>
0

>  <SCORE.INTER.SOLV>
14.1497

>  <SCORE.INTER.VDW>
-13.0451

>  <SCORE.INTER.norm>
-0.545604

>  <SCORE.INTRA>
0

>  <SCORE.INTRA.DIHEDRAL>
0

>  <SCORE.INTRA.DIHEDRAL.0>
0

>  <SCORE.INTRA.POLAR>
0

>  <SCORE.INTRA.POLAR.0>
0

>  <SCORE.INTRA.REPUL>
0

>  <SCORE.INTRA.REPUL.0>
0

>  <SCORE.INTRA.SOLV>
0

>  <SCORE.INTRA.SOLV.lig_0>
-48.6608

>  <SCORE.INTRA.VDW>
0

>  <SCORE.INTRA.VDW.0>
0

>  <SCORE.INTRA.norm>
0

>  <SCORE.RESTR>
0

>  <SCORE.RESTR.CAVITY>
0

>  <SCORE.RESTR.norm>
0

>  <SCORE.SYSTEM>
0

>  <SCORE.SYSTEM.CONST>
0

>  <SCORE.SYSTEM.DIHEDRAL>
0

>  <SCORE.SYSTEM.SOLV>
0

>  <SCORE.SYSTEM.norm>
0

>  <SCORE.heavy>
13

>  <SCORE.norm>
-0.545604

>  <RMSD>
3.778

$$$$
ligand
 OpenBabel11021811483D
libRbt.so/2013.1/901 2013/11/27
 13 14  0  0  0  0  0  0  0  0999 V2000
   14.3969   45.6620   71.3213 N   0  0  0  0  0  0  0  0  0  0  0  0
   13.1017   44.9684   69.5282 N   0  0  0  0  0  0  0  0  0  0  0  0
   13.7248   44.7029   70.6912 C   0  0  0  0  0  0  0  0  0  0  0  0
   13.6829   43.4210   71.2379 N   0  0  0  0  0  0  0  0  0  0  0  0
   12.9717   42.4304   70.5577 C   0  0  0  0  0  0  0  0  0  0  0  0
   12.3242   42.7346   69.3647 C   0  0  0  0  0  0  0  0  0  0  0  0
   12.9230   41.2878   71.0116 O   0  0  0  0  0  0  0  0  0  0  0  0
   11.6430   41.7253   68.6579 N   0  0  0  0  0  0  0  0  0  0  0  0
   10.8876   42.0006   67.4029 C   0  0  2  0  0  0  0  0  0  0  0  0
   11.5252   43.2002   66.6817 C   0  0  0  0  0  0  0  0  0  0  0  0
   12.4211   44.0222   68.8565 C   0  0  0  0  0  0  0  0  0  0  0  0
   11.7911   44.3249   67.6434 N   0  0  0  0  0  0  0  0  0  0  0  0
    9.4110   42.3310   67.7744 C   0  0  0  0  0  0  0  0  0  0  0  0
  1  3  1  0  0  0  0
  2  3  2  0  0  0  0
  2 11  1  0  0  0  0
  3  4  1  0  0  0  0
  4  5  1  0  0  0  0
  5  6  1  0  0  0  0
  5  7  2  0  0  0  0
  6  8  1  0  0  0  0
  6 11  2  0  0  0  0
  8  9  1  0  0  0  0
  9 10  1  0  0  0  0
  9 13  1  1  0  0  0
 10 12  1  0  0  0  0
 11 12  1  0  0  0  0
M  END
>  <CHROM.1>
12.34451468,43.26397978,69.28152872,-0.03857509,-0.89953476,-0.53324582

>  <Name>
ligand

>  <RI>
0

>  <Rbt.Current_Directory>
/home/itssahil/PROJECTS/Mol_Feturizer/New_Systems/rnas/3SUX

>  <Rbt.Executable>
rbdock ($Id: //depot/dev/client3/rdock/2013.1/src/exe/rbdock.cxx#4 $)

>  <Rbt.Library>
libRbt.so (2013.1, Build901 2013/11/27)

>  <Rbt.Parameter_File>
/export/apps/rDock/src/rDock_2013.1_src/data/scripts/dock_solv.prm

>  <Rbt.Receptor>
prm/pocket_docking_6.prm

>  <SCORE>
-7.16584

>  <SCORE.INTER>
-7.16584

>  <SCORE.INTER.CONST>
1

>  <SCORE.INTER.POLAR>
0

>  <SCORE.INTER.ROT>
0

>  <SCORE.INTER.SOLV>
14.1854

>  <SCORE.INTER.VDW>
-13.1057

>  <SCORE.INTER.norm>
-0.551219

>  <SCORE.INTRA>
0

>  <SCORE.INTRA.DIHEDRAL>
0

>  <SCORE.INTRA.DIHEDRAL.0>
0

>  <SCORE.INTRA.POLAR>
0

>  <SCORE.INTRA.POLAR.0>
0

>  <SCORE.INTRA.REPUL>
0

>  <SCORE.INTRA.REPUL.0>
0

>  <SCORE.INTRA.SOLV>
0

>  <SCORE.INTRA.SOLV.lig_0>
-48.6608

>  <SCORE.INTRA.VDW>
0

>  <SCORE.INTRA.VDW.0>
0

>  <SCORE.INTRA.norm>
0

>  <SCORE.RESTR>
0

>  <SCORE.RESTR.CAVITY>
0

>  <SCORE.RESTR.norm>
0

>  <SCORE.SYSTEM>
0

>  <SCORE.SYSTEM.CONST>
0

>  <SCORE.SYSTEM.DIHEDRAL>
0

>  <SCORE.SYSTEM.SOLV>
0

>  <SCORE.SYSTEM.norm>
0

>  <SCORE.heavy>
13

>  <SCORE.norm>
-0.551219

>  <RMSD>
3.807

$$$$
ligand
 OpenBabel11021811483D
libRbt.so/2013.1/901 2013/11/27
 13 14  0  0  0  0  0  0  0  0999 V2000
   14.4175   45.6859   71.3531 N   0  0  0  0  0  0  0  0  0  0  0  0
   13.1328   44.9880   69.5542 N   0  0  0  0  0  0  0  0  0  0  0  0
   13.7315   44.7309   70.7317 C   0  0  0  0  0  0  0  0  0  0  0  0
   13.6498   43.4617   71.3030 N   0  0  0  0  0  0  0  0  0  0  0  0
   12.9247   42.4753   70.6315 C   0  0  0  0  0  0  0  0  0  0  0  0
   12.3029   42.7710   69.4227 C   0  0  0  0  0  0  0  0  0  0  0  0
   12.8410   41.3435   71.1071 O   0  0  0  0  0  0  0  0  0  0  0  0
   11.6078   41.7646   68.7256 N   0  0  0  0  0  0  0  0  0  0  0  0
   10.8783   42.0329   67.4538 C   0  0  2  0  0  0  0  0  0  0  0  0
   11.5562   43.2018   66.7190 C   0  0  0  0  0  0  0  0  0  0  0  0
   12.4392   44.0454   68.8908 C   0  0  0  0  0  0  0  0  0  0  0  0
   11.8352   44.3389   67.6624 N   0  0  0  0  0  0  0  0  0  0  0  0
    9.4049   42.4066   67.7957 C   0  0  0  0  0  0  0  0  0  0  0  0
  1  3  1  0  0  0  0
  2  3  2  0  0  0  0
  2 11  1  0  0  0  0
  3  4  1  0  0  0  0
  4  5  1  0  0  0  0
  5  6  1  0  0  0  0
  5  7  2  0  0  0  0
  6  8  1  0  0  0  0
  6 11  2  0  0  0  0
  8  9  1  0  0  0  0
  9 10  1  0  0  0  0
  9 13  1  1  0  0  0
 10 12  1  0  0  0  0
 11 12  1  0  0  0  0
M  END
>  <CHROM.1>
12.33754808,43.29796555,69.32949562,-0.08504631,-0.89942660,-0.58959313

>  <Name>
ligand

>  <RI>
0

>  <Rbt.Current_Directory>
/home/itssahil/PROJECTS/Mol_Feturizer/New_Systems/rnas/3SUX

>  <Rbt.Executable>
rbdock ($Id: //depot/dev/client3/rdock/2013.1/src/exe/rbdock.cxx#4 $)

>  <Rbt.Library>
libRbt.so (2013.1, Build901 2013/11/27)

>  <Rbt.Parameter_File>
/export/apps/rDock/src/rDock_2013.1_src/data/scripts/dock_solv.prm

>  <Rbt.Receptor>
prm/pocket_docking_8.prm

>  <SCORE>
-7.18664

>  <SCORE.INTER>
-7.18664

>  <SCORE.INTER.CONST>
1

>  <SCORE.INTER.POLAR>
0

>  <SCORE.INTER.ROT>
0

>  <SCORE.INTER.SOLV>
13.8201

>  <SCORE.INTER.VDW>
-12.9978

>  <SCORE.INTER.norm>
-0.552819

>  <SCORE.INTRA>
0

>  <SCORE.INTRA.DIHEDRAL>
0

>  <SCORE.INTRA.DIHEDRAL.0>
0

>  <SCORE.INTRA.POLAR>
0

>  <SCORE.INTRA.POLAR.0>
0

>  <SCORE.INTRA.REPUL>
0

>  <SCORE.INTRA.REPUL.0>
0

>  <SCORE.INTRA.SOLV>
0

>  <SCORE.INTRA.SOLV.lig_0>
-48.6608

>  <SCORE.INTRA.VDW>
0

>  <SCORE.INTRA.VDW.0>
0

>  <SCORE.INTRA.norm>
0

>  <SCORE.RESTR>
0

>  <SCORE.RESTR.CAVITY>
0

>  <SCORE.RESTR.norm>
0

>  <SCORE.SYSTEM>
0

>  <SCORE.SYSTEM.CONST>
0

>  <SCORE.SYSTEM.DIHEDRAL>
0

>  <SCORE.SYSTEM.SOLV>
0

>  <SCORE.SYSTEM.norm>
0

>  <SCORE.heavy>
13

>  <SCORE.norm>
-0.552819

>  <RMSD>
3.819

$$$$
ligand
 OpenBabel11021811483D
libRbt.so/2013.1/901 2013/11/27
 13 14  0  0  0  0  0  0  0  0999 V2000
   14.4127   45.7047   71.3234 N   0  0  0  0  0  0  0  0  0  0  0  0
   13.1503   45.0197   69.5038 N   0  0  0  0  0  0  0  0  0  0  0  0
   13.7341   44.7543   70.6870 C   0  0  0  0  0  0  0  0  0  0  0  0
   13.6444   43.4814   71.2487 N   0  0  0  0  0  0  0  0  0  0  0  0
   12.9272   42.4999   70.5615 C   0  0  0  0  0  0  0  0  0  0  0  0
   12.3209   42.8041   69.3471 C   0  0  0  0  0  0  0  0  0  0  0  0
   12.8370   41.3650   71.0284 O   0  0  0  0  0  0  0  0  0  0  0  0
   11.6341   41.8029   68.6345 N   0  0  0  0  0  0  0  0  0  0  0  0
   10.9208   42.0801   67.3555 C   0  0  2  0  0  0  0  0  0  0  0  0
   11.6085   43.2535   66.6371 C   0  0  0  0  0  0  0  0  0  0  0  0
   12.4646   44.0820   68.8255 C   0  0  0  0  0  0  0  0  0  0  0  0
   11.8762   44.3841   67.5915 N   0  0  0  0  0  0  0  0  0  0  0  0
    9.4434   42.4525   67.6813 C   0  0  0  0  0  0  0  0  0  0  0  0
  1  3  1  0  0  0  0
  2  3  2  0  0  0  0
  2 11  1  0  0  0  0
  3  4  1  0  0  0  0
  4  5  1  0  0  0  0
  5  6  1  0  0  0  0
  5  7  2  0  0  0  0
  6  8  1  0  0  0  0
  6 11  2  0  0  0  0
  8  9  1  0  0  0  0
  9 10  1  0  0  0  0
  9 13  1  1  0  0  0
 10 12  1  0  0  0  0
 11 12  1  0  0  0  0
M  END
>  <CHROM.1>
12.35702266,43.33170449,69.25779074,-0.09718930,-0.90953834,-0.59243254

>  <Name>
ligand

>  <RI>
0

>  <Rbt.Current_Directory>
/home/itssahil/PROJECTS/Mol_Feturizer/New_Systems/rnas/3SUX

>  <Rbt.Executable>
rbdock ($Id: //depot/dev/client3/rdock/2013.1/src/exe/rbdock.cxx#4 $)

>  <Rbt.Library>
libRbt.so (2013.1, Build901 2013/11/27)

>  <Rbt.Parameter_File>
/export/apps/rDock/src/rDock_2013.1_src/data/scripts/dock_solv.prm

>  <Rbt.Receptor>
prm/pocket_docking_4.prm

>  <SCORE>
-7.14965

>  <SCORE.INTER>
-7.15461

>  <SCORE.INTER.CONST>
1

>  <SCORE.INTER.POLAR>
0

>  <SCORE.INTER.ROT>
0

>  <SCORE.INTER.SOLV>
14.2662

>  <SCORE.INTER.VDW>
-13.1251

>  <SCORE.INTER.norm>
-0.550355

>  <SCORE.INTRA>
0

>  <SCORE.INTRA.DIHEDRAL>
0

>  <SCORE.INTRA.DIHEDRAL.0>
0

>  <SCORE.INTRA.POLAR>
0

>  <SCORE.INTRA.POLAR.0>
0

>  <SCORE.INTRA.REPUL>
0

>  <SCORE.INTRA.REPUL.0>
0

>  <SCORE.INTRA.SOLV>
0

>  <SCORE.INTRA.SOLV.lig_0>
-48.6608

>  <SCORE.INTRA.VDW>
0

>  <SCORE.INTRA.VDW.0>
0

>  <SCORE.INTRA.norm>
0

>  <SCORE.RESTR>
0.00496311

>  <SCORE.RESTR.CAVITY>
0.00496311

>  <SCORE.RESTR.norm>
0.000381778

>  <SCORE.SYSTEM>
0

>  <SCORE.SYSTEM.CONST>
0

>  <SCORE.SYSTEM.DIHEDRAL>
0

>  <SCORE.SYSTEM.SOLV>
0

>  <SCORE.SYSTEM.norm>
0

>  <SCORE.heavy>
13

>  <SCORE.norm>
-0.549973

>  <RMSD>
3.831

$$$$
ligand
 OpenBabel11021811483D
libRbt.so/2013.1/901 2013/11/27
 13 14  0  0  0  0  0  0  0  0999 V2000
   14.4282   45.6909   71.3664 N   0  0  0  0  0  0  0  0  0  0  0  0
   13.1424   45.0021   69.5647 N   0  0  0  0  0  0  0  0  0  0  0  0
   13.7451   44.7379   70.7386 C   0  0  0  0  0  0  0  0  0  0  0  0
   13.6706   43.4636   71.2994 N   0  0  0  0  0  0  0  0  0  0  0  0
   12.9484   42.4795   70.6214 C   0  0  0  0  0  0  0  0  0  0  0  0
   12.3225   42.7825   69.4166 C   0  0  0  0  0  0  0  0  0  0  0  0
   12.8711   41.3434   71.0877 O   0  0  0  0  0  0  0  0  0  0  0  0
   11.6303   41.7787   68.7127 N   0  0  0  0  0  0  0  0  0  0  0  0
   10.8967   42.0543   67.4448 C   0  0  2  0  0  0  0  0  0  0  0  0
   11.5674   43.2324   66.7182 C   0  0  0  0  0  0  0  0  0  0  0  0
   12.4517   44.0619   68.8950 C   0  0  0  0  0  0  0  0  0  0  0  0
   11.8434   44.3628   67.6705 N   0  0  0  0  0  0  0  0  0  0  0  0
    9.4224   42.4183   67.7933 C   0  0  0  0  0  0  0  0  0  0  0  0
  1  3  1  0  0  0  0
  2  3  2  0  0  0  0
  2 11  1  0  0  0  0
  3  4  1  0  0  0  0
  4  5  1  0  0  0  0
  5  6  1  0  0  0  0
  5  7  2  0  0  0  0
  6  8  1  0  0  0  0
  6 11  2  0  0  0  0
  8  9  1  0  0  0  0
  9 10  1  0  0  0  0
  9 13  1  1  0  0  0
 10 12  1  0  0  0  0
 11 12  1  0  0  0  0
M  END
>  <CHROM.1>
12.35446052,43.31035704,69.32766322,-0.07680458,-0.90001225,-0.57477144

>  <Name>
ligand

>  <RI>
0

>  <Rbt.Current_Directory>
/home/itssahil/PROJECTS/Mol_Feturizer/New_Systems/rnas/3SUX

>  <Rbt.Executable>
rbdock ($Id: //depot/dev/client3/rdock/2013.1/src/exe/rbdock.cxx#4 $)

>  <Rbt.Library>
libRbt.so (2013.1, Build901 2013/11/27)

>  <Rbt.Parameter_File>
/export/apps/rDock/src/rDock_2013.1_src/data/scripts/dock_solv.prm

>  <Rbt.Receptor>
prm/pocket_docking_5.prm

>  <SCORE>
-7.16586

>  <SCORE.INTER>
-7.16586

>  <SCORE.INTER.CONST>
1

>  <SCORE.INTER.POLAR>
0

>  <SCORE.INTER.ROT>
0

>  <SCORE.INTER.SOLV>
13.894

>  <SCORE.INTER.VDW>
-13.0086

>  <SCORE.INTER.norm>
-0.55122

>  <SCORE.INTRA>
0

>  <SCORE.INTRA.DIHEDRAL>
0

>  <SCORE.INTRA.DIHEDRAL.0>
0

>  <SCORE.INTRA.POLAR>
0

>  <SCORE.INTRA.POLAR.0>
0

>  <SCORE.INTRA.REPUL>
0

>  <SCORE.INTRA.REPUL.0>
0

>  <SCORE.INTRA.SOLV>
0

>  <SCORE.INTRA.SOLV.lig_0>
-48.6608

>  <SCORE.INTRA.VDW>
0

>  <SCORE.INTRA.VDW.0>
0

>  <SCORE.INTRA.norm>
0

>  <SCORE.RESTR>
0

>  <SCORE.RESTR.CAVITY>
0

>  <SCORE.RESTR.norm>
0

>  <SCORE.SYSTEM>
0

>  <SCORE.SYSTEM.CONST>
0

>  <SCORE.SYSTEM.DIHEDRAL>
0

>  <SCORE.SYSTEM.SOLV>
0

>  <SCORE.SYSTEM.norm>
0

>  <SCORE.heavy>
13

>  <SCORE.norm>
-0.55122

>  <RMSD>
3.831

$$$$
ligand
 OpenBabel11021811483D
libRbt.so/2013.1/901 2013/11/27
 13 14  0  0  0  0  0  0  0  0999 V2000
   14.4150   45.6227   71.4708 N   0  0  0  0  0  0  0  0  0  0  0  0
   13.1416   44.9807   69.6433 N   0  0  0  0  0  0  0  0  0  0  0  0
   13.7471   44.6831   70.8077 C   0  0  0  0  0  0  0  0  0  0  0  0
   13.6914   43.3882   71.3216 N   0  0  0  0  0  0  0  0  0  0  0  0
   12.9849   42.4186   70.6070 C   0  0  0  0  0  0  0  0  0  0  0  0
   12.3556   42.7558   69.4131 C   0  0  0  0  0  0  0  0  0  0  0  0
   12.9244   41.2653   71.0315 O   0  0  0  0  0  0  0  0  0  0  0  0
   11.6794   41.7680   68.6721 N   0  0  0  0  0  0  0  0  0  0  0  0
   10.9429   42.0785   67.4140 C   0  0  2  0  0  0  0  0  0  0  0  0
   11.5963   43.2924   66.7319 C   0  0  0  0  0  0  0  0  0  0  0  0
   12.4658   44.0552   68.9388 C   0  0  0  0  0  0  0  0  0  0  0  0
   11.8542   44.3913   67.7251 N   0  0  0  0  0  0  0  0  0  0  0  0
    9.4629   42.4072   67.7733 C   0  0  0  0  0  0  0  0  0  0  0  0
  1  3  1  0  0  0  0
  2  3  2  0  0  0  0
  2 11  1  0  0  0  0
  3  4  1  0  0  0  0
  4  5  1  0  0  0  0
  5  6  1  0  0  0  0
  5  7  2  0  0  0  0
  6  8  1  0  0  0  0
  6 11  2  0  0  0  0
  8  9  1  0  0  0  0
  9 10  1  0  0  0  0
  9 13  1  1  0  0  0
 10 12  1  0  0  0  0
 11 12  1  0  0  0  0
M  END
>  <CHROM.1>
12.37962362,43.28700184,69.34357546,-0.05688738,-0.90897012,-0.52264143

>  <Name>
ligand

>  <RI>
0

>  <Rbt.Current_Directory>
/home/itssahil/PROJECTS/Mol_Feturizer/New_Systems/rnas/3SUX

>  <Rbt.Executable>
rbdock ($Id: //depot/dev/client3/rdock/2013.1/src/exe/rbdock.cxx#4 $)

>  <Rbt.Library>
libRbt.so (2013.1, Build901 2013/11/27)

>  <Rbt.Parameter_File>
/export/apps/rDock/src/rDock_2013.1_src/data/scripts/dock_solv.prm

>  <Rbt.Receptor>
prm/pocket_docking_8.prm

>  <SCORE>
-7.15167

>  <SCORE.INTER>
-7.15167

>  <SCORE.INTER.CONST>
1

>  <SCORE.INTER.POLAR>
0

>  <SCORE.INTER.ROT>
0

>  <SCORE.INTER.SOLV>
13.7489

>  <SCORE.INTER.VDW>
-12.9508

>  <SCORE.INTER.norm>
-0.550128

>  <SCORE.INTRA>
0

>  <SCORE.INTRA.DIHEDRAL>
0

>  <SCORE.INTRA.DIHEDRAL.0>
0

>  <SCORE.INTRA.POLAR>
0

>  <SCORE.INTRA.POLAR.0>
0

>  <SCORE.INTRA.REPUL>
0

>  <SCORE.INTRA.REPUL.0>
0

>  <SCORE.INTRA.SOLV>
0

>  <SCORE.INTRA.SOLV.lig_0>
-48.6608

>  <SCORE.INTRA.VDW>
0

>  <SCORE.INTRA.VDW.0>
0

>  <SCORE.INTRA.norm>
0

>  <SCORE.RESTR>
0

>  <SCORE.RESTR.CAVITY>
0

>  <SCORE.RESTR.norm>
0

>  <SCORE.SYSTEM>
0

>  <SCORE.SYSTEM.CONST>
0

>  <SCORE.SYSTEM.DIHEDRAL>
0

>  <SCORE.SYSTEM.SOLV>
0

>  <SCORE.SYSTEM.norm>
0

>  <SCORE.heavy>
13

>  <SCORE.norm>
-0.550128

>  <RMSD>
3.875

$$$$
ligand
 OpenBabel11021811483D
libRbt.so/2013.1/901 2013/11/27
 13 14  0  0  0  0  0  0  0  0999 V2000
   12.8504   38.7619   71.2728 N   0  0  0  0  0  0  0  0  0  0  0  0
   11.7626   39.9124   69.5797 N   0  0  0  0  0  0  0  0  0  0  0  0
   12.6112   39.8980   70.6241 C   0  0  0  0  0  0  0  0  0  0  0  0
   13.2354   41.0723   71.0428 N   0  0  0  0  0  0  0  0  0  0  0  0
   12.9679   42.2527   70.3465 C   0  0  0  0  0  0  0  0  0  0  0  0
   12.0979   42.2378   69.2611 C   0  0  0  0  0  0  0  0  0  0  0  0
   13.4979   43.3063   70.6972 O   0  0  0  0  0  0  0  0  0  0  0  0
   11.7960   43.4359   68.5862 N   0  0  0  0  0  0  0  0  0  0  0  0
   10.9133   43.4751   67.3859 C   0  0  2  0  0  0  0  0  0  0  0  0
    9.9050   42.3160   67.4615 C   0  0  0  0  0  0  0  0  0  0  0  0
   11.4874   41.0435   68.9054 C   0  0  0  0  0  0  0  0  0  0  0  0
   10.5924   41.0303   67.8288 N   0  0  0  0  0  0  0  0  0  0  0  0
   11.7989   43.3233   66.1130 C   0  0  0  0  0  0  0  0  0  0  0  0
  1  3  1  0  0  0  0
  2  3  2  0  0  0  0
  2 11  1  0  0  0  0
  3  4  1  0  0  0  0
  4  5  1  0  0  0  0
  5  6  1  0  0  0  0
  5  7  2  0  0  0  0
  6  8  1  0  0  0  0
  6 11  2  0  0  0  0
  8  9  1  0  0  0  0
  9 10  1  0  0  0  0
  9 13  1  6  0  0  0
 10 12  1  0  0  0  0
 11 12  1  0  0  0  0
M  END
>  <CHROM.1>
11.96996655,41.73051448,69.14305797,0.96123016,0.87716892,2.70586505

>  <Name>
ligand

>  <RI>
0

>  <Rbt.Current_Directory>
/home/itssahil/PROJECTS/Mol_Feturizer/New_Systems/rnas/3SUX

>  <Rbt.Executable>
rbdock ($Id: //depot/dev/client3/rdock/2013.1/src/exe/rbdock.cxx#4 $)

>  <Rbt.Library>
libRbt.so (2013.1, Build901 2013/11/27)

>  <Rbt.Parameter_File>
/export/apps/rDock/src/rDock_2013.1_src/data/scripts/dock_solv.prm

>  <Rbt.Receptor>
prm/pocket_docking_8.prm

>  <SCORE>
-8.04093

>  <SCORE.INTER>
-8.04093

>  <SCORE.INTER.CONST>
1

>  <SCORE.INTER.POLAR>
0

>  <SCORE.INTER.ROT>
0

>  <SCORE.INTER.SOLV>
12.1215

>  <SCORE.INTER.VDW>
-13.0011

>  <SCORE.INTER.norm>
-0.618533

>  <SCORE.INTRA>
0

>  <SCORE.INTRA.DIHEDRAL>
0

>  <SCORE.INTRA.DIHEDRAL.0>
0

>  <SCORE.INTRA.POLAR>
0

>  <SCORE.INTRA.POLAR.0>
0

>  <SCORE.INTRA.REPUL>
0

>  <SCORE.INTRA.REPUL.0>
0

>  <SCORE.INTRA.SOLV>
0

>  <SCORE.INTRA.SOLV.lig_0>
-48.6608

>  <SCORE.INTRA.VDW>
0

>  <SCORE.INTRA.VDW.0>
0

>  <SCORE.INTRA.norm>
0

>  <SCORE.RESTR>
0

>  <SCORE.RESTR.CAVITY>
0

>  <SCORE.RESTR.norm>
0

>  <SCORE.SYSTEM>
0

>  <SCORE.SYSTEM.CONST>
0

>  <SCORE.SYSTEM.DIHEDRAL>
0

>  <SCORE.SYSTEM.SOLV>
0

>  <SCORE.SYSTEM.norm>
0

>  <SCORE.heavy>
13

>  <SCORE.norm>
-0.618533

>  <RMSD>
4.029

$$$$
ligand
 OpenBabel11021811483D
libRbt.so/2013.1/901 2013/11/27
 13 14  0  0  0  0  0  0  0  0999 V2000
    7.7938   46.6448   70.8515 N   0  0  0  0  0  0  0  0  0  0  0  0
    9.6690   45.7687   69.8076 N   0  0  0  0  0  0  0  0  0  0  0  0
    8.3778   45.6621   70.1719 C   0  0  0  0  0  0  0  0  0  0  0  0
    7.6465   44.5187   69.8530 N   0  0  0  0  0  0  0  0  0  0  0  0
    8.2815   43.5001   69.1395 C   0  0  0  0  0  0  0  0  0  0  0  0
    9.6130   43.6414   68.7622 C   0  0  0  0  0  0  0  0  0  0  0  0
    7.6641   42.4758   68.8501 O   0  0  0  0  0  0  0  0  0  0  0  0
   10.2645   42.5963   68.0801 N   0  0  0  0  0  0  0  0  0  0  0  0
   11.6726   42.7094   67.6045 C   0  0  2  0  0  0  0  0  0  0  0  0
   12.4405   43.6752   68.5228 C   0  0  0  0  0  0  0  0  0  0  0  0
   10.2971   44.7918   69.1288 C   0  0  0  0  0  0  0  0  0  0  0  0
   11.6442   44.9260   68.7718 N   0  0  0  0  0  0  0  0  0  0  0  0
   11.6617   43.2615   66.1476 C   0  0  0  0  0  0  0  0  0  0  0  0
  1  3  1  0  0  0  0
  2  3  2  0  0  0  0
  2 11  1  0  0  0  0
  3  4  1  0  0  0  0
  4  5  1  0  0  0  0
  5  6  1  0  0  0  0
  5  7  2  0  0  0  0
  6  8  1  0  0  0  0
  6 11  2  0  0  0  0
  8  9  1  0  0  0  0
  9 10  1  0  0  0  0
  9 13  1  6  0  0  0
 10 12  1  0  0  0  0
 11 12  1  0  0  0  0
M  END
>  <CHROM.1>
9.77658697,44.14025864,68.87176124,-2.45146991,-0.31477120,-2.59493214

>  <Name>
ligand

>  <RI>
0

>  <Rbt.Current_Directory>
/home/itssahil/PROJECTS/Mol_Feturizer/New_Systems/rnas/3SUX

>  <Rbt.Executable>
rbdock ($Id: //depot/dev/client3/rdock/2013.1/src/exe/rbdock.cxx#4 $)

>  <Rbt.Library>
libRbt.so (2013.1, Build901 2013/11/27)

>  <Rbt.Parameter_File>
/export/apps/rDock/src/rDock_2013.1_src/data/scripts/dock_solv.prm

>  <Rbt.Receptor>
prm/pocket_docking_8.prm

>  <SCORE>
-7.56415

>  <SCORE.INTER>
-7.56415

>  <SCORE.INTER.CONST>
1

>  <SCORE.INTER.POLAR>
0

>  <SCORE.INTER.ROT>
0

>  <SCORE.INTER.SOLV>
9.08928

>  <SCORE.INTER.VDW>
-11.6725

>  <SCORE.INTER.norm>
-0.581858

>  <SCORE.INTRA>
0

>  <SCORE.INTRA.DIHEDRAL>
0

>  <SCORE.INTRA.DIHEDRAL.0>
0

>  <SCORE.INTRA.POLAR>
0

>  <SCORE.INTRA.POLAR.0>
0

>  <SCORE.INTRA.REPUL>
0

>  <SCORE.INTRA.REPUL.0>
0

>  <SCORE.INTRA.SOLV>
0

>  <SCORE.INTRA.SOLV.lig_0>
-48.6608

>  <SCORE.INTRA.VDW>
0

>  <SCORE.INTRA.VDW.0>
0

>  <SCORE.INTRA.norm>
0

>  <SCORE.RESTR>
0

>  <SCORE.RESTR.CAVITY>
0

>  <SCORE.RESTR.norm>
0

>  <SCORE.SYSTEM>
0

>  <SCORE.SYSTEM.CONST>
0

>  <SCORE.SYSTEM.DIHEDRAL>
0

>  <SCORE.SYSTEM.SOLV>
0

>  <SCORE.SYSTEM.norm>
0

>  <SCORE.heavy>
13

>  <SCORE.norm>
-0.581858

>  <RMSD>
4.703

$$$$
ligand
 OpenBabel11021811483D
libRbt.so/2013.1/901 2013/11/27
 13 14  0  0  0  0  0  0  0  0999 V2000
    7.7520   46.7408   70.8087 N   0  0  0  0  0  0  0  0  0  0  0  0
    9.6356   45.8485   69.7941 N   0  0  0  0  0  0  0  0  0  0  0  0
    8.3431   45.7451   70.1547 C   0  0  0  0  0  0  0  0  0  0  0  0
    7.6178   44.5917   69.8587 N   0  0  0  0  0  0  0  0  0  0  0  0
    8.2603   43.5596   69.1720 C   0  0  0  0  0  0  0  0  0  0  0  0
    9.5930   43.6975   68.7978 C   0  0  0  0  0  0  0  0  0  0  0  0
    7.6483   42.5264   68.9033 O   0  0  0  0  0  0  0  0  0  0  0  0
   10.2519   42.6396   68.1431 N   0  0  0  0  0  0  0  0  0  0  0  0
   11.6617   42.7474   67.6716 C   0  0  2  0  0  0  0  0  0  0  0  0
   12.4215   43.7371   68.5710 C   0  0  0  0  0  0  0  0  0  0  0  0
   10.2708   44.8587   69.1410 C   0  0  0  0  0  0  0  0  0  0  0  0
   11.6190   44.9901   68.7873 N   0  0  0  0  0  0  0  0  0  0  0  0
   11.6558   43.2657   66.2023 C   0  0  0  0  0  0  0  0  0  0  0  0
  1  3  1  0  0  0  0
  2  3  2  0  0  0  0
  2 11  1  0  0  0  0
  3  4  1  0  0  0  0
  4  5  1  0  0  0  0
  5  6  1  0  0  0  0
  5  7  2  0  0  0  0
  6  8  1  0  0  0  0
  6 11  2  0  0  0  0
  8  9  1  0  0  0  0
  9 10  1  0  0  0  0
  9 13  1  6  0  0  0
 10 12  1  0  0  0  0
 11 12  1  0  0  0  0
M  END
>  <CHROM.1>
9.75408990,44.19937955,68.89657962,-2.45762211,-0.31268757,-2.61986359

>  <Name>
ligand

>  <RI>
0

>  <Rbt.Current_Directory>
/home/itssahil/PROJECTS/Mol_Feturizer/New_Systems/rnas/3SUX

>  <Rbt.Executable>
rbdock ($Id: //depot/dev/client3/rdock/2013.1/src/exe/rbdock.cxx#4 $)

>  <Rbt.Library>
libRbt.so (2013.1, Build901 2013/11/27)

>  <Rbt.Parameter_File>
/export/apps/rDock/src/rDock_2013.1_src/data/scripts/dock_solv.prm

>  <Rbt.Receptor>
prm/pocket_docking_6.prm

>  <SCORE>
-7.64004

>  <SCORE.INTER>
-7.64004

>  <SCORE.INTER.CONST>
1

>  <SCORE.INTER.POLAR>
0

>  <SCORE.INTER.ROT>
0

>  <SCORE.INTER.SOLV>
8.97006

>  <SCORE.INTER.VDW>
-11.6834

>  <SCORE.INTER.norm>
-0.587695

>  <SCORE.INTRA>
0

>  <SCORE.INTRA.DIHEDRAL>
0

>  <SCORE.INTRA.DIHEDRAL.0>
0

>  <SCORE.INTRA.POLAR>
0

>  <SCORE.INTRA.POLAR.0>
0

>  <SCORE.INTRA.REPUL>
0

>  <SCORE.INTRA.REPUL.0>
0

>  <SCORE.INTRA.SOLV>
0

>  <SCORE.INTRA.SOLV.lig_0>
-48.6608

>  <SCORE.INTRA.VDW>
0

>  <SCORE.INTRA.VDW.0>
0

>  <SCORE.INTRA.norm>
0

>  <SCORE.RESTR>
0

>  <SCORE.RESTR.CAVITY>
0

>  <SCORE.RESTR.norm>
0

>  <SCORE.SYSTEM>
0

>  <SCORE.SYSTEM.CONST>
0

>  <SCORE.SYSTEM.DIHEDRAL>
0

>  <SCORE.SYSTEM.SOLV>
0

>  <SCORE.SYSTEM.norm>
0

>  <SCORE.heavy>
13

>  <SCORE.norm>
-0.587695

>  <RMSD>
4.716

$$$$
ligand
 OpenBabel11021811483D
libRbt.so/2013.1/901 2013/11/27
 13 14  0  0  0  0  0  0  0  0999 V2000
    6.6465   43.4542   70.5397 N   0  0  0  0  0  0  0  0  0  0  0  0
    8.7108   43.9771   69.6237 N   0  0  0  0  0  0  0  0  0  0  0  0
    7.7092   43.1004   69.8227 C   0  0  0  0  0  0  0  0  0  0  0  0
    7.7820   41.8131   69.2921 N   0  0  0  0  0  0  0  0  0  0  0  0
    8.9080   41.4647   68.5434 C   0  0  0  0  0  0  0  0  0  0  0  0
    9.9227   42.3943   68.3402 C   0  0  0  0  0  0  0  0  0  0  0  0
    9.0040   40.3335   68.0688 O   0  0  0  0  0  0  0  0  0  0  0  0
   11.0766   42.0287   67.6213 N   0  0  0  0  0  0  0  0  0  0  0  0
   12.1728   42.9947   67.3266 C   0  0  2  0  0  0  0  0  0  0  0  0
   12.2162   44.0631   68.4323 C   0  0  0  0  0  0  0  0  0  0  0  0
    9.8061   43.6527   68.9132 C   0  0  0  0  0  0  0  0  0  0  0  0
   10.8371   44.5822   68.7310 N   0  0  0  0  0  0  0  0  0  0  0  0
   11.8846   43.6684   65.9516 C   0  0  0  0  0  0  0  0  0  0  0  0
  1  3  1  0  0  0  0
  2  3  2  0  0  0  0
  2 11  1  0  0  0  0
  3  4  1  0  0  0  0
  4  5  1  0  0  0  0
  5  6  1  0  0  0  0
  5  7  2  0  0  0  0
  6  8  1  0  0  0  0
  6 11  2  0  0  0  0
  8  9  1  0  0  0  0
  9 10  1  0  0  0  0
  9 13  1  6  0  0  0
 10 12  1  0  0  0  0
 11 12  1  0  0  0  0
M  END
>  <CHROM.1>
9.76494436,42.87249945,68.52464385,-3.08597899,-0.54221356,-2.71529601

>  <Name>
ligand

>  <RI>
0

>  <Rbt.Current_Directory>
/home/itssahil/PROJECTS/Mol_Feturizer/New_Systems/rnas/3SUX

>  <Rbt.Executable>
rbdock ($Id: //depot/dev/client3/rdock/2013.1/src/exe/rbdock.cxx#4 $)

>  <Rbt.Library>
libRbt.so (2013.1, Build901 2013/11/27)

>  <Rbt.Parameter_File>
/export/apps/rDock/src/rDock_2013.1_src/data/scripts/dock_solv.prm

>  <Rbt.Receptor>
prm/pocket_docking_2.prm

>  <SCORE>
-3.51522

>  <SCORE.INTER>
-4.16693

>  <SCORE.INTER.CONST>
1

>  <SCORE.INTER.POLAR>
0

>  <SCORE.INTER.ROT>
0

>  <SCORE.INTER.SOLV>
17.5571

>  <SCORE.INTER.VDW>
-12.2303

>  <SCORE.INTER.norm>
-0.320533

>  <SCORE.INTRA>
0

>  <SCORE.INTRA.DIHEDRAL>
0

>  <SCORE.INTRA.DIHEDRAL.0>
0

>  <SCORE.INTRA.POLAR>
0

>  <SCORE.INTRA.POLAR.0>
0

>  <SCORE.INTRA.REPUL>
0

>  <SCORE.INTRA.REPUL.0>
0

>  <SCORE.INTRA.SOLV>
0

>  <SCORE.INTRA.SOLV.lig_0>
-48.6608

>  <SCORE.INTRA.VDW>
0

>  <SCORE.INTRA.VDW.0>
0

>  <SCORE.INTRA.norm>
0

>  <SCORE.RESTR>
0.651712

>  <SCORE.RESTR.CAVITY>
0.651712

>  <SCORE.RESTR.norm>
0.0501317

>  <SCORE.SYSTEM>
0

>  <SCORE.SYSTEM.CONST>
0

>  <SCORE.SYSTEM.DIHEDRAL>
0

>  <SCORE.SYSTEM.SOLV>
0

>  <SCORE.SYSTEM.norm>
0

>  <SCORE.heavy>
13

>  <SCORE.norm>
-0.270401

>  <RMSD>
4.729

$$$$
ligand
 OpenBabel11021811483D
libRbt.so/2013.1/901 2013/11/27
 13 14  0  0  0  0  0  0  0  0999 V2000
    7.9488   38.9797   71.0330 N   0  0  0  0  0  0  0  0  0  0  0  0
    9.3728   40.0608   69.5574 N   0  0  0  0  0  0  0  0  0  0  0  0
    8.3141   40.0839   70.3880 C   0  0  0  0  0  0  0  0  0  0  0  0
    7.5847   41.2582   70.5695 N   0  0  0  0  0  0  0  0  0  0  0  0
    7.9870   42.4044   69.8809 C   0  0  0  0  0  0  0  0  0  0  0  0
    9.0937   42.3575   69.0395 C   0  0  0  0  0  0  0  0  0  0  0  0
    7.3584   43.4537   70.0150 O   0  0  0  0  0  0  0  0  0  0  0  0
    9.4730   43.5024   68.3132 N   0  0  0  0  0  0  0  0  0  0  0  0
   10.6786   43.5286   67.4372 C   0  0  2  0  0  0  0  0  0  0  0  0
   10.9490   42.1106   66.9063 C   0  0  0  0  0  0  0  0  0  0  0  0
    9.7662   41.1542   68.8798 C   0  0  0  0  0  0  0  0  0  0  0  0
   10.8655   41.0980   68.0146 N   0  0  0  0  0  0  0  0  0  0  0  0
   11.8942   44.0184   68.2798 C   0  0  0  0  0  0  0  0  0  0  0  0
  1  3  1  0  0  0  0
  2  3  2  0  0  0  0
  2 11  1  0  0  0  0
  3  4  1  0  0  0  0
  4  5  1  0  0  0  0
  5  6  1  0  0  0  0
  5  7  2  0  0  0  0
  6  8  1  0  0  0  0
  6 11  2  0  0  0  0
  8  9  1  0  0  0  0
  9 10  1  0  0  0  0
  9 13  1  1  0  0  0
 10 12  1  0  0  0  0
 11 12  1  0  0  0  0
M  END
>  <CHROM.1>
9.33941535,41.88412130,69.09550938,-2.41260493,0.61915648,-0.20975952

>  <Name>
ligand

>  <RI>
0

>  <Rbt.Current_Directory>
/home/itssahil/PROJECTS/Mol_Feturizer/New_Systems/rnas/3SUX

>  <Rbt.Executable>
rbdock ($Id: //depot/dev/client3/rdock/2013.1/src/exe/rbdock.cxx#4 $)

>  <Rbt.Library>
libRbt.so (2013.1, Build901 2013/11/27)

>  <Rbt.Parameter_File>
/export/apps/rDock/src/rDock_2013.1_src/data/scripts/dock_solv.prm

>  <Rbt.Receptor>
prm/pocket_docking_3.prm

>  <SCORE>
-4.1892

>  <SCORE.INTER>
-4.18978

>  <SCORE.INTER.CONST>
1

>  <SCORE.INTER.POLAR>
0

>  <SCORE.INTER.ROT>
0

>  <SCORE.INTER.SOLV>
16.9577

>  <SCORE.INTER.VDW>
-12.0458

>  <SCORE.INTER.norm>
-0.322291

>  <SCORE.INTRA>
0

>  <SCORE.INTRA.DIHEDRAL>
0

>  <SCORE.INTRA.DIHEDRAL.0>
0

>  <SCORE.INTRA.POLAR>
0

>  <SCORE.INTRA.POLAR.0>
0

>  <SCORE.INTRA.REPUL>
0

>  <SCORE.INTRA.REPUL.0>
0

>  <SCORE.INTRA.SOLV>
0

>  <SCORE.INTRA.SOLV.lig_0>
-48.6608

>  <SCORE.INTRA.VDW>
0

>  <SCORE.INTRA.VDW.0>
0

>  <SCORE.INTRA.norm>
0

>  <SCORE.RESTR>
0.000587436

>  <SCORE.RESTR.CAVITY>
0.000587436

>  <SCORE.RESTR.norm>
4.51874e-05

>  <SCORE.SYSTEM>
0

>  <SCORE.SYSTEM.CONST>
0

>  <SCORE.SYSTEM.DIHEDRAL>
0

>  <SCORE.SYSTEM.SOLV>
0

>  <SCORE.SYSTEM.norm>
0

>  <SCORE.heavy>
13

>  <SCORE.norm>
-0.322246

>  <RMSD>
4.743

$$$$
ligand
 OpenBabel11021811483D
libRbt.so/2013.1/901 2013/11/27
 13 14  0  0  0  0  0  0  0  0999 V2000
    6.7798   45.0158   70.9401 N   0  0  0  0  0  0  0  0  0  0  0  0
    8.8453   44.7182   69.9307 N   0  0  0  0  0  0  0  0  0  0  0  0
    7.5931   44.2911   70.1772 C   0  0  0  0  0  0  0  0  0  0  0  0
    7.1424   43.0825   69.6479 N   0  0  0  0  0  0  0  0  0  0  0  0
    8.0148   42.3389   68.8505 C   0  0  0  0  0  0  0  0  0  0  0  0
    9.2993   42.8099   68.5991 C   0  0  0  0  0  0  0  0  0  0  0  0
    7.6481   41.2646   68.3755 O   0  0  0  0  0  0  0  0  0  0  0  0
   10.1921   42.0393   67.8302 N   0  0  0  0  0  0  0  0  0  0  0  0
   11.5619   42.5140   67.4836 C   0  0  2  0  0  0  0  0  0  0  0  0
   12.0599   43.4676   68.5829 C   0  0  0  0  0  0  0  0  0  0  0  0
    9.7002   44.0081   69.1728 C   0  0  0  0  0  0  0  0  0  0  0  0
   11.0006   44.4725   68.9416 N   0  0  0  0  0  0  0  0  0  0  0  0
   11.4967   43.2664   66.1208 C   0  0  0  0  0  0  0  0  0  0  0  0
  1  3  1  0  0  0  0
  2  3  2  0  0  0  0
  2 11  1  0  0  0  0
  3  4  1  0  0  0  0
  4  5  1  0  0  0  0
  5  6  1  0  0  0  0
  5  7  2  0  0  0  0
  6  8  1  0  0  0  0
  6 11  2  0  0  0  0
  8  9  1  0  0  0  0
  9 10  1  0  0  0  0
  9 13  1  6  0  0  0
 10 12  1  0  0  0  0
 11 12  1  0  0  0  0
M  END
>  <CHROM.1>
9.34565722,43.30932117,68.78890675,-2.67840111,-0.38209234,-2.52505690

>  <Name>
ligand

>  <RI>
0

>  <Rbt.Current_Directory>
/home/itssahil/PROJECTS/Mol_Feturizer/New_Systems/rnas/3SUX

>  <Rbt.Executable>
rbdock ($Id: //depot/dev/client3/rdock/2013.1/src/exe/rbdock.cxx#4 $)

>  <Rbt.Library>
libRbt.so (2013.1, Build901 2013/11/27)

>  <Rbt.Parameter_File>
/export/apps/rDock/src/rDock_2013.1_src/data/scripts/dock_solv.prm

>  <Rbt.Receptor>
prm/pocket_docking_5.prm

>  <SCORE>
-8.35541

>  <SCORE.INTER>
-8.35541

>  <SCORE.INTER.CONST>
1

>  <SCORE.INTER.POLAR>
0

>  <SCORE.INTER.ROT>
0

>  <SCORE.INTER.SOLV>
11.2494

>  <SCORE.INTER.VDW>
-12.9201

>  <SCORE.INTER.norm>
-0.642724

>  <SCORE.INTRA>
0

>  <SCORE.INTRA.DIHEDRAL>
0

>  <SCORE.INTRA.DIHEDRAL.0>
0

>  <SCORE.INTRA.POLAR>
0

>  <SCORE.INTRA.POLAR.0>
0

>  <SCORE.INTRA.REPUL>
0

>  <SCORE.INTRA.REPUL.0>
0

>  <SCORE.INTRA.SOLV>
0

>  <SCORE.INTRA.SOLV.lig_0>
-48.6608

>  <SCORE.INTRA.VDW>
0

>  <SCORE.INTRA.VDW.0>
0

>  <SCORE.INTRA.norm>
0

>  <SCORE.RESTR>
0

>  <SCORE.RESTR.CAVITY>
0

>  <SCORE.RESTR.norm>
0

>  <SCORE.SYSTEM>
0

>  <SCORE.SYSTEM.CONST>
0

>  <SCORE.SYSTEM.DIHEDRAL>
0

>  <SCORE.SYSTEM.SOLV>
0

>  <SCORE.SYSTEM.norm>
0

>  <SCORE.heavy>
13

>  <SCORE.norm>
-0.642724

>  <RMSD>
4.815

$$$$
ligand
 OpenBabel11021811483D
libRbt.so/2013.1/901 2013/11/27
 13 14  0  0  0  0  0  0  0  0999 V2000
    6.7531   45.0229   70.9636 N   0  0  0  0  0  0  0  0  0  0  0  0
    8.8208   44.7256   69.9587 N   0  0  0  0  0  0  0  0  0  0  0  0
    7.5672   44.2997   70.2002 C   0  0  0  0  0  0  0  0  0  0  0  0
    7.1160   43.0939   69.6651 N   0  0  0  0  0  0  0  0  0  0  0  0
    7.9892   42.3517   68.8674 C   0  0  0  0  0  0  0  0  0  0  0  0
    9.2752   42.8215   68.6212 C   0  0  0  0  0  0  0  0  0  0  0  0
    7.6220   41.2799   68.3875 O   0  0  0  0  0  0  0  0  0  0  0  0
   10.1688   42.0522   67.8519 N   0  0  0  0  0  0  0  0  0  0  0  0
   11.5403   42.5258   67.5108 C   0  0  2  0  0  0  0  0  0  0  0  0
   12.0370   43.4744   68.6150 C   0  0  0  0  0  0  0  0  0  0  0  0
    9.6766   44.0169   69.2005 C   0  0  0  0  0  0  0  0  0  0  0  0
   10.9784   44.4799   68.9745 N   0  0  0  0  0  0  0  0  0  0  0  0
   11.4801   43.2834   66.1507 C   0  0  0  0  0  0  0  0  0  0  0  0
  1  3  1  0  0  0  0
  2  3  2  0  0  0  0
  2 11  1  0  0  0  0
  3  4  1  0  0  0  0
  4  5  1  0  0  0  0
  5  6  1  0  0  0  0
  5  7  2  0  0  0  0
  6  8  1  0  0  0  0
  6 11  2  0  0  0  0
  8  9  1  0  0  0  0
  9 10  1  0  0  0  0
  9 13  1  6  0  0  0
 10 12  1  0  0  0  0
 11 12  1  0  0  0  0
M  END
>  <CHROM.1>
9.32190352,43.32009829,68.81303304,-2.67860305,-0.37888080,-2.52141832

>  <Name>
ligand

>  <RI>
0

>  <Rbt.Current_Directory>
/home/itssahil/PROJECTS/Mol_Feturizer/New_Systems/rnas/3SUX

>  <Rbt.Executable>
rbdock ($Id: //depot/dev/client3/rdock/2013.1/src/exe/rbdock.cxx#4 $)

>  <Rbt.Library>
libRbt.so (2013.1, Build901 2013/11/27)

>  <Rbt.Parameter_File>
/export/apps/rDock/src/rDock_2013.1_src/data/scripts/dock_solv.prm

>  <Rbt.Receptor>
prm/pocket_docking_4.prm

>  <SCORE>
-8.38479

>  <SCORE.INTER>
-8.38479

>  <SCORE.INTER.CONST>
1

>  <SCORE.INTER.POLAR>
0

>  <SCORE.INTER.ROT>
0

>  <SCORE.INTER.SOLV>
11.1278

>  <SCORE.INTER.VDW>
-12.8991

>  <SCORE.INTER.norm>
-0.644984

>  <SCORE.INTRA>
0

>  <SCORE.INTRA.DIHEDRAL>
0

>  <SCORE.INTRA.DIHEDRAL.0>
0

>  <SCORE.INTRA.POLAR>
0

>  <SCORE.INTRA.POLAR.0>
0

>  <SCORE.INTRA.REPUL>
0

>  <SCORE.INTRA.REPUL.0>
0

>  <SCORE.INTRA.SOLV>
0

>  <SCORE.INTRA.SOLV.lig_0>
-48.6608

>  <SCORE.INTRA.VDW>
0

>  <SCORE.INTRA.VDW.0>
0

>  <SCORE.INTRA.norm>
0

>  <SCORE.RESTR>
0

>  <SCORE.RESTR.CAVITY>
0

>  <SCORE.RESTR.norm>
0

>  <SCORE.SYSTEM>
0

>  <SCORE.SYSTEM.CONST>
0

>  <SCORE.SYSTEM.DIHEDRAL>
0

>  <SCORE.SYSTEM.SOLV>
0

>  <SCORE.SYSTEM.norm>
0

>  <SCORE.heavy>
13

>  <SCORE.norm>
-0.644984

>  <RMSD>
4.826

$$$$
ligand
 OpenBabel11021811483D
libRbt.so/2013.1/901 2013/11/27
 13 14  0  0  0  0  0  0  0  0999 V2000
    6.7047   45.0826   70.8677 N   0  0  0  0  0  0  0  0  0  0  0  0
    8.7718   44.7787   69.8635 N   0  0  0  0  0  0  0  0  0  0  0  0
    7.5263   44.3431   70.1281 C   0  0  0  0  0  0  0  0  0  0  0  0
    7.0912   43.1108   69.6422 N   0  0  0  0  0  0  0  0  0  0  0  0
    7.9720   42.3521   68.8687 C   0  0  0  0  0  0  0  0  0  0  0  0
    9.2493   42.8319   68.5975 C   0  0  0  0  0  0  0  0  0  0  0  0
    7.6192   41.2571   68.4322 O   0  0  0  0  0  0  0  0  0  0  0  0
   10.1510   42.0475   67.8533 N   0  0  0  0  0  0  0  0  0  0  0  0
   11.5132   42.5287   67.4867 C   0  0  2  0  0  0  0  0  0  0  0  0
   12.0005   43.5266   68.5510 C   0  0  0  0  0  0  0  0  0  0  0  0
    9.6348   44.0547   69.1283 C   0  0  0  0  0  0  0  0  0  0  0  0
   10.9281   44.5287   68.8776 N   0  0  0  0  0  0  0  0  0  0  0  0
   11.4345   43.2325   66.0989 C   0  0  0  0  0  0  0  0  0  0  0  0
  1  3  1  0  0  0  0
  2  3  2  0  0  0  0
  2 11  1  0  0  0  0
  3  4  1  0  0  0  0
  4  5  1  0  0  0  0
  5  6  1  0  0  0  0
  5  7  2  0  0  0  0
  6  8  1  0  0  0  0
  6 11  2  0  0  0  0
  8  9  1  0  0  0  0
  9 10  1  0  0  0  0
  9 13  1  6  0  0  0
 10 12  1  0  0  0  0
 11 12  1  0  0  0  0
M  END
>  <CHROM.1>
9.28914555,43.33813286,68.76981894,-2.68924285,-0.39195374,-2.56380777

>  <Name>
ligand

>  <RI>
0

>  <Rbt.Current_Directory>
/home/itssahil/PROJECTS/Mol_Feturizer/New_Systems/rnas/3SUX

>  <Rbt.Executable>
rbdock ($Id: //depot/dev/client3/rdock/2013.1/src/exe/rbdock.cxx#4 $)

>  <Rbt.Library>
libRbt.so (2013.1, Build901 2013/11/27)

>  <Rbt.Parameter_File>
/export/apps/rDock/src/rDock_2013.1_src/data/scripts/dock_solv.prm

>  <Rbt.Receptor>
prm/pocket_docking_4.prm

>  <SCORE>
-8.36463

>  <SCORE.INTER>
-8.36463

>  <SCORE.INTER.CONST>
1

>  <SCORE.INTER.POLAR>
0

>  <SCORE.INTER.ROT>
0

>  <SCORE.INTER.SOLV>
11.8015

>  <SCORE.INTER.VDW>
-13.1102

>  <SCORE.INTER.norm>
-0.643433

>  <SCORE.INTRA>
0

>  <SCORE.INTRA.DIHEDRAL>
0

>  <SCORE.INTRA.DIHEDRAL.0>
0

>  <SCORE.INTRA.POLAR>
0

>  <SCORE.INTRA.POLAR.0>
0

>  <SCORE.INTRA.REPUL>
0

>  <SCORE.INTRA.REPUL.0>
0

>  <SCORE.INTRA.SOLV>
0

>  <SCORE.INTRA.SOLV.lig_0>
-48.6608

>  <SCORE.INTRA.VDW>
0

>  <SCORE.INTRA.VDW.0>
0

>  <SCORE.INTRA.norm>
0

>  <SCORE.RESTR>
0

>  <SCORE.RESTR.CAVITY>
0

>  <SCORE.RESTR.norm>
0

>  <SCORE.SYSTEM>
0

>  <SCORE.SYSTEM.CONST>
0

>  <SCORE.SYSTEM.DIHEDRAL>
0

>  <SCORE.SYSTEM.SOLV>
0

>  <SCORE.SYSTEM.norm>
0

>  <SCORE.heavy>
13

>  <SCORE.norm>
-0.643433

>  <RMSD>
4.826

$$$$
ligand
 OpenBabel11021811483D
libRbt.so/2013.1/901 2013/11/27
 13 14  0  0  0  0  0  0  0  0999 V2000
    6.7632   45.0200   70.9913 N   0  0  0  0  0  0  0  0  0  0  0  0
    8.8260   44.7213   69.9768 N   0  0  0  0  0  0  0  0  0  0  0  0
    7.5724   44.2975   70.2221 C   0  0  0  0  0  0  0  0  0  0  0  0
    7.1160   43.0946   69.6846 N   0  0  0  0  0  0  0  0  0  0  0  0
    7.9842   42.3532   68.8807 C   0  0  0  0  0  0  0  0  0  0  0  0
    9.2703   42.8208   68.6308 C   0  0  0  0  0  0  0  0  0  0  0  0
    7.6125   41.2839   68.3986 O   0  0  0  0  0  0  0  0  0  0  0  0
   10.1589   42.0521   67.8552 N   0  0  0  0  0  0  0  0  0  0  0  0
   11.5301   42.5237   67.5100 C   0  0  2  0  0  0  0  0  0  0  0  0
   12.0336   43.4672   68.6155 C   0  0  0  0  0  0  0  0  0  0  0  0
    9.6769   44.0132   69.2126 C   0  0  0  0  0  0  0  0  0  0  0  0
   10.9789   44.4739   68.9829 N   0  0  0  0  0  0  0  0  0  0  0  0
   11.4660   43.2862   66.1528 C   0  0  0  0  0  0  0  0  0  0  0  0
  1  3  1  0  0  0  0
  2  3  2  0  0  0  0
  2 11  1  0  0  0  0
  3  4  1  0  0  0  0
  4  5  1  0  0  0  0
  5  6  1  0  0  0  0
  5  7  2  0  0  0  0
  6  8  1  0  0  0  0
  6 11  2  0  0  0  0
  8  9  1  0  0  0  0
  9 10  1  0  0  0  0
  9 13  1  6  0  0  0
 10 12  1  0  0  0  0
 11 12  1  0  0  0  0
M  END
>  <CHROM.1>
9.31897553,43.31862005,68.82420353,-2.67391984,-0.38085611,-2.51618299

>  <Name>
ligand

>  <RI>
0

>  <Rbt.Current_Directory>
/home/itssahil/PROJECTS/Mol_Feturizer/New_Systems/rnas/3SUX

>  <Rbt.Executable>
rbdock ($Id: //depot/dev/client3/rdock/2013.1/src/exe/rbdock.cxx#4 $)

>  <Rbt.Library>
libRbt.so (2013.1, Build901 2013/11/27)

>  <Rbt.Parameter_File>
/export/apps/rDock/src/rDock_2013.1_src/data/scripts/dock_solv.prm

>  <Rbt.Receptor>
prm/pocket_docking_5.prm

>  <SCORE>
-8.39052

>  <SCORE.INTER>
-8.39052

>  <SCORE.INTER.CONST>
1

>  <SCORE.INTER.POLAR>
0

>  <SCORE.INTER.ROT>
0

>  <SCORE.INTER.SOLV>
10.9627

>  <SCORE.INTER.VDW>
-12.8479

>  <SCORE.INTER.norm>
-0.645425

>  <SCORE.INTRA>
0

>  <SCORE.INTRA.DIHEDRAL>
0

>  <SCORE.INTRA.DIHEDRAL.0>
0

>  <SCORE.INTRA.POLAR>
0

>  <SCORE.INTRA.POLAR.0>
0

>  <SCORE.INTRA.REPUL>
0

>  <SCORE.INTRA.REPUL.0>
0

>  <SCORE.INTRA.SOLV>
0

>  <SCORE.INTRA.SOLV.lig_0>
-48.6608

>  <SCORE.INTRA.VDW>
0

>  <SCORE.INTRA.VDW.0>
0

>  <SCORE.INTRA.norm>
0

>  <SCORE.RESTR>
0

>  <SCORE.RESTR.CAVITY>
0

>  <SCORE.RESTR.norm>
0

>  <SCORE.SYSTEM>
0

>  <SCORE.SYSTEM.CONST>
0

>  <SCORE.SYSTEM.DIHEDRAL>
0

>  <SCORE.SYSTEM.SOLV>
0

>  <SCORE.SYSTEM.norm>
0

>  <SCORE.heavy>
13

>  <SCORE.norm>
-0.645425

>  <RMSD>
4.829

$$$$
ligand
 OpenBabel11021811483D
libRbt.so/2013.1/901 2013/11/27
 13 14  0  0  0  0  0  0  0  0999 V2000
    6.7807   45.0087   70.9833 N   0  0  0  0  0  0  0  0  0  0  0  0
    8.8390   44.6977   69.9633 N   0  0  0  0  0  0  0  0  0  0  0  0
    7.5795   44.2877   70.2017 C   0  0  0  0  0  0  0  0  0  0  0  0
    7.1061   43.1007   69.6444 N   0  0  0  0  0  0  0  0  0  0  0  0
    7.9636   42.3606   68.8278 C   0  0  0  0  0  0  0  0  0  0  0  0
    9.2561   42.8139   68.5854 C   0  0  0  0  0  0  0  0  0  0  0  0
    7.5766   41.3049   68.3279 O   0  0  0  0  0  0  0  0  0  0  0  0
   10.1336   42.0458   67.7967 N   0  0  0  0  0  0  0  0  0  0  0  0
   11.5114   42.5035   67.4591 C   0  0  2  0  0  0  0  0  0  0  0  0
   12.0283   43.4211   68.5801 C   0  0  0  0  0  0  0  0  0  0  0  0
    9.6797   43.9905   69.1870 C   0  0  0  0  0  0  0  0  0  0  0  0
   10.9881   44.4364   68.9647 N   0  0  0  0  0  0  0  0  0  0  0  0
   11.4581   43.2896   66.1149 C   0  0  0  0  0  0  0  0  0  0  0  0
  1  3  1  0  0  0  0
  2  3  2  0  0  0  0
  2 11  1  0  0  0  0
  3  4  1  0  0  0  0
  4  5  1  0  0  0  0
  5  6  1  0  0  0  0
  5  7  2  0  0  0  0
  6  8  1  0  0  0  0
  6 11  2  0  0  0  0
  8  9  1  0  0  0  0
  9 10  1  0  0  0  0
  9 13  1  6  0  0  0
 10 12  1  0  0  0  0
 11 12  1  0  0  0  0
M  END
>  <CHROM.1>
9.31189450,43.30771603,68.78712284,-2.66148441,-0.37254903,-2.49481459

>  <Name>
ligand

>  <RI>
0

>  <Rbt.Current_Directory>
/home/itssahil/PROJECTS/Mol_Feturizer/New_Systems/rnas/3SUX

>  <Rbt.Executable>
rbdock ($Id: //depot/dev/client3/rdock/2013.1/src/exe/rbdock.cxx#4 $)

>  <Rbt.Library>
libRbt.so (2013.1, Build901 2013/11/27)

>  <Rbt.Parameter_File>
/export/apps/rDock/src/rDock_2013.1_src/data/scripts/dock_solv.prm

>  <Rbt.Receptor>
prm/pocket_docking_6.prm

>  <SCORE>
-8.38135

>  <SCORE.INTER>
-8.38135

>  <SCORE.INTER.CONST>
1

>  <SCORE.INTER.POLAR>
0

>  <SCORE.INTER.ROT>
0

>  <SCORE.INTER.SOLV>
11.1773

>  <SCORE.INTER.VDW>
-12.9133

>  <SCORE.INTER.norm>
-0.644719

>  <SCORE.INTRA>
0

>  <SCORE.INTRA.DIHEDRAL>
0

>  <SCORE.INTRA.DIHEDRAL.0>
0

>  <SCORE.INTRA.POLAR>
0

>  <SCORE.INTRA.POLAR.0>
0

>  <SCORE.INTRA.REPUL>
0

>  <SCORE.INTRA.REPUL.0>
0

>  <SCORE.INTRA.SOLV>
0

>  <SCORE.INTRA.SOLV.lig_0>
-48.6608

>  <SCORE.INTRA.VDW>
0

>  <SCORE.INTRA.VDW.0>
0

>  <SCORE.INTRA.norm>
0

>  <SCORE.RESTR>
0

>  <SCORE.RESTR.CAVITY>
0

>  <SCORE.RESTR.norm>
0

>  <SCORE.SYSTEM>
0

>  <SCORE.SYSTEM.CONST>
0

>  <SCORE.SYSTEM.DIHEDRAL>
0

>  <SCORE.SYSTEM.SOLV>
0

>  <SCORE.SYSTEM.norm>
0

>  <SCORE.heavy>
13

>  <SCORE.norm>
-0.644719

>  <RMSD>
4.829

$$$$
ligand
 OpenBabel11021811483D
libRbt.so/2013.1/901 2013/11/27
 13 14  0  0  0  0  0  0  0  0999 V2000
    6.7435   45.0312   70.9674 N   0  0  0  0  0  0  0  0  0  0  0  0
    8.8117   44.7317   69.9641 N   0  0  0  0  0  0  0  0  0  0  0  0
    7.5575   44.3071   70.2046 C   0  0  0  0  0  0  0  0  0  0  0  0
    7.1053   43.1018   69.6692 N   0  0  0  0  0  0  0  0  0  0  0  0
    7.9784   42.3587   68.8720 C   0  0  0  0  0  0  0  0  0  0  0  0
    9.2651   42.8271   68.6268 C   0  0  0  0  0  0  0  0  0  0  0  0
    7.6103   41.2873   68.3918 O   0  0  0  0  0  0  0  0  0  0  0  0
   10.1584   42.0569   67.8582 N   0  0  0  0  0  0  0  0  0  0  0  0
   11.5306   42.5291   67.5181 C   0  0  2  0  0  0  0  0  0  0  0  0
   12.0275   43.4771   68.6227 C   0  0  0  0  0  0  0  0  0  0  0  0
    9.6673   44.0220   69.2064 C   0  0  0  0  0  0  0  0  0  0  0  0
   10.9698   44.4836   68.9815 N   0  0  0  0  0  0  0  0  0  0  0  0
   11.4723   43.2868   66.1580 C   0  0  0  0  0  0  0  0  0  0  0  0
  1  3  1  0  0  0  0
  2  3  2  0  0  0  0
  2 11  1  0  0  0  0
  3  4  1  0  0  0  0
  4  5  1  0  0  0  0
  5  6  1  0  0  0  0
  5  7  2  0  0  0  0
  6  8  1  0  0  0  0
  6 11  2  0  0  0  0
  8  9  1  0  0  0  0
  9 10  1  0  0  0  0
  9 13  1  6  0  0  0
 10 12  1  0  0  0  0
 11 12  1  0  0  0  0
M  END
>  <CHROM.1>
9.31211963,43.32566354,68.81871481,-2.67812338,-0.37764308,-2.52119935

>  <Name>
ligand

>  <RI>
0

>  <Rbt.Current_Directory>
/home/itssahil/PROJECTS/Mol_Feturizer/New_Systems/rnas/3SUX

>  <Rbt.Executable>
rbdock ($Id: //depot/dev/client3/rdock/2013.1/src/exe/rbdock.cxx#4 $)

>  <Rbt.Library>
libRbt.so (2013.1, Build901 2013/11/27)

>  <Rbt.Parameter_File>
/export/apps/rDock/src/rDock_2013.1_src/data/scripts/dock_solv.prm

>  <Rbt.Receptor>
prm/pocket_docking_4.prm

>  <SCORE>
-8.39134

>  <SCORE.INTER>
-8.39134

>  <SCORE.INTER.CONST>
1

>  <SCORE.INTER.POLAR>
0

>  <SCORE.INTER.ROT>
0

>  <SCORE.INTER.SOLV>
11.1089

>  <SCORE.INTER.VDW>
-12.8972

>  <SCORE.INTER.norm>
-0.645488

>  <SCORE.INTRA>
0

>  <SCORE.INTRA.DIHEDRAL>
0

>  <SCORE.INTRA.DIHEDRAL.0>
0

>  <SCORE.INTRA.POLAR>
0

>  <SCORE.INTRA.POLAR.0>
0

>  <SCORE.INTRA.REPUL>
0

>  <SCORE.INTRA.REPUL.0>
0

>  <SCORE.INTRA.SOLV>
0

>  <SCORE.INTRA.SOLV.lig_0>
-48.6608

>  <SCORE.INTRA.VDW>
0

>  <SCORE.INTRA.VDW.0>
0

>  <SCORE.INTRA.norm>
0

>  <SCORE.RESTR>
0

>  <SCORE.RESTR.CAVITY>
0

>  <SCORE.RESTR.norm>
0

>  <SCORE.SYSTEM>
0

>  <SCORE.SYSTEM.CONST>
0

>  <SCORE.SYSTEM.DIHEDRAL>
0

>  <SCORE.SYSTEM.SOLV>
0

>  <SCORE.SYSTEM.norm>
0

>  <SCORE.heavy>
13

>  <SCORE.norm>
-0.645488

>  <RMSD>
4.830

$$$$
ligand
 OpenBabel11021811483D
libRbt.so/2013.1/901 2013/11/27
 13 14  0  0  0  0  0  0  0  0999 V2000
    6.7473   45.0280   70.9727 N   0  0  0  0  0  0  0  0  0  0  0  0
    8.8152   44.7271   69.9692 N   0  0  0  0  0  0  0  0  0  0  0  0
    7.5602   44.3042   70.2085 C   0  0  0  0  0  0  0  0  0  0  0  0
    7.1060   43.1009   69.6701 N   0  0  0  0  0  0  0  0  0  0  0  0
    7.9780   42.3581   68.8716 C   0  0  0  0  0  0  0  0  0  0  0  0
    9.2656   42.8248   68.6278 C   0  0  0  0  0  0  0  0  0  0  0  0
    7.6082   41.2884   68.3888 O   0  0  0  0  0  0  0  0  0  0  0  0
   10.1578   42.0548   67.8577 N   0  0  0  0  0  0  0  0  0  0  0  0
   11.5310   42.5253   67.5190 C   0  0  2  0  0  0  0  0  0  0  0  0
   12.0292   43.4699   68.6259 C   0  0  0  0  0  0  0  0  0  0  0  0
    9.6697   44.0177   69.2102 C   0  0  0  0  0  0  0  0  0  0  0  0
   10.9731   44.4775   68.9867 N   0  0  0  0  0  0  0  0  0  0  0  0
   11.4743   43.2862   66.1606 C   0  0  0  0  0  0  0  0  0  0  0  0
  1  3  1  0  0  0  0
  2  3  2  0  0  0  0
  2 11  1  0  0  0  0
  3  4  1  0  0  0  0
  4  5  1  0  0  0  0
  5  6  1  0  0  0  0
  5  7  2  0  0  0  0
  6  8  1  0  0  0  0
  6 11  2  0  0  0  0
  8  9  1  0  0  0  0
  9 10  1  0  0  0  0
  9 13  1  6  0  0  0
 10 12  1  0  0  0  0
 11 12  1  0  0  0  0
M  END
>  <CHROM.1>
9.31348024,43.32283688,68.82082616,-2.67676116,-0.37638187,-2.51842214

>  <Name>
ligand

>  <RI>
0

>  <Rbt.Current_Directory>
/home/itssahil/PROJECTS/Mol_Feturizer/New_Systems/rnas/3SUX

>  <Rbt.Executable>
rbdock ($Id: //depot/dev/client3/rdock/2013.1/src/exe/rbdock.cxx#4 $)

>  <Rbt.Library>
libRbt.so (2013.1, Build901 2013/11/27)

>  <Rbt.Parameter_File>
/export/apps/rDock/src/rDock_2013.1_src/data/scripts/dock_solv.prm

>  <Rbt.Receptor>
prm/pocket_docking_4.prm

>  <SCORE>
-8.3918

>  <SCORE.INTER>
-8.3918

>  <SCORE.INTER.CONST>
1

>  <SCORE.INTER.POLAR>
0

>  <SCORE.INTER.ROT>
0

>  <SCORE.INTER.SOLV>
11.0663

>  <SCORE.INTER.VDW>
-12.8833

>  <SCORE.INTER.norm>
-0.645523

>  <SCORE.INTRA>
0

>  <SCORE.INTRA.DIHEDRAL>
0

>  <SCORE.INTRA.DIHEDRAL.0>
0

>  <SCORE.INTRA.POLAR>
0

>  <SCORE.INTRA.POLAR.0>
0

>  <SCORE.INTRA.REPUL>
0

>  <SCORE.INTRA.REPUL.0>
0

>  <SCORE.INTRA.SOLV>
0

>  <SCORE.INTRA.SOLV.lig_0>
-48.6608

>  <SCORE.INTRA.VDW>
0

>  <SCORE.INTRA.VDW.0>
0

>  <SCORE.INTRA.norm>
0

>  <SCORE.RESTR>
0

>  <SCORE.RESTR.CAVITY>
0

>  <SCORE.RESTR.norm>
0

>  <SCORE.SYSTEM>
0

>  <SCORE.SYSTEM.CONST>
0

>  <SCORE.SYSTEM.DIHEDRAL>
0

>  <SCORE.SYSTEM.SOLV>
0

>  <SCORE.SYSTEM.norm>
0

>  <SCORE.heavy>
13

>  <SCORE.norm>
-0.645523

>  <RMSD>
4.830

$$$$
ligand
 OpenBabel11021811483D
libRbt.so/2013.1/901 2013/11/27
 13 14  0  0  0  0  0  0  0  0999 V2000
    6.7874   45.0053   70.9995 N   0  0  0  0  0  0  0  0  0  0  0  0
    8.8447   44.6901   69.9788 N   0  0  0  0  0  0  0  0  0  0  0  0
    7.5833   44.2846   70.2148 C   0  0  0  0  0  0  0  0  0  0  0  0
    7.1048   43.1024   69.6514 N   0  0  0  0  0  0  0  0  0  0  0  0
    7.9593   42.3626   68.8315 C   0  0  0  0  0  0  0  0  0  0  0  0
    9.2540   42.8113   68.5919 C   0  0  0  0  0  0  0  0  0  0  0  0
    7.5678   41.3111   68.3263 O   0  0  0  0  0  0  0  0  0  0  0  0
   10.1283   42.0432   67.7997 N   0  0  0  0  0  0  0  0  0  0  0  0
   11.5082   42.4964   67.4649 C   0  0  2  0  0  0  0  0  0  0  0  0
   12.0288   43.4061   68.5905 C   0  0  0  0  0  0  0  0  0  0  0  0
    9.6825   43.9830   69.1994 C   0  0  0  0  0  0  0  0  0  0  0  0
   10.9930   44.4242   68.9797 N   0  0  0  0  0  0  0  0  0  0  0  0
   11.4590   43.2892   66.1245 C   0  0  0  0  0  0  0  0  0  0  0  0
  1  3  1  0  0  0  0
  2  3  2  0  0  0  0
  2 11  1  0  0  0  0
  3  4  1  0  0  0  0
  4  5  1  0  0  0  0
  5  6  1  0  0  0  0
  5  7  2  0  0  0  0
  6  8  1  0  0  0  0
  6 11  2  0  0  0  0
  8  9  1  0  0  0  0
  9 10  1  0  0  0  0
  9 13  1  6  0  0  0
 10 12  1  0  0  0  0
 11 12  1  0  0  0  0
M  END
>  <CHROM.1>
9.31183530,43.30382075,68.79600014,-2.65792658,-0.36953836,-2.48862393

>  <Name>
ligand

>  <RI>
0

>  <Rbt.Current_Directory>
/home/itssahil/PROJECTS/Mol_Feturizer/New_Systems/rnas/3SUX

>  <Rbt.Executable>
rbdock ($Id: //depot/dev/client3/rdock/2013.1/src/exe/rbdock.cxx#4 $)

>  <Rbt.Library>
libRbt.so (2013.1, Build901 2013/11/27)

>  <Rbt.Parameter_File>
/export/apps/rDock/src/rDock_2013.1_src/data/scripts/dock_solv.prm

>  <Rbt.Receptor>
prm/pocket_docking_4.prm

>  <SCORE>
-8.38463

>  <SCORE.INTER>
-8.38463

>  <SCORE.INTER.CONST>
1

>  <SCORE.INTER.POLAR>
0

>  <SCORE.INTER.ROT>
0

>  <SCORE.INTER.SOLV>
11.0503

>  <SCORE.INTER.VDW>
-12.8732

>  <SCORE.INTER.norm>
-0.644971

>  <SCORE.INTRA>
0

>  <SCORE.INTRA.DIHEDRAL>
0

>  <SCORE.INTRA.DIHEDRAL.0>
0

>  <SCORE.INTRA.POLAR>
0

>  <SCORE.INTRA.POLAR.0>
0

>  <SCORE.INTRA.REPUL>
0

>  <SCORE.INTRA.REPUL.0>
0

>  <SCORE.INTRA.SOLV>
0

>  <SCORE.INTRA.SOLV.lig_0>
-48.6608

>  <SCORE.INTRA.VDW>
0

>  <SCORE.INTRA.VDW.0>
0

>  <SCORE.INTRA.norm>
0

>  <SCORE.RESTR>
0

>  <SCORE.RESTR.CAVITY>
0

>  <SCORE.RESTR.norm>
0

>  <SCORE.SYSTEM>
0

>  <SCORE.SYSTEM.CONST>
0

>  <SCORE.SYSTEM.DIHEDRAL>
0

>  <SCORE.SYSTEM.SOLV>
0

>  <SCORE.SYSTEM.norm>
0

>  <SCORE.heavy>
13

>  <SCORE.norm>
-0.644971

>  <RMSD>
4.830

$$$$
ligand
 OpenBabel11021811483D
libRbt.so/2013.1/901 2013/11/27
 13 14  0  0  0  0  0  0  0  0999 V2000
    6.7588   45.0243   70.9861 N   0  0  0  0  0  0  0  0  0  0  0  0
    8.8244   44.7151   69.9804 N   0  0  0  0  0  0  0  0  0  0  0  0
    7.5666   44.2993   70.2176 C   0  0  0  0  0  0  0  0  0  0  0  0
    7.1042   43.1021   69.6727 N   0  0  0  0  0  0  0  0  0  0  0  0
    7.9709   42.3579   68.8698 C   0  0  0  0  0  0  0  0  0  0  0  0
    9.2616   42.8172   68.6283 C   0  0  0  0  0  0  0  0  0  0  0  0
    7.5938   41.2934   68.3812 O   0  0  0  0  0  0  0  0  0  0  0  0
   10.1484   42.0455   67.8536 N   0  0  0  0  0  0  0  0  0  0  0  0
   11.5246   42.5086   67.5173 C   0  0  2  0  0  0  0  0  0  0  0  0
   12.0295   43.4437   68.6292 C   0  0  0  0  0  0  0  0  0  0  0  0
    9.6739   44.0041   69.2172 C   0  0  0  0  0  0  0  0  0  0  0  0
   10.9803   44.4564   68.9959 N   0  0  0  0  0  0  0  0  0  0  0  0
   11.4728   43.2774   66.1631 C   0  0  0  0  0  0  0  0  0  0  0  0
  1  3  1  0  0  0  0
  2  3  2  0  0  0  0
  2 11  1  0  0  0  0
  3  4  1  0  0  0  0
  4  5  1  0  0  0  0
  5  6  1  0  0  0  0
  5  7  2  0  0  0  0
  6  8  1  0  0  0  0
  6 11  2  0  0  0  0
  8  9  1  0  0  0  0
  9 10  1  0  0  0  0
  9 13  1  6  0  0  0
 10 12  1  0  0  0  0
 11 12  1  0  0  0  0
M  END
>  <CHROM.1>
9.31288599,43.31384589,68.82405221,-2.67072892,-0.37263020,-2.51065766

>  <Name>
ligand

>  <RI>
0

>  <Rbt.Current_Directory>
/home/itssahil/PROJECTS/Mol_Feturizer/New_Systems/rnas/3SUX

>  <Rbt.Executable>
rbdock ($Id: //depot/dev/client3/rdock/2013.1/src/exe/rbdock.cxx#4 $)

>  <Rbt.Library>
libRbt.so (2013.1, Build901 2013/11/27)

>  <Rbt.Parameter_File>
/export/apps/rDock/src/rDock_2013.1_src/data/scripts/dock_solv.prm

>  <Rbt.Receptor>
prm/pocket_docking_6.prm

>  <SCORE>
-8.38642

>  <SCORE.INTER>
-8.38642

>  <SCORE.INTER.CONST>
1

>  <SCORE.INTER.POLAR>
0

>  <SCORE.INTER.ROT>
0

>  <SCORE.INTER.SOLV>
10.9615

>  <SCORE.INTER.VDW>
-12.8448

>  <SCORE.INTER.norm>
-0.645109

>  <SCORE.INTRA>
0

>  <SCORE.INTRA.DIHEDRAL>
0

>  <SCORE.INTRA.DIHEDRAL.0>
0

>  <SCORE.INTRA.POLAR>
0

>  <SCORE.INTRA.POLAR.0>
0

>  <SCORE.INTRA.REPUL>
0

>  <SCORE.INTRA.REPUL.0>
0

>  <SCORE.INTRA.SOLV>
0

>  <SCORE.INTRA.SOLV.lig_0>
-48.6608

>  <SCORE.INTRA.VDW>
0

>  <SCORE.INTRA.VDW.0>
0

>  <SCORE.INTRA.norm>
0

>  <SCORE.RESTR>
0

>  <SCORE.RESTR.CAVITY>
0

>  <SCORE.RESTR.norm>
0

>  <SCORE.SYSTEM>
0

>  <SCORE.SYSTEM.CONST>
0

>  <SCORE.SYSTEM.DIHEDRAL>
0

>  <SCORE.SYSTEM.SOLV>
0

>  <SCORE.SYSTEM.norm>
0

>  <SCORE.heavy>
13

>  <SCORE.norm>
-0.645109

>  <RMSD>
4.830

$$$$
ligand
 OpenBabel11021811483D
libRbt.so/2013.1/901 2013/11/27
 13 14  0  0  0  0  0  0  0  0999 V2000
    6.7835   45.0118   70.9939 N   0  0  0  0  0  0  0  0  0  0  0  0
    8.8400   44.6958   69.9719 N   0  0  0  0  0  0  0  0  0  0  0  0
    7.5796   44.2893   70.2110 C   0  0  0  0  0  0  0  0  0  0  0  0
    7.1022   43.1041   69.6529 N   0  0  0  0  0  0  0  0  0  0  0  0
    7.9568   42.3623   68.8350 C   0  0  0  0  0  0  0  0  0  0  0  0
    9.2505   42.8121   68.5920 C   0  0  0  0  0  0  0  0  0  0  0  0
    7.5663   41.3083   68.3344 O   0  0  0  0  0  0  0  0  0  0  0  0
   10.1251   42.0422   67.8018 N   0  0  0  0  0  0  0  0  0  0  0  0
   11.5039   42.4962   67.4635 C   0  0  2  0  0  0  0  0  0  0  0  0
   12.0245   43.4112   68.5849 C   0  0  0  0  0  0  0  0  0  0  0  0
    9.6781   43.9869   69.1943 C   0  0  0  0  0  0  0  0  0  0  0  0
   10.9876   44.4292   68.9713 N   0  0  0  0  0  0  0  0  0  0  0  0
   11.4519   43.2836   66.1201 C   0  0  0  0  0  0  0  0  0  0  0  0
  1  3  1  0  0  0  0
  2  3  2  0  0  0  0
  2 11  1  0  0  0  0
  3  4  1  0  0  0  0
  4  5  1  0  0  0  0
  5  6  1  0  0  0  0
  5  7  2  0  0  0  0
  6  8  1  0  0  0  0
  6 11  2  0  0  0  0
  8  9  1  0  0  0  0
  9 10  1  0  0  0  0
  9 13  1  6  0  0  0
 10 12  1  0  0  0  0
 11 12  1  0  0  0  0
M  END
>  <CHROM.1>
9.30790228,43.30552692,68.79406860,-2.65845315,-0.37143704,-2.49276756

>  <Name>
ligand

>  <RI>
0

>  <Rbt.Current_Directory>
/home/itssahil/PROJECTS/Mol_Feturizer/New_Systems/rnas/3SUX

>  <Rbt.Executable>
rbdock ($Id: //depot/dev/client3/rdock/2013.1/src/exe/rbdock.cxx#4 $)

>  <Rbt.Library>
libRbt.so (2013.1, Build901 2013/11/27)

>  <Rbt.Parameter_File>
/export/apps/rDock/src/rDock_2013.1_src/data/scripts/dock_solv.prm

>  <Rbt.Receptor>
prm/pocket_docking_6.prm

>  <SCORE>
-8.38402

>  <SCORE.INTER>
-8.38402

>  <SCORE.INTER.CONST>
1

>  <SCORE.INTER.POLAR>
0

>  <SCORE.INTER.ROT>
0

>  <SCORE.INTER.SOLV>
11.0923

>  <SCORE.INTER.VDW>
-12.8868

>  <SCORE.INTER.norm>
-0.644925

>  <SCORE.INTRA>
0

>  <SCORE.INTRA.DIHEDRAL>
0

>  <SCORE.INTRA.DIHEDRAL.0>
0

>  <SCORE.INTRA.POLAR>
0

>  <SCORE.INTRA.POLAR.0>
0

>  <SCORE.INTRA.REPUL>
0

>  <SCORE.INTRA.REPUL.0>
0

>  <SCORE.INTRA.SOLV>
0

>  <SCORE.INTRA.SOLV.lig_0>
-48.6608

>  <SCORE.INTRA.VDW>
0

>  <SCORE.INTRA.VDW.0>
0

>  <SCORE.INTRA.norm>
0

>  <SCORE.RESTR>
0

>  <SCORE.RESTR.CAVITY>
0

>  <SCORE.RESTR.norm>
0

>  <SCORE.SYSTEM>
0

>  <SCORE.SYSTEM.CONST>
0

>  <SCORE.SYSTEM.DIHEDRAL>
0

>  <SCORE.SYSTEM.SOLV>
0

>  <SCORE.SYSTEM.norm>
0

>  <SCORE.heavy>
13

>  <SCORE.norm>
-0.644925

>  <RMSD>
4.830

$$$$
ligand
 OpenBabel11021811483D
libRbt.so/2013.1/901 2013/11/27
 13 14  0  0  0  0  0  0  0  0999 V2000
    6.7614   45.0618   70.9814 N   0  0  0  0  0  0  0  0  0  0  0  0
    8.8267   44.7397   69.9793 N   0  0  0  0  0  0  0  0  0  0  0  0
    7.5669   44.3303   70.2167 C   0  0  0  0  0  0  0  0  0  0  0  0
    7.0999   43.1331   69.6759 N   0  0  0  0  0  0  0  0  0  0  0  0
    7.9643   42.3820   68.8768 C   0  0  0  0  0  0  0  0  0  0  0  0
    9.2572   42.8348   68.6350 C   0  0  0  0  0  0  0  0  0  0  0  0
    7.5831   41.3173   68.3918 O   0  0  0  0  0  0  0  0  0  0  0  0
   10.1415   42.0563   67.8643 N   0  0  0  0  0  0  0  0  0  0  0  0
   11.5201   42.5121   67.5277 C   0  0  2  0  0  0  0  0  0  0  0  0
   12.0278   43.4492   68.6367 C   0  0  0  0  0  0  0  0  0  0  0  0
    9.6741   44.0221   69.2198 C   0  0  0  0  0  0  0  0  0  0  0  0
   10.9826   44.4678   68.9983 N   0  0  0  0  0  0  0  0  0  0  0  0
   11.4732   43.2759   66.1706 C   0  0  0  0  0  0  0  0  0  0  0  0
  1  3  1  0  0  0  0
  2  3  2  0  0  0  0
  2 11  1  0  0  0  0
  3  4  1  0  0  0  0
  4  5  1  0  0  0  0
  5  6  1  0  0  0  0
  5  7  2  0  0  0  0
  6  8  1  0  0  0  0
  6 11  2  0  0  0  0
  8  9  1  0  0  0  0
  9 10  1  0  0  0  0
  9 13  1  6  0  0  0
 10 12  1  0  0  0  0
 11 12  1  0  0  0  0
M  END
>  <CHROM.1>
9.31045195,43.33194044,68.82890742,-2.66767004,-0.36915306,-2.51338062

>  <Name>
ligand

>  <RI>
0

>  <Rbt.Current_Directory>
/home/itssahil/PROJECTS/Mol_Feturizer/New_Systems/rnas/3SUX

>  <Rbt.Executable>
rbdock ($Id: //depot/dev/client3/rdock/2013.1/src/exe/rbdock.cxx#4 $)

>  <Rbt.Library>
libRbt.so (2013.1, Build901 2013/11/27)

>  <Rbt.Parameter_File>
/export/apps/rDock/src/rDock_2013.1_src/data/scripts/dock_solv.prm

>  <Rbt.Receptor>
prm/pocket_docking_7.prm

>  <SCORE>
-8.37325

>  <SCORE.INTER>
-8.37325

>  <SCORE.INTER.CONST>
1

>  <SCORE.INTER.POLAR>
0

>  <SCORE.INTER.ROT>
0

>  <SCORE.INTER.SOLV>
10.8952

>  <SCORE.INTER.VDW>
-12.8139

>  <SCORE.INTER.norm>
-0.644096

>  <SCORE.INTRA>
0

>  <SCORE.INTRA.DIHEDRAL>
0

>  <SCORE.INTRA.DIHEDRAL.0>
0

>  <SCORE.INTRA.POLAR>
0

>  <SCORE.INTRA.POLAR.0>
0

>  <SCORE.INTRA.REPUL>
0

>  <SCORE.INTRA.REPUL.0>
0

>  <SCORE.INTRA.SOLV>
0

>  <SCORE.INTRA.SOLV.lig_0>
-48.6608

>  <SCORE.INTRA.VDW>
0

>  <SCORE.INTRA.VDW.0>
0

>  <SCORE.INTRA.norm>
0

>  <SCORE.RESTR>
0

>  <SCORE.RESTR.CAVITY>
0

>  <SCORE.RESTR.norm>
0

>  <SCORE.SYSTEM>
0

>  <SCORE.SYSTEM.CONST>
0

>  <SCORE.SYSTEM.DIHEDRAL>
0

>  <SCORE.SYSTEM.SOLV>
0

>  <SCORE.SYSTEM.norm>
0

>  <SCORE.heavy>
13

>  <SCORE.norm>
-0.644096

>  <RMSD>
4.830

$$$$
ligand
 OpenBabel11021811483D
libRbt.so/2013.1/901 2013/11/27
 13 14  0  0  0  0  0  0  0  0999 V2000
    6.7685   45.0083   71.0043 N   0  0  0  0  0  0  0  0  0  0  0  0
    8.8364   44.6951   70.0046 N   0  0  0  0  0  0  0  0  0  0  0  0
    7.5735   44.2877   70.2288 C   0  0  0  0  0  0  0  0  0  0  0  0
    7.1027   43.1036   69.6629 N   0  0  0  0  0  0  0  0  0  0  0  0
    7.9667   42.3638   68.8529 C   0  0  0  0  0  0  0  0  0  0  0  0
    9.2629   42.8145   68.6253 C   0  0  0  0  0  0  0  0  0  0  0  0
    7.5822   41.3107   68.3458 O   0  0  0  0  0  0  0  0  0  0  0  0
   10.1465   42.0466   67.8433 N   0  0  0  0  0  0  0  0  0  0  0  0
   11.5288   42.5017   67.5213 C   0  0  2  0  0  0  0  0  0  0  0  0
   12.0365   43.4145   68.6504 C   0  0  0  0  0  0  0  0  0  0  0  0
    9.6833   43.9881   69.2349 C   0  0  0  0  0  0  0  0  0  0  0  0
   10.9950   44.4313   69.0274 N   0  0  0  0  0  0  0  0  0  0  0  0
   11.4915   43.2920   66.1791 C   0  0  0  0  0  0  0  0  0  0  0  0
  1  3  1  0  0  0  0
  2  3  2  0  0  0  0
  2 11  1  0  0  0  0
  3  4  1  0  0  0  0
  4  5  1  0  0  0  0
  5  6  1  0  0  0  0
  5  7  2  0  0  0  0
  6  8  1  0  0  0  0
  6 11  2  0  0  0  0
  8  9  1  0  0  0  0
  9 10  1  0  0  0  0
  9 13  1  6  0  0  0
 10 12  1  0  0  0  0
 11 12  1  0  0  0  0
M  END
>  <CHROM.1>
9.31783159,43.30752422,68.82909551,-2.66593438,-0.36274977,-2.49331723

>  <Name>
ligand

>  <RI>
0

>  <Rbt.Current_Directory>
/home/itssahil/PROJECTS/Mol_Feturizer/New_Systems/rnas/3SUX

>  <Rbt.Executable>
rbdock ($Id: //depot/dev/client3/rdock/2013.1/src/exe/rbdock.cxx#4 $)

>  <Rbt.Library>
libRbt.so (2013.1, Build901 2013/11/27)

>  <Rbt.Parameter_File>
/export/apps/rDock/src/rDock_2013.1_src/data/scripts/dock_solv.prm

>  <Rbt.Receptor>
prm/pocket_docking_7.prm

>  <SCORE>
-8.36519

>  <SCORE.INTER>
-8.36519

>  <SCORE.INTER.CONST>
1

>  <SCORE.INTER.POLAR>
0

>  <SCORE.INTER.ROT>
0

>  <SCORE.INTER.SOLV>
10.8336

>  <SCORE.INTER.VDW>
-12.788

>  <SCORE.INTER.norm>
-0.643476

>  <SCORE.INTRA>
0

>  <SCORE.INTRA.DIHEDRAL>
0

>  <SCORE.INTRA.DIHEDRAL.0>
0

>  <SCORE.INTRA.POLAR>
0

>  <SCORE.INTRA.POLAR.0>
0

>  <SCORE.INTRA.REPUL>
0

>  <SCORE.INTRA.REPUL.0>
0

>  <SCORE.INTRA.SOLV>
0

>  <SCORE.INTRA.SOLV.lig_0>
-48.6608

>  <SCORE.INTRA.VDW>
0

>  <SCORE.INTRA.VDW.0>
0

>  <SCORE.INTRA.norm>
0

>  <SCORE.RESTR>
0

>  <SCORE.RESTR.CAVITY>
0

>  <SCORE.RESTR.norm>
0

>  <SCORE.SYSTEM>
0

>  <SCORE.SYSTEM.CONST>
0

>  <SCORE.SYSTEM.DIHEDRAL>
0

>  <SCORE.SYSTEM.SOLV>
0

>  <SCORE.SYSTEM.norm>
0

>  <SCORE.heavy>
13

>  <SCORE.norm>
-0.643476

>  <RMSD>
4.830

$$$$
ligand
 OpenBabel11021811483D
libRbt.so/2013.1/901 2013/11/27
 13 14  0  0  0  0  0  0  0  0999 V2000
    6.7614   45.0214   70.9962 N   0  0  0  0  0  0  0  0  0  0  0  0
    8.8264   44.7086   69.9906 N   0  0  0  0  0  0  0  0  0  0  0  0
    7.5670   44.2966   70.2253 C   0  0  0  0  0  0  0  0  0  0  0  0
    7.1005   43.1033   69.6753 N   0  0  0  0  0  0  0  0  0  0  0  0
    7.9650   42.3592   68.8700 C   0  0  0  0  0  0  0  0  0  0  0  0
    9.2575   42.8147   68.6311 C   0  0  0  0  0  0  0  0  0  0  0  0
    7.5843   41.2980   68.3768 O   0  0  0  0  0  0  0  0  0  0  0  0
   10.1420   42.0428   67.8539 N   0  0  0  0  0  0  0  0  0  0  0  0
   11.5201   42.5022   67.5202 C   0  0  2  0  0  0  0  0  0  0  0  0
   12.0277   43.4309   68.6363 C   0  0  0  0  0  0  0  0  0  0  0  0
    9.6739   43.9976   69.2251 C   0  0  0  0  0  0  0  0  0  0  0  0
   10.9820   44.4460   69.0064 N   0  0  0  0  0  0  0  0  0  0  0  0
   11.4720   43.2766   66.1691 C   0  0  0  0  0  0  0  0  0  0  0  0
  1  3  1  0  0  0  0
  2  3  2  0  0  0  0
  2 11  1  0  0  0  0
  3  4  1  0  0  0  0
  4  5  1  0  0  0  0
  5  6  1  0  0  0  0
  5  7  2  0  0  0  0
  6  8  1  0  0  0  0
  6 11  2  0  0  0  0
  8  9  1  0  0  0  0
  9 10  1  0  0  0  0
  9 13  1  6  0  0  0
 10 12  1  0  0  0  0
 11 12  1  0  0  0  0
M  END
>  <CHROM.1>
9.31052649,43.31031219,68.82889906,-2.66793569,-0.36994918,-2.50560613

>  <Name>
ligand

>  <RI>
0

>  <Rbt.Current_Directory>
/home/itssahil/PROJECTS/Mol_Feturizer/New_Systems/rnas/3SUX

>  <Rbt.Executable>
rbdock ($Id: //depot/dev/client3/rdock/2013.1/src/exe/rbdock.cxx#4 $)

>  <Rbt.Library>
libRbt.so (2013.1, Build901 2013/11/27)

>  <Rbt.Parameter_File>
/export/apps/rDock/src/rDock_2013.1_src/data/scripts/dock_solv.prm

>  <Rbt.Receptor>
prm/pocket_docking_4.prm

>  <SCORE>
-8.38346

>  <SCORE.INTER>
-8.38346

>  <SCORE.INTER.CONST>
1

>  <SCORE.INTER.POLAR>
0

>  <SCORE.INTER.ROT>
0

>  <SCORE.INTER.SOLV>
10.8906

>  <SCORE.INTER.VDW>
-12.8192

>  <SCORE.INTER.norm>
-0.644882

>  <SCORE.INTRA>
0

>  <SCORE.INTRA.DIHEDRAL>
0

>  <SCORE.INTRA.DIHEDRAL.0>
0

>  <SCORE.INTRA.POLAR>
0

>  <SCORE.INTRA.POLAR.0>
0

>  <SCORE.INTRA.REPUL>
0

>  <SCORE.INTRA.REPUL.0>
0

>  <SCORE.INTRA.SOLV>
0

>  <SCORE.INTRA.SOLV.lig_0>
-48.6608

>  <SCORE.INTRA.VDW>
0

>  <SCORE.INTRA.VDW.0>
0

>  <SCORE.INTRA.norm>
0

>  <SCORE.RESTR>
0

>  <SCORE.RESTR.CAVITY>
0

>  <SCORE.RESTR.norm>
0

>  <SCORE.SYSTEM>
0

>  <SCORE.SYSTEM.CONST>
0

>  <SCORE.SYSTEM.DIHEDRAL>
0

>  <SCORE.SYSTEM.SOLV>
0

>  <SCORE.SYSTEM.norm>
0

>  <SCORE.heavy>
13

>  <SCORE.norm>
-0.644882

>  <RMSD>
4.831

$$$$
ligand
 OpenBabel11021811483D
libRbt.so/2013.1/901 2013/11/27
 13 14  0  0  0  0  0  0  0  0999 V2000
    6.7582   45.1641   70.9833 N   0  0  0  0  0  0  0  0  0  0  0  0
    8.8244   44.8217   69.9896 N   0  0  0  0  0  0  0  0  0  0  0  0
    7.5655   44.4155   70.2373 C   0  0  0  0  0  0  0  0  0  0  0  0
    7.1014   43.2038   69.7270 N   0  0  0  0  0  0  0  0  0  0  0  0
    7.9677   42.4348   68.9472 C   0  0  0  0  0  0  0  0  0  0  0  0
    9.2595   42.8845   68.6939 C   0  0  0  0  0  0  0  0  0  0  0  0
    7.5891   41.3573   68.4893 O   0  0  0  0  0  0  0  0  0  0  0  0
   10.1457   42.0888   67.9432 N   0  0  0  0  0  0  0  0  0  0  0  0
   11.5232   42.5393   67.5951 C   0  0  2  0  0  0  0  0  0  0  0  0
   12.0286   43.5054   68.6800 C   0  0  0  0  0  0  0  0  0  0  0  0
    9.6734   44.0872   69.2485 C   0  0  0  0  0  0  0  0  0  0  0  0
   10.9810   44.5304   69.0157 N   0  0  0  0  0  0  0  0  0  0  0  0
   11.4744   43.2684   66.2190 C   0  0  0  0  0  0  0  0  0  0  0  0
  1  3  1  0  0  0  0
  2  3  2  0  0  0  0
  2 11  1  0  0  0  0
  3  4  1  0  0  0  0
  4  5  1  0  0  0  0
  5  6  1  0  0  0  0
  5  7  2  0  0  0  0
  6  8  1  0  0  0  0
  6 11  2  0  0  0  0
  8  9  1  0  0  0  0
  9 10  1  0  0  0  0
  9 13  1  6  0  0  0
 10 12  1  0  0  0  0
 11 12  1  0  0  0  0
M  END
>  <CHROM.1>
9.31152878,43.38648280,68.87519123,-2.66979133,-0.37055526,-2.53947954

>  <Name>
ligand

>  <RI>
0

>  <Rbt.Current_Directory>
/home/itssahil/PROJECTS/Mol_Feturizer/New_Systems/rnas/3SUX

>  <Rbt.Executable>
rbdock ($Id: //depot/dev/client3/rdock/2013.1/src/exe/rbdock.cxx#4 $)

>  <Rbt.Library>
libRbt.so (2013.1, Build901 2013/11/27)

>  <Rbt.Parameter_File>
/export/apps/rDock/src/rDock_2013.1_src/data/scripts/dock_solv.prm

>  <Rbt.Receptor>
prm/pocket_docking_8.prm

>  <SCORE>
-8.37824

>  <SCORE.INTER>
-8.37824

>  <SCORE.INTER.CONST>
1

>  <SCORE.INTER.POLAR>
0

>  <SCORE.INTER.ROT>
0

>  <SCORE.INTER.SOLV>
10.5039

>  <SCORE.INTER.VDW>
-12.6868

>  <SCORE.INTER.norm>
-0.64448

>  <SCORE.INTRA>
0

>  <SCORE.INTRA.DIHEDRAL>
0

>  <SCORE.INTRA.DIHEDRAL.0>
0

>  <SCORE.INTRA.POLAR>
0

>  <SCORE.INTRA.POLAR.0>
0

>  <SCORE.INTRA.REPUL>
0

>  <SCORE.INTRA.REPUL.0>
0

>  <SCORE.INTRA.SOLV>
0

>  <SCORE.INTRA.SOLV.lig_0>
-48.6608

>  <SCORE.INTRA.VDW>
0

>  <SCORE.INTRA.VDW.0>
0

>  <SCORE.INTRA.norm>
0

>  <SCORE.RESTR>
0

>  <SCORE.RESTR.CAVITY>
0

>  <SCORE.RESTR.norm>
0

>  <SCORE.SYSTEM>
0

>  <SCORE.SYSTEM.CONST>
0

>  <SCORE.SYSTEM.DIHEDRAL>
0

>  <SCORE.SYSTEM.SOLV>
0

>  <SCORE.SYSTEM.norm>
0

>  <SCORE.heavy>
13

>  <SCORE.norm>
-0.64448

>  <RMSD>
4.831

$$$$
ligand
 OpenBabel11021811483D
libRbt.so/2013.1/901 2013/11/27
 13 14  0  0  0  0  0  0  0  0999 V2000
    6.7950   44.9947   71.0212 N   0  0  0  0  0  0  0  0  0  0  0  0
    8.8522   44.6745   70.0019 N   0  0  0  0  0  0  0  0  0  0  0  0
    7.5876   44.2755   70.2317 C   0  0  0  0  0  0  0  0  0  0  0  0
    7.1022   43.1017   69.6570 N   0  0  0  0  0  0  0  0  0  0  0  0
    7.9534   42.3632   68.8324 C   0  0  0  0  0  0  0  0  0  0  0  0
    9.2516   42.8052   68.5993 C   0  0  0  0  0  0  0  0  0  0  0  0
    7.5558   41.3189   68.3171 O   0  0  0  0  0  0  0  0  0  0  0  0
   10.1224   42.0381   67.8022 N   0  0  0  0  0  0  0  0  0  0  0  0
   11.5060   42.4848   67.4742 C   0  0  2  0  0  0  0  0  0  0  0  0
   12.0304   43.3810   68.6089 C   0  0  0  0  0  0  0  0  0  0  0  0
    9.6869   43.9685   69.2180 C   0  0  0  0  0  0  0  0  0  0  0  0
   11.0008   44.4026   69.0050 N   0  0  0  0  0  0  0  0  0  0  0  0
   11.4650   43.2897   66.1408 C   0  0  0  0  0  0  0  0  0  0  0  0
  1  3  1  0  0  0  0
  2  3  2  0  0  0  0
  2 11  1  0  0  0  0
  3  4  1  0  0  0  0
  4  5  1  0  0  0  0
  5  6  1  0  0  0  0
  5  7  2  0  0  0  0
  6  8  1  0  0  0  0
  6 11  2  0  0  0  0
  8  9  1  0  0  0  0
  9 10  1  0  0  0  0
  9 13  1  6  0  0  0
 10 12  1  0  0  0  0
 11 12  1  0  0  0  0
M  END
>  <CHROM.1>
9.31240060,43.29547375,68.80791024,-2.65348950,-0.36372272,-2.47820733

>  <Name>
ligand

>  <RI>
0

>  <Rbt.Current_Directory>
/home/itssahil/PROJECTS/Mol_Feturizer/New_Systems/rnas/3SUX

>  <Rbt.Executable>
rbdock ($Id: //depot/dev/client3/rdock/2013.1/src/exe/rbdock.cxx#4 $)

>  <Rbt.Library>
libRbt.so (2013.1, Build901 2013/11/27)

>  <Rbt.Parameter_File>
/export/apps/rDock/src/rDock_2013.1_src/data/scripts/dock_solv.prm

>  <Rbt.Receptor>
prm/pocket_docking_8.prm

>  <SCORE>
-8.38077

>  <SCORE.INTER>
-8.38077

>  <SCORE.INTER.CONST>
1

>  <SCORE.INTER.POLAR>
0

>  <SCORE.INTER.ROT>
0

>  <SCORE.INTER.SOLV>
10.8837

>  <SCORE.INTER.VDW>
-12.8151

>  <SCORE.INTER.norm>
-0.644675

>  <SCORE.INTRA>
0

>  <SCORE.INTRA.DIHEDRAL>
0

>  <SCORE.INTRA.DIHEDRAL.0>
0

>  <SCORE.INTRA.POLAR>
0

>  <SCORE.INTRA.POLAR.0>
0

>  <SCORE.INTRA.REPUL>
0

>  <SCORE.INTRA.REPUL.0>
0

>  <SCORE.INTRA.SOLV>
0

>  <SCORE.INTRA.SOLV.lig_0>
-48.6608

>  <SCORE.INTRA.VDW>
0

>  <SCORE.INTRA.VDW.0>
0

>  <SCORE.INTRA.norm>
0

>  <SCORE.RESTR>
0

>  <SCORE.RESTR.CAVITY>
0

>  <SCORE.RESTR.norm>
0

>  <SCORE.SYSTEM>
0

>  <SCORE.SYSTEM.CONST>
0

>  <SCORE.SYSTEM.DIHEDRAL>
0

>  <SCORE.SYSTEM.SOLV>
0

>  <SCORE.SYSTEM.norm>
0

>  <SCORE.heavy>
13

>  <SCORE.norm>
-0.644675

>  <RMSD>
4.831

$$$$
ligand
 OpenBabel11021811483D
libRbt.so/2013.1/901 2013/11/27
 13 14  0  0  0  0  0  0  0  0999 V2000
    6.7702   45.0389   70.9701 N   0  0  0  0  0  0  0  0  0  0  0  0
    8.8173   44.7304   69.9270 N   0  0  0  0  0  0  0  0  0  0  0  0
    7.5674   44.3093   70.1949 C   0  0  0  0  0  0  0  0  0  0  0  0
    7.1026   43.1021   69.6750 N   0  0  0  0  0  0  0  0  0  0  0  0
    7.9582   42.3533   68.8644 C   0  0  0  0  0  0  0  0  0  0  0  0
    9.2405   42.8180   68.5910 C   0  0  0  0  0  0  0  0  0  0  0  0
    7.5787   41.2800   68.3973 O   0  0  0  0  0  0  0  0  0  0  0  0
   10.1169   42.0422   67.8086 N   0  0  0  0  0  0  0  0  0  0  0  0
   11.4828   42.5101   67.4385 C   0  0  2  0  0  0  0  0  0  0  0  0
   12.0034   43.4630   68.5279 C   0  0  0  0  0  0  0  0  0  0  0  0
    9.6563   44.0152   69.1561 C   0  0  0  0  0  0  0  0  0  0  0  0
   10.9548   44.4733   68.9026 N   0  0  0  0  0  0  0  0  0  0  0  0
   11.3984   43.2608   66.0759 C   0  0  0  0  0  0  0  0  0  0  0  0
  1  3  1  0  0  0  0
  2  3  2  0  0  0  0
  2 11  1  0  0  0  0
  3  4  1  0  0  0  0
  4  5  1  0  0  0  0
  5  6  1  0  0  0  0
  5  7  2  0  0  0  0
  6  8  1  0  0  0  0
  6 11  2  0  0  0  0
  8  9  1  0  0  0  0
  9 10  1  0  0  0  0
  9 13  1  6  0  0  0
 10 12  1  0  0  0  0
 11 12  1  0  0  0  0
M  END
>  <CHROM.1>
9.29221625,43.31750287,68.77923487,-2.66398100,-0.39297437,-2.52113019

>  <Name>
ligand

>  <RI>
0

>  <Rbt.Current_Directory>
/home/itssahil/PROJECTS/Mol_Feturizer/New_Systems/rnas/3SUX

>  <Rbt.Executable>
rbdock ($Id: //depot/dev/client3/rdock/2013.1/src/exe/rbdock.cxx#4 $)

>  <Rbt.Library>
libRbt.so (2013.1, Build901 2013/11/27)

>  <Rbt.Parameter_File>
/export/apps/rDock/src/rDock_2013.1_src/data/scripts/dock_solv.prm

>  <Rbt.Receptor>
prm/pocket_docking_4.prm

>  <SCORE>
-8.37352

>  <SCORE.INTER>
-8.37352

>  <SCORE.INTER.CONST>
1

>  <SCORE.INTER.POLAR>
0

>  <SCORE.INTER.ROT>
0

>  <SCORE.INTER.SOLV>
11.3519

>  <SCORE.INTER.VDW>
-12.9663

>  <SCORE.INTER.norm>
-0.644117

>  <SCORE.INTRA>
0

>  <SCORE.INTRA.DIHEDRAL>
0

>  <SCORE.INTRA.DIHEDRAL.0>
0

>  <SCORE.INTRA.POLAR>
0

>  <SCORE.INTRA.POLAR.0>
0

>  <SCORE.INTRA.REPUL>
0

>  <SCORE.INTRA.REPUL.0>
0

>  <SCORE.INTRA.SOLV>
0

>  <SCORE.INTRA.SOLV.lig_0>
-48.6608

>  <SCORE.INTRA.VDW>
0

>  <SCORE.INTRA.VDW.0>
0

>  <SCORE.INTRA.norm>
0

>  <SCORE.RESTR>
0

>  <SCORE.RESTR.CAVITY>
0

>  <SCORE.RESTR.norm>
0

>  <SCORE.SYSTEM>
0

>  <SCORE.SYSTEM.CONST>
0

>  <SCORE.SYSTEM.DIHEDRAL>
0

>  <SCORE.SYSTEM.SOLV>
0

>  <SCORE.SYSTEM.norm>
0

>  <SCORE.heavy>
13

>  <SCORE.norm>
-0.644117

>  <RMSD>
4.832

$$$$
ligand
 OpenBabel11021811483D
libRbt.so/2013.1/901 2013/11/27
 13 14  0  0  0  0  0  0  0  0999 V2000
    6.7775   45.0057   71.0291 N   0  0  0  0  0  0  0  0  0  0  0  0
    8.8409   44.6902   70.0208 N   0  0  0  0  0  0  0  0  0  0  0  0
    7.5783   44.2843   70.2500 C   0  0  0  0  0  0  0  0  0  0  0  0
    7.1038   43.1011   69.6856 N   0  0  0  0  0  0  0  0  0  0  0  0
    7.9634   42.3605   68.8718 C   0  0  0  0  0  0  0  0  0  0  0  0
    9.2593   42.8096   68.6390 C   0  0  0  0  0  0  0  0  0  0  0  0
    7.5755   41.3081   68.3658 O   0  0  0  0  0  0  0  0  0  0  0  0
   10.1387   42.0408   67.8531 N   0  0  0  0  0  0  0  0  0  0  0  0
   11.5202   42.4943   67.5256 C   0  0  2  0  0  0  0  0  0  0  0  0
   12.0337   43.4060   68.6530 C   0  0  0  0  0  0  0  0  0  0  0  0
    9.6836   43.9824   69.2473 C   0  0  0  0  0  0  0  0  0  0  0  0
   10.9951   44.4240   69.0347 N   0  0  0  0  0  0  0  0  0  0  0  0
   11.4784   43.2852   66.1839 C   0  0  0  0  0  0  0  0  0  0  0  0
  1  3  1  0  0  0  0
  2  3  2  0  0  0  0
  2 11  1  0  0  0  0
  3  4  1  0  0  0  0
  4  5  1  0  0  0  0
  5  6  1  0  0  0  0
  5  7  2  0  0  0  0
  6  8  1  0  0  0  0
  6 11  2  0  0  0  0
  8  9  1  0  0  0  0
  9 10  1  0  0  0  0
  9 13  1  6  0  0  0
 10 12  1  0  0  0  0
 11 12  1  0  0  0  0
M  END
>  <CHROM.1>
9.31567216,43.30246718,68.84277305,-2.66218883,-0.36524482,-2.49159270

>  <Name>
ligand

>  <RI>
0

>  <Rbt.Current_Directory>
/home/itssahil/PROJECTS/Mol_Feturizer/New_Systems/rnas/3SUX

>  <Rbt.Executable>
rbdock ($Id: //depot/dev/client3/rdock/2013.1/src/exe/rbdock.cxx#4 $)

>  <Rbt.Library>
libRbt.so (2013.1, Build901 2013/11/27)

>  <Rbt.Parameter_File>
/export/apps/rDock/src/rDock_2013.1_src/data/scripts/dock_solv.prm

>  <Rbt.Receptor>
prm/pocket_docking_4.prm

>  <SCORE>
-8.37743

>  <SCORE.INTER>
-8.37743

>  <SCORE.INTER.CONST>
1

>  <SCORE.INTER.POLAR>
0

>  <SCORE.INTER.ROT>
0

>  <SCORE.INTER.SOLV>
10.6579

>  <SCORE.INTER.VDW>
-12.7376

>  <SCORE.INTER.norm>
-0.644418

>  <SCORE.INTRA>
0

>  <SCORE.INTRA.DIHEDRAL>
0

>  <SCORE.INTRA.DIHEDRAL.0>
0

>  <SCORE.INTRA.POLAR>
0

>  <SCORE.INTRA.POLAR.0>
0

>  <SCORE.INTRA.REPUL>
0

>  <SCORE.INTRA.REPUL.0>
0

>  <SCORE.INTRA.SOLV>
0

>  <SCORE.INTRA.SOLV.lig_0>
-48.6608

>  <SCORE.INTRA.VDW>
0

>  <SCORE.INTRA.VDW.0>
0

>  <SCORE.INTRA.norm>
0

>  <SCORE.RESTR>
0

>  <SCORE.RESTR.CAVITY>
0

>  <SCORE.RESTR.norm>
0

>  <SCORE.SYSTEM>
0

>  <SCORE.SYSTEM.CONST>
0

>  <SCORE.SYSTEM.DIHEDRAL>
0

>  <SCORE.SYSTEM.SOLV>
0

>  <SCORE.SYSTEM.norm>
0

>  <SCORE.heavy>
13

>  <SCORE.norm>
-0.644418

>  <RMSD>
4.832

$$$$
ligand
 OpenBabel11021811483D
libRbt.so/2013.1/901 2013/11/27
 13 14  0  0  0  0  0  0  0  0999 V2000
    6.7516   45.0602   70.9833 N   0  0  0  0  0  0  0  0  0  0  0  0
    8.8188   44.7388   69.9848 N   0  0  0  0  0  0  0  0  0  0  0  0
    7.5582   44.3297   70.2189 C   0  0  0  0  0  0  0  0  0  0  0  0
    7.0916   43.1338   69.6749 N   0  0  0  0  0  0  0  0  0  0  0  0
    7.9572   42.3837   68.8762 C   0  0  0  0  0  0  0  0  0  0  0  0
    9.2509   42.8361   68.6378 C   0  0  0  0  0  0  0  0  0  0  0  0
    7.5764   41.3201   68.3884 O   0  0  0  0  0  0  0  0  0  0  0  0
   10.1363   42.0585   67.8675 N   0  0  0  0  0  0  0  0  0  0  0  0
   11.5158   42.5141   67.5346 C   0  0  2  0  0  0  0  0  0  0  0  0
   12.0218   43.4489   68.6463 C   0  0  0  0  0  0  0  0  0  0  0  0
    9.6672   44.0221   69.2257 C   0  0  0  0  0  0  0  0  0  0  0  0
   10.9765   44.4675   69.0077 N   0  0  0  0  0  0  0  0  0  0  0  0
   11.4721   43.2805   66.1787 C   0  0  0  0  0  0  0  0  0  0  0  0
  1  3  1  0  0  0  0
  2  3  2  0  0  0  0
  2 11  1  0  0  0  0
  3  4  1  0  0  0  0
  4  5  1  0  0  0  0
  5  6  1  0  0  0  0
  5  7  2  0  0  0  0
  6  8  1  0  0  0  0
  6 11  2  0  0  0  0
  8  9  1  0  0  0  0
  9 10  1  0  0  0  0
  9 13  1  6  0  0  0
 10 12  1  0  0  0  0
 11 12  1  0  0  0  0
M  END
>  <CHROM.1>
9.30401013,43.33289417,68.83276999,-2.66843267,-0.36716067,-2.51179651

>  <Name>
ligand

>  <RI>
0

>  <Rbt.Current_Directory>
/home/itssahil/PROJECTS/Mol_Feturizer/New_Systems/rnas/3SUX

>  <Rbt.Executable>
rbdock ($Id: //depot/dev/client3/rdock/2013.1/src/exe/rbdock.cxx#4 $)

>  <Rbt.Library>
libRbt.so (2013.1, Build901 2013/11/27)

>  <Rbt.Parameter_File>
/export/apps/rDock/src/rDock_2013.1_src/data/scripts/dock_solv.prm

>  <Rbt.Receptor>
prm/pocket_docking_5.prm

>  <SCORE>
-8.37171

>  <SCORE.INTER>
-8.37171

>  <SCORE.INTER.CONST>
1

>  <SCORE.INTER.POLAR>
0

>  <SCORE.INTER.ROT>
0

>  <SCORE.INTER.SOLV>
10.8922

>  <SCORE.INTER.VDW>
-12.8119

>  <SCORE.INTER.norm>
-0.643978

>  <SCORE.INTRA>
0

>  <SCORE.INTRA.DIHEDRAL>
0

>  <SCORE.INTRA.DIHEDRAL.0>
0

>  <SCORE.INTRA.POLAR>
0

>  <SCORE.INTRA.POLAR.0>
0

>  <SCORE.INTRA.REPUL>
0

>  <SCORE.INTRA.REPUL.0>
0

>  <SCORE.INTRA.SOLV>
0

>  <SCORE.INTRA.SOLV.lig_0>
-48.6608

>  <SCORE.INTRA.VDW>
0

>  <SCORE.INTRA.VDW.0>
0

>  <SCORE.INTRA.norm>
0

>  <SCORE.RESTR>
0

>  <SCORE.RESTR.CAVITY>
0

>  <SCORE.RESTR.norm>
0

>  <SCORE.SYSTEM>
0

>  <SCORE.SYSTEM.CONST>
0

>  <SCORE.SYSTEM.DIHEDRAL>
0

>  <SCORE.SYSTEM.SOLV>
0

>  <SCORE.SYSTEM.norm>
0

>  <SCORE.heavy>
13

>  <SCORE.norm>
-0.643978

>  <RMSD>
4.832

$$$$
ligand
 OpenBabel11021811483D
libRbt.so/2013.1/901 2013/11/27
 13 14  0  0  0  0  0  0  0  0999 V2000
    6.7546   45.0271   70.9900 N   0  0  0  0  0  0  0  0  0  0  0  0
    8.8183   44.7198   69.9799 N   0  0  0  0  0  0  0  0  0  0  0  0
    7.5621   44.3019   70.2214 C   0  0  0  0  0  0  0  0  0  0  0  0
    7.1011   43.1022   69.6809 N   0  0  0  0  0  0  0  0  0  0  0  0
    7.9675   42.3578   68.8778 C   0  0  0  0  0  0  0  0  0  0  0  0
    9.2565   42.8194   68.6318 C   0  0  0  0  0  0  0  0  0  0  0  0
    7.5915   41.2912   68.3929 O   0  0  0  0  0  0  0  0  0  0  0  0
   10.1431   42.0476   67.8570 N   0  0  0  0  0  0  0  0  0  0  0  0
   11.5174   42.5129   67.5159 C   0  0  2  0  0  0  0  0  0  0  0  0
   12.0229   43.4521   68.6241 C   0  0  0  0  0  0  0  0  0  0  0  0
    9.6676   44.0088   69.2165 C   0  0  0  0  0  0  0  0  0  0  0  0
   10.9724   44.4634   68.9907 N   0  0  0  0  0  0  0  0  0  0  0  0
   11.4604   43.2780   66.1598 C   0  0  0  0  0  0  0  0  0  0  0  0
  1  3  1  0  0  0  0
  2  3  2  0  0  0  0
  2 11  1  0  0  0  0
  3  4  1  0  0  0  0
  4  5  1  0  0  0  0
  5  6  1  0  0  0  0
  5  7  2  0  0  0  0
  6  8  1  0  0  0  0
  6 11  2  0  0  0  0
  8  9  1  0  0  0  0
  9 10  1  0  0  0  0
  9 13  1  6  0  0  0
 10 12  1  0  0  0  0
 11 12  1  0  0  0  0
M  END
>  <CHROM.1>
9.30713291,43.31664984,68.82611463,-2.67109894,-0.37599000,-2.51346490

>  <Name>
ligand

>  <RI>
0

>  <Rbt.Current_Directory>
/home/itssahil/PROJECTS/Mol_Feturizer/New_Systems/rnas/3SUX

>  <Rbt.Executable>
rbdock ($Id: //depot/dev/client3/rdock/2013.1/src/exe/rbdock.cxx#4 $)

>  <Rbt.Library>
libRbt.so (2013.1, Build901 2013/11/27)

>  <Rbt.Parameter_File>
/export/apps/rDock/src/rDock_2013.1_src/data/scripts/dock_solv.prm

>  <Rbt.Receptor>
prm/pocket_docking_8.prm

>  <SCORE>
-8.38808

>  <SCORE.INTER>
-8.38808

>  <SCORE.INTER.CONST>
1

>  <SCORE.INTER.POLAR>
0

>  <SCORE.INTER.ROT>
0

>  <SCORE.INTER.SOLV>
10.9665

>  <SCORE.INTER.VDW>
-12.8475

>  <SCORE.INTER.norm>
-0.645237

>  <SCORE.INTRA>
0

>  <SCORE.INTRA.DIHEDRAL>
0

>  <SCORE.INTRA.DIHEDRAL.0>
0

>  <SCORE.INTRA.POLAR>
0

>  <SCORE.INTRA.POLAR.0>
0

>  <SCORE.INTRA.REPUL>
0

>  <SCORE.INTRA.REPUL.0>
0

>  <SCORE.INTRA.SOLV>
0

>  <SCORE.INTRA.SOLV.lig_0>
-48.6608

>  <SCORE.INTRA.VDW>
0

>  <SCORE.INTRA.VDW.0>
0

>  <SCORE.INTRA.norm>
0

>  <SCORE.RESTR>
0

>  <SCORE.RESTR.CAVITY>
0

>  <SCORE.RESTR.norm>
0

>  <SCORE.SYSTEM>
0

>  <SCORE.SYSTEM.CONST>
0

>  <SCORE.SYSTEM.DIHEDRAL>
0

>  <SCORE.SYSTEM.SOLV>
0

>  <SCORE.SYSTEM.norm>
0

>  <SCORE.heavy>
13

>  <SCORE.norm>
-0.645237

>  <RMSD>
4.832

$$$$
ligand
 OpenBabel11021811483D
libRbt.so/2013.1/901 2013/11/27
 13 14  0  0  0  0  0  0  0  0999 V2000
    6.7139   45.0561   70.9530 N   0  0  0  0  0  0  0  0  0  0  0  0
    8.7887   44.7422   69.9678 N   0  0  0  0  0  0  0  0  0  0  0  0
    7.5313   44.3235   70.2021 C   0  0  0  0  0  0  0  0  0  0  0  0
    7.0793   43.1155   69.6726 N   0  0  0  0  0  0  0  0  0  0  0  0
    7.9560   42.3634   68.8881 C   0  0  0  0  0  0  0  0  0  0  0  0
    9.2461   42.8258   68.6490 C   0  0  0  0  0  0  0  0  0  0  0  0
    7.5882   41.2894   68.4134 O   0  0  0  0  0  0  0  0  0  0  0  0
   10.1427   42.0468   67.8933 N   0  0  0  0  0  0  0  0  0  0  0  0
   11.5190   42.5119   67.5600 C   0  0  2  0  0  0  0  0  0  0  0  0
   12.0105   43.4670   68.6609 C   0  0  0  0  0  0  0  0  0  0  0  0
    9.6477   44.0239   69.2223 C   0  0  0  0  0  0  0  0  0  0  0  0
   10.9533   44.4797   69.0037 N   0  0  0  0  0  0  0  0  0  0  0  0
   11.4735   43.2591   66.1936 C   0  0  0  0  0  0  0  0  0  0  0  0
  1  3  1  0  0  0  0
  2  3  2  0  0  0  0
  2 11  1  0  0  0  0
  3  4  1  0  0  0  0
  4  5  1  0  0  0  0
  5  6  1  0  0  0  0
  5  7  2  0  0  0  0
  6  8  1  0  0  0  0
  6 11  2  0  0  0  0
  8  9  1  0  0  0  0
  9 10  1  0  0  0  0
  9 13  1  6  0  0  0
 10 12  1  0  0  0  0
 11 12  1  0  0  0  0
M  END
>  <CHROM.1>
9.29326990,43.32567751,68.83734600,-2.68005476,-0.36957472,-2.52973643

>  <Name>
ligand

>  <RI>
0

>  <Rbt.Current_Directory>
/home/itssahil/PROJECTS/Mol_Feturizer/New_Systems/rnas/3SUX

>  <Rbt.Executable>
rbdock ($Id: //depot/dev/client3/rdock/2013.1/src/exe/rbdock.cxx#4 $)

>  <Rbt.Library>
libRbt.so (2013.1, Build901 2013/11/27)

>  <Rbt.Parameter_File>
/export/apps/rDock/src/rDock_2013.1_src/data/scripts/dock_solv.prm

>  <Rbt.Receptor>
prm/pocket_docking_4.prm

>  <SCORE>
-8.36869

>  <SCORE.INTER>
-8.36869

>  <SCORE.INTER.CONST>
1

>  <SCORE.INTER.POLAR>
0

>  <SCORE.INTER.ROT>
0

>  <SCORE.INTER.SOLV>
11.0718

>  <SCORE.INTER.VDW>
-12.8697

>  <SCORE.INTER.norm>
-0.643745

>  <SCORE.INTRA>
0

>  <SCORE.INTRA.DIHEDRAL>
0

>  <SCORE.INTRA.DIHEDRAL.0>
0

>  <SCORE.INTRA.POLAR>
0

>  <SCORE.INTRA.POLAR.0>
0

>  <SCORE.INTRA.REPUL>
0

>  <SCORE.INTRA.REPUL.0>
0

>  <SCORE.INTRA.SOLV>
0

>  <SCORE.INTRA.SOLV.lig_0>
-48.6608

>  <SCORE.INTRA.VDW>
0

>  <SCORE.INTRA.VDW.0>
0

>  <SCORE.INTRA.norm>
0

>  <SCORE.RESTR>
0

>  <SCORE.RESTR.CAVITY>
0

>  <SCORE.RESTR.norm>
0

>  <SCORE.SYSTEM>
0

>  <SCORE.SYSTEM.CONST>
0

>  <SCORE.SYSTEM.DIHEDRAL>
0

>  <SCORE.SYSTEM.SOLV>
0

>  <SCORE.SYSTEM.norm>
0

>  <SCORE.heavy>
13

>  <SCORE.norm>
-0.643745

>  <RMSD>
4.833

$$$$
ligand
 OpenBabel11021811483D
libRbt.so/2013.1/901 2013/11/27
 13 14  0  0  0  0  0  0  0  0999 V2000
    6.7492   45.0309   70.9872 N   0  0  0  0  0  0  0  0  0  0  0  0
    8.8154   44.7128   69.9854 N   0  0  0  0  0  0  0  0  0  0  0  0
    7.5549   44.3032   70.2190 C   0  0  0  0  0  0  0  0  0  0  0  0
    7.0874   43.1095   69.6707 N   0  0  0  0  0  0  0  0  0  0  0  0
    7.9520   42.3624   68.8682 C   0  0  0  0  0  0  0  0  0  0  0  0
    9.2456   42.8154   68.6305 C   0  0  0  0  0  0  0  0  0  0  0  0
    7.5704   41.3009   68.3766 O   0  0  0  0  0  0  0  0  0  0  0  0
   10.1301   42.0406   67.8562 N   0  0  0  0  0  0  0  0  0  0  0  0
   11.5095   42.4971   67.5238 C   0  0  2  0  0  0  0  0  0  0  0  0
   12.0167   43.4273   68.6388 C   0  0  0  0  0  0  0  0  0  0  0  0
    9.6629   43.9989   69.2227 C   0  0  0  0  0  0  0  0  0  0  0  0
   10.9721   44.4448   69.0052 N   0  0  0  0  0  0  0  0  0  0  0  0
   11.4647   43.2689   66.1711 C   0  0  0  0  0  0  0  0  0  0  0  0
  1  3  1  0  0  0  0
  2  3  2  0  0  0  0
  2 11  1  0  0  0  0
  3  4  1  0  0  0  0
  4  5  1  0  0  0  0
  5  6  1  0  0  0  0
  5  7  2  0  0  0  0
  6  8  1  0  0  0  0
  6 11  2  0  0  0  0
  8  9  1  0  0  0  0
  9 10  1  0  0  0  0
  9 13  1  6  0  0  0
 10 12  1  0  0  0  0
 11 12  1  0  0  0  0
M  END
>  <CHROM.1>
9.29908737,43.31136641,68.82735313,-2.66758345,-0.36773854,-2.50749531

>  <Name>
ligand

>  <RI>
0

>  <Rbt.Current_Directory>
/home/itssahil/PROJECTS/Mol_Feturizer/New_Systems/rnas/3SUX

>  <Rbt.Executable>
rbdock ($Id: //depot/dev/client3/rdock/2013.1/src/exe/rbdock.cxx#4 $)

>  <Rbt.Library>
libRbt.so (2013.1, Build901 2013/11/27)

>  <Rbt.Parameter_File>
/export/apps/rDock/src/rDock_2013.1_src/data/scripts/dock_solv.prm

>  <Rbt.Receptor>
prm/pocket_docking_5.prm

>  <SCORE>
-8.37622

>  <SCORE.INTER>
-8.37622

>  <SCORE.INTER.CONST>
1

>  <SCORE.INTER.POLAR>
0

>  <SCORE.INTER.ROT>
0

>  <SCORE.INTER.SOLV>
10.955

>  <SCORE.INTER.VDW>
-12.8358

>  <SCORE.INTER.norm>
-0.644324

>  <SCORE.INTRA>
0

>  <SCORE.INTRA.DIHEDRAL>
0

>  <SCORE.INTRA.DIHEDRAL.0>
0

>  <SCORE.INTRA.POLAR>
0

>  <SCORE.INTRA.POLAR.0>
0

>  <SCORE.INTRA.REPUL>
0

>  <SCORE.INTRA.REPUL.0>
0

>  <SCORE.INTRA.SOLV>
0

>  <SCORE.INTRA.SOLV.lig_0>
-48.6608

>  <SCORE.INTRA.VDW>
0

>  <SCORE.INTRA.VDW.0>
0

>  <SCORE.INTRA.norm>
0

>  <SCORE.RESTR>
0

>  <SCORE.RESTR.CAVITY>
0

>  <SCORE.RESTR.norm>
0

>  <SCORE.SYSTEM>
0

>  <SCORE.SYSTEM.CONST>
0

>  <SCORE.SYSTEM.DIHEDRAL>
0

>  <SCORE.SYSTEM.SOLV>
0

>  <SCORE.SYSTEM.norm>
0

>  <SCORE.heavy>
13

>  <SCORE.norm>
-0.644324

>  <RMSD>
4.833

$$$$
ligand
 OpenBabel11021811483D
libRbt.so/2013.1/901 2013/11/27
 13 14  0  0  0  0  0  0  0  0999 V2000
    6.7045   45.0976   70.9491 N   0  0  0  0  0  0  0  0  0  0  0  0
    8.7762   44.7925   69.9548 N   0  0  0  0  0  0  0  0  0  0  0  0
    7.5290   44.3579   70.2130 C   0  0  0  0  0  0  0  0  0  0  0  0
    7.0951   43.1264   69.7240 N   0  0  0  0  0  0  0  0  0  0  0  0
    7.9790   42.3674   68.9543 C   0  0  0  0  0  0  0  0  0  0  0  0
    9.2580   42.8460   68.6897 C   0  0  0  0  0  0  0  0  0  0  0  0
    7.6272   41.2730   68.5153 O   0  0  0  0  0  0  0  0  0  0  0  0
   10.1626   42.0613   67.9494 N   0  0  0  0  0  0  0  0  0  0  0  0
   11.5270   42.5415   67.5898 C   0  0  2  0  0  0  0  0  0  0  0  0
   12.0100   43.5381   68.6572 C   0  0  0  0  0  0  0  0  0  0  0  0
    9.6421   44.0681   69.2233 C   0  0  0  0  0  0  0  0  0  0  0  0
   10.9371   44.5410   68.9793 N   0  0  0  0  0  0  0  0  0  0  0  0
   11.4558   43.2463   66.2022 C   0  0  0  0  0  0  0  0  0  0  0  0
  1  3  1  0  0  0  0
  2  3  2  0  0  0  0
  2 11  1  0  0  0  0
  3  4  1  0  0  0  0
  4  5  1  0  0  0  0
  5  6  1  0  0  0  0
  5  7  2  0  0  0  0
  6  8  1  0  0  0  0
  6 11  2  0  0  0  0
  8  9  1  0  0  0  0
  9 10  1  0  0  0  0
  9 13  1  6  0  0  0
 10 12  1  0  0  0  0
 11 12  1  0  0  0  0
M  END
>  <CHROM.1>
9.29748927,43.35215869,68.86261264,-2.69124701,-0.38731822,-2.56383766

>  <Name>
ligand

>  <RI>
0

>  <Rbt.Current_Directory>
/home/itssahil/PROJECTS/Mol_Feturizer/New_Systems/rnas/3SUX

>  <Rbt.Executable>
rbdock ($Id: //depot/dev/client3/rdock/2013.1/src/exe/rbdock.cxx#4 $)

>  <Rbt.Library>
libRbt.so (2013.1, Build901 2013/11/27)

>  <Rbt.Parameter_File>
/export/apps/rDock/src/rDock_2013.1_src/data/scripts/dock_solv.prm

>  <Rbt.Receptor>
prm/pocket_docking_7.prm

>  <SCORE>
-8.3451

>  <SCORE.INTER>
-8.3451

>  <SCORE.INTER.CONST>
1

>  <SCORE.INTER.POLAR>
0

>  <SCORE.INTER.ROT>
0

>  <SCORE.INTER.SOLV>
10.929

>  <SCORE.INTER.VDW>
-12.8064

>  <SCORE.INTER.norm>
-0.641931

>  <SCORE.INTRA>
0

>  <SCORE.INTRA.DIHEDRAL>
0

>  <SCORE.INTRA.DIHEDRAL.0>
0

>  <SCORE.INTRA.POLAR>
0

>  <SCORE.INTRA.POLAR.0>
0

>  <SCORE.INTRA.REPUL>
0

>  <SCORE.INTRA.REPUL.0>
0

>  <SCORE.INTRA.SOLV>
0

>  <SCORE.INTRA.SOLV.lig_0>
-48.6608

>  <SCORE.INTRA.VDW>
0

>  <SCORE.INTRA.VDW.0>
0

>  <SCORE.INTRA.norm>
0

>  <SCORE.RESTR>
0

>  <SCORE.RESTR.CAVITY>
0

>  <SCORE.RESTR.norm>
0

>  <SCORE.SYSTEM>
0

>  <SCORE.SYSTEM.CONST>
0

>  <SCORE.SYSTEM.DIHEDRAL>
0

>  <SCORE.SYSTEM.SOLV>
0

>  <SCORE.SYSTEM.norm>
0

>  <SCORE.heavy>
13

>  <SCORE.norm>
-0.641931

>  <RMSD>
4.833

$$$$
ligand
 OpenBabel11021811483D
libRbt.so/2013.1/901 2013/11/27
 13 14  0  0  0  0  0  0  0  0999 V2000
    6.7474   45.0307   70.9876 N   0  0  0  0  0  0  0  0  0  0  0  0
    8.8132   44.7199   69.9827 N   0  0  0  0  0  0  0  0  0  0  0  0
    7.5552   44.3047   70.2201 C   0  0  0  0  0  0  0  0  0  0  0  0
    7.0926   43.1070   69.6764 N   0  0  0  0  0  0  0  0  0  0  0  0
    7.9594   42.3618   68.8745 C   0  0  0  0  0  0  0  0  0  0  0  0
    9.2502   42.8205   68.6328 C   0  0  0  0  0  0  0  0  0  0  0  0
    7.5821   41.2968   68.3870 O   0  0  0  0  0  0  0  0  0  0  0  0
   10.1370   42.0477   67.8592 N   0  0  0  0  0  0  0  0  0  0  0  0
   11.5134   42.5101   67.5226 C   0  0  2  0  0  0  0  0  0  0  0  0
   12.0182   43.4462   68.6337 C   0  0  0  0  0  0  0  0  0  0  0  0
    9.6627   44.0079   69.2205 C   0  0  0  0  0  0  0  0  0  0  0  0
   10.9693   44.4596   68.9991 N   0  0  0  0  0  0  0  0  0  0  0  0
   11.4621   43.2774   66.1676 C   0  0  0  0  0  0  0  0  0  0  0  0
  1  3  1  0  0  0  0
  2  3  2  0  0  0  0
  2 11  1  0  0  0  0
  3  4  1  0  0  0  0
  4  5  1  0  0  0  0
  5  6  1  0  0  0  0
  5  7  2  0  0  0  0
  6  8  1  0  0  0  0
  6 11  2  0  0  0  0
  8  9  1  0  0  0  0
  9 10  1  0  0  0  0
  9 13  1  6  0  0  0
 10 12  1  0  0  0  0
 11 12  1  0  0  0  0
M  END
>  <CHROM.1>
9.30158015,43.31730038,68.82804631,-2.67064921,-0.37230243,-2.51170372

>  <Name>
ligand

>  <RI>
0

>  <Rbt.Current_Directory>
/home/itssahil/PROJECTS/Mol_Feturizer/New_Systems/rnas/3SUX

>  <Rbt.Executable>
rbdock ($Id: //depot/dev/client3/rdock/2013.1/src/exe/rbdock.cxx#4 $)

>  <Rbt.Library>
libRbt.so (2013.1, Build901 2013/11/27)

>  <Rbt.Parameter_File>
/export/apps/rDock/src/rDock_2013.1_src/data/scripts/dock_solv.prm

>  <Rbt.Receptor>
prm/pocket_docking_4.prm

>  <SCORE>
-8.38632

>  <SCORE.INTER>
-8.38632

>  <SCORE.INTER.CONST>
1

>  <SCORE.INTER.POLAR>
0

>  <SCORE.INTER.ROT>
0

>  <SCORE.INTER.SOLV>
10.9716

>  <SCORE.INTER.VDW>
-12.8481

>  <SCORE.INTER.norm>
-0.645102

>  <SCORE.INTRA>
0

>  <SCORE.INTRA.DIHEDRAL>
0

>  <SCORE.INTRA.DIHEDRAL.0>
0

>  <SCORE.INTRA.POLAR>
0

>  <SCORE.INTRA.POLAR.0>
0

>  <SCORE.INTRA.REPUL>
0

>  <SCORE.INTRA.REPUL.0>
0

>  <SCORE.INTRA.SOLV>
0

>  <SCORE.INTRA.SOLV.lig_0>
-48.6608

>  <SCORE.INTRA.VDW>
0

>  <SCORE.INTRA.VDW.0>
0

>  <SCORE.INTRA.norm>
0

>  <SCORE.RESTR>
0

>  <SCORE.RESTR.CAVITY>
0

>  <SCORE.RESTR.norm>
0

>  <SCORE.SYSTEM>
0

>  <SCORE.SYSTEM.CONST>
0

>  <SCORE.SYSTEM.DIHEDRAL>
0

>  <SCORE.SYSTEM.SOLV>
0

>  <SCORE.SYSTEM.norm>
0

>  <SCORE.heavy>
13

>  <SCORE.norm>
-0.645102

>  <RMSD>
4.834

$$$$
ligand
 OpenBabel11021811483D
libRbt.so/2013.1/901 2013/11/27
 13 14  0  0  0  0  0  0  0  0999 V2000
    6.7226   45.0518   70.9825 N   0  0  0  0  0  0  0  0  0  0  0  0
    8.7930   44.7444   69.9861 N   0  0  0  0  0  0  0  0  0  0  0  0
    7.5399   44.3192   70.2315 C   0  0  0  0  0  0  0  0  0  0  0  0
    7.0925   43.1046   69.7134 N   0  0  0  0  0  0  0  0  0  0  0  0
    7.9690   42.3527   68.9285 C   0  0  0  0  0  0  0  0  0  0  0  0
    9.2544   42.8218   68.6779 C   0  0  0  0  0  0  0  0  0  0  0  0
    7.6052   41.2730   68.4637 O   0  0  0  0  0  0  0  0  0  0  0  0
   10.1513   42.0433   67.9218 N   0  0  0  0  0  0  0  0  0  0  0  0
   11.5224   42.5150   67.5764 C   0  0  2  0  0  0  0  0  0  0  0  0
   12.0147   43.4810   68.6674 C   0  0  0  0  0  0  0  0  0  0  0  0
    9.6519   44.0265   69.2402 C   0  0  0  0  0  0  0  0  0  0  0  0
   10.9531   44.4892   69.0100 N   0  0  0  0  0  0  0  0  0  0  0  0
   11.4631   43.2522   66.2051 C   0  0  0  0  0  0  0  0  0  0  0  0
  1  3  1  0  0  0  0
  2  3  2  0  0  0  0
  2 11  1  0  0  0  0
  3  4  1  0  0  0  0
  4  5  1  0  0  0  0
  5  6  1  0  0  0  0
  5  7  2  0  0  0  0
  6  8  1  0  0  0  0
  6 11  2  0  0  0  0
  8  9  1  0  0  0  0
  9 10  1  0  0  0  0
  9 13  1  6  0  0  0
 10 12  1  0  0  0  0
 11 12  1  0  0  0  0
M  END
>  <CHROM.1>
9.29959141,43.32327447,68.86239107,-2.68184441,-0.37859340,-2.53740976

>  <Name>
ligand

>  <RI>
0

>  <Rbt.Current_Directory>
/home/itssahil/PROJECTS/Mol_Feturizer/New_Systems/rnas/3SUX

>  <Rbt.Executable>
rbdock ($Id: //depot/dev/client3/rdock/2013.1/src/exe/rbdock.cxx#4 $)

>  <Rbt.Library>
libRbt.so (2013.1, Build901 2013/11/27)

>  <Rbt.Parameter_File>
/export/apps/rDock/src/rDock_2013.1_src/data/scripts/dock_solv.prm

>  <Rbt.Receptor>
prm/pocket_docking_4.prm

>  <SCORE>
-8.37796

>  <SCORE.INTER>
-8.37796

>  <SCORE.INTER.CONST>
1

>  <SCORE.INTER.POLAR>
0

>  <SCORE.INTER.ROT>
0

>  <SCORE.INTER.SOLV>
10.8202

>  <SCORE.INTER.VDW>
-12.7921

>  <SCORE.INTER.norm>
-0.644459

>  <SCORE.INTRA>
0

>  <SCORE.INTRA.DIHEDRAL>
0

>  <SCORE.INTRA.DIHEDRAL.0>
0

>  <SCORE.INTRA.POLAR>
0

>  <SCORE.INTRA.POLAR.0>
0

>  <SCORE.INTRA.REPUL>
0

>  <SCORE.INTRA.REPUL.0>
0

>  <SCORE.INTRA.SOLV>
0

>  <SCORE.INTRA.SOLV.lig_0>
-48.6608

>  <SCORE.INTRA.VDW>
0

>  <SCORE.INTRA.VDW.0>
0

>  <SCORE.INTRA.norm>
0

>  <SCORE.RESTR>
0

>  <SCORE.RESTR.CAVITY>
0

>  <SCORE.RESTR.norm>
0

>  <SCORE.SYSTEM>
0

>  <SCORE.SYSTEM.CONST>
0

>  <SCORE.SYSTEM.DIHEDRAL>
0

>  <SCORE.SYSTEM.SOLV>
0

>  <SCORE.SYSTEM.norm>
0

>  <SCORE.heavy>
13

>  <SCORE.norm>
-0.644459

>  <RMSD>
4.834

$$$$
ligand
 OpenBabel11021811483D
libRbt.so/2013.1/901 2013/11/27
 13 14  0  0  0  0  0  0  0  0999 V2000
    6.7617   45.0158   71.0149 N   0  0  0  0  0  0  0  0  0  0  0  0
    8.8262   44.7080   70.0064 N   0  0  0  0  0  0  0  0  0  0  0  0
    7.5672   44.2941   70.2409 C   0  0  0  0  0  0  0  0  0  0  0  0
    7.1012   43.1023   69.6874 N   0  0  0  0  0  0  0  0  0  0  0  0
    7.9656   42.3615   68.8788 C   0  0  0  0  0  0  0  0  0  0  0  0
    9.2575   42.8189   68.6402 C   0  0  0  0  0  0  0  0  0  0  0  0
    7.5853   41.3018   68.3824 O   0  0  0  0  0  0  0  0  0  0  0  0
   10.1419   42.0503   67.8597 N   0  0  0  0  0  0  0  0  0  0  0  0
   11.5194   42.5119   67.5263 C   0  0  2  0  0  0  0  0  0  0  0  0
   12.0272   43.4373   68.6450 C   0  0  0  0  0  0  0  0  0  0  0  0
    9.6735   44.0002   69.2378 C   0  0  0  0  0  0  0  0  0  0  0  0
   10.9811   44.4503   69.0194 N   0  0  0  0  0  0  0  0  0  0  0  0
   11.4694   43.2908   66.1779 C   0  0  0  0  0  0  0  0  0  0  0  0
  1  3  1  0  0  0  0
  2  3  2  0  0  0  0
  2 11  1  0  0  0  0
  3  4  1  0  0  0  0
  4  5  1  0  0  0  0
  5  6  1  0  0  0  0
  5  7  2  0  0  0  0
  6  8  1  0  0  0  0
  6 11  2  0  0  0  0
  8  9  1  0  0  0  0
  9 10  1  0  0  0  0
  9 13  1  6  0  0  0
 10 12  1  0  0  0  0
 11 12  1  0  0  0  0
M  END
>  <CHROM.1>
9.31031812,43.31391014,68.83965769,-2.66805567,-0.37114468,-2.50232132

>  <Name>
ligand

>  <RI>
0

>  <Rbt.Current_Directory>
/home/itssahil/PROJECTS/Mol_Feturizer/New_Systems/rnas/3SUX

>  <Rbt.Executable>
rbdock ($Id: //depot/dev/client3/rdock/2013.1/src/exe/rbdock.cxx#4 $)

>  <Rbt.Library>
libRbt.so (2013.1, Build901 2013/11/27)

>  <Rbt.Parameter_File>
/export/apps/rDock/src/rDock_2013.1_src/data/scripts/dock_solv.prm

>  <Rbt.Receptor>
prm/pocket_docking_4.prm

>  <SCORE>
-8.38947

>  <SCORE.INTER>
-8.38947

>  <SCORE.INTER.CONST>
1

>  <SCORE.INTER.POLAR>
0

>  <SCORE.INTER.ROT>
0

>  <SCORE.INTER.SOLV>
10.7844

>  <SCORE.INTER.VDW>
-12.7878

>  <SCORE.INTER.norm>
-0.645344

>  <SCORE.INTRA>
0

>  <SCORE.INTRA.DIHEDRAL>
0

>  <SCORE.INTRA.DIHEDRAL.0>
0

>  <SCORE.INTRA.POLAR>
0

>  <SCORE.INTRA.POLAR.0>
0

>  <SCORE.INTRA.REPUL>
0

>  <SCORE.INTRA.REPUL.0>
0

>  <SCORE.INTRA.SOLV>
0

>  <SCORE.INTRA.SOLV.lig_0>
-48.6608

>  <SCORE.INTRA.VDW>
0

>  <SCORE.INTRA.VDW.0>
0

>  <SCORE.INTRA.norm>
0

>  <SCORE.RESTR>
0

>  <SCORE.RESTR.CAVITY>
0

>  <SCORE.RESTR.norm>
0

>  <SCORE.SYSTEM>
0

>  <SCORE.SYSTEM.CONST>
0

>  <SCORE.SYSTEM.DIHEDRAL>
0

>  <SCORE.SYSTEM.SOLV>
0

>  <SCORE.SYSTEM.norm>
0

>  <SCORE.heavy>
13

>  <SCORE.norm>
-0.645344

>  <RMSD>
4.834

$$$$
ligand
 OpenBabel11021811483D
libRbt.so/2013.1/901 2013/11/27
 13 14  0  0  0  0  0  0  0  0999 V2000
    6.7206   45.0588   70.9706 N   0  0  0  0  0  0  0  0  0  0  0  0
    8.7898   44.7488   69.9725 N   0  0  0  0  0  0  0  0  0  0  0  0
    7.5374   44.3236   70.2216 C   0  0  0  0  0  0  0  0  0  0  0  0
    7.0903   43.1063   69.7097 N   0  0  0  0  0  0  0  0  0  0  0  0
    7.9664   42.3517   68.9268 C   0  0  0  0  0  0  0  0  0  0  0  0
    9.2510   42.8208   68.6722 C   0  0  0  0  0  0  0  0  0  0  0  0
    7.6028   41.2696   68.4674 O   0  0  0  0  0  0  0  0  0  0  0  0
   10.1475   42.0397   67.9183 N   0  0  0  0  0  0  0  0  0  0  0  0
   11.5176   42.5111   67.5687 C   0  0  2  0  0  0  0  0  0  0  0  0
   12.0106   43.4824   68.6546 C   0  0  0  0  0  0  0  0  0  0  0  0
    9.6482   44.0284   69.2285 C   0  0  0  0  0  0  0  0  0  0  0  0
   10.9486   44.4911   68.9943 N   0  0  0  0  0  0  0  0  0  0  0  0
   11.4556   43.2421   66.1942 C   0  0  0  0  0  0  0  0  0  0  0  0
  1  3  1  0  0  0  0
  2  3  2  0  0  0  0
  2 11  1  0  0  0  0
  3  4  1  0  0  0  0
  4  5  1  0  0  0  0
  5  6  1  0  0  0  0
  5  7  2  0  0  0  0
  6  8  1  0  0  0  0
  6 11  2  0  0  0  0
  8  9  1  0  0  0  0
  9 10  1  0  0  0  0
  9 13  1  6  0  0  0
 10 12  1  0  0  0  0
 11 12  1  0  0  0  0
M  END
>  <CHROM.1>
9.29595674,43.32313336,68.85437549,-2.68174165,-0.38032411,-2.54185226

>  <Name>
ligand

>  <RI>
0

>  <Rbt.Current_Directory>
/home/itssahil/PROJECTS/Mol_Feturizer/New_Systems/rnas/3SUX

>  <Rbt.Executable>
rbdock ($Id: //depot/dev/client3/rdock/2013.1/src/exe/rbdock.cxx#4 $)

>  <Rbt.Library>
libRbt.so (2013.1, Build901 2013/11/27)

>  <Rbt.Parameter_File>
/export/apps/rDock/src/rDock_2013.1_src/data/scripts/dock_solv.prm

>  <Rbt.Receptor>
prm/pocket_docking_5.prm

>  <SCORE>
-8.37274

>  <SCORE.INTER>
-8.37274

>  <SCORE.INTER.CONST>
1

>  <SCORE.INTER.POLAR>
0

>  <SCORE.INTER.ROT>
0

>  <SCORE.INTER.SOLV>
10.9071

>  <SCORE.INTER.VDW>
-12.8175

>  <SCORE.INTER.norm>
-0.644057

>  <SCORE.INTRA>
0

>  <SCORE.INTRA.DIHEDRAL>
0

>  <SCORE.INTRA.DIHEDRAL.0>
0

>  <SCORE.INTRA.POLAR>
0

>  <SCORE.INTRA.POLAR.0>
0

>  <SCORE.INTRA.REPUL>
0

>  <SCORE.INTRA.REPUL.0>
0

>  <SCORE.INTRA.SOLV>
0

>  <SCORE.INTRA.SOLV.lig_0>
-48.6608

>  <SCORE.INTRA.VDW>
0

>  <SCORE.INTRA.VDW.0>
0

>  <SCORE.INTRA.norm>
0

>  <SCORE.RESTR>
0

>  <SCORE.RESTR.CAVITY>
0

>  <SCORE.RESTR.norm>
0

>  <SCORE.SYSTEM>
0

>  <SCORE.SYSTEM.CONST>
0

>  <SCORE.SYSTEM.DIHEDRAL>
0

>  <SCORE.SYSTEM.SOLV>
0

>  <SCORE.SYSTEM.norm>
0

>  <SCORE.heavy>
13

>  <SCORE.norm>
-0.644057

>  <RMSD>
4.834

$$$$
ligand
 OpenBabel11021811483D
libRbt.so/2013.1/901 2013/11/27
 13 14  0  0  0  0  0  0  0  0999 V2000
    6.7134   44.5993   70.9881 N   0  0  0  0  0  0  0  0  0  0  0  0
    8.8009   44.3953   70.0010 N   0  0  0  0  0  0  0  0  0  0  0  0
    7.5418   43.9523   70.1734 C   0  0  0  0  0  0  0  0  0  0  0  0
    7.0996   42.8073   69.5121 N   0  0  0  0  0  0  0  0  0  0  0  0
    7.9879   42.1447   68.6626 C   0  0  0  0  0  0  0  0  0  0  0  0
    9.2795   42.6316   68.4906 C   0  0  0  0  0  0  0  0  0  0  0  0
    7.6288   41.1271   68.0712 O   0  0  0  0  0  0  0  0  0  0  0  0
   10.1875   41.9391   67.6671 N   0  0  0  0  0  0  0  0  0  0  0  0
   11.5665   42.4391   67.4027 C   0  0  2  0  0  0  0  0  0  0  0  0
   12.0419   43.2715   68.6055 C   0  0  0  0  0  0  0  0  0  0  0  0
    9.6709   43.7621   69.1937 C   0  0  0  0  0  0  0  0  0  0  0  0
   10.9779   44.2403   69.0415 N   0  0  0  0  0  0  0  0  0  0  0  0
   11.5358   43.3281   66.1236 C   0  0  0  0  0  0  0  0  0  0  0  0
  1  3  1  0  0  0  0
  2  3  2  0  0  0  0
  2 11  1  0  0  0  0
  3  4  1  0  0  0  0
  4  5  1  0  0  0  0
  5  6  1  0  0  0  0
  5  7  2  0  0  0  0
  6  8  1  0  0  0  0
  6 11  2  0  0  0  0
  8  9  1  0  0  0  0
  9 10  1  0  0  0  0
  9 13  1  6  0  0  0
 10 12  1  0  0  0  0
 11 12  1  0  0  0  0
M  END
>  <CHROM.1>
9.32308784,43.10858018,68.73187129,-2.68991260,-0.36101852,-2.42605175

>  <Name>
ligand

>  <RI>
0

>  <Rbt.Current_Directory>
/home/itssahil/PROJECTS/Mol_Feturizer/New_Systems/rnas/3SUX

>  <Rbt.Executable>
rbdock ($Id: //depot/dev/client3/rdock/2013.1/src/exe/rbdock.cxx#4 $)

>  <Rbt.Library>
libRbt.so (2013.1, Build901 2013/11/27)

>  <Rbt.Parameter_File>
/export/apps/rDock/src/rDock_2013.1_src/data/scripts/dock_solv.prm

>  <Rbt.Receptor>
prm/pocket_docking_3.prm

>  <SCORE>
-7.78689

>  <SCORE.INTER>
-7.78689

>  <SCORE.INTER.CONST>
1

>  <SCORE.INTER.POLAR>
0

>  <SCORE.INTER.ROT>
0

>  <SCORE.INTER.SOLV>
12.2658

>  <SCORE.INTER.VDW>
-12.8799

>  <SCORE.INTER.norm>
-0.598992

>  <SCORE.INTRA>
0

>  <SCORE.INTRA.DIHEDRAL>
0

>  <SCORE.INTRA.DIHEDRAL.0>
0

>  <SCORE.INTRA.POLAR>
0

>  <SCORE.INTRA.POLAR.0>
0

>  <SCORE.INTRA.REPUL>
0

>  <SCORE.INTRA.REPUL.0>
0

>  <SCORE.INTRA.SOLV>
0

>  <SCORE.INTRA.SOLV.lig_0>
-48.6608

>  <SCORE.INTRA.VDW>
0

>  <SCORE.INTRA.VDW.0>
0

>  <SCORE.INTRA.norm>
0

>  <SCORE.RESTR>
0

>  <SCORE.RESTR.CAVITY>
0

>  <SCORE.RESTR.norm>
0

>  <SCORE.SYSTEM>
0

>  <SCORE.SYSTEM.CONST>
0

>  <SCORE.SYSTEM.DIHEDRAL>
0

>  <SCORE.SYSTEM.SOLV>
0

>  <SCORE.SYSTEM.norm>
0

>  <SCORE.heavy>
13

>  <SCORE.norm>
-0.598992

>  <RMSD>
4.835

$$$$
ligand
 OpenBabel11021811483D
libRbt.so/2013.1/901 2013/11/27
 13 14  0  0  0  0  0  0  0  0999 V2000
    6.7338   45.0385   70.9947 N   0  0  0  0  0  0  0  0  0  0  0  0
    8.8057   44.7242   70.0036 N   0  0  0  0  0  0  0  0  0  0  0  0
    7.5466   44.3094   70.2354 C   0  0  0  0  0  0  0  0  0  0  0  0
    7.0879   43.1090   69.6945 N   0  0  0  0  0  0  0  0  0  0  0  0
    7.9598   42.3605   68.9012 C   0  0  0  0  0  0  0  0  0  0  0  0
    9.2518   42.8189   68.6651 C   0  0  0  0  0  0  0  0  0  0  0  0
    7.5860   41.2932   68.4163 O   0  0  0  0  0  0  0  0  0  0  0  0
   10.1436   42.0430   67.9003 N   0  0  0  0  0  0  0  0  0  0  0  0
   11.5217   42.5046   67.5698 C   0  0  2  0  0  0  0  0  0  0  0  0
   12.0194   43.4462   68.6796 C   0  0  0  0  0  0  0  0  0  0  0  0
    9.6601   44.0092   69.2498 C   0  0  0  0  0  0  0  0  0  0  0  0
   10.9677   44.4606   69.0340 N   0  0  0  0  0  0  0  0  0  0  0  0
   11.4781   43.2657   66.2110 C   0  0  0  0  0  0  0  0  0  0  0  0
  1  3  1  0  0  0  0
  2  3  2  0  0  0  0
  2 11  1  0  0  0  0
  3  4  1  0  0  0  0
  4  5  1  0  0  0  0
  5  6  1  0  0  0  0
  5  7  2  0  0  0  0
  6  8  1  0  0  0  0
  6 11  2  0  0  0  0
  8  9  1  0  0  0  0
  9 10  1  0  0  0  0
  9 13  1  6  0  0  0
 10 12  1  0  0  0  0
 11 12  1  0  0  0  0
M  END
>  <CHROM.1>
9.30173233,43.31660474,68.85831458,-2.67487516,-0.36780115,-2.51784890

>  <Name>
ligand

>  <RI>
0

>  <Rbt.Current_Directory>
/home/itssahil/PROJECTS/Mol_Feturizer/New_Systems/rnas/3SUX

>  <Rbt.Executable>
rbdock ($Id: //depot/dev/client3/rdock/2013.1/src/exe/rbdock.cxx#4 $)

>  <Rbt.Library>
libRbt.so (2013.1, Build901 2013/11/27)

>  <Rbt.Parameter_File>
/export/apps/rDock/src/rDock_2013.1_src/data/scripts/dock_solv.prm

>  <Rbt.Receptor>
prm/pocket_docking_4.prm

>  <SCORE>
-8.38697

>  <SCORE.INTER>
-8.38697

>  <SCORE.INTER.CONST>
1

>  <SCORE.INTER.POLAR>
0

>  <SCORE.INTER.ROT>
0

>  <SCORE.INTER.SOLV>
10.7591

>  <SCORE.INTER.VDW>
-12.7777

>  <SCORE.INTER.norm>
-0.645151

>  <SCORE.INTRA>
0

>  <SCORE.INTRA.DIHEDRAL>
0

>  <SCORE.INTRA.DIHEDRAL.0>
0

>  <SCORE.INTRA.POLAR>
0

>  <SCORE.INTRA.POLAR.0>
0

>  <SCORE.INTRA.REPUL>
0

>  <SCORE.INTRA.REPUL.0>
0

>  <SCORE.INTRA.SOLV>
0

>  <SCORE.INTRA.SOLV.lig_0>
-48.6608

>  <SCORE.INTRA.VDW>
0

>  <SCORE.INTRA.VDW.0>
0

>  <SCORE.INTRA.norm>
0

>  <SCORE.RESTR>
0

>  <SCORE.RESTR.CAVITY>
0

>  <SCORE.RESTR.norm>
0

>  <SCORE.SYSTEM>
0

>  <SCORE.SYSTEM.CONST>
0

>  <SCORE.SYSTEM.DIHEDRAL>
0

>  <SCORE.SYSTEM.SOLV>
0

>  <SCORE.SYSTEM.norm>
0

>  <SCORE.heavy>
13

>  <SCORE.norm>
-0.645151

>  <RMSD>
4.835

$$$$
ligand
 OpenBabel11021811483D
libRbt.so/2013.1/901 2013/11/27
 13 14  0  0  0  0  0  0  0  0999 V2000
    6.7545   45.0245   71.0274 N   0  0  0  0  0  0  0  0  0  0  0  0
    8.8209   44.7100   70.0249 N   0  0  0  0  0  0  0  0  0  0  0  0
    7.5613   44.2980   70.2593 C   0  0  0  0  0  0  0  0  0  0  0  0
    7.0960   43.1031   69.7119 N   0  0  0  0  0  0  0  0  0  0  0  0
    7.9618   42.3572   68.9095 C   0  0  0  0  0  0  0  0  0  0  0  0
    9.2543   42.8126   68.6709 C   0  0  0  0  0  0  0  0  0  0  0  0
    7.5821   41.2946   68.4186 O   0  0  0  0  0  0  0  0  0  0  0  0
   10.1400   42.0391   67.8967 N   0  0  0  0  0  0  0  0  0  0  0  0
   11.5183   42.4982   67.5634 C   0  0  2  0  0  0  0  0  0  0  0  0
   12.0242   43.4301   68.6776 C   0  0  0  0  0  0  0  0  0  0  0  0
    9.6695   43.9974   69.2622 C   0  0  0  0  0  0  0  0  0  0  0  0
   10.9777   44.4457   69.0439 N   0  0  0  0  0  0  0  0  0  0  0  0
   11.4714   43.2691   66.2102 C   0  0  0  0  0  0  0  0  0  0  0  0
  1  3  1  0  0  0  0
  2  3  2  0  0  0  0
  2 11  1  0  0  0  0
  3  4  1  0  0  0  0
  4  5  1  0  0  0  0
  5  6  1  0  0  0  0
  5  7  2  0  0  0  0
  6  8  1  0  0  0  0
  6 11  2  0  0  0  0
  8  9  1  0  0  0  0
  9 10  1  0  0  0  0
  9 13  1  6  0  0  0
 10 12  1  0  0  0  0
 11 12  1  0  0  0  0
M  END
>  <CHROM.1>
9.30690743,43.30882625,68.86743440,-2.66903279,-0.36927797,-2.50861974

>  <Name>
ligand

>  <RI>
0

>  <Rbt.Current_Directory>
/home/itssahil/PROJECTS/Mol_Feturizer/New_Systems/rnas/3SUX

>  <Rbt.Executable>
rbdock ($Id: //depot/dev/client3/rdock/2013.1/src/exe/rbdock.cxx#4 $)

>  <Rbt.Library>
libRbt.so (2013.1, Build901 2013/11/27)

>  <Rbt.Parameter_File>
/export/apps/rDock/src/rDock_2013.1_src/data/scripts/dock_solv.prm

>  <Rbt.Receptor>
prm/pocket_docking_5.prm

>  <SCORE>
-8.38804

>  <SCORE.INTER>
-8.38804

>  <SCORE.INTER.CONST>
1

>  <SCORE.INTER.POLAR>
0

>  <SCORE.INTER.ROT>
0

>  <SCORE.INTER.SOLV>
10.5595

>  <SCORE.INTER.VDW>
-12.7119

>  <SCORE.INTER.norm>
-0.645234

>  <SCORE.INTRA>
0

>  <SCORE.INTRA.DIHEDRAL>
0

>  <SCORE.INTRA.DIHEDRAL.0>
0

>  <SCORE.INTRA.POLAR>
0

>  <SCORE.INTRA.POLAR.0>
0

>  <SCORE.INTRA.REPUL>
0

>  <SCORE.INTRA.REPUL.0>
0

>  <SCORE.INTRA.SOLV>
0

>  <SCORE.INTRA.SOLV.lig_0>
-48.6608

>  <SCORE.INTRA.VDW>
0

>  <SCORE.INTRA.VDW.0>
0

>  <SCORE.INTRA.norm>
0

>  <SCORE.RESTR>
0

>  <SCORE.RESTR.CAVITY>
0

>  <SCORE.RESTR.norm>
0

>  <SCORE.SYSTEM>
0

>  <SCORE.SYSTEM.CONST>
0

>  <SCORE.SYSTEM.DIHEDRAL>
0

>  <SCORE.SYSTEM.SOLV>
0

>  <SCORE.SYSTEM.norm>
0

>  <SCORE.heavy>
13

>  <SCORE.norm>
-0.645234

>  <RMSD>
4.835

$$$$
ligand
 OpenBabel11021811483D
libRbt.so/2013.1/901 2013/11/27
 13 14  0  0  0  0  0  0  0  0999 V2000
    6.7368   45.0307   70.9864 N   0  0  0  0  0  0  0  0  0  0  0  0
    8.8072   44.7199   69.9910 N   0  0  0  0  0  0  0  0  0  0  0  0
    7.5473   44.3061   70.2202 C   0  0  0  0  0  0  0  0  0  0  0  0
    7.0854   43.1115   69.6695 N   0  0  0  0  0  0  0  0  0  0  0  0
    7.9549   42.3677   68.8691 C   0  0  0  0  0  0  0  0  0  0  0  0
    9.2478   42.8250   68.6359 C   0  0  0  0  0  0  0  0  0  0  0  0
    7.5782   41.3054   68.3754 O   0  0  0  0  0  0  0  0  0  0  0  0
   10.1372   42.0537   67.8638 N   0  0  0  0  0  0  0  0  0  0  0  0
   11.5161   42.5148   67.5362 C   0  0  2  0  0  0  0  0  0  0  0  0
   12.0169   43.4457   68.6536 C   0  0  0  0  0  0  0  0  0  0  0  0
    9.6594   44.0094   69.2304 C   0  0  0  0  0  0  0  0  0  0  0  0
   10.9679   44.4595   69.0174 N   0  0  0  0  0  0  0  0  0  0  0  0
   11.4732   43.2876   66.1840 C   0  0  0  0  0  0  0  0  0  0  0  0
  1  3  1  0  0  0  0
  2  3  2  0  0  0  0
  2 11  1  0  0  0  0
  3  4  1  0  0  0  0
  4  5  1  0  0  0  0
  5  6  1  0  0  0  0
  5  7  2  0  0  0  0
  6  8  1  0  0  0  0
  6 11  2  0  0  0  0
  8  9  1  0  0  0  0
  9 10  1  0  0  0  0
  9 13  1  6  0  0  0
 10 12  1  0  0  0  0
 11 12  1  0  0  0  0
M  END
>  <CHROM.1>
9.29905721,43.32099737,68.83333185,-2.67235224,-0.36704563,-2.50841201

>  <Name>
ligand

>  <RI>
0

>  <Rbt.Current_Directory>
/home/itssahil/PROJECTS/Mol_Feturizer/New_Systems/rnas/3SUX

>  <Rbt.Executable>
rbdock ($Id: //depot/dev/client3/rdock/2013.1/src/exe/rbdock.cxx#4 $)

>  <Rbt.Library>
libRbt.so (2013.1, Build901 2013/11/27)

>  <Rbt.Parameter_File>
/export/apps/rDock/src/rDock_2013.1_src/data/scripts/dock_solv.prm

>  <Rbt.Receptor>
prm/pocket_docking_8.prm

>  <SCORE>
-8.38214

>  <SCORE.INTER>
-8.38214

>  <SCORE.INTER.CONST>
1

>  <SCORE.INTER.POLAR>
0

>  <SCORE.INTER.ROT>
0

>  <SCORE.INTER.SOLV>
10.9662

>  <SCORE.INTER.VDW>
-12.8435

>  <SCORE.INTER.norm>
-0.64478

>  <SCORE.INTRA>
0

>  <SCORE.INTRA.DIHEDRAL>
0

>  <SCORE.INTRA.DIHEDRAL.0>
0

>  <SCORE.INTRA.POLAR>
0

>  <SCORE.INTRA.POLAR.0>
0

>  <SCORE.INTRA.REPUL>
0

>  <SCORE.INTRA.REPUL.0>
0

>  <SCORE.INTRA.SOLV>
0

>  <SCORE.INTRA.SOLV.lig_0>
-48.6608

>  <SCORE.INTRA.VDW>
0

>  <SCORE.INTRA.VDW.0>
0

>  <SCORE.INTRA.norm>
0

>  <SCORE.RESTR>
0

>  <SCORE.RESTR.CAVITY>
0

>  <SCORE.RESTR.norm>
0

>  <SCORE.SYSTEM>
0

>  <SCORE.SYSTEM.CONST>
0

>  <SCORE.SYSTEM.DIHEDRAL>
0

>  <SCORE.SYSTEM.SOLV>
0

>  <SCORE.SYSTEM.norm>
0

>  <SCORE.heavy>
13

>  <SCORE.norm>
-0.64478

>  <RMSD>
4.835

$$$$
ligand
 OpenBabel11021811483D
libRbt.so/2013.1/901 2013/11/27
 13 14  0  0  0  0  0  0  0  0999 V2000
    6.7136   45.0559   70.9804 N   0  0  0  0  0  0  0  0  0  0  0  0
    8.7853   44.7499   69.9866 N   0  0  0  0  0  0  0  0  0  0  0  0
    7.5325   44.3235   70.2310 C   0  0  0  0  0  0  0  0  0  0  0  0
    7.0870   43.1078   69.7137 N   0  0  0  0  0  0  0  0  0  0  0  0
    7.9652   42.3562   68.9304 C   0  0  0  0  0  0  0  0  0  0  0  0
    9.2503   42.8264   68.6807 C   0  0  0  0  0  0  0  0  0  0  0  0
    7.6031   41.2756   68.4663 O   0  0  0  0  0  0  0  0  0  0  0  0
   10.1489   42.0482   67.9263 N   0  0  0  0  0  0  0  0  0  0  0  0
   11.5198   42.5211   67.5819 C   0  0  2  0  0  0  0  0  0  0  0  0
   12.0098   43.4888   68.6724 C   0  0  0  0  0  0  0  0  0  0  0  0
    9.6458   44.0322   69.2422 C   0  0  0  0  0  0  0  0  0  0  0  0
   10.9468   44.4961   69.0129 N   0  0  0  0  0  0  0  0  0  0  0  0
   11.4611   43.2570   66.2098 C   0  0  0  0  0  0  0  0  0  0  0  0
  1  3  1  0  0  0  0
  2  3  2  0  0  0  0
  2 11  1  0  0  0  0
  3  4  1  0  0  0  0
  4  5  1  0  0  0  0
  5  6  1  0  0  0  0
  5  7  2  0  0  0  0
  6  8  1  0  0  0  0
  6 11  2  0  0  0  0
  8  9  1  0  0  0  0
  9 10  1  0  0  0  0
  9 13  1  6  0  0  0
 10 12  1  0  0  0  0
 11 12  1  0  0  0  0
M  END
>  <CHROM.1>
9.29471459,43.32819167,68.86474377,-2.68348894,-0.37836757,-2.53900372

>  <Name>
ligand

>  <RI>
0

>  <Rbt.Current_Directory>
/home/itssahil/PROJECTS/Mol_Feturizer/New_Systems/rnas/3SUX

>  <Rbt.Executable>
rbdock ($Id: //depot/dev/client3/rdock/2013.1/src/exe/rbdock.cxx#4 $)

>  <Rbt.Library>
libRbt.so (2013.1, Build901 2013/11/27)

>  <Rbt.Parameter_File>
/export/apps/rDock/src/rDock_2013.1_src/data/scripts/dock_solv.prm

>  <Rbt.Receptor>
prm/pocket_docking_5.prm

>  <SCORE>
-8.37752

>  <SCORE.INTER>
-8.37752

>  <SCORE.INTER.CONST>
1

>  <SCORE.INTER.POLAR>
0

>  <SCORE.INTER.ROT>
0

>  <SCORE.INTER.SOLV>
10.8442

>  <SCORE.INTER.VDW>
-12.7998

>  <SCORE.INTER.norm>
-0.644425

>  <SCORE.INTRA>
0

>  <SCORE.INTRA.DIHEDRAL>
0

>  <SCORE.INTRA.DIHEDRAL.0>
0

>  <SCORE.INTRA.POLAR>
0

>  <SCORE.INTRA.POLAR.0>
0

>  <SCORE.INTRA.REPUL>
0

>  <SCORE.INTRA.REPUL.0>
0

>  <SCORE.INTRA.SOLV>
0

>  <SCORE.INTRA.SOLV.lig_0>
-48.6608

>  <SCORE.INTRA.VDW>
0

>  <SCORE.INTRA.VDW.0>
0

>  <SCORE.INTRA.norm>
0

>  <SCORE.RESTR>
0

>  <SCORE.RESTR.CAVITY>
0

>  <SCORE.RESTR.norm>
0

>  <SCORE.SYSTEM>
0

>  <SCORE.SYSTEM.CONST>
0

>  <SCORE.SYSTEM.DIHEDRAL>
0

>  <SCORE.SYSTEM.SOLV>
0

>  <SCORE.SYSTEM.norm>
0

>  <SCORE.heavy>
13

>  <SCORE.norm>
-0.644425

>  <RMSD>
4.837

$$$$
ligand
 OpenBabel11021811483D
libRbt.so/2013.1/901 2013/11/27
 13 14  0  0  0  0  0  0  0  0999 V2000
    6.7147   45.0583   70.9825 N   0  0  0  0  0  0  0  0  0  0  0  0
    8.7857   44.7463   69.9888 N   0  0  0  0  0  0  0  0  0  0  0  0
    7.5312   44.3241   70.2322 C   0  0  0  0  0  0  0  0  0  0  0  0
    7.0814   43.1108   69.7129 N   0  0  0  0  0  0  0  0  0  0  0  0
    7.9572   42.3572   68.9287 C   0  0  0  0  0  0  0  0  0  0  0  0
    9.2441   42.8232   68.6801 C   0  0  0  0  0  0  0  0  0  0  0  0
    7.5913   41.2787   68.4628 O   0  0  0  0  0  0  0  0  0  0  0  0
   10.1401   42.0429   67.9248 N   0  0  0  0  0  0  0  0  0  0  0  0
   11.5128   42.5114   67.5815 C   0  0  2  0  0  0  0  0  0  0  0  0
   12.0060   43.4755   68.6737 C   0  0  0  0  0  0  0  0  0  0  0  0
    9.6438   44.0267   69.2436 C   0  0  0  0  0  0  0  0  0  0  0  0
   10.9465   44.4862   69.0154 N   0  0  0  0  0  0  0  0  0  0  0  0
   11.4572   43.2496   66.2105 C   0  0  0  0  0  0  0  0  0  0  0  0
  1  3  1  0  0  0  0
  2  3  2  0  0  0  0
  2 11  1  0  0  0  0
  3  4  1  0  0  0  0
  4  5  1  0  0  0  0
  5  6  1  0  0  0  0
  5  7  2  0  0  0  0
  6  8  1  0  0  0  0
  6 11  2  0  0  0  0
  8  9  1  0  0  0  0
  9 10  1  0  0  0  0
  9 13  1  6  0  0  0
 10 12  1  0  0  0  0
 11 12  1  0  0  0  0
M  END
>  <CHROM.1>
9.29024645,43.32450736,68.86494516,-2.68047344,-0.37605334,-2.53633893

>  <Name>
ligand

>  <RI>
0

>  <Rbt.Current_Directory>
/home/itssahil/PROJECTS/Mol_Feturizer/New_Systems/rnas/3SUX

>  <Rbt.Executable>
rbdock ($Id: //depot/dev/client3/rdock/2013.1/src/exe/rbdock.cxx#4 $)

>  <Rbt.Library>
libRbt.so (2013.1, Build901 2013/11/27)

>  <Rbt.Parameter_File>
/export/apps/rDock/src/rDock_2013.1_src/data/scripts/dock_solv.prm

>  <Rbt.Receptor>
prm/pocket_docking_5.prm

>  <SCORE>
-8.37487

>  <SCORE.INTER>
-8.37487

>  <SCORE.INTER.CONST>
1

>  <SCORE.INTER.POLAR>
0

>  <SCORE.INTER.ROT>
0

>  <SCORE.INTER.SOLV>
10.8221

>  <SCORE.INTER.VDW>
-12.7906

>  <SCORE.INTER.norm>
-0.644221

>  <SCORE.INTRA>
0

>  <SCORE.INTRA.DIHEDRAL>
0

>  <SCORE.INTRA.DIHEDRAL.0>
0

>  <SCORE.INTRA.POLAR>
0

>  <SCORE.INTRA.POLAR.0>
0

>  <SCORE.INTRA.REPUL>
0

>  <SCORE.INTRA.REPUL.0>
0

>  <SCORE.INTRA.SOLV>
0

>  <SCORE.INTRA.SOLV.lig_0>
-48.6608

>  <SCORE.INTRA.VDW>
0

>  <SCORE.INTRA.VDW.0>
0

>  <SCORE.INTRA.norm>
0

>  <SCORE.RESTR>
0

>  <SCORE.RESTR.CAVITY>
0

>  <SCORE.RESTR.norm>
0

>  <SCORE.SYSTEM>
0

>  <SCORE.SYSTEM.CONST>
0

>  <SCORE.SYSTEM.DIHEDRAL>
0

>  <SCORE.SYSTEM.SOLV>
0

>  <SCORE.SYSTEM.norm>
0

>  <SCORE.heavy>
13

>  <SCORE.norm>
-0.644221

>  <RMSD>
4.837

$$$$
ligand
 OpenBabel11021811483D
libRbt.so/2013.1/901 2013/11/27
 13 14  0  0  0  0  0  0  0  0999 V2000
    6.7761   45.0307   71.0142 N   0  0  0  0  0  0  0  0  0  0  0  0
    8.8238   44.7042   69.9778 N   0  0  0  0  0  0  0  0  0  0  0  0
    7.5655   44.3001   70.2320 C   0  0  0  0  0  0  0  0  0  0  0  0
    7.0835   43.1091   69.6904 N   0  0  0  0  0  0  0  0  0  0  0  0
    7.9311   42.3589   68.8729 C   0  0  0  0  0  0  0  0  0  0  0  0
    9.2226   42.8062   68.6140 C   0  0  0  0  0  0  0  0  0  0  0  0
    7.5365   41.2996   68.3867 O   0  0  0  0  0  0  0  0  0  0  0  0
   10.0905   42.0281   67.8244 N   0  0  0  0  0  0  0  0  0  0  0  0
   11.4662   42.4787   67.4694 C   0  0  2  0  0  0  0  0  0  0  0  0
   11.9963   43.4054   68.5767 C   0  0  0  0  0  0  0  0  0  0  0  0
    9.6552   43.9872   69.2003 C   0  0  0  0  0  0  0  0  0  0  0  0
   10.9626   44.4272   68.9614 N   0  0  0  0  0  0  0  0  0  0  0  0
   11.4024   43.2521   66.1184 C   0  0  0  0  0  0  0  0  0  0  0  0
  1  3  1  0  0  0  0
  2  3  2  0  0  0  0
  2 11  1  0  0  0  0
  3  4  1  0  0  0  0
  4  5  1  0  0  0  0
  5  6  1  0  0  0  0
  5  7  2  0  0  0  0
  6  8  1  0  0  0  0
  6 11  2  0  0  0  0
  8  9  1  0  0  0  0
  9 10  1  0  0  0  0
  9 13  1  6  0  0  0
 10 12  1  0  0  0  0
 11 12  1  0  0  0  0
M  END
>  <CHROM.1>
9.28166240,43.30170586,68.81045719,-2.65295697,-0.37843131,-2.50118869

>  <Name>
ligand

>  <RI>
0

>  <Rbt.Current_Directory>
/home/itssahil/PROJECTS/Mol_Feturizer/New_Systems/rnas/3SUX

>  <Rbt.Executable>
rbdock ($Id: //depot/dev/client3/rdock/2013.1/src/exe/rbdock.cxx#4 $)

>  <Rbt.Library>
libRbt.so (2013.1, Build901 2013/11/27)

>  <Rbt.Parameter_File>
/export/apps/rDock/src/rDock_2013.1_src/data/scripts/dock_solv.prm

>  <Rbt.Receptor>
prm/pocket_docking_8.prm

>  <SCORE>
-8.35993

>  <SCORE.INTER>
-8.35993

>  <SCORE.INTER.CONST>
1

>  <SCORE.INTER.POLAR>
0

>  <SCORE.INTER.ROT>
0

>  <SCORE.INTER.SOLV>
10.9955

>  <SCORE.INTER.VDW>
-12.8385

>  <SCORE.INTER.norm>
-0.643072

>  <SCORE.INTRA>
0

>  <SCORE.INTRA.DIHEDRAL>
0

>  <SCORE.INTRA.DIHEDRAL.0>
0

>  <SCORE.INTRA.POLAR>
0

>  <SCORE.INTRA.POLAR.0>
0

>  <SCORE.INTRA.REPUL>
0

>  <SCORE.INTRA.REPUL.0>
0

>  <SCORE.INTRA.SOLV>
0

>  <SCORE.INTRA.SOLV.lig_0>
-48.6608

>  <SCORE.INTRA.VDW>
0

>  <SCORE.INTRA.VDW.0>
0

>  <SCORE.INTRA.norm>
0

>  <SCORE.RESTR>
0

>  <SCORE.RESTR.CAVITY>
0

>  <SCORE.RESTR.norm>
0

>  <SCORE.SYSTEM>
0

>  <SCORE.SYSTEM.CONST>
0

>  <SCORE.SYSTEM.DIHEDRAL>
0

>  <SCORE.SYSTEM.SOLV>
0

>  <SCORE.SYSTEM.norm>
0

>  <SCORE.heavy>
13

>  <SCORE.norm>
-0.643072

>  <RMSD>
4.837

$$$$
ligand
 OpenBabel11021811483D
libRbt.so/2013.1/901 2013/11/27
 13 14  0  0  0  0  0  0  0  0999 V2000
    6.7058   44.6001   71.0176 N   0  0  0  0  0  0  0  0  0  0  0  0
    8.7968   44.4128   70.0345 N   0  0  0  0  0  0  0  0  0  0  0  0
    7.5397   43.9621   70.2013 C   0  0  0  0  0  0  0  0  0  0  0  0
    7.1052   42.8185   69.5325 N   0  0  0  0  0  0  0  0  0  0  0  0
    7.9990   42.1655   68.6814 C   0  0  0  0  0  0  0  0  0  0  0  0
    9.2885   42.6602   68.5153 C   0  0  0  0  0  0  0  0  0  0  0  0
    7.6468   41.1494   68.0834 O   0  0  0  0  0  0  0  0  0  0  0  0
   10.2021   41.9773   67.6902 N   0  0  0  0  0  0  0  0  0  0  0  0
   11.5791   42.4860   67.4320 C   0  0  2  0  0  0  0  0  0  0  0  0
   12.0472   43.3141   68.6407 C   0  0  0  0  0  0  0  0  0  0  0  0
    9.6722   43.7888   69.2258 C   0  0  0  0  0  0  0  0  0  0  0  0
   10.9770   44.2747   69.0796 N   0  0  0  0  0  0  0  0  0  0  0  0
   11.5468   43.3821   66.1579 C   0  0  0  0  0  0  0  0  0  0  0  0
  1  3  1  0  0  0  0
  2  3  2  0  0  0  0
  2 11  1  0  0  0  0
  3  4  1  0  0  0  0
  4  5  1  0  0  0  0
  5  6  1  0  0  0  0
  5  7  2  0  0  0  0
  6  8  1  0  0  0  0
  6 11  2  0  0  0  0
  8  9  1  0  0  0  0
  9 10  1  0  0  0  0
  9 13  1  6  0  0  0
 10 12  1  0  0  0  0
 11 12  1  0  0  0  0
M  END
>  <CHROM.1>
9.32892845,43.13603656,68.75943951,-2.69591016,-0.36265705,-2.42251055

>  <Name>
ligand

>  <RI>
0

>  <Rbt.Current_Directory>
/home/itssahil/PROJECTS/Mol_Feturizer/New_Systems/rnas/3SUX

>  <Rbt.Executable>
rbdock ($Id: //depot/dev/client3/rdock/2013.1/src/exe/rbdock.cxx#4 $)

>  <Rbt.Library>
libRbt.so (2013.1, Build901 2013/11/27)

>  <Rbt.Parameter_File>
/export/apps/rDock/src/rDock_2013.1_src/data/scripts/dock_solv.prm

>  <Rbt.Receptor>
prm/pocket_docking_3.prm

>  <SCORE>
-7.80815

>  <SCORE.INTER>
-7.80826

>  <SCORE.INTER.CONST>
1

>  <SCORE.INTER.POLAR>
0

>  <SCORE.INTER.ROT>
0

>  <SCORE.INTER.SOLV>
12.0547

>  <SCORE.INTER.VDW>
-12.8238

>  <SCORE.INTER.norm>
-0.600636

>  <SCORE.INTRA>
0

>  <SCORE.INTRA.DIHEDRAL>
0

>  <SCORE.INTRA.DIHEDRAL.0>
0

>  <SCORE.INTRA.POLAR>
0

>  <SCORE.INTRA.POLAR.0>
0

>  <SCORE.INTRA.REPUL>
0

>  <SCORE.INTRA.REPUL.0>
0

>  <SCORE.INTRA.SOLV>
0

>  <SCORE.INTRA.SOLV.lig_0>
-48.6608

>  <SCORE.INTRA.VDW>
0

>  <SCORE.INTRA.VDW.0>
0

>  <SCORE.INTRA.norm>
0

>  <SCORE.RESTR>
0.000116763

>  <SCORE.RESTR.CAVITY>
0.000116763

>  <SCORE.RESTR.norm>
8.9818e-06

>  <SCORE.SYSTEM>
0

>  <SCORE.SYSTEM.CONST>
0

>  <SCORE.SYSTEM.DIHEDRAL>
0

>  <SCORE.SYSTEM.SOLV>
0

>  <SCORE.SYSTEM.norm>
0

>  <SCORE.heavy>
13

>  <SCORE.norm>
-0.600627

>  <RMSD>
4.839

$$$$
ligand
 OpenBabel11021811483D
libRbt.so/2013.1/901 2013/11/27
 13 14  0  0  0  0  0  0  0  0999 V2000
    6.7194   44.6004   71.0259 N   0  0  0  0  0  0  0  0  0  0  0  0
    8.7988   44.4036   70.0203 N   0  0  0  0  0  0  0  0  0  0  0  0
    7.5447   43.9529   70.2084 C   0  0  0  0  0  0  0  0  0  0  0  0
    7.1046   42.7994   69.5606 N   0  0  0  0  0  0  0  0  0  0  0  0
    7.9895   42.1364   68.7079 C   0  0  0  0  0  0  0  0  0  0  0  0
    9.2758   42.6313   68.5195 C   0  0  0  0  0  0  0  0  0  0  0  0
    7.6321   41.1116   68.1281 O   0  0  0  0  0  0  0  0  0  0  0  0
   10.1809   41.9388   67.6928 N   0  0  0  0  0  0  0  0  0  0  0  0
   11.5536   42.4466   67.4112 C   0  0  2  0  0  0  0  0  0  0  0  0
   12.0344   43.2921   68.6027 C   0  0  0  0  0  0  0  0  0  0  0  0
    9.6656   43.7702   69.2098 C   0  0  0  0  0  0  0  0  0  0  0  0
   10.9676   44.2566   69.0412 N   0  0  0  0  0  0  0  0  0  0  0  0
   11.5041   43.3251   66.1254 C   0  0  0  0  0  0  0  0  0  0  0  0
  1  3  1  0  0  0  0
  2  3  2  0  0  0  0
  2 11  1  0  0  0  0
  3  4  1  0  0  0  0
  4  5  1  0  0  0  0
  5  6  1  0  0  0  0
  5  7  2  0  0  0  0
  6  8  1  0  0  0  0
  6 11  2  0  0  0  0
  8  9  1  0  0  0  0
  9 10  1  0  0  0  0
  9 13  1  6  0  0  0
 10 12  1  0  0  0  0
 11 12  1  0  0  0  0
M  END
>  <CHROM.1>
9.31818483,43.11048092,68.75653494,-2.68908553,-0.37305930,-2.43375754

>  <Name>
ligand

>  <RI>
0

>  <Rbt.Current_Directory>
/home/itssahil/PROJECTS/Mol_Feturizer/New_Systems/rnas/3SUX

>  <Rbt.Executable>
rbdock ($Id: //depot/dev/client3/rdock/2013.1/src/exe/rbdock.cxx#4 $)

>  <Rbt.Library>
libRbt.so (2013.1, Build901 2013/11/27)

>  <Rbt.Parameter_File>
/export/apps/rDock/src/rDock_2013.1_src/data/scripts/dock_solv.prm

>  <Rbt.Receptor>
prm/pocket_docking_3.prm

>  <SCORE>
-7.86202

>  <SCORE.INTER>
-7.8624

>  <SCORE.INTER.CONST>
1

>  <SCORE.INTER.POLAR>
0

>  <SCORE.INTER.ROT>
0

>  <SCORE.INTER.SOLV>
12.0391

>  <SCORE.INTER.VDW>
-12.8546

>  <SCORE.INTER.norm>
-0.6048

>  <SCORE.INTRA>
0

>  <SCORE.INTRA.DIHEDRAL>
0

>  <SCORE.INTRA.DIHEDRAL.0>
0

>  <SCORE.INTRA.POLAR>
0

>  <SCORE.INTRA.POLAR.0>
0

>  <SCORE.INTRA.REPUL>
0

>  <SCORE.INTRA.REPUL.0>
0

>  <SCORE.INTRA.SOLV>
0

>  <SCORE.INTRA.SOLV.lig_0>
-48.6608

>  <SCORE.INTRA.VDW>
0

>  <SCORE.INTRA.VDW.0>
0

>  <SCORE.INTRA.norm>
0

>  <SCORE.RESTR>
0.000374673

>  <SCORE.RESTR.CAVITY>
0.000374673

>  <SCORE.RESTR.norm>
2.8821e-05

>  <SCORE.SYSTEM>
0

>  <SCORE.SYSTEM.CONST>
0

>  <SCORE.SYSTEM.DIHEDRAL>
0

>  <SCORE.SYSTEM.SOLV>
0

>  <SCORE.SYSTEM.norm>
0

>  <SCORE.heavy>
13

>  <SCORE.norm>
-0.604771

>  <RMSD>
4.840

$$$$
ligand
 OpenBabel11021811483D
libRbt.so/2013.1/901 2013/11/27
 13 14  0  0  0  0  0  0  0  0999 V2000
    6.6961   44.5999   71.0087 N   0  0  0  0  0  0  0  0  0  0  0  0
    8.7799   44.4051   70.0118 N   0  0  0  0  0  0  0  0  0  0  0  0
    7.5259   43.9524   70.1958 C   0  0  0  0  0  0  0  0  0  0  0  0
    7.0905   42.7968   69.5485 N   0  0  0  0  0  0  0  0  0  0  0  0
    7.9800   42.1338   68.7006 C   0  0  0  0  0  0  0  0  0  0  0  0
    9.2662   42.6307   68.5164 C   0  0  0  0  0  0  0  0  0  0  0  0
    7.6269   41.1072   68.1214 O   0  0  0  0  0  0  0  0  0  0  0  0
   10.1758   41.9383   67.6946 N   0  0  0  0  0  0  0  0  0  0  0  0
   11.5487   42.4481   67.4175 C   0  0  2  0  0  0  0  0  0  0  0  0
   12.0232   43.2968   68.6092 C   0  0  0  0  0  0  0  0  0  0  0  0
    9.6511   43.7717   69.2060 C   0  0  0  0  0  0  0  0  0  0  0  0
   10.9529   44.2602   69.0416 N   0  0  0  0  0  0  0  0  0  0  0  0
   11.5027   43.3240   66.1298 C   0  0  0  0  0  0  0  0  0  0  0  0
  1  3  1  0  0  0  0
  2  3  2  0  0  0  0
  2 11  1  0  0  0  0
  3  4  1  0  0  0  0
  4  5  1  0  0  0  0
  5  6  1  0  0  0  0
  5  7  2  0  0  0  0
  6  8  1  0  0  0  0
  6 11  2  0  0  0  0
  8  9  1  0  0  0  0
  9 10  1  0  0  0  0
  9 13  1  6  0  0  0
 10 12  1  0  0  0  0
 11 12  1  0  0  0  0
M  END
>  <CHROM.1>
9.30672262,43.11045607,68.75264211,-2.69338351,-0.37124190,-2.43728656

>  <Name>
ligand

>  <RI>
0

>  <Rbt.Current_Directory>
/home/itssahil/PROJECTS/Mol_Feturizer/New_Systems/rnas/3SUX

>  <Rbt.Executable>
rbdock ($Id: //depot/dev/client3/rdock/2013.1/src/exe/rbdock.cxx#4 $)

>  <Rbt.Library>
libRbt.so (2013.1, Build901 2013/11/27)

>  <Rbt.Parameter_File>
/export/apps/rDock/src/rDock_2013.1_src/data/scripts/dock_solv.prm

>  <Rbt.Receptor>
prm/pocket_docking_3.prm

>  <SCORE>
-7.83518

>  <SCORE.INTER>
-7.83518

>  <SCORE.INTER.CONST>
1

>  <SCORE.INTER.POLAR>
0

>  <SCORE.INTER.ROT>
0

>  <SCORE.INTER.SOLV>
12.209

>  <SCORE.INTER.VDW>
-12.8931

>  <SCORE.INTER.norm>
-0.602706

>  <SCORE.INTRA>
0

>  <SCORE.INTRA.DIHEDRAL>
0

>  <SCORE.INTRA.DIHEDRAL.0>
0

>  <SCORE.INTRA.POLAR>
0

>  <SCORE.INTRA.POLAR.0>
0

>  <SCORE.INTRA.REPUL>
0

>  <SCORE.INTRA.REPUL.0>
0

>  <SCORE.INTRA.SOLV>
0

>  <SCORE.INTRA.SOLV.lig_0>
-48.6608

>  <SCORE.INTRA.VDW>
0

>  <SCORE.INTRA.VDW.0>
0

>  <SCORE.INTRA.norm>
0

>  <SCORE.RESTR>
0

>  <SCORE.RESTR.CAVITY>
0

>  <SCORE.RESTR.norm>
0

>  <SCORE.SYSTEM>
0

>  <SCORE.SYSTEM.CONST>
0

>  <SCORE.SYSTEM.DIHEDRAL>
0

>  <SCORE.SYSTEM.SOLV>
0

>  <SCORE.SYSTEM.norm>
0

>  <SCORE.heavy>
13

>  <SCORE.norm>
-0.602706

>  <RMSD>
4.842

$$$$
ligand
 OpenBabel11021811483D
libRbt.so/2013.1/901 2013/11/27
 13 14  0  0  0  0  0  0  0  0999 V2000
    6.7049   44.5998   71.0192 N   0  0  0  0  0  0  0  0  0  0  0  0
    8.7846   44.4085   70.0131 N   0  0  0  0  0  0  0  0  0  0  0  0
    7.5327   43.9528   70.2038 C   0  0  0  0  0  0  0  0  0  0  0  0
    7.0974   42.7947   69.5608 N   0  0  0  0  0  0  0  0  0  0  0  0
    7.9848   42.1324   68.7102 C   0  0  0  0  0  0  0  0  0  0  0  0
    9.2687   42.6324   68.5190 C   0  0  0  0  0  0  0  0  0  0  0  0
    7.6318   41.1037   68.1347 O   0  0  0  0  0  0  0  0  0  0  0  0
   10.1764   41.9408   67.6945 N   0  0  0  0  0  0  0  0  0  0  0  0
   11.5467   42.4537   67.4100 C   0  0  2  0  0  0  0  0  0  0  0  0
   12.0244   43.3061   68.5979 C   0  0  0  0  0  0  0  0  0  0  0  0
    9.6538   43.7758   69.2046 C   0  0  0  0  0  0  0  0  0  0  0  0
   10.9534   44.2675   69.0332 N   0  0  0  0  0  0  0  0  0  0  0  0
   11.4924   43.3268   66.1208 C   0  0  0  0  0  0  0  0  0  0  0  0
  1  3  1  0  0  0  0
  2  3  2  0  0  0  0
  2 11  1  0  0  0  0
  3  4  1  0  0  0  0
  4  5  1  0  0  0  0
  5  6  1  0  0  0  0
  5  7  2  0  0  0  0
  6  8  1  0  0  0  0
  6 11  2  0  0  0  0
  8  9  1  0  0  0  0
  9 10  1  0  0  0  0
  9 13  1  6  0  0  0
 10 12  1  0  0  0  0
 11 12  1  0  0  0  0
M  END
>  <CHROM.1>
9.30909122,43.11272870,68.75416029,-2.69238334,-0.37648589,-2.43894528

>  <Name>
ligand

>  <RI>
0

>  <Rbt.Current_Directory>
/home/itssahil/PROJECTS/Mol_Feturizer/New_Systems/rnas/3SUX

>  <Rbt.Executable>
rbdock ($Id: //depot/dev/client3/rdock/2013.1/src/exe/rbdock.cxx#4 $)

>  <Rbt.Library>
libRbt.so (2013.1, Build901 2013/11/27)

>  <Rbt.Parameter_File>
/export/apps/rDock/src/rDock_2013.1_src/data/scripts/dock_solv.prm

>  <Rbt.Receptor>
prm/pocket_docking_3.prm

>  <SCORE>
-7.847

>  <SCORE.INTER>
-7.847

>  <SCORE.INTER.CONST>
1

>  <SCORE.INTER.POLAR>
0

>  <SCORE.INTER.ROT>
0

>  <SCORE.INTER.SOLV>
12.1563

>  <SCORE.INTER.VDW>
-12.8834

>  <SCORE.INTER.norm>
-0.603615

>  <SCORE.INTRA>
0

>  <SCORE.INTRA.DIHEDRAL>
0

>  <SCORE.INTRA.DIHEDRAL.0>
0

>  <SCORE.INTRA.POLAR>
0

>  <SCORE.INTRA.POLAR.0>
0

>  <SCORE.INTRA.REPUL>
0

>  <SCORE.INTRA.REPUL.0>
0

>  <SCORE.INTRA.SOLV>
0

>  <SCORE.INTRA.SOLV.lig_0>
-48.6608

>  <SCORE.INTRA.VDW>
0

>  <SCORE.INTRA.VDW.0>
0

>  <SCORE.INTRA.norm>
0

>  <SCORE.RESTR>
0

>  <SCORE.RESTR.CAVITY>
0

>  <SCORE.RESTR.norm>
0

>  <SCORE.SYSTEM>
0

>  <SCORE.SYSTEM.CONST>
0

>  <SCORE.SYSTEM.DIHEDRAL>
0

>  <SCORE.SYSTEM.SOLV>
0

>  <SCORE.SYSTEM.norm>
0

>  <SCORE.heavy>
13

>  <SCORE.norm>
-0.603615

>  <RMSD>
4.843

$$$$
ligand
 OpenBabel11021811483D
libRbt.so/2013.1/901 2013/11/27
 13 14  0  0  0  0  0  0  0  0999 V2000
    6.6994   44.5995   71.0329 N   0  0  0  0  0  0  0  0  0  0  0  0
    8.7921   44.3995   70.0562 N   0  0  0  0  0  0  0  0  0  0  0  0
    7.5296   43.9608   70.2135 C   0  0  0  0  0  0  0  0  0  0  0  0
    7.0854   42.8288   69.5314 N   0  0  0  0  0  0  0  0  0  0  0  0
    7.9756   42.1747   68.6773 C   0  0  0  0  0  0  0  0  0  0  0  0
    9.2709   42.6572   68.5212 C   0  0  0  0  0  0  0  0  0  0  0  0
    7.6148   41.1686   68.0676 O   0  0  0  0  0  0  0  0  0  0  0  0
   10.1805   41.9727   67.6927 N   0  0  0  0  0  0  0  0  0  0  0  0
   11.5639   42.4690   67.4452 C   0  0  2  0  0  0  0  0  0  0  0  0
   12.0360   43.2798   68.6640 C   0  0  0  0  0  0  0  0  0  0  0  0
    9.6639   43.7742   69.2446 C   0  0  0  0  0  0  0  0  0  0  0  0
   10.9745   44.2475   69.1084 N   0  0  0  0  0  0  0  0  0  0  0  0
   11.5463   43.3783   66.1801 C   0  0  0  0  0  0  0  0  0  0  0  0
  1  3  1  0  0  0  0
  2  3  2  0  0  0  0
  2 11  1  0  0  0  0
  3  4  1  0  0  0  0
  4  5  1  0  0  0  0
  5  6  1  0  0  0  0
  5  7  2  0  0  0  0
  6  8  1  0  0  0  0
  6 11  2  0  0  0  0
  8  9  1  0  0  0  0
  9 10  1  0  0  0  0
  9 13  1  6  0  0  0
 10 12  1  0  0  0  0
 11 12  1  0  0  0  0
M  END
>  <CHROM.1>
9.31554505,43.13000396,68.77028004,-2.69008005,-0.35252384,-2.41035260

>  <Name>
ligand

>  <RI>
0

>  <Rbt.Current_Directory>
/home/itssahil/PROJECTS/Mol_Feturizer/New_Systems/rnas/3SUX

>  <Rbt.Executable>
rbdock ($Id: //depot/dev/client3/rdock/2013.1/src/exe/rbdock.cxx#4 $)

>  <Rbt.Library>
libRbt.so (2013.1, Build901 2013/11/27)

>  <Rbt.Parameter_File>
/export/apps/rDock/src/rDock_2013.1_src/data/scripts/dock_solv.prm

>  <Rbt.Receptor>
prm/pocket_docking_3.prm

>  <SCORE>
-7.76691

>  <SCORE.INTER>
-7.76691

>  <SCORE.INTER.CONST>
1

>  <SCORE.INTER.POLAR>
0

>  <SCORE.INTER.ROT>
0

>  <SCORE.INTER.SOLV>
11.948

>  <SCORE.INTER.VDW>
-12.7606

>  <SCORE.INTER.norm>
-0.597455

>  <SCORE.INTRA>
0

>  <SCORE.INTRA.DIHEDRAL>
0

>  <SCORE.INTRA.DIHEDRAL.0>
0

>  <SCORE.INTRA.POLAR>
0

>  <SCORE.INTRA.POLAR.0>
0

>  <SCORE.INTRA.REPUL>
0

>  <SCORE.INTRA.REPUL.0>
0

>  <SCORE.INTRA.SOLV>
0

>  <SCORE.INTRA.SOLV.lig_0>
-48.6608

>  <SCORE.INTRA.VDW>
0

>  <SCORE.INTRA.VDW.0>
0

>  <SCORE.INTRA.norm>
0

>  <SCORE.RESTR>
0

>  <SCORE.RESTR.CAVITY>
0

>  <SCORE.RESTR.norm>
0

>  <SCORE.SYSTEM>
0

>  <SCORE.SYSTEM.CONST>
0

>  <SCORE.SYSTEM.DIHEDRAL>
0

>  <SCORE.SYSTEM.SOLV>
0

>  <SCORE.SYSTEM.norm>
0

>  <SCORE.heavy>
13

>  <SCORE.norm>
-0.597455

>  <RMSD>
4.844

$$$$
ligand
 OpenBabel11021811483D
libRbt.so/2013.1/901 2013/11/27
 13 14  0  0  0  0  0  0  0  0999 V2000
    6.6726   44.5997   70.9758 N   0  0  0  0  0  0  0  0  0  0  0  0
    8.7564   44.4219   69.9758 N   0  0  0  0  0  0  0  0  0  0  0  0
    7.5096   43.9535   70.1692 C   0  0  0  0  0  0  0  0  0  0  0  0
    7.0893   42.7834   69.5383 N   0  0  0  0  0  0  0  0  0  0  0  0
    7.9862   42.1222   68.6967 C   0  0  0  0  0  0  0  0  0  0  0  0
    9.2645   42.6353   68.5024 C   0  0  0  0  0  0  0  0  0  0  0  0
    7.6465   41.0831   68.1320 O   0  0  0  0  0  0  0  0  0  0  0  0
   10.1820   41.9453   67.6874 N   0  0  0  0  0  0  0  0  0  0  0  0
   11.5467   42.4712   67.3998 C   0  0  2  0  0  0  0  0  0  0  0  0
   12.0119   43.3423   68.5790 C   0  0  0  0  0  0  0  0  0  0  0  0
    9.6347   43.7906   69.1760 C   0  0  0  0  0  0  0  0  0  0  0  0
   10.9288   44.2957   69.0016 N   0  0  0  0  0  0  0  0  0  0  0  0
   11.4847   43.3293   66.1008 C   0  0  0  0  0  0  0  0  0  0  0  0
  1  3  1  0  0  0  0
  2  3  2  0  0  0  0
  2 11  1  0  0  0  0
  3  4  1  0  0  0  0
  4  5  1  0  0  0  0
  5  6  1  0  0  0  0
  5  7  2  0  0  0  0
  6  8  1  0  0  0  0
  6 11  2  0  0  0  0
  8  9  1  0  0  0  0
  9 10  1  0  0  0  0
  9 13  1  6  0  0  0
 10 12  1  0  0  0  0
 11 12  1  0  0  0  0
M  END
>  <CHROM.1>
9.29874537,43.11856916,68.73229208,-2.70349867,-0.38254407,-2.45412922

>  <Name>
ligand

>  <RI>
0

>  <Rbt.Current_Directory>
/home/itssahil/PROJECTS/Mol_Feturizer/New_Systems/rnas/3SUX

>  <Rbt.Executable>
rbdock ($Id: //depot/dev/client3/rdock/2013.1/src/exe/rbdock.cxx#4 $)

>  <Rbt.Library>
libRbt.so (2013.1, Build901 2013/11/27)

>  <Rbt.Parameter_File>
/export/apps/rDock/src/rDock_2013.1_src/data/scripts/dock_solv.prm

>  <Rbt.Receptor>
prm/pocket_docking_3.prm

>  <SCORE>
-7.85695

>  <SCORE.INTER>
-7.85695

>  <SCORE.INTER.CONST>
1

>  <SCORE.INTER.POLAR>
0

>  <SCORE.INTER.ROT>
0

>  <SCORE.INTER.SOLV>
12.5736

>  <SCORE.INTER.VDW>
-13.0292

>  <SCORE.INTER.norm>
-0.604381

>  <SCORE.INTRA>
0

>  <SCORE.INTRA.DIHEDRAL>
0

>  <SCORE.INTRA.DIHEDRAL.0>
0

>  <SCORE.INTRA.POLAR>
0

>  <SCORE.INTRA.POLAR.0>
0

>  <SCORE.INTRA.REPUL>
0

>  <SCORE.INTRA.REPUL.0>
0

>  <SCORE.INTRA.SOLV>
0

>  <SCORE.INTRA.SOLV.lig_0>
-48.6608

>  <SCORE.INTRA.VDW>
0

>  <SCORE.INTRA.VDW.0>
0

>  <SCORE.INTRA.norm>
0

>  <SCORE.RESTR>
0

>  <SCORE.RESTR.CAVITY>
0

>  <SCORE.RESTR.norm>
0

>  <SCORE.SYSTEM>
0

>  <SCORE.SYSTEM.CONST>
0

>  <SCORE.SYSTEM.DIHEDRAL>
0

>  <SCORE.SYSTEM.SOLV>
0

>  <SCORE.SYSTEM.norm>
0

>  <SCORE.heavy>
13

>  <SCORE.norm>
-0.604381

>  <RMSD>
4.844

$$$$
ligand
 OpenBabel11021811483D
libRbt.so/2013.1/901 2013/11/27
 13 14  0  0  0  0  0  0  0  0999 V2000
    6.6947   44.5995   71.0058 N   0  0  0  0  0  0  0  0  0  0  0  0
    8.7746   44.4161   69.9987 N   0  0  0  0  0  0  0  0  0  0  0  0
    7.5255   43.9540   70.1923 C   0  0  0  0  0  0  0  0  0  0  0  0
    7.0963   42.7909   69.5544 N   0  0  0  0  0  0  0  0  0  0  0  0
    7.9868   42.1302   68.7057 C   0  0  0  0  0  0  0  0  0  0  0  0
    9.2677   42.6369   68.5114 C   0  0  0  0  0  0  0  0  0  0  0  0
    7.6392   41.0971   68.1347 O   0  0  0  0  0  0  0  0  0  0  0  0
   10.1786   41.9471   67.6889 N   0  0  0  0  0  0  0  0  0  0  0  0
   11.5457   42.4667   67.4011 C   0  0  2  0  0  0  0  0  0  0  0  0
   12.0194   43.3267   68.5850 C   0  0  0  0  0  0  0  0  0  0  0  0
    9.6467   43.7852   69.1919 C   0  0  0  0  0  0  0  0  0  0  0  0
   10.9434   44.2837   69.0174 N   0  0  0  0  0  0  0  0  0  0  0  0
   11.4852   43.3343   66.1083 C   0  0  0  0  0  0  0  0  0  0  0  0
  1  3  1  0  0  0  0
  2  3  2  0  0  0  0
  2 11  1  0  0  0  0
  3  4  1  0  0  0  0
  4  5  1  0  0  0  0
  5  6  1  0  0  0  0
  5  7  2  0  0  0  0
  6  8  1  0  0  0  0
  6 11  2  0  0  0  0
  8  9  1  0  0  0  0
  9 10  1  0  0  0  0
  9 13  1  6  0  0  0
 10 12  1  0  0  0  0
 11 12  1  0  0  0  0
M  END
>  <CHROM.1>
9.30545018,43.11832514,68.74451070,-2.69652286,-0.38086532,-2.44453602

>  <Name>
ligand

>  <RI>
0

>  <Rbt.Current_Directory>
/home/itssahil/PROJECTS/Mol_Feturizer/New_Systems/rnas/3SUX

>  <Rbt.Executable>
rbdock ($Id: //depot/dev/client3/rdock/2013.1/src/exe/rbdock.cxx#4 $)

>  <Rbt.Library>
libRbt.so (2013.1, Build901 2013/11/27)

>  <Rbt.Parameter_File>
/export/apps/rDock/src/rDock_2013.1_src/data/scripts/dock_solv.prm

>  <Rbt.Receptor>
prm/pocket_docking_3.prm

>  <SCORE>
-7.83871

>  <SCORE.INTER>
-7.83871

>  <SCORE.INTER.CONST>
1

>  <SCORE.INTER.POLAR>
0

>  <SCORE.INTER.ROT>
0

>  <SCORE.INTER.SOLV>
12.3178

>  <SCORE.INTER.VDW>
-12.9317

>  <SCORE.INTER.norm>
-0.602978

>  <SCORE.INTRA>
0

>  <SCORE.INTRA.DIHEDRAL>
0

>  <SCORE.INTRA.DIHEDRAL.0>
0

>  <SCORE.INTRA.POLAR>
0

>  <SCORE.INTRA.POLAR.0>
0

>  <SCORE.INTRA.REPUL>
0

>  <SCORE.INTRA.REPUL.0>
0

>  <SCORE.INTRA.SOLV>
0

>  <SCORE.INTRA.SOLV.lig_0>
-48.6608

>  <SCORE.INTRA.VDW>
0

>  <SCORE.INTRA.VDW.0>
0

>  <SCORE.INTRA.norm>
0

>  <SCORE.RESTR>
0

>  <SCORE.RESTR.CAVITY>
0

>  <SCORE.RESTR.norm>
0

>  <SCORE.SYSTEM>
0

>  <SCORE.SYSTEM.CONST>
0

>  <SCORE.SYSTEM.DIHEDRAL>
0

>  <SCORE.SYSTEM.SOLV>
0

>  <SCORE.SYSTEM.norm>
0

>  <SCORE.heavy>
13

>  <SCORE.norm>
-0.602978

>  <RMSD>
4.844

$$$$
ligand
 OpenBabel11021811483D
libRbt.so/2013.1/901 2013/11/27
 13 14  0  0  0  0  0  0  0  0999 V2000
    6.5906   44.5743   70.8727 N   0  0  0  0  0  0  0  0  0  0  0  0
    8.6959   44.4176   69.9153 N   0  0  0  0  0  0  0  0  0  0  0  0
    7.4527   43.9326   70.0893 C   0  0  0  0  0  0  0  0  0  0  0  0
    7.0622   42.7499   69.4627 N   0  0  0  0  0  0  0  0  0  0  0  0
    7.9850   42.0937   68.6457 C   0  0  0  0  0  0  0  0  0  0  0  0
    9.2592   42.6239   68.4709 C   0  0  0  0  0  0  0  0  0  0  0  0
    7.6719   41.0439   68.0854 O   0  0  0  0  0  0  0  0  0  0  0  0
   10.2025   41.9395   67.6811 N   0  0  0  0  0  0  0  0  0  0  0  0
   11.5646   42.4828   67.4145 C   0  0  2  0  0  0  0  0  0  0  0  0
   11.9937   43.3728   68.5933 C   0  0  0  0  0  0  0  0  0  0  0  0
    9.5989   43.7915   69.1393 C   0  0  0  0  0  0  0  0  0  0  0  0
   10.8885   44.3141   68.9848 N   0  0  0  0  0  0  0  0  0  0  0  0
   11.5153   43.3266   66.1056 C   0  0  0  0  0  0  0  0  0  0  0  0
  1  3  1  0  0  0  0
  2  3  2  0  0  0  0
  2 11  1  0  0  0  0
  3  4  1  0  0  0  0
  4  5  1  0  0  0  0
  5  6  1  0  0  0  0
  5  7  2  0  0  0  0
  6  8  1  0  0  0  0
  6 11  2  0  0  0  0
  8  9  1  0  0  0  0
  9 10  1  0  0  0  0
  9 13  1  6  0  0  0
 10 12  1  0  0  0  0
 11 12  1  0  0  0  0
M  END
>  <CHROM.1>
9.28169732,43.10996905,68.69627712,-2.72915331,-0.37672689,-2.47400103

>  <Name>
ligand

>  <RI>
0

>  <Rbt.Current_Directory>
/home/itssahil/PROJECTS/Mol_Feturizer/New_Systems/rnas/3SUX

>  <Rbt.Executable>
rbdock ($Id: //depot/dev/client3/rdock/2013.1/src/exe/rbdock.cxx#4 $)

>  <Rbt.Library>
libRbt.so (2013.1, Build901 2013/11/27)

>  <Rbt.Parameter_File>
/export/apps/rDock/src/rDock_2013.1_src/data/scripts/dock_solv.prm

>  <Rbt.Receptor>
prm/pocket_docking_3.prm

>  <SCORE>
-7.79876

>  <SCORE.INTER>
-7.79876

>  <SCORE.INTER.CONST>
1

>  <SCORE.INTER.POLAR>
0

>  <SCORE.INTER.ROT>
0

>  <SCORE.INTER.SOLV>
13.4786

>  <SCORE.INTER.VDW>
-13.292

>  <SCORE.INTER.norm>
-0.599905

>  <SCORE.INTRA>
0

>  <SCORE.INTRA.DIHEDRAL>
0

>  <SCORE.INTRA.DIHEDRAL.0>
0

>  <SCORE.INTRA.POLAR>
0

>  <SCORE.INTRA.POLAR.0>
0

>  <SCORE.INTRA.REPUL>
0

>  <SCORE.INTRA.REPUL.0>
0

>  <SCORE.INTRA.SOLV>
0

>  <SCORE.INTRA.SOLV.lig_0>
-48.6608

>  <SCORE.INTRA.VDW>
0

>  <SCORE.INTRA.VDW.0>
0

>  <SCORE.INTRA.norm>
0

>  <SCORE.RESTR>
0

>  <SCORE.RESTR.CAVITY>
0

>  <SCORE.RESTR.norm>
0

>  <SCORE.SYSTEM>
0

>  <SCORE.SYSTEM.CONST>
0

>  <SCORE.SYSTEM.DIHEDRAL>
0

>  <SCORE.SYSTEM.SOLV>
0

>  <SCORE.SYSTEM.norm>
0

>  <SCORE.heavy>
13

>  <SCORE.norm>
-0.599905

>  <RMSD>
4.844

$$$$
ligand
 OpenBabel11021811483D
libRbt.so/2013.1/901 2013/11/27
 13 14  0  0  0  0  0  0  0  0999 V2000
    6.6620   44.6006   70.9670 N   0  0  0  0  0  0  0  0  0  0  0  0
    8.7463   44.4274   69.9673 N   0  0  0  0  0  0  0  0  0  0  0  0
    7.5014   43.9548   70.1626 C   0  0  0  0  0  0  0  0  0  0  0  0
    7.0857   42.7807   69.5360 N   0  0  0  0  0  0  0  0  0  0  0  0
    7.9850   42.1201   68.6967 C   0  0  0  0  0  0  0  0  0  0  0  0
    9.2613   42.6374   68.5003 C   0  0  0  0  0  0  0  0  0  0  0  0
    7.6494   41.0775   68.1358 O   0  0  0  0  0  0  0  0  0  0  0  0
   10.1813   41.9481   67.6876 N   0  0  0  0  0  0  0  0  0  0  0  0
   11.5439   42.4783   67.3979 C   0  0  2  0  0  0  0  0  0  0  0  0
   12.0058   43.3556   68.5739 C   0  0  0  0  0  0  0  0  0  0  0  0
    9.6270   43.7967   69.1696 C   0  0  0  0  0  0  0  0  0  0  0  0
   10.9190   44.3062   68.9932 N   0  0  0  0  0  0  0  0  0  0  0  0
   11.4782   43.3315   66.0958 C   0  0  0  0  0  0  0  0  0  0  0  0
  1  3  1  0  0  0  0
  2  3  2  0  0  0  0
  2 11  1  0  0  0  0
  3  4  1  0  0  0  0
  4  5  1  0  0  0  0
  5  6  1  0  0  0  0
  5  7  2  0  0  0  0
  6  8  1  0  0  0  0
  6 11  2  0  0  0  0
  8  9  1  0  0  0  0
  9 10  1  0  0  0  0
  9 13  1  6  0  0  0
 10 12  1  0  0  0  0
 11 12  1  0  0  0  0
M  END
>  <CHROM.1>
9.29359638,43.12169972,68.72843868,-2.70668908,-0.38518124,-2.45897422

>  <Name>
ligand

>  <RI>
0

>  <Rbt.Current_Directory>
/home/itssahil/PROJECTS/Mol_Feturizer/New_Systems/rnas/3SUX

>  <Rbt.Executable>
rbdock ($Id: //depot/dev/client3/rdock/2013.1/src/exe/rbdock.cxx#4 $)

>  <Rbt.Library>
libRbt.so (2013.1, Build901 2013/11/27)

>  <Rbt.Parameter_File>
/export/apps/rDock/src/rDock_2013.1_src/data/scripts/dock_solv.prm

>  <Rbt.Receptor>
prm/pocket_docking_3.prm

>  <SCORE>
-7.85369

>  <SCORE.INTER>
-7.85428

>  <SCORE.INTER.CONST>
1

>  <SCORE.INTER.POLAR>
0

>  <SCORE.INTER.ROT>
0

>  <SCORE.INTER.SOLV>
12.6795

>  <SCORE.INTER.VDW>
-13.0627

>  <SCORE.INTER.norm>
-0.604175

>  <SCORE.INTRA>
0

>  <SCORE.INTRA.DIHEDRAL>
0

>  <SCORE.INTRA.DIHEDRAL.0>
0

>  <SCORE.INTRA.POLAR>
0

>  <SCORE.INTRA.POLAR.0>
0

>  <SCORE.INTRA.REPUL>
0

>  <SCORE.INTRA.REPUL.0>
0

>  <SCORE.INTRA.SOLV>
0

>  <SCORE.INTRA.SOLV.lig_0>
-48.6608

>  <SCORE.INTRA.VDW>
0

>  <SCORE.INTRA.VDW.0>
0

>  <SCORE.INTRA.norm>
0

>  <SCORE.RESTR>
0.000594521

>  <SCORE.RESTR.CAVITY>
0.000594521

>  <SCORE.RESTR.norm>
4.57324e-05

>  <SCORE.SYSTEM>
0

>  <SCORE.SYSTEM.CONST>
0

>  <SCORE.SYSTEM.DIHEDRAL>
0

>  <SCORE.SYSTEM.SOLV>
0

>  <SCORE.SYSTEM.norm>
0

>  <SCORE.heavy>
13

>  <SCORE.norm>
-0.60413

>  <RMSD>
4.845

$$$$
ligand
 OpenBabel11021811483D
libRbt.so/2013.1/901 2013/11/27
 13 14  0  0  0  0  0  0  0  0999 V2000
    6.6622   44.5999   70.9680 N   0  0  0  0  0  0  0  0  0  0  0  0
    8.7478   44.4215   69.9721 N   0  0  0  0  0  0  0  0  0  0  0  0
    7.5012   43.9524   70.1646 C   0  0  0  0  0  0  0  0  0  0  0  0
    7.0832   42.7801   69.5362 N   0  0  0  0  0  0  0  0  0  0  0  0
    7.9822   42.1176   68.6980 C   0  0  0  0  0  0  0  0  0  0  0  0
    9.2603   42.6314   68.5044 C   0  0  0  0  0  0  0  0  0  0  0  0
    7.6445   41.0765   68.1355 O   0  0  0  0  0  0  0  0  0  0  0  0
   10.1799   41.9402   67.6928 N   0  0  0  0  0  0  0  0  0  0  0  0
   11.5445   42.4667   67.4061 C   0  0  2  0  0  0  0  0  0  0  0  0
   12.0068   43.3415   68.5837 C   0  0  0  0  0  0  0  0  0  0  0  0
    9.6281   43.7890   69.1754 C   0  0  0  0  0  0  0  0  0  0  0  0
   10.9219   44.2950   69.0018 N   0  0  0  0  0  0  0  0  0  0  0  0
   11.4837   43.3212   66.1047 C   0  0  0  0  0  0  0  0  0  0  0  0
  1  3  1  0  0  0  0
  2  3  2  0  0  0  0
  2 11  1  0  0  0  0
  3  4  1  0  0  0  0
  4  5  1  0  0  0  0
  5  6  1  0  0  0  0
  5  7  2  0  0  0  0
  6  8  1  0  0  0  0
  6 11  2  0  0  0  0
  8  9  1  0  0  0  0
  9 10  1  0  0  0  0
  9 13  1  6  0  0  0
 10 12  1  0  0  0  0
 11 12  1  0  0  0  0
M  END
>  <CHROM.1>
9.29359887,43.11537288,68.73302723,-2.70552630,-0.38191086,-2.45764290

>  <Name>
ligand

>  <RI>
0

>  <Rbt.Current_Directory>
/home/itssahil/PROJECTS/Mol_Feturizer/New_Systems/rnas/3SUX

>  <Rbt.Executable>
rbdock ($Id: //depot/dev/client3/rdock/2013.1/src/exe/rbdock.cxx#4 $)

>  <Rbt.Library>
libRbt.so (2013.1, Build901 2013/11/27)

>  <Rbt.Parameter_File>
/export/apps/rDock/src/rDock_2013.1_src/data/scripts/dock_solv.prm

>  <Rbt.Receptor>
prm/pocket_docking_3.prm

>  <SCORE>
-7.85797

>  <SCORE.INTER>
-7.85797

>  <SCORE.INTER.CONST>
1

>  <SCORE.INTER.POLAR>
0

>  <SCORE.INTER.ROT>
0

>  <SCORE.INTER.SOLV>
12.6315

>  <SCORE.INTER.VDW>
-13.0491

>  <SCORE.INTER.norm>
-0.604459

>  <SCORE.INTRA>
0

>  <SCORE.INTRA.DIHEDRAL>
0

>  <SCORE.INTRA.DIHEDRAL.0>
0

>  <SCORE.INTRA.POLAR>
0

>  <SCORE.INTRA.POLAR.0>
0

>  <SCORE.INTRA.REPUL>
0

>  <SCORE.INTRA.REPUL.0>
0

>  <SCORE.INTRA.SOLV>
0

>  <SCORE.INTRA.SOLV.lig_0>
-48.6608

>  <SCORE.INTRA.VDW>
0

>  <SCORE.INTRA.VDW.0>
0

>  <SCORE.INTRA.norm>
0

>  <SCORE.RESTR>
0

>  <SCORE.RESTR.CAVITY>
0

>  <SCORE.RESTR.norm>
0

>  <SCORE.SYSTEM>
0

>  <SCORE.SYSTEM.CONST>
0

>  <SCORE.SYSTEM.DIHEDRAL>
0

>  <SCORE.SYSTEM.SOLV>
0

>  <SCORE.SYSTEM.norm>
0

>  <SCORE.heavy>
13

>  <SCORE.norm>
-0.604459

>  <RMSD>
4.845

$$$$
ligand
 OpenBabel11021811483D
libRbt.so/2013.1/901 2013/11/27
 13 14  0  0  0  0  0  0  0  0999 V2000
    6.6479   44.6001   70.9473 N   0  0  0  0  0  0  0  0  0  0  0  0
    8.7292   44.4484   69.9378 N   0  0  0  0  0  0  0  0  0  0  0  0
    7.4947   43.9558   70.1495 C   0  0  0  0  0  0  0  0  0  0  0  0
    7.0979   42.7628   69.5469 N   0  0  0  0  0  0  0  0  0  0  0  0
    8.0048   42.1042   68.7141 C   0  0  0  0  0  0  0  0  0  0  0  0
    9.2697   42.6422   68.5004 C   0  0  0  0  0  0  0  0  0  0  0  0
    7.6859   41.0453   68.1744 O   0  0  0  0  0  0  0  0  0  0  0  0
   10.1980   41.9559   67.6946 N   0  0  0  0  0  0  0  0  0  0  0  0
   11.5483   42.5066   67.3867 C   0  0  2  0  0  0  0  0  0  0  0  0
   12.0003   43.4138   68.5436 C   0  0  0  0  0  0  0  0  0  0  0  0
    9.6170   43.8202   69.1462 C   0  0  0  0  0  0  0  0  0  0  0  0
   10.8980   44.3511   68.9524 N   0  0  0  0  0  0  0  0  0  0  0  0
   11.4586   43.3344   66.0698 C   0  0  0  0  0  0  0  0  0  0  0  0
  1  3  1  0  0  0  0
  2  3  2  0  0  0  0
  2 11  1  0  0  0  0
  3  4  1  0  0  0  0
  4  5  1  0  0  0  0
  5  6  1  0  0  0  0
  5  7  2  0  0  0  0
  6  8  1  0  0  0  0
  6 11  2  0  0  0  0
  8  9  1  0  0  0  0
  9 10  1  0  0  0  0
  9 13  1  6  0  0  0
 10 12  1  0  0  0  0
 11 12  1  0  0  0  0
M  END
>  <CHROM.1>
9.29406140,43.13105205,68.71944979,-2.71882698,-0.40188305,-2.48184580

>  <Name>
ligand

>  <RI>
0

>  <Rbt.Current_Directory>
/home/itssahil/PROJECTS/Mol_Feturizer/New_Systems/rnas/3SUX

>  <Rbt.Executable>
rbdock ($Id: //depot/dev/client3/rdock/2013.1/src/exe/rbdock.cxx#4 $)

>  <Rbt.Library>
libRbt.so (2013.1, Build901 2013/11/27)

>  <Rbt.Parameter_File>
/export/apps/rDock/src/rDock_2013.1_src/data/scripts/dock_solv.prm

>  <Rbt.Receptor>
prm/pocket_docking_3.prm

>  <SCORE>
-7.80927

>  <SCORE.INTER>
-7.80932

>  <SCORE.INTER.CONST>
1

>  <SCORE.INTER.POLAR>
0

>  <SCORE.INTER.ROT>
0

>  <SCORE.INTER.SOLV>
12.9149

>  <SCORE.INTER.VDW>
-13.1112

>  <SCORE.INTER.norm>
-0.600717

>  <SCORE.INTRA>
0

>  <SCORE.INTRA.DIHEDRAL>
0

>  <SCORE.INTRA.DIHEDRAL.0>
0

>  <SCORE.INTRA.POLAR>
0

>  <SCORE.INTRA.POLAR.0>
0

>  <SCORE.INTRA.REPUL>
0

>  <SCORE.INTRA.REPUL.0>
0

>  <SCORE.INTRA.SOLV>
0

>  <SCORE.INTRA.SOLV.lig_0>
-48.6608

>  <SCORE.INTRA.VDW>
0

>  <SCORE.INTRA.VDW.0>
0

>  <SCORE.INTRA.norm>
0

>  <SCORE.RESTR>
5.02088e-05

>  <SCORE.RESTR.CAVITY>
5.02088e-05

>  <SCORE.RESTR.norm>
3.86222e-06

>  <SCORE.SYSTEM>
0

>  <SCORE.SYSTEM.CONST>
0

>  <SCORE.SYSTEM.DIHEDRAL>
0

>  <SCORE.SYSTEM.SOLV>
0

>  <SCORE.SYSTEM.norm>
0

>  <SCORE.heavy>
13

>  <SCORE.norm>
-0.600713

>  <RMSD>
4.845

$$$$
ligand
 OpenBabel11021811483D
libRbt.so/2013.1/901 2013/11/27
 13 14  0  0  0  0  0  0  0  0999 V2000
    6.6754   44.5996   70.9834 N   0  0  0  0  0  0  0  0  0  0  0  0
    8.7564   44.4184   69.9783 N   0  0  0  0  0  0  0  0  0  0  0  0
    7.5095   43.9519   70.1751 C   0  0  0  0  0  0  0  0  0  0  0  0
    7.0860   42.7820   69.5459 N   0  0  0  0  0  0  0  0  0  0  0  0
    7.9799   42.1191   68.7024 C   0  0  0  0  0  0  0  0  0  0  0  0
    9.2584   42.6303   68.5046 C   0  0  0  0  0  0  0  0  0  0  0  0
    7.6374   41.0801   68.1391 O   0  0  0  0  0  0  0  0  0  0  0  0
   10.1729   41.9387   67.6876 N   0  0  0  0  0  0  0  0  0  0  0  0
   11.5375   42.4626   67.3963 C   0  0  2  0  0  0  0  0  0  0  0  0
   12.0069   43.3337   68.5738 C   0  0  0  0  0  0  0  0  0  0  0  0
    9.6318   43.7856   69.1766 C   0  0  0  0  0  0  0  0  0  0  0  0
   10.9261   44.2888   68.9987 N   0  0  0  0  0  0  0  0  0  0  0  0
   11.4734   43.3201   66.0970 C   0  0  0  0  0  0  0  0  0  0  0  0
  1  3  1  0  0  0  0
  2  3  2  0  0  0  0
  2 11  1  0  0  0  0
  3  4  1  0  0  0  0
  4  5  1  0  0  0  0
  5  6  1  0  0  0  0
  5  7  2  0  0  0  0
  6  8  1  0  0  0  0
  6 11  2  0  0  0  0
  8  9  1  0  0  0  0
  9 10  1  0  0  0  0
  9 13  1  6  0  0  0
 10 12  1  0  0  0  0
 11 12  1  0  0  0  0
M  END
>  <CHROM.1>
9.29384948,43.11373277,68.73410919,-2.70065205,-0.38365620,-2.45361677

>  <Name>
ligand

>  <RI>
0

>  <Rbt.Current_Directory>
/home/itssahil/PROJECTS/Mol_Feturizer/New_Systems/rnas/3SUX

>  <Rbt.Executable>
rbdock ($Id: //depot/dev/client3/rdock/2013.1/src/exe/rbdock.cxx#4 $)

>  <Rbt.Library>
libRbt.so (2013.1, Build901 2013/11/27)

>  <Rbt.Parameter_File>
/export/apps/rDock/src/rDock_2013.1_src/data/scripts/dock_solv.prm

>  <Rbt.Receptor>
prm/pocket_docking_3.prm

>  <SCORE>
-7.85474

>  <SCORE.INTER>
-7.85474

>  <SCORE.INTER.CONST>
1

>  <SCORE.INTER.POLAR>
0

>  <SCORE.INTER.ROT>
0

>  <SCORE.INTER.SOLV>
12.5401

>  <SCORE.INTER.VDW>
-13.0165

>  <SCORE.INTER.norm>
-0.604211

>  <SCORE.INTRA>
0

>  <SCORE.INTRA.DIHEDRAL>
0

>  <SCORE.INTRA.DIHEDRAL.0>
0

>  <SCORE.INTRA.POLAR>
0

>  <SCORE.INTRA.POLAR.0>
0

>  <SCORE.INTRA.REPUL>
0

>  <SCORE.INTRA.REPUL.0>
0

>  <SCORE.INTRA.SOLV>
0

>  <SCORE.INTRA.SOLV.lig_0>
-48.6608

>  <SCORE.INTRA.VDW>
0

>  <SCORE.INTRA.VDW.0>
0

>  <SCORE.INTRA.norm>
0

>  <SCORE.RESTR>
0

>  <SCORE.RESTR.CAVITY>
0

>  <SCORE.RESTR.norm>
0

>  <SCORE.SYSTEM>
0

>  <SCORE.SYSTEM.CONST>
0

>  <SCORE.SYSTEM.DIHEDRAL>
0

>  <SCORE.SYSTEM.SOLV>
0

>  <SCORE.SYSTEM.norm>
0

>  <SCORE.heavy>
13

>  <SCORE.norm>
-0.604211

>  <RMSD>
4.845

$$$$
ligand
 OpenBabel11021811483D
libRbt.so/2013.1/901 2013/11/27
 13 14  0  0  0  0  0  0  0  0999 V2000
    6.6419   44.6002   70.9322 N   0  0  0  0  0  0  0  0  0  0  0  0
    8.7284   44.4371   69.9355 N   0  0  0  0  0  0  0  0  0  0  0  0
    7.4875   43.9553   70.1337 C   0  0  0  0  0  0  0  0  0  0  0  0
    7.0826   42.7725   69.5164 N   0  0  0  0  0  0  0  0  0  0  0  0
    7.9883   42.1130   68.6831 C   0  0  0  0  0  0  0  0  0  0  0  0
    9.2602   42.6399   68.4835 C   0  0  0  0  0  0  0  0  0  0  0  0
    7.6623   41.0630   68.1305 O   0  0  0  0  0  0  0  0  0  0  0  0
   10.1869   41.9521   67.6771 N   0  0  0  0  0  0  0  0  0  0  0  0
   11.5450   42.4919   67.3840 C   0  0  2  0  0  0  0  0  0  0  0  0
   11.9983   43.3827   68.5532 C   0  0  0  0  0  0  0  0  0  0  0  0
    9.6152   43.8078   69.1436 C   0  0  0  0  0  0  0  0  0  0  0  0
   10.9028   44.3272   68.9639 N   0  0  0  0  0  0  0  0  0  0  0  0
   11.4729   43.3338   66.0750 C   0  0  0  0  0  0  0  0  0  0  0  0
  1  3  1  0  0  0  0
  2  3  2  0  0  0  0
  2 11  1  0  0  0  0
  3  4  1  0  0  0  0
  4  5  1  0  0  0  0
  5  6  1  0  0  0  0
  5  7  2  0  0  0  0
  6  8  1  0  0  0  0
  6 11  2  0  0  0  0
  8  9  1  0  0  0  0
  9 10  1  0  0  0  0
  9 13  1  6  0  0  0
 10 12  1  0  0  0  0
 11 12  1  0  0  0  0
M  END
>  <CHROM.1>
9.28808052,43.12629310,68.70767222,-2.71458018,-0.39008357,-2.47008885

>  <Name>
ligand

>  <RI>
0

>  <Rbt.Current_Directory>
/home/itssahil/PROJECTS/Mol_Feturizer/New_Systems/rnas/3SUX

>  <Rbt.Executable>
rbdock ($Id: //depot/dev/client3/rdock/2013.1/src/exe/rbdock.cxx#4 $)

>  <Rbt.Library>
libRbt.so (2013.1, Build901 2013/11/27)

>  <Rbt.Parameter_File>
/export/apps/rDock/src/rDock_2013.1_src/data/scripts/dock_solv.prm

>  <Rbt.Receptor>
prm/pocket_docking_3.prm

>  <SCORE>
-7.84276

>  <SCORE.INTER>
-7.84296

>  <SCORE.INTER.CONST>
1

>  <SCORE.INTER.POLAR>
0

>  <SCORE.INTER.ROT>
0

>  <SCORE.INTER.SOLV>
13.0115

>  <SCORE.INTER.VDW>
-13.1658

>  <SCORE.INTER.norm>
-0.603305

>  <SCORE.INTRA>
0

>  <SCORE.INTRA.DIHEDRAL>
0

>  <SCORE.INTRA.DIHEDRAL.0>
0

>  <SCORE.INTRA.POLAR>
0

>  <SCORE.INTRA.POLAR.0>
0

>  <SCORE.INTRA.REPUL>
0

>  <SCORE.INTRA.REPUL.0>
0

>  <SCORE.INTRA.SOLV>
0

>  <SCORE.INTRA.SOLV.lig_0>
-48.6608

>  <SCORE.INTRA.VDW>
0

>  <SCORE.INTRA.VDW.0>
0

>  <SCORE.INTRA.norm>
0

>  <SCORE.RESTR>
0.000202841

>  <SCORE.RESTR.CAVITY>
0.000202841

>  <SCORE.RESTR.norm>
1.56031e-05

>  <SCORE.SYSTEM>
0

>  <SCORE.SYSTEM.CONST>
0

>  <SCORE.SYSTEM.DIHEDRAL>
0

>  <SCORE.SYSTEM.SOLV>
0

>  <SCORE.SYSTEM.norm>
0

>  <SCORE.heavy>
13

>  <SCORE.norm>
-0.603289

>  <RMSD>
4.845

$$$$
ligand
 OpenBabel11021811483D
libRbt.so/2013.1/901 2013/11/27
 13 14  0  0  0  0  0  0  0  0999 V2000
    6.5969   44.6001   70.8866 N   0  0  0  0  0  0  0  0  0  0  0  0
    8.6955   44.4416   69.9149 N   0  0  0  0  0  0  0  0  0  0  0  0
    7.4547   43.9549   70.1015 C   0  0  0  0  0  0  0  0  0  0  0  0
    7.0625   42.7668   69.4861 N   0  0  0  0  0  0  0  0  0  0  0  0
    7.9809   42.1071   68.6670 C   0  0  0  0  0  0  0  0  0  0  0  0
    9.2525   42.6390   68.4790 C   0  0  0  0  0  0  0  0  0  0  0  0
    7.6663   41.0525   68.1165 O   0  0  0  0  0  0  0  0  0  0  0  0
   10.1917   41.9513   67.6872 N   0  0  0  0  0  0  0  0  0  0  0  0
   11.5504   42.4959   67.4067 C   0  0  2  0  0  0  0  0  0  0  0  0
   11.9860   43.3953   68.5760 C   0  0  0  0  0  0  0  0  0  0  0  0
    9.5943   43.8121   69.1367 C   0  0  0  0  0  0  0  0  0  0  0  0
   10.8815   44.3367   68.9690 N   0  0  0  0  0  0  0  0  0  0  0  0
   11.4895   43.3303   66.0923 C   0  0  0  0  0  0  0  0  0  0  0  0
  1  3  1  0  0  0  0
  2  3  2  0  0  0  0
  2 11  1  0  0  0  0
  3  4  1  0  0  0  0
  4  5  1  0  0  0  0
  5  6  1  0  0  0  0
  5  7  2  0  0  0  0
  6  8  1  0  0  0  0
  6 11  2  0  0  0  0
  8  9  1  0  0  0  0
  9 10  1  0  0  0  0
  9 13  1  6  0  0  0
 10 12  1  0  0  0  0
 11 12  1  0  0  0  0
M  END
>  <CHROM.1>
9.27548377,43.12671700,68.70082470,-2.72631617,-0.38399713,-2.48003211

>  <Name>
ligand

>  <RI>
0

>  <Rbt.Current_Directory>
/home/itssahil/PROJECTS/Mol_Feturizer/New_Systems/rnas/3SUX

>  <Rbt.Executable>
rbdock ($Id: //depot/dev/client3/rdock/2013.1/src/exe/rbdock.cxx#4 $)

>  <Rbt.Library>
libRbt.so (2013.1, Build901 2013/11/27)

>  <Rbt.Parameter_File>
/export/apps/rDock/src/rDock_2013.1_src/data/scripts/dock_solv.prm

>  <Rbt.Receptor>
prm/pocket_docking_3.prm

>  <SCORE>
-7.82514

>  <SCORE.INTER>
-7.8252

>  <SCORE.INTER.CONST>
1

>  <SCORE.INTER.POLAR>
0

>  <SCORE.INTER.ROT>
0

>  <SCORE.INTER.SOLV>
13.3753

>  <SCORE.INTER.VDW>
-13.2752

>  <SCORE.INTER.norm>
-0.601938

>  <SCORE.INTRA>
0

>  <SCORE.INTRA.DIHEDRAL>
0

>  <SCORE.INTRA.DIHEDRAL.0>
0

>  <SCORE.INTRA.POLAR>
0

>  <SCORE.INTRA.POLAR.0>
0

>  <SCORE.INTRA.REPUL>
0

>  <SCORE.INTRA.REPUL.0>
0

>  <SCORE.INTRA.SOLV>
0

>  <SCORE.INTRA.SOLV.lig_0>
-48.6608

>  <SCORE.INTRA.VDW>
0

>  <SCORE.INTRA.VDW.0>
0

>  <SCORE.INTRA.norm>
0

>  <SCORE.RESTR>
6.12505e-05

>  <SCORE.RESTR.CAVITY>
6.12505e-05

>  <SCORE.RESTR.norm>
4.71157e-06

>  <SCORE.SYSTEM>
0

>  <SCORE.SYSTEM.CONST>
0

>  <SCORE.SYSTEM.DIHEDRAL>
0

>  <SCORE.SYSTEM.SOLV>
0

>  <SCORE.SYSTEM.norm>
0

>  <SCORE.heavy>
13

>  <SCORE.norm>
-0.601934

>  <RMSD>
4.846

$$$$
ligand
 OpenBabel11021811483D
libRbt.so/2013.1/901 2013/11/27
 13 14  0  0  0  0  0  0  0  0999 V2000
    6.6783   44.5998   71.0568 N   0  0  0  0  0  0  0  0  0  0  0  0
    8.7691   44.4024   70.0754 N   0  0  0  0  0  0  0  0  0  0  0  0
    7.5093   43.9585   70.2403 C   0  0  0  0  0  0  0  0  0  0  0  0
    7.0691   42.8184   69.5692 N   0  0  0  0  0  0  0  0  0  0  0  0
    7.9601   42.1617   68.7180 C   0  0  0  0  0  0  0  0  0  0  0  0
    9.2524   42.6496   68.5538 C   0  0  0  0  0  0  0  0  0  0  0  0
    7.6027   41.1485   68.1180 O   0  0  0  0  0  0  0  0  0  0  0  0
   10.1630   41.9628   67.7284 N   0  0  0  0  0  0  0  0  0  0  0  0
   11.5431   42.4643   67.4724 C   0  0  2  0  0  0  0  0  0  0  0  0
   12.0146   43.2878   68.6828 C   0  0  0  0  0  0  0  0  0  0  0  0
    9.6417   43.7748   69.2665 C   0  0  0  0  0  0  0  0  0  0  0  0
   10.9493   44.2537   69.1222 N   0  0  0  0  0  0  0  0  0  0  0  0
   11.5169   43.3626   66.1996 C   0  0  0  0  0  0  0  0  0  0  0  0
  1  3  1  0  0  0  0
  2  3  2  0  0  0  0
  2 11  1  0  0  0  0
  3  4  1  0  0  0  0
  4  5  1  0  0  0  0
  5  6  1  0  0  0  0
  5  7  2  0  0  0  0
  6  8  1  0  0  0  0
  6 11  2  0  0  0  0
  8  9  1  0  0  0  0
  9 10  1  0  0  0  0
  9 13  1  6  0  0  0
 10 12  1  0  0  0  0
 11 12  1  0  0  0  0
M  END
>  <CHROM.1>
9.29527453,43.12472467,68.79873095,-2.69210345,-0.35829570,-2.41958377

>  <Name>
ligand

>  <RI>
0

>  <Rbt.Current_Directory>
/home/itssahil/PROJECTS/Mol_Feturizer/New_Systems/rnas/3SUX

>  <Rbt.Executable>
rbdock ($Id: //depot/dev/client3/rdock/2013.1/src/exe/rbdock.cxx#4 $)

>  <Rbt.Library>
libRbt.so (2013.1, Build901 2013/11/27)

>  <Rbt.Parameter_File>
/export/apps/rDock/src/rDock_2013.1_src/data/scripts/dock_solv.prm

>  <Rbt.Receptor>
prm/pocket_docking_3.prm

>  <SCORE>
-7.78233

>  <SCORE.INTER>
-7.78233

>  <SCORE.INTER.CONST>
1

>  <SCORE.INTER.POLAR>
0

>  <SCORE.INTER.ROT>
0

>  <SCORE.INTER.SOLV>
11.8294

>  <SCORE.INTER.VDW>
-12.7314

>  <SCORE.INTER.norm>
-0.598641

>  <SCORE.INTRA>
0

>  <SCORE.INTRA.DIHEDRAL>
0

>  <SCORE.INTRA.DIHEDRAL.0>
0

>  <SCORE.INTRA.POLAR>
0

>  <SCORE.INTRA.POLAR.0>
0

>  <SCORE.INTRA.REPUL>
0

>  <SCORE.INTRA.REPUL.0>
0

>  <SCORE.INTRA.SOLV>
0

>  <SCORE.INTRA.SOLV.lig_0>
-48.6608

>  <SCORE.INTRA.VDW>
0

>  <SCORE.INTRA.VDW.0>
0

>  <SCORE.INTRA.norm>
0

>  <SCORE.RESTR>
0

>  <SCORE.RESTR.CAVITY>
0

>  <SCORE.RESTR.norm>
0

>  <SCORE.SYSTEM>
0

>  <SCORE.SYSTEM.CONST>
0

>  <SCORE.SYSTEM.DIHEDRAL>
0

>  <SCORE.SYSTEM.SOLV>
0

>  <SCORE.SYSTEM.norm>
0

>  <SCORE.heavy>
13

>  <SCORE.norm>
-0.598641

>  <RMSD>
4.852

$$$$
ligand
 OpenBabel11021811483D
libRbt.so/2013.1/901 2013/11/27
 13 14  0  0  0  0  0  0  0  0999 V2000
    6.5826   44.5965   70.8982 N   0  0  0  0  0  0  0  0  0  0  0  0
    8.6778   44.4400   69.9187 N   0  0  0  0  0  0  0  0  0  0  0  0
    7.4391   43.9506   70.1121 C   0  0  0  0  0  0  0  0  0  0  0  0
    7.0477   42.7592   69.5028 N   0  0  0  0  0  0  0  0  0  0  0  0
    7.9647   42.0988   68.6825 C   0  0  0  0  0  0  0  0  0  0  0  0
    9.2340   42.6335   68.4875 C   0  0  0  0  0  0  0  0  0  0  0  0
    7.6507   41.0414   68.1373 O   0  0  0  0  0  0  0  0  0  0  0  0
   10.1719   41.9453   67.6945 N   0  0  0  0  0  0  0  0  0  0  0  0
   11.5280   42.4926   67.4066 C   0  0  2  0  0  0  0  0  0  0  0  0
   11.9658   43.3976   68.5708 C   0  0  0  0  0  0  0  0  0  0  0  0
    9.5752   43.8101   69.1393 C   0  0  0  0  0  0  0  0  0  0  0  0
   10.8603   44.3375   68.9645 N   0  0  0  0  0  0  0  0  0  0  0  0
   11.4596   43.3218   66.0893 C   0  0  0  0  0  0  0  0  0  0  0  0
  1  3  1  0  0  0  0
  2  3  2  0  0  0  0
  2 11  1  0  0  0  0
  3  4  1  0  0  0  0
  4  5  1  0  0  0  0
  5  6  1  0  0  0  0
  5  7  2  0  0  0  0
  6  8  1  0  0  0  0
  6 11  2  0  0  0  0
  8  9  1  0  0  0  0
  9 10  1  0  0  0  0
  9 13  1  6  0  0  0
 10 12  1  0  0  0  0
 11 12  1  0  0  0  0
M  END
>  <CHROM.1>
9.25653325,43.12213030,68.70736007,-2.72601357,-0.38881580,-2.48371062

>  <Name>
ligand

>  <RI>
0

>  <Rbt.Current_Directory>
/home/itssahil/PROJECTS/Mol_Feturizer/New_Systems/rnas/3SUX

>  <Rbt.Executable>
rbdock ($Id: //depot/dev/client3/rdock/2013.1/src/exe/rbdock.cxx#4 $)

>  <Rbt.Library>
libRbt.so (2013.1, Build901 2013/11/27)

>  <Rbt.Parameter_File>
/export/apps/rDock/src/rDock_2013.1_src/data/scripts/dock_solv.prm

>  <Rbt.Receptor>
prm/pocket_docking_3.prm

>  <SCORE>
-7.79325

>  <SCORE.INTER>
-7.79325

>  <SCORE.INTER.CONST>
1

>  <SCORE.INTER.POLAR>
0

>  <SCORE.INTER.ROT>
0

>  <SCORE.INTER.SOLV>
13.4082

>  <SCORE.INTER.VDW>
-13.2649

>  <SCORE.INTER.norm>
-0.59948

>  <SCORE.INTRA>
0

>  <SCORE.INTRA.DIHEDRAL>
0

>  <SCORE.INTRA.DIHEDRAL.0>
0

>  <SCORE.INTRA.POLAR>
0

>  <SCORE.INTRA.POLAR.0>
0

>  <SCORE.INTRA.REPUL>
0

>  <SCORE.INTRA.REPUL.0>
0

>  <SCORE.INTRA.SOLV>
0

>  <SCORE.INTRA.SOLV.lig_0>
-48.6608

>  <SCORE.INTRA.VDW>
0

>  <SCORE.INTRA.VDW.0>
0

>  <SCORE.INTRA.norm>
0

>  <SCORE.RESTR>
0

>  <SCORE.RESTR.CAVITY>
0

>  <SCORE.RESTR.norm>
0

>  <SCORE.SYSTEM>
0

>  <SCORE.SYSTEM.CONST>
0

>  <SCORE.SYSTEM.DIHEDRAL>
0

>  <SCORE.SYSTEM.SOLV>
0

>  <SCORE.SYSTEM.norm>
0

>  <SCORE.heavy>
13

>  <SCORE.norm>
-0.59948

>  <RMSD>
4.853

$$$$
ligand
 OpenBabel11021811483D
libRbt.so/2013.1/901 2013/11/27
 13 14  0  0  0  0  0  0  0  0999 V2000
    7.6198   38.1143   71.7112 N   0  0  0  0  0  0  0  0  0  0  0  0
    7.8803   40.0327   70.4363 N   0  0  0  0  0  0  0  0  0  0  0  0
    8.4129   39.0026   71.1192 C   0  0  0  0  0  0  0  0  0  0  0  0
    9.7964   38.8647   71.2233 N   0  0  0  0  0  0  0  0  0  0  0  0
   10.6086   39.8102   70.5938 C   0  0  0  0  0  0  0  0  0  0  0  0
   10.0328   40.8575   69.8819 C   0  0  0  0  0  0  0  0  0  0  0  0
   11.8330   39.7191   70.6743 O   0  0  0  0  0  0  0  0  0  0  0  0
   10.8517   41.8339   69.2834 N   0  0  0  0  0  0  0  0  0  0  0  0
   10.2962   42.9489   68.4650 C   0  0  2  0  0  0  0  0  0  0  0  0
    8.8763   43.2780   68.9561 C   0  0  0  0  0  0  0  0  0  0  0  0
    8.6496   40.9568   69.8332 C   0  0  0  0  0  0  0  0  0  0  0  0
    8.0674   42.0236   69.1380 N   0  0  0  0  0  0  0  0  0  0  0  0
   10.2485   42.4954   66.9752 C   0  0  0  0  0  0  0  0  0  0  0  0
  1  3  1  0  0  0  0
  2  3  2  0  0  0  0
  2 11  1  0  0  0  0
  3  4  1  0  0  0  0
  4  5  1  0  0  0  0
  5  6  1  0  0  0  0
  5  7  2  0  0  0  0
  6  8  1  0  0  0  0
  6 11  2  0  0  0  0
  8  9  1  0  0  0  0
  9 10  1  0  0  0  0
  9 13  1  6  0  0  0
 10 12  1  0  0  0  0
 11 12  1  0  0  0  0
M  END
>  <CHROM.1>
9.50362547,40.77827532,69.84639868,1.77737617,-0.05829087,2.48959365

>  <Name>
ligand

>  <RI>
0

>  <Rbt.Current_Directory>
/home/itssahil/PROJECTS/Mol_Feturizer/New_Systems/rnas/3SUX

>  <Rbt.Executable>
rbdock ($Id: //depot/dev/client3/rdock/2013.1/src/exe/rbdock.cxx#4 $)

>  <Rbt.Library>
libRbt.so (2013.1, Build901 2013/11/27)

>  <Rbt.Parameter_File>
/export/apps/rDock/src/rDock_2013.1_src/data/scripts/dock_solv.prm

>  <Rbt.Receptor>
prm/pocket_docking_5.prm

>  <SCORE>
-6.35917

>  <SCORE.INTER>
-6.35917

>  <SCORE.INTER.CONST>
1

>  <SCORE.INTER.POLAR>
0

>  <SCORE.INTER.ROT>
0

>  <SCORE.INTER.SOLV>
8.76232

>  <SCORE.INTER.VDW>
-10.7602

>  <SCORE.INTER.norm>
-0.489167

>  <SCORE.INTRA>
0

>  <SCORE.INTRA.DIHEDRAL>
0

>  <SCORE.INTRA.DIHEDRAL.0>
0

>  <SCORE.INTRA.POLAR>
0

>  <SCORE.INTRA.POLAR.0>
0

>  <SCORE.INTRA.REPUL>
0

>  <SCORE.INTRA.REPUL.0>
0

>  <SCORE.INTRA.SOLV>
0

>  <SCORE.INTRA.SOLV.lig_0>
-48.6608

>  <SCORE.INTRA.VDW>
0

>  <SCORE.INTRA.VDW.0>
0

>  <SCORE.INTRA.norm>
0

>  <SCORE.RESTR>
0

>  <SCORE.RESTR.CAVITY>
0

>  <SCORE.RESTR.norm>
0

>  <SCORE.SYSTEM>
0

>  <SCORE.SYSTEM.CONST>
0

>  <SCORE.SYSTEM.DIHEDRAL>
0

>  <SCORE.SYSTEM.SOLV>
0

>  <SCORE.SYSTEM.norm>
0

>  <SCORE.heavy>
13

>  <SCORE.norm>
-0.489167

>  <RMSD>
5.101

$$$$
ligand
 OpenBabel11021811483D
libRbt.so/2013.1/901 2013/11/27
 13 14  0  0  0  0  0  0  0  0999 V2000
   12.5387   38.5385   71.7459 N   0  0  0  0  0  0  0  0  0  0  0  0
   11.4696   40.1139   70.4235 N   0  0  0  0  0  0  0  0  0  0  0  0
   11.4197   39.0345   71.2257 C   0  0  0  0  0  0  0  0  0  0  0  0
   10.2003   38.4201   71.5076 N   0  0  0  0  0  0  0  0  0  0  0  0
    9.0392   38.9586   70.9493 C   0  0  0  0  0  0  0  0  0  0  0  0
    9.1165   40.0838   70.1350 C   0  0  0  0  0  0  0  0  0  0  0  0
    7.9492   38.4337   71.1738 O   0  0  0  0  0  0  0  0  0  0  0  0
    7.9507   40.6006   69.5384 N   0  0  0  0  0  0  0  0  0  0  0  0
    7.9623   41.8326   68.6996 C   0  0  2  0  0  0  0  0  0  0  0  0
    9.3413   41.9784   68.0342 C   0  0  0  0  0  0  0  0  0  0  0  0
   10.3609   40.6379   69.8705 C   0  0  0  0  0  0  0  0  0  0  0  0
   10.4444   41.7556   69.0314 N   0  0  0  0  0  0  0  0  0  0  0  0
    7.6857   43.0609   69.6174 C   0  0  0  0  0  0  0  0  0  0  0  0
  1  3  1  0  0  0  0
  2  3  2  0  0  0  0
  2 11  1  0  0  0  0
  3  4  1  0  0  0  0
  4  5  1  0  0  0  0
  5  6  1  0  0  0  0
  5  7  2  0  0  0  0
  6  8  1  0  0  0  0
  6 11  2  0  0  0  0
  8  9  1  0  0  0  0
  9 10  1  0  0  0  0
  9 13  1  1  0  0  0
 10 12  1  0  0  0  0
 11 12  1  0  0  0  0
M  END
>  <CHROM.1>
9.61585268,40.27890440,70.14863328,-0.98980762,-0.02958412,-0.60224971

>  <Name>
ligand

>  <RI>
0

>  <Rbt.Current_Directory>
/home/itssahil/PROJECTS/Mol_Feturizer/New_Systems/rnas/3SUX

>  <Rbt.Executable>
rbdock ($Id: //depot/dev/client3/rdock/2013.1/src/exe/rbdock.cxx#4 $)

>  <Rbt.Library>
libRbt.so (2013.1, Build901 2013/11/27)

>  <Rbt.Parameter_File>
/export/apps/rDock/src/rDock_2013.1_src/data/scripts/dock_solv.prm

>  <Rbt.Receptor>
prm/pocket_docking_8.prm

>  <SCORE>
-7.1061

>  <SCORE.INTER>
-7.1061

>  <SCORE.INTER.CONST>
1

>  <SCORE.INTER.POLAR>
0

>  <SCORE.INTER.ROT>
0

>  <SCORE.INTER.SOLV>
7.68353

>  <SCORE.INTER.VDW>
-10.8986

>  <SCORE.INTER.norm>
-0.546623

>  <SCORE.INTRA>
0

>  <SCORE.INTRA.DIHEDRAL>
0

>  <SCORE.INTRA.DIHEDRAL.0>
0

>  <SCORE.INTRA.POLAR>
0

>  <SCORE.INTRA.POLAR.0>
0

>  <SCORE.INTRA.REPUL>
0

>  <SCORE.INTRA.REPUL.0>
0

>  <SCORE.INTRA.SOLV>
0

>  <SCORE.INTRA.SOLV.lig_0>
-48.6608

>  <SCORE.INTRA.VDW>
0

>  <SCORE.INTRA.VDW.0>
0

>  <SCORE.INTRA.norm>
0

>  <SCORE.RESTR>
0

>  <SCORE.RESTR.CAVITY>
0

>  <SCORE.RESTR.norm>
0

>  <SCORE.SYSTEM>
0

>  <SCORE.SYSTEM.CONST>
0

>  <SCORE.SYSTEM.DIHEDRAL>
0

>  <SCORE.SYSTEM.SOLV>
0

>  <SCORE.SYSTEM.norm>
0

>  <SCORE.heavy>
13

>  <SCORE.norm>
-0.546623

>  <RMSD>
5.125

$$$$
ligand
 OpenBabel11021811483D
libRbt.so/2013.1/901 2013/11/27
 13 14  0  0  0  0  0  0  0  0999 V2000
   12.6145   38.5920   71.7776 N   0  0  0  0  0  0  0  0  0  0  0  0
   11.5070   40.1367   70.4505 N   0  0  0  0  0  0  0  0  0  0  0  0
   11.4845   39.0548   71.2507 C   0  0  0  0  0  0  0  0  0  0  0  0
   10.2824   38.4032   71.5233 N   0  0  0  0  0  0  0  0  0  0  0  0
    9.1093   38.9073   70.9580 C   0  0  0  0  0  0  0  0  0  0  0  0
    9.1579   40.0358   70.1461 C   0  0  0  0  0  0  0  0  0  0  0  0
    8.0342   38.3492   71.1742 O   0  0  0  0  0  0  0  0  0  0  0  0
    7.9810   40.5181   69.5424 N   0  0  0  0  0  0  0  0  0  0  0  0
    7.9608   41.7514   68.7057 C   0  0  2  0  0  0  0  0  0  0  0  0
    9.3392   41.9402   68.0499 C   0  0  0  0  0  0  0  0  0  0  0  0
   10.3867   40.6279   69.8908 C   0  0  0  0  0  0  0  0  0  0  0  0
   10.4418   41.7491   69.0542 N   0  0  0  0  0  0  0  0  0  0  0  0
    7.6409   42.9691   69.6236 C   0  0  0  0  0  0  0  0  0  0  0  0
  1  3  1  0  0  0  0
  2  3  2  0  0  0  0
  2 11  1  0  0  0  0
  3  4  1  0  0  0  0
  4  5  1  0  0  0  0
  5  6  1  0  0  0  0
  5  7  2  0  0  0  0
  6  8  1  0  0  0  0
  6 11  2  0  0  0  0
  8  9  1  0  0  0  0
  9 10  1  0  0  0  0
  9 13  1  1  0  0  0
 10 12  1  0  0  0  0
 11 12  1  0  0  0  0
M  END
>  <CHROM.1>
9.65098025,40.24592172,70.16339287,-0.96857585,-0.05230834,-0.59966769

>  <Name>
ligand

>  <RI>
0

>  <Rbt.Current_Directory>
/home/itssahil/PROJECTS/Mol_Feturizer/New_Systems/rnas/3SUX

>  <Rbt.Executable>
rbdock ($Id: //depot/dev/client3/rdock/2013.1/src/exe/rbdock.cxx#4 $)

>  <Rbt.Library>
libRbt.so (2013.1, Build901 2013/11/27)

>  <Rbt.Parameter_File>
/export/apps/rDock/src/rDock_2013.1_src/data/scripts/dock_solv.prm

>  <Rbt.Receptor>
prm/pocket_docking_7.prm

>  <SCORE>
-7.08048

>  <SCORE.INTER>
-7.08048

>  <SCORE.INTER.CONST>
1

>  <SCORE.INTER.POLAR>
0

>  <SCORE.INTER.ROT>
0

>  <SCORE.INTER.SOLV>
7.72912

>  <SCORE.INTER.VDW>
-10.8967

>  <SCORE.INTER.norm>
-0.544652

>  <SCORE.INTRA>
0

>  <SCORE.INTRA.DIHEDRAL>
0

>  <SCORE.INTRA.DIHEDRAL.0>
0

>  <SCORE.INTRA.POLAR>
0

>  <SCORE.INTRA.POLAR.0>
0

>  <SCORE.INTRA.REPUL>
0

>  <SCORE.INTRA.REPUL.0>
0

>  <SCORE.INTRA.SOLV>
0

>  <SCORE.INTRA.SOLV.lig_0>
-48.6608

>  <SCORE.INTRA.VDW>
0

>  <SCORE.INTRA.VDW.0>
0

>  <SCORE.INTRA.norm>
0

>  <SCORE.RESTR>
0

>  <SCORE.RESTR.CAVITY>
0

>  <SCORE.RESTR.norm>
0

>  <SCORE.SYSTEM>
0

>  <SCORE.SYSTEM.CONST>
0

>  <SCORE.SYSTEM.DIHEDRAL>
0

>  <SCORE.SYSTEM.SOLV>
0

>  <SCORE.SYSTEM.norm>
0

>  <SCORE.heavy>
13

>  <SCORE.norm>
-0.544652

>  <RMSD>
5.131

$$$$
ligand
 OpenBabel11021811483D
libRbt.so/2013.1/901 2013/11/27
 13 14  0  0  0  0  0  0  0  0999 V2000
    7.3578   38.1667   71.6663 N   0  0  0  0  0  0  0  0  0  0  0  0
    7.7009   40.1051   70.4422 N   0  0  0  0  0  0  0  0  0  0  0  0
    8.1887   39.0378   71.1012 C   0  0  0  0  0  0  0  0  0  0  0  0
    9.5651   38.8431   71.2087 N   0  0  0  0  0  0  0  0  0  0  0  0
   10.4174   39.7716   70.6078 C   0  0  0  0  0  0  0  0  0  0  0  0
    9.8874   40.8584   69.9200 C   0  0  0  0  0  0  0  0  0  0  0  0
   11.6369   39.6305   70.6921 O   0  0  0  0  0  0  0  0  0  0  0  0
   10.7475   41.8168   69.3508 N   0  0  0  0  0  0  0  0  0  0  0  0
   10.2411   42.9732   68.5584 C   0  0  2  0  0  0  0  0  0  0  0  0
    8.8322   43.3452   69.0506 C   0  0  0  0  0  0  0  0  0  0  0  0
    8.5095   41.0133   69.8668 C   0  0  0  0  0  0  0  0  0  0  0  0
    7.9738   42.1194   69.1963 N   0  0  0  0  0  0  0  0  0  0  0  0
   10.1846   42.5599   67.0572 C   0  0  0  0  0  0  0  0  0  0  0  0
  1  3  1  0  0  0  0
  2  3  2  0  0  0  0
  2 11  1  0  0  0  0
  3  4  1  0  0  0  0
  4  5  1  0  0  0  0
  5  6  1  0  0  0  0
  5  7  2  0  0  0  0
  6  8  1  0  0  0  0
  6 11  2  0  0  0  0
  8  9  1  0  0  0  0
  9 10  1  0  0  0  0
  9 13  1  6  0  0  0
 10 12  1  0  0  0  0
 11 12  1  0  0  0  0
M  END
>  <CHROM.1>
9.35576671,40.80103826,69.87977871,1.81228209,-0.07719908,2.51744651

>  <Name>
ligand

>  <RI>
0

>  <Rbt.Current_Directory>
/home/itssahil/PROJECTS/Mol_Feturizer/New_Systems/rnas/3SUX

>  <Rbt.Executable>
rbdock ($Id: //depot/dev/client3/rdock/2013.1/src/exe/rbdock.cxx#4 $)

>  <Rbt.Library>
libRbt.so (2013.1, Build901 2013/11/27)

>  <Rbt.Parameter_File>
/export/apps/rDock/src/rDock_2013.1_src/data/scripts/dock_solv.prm

>  <Rbt.Receptor>
prm/pocket_docking_7.prm

>  <SCORE>
-6.32583

>  <SCORE.INTER>
-6.32583

>  <SCORE.INTER.CONST>
1

>  <SCORE.INTER.POLAR>
0

>  <SCORE.INTER.ROT>
0

>  <SCORE.INTER.SOLV>
9.36687

>  <SCORE.INTER.VDW>
-10.9395

>  <SCORE.INTER.norm>
-0.486602

>  <SCORE.INTRA>
0

>  <SCORE.INTRA.DIHEDRAL>
0

>  <SCORE.INTRA.DIHEDRAL.0>
0

>  <SCORE.INTRA.POLAR>
0

>  <SCORE.INTRA.POLAR.0>
0

>  <SCORE.INTRA.REPUL>
0

>  <SCORE.INTRA.REPUL.0>
0

>  <SCORE.INTRA.SOLV>
0

>  <SCORE.INTRA.SOLV.lig_0>
-48.6608

>  <SCORE.INTRA.VDW>
0

>  <SCORE.INTRA.VDW.0>
0

>  <SCORE.INTRA.norm>
0

>  <SCORE.RESTR>
0

>  <SCORE.RESTR.CAVITY>
0

>  <SCORE.RESTR.norm>
0

>  <SCORE.SYSTEM>
0

>  <SCORE.SYSTEM.CONST>
0

>  <SCORE.SYSTEM.DIHEDRAL>
0

>  <SCORE.SYSTEM.SOLV>
0

>  <SCORE.SYSTEM.norm>
0

>  <SCORE.heavy>
13

>  <SCORE.norm>
-0.486602

>  <RMSD>
5.157

$$$$
ligand
 OpenBabel11021811483D
libRbt.so/2013.1/901 2013/11/27
 13 14  0  0  0  0  0  0  0  0999 V2000
    7.4759   38.9846   72.0635 N   0  0  0  0  0  0  0  0  0  0  0  0
    8.8564   39.8454   70.4122 N   0  0  0  0  0  0  0  0  0  0  0  0
    7.7842   39.9629   71.2170 C   0  0  0  0  0  0  0  0  0  0  0  0
    6.9815   41.1016   71.1620 N   0  0  0  0  0  0  0  0  0  0  0  0
    7.3249   42.1149   70.2647 C   0  0  0  0  0  0  0  0  0  0  0  0
    8.4467   41.9750   69.4541 C   0  0  0  0  0  0  0  0  0  0  0  0
    6.6314   43.1284   70.1881 O   0  0  0  0  0  0  0  0  0  0  0  0
    8.7679   42.9782   68.5200 N   0  0  0  0  0  0  0  0  0  0  0  0
    9.9845   42.9095   67.6616 C   0  0  2  0  0  0  0  0  0  0  0  0
   10.3499   41.4352   67.4194 C   0  0  0  0  0  0  0  0  0  0  0  0
    9.1940   40.8087   69.5359 C   0  0  0  0  0  0  0  0  0  0  0  0
   10.3093   40.6545   68.7038 N   0  0  0  0  0  0  0  0  0  0  0  0
   11.1533   43.6298   68.3983 C   0  0  0  0  0  0  0  0  0  0  0  0
  1  3  1  0  0  0  0
  2  3  2  0  0  0  0
  2 11  1  0  0  0  0
  3  4  1  0  0  0  0
  4  5  1  0  0  0  0
  5  6  1  0  0  0  0
  5  7  2  0  0  0  0
  6  8  1  0  0  0  0
  6 11  2  0  0  0  0
  8  9  1  0  0  0  0
  9 10  1  0  0  0  0
  9 13  1  1  0  0  0
 10 12  1  0  0  0  0
 11 12  1  0  0  0  0
M  END
>  <CHROM.1>
8.71984464,41.53812339,69.60274967,-2.34513910,0.58858665,-0.44458528

>  <Name>
ligand

>  <RI>
0

>  <Rbt.Current_Directory>
/home/itssahil/PROJECTS/Mol_Feturizer/New_Systems/rnas/3SUX

>  <Rbt.Executable>
rbdock ($Id: //depot/dev/client3/rdock/2013.1/src/exe/rbdock.cxx#4 $)

>  <Rbt.Library>
libRbt.so (2013.1, Build901 2013/11/27)

>  <Rbt.Parameter_File>
/export/apps/rDock/src/rDock_2013.1_src/data/scripts/dock_solv.prm

>  <Rbt.Receptor>
prm/pocket_docking_4.prm

>  <SCORE>
-7.77259

>  <SCORE.INTER>
-7.77259

>  <SCORE.INTER.CONST>
1

>  <SCORE.INTER.POLAR>
0

>  <SCORE.INTER.ROT>
0

>  <SCORE.INTER.SOLV>
12.4207

>  <SCORE.INTER.VDW>
-12.9219

>  <SCORE.INTER.norm>
-0.597891

>  <SCORE.INTRA>
0

>  <SCORE.INTRA.DIHEDRAL>
0

>  <SCORE.INTRA.DIHEDRAL.0>
0

>  <SCORE.INTRA.POLAR>
0

>  <SCORE.INTRA.POLAR.0>
0

>  <SCORE.INTRA.REPUL>
0

>  <SCORE.INTRA.REPUL.0>
0

>  <SCORE.INTRA.SOLV>
0

>  <SCORE.INTRA.SOLV.lig_0>
-48.6608

>  <SCORE.INTRA.VDW>
0

>  <SCORE.INTRA.VDW.0>
0

>  <SCORE.INTRA.norm>
0

>  <SCORE.RESTR>
0

>  <SCORE.RESTR.CAVITY>
0

>  <SCORE.RESTR.norm>
0

>  <SCORE.SYSTEM>
0

>  <SCORE.SYSTEM.CONST>
0

>  <SCORE.SYSTEM.DIHEDRAL>
0

>  <SCORE.SYSTEM.SOLV>
0

>  <SCORE.SYSTEM.norm>
0

>  <SCORE.heavy>
13

>  <SCORE.norm>
-0.597891

>  <RMSD>
5.217

$$$$
ligand
 OpenBabel11021811483D
libRbt.so/2013.1/901 2013/11/27
 13 14  0  0  0  0  0  0  0  0999 V2000
    7.4912   38.9630   72.0570 N   0  0  0  0  0  0  0  0  0  0  0  0
    8.8500   39.8449   70.3989 N   0  0  0  0  0  0  0  0  0  0  0  0
    7.7884   39.9520   71.2191 C   0  0  0  0  0  0  0  0  0  0  0  0
    6.9852   41.0913   71.1890 N   0  0  0  0  0  0  0  0  0  0  0  0
    7.3169   42.1159   70.3003 C   0  0  0  0  0  0  0  0  0  0  0  0
    8.4280   41.9865   69.4734 C   0  0  0  0  0  0  0  0  0  0  0  0
    6.6224   43.1303   70.2456 O   0  0  0  0  0  0  0  0  0  0  0  0
    8.7370   43.0015   68.5480 N   0  0  0  0  0  0  0  0  0  0  0  0
    9.9422   42.9439   67.6730 C   0  0  2  0  0  0  0  0  0  0  0  0
   10.3044   41.4728   67.4074 C   0  0  0  0  0  0  0  0  0  0  0  0
    9.1762   40.8193   69.5306 C   0  0  0  0  0  0  0  0  0  0  0  0
   10.2805   40.6759   68.6821 N   0  0  0  0  0  0  0  0  0  0  0  0
   11.1206   43.6548   68.4035 C   0  0  0  0  0  0  0  0  0  0  0  0
  1  3  1  0  0  0  0
  2  3  2  0  0  0  0
  2 11  1  0  0  0  0
  3  4  1  0  0  0  0
  4  5  1  0  0  0  0
  5  6  1  0  0  0  0
  5  7  2  0  0  0  0
  6  8  1  0  0  0  0
  6 11  2  0  0  0  0
  8  9  1  0  0  0  0
  9 10  1  0  0  0  0
  9 13  1  1  0  0  0
 10 12  1  0  0  0  0
 11 12  1  0  0  0  0
M  END
>  <CHROM.1>
8.70299063,41.54776960,69.61290894,-2.33838652,0.60039460,-0.43565305

>  <Name>
ligand

>  <RI>
0

>  <Rbt.Current_Directory>
/home/itssahil/PROJECTS/Mol_Feturizer/New_Systems/rnas/3SUX

>  <Rbt.Executable>
rbdock ($Id: //depot/dev/client3/rdock/2013.1/src/exe/rbdock.cxx#4 $)

>  <Rbt.Library>
libRbt.so (2013.1, Build901 2013/11/27)

>  <Rbt.Parameter_File>
/export/apps/rDock/src/rDock_2013.1_src/data/scripts/dock_solv.prm

>  <Rbt.Receptor>
prm/pocket_docking_4.prm

>  <SCORE>
-7.77432

>  <SCORE.INTER>
-7.77432

>  <SCORE.INTER.CONST>
1

>  <SCORE.INTER.POLAR>
0

>  <SCORE.INTER.ROT>
0

>  <SCORE.INTER.SOLV>
12.3692

>  <SCORE.INTER.VDW>
-12.9059

>  <SCORE.INTER.norm>
-0.598024

>  <SCORE.INTRA>
0

>  <SCORE.INTRA.DIHEDRAL>
0

>  <SCORE.INTRA.DIHEDRAL.0>
0

>  <SCORE.INTRA.POLAR>
0

>  <SCORE.INTRA.POLAR.0>
0

>  <SCORE.INTRA.REPUL>
0

>  <SCORE.INTRA.REPUL.0>
0

>  <SCORE.INTRA.SOLV>
0

>  <SCORE.INTRA.SOLV.lig_0>
-48.6608

>  <SCORE.INTRA.VDW>
0

>  <SCORE.INTRA.VDW.0>
0

>  <SCORE.INTRA.norm>
0

>  <SCORE.RESTR>
0

>  <SCORE.RESTR.CAVITY>
0

>  <SCORE.RESTR.norm>
0

>  <SCORE.SYSTEM>
0

>  <SCORE.SYSTEM.CONST>
0

>  <SCORE.SYSTEM.DIHEDRAL>
0

>  <SCORE.SYSTEM.SOLV>
0

>  <SCORE.SYSTEM.norm>
0

>  <SCORE.heavy>
13

>  <SCORE.norm>
-0.598024

>  <RMSD>
5.220

$$$$
ligand
 OpenBabel11021811483D
libRbt.so/2013.1/901 2013/11/27
 13 14  0  0  0  0  0  0  0  0999 V2000
    7.4335   38.9936   72.0381 N   0  0  0  0  0  0  0  0  0  0  0  0
    8.8101   39.8438   70.3780 N   0  0  0  0  0  0  0  0  0  0  0  0
    7.7432   39.9690   71.1887 C   0  0  0  0  0  0  0  0  0  0  0  0
    6.9476   41.1128   71.1368 N   0  0  0  0  0  0  0  0  0  0  0  0
    7.2924   42.1228   70.2365 C   0  0  0  0  0  0  0  0  0  0  0  0
    8.4086   41.9749   69.4197 C   0  0  0  0  0  0  0  0  0  0  0  0
    6.6049   43.1407   70.1625 O   0  0  0  0  0  0  0  0  0  0  0  0
    8.7309   42.9749   68.4826 N   0  0  0  0  0  0  0  0  0  0  0  0
    9.9422   42.8975   67.6175 C   0  0  2  0  0  0  0  0  0  0  0  0
   10.2969   41.4206   67.3750 C   0  0  0  0  0  0  0  0  0  0  0  0
    9.1489   40.8038   69.4987 C   0  0  0  0  0  0  0  0  0  0  0  0
   10.2585   40.6417   68.6605 N   0  0  0  0  0  0  0  0  0  0  0  0
   11.1197   43.6111   68.3467 C   0  0  0  0  0  0  0  0  0  0  0  0
  1  3  1  0  0  0  0
  2  3  2  0  0  0  0
  2 11  1  0  0  0  0
  3  4  1  0  0  0  0
  4  5  1  0  0  0  0
  5  6  1  0  0  0  0
  5  7  2  0  0  0  0
  6  8  1  0  0  0  0
  6 11  2  0  0  0  0
  8  9  1  0  0  0  0
  9 10  1  0  0  0  0
  9 13  1  1  0  0  0
 10 12  1  0  0  0  0
 11 12  1  0  0  0  0
M  END
>  <CHROM.1>
8.67981654,41.53639451,69.56732394,-2.34916621,0.59641124,-0.44350380

>  <Name>
ligand

>  <RI>
0

>  <Rbt.Current_Directory>
/home/itssahil/PROJECTS/Mol_Feturizer/New_Systems/rnas/3SUX

>  <Rbt.Executable>
rbdock ($Id: //depot/dev/client3/rdock/2013.1/src/exe/rbdock.cxx#4 $)

>  <Rbt.Library>
libRbt.so (2013.1, Build901 2013/11/27)

>  <Rbt.Parameter_File>
/export/apps/rDock/src/rDock_2013.1_src/data/scripts/dock_solv.prm

>  <Rbt.Receptor>
prm/pocket_docking_4.prm

>  <SCORE>
-7.83568

>  <SCORE.INTER>
-7.84288

>  <SCORE.INTER.CONST>
1

>  <SCORE.INTER.POLAR>
0

>  <SCORE.INTER.ROT>
0

>  <SCORE.INTER.SOLV>
12.9719

>  <SCORE.INTER.VDW>
-13.1526

>  <SCORE.INTER.norm>
-0.603299

>  <SCORE.INTRA>
0

>  <SCORE.INTRA.DIHEDRAL>
0

>  <SCORE.INTRA.DIHEDRAL.0>
0

>  <SCORE.INTRA.POLAR>
0

>  <SCORE.INTRA.POLAR.0>
0

>  <SCORE.INTRA.REPUL>
0

>  <SCORE.INTRA.REPUL.0>
0

>  <SCORE.INTRA.SOLV>
0

>  <SCORE.INTRA.SOLV.lig_0>
-48.6608

>  <SCORE.INTRA.VDW>
0

>  <SCORE.INTRA.VDW.0>
0

>  <SCORE.INTRA.norm>
0

>  <SCORE.RESTR>
0.00719965

>  <SCORE.RESTR.CAVITY>
0.00719965

>  <SCORE.RESTR.norm>
0.000553819

>  <SCORE.SYSTEM>
0

>  <SCORE.SYSTEM.CONST>
0

>  <SCORE.SYSTEM.DIHEDRAL>
0

>  <SCORE.SYSTEM.SOLV>
0

>  <SCORE.SYSTEM.norm>
0

>  <SCORE.heavy>
13

>  <SCORE.norm>
-0.602745

>  <RMSD>
5.225

$$$$
ligand
 OpenBabel11021811483D
libRbt.so/2013.1/901 2013/11/27
 13 14  0  0  0  0  0  0  0  0999 V2000
    7.4986   38.9529   72.0543 N   0  0  0  0  0  0  0  0  0  0  0  0
    8.8697   39.8609   70.4206 N   0  0  0  0  0  0  0  0  0  0  0  0
    7.7891   39.9455   71.2182 C   0  0  0  0  0  0  0  0  0  0  0  0
    6.9594   41.0648   71.1665 N   0  0  0  0  0  0  0  0  0  0  0  0
    7.2845   42.0937   70.2802 C   0  0  0  0  0  0  0  0  0  0  0  0
    8.4153   41.9880   69.4770 C   0  0  0  0  0  0  0  0  0  0  0  0
    6.5670   43.0906   70.2067 O   0  0  0  0  0  0  0  0  0  0  0  0
    8.7188   43.0064   68.5536 N   0  0  0  0  0  0  0  0  0  0  0  0
    9.9429   42.9746   67.7039 C   0  0  2  0  0  0  0  0  0  0  0  0
   10.3460   41.5117   67.4523 C   0  0  0  0  0  0  0  0  0  0  0  0
    9.1901   40.8394   69.5548 C   0  0  0  0  0  0  0  0  0  0  0  0
   10.3150   40.7195   68.7299 N   0  0  0  0  0  0  0  0  0  0  0  0
   11.0884   43.7168   68.4552 C   0  0  0  0  0  0  0  0  0  0  0  0
  1  3  1  0  0  0  0
  2  3  2  0  0  0  0
  2 11  1  0  0  0  0
  3  4  1  0  0  0  0
  4  5  1  0  0  0  0
  5  6  1  0  0  0  0
  5  7  2  0  0  0  0
  6  8  1  0  0  0  0
  6 11  2  0  0  0  0
  8  9  1  0  0  0  0
  9 10  1  0  0  0  0
  9 13  1  1  0  0  0
 10 12  1  0  0  0  0
 11 12  1  0  0  0  0
M  END
>  <CHROM.1>
8.69789037,41.55656421,69.62406285,-2.32272071,0.57136268,-0.44855932

>  <Name>
ligand

>  <RI>
0

>  <Rbt.Current_Directory>
/home/itssahil/PROJECTS/Mol_Feturizer/New_Systems/rnas/3SUX

>  <Rbt.Executable>
rbdock ($Id: //depot/dev/client3/rdock/2013.1/src/exe/rbdock.cxx#4 $)

>  <Rbt.Library>
libRbt.so (2013.1, Build901 2013/11/27)

>  <Rbt.Parameter_File>
/export/apps/rDock/src/rDock_2013.1_src/data/scripts/dock_solv.prm

>  <Rbt.Receptor>
prm/pocket_docking_4.prm

>  <SCORE>
-7.80044

>  <SCORE.INTER>
-7.80044

>  <SCORE.INTER.CONST>
1

>  <SCORE.INTER.POLAR>
0

>  <SCORE.INTER.ROT>
0

>  <SCORE.INTER.SOLV>
12.2611

>  <SCORE.INTER.VDW>
-12.8873

>  <SCORE.INTER.norm>
-0.600034

>  <SCORE.INTRA>
0

>  <SCORE.INTRA.DIHEDRAL>
0

>  <SCORE.INTRA.DIHEDRAL.0>
0

>  <SCORE.INTRA.POLAR>
0

>  <SCORE.INTRA.POLAR.0>
0

>  <SCORE.INTRA.REPUL>
0

>  <SCORE.INTRA.REPUL.0>
0

>  <SCORE.INTRA.SOLV>
0

>  <SCORE.INTRA.SOLV.lig_0>
-48.6608

>  <SCORE.INTRA.VDW>
0

>  <SCORE.INTRA.VDW.0>
0

>  <SCORE.INTRA.norm>
0

>  <SCORE.RESTR>
0

>  <SCORE.RESTR.CAVITY>
0

>  <SCORE.RESTR.norm>
0

>  <SCORE.SYSTEM>
0

>  <SCORE.SYSTEM.CONST>
0

>  <SCORE.SYSTEM.DIHEDRAL>
0

>  <SCORE.SYSTEM.SOLV>
0

>  <SCORE.SYSTEM.norm>
0

>  <SCORE.heavy>
13

>  <SCORE.norm>
-0.600034

>  <RMSD>
5.228

$$$$
ligand
 OpenBabel11021811483D
libRbt.so/2013.1/901 2013/11/27
 13 14  0  0  0  0  0  0  0  0999 V2000
    7.4664   38.9941   72.0636 N   0  0  0  0  0  0  0  0  0  0  0  0
    8.8187   39.8587   70.3911 N   0  0  0  0  0  0  0  0  0  0  0  0
    7.7605   39.9745   71.2146 C   0  0  0  0  0  0  0  0  0  0  0  0
    6.9577   41.1138   71.1764 N   0  0  0  0  0  0  0  0  0  0  0  0
    7.2861   42.1293   70.2761 C   0  0  0  0  0  0  0  0  0  0  0  0
    8.3936   41.9911   69.4459 C   0  0  0  0  0  0  0  0  0  0  0  0
    6.5918   43.1434   70.2141 O   0  0  0  0  0  0  0  0  0  0  0  0
    8.6992   42.9966   68.5091 N   0  0  0  0  0  0  0  0  0  0  0  0
    9.9008   42.9297   67.6297 C   0  0  2  0  0  0  0  0  0  0  0  0
   10.2613   41.4558   67.3773 C   0  0  0  0  0  0  0  0  0  0  0  0
    9.1416   40.8241   69.5117 C   0  0  0  0  0  0  0  0  0  0  0  0
   10.2424   40.6717   68.6601 N   0  0  0  0  0  0  0  0  0  0  0  0
   11.0825   43.6474   68.3481 C   0  0  0  0  0  0  0  0  0  0  0  0
  1  3  1  0  0  0  0
  2  3  2  0  0  0  0
  2 11  1  0  0  0  0
  3  4  1  0  0  0  0
  4  5  1  0  0  0  0
  5  6  1  0  0  0  0
  5  7  2  0  0  0  0
  6  8  1  0  0  0  0
  6 11  2  0  0  0  0
  8  9  1  0  0  0  0
  9 10  1  0  0  0  0
  9 13  1  1  0  0  0
 10 12  1  0  0  0  0
 11 12  1  0  0  0  0
M  END
>  <CHROM.1>
8.66906962,41.55364931,69.58864269,-2.33670111,0.60434459,-0.44664774

>  <Name>
ligand

>  <RI>
0

>  <Rbt.Current_Directory>
/home/itssahil/PROJECTS/Mol_Feturizer/New_Systems/rnas/3SUX

>  <Rbt.Executable>
rbdock ($Id: //depot/dev/client3/rdock/2013.1/src/exe/rbdock.cxx#4 $)

>  <Rbt.Library>
libRbt.so (2013.1, Build901 2013/11/27)

>  <Rbt.Parameter_File>
/export/apps/rDock/src/rDock_2013.1_src/data/scripts/dock_solv.prm

>  <Rbt.Receptor>
prm/pocket_docking_4.prm

>  <SCORE>
-7.839

>  <SCORE.INTER>
-7.83901

>  <SCORE.INTER.CONST>
1

>  <SCORE.INTER.POLAR>
0

>  <SCORE.INTER.ROT>
0

>  <SCORE.INTER.SOLV>
12.6636

>  <SCORE.INTER.VDW>
-13.0472

>  <SCORE.INTER.norm>
-0.603

>  <SCORE.INTRA>
0

>  <SCORE.INTRA.DIHEDRAL>
0

>  <SCORE.INTRA.DIHEDRAL.0>
0

>  <SCORE.INTRA.POLAR>
0

>  <SCORE.INTRA.POLAR.0>
0

>  <SCORE.INTRA.REPUL>
0

>  <SCORE.INTRA.REPUL.0>
0

>  <SCORE.INTRA.SOLV>
0

>  <SCORE.INTRA.SOLV.lig_0>
-48.6608

>  <SCORE.INTRA.VDW>
0

>  <SCORE.INTRA.VDW.0>
0

>  <SCORE.INTRA.norm>
0

>  <SCORE.RESTR>
1.03249e-05

>  <SCORE.RESTR.CAVITY>
1.03249e-05

>  <SCORE.RESTR.norm>
7.94222e-07

>  <SCORE.SYSTEM>
0

>  <SCORE.SYSTEM.CONST>
0

>  <SCORE.SYSTEM.DIHEDRAL>
0

>  <SCORE.SYSTEM.SOLV>
0

>  <SCORE.SYSTEM.norm>
0

>  <SCORE.heavy>
13

>  <SCORE.norm>
-0.603

>  <RMSD>
5.228

$$$$
ligand
 OpenBabel11021811483D
libRbt.so/2013.1/901 2013/11/27
 13 14  0  0  0  0  0  0  0  0999 V2000
    7.4742   38.9833   72.0604 N   0  0  0  0  0  0  0  0  0  0  0  0
    8.8256   39.8473   70.3868 N   0  0  0  0  0  0  0  0  0  0  0  0
    7.7671   39.9628   71.2098 C   0  0  0  0  0  0  0  0  0  0  0  0
    6.9625   41.1008   71.1696 N   0  0  0  0  0  0  0  0  0  0  0  0
    7.2897   42.1154   70.2678 C   0  0  0  0  0  0  0  0  0  0  0  0
    8.3977   41.9775   69.4381 C   0  0  0  0  0  0  0  0  0  0  0  0
    6.5939   43.1283   70.2040 O   0  0  0  0  0  0  0  0  0  0  0  0
    8.7020   42.9820   68.4997 N   0  0  0  0  0  0  0  0  0  0  0  0
    9.9039   42.9154   67.6208 C   0  0  2  0  0  0  0  0  0  0  0  0
   10.2666   41.4417   67.3709 C   0  0  0  0  0  0  0  0  0  0  0  0
    9.1473   40.8118   69.5060 C   0  0  0  0  0  0  0  0  0  0  0  0
   10.2485   40.6596   68.6549 N   0  0  0  0  0  0  0  0  0  0  0  0
   11.0844   43.6360   68.3383 C   0  0  0  0  0  0  0  0  0  0  0  0
  1  3  1  0  0  0  0
  2  3  2  0  0  0  0
  2 11  1  0  0  0  0
  3  4  1  0  0  0  0
  4  5  1  0  0  0  0
  5  6  1  0  0  0  0
  5  7  2  0  0  0  0
  6  8  1  0  0  0  0
  6 11  2  0  0  0  0
  8  9  1  0  0  0  0
  9 10  1  0  0  0  0
  9 13  1  1  0  0  0
 10 12  1  0  0  0  0
 11 12  1  0  0  0  0
M  END
>  <CHROM.1>
8.67369840,41.54069827,69.58162313,-2.33521789,0.60346654,-0.44908813

>  <Name>
ligand

>  <RI>
0

>  <Rbt.Current_Directory>
/home/itssahil/PROJECTS/Mol_Feturizer/New_Systems/rnas/3SUX

>  <Rbt.Executable>
rbdock ($Id: //depot/dev/client3/rdock/2013.1/src/exe/rbdock.cxx#4 $)

>  <Rbt.Library>
libRbt.so (2013.1, Build901 2013/11/27)

>  <Rbt.Parameter_File>
/export/apps/rDock/src/rDock_2013.1_src/data/scripts/dock_solv.prm

>  <Rbt.Receptor>
prm/pocket_docking_4.prm

>  <SCORE>
-7.8361

>  <SCORE.INTER>
-7.8361

>  <SCORE.INTER.CONST>
1

>  <SCORE.INTER.POLAR>
0

>  <SCORE.INTER.ROT>
0

>  <SCORE.INTER.SOLV>
12.717

>  <SCORE.INTER.VDW>
-13.0631

>  <SCORE.INTER.norm>
-0.602777

>  <SCORE.INTRA>
0

>  <SCORE.INTRA.DIHEDRAL>
0

>  <SCORE.INTRA.DIHEDRAL.0>
0

>  <SCORE.INTRA.POLAR>
0

>  <SCORE.INTRA.POLAR.0>
0

>  <SCORE.INTRA.REPUL>
0

>  <SCORE.INTRA.REPUL.0>
0

>  <SCORE.INTRA.SOLV>
0

>  <SCORE.INTRA.SOLV.lig_0>
-48.6608

>  <SCORE.INTRA.VDW>
0

>  <SCORE.INTRA.VDW.0>
0

>  <SCORE.INTRA.norm>
0

>  <SCORE.RESTR>
0

>  <SCORE.RESTR.CAVITY>
0

>  <SCORE.RESTR.norm>
0

>  <SCORE.SYSTEM>
0

>  <SCORE.SYSTEM.CONST>
0

>  <SCORE.SYSTEM.DIHEDRAL>
0

>  <SCORE.SYSTEM.SOLV>
0

>  <SCORE.SYSTEM.norm>
0

>  <SCORE.heavy>
13

>  <SCORE.norm>
-0.602777

>  <RMSD>
5.228

$$$$
ligand
 OpenBabel11021811483D
libRbt.so/2013.1/901 2013/11/27
 13 14  0  0  0  0  0  0  0  0999 V2000
    5.5709   44.2443   72.7094 N   0  0  0  0  0  0  0  0  0  0  0  0
    6.6874   42.8042   71.2765 N   0  0  0  0  0  0  0  0  0  0  0  0
    6.3708   44.0535   71.6642 C   0  0  0  0  0  0  0  0  0  0  0  0
    6.8659   45.1554   70.9681 N   0  0  0  0  0  0  0  0  0  0  0  0
    7.7032   44.9297   69.8737 C   0  0  0  0  0  0  0  0  0  0  0  0
    8.0268   43.6287   69.5025 C   0  0  0  0  0  0  0  0  0  0  0  0
    8.1496   45.8822   69.2351 O   0  0  0  0  0  0  0  0  0  0  0  0
    8.8365   43.4011   68.3735 N   0  0  0  0  0  0  0  0  0  0  0  0
    9.2597   42.0339   67.9573 C   0  0  2  0  0  0  0  0  0  0  0  0
    8.1960   41.0171   68.4051 C   0  0  0  0  0  0  0  0  0  0  0  0
    7.4846   42.5709   70.2184 C   0  0  0  0  0  0  0  0  0  0  0  0
    7.7888   41.2600   69.8319 N   0  0  0  0  0  0  0  0  0  0  0  0
   10.6227   41.7073   68.6378 C   0  0  0  0  0  0  0  0  0  0  0  0
  1  3  1  0  0  0  0
  2  3  2  0  0  0  0
  2 11  1  0  0  0  0
  3  4  1  0  0  0  0
  4  5  1  0  0  0  0
  5  6  1  0  0  0  0
  5  7  2  0  0  0  0
  6  8  1  0  0  0  0
  6 11  2  0  0  0  0
  8  9  1  0  0  0  0
  9 10  1  0  0  0  0
  9 13  1  1  0  0  0
 10 12  1  0  0  0  0
 11 12  1  0  0  0  0
M  END
>  <CHROM.1>
7.84353727,43.28747055,69.87333885,2.59037136,0.83315465,-0.02948290

>  <Name>
ligand

>  <RI>
0

>  <Rbt.Current_Directory>
/home/itssahil/PROJECTS/Mol_Feturizer/New_Systems/rnas/3SUX

>  <Rbt.Executable>
rbdock ($Id: //depot/dev/client3/rdock/2013.1/src/exe/rbdock.cxx#4 $)

>  <Rbt.Library>
libRbt.so (2013.1, Build901 2013/11/27)

>  <Rbt.Parameter_File>
/export/apps/rDock/src/rDock_2013.1_src/data/scripts/dock_solv.prm

>  <Rbt.Receptor>
prm/pocket_docking_5.prm

>  <SCORE>
-6.48297

>  <SCORE.INTER>
-6.48297

>  <SCORE.INTER.CONST>
1

>  <SCORE.INTER.POLAR>
0

>  <SCORE.INTER.ROT>
0

>  <SCORE.INTER.SOLV>
12.6758

>  <SCORE.INTER.VDW>
-12.1473

>  <SCORE.INTER.norm>
-0.49869

>  <SCORE.INTRA>
0

>  <SCORE.INTRA.DIHEDRAL>
0

>  <SCORE.INTRA.DIHEDRAL.0>
0

>  <SCORE.INTRA.POLAR>
0

>  <SCORE.INTRA.POLAR.0>
0

>  <SCORE.INTRA.REPUL>
0

>  <SCORE.INTRA.REPUL.0>
0

>  <SCORE.INTRA.SOLV>
0

>  <SCORE.INTRA.SOLV.lig_0>
-48.6608

>  <SCORE.INTRA.VDW>
0

>  <SCORE.INTRA.VDW.0>
0

>  <SCORE.INTRA.norm>
0

>  <SCORE.RESTR>
0

>  <SCORE.RESTR.CAVITY>
0

>  <SCORE.RESTR.norm>
0

>  <SCORE.SYSTEM>
0

>  <SCORE.SYSTEM.CONST>
0

>  <SCORE.SYSTEM.DIHEDRAL>
0

>  <SCORE.SYSTEM.SOLV>
0

>  <SCORE.SYSTEM.norm>
0

>  <SCORE.heavy>
13

>  <SCORE.norm>
-0.49869

>  <RMSD>
5.230

$$$$
ligand
 OpenBabel11021811483D
libRbt.so/2013.1/901 2013/11/27
 13 14  0  0  0  0  0  0  0  0999 V2000
    7.5002   38.9594   72.0617 N   0  0  0  0  0  0  0  0  0  0  0  0
    8.8708   39.8461   70.4158 N   0  0  0  0  0  0  0  0  0  0  0  0
    7.7898   39.9406   71.2119 C   0  0  0  0  0  0  0  0  0  0  0  0
    6.9589   41.0581   71.1444 N   0  0  0  0  0  0  0  0  0  0  0  0
    7.2831   42.0749   70.2439 C   0  0  0  0  0  0  0  0  0  0  0  0
    8.4143   41.9592   69.4425 C   0  0  0  0  0  0  0  0  0  0  0  0
    6.5646   43.0700   70.1563 O   0  0  0  0  0  0  0  0  0  0  0  0
    8.7169   42.9651   68.5051 N   0  0  0  0  0  0  0  0  0  0  0  0
    9.9413   42.9227   67.6562 C   0  0  2  0  0  0  0  0  0  0  0  0
   10.3460   41.4569   67.4252 C   0  0  0  0  0  0  0  0  0  0  0  0
    9.1903   40.8127   69.5366 C   0  0  0  0  0  0  0  0  0  0  0  0
   10.3155   40.6826   68.7137 N   0  0  0  0  0  0  0  0  0  0  0  0
   11.0858   43.6766   68.3974 C   0  0  0  0  0  0  0  0  0  0  0  0
  1  3  1  0  0  0  0
  2  3  2  0  0  0  0
  2 11  1  0  0  0  0
  3  4  1  0  0  0  0
  4  5  1  0  0  0  0
  5  6  1  0  0  0  0
  5  7  2  0  0  0  0
  6  8  1  0  0  0  0
  6 11  2  0  0  0  0
  8  9  1  0  0  0  0
  9 10  1  0  0  0  0
  9 13  1  1  0  0  0
 10 12  1  0  0  0  0
 11 12  1  0  0  0  0
M  END
>  <CHROM.1>
8.69729637,41.53024066,69.59568603,-2.32168793,0.57064517,-0.46306460

>  <Name>
ligand

>  <RI>
0

>  <Rbt.Current_Directory>
/home/itssahil/PROJECTS/Mol_Feturizer/New_Systems/rnas/3SUX

>  <Rbt.Executable>
rbdock ($Id: //depot/dev/client3/rdock/2013.1/src/exe/rbdock.cxx#4 $)

>  <Rbt.Library>
libRbt.so (2013.1, Build901 2013/11/27)

>  <Rbt.Parameter_File>
/export/apps/rDock/src/rDock_2013.1_src/data/scripts/dock_solv.prm

>  <Rbt.Receptor>
prm/pocket_docking_4.prm

>  <SCORE>
-7.83037

>  <SCORE.INTER>
-7.83037

>  <SCORE.INTER.CONST>
1

>  <SCORE.INTER.POLAR>
0

>  <SCORE.INTER.ROT>
0

>  <SCORE.INTER.SOLV>
12.4878

>  <SCORE.INTER.VDW>
-12.9829

>  <SCORE.INTER.norm>
-0.602336

>  <SCORE.INTRA>
0

>  <SCORE.INTRA.DIHEDRAL>
0

>  <SCORE.INTRA.DIHEDRAL.0>
0

>  <SCORE.INTRA.POLAR>
0

>  <SCORE.INTRA.POLAR.0>
0

>  <SCORE.INTRA.REPUL>
0

>  <SCORE.INTRA.REPUL.0>
0

>  <SCORE.INTRA.SOLV>
0

>  <SCORE.INTRA.SOLV.lig_0>
-48.6608

>  <SCORE.INTRA.VDW>
0

>  <SCORE.INTRA.VDW.0>
0

>  <SCORE.INTRA.norm>
0

>  <SCORE.RESTR>
0

>  <SCORE.RESTR.CAVITY>
0

>  <SCORE.RESTR.norm>
0

>  <SCORE.SYSTEM>
0

>  <SCORE.SYSTEM.CONST>
0

>  <SCORE.SYSTEM.DIHEDRAL>
0

>  <SCORE.SYSTEM.SOLV>
0

>  <SCORE.SYSTEM.norm>
0

>  <SCORE.heavy>
13

>  <SCORE.norm>
-0.602336

>  <RMSD>
5.231

$$$$
ligand
 OpenBabel11021811483D
libRbt.so/2013.1/901 2013/11/27
 13 14  0  0  0  0  0  0  0  0999 V2000
    7.3976   39.0579   72.2539 N   0  0  0  0  0  0  0  0  0  0  0  0
    8.7854   39.8148   70.5584 N   0  0  0  0  0  0  0  0  0  0  0  0
    7.7154   39.9865   71.3565 C   0  0  0  0  0  0  0  0  0  0  0  0
    6.9251   41.1293   71.2414 N   0  0  0  0  0  0  0  0  0  0  0  0
    7.2783   42.0897   70.2914 C   0  0  0  0  0  0  0  0  0  0  0  0
    8.3976   41.8948   69.4887 C   0  0  0  0  0  0  0  0  0  0  0  0
    6.5957   43.1052   70.1613 O   0  0  0  0  0  0  0  0  0  0  0  0
    8.7286   42.8434   68.5024 N   0  0  0  0  0  0  0  0  0  0  0  0
    9.9434   42.7160   67.6482 C   0  0  2  0  0  0  0  0  0  0  0  0
   10.2926   41.2270   67.4846 C   0  0  0  0  0  0  0  0  0  0  0  0
    9.1324   40.7264   69.6320 C   0  0  0  0  0  0  0  0  0  0  0  0
   10.2450   40.5162   68.8087 N   0  0  0  0  0  0  0  0  0  0  0  0
   11.1207   43.4617   68.3449 C   0  0  0  0  0  0  0  0  0  0  0  0
  1  3  1  0  0  0  0
  2  3  2  0  0  0  0
  2 11  1  0  0  0  0
  3  4  1  0  0  0  0
  4  5  1  0  0  0  0
  5  6  1  0  0  0  0
  5  7  2  0  0  0  0
  6  8  1  0  0  0  0
  6 11  2  0  0  0  0
  8  9  1  0  0  0  0
  9 10  1  0  0  0  0
  9 13  1  1  0  0  0
 10 12  1  0  0  0  0
 11 12  1  0  0  0  0
M  END
>  <CHROM.1>
8.66620522,41.46348343,69.66021801,-2.35630103,0.59421470,-0.49154827

>  <Name>
ligand

>  <RI>
0

>  <Rbt.Current_Directory>
/home/itssahil/PROJECTS/Mol_Feturizer/New_Systems/rnas/3SUX

>  <Rbt.Executable>
rbdock ($Id: //depot/dev/client3/rdock/2013.1/src/exe/rbdock.cxx#4 $)

>  <Rbt.Library>
libRbt.so (2013.1, Build901 2013/11/27)

>  <Rbt.Parameter_File>
/export/apps/rDock/src/rDock_2013.1_src/data/scripts/dock_solv.prm

>  <Rbt.Receptor>
prm/pocket_docking_8.prm

>  <SCORE>
-8.19624

>  <SCORE.INTER>
-8.19624

>  <SCORE.INTER.CONST>
1

>  <SCORE.INTER.POLAR>
0

>  <SCORE.INTER.ROT>
0

>  <SCORE.INTER.SOLV>
11.8517

>  <SCORE.INTER.VDW>
-13.0147

>  <SCORE.INTER.norm>
-0.63048

>  <SCORE.INTRA>
0

>  <SCORE.INTRA.DIHEDRAL>
0

>  <SCORE.INTRA.DIHEDRAL.0>
0

>  <SCORE.INTRA.POLAR>
0

>  <SCORE.INTRA.POLAR.0>
0

>  <SCORE.INTRA.REPUL>
0

>  <SCORE.INTRA.REPUL.0>
0

>  <SCORE.INTRA.SOLV>
0

>  <SCORE.INTRA.SOLV.lig_0>
-48.6608

>  <SCORE.INTRA.VDW>
0

>  <SCORE.INTRA.VDW.0>
0

>  <SCORE.INTRA.norm>
0

>  <SCORE.RESTR>
0

>  <SCORE.RESTR.CAVITY>
0

>  <SCORE.RESTR.norm>
0

>  <SCORE.SYSTEM>
0

>  <SCORE.SYSTEM.CONST>
0

>  <SCORE.SYSTEM.DIHEDRAL>
0

>  <SCORE.SYSTEM.SOLV>
0

>  <SCORE.SYSTEM.norm>
0

>  <SCORE.heavy>
13

>  <SCORE.norm>
-0.63048

>  <RMSD>
5.285

$$$$
ligand
 OpenBabel11021811483D
libRbt.so/2013.1/901 2013/11/27
 13 14  0  0  0  0  0  0  0  0999 V2000
    7.4557   39.0328   72.2567 N   0  0  0  0  0  0  0  0  0  0  0  0
    8.8137   39.8039   70.5436 N   0  0  0  0  0  0  0  0  0  0  0  0
    7.7502   39.9629   71.3529 C   0  0  0  0  0  0  0  0  0  0  0  0
    6.9423   41.0938   71.2430 N   0  0  0  0  0  0  0  0  0  0  0  0
    7.2713   42.0561   70.2861 C   0  0  0  0  0  0  0  0  0  0  0  0
    8.3843   41.8746   69.4718 C   0  0  0  0  0  0  0  0  0  0  0  0
    6.5727   43.0612   70.1605 O   0  0  0  0  0  0  0  0  0  0  0  0
    8.6907   42.8246   68.4789 N   0  0  0  0  0  0  0  0  0  0  0  0
    9.8977   42.7118   67.6117 C   0  0  2  0  0  0  0  0  0  0  0  0
   10.2665   41.2275   67.4489 C   0  0  0  0  0  0  0  0  0  0  0  0
    9.1373   40.7173   69.6106 C   0  0  0  0  0  0  0  0  0  0  0  0
   10.2437   40.5204   68.7756 N   0  0  0  0  0  0  0  0  0  0  0  0
   11.0719   43.4765   68.2930 C   0  0  0  0  0  0  0  0  0  0  0  0
  1  3  1  0  0  0  0
  2  3  2  0  0  0  0
  2 11  1  0  0  0  0
  3  4  1  0  0  0  0
  4  5  1  0  0  0  0
  5  6  1  0  0  0  0
  5  7  2  0  0  0  0
  6  8  1  0  0  0  0
  6 11  2  0  0  0  0
  8  9  1  0  0  0  0
  9 10  1  0  0  0  0
  9 13  1  1  0  0  0
 10 12  1  0  0  0  0
 11 12  1  0  0  0  0
M  END
>  <CHROM.1>
8.66095685,41.44773666,69.64162669,-2.33470496,0.59705423,-0.50686040

>  <Name>
ligand

>  <RI>
0

>  <Rbt.Current_Directory>
/home/itssahil/PROJECTS/Mol_Feturizer/New_Systems/rnas/3SUX

>  <Rbt.Executable>
rbdock ($Id: //depot/dev/client3/rdock/2013.1/src/exe/rbdock.cxx#4 $)

>  <Rbt.Library>
libRbt.so (2013.1, Build901 2013/11/27)

>  <Rbt.Parameter_File>
/export/apps/rDock/src/rDock_2013.1_src/data/scripts/dock_solv.prm

>  <Rbt.Receptor>
prm/pocket_docking_5.prm

>  <SCORE>
-8.20492

>  <SCORE.INTER>
-8.20492

>  <SCORE.INTER.CONST>
1

>  <SCORE.INTER.POLAR>
0

>  <SCORE.INTER.ROT>
0

>  <SCORE.INTER.SOLV>
11.8601

>  <SCORE.INTER.VDW>
-13.0233

>  <SCORE.INTER.norm>
-0.631148

>  <SCORE.INTRA>
0

>  <SCORE.INTRA.DIHEDRAL>
0

>  <SCORE.INTRA.DIHEDRAL.0>
0

>  <SCORE.INTRA.POLAR>
0

>  <SCORE.INTRA.POLAR.0>
0

>  <SCORE.INTRA.REPUL>
0

>  <SCORE.INTRA.REPUL.0>
0

>  <SCORE.INTRA.SOLV>
0

>  <SCORE.INTRA.SOLV.lig_0>
-48.6608

>  <SCORE.INTRA.VDW>
0

>  <SCORE.INTRA.VDW.0>
0

>  <SCORE.INTRA.norm>
0

>  <SCORE.RESTR>
0

>  <SCORE.RESTR.CAVITY>
0

>  <SCORE.RESTR.norm>
0

>  <SCORE.SYSTEM>
0

>  <SCORE.SYSTEM.CONST>
0

>  <SCORE.SYSTEM.DIHEDRAL>
0

>  <SCORE.SYSTEM.SOLV>
0

>  <SCORE.SYSTEM.norm>
0

>  <SCORE.heavy>
13

>  <SCORE.norm>
-0.631148

>  <RMSD>
5.287

$$$$
ligand
 OpenBabel11021811483D
libRbt.so/2013.1/901 2013/11/27
 13 14  0  0  0  0  0  0  0  0999 V2000
    7.3380   39.0469   72.2214 N   0  0  0  0  0  0  0  0  0  0  0  0
    8.7480   39.8024   70.5437 N   0  0  0  0  0  0  0  0  0  0  0  0
    7.6749   39.9804   71.3361 C   0  0  0  0  0  0  0  0  0  0  0  0
    6.9013   41.1353   71.2279 N   0  0  0  0  0  0  0  0  0  0  0  0
    7.2744   42.1007   70.2906 C   0  0  0  0  0  0  0  0  0  0  0  0
    8.3966   41.8988   69.4936 C   0  0  0  0  0  0  0  0  0  0  0  0
    6.6068   43.1269   70.1667 O   0  0  0  0  0  0  0  0  0  0  0  0
    8.7475   42.8531   68.5198 N   0  0  0  0  0  0  0  0  0  0  0  0
    9.9664   42.7179   67.6727 C   0  0  2  0  0  0  0  0  0  0  0  0
   10.2962   41.2260   67.4955 C   0  0  0  0  0  0  0  0  0  0  0  0
    9.1140   40.7188   69.6295 C   0  0  0  0  0  0  0  0  0  0  0  0
   10.2295   40.5020   68.8116 N   0  0  0  0  0  0  0  0  0  0  0  0
   11.1490   43.4397   68.3855 C   0  0  0  0  0  0  0  0  0  0  0  0
  1  3  1  0  0  0  0
  2  3  2  0  0  0  0
  2 11  1  0  0  0  0
  3  4  1  0  0  0  0
  4  5  1  0  0  0  0
  5  6  1  0  0  0  0
  5  7  2  0  0  0  0
  6  8  1  0  0  0  0
  6 11  2  0  0  0  0
  8  9  1  0  0  0  0
  9 10  1  0  0  0  0
  9 13  1  1  0  0  0
 10 12  1  0  0  0  0
 11 12  1  0  0  0  0
M  END
>  <CHROM.1>
8.65792464,41.46198176,69.66235933,-2.37501777,0.59446689,-0.47040859

>  <Name>
ligand

>  <RI>
0

>  <Rbt.Current_Directory>
/home/itssahil/PROJECTS/Mol_Feturizer/New_Systems/rnas/3SUX

>  <Rbt.Executable>
rbdock ($Id: //depot/dev/client3/rdock/2013.1/src/exe/rbdock.cxx#4 $)

>  <Rbt.Library>
libRbt.so (2013.1, Build901 2013/11/27)

>  <Rbt.Parameter_File>
/export/apps/rDock/src/rDock_2013.1_src/data/scripts/dock_solv.prm

>  <Rbt.Receptor>
prm/pocket_docking_5.prm

>  <SCORE>
-8.22154

>  <SCORE.INTER>
-8.22154

>  <SCORE.INTER.CONST>
1

>  <SCORE.INTER.POLAR>
0

>  <SCORE.INTER.ROT>
0

>  <SCORE.INTER.SOLV>
12.1248

>  <SCORE.INTER.VDW>
-13.1226

>  <SCORE.INTER.norm>
-0.632426

>  <SCORE.INTRA>
0

>  <SCORE.INTRA.DIHEDRAL>
0

>  <SCORE.INTRA.DIHEDRAL.0>
0

>  <SCORE.INTRA.POLAR>
0

>  <SCORE.INTRA.POLAR.0>
0

>  <SCORE.INTRA.REPUL>
0

>  <SCORE.INTRA.REPUL.0>
0

>  <SCORE.INTRA.SOLV>
0

>  <SCORE.INTRA.SOLV.lig_0>
-48.6608

>  <SCORE.INTRA.VDW>
0

>  <SCORE.INTRA.VDW.0>
0

>  <SCORE.INTRA.norm>
0

>  <SCORE.RESTR>
0

>  <SCORE.RESTR.CAVITY>
0

>  <SCORE.RESTR.norm>
0

>  <SCORE.SYSTEM>
0

>  <SCORE.SYSTEM.CONST>
0

>  <SCORE.SYSTEM.DIHEDRAL>
0

>  <SCORE.SYSTEM.SOLV>
0

>  <SCORE.SYSTEM.norm>
0

>  <SCORE.heavy>
13

>  <SCORE.norm>
-0.632426

>  <RMSD>
5.287

$$$$
ligand
 OpenBabel11021811483D
libRbt.so/2013.1/901 2013/11/27
 13 14  0  0  0  0  0  0  0  0999 V2000
    7.3227   39.0664   72.2351 N   0  0  0  0  0  0  0  0  0  0  0  0
    8.7360   39.8142   70.5568 N   0  0  0  0  0  0  0  0  0  0  0  0
    7.6604   39.9951   71.3451 C   0  0  0  0  0  0  0  0  0  0  0  0
    6.8849   41.1478   71.2275 N   0  0  0  0  0  0  0  0  0  0  0  0
    7.2589   42.1082   70.2855 C   0  0  0  0  0  0  0  0  0  0  0  0
    8.3837   41.9035   69.4930 C   0  0  0  0  0  0  0  0  0  0  0  0
    6.5897   43.1323   70.1534 O   0  0  0  0  0  0  0  0  0  0  0  0
    8.7356   42.8525   68.5143 N   0  0  0  0  0  0  0  0  0  0  0  0
    9.9571   42.7145   67.6715 C   0  0  2  0  0  0  0  0  0  0  0  0
   10.2902   41.2222   67.5044 C   0  0  0  0  0  0  0  0  0  0  0  0
    9.1030   40.7258   69.6380 C   0  0  0  0  0  0  0  0  0  0  0  0
   10.2211   40.5060   68.8247 N   0  0  0  0  0  0  0  0  0  0  0  0
   11.1364   43.4428   68.3832 C   0  0  0  0  0  0  0  0  0  0  0  0
  1  3  1  0  0  0  0
  2  3  2  0  0  0  0
  2 11  1  0  0  0  0
  3  4  1  0  0  0  0
  4  5  1  0  0  0  0
  5  6  1  0  0  0  0
  5  7  2  0  0  0  0
  6  8  1  0  0  0  0
  6 11  2  0  0  0  0
  8  9  1  0  0  0  0
  9 10  1  0  0  0  0
  9 13  1  1  0  0  0
 10 12  1  0  0  0  0
 11 12  1  0  0  0  0
M  END
>  <CHROM.1>
8.64536793,41.46824357,69.66507418,-2.37456117,0.59107003,-0.47677501

>  <Name>
ligand

>  <RI>
0

>  <Rbt.Current_Directory>
/home/itssahil/PROJECTS/Mol_Feturizer/New_Systems/rnas/3SUX

>  <Rbt.Executable>
rbdock ($Id: //depot/dev/client3/rdock/2013.1/src/exe/rbdock.cxx#4 $)

>  <Rbt.Library>
libRbt.so (2013.1, Build901 2013/11/27)

>  <Rbt.Parameter_File>
/export/apps/rDock/src/rDock_2013.1_src/data/scripts/dock_solv.prm

>  <Rbt.Receptor>
prm/pocket_docking_5.prm

>  <SCORE>
-8.18135

>  <SCORE.INTER>
-8.18135

>  <SCORE.INTER.CONST>
1

>  <SCORE.INTER.POLAR>
0

>  <SCORE.INTER.ROT>
0

>  <SCORE.INTER.SOLV>
12.1521

>  <SCORE.INTER.VDW>
-13.1049

>  <SCORE.INTER.norm>
-0.629335

>  <SCORE.INTRA>
0

>  <SCORE.INTRA.DIHEDRAL>
0

>  <SCORE.INTRA.DIHEDRAL.0>
0

>  <SCORE.INTRA.POLAR>
0

>  <SCORE.INTRA.POLAR.0>
0

>  <SCORE.INTRA.REPUL>
0

>  <SCORE.INTRA.REPUL.0>
0

>  <SCORE.INTRA.SOLV>
0

>  <SCORE.INTRA.SOLV.lig_0>
-48.6608

>  <SCORE.INTRA.VDW>
0

>  <SCORE.INTRA.VDW.0>
0

>  <SCORE.INTRA.norm>
0

>  <SCORE.RESTR>
0

>  <SCORE.RESTR.CAVITY>
0

>  <SCORE.RESTR.norm>
0

>  <SCORE.SYSTEM>
0

>  <SCORE.SYSTEM.CONST>
0

>  <SCORE.SYSTEM.DIHEDRAL>
0

>  <SCORE.SYSTEM.SOLV>
0

>  <SCORE.SYSTEM.norm>
0

>  <SCORE.heavy>
13

>  <SCORE.norm>
-0.629335

>  <RMSD>
5.292

$$$$
ligand
 OpenBabel11021811483D
libRbt.so/2013.1/901 2013/11/27
 13 14  0  0  0  0  0  0  0  0999 V2000
    7.4097   39.0721   72.2847 N   0  0  0  0  0  0  0  0  0  0  0  0
    8.7900   39.8317   70.5843 N   0  0  0  0  0  0  0  0  0  0  0  0
    7.7143   39.9946   71.3764 C   0  0  0  0  0  0  0  0  0  0  0  0
    6.9042   41.1216   71.2439 N   0  0  0  0  0  0  0  0  0  0  0  0
    7.2438   42.0758   70.2827 C   0  0  0  0  0  0  0  0  0  0  0  0
    8.3693   41.8906   69.4865 C   0  0  0  0  0  0  0  0  0  0  0  0
    6.5437   43.0772   70.1372 O   0  0  0  0  0  0  0  0  0  0  0  0
    8.6869   42.8321   68.4891 N   0  0  0  0  0  0  0  0  0  0  0  0
    9.9069   42.7154   67.6408 C   0  0  2  0  0  0  0  0  0  0  0  0
   10.2831   41.2309   67.4976 C   0  0  0  0  0  0  0  0  0  0  0  0
    9.1241   40.7373   69.6473 C   0  0  0  0  0  0  0  0  0  0  0  0
   10.2433   40.5364   68.8306 N   0  0  0  0  0  0  0  0  0  0  0  0
   11.0683   43.4907   68.3318 C   0  0  0  0  0  0  0  0  0  0  0  0
  1  3  1  0  0  0  0
  2  3  2  0  0  0  0
  2 11  1  0  0  0  0
  3  4  1  0  0  0  0
  4  5  1  0  0  0  0
  5  6  1  0  0  0  0
  5  7  2  0  0  0  0
  6  8  1  0  0  0  0
  6 11  2  0  0  0  0
  8  9  1  0  0  0  0
  9 10  1  0  0  0  0
  9 13  1  1  0  0  0
 10 12  1  0  0  0  0
 11 12  1  0  0  0  0
M  END
>  <CHROM.1>
8.64484542,41.46630319,69.66444085,-2.33962990,0.58258077,-0.51368666

>  <Name>
ligand

>  <RI>
0

>  <Rbt.Current_Directory>
/home/itssahil/PROJECTS/Mol_Feturizer/New_Systems/rnas/3SUX

>  <Rbt.Executable>
rbdock ($Id: //depot/dev/client3/rdock/2013.1/src/exe/rbdock.cxx#4 $)

>  <Rbt.Library>
libRbt.so (2013.1, Build901 2013/11/27)

>  <Rbt.Parameter_File>
/export/apps/rDock/src/rDock_2013.1_src/data/scripts/dock_solv.prm

>  <Rbt.Receptor>
prm/pocket_docking_5.prm

>  <SCORE>
-8.18353

>  <SCORE.INTER>
-8.18353

>  <SCORE.INTER.CONST>
1

>  <SCORE.INTER.POLAR>
0

>  <SCORE.INTER.ROT>
0

>  <SCORE.INTER.SOLV>
11.7593

>  <SCORE.INTER.VDW>
-12.9754

>  <SCORE.INTER.norm>
-0.629503

>  <SCORE.INTRA>
0

>  <SCORE.INTRA.DIHEDRAL>
0

>  <SCORE.INTRA.DIHEDRAL.0>
0

>  <SCORE.INTRA.POLAR>
0

>  <SCORE.INTRA.POLAR.0>
0

>  <SCORE.INTRA.REPUL>
0

>  <SCORE.INTRA.REPUL.0>
0

>  <SCORE.INTRA.SOLV>
0

>  <SCORE.INTRA.SOLV.lig_0>
-48.6608

>  <SCORE.INTRA.VDW>
0

>  <SCORE.INTRA.VDW.0>
0

>  <SCORE.INTRA.norm>
0

>  <SCORE.RESTR>
0

>  <SCORE.RESTR.CAVITY>
0

>  <SCORE.RESTR.norm>
0

>  <SCORE.SYSTEM>
0

>  <SCORE.SYSTEM.CONST>
0

>  <SCORE.SYSTEM.DIHEDRAL>
0

>  <SCORE.SYSTEM.SOLV>
0

>  <SCORE.SYSTEM.norm>
0

>  <SCORE.heavy>
13

>  <SCORE.norm>
-0.629503

>  <RMSD>
5.298

$$$$
ligand
 OpenBabel11021811483D
libRbt.so/2013.1/901 2013/11/27
 13 14  0  0  0  0  0  0  0  0999 V2000
    7.3962   39.0430   72.2758 N   0  0  0  0  0  0  0  0  0  0  0  0
    8.7849   39.8105   70.5858 N   0  0  0  0  0  0  0  0  0  0  0  0
    7.7082   39.9721   71.3769 C   0  0  0  0  0  0  0  0  0  0  0  0
    6.9049   41.1049   71.2529 N   0  0  0  0  0  0  0  0  0  0  0  0
    7.2523   42.0661   70.3015 C   0  0  0  0  0  0  0  0  0  0  0  0
    8.3786   41.8818   69.5063 C   0  0  0  0  0  0  0  0  0  0  0  0
    6.5583   43.0728   70.1637 O   0  0  0  0  0  0  0  0  0  0  0  0
    8.7040   42.8308   68.5185 N   0  0  0  0  0  0  0  0  0  0  0  0
    9.9254   42.7149   67.6720 C   0  0  2  0  0  0  0  0  0  0  0  0
   10.2935   41.2297   67.5158 C   0  0  0  0  0  0  0  0  0  0  0  0
    9.1265   40.7228   69.6582 C   0  0  0  0  0  0  0  0  0  0  0  0
   10.2465   40.5231   68.8422 N   0  0  0  0  0  0  0  0  0  0  0  0
   11.0895   43.4772   68.3729 C   0  0  0  0  0  0  0  0  0  0  0  0
  1  3  1  0  0  0  0
  2  3  2  0  0  0  0
  2 11  1  0  0  0  0
  3  4  1  0  0  0  0
  4  5  1  0  0  0  0
  5  6  1  0  0  0  0
  5  7  2  0  0  0  0
  6  8  1  0  0  0  0
  6 11  2  0  0  0  0
  8  9  1  0  0  0  0
  9 10  1  0  0  0  0
  9 13  1  1  0  0  0
 10 12  1  0  0  0  0
 11 12  1  0  0  0  0
M  END
>  <CHROM.1>
8.65132640,41.45436411,69.68091538,-2.34700667,0.58325923,-0.50032483

>  <Name>
ligand

>  <RI>
0

>  <Rbt.Current_Directory>
/home/itssahil/PROJECTS/Mol_Feturizer/New_Systems/rnas/3SUX

>  <Rbt.Executable>
rbdock ($Id: //depot/dev/client3/rdock/2013.1/src/exe/rbdock.cxx#4 $)

>  <Rbt.Library>
libRbt.so (2013.1, Build901 2013/11/27)

>  <Rbt.Parameter_File>
/export/apps/rDock/src/rDock_2013.1_src/data/scripts/dock_solv.prm

>  <Rbt.Receptor>
prm/pocket_docking_8.prm

>  <SCORE>
-8.1659

>  <SCORE.INTER>
-8.1659

>  <SCORE.INTER.CONST>
1

>  <SCORE.INTER.POLAR>
0

>  <SCORE.INTER.ROT>
0

>  <SCORE.INTER.SOLV>
11.7022

>  <SCORE.INTER.VDW>
-12.9447

>  <SCORE.INTER.norm>
-0.628146

>  <SCORE.INTRA>
0

>  <SCORE.INTRA.DIHEDRAL>
0

>  <SCORE.INTRA.DIHEDRAL.0>
0

>  <SCORE.INTRA.POLAR>
0

>  <SCORE.INTRA.POLAR.0>
0

>  <SCORE.INTRA.REPUL>
0

>  <SCORE.INTRA.REPUL.0>
0

>  <SCORE.INTRA.SOLV>
0

>  <SCORE.INTRA.SOLV.lig_0>
-48.6608

>  <SCORE.INTRA.VDW>
0

>  <SCORE.INTRA.VDW.0>
0

>  <SCORE.INTRA.norm>
0

>  <SCORE.RESTR>
0

>  <SCORE.RESTR.CAVITY>
0

>  <SCORE.RESTR.norm>
0

>  <SCORE.SYSTEM>
0

>  <SCORE.SYSTEM.CONST>
0

>  <SCORE.SYSTEM.DIHEDRAL>
0

>  <SCORE.SYSTEM.SOLV>
0

>  <SCORE.SYSTEM.norm>
0

>  <SCORE.heavy>
13

>  <SCORE.norm>
-0.628146

>  <RMSD>
5.301

$$$$
ligand
 OpenBabel11021811483D
libRbt.so/2013.1/901 2013/11/27
 13 14  0  0  0  0  0  0  0  0999 V2000
    8.3456   37.2268   72.0094 N   0  0  0  0  0  0  0  0  0  0  0  0
    8.2191   39.0999   70.6495 N   0  0  0  0  0  0  0  0  0  0  0  0
    8.9298   38.2804   71.4461 C   0  0  0  0  0  0  0  0  0  0  0  0
   10.2773   38.5347   71.6981 N   0  0  0  0  0  0  0  0  0  0  0  0
   10.8684   39.6473   71.0960 C   0  0  0  0  0  0  0  0  0  0  0  0
   10.1152   40.4703   70.2652 C   0  0  0  0  0  0  0  0  0  0  0  0
   12.0539   39.9018   71.3056 O   0  0  0  0  0  0  0  0  0  0  0  0
   10.7007   41.6155   69.6926 N   0  0  0  0  0  0  0  0  0  0  0  0
    9.9606   42.5057   68.7538 C   0  0  2  0  0  0  0  0  0  0  0  0
    8.4581   42.4442   69.0771 C   0  0  0  0  0  0  0  0  0  0  0  0
    8.7721   40.1809   70.0706 C   0  0  0  0  0  0  0  0  0  0  0  0
    8.0055   41.0214   69.2545 N   0  0  0  0  0  0  0  0  0  0  0  0
   10.2090   42.0087   67.2982 C   0  0  0  0  0  0  0  0  0  0  0  0
  1  3  1  0  0  0  0
  2  3  2  0  0  0  0
  2 11  1  0  0  0  0
  3  4  1  0  0  0  0
  4  5  1  0  0  0  0
  5  6  1  0  0  0  0
  5  7  2  0  0  0  0
  6  8  1  0  0  0  0
  6 11  2  0  0  0  0
  8  9  1  0  0  0  0
  9 10  1  0  0  0  0
  9 13  1  6  0  0  0
 10 12  1  0  0  0  0
 11 12  1  0  0  0  0
M  END
>  <CHROM.1>
9.63508182,40.24651769,70.18134605,1.62723681,0.20128674,2.45173386

>  <Name>
ligand

>  <RI>
0

>  <Rbt.Current_Directory>
/home/itssahil/PROJECTS/Mol_Feturizer/New_Systems/rnas/3SUX

>  <Rbt.Executable>
rbdock ($Id: //depot/dev/client3/rdock/2013.1/src/exe/rbdock.cxx#4 $)

>  <Rbt.Library>
libRbt.so (2013.1, Build901 2013/11/27)

>  <Rbt.Parameter_File>
/export/apps/rDock/src/rDock_2013.1_src/data/scripts/dock_solv.prm

>  <Rbt.Receptor>
prm/pocket_docking_8.prm

>  <SCORE>
-6.52529

>  <SCORE.INTER>
-6.52529

>  <SCORE.INTER.CONST>
1

>  <SCORE.INTER.POLAR>
0

>  <SCORE.INTER.ROT>
0

>  <SCORE.INTER.SOLV>
7.03388

>  <SCORE.INTER.VDW>
-10.2948

>  <SCORE.INTER.norm>
-0.501946

>  <SCORE.INTRA>
0

>  <SCORE.INTRA.DIHEDRAL>
0

>  <SCORE.INTRA.DIHEDRAL.0>
0

>  <SCORE.INTRA.POLAR>
0

>  <SCORE.INTRA.POLAR.0>
0

>  <SCORE.INTRA.REPUL>
0

>  <SCORE.INTRA.REPUL.0>
0

>  <SCORE.INTRA.SOLV>
0

>  <SCORE.INTRA.SOLV.lig_0>
-48.6608

>  <SCORE.INTRA.VDW>
0

>  <SCORE.INTRA.VDW.0>
0

>  <SCORE.INTRA.norm>
0

>  <SCORE.RESTR>
0

>  <SCORE.RESTR.CAVITY>
0

>  <SCORE.RESTR.norm>
0

>  <SCORE.SYSTEM>
0

>  <SCORE.SYSTEM.CONST>
0

>  <SCORE.SYSTEM.DIHEDRAL>
0

>  <SCORE.SYSTEM.SOLV>
0

>  <SCORE.SYSTEM.norm>
0

>  <SCORE.heavy>
13

>  <SCORE.norm>
-0.501946

>  <RMSD>
5.310

$$$$
ligand
 OpenBabel11021811483D
libRbt.so/2013.1/901 2013/11/27
 13 14  0  0  0  0  0  0  0  0999 V2000
    7.3587   38.9523   72.2394 N   0  0  0  0  0  0  0  0  0  0  0  0
    8.7623   39.7497   70.5757 N   0  0  0  0  0  0  0  0  0  0  0  0
    7.6838   39.9014   71.3663 C   0  0  0  0  0  0  0  0  0  0  0  0
    6.8923   41.0450   71.2687 N   0  0  0  0  0  0  0  0  0  0  0  0
    7.2533   42.0272   70.3442 C   0  0  0  0  0  0  0  0  0  0  0  0
    8.3812   41.8525   69.5490 C   0  0  0  0  0  0  0  0  0  0  0  0
    6.5699   43.0440   70.2299 O   0  0  0  0  0  0  0  0  0  0  0  0
    8.7203   42.8235   68.5876 N   0  0  0  0  0  0  0  0  0  0  0  0
    9.9441   42.7176   67.7434 C   0  0  2  0  0  0  0  0  0  0  0  0
   10.2981   41.2334   67.5500 C   0  0  0  0  0  0  0  0  0  0  0  0
    9.1169   40.6825   69.6736 C   0  0  0  0  0  0  0  0  0  0  0  0
   10.2384   40.4929   68.8572 N   0  0  0  0  0  0  0  0  0  0  0  0
   11.1126   43.4497   68.4688 C   0  0  0  0  0  0  0  0  0  0  0  0
  1  3  1  0  0  0  0
  2  3  2  0  0  0  0
  2 11  1  0  0  0  0
  3  4  1  0  0  0  0
  4  5  1  0  0  0  0
  5  6  1  0  0  0  0
  5  7  2  0  0  0  0
  6  8  1  0  0  0  0
  6 11  2  0  0  0  0
  8  9  1  0  0  0  0
  9 10  1  0  0  0  0
  9 13  1  1  0  0  0
 10 12  1  0  0  0  0
 11 12  1  0  0  0  0
M  END
>  <CHROM.1>
8.64889933,41.41787656,69.71350164,-2.35991139,0.58416351,-0.46708551

>  <Name>
ligand

>  <RI>
0

>  <Rbt.Current_Directory>
/home/itssahil/PROJECTS/Mol_Feturizer/New_Systems/rnas/3SUX

>  <Rbt.Executable>
rbdock ($Id: //depot/dev/client3/rdock/2013.1/src/exe/rbdock.cxx#4 $)

>  <Rbt.Library>
libRbt.so (2013.1, Build901 2013/11/27)

>  <Rbt.Parameter_File>
/export/apps/rDock/src/rDock_2013.1_src/data/scripts/dock_solv.prm

>  <Rbt.Receptor>
prm/pocket_docking_5.prm

>  <SCORE>
-8.1985

>  <SCORE.INTER>
-8.1985

>  <SCORE.INTER.CONST>
1

>  <SCORE.INTER.POLAR>
0

>  <SCORE.INTER.ROT>
0

>  <SCORE.INTER.SOLV>
11.7153

>  <SCORE.INTER.VDW>
-12.9708

>  <SCORE.INTER.norm>
-0.630654

>  <SCORE.INTRA>
0

>  <SCORE.INTRA.DIHEDRAL>
0

>  <SCORE.INTRA.DIHEDRAL.0>
0

>  <SCORE.INTRA.POLAR>
0

>  <SCORE.INTRA.POLAR.0>
0

>  <SCORE.INTRA.REPUL>
0

>  <SCORE.INTRA.REPUL.0>
0

>  <SCORE.INTRA.SOLV>
0

>  <SCORE.INTRA.SOLV.lig_0>
-48.6608

>  <SCORE.INTRA.VDW>
0

>  <SCORE.INTRA.VDW.0>
0

>  <SCORE.INTRA.norm>
0

>  <SCORE.RESTR>
0

>  <SCORE.RESTR.CAVITY>
0

>  <SCORE.RESTR.norm>
0

>  <SCORE.SYSTEM>
0

>  <SCORE.SYSTEM.CONST>
0

>  <SCORE.SYSTEM.DIHEDRAL>
0

>  <SCORE.SYSTEM.SOLV>
0

>  <SCORE.SYSTEM.norm>
0

>  <SCORE.heavy>
13

>  <SCORE.norm>
-0.630654

>  <RMSD>
5.316

$$$$
ligand
 OpenBabel11021811483D
libRbt.so/2013.1/901 2013/11/27
 13 14  0  0  0  0  0  0  0  0999 V2000
    7.3700   38.9655   72.2437 N   0  0  0  0  0  0  0  0  0  0  0  0
    8.7691   39.7633   70.5765 N   0  0  0  0  0  0  0  0  0  0  0  0
    7.6863   39.9097   71.3622 C   0  0  0  0  0  0  0  0  0  0  0  0
    6.8812   41.0426   71.2508 N   0  0  0  0  0  0  0  0  0  0  0  0
    7.2332   42.0198   70.3177 C   0  0  0  0  0  0  0  0  0  0  0  0
    8.3657   41.8510   69.5277 C   0  0  0  0  0  0  0  0  0  0  0  0
    6.5378   43.0271   70.1911 O   0  0  0  0  0  0  0  0  0  0  0  0
    8.6960   42.8166   68.5578 N   0  0  0  0  0  0  0  0  0  0  0  0
    9.9237   42.7173   67.7185 C   0  0  2  0  0  0  0  0  0  0  0  0
   10.2964   41.2356   67.5409 C   0  0  0  0  0  0  0  0  0  0  0  0
    9.1151   40.6914   69.6662 C   0  0  0  0  0  0  0  0  0  0  0  0
   10.2415   40.5075   68.8553 N   0  0  0  0  0  0  0  0  0  0  0  0
   11.0809   43.4706   68.4401 C   0  0  0  0  0  0  0  0  0  0  0  0
  1  3  1  0  0  0  0
  2  3  2  0  0  0  0
  2 11  1  0  0  0  0
  3  4  1  0  0  0  0
  4  5  1  0  0  0  0
  5  6  1  0  0  0  0
  5  7  2  0  0  0  0
  6  8  1  0  0  0  0
  6 11  2  0  0  0  0
  8  9  1  0  0  0  0
  9 10  1  0  0  0  0
  9 13  1  1  0  0  0
 10 12  1  0  0  0  0
 11 12  1  0  0  0  0
M  END
>  <CHROM.1>
8.63812083,41.42139290,69.69738632,-2.34866991,0.57578553,-0.48318610

>  <Name>
ligand

>  <RI>
0

>  <Rbt.Current_Directory>
/home/itssahil/PROJECTS/Mol_Feturizer/New_Systems/rnas/3SUX

>  <Rbt.Executable>
rbdock ($Id: //depot/dev/client3/rdock/2013.1/src/exe/rbdock.cxx#4 $)

>  <Rbt.Library>
libRbt.so (2013.1, Build901 2013/11/27)

>  <Rbt.Parameter_File>
/export/apps/rDock/src/rDock_2013.1_src/data/scripts/dock_solv.prm

>  <Rbt.Receptor>
prm/pocket_docking_5.prm

>  <SCORE>
-8.17345

>  <SCORE.INTER>
-8.17345

>  <SCORE.INTER.CONST>
1

>  <SCORE.INTER.POLAR>
0

>  <SCORE.INTER.ROT>
0

>  <SCORE.INTER.SOLV>
11.8139

>  <SCORE.INTER.VDW>
-12.9869

>  <SCORE.INTER.norm>
-0.628727

>  <SCORE.INTRA>
0

>  <SCORE.INTRA.DIHEDRAL>
0

>  <SCORE.INTRA.DIHEDRAL.0>
0

>  <SCORE.INTRA.POLAR>
0

>  <SCORE.INTRA.POLAR.0>
0

>  <SCORE.INTRA.REPUL>
0

>  <SCORE.INTRA.REPUL.0>
0

>  <SCORE.INTRA.SOLV>
0

>  <SCORE.INTRA.SOLV.lig_0>
-48.6608

>  <SCORE.INTRA.VDW>
0

>  <SCORE.INTRA.VDW.0>
0

>  <SCORE.INTRA.norm>
0

>  <SCORE.RESTR>
0

>  <SCORE.RESTR.CAVITY>
0

>  <SCORE.RESTR.norm>
0

>  <SCORE.SYSTEM>
0

>  <SCORE.SYSTEM.CONST>
0

>  <SCORE.SYSTEM.DIHEDRAL>
0

>  <SCORE.SYSTEM.SOLV>
0

>  <SCORE.SYSTEM.norm>
0

>  <SCORE.heavy>
13

>  <SCORE.norm>
-0.628727

>  <RMSD>
5.319

$$$$
ligand
 OpenBabel11021811483D
libRbt.so/2013.1/901 2013/11/27
 13 14  0  0  0  0  0  0  0  0999 V2000
    7.3681   38.9253   72.2556 N   0  0  0  0  0  0  0  0  0  0  0  0
    8.7582   39.7323   70.5853 N   0  0  0  0  0  0  0  0  0  0  0  0
    7.6870   39.8800   71.3864 C   0  0  0  0  0  0  0  0  0  0  0  0
    6.8963   41.0255   71.3038 N   0  0  0  0  0  0  0  0  0  0  0  0
    7.2507   42.0136   70.3831 C   0  0  0  0  0  0  0  0  0  0  0  0
    8.3713   41.8428   69.5767 C   0  0  0  0  0  0  0  0  0  0  0  0
    6.5679   43.0322   70.2820 O   0  0  0  0  0  0  0  0  0  0  0  0
    8.7034   42.8201   68.6193 N   0  0  0  0  0  0  0  0  0  0  0  0
    9.9195   42.7183   67.7636 C   0  0  2  0  0  0  0  0  0  0  0  0
   10.2696   41.2349   67.5567 C   0  0  0  0  0  0  0  0  0  0  0  0
    9.1062   40.6709   69.6867 C   0  0  0  0  0  0  0  0  0  0  0  0
   10.2202   40.4854   68.8592 N   0  0  0  0  0  0  0  0  0  0  0  0
   11.0955   43.4435   68.4838 C   0  0  0  0  0  0  0  0  0  0  0  0
  1  3  1  0  0  0  0
  2  3  2  0  0  0  0
  2 11  1  0  0  0  0
  3  4  1  0  0  0  0
  4  5  1  0  0  0  0
  5  6  1  0  0  0  0
  5  7  2  0  0  0  0
  6  8  1  0  0  0  0
  6 11  2  0  0  0  0
  8  9  1  0  0  0  0
  9 10  1  0  0  0  0
  9 13  1  1  0  0  0
 10 12  1  0  0  0  0
 11 12  1  0  0  0  0
M  END
>  <CHROM.1>
8.63975399,41.40665708,69.73585408,-2.35678127,0.59271389,-0.46180467

>  <Name>
ligand

>  <RI>
0

>  <Rbt.Current_Directory>
/home/itssahil/PROJECTS/Mol_Feturizer/New_Systems/rnas/3SUX

>  <Rbt.Executable>
rbdock ($Id: //depot/dev/client3/rdock/2013.1/src/exe/rbdock.cxx#4 $)

>  <Rbt.Library>
libRbt.so (2013.1, Build901 2013/11/27)

>  <Rbt.Parameter_File>
/export/apps/rDock/src/rDock_2013.1_src/data/scripts/dock_solv.prm

>  <Rbt.Receptor>
prm/pocket_docking_5.prm

>  <SCORE>
-8.21103

>  <SCORE.INTER>
-8.21103

>  <SCORE.INTER.CONST>
1

>  <SCORE.INTER.POLAR>
0

>  <SCORE.INTER.ROT>
0

>  <SCORE.INTER.SOLV>
11.53

>  <SCORE.INTER.VDW>
-12.9174

>  <SCORE.INTER.norm>
-0.631617

>  <SCORE.INTRA>
0

>  <SCORE.INTRA.DIHEDRAL>
0

>  <SCORE.INTRA.DIHEDRAL.0>
0

>  <SCORE.INTRA.POLAR>
0

>  <SCORE.INTRA.POLAR.0>
0

>  <SCORE.INTRA.REPUL>
0

>  <SCORE.INTRA.REPUL.0>
0

>  <SCORE.INTRA.SOLV>
0

>  <SCORE.INTRA.SOLV.lig_0>
-48.6608

>  <SCORE.INTRA.VDW>
0

>  <SCORE.INTRA.VDW.0>
0

>  <SCORE.INTRA.norm>
0

>  <SCORE.RESTR>
0

>  <SCORE.RESTR.CAVITY>
0

>  <SCORE.RESTR.norm>
0

>  <SCORE.SYSTEM>
0

>  <SCORE.SYSTEM.CONST>
0

>  <SCORE.SYSTEM.DIHEDRAL>
0

>  <SCORE.SYSTEM.SOLV>
0

>  <SCORE.SYSTEM.norm>
0

>  <SCORE.heavy>
13

>  <SCORE.norm>
-0.631617

>  <RMSD>
5.326

$$$$
ligand
 OpenBabel11021811483D
libRbt.so/2013.1/901 2013/11/27
 13 14  0  0  0  0  0  0  0  0999 V2000
    7.3721   38.9210   72.2548 N   0  0  0  0  0  0  0  0  0  0  0  0
    8.7572   39.7282   70.5805 N   0  0  0  0  0  0  0  0  0  0  0  0
    7.6888   39.8762   71.3853 C   0  0  0  0  0  0  0  0  0  0  0  0
    6.8989   41.0224   71.3064 N   0  0  0  0  0  0  0  0  0  0  0  0
    7.2510   42.0110   70.3853 C   0  0  0  0  0  0  0  0  0  0  0  0
    8.3687   41.8399   69.5751 C   0  0  0  0  0  0  0  0  0  0  0  0
    6.5687   43.0303   70.2874 O   0  0  0  0  0  0  0  0  0  0  0  0
    8.6984   42.8178   68.6174 N   0  0  0  0  0  0  0  0  0  0  0  0
    9.9116   42.7158   67.7575 C   0  0  2  0  0  0  0  0  0  0  0  0
   10.2597   41.2323   67.5481 C   0  0  0  0  0  0  0  0  0  0  0  0
    9.1030   40.6673   69.6815 C   0  0  0  0  0  0  0  0  0  0  0  0
   10.2141   40.4816   68.8501 N   0  0  0  0  0  0  0  0  0  0  0  0
   11.0906   43.4393   68.4744 C   0  0  0  0  0  0  0  0  0  0  0  0
  1  3  1  0  0  0  0
  2  3  2  0  0  0  0
  2 11  1  0  0  0  0
  3  4  1  0  0  0  0
  4  5  1  0  0  0  0
  5  6  1  0  0  0  0
  5  7  2  0  0  0  0
  6  8  1  0  0  0  0
  6 11  2  0  0  0  0
  8  9  1  0  0  0  0
  9 10  1  0  0  0  0
  9 13  1  1  0  0  0
 10 12  1  0  0  0  0
 11 12  1  0  0  0  0
M  END
>  <CHROM.1>
8.63736244,41.40344824,69.73292846,-2.35587416,0.59609370,-0.46144520

>  <Name>
ligand

>  <RI>
0

>  <Rbt.Current_Directory>
/home/itssahil/PROJECTS/Mol_Feturizer/New_Systems/rnas/3SUX

>  <Rbt.Executable>
rbdock ($Id: //depot/dev/client3/rdock/2013.1/src/exe/rbdock.cxx#4 $)

>  <Rbt.Library>
libRbt.so (2013.1, Build901 2013/11/27)

>  <Rbt.Parameter_File>
/export/apps/rDock/src/rDock_2013.1_src/data/scripts/dock_solv.prm

>  <Rbt.Receptor>
prm/pocket_docking_5.prm

>  <SCORE>
-8.20872

>  <SCORE.INTER>
-8.20872

>  <SCORE.INTER.CONST>
1

>  <SCORE.INTER.POLAR>
0

>  <SCORE.INTER.ROT>
0

>  <SCORE.INTER.SOLV>
11.5557

>  <SCORE.INTER.VDW>
-12.9244

>  <SCORE.INTER.norm>
-0.63144

>  <SCORE.INTRA>
0

>  <SCORE.INTRA.DIHEDRAL>
0

>  <SCORE.INTRA.DIHEDRAL.0>
0

>  <SCORE.INTRA.POLAR>
0

>  <SCORE.INTRA.POLAR.0>
0

>  <SCORE.INTRA.REPUL>
0

>  <SCORE.INTRA.REPUL.0>
0

>  <SCORE.INTRA.SOLV>
0

>  <SCORE.INTRA.SOLV.lig_0>
-48.6608

>  <SCORE.INTRA.VDW>
0

>  <SCORE.INTRA.VDW.0>
0

>  <SCORE.INTRA.norm>
0

>  <SCORE.RESTR>
0

>  <SCORE.RESTR.CAVITY>
0

>  <SCORE.RESTR.norm>
0

>  <SCORE.SYSTEM>
0

>  <SCORE.SYSTEM.CONST>
0

>  <SCORE.SYSTEM.DIHEDRAL>
0

>  <SCORE.SYSTEM.SOLV>
0

>  <SCORE.SYSTEM.norm>
0

>  <SCORE.heavy>
13

>  <SCORE.norm>
-0.63144

>  <RMSD>
5.327

$$$$
ligand
 OpenBabel11021811483D
libRbt.so/2013.1/901 2013/11/27
 13 14  0  0  0  0  0  0  0  0999 V2000
    7.3699   38.9435   72.2568 N   0  0  0  0  0  0  0  0  0  0  0  0
    8.7646   39.7470   70.5887 N   0  0  0  0  0  0  0  0  0  0  0  0
    7.6858   39.8923   71.3801 C   0  0  0  0  0  0  0  0  0  0  0  0
    6.8844   41.0287   71.2795 N   0  0  0  0  0  0  0  0  0  0  0  0
    7.2359   42.0107   70.3512 C   0  0  0  0  0  0  0  0  0  0  0  0
    8.3643   41.8429   69.5552 C   0  0  0  0  0  0  0  0  0  0  0  0
    6.5437   43.0213   70.2342 O   0  0  0  0  0  0  0  0  0  0  0  0
    8.6939   42.8135   68.5901 N   0  0  0  0  0  0  0  0  0  0  0  0
    9.9175   42.7152   67.7448 C   0  0  2  0  0  0  0  0  0  0  0  0
   10.2840   41.2333   67.5560 C   0  0  0  0  0  0  0  0  0  0  0  0
    9.1101   40.6797   69.6829 C   0  0  0  0  0  0  0  0  0  0  0  0
   10.2322   40.4969   68.8659 N   0  0  0  0  0  0  0  0  0  0  0  0
   11.0806   43.4597   68.4662 C   0  0  0  0  0  0  0  0  0  0  0  0
  1  3  1  0  0  0  0
  2  3  2  0  0  0  0
  2 11  1  0  0  0  0
  3  4  1  0  0  0  0
  4  5  1  0  0  0  0
  5  6  1  0  0  0  0
  5  7  2  0  0  0  0
  6  8  1  0  0  0  0
  6 11  2  0  0  0  0
  8  9  1  0  0  0  0
  9 10  1  0  0  0  0
  9 13  1  1  0  0  0
 10 12  1  0  0  0  0
 11 12  1  0  0  0  0
M  END
>  <CHROM.1>
8.63587064,41.41121481,69.72088620,-2.35012542,0.58136129,-0.47592711

>  <Name>
ligand

>  <RI>
0

>  <Rbt.Current_Directory>
/home/itssahil/PROJECTS/Mol_Feturizer/New_Systems/rnas/3SUX

>  <Rbt.Executable>
rbdock ($Id: //depot/dev/client3/rdock/2013.1/src/exe/rbdock.cxx#4 $)

>  <Rbt.Library>
libRbt.so (2013.1, Build901 2013/11/27)

>  <Rbt.Parameter_File>
/export/apps/rDock/src/rDock_2013.1_src/data/scripts/dock_solv.prm

>  <Rbt.Receptor>
prm/pocket_docking_5.prm

>  <SCORE>
-8.20604

>  <SCORE.INTER>
-8.20604

>  <SCORE.INTER.CONST>
1

>  <SCORE.INTER.POLAR>
0

>  <SCORE.INTER.ROT>
0

>  <SCORE.INTER.SOLV>
11.6342

>  <SCORE.INTER.VDW>
-12.9488

>  <SCORE.INTER.norm>
-0.631234

>  <SCORE.INTRA>
0

>  <SCORE.INTRA.DIHEDRAL>
0

>  <SCORE.INTRA.DIHEDRAL.0>
0

>  <SCORE.INTRA.POLAR>
0

>  <SCORE.INTRA.POLAR.0>
0

>  <SCORE.INTRA.REPUL>
0

>  <SCORE.INTRA.REPUL.0>
0

>  <SCORE.INTRA.SOLV>
0

>  <SCORE.INTRA.SOLV.lig_0>
-48.6608

>  <SCORE.INTRA.VDW>
0

>  <SCORE.INTRA.VDW.0>
0

>  <SCORE.INTRA.norm>
0

>  <SCORE.RESTR>
0

>  <SCORE.RESTR.CAVITY>
0

>  <SCORE.RESTR.norm>
0

>  <SCORE.SYSTEM>
0

>  <SCORE.SYSTEM.CONST>
0

>  <SCORE.SYSTEM.DIHEDRAL>
0

>  <SCORE.SYSTEM.SOLV>
0

>  <SCORE.SYSTEM.norm>
0

>  <SCORE.heavy>
13

>  <SCORE.norm>
-0.631234

>  <RMSD>
5.327

$$$$
ligand
 OpenBabel11021811483D
libRbt.so/2013.1/901 2013/11/27
 13 14  0  0  0  0  0  0  0  0999 V2000
    7.3845   38.9234   72.2288 N   0  0  0  0  0  0  0  0  0  0  0  0
    8.7506   39.7705   70.5585 N   0  0  0  0  0  0  0  0  0  0  0  0
    7.6810   39.8913   71.3663 C   0  0  0  0  0  0  0  0  0  0  0  0
    6.8687   41.0224   71.2976 N   0  0  0  0  0  0  0  0  0  0  0  0
    7.1998   42.0248   70.3836 C   0  0  0  0  0  0  0  0  0  0  0  0
    8.3192   41.8819   69.5702 C   0  0  0  0  0  0  0  0  0  0  0  0
    6.4975   43.0313   70.2947 O   0  0  0  0  0  0  0  0  0  0  0  0
    8.6280   42.8734   68.6196 N   0  0  0  0  0  0  0  0  0  0  0  0
    9.8414   42.8018   67.7570 C   0  0  2  0  0  0  0  0  0  0  0  0
   10.2180   41.3270   67.5355 C   0  0  0  0  0  0  0  0  0  0  0  0
    9.0764   40.7231   69.6663 C   0  0  0  0  0  0  0  0  0  0  0  0
   10.1894   40.5656   68.8317 N   0  0  0  0  0  0  0  0  0  0  0  0
   11.0074   43.5427   68.4775 C   0  0  0  0  0  0  0  0  0  0  0  0
  1  3  1  0  0  0  0
  2  3  2  0  0  0  0
  2 11  1  0  0  0  0
  3  4  1  0  0  0  0
  4  5  1  0  0  0  0
  5  6  1  0  0  0  0
  5  7  2  0  0  0  0
  6  8  1  0  0  0  0
  6 11  2  0  0  0  0
  8  9  1  0  0  0  0
  9 10  1  0  0  0  0
  9 13  1  1  0  0  0
 10 12  1  0  0  0  0
 11 12  1  0  0  0  0
M  END
>  <CHROM.1>
8.59656354,41.44957518,69.72422137,-2.33389876,0.58889505,-0.46596121

>  <Name>
ligand

>  <RI>
0

>  <Rbt.Current_Directory>
/home/itssahil/PROJECTS/Mol_Feturizer/New_Systems/rnas/3SUX

>  <Rbt.Executable>
rbdock ($Id: //depot/dev/client3/rdock/2013.1/src/exe/rbdock.cxx#4 $)

>  <Rbt.Library>
libRbt.so (2013.1, Build901 2013/11/27)

>  <Rbt.Parameter_File>
/export/apps/rDock/src/rDock_2013.1_src/data/scripts/dock_solv.prm

>  <Rbt.Receptor>
prm/pocket_docking_5.prm

>  <SCORE>
-8.16279

>  <SCORE.INTER>
-8.16279

>  <SCORE.INTER.CONST>
1

>  <SCORE.INTER.POLAR>
0

>  <SCORE.INTER.ROT>
0

>  <SCORE.INTER.SOLV>
11.7118

>  <SCORE.INTER.VDW>
-12.9458

>  <SCORE.INTER.norm>
-0.627907

>  <SCORE.INTRA>
0

>  <SCORE.INTRA.DIHEDRAL>
0

>  <SCORE.INTRA.DIHEDRAL.0>
0

>  <SCORE.INTRA.POLAR>
0

>  <SCORE.INTRA.POLAR.0>
0

>  <SCORE.INTRA.REPUL>
0

>  <SCORE.INTRA.REPUL.0>
0

>  <SCORE.INTRA.SOLV>
0

>  <SCORE.INTRA.SOLV.lig_0>
-48.6608

>  <SCORE.INTRA.VDW>
0

>  <SCORE.INTRA.VDW.0>
0

>  <SCORE.INTRA.norm>
0

>  <SCORE.RESTR>
0

>  <SCORE.RESTR.CAVITY>
0

>  <SCORE.RESTR.norm>
0

>  <SCORE.SYSTEM>
0

>  <SCORE.SYSTEM.CONST>
0

>  <SCORE.SYSTEM.DIHEDRAL>
0

>  <SCORE.SYSTEM.SOLV>
0

>  <SCORE.SYSTEM.norm>
0

>  <SCORE.heavy>
13

>  <SCORE.norm>
-0.627907

>  <RMSD>
5.328

$$$$
ligand
 OpenBabel11021811483D
libRbt.so/2013.1/901 2013/11/27
 13 14  0  0  0  0  0  0  0  0999 V2000
    7.3662   38.9222   72.2535 N   0  0  0  0  0  0  0  0  0  0  0  0
    8.7556   39.7304   70.5832 N   0  0  0  0  0  0  0  0  0  0  0  0
    7.6848   39.8777   71.3850 C   0  0  0  0  0  0  0  0  0  0  0  0
    6.8943   41.0233   71.3039 N   0  0  0  0  0  0  0  0  0  0  0  0
    7.2484   42.0122   70.3838 C   0  0  0  0  0  0  0  0  0  0  0  0
    8.3686   41.8419   69.5768 C   0  0  0  0  0  0  0  0  0  0  0  0
    6.5658   43.0311   70.2840 O   0  0  0  0  0  0  0  0  0  0  0  0
    8.7004   42.8201   68.6201 N   0  0  0  0  0  0  0  0  0  0  0  0
    9.9161   42.7188   67.7637 C   0  0  2  0  0  0  0  0  0  0  0  0
   10.2657   41.2356   67.5552 C   0  0  0  0  0  0  0  0  0  0  0  0
    9.1034   40.6698   69.6853 C   0  0  0  0  0  0  0  0  0  0  0  0
   10.2169   40.4849   68.8570 N   0  0  0  0  0  0  0  0  0  0  0  0
   11.0926   43.4431   68.4839 C   0  0  0  0  0  0  0  0  0  0  0  0
  1  3  1  0  0  0  0
  2  3  2  0  0  0  0
  2 11  1  0  0  0  0
  3  4  1  0  0  0  0
  4  5  1  0  0  0  0
  5  6  1  0  0  0  0
  5  7  2  0  0  0  0
  6  8  1  0  0  0  0
  6 11  2  0  0  0  0
  8  9  1  0  0  0  0
  9 10  1  0  0  0  0
  9 13  1  1  0  0  0
 10 12  1  0  0  0  0
 11 12  1  0  0  0  0
M  END
>  <CHROM.1>
8.63705779,41.40562012,69.73535675,-2.35671747,0.59324094,-0.46093102

>  <Name>
ligand

>  <RI>
0

>  <Rbt.Current_Directory>
/home/itssahil/PROJECTS/Mol_Feturizer/New_Systems/rnas/3SUX

>  <Rbt.Executable>
rbdock ($Id: //depot/dev/client3/rdock/2013.1/src/exe/rbdock.cxx#4 $)

>  <Rbt.Library>
libRbt.so (2013.1, Build901 2013/11/27)

>  <Rbt.Parameter_File>
/export/apps/rDock/src/rDock_2013.1_src/data/scripts/dock_solv.prm

>  <Rbt.Receptor>
prm/pocket_docking_5.prm

>  <SCORE>
-8.21135

>  <SCORE.INTER>
-8.21135

>  <SCORE.INTER.CONST>
1

>  <SCORE.INTER.POLAR>
0

>  <SCORE.INTER.ROT>
0

>  <SCORE.INTER.SOLV>
11.5533

>  <SCORE.INTER.VDW>
-12.9253

>  <SCORE.INTER.norm>
-0.631642

>  <SCORE.INTRA>
0

>  <SCORE.INTRA.DIHEDRAL>
0

>  <SCORE.INTRA.DIHEDRAL.0>
0

>  <SCORE.INTRA.POLAR>
0

>  <SCORE.INTRA.POLAR.0>
0

>  <SCORE.INTRA.REPUL>
0

>  <SCORE.INTRA.REPUL.0>
0

>  <SCORE.INTRA.SOLV>
0

>  <SCORE.INTRA.SOLV.lig_0>
-48.6608

>  <SCORE.INTRA.VDW>
0

>  <SCORE.INTRA.VDW.0>
0

>  <SCORE.INTRA.norm>
0

>  <SCORE.RESTR>
0

>  <SCORE.RESTR.CAVITY>
0

>  <SCORE.RESTR.norm>
0

>  <SCORE.SYSTEM>
0

>  <SCORE.SYSTEM.CONST>
0

>  <SCORE.SYSTEM.DIHEDRAL>
0

>  <SCORE.SYSTEM.SOLV>
0

>  <SCORE.SYSTEM.norm>
0

>  <SCORE.heavy>
13

>  <SCORE.norm>
-0.631642

>  <RMSD>
5.328

$$$$
ligand
 OpenBabel11021811483D
libRbt.so/2013.1/901 2013/11/27
 13 14  0  0  0  0  0  0  0  0999 V2000
    7.3708   38.9412   72.2561 N   0  0  0  0  0  0  0  0  0  0  0  0
    8.7607   39.7464   70.5848 N   0  0  0  0  0  0  0  0  0  0  0  0
    7.6843   39.8909   71.3795 C   0  0  0  0  0  0  0  0  0  0  0  0
    6.8827   41.0276   71.2826 N   0  0  0  0  0  0  0  0  0  0  0  0
    7.2316   42.0106   70.3543 C   0  0  0  0  0  0  0  0  0  0  0  0
    8.3577   41.8436   69.5549 C   0  0  0  0  0  0  0  0  0  0  0  0
    6.5391   43.0214   70.2406 O   0  0  0  0  0  0  0  0  0  0  0  0
    8.6845   42.8152   68.5899 N   0  0  0  0  0  0  0  0  0  0  0  0
    9.9057   42.7177   67.7409 C   0  0  2  0  0  0  0  0  0  0  0  0
   10.2715   41.2360   67.5494 C   0  0  0  0  0  0  0  0  0  0  0  0
    9.1037   40.6801   69.6791 C   0  0  0  0  0  0  0  0  0  0  0  0
   10.2234   40.4981   68.8586 N   0  0  0  0  0  0  0  0  0  0  0  0
   11.0710   43.4612   68.4598 C   0  0  0  0  0  0  0  0  0  0  0  0
  1  3  1  0  0  0  0
  2  3  2  0  0  0  0
  2 11  1  0  0  0  0
  3  4  1  0  0  0  0
  4  5  1  0  0  0  0
  5  6  1  0  0  0  0
  5  7  2  0  0  0  0
  6  8  1  0  0  0  0
  6 11  2  0  0  0  0
  8  9  1  0  0  0  0
  9 10  1  0  0  0  0
  9 13  1  1  0  0  0
 10 12  1  0  0  0  0
 11 12  1  0  0  0  0
M  END
>  <CHROM.1>
8.62968389,41.41163539,69.71928703,-2.34863842,0.58400361,-0.47560821

>  <Name>
ligand

>  <RI>
0

>  <Rbt.Current_Directory>
/home/itssahil/PROJECTS/Mol_Feturizer/New_Systems/rnas/3SUX

>  <Rbt.Executable>
rbdock ($Id: //depot/dev/client3/rdock/2013.1/src/exe/rbdock.cxx#4 $)

>  <Rbt.Library>
libRbt.so (2013.1, Build901 2013/11/27)

>  <Rbt.Parameter_File>
/export/apps/rDock/src/rDock_2013.1_src/data/scripts/dock_solv.prm

>  <Rbt.Receptor>
prm/pocket_docking_5.prm

>  <SCORE>
-8.20944

>  <SCORE.INTER>
-8.20944

>  <SCORE.INTER.CONST>
1

>  <SCORE.INTER.POLAR>
0

>  <SCORE.INTER.ROT>
0

>  <SCORE.INTER.SOLV>
11.6626

>  <SCORE.INTER.VDW>
-12.9605

>  <SCORE.INTER.norm>
-0.631495

>  <SCORE.INTRA>
0

>  <SCORE.INTRA.DIHEDRAL>
0

>  <SCORE.INTRA.DIHEDRAL.0>
0

>  <SCORE.INTRA.POLAR>
0

>  <SCORE.INTRA.POLAR.0>
0

>  <SCORE.INTRA.REPUL>
0

>  <SCORE.INTRA.REPUL.0>
0

>  <SCORE.INTRA.SOLV>
0

>  <SCORE.INTRA.SOLV.lig_0>
-48.6608

>  <SCORE.INTRA.VDW>
0

>  <SCORE.INTRA.VDW.0>
0

>  <SCORE.INTRA.norm>
0

>  <SCORE.RESTR>
0

>  <SCORE.RESTR.CAVITY>
0

>  <SCORE.RESTR.norm>
0

>  <SCORE.SYSTEM>
0

>  <SCORE.SYSTEM.CONST>
0

>  <SCORE.SYSTEM.DIHEDRAL>
0

>  <SCORE.SYSTEM.SOLV>
0

>  <SCORE.SYSTEM.norm>
0

>  <SCORE.heavy>
13

>  <SCORE.norm>
-0.631495

>  <RMSD>
5.328

$$$$
ligand
 OpenBabel11021811483D
libRbt.so/2013.1/901 2013/11/27
 13 14  0  0  0  0  0  0  0  0999 V2000
    7.3675   38.9240   72.2580 N   0  0  0  0  0  0  0  0  0  0  0  0
    8.7559   39.7321   70.5868 N   0  0  0  0  0  0  0  0  0  0  0  0
    7.6847   39.8788   71.3882 C   0  0  0  0  0  0  0  0  0  0  0  0
    6.8925   41.0231   71.3055 N   0  0  0  0  0  0  0  0  0  0  0  0
    7.2452   42.0113   70.3841 C   0  0  0  0  0  0  0  0  0  0  0  0
    8.3657   41.8416   69.5774 C   0  0  0  0  0  0  0  0  0  0  0  0
    6.5609   43.0289   70.2828 O   0  0  0  0  0  0  0  0  0  0  0  0
    8.6961   42.8190   68.6194 N   0  0  0  0  0  0  0  0  0  0  0  0
    9.9121   42.7185   67.7634 C   0  0  2  0  0  0  0  0  0  0  0  0
   10.2641   41.2355   67.5570 C   0  0  0  0  0  0  0  0  0  0  0  0
    9.1023   40.6708   69.6876 C   0  0  0  0  0  0  0  0  0  0  0  0
   10.2162   40.4865   68.8598 N   0  0  0  0  0  0  0  0  0  0  0  0
   11.0874   43.4456   68.4828 C   0  0  0  0  0  0  0  0  0  0  0  0
  1  3  1  0  0  0  0
  2  3  2  0  0  0  0
  2 11  1  0  0  0  0
  3  4  1  0  0  0  0
  4  5  1  0  0  0  0
  5  6  1  0  0  0  0
  5  7  2  0  0  0  0
  6  8  1  0  0  0  0
  6 11  2  0  0  0  0
  8  9  1  0  0  0  0
  9 10  1  0  0  0  0
  9 13  1  1  0  0  0
 10 12  1  0  0  0  0
 11 12  1  0  0  0  0
M  END
>  <CHROM.1>
8.63482801,41.40595110,69.73665751,-2.35510877,0.59242690,-0.46319204

>  <Name>
ligand

>  <RI>
0

>  <Rbt.Current_Directory>
/home/itssahil/PROJECTS/Mol_Feturizer/New_Systems/rnas/3SUX

>  <Rbt.Executable>
rbdock ($Id: //depot/dev/client3/rdock/2013.1/src/exe/rbdock.cxx#4 $)

>  <Rbt.Library>
libRbt.so (2013.1, Build901 2013/11/27)

>  <Rbt.Parameter_File>
/export/apps/rDock/src/rDock_2013.1_src/data/scripts/dock_solv.prm

>  <Rbt.Receptor>
prm/pocket_docking_8.prm

>  <SCORE>
-8.2127

>  <SCORE.INTER>
-8.2127

>  <SCORE.INTER.CONST>
1

>  <SCORE.INTER.POLAR>
0

>  <SCORE.INTER.ROT>
0

>  <SCORE.INTER.SOLV>
11.5364

>  <SCORE.INTER.VDW>
-12.9206

>  <SCORE.INTER.norm>
-0.631746

>  <SCORE.INTRA>
0

>  <SCORE.INTRA.DIHEDRAL>
0

>  <SCORE.INTRA.DIHEDRAL.0>
0

>  <SCORE.INTRA.POLAR>
0

>  <SCORE.INTRA.POLAR.0>
0

>  <SCORE.INTRA.REPUL>
0

>  <SCORE.INTRA.REPUL.0>
0

>  <SCORE.INTRA.SOLV>
0

>  <SCORE.INTRA.SOLV.lig_0>
-48.6608

>  <SCORE.INTRA.VDW>
0

>  <SCORE.INTRA.VDW.0>
0

>  <SCORE.INTRA.norm>
0

>  <SCORE.RESTR>
0

>  <SCORE.RESTR.CAVITY>
0

>  <SCORE.RESTR.norm>
0

>  <SCORE.SYSTEM>
0

>  <SCORE.SYSTEM.CONST>
0

>  <SCORE.SYSTEM.DIHEDRAL>
0

>  <SCORE.SYSTEM.SOLV>
0

>  <SCORE.SYSTEM.norm>
0

>  <SCORE.heavy>
13

>  <SCORE.norm>
-0.631746

>  <RMSD>
5.329

$$$$
ligand
 OpenBabel11021811483D
libRbt.so/2013.1/901 2013/11/27
 13 14  0  0  0  0  0  0  0  0999 V2000
    7.3644   38.9249   72.2588 N   0  0  0  0  0  0  0  0  0  0  0  0
    8.7508   39.7318   70.5854 N   0  0  0  0  0  0  0  0  0  0  0  0
    7.6816   39.8797   71.3892 C   0  0  0  0  0  0  0  0  0  0  0  0
    6.8913   41.0256   71.3090 N   0  0  0  0  0  0  0  0  0  0  0  0
    7.2438   42.0139   70.3877 C   0  0  0  0  0  0  0  0  0  0  0  0
    8.3624   41.8429   69.5786 C   0  0  0  0  0  0  0  0  0  0  0  0
    6.5612   43.0328   70.2887 O   0  0  0  0  0  0  0  0  0  0  0  0
    8.6925   42.8204   68.6207 N   0  0  0  0  0  0  0  0  0  0  0  0
    9.9065   42.7184   67.7620 C   0  0  2  0  0  0  0  0  0  0  0  0
   10.2554   41.2349   67.5537 C   0  0  0  0  0  0  0  0  0  0  0  0
    9.0970   40.6706   69.6863 C   0  0  0  0  0  0  0  0  0  0  0  0
   10.2089   40.4849   68.8560 N   0  0  0  0  0  0  0  0  0  0  0  0
   11.0846   43.4428   68.4796 C   0  0  0  0  0  0  0  0  0  0  0  0
  1  3  1  0  0  0  0
  2  3  2  0  0  0  0
  2 11  1  0  0  0  0
  3  4  1  0  0  0  0
  4  5  1  0  0  0  0
  5  6  1  0  0  0  0
  5  7  2  0  0  0  0
  6  8  1  0  0  0  0
  6 11  2  0  0  0  0
  8  9  1  0  0  0  0
  9 10  1  0  0  0  0
  9 13  1  1  0  0  0
 10 12  1  0  0  0  0
 11 12  1  0  0  0  0
M  END
>  <CHROM.1>
8.63101219,41.40656834,69.73689104,-2.35595148,0.59509670,-0.46189452

>  <Name>
ligand

>  <RI>
0

>  <Rbt.Current_Directory>
/home/itssahil/PROJECTS/Mol_Feturizer/New_Systems/rnas/3SUX

>  <Rbt.Executable>
rbdock ($Id: //depot/dev/client3/rdock/2013.1/src/exe/rbdock.cxx#4 $)

>  <Rbt.Library>
libRbt.so (2013.1, Build901 2013/11/27)

>  <Rbt.Parameter_File>
/export/apps/rDock/src/rDock_2013.1_src/data/scripts/dock_solv.prm

>  <Rbt.Receptor>
prm/pocket_docking_5.prm

>  <SCORE>
-8.21264

>  <SCORE.INTER>
-8.21264

>  <SCORE.INTER.CONST>
1

>  <SCORE.INTER.POLAR>
0

>  <SCORE.INTER.ROT>
0

>  <SCORE.INTER.SOLV>
11.5527

>  <SCORE.INTER.VDW>
-12.926

>  <SCORE.INTER.norm>
-0.631742

>  <SCORE.INTRA>
0

>  <SCORE.INTRA.DIHEDRAL>
0

>  <SCORE.INTRA.DIHEDRAL.0>
0

>  <SCORE.INTRA.POLAR>
0

>  <SCORE.INTRA.POLAR.0>
0

>  <SCORE.INTRA.REPUL>
0

>  <SCORE.INTRA.REPUL.0>
0

>  <SCORE.INTRA.SOLV>
0

>  <SCORE.INTRA.SOLV.lig_0>
-48.6608

>  <SCORE.INTRA.VDW>
0

>  <SCORE.INTRA.VDW.0>
0

>  <SCORE.INTRA.norm>
0

>  <SCORE.RESTR>
0

>  <SCORE.RESTR.CAVITY>
0

>  <SCORE.RESTR.norm>
0

>  <SCORE.SYSTEM>
0

>  <SCORE.SYSTEM.CONST>
0

>  <SCORE.SYSTEM.DIHEDRAL>
0

>  <SCORE.SYSTEM.SOLV>
0

>  <SCORE.SYSTEM.norm>
0

>  <SCORE.heavy>
13

>  <SCORE.norm>
-0.631742

>  <RMSD>
5.330

$$$$
ligand
 OpenBabel11021811483D
libRbt.so/2013.1/901 2013/11/27
 13 14  0  0  0  0  0  0  0  0999 V2000
    7.3759   38.9194   72.2354 N   0  0  0  0  0  0  0  0  0  0  0  0
    8.7446   39.7620   70.5649 N   0  0  0  0  0  0  0  0  0  0  0  0
    7.6742   39.8853   71.3712 C   0  0  0  0  0  0  0  0  0  0  0  0
    6.8629   41.0170   71.2994 N   0  0  0  0  0  0  0  0  0  0  0  0
    7.1959   42.0173   70.3838 C   0  0  0  0  0  0  0  0  0  0  0  0
    8.3161   41.8718   69.5719 C   0  0  0  0  0  0  0  0  0  0  0  0
    6.4946   43.0242   70.2921 O   0  0  0  0  0  0  0  0  0  0  0  0
    8.6268   42.8611   68.6197 N   0  0  0  0  0  0  0  0  0  0  0  0
    9.8410   42.7867   67.7585 C   0  0  2  0  0  0  0  0  0  0  0  0
   10.2166   41.3111   67.5404 C   0  0  0  0  0  0  0  0  0  0  0  0
    9.0722   40.7125   69.6712 C   0  0  0  0  0  0  0  0  0  0  0  0
   10.1859   40.5523   68.8381 N   0  0  0  0  0  0  0  0  0  0  0  0
   11.0069   43.5280   68.4788 C   0  0  0  0  0  0  0  0  0  0  0  0
  1  3  1  0  0  0  0
  2  3  2  0  0  0  0
  2 11  1  0  0  0  0
  3  4  1  0  0  0  0
  4  5  1  0  0  0  0
  5  6  1  0  0  0  0
  5  7  2  0  0  0  0
  6  8  1  0  0  0  0
  6 11  2  0  0  0  0
  8  9  1  0  0  0  0
  9 10  1  0  0  0  0
  9 13  1  1  0  0  0
 10 12  1  0  0  0  0
 11 12  1  0  0  0  0
M  END
>  <CHROM.1>
8.59290277,41.43949654,69.72707813,-2.33542745,0.58831321,-0.46711477

>  <Name>
ligand

>  <RI>
0

>  <Rbt.Current_Directory>
/home/itssahil/PROJECTS/Mol_Feturizer/New_Systems/rnas/3SUX

>  <Rbt.Executable>
rbdock ($Id: //depot/dev/client3/rdock/2013.1/src/exe/rbdock.cxx#4 $)

>  <Rbt.Library>
libRbt.so (2013.1, Build901 2013/11/27)

>  <Rbt.Parameter_File>
/export/apps/rDock/src/rDock_2013.1_src/data/scripts/dock_solv.prm

>  <Rbt.Receptor>
prm/pocket_docking_5.prm

>  <SCORE>
-8.16346

>  <SCORE.INTER>
-8.16346

>  <SCORE.INTER.CONST>
1

>  <SCORE.INTER.POLAR>
0

>  <SCORE.INTER.ROT>
0

>  <SCORE.INTER.SOLV>
11.7173

>  <SCORE.INTER.VDW>
-12.9481

>  <SCORE.INTER.norm>
-0.627958

>  <SCORE.INTRA>
0

>  <SCORE.INTRA.DIHEDRAL>
0

>  <SCORE.INTRA.DIHEDRAL.0>
0

>  <SCORE.INTRA.POLAR>
0

>  <SCORE.INTRA.POLAR.0>
0

>  <SCORE.INTRA.REPUL>
0

>  <SCORE.INTRA.REPUL.0>
0

>  <SCORE.INTRA.SOLV>
0

>  <SCORE.INTRA.SOLV.lig_0>
-48.6608

>  <SCORE.INTRA.VDW>
0

>  <SCORE.INTRA.VDW.0>
0

>  <SCORE.INTRA.norm>
0

>  <SCORE.RESTR>
0

>  <SCORE.RESTR.CAVITY>
0

>  <SCORE.RESTR.norm>
0

>  <SCORE.SYSTEM>
0

>  <SCORE.SYSTEM.CONST>
0

>  <SCORE.SYSTEM.DIHEDRAL>
0

>  <SCORE.SYSTEM.SOLV>
0

>  <SCORE.SYSTEM.norm>
0

>  <SCORE.heavy>
13

>  <SCORE.norm>
-0.627958

>  <RMSD>
5.334

$$$$
ligand
 OpenBabel11021811483D
libRbt.so/2013.1/901 2013/11/27
 13 14  0  0  0  0  0  0  0  0999 V2000
    8.3793   37.2006   72.0648 N   0  0  0  0  0  0  0  0  0  0  0  0
    8.2531   39.0657   70.6940 N   0  0  0  0  0  0  0  0  0  0  0  0
    8.9635   38.2513   71.4961 C   0  0  0  0  0  0  0  0  0  0  0  0
   10.3106   38.5079   71.7481 N   0  0  0  0  0  0  0  0  0  0  0  0
   10.9016   39.6173   71.1402 C   0  0  0  0  0  0  0  0  0  0  0  0
   10.1488   40.4351   70.3038 C   0  0  0  0  0  0  0  0  0  0  0  0
   12.0867   39.8738   71.3497 O   0  0  0  0  0  0  0  0  0  0  0  0
   10.7343   41.5773   69.7252 N   0  0  0  0  0  0  0  0  0  0  0  0
    9.9947   42.4616   68.7805 C   0  0  2  0  0  0  0  0  0  0  0  0
    8.4919   42.4011   69.1025 C   0  0  0  0  0  0  0  0  0  0  0  0
    8.8061   40.1437   70.1094 C   0  0  0  0  0  0  0  0  0  0  0  0
    8.0399   40.9791   69.2876 N   0  0  0  0  0  0  0  0  0  0  0  0
   10.2450   41.9564   67.3281 C   0  0  0  0  0  0  0  0  0  0  0  0
  1  3  1  0  0  0  0
  2  3  2  0  0  0  0
  2 11  1  0  0  0  0
  3  4  1  0  0  0  0
  4  5  1  0  0  0  0
  5  6  1  0  0  0  0
  5  7  2  0  0  0  0
  6  8  1  0  0  0  0
  6 11  2  0  0  0  0
  8  9  1  0  0  0  0
  9 10  1  0  0  0  0
  9 13  1  6  0  0  0
 10 12  1  0  0  0  0
 11 12  1  0  0  0  0
M  END
>  <CHROM.1>
9.66896703,40.21050229,70.22073089,1.62747673,0.20252835,2.44590253

>  <Name>
ligand

>  <RI>
0

>  <Rbt.Current_Directory>
/home/itssahil/PROJECTS/Mol_Feturizer/New_Systems/rnas/3SUX

>  <Rbt.Executable>
rbdock ($Id: //depot/dev/client3/rdock/2013.1/src/exe/rbdock.cxx#4 $)

>  <Rbt.Library>
libRbt.so (2013.1, Build901 2013/11/27)

>  <Rbt.Parameter_File>
/export/apps/rDock/src/rDock_2013.1_src/data/scripts/dock_solv.prm

>  <Rbt.Receptor>
prm/pocket_docking_6.prm

>  <SCORE>
-6.48608

>  <SCORE.INTER>
-6.48608

>  <SCORE.INTER.CONST>
1

>  <SCORE.INTER.POLAR>
0

>  <SCORE.INTER.ROT>
0

>  <SCORE.INTER.SOLV>
6.74187

>  <SCORE.INTER.VDW>
-10.1713

>  <SCORE.INTER.norm>
-0.498929

>  <SCORE.INTRA>
0

>  <SCORE.INTRA.DIHEDRAL>
0

>  <SCORE.INTRA.DIHEDRAL.0>
0

>  <SCORE.INTRA.POLAR>
0

>  <SCORE.INTRA.POLAR.0>
0

>  <SCORE.INTRA.REPUL>
0

>  <SCORE.INTRA.REPUL.0>
0

>  <SCORE.INTRA.SOLV>
0

>  <SCORE.INTRA.SOLV.lig_0>
-48.6608

>  <SCORE.INTRA.VDW>
0

>  <SCORE.INTRA.VDW.0>
0

>  <SCORE.INTRA.norm>
0

>  <SCORE.RESTR>
0

>  <SCORE.RESTR.CAVITY>
0

>  <SCORE.RESTR.norm>
0

>  <SCORE.SYSTEM>
0

>  <SCORE.SYSTEM.CONST>
0

>  <SCORE.SYSTEM.DIHEDRAL>
0

>  <SCORE.SYSTEM.SOLV>
0

>  <SCORE.SYSTEM.norm>
0

>  <SCORE.heavy>
13

>  <SCORE.norm>
-0.498929

>  <RMSD>
5.336

$$$$
ligand
 OpenBabel11021811483D
libRbt.so/2013.1/901 2013/11/27
 13 14  0  0  0  0  0  0  0  0999 V2000
    8.2984   37.0783   72.0384 N   0  0  0  0  0  0  0  0  0  0  0  0
    8.1434   39.0089   70.7646 N   0  0  0  0  0  0  0  0  0  0  0  0
    8.8749   38.1457   71.4933 C   0  0  0  0  0  0  0  0  0  0  0  0
   10.2365   38.3685   71.6942 N   0  0  0  0  0  0  0  0  0  0  0  0
   10.8191   39.4963   71.1125 C   0  0  0  0  0  0  0  0  0  0  0  0
   10.0437   40.3652   70.3516 C   0  0  0  0  0  0  0  0  0  0  0  0
   12.0170   39.7235   71.2784 O   0  0  0  0  0  0  0  0  0  0  0  0
   10.6227   41.5243   69.8010 N   0  0  0  0  0  0  0  0  0  0  0  0
    9.8568   42.4647   68.9346 C   0  0  2  0  0  0  0  0  0  0  0  0
    8.3694   42.4126   69.3230 C   0  0  0  0  0  0  0  0  0  0  0  0
    8.6885   40.1048   70.2064 C   0  0  0  0  0  0  0  0  0  0  0  0
    7.9007   40.9907   69.4616 N   0  0  0  0  0  0  0  0  0  0  0  0
   10.0311   42.0258   67.4498 C   0  0  0  0  0  0  0  0  0  0  0  0
  1  3  1  0  0  0  0
  2  3  2  0  0  0  0
  2 11  1  0  0  0  0
  3  4  1  0  0  0  0
  4  5  1  0  0  0  0
  5  6  1  0  0  0  0
  5  7  2  0  0  0  0
  6  8  1  0  0  0  0
  6 11  2  0  0  0  0
  8  9  1  0  0  0  0
  9 10  1  0  0  0  0
  9 13  1  6  0  0  0
 10 12  1  0  0  0  0
 11 12  1  0  0  0  0
M  END
>  <CHROM.1>
9.55660542,40.15244831,70.28048376,1.61184108,0.15575245,2.49636253

>  <Name>
ligand

>  <RI>
0

>  <Rbt.Current_Directory>
/home/itssahil/PROJECTS/Mol_Feturizer/New_Systems/rnas/3SUX

>  <Rbt.Executable>
rbdock ($Id: //depot/dev/client3/rdock/2013.1/src/exe/rbdock.cxx#4 $)

>  <Rbt.Library>
libRbt.so (2013.1, Build901 2013/11/27)

>  <Rbt.Parameter_File>
/export/apps/rDock/src/rDock_2013.1_src/data/scripts/dock_solv.prm

>  <Rbt.Receptor>
prm/pocket_docking_7.prm

>  <SCORE>
-6.51491

>  <SCORE.INTER>
-6.51491

>  <SCORE.INTER.CONST>
1

>  <SCORE.INTER.POLAR>
0

>  <SCORE.INTER.ROT>
0

>  <SCORE.INTER.SOLV>
6.66237

>  <SCORE.INTER.VDW>
-10.1641

>  <SCORE.INTER.norm>
-0.501147

>  <SCORE.INTRA>
0

>  <SCORE.INTRA.DIHEDRAL>
0

>  <SCORE.INTRA.DIHEDRAL.0>
0

>  <SCORE.INTRA.POLAR>
0

>  <SCORE.INTRA.POLAR.0>
0

>  <SCORE.INTRA.REPUL>
0

>  <SCORE.INTRA.REPUL.0>
0

>  <SCORE.INTRA.SOLV>
0

>  <SCORE.INTRA.SOLV.lig_0>
-48.6608

>  <SCORE.INTRA.VDW>
0

>  <SCORE.INTRA.VDW.0>
0

>  <SCORE.INTRA.norm>
0

>  <SCORE.RESTR>
0

>  <SCORE.RESTR.CAVITY>
0

>  <SCORE.RESTR.norm>
0

>  <SCORE.SYSTEM>
0

>  <SCORE.SYSTEM.CONST>
0

>  <SCORE.SYSTEM.DIHEDRAL>
0

>  <SCORE.SYSTEM.SOLV>
0

>  <SCORE.SYSTEM.norm>
0

>  <SCORE.heavy>
13

>  <SCORE.norm>
-0.501147

>  <RMSD>
5.405

$$$$
ligand
 OpenBabel11021811483D
libRbt.so/2013.1/901 2013/11/27
 13 14  0  0  0  0  0  0  0  0999 V2000
    8.1869   38.1815   72.3198 N   0  0  0  0  0  0  0  0  0  0  0  0
    9.2418   39.3385   70.6103 N   0  0  0  0  0  0  0  0  0  0  0  0
    8.2451   39.2338   71.5086 C   0  0  0  0  0  0  0  0  0  0  0  0
    7.2602   40.2175   71.5881 N   0  0  0  0  0  0  0  0  0  0  0  0
    7.3423   41.3124   70.7255 C   0  0  0  0  0  0  0  0  0  0  0  0
    8.3909   41.4039   69.8159 C   0  0  0  0  0  0  0  0  0  0  0  0
    6.4836   42.1927   70.7669 O   0  0  0  0  0  0  0  0  0  0  0  0
    8.4494   42.4866   68.9179 N   0  0  0  0  0  0  0  0  0  0  0  0
    9.5745   42.6666   67.9570 C   0  0  2  0  0  0  0  0  0  0  0  0
   10.1593   41.2896   67.5993 C   0  0  0  0  0  0  0  0  0  0  0  0
    9.3286   40.3822   69.7661 C   0  0  0  0  0  0  0  0  0  0  0  0
   10.3712   40.4595   68.8349 N   0  0  0  0  0  0  0  0  0  0  0  0
   10.6686   43.5463   68.6326 C   0  0  0  0  0  0  0  0  0  0  0  0
  1  3  1  0  0  0  0
  2  3  2  0  0  0  0
  2 11  1  0  0  0  0
  3  4  1  0  0  0  0
  4  5  1  0  0  0  0
  5  6  1  0  0  0  0
  5  7  2  0  0  0  0
  6  8  1  0  0  0  0
  6 11  2  0  0  0  0
  8  9  1  0  0  0  0
  9 10  1  0  0  0  0
  9 13  1  1  0  0  0
 10 12  1  0  0  0  0
 11 12  1  0  0  0  0
M  END
>  <CHROM.1>
8.74648000,41.01495046,69.91521168,-2.11161801,0.58784637,-0.52358447

>  <Name>
ligand

>  <RI>
0

>  <Rbt.Current_Directory>
/home/itssahil/PROJECTS/Mol_Feturizer/New_Systems/rnas/3SUX

>  <Rbt.Executable>
rbdock ($Id: //depot/dev/client3/rdock/2013.1/src/exe/rbdock.cxx#4 $)

>  <Rbt.Library>
libRbt.so (2013.1, Build901 2013/11/27)

>  <Rbt.Parameter_File>
/export/apps/rDock/src/rDock_2013.1_src/data/scripts/dock_solv.prm

>  <Rbt.Receptor>
prm/pocket_docking_6.prm

>  <SCORE>
-7.98895

>  <SCORE.INTER>
-7.98895

>  <SCORE.INTER.CONST>
1

>  <SCORE.INTER.POLAR>
0

>  <SCORE.INTER.ROT>
0

>  <SCORE.INTER.SOLV>
9.65042

>  <SCORE.INTER.VDW>
-12.1428

>  <SCORE.INTER.norm>
-0.614534

>  <SCORE.INTRA>
0

>  <SCORE.INTRA.DIHEDRAL>
0

>  <SCORE.INTRA.DIHEDRAL.0>
0

>  <SCORE.INTRA.POLAR>
0

>  <SCORE.INTRA.POLAR.0>
0

>  <SCORE.INTRA.REPUL>
0

>  <SCORE.INTRA.REPUL.0>
0

>  <SCORE.INTRA.SOLV>
0

>  <SCORE.INTRA.SOLV.lig_0>
-48.6608

>  <SCORE.INTRA.VDW>
0

>  <SCORE.INTRA.VDW.0>
0

>  <SCORE.INTRA.norm>
0

>  <SCORE.RESTR>
0

>  <SCORE.RESTR.CAVITY>
0

>  <SCORE.RESTR.norm>
0

>  <SCORE.SYSTEM>
0

>  <SCORE.SYSTEM.CONST>
0

>  <SCORE.SYSTEM.DIHEDRAL>
0

>  <SCORE.SYSTEM.SOLV>
0

>  <SCORE.SYSTEM.norm>
0

>  <SCORE.heavy>
13

>  <SCORE.norm>
-0.614534

>  <RMSD>
5.434

$$$$
ligand
 OpenBabel11021811483D
libRbt.so/2013.1/901 2013/11/27
 13 14  0  0  0  0  0  0  0  0999 V2000
    7.3558   38.5759   72.3735 N   0  0  0  0  0  0  0  0  0  0  0  0
    8.6680   39.5049   70.7035 N   0  0  0  0  0  0  0  0  0  0  0  0
    7.6214   39.5826   71.5460 C   0  0  0  0  0  0  0  0  0  0  0  0
    6.8007   40.7097   71.5501 N   0  0  0  0  0  0  0  0  0  0  0  0
    7.0993   41.7534   70.6718 C   0  0  0  0  0  0  0  0  0  0  0  0
    8.1956   41.6542   69.8213 C   0  0  0  0  0  0  0  0  0  0  0  0
    6.3888   42.7577   70.6471 O   0  0  0  0  0  0  0  0  0  0  0  0
    8.4709   42.6884   68.9065 N   0  0  0  0  0  0  0  0  0  0  0  0
    9.6593   42.6631   68.0073 C   0  0  2  0  0  0  0  0  0  0  0  0
   10.0382   41.2022   67.7108 C   0  0  0  0  0  0  0  0  0  0  0  0
    8.9622   40.4978   69.8449 C   0  0  0  0  0  0  0  0  0  0  0  0
   10.0516   40.3848   68.9727 N   0  0  0  0  0  0  0  0  0  0  0  0
   10.8411   43.3804   68.7259 C   0  0  0  0  0  0  0  0  0  0  0  0
  1  3  1  0  0  0  0
  2  3  2  0  0  0  0
  2 11  1  0  0  0  0
  3  4  1  0  0  0  0
  4  5  1  0  0  0  0
  5  6  1  0  0  0  0
  5  7  2  0  0  0  0
  6  8  1  0  0  0  0
  6 11  2  0  0  0  0
  8  9  1  0  0  0  0
  9 10  1  0  0  0  0
  9 13  1  1  0  0  0
 10 12  1  0  0  0  0
 11 12  1  0  0  0  0
M  END
>  <CHROM.1>
8.47989005,41.21753226,69.94821891,-2.31151871,0.61187469,-0.43491062

>  <Name>
ligand

>  <RI>
0

>  <Rbt.Current_Directory>
/home/itssahil/PROJECTS/Mol_Feturizer/New_Systems/rnas/3SUX

>  <Rbt.Executable>
rbdock ($Id: //depot/dev/client3/rdock/2013.1/src/exe/rbdock.cxx#4 $)

>  <Rbt.Library>
libRbt.so (2013.1, Build901 2013/11/27)

>  <Rbt.Parameter_File>
/export/apps/rDock/src/rDock_2013.1_src/data/scripts/dock_solv.prm

>  <Rbt.Receptor>
prm/pocket_docking_7.prm

>  <SCORE>
-8.10737

>  <SCORE.INTER>
-8.10737

>  <SCORE.INTER.CONST>
1

>  <SCORE.INTER.POLAR>
0

>  <SCORE.INTER.ROT>
0

>  <SCORE.INTER.SOLV>
10.6026

>  <SCORE.INTER.VDW>
-12.5391

>  <SCORE.INTER.norm>
-0.623644

>  <SCORE.INTRA>
0

>  <SCORE.INTRA.DIHEDRAL>
0

>  <SCORE.INTRA.DIHEDRAL.0>
0

>  <SCORE.INTRA.POLAR>
0

>  <SCORE.INTRA.POLAR.0>
0

>  <SCORE.INTRA.REPUL>
0

>  <SCORE.INTRA.REPUL.0>
0

>  <SCORE.INTRA.SOLV>
0

>  <SCORE.INTRA.SOLV.lig_0>
-48.6608

>  <SCORE.INTRA.VDW>
0

>  <SCORE.INTRA.VDW.0>
0

>  <SCORE.INTRA.norm>
0

>  <SCORE.RESTR>
0

>  <SCORE.RESTR.CAVITY>
0

>  <SCORE.RESTR.norm>
0

>  <SCORE.SYSTEM>
0

>  <SCORE.SYSTEM.CONST>
0

>  <SCORE.SYSTEM.DIHEDRAL>
0

>  <SCORE.SYSTEM.SOLV>
0

>  <SCORE.SYSTEM.norm>
0

>  <SCORE.heavy>
13

>  <SCORE.norm>
-0.623644

>  <RMSD>
5.499

$$$$
ligand
 OpenBabel11021811483D
libRbt.so/2013.1/901 2013/11/27
 13 14  0  0  0  0  0  0  0  0999 V2000
    5.9934   42.5115   73.5833 N   0  0  0  0  0  0  0  0  0  0  0  0
    7.1064   41.7728   71.6887 N   0  0  0  0  0  0  0  0  0  0  0  0
    6.5865   42.7742   72.4223 C   0  0  0  0  0  0  0  0  0  0  0  0
    6.6527   44.0905   71.9674 N   0  0  0  0  0  0  0  0  0  0  0  0
    7.2796   44.3414   70.7452 C   0  0  0  0  0  0  0  0  0  0  0  0
    7.8218   43.2900   70.0132 C   0  0  0  0  0  0  0  0  0  0  0  0
    7.3468   45.4919   70.3141 O   0  0  0  0  0  0  0  0  0  0  0  0
    8.4160   43.5386   68.7613 N   0  0  0  0  0  0  0  0  0  0  0  0
    9.0595   42.4624   67.9555 C   0  0  2  0  0  0  0  0  0  0  0  0
    8.3827   41.1185   68.2744 C   0  0  0  0  0  0  0  0  0  0  0  0
    7.7044   41.9977   70.5050 C   0  0  0  0  0  0  0  0  0  0  0  0
    8.2275   40.9349   69.7586 N   0  0  0  0  0  0  0  0  0  0  0  0
   10.5700   42.3960   68.3319 C   0  0  0  0  0  0  0  0  0  0  0  0
  1  3  1  0  0  0  0
  2  3  2  0  0  0  0
  2 11  1  0  0  0  0
  3  4  1  0  0  0  0
  4  5  1  0  0  0  0
  5  6  1  0  0  0  0
  5  7  2  0  0  0  0
  6  8  1  0  0  0  0
  6 11  2  0  0  0  0
  8  9  1  0  0  0  0
  9 10  1  0  0  0  0
  9 13  1  1  0  0  0
 10 12  1  0  0  0  0
 11 12  1  0  0  0  0
M  END
>  <CHROM.1>
7.80442444,42.84164758,70.30689937,3.04985475,0.98727928,-0.15599724

>  <Name>
ligand

>  <RI>
0

>  <Rbt.Current_Directory>
/home/itssahil/PROJECTS/Mol_Feturizer/New_Systems/rnas/3SUX

>  <Rbt.Executable>
rbdock ($Id: //depot/dev/client3/rdock/2013.1/src/exe/rbdock.cxx#4 $)

>  <Rbt.Library>
libRbt.so (2013.1, Build901 2013/11/27)

>  <Rbt.Parameter_File>
/export/apps/rDock/src/rDock_2013.1_src/data/scripts/dock_solv.prm

>  <Rbt.Receptor>
prm/pocket_docking_4.prm

>  <SCORE>
-5.79357

>  <SCORE.INTER>
-5.79357

>  <SCORE.INTER.CONST>
1

>  <SCORE.INTER.POLAR>
0

>  <SCORE.INTER.ROT>
0

>  <SCORE.INTER.SOLV>
9.72992

>  <SCORE.INTER.VDW>
-10.7057

>  <SCORE.INTER.norm>
-0.445659

>  <SCORE.INTRA>
0

>  <SCORE.INTRA.DIHEDRAL>
0

>  <SCORE.INTRA.DIHEDRAL.0>
0

>  <SCORE.INTRA.POLAR>
0

>  <SCORE.INTRA.POLAR.0>
0

>  <SCORE.INTRA.REPUL>
0

>  <SCORE.INTRA.REPUL.0>
0

>  <SCORE.INTRA.SOLV>
0

>  <SCORE.INTRA.SOLV.lig_0>
-48.6608

>  <SCORE.INTRA.VDW>
0

>  <SCORE.INTRA.VDW.0>
0

>  <SCORE.INTRA.norm>
0

>  <SCORE.RESTR>
0

>  <SCORE.RESTR.CAVITY>
0

>  <SCORE.RESTR.norm>
0

>  <SCORE.SYSTEM>
0

>  <SCORE.SYSTEM.CONST>
0

>  <SCORE.SYSTEM.DIHEDRAL>
0

>  <SCORE.SYSTEM.SOLV>
0

>  <SCORE.SYSTEM.norm>
0

>  <SCORE.heavy>
13

>  <SCORE.norm>
-0.445659

>  <RMSD>
5.535

$$$$
ligand
 OpenBabel11021811483D
libRbt.so/2013.1/901 2013/11/27
 13 14  0  0  0  0  0  0  0  0999 V2000
    8.2451   37.9127   72.3616 N   0  0  0  0  0  0  0  0  0  0  0  0
    9.2447   39.1568   70.6803 N   0  0  0  0  0  0  0  0  0  0  0  0
    8.2595   38.9900   71.5819 C   0  0  0  0  0  0  0  0  0  0  0  0
    7.2410   39.9351   71.6976 N   0  0  0  0  0  0  0  0  0  0  0  0
    7.2773   41.0574   70.8676 C   0  0  0  0  0  0  0  0  0  0  0  0
    8.3147   41.2132   69.9540 C   0  0  0  0  0  0  0  0  0  0  0  0
    6.3882   41.9049   70.9413 O   0  0  0  0  0  0  0  0  0  0  0  0
    8.3276   42.3234   69.0884 N   0  0  0  0  0  0  0  0  0  0  0  0
    9.4380   42.5719   68.1256 C   0  0  2  0  0  0  0  0  0  0  0  0
   10.0684   41.2279   67.7229 C   0  0  0  0  0  0  0  0  0  0  0  0
    9.2876   40.2276   69.8672 C   0  0  0  0  0  0  0  0  0  0  0  0
   10.3194   40.3696   68.9316 N   0  0  0  0  0  0  0  0  0  0  0  0
   10.5056   43.4697   68.8197 C   0  0  0  0  0  0  0  0  0  0  0  0
  1  3  1  0  0  0  0
  2  3  2  0  0  0  0
  2 11  1  0  0  0  0
  3  4  1  0  0  0  0
  4  5  1  0  0  0  0
  5  6  1  0  0  0  0
  5  7  2  0  0  0  0
  6  8  1  0  0  0  0
  6 11  2  0  0  0  0
  8  9  1  0  0  0  0
  9 10  1  0  0  0  0
  9 13  1  1  0  0  0
 10 12  1  0  0  0  0
 11 12  1  0  0  0  0
M  END
>  <CHROM.1>
8.68468230,40.83442320,70.03914376,-2.07021909,0.57658773,-0.51653689

>  <Name>
ligand

>  <RI>
0

>  <Rbt.Current_Directory>
/home/itssahil/PROJECTS/Mol_Feturizer/New_Systems/rnas/3SUX

>  <Rbt.Executable>
rbdock ($Id: //depot/dev/client3/rdock/2013.1/src/exe/rbdock.cxx#4 $)

>  <Rbt.Library>
libRbt.so (2013.1, Build901 2013/11/27)

>  <Rbt.Parameter_File>
/export/apps/rDock/src/rDock_2013.1_src/data/scripts/dock_solv.prm

>  <Rbt.Receptor>
prm/pocket_docking_7.prm

>  <SCORE>
-8.02195

>  <SCORE.INTER>
-8.02195

>  <SCORE.INTER.CONST>
1

>  <SCORE.INTER.POLAR>
0

>  <SCORE.INTER.ROT>
0

>  <SCORE.INTER.SOLV>
9.19198

>  <SCORE.INTER.VDW>
-12.012

>  <SCORE.INTER.norm>
-0.617073

>  <SCORE.INTRA>
0

>  <SCORE.INTRA.DIHEDRAL>
0

>  <SCORE.INTRA.DIHEDRAL.0>
0

>  <SCORE.INTRA.POLAR>
0

>  <SCORE.INTRA.POLAR.0>
0

>  <SCORE.INTRA.REPUL>
0

>  <SCORE.INTRA.REPUL.0>
0

>  <SCORE.INTRA.SOLV>
0

>  <SCORE.INTRA.SOLV.lig_0>
-48.6608

>  <SCORE.INTRA.VDW>
0

>  <SCORE.INTRA.VDW.0>
0

>  <SCORE.INTRA.norm>
0

>  <SCORE.RESTR>
0

>  <SCORE.RESTR.CAVITY>
0

>  <SCORE.RESTR.norm>
0

>  <SCORE.SYSTEM>
0

>  <SCORE.SYSTEM.CONST>
0

>  <SCORE.SYSTEM.DIHEDRAL>
0

>  <SCORE.SYSTEM.SOLV>
0

>  <SCORE.SYSTEM.norm>
0

>  <SCORE.heavy>
13

>  <SCORE.norm>
-0.617073

>  <RMSD>
5.553

$$$$
ligand
 OpenBabel11021811483D
libRbt.so/2013.1/901 2013/11/27
 13 14  0  0  0  0  0  0  0  0999 V2000
    7.1440   38.2389   72.0920 N   0  0  0  0  0  0  0  0  0  0  0  0
    8.2150   39.5888   70.5415 N   0  0  0  0  0  0  0  0  0  0  0  0
    7.3084   39.4298   71.5233 C   0  0  0  0  0  0  0  0  0  0  0  0
    6.5265   40.5050   71.9431 N   0  0  0  0  0  0  0  0  0  0  0  0
    6.7168   41.7453   71.3306 C   0  0  0  0  0  0  0  0  0  0  0  0
    7.6707   41.8865   70.3280 C   0  0  0  0  0  0  0  0  0  0  0  0
    6.0362   42.7111   71.6745 O   0  0  0  0  0  0  0  0  0  0  0  0
    7.8323   43.1268   69.6818 N   0  0  0  0  0  0  0  0  0  0  0  0
    8.8719   43.3534   68.6380 C   0  0  2  0  0  0  0  0  0  0  0  0
    9.1650   42.0255   67.9194 C   0  0  0  0  0  0  0  0  0  0  0  0
    8.4027   40.7750   69.9352 C   0  0  0  0  0  0  0  0  0  0  0  0
    9.3462   40.9085   68.9095 N   0  0  0  0  0  0  0  0  0  0  0  0
   10.1657   43.8763   69.3310 C   0  0  0  0  0  0  0  0  0  0  0  0
  1  3  1  0  0  0  0
  2  3  2  0  0  0  0
  2 11  1  0  0  0  0
  3  4  1  0  0  0  0
  4  5  1  0  0  0  0
  5  6  1  0  0  0  0
  5  7  2  0  0  0  0
  6  8  1  0  0  0  0
  6 11  2  0  0  0  0
  8  9  1  0  0  0  0
  9 10  1  0  0  0  0
  9 13  1  1  0  0  0
 10 12  1  0  0  0  0
 11 12  1  0  0  0  0
M  END
>  <CHROM.1>
7.95961673,41.43606015,70.29309116,-2.25646789,0.75803405,-0.20575703

>  <Name>
ligand

>  <RI>
0

>  <Rbt.Current_Directory>
/home/itssahil/PROJECTS/Mol_Feturizer/New_Systems/rnas/3SUX

>  <Rbt.Executable>
rbdock ($Id: //depot/dev/client3/rdock/2013.1/src/exe/rbdock.cxx#4 $)

>  <Rbt.Library>
libRbt.so (2013.1, Build901 2013/11/27)

>  <Rbt.Parameter_File>
/export/apps/rDock/src/rDock_2013.1_src/data/scripts/dock_solv.prm

>  <Rbt.Receptor>
prm/pocket_docking_5.prm

>  <SCORE>
-7.90544

>  <SCORE.INTER>
-7.90544

>  <SCORE.INTER.CONST>
1

>  <SCORE.INTER.POLAR>
0

>  <SCORE.INTER.ROT>
0

>  <SCORE.INTER.SOLV>
10.259

>  <SCORE.INTER.VDW>
-12.29

>  <SCORE.INTER.norm>
-0.608111

>  <SCORE.INTRA>
0

>  <SCORE.INTRA.DIHEDRAL>
0

>  <SCORE.INTRA.DIHEDRAL.0>
0

>  <SCORE.INTRA.POLAR>
0

>  <SCORE.INTRA.POLAR.0>
0

>  <SCORE.INTRA.REPUL>
0

>  <SCORE.INTRA.REPUL.0>
0

>  <SCORE.INTRA.SOLV>
0

>  <SCORE.INTRA.SOLV.lig_0>
-48.6608

>  <SCORE.INTRA.VDW>
0

>  <SCORE.INTRA.VDW.0>
0

>  <SCORE.INTRA.norm>
0

>  <SCORE.RESTR>
0

>  <SCORE.RESTR.CAVITY>
0

>  <SCORE.RESTR.norm>
0

>  <SCORE.SYSTEM>
0

>  <SCORE.SYSTEM.CONST>
0

>  <SCORE.SYSTEM.DIHEDRAL>
0

>  <SCORE.SYSTEM.SOLV>
0

>  <SCORE.SYSTEM.norm>
0

>  <SCORE.heavy>
13

>  <SCORE.norm>
-0.608111

>  <RMSD>
5.703

$$$$
ligand
 OpenBabel11021811483D
libRbt.so/2013.1/901 2013/11/27
 13 14  0  0  0  0  0  0  0  0999 V2000
    7.1488   38.2232   72.0859 N   0  0  0  0  0  0  0  0  0  0  0  0
    8.2165   39.5804   70.5393 N   0  0  0  0  0  0  0  0  0  0  0  0
    7.3064   39.4149   71.5168 C   0  0  0  0  0  0  0  0  0  0  0  0
    6.5137   40.4842   71.9318 N   0  0  0  0  0  0  0  0  0  0  0  0
    6.6970   41.7254   71.3189 C   0  0  0  0  0  0  0  0  0  0  0  0
    7.6547   41.8733   70.3209 C   0  0  0  0  0  0  0  0  0  0  0  0
    6.0070   42.6860   71.6585 O   0  0  0  0  0  0  0  0  0  0  0  0
    7.8095   43.1143   69.6742 N   0  0  0  0  0  0  0  0  0  0  0  0
    8.8523   43.3483   68.6353 C   0  0  2  0  0  0  0  0  0  0  0  0
    9.1596   42.0220   67.9195 C   0  0  0  0  0  0  0  0  0  0  0  0
    8.3975   40.7674   69.9328 C   0  0  0  0  0  0  0  0  0  0  0  0
    9.3449   40.9075   68.9115 N   0  0  0  0  0  0  0  0  0  0  0  0
   10.1384   43.8823   69.3341 C   0  0  0  0  0  0  0  0  0  0  0  0
  1  3  1  0  0  0  0
  2  3  2  0  0  0  0
  2 11  1  0  0  0  0
  3  4  1  0  0  0  0
  4  5  1  0  0  0  0
  5  6  1  0  0  0  0
  5  7  2  0  0  0  0
  6  8  1  0  0  0  0
  6 11  2  0  0  0  0
  8  9  1  0  0  0  0
  9 10  1  0  0  0  0
  9 13  1  1  0  0  0
 10 12  1  0  0  0  0
 11 12  1  0  0  0  0
M  END
>  <CHROM.1>
7.94738128,41.42520839,70.28780862,-2.24701969,0.75157288,-0.21321083

>  <Name>
ligand

>  <RI>
0

>  <Rbt.Current_Directory>
/home/itssahil/PROJECTS/Mol_Feturizer/New_Systems/rnas/3SUX

>  <Rbt.Executable>
rbdock ($Id: //depot/dev/client3/rdock/2013.1/src/exe/rbdock.cxx#4 $)

>  <Rbt.Library>
libRbt.so (2013.1, Build901 2013/11/27)

>  <Rbt.Parameter_File>
/export/apps/rDock/src/rDock_2013.1_src/data/scripts/dock_solv.prm

>  <Rbt.Receptor>
prm/pocket_docking_5.prm

>  <SCORE>
-7.93857

>  <SCORE.INTER>
-7.93857

>  <SCORE.INTER.CONST>
1

>  <SCORE.INTER.POLAR>
0

>  <SCORE.INTER.ROT>
0

>  <SCORE.INTER.SOLV>
10.3889

>  <SCORE.INTER.VDW>
-12.3554

>  <SCORE.INTER.norm>
-0.610659

>  <SCORE.INTRA>
0

>  <SCORE.INTRA.DIHEDRAL>
0

>  <SCORE.INTRA.DIHEDRAL.0>
0

>  <SCORE.INTRA.POLAR>
0

>  <SCORE.INTRA.POLAR.0>
0

>  <SCORE.INTRA.REPUL>
0

>  <SCORE.INTRA.REPUL.0>
0

>  <SCORE.INTRA.SOLV>
0

>  <SCORE.INTRA.SOLV.lig_0>
-48.6608

>  <SCORE.INTRA.VDW>
0

>  <SCORE.INTRA.VDW.0>
0

>  <SCORE.INTRA.norm>
0

>  <SCORE.RESTR>
0

>  <SCORE.RESTR.CAVITY>
0

>  <SCORE.RESTR.norm>
0

>  <SCORE.SYSTEM>
0

>  <SCORE.SYSTEM.CONST>
0

>  <SCORE.SYSTEM.DIHEDRAL>
0

>  <SCORE.SYSTEM.SOLV>
0

>  <SCORE.SYSTEM.norm>
0

>  <SCORE.heavy>
13

>  <SCORE.norm>
-0.610659

>  <RMSD>
5.711

$$$$
ligand
 OpenBabel11021811483D
libRbt.so/2013.1/901 2013/11/27
 13 14  0  0  0  0  0  0  0  0999 V2000
    7.1355   38.2362   72.0939 N   0  0  0  0  0  0  0  0  0  0  0  0
    8.1883   39.5879   70.5325 N   0  0  0  0  0  0  0  0  0  0  0  0
    7.2937   39.4279   71.5251 C   0  0  0  0  0  0  0  0  0  0  0  0
    6.5175   40.5029   71.9560 N   0  0  0  0  0  0  0  0  0  0  0  0
    6.7010   41.7440   71.3430 C   0  0  0  0  0  0  0  0  0  0  0  0
    7.6428   41.8862   70.3292 C   0  0  0  0  0  0  0  0  0  0  0  0
    6.0253   42.7097   71.6967 O   0  0  0  0  0  0  0  0  0  0  0  0
    7.7973   43.1274   69.6829 N   0  0  0  0  0  0  0  0  0  0  0  0
    8.8242   43.3550   68.6269 C   0  0  2  0  0  0  0  0  0  0  0  0
    9.1078   42.0280   67.9028 C   0  0  0  0  0  0  0  0  0  0  0  0
    8.3693   40.7749   69.9258 C   0  0  0  0  0  0  0  0  0  0  0  0
    9.3003   40.9094   68.8889 N   0  0  0  0  0  0  0  0  0  0  0  0
   10.1266   43.8761   69.3049 C   0  0  0  0  0  0  0  0  0  0  0  0
  1  3  1  0  0  0  0
  2  3  2  0  0  0  0
  2 11  1  0  0  0  0
  3  4  1  0  0  0  0
  4  5  1  0  0  0  0
  5  6  1  0  0  0  0
  5  7  2  0  0  0  0
  6  8  1  0  0  0  0
  6 11  2  0  0  0  0
  8  9  1  0  0  0  0
  9 10  1  0  0  0  0
  9 13  1  1  0  0  0
 10 12  1  0  0  0  0
 11 12  1  0  0  0  0
M  END
>  <CHROM.1>
7.93099088,41.43567218,70.29005319,-2.25379018,0.77006591,-0.20609859

>  <Name>
ligand

>  <RI>
0

>  <Rbt.Current_Directory>
/home/itssahil/PROJECTS/Mol_Feturizer/New_Systems/rnas/3SUX

>  <Rbt.Executable>
rbdock ($Id: //depot/dev/client3/rdock/2013.1/src/exe/rbdock.cxx#4 $)

>  <Rbt.Library>
libRbt.so (2013.1, Build901 2013/11/27)

>  <Rbt.Parameter_File>
/export/apps/rDock/src/rDock_2013.1_src/data/scripts/dock_solv.prm

>  <Rbt.Receptor>
prm/pocket_docking_5.prm

>  <SCORE>
-7.85712

>  <SCORE.INTER>
-7.85712

>  <SCORE.INTER.CONST>
1

>  <SCORE.INTER.POLAR>
0

>  <SCORE.INTER.ROT>
0

>  <SCORE.INTER.SOLV>
10.4008

>  <SCORE.INTER.VDW>
-12.305

>  <SCORE.INTER.norm>
-0.604393

>  <SCORE.INTRA>
0

>  <SCORE.INTRA.DIHEDRAL>
0

>  <SCORE.INTRA.DIHEDRAL.0>
0

>  <SCORE.INTRA.POLAR>
0

>  <SCORE.INTRA.POLAR.0>
0

>  <SCORE.INTRA.REPUL>
0

>  <SCORE.INTRA.REPUL.0>
0

>  <SCORE.INTRA.SOLV>
0

>  <SCORE.INTRA.SOLV.lig_0>
-48.6608

>  <SCORE.INTRA.VDW>
0

>  <SCORE.INTRA.VDW.0>
0

>  <SCORE.INTRA.norm>
0

>  <SCORE.RESTR>
0

>  <SCORE.RESTR.CAVITY>
0

>  <SCORE.RESTR.norm>
0

>  <SCORE.SYSTEM>
0

>  <SCORE.SYSTEM.CONST>
0

>  <SCORE.SYSTEM.DIHEDRAL>
0

>  <SCORE.SYSTEM.SOLV>
0

>  <SCORE.SYSTEM.norm>
0

>  <SCORE.heavy>
13

>  <SCORE.norm>
-0.604393

>  <RMSD>
5.714

$$$$
ligand
 OpenBabel11021811483D
libRbt.so/2013.1/901 2013/11/27
 13 14  0  0  0  0  0  0  0  0999 V2000
    5.8000   39.9958   73.5915 N   0  0  0  0  0  0  0  0  0  0  0  0
    7.0745   40.1935   71.6653 N   0  0  0  0  0  0  0  0  0  0  0  0
    6.2445   40.7324   72.5773 C   0  0  0  0  0  0  0  0  0  0  0  0
    5.8338   42.0597   72.4609 N   0  0  0  0  0  0  0  0  0  0  0  0
    6.3133   42.8128   71.3873 C   0  0  0  0  0  0  0  0  0  0  0  0
    7.1819   42.2360   70.4664 C   0  0  0  0  0  0  0  0  0  0  0  0
    5.9625   43.9847   71.2538 O   0  0  0  0  0  0  0  0  0  0  0  0
    7.6312   42.9833   69.3610 N   0  0  0  0  0  0  0  0  0  0  0  0
    8.6022   42.4378   68.3705 C   0  0  2  0  0  0  0  0  0  0  0  0
    8.4497   40.9088   68.3020 C   0  0  0  0  0  0  0  0  0  0  0  0
    7.5368   40.9034   70.6204 C   0  0  0  0  0  0  0  0  0  0  0  0
    8.3913   40.3133   69.6814 N   0  0  0  0  0  0  0  0  0  0  0  0
   10.0436   42.8051   68.8340 C   0  0  0  0  0  0  0  0  0  0  0  0
  1  3  1  0  0  0  0
  2  3  2  0  0  0  0
  2 11  1  0  0  0  0
  3  4  1  0  0  0  0
  4  5  1  0  0  0  0
  5  6  1  0  0  0  0
  5  7  2  0  0  0  0
  6  8  1  0  0  0  0
  6 11  2  0  0  0  0
  8  9  1  0  0  0  0
  9 10  1  0  0  0  0
  9 13  1  1  0  0  0
 10 12  1  0  0  0  0
 11 12  1  0  0  0  0
M  END
>  <CHROM.1>
7.32864777,41.75057546,70.64064577,-2.66321255,0.86028867,-0.35746074

>  <Name>
ligand

>  <RI>
0

>  <Rbt.Current_Directory>
/home/itssahil/PROJECTS/Mol_Feturizer/New_Systems/rnas/3SUX

>  <Rbt.Executable>
rbdock ($Id: //depot/dev/client3/rdock/2013.1/src/exe/rbdock.cxx#4 $)

>  <Rbt.Library>
libRbt.so (2013.1, Build901 2013/11/27)

>  <Rbt.Parameter_File>
/export/apps/rDock/src/rDock_2013.1_src/data/scripts/dock_solv.prm

>  <Rbt.Receptor>
prm/pocket_docking_5.prm

>  <SCORE>
-8.69738

>  <SCORE.INTER>
-8.69738

>  <SCORE.INTER.CONST>
1

>  <SCORE.INTER.POLAR>
0

>  <SCORE.INTER.ROT>
0

>  <SCORE.INTER.SOLV>
12.8298

>  <SCORE.INTER.VDW>
-13.6748

>  <SCORE.INTER.norm>
-0.669029

>  <SCORE.INTRA>
0

>  <SCORE.INTRA.DIHEDRAL>
0

>  <SCORE.INTRA.DIHEDRAL.0>
0

>  <SCORE.INTRA.POLAR>
0

>  <SCORE.INTRA.POLAR.0>
0

>  <SCORE.INTRA.REPUL>
0

>  <SCORE.INTRA.REPUL.0>
0

>  <SCORE.INTRA.SOLV>
0

>  <SCORE.INTRA.SOLV.lig_0>
-48.6608

>  <SCORE.INTRA.VDW>
0

>  <SCORE.INTRA.VDW.0>
0

>  <SCORE.INTRA.norm>
0

>  <SCORE.RESTR>
0

>  <SCORE.RESTR.CAVITY>
0

>  <SCORE.RESTR.norm>
0

>  <SCORE.SYSTEM>
0

>  <SCORE.SYSTEM.CONST>
0

>  <SCORE.SYSTEM.DIHEDRAL>
0

>  <SCORE.SYSTEM.SOLV>
0

>  <SCORE.SYSTEM.norm>
0

>  <SCORE.heavy>
13

>  <SCORE.norm>
-0.669029

>  <RMSD>
6.150

$$$$
ligand
 OpenBabel11021811483D
libRbt.so/2013.1/901 2013/11/27
 13 14  0  0  0  0  0  0  0  0999 V2000
    5.8152   39.9996   73.5994 N   0  0  0  0  0  0  0  0  0  0  0  0
    7.0843   40.1972   71.6696 N   0  0  0  0  0  0  0  0  0  0  0  0
    6.2508   40.7340   72.5798 C   0  0  0  0  0  0  0  0  0  0  0  0
    5.8272   42.0565   72.4558 N   0  0  0  0  0  0  0  0  0  0  0  0
    6.2976   42.8074   71.3766 C   0  0  0  0  0  0  0  0  0  0  0  0
    7.1699   42.2332   70.4577 C   0  0  0  0  0  0  0  0  0  0  0  0
    5.9353   43.9750   71.2364 O   0  0  0  0  0  0  0  0  0  0  0  0
    7.6100   42.9777   69.3468 N   0  0  0  0  0  0  0  0  0  0  0  0
    8.5844   42.4353   68.3579 C   0  0  2  0  0  0  0  0  0  0  0  0
    8.4464   40.9045   68.2993 C   0  0  0  0  0  0  0  0  0  0  0  0
    7.5379   40.9050   70.6194 C   0  0  0  0  0  0  0  0  0  0  0  0
    8.3962   40.3171   69.6825 N   0  0  0  0  0  0  0  0  0  0  0  0
   10.0231   42.8192   68.8163 C   0  0  0  0  0  0  0  0  0  0  0  0
  1  3  1  0  0  0  0
  2  3  2  0  0  0  0
  2 11  1  0  0  0  0
  3  4  1  0  0  0  0
  4  5  1  0  0  0  0
  5  6  1  0  0  0  0
  5  7  2  0  0  0  0
  6  8  1  0  0  0  0
  6 11  2  0  0  0  0
  8  9  1  0  0  0  0
  9 10  1  0  0  0  0
  9 13  1  1  0  0  0
 10 12  1  0  0  0  0
 11 12  1  0  0  0  0
M  END
>  <CHROM.1>
7.32164188,41.75022040,70.63472051,-2.64854429,0.85860275,-0.37486953

>  <Name>
ligand

>  <RI>
0

>  <Rbt.Current_Directory>
/home/itssahil/PROJECTS/Mol_Feturizer/New_Systems/rnas/3SUX

>  <Rbt.Executable>
rbdock ($Id: //depot/dev/client3/rdock/2013.1/src/exe/rbdock.cxx#4 $)

>  <Rbt.Library>
libRbt.so (2013.1, Build901 2013/11/27)

>  <Rbt.Parameter_File>
/export/apps/rDock/src/rDock_2013.1_src/data/scripts/dock_solv.prm

>  <Rbt.Receptor>
prm/pocket_docking_5.prm

>  <SCORE>
-8.71999

>  <SCORE.INTER>
-8.71999

>  <SCORE.INTER.CONST>
1

>  <SCORE.INTER.POLAR>
0

>  <SCORE.INTER.ROT>
0

>  <SCORE.INTER.SOLV>
12.8484

>  <SCORE.INTER.VDW>
-13.6961

>  <SCORE.INTER.norm>
-0.670769

>  <SCORE.INTRA>
0

>  <SCORE.INTRA.DIHEDRAL>
0

>  <SCORE.INTRA.DIHEDRAL.0>
0

>  <SCORE.INTRA.POLAR>
0

>  <SCORE.INTRA.POLAR.0>
0

>  <SCORE.INTRA.REPUL>
0

>  <SCORE.INTRA.REPUL.0>
0

>  <SCORE.INTRA.SOLV>
0

>  <SCORE.INTRA.SOLV.lig_0>
-48.6608

>  <SCORE.INTRA.VDW>
0

>  <SCORE.INTRA.VDW.0>
0

>  <SCORE.INTRA.norm>
0

>  <SCORE.RESTR>
0

>  <SCORE.RESTR.CAVITY>
0

>  <SCORE.RESTR.norm>
0

>  <SCORE.SYSTEM>
0

>  <SCORE.SYSTEM.CONST>
0

>  <SCORE.SYSTEM.DIHEDRAL>
0

>  <SCORE.SYSTEM.SOLV>
0

>  <SCORE.SYSTEM.norm>
0

>  <SCORE.heavy>
13

>  <SCORE.norm>
-0.670769

>  <RMSD>
6.153

$$$$
ligand
 OpenBabel11021811483D
libRbt.so/2013.1/901 2013/11/27
 13 14  0  0  0  0  0  0  0  0999 V2000
    5.8172   39.9970   73.5952 N   0  0  0  0  0  0  0  0  0  0  0  0
    7.0881   40.2063   71.6679 N   0  0  0  0  0  0  0  0  0  0  0  0
    6.2480   40.7354   72.5764 C   0  0  0  0  0  0  0  0  0  0  0  0
    5.8123   42.0539   72.4514 N   0  0  0  0  0  0  0  0  0  0  0  0
    6.2777   42.8090   71.3730 C   0  0  0  0  0  0  0  0  0  0  0  0
    7.1571   42.2428   70.4558 C   0  0  0  0  0  0  0  0  0  0  0  0
    5.9049   43.9732   71.2319 O   0  0  0  0  0  0  0  0  0  0  0  0
    7.5924   42.9913   69.3457 N   0  0  0  0  0  0  0  0  0  0  0  0
    8.5737   42.4579   68.3587 C   0  0  2  0  0  0  0  0  0  0  0  0
    8.4501   40.9259   68.3001 C   0  0  0  0  0  0  0  0  0  0  0  0
    7.5371   40.9182   70.6184 C   0  0  0  0  0  0  0  0  0  0  0  0
    8.4027   40.3382   69.6832 N   0  0  0  0  0  0  0  0  0  0  0  0
   10.0079   42.8553   68.8199 C   0  0  0  0  0  0  0  0  0  0  0  0
  1  3  1  0  0  0  0
  2  3  2  0  0  0  0
  2 11  1  0  0  0  0
  3  4  1  0  0  0  0
  4  5  1  0  0  0  0
  5  6  1  0  0  0  0
  5  7  2  0  0  0  0
  6  8  1  0  0  0  0
  6 11  2  0  0  0  0
  8  9  1  0  0  0  0
  9 10  1  0  0  0  0
  9 13  1  1  0  0  0
 10 12  1  0  0  0  0
 11 12  1  0  0  0  0
M  END
>  <CHROM.1>
7.31299728,41.76134792,70.63322115,-2.63642592,0.85336326,-0.38413631

>  <Name>
ligand

>  <RI>
0

>  <Rbt.Current_Directory>
/home/itssahil/PROJECTS/Mol_Feturizer/New_Systems/rnas/3SUX

>  <Rbt.Executable>
rbdock ($Id: //depot/dev/client3/rdock/2013.1/src/exe/rbdock.cxx#4 $)

>  <Rbt.Library>
libRbt.so (2013.1, Build901 2013/11/27)

>  <Rbt.Parameter_File>
/export/apps/rDock/src/rDock_2013.1_src/data/scripts/dock_solv.prm

>  <Rbt.Receptor>
prm/pocket_docking_5.prm

>  <SCORE>
-8.7119

>  <SCORE.INTER>
-8.7119

>  <SCORE.INTER.CONST>
1

>  <SCORE.INTER.POLAR>
0

>  <SCORE.INTER.ROT>
0

>  <SCORE.INTER.SOLV>
12.8845

>  <SCORE.INTER.VDW>
-13.7028

>  <SCORE.INTER.norm>
-0.670146

>  <SCORE.INTRA>
0

>  <SCORE.INTRA.DIHEDRAL>
0

>  <SCORE.INTRA.DIHEDRAL.0>
0

>  <SCORE.INTRA.POLAR>
0

>  <SCORE.INTRA.POLAR.0>
0

>  <SCORE.INTRA.REPUL>
0

>  <SCORE.INTRA.REPUL.0>
0

>  <SCORE.INTRA.SOLV>
0

>  <SCORE.INTRA.SOLV.lig_0>
-48.6608

>  <SCORE.INTRA.VDW>
0

>  <SCORE.INTRA.VDW.0>
0

>  <SCORE.INTRA.norm>
0

>  <SCORE.RESTR>
0

>  <SCORE.RESTR.CAVITY>
0

>  <SCORE.RESTR.norm>
0

>  <SCORE.SYSTEM>
0

>  <SCORE.SYSTEM.CONST>
0

>  <SCORE.SYSTEM.DIHEDRAL>
0

>  <SCORE.SYSTEM.SOLV>
0

>  <SCORE.SYSTEM.norm>
0

>  <SCORE.heavy>
13

>  <SCORE.norm>
-0.670146

>  <RMSD>
6.157

$$$$
ligand
 OpenBabel11021811483D
libRbt.so/2013.1/901 2013/11/27
 13 14  0  0  0  0  0  0  0  0999 V2000
    5.8042   39.9869   73.5888 N   0  0  0  0  0  0  0  0  0  0  0  0
    7.0783   40.1988   71.6639 N   0  0  0  0  0  0  0  0  0  0  0  0
    6.2386   40.7274   72.5731 C   0  0  0  0  0  0  0  0  0  0  0  0
    5.8073   42.0477   72.4521 N   0  0  0  0  0  0  0  0  0  0  0  0
    6.2765   42.8051   71.3770 C   0  0  0  0  0  0  0  0  0  0  0  0
    7.1553   42.2393   70.4590 C   0  0  0  0  0  0  0  0  0  0  0  0
    5.9075   43.9709   71.2395 O   0  0  0  0  0  0  0  0  0  0  0  0
    7.5945   42.9902   69.3521 N   0  0  0  0  0  0  0  0  0  0  0  0
    8.5754   42.4571   68.3645 C   0  0  2  0  0  0  0  0  0  0  0  0
    8.4470   40.9257   68.3004 C   0  0  0  0  0  0  0  0  0  0  0  0
    7.5310   40.9129   70.6175 C   0  0  0  0  0  0  0  0  0  0  0  0
    8.3960   40.3335   69.6815 N   0  0  0  0  0  0  0  0  0  0  0  0
   10.0102   42.8484   68.8290 C   0  0  0  0  0  0  0  0  0  0  0  0
  1  3  1  0  0  0  0
  2  3  2  0  0  0  0
  2 11  1  0  0  0  0
  3  4  1  0  0  0  0
  4  5  1  0  0  0  0
  5  6  1  0  0  0  0
  5  7  2  0  0  0  0
  6  8  1  0  0  0  0
  6 11  2  0  0  0  0
  8  9  1  0  0  0  0
  9 10  1  0  0  0  0
  9 13  1  1  0  0  0
 10 12  1  0  0  0  0
 11 12  1  0  0  0  0
M  END
>  <CHROM.1>
7.30947240,41.75671476,70.63495078,-2.64163348,0.85330913,-0.37674421

>  <Name>
ligand

>  <RI>
0

>  <Rbt.Current_Directory>
/home/itssahil/PROJECTS/Mol_Feturizer/New_Systems/rnas/3SUX

>  <Rbt.Executable>
rbdock ($Id: //depot/dev/client3/rdock/2013.1/src/exe/rbdock.cxx#4 $)

>  <Rbt.Library>
libRbt.so (2013.1, Build901 2013/11/27)

>  <Rbt.Parameter_File>
/export/apps/rDock/src/rDock_2013.1_src/data/scripts/dock_solv.prm

>  <Rbt.Receptor>
prm/pocket_docking_5.prm

>  <SCORE>
-8.71681

>  <SCORE.INTER>
-8.71736

>  <SCORE.INTER.CONST>
1

>  <SCORE.INTER.POLAR>
0

>  <SCORE.INTER.ROT>
0

>  <SCORE.INTER.SOLV>
12.9494

>  <SCORE.INTER.VDW>
-13.728

>  <SCORE.INTER.norm>
-0.670566

>  <SCORE.INTRA>
0

>  <SCORE.INTRA.DIHEDRAL>
0

>  <SCORE.INTRA.DIHEDRAL.0>
0

>  <SCORE.INTRA.POLAR>
0

>  <SCORE.INTRA.POLAR.0>
0

>  <SCORE.INTRA.REPUL>
0

>  <SCORE.INTRA.REPUL.0>
0

>  <SCORE.INTRA.SOLV>
0

>  <SCORE.INTRA.SOLV.lig_0>
-48.6608

>  <SCORE.INTRA.VDW>
0

>  <SCORE.INTRA.VDW.0>
0

>  <SCORE.INTRA.norm>
0

>  <SCORE.RESTR>
0.00054945

>  <SCORE.RESTR.CAVITY>
0.00054945

>  <SCORE.RESTR.norm>
4.22653e-05

>  <SCORE.SYSTEM>
0

>  <SCORE.SYSTEM.CONST>
0

>  <SCORE.SYSTEM.DIHEDRAL>
0

>  <SCORE.SYSTEM.SOLV>
0

>  <SCORE.SYSTEM.norm>
0

>  <SCORE.heavy>
13

>  <SCORE.norm>
-0.670524

>  <RMSD>
6.160

$$$$
ligand
 OpenBabel11021811483D
libRbt.so/2013.1/901 2013/11/27
 13 14  0  0  0  0  0  0  0  0999 V2000
    5.7954   39.9927   73.5890 N   0  0  0  0  0  0  0  0  0  0  0  0
    7.0544   40.1979   71.6535 N   0  0  0  0  0  0  0  0  0  0  0  0
    6.2316   40.7332   72.5742 C   0  0  0  0  0  0  0  0  0  0  0  0
    5.8197   42.0608   72.4660 N   0  0  0  0  0  0  0  0  0  0  0  0
    6.2905   42.8181   71.3914 C   0  0  0  0  0  0  0  0  0  0  0  0
    7.1517   42.2450   70.4614 C   0  0  0  0  0  0  0  0  0  0  0  0
    5.9384   43.9903   71.2651 O   0  0  0  0  0  0  0  0  0  0  0  0
    7.5920   42.9964   69.3553 N   0  0  0  0  0  0  0  0  0  0  0  0
    8.5551   42.4549   68.3549 C   0  0  2  0  0  0  0  0  0  0  0  0
    8.4024   40.9261   68.2820 C   0  0  0  0  0  0  0  0  0  0  0  0
    7.5081   40.9119   70.6076 C   0  0  0  0  0  0  0  0  0  0  0  0
    8.3552   40.3254   69.6595 N   0  0  0  0  0  0  0  0  0  0  0  0
   10.0002   42.8208   68.8082 C   0  0  0  0  0  0  0  0  0  0  0  0
  1  3  1  0  0  0  0
  2  3  2  0  0  0  0
  2 11  1  0  0  0  0
  3  4  1  0  0  0  0
  4  5  1  0  0  0  0
  5  6  1  0  0  0  0
  5  7  2  0  0  0  0
  6  8  1  0  0  0  0
  6 11  2  0  0  0  0
  8  9  1  0  0  0  0
  9 10  1  0  0  0  0
  9 13  1  1  0  0  0
 10 12  1  0  0  0  0
 11 12  1  0  0  0  0
M  END
>  <CHROM.1>
7.29997171,41.75887288,70.63267432,-2.65859567,0.86774008,-0.35721528

>  <Name>
ligand

>  <RI>
0

>  <Rbt.Current_Directory>
/home/itssahil/PROJECTS/Mol_Feturizer/New_Systems/rnas/3SUX

>  <Rbt.Executable>
rbdock ($Id: //depot/dev/client3/rdock/2013.1/src/exe/rbdock.cxx#4 $)

>  <Rbt.Library>
libRbt.so (2013.1, Build901 2013/11/27)

>  <Rbt.Parameter_File>
/export/apps/rDock/src/rDock_2013.1_src/data/scripts/dock_solv.prm

>  <Rbt.Receptor>
prm/pocket_docking_5.prm

>  <SCORE>
-8.70413

>  <SCORE.INTER>
-8.70413

>  <SCORE.INTER.CONST>
1

>  <SCORE.INTER.POLAR>
0

>  <SCORE.INTER.ROT>
0

>  <SCORE.INTER.SOLV>
13.0632

>  <SCORE.INTER.VDW>
-13.7572

>  <SCORE.INTER.norm>
-0.669549

>  <SCORE.INTRA>
0

>  <SCORE.INTRA.DIHEDRAL>
0

>  <SCORE.INTRA.DIHEDRAL.0>
0

>  <SCORE.INTRA.POLAR>
0

>  <SCORE.INTRA.POLAR.0>
0

>  <SCORE.INTRA.REPUL>
0

>  <SCORE.INTRA.REPUL.0>
0

>  <SCORE.INTRA.SOLV>
0

>  <SCORE.INTRA.SOLV.lig_0>
-48.6608

>  <SCORE.INTRA.VDW>
0

>  <SCORE.INTRA.VDW.0>
0

>  <SCORE.INTRA.norm>
0

>  <SCORE.RESTR>
0

>  <SCORE.RESTR.CAVITY>
0

>  <SCORE.RESTR.norm>
0

>  <SCORE.SYSTEM>
0

>  <SCORE.SYSTEM.CONST>
0

>  <SCORE.SYSTEM.DIHEDRAL>
0

>  <SCORE.SYSTEM.SOLV>
0

>  <SCORE.SYSTEM.norm>
0

>  <SCORE.heavy>
13

>  <SCORE.norm>
-0.669549

>  <RMSD>
6.160

$$$$
ligand
 OpenBabel11021811483D
libRbt.so/2013.1/901 2013/11/27
 13 14  0  0  0  0  0  0  0  0999 V2000
    5.8029   39.9854   73.5869 N   0  0  0  0  0  0  0  0  0  0  0  0
    7.0781   40.1985   71.6627 N   0  0  0  0  0  0  0  0  0  0  0  0
    6.2371   40.7262   72.5713 C   0  0  0  0  0  0  0  0  0  0  0  0
    5.8040   42.0459   72.4496 N   0  0  0  0  0  0  0  0  0  0  0  0
    6.2729   42.8035   71.3745 C   0  0  0  0  0  0  0  0  0  0  0  0
    7.1531   42.2387   70.4573 C   0  0  0  0  0  0  0  0  0  0  0  0
    5.9025   43.9688   71.2364 O   0  0  0  0  0  0  0  0  0  0  0  0
    7.5920   42.9899   69.3504 N   0  0  0  0  0  0  0  0  0  0  0  0
    8.5743   42.4578   68.3637 C   0  0  2  0  0  0  0  0  0  0  0  0
    8.4480   40.9262   68.2999 C   0  0  0  0  0  0  0  0  0  0  0  0
    7.5304   40.9128   70.6165 C   0  0  0  0  0  0  0  0  0  0  0  0
    8.3968   40.3343   69.6811 N   0  0  0  0  0  0  0  0  0  0  0  0
   10.0083   42.8511   68.8290 C   0  0  0  0  0  0  0  0  0  0  0  0
  1  3  1  0  0  0  0
  2  3  2  0  0  0  0
  2 11  1  0  0  0  0
  3  4  1  0  0  0  0
  4  5  1  0  0  0  0
  5  6  1  0  0  0  0
  5  7  2  0  0  0  0
  6  8  1  0  0  0  0
  6 11  2  0  0  0  0
  8  9  1  0  0  0  0
  9 10  1  0  0  0  0
  9 13  1  1  0  0  0
 10 12  1  0  0  0  0
 11 12  1  0  0  0  0
M  END
>  <CHROM.1>
7.30778803,41.75634809,70.63347973,-2.64010774,0.85219935,-0.37818433

>  <Name>
ligand

>  <RI>
0

>  <Rbt.Current_Directory>
/home/itssahil/PROJECTS/Mol_Feturizer/New_Systems/rnas/3SUX

>  <Rbt.Executable>
rbdock ($Id: //depot/dev/client3/rdock/2013.1/src/exe/rbdock.cxx#4 $)

>  <Rbt.Library>
libRbt.so (2013.1, Build901 2013/11/27)

>  <Rbt.Parameter_File>
/export/apps/rDock/src/rDock_2013.1_src/data/scripts/dock_solv.prm

>  <Rbt.Receptor>
prm/pocket_docking_5.prm

>  <SCORE>
-8.71223

>  <SCORE.INTER>
-8.71223

>  <SCORE.INTER.CONST>
1

>  <SCORE.INTER.POLAR>
0

>  <SCORE.INTER.ROT>
0

>  <SCORE.INTER.SOLV>
12.9782

>  <SCORE.INTER.VDW>
-13.7342

>  <SCORE.INTER.norm>
-0.670171

>  <SCORE.INTRA>
0

>  <SCORE.INTRA.DIHEDRAL>
0

>  <SCORE.INTRA.DIHEDRAL.0>
0

>  <SCORE.INTRA.POLAR>
0

>  <SCORE.INTRA.POLAR.0>
0

>  <SCORE.INTRA.REPUL>
0

>  <SCORE.INTRA.REPUL.0>
0

>  <SCORE.INTRA.SOLV>
0

>  <SCORE.INTRA.SOLV.lig_0>
-48.6608

>  <SCORE.INTRA.VDW>
0

>  <SCORE.INTRA.VDW.0>
0

>  <SCORE.INTRA.norm>
0

>  <SCORE.RESTR>
0

>  <SCORE.RESTR.CAVITY>
0

>  <SCORE.RESTR.norm>
0

>  <SCORE.SYSTEM>
0

>  <SCORE.SYSTEM.CONST>
0

>  <SCORE.SYSTEM.DIHEDRAL>
0

>  <SCORE.SYSTEM.SOLV>
0

>  <SCORE.SYSTEM.norm>
0

>  <SCORE.heavy>
13

>  <SCORE.norm>
-0.670171

>  <RMSD>
6.161

$$$$
ligand
 OpenBabel11021811483D
libRbt.so/2013.1/901 2013/11/27
 13 14  0  0  0  0  0  0  0  0999 V2000
    5.7639   39.9984   73.5974 N   0  0  0  0  0  0  0  0  0  0  0  0
    7.0344   40.1872   71.6677 N   0  0  0  0  0  0  0  0  0  0  0  0
    6.2155   40.7336   72.5853 C   0  0  0  0  0  0  0  0  0  0  0  0
    5.8234   42.0672   72.4768 N   0  0  0  0  0  0  0  0  0  0  0  0
    6.3099   42.8186   71.4051 C   0  0  0  0  0  0  0  0  0  0  0  0
    7.1669   42.2339   70.4784 C   0  0  0  0  0  0  0  0  0  0  0  0
    5.9755   43.9960   71.2786 O   0  0  0  0  0  0  0  0  0  0  0  0
    7.6230   42.9801   69.3750 N   0  0  0  0  0  0  0  0  0  0  0  0
    8.5825   42.4256   68.3784 C   0  0  2  0  0  0  0  0  0  0  0  0
    8.4079   40.8993   68.3030 C   0  0  0  0  0  0  0  0  0  0  0  0
    7.5032   40.8956   70.6246 C   0  0  0  0  0  0  0  0  0  0  0  0
    8.3458   40.2979   69.6797 N   0  0  0  0  0  0  0  0  0  0  0  0
   10.0308   42.7699   68.8385 C   0  0  0  0  0  0  0  0  0  0  0  0
  1  3  1  0  0  0  0
  2  3  2  0  0  0  0
  2 11  1  0  0  0  0
  3  4  1  0  0  0  0
  4  5  1  0  0  0  0
  5  6  1  0  0  0  0
  5  7  2  0  0  0  0
  6  8  1  0  0  0  0
  6 11  2  0  0  0  0
  8  9  1  0  0  0  0
  9 10  1  0  0  0  0
  9 13  1  1  0  0  0
 10 12  1  0  0  0  0
 11 12  1  0  0  0  0
M  END
>  <CHROM.1>
7.30725995,41.74555616,70.64972732,-2.68215686,0.86852842,-0.33816455

>  <Name>
ligand

>  <RI>
0

>  <Rbt.Current_Directory>
/home/itssahil/PROJECTS/Mol_Feturizer/New_Systems/rnas/3SUX

>  <Rbt.Executable>
rbdock ($Id: //depot/dev/client3/rdock/2013.1/src/exe/rbdock.cxx#4 $)

>  <Rbt.Library>
libRbt.so (2013.1, Build901 2013/11/27)

>  <Rbt.Parameter_File>
/export/apps/rDock/src/rDock_2013.1_src/data/scripts/dock_solv.prm

>  <Rbt.Receptor>
prm/pocket_docking_5.prm

>  <SCORE>
-8.66813

>  <SCORE.INTER>
-8.66813

>  <SCORE.INTER.CONST>
1

>  <SCORE.INTER.POLAR>
0

>  <SCORE.INTER.ROT>
0

>  <SCORE.INTER.SOLV>
13.0393

>  <SCORE.INTER.VDW>
-13.7252

>  <SCORE.INTER.norm>
-0.666779

>  <SCORE.INTRA>
0

>  <SCORE.INTRA.DIHEDRAL>
0

>  <SCORE.INTRA.DIHEDRAL.0>
0

>  <SCORE.INTRA.POLAR>
0

>  <SCORE.INTRA.POLAR.0>
0

>  <SCORE.INTRA.REPUL>
0

>  <SCORE.INTRA.REPUL.0>
0

>  <SCORE.INTRA.SOLV>
0

>  <SCORE.INTRA.SOLV.lig_0>
-48.6608

>  <SCORE.INTRA.VDW>
0

>  <SCORE.INTRA.VDW.0>
0

>  <SCORE.INTRA.norm>
0

>  <SCORE.RESTR>
0

>  <SCORE.RESTR.CAVITY>
0

>  <SCORE.RESTR.norm>
0

>  <SCORE.SYSTEM>
0

>  <SCORE.SYSTEM.CONST>
0

>  <SCORE.SYSTEM.DIHEDRAL>
0

>  <SCORE.SYSTEM.SOLV>
0

>  <SCORE.SYSTEM.norm>
0

>  <SCORE.heavy>
13

>  <SCORE.norm>
-0.666779

>  <RMSD>
6.163

$$$$
ligand
 OpenBabel11021811483D
libRbt.so/2013.1/901 2013/11/27
 13 14  0  0  0  0  0  0  0  0999 V2000
    5.7478   39.9686   73.5711 N   0  0  0  0  0  0  0  0  0  0  0  0
    7.0311   40.1813   71.6523 N   0  0  0  0  0  0  0  0  0  0  0  0
    6.1991   40.7139   72.5663 C   0  0  0  0  0  0  0  0  0  0  0  0
    5.7934   42.0437   72.4616 N   0  0  0  0  0  0  0  0  0  0  0  0
    6.2800   42.8059   71.3976 C   0  0  0  0  0  0  0  0  0  0  0  0
    7.1504   42.2355   70.4745 C   0  0  0  0  0  0  0  0  0  0  0  0
    5.9337   43.9802   71.2745 O   0  0  0  0  0  0  0  0  0  0  0  0
    7.6069   42.9922   69.3786 N   0  0  0  0  0  0  0  0  0  0  0  0
    8.5801   42.4534   68.3867 C   0  0  2  0  0  0  0  0  0  0  0  0
    8.4227   40.9257   68.3021 C   0  0  0  0  0  0  0  0  0  0  0  0
    7.5002   40.9001   70.6166 C   0  0  0  0  0  0  0  0  0  0  0  0
    8.3565   40.3165   69.6752 N   0  0  0  0  0  0  0  0  0  0  0  0
   10.0209   42.8111   68.8598 C   0  0  0  0  0  0  0  0  0  0  0  0
  1  3  1  0  0  0  0
  2  3  2  0  0  0  0
  2 11  1  0  0  0  0
  3  4  1  0  0  0  0
  4  5  1  0  0  0  0
  5  6  1  0  0  0  0
  5  7  2  0  0  0  0
  6  8  1  0  0  0  0
  6 11  2  0  0  0  0
  8  9  1  0  0  0  0
  9 10  1  0  0  0  0
  9 13  1  1  0  0  0
 10 12  1  0  0  0  0
 11 12  1  0  0  0  0
M  END
>  <CHROM.1>
7.29478749,41.74774489,70.64449829,-2.67033432,0.85756297,-0.34197622

>  <Name>
ligand

>  <RI>
0

>  <Rbt.Current_Directory>
/home/itssahil/PROJECTS/Mol_Feturizer/New_Systems/rnas/3SUX

>  <Rbt.Executable>
rbdock ($Id: //depot/dev/client3/rdock/2013.1/src/exe/rbdock.cxx#4 $)

>  <Rbt.Library>
libRbt.so (2013.1, Build901 2013/11/27)

>  <Rbt.Parameter_File>
/export/apps/rDock/src/rDock_2013.1_src/data/scripts/dock_solv.prm

>  <Rbt.Receptor>
prm/pocket_docking_5.prm

>  <SCORE>
-8.69313

>  <SCORE.INTER>
-8.69313

>  <SCORE.INTER.CONST>
1

>  <SCORE.INTER.POLAR>
0

>  <SCORE.INTER.ROT>
0

>  <SCORE.INTER.SOLV>
13.2559

>  <SCORE.INTER.VDW>
-13.814

>  <SCORE.INTER.norm>
-0.668702

>  <SCORE.INTRA>
0

>  <SCORE.INTRA.DIHEDRAL>
0

>  <SCORE.INTRA.DIHEDRAL.0>
0

>  <SCORE.INTRA.POLAR>
0

>  <SCORE.INTRA.POLAR.0>
0

>  <SCORE.INTRA.REPUL>
0

>  <SCORE.INTRA.REPUL.0>
0

>  <SCORE.INTRA.SOLV>
0

>  <SCORE.INTRA.SOLV.lig_0>
-48.6608

>  <SCORE.INTRA.VDW>
0

>  <SCORE.INTRA.VDW.0>
0

>  <SCORE.INTRA.norm>
0

>  <SCORE.RESTR>
0

>  <SCORE.RESTR.CAVITY>
0

>  <SCORE.RESTR.norm>
0

>  <SCORE.SYSTEM>
0

>  <SCORE.SYSTEM.CONST>
0

>  <SCORE.SYSTEM.DIHEDRAL>
0

>  <SCORE.SYSTEM.SOLV>
0

>  <SCORE.SYSTEM.norm>
0

>  <SCORE.heavy>
13

>  <SCORE.norm>
-0.668702

>  <RMSD>
6.171

$$$$
ligand
 OpenBabel11021811483D
libRbt.so/2013.1/901 2013/11/27
 13 14  0  0  0  0  0  0  0  0999 V2000
    5.7630   39.9711   73.5736 N   0  0  0  0  0  0  0  0  0  0  0  0
    7.0512   40.1754   71.6572 N   0  0  0  0  0  0  0  0  0  0  0  0
    6.2029   40.7068   72.5568 C   0  0  0  0  0  0  0  0  0  0  0  0
    5.7683   42.0250   72.4244 N   0  0  0  0  0  0  0  0  0  0  0  0
    6.2433   42.7773   71.3482 C   0  0  0  0  0  0  0  0  0  0  0  0
    7.1310   42.2087   70.4405 C   0  0  0  0  0  0  0  0  0  0  0  0
    5.8717   43.9410   71.2007 O   0  0  0  0  0  0  0  0  0  0  0  0
    7.5762   42.9543   69.3324 N   0  0  0  0  0  0  0  0  0  0  0  0
    8.5663   42.4184   68.3556 C   0  0  2  0  0  0  0  0  0  0  0  0
    8.4433   40.8862   68.2999 C   0  0  0  0  0  0  0  0  0  0  0  0
    7.5096   40.8845   70.6100 C   0  0  0  0  0  0  0  0  0  0  0  0
    8.3835   40.3022   69.6842 N   0  0  0  0  0  0  0  0  0  0  0  0
    9.9963   42.8170   68.8286 C   0  0  0  0  0  0  0  0  0  0  0  0
  1  3  1  0  0  0  0
  2  3  2  0  0  0  0
  2 11  1  0  0  0  0
  3  4  1  0  0  0  0
  4  5  1  0  0  0  0
  5  6  1  0  0  0  0
  5  7  2  0  0  0  0
  6  8  1  0  0  0  0
  6 11  2  0  0  0  0
  8  9  1  0  0  0  0
  9 10  1  0  0  0  0
  9 13  1  1  0  0  0
 10 12  1  0  0  0  0
 11 12  1  0  0  0  0
M  END
>  <CHROM.1>
7.28527522,41.72773341,70.62055197,-2.64144338,0.84501636,-0.38300286

>  <Name>
ligand

>  <RI>
0

>  <Rbt.Current_Directory>
/home/itssahil/PROJECTS/Mol_Feturizer/New_Systems/rnas/3SUX

>  <Rbt.Executable>
rbdock ($Id: //depot/dev/client3/rdock/2013.1/src/exe/rbdock.cxx#4 $)

>  <Rbt.Library>
libRbt.so (2013.1, Build901 2013/11/27)

>  <Rbt.Parameter_File>
/export/apps/rDock/src/rDock_2013.1_src/data/scripts/dock_solv.prm

>  <Rbt.Receptor>
prm/pocket_docking_5.prm

>  <SCORE>
-8.62411

>  <SCORE.INTER>
-8.62411

>  <SCORE.INTER.CONST>
1

>  <SCORE.INTER.POLAR>
0

>  <SCORE.INTER.ROT>
0

>  <SCORE.INTER.SOLV>
13.4513

>  <SCORE.INTER.VDW>
-13.8332

>  <SCORE.INTER.norm>
-0.663393

>  <SCORE.INTRA>
0

>  <SCORE.INTRA.DIHEDRAL>
0

>  <SCORE.INTRA.DIHEDRAL.0>
0

>  <SCORE.INTRA.POLAR>
0

>  <SCORE.INTRA.POLAR.0>
0

>  <SCORE.INTRA.REPUL>
0

>  <SCORE.INTRA.REPUL.0>
0

>  <SCORE.INTRA.SOLV>
0

>  <SCORE.INTRA.SOLV.lig_0>
-48.6608

>  <SCORE.INTRA.VDW>
0

>  <SCORE.INTRA.VDW.0>
0

>  <SCORE.INTRA.norm>
0

>  <SCORE.RESTR>
0

>  <SCORE.RESTR.CAVITY>
0

>  <SCORE.RESTR.norm>
0

>  <SCORE.SYSTEM>
0

>  <SCORE.SYSTEM.CONST>
0

>  <SCORE.SYSTEM.DIHEDRAL>
0

>  <SCORE.SYSTEM.SOLV>
0

>  <SCORE.SYSTEM.norm>
0

>  <SCORE.heavy>
13

>  <SCORE.norm>
-0.663393

>  <RMSD>
6.176

$$$$
ligand
 OpenBabel11021811483D
libRbt.so/2013.1/901 2013/11/27
 13 14  0  0  0  0  0  0  0  0999 V2000
    5.6607   40.0239   73.6000 N   0  0  0  0  0  0  0  0  0  0  0  0
    6.9609   40.2116   71.6900 N   0  0  0  0  0  0  0  0  0  0  0  0
    6.1333   40.7603   72.5985 C   0  0  0  0  0  0  0  0  0  0  0  0
    5.7544   42.0978   72.4912 N   0  0  0  0  0  0  0  0  0  0  0  0
    6.2630   42.8504   71.4308 C   0  0  0  0  0  0  0  0  0  0  0  0
    7.1284   42.2631   70.5135 C   0  0  0  0  0  0  0  0  0  0  0  0
    5.9407   44.0313   71.3056 O   0  0  0  0  0  0  0  0  0  0  0  0
    7.6070   43.0109   69.4209 N   0  0  0  0  0  0  0  0  0  0  0  0
    8.5762   42.4533   68.4354 C   0  0  2  0  0  0  0  0  0  0  0  0
    8.3895   40.9290   68.3495 C   0  0  0  0  0  0  0  0  0  0  0  0
    7.4509   40.9212   70.6576 C   0  0  0  0  0  0  0  0  0  0  0  0
    8.3021   40.3211   69.7219 N   0  0  0  0  0  0  0  0  0  0  0  0
   10.0205   42.7826   68.9184 C   0  0  0  0  0  0  0  0  0  0  0  0
  1  3  1  0  0  0  0
  2  3  2  0  0  0  0
  2 11  1  0  0  0  0
  3  4  1  0  0  0  0
  4  5  1  0  0  0  0
  5  6  1  0  0  0  0
  5  7  2  0  0  0  0
  6  8  1  0  0  0  0
  6 11  2  0  0  0  0
  8  9  1  0  0  0  0
  9 10  1  0  0  0  0
  9 13  1  1  0  0  0
 10 12  1  0  0  0  0
 11 12  1  0  0  0  0
M  END
>  <CHROM.1>
7.26202159,41.77268445,70.68434505,-2.70200409,0.85748166,-0.31786796

>  <Name>
ligand

>  <RI>
0

>  <Rbt.Current_Directory>
/home/itssahil/PROJECTS/Mol_Feturizer/New_Systems/rnas/3SUX

>  <Rbt.Executable>
rbdock ($Id: //depot/dev/client3/rdock/2013.1/src/exe/rbdock.cxx#4 $)

>  <Rbt.Library>
libRbt.so (2013.1, Build901 2013/11/27)

>  <Rbt.Parameter_File>
/export/apps/rDock/src/rDock_2013.1_src/data/scripts/dock_solv.prm

>  <Rbt.Receptor>
prm/pocket_docking_5.prm

>  <SCORE>
-8.65871

>  <SCORE.INTER>
-8.65871

>  <SCORE.INTER.CONST>
1

>  <SCORE.INTER.POLAR>
0

>  <SCORE.INTER.ROT>
0

>  <SCORE.INTER.SOLV>
13.4597

>  <SCORE.INTER.VDW>
-13.859

>  <SCORE.INTER.norm>
-0.666055

>  <SCORE.INTRA>
0

>  <SCORE.INTRA.DIHEDRAL>
0

>  <SCORE.INTRA.DIHEDRAL.0>
0

>  <SCORE.INTRA.POLAR>
0

>  <SCORE.INTRA.POLAR.0>
0

>  <SCORE.INTRA.REPUL>
0

>  <SCORE.INTRA.REPUL.0>
0

>  <SCORE.INTRA.SOLV>
0

>  <SCORE.INTRA.SOLV.lig_0>
-48.6608

>  <SCORE.INTRA.VDW>
0

>  <SCORE.INTRA.VDW.0>
0

>  <SCORE.INTRA.norm>
0

>  <SCORE.RESTR>
0

>  <SCORE.RESTR.CAVITY>
0

>  <SCORE.RESTR.norm>
0

>  <SCORE.SYSTEM>
0

>  <SCORE.SYSTEM.CONST>
0

>  <SCORE.SYSTEM.DIHEDRAL>
0

>  <SCORE.SYSTEM.SOLV>
0

>  <SCORE.SYSTEM.norm>
0

>  <SCORE.heavy>
13

>  <SCORE.norm>
-0.666055

>  <RMSD>
6.198

$$$$
ligand
 OpenBabel11021811483D
libRbt.so/2013.1/901 2013/11/27
 13 14  0  0  0  0  0  0  0  0999 V2000
    5.6659   40.0027   73.5997 N   0  0  0  0  0  0  0  0  0  0  0  0
    6.9708   40.2000   71.6940 N   0  0  0  0  0  0  0  0  0  0  0  0
    6.1348   40.7421   72.5987 C   0  0  0  0  0  0  0  0  0  0  0  0
    5.7434   42.0757   72.4881 N   0  0  0  0  0  0  0  0  0  0  0  0
    6.2484   42.8316   71.4283 C   0  0  0  0  0  0  0  0  0  0  0  0
    7.1225   42.2514   70.5149 C   0  0  0  0  0  0  0  0  0  0  0  0
    5.9150   44.0092   71.3001 O   0  0  0  0  0  0  0  0  0  0  0  0
    7.5977   43.0021   69.4228 N   0  0  0  0  0  0  0  0  0  0  0  0
    8.5757   42.4524   68.4416 C   0  0  2  0  0  0  0  0  0  0  0  0
    8.4041   40.9262   68.3574 C   0  0  0  0  0  0  0  0  0  0  0  0
    7.4576   40.9129   70.6622 C   0  0  0  0  0  0  0  0  0  0  0  0
    8.3177   40.3195   69.7304 N   0  0  0  0  0  0  0  0  0  0  0  0
   10.0150   42.7964   68.9291 C   0  0  0  0  0  0  0  0  0  0  0  0
  1  3  1  0  0  0  0
  2  3  2  0  0  0  0
  2 11  1  0  0  0  0
  3  4  1  0  0  0  0
  4  5  1  0  0  0  0
  5  6  1  0  0  0  0
  5  7  2  0  0  0  0
  6  8  1  0  0  0  0
  6 11  2  0  0  0  0
  8  9  1  0  0  0  0
  9 10  1  0  0  0  0
  9 13  1  1  0  0  0
 10 12  1  0  0  0  0
 11 12  1  0  0  0  0
M  END
>  <CHROM.1>
7.26032763,41.76248280,70.68697229,-2.68969849,0.85112109,-0.32868223

>  <Name>
ligand

>  <RI>
0

>  <Rbt.Current_Directory>
/home/itssahil/PROJECTS/Mol_Feturizer/New_Systems/rnas/3SUX

>  <Rbt.Executable>
rbdock ($Id: //depot/dev/client3/rdock/2013.1/src/exe/rbdock.cxx#4 $)

>  <Rbt.Library>
libRbt.so (2013.1, Build901 2013/11/27)

>  <Rbt.Parameter_File>
/export/apps/rDock/src/rDock_2013.1_src/data/scripts/dock_solv.prm

>  <Rbt.Receptor>
prm/pocket_docking_5.prm

>  <SCORE>
-8.68107

>  <SCORE.INTER>
-8.68107

>  <SCORE.INTER.CONST>
1

>  <SCORE.INTER.POLAR>
0

>  <SCORE.INTER.ROT>
0

>  <SCORE.INTER.SOLV>
13.4311

>  <SCORE.INTER.VDW>
-13.8644

>  <SCORE.INTER.norm>
-0.667775

>  <SCORE.INTRA>
0

>  <SCORE.INTRA.DIHEDRAL>
0

>  <SCORE.INTRA.DIHEDRAL.0>
0

>  <SCORE.INTRA.POLAR>
0

>  <SCORE.INTRA.POLAR.0>
0

>  <SCORE.INTRA.REPUL>
0

>  <SCORE.INTRA.REPUL.0>
0

>  <SCORE.INTRA.SOLV>
0

>  <SCORE.INTRA.SOLV.lig_0>
-48.6608

>  <SCORE.INTRA.VDW>
0

>  <SCORE.INTRA.VDW.0>
0

>  <SCORE.INTRA.norm>
0

>  <SCORE.RESTR>
0

>  <SCORE.RESTR.CAVITY>
0

>  <SCORE.RESTR.norm>
0

>  <SCORE.SYSTEM>
0

>  <SCORE.SYSTEM.CONST>
0

>  <SCORE.SYSTEM.DIHEDRAL>
0

>  <SCORE.SYSTEM.SOLV>
0

>  <SCORE.SYSTEM.norm>
0

>  <SCORE.heavy>
13

>  <SCORE.norm>
-0.667775

>  <RMSD>
6.204

$$$$
ligand
 OpenBabel11021811483D
libRbt.so/2013.1/901 2013/11/27
 13 14  0  0  0  0  0  0  0  0999 V2000
    5.6598   40.0003   73.6003 N   0  0  0  0  0  0  0  0  0  0  0  0
    6.9730   40.2000   71.7005 N   0  0  0  0  0  0  0  0  0  0  0  0
    6.1285   40.7394   72.5989 C   0  0  0  0  0  0  0  0  0  0  0  0
    5.7281   42.0697   72.4813 N   0  0  0  0  0  0  0  0  0  0  0  0
    6.2330   42.8253   71.4212 C   0  0  0  0  0  0  0  0  0  0  0  0
    7.1159   42.2479   70.5145 C   0  0  0  0  0  0  0  0  0  0  0  0
    5.8919   43.9999   71.2870 O   0  0  0  0  0  0  0  0  0  0  0  0
    7.5912   42.9980   69.4220 N   0  0  0  0  0  0  0  0  0  0  0  0
    8.5781   42.4517   68.4478 C   0  0  2  0  0  0  0  0  0  0  0  0
    8.4179   40.9240   68.3684 C   0  0  0  0  0  0  0  0  0  0  0  0
    7.4599   40.9124   70.6685 C   0  0  0  0  0  0  0  0  0  0  0  0
    8.3290   40.3219   69.7433 N   0  0  0  0  0  0  0  0  0  0  0  0
   10.0124   42.8079   68.9412 C   0  0  0  0  0  0  0  0  0  0  0  0
  1  3  1  0  0  0  0
  2  3  2  0  0  0  0
  2 11  1  0  0  0  0
  3  4  1  0  0  0  0
  4  5  1  0  0  0  0
  5  6  1  0  0  0  0
  5  7  2  0  0  0  0
  6  8  1  0  0  0  0
  6 11  2  0  0  0  0
  8  9  1  0  0  0  0
  9 10  1  0  0  0  0
  9 13  1  1  0  0  0
 10 12  1  0  0  0  0
 11 12  1  0  0  0  0
M  END
>  <CHROM.1>
7.25637277,41.76071515,70.68907182,-2.68192978,0.84397152,-0.33825221

>  <Name>
ligand

>  <RI>
0

>  <Rbt.Current_Directory>
/home/itssahil/PROJECTS/Mol_Feturizer/New_Systems/rnas/3SUX

>  <Rbt.Executable>
rbdock ($Id: //depot/dev/client3/rdock/2013.1/src/exe/rbdock.cxx#4 $)

>  <Rbt.Library>
libRbt.so (2013.1, Build901 2013/11/27)

>  <Rbt.Parameter_File>
/export/apps/rDock/src/rDock_2013.1_src/data/scripts/dock_solv.prm

>  <Rbt.Receptor>
prm/pocket_docking_5.prm

>  <SCORE>
-8.71214

>  <SCORE.INTER>
-8.71249

>  <SCORE.INTER.CONST>
1

>  <SCORE.INTER.POLAR>
0

>  <SCORE.INTER.ROT>
0

>  <SCORE.INTER.SOLV>
13.4672

>  <SCORE.INTER.VDW>
-13.8974

>  <SCORE.INTER.norm>
-0.670191

>  <SCORE.INTRA>
0

>  <SCORE.INTRA.DIHEDRAL>
0

>  <SCORE.INTRA.DIHEDRAL.0>
0

>  <SCORE.INTRA.POLAR>
0

>  <SCORE.INTRA.POLAR.0>
0

>  <SCORE.INTRA.REPUL>
0

>  <SCORE.INTRA.REPUL.0>
0

>  <SCORE.INTRA.SOLV>
0

>  <SCORE.INTRA.SOLV.lig_0>
-48.6608

>  <SCORE.INTRA.VDW>
0

>  <SCORE.INTRA.VDW.0>
0

>  <SCORE.INTRA.norm>
0

>  <SCORE.RESTR>
0.000343562

>  <SCORE.RESTR.CAVITY>
0.000343562

>  <SCORE.RESTR.norm>
2.64279e-05

>  <SCORE.SYSTEM>
0

>  <SCORE.SYSTEM.CONST>
0

>  <SCORE.SYSTEM.DIHEDRAL>
0

>  <SCORE.SYSTEM.SOLV>
0

>  <SCORE.SYSTEM.norm>
0

>  <SCORE.heavy>
13

>  <SCORE.norm>
-0.670165

>  <RMSD>
6.209

$$$$
ligand
 OpenBabel11021811483D
libRbt.so/2013.1/901 2013/11/27
 13 14  0  0  0  0  0  0  0  0999 V2000
    5.6411   40.0107   73.6001 N   0  0  0  0  0  0  0  0  0  0  0  0
    6.9637   40.2048   71.7061 N   0  0  0  0  0  0  0  0  0  0  0  0
    6.1115   40.7456   72.5964 C   0  0  0  0  0  0  0  0  0  0  0  0
    5.7047   42.0730   72.4677 N   0  0  0  0  0  0  0  0  0  0  0  0
    6.2115   42.8242   71.4054 C   0  0  0  0  0  0  0  0  0  0  0  0
    7.1024   42.2455   70.5074 C   0  0  0  0  0  0  0  0  0  0  0  0
    5.8650   43.9961   71.2615 O   0  0  0  0  0  0  0  0  0  0  0  0
    7.5798   42.9909   69.4125 N   0  0  0  0  0  0  0  0  0  0  0  0
    8.5749   42.4433   68.4474 C   0  0  2  0  0  0  0  0  0  0  0  0
    8.4231   40.9143   68.3773 C   0  0  0  0  0  0  0  0  0  0  0  0
    7.4525   40.9129   70.6721 C   0  0  0  0  0  0  0  0  0  0  0  0
    8.3298   40.3208   69.7556 N   0  0  0  0  0  0  0  0  0  0  0  0
   10.0046   42.8103   68.9463 C   0  0  0  0  0  0  0  0  0  0  0  0
  1  3  1  0  0  0  0
  2  3  2  0  0  0  0
  2 11  1  0  0  0  0
  3  4  1  0  0  0  0
  4  5  1  0  0  0  0
  5  6  1  0  0  0  0
  5  7  2  0  0  0  0
  6  8  1  0  0  0  0
  6 11  2  0  0  0  0
  8  9  1  0  0  0  0
  9 10  1  0  0  0  0
  9 13  1  1  0  0  0
 10 12  1  0  0  0  0
 11 12  1  0  0  0  0
M  END
>  <CHROM.1>
7.24445595,41.76022016,70.68594162,-2.67727274,0.83702965,-0.34835466

>  <Name>
ligand

>  <RI>
0

>  <Rbt.Current_Directory>
/home/itssahil/PROJECTS/Mol_Feturizer/New_Systems/rnas/3SUX

>  <Rbt.Executable>
rbdock ($Id: //depot/dev/client3/rdock/2013.1/src/exe/rbdock.cxx#4 $)

>  <Rbt.Library>
libRbt.so (2013.1, Build901 2013/11/27)

>  <Rbt.Parameter_File>
/export/apps/rDock/src/rDock_2013.1_src/data/scripts/dock_solv.prm

>  <Rbt.Receptor>
prm/pocket_docking_5.prm

>  <SCORE>
-8.66451

>  <SCORE.INTER>
-8.66457

>  <SCORE.INTER.CONST>
1

>  <SCORE.INTER.POLAR>
0

>  <SCORE.INTER.ROT>
0

>  <SCORE.INTER.SOLV>
13.65

>  <SCORE.INTER.VDW>
-13.9264

>  <SCORE.INTER.norm>
-0.666506

>  <SCORE.INTRA>
0

>  <SCORE.INTRA.DIHEDRAL>
0

>  <SCORE.INTRA.DIHEDRAL.0>
0

>  <SCORE.INTRA.POLAR>
0

>  <SCORE.INTRA.POLAR.0>
0

>  <SCORE.INTRA.REPUL>
0

>  <SCORE.INTRA.REPUL.0>
0

>  <SCORE.INTRA.SOLV>
0

>  <SCORE.INTRA.SOLV.lig_0>
-48.6608

>  <SCORE.INTRA.VDW>
0

>  <SCORE.INTRA.VDW.0>
0

>  <SCORE.INTRA.norm>
0

>  <SCORE.RESTR>
6.85126e-05

>  <SCORE.RESTR.CAVITY>
6.85126e-05

>  <SCORE.RESTR.norm>
5.2702e-06

>  <SCORE.SYSTEM>
0

>  <SCORE.SYSTEM.CONST>
0

>  <SCORE.SYSTEM.DIHEDRAL>
0

>  <SCORE.SYSTEM.SOLV>
0

>  <SCORE.SYSTEM.norm>
0

>  <SCORE.heavy>
13

>  <SCORE.norm>
-0.6665

>  <RMSD>
6.217

$$$$
ligand
 OpenBabel11021811483D
libRbt.so/2013.1/901 2013/11/27
 13 14  0  0  0  0  0  0  0  0999 V2000
    5.7302   39.4093   73.5330 N   0  0  0  0  0  0  0  0  0  0  0  0
    6.9474   39.8562   71.6115 N   0  0  0  0  0  0  0  0  0  0  0  0
    6.1519   40.2730   72.6139 C   0  0  0  0  0  0  0  0  0  0  0  0
    5.7531   41.6067   72.6906 N   0  0  0  0  0  0  0  0  0  0  0  0
    6.2081   42.4945   71.7136 C   0  0  0  0  0  0  0  0  0  0  0  0
    7.0414   42.0412   70.6962 C   0  0  0  0  0  0  0  0  0  0  0  0
    5.8669   43.6762   71.7506 O   0  0  0  0  0  0  0  0  0  0  0  0
    7.4652   42.9277   69.6879 N   0  0  0  0  0  0  0  0  0  0  0  0
    8.3991   42.5141   68.6024 C   0  0  2  0  0  0  0  0  0  0  0  0
    8.2270   41.0095   68.3332 C   0  0  0  0  0  0  0  0  0  0  0  0
    7.3856   40.6975   70.6577 C   0  0  0  0  0  0  0  0  0  0  0  0
    8.2041   40.2335   69.6209 N   0  0  0  0  0  0  0  0  0  0  0  0
    9.8582   42.8050   69.0649 C   0  0  0  0  0  0  0  0  0  0  0  0
  1  3  1  0  0  0  0
  2  3  2  0  0  0  0
  2 11  1  0  0  0  0
  3  4  1  0  0  0  0
  4  5  1  0  0  0  0
  5  6  1  0  0  0  0
  5  7  2  0  0  0  0
  6  8  1  0  0  0  0
  6 11  2  0  0  0  0
  8  9  1  0  0  0  0
  9 10  1  0  0  0  0
  9 13  1  1  0  0  0
 10 12  1  0  0  0  0
 11 12  1  0  0  0  0
M  END
>  <CHROM.1>
7.18784619,41.53562747,70.79858069,-2.66327292,0.89299861,-0.22197096

>  <Name>
ligand

>  <RI>
0

>  <Rbt.Current_Directory>
/home/itssahil/PROJECTS/Mol_Feturizer/New_Systems/rnas/3SUX

>  <Rbt.Executable>
rbdock ($Id: //depot/dev/client3/rdock/2013.1/src/exe/rbdock.cxx#4 $)

>  <Rbt.Library>
libRbt.so (2013.1, Build901 2013/11/27)

>  <Rbt.Parameter_File>
/export/apps/rDock/src/rDock_2013.1_src/data/scripts/dock_solv.prm

>  <Rbt.Receptor>
prm/pocket_docking_7.prm

>  <SCORE>
-8.91854

>  <SCORE.INTER>
-8.91854

>  <SCORE.INTER.CONST>
1

>  <SCORE.INTER.POLAR>
0

>  <SCORE.INTER.ROT>
0

>  <SCORE.INTER.SOLV>
12.9303

>  <SCORE.INTER.VDW>
-13.8558

>  <SCORE.INTER.norm>
-0.686041

>  <SCORE.INTRA>
0

>  <SCORE.INTRA.DIHEDRAL>
0

>  <SCORE.INTRA.DIHEDRAL.0>
0

>  <SCORE.INTRA.POLAR>
0

>  <SCORE.INTRA.POLAR.0>
0

>  <SCORE.INTRA.REPUL>
0

>  <SCORE.INTRA.REPUL.0>
0

>  <SCORE.INTRA.SOLV>
0

>  <SCORE.INTRA.SOLV.lig_0>
-48.6608

>  <SCORE.INTRA.VDW>
0

>  <SCORE.INTRA.VDW.0>
0

>  <SCORE.INTRA.norm>
0

>  <SCORE.RESTR>
0

>  <SCORE.RESTR.CAVITY>
0

>  <SCORE.RESTR.norm>
0

>  <SCORE.SYSTEM>
0

>  <SCORE.SYSTEM.CONST>
0

>  <SCORE.SYSTEM.DIHEDRAL>
0

>  <SCORE.SYSTEM.SOLV>
0

>  <SCORE.SYSTEM.norm>
0

>  <SCORE.heavy>
13

>  <SCORE.norm>
-0.686041

>  <RMSD>
6.323

$$$$
ligand
 OpenBabel11021811483D
libRbt.so/2013.1/901 2013/11/27
 13 14  0  0  0  0  0  0  0  0999 V2000
    5.8263   39.3564   73.5627 N   0  0  0  0  0  0  0  0  0  0  0  0
    7.0383   39.8331   71.6450 N   0  0  0  0  0  0  0  0  0  0  0  0
    6.2161   40.2262   72.6353 C   0  0  0  0  0  0  0  0  0  0  0  0
    5.7563   41.5413   72.6908 N   0  0  0  0  0  0  0  0  0  0  0  0
    6.1787   42.4360   71.7055 C   0  0  0  0  0  0  0  0  0  0  0  0
    7.0405   42.0079   70.7009 C   0  0  0  0  0  0  0  0  0  0  0  0
    5.7837   43.6012   71.7238 O   0  0  0  0  0  0  0  0  0  0  0  0
    7.4321   42.8995   69.6841 N   0  0  0  0  0  0  0  0  0  0  0  0
    8.3931   42.5147   68.6118 C   0  0  2  0  0  0  0  0  0  0  0  0
    8.2921   41.0004   68.3617 C   0  0  0  0  0  0  0  0  0  0  0  0
    7.4459   40.6809   70.6834 C   0  0  0  0  0  0  0  0  0  0  0  0
    8.2935   40.2412   69.6595 N   0  0  0  0  0  0  0  0  0  0  0  0
    9.8334   42.8779   69.0820 C   0  0  0  0  0  0  0  0  0  0  0  0
  1  3  1  0  0  0  0
  2  3  2  0  0  0  0
  2 11  1  0  0  0  0
  3  4  1  0  0  0  0
  4  5  1  0  0  0  0
  5  6  1  0  0  0  0
  5  7  2  0  0  0  0
  6  8  1  0  0  0  0
  6 11  2  0  0  0  0
  8  9  1  0  0  0  0
  9 10  1  0  0  0  0
  9 13  1  1  0  0  0
 10 12  1  0  0  0  0
 11 12  1  0  0  0  0
M  END
>  <CHROM.1>
7.20895180,41.51088333,70.81136228,-2.59694885,0.87350017,-0.28659869

>  <Name>
ligand

>  <RI>
0

>  <Rbt.Current_Directory>
/home/itssahil/PROJECTS/Mol_Feturizer/New_Systems/rnas/3SUX

>  <Rbt.Executable>
rbdock ($Id: //depot/dev/client3/rdock/2013.1/src/exe/rbdock.cxx#4 $)

>  <Rbt.Library>
libRbt.so (2013.1, Build901 2013/11/27)

>  <Rbt.Parameter_File>
/export/apps/rDock/src/rDock_2013.1_src/data/scripts/dock_solv.prm

>  <Rbt.Receptor>
prm/pocket_docking_6.prm

>  <SCORE>
-9.02034

>  <SCORE.INTER>
-9.02034

>  <SCORE.INTER.CONST>
1

>  <SCORE.INTER.POLAR>
0

>  <SCORE.INTER.ROT>
0

>  <SCORE.INTER.SOLV>
12.4663

>  <SCORE.INTER.VDW>
-13.769

>  <SCORE.INTER.norm>
-0.693872

>  <SCORE.INTRA>
0

>  <SCORE.INTRA.DIHEDRAL>
0

>  <SCORE.INTRA.DIHEDRAL.0>
0

>  <SCORE.INTRA.POLAR>
0

>  <SCORE.INTRA.POLAR.0>
0

>  <SCORE.INTRA.REPUL>
0

>  <SCORE.INTRA.REPUL.0>
0

>  <SCORE.INTRA.SOLV>
0

>  <SCORE.INTRA.SOLV.lig_0>
-48.6608

>  <SCORE.INTRA.VDW>
0

>  <SCORE.INTRA.VDW.0>
0

>  <SCORE.INTRA.norm>
0

>  <SCORE.RESTR>
0

>  <SCORE.RESTR.CAVITY>
0

>  <SCORE.RESTR.norm>
0

>  <SCORE.SYSTEM>
0

>  <SCORE.SYSTEM.CONST>
0

>  <SCORE.SYSTEM.DIHEDRAL>
0

>  <SCORE.SYSTEM.SOLV>
0

>  <SCORE.SYSTEM.norm>
0

>  <SCORE.heavy>
13

>  <SCORE.norm>
-0.693872

>  <RMSD>
6.328

$$$$
ligand
 OpenBabel11021811483D
libRbt.so/2013.1/901 2013/11/27
 13 14  0  0  0  0  0  0  0  0999 V2000
    5.7789   39.5065   73.6489 N   0  0  0  0  0  0  0  0  0  0  0  0
    6.9933   39.9120   71.7164 N   0  0  0  0  0  0  0  0  0  0  0  0
    6.1882   40.3471   72.7031 C   0  0  0  0  0  0  0  0  0  0  0  0
    5.7662   41.6756   72.7358 N   0  0  0  0  0  0  0  0  0  0  0  0
    6.2085   42.5391   71.7315 C   0  0  0  0  0  0  0  0  0  0  0  0
    7.0521   42.0676   70.7310 C   0  0  0  0  0  0  0  0  0  0  0  0
    5.8468   43.7152   71.7295 O   0  0  0  0  0  0  0  0  0  0  0  0
    7.4632   42.9282   69.6954 N   0  0  0  0  0  0  0  0  0  0  0  0
    8.4070   42.4959   68.6258 C   0  0  2  0  0  0  0  0  0  0  0  0
    8.2616   40.9807   68.4052 C   0  0  0  0  0  0  0  0  0  0  0  0
    7.4195   40.7295   70.7367 C   0  0  0  0  0  0  0  0  0  0  0  0
    8.2485   40.2464   69.7172 N   0  0  0  0  0  0  0  0  0  0  0  0
    9.8596   42.8267   69.0818 C   0  0  0  0  0  0  0  0  0  0  0  0
  1  3  1  0  0  0  0
  2  3  2  0  0  0  0
  2 11  1  0  0  0  0
  3  4  1  0  0  0  0
  4  5  1  0  0  0  0
  5  6  1  0  0  0  0
  5  7  2  0  0  0  0
  6  8  1  0  0  0  0
  6 11  2  0  0  0  0
  8  9  1  0  0  0  0
  9 10  1  0  0  0  0
  9 13  1  1  0  0  0
 10 12  1  0  0  0  0
 11 12  1  0  0  0  0
M  END
>  <CHROM.1>
7.20696405,41.56816631,70.85002748,-2.63764366,0.88647711,-0.27424291

>  <Name>
ligand

>  <RI>
0

>  <Rbt.Current_Directory>
/home/itssahil/PROJECTS/Mol_Feturizer/New_Systems/rnas/3SUX

>  <Rbt.Executable>
rbdock ($Id: //depot/dev/client3/rdock/2013.1/src/exe/rbdock.cxx#4 $)

>  <Rbt.Library>
libRbt.so (2013.1, Build901 2013/11/27)

>  <Rbt.Parameter_File>
/export/apps/rDock/src/rDock_2013.1_src/data/scripts/dock_solv.prm

>  <Rbt.Receptor>
prm/pocket_docking_6.prm

>  <SCORE>
-8.99833

>  <SCORE.INTER>
-8.99833

>  <SCORE.INTER.CONST>
1

>  <SCORE.INTER.POLAR>
0

>  <SCORE.INTER.ROT>
0

>  <SCORE.INTER.SOLV>
12.2072

>  <SCORE.INTER.VDW>
-13.6679

>  <SCORE.INTER.norm>
-0.692179

>  <SCORE.INTRA>
0

>  <SCORE.INTRA.DIHEDRAL>
0

>  <SCORE.INTRA.DIHEDRAL.0>
0

>  <SCORE.INTRA.POLAR>
0

>  <SCORE.INTRA.POLAR.0>
0

>  <SCORE.INTRA.REPUL>
0

>  <SCORE.INTRA.REPUL.0>
0

>  <SCORE.INTRA.SOLV>
0

>  <SCORE.INTRA.SOLV.lig_0>
-48.6608

>  <SCORE.INTRA.VDW>
0

>  <SCORE.INTRA.VDW.0>
0

>  <SCORE.INTRA.norm>
0

>  <SCORE.RESTR>
0

>  <SCORE.RESTR.CAVITY>
0

>  <SCORE.RESTR.norm>
0

>  <SCORE.SYSTEM>
0

>  <SCORE.SYSTEM.CONST>
0

>  <SCORE.SYSTEM.DIHEDRAL>
0

>  <SCORE.SYSTEM.SOLV>
0

>  <SCORE.SYSTEM.norm>
0

>  <SCORE.heavy>
13

>  <SCORE.norm>
-0.692179

>  <RMSD>
6.330

$$$$
ligand
 OpenBabel11021811483D
libRbt.so/2013.1/901 2013/11/27
 13 14  0  0  0  0  0  0  0  0999 V2000
    5.7275   39.4654   73.5731 N   0  0  0  0  0  0  0  0  0  0  0  0
    6.9496   39.8936   71.6504 N   0  0  0  0  0  0  0  0  0  0  0  0
    6.1443   40.3182   72.6416 C   0  0  0  0  0  0  0  0  0  0  0  0
    5.7301   41.6485   72.6937 N   0  0  0  0  0  0  0  0  0  0  0  0
    6.1802   42.5248   71.7042 C   0  0  0  0  0  0  0  0  0  0  0  0
    7.0238   42.0639   70.6987 C   0  0  0  0  0  0  0  0  0  0  0  0
    5.8255   43.7029   71.7195 O   0  0  0  0  0  0  0  0  0  0  0  0
    7.4429   42.9380   69.6777 N   0  0  0  0  0  0  0  0  0  0  0  0
    8.3870   42.5167   68.6041 C   0  0  2  0  0  0  0  0  0  0  0  0
    8.2333   41.0060   68.3596 C   0  0  0  0  0  0  0  0  0  0  0  0
    7.3833   40.7237   70.6847 C   0  0  0  0  0  0  0  0  0  0  0  0
    8.2124   40.2516   69.6600 N   0  0  0  0  0  0  0  0  0  0  0  0
    9.8403   42.8318   69.0690 C   0  0  0  0  0  0  0  0  0  0  0  0
  1  3  1  0  0  0  0
  2  3  2  0  0  0  0
  2 11  1  0  0  0  0
  3  4  1  0  0  0  0
  4  5  1  0  0  0  0
  5  6  1  0  0  0  0
  5  7  2  0  0  0  0
  6  8  1  0  0  0  0
  6 11  2  0  0  0  0
  8  9  1  0  0  0  0
  9 10  1  0  0  0  0
  9 13  1  1  0  0  0
 10 12  1  0  0  0  0
 11 12  1  0  0  0  0
M  END
>  <CHROM.1>
7.17543936,41.56173868,70.81040699,-2.64776808,0.88537299,-0.25089287

>  <Name>
ligand

>  <RI>
0

>  <Rbt.Current_Directory>
/home/itssahil/PROJECTS/Mol_Feturizer/New_Systems/rnas/3SUX

>  <Rbt.Executable>
rbdock ($Id: //depot/dev/client3/rdock/2013.1/src/exe/rbdock.cxx#4 $)

>  <Rbt.Library>
libRbt.so (2013.1, Build901 2013/11/27)

>  <Rbt.Parameter_File>
/export/apps/rDock/src/rDock_2013.1_src/data/scripts/dock_solv.prm

>  <Rbt.Receptor>
prm/pocket_docking_6.prm

>  <SCORE>
-8.96533

>  <SCORE.INTER>
-8.96533

>  <SCORE.INTER.CONST>
1

>  <SCORE.INTER.POLAR>
0

>  <SCORE.INTER.ROT>
0

>  <SCORE.INTER.SOLV>
12.8681

>  <SCORE.INTER.VDW>
-13.8663

>  <SCORE.INTER.norm>
-0.689641

>  <SCORE.INTRA>
0

>  <SCORE.INTRA.DIHEDRAL>
0

>  <SCORE.INTRA.DIHEDRAL.0>
0

>  <SCORE.INTRA.POLAR>
0

>  <SCORE.INTRA.POLAR.0>
0

>  <SCORE.INTRA.REPUL>
0

>  <SCORE.INTRA.REPUL.0>
0

>  <SCORE.INTRA.SOLV>
0

>  <SCORE.INTRA.SOLV.lig_0>
-48.6608

>  <SCORE.INTRA.VDW>
0

>  <SCORE.INTRA.VDW.0>
0

>  <SCORE.INTRA.norm>
0

>  <SCORE.RESTR>
0

>  <SCORE.RESTR.CAVITY>
0

>  <SCORE.RESTR.norm>
0

>  <SCORE.SYSTEM>
0

>  <SCORE.SYSTEM.CONST>
0

>  <SCORE.SYSTEM.DIHEDRAL>
0

>  <SCORE.SYSTEM.SOLV>
0

>  <SCORE.SYSTEM.norm>
0

>  <SCORE.heavy>
13

>  <SCORE.norm>
-0.689641

>  <RMSD>
6.332

$$$$
ligand
 OpenBabel11021811483D
libRbt.so/2013.1/901 2013/11/27
 13 14  0  0  0  0  0  0  0  0999 V2000
    5.8085   39.4617   73.6367 N   0  0  0  0  0  0  0  0  0  0  0  0
    7.0131   39.8964   71.7045 N   0  0  0  0  0  0  0  0  0  0  0  0
    6.2052   40.3144   72.6964 C   0  0  0  0  0  0  0  0  0  0  0  0
    5.7674   41.6374   72.7402 N   0  0  0  0  0  0  0  0  0  0  0  0
    6.1968   42.5137   71.7415 C   0  0  0  0  0  0  0  0  0  0  0  0
    7.0435   42.0600   70.7354 C   0  0  0  0  0  0  0  0  0  0  0  0
    5.8210   43.6854   71.7493 O   0  0  0  0  0  0  0  0  0  0  0  0
    7.4417   42.9333   69.7054 N   0  0  0  0  0  0  0  0  0  0  0  0
    8.3878   42.5205   68.6302 C   0  0  2  0  0  0  0  0  0  0  0  0
    8.2601   41.0054   68.3984 C   0  0  0  0  0  0  0  0  0  0  0  0
    7.4269   40.7264   70.7300 C   0  0  0  0  0  0  0  0  0  0  0  0
    8.2592   40.2611   69.7049 N   0  0  0  0  0  0  0  0  0  0  0  0
    9.8375   42.8654   69.0852 C   0  0  0  0  0  0  0  0  0  0  0  0
  1  3  1  0  0  0  0
  2  3  2  0  0  0  0
  2 11  1  0  0  0  0
  3  4  1  0  0  0  0
  4  5  1  0  0  0  0
  5  6  1  0  0  0  0
  5  7  2  0  0  0  0
  6  8  1  0  0  0  0
  6 11  2  0  0  0  0
  8  9  1  0  0  0  0
  9 10  1  0  0  0  0
  9 13  1  1  0  0  0
 10 12  1  0  0  0  0
 11 12  1  0  0  0  0
M  END
>  <CHROM.1>
7.20465807,41.56157268,70.85022323,-2.61828550,0.88554023,-0.28164782

>  <Name>
ligand

>  <RI>
0

>  <Rbt.Current_Directory>
/home/itssahil/PROJECTS/Mol_Feturizer/New_Systems/rnas/3SUX

>  <Rbt.Executable>
rbdock ($Id: //depot/dev/client3/rdock/2013.1/src/exe/rbdock.cxx#4 $)

>  <Rbt.Library>
libRbt.so (2013.1, Build901 2013/11/27)

>  <Rbt.Parameter_File>
/export/apps/rDock/src/rDock_2013.1_src/data/scripts/dock_solv.prm

>  <Rbt.Receptor>
prm/pocket_docking_7.prm

>  <SCORE>
-8.97714

>  <SCORE.INTER>
-8.97714

>  <SCORE.INTER.CONST>
1

>  <SCORE.INTER.POLAR>
0

>  <SCORE.INTER.ROT>
0

>  <SCORE.INTER.SOLV>
12.1473

>  <SCORE.INTER.VDW>
-13.6339

>  <SCORE.INTER.norm>
-0.690549

>  <SCORE.INTRA>
0

>  <SCORE.INTRA.DIHEDRAL>
0

>  <SCORE.INTRA.DIHEDRAL.0>
0

>  <SCORE.INTRA.POLAR>
0

>  <SCORE.INTRA.POLAR.0>
0

>  <SCORE.INTRA.REPUL>
0

>  <SCORE.INTRA.REPUL.0>
0

>  <SCORE.INTRA.SOLV>
0

>  <SCORE.INTRA.SOLV.lig_0>
-48.6608

>  <SCORE.INTRA.VDW>
0

>  <SCORE.INTRA.VDW.0>
0

>  <SCORE.INTRA.norm>
0

>  <SCORE.RESTR>
0

>  <SCORE.RESTR.CAVITY>
0

>  <SCORE.RESTR.norm>
0

>  <SCORE.SYSTEM>
0

>  <SCORE.SYSTEM.CONST>
0

>  <SCORE.SYSTEM.DIHEDRAL>
0

>  <SCORE.SYSTEM.SOLV>
0

>  <SCORE.SYSTEM.norm>
0

>  <SCORE.heavy>
13

>  <SCORE.norm>
-0.690549

>  <RMSD>
6.333

$$$$
ligand
 OpenBabel11021811483D
libRbt.so/2013.1/901 2013/11/27
 13 14  0  0  0  0  0  0  0  0999 V2000
    5.8350   39.3316   73.5734 N   0  0  0  0  0  0  0  0  0  0  0  0
    7.0342   39.8192   71.6504 N   0  0  0  0  0  0  0  0  0  0  0  0
    6.2234   40.2081   72.6517 C   0  0  0  0  0  0  0  0  0  0  0  0
    5.7738   41.5258   72.7246 N   0  0  0  0  0  0  0  0  0  0  0  0
    6.1945   42.4276   71.7450 C   0  0  0  0  0  0  0  0  0  0  0  0
    7.0445   42.0035   70.7287 C   0  0  0  0  0  0  0  0  0  0  0  0
    5.8083   43.5954   71.7786 O   0  0  0  0  0  0  0  0  0  0  0  0
    7.4341   42.9027   69.7179 N   0  0  0  0  0  0  0  0  0  0  0  0
    8.3831   42.5219   68.6334 C   0  0  2  0  0  0  0  0  0  0  0  0
    8.2688   41.0111   68.3687 C   0  0  0  0  0  0  0  0  0  0  0  0
    7.4399   40.6738   70.6941 C   0  0  0  0  0  0  0  0  0  0  0  0
    8.2755   40.2385   69.6586 N   0  0  0  0  0  0  0  0  0  0  0  0
    9.8300   42.8697   69.0950 C   0  0  0  0  0  0  0  0  0  0  0  0
  1  3  1  0  0  0  0
  2  3  2  0  0  0  0
  2 11  1  0  0  0  0
  3  4  1  0  0  0  0
  4  5  1  0  0  0  0
  5  6  1  0  0  0  0
  5  7  2  0  0  0  0
  6  8  1  0  0  0  0
  6 11  2  0  0  0  0
  8  9  1  0  0  0  0
  9 10  1  0  0  0  0
  9 13  1  1  0  0  0
 10 12  1  0  0  0  0
 11 12  1  0  0  0  0
M  END
>  <CHROM.1>
7.21025360,41.50419010,70.83262755,-2.60439981,0.88372095,-0.27056803

>  <Name>
ligand

>  <RI>
0

>  <Rbt.Current_Directory>
/home/itssahil/PROJECTS/Mol_Feturizer/New_Systems/rnas/3SUX

>  <Rbt.Executable>
rbdock ($Id: //depot/dev/client3/rdock/2013.1/src/exe/rbdock.cxx#4 $)

>  <Rbt.Library>
libRbt.so (2013.1, Build901 2013/11/27)

>  <Rbt.Parameter_File>
/export/apps/rDock/src/rDock_2013.1_src/data/scripts/dock_solv.prm

>  <Rbt.Receptor>
prm/pocket_docking_8.prm

>  <SCORE>
-9.0256

>  <SCORE.INTER>
-9.0256

>  <SCORE.INTER.CONST>
1

>  <SCORE.INTER.POLAR>
0

>  <SCORE.INTER.ROT>
0

>  <SCORE.INTER.SOLV>
12.2769

>  <SCORE.INTER.VDW>
-13.7094

>  <SCORE.INTER.norm>
-0.694277

>  <SCORE.INTRA>
0

>  <SCORE.INTRA.DIHEDRAL>
0

>  <SCORE.INTRA.DIHEDRAL.0>
0

>  <SCORE.INTRA.POLAR>
0

>  <SCORE.INTRA.POLAR.0>
0

>  <SCORE.INTRA.REPUL>
0

>  <SCORE.INTRA.REPUL.0>
0

>  <SCORE.INTRA.SOLV>
0

>  <SCORE.INTRA.SOLV.lig_0>
-48.6608

>  <SCORE.INTRA.VDW>
0

>  <SCORE.INTRA.VDW.0>
0

>  <SCORE.INTRA.norm>
0

>  <SCORE.RESTR>
0

>  <SCORE.RESTR.CAVITY>
0

>  <SCORE.RESTR.norm>
0

>  <SCORE.SYSTEM>
0

>  <SCORE.SYSTEM.CONST>
0

>  <SCORE.SYSTEM.DIHEDRAL>
0

>  <SCORE.SYSTEM.SOLV>
0

>  <SCORE.SYSTEM.norm>
0

>  <SCORE.heavy>
13

>  <SCORE.norm>
-0.694277

>  <RMSD>
6.335

$$$$
ligand
 OpenBabel11021811483D
libRbt.so/2013.1/901 2013/11/27
 13 14  0  0  0  0  0  0  0  0999 V2000
    5.6249   39.9174   73.7513 N   0  0  0  0  0  0  0  0  0  0  0  0
    6.8699   40.1685   71.8120 N   0  0  0  0  0  0  0  0  0  0  0  0
    6.0626   40.6846   72.7571 C   0  0  0  0  0  0  0  0  0  0  0  0
    5.6682   42.0205   72.6958 N   0  0  0  0  0  0  0  0  0  0  0  0
    6.1401   42.8059   71.6421 C   0  0  0  0  0  0  0  0  0  0  0  0
    6.9852   42.2518   70.6862 C   0  0  0  0  0  0  0  0  0  0  0  0
    5.8032   43.9864   71.5572 O   0  0  0  0  0  0  0  0  0  0  0  0
    7.4263   43.0329   69.6011 N   0  0  0  0  0  0  0  0  0  0  0  0
    8.3731   42.5112   68.5750 C   0  0  2  0  0  0  0  0  0  0  0  0
    8.1986   40.9878   68.4538 C   0  0  0  0  0  0  0  0  0  0  0  0
    7.3244   40.9099   70.7858 C   0  0  0  0  0  0  0  0  0  0  0  0
    8.1550   40.3433   69.8115 N   0  0  0  0  0  0  0  0  0  0  0  0
    9.8270   42.8425   69.0267 C   0  0  0  0  0  0  0  0  0  0  0  0
  1  3  1  0  0  0  0
  2  3  2  0  0  0  0
  2 11  1  0  0  0  0
  3  4  1  0  0  0  0
  4  5  1  0  0  0  0
  5  6  1  0  0  0  0
  5  7  2  0  0  0  0
  6  8  1  0  0  0  0
  6 11  2  0  0  0  0
  8  9  1  0  0  0  0
  9 10  1  0  0  0  0
  9 13  1  1  0  0  0
 10 12  1  0  0  0  0
 11 12  1  0  0  0  0
M  END
>  <CHROM.1>
7.12822684,41.75842687,70.84024416,-2.67422941,0.88062942,-0.31270071

>  <Name>
ligand

>  <RI>
0

>  <Rbt.Current_Directory>
/home/itssahil/PROJECTS/Mol_Feturizer/New_Systems/rnas/3SUX

>  <Rbt.Executable>
rbdock ($Id: //depot/dev/client3/rdock/2013.1/src/exe/rbdock.cxx#4 $)

>  <Rbt.Library>
libRbt.so (2013.1, Build901 2013/11/27)

>  <Rbt.Parameter_File>
/export/apps/rDock/src/rDock_2013.1_src/data/scripts/dock_solv.prm

>  <Rbt.Receptor>
prm/pocket_docking_6.prm

>  <SCORE>
-8.96351

>  <SCORE.INTER>
-8.96351

>  <SCORE.INTER.CONST>
1

>  <SCORE.INTER.POLAR>
0

>  <SCORE.INTER.ROT>
0

>  <SCORE.INTER.SOLV>
13.0505

>  <SCORE.INTER.VDW>
-13.9258

>  <SCORE.INTER.norm>
-0.689501

>  <SCORE.INTRA>
0

>  <SCORE.INTRA.DIHEDRAL>
0

>  <SCORE.INTRA.DIHEDRAL.0>
0

>  <SCORE.INTRA.POLAR>
0

>  <SCORE.INTRA.POLAR.0>
0

>  <SCORE.INTRA.REPUL>
0

>  <SCORE.INTRA.REPUL.0>
0

>  <SCORE.INTRA.SOLV>
0

>  <SCORE.INTRA.SOLV.lig_0>
-48.6608

>  <SCORE.INTRA.VDW>
0

>  <SCORE.INTRA.VDW.0>
0

>  <SCORE.INTRA.norm>
0

>  <SCORE.RESTR>
0

>  <SCORE.RESTR.CAVITY>
0

>  <SCORE.RESTR.norm>
0

>  <SCORE.SYSTEM>
0

>  <SCORE.SYSTEM.CONST>
0

>  <SCORE.SYSTEM.DIHEDRAL>
0

>  <SCORE.SYSTEM.SOLV>
0

>  <SCORE.SYSTEM.norm>
0

>  <SCORE.heavy>
13

>  <SCORE.norm>
-0.689501

>  <RMSD>
6.336

$$$$
ligand
 OpenBabel11021811483D
libRbt.so/2013.1/901 2013/11/27
 13 14  0  0  0  0  0  0  0  0999 V2000
    5.8146   39.3185   73.5527 N   0  0  0  0  0  0  0  0  0  0  0  0
    7.0206   39.8101   71.6350 N   0  0  0  0  0  0  0  0  0  0  0  0
    6.2081   40.1974   72.6355 C   0  0  0  0  0  0  0  0  0  0  0  0
    5.7619   41.5161   72.7122 N   0  0  0  0  0  0  0  0  0  0  0  0
    6.1880   42.4204   71.7373 C   0  0  0  0  0  0  0  0  0  0  0  0
    7.0397   41.9979   70.7218 C   0  0  0  0  0  0  0  0  0  0  0  0
    5.8050   43.5892   71.7743 O   0  0  0  0  0  0  0  0  0  0  0  0
    7.4347   42.8999   69.7156 N   0  0  0  0  0  0  0  0  0  0  0  0
    8.3858   42.5207   68.6324 C   0  0  2  0  0  0  0  0  0  0  0  0
    8.2680   41.0112   68.3615 C   0  0  0  0  0  0  0  0  0  0  0  0
    7.4315   40.6673   70.6832 C   0  0  0  0  0  0  0  0  0  0  0  0
    8.2689   40.2336   69.6484 N   0  0  0  0  0  0  0  0  0  0  0  0
    9.8324   42.8626   69.0995 C   0  0  0  0  0  0  0  0  0  0  0  0
  1  3  1  0  0  0  0
  2  3  2  0  0  0  0
  2 11  1  0  0  0  0
  3  4  1  0  0  0  0
  4  5  1  0  0  0  0
  5  6  1  0  0  0  0
  5  7  2  0  0  0  0
  6  8  1  0  0  0  0
  6 11  2  0  0  0  0
  8  9  1  0  0  0  0
  9 10  1  0  0  0  0
  9 13  1  1  0  0  0
 10 12  1  0  0  0  0
 11 12  1  0  0  0  0
M  END
>  <CHROM.1>
7.20375663,41.49774558,70.82426993,-2.60985147,0.88167848,-0.26249874

>  <Name>
ligand

>  <RI>
0

>  <Rbt.Current_Directory>
/home/itssahil/PROJECTS/Mol_Feturizer/New_Systems/rnas/3SUX

>  <Rbt.Executable>
rbdock ($Id: //depot/dev/client3/rdock/2013.1/src/exe/rbdock.cxx#4 $)

>  <Rbt.Library>
libRbt.so (2013.1, Build901 2013/11/27)

>  <Rbt.Parameter_File>
/export/apps/rDock/src/rDock_2013.1_src/data/scripts/dock_solv.prm

>  <Rbt.Receptor>
prm/pocket_docking_6.prm

>  <SCORE>
-9.01696

>  <SCORE.INTER>
-9.01696

>  <SCORE.INTER.CONST>
1

>  <SCORE.INTER.POLAR>
0

>  <SCORE.INTER.ROT>
0

>  <SCORE.INTER.SOLV>
12.4546

>  <SCORE.INTER.VDW>
-13.7629

>  <SCORE.INTER.norm>
-0.693612

>  <SCORE.INTRA>
0

>  <SCORE.INTRA.DIHEDRAL>
0

>  <SCORE.INTRA.DIHEDRAL.0>
0

>  <SCORE.INTRA.POLAR>
0

>  <SCORE.INTRA.POLAR.0>
0

>  <SCORE.INTRA.REPUL>
0

>  <SCORE.INTRA.REPUL.0>
0

>  <SCORE.INTRA.SOLV>
0

>  <SCORE.INTRA.SOLV.lig_0>
-48.6608

>  <SCORE.INTRA.VDW>
0

>  <SCORE.INTRA.VDW.0>
0

>  <SCORE.INTRA.norm>
0

>  <SCORE.RESTR>
0

>  <SCORE.RESTR.CAVITY>
0

>  <SCORE.RESTR.norm>
0

>  <SCORE.SYSTEM>
0

>  <SCORE.SYSTEM.CONST>
0

>  <SCORE.SYSTEM.DIHEDRAL>
0

>  <SCORE.SYSTEM.SOLV>
0

>  <SCORE.SYSTEM.norm>
0

>  <SCORE.heavy>
13

>  <SCORE.norm>
-0.693612

>  <RMSD>
6.336

$$$$
ligand
 OpenBabel11021811483D
libRbt.so/2013.1/901 2013/11/27
 13 14  0  0  0  0  0  0  0  0999 V2000
    5.8038   39.4701   73.6501 N   0  0  0  0  0  0  0  0  0  0  0  0
    7.0111   39.8861   71.7154 N   0  0  0  0  0  0  0  0  0  0  0  0
    6.2012   40.3134   72.7016 C   0  0  0  0  0  0  0  0  0  0  0  0
    5.7619   41.6363   72.7310 N   0  0  0  0  0  0  0  0  0  0  0  0
    6.1919   42.5027   71.7240 C   0  0  0  0  0  0  0  0  0  0  0  0
    7.0408   42.0396   70.7240 C   0  0  0  0  0  0  0  0  0  0  0  0
    5.8149   43.6740   71.7190 O   0  0  0  0  0  0  0  0  0  0  0  0
    7.4397   42.9026   69.6856 N   0  0  0  0  0  0  0  0  0  0  0  0
    8.3881   42.4797   68.6163 C   0  0  2  0  0  0  0  0  0  0  0  0
    8.2623   40.9621   68.4001 C   0  0  0  0  0  0  0  0  0  0  0  0
    7.4256   40.7064   70.7331 C   0  0  0  0  0  0  0  0  0  0  0  0
    8.2601   40.2314   69.7141 N   0  0  0  0  0  0  0  0  0  0  0  0
    9.8366   42.8308   69.0701 C   0  0  0  0  0  0  0  0  0  0  0  0
  1  3  1  0  0  0  0
  2  3  2  0  0  0  0
  2 11  1  0  0  0  0
  3  4  1  0  0  0  0
  4  5  1  0  0  0  0
  5  6  1  0  0  0  0
  5  7  2  0  0  0  0
  6  8  1  0  0  0  0
  6 11  2  0  0  0  0
  8  9  1  0  0  0  0
  9 10  1  0  0  0  0
  9 13  1  1  0  0  0
 10 12  1  0  0  0  0
 11 12  1  0  0  0  0
M  END
>  <CHROM.1>
7.20227978,41.54252651,70.84424522,-2.61738571,0.88368146,-0.29270031

>  <Name>
ligand

>  <RI>
0

>  <Rbt.Current_Directory>
/home/itssahil/PROJECTS/Mol_Feturizer/New_Systems/rnas/3SUX

>  <Rbt.Executable>
rbdock ($Id: //depot/dev/client3/rdock/2013.1/src/exe/rbdock.cxx#4 $)

>  <Rbt.Library>
libRbt.so (2013.1, Build901 2013/11/27)

>  <Rbt.Parameter_File>
/export/apps/rDock/src/rDock_2013.1_src/data/scripts/dock_solv.prm

>  <Rbt.Receptor>
prm/pocket_docking_6.prm

>  <SCORE>
-9.00577

>  <SCORE.INTER>
-9.00577

>  <SCORE.INTER.CONST>
1

>  <SCORE.INTER.POLAR>
0

>  <SCORE.INTER.ROT>
0

>  <SCORE.INTER.SOLV>
12.2473

>  <SCORE.INTER.VDW>
-13.6863

>  <SCORE.INTER.norm>
-0.692752

>  <SCORE.INTRA>
0

>  <SCORE.INTRA.DIHEDRAL>
0

>  <SCORE.INTRA.DIHEDRAL.0>
0

>  <SCORE.INTRA.POLAR>
0

>  <SCORE.INTRA.POLAR.0>
0

>  <SCORE.INTRA.REPUL>
0

>  <SCORE.INTRA.REPUL.0>
0

>  <SCORE.INTRA.SOLV>
0

>  <SCORE.INTRA.SOLV.lig_0>
-48.6608

>  <SCORE.INTRA.VDW>
0

>  <SCORE.INTRA.VDW.0>
0

>  <SCORE.INTRA.norm>
0

>  <SCORE.RESTR>
0

>  <SCORE.RESTR.CAVITY>
0

>  <SCORE.RESTR.norm>
0

>  <SCORE.SYSTEM>
0

>  <SCORE.SYSTEM.CONST>
0

>  <SCORE.SYSTEM.DIHEDRAL>
0

>  <SCORE.SYSTEM.SOLV>
0

>  <SCORE.SYSTEM.norm>
0

>  <SCORE.heavy>
13

>  <SCORE.norm>
-0.692752

>  <RMSD>
6.337

$$$$
ligand
 OpenBabel11021811483D
libRbt.so/2013.1/901 2013/11/27
 13 14  0  0  0  0  0  0  0  0999 V2000
    5.8281   39.3360   73.5728 N   0  0  0  0  0  0  0  0  0  0  0  0
    7.0297   39.8228   71.6511 N   0  0  0  0  0  0  0  0  0  0  0  0
    6.2167   40.2119   72.6505 C   0  0  0  0  0  0  0  0  0  0  0  0
    5.7650   41.5291   72.7209 N   0  0  0  0  0  0  0  0  0  0  0  0
    6.1860   42.4301   71.7408 C   0  0  0  0  0  0  0  0  0  0  0  0
    7.0383   42.0060   70.7265 C   0  0  0  0  0  0  0  0  0  0  0  0
    5.7980   43.5974   71.7722 O   0  0  0  0  0  0  0  0  0  0  0  0
    7.4282   42.9043   69.7150 N   0  0  0  0  0  0  0  0  0  0  0  0
    8.3795   42.5235   68.6327 C   0  0  2  0  0  0  0  0  0  0  0  0
    8.2679   41.0122   68.3698 C   0  0  0  0  0  0  0  0  0  0  0  0
    7.4357   40.6768   70.6943 C   0  0  0  0  0  0  0  0  0  0  0  0
    8.2736   40.2413   69.6607 N   0  0  0  0  0  0  0  0  0  0  0  0
    9.8251   42.8741   69.0962 C   0  0  0  0  0  0  0  0  0  0  0  0
  1  3  1  0  0  0  0
  2  3  2  0  0  0  0
  2 11  1  0  0  0  0
  3  4  1  0  0  0  0
  4  5  1  0  0  0  0
  5  6  1  0  0  0  0
  5  7  2  0  0  0  0
  6  8  1  0  0  0  0
  6 11  2  0  0  0  0
  8  9  1  0  0  0  0
  9 10  1  0  0  0  0
  9 13  1  1  0  0  0
 10 12  1  0  0  0  0
 11 12  1  0  0  0  0
M  END
>  <CHROM.1>
7.20455413,41.50701231,70.83133541,-2.60282680,0.88174863,-0.27313196

>  <Name>
ligand

>  <RI>
0

>  <Rbt.Current_Directory>
/home/itssahil/PROJECTS/Mol_Feturizer/New_Systems/rnas/3SUX

>  <Rbt.Executable>
rbdock ($Id: //depot/dev/client3/rdock/2013.1/src/exe/rbdock.cxx#4 $)

>  <Rbt.Library>
libRbt.so (2013.1, Build901 2013/11/27)

>  <Rbt.Parameter_File>
/export/apps/rDock/src/rDock_2013.1_src/data/scripts/dock_solv.prm

>  <Rbt.Receptor>
prm/pocket_docking_8.prm

>  <SCORE>
-9.02723

>  <SCORE.INTER>
-9.02723

>  <SCORE.INTER.CONST>
1

>  <SCORE.INTER.POLAR>
0

>  <SCORE.INTER.ROT>
0

>  <SCORE.INTER.SOLV>
12.3372

>  <SCORE.INTER.VDW>
-13.7305

>  <SCORE.INTER.norm>
-0.694402

>  <SCORE.INTRA>
0

>  <SCORE.INTRA.DIHEDRAL>
0

>  <SCORE.INTRA.DIHEDRAL.0>
0

>  <SCORE.INTRA.POLAR>
0

>  <SCORE.INTRA.POLAR.0>
0

>  <SCORE.INTRA.REPUL>
0

>  <SCORE.INTRA.REPUL.0>
0

>  <SCORE.INTRA.SOLV>
0

>  <SCORE.INTRA.SOLV.lig_0>
-48.6608

>  <SCORE.INTRA.VDW>
0

>  <SCORE.INTRA.VDW.0>
0

>  <SCORE.INTRA.norm>
0

>  <SCORE.RESTR>
0

>  <SCORE.RESTR.CAVITY>
0

>  <SCORE.RESTR.norm>
0

>  <SCORE.SYSTEM>
0

>  <SCORE.SYSTEM.CONST>
0

>  <SCORE.SYSTEM.DIHEDRAL>
0

>  <SCORE.SYSTEM.SOLV>
0

>  <SCORE.SYSTEM.norm>
0

>  <SCORE.heavy>
13

>  <SCORE.norm>
-0.694402

>  <RMSD>
6.337

$$$$
ligand
 OpenBabel11021811483D
libRbt.so/2013.1/901 2013/11/27
 13 14  0  0  0  0  0  0  0  0999 V2000
    5.8672   39.3605   73.6174 N   0  0  0  0  0  0  0  0  0  0  0  0
    7.0456   39.8207   71.6749 N   0  0  0  0  0  0  0  0  0  0  0  0
    6.2424   40.2229   72.6771 C   0  0  0  0  0  0  0  0  0  0  0  0
    5.7868   41.5395   72.7316 N   0  0  0  0  0  0  0  0  0  0  0  0
    6.1937   42.4262   71.7326 C   0  0  0  0  0  0  0  0  0  0  0  0
    7.0361   41.9888   70.7157 C   0  0  0  0  0  0  0  0  0  0  0  0
    5.8019   43.5925   71.7498 O   0  0  0  0  0  0  0  0  0  0  0  0
    7.4115   42.8723   69.6858 N   0  0  0  0  0  0  0  0  0  0  0  0
    8.3521   42.4775   68.5991 C   0  0  2  0  0  0  0  0  0  0  0  0
    8.2429   40.9618   68.3615 C   0  0  0  0  0  0  0  0  0  0  0  0
    7.4378   40.6607   70.7002 C   0  0  0  0  0  0  0  0  0  0  0  0
    8.2658   40.2116   69.6643 N   0  0  0  0  0  0  0  0  0  0  0  0
    9.8016   42.8403   69.0407 C   0  0  0  0  0  0  0  0  0  0  0  0
  1  3  1  0  0  0  0
  2  3  2  0  0  0  0
  2 11  1  0  0  0  0
  3  4  1  0  0  0  0
  4  5  1  0  0  0  0
  5  6  1  0  0  0  0
  5  7  2  0  0  0  0
  6  8  1  0  0  0  0
  6 11  2  0  0  0  0
  8  9  1  0  0  0  0
  9 10  1  0  0  0  0
  9 13  1  1  0  0  0
 10 12  1  0  0  0  0
 11 12  1  0  0  0  0
M  END
>  <CHROM.1>
7.20532796,41.49218786,70.82658479,-2.59261197,0.89147965,-0.29694570

>  <Name>
ligand

>  <RI>
0

>  <Rbt.Current_Directory>
/home/itssahil/PROJECTS/Mol_Feturizer/New_Systems/rnas/3SUX

>  <Rbt.Executable>
rbdock ($Id: //depot/dev/client3/rdock/2013.1/src/exe/rbdock.cxx#4 $)

>  <Rbt.Library>
libRbt.so (2013.1, Build901 2013/11/27)

>  <Rbt.Parameter_File>
/export/apps/rDock/src/rDock_2013.1_src/data/scripts/dock_solv.prm

>  <Rbt.Receptor>
prm/pocket_docking_6.prm

>  <SCORE>
-8.9683

>  <SCORE.INTER>
-8.9683

>  <SCORE.INTER.CONST>
1

>  <SCORE.INTER.POLAR>
0

>  <SCORE.INTER.ROT>
0

>  <SCORE.INTER.SOLV>
12.2605

>  <SCORE.INTER.VDW>
-13.6657

>  <SCORE.INTER.norm>
-0.68987

>  <SCORE.INTRA>
0

>  <SCORE.INTRA.DIHEDRAL>
0

>  <SCORE.INTRA.DIHEDRAL.0>
0

>  <SCORE.INTRA.POLAR>
0

>  <SCORE.INTRA.POLAR.0>
0

>  <SCORE.INTRA.REPUL>
0

>  <SCORE.INTRA.REPUL.0>
0

>  <SCORE.INTRA.SOLV>
0

>  <SCORE.INTRA.SOLV.lig_0>
-48.6608

>  <SCORE.INTRA.VDW>
0

>  <SCORE.INTRA.VDW.0>
0

>  <SCORE.INTRA.norm>
0

>  <SCORE.RESTR>
0

>  <SCORE.RESTR.CAVITY>
0

>  <SCORE.RESTR.norm>
0

>  <SCORE.SYSTEM>
0

>  <SCORE.SYSTEM.CONST>
0

>  <SCORE.SYSTEM.DIHEDRAL>
0

>  <SCORE.SYSTEM.SOLV>
0

>  <SCORE.SYSTEM.norm>
0

>  <SCORE.heavy>
13

>  <SCORE.norm>
-0.68987

>  <RMSD>
6.338

$$$$
ligand
 OpenBabel11021811483D
libRbt.so/2013.1/901 2013/11/27
 13 14  0  0  0  0  0  0  0  0999 V2000
    5.7266   39.4379   73.5772 N   0  0  0  0  0  0  0  0  0  0  0  0
    6.9502   39.8740   71.6573 N   0  0  0  0  0  0  0  0  0  0  0  0
    6.1463   40.2951   72.6510 C   0  0  0  0  0  0  0  0  0  0  0  0
    5.7366   41.6264   72.7115 N   0  0  0  0  0  0  0  0  0  0  0  0
    6.1898   42.5073   71.7275 C   0  0  0  0  0  0  0  0  0  0  0  0
    7.0319   42.0499   70.7192 C   0  0  0  0  0  0  0  0  0  0  0  0
    5.8391   43.6866   71.7501 O   0  0  0  0  0  0  0  0  0  0  0  0
    7.4540   42.9289   69.7037 N   0  0  0  0  0  0  0  0  0  0  0  0
    8.3968   42.5112   68.6275 C   0  0  2  0  0  0  0  0  0  0  0  0
    8.2379   41.0025   68.3735 C   0  0  0  0  0  0  0  0  0  0  0  0
    7.3868   40.7085   70.6968 C   0  0  0  0  0  0  0  0  0  0  0  0
    8.2143   40.2400   69.6692 N   0  0  0  0  0  0  0  0  0  0  0  0
    9.8511   42.8184   69.0944 C   0  0  0  0  0  0  0  0  0  0  0  0
  1  3  1  0  0  0  0
  2  3  2  0  0  0  0
  2 11  1  0  0  0  0
  3  4  1  0  0  0  0
  4  5  1  0  0  0  0
  5  6  1  0  0  0  0
  5  7  2  0  0  0  0
  6  8  1  0  0  0  0
  6 11  2  0  0  0  0
  8  9  1  0  0  0  0
  9 10  1  0  0  0  0
  9 13  1  1  0  0  0
 10 12  1  0  0  0  0
 11 12  1  0  0  0  0
M  END
>  <CHROM.1>
7.18179605,41.54651988,70.82774368,-2.65302354,0.88615147,-0.24057300

>  <Name>
ligand

>  <RI>
0

>  <Rbt.Current_Directory>
/home/itssahil/PROJECTS/Mol_Feturizer/New_Systems/rnas/3SUX

>  <Rbt.Executable>
rbdock ($Id: //depot/dev/client3/rdock/2013.1/src/exe/rbdock.cxx#4 $)

>  <Rbt.Library>
libRbt.so (2013.1, Build901 2013/11/27)

>  <Rbt.Parameter_File>
/export/apps/rDock/src/rDock_2013.1_src/data/scripts/dock_solv.prm

>  <Rbt.Receptor>
prm/pocket_docking_8.prm

>  <SCORE>
-8.98774

>  <SCORE.INTER>
-8.98774

>  <SCORE.INTER.CONST>
1

>  <SCORE.INTER.POLAR>
0

>  <SCORE.INTER.ROT>
0

>  <SCORE.INTER.SOLV>
12.7372

>  <SCORE.INTER.VDW>
-13.8376

>  <SCORE.INTER.norm>
-0.691364

>  <SCORE.INTRA>
0

>  <SCORE.INTRA.DIHEDRAL>
0

>  <SCORE.INTRA.DIHEDRAL.0>
0

>  <SCORE.INTRA.POLAR>
0

>  <SCORE.INTRA.POLAR.0>
0

>  <SCORE.INTRA.REPUL>
0

>  <SCORE.INTRA.REPUL.0>
0

>  <SCORE.INTRA.SOLV>
0

>  <SCORE.INTRA.SOLV.lig_0>
-48.6608

>  <SCORE.INTRA.VDW>
0

>  <SCORE.INTRA.VDW.0>
0

>  <SCORE.INTRA.norm>
0

>  <SCORE.RESTR>
0

>  <SCORE.RESTR.CAVITY>
0

>  <SCORE.RESTR.norm>
0

>  <SCORE.SYSTEM>
0

>  <SCORE.SYSTEM.CONST>
0

>  <SCORE.SYSTEM.DIHEDRAL>
0

>  <SCORE.SYSTEM.SOLV>
0

>  <SCORE.SYSTEM.norm>
0

>  <SCORE.heavy>
13

>  <SCORE.norm>
-0.691364

>  <RMSD>
6.338

$$$$
ligand
 OpenBabel11021811483D
libRbt.so/2013.1/901 2013/11/27
 13 14  0  0  0  0  0  0  0  0999 V2000
    5.8264   39.3401   73.5767 N   0  0  0  0  0  0  0  0  0  0  0  0
    7.0239   39.8257   71.6521 N   0  0  0  0  0  0  0  0  0  0  0  0
    6.2149   40.2160   72.6544 C   0  0  0  0  0  0  0  0  0  0  0  0
    5.7673   41.5344   72.7276 N   0  0  0  0  0  0  0  0  0  0  0  0
    6.1882   42.4353   71.7474 C   0  0  0  0  0  0  0  0  0  0  0  0
    7.0363   42.0099   70.7301 C   0  0  0  0  0  0  0  0  0  0  0  0
    5.8037   43.6037   71.7813 O   0  0  0  0  0  0  0  0  0  0  0  0
    7.4259   42.9083   69.7186 N   0  0  0  0  0  0  0  0  0  0  0  0
    8.3730   42.5260   68.6331 C   0  0  2  0  0  0  0  0  0  0  0  0
    8.2561   41.0153   68.3687 C   0  0  0  0  0  0  0  0  0  0  0  0
    7.4296   40.6796   70.6952 C   0  0  0  0  0  0  0  0  0  0  0  0
    8.2633   40.2429   69.6587 N   0  0  0  0  0  0  0  0  0  0  0  0
    9.8210   42.8718   69.0928 C   0  0  0  0  0  0  0  0  0  0  0  0
  1  3  1  0  0  0  0
  2  3  2  0  0  0  0
  2 11  1  0  0  0  0
  3  4  1  0  0  0  0
  4  5  1  0  0  0  0
  5  6  1  0  0  0  0
  5  7  2  0  0  0  0
  6  8  1  0  0  0  0
  6 11  2  0  0  0  0
  8  9  1  0  0  0  0
  9 10  1  0  0  0  0
  9 13  1  1  0  0  0
 10 12  1  0  0  0  0
 11 12  1  0  0  0  0
M  END
>  <CHROM.1>
7.20135371,41.51034385,70.83387647,-2.60611810,0.88532022,-0.26938039

>  <Name>
ligand

>  <RI>
0

>  <Rbt.Current_Directory>
/home/itssahil/PROJECTS/Mol_Feturizer/New_Systems/rnas/3SUX

>  <Rbt.Executable>
rbdock ($Id: //depot/dev/client3/rdock/2013.1/src/exe/rbdock.cxx#4 $)

>  <Rbt.Library>
libRbt.so (2013.1, Build901 2013/11/27)

>  <Rbt.Parameter_File>
/export/apps/rDock/src/rDock_2013.1_src/data/scripts/dock_solv.prm

>  <Rbt.Receptor>
prm/pocket_docking_6.prm

>  <SCORE>
-9.02453

>  <SCORE.INTER>
-9.02453

>  <SCORE.INTER.CONST>
1

>  <SCORE.INTER.POLAR>
0

>  <SCORE.INTER.ROT>
0

>  <SCORE.INTER.SOLV>
12.3327

>  <SCORE.INTER.VDW>
-13.7272

>  <SCORE.INTER.norm>
-0.694194

>  <SCORE.INTRA>
0

>  <SCORE.INTRA.DIHEDRAL>
0

>  <SCORE.INTRA.DIHEDRAL.0>
0

>  <SCORE.INTRA.POLAR>
0

>  <SCORE.INTRA.POLAR.0>
0

>  <SCORE.INTRA.REPUL>
0

>  <SCORE.INTRA.REPUL.0>
0

>  <SCORE.INTRA.SOLV>
0

>  <SCORE.INTRA.SOLV.lig_0>
-48.6608

>  <SCORE.INTRA.VDW>
0

>  <SCORE.INTRA.VDW.0>
0

>  <SCORE.INTRA.norm>
0

>  <SCORE.RESTR>
0

>  <SCORE.RESTR.CAVITY>
0

>  <SCORE.RESTR.norm>
0

>  <SCORE.SYSTEM>
0

>  <SCORE.SYSTEM.CONST>
0

>  <SCORE.SYSTEM.DIHEDRAL>
0

>  <SCORE.SYSTEM.SOLV>
0

>  <SCORE.SYSTEM.norm>
0

>  <SCORE.heavy>
13

>  <SCORE.norm>
-0.694194

>  <RMSD>
6.339

$$$$
ligand
 OpenBabel11021811483D
libRbt.so/2013.1/901 2013/11/27
 13 14  0  0  0  0  0  0  0  0999 V2000
    5.8026   39.3732   73.6010 N   0  0  0  0  0  0  0  0  0  0  0  0
    7.0120   39.8258   71.6759 N   0  0  0  0  0  0  0  0  0  0  0  0
    6.2003   40.2342   72.6687 C   0  0  0  0  0  0  0  0  0  0  0  0
    5.7594   41.5558   72.7216 N   0  0  0  0  0  0  0  0  0  0  0  0
    6.1898   42.4409   71.7311 C   0  0  0  0  0  0  0  0  0  0  0  0
    7.0405   41.9970   70.7240 C   0  0  0  0  0  0  0  0  0  0  0  0
    5.8115   43.6117   71.7470 O   0  0  0  0  0  0  0  0  0  0  0  0
    7.4399   42.8793   69.7021 N   0  0  0  0  0  0  0  0  0  0  0  0
    8.3902   42.4771   68.6266 C   0  0  2  0  0  0  0  0  0  0  0  0
    8.2664   40.9635   68.3825 C   0  0  0  0  0  0  0  0  0  0  0  0
    7.4269   40.6643   70.7093 C   0  0  0  0  0  0  0  0  0  0  0  0
    8.2633   40.2090   69.6830 N   0  0  0  0  0  0  0  0  0  0  0  0
    9.8377   42.8215   69.0886 C   0  0  0  0  0  0  0  0  0  0  0  0
  1  3  1  0  0  0  0
  2  3  2  0  0  0  0
  2 11  1  0  0  0  0
  3  4  1  0  0  0  0
  4  5  1  0  0  0  0
  5  6  1  0  0  0  0
  5  7  2  0  0  0  0
  6  8  1  0  0  0  0
  6 11  2  0  0  0  0
  8  9  1  0  0  0  0
  9 10  1  0  0  0  0
  9 13  1  1  0  0  0
 10 12  1  0  0  0  0
 11 12  1  0  0  0  0
M  END
>  <CHROM.1>
7.20245461,41.49807562,70.83539207,-2.61627401,0.88205946,-0.27530850

>  <Name>
ligand

>  <RI>
0

>  <Rbt.Current_Directory>
/home/itssahil/PROJECTS/Mol_Feturizer/New_Systems/rnas/3SUX

>  <Rbt.Executable>
rbdock ($Id: //depot/dev/client3/rdock/2013.1/src/exe/rbdock.cxx#4 $)

>  <Rbt.Library>
libRbt.so (2013.1, Build901 2013/11/27)

>  <Rbt.Parameter_File>
/export/apps/rDock/src/rDock_2013.1_src/data/scripts/dock_solv.prm

>  <Rbt.Receptor>
prm/pocket_docking_6.prm

>  <SCORE>
-9.01757

>  <SCORE.INTER>
-9.01757

>  <SCORE.INTER.CONST>
1

>  <SCORE.INTER.POLAR>
0

>  <SCORE.INTER.ROT>
0

>  <SCORE.INTER.SOLV>
12.4099

>  <SCORE.INTER.VDW>
-13.7484

>  <SCORE.INTER.norm>
-0.69366

>  <SCORE.INTRA>
0

>  <SCORE.INTRA.DIHEDRAL>
0

>  <SCORE.INTRA.DIHEDRAL.0>
0

>  <SCORE.INTRA.POLAR>
0

>  <SCORE.INTRA.POLAR.0>
0

>  <SCORE.INTRA.REPUL>
0

>  <SCORE.INTRA.REPUL.0>
0

>  <SCORE.INTRA.SOLV>
0

>  <SCORE.INTRA.SOLV.lig_0>
-48.6608

>  <SCORE.INTRA.VDW>
0

>  <SCORE.INTRA.VDW.0>
0

>  <SCORE.INTRA.norm>
0

>  <SCORE.RESTR>
0

>  <SCORE.RESTR.CAVITY>
0

>  <SCORE.RESTR.norm>
0

>  <SCORE.SYSTEM>
0

>  <SCORE.SYSTEM.CONST>
0

>  <SCORE.SYSTEM.DIHEDRAL>
0

>  <SCORE.SYSTEM.SOLV>
0

>  <SCORE.SYSTEM.norm>
0

>  <SCORE.heavy>
13

>  <SCORE.norm>
-0.69366

>  <RMSD>
6.343

$$$$
ligand
 OpenBabel11021811483D
libRbt.so/2013.1/901 2013/11/27
 13 14  0  0  0  0  0  0  0  0999 V2000
    5.7528   39.4089   73.5759 N   0  0  0  0  0  0  0  0  0  0  0  0
    6.9660   39.8545   71.6515 N   0  0  0  0  0  0  0  0  0  0  0  0
    6.1594   40.2685   72.6462 C   0  0  0  0  0  0  0  0  0  0  0  0
    5.7333   41.5948   72.7039 N   0  0  0  0  0  0  0  0  0  0  0  0
    6.1728   42.4784   71.7161 C   0  0  0  0  0  0  0  0  0  0  0  0
    7.0180   42.0285   70.7069 C   0  0  0  0  0  0  0  0  0  0  0  0
    5.8075   43.6532   71.7362 O   0  0  0  0  0  0  0  0  0  0  0  0
    7.4264   42.9098   69.6877 N   0  0  0  0  0  0  0  0  0  0  0  0
    8.3715   42.5007   68.6103 C   0  0  2  0  0  0  0  0  0  0  0  0
    8.2309   40.9894   68.3611 C   0  0  0  0  0  0  0  0  0  0  0  0
    7.3896   40.6917   70.6875 C   0  0  0  0  0  0  0  0  0  0  0  0
    8.2202   40.2305   69.6591 N   0  0  0  0  0  0  0  0  0  0  0  0
    9.8231   42.8274   69.0725 C   0  0  0  0  0  0  0  0  0  0  0  0
  1  3  1  0  0  0  0
  2  3  2  0  0  0  0
  2 11  1  0  0  0  0
  3  4  1  0  0  0  0
  4  5  1  0  0  0  0
  5  6  1  0  0  0  0
  5  7  2  0  0  0  0
  6  8  1  0  0  0  0
  6 11  2  0  0  0  0
  8  9  1  0  0  0  0
  9 10  1  0  0  0  0
  9 13  1  1  0  0  0
 10 12  1  0  0  0  0
 11 12  1  0  0  0  0
M  END
>  <CHROM.1>
7.17441088,41.52739995,70.81653425,-2.63283342,0.88559922,-0.25914082

>  <Name>
ligand

>  <RI>
0

>  <Rbt.Current_Directory>
/home/itssahil/PROJECTS/Mol_Feturizer/New_Systems/rnas/3SUX

>  <Rbt.Executable>
rbdock ($Id: //depot/dev/client3/rdock/2013.1/src/exe/rbdock.cxx#4 $)

>  <Rbt.Library>
libRbt.so (2013.1, Build901 2013/11/27)

>  <Rbt.Parameter_File>
/export/apps/rDock/src/rDock_2013.1_src/data/scripts/dock_solv.prm

>  <Rbt.Receptor>
prm/pocket_docking_6.prm

>  <SCORE>
-8.99938

>  <SCORE.INTER>
-8.99938

>  <SCORE.INTER.CONST>
1

>  <SCORE.INTER.POLAR>
0

>  <SCORE.INTER.ROT>
0

>  <SCORE.INTER.SOLV>
12.8121

>  <SCORE.INTER.VDW>
-13.8703

>  <SCORE.INTER.norm>
-0.69226

>  <SCORE.INTRA>
0

>  <SCORE.INTRA.DIHEDRAL>
0

>  <SCORE.INTRA.DIHEDRAL.0>
0

>  <SCORE.INTRA.POLAR>
0

>  <SCORE.INTRA.POLAR.0>
0

>  <SCORE.INTRA.REPUL>
0

>  <SCORE.INTRA.REPUL.0>
0

>  <SCORE.INTRA.SOLV>
0

>  <SCORE.INTRA.SOLV.lig_0>
-48.6608

>  <SCORE.INTRA.VDW>
0

>  <SCORE.INTRA.VDW.0>
0

>  <SCORE.INTRA.norm>
0

>  <SCORE.RESTR>
0

>  <SCORE.RESTR.CAVITY>
0

>  <SCORE.RESTR.norm>
0

>  <SCORE.SYSTEM>
0

>  <SCORE.SYSTEM.CONST>
0

>  <SCORE.SYSTEM.DIHEDRAL>
0

>  <SCORE.SYSTEM.SOLV>
0

>  <SCORE.SYSTEM.norm>
0

>  <SCORE.heavy>
13

>  <SCORE.norm>
-0.69226

>  <RMSD>
6.343

$$$$
ligand
 OpenBabel11021811483D
libRbt.so/2013.1/901 2013/11/27
 13 14  0  0  0  0  0  0  0  0999 V2000
    5.8277   39.4022   73.6307 N   0  0  0  0  0  0  0  0  0  0  0  0
    7.0351   39.8582   71.7052 N   0  0  0  0  0  0  0  0  0  0  0  0
    6.2167   40.2624   72.6941 C   0  0  0  0  0  0  0  0  0  0  0  0
    5.7600   41.5790   72.7387 N   0  0  0  0  0  0  0  0  0  0  0  0
    6.1815   42.4635   71.7439 C   0  0  0  0  0  0  0  0  0  0  0  0
    7.0394   42.0241   70.7409 C   0  0  0  0  0  0  0  0  0  0  0  0
    5.7892   43.6298   71.7524 O   0  0  0  0  0  0  0  0  0  0  0  0
    7.4300   42.9053   69.7147 N   0  0  0  0  0  0  0  0  0  0  0  0
    8.3870   42.5083   68.6432 C   0  0  2  0  0  0  0  0  0  0  0  0
    8.2819   40.9920   68.4075 C   0  0  0  0  0  0  0  0  0  0  0  0
    7.4417   40.6961   70.7345 C   0  0  0  0  0  0  0  0  0  0  0  0
    8.2854   40.2449   69.7123 N   0  0  0  0  0  0  0  0  0  0  0  0
    9.8295   42.8727   69.1058 C   0  0  0  0  0  0  0  0  0  0  0  0
  1  3  1  0  0  0  0
  2  3  2  0  0  0  0
  2 11  1  0  0  0  0
  3  4  1  0  0  0  0
  4  5  1  0  0  0  0
  5  6  1  0  0  0  0
  5  7  2  0  0  0  0
  6  8  1  0  0  0  0
  6 11  2  0  0  0  0
  8  9  1  0  0  0  0
  9 10  1  0  0  0  0
  9 13  1  1  0  0  0
 10 12  1  0  0  0  0
 11 12  1  0  0  0  0
M  END
>  <CHROM.1>
7.20706119,41.52778705,70.85543057,-2.59901659,0.87694728,-0.29433929

>  <Name>
ligand

>  <RI>
0

>  <Rbt.Current_Directory>
/home/itssahil/PROJECTS/Mol_Feturizer/New_Systems/rnas/3SUX

>  <Rbt.Executable>
rbdock ($Id: //depot/dev/client3/rdock/2013.1/src/exe/rbdock.cxx#4 $)

>  <Rbt.Library>
libRbt.so (2013.1, Build901 2013/11/27)

>  <Rbt.Parameter_File>
/export/apps/rDock/src/rDock_2013.1_src/data/scripts/dock_solv.prm

>  <Rbt.Receptor>
prm/pocket_docking_8.prm

>  <SCORE>
-9.01685

>  <SCORE.INTER>
-9.01685

>  <SCORE.INTER.CONST>
1

>  <SCORE.INTER.POLAR>
0

>  <SCORE.INTER.ROT>
0

>  <SCORE.INTER.SOLV>
12.1021

>  <SCORE.INTER.VDW>
-13.6453

>  <SCORE.INTER.norm>
-0.693604

>  <SCORE.INTRA>
0

>  <SCORE.INTRA.DIHEDRAL>
0

>  <SCORE.INTRA.DIHEDRAL.0>
0

>  <SCORE.INTRA.POLAR>
0

>  <SCORE.INTRA.POLAR.0>
0

>  <SCORE.INTRA.REPUL>
0

>  <SCORE.INTRA.REPUL.0>
0

>  <SCORE.INTRA.SOLV>
0

>  <SCORE.INTRA.SOLV.lig_0>
-48.6608

>  <SCORE.INTRA.VDW>
0

>  <SCORE.INTRA.VDW.0>
0

>  <SCORE.INTRA.norm>
0

>  <SCORE.RESTR>
0

>  <SCORE.RESTR.CAVITY>
0

>  <SCORE.RESTR.norm>
0

>  <SCORE.SYSTEM>
0

>  <SCORE.SYSTEM.CONST>
0

>  <SCORE.SYSTEM.DIHEDRAL>
0

>  <SCORE.SYSTEM.SOLV>
0

>  <SCORE.SYSTEM.norm>
0

>  <SCORE.heavy>
13

>  <SCORE.norm>
-0.693604

>  <RMSD>
6.343

$$$$
ligand
 OpenBabel11021811483D
libRbt.so/2013.1/901 2013/11/27
 13 14  0  0  0  0  0  0  0  0999 V2000
    5.8481   39.4861   73.7014 N   0  0  0  0  0  0  0  0  0  0  0  0
    7.0454   39.9064   71.7614 N   0  0  0  0  0  0  0  0  0  0  0  0
    6.2299   40.3281   72.7454 C   0  0  0  0  0  0  0  0  0  0  0  0
    5.7685   41.6437   72.7646 N   0  0  0  0  0  0  0  0  0  0  0  0
    6.1824   42.5089   71.7498 C   0  0  0  0  0  0  0  0  0  0  0  0
    7.0374   42.0518   70.7522 C   0  0  0  0  0  0  0  0  0  0  0  0
    5.7858   43.6736   71.7358 O   0  0  0  0  0  0  0  0  0  0  0  0
    7.4203   42.9128   69.7062 N   0  0  0  0  0  0  0  0  0  0  0  0
    8.3741   42.4971   68.6389 C   0  0  2  0  0  0  0  0  0  0  0  0
    8.2735   40.9758   68.4353 C   0  0  0  0  0  0  0  0  0  0  0  0
    7.4447   40.7253   70.7717 C   0  0  0  0  0  0  0  0  0  0  0  0
    8.2854   40.2560   69.7553 N   0  0  0  0  0  0  0  0  0  0  0  0
    9.8172   42.8761   69.0874 C   0  0  0  0  0  0  0  0  0  0  0  0
  1  3  1  0  0  0  0
  2  3  2  0  0  0  0
  2 11  1  0  0  0  0
  3  4  1  0  0  0  0
  4  5  1  0  0  0  0
  5  6  1  0  0  0  0
  5  7  2  0  0  0  0
  6  8  1  0  0  0  0
  6 11  2  0  0  0  0
  8  9  1  0  0  0  0
  9 10  1  0  0  0  0
  9 13  1  1  0  0  0
 10 12  1  0  0  0  0
 11 12  1  0  0  0  0
M  END
>  <CHROM.1>
7.20745307,41.55851361,70.87635097,-2.59148215,0.88007050,-0.32093533

>  <Name>
ligand

>  <RI>
0

>  <Rbt.Current_Directory>
/home/itssahil/PROJECTS/Mol_Feturizer/New_Systems/rnas/3SUX

>  <Rbt.Executable>
rbdock ($Id: //depot/dev/client3/rdock/2013.1/src/exe/rbdock.cxx#4 $)

>  <Rbt.Library>
libRbt.so (2013.1, Build901 2013/11/27)

>  <Rbt.Parameter_File>
/export/apps/rDock/src/rDock_2013.1_src/data/scripts/dock_solv.prm

>  <Rbt.Receptor>
prm/pocket_docking_6.prm

>  <SCORE>
-9.00186

>  <SCORE.INTER>
-9.00186

>  <SCORE.INTER.CONST>
1

>  <SCORE.INTER.POLAR>
0

>  <SCORE.INTER.ROT>
0

>  <SCORE.INTER.SOLV>
11.8228

>  <SCORE.INTER.VDW>
-13.5422

>  <SCORE.INTER.norm>
-0.692451

>  <SCORE.INTRA>
0

>  <SCORE.INTRA.DIHEDRAL>
0

>  <SCORE.INTRA.DIHEDRAL.0>
0

>  <SCORE.INTRA.POLAR>
0

>  <SCORE.INTRA.POLAR.0>
0

>  <SCORE.INTRA.REPUL>
0

>  <SCORE.INTRA.REPUL.0>
0

>  <SCORE.INTRA.SOLV>
0

>  <SCORE.INTRA.SOLV.lig_0>
-48.6608

>  <SCORE.INTRA.VDW>
0

>  <SCORE.INTRA.VDW.0>
0

>  <SCORE.INTRA.norm>
0

>  <SCORE.RESTR>
0

>  <SCORE.RESTR.CAVITY>
0

>  <SCORE.RESTR.norm>
0

>  <SCORE.SYSTEM>
0

>  <SCORE.SYSTEM.CONST>
0

>  <SCORE.SYSTEM.DIHEDRAL>
0

>  <SCORE.SYSTEM.SOLV>
0

>  <SCORE.SYSTEM.norm>
0

>  <SCORE.heavy>
13

>  <SCORE.norm>
-0.692451

>  <RMSD>
6.346

$$$$
ligand
 OpenBabel11021811483D
libRbt.so/2013.1/901 2013/11/27
 13 14  0  0  0  0  0  0  0  0999 V2000
    5.8539   39.4771   73.6989 N   0  0  0  0  0  0  0  0  0  0  0  0
    7.0447   39.9022   71.7559 N   0  0  0  0  0  0  0  0  0  0  0  0
    6.2336   40.3218   72.7444 C   0  0  0  0  0  0  0  0  0  0  0  0
    5.7744   41.6381   72.7699 N   0  0  0  0  0  0  0  0  0  0  0  0
    6.1860   42.5061   71.7565 C   0  0  0  0  0  0  0  0  0  0  0  0
    7.0366   42.0510   70.7543 C   0  0  0  0  0  0  0  0  0  0  0  0
    5.7913   43.6715   71.7481 O   0  0  0  0  0  0  0  0  0  0  0  0
    7.4171   42.9151   69.7098 N   0  0  0  0  0  0  0  0  0  0  0  0
    8.3662   42.5015   68.6376 C   0  0  2  0  0  0  0  0  0  0  0  0
    8.2624   40.9811   68.4291 C   0  0  0  0  0  0  0  0  0  0  0  0
    7.4417   40.7239   70.7676 C   0  0  0  0  0  0  0  0  0  0  0  0
    8.2780   40.2567   69.7466 N   0  0  0  0  0  0  0  0  0  0  0  0
    9.8116   42.8767   69.0821 C   0  0  0  0  0  0  0  0  0  0  0  0
  1  3  1  0  0  0  0
  2  3  2  0  0  0  0
  2 11  1  0  0  0  0
  3  4  1  0  0  0  0
  4  5  1  0  0  0  0
  5  6  1  0  0  0  0
  5  7  2  0  0  0  0
  6  8  1  0  0  0  0
  6 11  2  0  0  0  0
  8  9  1  0  0  0  0
  9 10  1  0  0  0  0
  9 13  1  1  0  0  0
 10 12  1  0  0  0  0
 11 12  1  0  0  0  0
M  END
>  <CHROM.1>
7.20629135,41.55709039,70.87605932,-2.59211406,0.88408014,-0.31697661

>  <Name>
ligand

>  <RI>
0

>  <Rbt.Current_Directory>
/home/itssahil/PROJECTS/Mol_Feturizer/New_Systems/rnas/3SUX

>  <Rbt.Executable>
rbdock ($Id: //depot/dev/client3/rdock/2013.1/src/exe/rbdock.cxx#4 $)

>  <Rbt.Library>
libRbt.so (2013.1, Build901 2013/11/27)

>  <Rbt.Parameter_File>
/export/apps/rDock/src/rDock_2013.1_src/data/scripts/dock_solv.prm

>  <Rbt.Receptor>
prm/pocket_docking_6.prm

>  <SCORE>
-8.99889

>  <SCORE.INTER>
-8.99889

>  <SCORE.INTER.CONST>
1

>  <SCORE.INTER.POLAR>
0

>  <SCORE.INTER.ROT>
0

>  <SCORE.INTER.SOLV>
11.8096

>  <SCORE.INTER.VDW>
-13.5358

>  <SCORE.INTER.norm>
-0.692223

>  <SCORE.INTRA>
0

>  <SCORE.INTRA.DIHEDRAL>
0

>  <SCORE.INTRA.DIHEDRAL.0>
0

>  <SCORE.INTRA.POLAR>
0

>  <SCORE.INTRA.POLAR.0>
0

>  <SCORE.INTRA.REPUL>
0

>  <SCORE.INTRA.REPUL.0>
0

>  <SCORE.INTRA.SOLV>
0

>  <SCORE.INTRA.SOLV.lig_0>
-48.6608

>  <SCORE.INTRA.VDW>
0

>  <SCORE.INTRA.VDW.0>
0

>  <SCORE.INTRA.norm>
0

>  <SCORE.RESTR>
0

>  <SCORE.RESTR.CAVITY>
0

>  <SCORE.RESTR.norm>
0

>  <SCORE.SYSTEM>
0

>  <SCORE.SYSTEM.CONST>
0

>  <SCORE.SYSTEM.DIHEDRAL>
0

>  <SCORE.SYSTEM.SOLV>
0

>  <SCORE.SYSTEM.norm>
0

>  <SCORE.heavy>
13

>  <SCORE.norm>
-0.692223

>  <RMSD>
6.346

$$$$
ligand
 OpenBabel11021811483D
libRbt.so/2013.1/901 2013/11/27
 13 14  0  0  0  0  0  0  0  0999 V2000
    5.8305   39.4859   73.6884 N   0  0  0  0  0  0  0  0  0  0  0  0
    7.0323   39.9070   71.7514 N   0  0  0  0  0  0  0  0  0  0  0  0
    6.2157   40.3288   72.7345 C   0  0  0  0  0  0  0  0  0  0  0  0
    5.7568   41.6452   72.7550 N   0  0  0  0  0  0  0  0  0  0  0  0
    6.1744   42.5112   71.7424 C   0  0  0  0  0  0  0  0  0  0  0  0
    7.0305   42.0541   70.7458 C   0  0  0  0  0  0  0  0  0  0  0  0
    5.7800   43.6767   71.7296 O   0  0  0  0  0  0  0  0  0  0  0  0
    7.4170   42.9161   69.7019 N   0  0  0  0  0  0  0  0  0  0  0  0
    8.3720   42.5004   68.6358 C   0  0  2  0  0  0  0  0  0  0  0  0
    8.2690   40.9796   68.4295 C   0  0  0  0  0  0  0  0  0  0  0  0
    7.4351   40.7269   70.7639 C   0  0  0  0  0  0  0  0  0  0  0  0
    8.2770   40.2576   69.7484 N   0  0  0  0  0  0  0  0  0  0  0  0
    9.8150   42.8759   69.0877 C   0  0  0  0  0  0  0  0  0  0  0  0
  1  3  1  0  0  0  0
  2  3  2  0  0  0  0
  2 11  1  0  0  0  0
  3  4  1  0  0  0  0
  4  5  1  0  0  0  0
  5  6  1  0  0  0  0
  5  7  2  0  0  0  0
  6  8  1  0  0  0  0
  6 11  2  0  0  0  0
  8  9  1  0  0  0  0
  9 10  1  0  0  0  0
  9 13  1  1  0  0  0
 10 12  1  0  0  0  0
 11 12  1  0  0  0  0
M  END
>  <CHROM.1>
7.19929489,41.56033586,70.86942881,-2.59527402,0.87883268,-0.31635897

>  <Name>
ligand

>  <RI>
0

>  <Rbt.Current_Directory>
/home/itssahil/PROJECTS/Mol_Feturizer/New_Systems/rnas/3SUX

>  <Rbt.Executable>
rbdock ($Id: //depot/dev/client3/rdock/2013.1/src/exe/rbdock.cxx#4 $)

>  <Rbt.Library>
libRbt.so (2013.1, Build901 2013/11/27)

>  <Rbt.Parameter_File>
/export/apps/rDock/src/rDock_2013.1_src/data/scripts/dock_solv.prm

>  <Rbt.Receptor>
prm/pocket_docking_6.prm

>  <SCORE>
-8.99998

>  <SCORE.INTER>
-8.99998

>  <SCORE.INTER.CONST>
1

>  <SCORE.INTER.POLAR>
0

>  <SCORE.INTER.ROT>
0

>  <SCORE.INTER.SOLV>
11.9716

>  <SCORE.INTER.VDW>
-13.5905

>  <SCORE.INTER.norm>
-0.692306

>  <SCORE.INTRA>
0

>  <SCORE.INTRA.DIHEDRAL>
0

>  <SCORE.INTRA.DIHEDRAL.0>
0

>  <SCORE.INTRA.POLAR>
0

>  <SCORE.INTRA.POLAR.0>
0

>  <SCORE.INTRA.REPUL>
0

>  <SCORE.INTRA.REPUL.0>
0

>  <SCORE.INTRA.SOLV>
0

>  <SCORE.INTRA.SOLV.lig_0>
-48.6608

>  <SCORE.INTRA.VDW>
0

>  <SCORE.INTRA.VDW.0>
0

>  <SCORE.INTRA.norm>
0

>  <SCORE.RESTR>
0

>  <SCORE.RESTR.CAVITY>
0

>  <SCORE.RESTR.norm>
0

>  <SCORE.SYSTEM>
0

>  <SCORE.SYSTEM.CONST>
0

>  <SCORE.SYSTEM.DIHEDRAL>
0

>  <SCORE.SYSTEM.SOLV>
0

>  <SCORE.SYSTEM.norm>
0

>  <SCORE.heavy>
13

>  <SCORE.norm>
-0.692306

>  <RMSD>
6.347

$$$$
ligand
 OpenBabel11021811483D
libRbt.so/2013.1/901 2013/11/27
 13 14  0  0  0  0  0  0  0  0999 V2000
    5.6074   39.7549   73.6684 N   0  0  0  0  0  0  0  0  0  0  0  0
    6.8542   40.0721   71.7400 N   0  0  0  0  0  0  0  0  0  0  0  0
    6.0479   40.5562   72.7027 C   0  0  0  0  0  0  0  0  0  0  0  0
    5.6573   41.8946   72.6894 N   0  0  0  0  0  0  0  0  0  0  0  0
    6.1320   42.7161   71.6650 C   0  0  0  0  0  0  0  0  0  0  0  0
    6.9761   42.1944   70.6901 C   0  0  0  0  0  0  0  0  0  0  0  0
    5.7986   43.8998   71.6225 O   0  0  0  0  0  0  0  0  0  0  0  0
    7.4200   43.0128   69.6341 N   0  0  0  0  0  0  0  0  0  0  0  0
    8.3659   42.5258   68.5902 C   0  0  2  0  0  0  0  0  0  0  0  0
    8.1871   41.0083   68.4141 C   0  0  0  0  0  0  0  0  0  0  0  0
    7.3114   40.8488   70.7414 C   0  0  0  0  0  0  0  0  0  0  0  0
    8.1409   40.3153   69.7476 N   0  0  0  0  0  0  0  0  0  0  0  0
    9.8205   42.8363   69.0543 C   0  0  0  0  0  0  0  0  0  0  0  0
  1  3  1  0  0  0  0
  2  3  2  0  0  0  0
  2 11  1  0  0  0  0
  3  4  1  0  0  0  0
  4  5  1  0  0  0  0
  5  6  1  0  0  0  0
  5  7  2  0  0  0  0
  6  8  1  0  0  0  0
  6 11  2  0  0  0  0
  8  9  1  0  0  0  0
  9 10  1  0  0  0  0
  9 13  1  1  0  0  0
 10 12  1  0  0  0  0
 11 12  1  0  0  0  0
M  END
>  <CHROM.1>
7.11759754,41.69534695,70.82630374,-2.67877566,0.88097828,-0.27311286

>  <Name>
ligand

>  <RI>
0

>  <Rbt.Current_Directory>
/home/itssahil/PROJECTS/Mol_Feturizer/New_Systems/rnas/3SUX

>  <Rbt.Executable>
rbdock ($Id: //depot/dev/client3/rdock/2013.1/src/exe/rbdock.cxx#4 $)

>  <Rbt.Library>
libRbt.so (2013.1, Build901 2013/11/27)

>  <Rbt.Parameter_File>
/export/apps/rDock/src/rDock_2013.1_src/data/scripts/dock_solv.prm

>  <Rbt.Receptor>
prm/pocket_docking_6.prm

>  <SCORE>
-8.99753

>  <SCORE.INTER>
-8.99753

>  <SCORE.INTER.CONST>
1

>  <SCORE.INTER.POLAR>
0

>  <SCORE.INTER.ROT>
0

>  <SCORE.INTER.SOLV>
13.3217

>  <SCORE.INTER.VDW>
-14.0389

>  <SCORE.INTER.norm>
-0.692117

>  <SCORE.INTRA>
0

>  <SCORE.INTRA.DIHEDRAL>
0

>  <SCORE.INTRA.DIHEDRAL.0>
0

>  <SCORE.INTRA.POLAR>
0

>  <SCORE.INTRA.POLAR.0>
0

>  <SCORE.INTRA.REPUL>
0

>  <SCORE.INTRA.REPUL.0>
0

>  <SCORE.INTRA.SOLV>
0

>  <SCORE.INTRA.SOLV.lig_0>
-48.6608

>  <SCORE.INTRA.VDW>
0

>  <SCORE.INTRA.VDW.0>
0

>  <SCORE.INTRA.norm>
0

>  <SCORE.RESTR>
0

>  <SCORE.RESTR.CAVITY>
0

>  <SCORE.RESTR.norm>
0

>  <SCORE.SYSTEM>
0

>  <SCORE.SYSTEM.CONST>
0

>  <SCORE.SYSTEM.DIHEDRAL>
0

>  <SCORE.SYSTEM.SOLV>
0

>  <SCORE.SYSTEM.norm>
0

>  <SCORE.heavy>
13

>  <SCORE.norm>
-0.692117

>  <RMSD>
6.347

$$$$
ligand
 OpenBabel11021811483D
libRbt.so/2013.1/901 2013/11/27
 13 14  0  0  0  0  0  0  0  0999 V2000
    5.8329   39.4228   73.6430 N   0  0  0  0  0  0  0  0  0  0  0  0
    7.0282   39.8709   71.7081 N   0  0  0  0  0  0  0  0  0  0  0  0
    6.2147   40.2788   72.6996 C   0  0  0  0  0  0  0  0  0  0  0  0
    5.7556   41.5947   72.7397 N   0  0  0  0  0  0  0  0  0  0  0  0
    6.1696   42.4747   71.7378 C   0  0  0  0  0  0  0  0  0  0  0  0
    7.0225   42.0316   70.7322 C   0  0  0  0  0  0  0  0  0  0  0  0
    5.7749   43.6402   71.7424 O   0  0  0  0  0  0  0  0  0  0  0  0
    7.4054   42.9080   69.6990 N   0  0  0  0  0  0  0  0  0  0  0  0
    8.3570   42.5073   68.6242 C   0  0  2  0  0  0  0  0  0  0  0  0
    8.2537   40.9895   68.3973 C   0  0  0  0  0  0  0  0  0  0  0  0
    7.4275   40.7044   70.7306 C   0  0  0  0  0  0  0  0  0  0  0  0
    8.2662   40.2494   69.7060 N   0  0  0  0  0  0  0  0  0  0  0  0
    9.8014   42.8770   69.0765 C   0  0  0  0  0  0  0  0  0  0  0  0
  1  3  1  0  0  0  0
  2  3  2  0  0  0  0
  2 11  1  0  0  0  0
  3  4  1  0  0  0  0
  4  5  1  0  0  0  0
  5  6  1  0  0  0  0
  5  7  2  0  0  0  0
  6  8  1  0  0  0  0
  6 11  2  0  0  0  0
  8  9  1  0  0  0  0
  9 10  1  0  0  0  0
  9 13  1  1  0  0  0
 10 12  1  0  0  0  0
 11 12  1  0  0  0  0
M  END
>  <CHROM.1>
7.19187169,41.53624527,70.84844799,-2.59330114,0.88186543,-0.30410993

>  <Name>
ligand

>  <RI>
0

>  <Rbt.Current_Directory>
/home/itssahil/PROJECTS/Mol_Feturizer/New_Systems/rnas/3SUX

>  <Rbt.Executable>
rbdock ($Id: //depot/dev/client3/rdock/2013.1/src/exe/rbdock.cxx#4 $)

>  <Rbt.Library>
libRbt.so (2013.1, Build901 2013/11/27)

>  <Rbt.Parameter_File>
/export/apps/rDock/src/rDock_2013.1_src/data/scripts/dock_solv.prm

>  <Rbt.Receptor>
prm/pocket_docking_7.prm

>  <SCORE>
-9.01056

>  <SCORE.INTER>
-9.01056

>  <SCORE.INTER.CONST>
1

>  <SCORE.INTER.POLAR>
0

>  <SCORE.INTER.ROT>
0

>  <SCORE.INTER.SOLV>
12.207

>  <SCORE.INTER.VDW>
-13.676

>  <SCORE.INTER.norm>
-0.69312

>  <SCORE.INTRA>
0

>  <SCORE.INTRA.DIHEDRAL>
0

>  <SCORE.INTRA.DIHEDRAL.0>
0

>  <SCORE.INTRA.POLAR>
0

>  <SCORE.INTRA.POLAR.0>
0

>  <SCORE.INTRA.REPUL>
0

>  <SCORE.INTRA.REPUL.0>
0

>  <SCORE.INTRA.SOLV>
0

>  <SCORE.INTRA.SOLV.lig_0>
-48.6608

>  <SCORE.INTRA.VDW>
0

>  <SCORE.INTRA.VDW.0>
0

>  <SCORE.INTRA.norm>
0

>  <SCORE.RESTR>
0

>  <SCORE.RESTR.CAVITY>
0

>  <SCORE.RESTR.norm>
0

>  <SCORE.SYSTEM>
0

>  <SCORE.SYSTEM.CONST>
0

>  <SCORE.SYSTEM.DIHEDRAL>
0

>  <SCORE.SYSTEM.SOLV>
0

>  <SCORE.SYSTEM.norm>
0

>  <SCORE.heavy>
13

>  <SCORE.norm>
-0.69312

>  <RMSD>
6.347

$$$$
ligand
 OpenBabel11021811483D
libRbt.so/2013.1/901 2013/11/27
 13 14  0  0  0  0  0  0  0  0999 V2000
    5.8065   39.4335   73.6455 N   0  0  0  0  0  0  0  0  0  0  0  0
    7.0165   39.8732   71.7178 N   0  0  0  0  0  0  0  0  0  0  0  0
    6.2002   40.2868   72.7045 C   0  0  0  0  0  0  0  0  0  0  0  0
    5.7503   41.6060   72.7421 N   0  0  0  0  0  0  0  0  0  0  0  0
    6.1767   42.4831   71.7428 C   0  0  0  0  0  0  0  0  0  0  0  0
    7.0323   42.0340   70.7422 C   0  0  0  0  0  0  0  0  0  0  0  0
    5.7905   43.6514   71.7453 O   0  0  0  0  0  0  0  0  0  0  0  0
    7.4277   42.9078   69.7115 N   0  0  0  0  0  0  0  0  0  0  0  0
    8.3828   42.5002   68.6422 C   0  0  2  0  0  0  0  0  0  0  0  0
    8.2697   40.9833   68.4144 C   0  0  0  0  0  0  0  0  0  0  0  0
    7.4277   40.7039   70.7428 C   0  0  0  0  0  0  0  0  0  0  0  0
    8.2691   40.2430   69.7231 N   0  0  0  0  0  0  0  0  0  0  0  0
    9.8271   42.8594   69.1032 C   0  0  0  0  0  0  0  0  0  0  0  0
  1  3  1  0  0  0  0
  2  3  2  0  0  0  0
  2 11  1  0  0  0  0
  3  4  1  0  0  0  0
  4  5  1  0  0  0  0
  5  6  1  0  0  0  0
  5  7  2  0  0  0  0
  6  8  1  0  0  0  0
  6 11  2  0  0  0  0
  8  9  1  0  0  0  0
  9 10  1  0  0  0  0
  9 13  1  1  0  0  0
 10 12  1  0  0  0  0
 11 12  1  0  0  0  0
M  END
>  <CHROM.1>
7.19737586,41.53739437,70.85938952,-2.60696213,0.87833887,-0.29341343

>  <Name>
ligand

>  <RI>
0

>  <Rbt.Current_Directory>
/home/itssahil/PROJECTS/Mol_Feturizer/New_Systems/rnas/3SUX

>  <Rbt.Executable>
rbdock ($Id: //depot/dev/client3/rdock/2013.1/src/exe/rbdock.cxx#4 $)

>  <Rbt.Library>
libRbt.so (2013.1, Build901 2013/11/27)

>  <Rbt.Parameter_File>
/export/apps/rDock/src/rDock_2013.1_src/data/scripts/dock_solv.prm

>  <Rbt.Receptor>
prm/pocket_docking_6.prm

>  <SCORE>
-9.00869

>  <SCORE.INTER>
-9.00869

>  <SCORE.INTER.CONST>
1

>  <SCORE.INTER.POLAR>
0

>  <SCORE.INTER.ROT>
0

>  <SCORE.INTER.SOLV>
12.1768

>  <SCORE.INTER.VDW>
-13.6647

>  <SCORE.INTER.norm>
-0.692976

>  <SCORE.INTRA>
0

>  <SCORE.INTRA.DIHEDRAL>
0

>  <SCORE.INTRA.DIHEDRAL.0>
0

>  <SCORE.INTRA.POLAR>
0

>  <SCORE.INTRA.POLAR.0>
0

>  <SCORE.INTRA.REPUL>
0

>  <SCORE.INTRA.REPUL.0>
0

>  <SCORE.INTRA.SOLV>
0

>  <SCORE.INTRA.SOLV.lig_0>
-48.6608

>  <SCORE.INTRA.VDW>
0

>  <SCORE.INTRA.VDW.0>
0

>  <SCORE.INTRA.norm>
0

>  <SCORE.RESTR>
0

>  <SCORE.RESTR.CAVITY>
0

>  <SCORE.RESTR.norm>
0

>  <SCORE.SYSTEM>
0

>  <SCORE.SYSTEM.CONST>
0

>  <SCORE.SYSTEM.DIHEDRAL>
0

>  <SCORE.SYSTEM.SOLV>
0

>  <SCORE.SYSTEM.norm>
0

>  <SCORE.heavy>
13

>  <SCORE.norm>
-0.692976

>  <RMSD>
6.348

$$$$
ligand
 OpenBabel11021811483D
libRbt.so/2013.1/901 2013/11/27
 13 14  0  0  0  0  0  0  0  0999 V2000
    5.8005   39.4528   73.6553 N   0  0  0  0  0  0  0  0  0  0  0  0
    7.0040   39.8859   71.7220 N   0  0  0  0  0  0  0  0  0  0  0  0
    6.1929   40.3035   72.7113 C   0  0  0  0  0  0  0  0  0  0  0  0
    5.7471   41.6240   72.7486 N   0  0  0  0  0  0  0  0  0  0  0  0
    6.1720   42.4983   71.7462 C   0  0  0  0  0  0  0  0  0  0  0  0
    7.0222   42.0450   70.7428 C   0  0  0  0  0  0  0  0  0  0  0  0
    5.7891   43.6677   71.7482 O   0  0  0  0  0  0  0  0  0  0  0  0
    7.4159   42.9159   69.7091 N   0  0  0  0  0  0  0  0  0  0  0  0
    8.3655   42.5039   68.6366 C   0  0  2  0  0  0  0  0  0  0  0  0
    8.2470   40.9869   68.4118 C   0  0  0  0  0  0  0  0  0  0  0  0
    7.4137   40.7137   70.7440 C   0  0  0  0  0  0  0  0  0  0  0  0
    8.2496   40.2487   69.7217 N   0  0  0  0  0  0  0  0  0  0  0  0
    9.8127   42.8595   69.0911 C   0  0  0  0  0  0  0  0  0  0  0  0
  1  3  1  0  0  0  0
  2  3  2  0  0  0  0
  2 11  1  0  0  0  0
  3  4  1  0  0  0  0
  4  5  1  0  0  0  0
  5  6  1  0  0  0  0
  5  7  2  0  0  0  0
  6  8  1  0  0  0  0
  6 11  2  0  0  0  0
  8  9  1  0  0  0  0
  9 10  1  0  0  0  0
  9 13  1  1  0  0  0
 10 12  1  0  0  0  0
 11 12  1  0  0  0  0
M  END
>  <CHROM.1>
7.18627899,41.54812648,70.86015042,-2.60952214,0.88306822,-0.29307759

>  <Name>
ligand

>  <RI>
0

>  <Rbt.Current_Directory>
/home/itssahil/PROJECTS/Mol_Feturizer/New_Systems/rnas/3SUX

>  <Rbt.Executable>
rbdock ($Id: //depot/dev/client3/rdock/2013.1/src/exe/rbdock.cxx#4 $)

>  <Rbt.Library>
libRbt.so (2013.1, Build901 2013/11/27)

>  <Rbt.Parameter_File>
/export/apps/rDock/src/rDock_2013.1_src/data/scripts/dock_solv.prm

>  <Rbt.Receptor>
prm/pocket_docking_7.prm

>  <SCORE>
-9.00088

>  <SCORE.INTER>
-9.00088

>  <SCORE.INTER.CONST>
1

>  <SCORE.INTER.POLAR>
0

>  <SCORE.INTER.ROT>
0

>  <SCORE.INTER.SOLV>
12.2311

>  <SCORE.INTER.VDW>
-13.6776

>  <SCORE.INTER.norm>
-0.692375

>  <SCORE.INTRA>
0

>  <SCORE.INTRA.DIHEDRAL>
0

>  <SCORE.INTRA.DIHEDRAL.0>
0

>  <SCORE.INTRA.POLAR>
0

>  <SCORE.INTRA.POLAR.0>
0

>  <SCORE.INTRA.REPUL>
0

>  <SCORE.INTRA.REPUL.0>
0

>  <SCORE.INTRA.SOLV>
0

>  <SCORE.INTRA.SOLV.lig_0>
-48.6608

>  <SCORE.INTRA.VDW>
0

>  <SCORE.INTRA.VDW.0>
0

>  <SCORE.INTRA.norm>
0

>  <SCORE.RESTR>
0

>  <SCORE.RESTR.CAVITY>
0

>  <SCORE.RESTR.norm>
0

>  <SCORE.SYSTEM>
0

>  <SCORE.SYSTEM.CONST>
0

>  <SCORE.SYSTEM.DIHEDRAL>
0

>  <SCORE.SYSTEM.SOLV>
0

>  <SCORE.SYSTEM.norm>
0

>  <SCORE.heavy>
13

>  <SCORE.norm>
-0.692375

>  <RMSD>
6.352

$$$$
ligand
 OpenBabel11021811483D
libRbt.so/2013.1/901 2013/11/27
 13 14  0  0  0  0  0  0  0  0999 V2000
    5.7564   39.3741   73.5704 N   0  0  0  0  0  0  0  0  0  0  0  0
    6.9846   39.8430   71.6612 N   0  0  0  0  0  0  0  0  0  0  0  0
    6.1593   40.2418   72.6466 C   0  0  0  0  0  0  0  0  0  0  0  0
    5.7099   41.5605   72.7006 N   0  0  0  0  0  0  0  0  0  0  0  0
    6.1461   42.4529   71.7192 C   0  0  0  0  0  0  0  0  0  0  0  0
    7.0108   42.0188   70.7197 C   0  0  0  0  0  0  0  0  0  0  0  0
    5.7605   43.6213   71.7363 O   0  0  0  0  0  0  0  0  0  0  0  0
    7.4163   42.9083   69.7065 N   0  0  0  0  0  0  0  0  0  0  0  0
    8.3810   42.5168   68.6400 C   0  0  2  0  0  0  0  0  0  0  0  0
    8.2693   41.0037   68.3875 C   0  0  0  0  0  0  0  0  0  0  0  0
    7.4054   40.6886   70.7032 C   0  0  0  0  0  0  0  0  0  0  0  0
    8.2560   40.2430   69.6844 N   0  0  0  0  0  0  0  0  0  0  0  0
    9.8212   42.8677   69.1199 C   0  0  0  0  0  0  0  0  0  0  0  0
  1  3  1  0  0  0  0
  2  3  2  0  0  0  0
  2 11  1  0  0  0  0
  3  4  1  0  0  0  0
  4  5  1  0  0  0  0
  5  6  1  0  0  0  0
  5  7  2  0  0  0  0
  6  8  1  0  0  0  0
  6 11  2  0  0  0  0
  8  9  1  0  0  0  0
  9 10  1  0  0  0  0
  9 13  1  1  0  0  0
 10 12  1  0  0  0  0
 11 12  1  0  0  0  0
M  END
>  <CHROM.1>
7.17445478,41.52033013,70.83064999,-2.61198080,0.86954666,-0.27394719

>  <Name>
ligand

>  <RI>
0

>  <Rbt.Current_Directory>
/home/itssahil/PROJECTS/Mol_Feturizer/New_Systems/rnas/3SUX

>  <Rbt.Executable>
rbdock ($Id: //depot/dev/client3/rdock/2013.1/src/exe/rbdock.cxx#4 $)

>  <Rbt.Library>
libRbt.so (2013.1, Build901 2013/11/27)

>  <Rbt.Parameter_File>
/export/apps/rDock/src/rDock_2013.1_src/data/scripts/dock_solv.prm

>  <Rbt.Receptor>
prm/pocket_docking_8.prm

>  <SCORE>
-9.03031

>  <SCORE.INTER>
-9.03031

>  <SCORE.INTER.CONST>
1

>  <SCORE.INTER.POLAR>
0

>  <SCORE.INTER.ROT>
0

>  <SCORE.INTER.SOLV>
12.7232

>  <SCORE.INTER.VDW>
-13.8613

>  <SCORE.INTER.norm>
-0.694639

>  <SCORE.INTRA>
0

>  <SCORE.INTRA.DIHEDRAL>
0

>  <SCORE.INTRA.DIHEDRAL.0>
0

>  <SCORE.INTRA.POLAR>
0

>  <SCORE.INTRA.POLAR.0>
0

>  <SCORE.INTRA.REPUL>
0

>  <SCORE.INTRA.REPUL.0>
0

>  <SCORE.INTRA.SOLV>
0

>  <SCORE.INTRA.SOLV.lig_0>
-48.6608

>  <SCORE.INTRA.VDW>
0

>  <SCORE.INTRA.VDW.0>
0

>  <SCORE.INTRA.norm>
0

>  <SCORE.RESTR>
0

>  <SCORE.RESTR.CAVITY>
0

>  <SCORE.RESTR.norm>
0

>  <SCORE.SYSTEM>
0

>  <SCORE.SYSTEM.CONST>
0

>  <SCORE.SYSTEM.DIHEDRAL>
0

>  <SCORE.SYSTEM.SOLV>
0

>  <SCORE.SYSTEM.norm>
0

>  <SCORE.heavy>
13

>  <SCORE.norm>
-0.694639

>  <RMSD>
6.354

$$$$
ligand
 OpenBabel11021811483D
libRbt.so/2013.1/901 2013/11/27
 13 14  0  0  0  0  0  0  0  0999 V2000
    5.8340   39.3292   73.6126 N   0  0  0  0  0  0  0  0  0  0  0  0
    7.0101   39.8100   71.6737 N   0  0  0  0  0  0  0  0  0  0  0  0
    6.2172   40.2041   72.6872 C   0  0  0  0  0  0  0  0  0  0  0  0
    5.7807   41.5258   72.7692 N   0  0  0  0  0  0  0  0  0  0  0  0
    6.1957   42.4257   71.7855 C   0  0  0  0  0  0  0  0  0  0  0  0
    7.0272   41.9962   70.7564 C   0  0  0  0  0  0  0  0  0  0  0  0
    5.8206   43.5970   71.8270 O   0  0  0  0  0  0  0  0  0  0  0  0
    7.4106   42.8940   69.7419 N   0  0  0  0  0  0  0  0  0  0  0  0
    8.3406   42.5070   68.6434 C   0  0  2  0  0  0  0  0  0  0  0  0
    8.2088   40.9978   68.3772 C   0  0  0  0  0  0  0  0  0  0  0  0
    7.4099   40.6631   70.7135 C   0  0  0  0  0  0  0  0  0  0  0  0
    8.2268   40.2224   69.6653 N   0  0  0  0  0  0  0  0  0  0  0  0
    9.7970   42.8406   69.0850 C   0  0  0  0  0  0  0  0  0  0  0  0
  1  3  1  0  0  0  0
  2  3  2  0  0  0  0
  2 11  1  0  0  0  0
  3  4  1  0  0  0  0
  4  5  1  0  0  0  0
  5  6  1  0  0  0  0
  5  7  2  0  0  0  0
  6  8  1  0  0  0  0
  6 11  2  0  0  0  0
  8  9  1  0  0  0  0
  9 10  1  0  0  0  0
  9 13  1  1  0  0  0
 10 12  1  0  0  0  0
 11 12  1  0  0  0  0
M  END
>  <CHROM.1>
7.18985154,41.49516768,70.85693064,-2.61240650,0.89983110,-0.26223305

>  <Name>
ligand

>  <RI>
0

>  <Rbt.Current_Directory>
/home/itssahil/PROJECTS/Mol_Feturizer/New_Systems/rnas/3SUX

>  <Rbt.Executable>
rbdock ($Id: //depot/dev/client3/rdock/2013.1/src/exe/rbdock.cxx#4 $)

>  <Rbt.Library>
libRbt.so (2013.1, Build901 2013/11/27)

>  <Rbt.Parameter_File>
/export/apps/rDock/src/rDock_2013.1_src/data/scripts/dock_solv.prm

>  <Rbt.Receptor>
prm/pocket_docking_6.prm

>  <SCORE>
-8.99781

>  <SCORE.INTER>
-8.99781

>  <SCORE.INTER.CONST>
1

>  <SCORE.INTER.POLAR>
0

>  <SCORE.INTER.ROT>
0

>  <SCORE.INTER.SOLV>
12.2157

>  <SCORE.INTER.VDW>
-13.6704

>  <SCORE.INTER.norm>
-0.69214

>  <SCORE.INTRA>
0

>  <SCORE.INTRA.DIHEDRAL>
0

>  <SCORE.INTRA.DIHEDRAL.0>
0

>  <SCORE.INTRA.POLAR>
0

>  <SCORE.INTRA.POLAR.0>
0

>  <SCORE.INTRA.REPUL>
0

>  <SCORE.INTRA.REPUL.0>
0

>  <SCORE.INTRA.SOLV>
0

>  <SCORE.INTRA.SOLV.lig_0>
-48.6608

>  <SCORE.INTRA.VDW>
0

>  <SCORE.INTRA.VDW.0>
0

>  <SCORE.INTRA.norm>
0

>  <SCORE.RESTR>
0

>  <SCORE.RESTR.CAVITY>
0

>  <SCORE.RESTR.norm>
0

>  <SCORE.SYSTEM>
0

>  <SCORE.SYSTEM.CONST>
0

>  <SCORE.SYSTEM.DIHEDRAL>
0

>  <SCORE.SYSTEM.SOLV>
0

>  <SCORE.SYSTEM.norm>
0

>  <SCORE.heavy>
13

>  <SCORE.norm>
-0.69214

>  <RMSD>
6.355

$$$$
ligand
 OpenBabel11021811483D
libRbt.so/2013.1/901 2013/11/27
 13 14  0  0  0  0  0  0  0  0999 V2000
    5.7975   39.4255   73.6417 N   0  0  0  0  0  0  0  0  0  0  0  0
    7.0115   39.8709   71.7177 N   0  0  0  0  0  0  0  0  0  0  0  0
    6.1905   40.2808   72.7022 C   0  0  0  0  0  0  0  0  0  0  0  0
    5.7352   41.5981   72.7390 N   0  0  0  0  0  0  0  0  0  0  0  0
    6.1609   42.4774   71.7412 C   0  0  0  0  0  0  0  0  0  0  0  0
    7.0213   42.0321   70.7430 C   0  0  0  0  0  0  0  0  0  0  0  0
    5.7698   43.6441   71.7429 O   0  0  0  0  0  0  0  0  0  0  0  0
    7.4161   42.9078   69.7137 N   0  0  0  0  0  0  0  0  0  0  0  0
    8.3760   42.5046   68.6472 C   0  0  2  0  0  0  0  0  0  0  0  0
    8.2698   40.9873   68.4185 C   0  0  0  0  0  0  0  0  0  0  0  0
    7.4221   40.7036   70.7443 C   0  0  0  0  0  0  0  0  0  0  0  0
    8.2683   40.2465   69.7269 N   0  0  0  0  0  0  0  0  0  0  0  0
    9.8174   42.8695   69.1125 C   0  0  0  0  0  0  0  0  0  0  0  0
  1  3  1  0  0  0  0
  2  3  2  0  0  0  0
  2 11  1  0  0  0  0
  3  4  1  0  0  0  0
  4  5  1  0  0  0  0
  5  6  1  0  0  0  0
  5  7  2  0  0  0  0
  6  8  1  0  0  0  0
  6 11  2  0  0  0  0
  8  9  1  0  0  0  0
  9 10  1  0  0  0  0
  9 13  1  1  0  0  0
 10 12  1  0  0  0  0
 11 12  1  0  0  0  0
M  END
>  <CHROM.1>
7.18801545,41.53612852,70.86045973,-2.60216806,0.87432646,-0.29674742

>  <Name>
ligand

>  <RI>
0

>  <Rbt.Current_Directory>
/home/itssahil/PROJECTS/Mol_Feturizer/New_Systems/rnas/3SUX

>  <Rbt.Executable>
rbdock ($Id: //depot/dev/client3/rdock/2013.1/src/exe/rbdock.cxx#4 $)

>  <Rbt.Library>
libRbt.so (2013.1, Build901 2013/11/27)

>  <Rbt.Parameter_File>
/export/apps/rDock/src/rDock_2013.1_src/data/scripts/dock_solv.prm

>  <Rbt.Receptor>
prm/pocket_docking_6.prm

>  <SCORE>
-9.04052

>  <SCORE.INTER>
-9.04052

>  <SCORE.INTER.CONST>
1

>  <SCORE.INTER.POLAR>
0

>  <SCORE.INTER.ROT>
0

>  <SCORE.INTER.SOLV>
12.259

>  <SCORE.INTER.VDW>
-13.7133

>  <SCORE.INTER.norm>
-0.695424

>  <SCORE.INTRA>
0

>  <SCORE.INTRA.DIHEDRAL>
0

>  <SCORE.INTRA.DIHEDRAL.0>
0

>  <SCORE.INTRA.POLAR>
0

>  <SCORE.INTRA.POLAR.0>
0

>  <SCORE.INTRA.REPUL>
0

>  <SCORE.INTRA.REPUL.0>
0

>  <SCORE.INTRA.SOLV>
0

>  <SCORE.INTRA.SOLV.lig_0>
-48.6608

>  <SCORE.INTRA.VDW>
0

>  <SCORE.INTRA.VDW.0>
0

>  <SCORE.INTRA.norm>
0

>  <SCORE.RESTR>
0

>  <SCORE.RESTR.CAVITY>
0

>  <SCORE.RESTR.norm>
0

>  <SCORE.SYSTEM>
0

>  <SCORE.SYSTEM.CONST>
0

>  <SCORE.SYSTEM.DIHEDRAL>
0

>  <SCORE.SYSTEM.SOLV>
0

>  <SCORE.SYSTEM.norm>
0

>  <SCORE.heavy>
13

>  <SCORE.norm>
-0.695424

>  <RMSD>
6.355

$$$$
ligand
 OpenBabel11021811483D
libRbt.so/2013.1/901 2013/11/27
 13 14  0  0  0  0  0  0  0  0999 V2000
    5.8451   39.2924   73.5972 N   0  0  0  0  0  0  0  0  0  0  0  0
    7.0307   39.7953   71.6697 N   0  0  0  0  0  0  0  0  0  0  0  0
    6.2258   40.1759   72.6789 C   0  0  0  0  0  0  0  0  0  0  0  0
    5.7742   41.4922   72.7638 N   0  0  0  0  0  0  0  0  0  0  0  0
    6.1868   42.4014   71.7875 C   0  0  0  0  0  0  0  0  0  0  0  0
    7.0309   41.9859   70.7629 C   0  0  0  0  0  0  0  0  0  0  0  0
    5.7987   43.5682   71.8316 O   0  0  0  0  0  0  0  0  0  0  0  0
    7.4121   42.8926   69.7555 N   0  0  0  0  0  0  0  0  0  0  0  0
    8.3547   42.5210   68.6623 C   0  0  2  0  0  0  0  0  0  0  0  0
    8.2414   41.0118   68.3881 C   0  0  0  0  0  0  0  0  0  0  0  0
    7.4285   40.6572   70.7166 C   0  0  0  0  0  0  0  0  0  0  0  0
    8.2581   40.2305   69.6726 N   0  0  0  0  0  0  0  0  0  0  0  0
    9.8039   42.8684   69.1167 C   0  0  0  0  0  0  0  0  0  0  0  0
  1  3  1  0  0  0  0
  2  3  2  0  0  0  0
  2 11  1  0  0  0  0
  3  4  1  0  0  0  0
  4  5  1  0  0  0  0
  5  6  1  0  0  0  0
  5  7  2  0  0  0  0
  6  8  1  0  0  0  0
  6 11  2  0  0  0  0
  8  9  1  0  0  0  0
  9 10  1  0  0  0  0
  9 13  1  1  0  0  0
 10 12  1  0  0  0  0
 11 12  1  0  0  0  0
M  END
>  <CHROM.1>
7.19819208,41.48614558,70.86225309,-2.59875340,0.88957696,-0.26815767

>  <Name>
ligand

>  <RI>
0

>  <Rbt.Current_Directory>
/home/itssahil/PROJECTS/Mol_Feturizer/New_Systems/rnas/3SUX

>  <Rbt.Executable>
rbdock ($Id: //depot/dev/client3/rdock/2013.1/src/exe/rbdock.cxx#4 $)

>  <Rbt.Library>
libRbt.so (2013.1, Build901 2013/11/27)

>  <Rbt.Parameter_File>
/export/apps/rDock/src/rDock_2013.1_src/data/scripts/dock_solv.prm

>  <Rbt.Receptor>
prm/pocket_docking_6.prm

>  <SCORE>
-9.01415

>  <SCORE.INTER>
-9.01415

>  <SCORE.INTER.CONST>
1

>  <SCORE.INTER.POLAR>
0

>  <SCORE.INTER.ROT>
0

>  <SCORE.INTER.SOLV>
12.1193

>  <SCORE.INTER.VDW>
-13.6492

>  <SCORE.INTER.norm>
-0.693396

>  <SCORE.INTRA>
0

>  <SCORE.INTRA.DIHEDRAL>
0

>  <SCORE.INTRA.DIHEDRAL.0>
0

>  <SCORE.INTRA.POLAR>
0

>  <SCORE.INTRA.POLAR.0>
0

>  <SCORE.INTRA.REPUL>
0

>  <SCORE.INTRA.REPUL.0>
0

>  <SCORE.INTRA.SOLV>
0

>  <SCORE.INTRA.SOLV.lig_0>
-48.6608

>  <SCORE.INTRA.VDW>
0

>  <SCORE.INTRA.VDW.0>
0

>  <SCORE.INTRA.norm>
0

>  <SCORE.RESTR>
0

>  <SCORE.RESTR.CAVITY>
0

>  <SCORE.RESTR.norm>
0

>  <SCORE.SYSTEM>
0

>  <SCORE.SYSTEM.CONST>
0

>  <SCORE.SYSTEM.DIHEDRAL>
0

>  <SCORE.SYSTEM.SOLV>
0

>  <SCORE.SYSTEM.norm>
0

>  <SCORE.heavy>
13

>  <SCORE.norm>
-0.693396

>  <RMSD>
6.356

$$$$
ligand
 OpenBabel11021811483D
libRbt.so/2013.1/901 2013/11/27
 13 14  0  0  0  0  0  0  0  0999 V2000
    5.8323   39.4695   73.7027 N   0  0  0  0  0  0  0  0  0  0  0  0
    7.0454   39.8906   71.7727 N   0  0  0  0  0  0  0  0  0  0  0  0
    6.2168   40.3103   72.7466 C   0  0  0  0  0  0  0  0  0  0  0  0
    5.7447   41.6221   72.7552 N   0  0  0  0  0  0  0  0  0  0  0  0
    6.1618   42.4860   71.7406 C   0  0  0  0  0  0  0  0  0  0  0  0
    7.0303   42.0313   70.7537 C   0  0  0  0  0  0  0  0  0  0  0  0
    5.7560   43.6474   71.7173 O   0  0  0  0  0  0  0  0  0  0  0  0
    7.4166   42.8906   69.7076 N   0  0  0  0  0  0  0  0  0  0  0  0
    8.3843   42.4778   68.6517 C   0  0  2  0  0  0  0  0  0  0  0  0
    8.2980   40.9549   68.4541 C   0  0  0  0  0  0  0  0  0  0  0  0
    7.4480   40.7083   70.7833 C   0  0  0  0  0  0  0  0  0  0  0  0
    8.3026   40.2412   69.7775 N   0  0  0  0  0  0  0  0  0  0  0  0
    9.8198   42.8705   69.1127 C   0  0  0  0  0  0  0  0  0  0  0  0
  1  3  1  0  0  0  0
  2  3  2  0  0  0  0
  2 11  1  0  0  0  0
  3  4  1  0  0  0  0
  4  5  1  0  0  0  0
  5  6  1  0  0  0  0
  5  7  2  0  0  0  0
  6  8  1  0  0  0  0
  6 11  2  0  0  0  0
  8  9  1  0  0  0  0
  9 10  1  0  0  0  0
  9 13  1  1  0  0  0
 10 12  1  0  0  0  0
 11 12  1  0  0  0  0
M  END
>  <CHROM.1>
7.20303711,41.53999027,70.88175737,-2.58456007,0.86807865,-0.33081414

>  <Name>
ligand

>  <RI>
0

>  <Rbt.Current_Directory>
/home/itssahil/PROJECTS/Mol_Feturizer/New_Systems/rnas/3SUX

>  <Rbt.Executable>
rbdock ($Id: //depot/dev/client3/rdock/2013.1/src/exe/rbdock.cxx#4 $)

>  <Rbt.Library>
libRbt.so (2013.1, Build901 2013/11/27)

>  <Rbt.Parameter_File>
/export/apps/rDock/src/rDock_2013.1_src/data/scripts/dock_solv.prm

>  <Rbt.Receptor>
prm/pocket_docking_7.prm

>  <SCORE>
-8.9924

>  <SCORE.INTER>
-8.9924

>  <SCORE.INTER.CONST>
1

>  <SCORE.INTER.POLAR>
0

>  <SCORE.INTER.ROT>
0

>  <SCORE.INTER.SOLV>
11.9058

>  <SCORE.INTER.VDW>
-13.5635

>  <SCORE.INTER.norm>
-0.691723

>  <SCORE.INTRA>
0

>  <SCORE.INTRA.DIHEDRAL>
0

>  <SCORE.INTRA.DIHEDRAL.0>
0

>  <SCORE.INTRA.POLAR>
0

>  <SCORE.INTRA.POLAR.0>
0

>  <SCORE.INTRA.REPUL>
0

>  <SCORE.INTRA.REPUL.0>
0

>  <SCORE.INTRA.SOLV>
0

>  <SCORE.INTRA.SOLV.lig_0>
-48.6608

>  <SCORE.INTRA.VDW>
0

>  <SCORE.INTRA.VDW.0>
0

>  <SCORE.INTRA.norm>
0

>  <SCORE.RESTR>
0

>  <SCORE.RESTR.CAVITY>
0

>  <SCORE.RESTR.norm>
0

>  <SCORE.SYSTEM>
0

>  <SCORE.SYSTEM.CONST>
0

>  <SCORE.SYSTEM.DIHEDRAL>
0

>  <SCORE.SYSTEM.SOLV>
0

>  <SCORE.SYSTEM.norm>
0

>  <SCORE.heavy>
13

>  <SCORE.norm>
-0.691723

>  <RMSD>
6.358

$$$$
ligand
 OpenBabel11021811483D
libRbt.so/2013.1/901 2013/11/27
 13 14  0  0  0  0  0  0  0  0999 V2000
    5.8282   39.4648   73.6912 N   0  0  0  0  0  0  0  0  0  0  0  0
    7.0322   39.8909   71.7566 N   0  0  0  0  0  0  0  0  0  0  0  0
    6.2108   40.3089   72.7373 C   0  0  0  0  0  0  0  0  0  0  0  0
    5.7441   41.6226   72.7552 N   0  0  0  0  0  0  0  0  0  0  0  0
    6.1590   42.4899   71.7426 C   0  0  0  0  0  0  0  0  0  0  0  0
    7.0202   42.0368   70.7486 C   0  0  0  0  0  0  0  0  0  0  0  0
    5.7579   43.6531   71.7276 O   0  0  0  0  0  0  0  0  0  0  0  0
    7.4042   42.8999   69.7047 N   0  0  0  0  0  0  0  0  0  0  0  0
    8.3642   42.4885   68.6413 C   0  0  2  0  0  0  0  0  0  0  0  0
    8.2705   40.9670   68.4365 C   0  0  0  0  0  0  0  0  0  0  0  0
    7.4326   40.7120   70.7691 C   0  0  0  0  0  0  0  0  0  0  0  0
    8.2796   40.2465   69.7562 N   0  0  0  0  0  0  0  0  0  0  0  0
    9.8039   42.8731   69.0963 C   0  0  0  0  0  0  0  0  0  0  0  0
  1  3  1  0  0  0  0
  2  3  2  0  0  0  0
  2 11  1  0  0  0  0
  3  4  1  0  0  0  0
  4  5  1  0  0  0  0
  5  6  1  0  0  0  0
  5  7  2  0  0  0  0
  6  8  1  0  0  0  0
  6 11  2  0  0  0  0
  8  9  1  0  0  0  0
  9 10  1  0  0  0  0
  9 13  1  1  0  0  0
 10 12  1  0  0  0  0
 11 12  1  0  0  0  0
M  END
>  <CHROM.1>
7.19161229,41.54412174,70.87317575,-2.58776378,0.87470054,-0.32324477

>  <Name>
ligand

>  <RI>
0

>  <Rbt.Current_Directory>
/home/itssahil/PROJECTS/Mol_Feturizer/New_Systems/rnas/3SUX

>  <Rbt.Executable>
rbdock ($Id: //depot/dev/client3/rdock/2013.1/src/exe/rbdock.cxx#4 $)

>  <Rbt.Library>
libRbt.so (2013.1, Build901 2013/11/27)

>  <Rbt.Parameter_File>
/export/apps/rDock/src/rDock_2013.1_src/data/scripts/dock_solv.prm

>  <Rbt.Receptor>
prm/pocket_docking_8.prm

>  <SCORE>
-9.01042

>  <SCORE.INTER>
-9.01042

>  <SCORE.INTER.CONST>
1

>  <SCORE.INTER.POLAR>
0

>  <SCORE.INTER.ROT>
0

>  <SCORE.INTER.SOLV>
12.0358

>  <SCORE.INTER.VDW>
-13.6189

>  <SCORE.INTER.norm>
-0.69311

>  <SCORE.INTRA>
0

>  <SCORE.INTRA.DIHEDRAL>
0

>  <SCORE.INTRA.DIHEDRAL.0>
0

>  <SCORE.INTRA.POLAR>
0

>  <SCORE.INTRA.POLAR.0>
0

>  <SCORE.INTRA.REPUL>
0

>  <SCORE.INTRA.REPUL.0>
0

>  <SCORE.INTRA.SOLV>
0

>  <SCORE.INTRA.SOLV.lig_0>
-48.6608

>  <SCORE.INTRA.VDW>
0

>  <SCORE.INTRA.VDW.0>
0

>  <SCORE.INTRA.norm>
0

>  <SCORE.RESTR>
0

>  <SCORE.RESTR.CAVITY>
0

>  <SCORE.RESTR.norm>
0

>  <SCORE.SYSTEM>
0

>  <SCORE.SYSTEM.CONST>
0

>  <SCORE.SYSTEM.DIHEDRAL>
0

>  <SCORE.SYSTEM.SOLV>
0

>  <SCORE.SYSTEM.norm>
0

>  <SCORE.heavy>
13

>  <SCORE.norm>
-0.69311

>  <RMSD>
6.358

$$$$
ligand
 OpenBabel11021811483D
libRbt.so/2013.1/901 2013/11/27
 13 14  0  0  0  0  0  0  0  0999 V2000
    5.8487   39.2284   73.5573 N   0  0  0  0  0  0  0  0  0  0  0  0
    7.0516   39.7492   71.6453 N   0  0  0  0  0  0  0  0  0  0  0  0
    6.2270   40.1173   72.6432 C   0  0  0  0  0  0  0  0  0  0  0  0
    5.7526   41.4261   72.7206 N   0  0  0  0  0  0  0  0  0  0  0  0
    6.1632   42.3411   71.7490 C   0  0  0  0  0  0  0  0  0  0  0  0
    7.0277   41.9388   70.7362 C   0  0  0  0  0  0  0  0  0  0  0  0
    5.7552   43.5014   71.7866 O   0  0  0  0  0  0  0  0  0  0  0  0
    7.4073   42.8508   69.7331 N   0  0  0  0  0  0  0  0  0  0  0  0
    8.3705   42.4939   68.6530 C   0  0  2  0  0  0  0  0  0  0  0  0
    8.2859   40.9828   68.3789 C   0  0  0  0  0  0  0  0  0  0  0  0
    7.4478   40.6168   70.6967 C   0  0  0  0  0  0  0  0  0  0  0  0
    8.2983   40.2030   69.6644 N   0  0  0  0  0  0  0  0  0  0  0  0
    9.8076   42.8657   69.1264 C   0  0  0  0  0  0  0  0  0  0  0  0
  1  3  1  0  0  0  0
  2  3  2  0  0  0  0
  2 11  1  0  0  0  0
  3  4  1  0  0  0  0
  4  5  1  0  0  0  0
  5  6  1  0  0  0  0
  5  7  2  0  0  0  0
  6  8  1  0  0  0  0
  6 11  2  0  0  0  0
  8  9  1  0  0  0  0
  9 10  1  0  0  0  0
  9 13  1  1  0  0  0
 10 12  1  0  0  0  0
 11 12  1  0  0  0  0
M  END
>  <CHROM.1>
7.20189594,41.44196003,70.83833590,-2.57945780,0.87214122,-0.28401969

>  <Name>
ligand

>  <RI>
0

>  <Rbt.Current_Directory>
/home/itssahil/PROJECTS/Mol_Feturizer/New_Systems/rnas/3SUX

>  <Rbt.Executable>
rbdock ($Id: //depot/dev/client3/rdock/2013.1/src/exe/rbdock.cxx#4 $)

>  <Rbt.Library>
libRbt.so (2013.1, Build901 2013/11/27)

>  <Rbt.Parameter_File>
/export/apps/rDock/src/rDock_2013.1_src/data/scripts/dock_solv.prm

>  <Rbt.Receptor>
prm/pocket_docking_7.prm

>  <SCORE>
-8.95507

>  <SCORE.INTER>
-8.95507

>  <SCORE.INTER.CONST>
1

>  <SCORE.INTER.POLAR>
0

>  <SCORE.INTER.ROT>
0

>  <SCORE.INTER.SOLV>
12.364

>  <SCORE.INTER.VDW>
-13.6914

>  <SCORE.INTER.norm>
-0.688851

>  <SCORE.INTRA>
0

>  <SCORE.INTRA.DIHEDRAL>
0

>  <SCORE.INTRA.DIHEDRAL.0>
0

>  <SCORE.INTRA.POLAR>
0

>  <SCORE.INTRA.POLAR.0>
0

>  <SCORE.INTRA.REPUL>
0

>  <SCORE.INTRA.REPUL.0>
0

>  <SCORE.INTRA.SOLV>
0

>  <SCORE.INTRA.SOLV.lig_0>
-48.6608

>  <SCORE.INTRA.VDW>
0

>  <SCORE.INTRA.VDW.0>
0

>  <SCORE.INTRA.norm>
0

>  <SCORE.RESTR>
0

>  <SCORE.RESTR.CAVITY>
0

>  <SCORE.RESTR.norm>
0

>  <SCORE.SYSTEM>
0

>  <SCORE.SYSTEM.CONST>
0

>  <SCORE.SYSTEM.DIHEDRAL>
0

>  <SCORE.SYSTEM.SOLV>
0

>  <SCORE.SYSTEM.norm>
0

>  <SCORE.heavy>
13

>  <SCORE.norm>
-0.688851

>  <RMSD>
6.359

$$$$
ligand
 OpenBabel11021811483D
libRbt.so/2013.1/901 2013/11/27
 13 14  0  0  0  0  0  0  0  0999 V2000
    5.8288   39.2993   73.5992 N   0  0  0  0  0  0  0  0  0  0  0  0
    7.0230   39.7972   71.6757 N   0  0  0  0  0  0  0  0  0  0  0  0
    6.2125   40.1801   72.6796 C   0  0  0  0  0  0  0  0  0  0  0  0
    5.7583   41.4960   72.7574 N   0  0  0  0  0  0  0  0  0  0  0  0
    6.1742   42.4023   71.7799 C   0  0  0  0  0  0  0  0  0  0  0  0
    7.0239   41.9845   70.7609 C   0  0  0  0  0  0  0  0  0  0  0  0
    5.7838   43.5687   71.8179 O   0  0  0  0  0  0  0  0  0  0  0  0
    7.4086   42.8882   69.7522 N   0  0  0  0  0  0  0  0  0  0  0  0
    8.3571   42.5143   68.6650 C   0  0  2  0  0  0  0  0  0  0  0  0
    8.2477   41.0040   68.3957 C   0  0  0  0  0  0  0  0  0  0  0  0
    7.4240   40.6564   70.7214 C   0  0  0  0  0  0  0  0  0  0  0  0
    8.2594   40.2273   69.6831 N   0  0  0  0  0  0  0  0  0  0  0  0
    9.8035   42.8658   69.1252 C   0  0  0  0  0  0  0  0  0  0  0  0
  1  3  1  0  0  0  0
  2  3  2  0  0  0  0
  2 11  1  0  0  0  0
  3  4  1  0  0  0  0
  4  5  1  0  0  0  0
  5  6  1  0  0  0  0
  5  7  2  0  0  0  0
  6  8  1  0  0  0  0
  6 11  2  0  0  0  0
  8  9  1  0  0  0  0
  9 10  1  0  0  0  0
  9 13  1  1  0  0  0
 10 12  1  0  0  0  0
 11 12  1  0  0  0  0
M  END
>  <CHROM.1>
7.19159751,41.48547441,70.86294228,-2.59825708,0.88439931,-0.27215475

>  <Name>
ligand

>  <RI>
0

>  <Rbt.Current_Directory>
/home/itssahil/PROJECTS/Mol_Feturizer/New_Systems/rnas/3SUX

>  <Rbt.Executable>
rbdock ($Id: //depot/dev/client3/rdock/2013.1/src/exe/rbdock.cxx#4 $)

>  <Rbt.Library>
libRbt.so (2013.1, Build901 2013/11/27)

>  <Rbt.Parameter_File>
/export/apps/rDock/src/rDock_2013.1_src/data/scripts/dock_solv.prm

>  <Rbt.Receptor>
prm/pocket_docking_8.prm

>  <SCORE>
-9.01635

>  <SCORE.INTER>
-9.01635

>  <SCORE.INTER.CONST>
1

>  <SCORE.INTER.POLAR>
0

>  <SCORE.INTER.ROT>
0

>  <SCORE.INTER.SOLV>
12.2092

>  <SCORE.INTER.VDW>
-13.6806

>  <SCORE.INTER.norm>
-0.693565

>  <SCORE.INTRA>
0

>  <SCORE.INTRA.DIHEDRAL>
0

>  <SCORE.INTRA.DIHEDRAL.0>
0

>  <SCORE.INTRA.POLAR>
0

>  <SCORE.INTRA.POLAR.0>
0

>  <SCORE.INTRA.REPUL>
0

>  <SCORE.INTRA.REPUL.0>
0

>  <SCORE.INTRA.SOLV>
0

>  <SCORE.INTRA.SOLV.lig_0>
-48.6608

>  <SCORE.INTRA.VDW>
0

>  <SCORE.INTRA.VDW.0>
0

>  <SCORE.INTRA.norm>
0

>  <SCORE.RESTR>
0

>  <SCORE.RESTR.CAVITY>
0

>  <SCORE.RESTR.norm>
0

>  <SCORE.SYSTEM>
0

>  <SCORE.SYSTEM.CONST>
0

>  <SCORE.SYSTEM.DIHEDRAL>
0

>  <SCORE.SYSTEM.SOLV>
0

>  <SCORE.SYSTEM.norm>
0

>  <SCORE.heavy>
13

>  <SCORE.norm>
-0.693565

>  <RMSD>
6.362

$$$$
ligand
 OpenBabel11021811483D
libRbt.so/2013.1/901 2013/11/27
 13 14  0  0  0  0  0  0  0  0999 V2000
    5.8398   39.3124   73.6120 N   0  0  0  0  0  0  0  0  0  0  0  0
    7.0069   39.8120   71.6725 N   0  0  0  0  0  0  0  0  0  0  0  0
    6.2169   40.1957   72.6922 C   0  0  0  0  0  0  0  0  0  0  0  0
    5.7770   41.5154   72.7864 N   0  0  0  0  0  0  0  0  0  0  0  0
    6.1855   42.4244   71.8083 C   0  0  0  0  0  0  0  0  0  0  0  0
    7.0142   42.0054   70.7726 C   0  0  0  0  0  0  0  0  0  0  0  0
    5.8073   43.5942   71.8606 O   0  0  0  0  0  0  0  0  0  0  0  0
    7.3910   42.9123   69.7638 N   0  0  0  0  0  0  0  0  0  0  0  0
    8.3178   42.5368   68.6585 C   0  0  2  0  0  0  0  0  0  0  0  0
    8.1892   41.0294   68.3808 C   0  0  0  0  0  0  0  0  0  0  0  0
    7.4005   40.6738   70.7175 C   0  0  0  0  0  0  0  0  0  0  0  0
    8.2145   40.2438   69.6626 N   0  0  0  0  0  0  0  0  0  0  0  0
    9.7750   42.8710   69.0971 C   0  0  0  0  0  0  0  0  0  0  0  0
  1  3  1  0  0  0  0
  2  3  2  0  0  0  0
  2 11  1  0  0  0  0
  3  4  1  0  0  0  0
  4  5  1  0  0  0  0
  5  6  1  0  0  0  0
  5  7  2  0  0  0  0
  6  8  1  0  0  0  0
  6 11  2  0  0  0  0
  8  9  1  0  0  0  0
  9 10  1  0  0  0  0
  9 13  1  1  0  0  0
 10 12  1  0  0  0  0
 11 12  1  0  0  0  0
M  END
>  <CHROM.1>
7.17865580,41.50407160,70.86844665,-2.60634814,0.90289673,-0.25902070

>  <Name>
ligand

>  <RI>
0

>  <Rbt.Current_Directory>
/home/itssahil/PROJECTS/Mol_Feturizer/New_Systems/rnas/3SUX

>  <Rbt.Executable>
rbdock ($Id: //depot/dev/client3/rdock/2013.1/src/exe/rbdock.cxx#4 $)

>  <Rbt.Library>
libRbt.so (2013.1, Build901 2013/11/27)

>  <Rbt.Parameter_File>
/export/apps/rDock/src/rDock_2013.1_src/data/scripts/dock_solv.prm

>  <Rbt.Receptor>
prm/pocket_docking_6.prm

>  <SCORE>
-9.01488

>  <SCORE.INTER>
-9.01488

>  <SCORE.INTER.CONST>
1

>  <SCORE.INTER.POLAR>
0

>  <SCORE.INTER.ROT>
0

>  <SCORE.INTER.SOLV>
12.162

>  <SCORE.INTER.VDW>
-13.6639

>  <SCORE.INTER.norm>
-0.693452

>  <SCORE.INTRA>
0

>  <SCORE.INTRA.DIHEDRAL>
0

>  <SCORE.INTRA.DIHEDRAL.0>
0

>  <SCORE.INTRA.POLAR>
0

>  <SCORE.INTRA.POLAR.0>
0

>  <SCORE.INTRA.REPUL>
0

>  <SCORE.INTRA.REPUL.0>
0

>  <SCORE.INTRA.SOLV>
0

>  <SCORE.INTRA.SOLV.lig_0>
-48.6608

>  <SCORE.INTRA.VDW>
0

>  <SCORE.INTRA.VDW.0>
0

>  <SCORE.INTRA.norm>
0

>  <SCORE.RESTR>
0

>  <SCORE.RESTR.CAVITY>
0

>  <SCORE.RESTR.norm>
0

>  <SCORE.SYSTEM>
0

>  <SCORE.SYSTEM.CONST>
0

>  <SCORE.SYSTEM.DIHEDRAL>
0

>  <SCORE.SYSTEM.SOLV>
0

>  <SCORE.SYSTEM.norm>
0

>  <SCORE.heavy>
13

>  <SCORE.norm>
-0.693452

>  <RMSD>
6.363

$$$$
ligand
 OpenBabel11021811483D
libRbt.so/2013.1/901 2013/11/27
 13 14  0  0  0  0  0  0  0  0999 V2000
    5.5907   39.7741   73.6943 N   0  0  0  0  0  0  0  0  0  0  0  0
    6.8228   40.0860   71.7557 N   0  0  0  0  0  0  0  0  0  0  0  0
    6.0287   40.5741   72.7264 C   0  0  0  0  0  0  0  0  0  0  0  0
    5.6482   41.9154   72.7194 N   0  0  0  0  0  0  0  0  0  0  0  0
    6.1202   42.7355   71.6925 C   0  0  0  0  0  0  0  0  0  0  0  0
    6.9517   42.2095   70.7091 C   0  0  0  0  0  0  0  0  0  0  0  0
    5.7954   43.9218   71.6554 O   0  0  0  0  0  0  0  0  0  0  0  0
    7.3925   43.0268   69.6509 N   0  0  0  0  0  0  0  0  0  0  0  0
    8.3255   42.5348   68.5978 C   0  0  2  0  0  0  0  0  0  0  0  0
    8.1336   41.0191   68.4201 C   0  0  0  0  0  0  0  0  0  0  0  0
    7.2772   40.8613   70.7547 C   0  0  0  0  0  0  0  0  0  0  0  0
    8.0938   40.3236   69.7526 N   0  0  0  0  0  0  0  0  0  0  0  0
    9.7864   42.8333   69.0497 C   0  0  0  0  0  0  0  0  0  0  0  0
  1  3  1  0  0  0  0
  2  3  2  0  0  0  0
  2 11  1  0  0  0  0
  3  4  1  0  0  0  0
  4  5  1  0  0  0  0
  5  6  1  0  0  0  0
  5  7  2  0  0  0  0
  6  8  1  0  0  0  0
  6 11  2  0  0  0  0
  8  9  1  0  0  0  0
  9 10  1  0  0  0  0
  9 13  1  1  0  0  0
 10 12  1  0  0  0  0
 11 12  1  0  0  0  0
M  END
>  <CHROM.1>
7.09057500,41.70908867,70.84305978,-2.68665879,0.89145994,-0.26490713

>  <Name>
ligand

>  <RI>
0

>  <Rbt.Current_Directory>
/home/itssahil/PROJECTS/Mol_Feturizer/New_Systems/rnas/3SUX

>  <Rbt.Executable>
rbdock ($Id: //depot/dev/client3/rdock/2013.1/src/exe/rbdock.cxx#4 $)

>  <Rbt.Library>
libRbt.so (2013.1, Build901 2013/11/27)

>  <Rbt.Parameter_File>
/export/apps/rDock/src/rDock_2013.1_src/data/scripts/dock_solv.prm

>  <Rbt.Receptor>
prm/pocket_docking_6.prm

>  <SCORE>
-8.96797

>  <SCORE.INTER>
-8.96797

>  <SCORE.INTER.CONST>
1

>  <SCORE.INTER.POLAR>
0

>  <SCORE.INTER.ROT>
0

>  <SCORE.INTER.SOLV>
13.3682

>  <SCORE.INTER.VDW>
-14.0347

>  <SCORE.INTER.norm>
-0.689844

>  <SCORE.INTRA>
0

>  <SCORE.INTRA.DIHEDRAL>
0

>  <SCORE.INTRA.DIHEDRAL.0>
0

>  <SCORE.INTRA.POLAR>
0

>  <SCORE.INTRA.POLAR.0>
0

>  <SCORE.INTRA.REPUL>
0

>  <SCORE.INTRA.REPUL.0>
0

>  <SCORE.INTRA.SOLV>
0

>  <SCORE.INTRA.SOLV.lig_0>
-48.6608

>  <SCORE.INTRA.VDW>
0

>  <SCORE.INTRA.VDW.0>
0

>  <SCORE.INTRA.norm>
0

>  <SCORE.RESTR>
0

>  <SCORE.RESTR.CAVITY>
0

>  <SCORE.RESTR.norm>
0

>  <SCORE.SYSTEM>
0

>  <SCORE.SYSTEM.CONST>
0

>  <SCORE.SYSTEM.DIHEDRAL>
0

>  <SCORE.SYSTEM.SOLV>
0

>  <SCORE.SYSTEM.norm>
0

>  <SCORE.heavy>
13

>  <SCORE.norm>
-0.689844

>  <RMSD>
6.364

$$$$
ligand
 OpenBabel11021811483D
libRbt.so/2013.1/901 2013/11/27
 13 14  0  0  0  0  0  0  0  0999 V2000
    5.7110   39.3971   73.5769 N   0  0  0  0  0  0  0  0  0  0  0  0
    6.9425   39.8478   71.6653 N   0  0  0  0  0  0  0  0  0  0  0  0
    6.1239   40.2584   72.6515 C   0  0  0  0  0  0  0  0  0  0  0  0
    5.6920   41.5830   72.7048 N   0  0  0  0  0  0  0  0  0  0  0  0
    6.1383   42.4685   71.7217 C   0  0  0  0  0  0  0  0  0  0  0  0
    6.9958   42.0220   70.7214 C   0  0  0  0  0  0  0  0  0  0  0  0
    5.7681   43.6418   71.7381 O   0  0  0  0  0  0  0  0  0  0  0  0
    7.4114   42.9050   69.7067 N   0  0  0  0  0  0  0  0  0  0  0  0
    8.3693   42.4998   68.6391 C   0  0  2  0  0  0  0  0  0  0  0  0
    8.2373   40.9880   68.3884 C   0  0  0  0  0  0  0  0  0  0  0  0
    7.3728   40.6867   70.7058 C   0  0  0  0  0  0  0  0  0  0  0  0
    8.2160   40.2289   69.6862 N   0  0  0  0  0  0  0  0  0  0  0  0
    9.8147   42.8323   69.1166 C   0  0  0  0  0  0  0  0  0  0  0  0
  1  3  1  0  0  0  0
  2  3  2  0  0  0  0
  2 11  1  0  0  0  0
  3  4  1  0  0  0  0
  4  5  1  0  0  0  0
  5  6  1  0  0  0  0
  5  7  2  0  0  0  0
  6  8  1  0  0  0  0
  6 11  2  0  0  0  0
  8  9  1  0  0  0  0
  9 10  1  0  0  0  0
  9 13  1  1  0  0  0
 10 12  1  0  0  0  0
 11 12  1  0  0  0  0
M  END
>  <CHROM.1>
7.15303469,41.52155611,70.83267536,-2.63106057,0.87445706,-0.26041520

>  <Name>
ligand

>  <RI>
0

>  <Rbt.Current_Directory>
/home/itssahil/PROJECTS/Mol_Feturizer/New_Systems/rnas/3SUX

>  <Rbt.Executable>
rbdock ($Id: //depot/dev/client3/rdock/2013.1/src/exe/rbdock.cxx#4 $)

>  <Rbt.Library>
libRbt.so (2013.1, Build901 2013/11/27)

>  <Rbt.Parameter_File>
/export/apps/rDock/src/rDock_2013.1_src/data/scripts/dock_solv.prm

>  <Rbt.Receptor>
prm/pocket_docking_6.prm

>  <SCORE>
-9.01282

>  <SCORE.INTER>
-9.01282

>  <SCORE.INTER.CONST>
1

>  <SCORE.INTER.POLAR>
0

>  <SCORE.INTER.ROT>
0

>  <SCORE.INTER.SOLV>
12.9732

>  <SCORE.INTER.VDW>
-13.933

>  <SCORE.INTER.norm>
-0.693294

>  <SCORE.INTRA>
0

>  <SCORE.INTRA.DIHEDRAL>
0

>  <SCORE.INTRA.DIHEDRAL.0>
0

>  <SCORE.INTRA.POLAR>
0

>  <SCORE.INTRA.POLAR.0>
0

>  <SCORE.INTRA.REPUL>
0

>  <SCORE.INTRA.REPUL.0>
0

>  <SCORE.INTRA.SOLV>
0

>  <SCORE.INTRA.SOLV.lig_0>
-48.6608

>  <SCORE.INTRA.VDW>
0

>  <SCORE.INTRA.VDW.0>
0

>  <SCORE.INTRA.norm>
0

>  <SCORE.RESTR>
0

>  <SCORE.RESTR.CAVITY>
0

>  <SCORE.RESTR.norm>
0

>  <SCORE.SYSTEM>
0

>  <SCORE.SYSTEM.CONST>
0

>  <SCORE.SYSTEM.DIHEDRAL>
0

>  <SCORE.SYSTEM.SOLV>
0

>  <SCORE.SYSTEM.norm>
0

>  <SCORE.heavy>
13

>  <SCORE.norm>
-0.693294

>  <RMSD>
6.365

$$$$
ligand
 OpenBabel11021811483D
libRbt.so/2013.1/901 2013/11/27
 13 14  0  0  0  0  0  0  0  0999 V2000
    5.8403   39.2880   73.6043 N   0  0  0  0  0  0  0  0  0  0  0  0
    7.0400   39.7851   71.6841 N   0  0  0  0  0  0  0  0  0  0  0  0
    6.2200   40.1664   72.6808 C   0  0  0  0  0  0  0  0  0  0  0  0
    5.7519   41.4781   72.7470 N   0  0  0  0  0  0  0  0  0  0  0  0
    6.1638   42.3819   71.7657 C   0  0  0  0  0  0  0  0  0  0  0  0
    7.0236   41.9661   70.7543 C   0  0  0  0  0  0  0  0  0  0  0  0
    5.7613   43.5444   71.7935 O   0  0  0  0  0  0  0  0  0  0  0  0
    7.4045   42.8668   69.7416 N   0  0  0  0  0  0  0  0  0  0  0  0
    8.3630   42.4953   68.6622 C   0  0  2  0  0  0  0  0  0  0  0  0
    8.2707   40.9821   68.4027 C   0  0  0  0  0  0  0  0  0  0  0  0
    7.4375   40.6419   70.7261 C   0  0  0  0  0  0  0  0  0  0  0  0
    8.2831   40.2144   69.6954 N   0  0  0  0  0  0  0  0  0  0  0  0
    9.8031   42.8649   69.1280 C   0  0  0  0  0  0  0  0  0  0  0  0
  1  3  1  0  0  0  0
  2  3  2  0  0  0  0
  2 11  1  0  0  0  0
  3  4  1  0  0  0  0
  4  5  1  0  0  0  0
  5  6  1  0  0  0  0
  5  7  2  0  0  0  0
  6  8  1  0  0  0  0
  6 11  2  0  0  0  0
  8  9  1  0  0  0  0
  9 10  1  0  0  0  0
  9 13  1  1  0  0  0
 10 12  1  0  0  0  0
 11 12  1  0  0  0  0
M  END
>  <CHROM.1>
7.19580993,41.46944690,70.86067716,-2.58509969,0.87617121,-0.28914416

>  <Name>
ligand

>  <RI>
0

>  <Rbt.Current_Directory>
/home/itssahil/PROJECTS/Mol_Feturizer/New_Systems/rnas/3SUX

>  <Rbt.Executable>
rbdock ($Id: //depot/dev/client3/rdock/2013.1/src/exe/rbdock.cxx#4 $)

>  <Rbt.Library>
libRbt.so (2013.1, Build901 2013/11/27)

>  <Rbt.Parameter_File>
/export/apps/rDock/src/rDock_2013.1_src/data/scripts/dock_solv.prm

>  <Rbt.Receptor>
prm/pocket_docking_6.prm

>  <SCORE>
-8.99814

>  <SCORE.INTER>
-8.99814

>  <SCORE.INTER.CONST>
1

>  <SCORE.INTER.POLAR>
0

>  <SCORE.INTER.ROT>
0

>  <SCORE.INTER.SOLV>
12.2027

>  <SCORE.INTER.VDW>
-13.6663

>  <SCORE.INTER.norm>
-0.692165

>  <SCORE.INTRA>
0

>  <SCORE.INTRA.DIHEDRAL>
0

>  <SCORE.INTRA.DIHEDRAL.0>
0

>  <SCORE.INTRA.POLAR>
0

>  <SCORE.INTRA.POLAR.0>
0

>  <SCORE.INTRA.REPUL>
0

>  <SCORE.INTRA.REPUL.0>
0

>  <SCORE.INTRA.SOLV>
0

>  <SCORE.INTRA.SOLV.lig_0>
-48.6608

>  <SCORE.INTRA.VDW>
0

>  <SCORE.INTRA.VDW.0>
0

>  <SCORE.INTRA.norm>
0

>  <SCORE.RESTR>
0

>  <SCORE.RESTR.CAVITY>
0

>  <SCORE.RESTR.norm>
0

>  <SCORE.SYSTEM>
0

>  <SCORE.SYSTEM.CONST>
0

>  <SCORE.SYSTEM.DIHEDRAL>
0

>  <SCORE.SYSTEM.SOLV>
0

>  <SCORE.SYSTEM.norm>
0

>  <SCORE.heavy>
13

>  <SCORE.norm>
-0.692165

>  <RMSD>
6.365

$$$$
ligand
 OpenBabel11021811483D
libRbt.so/2013.1/901 2013/11/27
 13 14  0  0  0  0  0  0  0  0999 V2000
    5.6236   39.7404   73.7074 N   0  0  0  0  0  0  0  0  0  0  0  0
    6.8770   40.0682   71.7852 N   0  0  0  0  0  0  0  0  0  0  0  0
    6.0538   40.5429   72.7381 C   0  0  0  0  0  0  0  0  0  0  0  0
    5.6350   41.8725   72.7110 N   0  0  0  0  0  0  0  0  0  0  0  0
    6.0994   42.6955   71.6830 C   0  0  0  0  0  0  0  0  0  0  0  0
    6.9613   42.1839   70.7184 C   0  0  0  0  0  0  0  0  0  0  0  0
    5.7411   43.8714   71.6283 O   0  0  0  0  0  0  0  0  0  0  0  0
    7.3952   43.0029   69.6586 N   0  0  0  0  0  0  0  0  0  0  0  0
    8.3587   42.5275   68.6255 C   0  0  2  0  0  0  0  0  0  0  0  0
    8.2134   41.0052   68.4609 C   0  0  0  0  0  0  0  0  0  0  0  0
    7.3248   40.8463   70.7833 C   0  0  0  0  0  0  0  0  0  0  0  0
    8.1725   40.3224   69.7999 N   0  0  0  0  0  0  0  0  0  0  0  0
    9.8029   42.8729   69.0971 C   0  0  0  0  0  0  0  0  0  0  0  0
  1  3  1  0  0  0  0
  2  3  2  0  0  0  0
  2 11  1  0  0  0  0
  3  4  1  0  0  0  0
  4  5  1  0  0  0  0
  5  6  1  0  0  0  0
  5  7  2  0  0  0  0
  6  8  1  0  0  0  0
  6 11  2  0  0  0  0
  8  9  1  0  0  0  0
  9 10  1  0  0  0  0
  9 13  1  1  0  0  0
 10 12  1  0  0  0  0
 11 12  1  0  0  0  0
M  END
>  <CHROM.1>
7.11239427,41.68914102,70.85975453,-2.65005171,0.86816899,-0.30347237

>  <Name>
ligand

>  <RI>
0

>  <Rbt.Current_Directory>
/home/itssahil/PROJECTS/Mol_Feturizer/New_Systems/rnas/3SUX

>  <Rbt.Executable>
rbdock ($Id: //depot/dev/client3/rdock/2013.1/src/exe/rbdock.cxx#4 $)

>  <Rbt.Library>
libRbt.so (2013.1, Build901 2013/11/27)

>  <Rbt.Parameter_File>
/export/apps/rDock/src/rDock_2013.1_src/data/scripts/dock_solv.prm

>  <Rbt.Receptor>
prm/pocket_docking_6.prm

>  <SCORE>
-8.97479

>  <SCORE.INTER>
-8.97479

>  <SCORE.INTER.CONST>
1

>  <SCORE.INTER.POLAR>
0

>  <SCORE.INTER.ROT>
0

>  <SCORE.INTER.SOLV>
13.0679

>  <SCORE.INTER.VDW>
-13.9392

>  <SCORE.INTER.norm>
-0.690368

>  <SCORE.INTRA>
0

>  <SCORE.INTRA.DIHEDRAL>
0

>  <SCORE.INTRA.DIHEDRAL.0>
0

>  <SCORE.INTRA.POLAR>
0

>  <SCORE.INTRA.POLAR.0>
0

>  <SCORE.INTRA.REPUL>
0

>  <SCORE.INTRA.REPUL.0>
0

>  <SCORE.INTRA.SOLV>
0

>  <SCORE.INTRA.SOLV.lig_0>
-48.6608

>  <SCORE.INTRA.VDW>
0

>  <SCORE.INTRA.VDW.0>
0

>  <SCORE.INTRA.norm>
0

>  <SCORE.RESTR>
0

>  <SCORE.RESTR.CAVITY>
0

>  <SCORE.RESTR.norm>
0

>  <SCORE.SYSTEM>
0

>  <SCORE.SYSTEM.CONST>
0

>  <SCORE.SYSTEM.DIHEDRAL>
0

>  <SCORE.SYSTEM.SOLV>
0

>  <SCORE.SYSTEM.norm>
0

>  <SCORE.heavy>
13

>  <SCORE.norm>
-0.690368

>  <RMSD>
6.369

$$$$
ligand
 OpenBabel11021811483D
libRbt.so/2013.1/901 2013/11/27
 13 14  0  0  0  0  0  0  0  0999 V2000
    5.7823   39.4166   73.6503 N   0  0  0  0  0  0  0  0  0  0  0  0
    7.0036   39.8614   71.7309 N   0  0  0  0  0  0  0  0  0  0  0  0
    6.1754   40.2705   72.7096 C   0  0  0  0  0  0  0  0  0  0  0  0
    5.7126   41.5854   72.7390 N   0  0  0  0  0  0  0  0  0  0  0  0
    6.1386   42.4632   71.7402 C   0  0  0  0  0  0  0  0  0  0  0  0
    7.0066   42.0190   70.7481 C   0  0  0  0  0  0  0  0  0  0  0  0
    5.7412   43.6278   71.7355 O   0  0  0  0  0  0  0  0  0  0  0  0
    7.4019   42.8931   69.7176 N   0  0  0  0  0  0  0  0  0  0  0  0
    8.3695   42.4912   68.6575 C   0  0  2  0  0  0  0  0  0  0  0  0
    8.2728   40.9725   68.4340 C   0  0  0  0  0  0  0  0  0  0  0  0
    7.4147   40.6928   70.7564 C   0  0  0  0  0  0  0  0  0  0  0  0
    8.2687   40.2366   69.7451 N   0  0  0  0  0  0  0  0  0  0  0  0
    9.8065   42.8658   69.1288 C   0  0  0  0  0  0  0  0  0  0  0  0
  1  3  1  0  0  0  0
  2  3  2  0  0  0  0
  2 11  1  0  0  0  0
  3  4  1  0  0  0  0
  4  5  1  0  0  0  0
  5  6  1  0  0  0  0
  5  7  2  0  0  0  0
  6  8  1  0  0  0  0
  6 11  2  0  0  0  0
  8  9  1  0  0  0  0
  9 10  1  0  0  0  0
  9 13  1  1  0  0  0
 10 12  1  0  0  0  0
 11 12  1  0  0  0  0
M  END
>  <CHROM.1>
7.17545098,41.52443415,70.86828125,-2.59636484,0.86777474,-0.30493007

>  <Name>
ligand

>  <RI>
0

>  <Rbt.Current_Directory>
/home/itssahil/PROJECTS/Mol_Feturizer/New_Systems/rnas/3SUX

>  <Rbt.Executable>
rbdock ($Id: //depot/dev/client3/rdock/2013.1/src/exe/rbdock.cxx#4 $)

>  <Rbt.Library>
libRbt.so (2013.1, Build901 2013/11/27)

>  <Rbt.Parameter_File>
/export/apps/rDock/src/rDock_2013.1_src/data/scripts/dock_solv.prm

>  <Rbt.Receptor>
prm/pocket_docking_7.prm

>  <SCORE>
-8.97721

>  <SCORE.INTER>
-8.97721

>  <SCORE.INTER.CONST>
1

>  <SCORE.INTER.POLAR>
0

>  <SCORE.INTER.ROT>
0

>  <SCORE.INTER.SOLV>
12.3585

>  <SCORE.INTER.VDW>
-13.7043

>  <SCORE.INTER.norm>
-0.690554

>  <SCORE.INTRA>
0

>  <SCORE.INTRA.DIHEDRAL>
0

>  <SCORE.INTRA.DIHEDRAL.0>
0

>  <SCORE.INTRA.POLAR>
0

>  <SCORE.INTRA.POLAR.0>
0

>  <SCORE.INTRA.REPUL>
0

>  <SCORE.INTRA.REPUL.0>
0

>  <SCORE.INTRA.SOLV>
0

>  <SCORE.INTRA.SOLV.lig_0>
-48.6608

>  <SCORE.INTRA.VDW>
0

>  <SCORE.INTRA.VDW.0>
0

>  <SCORE.INTRA.norm>
0

>  <SCORE.RESTR>
0

>  <SCORE.RESTR.CAVITY>
0

>  <SCORE.RESTR.norm>
0

>  <SCORE.SYSTEM>
0

>  <SCORE.SYSTEM.CONST>
0

>  <SCORE.SYSTEM.DIHEDRAL>
0

>  <SCORE.SYSTEM.SOLV>
0

>  <SCORE.SYSTEM.norm>
0

>  <SCORE.heavy>
13

>  <SCORE.norm>
-0.690554

>  <RMSD>
6.370

$$$$
ligand
 OpenBabel11021811483D
libRbt.so/2013.1/901 2013/11/27
 13 14  0  0  0  0  0  0  0  0999 V2000
    5.7804   39.2954   73.5835 N   0  0  0  0  0  0  0  0  0  0  0  0
    7.0056   39.7912   71.6790 N   0  0  0  0  0  0  0  0  0  0  0  0
    6.1787   40.1751   72.6690 C   0  0  0  0  0  0  0  0  0  0  0  0
    5.7227   41.4909   72.7376 N   0  0  0  0  0  0  0  0  0  0  0  0
    6.1540   42.3960   71.7657 C   0  0  0  0  0  0  0  0  0  0  0  0
    7.0205   41.9772   70.7613 C   0  0  0  0  0  0  0  0  0  0  0  0
    5.7626   43.5622   71.7956 O   0  0  0  0  0  0  0  0  0  0  0  0
    7.4211   42.8796   69.7577 N   0  0  0  0  0  0  0  0  0  0  0  0
    8.3874   42.5046   68.6866 C   0  0  2  0  0  0  0  0  0  0  0  0
    8.2831   40.9938   68.4177 C   0  0  0  0  0  0  0  0  0  0  0  0
    7.4217   40.6492   70.7302 C   0  0  0  0  0  0  0  0  0  0  0  0
    8.2741   40.2190   69.7062 N   0  0  0  0  0  0  0  0  0  0  0  0
    9.8260   42.8574   69.1698 C   0  0  0  0  0  0  0  0  0  0  0  0
  1  3  1  0  0  0  0
  2  3  2  0  0  0  0
  2 11  1  0  0  0  0
  3  4  1  0  0  0  0
  4  5  1  0  0  0  0
  5  6  1  0  0  0  0
  5  7  2  0  0  0  0
  6  8  1  0  0  0  0
  6 11  2  0  0  0  0
  8  9  1  0  0  0  0
  9 10  1  0  0  0  0
  9 13  1  1  0  0  0
 10 12  1  0  0  0  0
 11 12  1  0  0  0  0
M  END
>  <CHROM.1>
7.18669549,41.47833957,70.86671460,-2.60438118,0.86857092,-0.26887782

>  <Name>
ligand

>  <RI>
0

>  <Rbt.Current_Directory>
/home/itssahil/PROJECTS/Mol_Feturizer/New_Systems/rnas/3SUX

>  <Rbt.Executable>
rbdock ($Id: //depot/dev/client3/rdock/2013.1/src/exe/rbdock.cxx#4 $)

>  <Rbt.Library>
libRbt.so (2013.1, Build901 2013/11/27)

>  <Rbt.Parameter_File>
/export/apps/rDock/src/rDock_2013.1_src/data/scripts/dock_solv.prm

>  <Rbt.Receptor>
prm/pocket_docking_7.prm

>  <SCORE>
-8.97792

>  <SCORE.INTER>
-8.97792

>  <SCORE.INTER.CONST>
1

>  <SCORE.INTER.POLAR>
0

>  <SCORE.INTER.ROT>
0

>  <SCORE.INTER.SOLV>
12.3899

>  <SCORE.INTER.VDW>
-13.7153

>  <SCORE.INTER.norm>
-0.690609

>  <SCORE.INTRA>
0

>  <SCORE.INTRA.DIHEDRAL>
0

>  <SCORE.INTRA.DIHEDRAL.0>
0

>  <SCORE.INTRA.POLAR>
0

>  <SCORE.INTRA.POLAR.0>
0

>  <SCORE.INTRA.REPUL>
0

>  <SCORE.INTRA.REPUL.0>
0

>  <SCORE.INTRA.SOLV>
0

>  <SCORE.INTRA.SOLV.lig_0>
-48.6608

>  <SCORE.INTRA.VDW>
0

>  <SCORE.INTRA.VDW.0>
0

>  <SCORE.INTRA.norm>
0

>  <SCORE.RESTR>
0

>  <SCORE.RESTR.CAVITY>
0

>  <SCORE.RESTR.norm>
0

>  <SCORE.SYSTEM>
0

>  <SCORE.SYSTEM.CONST>
0

>  <SCORE.SYSTEM.DIHEDRAL>
0

>  <SCORE.SYSTEM.SOLV>
0

>  <SCORE.SYSTEM.norm>
0

>  <SCORE.heavy>
13

>  <SCORE.norm>
-0.690609

>  <RMSD>
6.370

$$$$
ligand
 OpenBabel11021811483D
libRbt.so/2013.1/901 2013/11/27
 13 14  0  0  0  0  0  0  0  0999 V2000
    5.6141   39.7010   73.6946 N   0  0  0  0  0  0  0  0  0  0  0  0
    6.8539   40.0314   71.7639 N   0  0  0  0  0  0  0  0  0  0  0  0
    6.0483   40.5081   72.7309 C   0  0  0  0  0  0  0  0  0  0  0  0
    5.6520   41.8448   72.7242 N   0  0  0  0  0  0  0  0  0  0  0  0
    6.1203   42.6725   71.7017 C   0  0  0  0  0  0  0  0  0  0  0  0
    6.9637   42.1584   70.7223 C   0  0  0  0  0  0  0  0  0  0  0  0
    5.7816   43.8549   71.6650 O   0  0  0  0  0  0  0  0  0  0  0  0
    7.4010   42.9829   69.6683 N   0  0  0  0  0  0  0  0  0  0  0  0
    8.3460   42.5042   68.6198 C   0  0  2  0  0  0  0  0  0  0  0  0
    8.1731   40.9867   68.4380 C   0  0  0  0  0  0  0  0  0  0  0  0
    7.3049   40.8140   70.7671 C   0  0  0  0  0  0  0  0  0  0  0  0
    8.1337   40.2881   69.7688 N   0  0  0  0  0  0  0  0  0  0  0  0
    9.8005   42.8191   69.0809 C   0  0  0  0  0  0  0  0  0  0  0  0
  1  3  1  0  0  0  0
  2  3  2  0  0  0  0
  2 11  1  0  0  0  0
  3  4  1  0  0  0  0
  4  5  1  0  0  0  0
  5  6  1  0  0  0  0
  5  7  2  0  0  0  0
  6  8  1  0  0  0  0
  6 11  2  0  0  0  0
  8  9  1  0  0  0  0
  9 10  1  0  0  0  0
  9 13  1  1  0  0  0
 10 12  1  0  0  0  0
 11 12  1  0  0  0  0
M  END
>  <CHROM.1>
7.10771374,41.65939106,70.85606040,-2.67108926,0.88262359,-0.27499063

>  <Name>
ligand

>  <RI>
0

>  <Rbt.Current_Directory>
/home/itssahil/PROJECTS/Mol_Feturizer/New_Systems/rnas/3SUX

>  <Rbt.Executable>
rbdock ($Id: //depot/dev/client3/rdock/2013.1/src/exe/rbdock.cxx#4 $)

>  <Rbt.Library>
libRbt.so (2013.1, Build901 2013/11/27)

>  <Rbt.Parameter_File>
/export/apps/rDock/src/rDock_2013.1_src/data/scripts/dock_solv.prm

>  <Rbt.Receptor>
prm/pocket_docking_6.prm

>  <SCORE>
-8.99352

>  <SCORE.INTER>
-8.99352

>  <SCORE.INTER.CONST>
1

>  <SCORE.INTER.POLAR>
0

>  <SCORE.INTER.ROT>
0

>  <SCORE.INTER.SOLV>
13.1851

>  <SCORE.INTER.VDW>
-13.9907

>  <SCORE.INTER.norm>
-0.691809

>  <SCORE.INTRA>
0

>  <SCORE.INTRA.DIHEDRAL>
0

>  <SCORE.INTRA.DIHEDRAL.0>
0

>  <SCORE.INTRA.POLAR>
0

>  <SCORE.INTRA.POLAR.0>
0

>  <SCORE.INTRA.REPUL>
0

>  <SCORE.INTRA.REPUL.0>
0

>  <SCORE.INTRA.SOLV>
0

>  <SCORE.INTRA.SOLV.lig_0>
-48.6608

>  <SCORE.INTRA.VDW>
0

>  <SCORE.INTRA.VDW.0>
0

>  <SCORE.INTRA.norm>
0

>  <SCORE.RESTR>
0

>  <SCORE.RESTR.CAVITY>
0

>  <SCORE.RESTR.norm>
0

>  <SCORE.SYSTEM>
0

>  <SCORE.SYSTEM.CONST>
0

>  <SCORE.SYSTEM.DIHEDRAL>
0

>  <SCORE.SYSTEM.SOLV>
0

>  <SCORE.SYSTEM.norm>
0

>  <SCORE.heavy>
13

>  <SCORE.norm>
-0.691809

>  <RMSD>
6.372

$$$$
ligand
 OpenBabel11021811483D
libRbt.so/2013.1/901 2013/11/27
 13 14  0  0  0  0  0  0  0  0999 V2000
    5.8624   39.2810   73.6285 N   0  0  0  0  0  0  0  0  0  0  0  0
    7.0478   39.7786   71.6995 N   0  0  0  0  0  0  0  0  0  0  0  0
    6.2309   40.1583   72.6994 C   0  0  0  0  0  0  0  0  0  0  0  0
    5.7543   41.4670   72.7632 N   0  0  0  0  0  0  0  0  0  0  0  0
    6.1545   42.3697   71.7760 C   0  0  0  0  0  0  0  0  0  0  0  0
    7.0112   41.9556   70.7613 C   0  0  0  0  0  0  0  0  0  0  0  0
    5.7443   43.5295   71.8015 O   0  0  0  0  0  0  0  0  0  0  0  0
    7.3803   42.8548   69.7428 N   0  0  0  0  0  0  0  0  0  0  0  0
    8.3350   42.4856   68.6595 C   0  0  2  0  0  0  0  0  0  0  0  0
    8.2515   40.9707   68.4064 C   0  0  0  0  0  0  0  0  0  0  0  0
    7.4339   40.6341   70.7360 C   0  0  0  0  0  0  0  0  0  0  0  0
    8.2765   40.2083   69.7021 N   0  0  0  0  0  0  0  0  0  0  0  0
    9.7752   42.8667   69.1155 C   0  0  0  0  0  0  0  0  0  0  0  0
  1  3  1  0  0  0  0
  2  3  2  0  0  0  0
  2 11  1  0  0  0  0
  3  4  1  0  0  0  0
  4  5  1  0  0  0  0
  5  6  1  0  0  0  0
  5  7  2  0  0  0  0
  6  8  1  0  0  0  0
  6 11  2  0  0  0  0
  8  9  1  0  0  0  0
  9 10  1  0  0  0  0
  9 13  1  1  0  0  0
 10 12  1  0  0  0  0
 11 12  1  0  0  0  0
M  END
>  <CHROM.1>
7.18742436,41.46059146,70.86861846,-2.57236214,0.87969501,-0.30290112

>  <Name>
ligand

>  <RI>
0

>  <Rbt.Current_Directory>
/home/itssahil/PROJECTS/Mol_Feturizer/New_Systems/rnas/3SUX

>  <Rbt.Executable>
rbdock ($Id: //depot/dev/client3/rdock/2013.1/src/exe/rbdock.cxx#4 $)

>  <Rbt.Library>
libRbt.so (2013.1, Build901 2013/11/27)

>  <Rbt.Parameter_File>
/export/apps/rDock/src/rDock_2013.1_src/data/scripts/dock_solv.prm

>  <Rbt.Receptor>
prm/pocket_docking_6.prm

>  <SCORE>
-8.97577

>  <SCORE.INTER>
-8.97577

>  <SCORE.INTER.CONST>
1

>  <SCORE.INTER.POLAR>
0

>  <SCORE.INTER.ROT>
0

>  <SCORE.INTER.SOLV>
12.1395

>  <SCORE.INTER.VDW>
-13.6304

>  <SCORE.INTER.norm>
-0.690444

>  <SCORE.INTRA>
0

>  <SCORE.INTRA.DIHEDRAL>
0

>  <SCORE.INTRA.DIHEDRAL.0>
0

>  <SCORE.INTRA.POLAR>
0

>  <SCORE.INTRA.POLAR.0>
0

>  <SCORE.INTRA.REPUL>
0

>  <SCORE.INTRA.REPUL.0>
0

>  <SCORE.INTRA.SOLV>
0

>  <SCORE.INTRA.SOLV.lig_0>
-48.6608

>  <SCORE.INTRA.VDW>
0

>  <SCORE.INTRA.VDW.0>
0

>  <SCORE.INTRA.norm>
0

>  <SCORE.RESTR>
0

>  <SCORE.RESTR.CAVITY>
0

>  <SCORE.RESTR.norm>
0

>  <SCORE.SYSTEM>
0

>  <SCORE.SYSTEM.CONST>
0

>  <SCORE.SYSTEM.DIHEDRAL>
0

>  <SCORE.SYSTEM.SOLV>
0

>  <SCORE.SYSTEM.norm>
0

>  <SCORE.heavy>
13

>  <SCORE.norm>
-0.690444

>  <RMSD>
6.375

$$$$
ligand
 OpenBabel11021811483D
libRbt.so/2013.1/901 2013/11/27
 13 14  0  0  0  0  0  0  0  0999 V2000
    5.8129   39.3009   73.6217 N   0  0  0  0  0  0  0  0  0  0  0  0
    6.9975   39.7907   71.6902 N   0  0  0  0  0  0  0  0  0  0  0  0
    6.1983   40.1796   72.7008 C   0  0  0  0  0  0  0  0  0  0  0  0
    5.7576   41.4997   72.7843 N   0  0  0  0  0  0  0  0  0  0  0  0
    6.1750   42.4037   71.8054 C   0  0  0  0  0  0  0  0  0  0  0  0
    7.0130   41.9795   70.7793 C   0  0  0  0  0  0  0  0  0  0  0  0
    5.7963   43.5737   71.8483 O   0  0  0  0  0  0  0  0  0  0  0  0
    7.3989   42.8812   69.7693 N   0  0  0  0  0  0  0  0  0  0  0  0
    8.3356   42.5001   68.6744 C   0  0  2  0  0  0  0  0  0  0  0  0
    8.2095   40.9913   68.4033 C   0  0  0  0  0  0  0  0  0  0  0  0
    7.3998   40.6476   70.7345 C   0  0  0  0  0  0  0  0  0  0  0  0
    8.2232   40.2123   69.6892 N   0  0  0  0  0  0  0  0  0  0  0  0
    9.7888   42.8366   69.1244 C   0  0  0  0  0  0  0  0  0  0  0  0
  1  3  1  0  0  0  0
  2  3  2  0  0  0  0
  2 11  1  0  0  0  0
  3  4  1  0  0  0  0
  4  5  1  0  0  0  0
  5  6  1  0  0  0  0
  5  7  2  0  0  0  0
  6  8  1  0  0  0  0
  6 11  2  0  0  0  0
  8  9  1  0  0  0  0
  9 10  1  0  0  0  0
  9 13  1  1  0  0  0
 10 12  1  0  0  0  0
 11 12  1  0  0  0  0
M  END
>  <CHROM.1>
7.17653503,41.47863888,70.87919097,-2.61006506,0.89416601,-0.26120673

>  <Name>
ligand

>  <RI>
0

>  <Rbt.Current_Directory>
/home/itssahil/PROJECTS/Mol_Feturizer/New_Systems/rnas/3SUX

>  <Rbt.Executable>
rbdock ($Id: //depot/dev/client3/rdock/2013.1/src/exe/rbdock.cxx#4 $)

>  <Rbt.Library>
libRbt.so (2013.1, Build901 2013/11/27)

>  <Rbt.Parameter_File>
/export/apps/rDock/src/rDock_2013.1_src/data/scripts/dock_solv.prm

>  <Rbt.Receptor>
prm/pocket_docking_6.prm

>  <SCORE>
-9.001

>  <SCORE.INTER>
-9.001

>  <SCORE.INTER.CONST>
1

>  <SCORE.INTER.POLAR>
0

>  <SCORE.INTER.ROT>
0

>  <SCORE.INTER.SOLV>
12.236

>  <SCORE.INTER.VDW>
-13.6793

>  <SCORE.INTER.norm>
-0.692385

>  <SCORE.INTRA>
0

>  <SCORE.INTRA.DIHEDRAL>
0

>  <SCORE.INTRA.DIHEDRAL.0>
0

>  <SCORE.INTRA.POLAR>
0

>  <SCORE.INTRA.POLAR.0>
0

>  <SCORE.INTRA.REPUL>
0

>  <SCORE.INTRA.REPUL.0>
0

>  <SCORE.INTRA.SOLV>
0

>  <SCORE.INTRA.SOLV.lig_0>
-48.6608

>  <SCORE.INTRA.VDW>
0

>  <SCORE.INTRA.VDW.0>
0

>  <SCORE.INTRA.norm>
0

>  <SCORE.RESTR>
0

>  <SCORE.RESTR.CAVITY>
0

>  <SCORE.RESTR.norm>
0

>  <SCORE.SYSTEM>
0

>  <SCORE.SYSTEM.CONST>
0

>  <SCORE.SYSTEM.DIHEDRAL>
0

>  <SCORE.SYSTEM.SOLV>
0

>  <SCORE.SYSTEM.norm>
0

>  <SCORE.heavy>
13

>  <SCORE.norm>
-0.692385

>  <RMSD>
6.376

$$$$
ligand
 OpenBabel11021811483D
libRbt.so/2013.1/901 2013/11/27
 13 14  0  0  0  0  0  0  0  0999 V2000
    5.8352   39.2407   73.6228 N   0  0  0  0  0  0  0  0  0  0  0  0
    7.0189   39.7598   71.6985 N   0  0  0  0  0  0  0  0  0  0  0  0
    6.2144   40.1317   72.7112 C   0  0  0  0  0  0  0  0  0  0  0  0
    5.7616   41.4469   72.8067 N   0  0  0  0  0  0  0  0  0  0  0  0
    6.1727   42.3641   71.8374 C   0  0  0  0  0  0  0  0  0  0  0  0
    7.0163   41.9575   70.8089 C   0  0  0  0  0  0  0  0  0  0  0  0
    5.7835   43.5302   71.8909 O   0  0  0  0  0  0  0  0  0  0  0  0
    7.3960   42.8724   69.8084 N   0  0  0  0  0  0  0  0  0  0  0  0
    8.3381   42.5104   68.7117 C   0  0  2  0  0  0  0  0  0  0  0  0
    8.2260   41.0033   68.4256 C   0  0  0  0  0  0  0  0  0  0  0  0
    7.4151   40.6296   70.7518 C   0  0  0  0  0  0  0  0  0  0  0  0
    8.2443   40.2119   69.7040 N   0  0  0  0  0  0  0  0  0  0  0  0
    9.7873   42.8556   69.1677 C   0  0  0  0  0  0  0  0  0  0  0  0
  1  3  1  0  0  0  0
  2  3  2  0  0  0  0
  2 11  1  0  0  0  0
  3  4  1  0  0  0  0
  4  5  1  0  0  0  0
  5  6  1  0  0  0  0
  5  7  2  0  0  0  0
  6  8  1  0  0  0  0
  6 11  2  0  0  0  0
  8  9  1  0  0  0  0
  9 10  1  0  0  0  0
  9 13  1  1  0  0  0
 10 12  1  0  0  0  0
 11 12  1  0  0  0  0
M  END
>  <CHROM.1>
7.18420178,41.45715292,70.90419796,-2.59701567,0.89004232,-0.26163588

>  <Name>
ligand

>  <RI>
0

>  <Rbt.Current_Directory>
/home/itssahil/PROJECTS/Mol_Feturizer/New_Systems/rnas/3SUX

>  <Rbt.Executable>
rbdock ($Id: //depot/dev/client3/rdock/2013.1/src/exe/rbdock.cxx#4 $)

>  <Rbt.Library>
libRbt.so (2013.1, Build901 2013/11/27)

>  <Rbt.Parameter_File>
/export/apps/rDock/src/rDock_2013.1_src/data/scripts/dock_solv.prm

>  <Rbt.Receptor>
prm/pocket_docking_6.prm

>  <SCORE>
-8.97182

>  <SCORE.INTER>
-8.97182

>  <SCORE.INTER.CONST>
1

>  <SCORE.INTER.POLAR>
0

>  <SCORE.INTER.ROT>
0

>  <SCORE.INTER.SOLV>
11.9766

>  <SCORE.INTER.VDW>
-13.5734

>  <SCORE.INTER.norm>
-0.69014

>  <SCORE.INTRA>
0

>  <SCORE.INTRA.DIHEDRAL>
0

>  <SCORE.INTRA.DIHEDRAL.0>
0

>  <SCORE.INTRA.POLAR>
0

>  <SCORE.INTRA.POLAR.0>
0

>  <SCORE.INTRA.REPUL>
0

>  <SCORE.INTRA.REPUL.0>
0

>  <SCORE.INTRA.SOLV>
0

>  <SCORE.INTRA.SOLV.lig_0>
-48.6608

>  <SCORE.INTRA.VDW>
0

>  <SCORE.INTRA.VDW.0>
0

>  <SCORE.INTRA.norm>
0

>  <SCORE.RESTR>
0

>  <SCORE.RESTR.CAVITY>
0

>  <SCORE.RESTR.norm>
0

>  <SCORE.SYSTEM>
0

>  <SCORE.SYSTEM.CONST>
0

>  <SCORE.SYSTEM.DIHEDRAL>
0

>  <SCORE.SYSTEM.SOLV>
0

>  <SCORE.SYSTEM.norm>
0

>  <SCORE.heavy>
13

>  <SCORE.norm>
-0.69014

>  <RMSD>
6.387

$$$$
ligand
 OpenBabel11021811483D
libRbt.so/2013.1/901 2013/11/27
 13 14  0  0  0  0  0  0  0  0999 V2000
    5.6207   39.5940   73.6889 N   0  0  0  0  0  0  0  0  0  0  0  0
    6.8664   39.9703   71.7705 N   0  0  0  0  0  0  0  0  0  0  0  0
    6.0556   40.4232   72.7445 C   0  0  0  0  0  0  0  0  0  0  0  0
    5.6547   41.7584   72.7653 N   0  0  0  0  0  0  0  0  0  0  0  0
    6.1237   42.6096   71.7627 C   0  0  0  0  0  0  0  0  0  0  0  0
    6.9726   42.1197   70.7755 C   0  0  0  0  0  0  0  0  0  0  0  0
    5.7811   43.7914   71.7503 O   0  0  0  0  0  0  0  0  0  0  0  0
    7.4109   42.9684   69.7413 N   0  0  0  0  0  0  0  0  0  0  0  0
    8.3614   42.5157   68.6862 C   0  0  2  0  0  0  0  0  0  0  0  0
    8.1945   41.0019   68.4710 C   0  0  0  0  0  0  0  0  0  0  0  0
    7.3183   40.7759   70.7925 C   0  0  0  0  0  0  0  0  0  0  0  0
    8.1527   40.2745   69.7863 N   0  0  0  0  0  0  0  0  0  0  0  0
    9.8131   42.8255   69.1595 C   0  0  0  0  0  0  0  0  0  0  0  0
  1  3  1  0  0  0  0
  2  3  2  0  0  0  0
  2 11  1  0  0  0  0
  3  4  1  0  0  0  0
  4  5  1  0  0  0  0
  5  6  1  0  0  0  0
  5  7  2  0  0  0  0
  6  8  1  0  0  0  0
  6 11  2  0  0  0  0
  8  9  1  0  0  0  0
  9 10  1  0  0  0  0
  9 13  1  1  0  0  0
 10 12  1  0  0  0  0
 11 12  1  0  0  0  0
M  END
>  <CHROM.1>
7.11785272,41.61844990,70.89901366,-2.66737188,0.87811992,-0.25621438

>  <Name>
ligand

>  <RI>
0

>  <Rbt.Current_Directory>
/home/itssahil/PROJECTS/Mol_Feturizer/New_Systems/rnas/3SUX

>  <Rbt.Executable>
rbdock ($Id: //depot/dev/client3/rdock/2013.1/src/exe/rbdock.cxx#4 $)

>  <Rbt.Library>
libRbt.so (2013.1, Build901 2013/11/27)

>  <Rbt.Parameter_File>
/export/apps/rDock/src/rDock_2013.1_src/data/scripts/dock_solv.prm

>  <Rbt.Receptor>
prm/pocket_docking_8.prm

>  <SCORE>
-8.95041

>  <SCORE.INTER>
-8.95041

>  <SCORE.INTER.CONST>
1

>  <SCORE.INTER.POLAR>
0

>  <SCORE.INTER.ROT>
0

>  <SCORE.INTER.SOLV>
12.8532

>  <SCORE.INTER.VDW>
-13.8513

>  <SCORE.INTER.norm>
-0.688493

>  <SCORE.INTRA>
0

>  <SCORE.INTRA.DIHEDRAL>
0

>  <SCORE.INTRA.DIHEDRAL.0>
0

>  <SCORE.INTRA.POLAR>
0

>  <SCORE.INTRA.POLAR.0>
0

>  <SCORE.INTRA.REPUL>
0

>  <SCORE.INTRA.REPUL.0>
0

>  <SCORE.INTRA.SOLV>
0

>  <SCORE.INTRA.SOLV.lig_0>
-48.6608

>  <SCORE.INTRA.VDW>
0

>  <SCORE.INTRA.VDW.0>
0

>  <SCORE.INTRA.norm>
0

>  <SCORE.RESTR>
0

>  <SCORE.RESTR.CAVITY>
0

>  <SCORE.RESTR.norm>
0

>  <SCORE.SYSTEM>
0

>  <SCORE.SYSTEM.CONST>
0

>  <SCORE.SYSTEM.DIHEDRAL>
0

>  <SCORE.SYSTEM.SOLV>
0

>  <SCORE.SYSTEM.norm>
0

>  <SCORE.heavy>
13

>  <SCORE.norm>
-0.688493

>  <RMSD>
6.391

$$$$
ligand
 OpenBabel11021811483D
libRbt.so/2013.1/901 2013/11/27
 13 14  0  0  0  0  0  0  0  0999 V2000
    5.7596   39.2666   73.5954 N   0  0  0  0  0  0  0  0  0  0  0  0
    6.9707   39.7674   71.6834 N   0  0  0  0  0  0  0  0  0  0  0  0
    6.1603   40.1513   72.6869 C   0  0  0  0  0  0  0  0  0  0  0  0
    5.7238   41.4725   72.7758 N   0  0  0  0  0  0  0  0  0  0  0  0
    6.1573   42.3828   71.8098 C   0  0  0  0  0  0  0  0  0  0  0  0
    7.0067   41.9637   70.7910 C   0  0  0  0  0  0  0  0  0  0  0  0
    5.7829   43.5540   71.8577 O   0  0  0  0  0  0  0  0  0  0  0  0
    7.4091   42.8722   69.7936 N   0  0  0  0  0  0  0  0  0  0  0  0
    8.3582   42.4963   68.7076 C   0  0  2  0  0  0  0  0  0  0  0  0
    8.2295   40.9904   68.4223 C   0  0  0  0  0  0  0  0  0  0  0  0
    7.3886   40.6306   70.7400 C   0  0  0  0  0  0  0  0  0  0  0  0
    8.2236   40.2006   69.7017 N   0  0  0  0  0  0  0  0  0  0  0  0
    9.8069   42.8231   69.1789 C   0  0  0  0  0  0  0  0  0  0  0  0
  1  3  1  0  0  0  0
  2  3  2  0  0  0  0
  2 11  1  0  0  0  0
  3  4  1  0  0  0  0
  4  5  1  0  0  0  0
  5  6  1  0  0  0  0
  5  7  2  0  0  0  0
  6  8  1  0  0  0  0
  6 11  2  0  0  0  0
  8  9  1  0  0  0  0
  9 10  1  0  0  0  0
  9 13  1  1  0  0  0
 10 12  1  0  0  0  0
 11 12  1  0  0  0  0
M  END
>  <CHROM.1>
7.16693464,41.46134735,70.88880321,-2.62140297,0.88282698,-0.24407057

>  <Name>
ligand

>  <RI>
0

>  <Rbt.Current_Directory>
/home/itssahil/PROJECTS/Mol_Feturizer/New_Systems/rnas/3SUX

>  <Rbt.Executable>
rbdock ($Id: //depot/dev/client3/rdock/2013.1/src/exe/rbdock.cxx#4 $)

>  <Rbt.Library>
libRbt.so (2013.1, Build901 2013/11/27)

>  <Rbt.Parameter_File>
/export/apps/rDock/src/rDock_2013.1_src/data/scripts/dock_solv.prm

>  <Rbt.Receptor>
prm/pocket_docking_8.prm

>  <SCORE>
-8.96054

>  <SCORE.INTER>
-8.96054

>  <SCORE.INTER.CONST>
1

>  <SCORE.INTER.POLAR>
0

>  <SCORE.INTER.ROT>
0

>  <SCORE.INTER.SOLV>
12.432

>  <SCORE.INTER.VDW>
-13.7177

>  <SCORE.INTER.norm>
-0.689272

>  <SCORE.INTRA>
0

>  <SCORE.INTRA.DIHEDRAL>
0

>  <SCORE.INTRA.DIHEDRAL.0>
0

>  <SCORE.INTRA.POLAR>
0

>  <SCORE.INTRA.POLAR.0>
0

>  <SCORE.INTRA.REPUL>
0

>  <SCORE.INTRA.REPUL.0>
0

>  <SCORE.INTRA.SOLV>
0

>  <SCORE.INTRA.SOLV.lig_0>
-48.6608

>  <SCORE.INTRA.VDW>
0

>  <SCORE.INTRA.VDW.0>
0

>  <SCORE.INTRA.norm>
0

>  <SCORE.RESTR>
0

>  <SCORE.RESTR.CAVITY>
0

>  <SCORE.RESTR.norm>
0

>  <SCORE.SYSTEM>
0

>  <SCORE.SYSTEM.CONST>
0

>  <SCORE.SYSTEM.DIHEDRAL>
0

>  <SCORE.SYSTEM.SOLV>
0

>  <SCORE.SYSTEM.norm>
0

>  <SCORE.heavy>
13

>  <SCORE.norm>
-0.689272

>  <RMSD>
6.391

$$$$
ligand
 OpenBabel11021811483D
libRbt.so/2013.1/901 2013/11/27
 13 14  0  0  0  0  0  0  0  0999 V2000
    7.4779   37.2208   72.5374 N   0  0  0  0  0  0  0  0  0  0  0  0
    8.0273   38.8830   71.0178 N   0  0  0  0  0  0  0  0  0  0  0  0
    7.3317   38.4652   72.0915 C   0  0  0  0  0  0  0  0  0  0  0  0
    6.4443   39.3259   72.7363 N   0  0  0  0  0  0  0  0  0  0  0  0
    6.3073   40.6274   72.2493 C   0  0  0  0  0  0  0  0  0  0  0  0
    7.0489   41.0387   71.1466 C   0  0  0  0  0  0  0  0  0  0  0  0
    5.5263   41.4075   72.7928 O   0  0  0  0  0  0  0  0  0  0  0  0
    6.8787   42.3374   70.6304 N   0  0  0  0  0  0  0  0  0  0  0  0
    7.6814   42.8526   69.4850 C   0  0  2  0  0  0  0  0  0  0  0  0
    8.0927   41.6747   68.5854 C   0  0  0  0  0  0  0  0  0  0  0  0
    7.8985   40.1304   70.5311 C   0  0  0  0  0  0  0  0  0  0  0  0
    8.6277   40.5342   69.4062 N   0  0  0  0  0  0  0  0  0  0  0  0
    8.9522   43.5578   70.0465 C   0  0  0  0  0  0  0  0  0  0  0  0
  1  3  1  0  0  0  0
  2  3  2  0  0  0  0
  2 11  1  0  0  0  0
  3  4  1  0  0  0  0
  4  5  1  0  0  0  0
  5  6  1  0  0  0  0
  5  7  2  0  0  0  0
  6  8  1  0  0  0  0
  6 11  2  0  0  0  0
  8  9  1  0  0  0  0
  9 10  1  0  0  0  0
  9 13  1  1  0  0  0
 10 12  1  0  0  0  0
 11 12  1  0  0  0  0
M  END
>  <CHROM.1>
7.40539504,40.65844268,71.02043528,-1.93211789,0.85260173,-0.33901745

>  <Name>
ligand

>  <RI>
0

>  <Rbt.Current_Directory>
/home/itssahil/PROJECTS/Mol_Feturizer/New_Systems/rnas/3SUX

>  <Rbt.Executable>
rbdock ($Id: //depot/dev/client3/rdock/2013.1/src/exe/rbdock.cxx#4 $)

>  <Rbt.Library>
libRbt.so (2013.1, Build901 2013/11/27)

>  <Rbt.Parameter_File>
/export/apps/rDock/src/rDock_2013.1_src/data/scripts/dock_solv.prm

>  <Rbt.Receptor>
prm/pocket_docking_6.prm

>  <SCORE>
-8.51371

>  <SCORE.INTER>
-8.51371

>  <SCORE.INTER.CONST>
1

>  <SCORE.INTER.POLAR>
0

>  <SCORE.INTER.ROT>
0

>  <SCORE.INTER.SOLV>
9.40302

>  <SCORE.INTER.VDW>
-12.4101

>  <SCORE.INTER.norm>
-0.654901

>  <SCORE.INTRA>
0

>  <SCORE.INTRA.DIHEDRAL>
0

>  <SCORE.INTRA.DIHEDRAL.0>
0

>  <SCORE.INTRA.POLAR>
0

>  <SCORE.INTRA.POLAR.0>
0

>  <SCORE.INTRA.REPUL>
0

>  <SCORE.INTRA.REPUL.0>
0

>  <SCORE.INTRA.SOLV>
0

>  <SCORE.INTRA.SOLV.lig_0>
-48.6608

>  <SCORE.INTRA.VDW>
0

>  <SCORE.INTRA.VDW.0>
0

>  <SCORE.INTRA.norm>
0

>  <SCORE.RESTR>
0

>  <SCORE.RESTR.CAVITY>
0

>  <SCORE.RESTR.norm>
0

>  <SCORE.SYSTEM>
0

>  <SCORE.SYSTEM.CONST>
0

>  <SCORE.SYSTEM.DIHEDRAL>
0

>  <SCORE.SYSTEM.SOLV>
0

>  <SCORE.SYSTEM.norm>
0

>  <SCORE.heavy>
13

>  <SCORE.norm>
-0.654901

>  <RMSD>
6.436

$$$$
ligand
 OpenBabel11021811483D
libRbt.so/2013.1/901 2013/11/27
 13 14  0  0  0  0  0  0  0  0999 V2000
    7.5916   37.2463   72.5472 N   0  0  0  0  0  0  0  0  0  0  0  0
    8.0769   38.9274   71.0266 N   0  0  0  0  0  0  0  0  0  0  0  0
    7.3950   38.4826   72.0983 C   0  0  0  0  0  0  0  0  0  0  0  0
    6.4695   39.3063   72.7378 N   0  0  0  0  0  0  0  0  0  0  0  0
    6.2798   40.6000   72.2476 C   0  0  0  0  0  0  0  0  0  0  0  0
    7.0080   41.0402   71.1471 C   0  0  0  0  0  0  0  0  0  0  0  0
    5.4644   41.3475   72.7864 O   0  0  0  0  0  0  0  0  0  0  0  0
    6.7854   42.3297   70.6277 N   0  0  0  0  0  0  0  0  0  0  0  0
    7.5705   42.8761   69.4846 C   0  0  2  0  0  0  0  0  0  0  0  0
    8.0348   41.7150   68.5890 C   0  0  0  0  0  0  0  0  0  0  0  0
    7.8977   40.1674   70.5370 C   0  0  0  0  0  0  0  0  0  0  0  0
    8.6139   40.5995   69.4142 N   0  0  0  0  0  0  0  0  0  0  0  0
    8.8081   43.6353   70.0499 C   0  0  0  0  0  0  0  0  0  0  0  0
  1  3  1  0  0  0  0
  2  3  2  0  0  0  0
  2 11  1  0  0  0  0
  3  4  1  0  0  0  0
  4  5  1  0  0  0  0
  5  6  1  0  0  0  0
  5  7  2  0  0  0  0
  6  8  1  0  0  0  0
  6 11  2  0  0  0  0
  8  9  1  0  0  0  0
  9 10  1  0  0  0  0
  9 13  1  1  0  0  0
 10 12  1  0  0  0  0
 11 12  1  0  0  0  0
M  END
>  <CHROM.1>
7.38073835,40.67508402,71.02322901,-1.87503167,0.83383438,-0.38353991

>  <Name>
ligand

>  <RI>
0

>  <Rbt.Current_Directory>
/home/itssahil/PROJECTS/Mol_Feturizer/New_Systems/rnas/3SUX

>  <Rbt.Executable>
rbdock ($Id: //depot/dev/client3/rdock/2013.1/src/exe/rbdock.cxx#4 $)

>  <Rbt.Library>
libRbt.so (2013.1, Build901 2013/11/27)

>  <Rbt.Parameter_File>
/export/apps/rDock/src/rDock_2013.1_src/data/scripts/dock_solv.prm

>  <Rbt.Receptor>
prm/pocket_docking_6.prm

>  <SCORE>
-8.54768

>  <SCORE.INTER>
-8.54768

>  <SCORE.INTER.CONST>
1

>  <SCORE.INTER.POLAR>
0

>  <SCORE.INTER.ROT>
0

>  <SCORE.INTER.SOLV>
9.46095

>  <SCORE.INTER.VDW>
-12.4521

>  <SCORE.INTER.norm>
-0.657514

>  <SCORE.INTRA>
0

>  <SCORE.INTRA.DIHEDRAL>
0

>  <SCORE.INTRA.DIHEDRAL.0>
0

>  <SCORE.INTRA.POLAR>
0

>  <SCORE.INTRA.POLAR.0>
0

>  <SCORE.INTRA.REPUL>
0

>  <SCORE.INTRA.REPUL.0>
0

>  <SCORE.INTRA.SOLV>
0

>  <SCORE.INTRA.SOLV.lig_0>
-48.6608

>  <SCORE.INTRA.VDW>
0

>  <SCORE.INTRA.VDW.0>
0

>  <SCORE.INTRA.norm>
0

>  <SCORE.RESTR>
0

>  <SCORE.RESTR.CAVITY>
0

>  <SCORE.RESTR.norm>
0

>  <SCORE.SYSTEM>
0

>  <SCORE.SYSTEM.CONST>
0

>  <SCORE.SYSTEM.DIHEDRAL>
0

>  <SCORE.SYSTEM.SOLV>
0

>  <SCORE.SYSTEM.norm>
0

>  <SCORE.heavy>
13

>  <SCORE.norm>
-0.657514

>  <RMSD>
6.438

$$$$
ligand
 OpenBabel11021811483D
libRbt.so/2013.1/901 2013/11/27
 13 14  0  0  0  0  0  0  0  0999 V2000
    6.4001   38.0613   73.1003 N   0  0  0  0  0  0  0  0  0  0  0  0
    7.3242   39.2997   71.3722 N   0  0  0  0  0  0  0  0  0  0  0  0
    6.5481   39.2225   72.4690 C   0  0  0  0  0  0  0  0  0  0  0  0
    5.8835   40.3522   72.9445 N   0  0  0  0  0  0  0  0  0  0  0  0
    6.0537   41.5598   72.2644 C   0  0  0  0  0  0  0  0  0  0  0  0
    6.8731   41.6159   71.1417 C   0  0  0  0  0  0  0  0  0  0  0  0
    5.4741   42.5721   72.6559 O   0  0  0  0  0  0  0  0  0  0  0  0
    7.0105   42.8240   70.4320 N   0  0  0  0  0  0  0  0  0  0  0  0
    7.9136   42.9593   69.2540 C   0  0  2  0  0  0  0  0  0  0  0  0
    8.0420   41.5948   68.5558 C   0  0  0  0  0  0  0  0  0  0  0  0
    7.4899   40.4536   70.7009 C   0  0  0  0  0  0  0  0  0  0  0  0
    8.2955   40.5019   69.5568 N   0  0  0  0  0  0  0  0  0  0  0  0
    9.3121   43.4320   69.7520 C   0  0  0  0  0  0  0  0  0  0  0  0
  1  3  1  0  0  0  0
  2  3  2  0  0  0  0
  2 11  1  0  0  0  0
  3  4  1  0  0  0  0
  4  5  1  0  0  0  0
  5  6  1  0  0  0  0
  5  7  2  0  0  0  0
  6  8  1  0  0  0  0
  6 11  2  0  0  0  0
  8  9  1  0  0  0  0
  9 10  1  0  0  0  0
  9 13  1  1  0  0  0
 10 12  1  0  0  0  0
 11 12  1  0  0  0  0
M  END
>  <CHROM.1>
7.13179584,41.14929321,71.08716165,-2.29249003,0.89754450,-0.21494046

>  <Name>
ligand

>  <RI>
0

>  <Rbt.Current_Directory>
/home/itssahil/PROJECTS/Mol_Feturizer/New_Systems/rnas/3SUX

>  <Rbt.Executable>
rbdock ($Id: //depot/dev/client3/rdock/2013.1/src/exe/rbdock.cxx#4 $)

>  <Rbt.Library>
libRbt.so (2013.1, Build901 2013/11/27)

>  <Rbt.Parameter_File>
/export/apps/rDock/src/rDock_2013.1_src/data/scripts/dock_solv.prm

>  <Rbt.Receptor>
prm/pocket_docking_6.prm

>  <SCORE>
-9.03767

>  <SCORE.INTER>
-9.03795

>  <SCORE.INTER.CONST>
1

>  <SCORE.INTER.POLAR>
0

>  <SCORE.INTER.ROT>
0

>  <SCORE.INTER.SOLV>
9.73614

>  <SCORE.INTER.VDW>
-12.8707

>  <SCORE.INTER.norm>
-0.695227

>  <SCORE.INTRA>
0

>  <SCORE.INTRA.DIHEDRAL>
0

>  <SCORE.INTRA.DIHEDRAL.0>
0

>  <SCORE.INTRA.POLAR>
0

>  <SCORE.INTRA.POLAR.0>
0

>  <SCORE.INTRA.REPUL>
0

>  <SCORE.INTRA.REPUL.0>
0

>  <SCORE.INTRA.SOLV>
0

>  <SCORE.INTRA.SOLV.lig_0>
-48.6608

>  <SCORE.INTRA.VDW>
0

>  <SCORE.INTRA.VDW.0>
0

>  <SCORE.INTRA.norm>
0

>  <SCORE.RESTR>
0.000280596

>  <SCORE.RESTR.CAVITY>
0.000280596

>  <SCORE.RESTR.norm>
2.15843e-05

>  <SCORE.SYSTEM>
0

>  <SCORE.SYSTEM.CONST>
0

>  <SCORE.SYSTEM.DIHEDRAL>
0

>  <SCORE.SYSTEM.SOLV>
0

>  <SCORE.SYSTEM.norm>
0

>  <SCORE.heavy>
13

>  <SCORE.norm>
-0.695206

>  <RMSD>
6.524

$$$$
ligand
 OpenBabel11021811483D
libRbt.so/2013.1/901 2013/11/27
 13 14  0  0  0  0  0  0  0  0999 V2000
    6.3823   38.0621   73.0999 N   0  0  0  0  0  0  0  0  0  0  0  0
    7.3190   39.2985   71.3772 N   0  0  0  0  0  0  0  0  0  0  0  0
    6.5357   39.2228   72.4689 C   0  0  0  0  0  0  0  0  0  0  0  0
    5.8692   40.3534   72.9395 N   0  0  0  0  0  0  0  0  0  0  0  0
    6.0452   41.5604   72.2598 C   0  0  0  0  0  0  0  0  0  0  0  0
    6.8720   41.6150   71.1424 C   0  0  0  0  0  0  0  0  0  0  0  0
    5.4641   42.5737   72.6469 O   0  0  0  0  0  0  0  0  0  0  0  0
    7.0153   42.8226   70.4329 N   0  0  0  0  0  0  0  0  0  0  0  0
    7.9261   42.9562   69.2607 C   0  0  2  0  0  0  0  0  0  0  0  0
    8.0577   41.5912   68.5642 C   0  0  0  0  0  0  0  0  0  0  0  0
    7.4903   40.4519   70.7063 C   0  0  0  0  0  0  0  0  0  0  0  0
    8.3034   40.4986   69.5675 N   0  0  0  0  0  0  0  0  0  0  0  0
    9.3219   43.4277   69.7677 C   0  0  0  0  0  0  0  0  0  0  0  0
  1  3  1  0  0  0  0
  2  3  2  0  0  0  0
  2 11  1  0  0  0  0
  3  4  1  0  0  0  0
  4  5  1  0  0  0  0
  5  6  1  0  0  0  0
  5  7  2  0  0  0  0
  6  8  1  0  0  0  0
  6 11  2  0  0  0  0
  8  9  1  0  0  0  0
  9 10  1  0  0  0  0
  9 13  1  1  0  0  0
 10 12  1  0  0  0  0
 11 12  1  0  0  0  0
M  END
>  <CHROM.1>
7.13047288,41.14813556,71.08983780,-2.29639289,0.89140789,-0.21246873

>  <Name>
ligand

>  <RI>
0

>  <Rbt.Current_Directory>
/home/itssahil/PROJECTS/Mol_Feturizer/New_Systems/rnas/3SUX

>  <Rbt.Executable>
rbdock ($Id: //depot/dev/client3/rdock/2013.1/src/exe/rbdock.cxx#4 $)

>  <Rbt.Library>
libRbt.so (2013.1, Build901 2013/11/27)

>  <Rbt.Parameter_File>
/export/apps/rDock/src/rDock_2013.1_src/data/scripts/dock_solv.prm

>  <Rbt.Receptor>
prm/pocket_docking_6.prm

>  <SCORE>
-9.04586

>  <SCORE.INTER>
-9.04586

>  <SCORE.INTER.CONST>
1

>  <SCORE.INTER.POLAR>
0

>  <SCORE.INTER.ROT>
0

>  <SCORE.INTER.SOLV>
9.74963

>  <SCORE.INTER.VDW>
-12.8804

>  <SCORE.INTER.norm>
-0.695835

>  <SCORE.INTRA>
0

>  <SCORE.INTRA.DIHEDRAL>
0

>  <SCORE.INTRA.DIHEDRAL.0>
0

>  <SCORE.INTRA.POLAR>
0

>  <SCORE.INTRA.POLAR.0>
0

>  <SCORE.INTRA.REPUL>
0

>  <SCORE.INTRA.REPUL.0>
0

>  <SCORE.INTRA.SOLV>
0

>  <SCORE.INTRA.SOLV.lig_0>
-48.6608

>  <SCORE.INTRA.VDW>
0

>  <SCORE.INTRA.VDW.0>
0

>  <SCORE.INTRA.norm>
0

>  <SCORE.RESTR>
0

>  <SCORE.RESTR.CAVITY>
0

>  <SCORE.RESTR.norm>
0

>  <SCORE.SYSTEM>
0

>  <SCORE.SYSTEM.CONST>
0

>  <SCORE.SYSTEM.DIHEDRAL>
0

>  <SCORE.SYSTEM.SOLV>
0

>  <SCORE.SYSTEM.norm>
0

>  <SCORE.heavy>
13

>  <SCORE.norm>
-0.695835

>  <RMSD>
6.528

$$$$
ligand
 OpenBabel11021811483D
libRbt.so/2013.1/901 2013/11/27
 13 14  0  0  0  0  0  0  0  0999 V2000
    6.3939   38.0282   73.0999 N   0  0  0  0  0  0  0  0  0  0  0  0
    7.3144   39.2783   71.3783 N   0  0  0  0  0  0  0  0  0  0  0  0
    6.5387   39.1931   72.4748 C   0  0  0  0  0  0  0  0  0  0  0  0
    5.8713   40.3185   72.9565 N   0  0  0  0  0  0  0  0  0  0  0  0
    6.0383   41.5301   72.2828 C   0  0  0  0  0  0  0  0  0  0  0  0
    6.8573   41.5944   71.1603 C   0  0  0  0  0  0  0  0  0  0  0  0
    5.4561   42.5389   72.6798 O   0  0  0  0  0  0  0  0  0  0  0  0
    6.9915   42.8067   70.4570 N   0  0  0  0  0  0  0  0  0  0  0  0
    7.8939   42.9506   69.2796 C   0  0  2  0  0  0  0  0  0  0  0  0
    8.0258   41.5902   68.5741 C   0  0  0  0  0  0  0  0  0  0  0  0
    7.4770   40.4361   70.7131 C   0  0  0  0  0  0  0  0  0  0  0  0
    8.2823   40.4926   69.5692 N   0  0  0  0  0  0  0  0  0  0  0  0
    9.2914   43.4243   69.7800 C   0  0  0  0  0  0  0  0  0  0  0  0
  1  3  1  0  0  0  0
  2  3  2  0  0  0  0
  2 11  1  0  0  0  0
  3  4  1  0  0  0  0
  4  5  1  0  0  0  0
  5  6  1  0  0  0  0
  5  7  2  0  0  0  0
  6  8  1  0  0  0  0
  6 11  2  0  0  0  0
  8  9  1  0  0  0  0
  9 10  1  0  0  0  0
  9 13  1  1  0  0  0
 10 12  1  0  0  0  0
 11 12  1  0  0  0  0
M  END
>  <CHROM.1>
7.11720906,41.12879857,71.10319706,-2.28835780,0.89716213,-0.21281067

>  <Name>
ligand

>  <RI>
0

>  <Rbt.Current_Directory>
/home/itssahil/PROJECTS/Mol_Feturizer/New_Systems/rnas/3SUX

>  <Rbt.Executable>
rbdock ($Id: //depot/dev/client3/rdock/2013.1/src/exe/rbdock.cxx#4 $)

>  <Rbt.Library>
libRbt.so (2013.1, Build901 2013/11/27)

>  <Rbt.Parameter_File>
/export/apps/rDock/src/rDock_2013.1_src/data/scripts/dock_solv.prm

>  <Rbt.Receptor>
prm/pocket_docking_6.prm

>  <SCORE>
-9.04085

>  <SCORE.INTER>
-9.04085

>  <SCORE.INTER.CONST>
1

>  <SCORE.INTER.POLAR>
0

>  <SCORE.INTER.ROT>
0

>  <SCORE.INTER.SOLV>
9.75931

>  <SCORE.INTER.VDW>
-12.8803

>  <SCORE.INTER.norm>
-0.69545

>  <SCORE.INTRA>
0

>  <SCORE.INTRA.DIHEDRAL>
0

>  <SCORE.INTRA.DIHEDRAL.0>
0

>  <SCORE.INTRA.POLAR>
0

>  <SCORE.INTRA.POLAR.0>
0

>  <SCORE.INTRA.REPUL>
0

>  <SCORE.INTRA.REPUL.0>
0

>  <SCORE.INTRA.SOLV>
0

>  <SCORE.INTRA.SOLV.lig_0>
-48.6608

>  <SCORE.INTRA.VDW>
0

>  <SCORE.INTRA.VDW.0>
0

>  <SCORE.INTRA.norm>
0

>  <SCORE.RESTR>
0

>  <SCORE.RESTR.CAVITY>
0

>  <SCORE.RESTR.norm>
0

>  <SCORE.SYSTEM>
0

>  <SCORE.SYSTEM.CONST>
0

>  <SCORE.SYSTEM.DIHEDRAL>
0

>  <SCORE.SYSTEM.SOLV>
0

>  <SCORE.SYSTEM.norm>
0

>  <SCORE.heavy>
13

>  <SCORE.norm>
-0.69545

>  <RMSD>
6.544

$$$$
ligand
 OpenBabel11021811483D
libRbt.so/2013.1/901 2013/11/27
 13 14  0  0  0  0  0  0  0  0999 V2000
    6.4144   38.0356   73.0925 N   0  0  0  0  0  0  0  0  0  0  0  0
    7.3241   39.3152   71.3870 N   0  0  0  0  0  0  0  0  0  0  0  0
    6.5436   39.2080   72.4781 C   0  0  0  0  0  0  0  0  0  0  0  0
    5.8549   40.3181   72.9652 N   0  0  0  0  0  0  0  0  0  0  0  0
    6.0057   41.5380   72.3027 C   0  0  0  0  0  0  0  0  0  0  0  0
    6.8301   41.6253   71.1857 C   0  0  0  0  0  0  0  0  0  0  0  0
    5.4047   42.5336   72.7047 O   0  0  0  0  0  0  0  0  0  0  0  0
    6.9483   42.8455   70.4934 N   0  0  0  0  0  0  0  0  0  0  0  0
    7.8551   43.0143   69.3226 C   0  0  2  0  0  0  0  0  0  0  0  0
    8.0135   41.6622   68.6066 C   0  0  0  0  0  0  0  0  0  0  0  0
    7.4715   40.4812   70.7325 C   0  0  0  0  0  0  0  0  0  0  0  0
    8.2823   40.5606   69.5939 N   0  0  0  0  0  0  0  0  0  0  0  0
    9.2416   43.5066   69.8352 C   0  0  0  0  0  0  0  0  0  0  0  0
  1  3  1  0  0  0  0
  2  3  2  0  0  0  0
  2 11  1  0  0  0  0
  3  4  1  0  0  0  0
  4  5  1  0  0  0  0
  5  6  1  0  0  0  0
  5  7  2  0  0  0  0
  6  8  1  0  0  0  0
  6 11  2  0  0  0  0
  8  9  1  0  0  0  0
  9 10  1  0  0  0  0
  9 13  1  1  0  0  0
 10 12  1  0  0  0  0
 11 12  1  0  0  0  0
M  END
>  <CHROM.1>
7.09798111,41.16449844,71.12622729,-2.26472745,0.88785025,-0.22278481

>  <Name>
ligand

>  <RI>
0

>  <Rbt.Current_Directory>
/home/itssahil/PROJECTS/Mol_Feturizer/New_Systems/rnas/3SUX

>  <Rbt.Executable>
rbdock ($Id: //depot/dev/client3/rdock/2013.1/src/exe/rbdock.cxx#4 $)

>  <Rbt.Library>
libRbt.so (2013.1, Build901 2013/11/27)

>  <Rbt.Parameter_File>
/export/apps/rDock/src/rDock_2013.1_src/data/scripts/dock_solv.prm

>  <Rbt.Receptor>
prm/pocket_docking_6.prm

>  <SCORE>
-9.01356

>  <SCORE.INTER>
-9.01356

>  <SCORE.INTER.CONST>
1

>  <SCORE.INTER.POLAR>
0

>  <SCORE.INTER.ROT>
0

>  <SCORE.INTER.SOLV>
9.63447

>  <SCORE.INTER.VDW>
-12.8205

>  <SCORE.INTER.norm>
-0.693351

>  <SCORE.INTRA>
0

>  <SCORE.INTRA.DIHEDRAL>
0

>  <SCORE.INTRA.DIHEDRAL.0>
0

>  <SCORE.INTRA.POLAR>
0

>  <SCORE.INTRA.POLAR.0>
0

>  <SCORE.INTRA.REPUL>
0

>  <SCORE.INTRA.REPUL.0>
0

>  <SCORE.INTRA.SOLV>
0

>  <SCORE.INTRA.SOLV.lig_0>
-48.6608

>  <SCORE.INTRA.VDW>
0

>  <SCORE.INTRA.VDW.0>
0

>  <SCORE.INTRA.norm>
0

>  <SCORE.RESTR>
0

>  <SCORE.RESTR.CAVITY>
0

>  <SCORE.RESTR.norm>
0

>  <SCORE.SYSTEM>
0

>  <SCORE.SYSTEM.CONST>
0

>  <SCORE.SYSTEM.DIHEDRAL>
0

>  <SCORE.SYSTEM.SOLV>
0

>  <SCORE.SYSTEM.norm>
0

>  <SCORE.heavy>
13

>  <SCORE.norm>
-0.693351

>  <RMSD>
6.553

$$$$
ligand
 OpenBabel11021811483D
libRbt.so/2013.1/901 2013/11/27
 13 14  0  0  0  0  0  0  0  0999 V2000
    6.3625   38.0011   73.0767 N   0  0  0  0  0  0  0  0  0  0  0  0
    7.2940   39.2926   71.3920 N   0  0  0  0  0  0  0  0  0  0  0  0
    6.5082   39.1801   72.4788 C   0  0  0  0  0  0  0  0  0  0  0  0
    5.8314   40.2919   72.9788 N   0  0  0  0  0  0  0  0  0  0  0  0
    5.9996   41.5188   72.3336 C   0  0  0  0  0  0  0  0  0  0  0  0
    6.8290   41.6111   71.2207 C   0  0  0  0  0  0  0  0  0  0  0  0
    5.4093   42.5161   72.7471 O   0  0  0  0  0  0  0  0  0  0  0  0
    6.9646   42.8392   70.5456 N   0  0  0  0  0  0  0  0  0  0  0  0
    7.8776   43.0128   69.3804 C   0  0  2  0  0  0  0  0  0  0  0  0
    8.0220   41.6688   68.6464 C   0  0  0  0  0  0  0  0  0  0  0  0
    7.4579   40.4656   70.7541 C   0  0  0  0  0  0  0  0  0  0  0  0
    8.2737   40.5506   69.6195 N   0  0  0  0  0  0  0  0  0  0  0  0
    9.2681   43.4810   69.9044 C   0  0  0  0  0  0  0  0  0  0  0  0
  1  3  1  0  0  0  0
  2  3  2  0  0  0  0
  2 11  1  0  0  0  0
  3  4  1  0  0  0  0
  4  5  1  0  0  0  0
  5  6  1  0  0  0  0
  5  7  2  0  0  0  0
  6  8  1  0  0  0  0
  6 11  2  0  0  0  0
  8  9  1  0  0  0  0
  9 10  1  0  0  0  0
  9 13  1  1  0  0  0
 10 12  1  0  0  0  0
 11 12  1  0  0  0  0
M  END
>  <CHROM.1>
7.09139097,41.14796556,71.15585655,-2.28488651,0.88696066,-0.19346034

>  <Name>
ligand

>  <RI>
0

>  <Rbt.Current_Directory>
/home/itssahil/PROJECTS/Mol_Feturizer/New_Systems/rnas/3SUX

>  <Rbt.Executable>
rbdock ($Id: //depot/dev/client3/rdock/2013.1/src/exe/rbdock.cxx#4 $)

>  <Rbt.Library>
libRbt.so (2013.1, Build901 2013/11/27)

>  <Rbt.Parameter_File>
/export/apps/rDock/src/rDock_2013.1_src/data/scripts/dock_solv.prm

>  <Rbt.Receptor>
prm/pocket_docking_6.prm

>  <SCORE>
-8.9901

>  <SCORE.INTER>
-8.9901

>  <SCORE.INTER.CONST>
1

>  <SCORE.INTER.POLAR>
0

>  <SCORE.INTER.ROT>
0

>  <SCORE.INTER.SOLV>
9.53788

>  <SCORE.INTER.VDW>
-12.7727

>  <SCORE.INTER.norm>
-0.691546

>  <SCORE.INTRA>
0

>  <SCORE.INTRA.DIHEDRAL>
0

>  <SCORE.INTRA.DIHEDRAL.0>
0

>  <SCORE.INTRA.POLAR>
0

>  <SCORE.INTRA.POLAR.0>
0

>  <SCORE.INTRA.REPUL>
0

>  <SCORE.INTRA.REPUL.0>
0

>  <SCORE.INTRA.SOLV>
0

>  <SCORE.INTRA.SOLV.lig_0>
-48.6608

>  <SCORE.INTRA.VDW>
0

>  <SCORE.INTRA.VDW.0>
0

>  <SCORE.INTRA.norm>
0

>  <SCORE.RESTR>
0

>  <SCORE.RESTR.CAVITY>
0

>  <SCORE.RESTR.norm>
0

>  <SCORE.SYSTEM>
0

>  <SCORE.SYSTEM.CONST>
0

>  <SCORE.SYSTEM.DIHEDRAL>
0

>  <SCORE.SYSTEM.SOLV>
0

>  <SCORE.SYSTEM.norm>
0

>  <SCORE.heavy>
13

>  <SCORE.norm>
-0.691546

>  <RMSD>
6.573

$$$$
ligand
 OpenBabel11021811483D
libRbt.so/2013.1/901 2013/11/27
 13 14  0  0  0  0  0  0  0  0999 V2000
    6.0925   38.3195   73.3156 N   0  0  0  0  0  0  0  0  0  0  0  0
    7.0975   39.4240   71.5426 N   0  0  0  0  0  0  0  0  0  0  0  0
    6.3165   39.4420   72.6385 C   0  0  0  0  0  0  0  0  0  0  0  0
    5.7262   40.6308   73.0653 N   0  0  0  0  0  0  0  0  0  0  0  0
    5.9755   41.7962   72.3376 C   0  0  0  0  0  0  0  0  0  0  0  0
    6.7984   41.7533   71.2168 C   0  0  0  0  0  0  0  0  0  0  0  0
    5.4625   42.8591   72.6855 O   0  0  0  0  0  0  0  0  0  0  0  0
    7.0151   42.9201   70.4594 N   0  0  0  0  0  0  0  0  0  0  0  0
    7.9266   42.9486   69.2805 C   0  0  2  0  0  0  0  0  0  0  0  0
    7.9670   41.5514   68.6386 C   0  0  0  0  0  0  0  0  0  0  0  0
    7.3388   40.5365   70.8258 C   0  0  0  0  0  0  0  0  0  0  0  0
    8.1474   40.4858   69.6840 N   0  0  0  0  0  0  0  0  0  0  0  0
    9.3523   43.3493   69.7646 C   0  0  0  0  0  0  0  0  0  0  0  0
  1  3  1  0  0  0  0
  2  3  2  0  0  0  0
  2 11  1  0  0  0  0
  3  4  1  0  0  0  0
  4  5  1  0  0  0  0
  5  6  1  0  0  0  0
  5  7  2  0  0  0  0
  6  8  1  0  0  0  0
  6 11  2  0  0  0  0
  8  9  1  0  0  0  0
  9 10  1  0  0  0  0
  9 13  1  1  0  0  0
 10 12  1  0  0  0  0
 11 12  1  0  0  0  0
M  END
>  <CHROM.1>
7.02624377,41.26908171,71.18222645,-2.39637598,0.90748489,-0.17394949

>  <Name>
ligand

>  <RI>
0

>  <Rbt.Current_Directory>
/home/itssahil/PROJECTS/Mol_Feturizer/New_Systems/rnas/3SUX

>  <Rbt.Executable>
rbdock ($Id: //depot/dev/client3/rdock/2013.1/src/exe/rbdock.cxx#4 $)

>  <Rbt.Library>
libRbt.so (2013.1, Build901 2013/11/27)

>  <Rbt.Parameter_File>
/export/apps/rDock/src/rDock_2013.1_src/data/scripts/dock_solv.prm

>  <Rbt.Receptor>
prm/pocket_docking_7.prm

>  <SCORE>
-9.21004

>  <SCORE.INTER>
-9.21004

>  <SCORE.INTER.CONST>
1

>  <SCORE.INTER.POLAR>
0

>  <SCORE.INTER.ROT>
0

>  <SCORE.INTER.SOLV>
9.98247

>  <SCORE.INTER.VDW>
-13.0675

>  <SCORE.INTER.norm>
-0.708464

>  <SCORE.INTRA>
0

>  <SCORE.INTRA.DIHEDRAL>
0

>  <SCORE.INTRA.DIHEDRAL.0>
0

>  <SCORE.INTRA.POLAR>
0

>  <SCORE.INTRA.POLAR.0>
0

>  <SCORE.INTRA.REPUL>
0

>  <SCORE.INTRA.REPUL.0>
0

>  <SCORE.INTRA.SOLV>
0

>  <SCORE.INTRA.SOLV.lig_0>
-48.6608

>  <SCORE.INTRA.VDW>
0

>  <SCORE.INTRA.VDW.0>
0

>  <SCORE.INTRA.norm>
0

>  <SCORE.RESTR>
0

>  <SCORE.RESTR.CAVITY>
0

>  <SCORE.RESTR.norm>
0

>  <SCORE.SYSTEM>
0

>  <SCORE.SYSTEM.CONST>
0

>  <SCORE.SYSTEM.DIHEDRAL>
0

>  <SCORE.SYSTEM.SOLV>
0

>  <SCORE.SYSTEM.norm>
0

>  <SCORE.heavy>
13

>  <SCORE.norm>
-0.708464

>  <RMSD>
6.604

$$$$
ligand
 OpenBabel11021811483D
libRbt.so/2013.1/901 2013/11/27
 13 14  0  0  0  0  0  0  0  0999 V2000
    6.1474   38.2792   73.3273 N   0  0  0  0  0  0  0  0  0  0  0  0
    7.1269   39.4028   71.5519 N   0  0  0  0  0  0  0  0  0  0  0  0
    6.3510   39.4065   72.6516 C   0  0  0  0  0  0  0  0  0  0  0  0
    5.7447   40.5853   73.0839 N   0  0  0  0  0  0  0  0  0  0  0  0
    5.9728   41.7559   72.3577 C   0  0  0  0  0  0  0  0  0  0  0  0
    6.7908   41.7280   71.2328 C   0  0  0  0  0  0  0  0  0  0  0  0
    5.4453   42.8101   72.7104 O   0  0  0  0  0  0  0  0  0  0  0  0
    6.9860   42.8996   70.4770 N   0  0  0  0  0  0  0  0  0  0  0  0
    7.8912   42.9445   69.2938 C   0  0  2  0  0  0  0  0  0  0  0  0
    7.9498   41.5495   68.6486 C   0  0  0  0  0  0  0  0  0  0  0  0
    7.3478   40.5204   70.8365 C   0  0  0  0  0  0  0  0  0  0  0  0
    8.1515   40.4845   69.6907 N   0  0  0  0  0  0  0  0  0  0  0  0
    9.3130   43.3658   69.7719 C   0  0  0  0  0  0  0  0  0  0  0  0
  1  3  1  0  0  0  0
  2  3  2  0  0  0  0
  2 11  1  0  0  0  0
  3  4  1  0  0  0  0
  4  5  1  0  0  0  0
  5  6  1  0  0  0  0
  5  7  2  0  0  0  0
  6  8  1  0  0  0  0
  6 11  2  0  0  0  0
  8  9  1  0  0  0  0
  9 10  1  0  0  0  0
  9 13  1  1  0  0  0
 10 12  1  0  0  0  0
 11 12  1  0  0  0  0
M  END
>  <CHROM.1>
7.02577394,41.24735780,71.19603889,-2.37059286,0.90947423,-0.19207164

>  <Name>
ligand

>  <RI>
0

>  <Rbt.Current_Directory>
/home/itssahil/PROJECTS/Mol_Feturizer/New_Systems/rnas/3SUX

>  <Rbt.Executable>
rbdock ($Id: //depot/dev/client3/rdock/2013.1/src/exe/rbdock.cxx#4 $)

>  <Rbt.Library>
libRbt.so (2013.1, Build901 2013/11/27)

>  <Rbt.Parameter_File>
/export/apps/rDock/src/rDock_2013.1_src/data/scripts/dock_solv.prm

>  <Rbt.Receptor>
prm/pocket_docking_7.prm

>  <SCORE>
-9.24013

>  <SCORE.INTER>
-9.24013

>  <SCORE.INTER.CONST>
1

>  <SCORE.INTER.POLAR>
0

>  <SCORE.INTER.ROT>
0

>  <SCORE.INTER.SOLV>
9.78393

>  <SCORE.INTER.VDW>
-13.0214

>  <SCORE.INTER.norm>
-0.710779

>  <SCORE.INTRA>
0

>  <SCORE.INTRA.DIHEDRAL>
0

>  <SCORE.INTRA.DIHEDRAL.0>
0

>  <SCORE.INTRA.POLAR>
0

>  <SCORE.INTRA.POLAR.0>
0

>  <SCORE.INTRA.REPUL>
0

>  <SCORE.INTRA.REPUL.0>
0

>  <SCORE.INTRA.SOLV>
0

>  <SCORE.INTRA.SOLV.lig_0>
-48.6608

>  <SCORE.INTRA.VDW>
0

>  <SCORE.INTRA.VDW.0>
0

>  <SCORE.INTRA.norm>
0

>  <SCORE.RESTR>
0

>  <SCORE.RESTR.CAVITY>
0

>  <SCORE.RESTR.norm>
0

>  <SCORE.SYSTEM>
0

>  <SCORE.SYSTEM.CONST>
0

>  <SCORE.SYSTEM.DIHEDRAL>
0

>  <SCORE.SYSTEM.SOLV>
0

>  <SCORE.SYSTEM.norm>
0

>  <SCORE.heavy>
13

>  <SCORE.norm>
-0.710779

>  <RMSD>
6.614

$$$$
ligand
 OpenBabel11021811483D
libRbt.so/2013.1/901 2013/11/27
 13 14  0  0  0  0  0  0  0  0999 V2000
    6.1467   38.2810   73.3287 N   0  0  0  0  0  0  0  0  0  0  0  0
    7.1268   39.4047   71.5537 N   0  0  0  0  0  0  0  0  0  0  0  0
    6.3502   39.4082   72.6528 C   0  0  0  0  0  0  0  0  0  0  0  0
    5.7430   40.5868   73.0844 N   0  0  0  0  0  0  0  0  0  0  0  0
    5.9710   41.7573   72.3580 C   0  0  0  0  0  0  0  0  0  0  0  0
    6.7897   41.7295   71.2337 C   0  0  0  0  0  0  0  0  0  0  0  0
    5.4427   42.8114   72.7101 O   0  0  0  0  0  0  0  0  0  0  0  0
    6.9848   42.9011   70.4777 N   0  0  0  0  0  0  0  0  0  0  0  0
    7.8908   42.9461   69.2951 C   0  0  2  0  0  0  0  0  0  0  0  0
    7.9505   41.5509   68.6503 C   0  0  0  0  0  0  0  0  0  0  0  0
    7.3476   40.5221   70.8381 C   0  0  0  0  0  0  0  0  0  0  0  0
    8.1521   40.4864   69.6928 N   0  0  0  0  0  0  0  0  0  0  0  0
    9.3120   43.3683   69.7741 C   0  0  0  0  0  0  0  0  0  0  0  0
  1  3  1  0  0  0  0
  2  3  2  0  0  0  0
  2 11  1  0  0  0  0
  3  4  1  0  0  0  0
  4  5  1  0  0  0  0
  5  6  1  0  0  0  0
  5  7  2  0  0  0  0
  6  8  1  0  0  0  0
  6 11  2  0  0  0  0
  8  9  1  0  0  0  0
  9 10  1  0  0  0  0
  9 13  1  1  0  0  0
 10 12  1  0  0  0  0
 11 12  1  0  0  0  0
M  END
>  <CHROM.1>
7.02496517,41.24902116,71.19723791,-2.36995580,0.90872865,-0.19284733

>  <Name>
ligand

>  <RI>
0

>  <Rbt.Current_Directory>
/home/itssahil/PROJECTS/Mol_Feturizer/New_Systems/rnas/3SUX

>  <Rbt.Executable>
rbdock ($Id: //depot/dev/client3/rdock/2013.1/src/exe/rbdock.cxx#4 $)

>  <Rbt.Library>
libRbt.so (2013.1, Build901 2013/11/27)

>  <Rbt.Parameter_File>
/export/apps/rDock/src/rDock_2013.1_src/data/scripts/dock_solv.prm

>  <Rbt.Receptor>
prm/pocket_docking_7.prm

>  <SCORE>
-9.24252

>  <SCORE.INTER>
-9.24252

>  <SCORE.INTER.CONST>
1

>  <SCORE.INTER.POLAR>
0

>  <SCORE.INTER.ROT>
0

>  <SCORE.INTER.SOLV>
9.78113

>  <SCORE.INTER.VDW>
-13.0221

>  <SCORE.INTER.norm>
-0.710963

>  <SCORE.INTRA>
0

>  <SCORE.INTRA.DIHEDRAL>
0

>  <SCORE.INTRA.DIHEDRAL.0>
0

>  <SCORE.INTRA.POLAR>
0

>  <SCORE.INTRA.POLAR.0>
0

>  <SCORE.INTRA.REPUL>
0

>  <SCORE.INTRA.REPUL.0>
0

>  <SCORE.INTRA.SOLV>
0

>  <SCORE.INTRA.SOLV.lig_0>
-48.6608

>  <SCORE.INTRA.VDW>
0

>  <SCORE.INTRA.VDW.0>
0

>  <SCORE.INTRA.norm>
0

>  <SCORE.RESTR>
0

>  <SCORE.RESTR.CAVITY>
0

>  <SCORE.RESTR.norm>
0

>  <SCORE.SYSTEM>
0

>  <SCORE.SYSTEM.CONST>
0

>  <SCORE.SYSTEM.DIHEDRAL>
0

>  <SCORE.SYSTEM.SOLV>
0

>  <SCORE.SYSTEM.norm>
0

>  <SCORE.heavy>
13

>  <SCORE.norm>
-0.710963

>  <RMSD>
6.615

$$$$
ligand
 OpenBabel11021811483D
libRbt.so/2013.1/901 2013/11/27
 13 14  0  0  0  0  0  0  0  0999 V2000
    6.1272   38.2856   73.3354 N   0  0  0  0  0  0  0  0  0  0  0  0
    7.1029   39.3933   71.5481 N   0  0  0  0  0  0  0  0  0  0  0  0
    6.3385   39.4089   72.6556 C   0  0  0  0  0  0  0  0  0  0  0  0
    5.7522   40.5963   73.0920 N   0  0  0  0  0  0  0  0  0  0  0  0
    5.9881   41.7626   72.3613 C   0  0  0  0  0  0  0  0  0  0  0  0
    6.7940   41.7221   71.2282 C   0  0  0  0  0  0  0  0  0  0  0  0
    5.4780   42.8242   72.7175 O   0  0  0  0  0  0  0  0  0  0  0  0
    6.9967   42.8898   70.4683 N   0  0  0  0  0  0  0  0  0  0  0  0
    7.8902   42.9208   69.2757 C   0  0  2  0  0  0  0  0  0  0  0  0
    7.9239   41.5240   68.6325 C   0  0  0  0  0  0  0  0  0  0  0  0
    7.3310   40.5067   70.8284 C   0  0  0  0  0  0  0  0  0  0  0  0
    8.1224   40.4583   69.6744 N   0  0  0  0  0  0  0  0  0  0  0  0
    9.3222   43.3243   69.7385 C   0  0  0  0  0  0  0  0  0  0  0  0
  1  3  1  0  0  0  0
  2  3  2  0  0  0  0
  2 11  1  0  0  0  0
  3  4  1  0  0  0  0
  4  5  1  0  0  0  0
  5  6  1  0  0  0  0
  5  7  2  0  0  0  0
  6  8  1  0  0  0  0
  6 11  2  0  0  0  0
  8  9  1  0  0  0  0
  9 10  1  0  0  0  0
  9 13  1  1  0  0  0
 10 12  1  0  0  0  0
 11 12  1  0  0  0  0
M  END
>  <CHROM.1>
7.02228753,41.23836505,71.18989393,-2.38857037,0.92198730,-0.17957267

>  <Name>
ligand

>  <RI>
0

>  <Rbt.Current_Directory>
/home/itssahil/PROJECTS/Mol_Feturizer/New_Systems/rnas/3SUX

>  <Rbt.Executable>
rbdock ($Id: //depot/dev/client3/rdock/2013.1/src/exe/rbdock.cxx#4 $)

>  <Rbt.Library>
libRbt.so (2013.1, Build901 2013/11/27)

>  <Rbt.Parameter_File>
/export/apps/rDock/src/rDock_2013.1_src/data/scripts/dock_solv.prm

>  <Rbt.Receptor>
prm/pocket_docking_7.prm

>  <SCORE>
-9.17852

>  <SCORE.INTER>
-9.17852

>  <SCORE.INTER.CONST>
1

>  <SCORE.INTER.POLAR>
0

>  <SCORE.INTER.ROT>
0

>  <SCORE.INTER.SOLV>
9.89258

>  <SCORE.INTER.VDW>
-13.0165

>  <SCORE.INTER.norm>
-0.70604

>  <SCORE.INTRA>
0

>  <SCORE.INTRA.DIHEDRAL>
0

>  <SCORE.INTRA.DIHEDRAL.0>
0

>  <SCORE.INTRA.POLAR>
0

>  <SCORE.INTRA.POLAR.0>
0

>  <SCORE.INTRA.REPUL>
0

>  <SCORE.INTRA.REPUL.0>
0

>  <SCORE.INTRA.SOLV>
0

>  <SCORE.INTRA.SOLV.lig_0>
-48.6608

>  <SCORE.INTRA.VDW>
0

>  <SCORE.INTRA.VDW.0>
0

>  <SCORE.INTRA.norm>
0

>  <SCORE.RESTR>
0

>  <SCORE.RESTR.CAVITY>
0

>  <SCORE.RESTR.norm>
0

>  <SCORE.SYSTEM>
0

>  <SCORE.SYSTEM.CONST>
0

>  <SCORE.SYSTEM.DIHEDRAL>
0

>  <SCORE.SYSTEM.SOLV>
0

>  <SCORE.SYSTEM.norm>
0

>  <SCORE.heavy>
13

>  <SCORE.norm>
-0.70604

>  <RMSD>
6.615

$$$$
ligand
 OpenBabel11021811483D
libRbt.so/2013.1/901 2013/11/27
 13 14  0  0  0  0  0  0  0  0999 V2000
    6.1454   38.2771   73.3238 N   0  0  0  0  0  0  0  0  0  0  0  0
    7.1250   39.4016   71.5492 N   0  0  0  0  0  0  0  0  0  0  0  0
    6.3494   39.4047   72.6490 C   0  0  0  0  0  0  0  0  0  0  0  0
    5.7437   40.5834   73.0823 N   0  0  0  0  0  0  0  0  0  0  0  0
    5.9721   41.7545   72.3569 C   0  0  0  0  0  0  0  0  0  0  0  0
    6.7899   41.7271   71.2319 C   0  0  0  0  0  0  0  0  0  0  0  0
    5.4451   42.8087   72.7105 O   0  0  0  0  0  0  0  0  0  0  0  0
    6.9854   42.8993   70.4769 N   0  0  0  0  0  0  0  0  0  0  0  0
    7.8905   42.9447   69.2936 C   0  0  2  0  0  0  0  0  0  0  0  0
    7.9484   41.5501   68.6473 C   0  0  0  0  0  0  0  0  0  0  0  0
    7.3463   40.5196   70.8346 C   0  0  0  0  0  0  0  0  0  0  0  0
    8.1498   40.4843   69.6886 N   0  0  0  0  0  0  0  0  0  0  0  0
    9.3125   43.3650   69.7718 C   0  0  0  0  0  0  0  0  0  0  0  0
  1  3  1  0  0  0  0
  2  3  2  0  0  0  0
  2 11  1  0  0  0  0
  3  4  1  0  0  0  0
  4  5  1  0  0  0  0
  5  6  1  0  0  0  0
  5  7  2  0  0  0  0
  6  8  1  0  0  0  0
  6 11  2  0  0  0  0
  8  9  1  0  0  0  0
  9 10  1  0  0  0  0
  9 13  1  1  0  0  0
 10 12  1  0  0  0  0
 11 12  1  0  0  0  0
M  END
>  <CHROM.1>
7.02467518,41.24643982,71.19471546,-2.37122491,0.90972266,-0.19080364

>  <Name>
ligand

>  <RI>
0

>  <Rbt.Current_Directory>
/home/itssahil/PROJECTS/Mol_Feturizer/New_Systems/rnas/3SUX

>  <Rbt.Executable>
rbdock ($Id: //depot/dev/client3/rdock/2013.1/src/exe/rbdock.cxx#4 $)

>  <Rbt.Library>
libRbt.so (2013.1, Build901 2013/11/27)

>  <Rbt.Parameter_File>
/export/apps/rDock/src/rDock_2013.1_src/data/scripts/dock_solv.prm

>  <Rbt.Receptor>
prm/pocket_docking_7.prm

>  <SCORE>
-9.23719

>  <SCORE.INTER>
-9.23719

>  <SCORE.INTER.CONST>
1

>  <SCORE.INTER.POLAR>
0

>  <SCORE.INTER.ROT>
0

>  <SCORE.INTER.SOLV>
9.80434

>  <SCORE.INTER.VDW>
-13.0262

>  <SCORE.INTER.norm>
-0.710553

>  <SCORE.INTRA>
0

>  <SCORE.INTRA.DIHEDRAL>
0

>  <SCORE.INTRA.DIHEDRAL.0>
0

>  <SCORE.INTRA.POLAR>
0

>  <SCORE.INTRA.POLAR.0>
0

>  <SCORE.INTRA.REPUL>
0

>  <SCORE.INTRA.REPUL.0>
0

>  <SCORE.INTRA.SOLV>
0

>  <SCORE.INTRA.SOLV.lig_0>
-48.6608

>  <SCORE.INTRA.VDW>
0

>  <SCORE.INTRA.VDW.0>
0

>  <SCORE.INTRA.norm>
0

>  <SCORE.RESTR>
0

>  <SCORE.RESTR.CAVITY>
0

>  <SCORE.RESTR.norm>
0

>  <SCORE.SYSTEM>
0

>  <SCORE.SYSTEM.CONST>
0

>  <SCORE.SYSTEM.DIHEDRAL>
0

>  <SCORE.SYSTEM.SOLV>
0

>  <SCORE.SYSTEM.norm>
0

>  <SCORE.heavy>
13

>  <SCORE.norm>
-0.710553

>  <RMSD>
6.615

$$$$
ligand
 OpenBabel11021811483D
libRbt.so/2013.1/901 2013/11/27
 13 14  0  0  0  0  0  0  0  0999 V2000
    6.1302   38.2947   73.3315 N   0  0  0  0  0  0  0  0  0  0  0  0
    7.1174   39.4116   71.5561 N   0  0  0  0  0  0  0  0  0  0  0  0
    6.3392   39.4200   72.6541 C   0  0  0  0  0  0  0  0  0  0  0  0
    5.7362   40.6017   73.0830 N   0  0  0  0  0  0  0  0  0  0  0  0
    5.9699   41.7701   72.3550 C   0  0  0  0  0  0  0  0  0  0  0  0
    6.7901   41.7373   71.2320 C   0  0  0  0  0  0  0  0  0  0  0  0
    5.4454   42.8269   72.7047 O   0  0  0  0  0  0  0  0  0  0  0  0
    6.9911   42.9068   70.4744 N   0  0  0  0  0  0  0  0  0  0  0  0
    7.8990   42.9463   69.2930 C   0  0  2  0  0  0  0  0  0  0  0  0
    7.9539   41.5499   68.6505 C   0  0  0  0  0  0  0  0  0  0  0  0
    7.3437   40.5270   70.8391 C   0  0  0  0  0  0  0  0  0  0  0  0
    8.1497   40.4862   69.6950 N   0  0  0  0  0  0  0  0  0  0  0  0
    9.3212   43.3635   69.7734 C   0  0  0  0  0  0  0  0  0  0  0  0
  1  3  1  0  0  0  0
  2  3  2  0  0  0  0
  2 11  1  0  0  0  0
  3  4  1  0  0  0  0
  4  5  1  0  0  0  0
  5  6  1  0  0  0  0
  5  7  2  0  0  0  0
  6  8  1  0  0  0  0
  6 11  2  0  0  0  0
  8  9  1  0  0  0  0
  9 10  1  0  0  0  0
  9 13  1  1  0  0  0
 10 12  1  0  0  0  0
 11 12  1  0  0  0  0
M  END
>  <CHROM.1>
7.02354119,41.25577539,71.19659001,-2.37687212,0.90807577,-0.18897255

>  <Name>
ligand

>  <RI>
0

>  <Rbt.Current_Directory>
/home/itssahil/PROJECTS/Mol_Feturizer/New_Systems/rnas/3SUX

>  <Rbt.Executable>
rbdock ($Id: //depot/dev/client3/rdock/2013.1/src/exe/rbdock.cxx#4 $)

>  <Rbt.Library>
libRbt.so (2013.1, Build901 2013/11/27)

>  <Rbt.Parameter_File>
/export/apps/rDock/src/rDock_2013.1_src/data/scripts/dock_solv.prm

>  <Rbt.Receptor>
prm/pocket_docking_8.prm

>  <SCORE>
-9.2364

>  <SCORE.INTER>
-9.2364

>  <SCORE.INTER.CONST>
1

>  <SCORE.INTER.POLAR>
0

>  <SCORE.INTER.ROT>
0

>  <SCORE.INTER.SOLV>
9.82712

>  <SCORE.INTER.VDW>
-13.0333

>  <SCORE.INTER.norm>
-0.710492

>  <SCORE.INTRA>
0

>  <SCORE.INTRA.DIHEDRAL>
0

>  <SCORE.INTRA.DIHEDRAL.0>
0

>  <SCORE.INTRA.POLAR>
0

>  <SCORE.INTRA.POLAR.0>
0

>  <SCORE.INTRA.REPUL>
0

>  <SCORE.INTRA.REPUL.0>
0

>  <SCORE.INTRA.SOLV>
0

>  <SCORE.INTRA.SOLV.lig_0>
-48.6608

>  <SCORE.INTRA.VDW>
0

>  <SCORE.INTRA.VDW.0>
0

>  <SCORE.INTRA.norm>
0

>  <SCORE.RESTR>
0

>  <SCORE.RESTR.CAVITY>
0

>  <SCORE.RESTR.norm>
0

>  <SCORE.SYSTEM>
0

>  <SCORE.SYSTEM.CONST>
0

>  <SCORE.SYSTEM.DIHEDRAL>
0

>  <SCORE.SYSTEM.SOLV>
0

>  <SCORE.SYSTEM.norm>
0

>  <SCORE.heavy>
13

>  <SCORE.norm>
-0.710492

>  <RMSD>
6.615

$$$$
ligand
 OpenBabel11021811483D
libRbt.so/2013.1/901 2013/11/27
 13 14  0  0  0  0  0  0  0  0999 V2000
    6.1550   38.2826   73.3294 N   0  0  0  0  0  0  0  0  0  0  0  0
    7.1312   39.4081   71.5535 N   0  0  0  0  0  0  0  0  0  0  0  0
    6.3530   39.4095   72.6515 C   0  0  0  0  0  0  0  0  0  0  0  0
    5.7385   40.5855   73.0797 N   0  0  0  0  0  0  0  0  0  0  0  0
    5.9608   41.7557   72.3512 C   0  0  0  0  0  0  0  0  0  0  0  0
    6.7812   41.7303   71.2281 C   0  0  0  0  0  0  0  0  0  0  0  0
    5.4259   42.8075   72.7002 O   0  0  0  0  0  0  0  0  0  0  0  0
    6.9707   42.9013   70.4699 N   0  0  0  0  0  0  0  0  0  0  0  0
    7.8782   42.9491   69.2884 C   0  0  2  0  0  0  0  0  0  0  0  0
    7.9468   41.5529   68.6467 C   0  0  0  0  0  0  0  0  0  0  0  0
    7.3466   40.5253   70.8358 C   0  0  0  0  0  0  0  0  0  0  0  0
    8.1530   40.4918   69.6918 N   0  0  0  0  0  0  0  0  0  0  0  0
    9.2962   43.3805   69.7686 C   0  0  0  0  0  0  0  0  0  0  0  0
  1  3  1  0  0  0  0
  2  3  2  0  0  0  0
  2 11  1  0  0  0  0
  3  4  1  0  0  0  0
  4  5  1  0  0  0  0
  5  6  1  0  0  0  0
  5  7  2  0  0  0  0
  6  8  1  0  0  0  0
  6 11  2  0  0  0  0
  8  9  1  0  0  0  0
  9 10  1  0  0  0  0
  9 13  1  1  0  0  0
 10 12  1  0  0  0  0
 11 12  1  0  0  0  0
M  END
>  <CHROM.1>
7.01933750,41.25109337,71.19295242,-2.36128467,0.90618894,-0.20178780

>  <Name>
ligand

>  <RI>
0

>  <Rbt.Current_Directory>
/home/itssahil/PROJECTS/Mol_Feturizer/New_Systems/rnas/3SUX

>  <Rbt.Executable>
rbdock ($Id: //depot/dev/client3/rdock/2013.1/src/exe/rbdock.cxx#4 $)

>  <Rbt.Library>
libRbt.so (2013.1, Build901 2013/11/27)

>  <Rbt.Parameter_File>
/export/apps/rDock/src/rDock_2013.1_src/data/scripts/dock_solv.prm

>  <Rbt.Receptor>
prm/pocket_docking_7.prm

>  <SCORE>
-9.24397

>  <SCORE.INTER>
-9.24397

>  <SCORE.INTER.CONST>
1

>  <SCORE.INTER.POLAR>
0

>  <SCORE.INTER.ROT>
0

>  <SCORE.INTER.SOLV>
9.8321

>  <SCORE.INTER.VDW>
-13.04

>  <SCORE.INTER.norm>
-0.711075

>  <SCORE.INTRA>
0

>  <SCORE.INTRA.DIHEDRAL>
0

>  <SCORE.INTRA.DIHEDRAL.0>
0

>  <SCORE.INTRA.POLAR>
0

>  <SCORE.INTRA.POLAR.0>
0

>  <SCORE.INTRA.REPUL>
0

>  <SCORE.INTRA.REPUL.0>
0

>  <SCORE.INTRA.SOLV>
0

>  <SCORE.INTRA.SOLV.lig_0>
-48.6608

>  <SCORE.INTRA.VDW>
0

>  <SCORE.INTRA.VDW.0>
0

>  <SCORE.INTRA.norm>
0

>  <SCORE.RESTR>
0

>  <SCORE.RESTR.CAVITY>
0

>  <SCORE.RESTR.norm>
0

>  <SCORE.SYSTEM>
0

>  <SCORE.SYSTEM.CONST>
0

>  <SCORE.SYSTEM.DIHEDRAL>
0

>  <SCORE.SYSTEM.SOLV>
0

>  <SCORE.SYSTEM.norm>
0

>  <SCORE.heavy>
13

>  <SCORE.norm>
-0.711075

>  <RMSD>
6.616

$$$$
ligand
 OpenBabel11021811483D
libRbt.so/2013.1/901 2013/11/27
 13 14  0  0  0  0  0  0  0  0999 V2000
    6.1595   38.2675   73.3274 N   0  0  0  0  0  0  0  0  0  0  0  0
    7.1331   39.3975   71.5529 N   0  0  0  0  0  0  0  0  0  0  0  0
    6.3577   39.3964   72.6529 C   0  0  0  0  0  0  0  0  0  0  0  0
    5.7462   40.5720   73.0868 N   0  0  0  0  0  0  0  0  0  0  0  0
    5.9687   41.7444   72.3617 C   0  0  0  0  0  0  0  0  0  0  0  0
    6.7862   41.7215   71.2365 C   0  0  0  0  0  0  0  0  0  0  0  0
    5.4365   42.7958   72.7158 O   0  0  0  0  0  0  0  0  0  0  0  0
    6.9758   42.8948   70.4819 N   0  0  0  0  0  0  0  0  0  0  0  0
    7.8804   42.9451   69.2984 C   0  0  2  0  0  0  0  0  0  0  0  0
    7.9450   41.5511   68.6516 C   0  0  0  0  0  0  0  0  0  0  0  0
    7.3486   40.5169   70.8386 C   0  0  0  0  0  0  0  0  0  0  0  0
    8.1520   40.4860   69.6924 N   0  0  0  0  0  0  0  0  0  0  0  0
    9.3004   43.3724   69.7764 C   0  0  0  0  0  0  0  0  0  0  0  0
  1  3  1  0  0  0  0
  2  3  2  0  0  0  0
  2 11  1  0  0  0  0
  3  4  1  0  0  0  0
  4  5  1  0  0  0  0
  5  6  1  0  0  0  0
  5  7  2  0  0  0  0
  6  8  1  0  0  0  0
  6 11  2  0  0  0  0
  8  9  1  0  0  0  0
  9 10  1  0  0  0  0
  9 13  1  1  0  0  0
 10 12  1  0  0  0  0
 11 12  1  0  0  0  0
M  END
>  <CHROM.1>
7.02344058,41.24197458,71.19911466,-2.36319651,0.90900190,-0.19680377

>  <Name>
ligand

>  <RI>
0

>  <Rbt.Current_Directory>
/home/itssahil/PROJECTS/Mol_Feturizer/New_Systems/rnas/3SUX

>  <Rbt.Executable>
rbdock ($Id: //depot/dev/client3/rdock/2013.1/src/exe/rbdock.cxx#4 $)

>  <Rbt.Library>
libRbt.so (2013.1, Build901 2013/11/27)

>  <Rbt.Parameter_File>
/export/apps/rDock/src/rDock_2013.1_src/data/scripts/dock_solv.prm

>  <Rbt.Receptor>
prm/pocket_docking_8.prm

>  <SCORE>
-9.24809

>  <SCORE.INTER>
-9.24809

>  <SCORE.INTER.CONST>
1

>  <SCORE.INTER.POLAR>
0

>  <SCORE.INTER.ROT>
0

>  <SCORE.INTER.SOLV>
9.75381

>  <SCORE.INTER.VDW>
-13.0167

>  <SCORE.INTER.norm>
-0.711392

>  <SCORE.INTRA>
0

>  <SCORE.INTRA.DIHEDRAL>
0

>  <SCORE.INTRA.DIHEDRAL.0>
0

>  <SCORE.INTRA.POLAR>
0

>  <SCORE.INTRA.POLAR.0>
0

>  <SCORE.INTRA.REPUL>
0

>  <SCORE.INTRA.REPUL.0>
0

>  <SCORE.INTRA.SOLV>
0

>  <SCORE.INTRA.SOLV.lig_0>
-48.6608

>  <SCORE.INTRA.VDW>
0

>  <SCORE.INTRA.VDW.0>
0

>  <SCORE.INTRA.norm>
0

>  <SCORE.RESTR>
0

>  <SCORE.RESTR.CAVITY>
0

>  <SCORE.RESTR.norm>
0

>  <SCORE.SYSTEM>
0

>  <SCORE.SYSTEM.CONST>
0

>  <SCORE.SYSTEM.DIHEDRAL>
0

>  <SCORE.SYSTEM.SOLV>
0

>  <SCORE.SYSTEM.norm>
0

>  <SCORE.heavy>
13

>  <SCORE.norm>
-0.711392

>  <RMSD>
6.618

$$$$
ligand
 OpenBabel11021811483D
libRbt.so/2013.1/901 2013/11/27
 13 14  0  0  0  0  0  0  0  0999 V2000
    6.1651   38.2687   73.3258 N   0  0  0  0  0  0  0  0  0  0  0  0
    7.1346   39.4007   71.5502 N   0  0  0  0  0  0  0  0  0  0  0  0
    6.3587   39.3976   72.6499 C   0  0  0  0  0  0  0  0  0  0  0  0
    5.7419   40.5710   73.0819 N   0  0  0  0  0  0  0  0  0  0  0  0
    5.9595   41.7434   72.3555 C   0  0  0  0  0  0  0  0  0  0  0  0
    6.7777   41.7226   71.2307 C   0  0  0  0  0  0  0  0  0  0  0  0
    5.4226   42.7930   72.7080 O   0  0  0  0  0  0  0  0  0  0  0  0
    6.9625   42.8958   70.4746 N   0  0  0  0  0  0  0  0  0  0  0  0
    7.8674   42.9486   69.2914 C   0  0  2  0  0  0  0  0  0  0  0  0
    7.9384   41.5540   68.6465 C   0  0  0  0  0  0  0  0  0  0  0  0
    7.3455   40.5200   70.8346 C   0  0  0  0  0  0  0  0  0  0  0  0
    8.1495   40.4911   69.6888 N   0  0  0  0  0  0  0  0  0  0  0  0
    9.2853   43.3827   69.7696 C   0  0  0  0  0  0  0  0  0  0  0  0
  1  3  1  0  0  0  0
  2  3  2  0  0  0  0
  2 11  1  0  0  0  0
  3  4  1  0  0  0  0
  4  5  1  0  0  0  0
  5  6  1  0  0  0  0
  5  7  2  0  0  0  0
  6  8  1  0  0  0  0
  6 11  2  0  0  0  0
  8  9  1  0  0  0  0
  9 10  1  0  0  0  0
  9 13  1  1  0  0  0
 10 12  1  0  0  0  0
 11 12  1  0  0  0  0
M  END
>  <CHROM.1>
7.01702150,41.24412366,71.19399124,-2.35635717,0.90768646,-0.20348622

>  <Name>
ligand

>  <RI>
0

>  <Rbt.Current_Directory>
/home/itssahil/PROJECTS/Mol_Feturizer/New_Systems/rnas/3SUX

>  <Rbt.Executable>
rbdock ($Id: //depot/dev/client3/rdock/2013.1/src/exe/rbdock.cxx#4 $)

>  <Rbt.Library>
libRbt.so (2013.1, Build901 2013/11/27)

>  <Rbt.Parameter_File>
/export/apps/rDock/src/rDock_2013.1_src/data/scripts/dock_solv.prm

>  <Rbt.Receptor>
prm/pocket_docking_7.prm

>  <SCORE>
-9.24418

>  <SCORE.INTER>
-9.24418

>  <SCORE.INTER.CONST>
1

>  <SCORE.INTER.POLAR>
0

>  <SCORE.INTER.ROT>
0

>  <SCORE.INTER.SOLV>
9.81896

>  <SCORE.INTER.VDW>
-13.0358

>  <SCORE.INTER.norm>
-0.711091

>  <SCORE.INTRA>
0

>  <SCORE.INTRA.DIHEDRAL>
0

>  <SCORE.INTRA.DIHEDRAL.0>
0

>  <SCORE.INTRA.POLAR>
0

>  <SCORE.INTRA.POLAR.0>
0

>  <SCORE.INTRA.REPUL>
0

>  <SCORE.INTRA.REPUL.0>
0

>  <SCORE.INTRA.SOLV>
0

>  <SCORE.INTRA.SOLV.lig_0>
-48.6608

>  <SCORE.INTRA.VDW>
0

>  <SCORE.INTRA.VDW.0>
0

>  <SCORE.INTRA.norm>
0

>  <SCORE.RESTR>
0

>  <SCORE.RESTR.CAVITY>
0

>  <SCORE.RESTR.norm>
0

>  <SCORE.SYSTEM>
0

>  <SCORE.SYSTEM.CONST>
0

>  <SCORE.SYSTEM.DIHEDRAL>
0

>  <SCORE.SYSTEM.SOLV>
0

>  <SCORE.SYSTEM.norm>
0

>  <SCORE.heavy>
13

>  <SCORE.norm>
-0.711091

>  <RMSD>
6.619

$$$$
ligand
 OpenBabel11021811483D
libRbt.so/2013.1/901 2013/11/27
 13 14  0  0  0  0  0  0  0  0999 V2000
    6.1188   38.3048   73.3365 N   0  0  0  0  0  0  0  0  0  0  0  0
    7.1129   39.4181   71.5628 N   0  0  0  0  0  0  0  0  0  0  0  0
    6.3286   39.4283   72.6564 C   0  0  0  0  0  0  0  0  0  0  0  0
    5.7200   40.6098   73.0777 N   0  0  0  0  0  0  0  0  0  0  0  0
    5.9547   41.7763   72.3470 C   0  0  0  0  0  0  0  0  0  0  0  0
    6.7812   41.7418   71.2287 C   0  0  0  0  0  0  0  0  0  0  0  0
    5.4254   42.8329   72.6900 O   0  0  0  0  0  0  0  0  0  0  0  0
    6.9833   42.9092   70.4681 N   0  0  0  0  0  0  0  0  0  0  0  0
    7.8977   42.9470   69.2917 C   0  0  2  0  0  0  0  0  0  0  0  0
    7.9600   41.5484   68.6544 C   0  0  0  0  0  0  0  0  0  0  0  0
    7.3402   40.5316   70.8431 C   0  0  0  0  0  0  0  0  0  0  0  0
    8.1527   40.4890   69.7037 N   0  0  0  0  0  0  0  0  0  0  0  0
    9.3161   43.3697   69.7785 C   0  0  0  0  0  0  0  0  0  0  0  0
  1  3  1  0  0  0  0
  2  3  2  0  0  0  0
  2 11  1  0  0  0  0
  3  4  1  0  0  0  0
  4  5  1  0  0  0  0
  5  6  1  0  0  0  0
  5  7  2  0  0  0  0
  6  8  1  0  0  0  0
  6 11  2  0  0  0  0
  8  9  1  0  0  0  0
  9 10  1  0  0  0  0
  9 13  1  1  0  0  0
 10 12  1  0  0  0  0
 11 12  1  0  0  0  0
M  END
>  <CHROM.1>
7.01612582,41.26074961,71.19628052,-2.37434450,0.90207281,-0.19446826

>  <Name>
ligand

>  <RI>
0

>  <Rbt.Current_Directory>
/home/itssahil/PROJECTS/Mol_Feturizer/New_Systems/rnas/3SUX

>  <Rbt.Executable>
rbdock ($Id: //depot/dev/client3/rdock/2013.1/src/exe/rbdock.cxx#4 $)

>  <Rbt.Library>
libRbt.so (2013.1, Build901 2013/11/27)

>  <Rbt.Parameter_File>
/export/apps/rDock/src/rDock_2013.1_src/data/scripts/dock_solv.prm

>  <Rbt.Receptor>
prm/pocket_docking_8.prm

>  <SCORE>
-9.2385

>  <SCORE.INTER>
-9.2385

>  <SCORE.INTER.CONST>
1

>  <SCORE.INTER.POLAR>
0

>  <SCORE.INTER.ROT>
0

>  <SCORE.INTER.SOLV>
9.90698

>  <SCORE.INTER.VDW>
-13.0613

>  <SCORE.INTER.norm>
-0.710654

>  <SCORE.INTRA>
0

>  <SCORE.INTRA.DIHEDRAL>
0

>  <SCORE.INTRA.DIHEDRAL.0>
0

>  <SCORE.INTRA.POLAR>
0

>  <SCORE.INTRA.POLAR.0>
0

>  <SCORE.INTRA.REPUL>
0

>  <SCORE.INTRA.REPUL.0>
0

>  <SCORE.INTRA.SOLV>
0

>  <SCORE.INTRA.SOLV.lig_0>
-48.6608

>  <SCORE.INTRA.VDW>
0

>  <SCORE.INTRA.VDW.0>
0

>  <SCORE.INTRA.norm>
0

>  <SCORE.RESTR>
0

>  <SCORE.RESTR.CAVITY>
0

>  <SCORE.RESTR.norm>
0

>  <SCORE.SYSTEM>
0

>  <SCORE.SYSTEM.CONST>
0

>  <SCORE.SYSTEM.DIHEDRAL>
0

>  <SCORE.SYSTEM.SOLV>
0

>  <SCORE.SYSTEM.norm>
0

>  <SCORE.heavy>
13

>  <SCORE.norm>
-0.710654

>  <RMSD>
6.619

$$$$
ligand
 OpenBabel11021811483D
libRbt.so/2013.1/901 2013/11/27
 13 14  0  0  0  0  0  0  0  0999 V2000
    6.1596   38.2674   73.3291 N   0  0  0  0  0  0  0  0  0  0  0  0
    7.1331   39.3972   71.5544 N   0  0  0  0  0  0  0  0  0  0  0  0
    6.3567   39.3960   72.6537 C   0  0  0  0  0  0  0  0  0  0  0  0
    5.7432   40.5710   73.0859 N   0  0  0  0  0  0  0  0  0  0  0  0
    5.9645   41.7431   72.3599 C   0  0  0  0  0  0  0  0  0  0  0  0
    6.7831   41.7203   71.2355 C   0  0  0  0  0  0  0  0  0  0  0  0
    5.4304   42.7940   72.7126 O   0  0  0  0  0  0  0  0  0  0  0  0
    6.9715   42.8932   70.4799 N   0  0  0  0  0  0  0  0  0  0  0  0
    7.8770   42.9437   69.2970 C   0  0  2  0  0  0  0  0  0  0  0  0
    7.9442   41.5491   68.6517 C   0  0  0  0  0  0  0  0  0  0  0  0
    7.3475   40.5162   70.8392 C   0  0  0  0  0  0  0  0  0  0  0  0
    8.1519   40.4853   69.6937 N   0  0  0  0  0  0  0  0  0  0  0  0
    9.2960   43.3735   69.7759 C   0  0  0  0  0  0  0  0  0  0  0  0
  1  3  1  0  0  0  0
  2  3  2  0  0  0  0
  2 11  1  0  0  0  0
  3  4  1  0  0  0  0
  4  5  1  0  0  0  0
  5  6  1  0  0  0  0
  5  7  2  0  0  0  0
  6  8  1  0  0  0  0
  6 11  2  0  0  0  0
  8  9  1  0  0  0  0
  9 10  1  0  0  0  0
  9 13  1  1  0  0  0
 10 12  1  0  0  0  0
 11 12  1  0  0  0  0
M  END
>  <CHROM.1>
7.02099211,41.24108724,71.19869850,-2.36108345,0.90787198,-0.19943330

>  <Name>
ligand

>  <RI>
0

>  <Rbt.Current_Directory>
/home/itssahil/PROJECTS/Mol_Feturizer/New_Systems/rnas/3SUX

>  <Rbt.Executable>
rbdock ($Id: //depot/dev/client3/rdock/2013.1/src/exe/rbdock.cxx#4 $)

>  <Rbt.Library>
libRbt.so (2013.1, Build901 2013/11/27)

>  <Rbt.Parameter_File>
/export/apps/rDock/src/rDock_2013.1_src/data/scripts/dock_solv.prm

>  <Rbt.Receptor>
prm/pocket_docking_7.prm

>  <SCORE>
-9.24894

>  <SCORE.INTER>
-9.24894

>  <SCORE.INTER.CONST>
1

>  <SCORE.INTER.POLAR>
0

>  <SCORE.INTER.ROT>
0

>  <SCORE.INTER.SOLV>
9.77532

>  <SCORE.INTER.VDW>
-13.0244

>  <SCORE.INTER.norm>
-0.711457

>  <SCORE.INTRA>
0

>  <SCORE.INTRA.DIHEDRAL>
0

>  <SCORE.INTRA.DIHEDRAL.0>
0

>  <SCORE.INTRA.POLAR>
0

>  <SCORE.INTRA.POLAR.0>
0

>  <SCORE.INTRA.REPUL>
0

>  <SCORE.INTRA.REPUL.0>
0

>  <SCORE.INTRA.SOLV>
0

>  <SCORE.INTRA.SOLV.lig_0>
-48.6608

>  <SCORE.INTRA.VDW>
0

>  <SCORE.INTRA.VDW.0>
0

>  <SCORE.INTRA.norm>
0

>  <SCORE.RESTR>
0

>  <SCORE.RESTR.CAVITY>
0

>  <SCORE.RESTR.norm>
0

>  <SCORE.SYSTEM>
0

>  <SCORE.SYSTEM.CONST>
0

>  <SCORE.SYSTEM.DIHEDRAL>
0

>  <SCORE.SYSTEM.SOLV>
0

>  <SCORE.SYSTEM.norm>
0

>  <SCORE.heavy>
13

>  <SCORE.norm>
-0.711457

>  <RMSD>
6.620

$$$$
ligand
 OpenBabel11021811483D
libRbt.so/2013.1/901 2013/11/27
 13 14  0  0  0  0  0  0  0  0999 V2000
    6.1620   38.2611   73.3282 N   0  0  0  0  0  0  0  0  0  0  0  0
    7.1335   39.3943   71.5545 N   0  0  0  0  0  0  0  0  0  0  0  0
    6.3575   39.3907   72.6541 C   0  0  0  0  0  0  0  0  0  0  0  0
    5.7427   40.5645   73.0880 N   0  0  0  0  0  0  0  0  0  0  0  0
    5.9623   41.7377   72.3634 C   0  0  0  0  0  0  0  0  0  0  0  0
    6.7805   41.7173   71.2386 C   0  0  0  0  0  0  0  0  0  0  0  0
    5.4271   42.7876   72.7175 O   0  0  0  0  0  0  0  0  0  0  0  0
    6.9673   42.8914   70.4844 N   0  0  0  0  0  0  0  0  0  0  0  0
    7.8723   42.9445   69.3013 C   0  0  2  0  0  0  0  0  0  0  0  0
    7.9410   41.5508   68.6542 C   0  0  0  0  0  0  0  0  0  0  0  0
    7.3463   40.5144   70.8407 C   0  0  0  0  0  0  0  0  0  0  0  0
    8.1504   40.4860   69.6949 N   0  0  0  0  0  0  0  0  0  0  0  0
    9.2909   43.3755   69.7803 C   0  0  0  0  0  0  0  0  0  0  0  0
  1  3  1  0  0  0  0
  2  3  2  0  0  0  0
  2 11  1  0  0  0  0
  3  4  1  0  0  0  0
  4  5  1  0  0  0  0
  5  6  1  0  0  0  0
  5  7  2  0  0  0  0
  6  8  1  0  0  0  0
  6 11  2  0  0  0  0
  8  9  1  0  0  0  0
  9 10  1  0  0  0  0
  9 13  1  1  0  0  0
 10 12  1  0  0  0  0
 11 12  1  0  0  0  0
M  END
>  <CHROM.1>
7.01902948,41.23848214,71.20117450,-2.35904128,0.90795695,-0.19979902

>  <Name>
ligand

>  <RI>
0

>  <Rbt.Current_Directory>
/home/itssahil/PROJECTS/Mol_Feturizer/New_Systems/rnas/3SUX

>  <Rbt.Executable>
rbdock ($Id: //depot/dev/client3/rdock/2013.1/src/exe/rbdock.cxx#4 $)

>  <Rbt.Library>
libRbt.so (2013.1, Build901 2013/11/27)

>  <Rbt.Parameter_File>
/export/apps/rDock/src/rDock_2013.1_src/data/scripts/dock_solv.prm

>  <Rbt.Receptor>
prm/pocket_docking_7.prm

>  <SCORE>
-9.25116

>  <SCORE.INTER>
-9.25116

>  <SCORE.INTER.CONST>
1

>  <SCORE.INTER.POLAR>
0

>  <SCORE.INTER.ROT>
0

>  <SCORE.INTER.SOLV>
9.76497

>  <SCORE.INTER.VDW>
-13.0224

>  <SCORE.INTER.norm>
-0.711628

>  <SCORE.INTRA>
0

>  <SCORE.INTRA.DIHEDRAL>
0

>  <SCORE.INTRA.DIHEDRAL.0>
0

>  <SCORE.INTRA.POLAR>
0

>  <SCORE.INTRA.POLAR.0>
0

>  <SCORE.INTRA.REPUL>
0

>  <SCORE.INTRA.REPUL.0>
0

>  <SCORE.INTRA.SOLV>
0

>  <SCORE.INTRA.SOLV.lig_0>
-48.6608

>  <SCORE.INTRA.VDW>
0

>  <SCORE.INTRA.VDW.0>
0

>  <SCORE.INTRA.norm>
0

>  <SCORE.RESTR>
0

>  <SCORE.RESTR.CAVITY>
0

>  <SCORE.RESTR.norm>
0

>  <SCORE.SYSTEM>
0

>  <SCORE.SYSTEM.CONST>
0

>  <SCORE.SYSTEM.DIHEDRAL>
0

>  <SCORE.SYSTEM.SOLV>
0

>  <SCORE.SYSTEM.norm>
0

>  <SCORE.heavy>
13

>  <SCORE.norm>
-0.711628

>  <RMSD>
6.622

$$$$
ligand
 OpenBabel11021811483D
libRbt.so/2013.1/901 2013/11/27
 13 14  0  0  0  0  0  0  0  0999 V2000
    6.1511   38.2707   73.3313 N   0  0  0  0  0  0  0  0  0  0  0  0
    7.1280   39.3987   71.5573 N   0  0  0  0  0  0  0  0  0  0  0  0
    6.3505   39.3988   72.6557 C   0  0  0  0  0  0  0  0  0  0  0  0
    5.7379   40.5747   73.0869 N   0  0  0  0  0  0  0  0  0  0  0  0
    5.9616   41.7463   72.3609 C   0  0  0  0  0  0  0  0  0  0  0  0
    6.7814   41.7221   71.2373 C   0  0  0  0  0  0  0  0  0  0  0  0
    5.4285   42.7981   72.7126 O   0  0  0  0  0  0  0  0  0  0  0  0
    6.9722   42.8946   70.4816 N   0  0  0  0  0  0  0  0  0  0  0  0
    7.8791   42.9436   69.2998 C   0  0  2  0  0  0  0  0  0  0  0  0
    7.9453   41.5488   68.6549 C   0  0  0  0  0  0  0  0  0  0  0  0
    7.3447   40.5172   70.8421 C   0  0  0  0  0  0  0  0  0  0  0  0
    8.1504   40.4850   69.6975 N   0  0  0  0  0  0  0  0  0  0  0  0
    9.2981   43.3718   69.7802 C   0  0  0  0  0  0  0  0  0  0  0  0
  1  3  1  0  0  0  0
  2  3  2  0  0  0  0
  2 11  1  0  0  0  0
  3  4  1  0  0  0  0
  4  5  1  0  0  0  0
  5  6  1  0  0  0  0
  5  7  2  0  0  0  0
  6  8  1  0  0  0  0
  6 11  2  0  0  0  0
  8  9  1  0  0  0  0
  9 10  1  0  0  0  0
  9 13  1  1  0  0  0
 10 12  1  0  0  0  0
 11 12  1  0  0  0  0
M  END
>  <CHROM.1>
7.01875571,41.24263665,71.20098942,-2.36351102,0.90701846,-0.19779126

>  <Name>
ligand

>  <RI>
0

>  <Rbt.Current_Directory>
/home/itssahil/PROJECTS/Mol_Feturizer/New_Systems/rnas/3SUX

>  <Rbt.Executable>
rbdock ($Id: //depot/dev/client3/rdock/2013.1/src/exe/rbdock.cxx#4 $)

>  <Rbt.Library>
libRbt.so (2013.1, Build901 2013/11/27)

>  <Rbt.Parameter_File>
/export/apps/rDock/src/rDock_2013.1_src/data/scripts/dock_solv.prm

>  <Rbt.Receptor>
prm/pocket_docking_7.prm

>  <SCORE>
-9.24845

>  <SCORE.INTER>
-9.24845

>  <SCORE.INTER.CONST>
1

>  <SCORE.INTER.POLAR>
0

>  <SCORE.INTER.ROT>
0

>  <SCORE.INTER.SOLV>
9.79142

>  <SCORE.INTER.VDW>
-13.0294

>  <SCORE.INTER.norm>
-0.711419

>  <SCORE.INTRA>
0

>  <SCORE.INTRA.DIHEDRAL>
0

>  <SCORE.INTRA.DIHEDRAL.0>
0

>  <SCORE.INTRA.POLAR>
0

>  <SCORE.INTRA.POLAR.0>
0

>  <SCORE.INTRA.REPUL>
0

>  <SCORE.INTRA.REPUL.0>
0

>  <SCORE.INTRA.SOLV>
0

>  <SCORE.INTRA.SOLV.lig_0>
-48.6608

>  <SCORE.INTRA.VDW>
0

>  <SCORE.INTRA.VDW.0>
0

>  <SCORE.INTRA.norm>
0

>  <SCORE.RESTR>
0

>  <SCORE.RESTR.CAVITY>
0

>  <SCORE.RESTR.norm>
0

>  <SCORE.SYSTEM>
0

>  <SCORE.SYSTEM.CONST>
0

>  <SCORE.SYSTEM.DIHEDRAL>
0

>  <SCORE.SYSTEM.SOLV>
0

>  <SCORE.SYSTEM.norm>
0

>  <SCORE.heavy>
13

>  <SCORE.norm>
-0.711419

>  <RMSD>
6.622

$$$$
ligand
 OpenBabel11021811483D
libRbt.so/2013.1/901 2013/11/27
 13 14  0  0  0  0  0  0  0  0999 V2000
    6.1471   38.2708   73.3307 N   0  0  0  0  0  0  0  0  0  0  0  0
    7.1274   39.3990   71.5587 N   0  0  0  0  0  0  0  0  0  0  0  0
    6.3474   39.3989   72.6554 C   0  0  0  0  0  0  0  0  0  0  0  0
    5.7334   40.5747   73.0851 N   0  0  0  0  0  0  0  0  0  0  0  0
    5.9581   41.7462   72.3594 C   0  0  0  0  0  0  0  0  0  0  0  0
    6.7804   41.7222   71.2376 C   0  0  0  0  0  0  0  0  0  0  0  0
    5.4238   42.7978   72.7098 O   0  0  0  0  0  0  0  0  0  0  0  0
    6.9724   42.8946   70.4821 N   0  0  0  0  0  0  0  0  0  0  0  0
    7.8818   42.9439   69.3023 C   0  0  2  0  0  0  0  0  0  0  0  0
    7.9500   41.5490   68.6577 C   0  0  0  0  0  0  0  0  0  0  0  0
    7.3452   40.5175   70.8437 C   0  0  0  0  0  0  0  0  0  0  0  0
    8.1533   40.4854   69.7009 N   0  0  0  0  0  0  0  0  0  0  0  0
    9.2996   43.3727   69.7856 C   0  0  0  0  0  0  0  0  0  0  0  0
  1  3  1  0  0  0  0
  2  3  2  0  0  0  0
  2 11  1  0  0  0  0
  3  4  1  0  0  0  0
  4  5  1  0  0  0  0
  5  6  1  0  0  0  0
  5  7  2  0  0  0  0
  6  8  1  0  0  0  0
  6 11  2  0  0  0  0
  8  9  1  0  0  0  0
  9 10  1  0  0  0  0
  9 13  1  1  0  0  0
 10 12  1  0  0  0  0
 11 12  1  0  0  0  0
M  END
>  <CHROM.1>
7.01806484,41.24283109,71.20184140,-2.36349853,0.90479802,-0.19797117

>  <Name>
ligand

>  <RI>
0

>  <Rbt.Current_Directory>
/home/itssahil/PROJECTS/Mol_Feturizer/New_Systems/rnas/3SUX

>  <Rbt.Executable>
rbdock ($Id: //depot/dev/client3/rdock/2013.1/src/exe/rbdock.cxx#4 $)

>  <Rbt.Library>
libRbt.so (2013.1, Build901 2013/11/27)

>  <Rbt.Parameter_File>
/export/apps/rDock/src/rDock_2013.1_src/data/scripts/dock_solv.prm

>  <Rbt.Receptor>
prm/pocket_docking_7.prm

>  <SCORE>
-9.25102

>  <SCORE.INTER>
-9.25102

>  <SCORE.INTER.CONST>
1

>  <SCORE.INTER.POLAR>
0

>  <SCORE.INTER.ROT>
0

>  <SCORE.INTER.SOLV>
9.80084

>  <SCORE.INTER.VDW>
-13.0343

>  <SCORE.INTER.norm>
-0.711617

>  <SCORE.INTRA>
0

>  <SCORE.INTRA.DIHEDRAL>
0

>  <SCORE.INTRA.DIHEDRAL.0>
0

>  <SCORE.INTRA.POLAR>
0

>  <SCORE.INTRA.POLAR.0>
0

>  <SCORE.INTRA.REPUL>
0

>  <SCORE.INTRA.REPUL.0>
0

>  <SCORE.INTRA.SOLV>
0

>  <SCORE.INTRA.SOLV.lig_0>
-48.6608

>  <SCORE.INTRA.VDW>
0

>  <SCORE.INTRA.VDW.0>
0

>  <SCORE.INTRA.norm>
0

>  <SCORE.RESTR>
0

>  <SCORE.RESTR.CAVITY>
0

>  <SCORE.RESTR.norm>
0

>  <SCORE.SYSTEM>
0

>  <SCORE.SYSTEM.CONST>
0

>  <SCORE.SYSTEM.DIHEDRAL>
0

>  <SCORE.SYSTEM.SOLV>
0

>  <SCORE.SYSTEM.norm>
0

>  <SCORE.heavy>
13

>  <SCORE.norm>
-0.711617

>  <RMSD>
6.623

$$$$
ligand
 OpenBabel11021811483D
libRbt.so/2013.1/901 2013/11/27
 13 14  0  0  0  0  0  0  0  0999 V2000
    6.1519   38.2729   73.3322 N   0  0  0  0  0  0  0  0  0  0  0  0
    7.1276   39.4009   71.5575 N   0  0  0  0  0  0  0  0  0  0  0  0
    6.3499   39.4008   72.6559 C   0  0  0  0  0  0  0  0  0  0  0  0
    5.7358   40.5762   73.0861 N   0  0  0  0  0  0  0  0  0  0  0  0
    5.9580   41.7476   72.3593 C   0  0  0  0  0  0  0  0  0  0  0  0
    6.7781   41.7237   71.2359 C   0  0  0  0  0  0  0  0  0  0  0  0
    5.4236   42.7989   72.7102 O   0  0  0  0  0  0  0  0  0  0  0  0
    6.9675   42.8958   70.4793 N   0  0  0  0  0  0  0  0  0  0  0  0
    7.8746   42.9451   69.2976 C   0  0  2  0  0  0  0  0  0  0  0  0
    7.9426   41.5499   68.6537 C   0  0  0  0  0  0  0  0  0  0  0  0
    7.3430   40.5191   70.8415 C   0  0  0  0  0  0  0  0  0  0  0  0
    8.1489   40.4871   69.6971 N   0  0  0  0  0  0  0  0  0  0  0  0
    9.2929   43.3754   69.7779 C   0  0  0  0  0  0  0  0  0  0  0  0
  1  3  1  0  0  0  0
  2  3  2  0  0  0  0
  2 11  1  0  0  0  0
  3  4  1  0  0  0  0
  4  5  1  0  0  0  0
  5  6  1  0  0  0  0
  5  7  2  0  0  0  0
  6  8  1  0  0  0  0
  6 11  2  0  0  0  0
  8  9  1  0  0  0  0
  9 10  1  0  0  0  0
  9 13  1  1  0  0  0
 10 12  1  0  0  0  0
 11 12  1  0  0  0  0
M  END
>  <CHROM.1>
7.01605988,41.24443561,71.19988504,-2.36152749,0.90660868,-0.20007701

>  <Name>
ligand

>  <RI>
0

>  <Rbt.Current_Directory>
/home/itssahil/PROJECTS/Mol_Feturizer/New_Systems/rnas/3SUX

>  <Rbt.Executable>
rbdock ($Id: //depot/dev/client3/rdock/2013.1/src/exe/rbdock.cxx#4 $)

>  <Rbt.Library>
libRbt.so (2013.1, Build901 2013/11/27)

>  <Rbt.Parameter_File>
/export/apps/rDock/src/rDock_2013.1_src/data/scripts/dock_solv.prm

>  <Rbt.Receptor>
prm/pocket_docking_7.prm

>  <SCORE>
-9.24717

>  <SCORE.INTER>
-9.24717

>  <SCORE.INTER.CONST>
1

>  <SCORE.INTER.POLAR>
0

>  <SCORE.INTER.ROT>
0

>  <SCORE.INTER.SOLV>
9.81402

>  <SCORE.INTER.VDW>
-13.0361

>  <SCORE.INTER.norm>
-0.711321

>  <SCORE.INTRA>
0

>  <SCORE.INTRA.DIHEDRAL>
0

>  <SCORE.INTRA.DIHEDRAL.0>
0

>  <SCORE.INTRA.POLAR>
0

>  <SCORE.INTRA.POLAR.0>
0

>  <SCORE.INTRA.REPUL>
0

>  <SCORE.INTRA.REPUL.0>
0

>  <SCORE.INTRA.SOLV>
0

>  <SCORE.INTRA.SOLV.lig_0>
-48.6608

>  <SCORE.INTRA.VDW>
0

>  <SCORE.INTRA.VDW.0>
0

>  <SCORE.INTRA.norm>
0

>  <SCORE.RESTR>
0

>  <SCORE.RESTR.CAVITY>
0

>  <SCORE.RESTR.norm>
0

>  <SCORE.SYSTEM>
0

>  <SCORE.SYSTEM.CONST>
0

>  <SCORE.SYSTEM.DIHEDRAL>
0

>  <SCORE.SYSTEM.SOLV>
0

>  <SCORE.SYSTEM.norm>
0

>  <SCORE.heavy>
13

>  <SCORE.norm>
-0.711321

>  <RMSD>
6.623

$$$$
ligand
 OpenBabel11021811483D
libRbt.so/2013.1/901 2013/11/27
 13 14  0  0  0  0  0  0  0  0999 V2000
    6.1556   38.2632   73.3312 N   0  0  0  0  0  0  0  0  0  0  0  0
    7.1298   39.3944   71.5578 N   0  0  0  0  0  0  0  0  0  0  0  0
    6.3530   39.3923   72.6568 C   0  0  0  0  0  0  0  0  0  0  0  0
    5.7393   40.5670   73.0897 N   0  0  0  0  0  0  0  0  0  0  0  0
    5.9609   41.7397   72.3648 C   0  0  0  0  0  0  0  0  0  0  0  0
    6.7800   41.7178   71.2406 C   0  0  0  0  0  0  0  0  0  0  0  0
    5.4268   42.7904   72.7181 O   0  0  0  0  0  0  0  0  0  0  0  0
    6.9688   42.8913   70.4861 N   0  0  0  0  0  0  0  0  0  0  0  0
    7.8748   42.9428   69.3037 C   0  0  2  0  0  0  0  0  0  0  0  0
    7.9423   41.5488   68.6572 C   0  0  0  0  0  0  0  0  0  0  0  0
    7.3446   40.5140   70.8436 C   0  0  0  0  0  0  0  0  0  0  0  0
    8.1495   40.4841   69.6985 N   0  0  0  0  0  0  0  0  0  0  0  0
    9.2936   43.3722   69.7835 C   0  0  0  0  0  0  0  0  0  0  0  0
  1  3  1  0  0  0  0
  2  3  2  0  0  0  0
  2 11  1  0  0  0  0
  3  4  1  0  0  0  0
  4  5  1  0  0  0  0
  5  6  1  0  0  0  0
  5  7  2  0  0  0  0
  6  8  1  0  0  0  0
  6 11  2  0  0  0  0
  8  9  1  0  0  0  0
  9 10  1  0  0  0  0
  9 13  1  1  0  0  0
 10 12  1  0  0  0  0
 11 12  1  0  0  0  0
M  END
>  <CHROM.1>
7.01793720,41.23865448,71.20359451,-2.36128934,0.90746510,-0.19843521

>  <Name>
ligand

>  <RI>
0

>  <Rbt.Current_Directory>
/home/itssahil/PROJECTS/Mol_Feturizer/New_Systems/rnas/3SUX

>  <Rbt.Executable>
rbdock ($Id: //depot/dev/client3/rdock/2013.1/src/exe/rbdock.cxx#4 $)

>  <Rbt.Library>
libRbt.so (2013.1, Build901 2013/11/27)

>  <Rbt.Parameter_File>
/export/apps/rDock/src/rDock_2013.1_src/data/scripts/dock_solv.prm

>  <Rbt.Receptor>
prm/pocket_docking_7.prm

>  <SCORE>
-9.25116

>  <SCORE.INTER>
-9.25116

>  <SCORE.INTER.CONST>
1

>  <SCORE.INTER.POLAR>
0

>  <SCORE.INTER.ROT>
0

>  <SCORE.INTER.SOLV>
9.76977

>  <SCORE.INTER.VDW>
-13.024

>  <SCORE.INTER.norm>
-0.711628

>  <SCORE.INTRA>
0

>  <SCORE.INTRA.DIHEDRAL>
0

>  <SCORE.INTRA.DIHEDRAL.0>
0

>  <SCORE.INTRA.POLAR>
0

>  <SCORE.INTRA.POLAR.0>
0

>  <SCORE.INTRA.REPUL>
0

>  <SCORE.INTRA.REPUL.0>
0

>  <SCORE.INTRA.SOLV>
0

>  <SCORE.INTRA.SOLV.lig_0>
-48.6608

>  <SCORE.INTRA.VDW>
0

>  <SCORE.INTRA.VDW.0>
0

>  <SCORE.INTRA.norm>
0

>  <SCORE.RESTR>
0

>  <SCORE.RESTR.CAVITY>
0

>  <SCORE.RESTR.norm>
0

>  <SCORE.SYSTEM>
0

>  <SCORE.SYSTEM.CONST>
0

>  <SCORE.SYSTEM.DIHEDRAL>
0

>  <SCORE.SYSTEM.SOLV>
0

>  <SCORE.SYSTEM.norm>
0

>  <SCORE.heavy>
13

>  <SCORE.norm>
-0.711628

>  <RMSD>
6.624

$$$$
ligand
 OpenBabel11021811483D
libRbt.so/2013.1/901 2013/11/27
 13 14  0  0  0  0  0  0  0  0999 V2000
    6.1627   38.2524   73.3309 N   0  0  0  0  0  0  0  0  0  0  0  0
    7.1298   39.3850   71.5545 N   0  0  0  0  0  0  0  0  0  0  0  0
    6.3579   39.3822   72.6570 C   0  0  0  0  0  0  0  0  0  0  0  0
    5.7469   40.5567   73.0940 N   0  0  0  0  0  0  0  0  0  0  0  0
    5.9661   41.7301   72.3695 C   0  0  0  0  0  0  0  0  0  0  0  0
    6.7801   41.7090   71.2417 C   0  0  0  0  0  0  0  0  0  0  0  0
    5.4342   42.7808   72.7264 O   0  0  0  0  0  0  0  0  0  0  0  0
    6.9663   42.8833   70.4877 N   0  0  0  0  0  0  0  0  0  0  0  0
    7.8671   42.9356   69.3014 C   0  0  2  0  0  0  0  0  0  0  0  0
    7.9308   41.5423   68.6529 C   0  0  0  0  0  0  0  0  0  0  0  0
    7.3421   40.5053   70.8408 C   0  0  0  0  0  0  0  0  0  0  0  0
    8.1419   40.4762   69.6920 N   0  0  0  0  0  0  0  0  0  0  0  0
    9.2883   43.3635   69.7754 C   0  0  0  0  0  0  0  0  0  0  0  0
  1  3  1  0  0  0  0
  2  3  2  0  0  0  0
  2 11  1  0  0  0  0
  3  4  1  0  0  0  0
  4  5  1  0  0  0  0
  5  6  1  0  0  0  0
  5  7  2  0  0  0  0
  6  8  1  0  0  0  0
  6 11  2  0  0  0  0
  8  9  1  0  0  0  0
  9 10  1  0  0  0  0
  9 13  1  1  0  0  0
 10 12  1  0  0  0  0
 11 12  1  0  0  0  0
M  END
>  <CHROM.1>
7.01757093,41.22975382,71.20303234,-2.36089917,0.91195218,-0.19756317

>  <Name>
ligand

>  <RI>
0

>  <Rbt.Current_Directory>
/home/itssahil/PROJECTS/Mol_Feturizer/New_Systems/rnas/3SUX

>  <Rbt.Executable>
rbdock ($Id: //depot/dev/client3/rdock/2013.1/src/exe/rbdock.cxx#4 $)

>  <Rbt.Library>
libRbt.so (2013.1, Build901 2013/11/27)

>  <Rbt.Parameter_File>
/export/apps/rDock/src/rDock_2013.1_src/data/scripts/dock_solv.prm

>  <Rbt.Receptor>
prm/pocket_docking_8.prm

>  <SCORE>
-9.24146

>  <SCORE.INTER>
-9.24146

>  <SCORE.INTER.CONST>
1

>  <SCORE.INTER.POLAR>
0

>  <SCORE.INTER.ROT>
0

>  <SCORE.INTER.SOLV>
9.76283

>  <SCORE.INTER.VDW>
-13.0152

>  <SCORE.INTER.norm>
-0.710881

>  <SCORE.INTRA>
0

>  <SCORE.INTRA.DIHEDRAL>
0

>  <SCORE.INTRA.DIHEDRAL.0>
0

>  <SCORE.INTRA.POLAR>
0

>  <SCORE.INTRA.POLAR.0>
0

>  <SCORE.INTRA.REPUL>
0

>  <SCORE.INTRA.REPUL.0>
0

>  <SCORE.INTRA.SOLV>
0

>  <SCORE.INTRA.SOLV.lig_0>
-48.6608

>  <SCORE.INTRA.VDW>
0

>  <SCORE.INTRA.VDW.0>
0

>  <SCORE.INTRA.norm>
0

>  <SCORE.RESTR>
0

>  <SCORE.RESTR.CAVITY>
0

>  <SCORE.RESTR.norm>
0

>  <SCORE.SYSTEM>
0

>  <SCORE.SYSTEM.CONST>
0

>  <SCORE.SYSTEM.DIHEDRAL>
0

>  <SCORE.SYSTEM.SOLV>
0

>  <SCORE.SYSTEM.norm>
0

>  <SCORE.heavy>
13

>  <SCORE.norm>
-0.710881

>  <RMSD>
6.626

$$$$
ligand
 OpenBabel11021811483D
libRbt.so/2013.1/901 2013/11/27
 13 14  0  0  0  0  0  0  0  0999 V2000
    6.1309   38.2812   73.3372 N   0  0  0  0  0  0  0  0  0  0  0  0
    7.1184   39.4040   71.5658 N   0  0  0  0  0  0  0  0  0  0  0  0
    6.3349   39.4075   72.6600 C   0  0  0  0  0  0  0  0  0  0  0  0
    5.7211   40.5850   73.0851 N   0  0  0  0  0  0  0  0  0  0  0  0
    5.9497   41.7546   72.3575 C   0  0  0  0  0  0  0  0  0  0  0  0
    6.7756   41.7271   71.2384 C   0  0  0  0  0  0  0  0  0  0  0  0
    5.4157   42.8077   72.7038 O   0  0  0  0  0  0  0  0  0  0  0  0
    6.9716   42.8975   70.4810 N   0  0  0  0  0  0  0  0  0  0  0  0
    7.8849   42.9429   69.3040 C   0  0  2  0  0  0  0  0  0  0  0  0
    7.9533   41.5465   68.6628 C   0  0  0  0  0  0  0  0  0  0  0  0
    7.3400   40.5206   70.8491 C   0  0  0  0  0  0  0  0  0  0  0  0
    8.1518   40.4850   69.7090 N   0  0  0  0  0  0  0  0  0  0  0  0
    9.3016   43.3709   69.7910 C   0  0  0  0  0  0  0  0  0  0  0  0
  1  3  1  0  0  0  0
  2  3  2  0  0  0  0
  2 11  1  0  0  0  0
  3  4  1  0  0  0  0
  4  5  1  0  0  0  0
  5  6  1  0  0  0  0
  5  7  2  0  0  0  0
  6  8  1  0  0  0  0
  6 11  2  0  0  0  0
  8  9  1  0  0  0  0
  9 10  1  0  0  0  0
  9 13  1  1  0  0  0
 10 12  1  0  0  0  0
 11 12  1  0  0  0  0
M  END
>  <CHROM.1>
7.01269707,41.24724870,71.20452126,-2.36665458,0.90188014,-0.19772099

>  <Name>
ligand

>  <RI>
0

>  <Rbt.Current_Directory>
/home/itssahil/PROJECTS/Mol_Feturizer/New_Systems/rnas/3SUX

>  <Rbt.Executable>
rbdock ($Id: //depot/dev/client3/rdock/2013.1/src/exe/rbdock.cxx#4 $)

>  <Rbt.Library>
libRbt.so (2013.1, Build901 2013/11/27)

>  <Rbt.Parameter_File>
/export/apps/rDock/src/rDock_2013.1_src/data/scripts/dock_solv.prm

>  <Rbt.Receptor>
prm/pocket_docking_7.prm

>  <SCORE>
-9.24835

>  <SCORE.INTER>
-9.24835

>  <SCORE.INTER.CONST>
1

>  <SCORE.INTER.POLAR>
0

>  <SCORE.INTER.ROT>
0

>  <SCORE.INTER.SOLV>
9.85277

>  <SCORE.INTER.VDW>
-13.0498

>  <SCORE.INTER.norm>
-0.711412

>  <SCORE.INTRA>
0

>  <SCORE.INTRA.DIHEDRAL>
0

>  <SCORE.INTRA.DIHEDRAL.0>
0

>  <SCORE.INTRA.POLAR>
0

>  <SCORE.INTRA.POLAR.0>
0

>  <SCORE.INTRA.REPUL>
0

>  <SCORE.INTRA.REPUL.0>
0

>  <SCORE.INTRA.SOLV>
0

>  <SCORE.INTRA.SOLV.lig_0>
-48.6608

>  <SCORE.INTRA.VDW>
0

>  <SCORE.INTRA.VDW.0>
0

>  <SCORE.INTRA.norm>
0

>  <SCORE.RESTR>
0

>  <SCORE.RESTR.CAVITY>
0

>  <SCORE.RESTR.norm>
0

>  <SCORE.SYSTEM>
0

>  <SCORE.SYSTEM.CONST>
0

>  <SCORE.SYSTEM.DIHEDRAL>
0

>  <SCORE.SYSTEM.SOLV>
0

>  <SCORE.SYSTEM.norm>
0

>  <SCORE.heavy>
13

>  <SCORE.norm>
-0.711412

>  <RMSD>
6.627

$$$$
ligand
 OpenBabel11021811483D
libRbt.so/2013.1/901 2013/11/27
 13 14  0  0  0  0  0  0  0  0999 V2000
    6.1685   38.2524   73.3296 N   0  0  0  0  0  0  0  0  0  0  0  0
    7.1372   39.3899   71.5572 N   0  0  0  0  0  0  0  0  0  0  0  0
    6.3599   39.3829   72.6558 C   0  0  0  0  0  0  0  0  0  0  0  0
    5.7394   40.5539   73.0890 N   0  0  0  0  0  0  0  0  0  0  0  0
    5.9548   41.7282   72.3648 C   0  0  0  0  0  0  0  0  0  0  0  0
    6.7745   41.7114   71.2410 C   0  0  0  0  0  0  0  0  0  0  0  0
    5.4146   42.7757   72.7183 O   0  0  0  0  0  0  0  0  0  0  0  0
    6.9571   42.8863   70.4871 N   0  0  0  0  0  0  0  0  0  0  0  0
    7.8634   42.9435   69.3052 C   0  0  2  0  0  0  0  0  0  0  0  0
    7.9390   41.5501   68.6580 C   0  0  0  0  0  0  0  0  0  0  0  0
    7.3461   40.5110   70.8437 C   0  0  0  0  0  0  0  0  0  0  0  0
    8.1517   40.4861   69.6989 N   0  0  0  0  0  0  0  0  0  0  0  0
    9.2795   43.3806   69.7858 C   0  0  0  0  0  0  0  0  0  0  0  0
  1  3  1  0  0  0  0
  2  3  2  0  0  0  0
  2 11  1  0  0  0  0
  3  4  1  0  0  0  0
  4  5  1  0  0  0  0
  5  6  1  0  0  0  0
  5  7  2  0  0  0  0
  6  8  1  0  0  0  0
  6 11  2  0  0  0  0
  8  9  1  0  0  0  0
  9 10  1  0  0  0  0
  9 13  1  1  0  0  0
 10 12  1  0  0  0  0
 11 12  1  0  0  0  0
M  END
>  <CHROM.1>
7.01517292,41.23361651,71.20383340,-2.35249462,0.90587036,-0.20489249

>  <Name>
ligand

>  <RI>
0

>  <Rbt.Current_Directory>
/home/itssahil/PROJECTS/Mol_Feturizer/New_Systems/rnas/3SUX

>  <Rbt.Executable>
rbdock ($Id: //depot/dev/client3/rdock/2013.1/src/exe/rbdock.cxx#4 $)

>  <Rbt.Library>
libRbt.so (2013.1, Build901 2013/11/27)

>  <Rbt.Parameter_File>
/export/apps/rDock/src/rDock_2013.1_src/data/scripts/dock_solv.prm

>  <Rbt.Receptor>
prm/pocket_docking_7.prm

>  <SCORE>
-9.25744

>  <SCORE.INTER>
-9.25744

>  <SCORE.INTER.CONST>
1

>  <SCORE.INTER.POLAR>
0

>  <SCORE.INTER.ROT>
0

>  <SCORE.INTER.SOLV>
9.76195

>  <SCORE.INTER.VDW>
-13.0256

>  <SCORE.INTER.norm>
-0.712111

>  <SCORE.INTRA>
0

>  <SCORE.INTRA.DIHEDRAL>
0

>  <SCORE.INTRA.DIHEDRAL.0>
0

>  <SCORE.INTRA.POLAR>
0

>  <SCORE.INTRA.POLAR.0>
0

>  <SCORE.INTRA.REPUL>
0

>  <SCORE.INTRA.REPUL.0>
0

>  <SCORE.INTRA.SOLV>
0

>  <SCORE.INTRA.SOLV.lig_0>
-48.6608

>  <SCORE.INTRA.VDW>
0

>  <SCORE.INTRA.VDW.0>
0

>  <SCORE.INTRA.norm>
0

>  <SCORE.RESTR>
0

>  <SCORE.RESTR.CAVITY>
0

>  <SCORE.RESTR.norm>
0

>  <SCORE.SYSTEM>
0

>  <SCORE.SYSTEM.CONST>
0

>  <SCORE.SYSTEM.DIHEDRAL>
0

>  <SCORE.SYSTEM.SOLV>
0

>  <SCORE.SYSTEM.norm>
0

>  <SCORE.heavy>
13

>  <SCORE.norm>
-0.712111

>  <RMSD>
6.627

$$$$
ligand
 OpenBabel11021811483D
libRbt.so/2013.1/901 2013/11/27
 13 14  0  0  0  0  0  0  0  0999 V2000
    6.1649   38.2493   73.3281 N   0  0  0  0  0  0  0  0  0  0  0  0
    7.1349   39.3872   71.5566 N   0  0  0  0  0  0  0  0  0  0  0  0
    6.3581   39.3803   72.6556 C   0  0  0  0  0  0  0  0  0  0  0  0
    5.7398   40.5519   73.0904 N   0  0  0  0  0  0  0  0  0  0  0  0
    5.9570   41.7266   72.3675 C   0  0  0  0  0  0  0  0  0  0  0  0
    6.7762   41.7097   71.2433 C   0  0  0  0  0  0  0  0  0  0  0  0
    5.4188   42.7747   72.7225 O   0  0  0  0  0  0  0  0  0  0  0  0
    6.9606   42.8852   70.4907 N   0  0  0  0  0  0  0  0  0  0  0  0
    7.8664   42.9421   69.3085 C   0  0  2  0  0  0  0  0  0  0  0  0
    7.9393   41.5494   68.6597 C   0  0  0  0  0  0  0  0  0  0  0  0
    7.3454   40.5088   70.8443 C   0  0  0  0  0  0  0  0  0  0  0  0
    8.1505   40.4838   69.6992 N   0  0  0  0  0  0  0  0  0  0  0  0
    9.2835   43.3762   69.7891 C   0  0  0  0  0  0  0  0  0  0  0  0
  1  3  1  0  0  0  0
  2  3  2  0  0  0  0
  2 11  1  0  0  0  0
  3  4  1  0  0  0  0
  4  5  1  0  0  0  0
  5  6  1  0  0  0  0
  5  7  2  0  0  0  0
  6  8  1  0  0  0  0
  6 11  2  0  0  0  0
  8  9  1  0  0  0  0
  9 10  1  0  0  0  0
  9 13  1  1  0  0  0
 10 12  1  0  0  0  0
 11 12  1  0  0  0  0
M  END
>  <CHROM.1>
7.01598966,41.23154248,71.20549449,-2.35519887,0.90664712,-0.20157527

>  <Name>
ligand

>  <RI>
0

>  <Rbt.Current_Directory>
/home/itssahil/PROJECTS/Mol_Feturizer/New_Systems/rnas/3SUX

>  <Rbt.Executable>
rbdock ($Id: //depot/dev/client3/rdock/2013.1/src/exe/rbdock.cxx#4 $)

>  <Rbt.Library>
libRbt.so (2013.1, Build901 2013/11/27)

>  <Rbt.Parameter_File>
/export/apps/rDock/src/rDock_2013.1_src/data/scripts/dock_solv.prm

>  <Rbt.Receptor>
prm/pocket_docking_8.prm

>  <SCORE>
-9.25678

>  <SCORE.INTER>
-9.25678

>  <SCORE.INTER.CONST>
1

>  <SCORE.INTER.POLAR>
0

>  <SCORE.INTER.ROT>
0

>  <SCORE.INTER.SOLV>
9.75254

>  <SCORE.INTER.VDW>
-13.022

>  <SCORE.INTER.norm>
-0.71206

>  <SCORE.INTRA>
0

>  <SCORE.INTRA.DIHEDRAL>
0

>  <SCORE.INTRA.DIHEDRAL.0>
0

>  <SCORE.INTRA.POLAR>
0

>  <SCORE.INTRA.POLAR.0>
0

>  <SCORE.INTRA.REPUL>
0

>  <SCORE.INTRA.REPUL.0>
0

>  <SCORE.INTRA.SOLV>
0

>  <SCORE.INTRA.SOLV.lig_0>
-48.6608

>  <SCORE.INTRA.VDW>
0

>  <SCORE.INTRA.VDW.0>
0

>  <SCORE.INTRA.norm>
0

>  <SCORE.RESTR>
0

>  <SCORE.RESTR.CAVITY>
0

>  <SCORE.RESTR.norm>
0

>  <SCORE.SYSTEM>
0

>  <SCORE.SYSTEM.CONST>
0

>  <SCORE.SYSTEM.DIHEDRAL>
0

>  <SCORE.SYSTEM.SOLV>
0

>  <SCORE.SYSTEM.norm>
0

>  <SCORE.heavy>
13

>  <SCORE.norm>
-0.71206

>  <RMSD>
6.628

$$$$
ligand
 OpenBabel11021811483D
libRbt.so/2013.1/901 2013/11/27
 13 14  0  0  0  0  0  0  0  0999 V2000
    6.1589   38.2554   73.3314 N   0  0  0  0  0  0  0  0  0  0  0  0
    7.1316   39.3902   71.5595 N   0  0  0  0  0  0  0  0  0  0  0  0
    6.3537   39.3854   72.6578 C   0  0  0  0  0  0  0  0  0  0  0  0
    5.7362   40.5581   73.0906 N   0  0  0  0  0  0  0  0  0  0  0  0
    5.9552   41.7318   72.3665 C   0  0  0  0  0  0  0  0  0  0  0  0
    6.7755   41.7128   71.2432 C   0  0  0  0  0  0  0  0  0  0  0  0
    5.4177   42.7808   72.7198 O   0  0  0  0  0  0  0  0  0  0  0  0
    6.9617   42.8872   70.4894 N   0  0  0  0  0  0  0  0  0  0  0  0
    7.8687   42.9418   69.3079 C   0  0  2  0  0  0  0  0  0  0  0  0
    7.9408   41.5483   68.6608 C   0  0  0  0  0  0  0  0  0  0  0  0
    7.3439   40.5108   70.8461 C   0  0  0  0  0  0  0  0  0  0  0  0
    8.1500   40.4837   69.7017 N   0  0  0  0  0  0  0  0  0  0  0  0
    9.2858   43.3750   69.7893 C   0  0  0  0  0  0  0  0  0  0  0  0
  1  3  1  0  0  0  0
  2  3  2  0  0  0  0
  2 11  1  0  0  0  0
  3  4  1  0  0  0  0
  4  5  1  0  0  0  0
  5  6  1  0  0  0  0
  5  7  2  0  0  0  0
  6  8  1  0  0  0  0
  6 11  2  0  0  0  0
  8  9  1  0  0  0  0
  9 10  1  0  0  0  0
  9 13  1  1  0  0  0
 10 12  1  0  0  0  0
 11 12  1  0  0  0  0
M  END
>  <CHROM.1>
7.01481828,41.23429999,71.20611875,-2.35705226,0.90592238,-0.20129152

>  <Name>
ligand

>  <RI>
0

>  <Rbt.Current_Directory>
/home/itssahil/PROJECTS/Mol_Feturizer/New_Systems/rnas/3SUX

>  <Rbt.Executable>
rbdock ($Id: //depot/dev/client3/rdock/2013.1/src/exe/rbdock.cxx#4 $)

>  <Rbt.Library>
libRbt.so (2013.1, Build901 2013/11/27)

>  <Rbt.Parameter_File>
/export/apps/rDock/src/rDock_2013.1_src/data/scripts/dock_solv.prm

>  <Rbt.Receptor>
prm/pocket_docking_8.prm

>  <SCORE>
-9.2557

>  <SCORE.INTER>
-9.2557

>  <SCORE.INTER.CONST>
1

>  <SCORE.INTER.POLAR>
0

>  <SCORE.INTER.ROT>
0

>  <SCORE.INTER.SOLV>
9.76877

>  <SCORE.INTER.VDW>
-13.0267

>  <SCORE.INTER.norm>
-0.711977

>  <SCORE.INTRA>
0

>  <SCORE.INTRA.DIHEDRAL>
0

>  <SCORE.INTRA.DIHEDRAL.0>
0

>  <SCORE.INTRA.POLAR>
0

>  <SCORE.INTRA.POLAR.0>
0

>  <SCORE.INTRA.REPUL>
0

>  <SCORE.INTRA.REPUL.0>
0

>  <SCORE.INTRA.SOLV>
0

>  <SCORE.INTRA.SOLV.lig_0>
-48.6608

>  <SCORE.INTRA.VDW>
0

>  <SCORE.INTRA.VDW.0>
0

>  <SCORE.INTRA.norm>
0

>  <SCORE.RESTR>
0

>  <SCORE.RESTR.CAVITY>
0

>  <SCORE.RESTR.norm>
0

>  <SCORE.SYSTEM>
0

>  <SCORE.SYSTEM.CONST>
0

>  <SCORE.SYSTEM.DIHEDRAL>
0

>  <SCORE.SYSTEM.SOLV>
0

>  <SCORE.SYSTEM.norm>
0

>  <SCORE.heavy>
13

>  <SCORE.norm>
-0.711977

>  <RMSD>
6.628

$$$$
ligand
 OpenBabel11021811483D
libRbt.so/2013.1/901 2013/11/27
 13 14  0  0  0  0  0  0  0  0999 V2000
    6.1235   38.2743   73.3275 N   0  0  0  0  0  0  0  0  0  0  0  0
    7.1123   39.4002   71.5588 N   0  0  0  0  0  0  0  0  0  0  0  0
    6.3285   39.4019   72.6528 C   0  0  0  0  0  0  0  0  0  0  0  0
    5.7153   40.5789   73.0800 N   0  0  0  0  0  0  0  0  0  0  0  0
    5.9449   41.7499   72.3549 C   0  0  0  0  0  0  0  0  0  0  0  0
    6.7711   41.7241   71.2361 C   0  0  0  0  0  0  0  0  0  0  0  0
    5.4115   42.8026   72.7032 O   0  0  0  0  0  0  0  0  0  0  0  0
    6.9681   42.8959   70.4811 N   0  0  0  0  0  0  0  0  0  0  0  0
    7.8819   42.9431   69.3045 C   0  0  2  0  0  0  0  0  0  0  0  0
    7.9496   41.5480   68.6604 C   0  0  0  0  0  0  0  0  0  0  0  0
    7.3349   40.5181   70.8444 C   0  0  0  0  0  0  0  0  0  0  0  0
    8.1471   40.4842   69.7045 N   0  0  0  0  0  0  0  0  0  0  0  0
    9.2987   43.3692   69.7928 C   0  0  0  0  0  0  0  0  0  0  0  0
  1  3  1  0  0  0  0
  2  3  2  0  0  0  0
  2 11  1  0  0  0  0
  3  4  1  0  0  0  0
  4  5  1  0  0  0  0
  5  6  1  0  0  0  0
  5  7  2  0  0  0  0
  6  8  1  0  0  0  0
  6 11  2  0  0  0  0
  8  9  1  0  0  0  0
  9 10  1  0  0  0  0
  9 13  1  1  0  0  0
 10 12  1  0  0  0  0
 11 12  1  0  0  0  0
M  END
>  <CHROM.1>
7.00796798,41.24416835,71.20123061,-2.36778861,0.90169555,-0.19477430

>  <Name>
ligand

>  <RI>
0

>  <Rbt.Current_Directory>
/home/itssahil/PROJECTS/Mol_Feturizer/New_Systems/rnas/3SUX

>  <Rbt.Executable>
rbdock ($Id: //depot/dev/client3/rdock/2013.1/src/exe/rbdock.cxx#4 $)

>  <Rbt.Library>
libRbt.so (2013.1, Build901 2013/11/27)

>  <Rbt.Parameter_File>
/export/apps/rDock/src/rDock_2013.1_src/data/scripts/dock_solv.prm

>  <Rbt.Receptor>
prm/pocket_docking_7.prm

>  <SCORE>
-9.23893

>  <SCORE.INTER>
-9.23893

>  <SCORE.INTER.CONST>
1

>  <SCORE.INTER.POLAR>
0

>  <SCORE.INTER.ROT>
0

>  <SCORE.INTER.SOLV>
9.9227

>  <SCORE.INTER.VDW>
-13.0669

>  <SCORE.INTER.norm>
-0.710687

>  <SCORE.INTRA>
0

>  <SCORE.INTRA.DIHEDRAL>
0

>  <SCORE.INTRA.DIHEDRAL.0>
0

>  <SCORE.INTRA.POLAR>
0

>  <SCORE.INTRA.POLAR.0>
0

>  <SCORE.INTRA.REPUL>
0

>  <SCORE.INTRA.REPUL.0>
0

>  <SCORE.INTRA.SOLV>
0

>  <SCORE.INTRA.SOLV.lig_0>
-48.6608

>  <SCORE.INTRA.VDW>
0

>  <SCORE.INTRA.VDW.0>
0

>  <SCORE.INTRA.norm>
0

>  <SCORE.RESTR>
0

>  <SCORE.RESTR.CAVITY>
0

>  <SCORE.RESTR.norm>
0

>  <SCORE.SYSTEM>
0

>  <SCORE.SYSTEM.CONST>
0

>  <SCORE.SYSTEM.DIHEDRAL>
0

>  <SCORE.SYSTEM.SOLV>
0

>  <SCORE.SYSTEM.norm>
0

>  <SCORE.heavy>
13

>  <SCORE.norm>
-0.710687

>  <RMSD>
6.629

$$$$
ligand
 OpenBabel11021811483D
libRbt.so/2013.1/901 2013/11/27
 13 14  0  0  0  0  0  0  0  0999 V2000
    6.1552   38.2545   73.3312 N   0  0  0  0  0  0  0  0  0  0  0  0
    7.1287   39.3890   71.5595 N   0  0  0  0  0  0  0  0  0  0  0  0
    6.3508   39.3844   72.6577 C   0  0  0  0  0  0  0  0  0  0  0  0
    5.7341   40.5575   73.0908 N   0  0  0  0  0  0  0  0  0  0  0  0
    5.9539   41.7311   72.3669 C   0  0  0  0  0  0  0  0  0  0  0  0
    6.7741   41.7118   71.2436 C   0  0  0  0  0  0  0  0  0  0  0  0
    5.4171   42.7804   72.7203 O   0  0  0  0  0  0  0  0  0  0  0  0
    6.9611   42.8862   70.4900 N   0  0  0  0  0  0  0  0  0  0  0  0
    7.8682   42.9404   69.3085 C   0  0  2  0  0  0  0  0  0  0  0  0
    7.9394   41.5470   68.6612 C   0  0  0  0  0  0  0  0  0  0  0  0
    7.3418   40.5095   70.8463 C   0  0  0  0  0  0  0  0  0  0  0  0
    8.1479   40.4821   69.7019 N   0  0  0  0  0  0  0  0  0  0  0  0
    9.2855   43.3726   69.7901 C   0  0  0  0  0  0  0  0  0  0  0  0
  1  3  1  0  0  0  0
  2  3  2  0  0  0  0
  2 11  1  0  0  0  0
  3  4  1  0  0  0  0
  4  5  1  0  0  0  0
  5  6  1  0  0  0  0
  5  7  2  0  0  0  0
  6  8  1  0  0  0  0
  6 11  2  0  0  0  0
  8  9  1  0  0  0  0
  9 10  1  0  0  0  0
  9 13  1  1  0  0  0
 10 12  1  0  0  0  0
 11 12  1  0  0  0  0
M  END
>  <CHROM.1>
7.01314729,41.23316061,71.20642880,-2.35810893,0.90604007,-0.20028257

>  <Name>
ligand

>  <RI>
0

>  <Rbt.Current_Directory>
/home/itssahil/PROJECTS/Mol_Feturizer/New_Systems/rnas/3SUX

>  <Rbt.Executable>
rbdock ($Id: //depot/dev/client3/rdock/2013.1/src/exe/rbdock.cxx#4 $)

>  <Rbt.Library>
libRbt.so (2013.1, Build901 2013/11/27)

>  <Rbt.Parameter_File>
/export/apps/rDock/src/rDock_2013.1_src/data/scripts/dock_solv.prm

>  <Rbt.Receptor>
prm/pocket_docking_7.prm

>  <SCORE>
-9.25314

>  <SCORE.INTER>
-9.25314

>  <SCORE.INTER.CONST>
1

>  <SCORE.INTER.POLAR>
0

>  <SCORE.INTER.ROT>
0

>  <SCORE.INTER.SOLV>
9.78597

>  <SCORE.INTER.VDW>
-13.0308

>  <SCORE.INTER.norm>
-0.71178

>  <SCORE.INTRA>
0

>  <SCORE.INTRA.DIHEDRAL>
0

>  <SCORE.INTRA.DIHEDRAL.0>
0

>  <SCORE.INTRA.POLAR>
0

>  <SCORE.INTRA.POLAR.0>
0

>  <SCORE.INTRA.REPUL>
0

>  <SCORE.INTRA.REPUL.0>
0

>  <SCORE.INTRA.SOLV>
0

>  <SCORE.INTRA.SOLV.lig_0>
-48.6608

>  <SCORE.INTRA.VDW>
0

>  <SCORE.INTRA.VDW.0>
0

>  <SCORE.INTRA.norm>
0

>  <SCORE.RESTR>
0

>  <SCORE.RESTR.CAVITY>
0

>  <SCORE.RESTR.norm>
0

>  <SCORE.SYSTEM>
0

>  <SCORE.SYSTEM.CONST>
0

>  <SCORE.SYSTEM.DIHEDRAL>
0

>  <SCORE.SYSTEM.SOLV>
0

>  <SCORE.SYSTEM.norm>
0

>  <SCORE.heavy>
13

>  <SCORE.norm>
-0.71178

>  <RMSD>
6.630

$$$$
ligand
 OpenBabel11021811483D
libRbt.so/2013.1/901 2013/11/27
 13 14  0  0  0  0  0  0  0  0999 V2000
    6.1730   38.2586   73.3315 N   0  0  0  0  0  0  0  0  0  0  0  0
    7.1389   39.3966   71.5579 N   0  0  0  0  0  0  0  0  0  0  0  0
    6.3589   39.3882   72.6546 C   0  0  0  0  0  0  0  0  0  0  0  0
    5.7298   40.5566   73.0824 N   0  0  0  0  0  0  0  0  0  0  0  0
    5.9395   41.7298   72.3549 C   0  0  0  0  0  0  0  0  0  0  0  0
    6.7622   41.7148   71.2333 C   0  0  0  0  0  0  0  0  0  0  0  0
    5.3917   42.7750   72.7037 O   0  0  0  0  0  0  0  0  0  0  0  0
    6.9392   42.8884   70.4761 N   0  0  0  0  0  0  0  0  0  0  0  0
    7.8481   42.9475   69.2963 C   0  0  2  0  0  0  0  0  0  0  0  0
    7.9342   41.5527   68.6539 C   0  0  0  0  0  0  0  0  0  0  0  0
    7.3424   40.5167   70.8413 C   0  0  0  0  0  0  0  0  0  0  0  0
    8.1511   40.4934   69.6987 N   0  0  0  0  0  0  0  0  0  0  0  0
    9.2601   43.3953   69.7792 C   0  0  0  0  0  0  0  0  0  0  0  0
  1  3  1  0  0  0  0
  2  3  2  0  0  0  0
  2 11  1  0  0  0  0
  3  4  1  0  0  0  0
  4  5  1  0  0  0  0
  5  6  1  0  0  0  0
  5  7  2  0  0  0  0
  6  8  1  0  0  0  0
  6 11  2  0  0  0  0
  8  9  1  0  0  0  0
  9 10  1  0  0  0  0
  9 13  1  1  0  0  0
 10 12  1  0  0  0  0
 11 12  1  0  0  0  0
M  END
>  <CHROM.1>
7.00597748,41.23838746,71.19828940,-2.34322062,0.90203390,-0.21538602

>  <Name>
ligand

>  <RI>
0

>  <Rbt.Current_Directory>
/home/itssahil/PROJECTS/Mol_Feturizer/New_Systems/rnas/3SUX

>  <Rbt.Executable>
rbdock ($Id: //depot/dev/client3/rdock/2013.1/src/exe/rbdock.cxx#4 $)

>  <Rbt.Library>
libRbt.so (2013.1, Build901 2013/11/27)

>  <Rbt.Parameter_File>
/export/apps/rDock/src/rDock_2013.1_src/data/scripts/dock_solv.prm

>  <Rbt.Receptor>
prm/pocket_docking_7.prm

>  <SCORE>
-9.24644

>  <SCORE.INTER>
-9.24644

>  <SCORE.INTER.CONST>
1

>  <SCORE.INTER.POLAR>
0

>  <SCORE.INTER.ROT>
0

>  <SCORE.INTER.SOLV>
9.85254

>  <SCORE.INTER.VDW>
-13.0485

>  <SCORE.INTER.norm>
-0.711265

>  <SCORE.INTRA>
0

>  <SCORE.INTRA.DIHEDRAL>
0

>  <SCORE.INTRA.DIHEDRAL.0>
0

>  <SCORE.INTRA.POLAR>
0

>  <SCORE.INTRA.POLAR.0>
0

>  <SCORE.INTRA.REPUL>
0

>  <SCORE.INTRA.REPUL.0>
0

>  <SCORE.INTRA.SOLV>
0

>  <SCORE.INTRA.SOLV.lig_0>
-48.6608

>  <SCORE.INTRA.VDW>
0

>  <SCORE.INTRA.VDW.0>
0

>  <SCORE.INTRA.norm>
0

>  <SCORE.RESTR>
0

>  <SCORE.RESTR.CAVITY>
0

>  <SCORE.RESTR.norm>
0

>  <SCORE.SYSTEM>
0

>  <SCORE.SYSTEM.CONST>
0

>  <SCORE.SYSTEM.DIHEDRAL>
0

>  <SCORE.SYSTEM.SOLV>
0

>  <SCORE.SYSTEM.norm>
0

>  <SCORE.heavy>
13

>  <SCORE.norm>
-0.711265

>  <RMSD>
6.630

$$$$
ligand
 OpenBabel11021811483D
libRbt.so/2013.1/901 2013/11/27
 13 14  0  0  0  0  0  0  0  0999 V2000
    6.1718   38.2573   73.3319 N   0  0  0  0  0  0  0  0  0  0  0  0
    7.1384   39.3952   71.5586 N   0  0  0  0  0  0  0  0  0  0  0  0
    6.3585   39.3870   72.6554 C   0  0  0  0  0  0  0  0  0  0  0  0
    5.7305   40.5558   73.0838 N   0  0  0  0  0  0  0  0  0  0  0  0
    5.9411   41.7291   72.3568 C   0  0  0  0  0  0  0  0  0  0  0  0
    6.7636   41.7138   71.2350 C   0  0  0  0  0  0  0  0  0  0  0  0
    5.3943   42.7747   72.7061 O   0  0  0  0  0  0  0  0  0  0  0  0
    6.9415   42.8876   70.4783 N   0  0  0  0  0  0  0  0  0  0  0  0
    7.8503   42.9464   69.2983 C   0  0  2  0  0  0  0  0  0  0  0  0
    7.9351   41.5518   68.6553 C   0  0  0  0  0  0  0  0  0  0  0  0
    7.3427   40.5155   70.8424 C   0  0  0  0  0  0  0  0  0  0  0  0
    8.1512   40.4919   69.6997 N   0  0  0  0  0  0  0  0  0  0  0  0
    9.2628   43.3928   69.7812 C   0  0  0  0  0  0  0  0  0  0  0  0
  1  3  1  0  0  0  0
  2  3  2  0  0  0  0
  2 11  1  0  0  0  0
  3  4  1  0  0  0  0
  4  5  1  0  0  0  0
  5  6  1  0  0  0  0
  5  7  2  0  0  0  0
  6  8  1  0  0  0  0
  6 11  2  0  0  0  0
  8  9  1  0  0  0  0
  9 10  1  0  0  0  0
  9 13  1  1  0  0  0
 10 12  1  0  0  0  0
 11 12  1  0  0  0  0
M  END
>  <CHROM.1>
7.00699134,41.23725131,71.19978268,-2.34453969,0.90237926,-0.21394481

>  <Name>
ligand

>  <RI>
0

>  <Rbt.Current_Directory>
/home/itssahil/PROJECTS/Mol_Feturizer/New_Systems/rnas/3SUX

>  <Rbt.Executable>
rbdock ($Id: //depot/dev/client3/rdock/2013.1/src/exe/rbdock.cxx#4 $)

>  <Rbt.Library>
libRbt.so (2013.1, Build901 2013/11/27)

>  <Rbt.Parameter_File>
/export/apps/rDock/src/rDock_2013.1_src/data/scripts/dock_solv.prm

>  <Rbt.Receptor>
prm/pocket_docking_8.prm

>  <SCORE>
-9.24945

>  <SCORE.INTER>
-9.24945

>  <SCORE.INTER.CONST>
1

>  <SCORE.INTER.POLAR>
0

>  <SCORE.INTER.ROT>
0

>  <SCORE.INTER.SOLV>
9.83855

>  <SCORE.INTER.VDW>
-13.0458

>  <SCORE.INTER.norm>
-0.711496

>  <SCORE.INTRA>
0

>  <SCORE.INTRA.DIHEDRAL>
0

>  <SCORE.INTRA.DIHEDRAL.0>
0

>  <SCORE.INTRA.POLAR>
0

>  <SCORE.INTRA.POLAR.0>
0

>  <SCORE.INTRA.REPUL>
0

>  <SCORE.INTRA.REPUL.0>
0

>  <SCORE.INTRA.SOLV>
0

>  <SCORE.INTRA.SOLV.lig_0>
-48.6608

>  <SCORE.INTRA.VDW>
0

>  <SCORE.INTRA.VDW.0>
0

>  <SCORE.INTRA.norm>
0

>  <SCORE.RESTR>
0

>  <SCORE.RESTR.CAVITY>
0

>  <SCORE.RESTR.norm>
0

>  <SCORE.SYSTEM>
0

>  <SCORE.SYSTEM.CONST>
0

>  <SCORE.SYSTEM.DIHEDRAL>
0

>  <SCORE.SYSTEM.SOLV>
0

>  <SCORE.SYSTEM.norm>
0

>  <SCORE.heavy>
13

>  <SCORE.norm>
-0.711496

>  <RMSD>
6.630

$$$$
ligand
 OpenBabel11021811483D
libRbt.so/2013.1/901 2013/11/27
 13 14  0  0  0  0  0  0  0  0999 V2000
    6.0922   38.2793   73.3346 N   0  0  0  0  0  0  0  0  0  0  0  0
    7.0886   39.3967   71.5647 N   0  0  0  0  0  0  0  0  0  0  0  0
    6.3111   39.4062   72.6632 C   0  0  0  0  0  0  0  0  0  0  0  0
    5.7192   40.5910   73.0988 N   0  0  0  0  0  0  0  0  0  0  0  0
    5.9631   41.7612   72.3771 C   0  0  0  0  0  0  0  0  0  0  0  0
    6.7824   41.7270   71.2534 C   0  0  0  0  0  0  0  0  0  0  0  0
    5.4485   42.8208   72.7328 O   0  0  0  0  0  0  0  0  0  0  0  0
    6.9936   42.8987   70.5020 N   0  0  0  0  0  0  0  0  0  0  0  0
    7.9012   42.9363   69.3203 C   0  0  2  0  0  0  0  0  0  0  0  0
    7.9431   41.5430   68.6703 C   0  0  0  0  0  0  0  0  0  0  0  0
    7.3247   40.5139   70.8536 C   0  0  0  0  0  0  0  0  0  0  0  0
    8.1297   40.4719   69.7089 N   0  0  0  0  0  0  0  0  0  0  0  0
    9.3274   43.3379   69.8021 C   0  0  0  0  0  0  0  0  0  0  0  0
  1  3  1  0  0  0  0
  2  3  2  0  0  0  0
  2 11  1  0  0  0  0
  3  4  1  0  0  0  0
  4  5  1  0  0  0  0
  5  6  1  0  0  0  0
  5  7  2  0  0  0  0
  6  8  1  0  0  0  0
  6 11  2  0  0  0  0
  8  9  1  0  0  0  0
  9 10  1  0  0  0  0
  9 13  1  1  0  0  0
 10 12  1  0  0  0  0
 11 12  1  0  0  0  0
M  END
>  <CHROM.1>
7.01140620,41.24356103,71.21524563,-2.39131660,0.91026057,-0.17216029

>  <Name>
ligand

>  <RI>
0

>  <Rbt.Current_Directory>
/home/itssahil/PROJECTS/Mol_Feturizer/New_Systems/rnas/3SUX

>  <Rbt.Executable>
rbdock ($Id: //depot/dev/client3/rdock/2013.1/src/exe/rbdock.cxx#4 $)

>  <Rbt.Library>
libRbt.so (2013.1, Build901 2013/11/27)

>  <Rbt.Parameter_File>
/export/apps/rDock/src/rDock_2013.1_src/data/scripts/dock_solv.prm

>  <Rbt.Receptor>
prm/pocket_docking_7.prm

>  <SCORE>
-9.18628

>  <SCORE.INTER>
-9.18628

>  <SCORE.INTER.CONST>
1

>  <SCORE.INTER.POLAR>
0

>  <SCORE.INTER.ROT>
0

>  <SCORE.INTER.SOLV>
9.85383

>  <SCORE.INTER.VDW>
-13.0088

>  <SCORE.INTER.norm>
-0.706637

>  <SCORE.INTRA>
0

>  <SCORE.INTRA.DIHEDRAL>
0

>  <SCORE.INTRA.DIHEDRAL.0>
0

>  <SCORE.INTRA.POLAR>
0

>  <SCORE.INTRA.POLAR.0>
0

>  <SCORE.INTRA.REPUL>
0

>  <SCORE.INTRA.REPUL.0>
0

>  <SCORE.INTRA.SOLV>
0

>  <SCORE.INTRA.SOLV.lig_0>
-48.6608

>  <SCORE.INTRA.VDW>
0

>  <SCORE.INTRA.VDW.0>
0

>  <SCORE.INTRA.norm>
0

>  <SCORE.RESTR>
0

>  <SCORE.RESTR.CAVITY>
0

>  <SCORE.RESTR.norm>
0

>  <SCORE.SYSTEM>
0

>  <SCORE.SYSTEM.CONST>
0

>  <SCORE.SYSTEM.DIHEDRAL>
0

>  <SCORE.SYSTEM.SOLV>
0

>  <SCORE.SYSTEM.norm>
0

>  <SCORE.heavy>
13

>  <SCORE.norm>
-0.706637

>  <RMSD>
6.632

$$$$
ligand
 OpenBabel11021811483D
libRbt.so/2013.1/901 2013/11/27
 13 14  0  0  0  0  0  0  0  0999 V2000
    6.1287   38.2760   73.3384 N   0  0  0  0  0  0  0  0  0  0  0  0
    7.1156   39.4005   71.5678 N   0  0  0  0  0  0  0  0  0  0  0  0
    6.3315   39.4027   72.6616 C   0  0  0  0  0  0  0  0  0  0  0  0
    5.7159   40.5793   73.0865 N   0  0  0  0  0  0  0  0  0  0  0  0
    5.9433   41.7494   72.3592 C   0  0  0  0  0  0  0  0  0  0  0  0
    6.7698   41.7231   71.2406 C   0  0  0  0  0  0  0  0  0  0  0  0
    5.4077   42.8017   72.7055 O   0  0  0  0  0  0  0  0  0  0  0  0
    6.9645   42.8940   70.4834 N   0  0  0  0  0  0  0  0  0  0  0  0
    7.8784   42.9408   69.3069 C   0  0  2  0  0  0  0  0  0  0  0  0
    7.9490   41.5446   68.6655 C   0  0  0  0  0  0  0  0  0  0  0  0
    7.3360   40.5175   70.8513 C   0  0  0  0  0  0  0  0  0  0  0  0
    8.1484   40.4832   69.7116 N   0  0  0  0  0  0  0  0  0  0  0  0
    9.2943   43.3707   69.7947 C   0  0  0  0  0  0  0  0  0  0  0  0
  1  3  1  0  0  0  0
  2  3  2  0  0  0  0
  2 11  1  0  0  0  0
  3  4  1  0  0  0  0
  4  5  1  0  0  0  0
  5  6  1  0  0  0  0
  5  7  2  0  0  0  0
  6  8  1  0  0  0  0
  6 11  2  0  0  0  0
  8  9  1  0  0  0  0
  9 10  1  0  0  0  0
  9 13  1  1  0  0  0
 10 12  1  0  0  0  0
 11 12  1  0  0  0  0
M  END
>  <CHROM.1>
7.00754978,41.24363256,71.20671568,-2.36465859,0.90112278,-0.19910930

>  <Name>
ligand

>  <RI>
0

>  <Rbt.Current_Directory>
/home/itssahil/PROJECTS/Mol_Feturizer/New_Systems/rnas/3SUX

>  <Rbt.Executable>
rbdock ($Id: //depot/dev/client3/rdock/2013.1/src/exe/rbdock.cxx#4 $)

>  <Rbt.Library>
libRbt.so (2013.1, Build901 2013/11/27)

>  <Rbt.Parameter_File>
/export/apps/rDock/src/rDock_2013.1_src/data/scripts/dock_solv.prm

>  <Rbt.Receptor>
prm/pocket_docking_8.prm

>  <SCORE>
-9.24676

>  <SCORE.INTER>
-9.24676

>  <SCORE.INTER.CONST>
1

>  <SCORE.INTER.POLAR>
0

>  <SCORE.INTER.ROT>
0

>  <SCORE.INTER.SOLV>
9.87801

>  <SCORE.INTER.VDW>
-13.0572

>  <SCORE.INTER.norm>
-0.711289

>  <SCORE.INTRA>
0

>  <SCORE.INTRA.DIHEDRAL>
0

>  <SCORE.INTRA.DIHEDRAL.0>
0

>  <SCORE.INTRA.POLAR>
0

>  <SCORE.INTRA.POLAR.0>
0

>  <SCORE.INTRA.REPUL>
0

>  <SCORE.INTRA.REPUL.0>
0

>  <SCORE.INTRA.SOLV>
0

>  <SCORE.INTRA.SOLV.lig_0>
-48.6608

>  <SCORE.INTRA.VDW>
0

>  <SCORE.INTRA.VDW.0>
0

>  <SCORE.INTRA.norm>
0

>  <SCORE.RESTR>
0

>  <SCORE.RESTR.CAVITY>
0

>  <SCORE.RESTR.norm>
0

>  <SCORE.SYSTEM>
0

>  <SCORE.SYSTEM.CONST>
0

>  <SCORE.SYSTEM.DIHEDRAL>
0

>  <SCORE.SYSTEM.SOLV>
0

>  <SCORE.SYSTEM.norm>
0

>  <SCORE.heavy>
13

>  <SCORE.norm>
-0.711289

>  <RMSD>
6.632

$$$$
ligand
 OpenBabel11021811483D
libRbt.so/2013.1/901 2013/11/27
 13 14  0  0  0  0  0  0  0  0999 V2000
    6.1574   38.2491   73.3334 N   0  0  0  0  0  0  0  0  0  0  0  0
    7.1327   39.3866   71.5646 N   0  0  0  0  0  0  0  0  0  0  0  0
    6.3510   39.3795   72.6601 C   0  0  0  0  0  0  0  0  0  0  0  0
    5.7283   40.5504   73.0906 N   0  0  0  0  0  0  0  0  0  0  0  0
    5.9461   41.7246   72.3670 C   0  0  0  0  0  0  0  0  0  0  0  0
    6.7703   41.7079   71.2465 C   0  0  0  0  0  0  0  0  0  0  0  0
    5.4041   42.7719   72.7182 O   0  0  0  0  0  0  0  0  0  0  0  0
    6.9554   42.8828   70.4931 N   0  0  0  0  0  0  0  0  0  0  0  0
    7.8663   42.9400   69.3148 C   0  0  2  0  0  0  0  0  0  0  0  0
    7.9451   41.5466   68.6682 C   0  0  0  0  0  0  0  0  0  0  0  0
    7.3439   40.5076   70.8517 C   0  0  0  0  0  0  0  0  0  0  0  0
    8.1541   40.4829   69.7101 N   0  0  0  0  0  0  0  0  0  0  0  0
    9.2803   43.3778   69.8010 C   0  0  0  0  0  0  0  0  0  0  0  0
  1  3  1  0  0  0  0
  2  3  2  0  0  0  0
  2 11  1  0  0  0  0
  3  4  1  0  0  0  0
  4  5  1  0  0  0  0
  5  6  1  0  0  0  0
  5  7  2  0  0  0  0
  6  8  1  0  0  0  0
  6 11  2  0  0  0  0
  8  9  1  0  0  0  0
  9 10  1  0  0  0  0
  9 13  1  1  0  0  0
 10 12  1  0  0  0  0
 11 12  1  0  0  0  0
M  END
>  <CHROM.1>
7.01128891,41.23021213,71.21038391,-2.35316413,0.90189205,-0.20456285

>  <Name>
ligand

>  <RI>
0

>  <Rbt.Current_Directory>
/home/itssahil/PROJECTS/Mol_Feturizer/New_Systems/rnas/3SUX

>  <Rbt.Executable>
rbdock ($Id: //depot/dev/client3/rdock/2013.1/src/exe/rbdock.cxx#4 $)

>  <Rbt.Library>
libRbt.so (2013.1, Build901 2013/11/27)

>  <Rbt.Parameter_File>
/export/apps/rDock/src/rDock_2013.1_src/data/scripts/dock_solv.prm

>  <Rbt.Receptor>
prm/pocket_docking_7.prm

>  <SCORE>
-9.26219

>  <SCORE.INTER>
-9.26219

>  <SCORE.INTER.CONST>
1

>  <SCORE.INTER.POLAR>
0

>  <SCORE.INTER.ROT>
0

>  <SCORE.INTER.SOLV>
9.77142

>  <SCORE.INTER.VDW>
-13.0319

>  <SCORE.INTER.norm>
-0.712476

>  <SCORE.INTRA>
0

>  <SCORE.INTRA.DIHEDRAL>
0

>  <SCORE.INTRA.DIHEDRAL.0>
0

>  <SCORE.INTRA.POLAR>
0

>  <SCORE.INTRA.POLAR.0>
0

>  <SCORE.INTRA.REPUL>
0

>  <SCORE.INTRA.REPUL.0>
0

>  <SCORE.INTRA.SOLV>
0

>  <SCORE.INTRA.SOLV.lig_0>
-48.6608

>  <SCORE.INTRA.VDW>
0

>  <SCORE.INTRA.VDW.0>
0

>  <SCORE.INTRA.norm>
0

>  <SCORE.RESTR>
0

>  <SCORE.RESTR.CAVITY>
0

>  <SCORE.RESTR.norm>
0

>  <SCORE.SYSTEM>
0

>  <SCORE.SYSTEM.CONST>
0

>  <SCORE.SYSTEM.DIHEDRAL>
0

>  <SCORE.SYSTEM.SOLV>
0

>  <SCORE.SYSTEM.norm>
0

>  <SCORE.heavy>
13

>  <SCORE.norm>
-0.712476

>  <RMSD>
6.634

$$$$
ligand
 OpenBabel11021811483D
libRbt.so/2013.1/901 2013/11/27
 13 14  0  0  0  0  0  0  0  0999 V2000
    6.1185   38.2683   73.3398 N   0  0  0  0  0  0  0  0  0  0  0  0
    7.1059   39.3924   71.5692 N   0  0  0  0  0  0  0  0  0  0  0  0
    6.3278   39.3964   72.6673 C   0  0  0  0  0  0  0  0  0  0  0  0
    5.7253   40.5764   73.1012 N   0  0  0  0  0  0  0  0  0  0  0  0
    5.9593   41.7479   72.3783 C   0  0  0  0  0  0  0  0  0  0  0  0
    6.7794   41.7196   71.2550 C   0  0  0  0  0  0  0  0  0  0  0  0
    5.4352   42.8033   72.7325 O   0  0  0  0  0  0  0  0  0  0  0  0
    6.9807   42.8922   70.5024 N   0  0  0  0  0  0  0  0  0  0  0  0
    7.8885   42.9364   69.3211 C   0  0  2  0  0  0  0  0  0  0  0  0
    7.9430   41.5428   68.6727 C   0  0  0  0  0  0  0  0  0  0  0  0
    7.3326   40.5108   70.8569 C   0  0  0  0  0  0  0  0  0  0  0  0
    8.1384   40.4746   69.7126 N   0  0  0  0  0  0  0  0  0  0  0  0
    9.3109   43.3511   69.8032 C   0  0  0  0  0  0  0  0  0  0  0  0
  1  3  1  0  0  0  0
  2  3  2  0  0  0  0
  2 11  1  0  0  0  0
  3  4  1  0  0  0  0
  4  5  1  0  0  0  0
  5  6  1  0  0  0  0
  5  7  2  0  0  0  0
  6  8  1  0  0  0  0
  6 11  2  0  0  0  0
  8  9  1  0  0  0  0
  9 10  1  0  0  0  0
  9 13  1  1  0  0  0
 10 12  1  0  0  0  0
 11 12  1  0  0  0  0
M  END
>  <CHROM.1>
7.01267501,41.23811227,71.21754757,-2.37740622,0.90822385,-0.18428475

>  <Name>
ligand

>  <RI>
0

>  <Rbt.Current_Directory>
/home/itssahil/PROJECTS/Mol_Feturizer/New_Systems/rnas/3SUX

>  <Rbt.Executable>
rbdock ($Id: //depot/dev/client3/rdock/2013.1/src/exe/rbdock.cxx#4 $)

>  <Rbt.Library>
libRbt.so (2013.1, Build901 2013/11/27)

>  <Rbt.Parameter_File>
/export/apps/rDock/src/rDock_2013.1_src/data/scripts/dock_solv.prm

>  <Rbt.Receptor>
prm/pocket_docking_8.prm

>  <SCORE>
-9.20664

>  <SCORE.INTER>
-9.20664

>  <SCORE.INTER.CONST>
1

>  <SCORE.INTER.POLAR>
0

>  <SCORE.INTER.ROT>
0

>  <SCORE.INTER.SOLV>
9.78133

>  <SCORE.INTER.VDW>
-12.9982

>  <SCORE.INTER.norm>
-0.708203

>  <SCORE.INTRA>
0

>  <SCORE.INTRA.DIHEDRAL>
0

>  <SCORE.INTRA.DIHEDRAL.0>
0

>  <SCORE.INTRA.POLAR>
0

>  <SCORE.INTRA.POLAR.0>
0

>  <SCORE.INTRA.REPUL>
0

>  <SCORE.INTRA.REPUL.0>
0

>  <SCORE.INTRA.SOLV>
0

>  <SCORE.INTRA.SOLV.lig_0>
-48.6608

>  <SCORE.INTRA.VDW>
0

>  <SCORE.INTRA.VDW.0>
0

>  <SCORE.INTRA.norm>
0

>  <SCORE.RESTR>
0

>  <SCORE.RESTR.CAVITY>
0

>  <SCORE.RESTR.norm>
0

>  <SCORE.SYSTEM>
0

>  <SCORE.SYSTEM.CONST>
0

>  <SCORE.SYSTEM.DIHEDRAL>
0

>  <SCORE.SYSTEM.SOLV>
0

>  <SCORE.SYSTEM.norm>
0

>  <SCORE.heavy>
13

>  <SCORE.norm>
-0.708203

>  <RMSD>
6.634

$$$$
ligand
 OpenBabel11021811483D
libRbt.so/2013.1/901 2013/11/27
 13 14  0  0  0  0  0  0  0  0999 V2000
    6.1616   38.2464   73.3343 N   0  0  0  0  0  0  0  0  0  0  0  0
    7.1327   39.3850   71.5640 N   0  0  0  0  0  0  0  0  0  0  0  0
    6.3537   39.3773   72.6613 C   0  0  0  0  0  0  0  0  0  0  0  0
    5.7321   40.5478   73.0941 N   0  0  0  0  0  0  0  0  0  0  0  0
    5.9482   41.7225   72.3708 C   0  0  0  0  0  0  0  0  0  0  0  0
    6.7697   41.7066   71.2483 C   0  0  0  0  0  0  0  0  0  0  0  0
    5.4071   42.7697   72.7239 O   0  0  0  0  0  0  0  0  0  0  0  0
    6.9530   42.8820   70.4953 N   0  0  0  0  0  0  0  0  0  0  0  0
    7.8612   42.9400   69.3148 C   0  0  2  0  0  0  0  0  0  0  0  0
    7.9383   41.5470   68.6671 C   0  0  0  0  0  0  0  0  0  0  0  0
    7.3423   40.5066   70.8513 C   0  0  0  0  0  0  0  0  0  0  0  0
    8.1497   40.4826   69.7078 N   0  0  0  0  0  0  0  0  0  0  0  0
    9.2764   43.3774   69.7979 C   0  0  0  0  0  0  0  0  0  0  0  0
  1  3  1  0  0  0  0
  2  3  2  0  0  0  0
  2 11  1  0  0  0  0
  3  4  1  0  0  0  0
  4  5  1  0  0  0  0
  5  6  1  0  0  0  0
  5  7  2  0  0  0  0
  6  8  1  0  0  0  0
  6 11  2  0  0  0  0
  8  9  1  0  0  0  0
  9 10  1  0  0  0  0
  9 13  1  1  0  0  0
 10 12  1  0  0  0  0
 11 12  1  0  0  0  0
M  END
>  <CHROM.1>
7.01056620,41.22890661,71.21128365,-2.35246376,0.90424347,-0.20442628

>  <Name>
ligand

>  <RI>
0

>  <Rbt.Current_Directory>
/home/itssahil/PROJECTS/Mol_Feturizer/New_Systems/rnas/3SUX

>  <Rbt.Executable>
rbdock ($Id: //depot/dev/client3/rdock/2013.1/src/exe/rbdock.cxx#4 $)

>  <Rbt.Library>
libRbt.so (2013.1, Build901 2013/11/27)

>  <Rbt.Parameter_File>
/export/apps/rDock/src/rDock_2013.1_src/data/scripts/dock_solv.prm

>  <Rbt.Receptor>
prm/pocket_docking_8.prm

>  <SCORE>
-9.26133

>  <SCORE.INTER>
-9.26133

>  <SCORE.INTER.CONST>
1

>  <SCORE.INTER.POLAR>
0

>  <SCORE.INTER.ROT>
0

>  <SCORE.INTER.SOLV>
9.75784

>  <SCORE.INTER.VDW>
-13.0268

>  <SCORE.INTER.norm>
-0.71241

>  <SCORE.INTRA>
0

>  <SCORE.INTRA.DIHEDRAL>
0

>  <SCORE.INTRA.DIHEDRAL.0>
0

>  <SCORE.INTRA.POLAR>
0

>  <SCORE.INTRA.POLAR.0>
0

>  <SCORE.INTRA.REPUL>
0

>  <SCORE.INTRA.REPUL.0>
0

>  <SCORE.INTRA.SOLV>
0

>  <SCORE.INTRA.SOLV.lig_0>
-48.6608

>  <SCORE.INTRA.VDW>
0

>  <SCORE.INTRA.VDW.0>
0

>  <SCORE.INTRA.norm>
0

>  <SCORE.RESTR>
0

>  <SCORE.RESTR.CAVITY>
0

>  <SCORE.RESTR.norm>
0

>  <SCORE.SYSTEM>
0

>  <SCORE.SYSTEM.CONST>
0

>  <SCORE.SYSTEM.DIHEDRAL>
0

>  <SCORE.SYSTEM.SOLV>
0

>  <SCORE.SYSTEM.norm>
0

>  <SCORE.heavy>
13

>  <SCORE.norm>
-0.71241

>  <RMSD>
6.634

$$$$
ligand
 OpenBabel11021811483D
libRbt.so/2013.1/901 2013/11/27
 13 14  0  0  0  0  0  0  0  0999 V2000
    6.1787   38.2865   73.3808 N   0  0  0  0  0  0  0  0  0  0  0  0
    7.1435   39.4097   71.5972 N   0  0  0  0  0  0  0  0  0  0  0  0
    6.3655   39.4107   72.6954 C   0  0  0  0  0  0  0  0  0  0  0  0
    5.7396   40.5834   73.1160 N   0  0  0  0  0  0  0  0  0  0  0  0
    5.9503   41.7510   72.3797 C   0  0  0  0  0  0  0  0  0  0  0  0
    6.7708   41.7262   71.2566 C   0  0  0  0  0  0  0  0  0  0  0  0
    5.4053   42.7998   72.7220 O   0  0  0  0  0  0  0  0  0  0  0  0
    6.9487   42.8940   70.4907 N   0  0  0  0  0  0  0  0  0  0  0  0
    7.8554   42.9428   69.3087 C   0  0  2  0  0  0  0  0  0  0  0  0
    7.9375   41.5432   68.6761 C   0  0  0  0  0  0  0  0  0  0  0  0
    7.3478   40.5242   70.8721 C   0  0  0  0  0  0  0  0  0  0  0  0
    8.1542   40.4910   69.7281 N   0  0  0  0  0  0  0  0  0  0  0  0
    9.2693   43.3911   69.7856 C   0  0  0  0  0  0  0  0  0  0  0  0
  1  3  1  0  0  0  0
  2  3  2  0  0  0  0
  2 11  1  0  0  0  0
  3  4  1  0  0  0  0
  4  5  1  0  0  0  0
  5  6  1  0  0  0  0
  5  7  2  0  0  0  0
  6  8  1  0  0  0  0
  6 11  2  0  0  0  0
  8  9  1  0  0  0  0
  9 10  1  0  0  0  0
  9 13  1  1  0  0  0
 10 12  1  0  0  0  0
 11 12  1  0  0  0  0
M  END
>  <CHROM.1>
7.01353163,41.24908604,71.22457371,-2.34576092,0.90437403,-0.22059062

>  <Name>
ligand

>  <RI>
0

>  <Rbt.Current_Directory>
/home/itssahil/PROJECTS/Mol_Feturizer/New_Systems/rnas/3SUX

>  <Rbt.Executable>
rbdock ($Id: //depot/dev/client3/rdock/2013.1/src/exe/rbdock.cxx#4 $)

>  <Rbt.Library>
libRbt.so (2013.1, Build901 2013/11/27)

>  <Rbt.Parameter_File>
/export/apps/rDock/src/rDock_2013.1_src/data/scripts/dock_solv.prm

>  <Rbt.Receptor>
prm/pocket_docking_7.prm

>  <SCORE>
-9.20401

>  <SCORE.INTER>
-9.20401

>  <SCORE.INTER.CONST>
1

>  <SCORE.INTER.POLAR>
0

>  <SCORE.INTER.ROT>
0

>  <SCORE.INTER.SOLV>
9.59916

>  <SCORE.INTER.VDW>
-12.9357

>  <SCORE.INTER.norm>
-0.708001

>  <SCORE.INTRA>
0

>  <SCORE.INTRA.DIHEDRAL>
0

>  <SCORE.INTRA.DIHEDRAL.0>
0

>  <SCORE.INTRA.POLAR>
0

>  <SCORE.INTRA.POLAR.0>
0

>  <SCORE.INTRA.REPUL>
0

>  <SCORE.INTRA.REPUL.0>
0

>  <SCORE.INTRA.SOLV>
0

>  <SCORE.INTRA.SOLV.lig_0>
-48.6608

>  <SCORE.INTRA.VDW>
0

>  <SCORE.INTRA.VDW.0>
0

>  <SCORE.INTRA.norm>
0

>  <SCORE.RESTR>
0

>  <SCORE.RESTR.CAVITY>
0

>  <SCORE.RESTR.norm>
0

>  <SCORE.SYSTEM>
0

>  <SCORE.SYSTEM.CONST>
0

>  <SCORE.SYSTEM.DIHEDRAL>
0

>  <SCORE.SYSTEM.SOLV>
0

>  <SCORE.SYSTEM.norm>
0

>  <SCORE.heavy>
13

>  <SCORE.norm>
-0.708001

>  <RMSD>
6.635

$$$$
ligand
 OpenBabel11021811483D
libRbt.so/2013.1/901 2013/11/27
 13 14  0  0  0  0  0  0  0  0999 V2000
    6.1625   38.2422   73.3339 N   0  0  0  0  0  0  0  0  0  0  0  0
    7.1349   39.3816   71.5647 N   0  0  0  0  0  0  0  0  0  0  0  0
    6.3543   39.3732   72.6610 C   0  0  0  0  0  0  0  0  0  0  0  0
    5.7309   40.5432   73.0928 N   0  0  0  0  0  0  0  0  0  0  0  0
    5.9469   41.7180   72.3695 C   0  0  0  0  0  0  0  0  0  0  0  0
    6.7699   41.7028   71.2482 C   0  0  0  0  0  0  0  0  0  0  0  0
    5.4042   42.7647   72.7218 O   0  0  0  0  0  0  0  0  0  0  0  0
    6.9531   42.8782   70.4952 N   0  0  0  0  0  0  0  0  0  0  0  0
    7.8628   42.9369   69.3160 C   0  0  2  0  0  0  0  0  0  0  0  0
    7.9422   41.5439   68.6686 C   0  0  0  0  0  0  0  0  0  0  0  0
    7.3443   40.5032   70.8522 C   0  0  0  0  0  0  0  0  0  0  0  0
    8.1533   40.4798   69.7098 N   0  0  0  0  0  0  0  0  0  0  0  0
    9.2769   43.3758   69.8010 C   0  0  0  0  0  0  0  0  0  0  0  0
  1  3  1  0  0  0  0
  2  3  2  0  0  0  0
  2 11  1  0  0  0  0
  3  4  1  0  0  0  0
  4  5  1  0  0  0  0
  5  6  1  0  0  0  0
  5  7  2  0  0  0  0
  6  8  1  0  0  0  0
  6 11  2  0  0  0  0
  8  9  1  0  0  0  0
  9 10  1  0  0  0  0
  9 13  1  1  0  0  0
 10 12  1  0  0  0  0
 11 12  1  0  0  0  0
M  END
>  <CHROM.1>
7.01131282,41.22528828,71.21157587,-2.35130600,0.90269795,-0.20550948

>  <Name>
ligand

>  <RI>
0

>  <Rbt.Current_Directory>
/home/itssahil/PROJECTS/Mol_Feturizer/New_Systems/rnas/3SUX

>  <Rbt.Executable>
rbdock ($Id: //depot/dev/client3/rdock/2013.1/src/exe/rbdock.cxx#4 $)

>  <Rbt.Library>
libRbt.so (2013.1, Build901 2013/11/27)

>  <Rbt.Parameter_File>
/export/apps/rDock/src/rDock_2013.1_src/data/scripts/dock_solv.prm

>  <Rbt.Receptor>
prm/pocket_docking_8.prm

>  <SCORE>
-9.26374

>  <SCORE.INTER>
-9.26374

>  <SCORE.INTER.CONST>
1

>  <SCORE.INTER.POLAR>
0

>  <SCORE.INTER.ROT>
0

>  <SCORE.INTER.SOLV>
9.75469

>  <SCORE.INTER.VDW>
-13.0274

>  <SCORE.INTER.norm>
-0.712595

>  <SCORE.INTRA>
0

>  <SCORE.INTRA.DIHEDRAL>
0

>  <SCORE.INTRA.DIHEDRAL.0>
0

>  <SCORE.INTRA.POLAR>
0

>  <SCORE.INTRA.POLAR.0>
0

>  <SCORE.INTRA.REPUL>
0

>  <SCORE.INTRA.REPUL.0>
0

>  <SCORE.INTRA.SOLV>
0

>  <SCORE.INTRA.SOLV.lig_0>
-48.6608

>  <SCORE.INTRA.VDW>
0

>  <SCORE.INTRA.VDW.0>
0

>  <SCORE.INTRA.norm>
0

>  <SCORE.RESTR>
0

>  <SCORE.RESTR.CAVITY>
0

>  <SCORE.RESTR.norm>
0

>  <SCORE.SYSTEM>
0

>  <SCORE.SYSTEM.CONST>
0

>  <SCORE.SYSTEM.DIHEDRAL>
0

>  <SCORE.SYSTEM.SOLV>
0

>  <SCORE.SYSTEM.norm>
0

>  <SCORE.heavy>
13

>  <SCORE.norm>
-0.712595

>  <RMSD>
6.635

$$$$
ligand
 OpenBabel11021811483D
libRbt.so/2013.1/901 2013/11/27
 13 14  0  0  0  0  0  0  0  0999 V2000
    6.1412   38.2620   73.3390 N   0  0  0  0  0  0  0  0  0  0  0  0
    7.1217   39.3932   71.5691 N   0  0  0  0  0  0  0  0  0  0  0  0
    6.3391   39.3906   72.6640 C   0  0  0  0  0  0  0  0  0  0  0  0
    5.7199   40.5643   73.0919 N   0  0  0  0  0  0  0  0  0  0  0  0
    5.9422   41.7365   72.3664 C   0  0  0  0  0  0  0  0  0  0  0  0
    6.7672   41.7152   71.2466 C   0  0  0  0  0  0  0  0  0  0  0  0
    5.4034   42.7863   72.7153 O   0  0  0  0  0  0  0  0  0  0  0  0
    6.9568   42.8881   70.4913 N   0  0  0  0  0  0  0  0  0  0  0  0
    7.8689   42.9403   69.3136 C   0  0  2  0  0  0  0  0  0  0  0  0
    7.9436   41.5455   68.6696 C   0  0  0  0  0  0  0  0  0  0  0  0
    7.3372   40.5123   70.8544 C   0  0  0  0  0  0  0  0  0  0  0  0
    8.1482   40.4829   69.7135 N   0  0  0  0  0  0  0  0  0  0  0  0
    9.2840   43.3743   69.8003 C   0  0  0  0  0  0  0  0  0  0  0  0
  1  3  1  0  0  0  0
  2  3  2  0  0  0  0
  2 11  1  0  0  0  0
  3  4  1  0  0  0  0
  4  5  1  0  0  0  0
  5  6  1  0  0  0  0
  5  7  2  0  0  0  0
  6  8  1  0  0  0  0
  6 11  2  0  0  0  0
  8  9  1  0  0  0  0
  9 10  1  0  0  0  0
  9 13  1  1  0  0  0
 10 12  1  0  0  0  0
 11 12  1  0  0  0  0
M  END
>  <CHROM.1>
7.00667725,41.23661074,71.21154713,-2.35865163,0.90176024,-0.20200028

>  <Name>
ligand

>  <RI>
0

>  <Rbt.Current_Directory>
/home/itssahil/PROJECTS/Mol_Feturizer/New_Systems/rnas/3SUX

>  <Rbt.Executable>
rbdock ($Id: //depot/dev/client3/rdock/2013.1/src/exe/rbdock.cxx#4 $)

>  <Rbt.Library>
libRbt.so (2013.1, Build901 2013/11/27)

>  <Rbt.Parameter_File>
/export/apps/rDock/src/rDock_2013.1_src/data/scripts/dock_solv.prm

>  <Rbt.Receptor>
prm/pocket_docking_8.prm

>  <SCORE>
-9.25468

>  <SCORE.INTER>
-9.25468

>  <SCORE.INTER.CONST>
1

>  <SCORE.INTER.POLAR>
0

>  <SCORE.INTER.ROT>
0

>  <SCORE.INTER.SOLV>
9.82424

>  <SCORE.INTER.VDW>
-13.0445

>  <SCORE.INTER.norm>
-0.711898

>  <SCORE.INTRA>
0

>  <SCORE.INTRA.DIHEDRAL>
0

>  <SCORE.INTRA.DIHEDRAL.0>
0

>  <SCORE.INTRA.POLAR>
0

>  <SCORE.INTRA.POLAR.0>
0

>  <SCORE.INTRA.REPUL>
0

>  <SCORE.INTRA.REPUL.0>
0

>  <SCORE.INTRA.SOLV>
0

>  <SCORE.INTRA.SOLV.lig_0>
-48.6608

>  <SCORE.INTRA.VDW>
0

>  <SCORE.INTRA.VDW.0>
0

>  <SCORE.INTRA.norm>
0

>  <SCORE.RESTR>
0

>  <SCORE.RESTR.CAVITY>
0

>  <SCORE.RESTR.norm>
0

>  <SCORE.SYSTEM>
0

>  <SCORE.SYSTEM.CONST>
0

>  <SCORE.SYSTEM.DIHEDRAL>
0

>  <SCORE.SYSTEM.SOLV>
0

>  <SCORE.SYSTEM.norm>
0

>  <SCORE.heavy>
13

>  <SCORE.norm>
-0.711898

>  <RMSD>
6.636

$$$$
ligand
 OpenBabel11021811483D
libRbt.so/2013.1/901 2013/11/27
 13 14  0  0  0  0  0  0  0  0999 V2000
    6.1681   38.2494   73.3366 N   0  0  0  0  0  0  0  0  0  0  0  0
    7.1384   39.3887   71.5662 N   0  0  0  0  0  0  0  0  0  0  0  0
    6.3540   39.3790   72.6597 C   0  0  0  0  0  0  0  0  0  0  0  0
    5.7204   40.5461   73.0844 N   0  0  0  0  0  0  0  0  0  0  0  0
    5.9302   41.7195   72.3571 C   0  0  0  0  0  0  0  0  0  0  0  0
    6.7574   41.7057   71.2388 C   0  0  0  0  0  0  0  0  0  0  0  0
    5.3785   42.7635   72.7030 O   0  0  0  0  0  0  0  0  0  0  0  0
    6.9346   42.8793   70.4816 N   0  0  0  0  0  0  0  0  0  0  0  0
    7.8481   42.9400   69.3054 C   0  0  2  0  0  0  0  0  0  0  0  0
    7.9402   41.5450   68.6641 C   0  0  0  0  0  0  0  0  0  0  0  0
    7.3421   40.5089   70.8498 C   0  0  0  0  0  0  0  0  0  0  0  0
    8.1554   40.4868   69.7104 N   0  0  0  0  0  0  0  0  0  0  0  0
    9.2571   43.3914   69.7936 C   0  0  0  0  0  0  0  0  0  0  0  0
  1  3  1  0  0  0  0
  2  3  2  0  0  0  0
  2 11  1  0  0  0  0
  3  4  1  0  0  0  0
  4  5  1  0  0  0  0
  5  6  1  0  0  0  0
  5  7  2  0  0  0  0
  6  8  1  0  0  0  0
  6 11  2  0  0  0  0
  8  9  1  0  0  0  0
  9 10  1  0  0  0  0
  9 13  1  1  0  0  0
 10 12  1  0  0  0  0
 11 12  1  0  0  0  0
M  END
>  <CHROM.1>
7.00251361,41.22991010,71.20499103,-2.34085353,0.89761544,-0.21782284

>  <Name>
ligand

>  <RI>
0

>  <Rbt.Current_Directory>
/home/itssahil/PROJECTS/Mol_Feturizer/New_Systems/rnas/3SUX

>  <Rbt.Executable>
rbdock ($Id: //depot/dev/client3/rdock/2013.1/src/exe/rbdock.cxx#4 $)

>  <Rbt.Library>
libRbt.so (2013.1, Build901 2013/11/27)

>  <Rbt.Parameter_File>
/export/apps/rDock/src/rDock_2013.1_src/data/scripts/dock_solv.prm

>  <Rbt.Receptor>
prm/pocket_docking_7.prm

>  <SCORE>
-9.25066

>  <SCORE.INTER>
-9.25066

>  <SCORE.INTER.CONST>
1

>  <SCORE.INTER.POLAR>
0

>  <SCORE.INTER.ROT>
0

>  <SCORE.INTER.SOLV>
9.85069

>  <SCORE.INTER.VDW>
-13.0507

>  <SCORE.INTER.norm>
-0.71159

>  <SCORE.INTRA>
0

>  <SCORE.INTRA.DIHEDRAL>
0

>  <SCORE.INTRA.DIHEDRAL.0>
0

>  <SCORE.INTRA.POLAR>
0

>  <SCORE.INTRA.POLAR.0>
0

>  <SCORE.INTRA.REPUL>
0

>  <SCORE.INTRA.REPUL.0>
0

>  <SCORE.INTRA.SOLV>
0

>  <SCORE.INTRA.SOLV.lig_0>
-48.6608

>  <SCORE.INTRA.VDW>
0

>  <SCORE.INTRA.VDW.0>
0

>  <SCORE.INTRA.norm>
0

>  <SCORE.RESTR>
0

>  <SCORE.RESTR.CAVITY>
0

>  <SCORE.RESTR.norm>
0

>  <SCORE.SYSTEM>
0

>  <SCORE.SYSTEM.CONST>
0

>  <SCORE.SYSTEM.DIHEDRAL>
0

>  <SCORE.SYSTEM.SOLV>
0

>  <SCORE.SYSTEM.norm>
0

>  <SCORE.heavy>
13

>  <SCORE.norm>
-0.71159

>  <RMSD>
6.637

$$$$
ligand
 OpenBabel11021811483D
libRbt.so/2013.1/901 2013/11/27
 13 14  0  0  0  0  0  0  0  0999 V2000
    6.1648   38.2382   73.3333 N   0  0  0  0  0  0  0  0  0  0  0  0
    7.1354   39.3799   71.5646 N   0  0  0  0  0  0  0  0  0  0  0  0
    6.3552   39.3699   72.6612 C   0  0  0  0  0  0  0  0  0  0  0  0
    5.7307   40.5389   73.0939 N   0  0  0  0  0  0  0  0  0  0  0  0
    5.9451   41.7144   72.3715 C   0  0  0  0  0  0  0  0  0  0  0  0
    6.7678   41.7009   71.2498 C   0  0  0  0  0  0  0  0  0  0  0  0
    5.4014   42.7602   72.7246 O   0  0  0  0  0  0  0  0  0  0  0  0
    6.9495   42.8770   70.4976 N   0  0  0  0  0  0  0  0  0  0  0  0
    7.8587   42.9376   69.3182 C   0  0  2  0  0  0  0  0  0  0  0  0
    7.9395   41.5451   68.6698 C   0  0  0  0  0  0  0  0  0  0  0  0
    7.3433   40.5022   70.8528 C   0  0  0  0  0  0  0  0  0  0  0  0
    8.1520   40.4805   69.7101 N   0  0  0  0  0  0  0  0  0  0  0  0
    9.2725   43.3777   69.8030 C   0  0  0  0  0  0  0  0  0  0  0  0
  1  3  1  0  0  0  0
  2  3  2  0  0  0  0
  2 11  1  0  0  0  0
  3  4  1  0  0  0  0
  4  5  1  0  0  0  0
  5  6  1  0  0  0  0
  5  7  2  0  0  0  0
  6  8  1  0  0  0  0
  6 11  2  0  0  0  0
  8  9  1  0  0  0  0
  9 10  1  0  0  0  0
  9 13  1  1  0  0  0
 10 12  1  0  0  0  0
 11 12  1  0  0  0  0
M  END
>  <CHROM.1>
7.00972534,41.22367217,71.21281576,-2.34949742,0.90278639,-0.20620618

>  <Name>
ligand

>  <RI>
0

>  <Rbt.Current_Directory>
/home/itssahil/PROJECTS/Mol_Feturizer/New_Systems/rnas/3SUX

>  <Rbt.Executable>
rbdock ($Id: //depot/dev/client3/rdock/2013.1/src/exe/rbdock.cxx#4 $)

>  <Rbt.Library>
libRbt.so (2013.1, Build901 2013/11/27)

>  <Rbt.Parameter_File>
/export/apps/rDock/src/rDock_2013.1_src/data/scripts/dock_solv.prm

>  <Rbt.Receptor>
prm/pocket_docking_7.prm

>  <SCORE>
-9.26463

>  <SCORE.INTER>
-9.26463

>  <SCORE.INTER.CONST>
1

>  <SCORE.INTER.POLAR>
0

>  <SCORE.INTER.ROT>
0

>  <SCORE.INTER.SOLV>
9.75079

>  <SCORE.INTER.VDW>
-13.0267

>  <SCORE.INTER.norm>
-0.712664

>  <SCORE.INTRA>
0

>  <SCORE.INTRA.DIHEDRAL>
0

>  <SCORE.INTRA.DIHEDRAL.0>
0

>  <SCORE.INTRA.POLAR>
0

>  <SCORE.INTRA.POLAR.0>
0

>  <SCORE.INTRA.REPUL>
0

>  <SCORE.INTRA.REPUL.0>
0

>  <SCORE.INTRA.SOLV>
0

>  <SCORE.INTRA.SOLV.lig_0>
-48.6608

>  <SCORE.INTRA.VDW>
0

>  <SCORE.INTRA.VDW.0>
0

>  <SCORE.INTRA.norm>
0

>  <SCORE.RESTR>
0

>  <SCORE.RESTR.CAVITY>
0

>  <SCORE.RESTR.norm>
0

>  <SCORE.SYSTEM>
0

>  <SCORE.SYSTEM.CONST>
0

>  <SCORE.SYSTEM.DIHEDRAL>
0

>  <SCORE.SYSTEM.SOLV>
0

>  <SCORE.SYSTEM.norm>
0

>  <SCORE.heavy>
13

>  <SCORE.norm>
-0.712664

>  <RMSD>
6.637

$$$$
ligand
 OpenBabel11021811483D
libRbt.so/2013.1/901 2013/11/27
 13 14  0  0  0  0  0  0  0  0999 V2000
    6.1532   38.2553   73.3358 N   0  0  0  0  0  0  0  0  0  0  0  0
    7.1312   39.3915   71.5677 N   0  0  0  0  0  0  0  0  0  0  0  0
    6.3455   39.3847   72.6604 C   0  0  0  0  0  0  0  0  0  0  0  0
    5.7174   40.5545   73.0855 N   0  0  0  0  0  0  0  0  0  0  0  0
    5.9340   41.7276   72.3597 C   0  0  0  0  0  0  0  0  0  0  0  0
    6.7623   41.7108   71.2423 C   0  0  0  0  0  0  0  0  0  0  0  0
    5.3872   42.7741   72.7062 O   0  0  0  0  0  0  0  0  0  0  0  0
    6.9463   42.8843   70.4866 N   0  0  0  0  0  0  0  0  0  0  0  0
    7.8614   42.9416   69.3114 C   0  0  2  0  0  0  0  0  0  0  0  0
    7.9471   41.5468   68.6688 C   0  0  0  0  0  0  0  0  0  0  0  0
    7.3413   40.5114   70.8527 C   0  0  0  0  0  0  0  0  0  0  0  0
    8.1558   40.4864   69.7141 N   0  0  0  0  0  0  0  0  0  0  0  0
    9.2722   43.3853   69.8017 C   0  0  0  0  0  0  0  0  0  0  0  0
  1  3  1  0  0  0  0
  2  3  2  0  0  0  0
  2 11  1  0  0  0  0
  3  4  1  0  0  0  0
  4  5  1  0  0  0  0
  5  6  1  0  0  0  0
  5  7  2  0  0  0  0
  6  8  1  0  0  0  0
  6 11  2  0  0  0  0
  8  9  1  0  0  0  0
  9 10  1  0  0  0  0
  9 13  1  1  0  0  0
 10 12  1  0  0  0  0
 11 12  1  0  0  0  0
M  END
>  <CHROM.1>
7.00503170,41.23380192,71.20828737,-2.34920081,0.89762650,-0.21022815

>  <Name>
ligand

>  <RI>
0

>  <Rbt.Current_Directory>
/home/itssahil/PROJECTS/Mol_Feturizer/New_Systems/rnas/3SUX

>  <Rbt.Executable>
rbdock ($Id: //depot/dev/client3/rdock/2013.1/src/exe/rbdock.cxx#4 $)

>  <Rbt.Library>
libRbt.so (2013.1, Build901 2013/11/27)

>  <Rbt.Parameter_File>
/export/apps/rDock/src/rDock_2013.1_src/data/scripts/dock_solv.prm

>  <Rbt.Receptor>
prm/pocket_docking_8.prm

>  <SCORE>
-9.25561

>  <SCORE.INTER>
-9.25561

>  <SCORE.INTER.CONST>
1

>  <SCORE.INTER.POLAR>
0

>  <SCORE.INTER.ROT>
0

>  <SCORE.INTER.SOLV>
9.83902

>  <SCORE.INTER.VDW>
-13.0501

>  <SCORE.INTER.norm>
-0.71197

>  <SCORE.INTRA>
0

>  <SCORE.INTRA.DIHEDRAL>
0

>  <SCORE.INTRA.DIHEDRAL.0>
0

>  <SCORE.INTRA.POLAR>
0

>  <SCORE.INTRA.POLAR.0>
0

>  <SCORE.INTRA.REPUL>
0

>  <SCORE.INTRA.REPUL.0>
0

>  <SCORE.INTRA.SOLV>
0

>  <SCORE.INTRA.SOLV.lig_0>
-48.6608

>  <SCORE.INTRA.VDW>
0

>  <SCORE.INTRA.VDW.0>
0

>  <SCORE.INTRA.norm>
0

>  <SCORE.RESTR>
0

>  <SCORE.RESTR.CAVITY>
0

>  <SCORE.RESTR.norm>
0

>  <SCORE.SYSTEM>
0

>  <SCORE.SYSTEM.CONST>
0

>  <SCORE.SYSTEM.DIHEDRAL>
0

>  <SCORE.SYSTEM.SOLV>
0

>  <SCORE.SYSTEM.norm>
0

>  <SCORE.heavy>
13

>  <SCORE.norm>
-0.71197

>  <RMSD>
6.637

$$$$
ligand
 OpenBabel11021811483D
libRbt.so/2013.1/901 2013/11/27
 13 14  0  0  0  0  0  0  0  0999 V2000
    6.1626   38.2400   73.3358 N   0  0  0  0  0  0  0  0  0  0  0  0
    7.1352   39.3808   71.5677 N   0  0  0  0  0  0  0  0  0  0  0  0
    6.3534   39.3712   72.6631 C   0  0  0  0  0  0  0  0  0  0  0  0
    5.7276   40.5403   73.0940 N   0  0  0  0  0  0  0  0  0  0  0  0
    5.9424   41.7153   72.3709 C   0  0  0  0  0  0  0  0  0  0  0  0
    6.7668   41.7014   71.2506 C   0  0  0  0  0  0  0  0  0  0  0  0
    5.3976   42.7611   72.7225 O   0  0  0  0  0  0  0  0  0  0  0  0
    6.9489   42.8770   70.4977 N   0  0  0  0  0  0  0  0  0  0  0  0
    7.8599   42.9372   69.3195 C   0  0  2  0  0  0  0  0  0  0  0  0
    7.9423   41.5443   68.6724 C   0  0  0  0  0  0  0  0  0  0  0  0
    7.3436   40.5027   70.8553 C   0  0  0  0  0  0  0  0  0  0  0  0
    8.1539   40.4806   69.7138 N   0  0  0  0  0  0  0  0  0  0  0  0
    9.2727   43.3784   69.8061 C   0  0  0  0  0  0  0  0  0  0  0  0
  1  3  1  0  0  0  0
  2  3  2  0  0  0  0
  2 11  1  0  0  0  0
  3  4  1  0  0  0  0
  4  5  1  0  0  0  0
  5  6  1  0  0  0  0
  5  7  2  0  0  0  0
  6  8  1  0  0  0  0
  6 11  2  0  0  0  0
  8  9  1  0  0  0  0
  9 10  1  0  0  0  0
  9 13  1  1  0  0  0
 10 12  1  0  0  0  0
 11 12  1  0  0  0  0
M  END
>  <CHROM.1>
7.00901978,41.22428249,71.21426081,-2.34910548,0.90122908,-0.20729208

>  <Name>
ligand

>  <RI>
0

>  <Rbt.Current_Directory>
/home/itssahil/PROJECTS/Mol_Feturizer/New_Systems/rnas/3SUX

>  <Rbt.Executable>
rbdock ($Id: //depot/dev/client3/rdock/2013.1/src/exe/rbdock.cxx#4 $)

>  <Rbt.Library>
libRbt.so (2013.1, Build901 2013/11/27)

>  <Rbt.Parameter_File>
/export/apps/rDock/src/rDock_2013.1_src/data/scripts/dock_solv.prm

>  <Rbt.Receptor>
prm/pocket_docking_8.prm

>  <SCORE>
-9.26639

>  <SCORE.INTER>
-9.26639

>  <SCORE.INTER.CONST>
1

>  <SCORE.INTER.POLAR>
0

>  <SCORE.INTER.ROT>
0

>  <SCORE.INTER.SOLV>
9.75162

>  <SCORE.INTER.VDW>
-13.0281

>  <SCORE.INTER.norm>
-0.7128

>  <SCORE.INTRA>
0

>  <SCORE.INTRA.DIHEDRAL>
0

>  <SCORE.INTRA.DIHEDRAL.0>
0

>  <SCORE.INTRA.POLAR>
0

>  <SCORE.INTRA.POLAR.0>
0

>  <SCORE.INTRA.REPUL>
0

>  <SCORE.INTRA.REPUL.0>
0

>  <SCORE.INTRA.SOLV>
0

>  <SCORE.INTRA.SOLV.lig_0>
-48.6608

>  <SCORE.INTRA.VDW>
0

>  <SCORE.INTRA.VDW.0>
0

>  <SCORE.INTRA.norm>
0

>  <SCORE.RESTR>
0

>  <SCORE.RESTR.CAVITY>
0

>  <SCORE.RESTR.norm>
0

>  <SCORE.SYSTEM>
0

>  <SCORE.SYSTEM.CONST>
0

>  <SCORE.SYSTEM.DIHEDRAL>
0

>  <SCORE.SYSTEM.SOLV>
0

>  <SCORE.SYSTEM.norm>
0

>  <SCORE.heavy>
13

>  <SCORE.norm>
-0.7128

>  <RMSD>
6.638

$$$$
ligand
 OpenBabel11021811483D
libRbt.so/2013.1/901 2013/11/27
 13 14  0  0  0  0  0  0  0  0999 V2000
    6.1626   38.2414   73.3358 N   0  0  0  0  0  0  0  0  0  0  0  0
    7.1351   39.3822   71.5676 N   0  0  0  0  0  0  0  0  0  0  0  0
    6.3531   39.3726   72.6629 C   0  0  0  0  0  0  0  0  0  0  0  0
    5.7269   40.5415   73.0934 N   0  0  0  0  0  0  0  0  0  0  0  0
    5.9415   41.7165   72.3702 C   0  0  0  0  0  0  0  0  0  0  0  0
    6.7661   41.7026   71.2499 C   0  0  0  0  0  0  0  0  0  0  0  0
    5.3963   42.7622   72.7214 O   0  0  0  0  0  0  0  0  0  0  0  0
    6.9480   42.8781   70.4969 N   0  0  0  0  0  0  0  0  0  0  0  0
    7.8591   42.9383   69.3189 C   0  0  2  0  0  0  0  0  0  0  0  0
    7.9421   41.5453   68.6720 C   0  0  0  0  0  0  0  0  0  0  0  0
    7.3433   40.5041   70.8550 C   0  0  0  0  0  0  0  0  0  0  0  0
    8.1539   40.4820   69.7137 N   0  0  0  0  0  0  0  0  0  0  0  0
    9.2717   43.3801   69.8056 C   0  0  0  0  0  0  0  0  0  0  0  0
  1  3  1  0  0  0  0
  2  3  2  0  0  0  0
  2 11  1  0  0  0  0
  3  4  1  0  0  0  0
  4  5  1  0  0  0  0
  5  6  1  0  0  0  0
  5  7  2  0  0  0  0
  6  8  1  0  0  0  0
  6 11  2  0  0  0  0
  8  9  1  0  0  0  0
  9 10  1  0  0  0  0
  9 13  1  1  0  0  0
 10 12  1  0  0  0  0
 11 12  1  0  0  0  0
M  END
>  <CHROM.1>
7.00845232,41.22557265,71.21379837,-2.34867221,0.90098232,-0.20784460

>  <Name>
ligand

>  <RI>
0

>  <Rbt.Current_Directory>
/home/itssahil/PROJECTS/Mol_Feturizer/New_Systems/rnas/3SUX

>  <Rbt.Executable>
rbdock ($Id: //depot/dev/client3/rdock/2013.1/src/exe/rbdock.cxx#4 $)

>  <Rbt.Library>
libRbt.so (2013.1, Build901 2013/11/27)

>  <Rbt.Parameter_File>
/export/apps/rDock/src/rDock_2013.1_src/data/scripts/dock_solv.prm

>  <Rbt.Receptor>
prm/pocket_docking_8.prm

>  <SCORE>
-9.26593

>  <SCORE.INTER>
-9.26593

>  <SCORE.INTER.CONST>
1

>  <SCORE.INTER.POLAR>
0

>  <SCORE.INTER.ROT>
0

>  <SCORE.INTER.SOLV>
9.75776

>  <SCORE.INTER.VDW>
-13.0299

>  <SCORE.INTER.norm>
-0.712764

>  <SCORE.INTRA>
0

>  <SCORE.INTRA.DIHEDRAL>
0

>  <SCORE.INTRA.DIHEDRAL.0>
0

>  <SCORE.INTRA.POLAR>
0

>  <SCORE.INTRA.POLAR.0>
0

>  <SCORE.INTRA.REPUL>
0

>  <SCORE.INTRA.REPUL.0>
0

>  <SCORE.INTRA.SOLV>
0

>  <SCORE.INTRA.SOLV.lig_0>
-48.6608

>  <SCORE.INTRA.VDW>
0

>  <SCORE.INTRA.VDW.0>
0

>  <SCORE.INTRA.norm>
0

>  <SCORE.RESTR>
0

>  <SCORE.RESTR.CAVITY>
0

>  <SCORE.RESTR.norm>
0

>  <SCORE.SYSTEM>
0

>  <SCORE.SYSTEM.CONST>
0

>  <SCORE.SYSTEM.DIHEDRAL>
0

>  <SCORE.SYSTEM.SOLV>
0

>  <SCORE.SYSTEM.norm>
0

>  <SCORE.heavy>
13

>  <SCORE.norm>
-0.712764

>  <RMSD>
6.638

$$$$
ligand
 OpenBabel11021811483D
libRbt.so/2013.1/901 2013/11/27
 13 14  0  0  0  0  0  0  0  0999 V2000
    6.1624   38.2328   73.3307 N   0  0  0  0  0  0  0  0  0  0  0  0
    7.1337   39.3767   71.5638 N   0  0  0  0  0  0  0  0  0  0  0  0
    6.3526   39.3652   72.6597 C   0  0  0  0  0  0  0  0  0  0  0  0
    5.7268   40.5334   73.0928 N   0  0  0  0  0  0  0  0  0  0  0  0
    5.9411   41.7097   72.3715 C   0  0  0  0  0  0  0  0  0  0  0  0
    6.7648   41.6976   71.2507 C   0  0  0  0  0  0  0  0  0  0  0  0
    5.3963   42.7549   72.7251 O   0  0  0  0  0  0  0  0  0  0  0  0
    6.9463   42.8745   70.4996 N   0  0  0  0  0  0  0  0  0  0  0  0
    7.8566   42.9367   69.3210 C   0  0  2  0  0  0  0  0  0  0  0  0
    7.9389   41.5449   68.6715 C   0  0  0  0  0  0  0  0  0  0  0  0
    7.3415   40.4998   70.8531 C   0  0  0  0  0  0  0  0  0  0  0  0
    8.1513   40.4796   69.7112 N   0  0  0  0  0  0  0  0  0  0  0  0
    9.2696   43.3774   69.8075 C   0  0  0  0  0  0  0  0  0  0  0  0
  1  3  1  0  0  0  0
  2  3  2  0  0  0  0
  2 11  1  0  0  0  0
  3  4  1  0  0  0  0
  4  5  1  0  0  0  0
  5  6  1  0  0  0  0
  5  7  2  0  0  0  0
  6  8  1  0  0  0  0
  6 11  2  0  0  0  0
  8  9  1  0  0  0  0
  9 10  1  0  0  0  0
  9 13  1  1  0  0  0
 10 12  1  0  0  0  0
 11 12  1  0  0  0  0
M  END
>  <CHROM.1>
7.00709598,41.22066693,71.21345539,-2.34867315,0.90175839,-0.20603227

>  <Name>
ligand

>  <RI>
0

>  <Rbt.Current_Directory>
/home/itssahil/PROJECTS/Mol_Feturizer/New_Systems/rnas/3SUX

>  <Rbt.Executable>
rbdock ($Id: //depot/dev/client3/rdock/2013.1/src/exe/rbdock.cxx#4 $)

>  <Rbt.Library>
libRbt.so (2013.1, Build901 2013/11/27)

>  <Rbt.Parameter_File>
/export/apps/rDock/src/rDock_2013.1_src/data/scripts/dock_solv.prm

>  <Rbt.Receptor>
prm/pocket_docking_7.prm

>  <SCORE>
-9.26307

>  <SCORE.INTER>
-9.26307

>  <SCORE.INTER.CONST>
1

>  <SCORE.INTER.POLAR>
0

>  <SCORE.INTER.ROT>
0

>  <SCORE.INTER.SOLV>
9.77061

>  <SCORE.INTER.VDW>
-13.0323

>  <SCORE.INTER.norm>
-0.712544

>  <SCORE.INTRA>
0

>  <SCORE.INTRA.DIHEDRAL>
0

>  <SCORE.INTRA.DIHEDRAL.0>
0

>  <SCORE.INTRA.POLAR>
0

>  <SCORE.INTRA.POLAR.0>
0

>  <SCORE.INTRA.REPUL>
0

>  <SCORE.INTRA.REPUL.0>
0

>  <SCORE.INTRA.SOLV>
0

>  <SCORE.INTRA.SOLV.lig_0>
-48.6608

>  <SCORE.INTRA.VDW>
0

>  <SCORE.INTRA.VDW.0>
0

>  <SCORE.INTRA.norm>
0

>  <SCORE.RESTR>
0

>  <SCORE.RESTR.CAVITY>
0

>  <SCORE.RESTR.norm>
0

>  <SCORE.SYSTEM>
0

>  <SCORE.SYSTEM.CONST>
0

>  <SCORE.SYSTEM.DIHEDRAL>
0

>  <SCORE.SYSTEM.SOLV>
0

>  <SCORE.SYSTEM.norm>
0

>  <SCORE.heavy>
13

>  <SCORE.norm>
-0.712544

>  <RMSD>
6.640

$$$$
ligand
 OpenBabel11021811483D
libRbt.so/2013.1/901 2013/11/27
 13 14  0  0  0  0  0  0  0  0999 V2000
    6.1538   38.2498   73.3380 N   0  0  0  0  0  0  0  0  0  0  0  0
    7.1308   39.3874   71.5702 N   0  0  0  0  0  0  0  0  0  0  0  0
    6.3457   39.3797   72.6633 C   0  0  0  0  0  0  0  0  0  0  0  0
    5.7178   40.5492   73.0897 N   0  0  0  0  0  0  0  0  0  0  0  0
    5.9340   41.7228   72.3647 C   0  0  0  0  0  0  0  0  0  0  0  0
    6.7617   41.7069   71.2468 C   0  0  0  0  0  0  0  0  0  0  0  0
    5.3874   42.7690   72.7123 O   0  0  0  0  0  0  0  0  0  0  0  0
    6.9452   42.8810   70.4918 N   0  0  0  0  0  0  0  0  0  0  0  0
    7.8596   42.9392   69.3162 C   0  0  2  0  0  0  0  0  0  0  0  0
    7.9449   41.5449   68.6724 C   0  0  0  0  0  0  0  0  0  0  0  0
    7.3405   40.5078   70.8559 C   0  0  0  0  0  0  0  0  0  0  0  0
    8.1542   40.4837   69.7169 N   0  0  0  0  0  0  0  0  0  0  0  0
    9.2706   43.3825   69.8060 C   0  0  0  0  0  0  0  0  0  0  0  0
  1  3  1  0  0  0  0
  2  3  2  0  0  0  0
  2 11  1  0  0  0  0
  3  4  1  0  0  0  0
  4  5  1  0  0  0  0
  5  6  1  0  0  0  0
  5  7  2  0  0  0  0
  6  8  1  0  0  0  0
  6 11  2  0  0  0  0
  8  9  1  0  0  0  0
  9 10  1  0  0  0  0
  9 13  1  1  0  0  0
 10 12  1  0  0  0  0
 11 12  1  0  0  0  0
M  END
>  <CHROM.1>
7.00435147,41.22992064,71.21226701,-2.34897367,0.89818477,-0.20964241

>  <Name>
ligand

>  <RI>
0

>  <Rbt.Current_Directory>
/home/itssahil/PROJECTS/Mol_Feturizer/New_Systems/rnas/3SUX

>  <Rbt.Executable>
rbdock ($Id: //depot/dev/client3/rdock/2013.1/src/exe/rbdock.cxx#4 $)

>  <Rbt.Library>
libRbt.so (2013.1, Build901 2013/11/27)

>  <Rbt.Parameter_File>
/export/apps/rDock/src/rDock_2013.1_src/data/scripts/dock_solv.prm

>  <Rbt.Receptor>
prm/pocket_docking_8.prm

>  <SCORE>
-9.25938

>  <SCORE.INTER>
-9.25938

>  <SCORE.INTER.CONST>
1

>  <SCORE.INTER.POLAR>
0

>  <SCORE.INTER.ROT>
0

>  <SCORE.INTER.SOLV>
9.81541

>  <SCORE.INTER.VDW>
-13.0447

>  <SCORE.INTER.norm>
-0.71226

>  <SCORE.INTRA>
0

>  <SCORE.INTRA.DIHEDRAL>
0

>  <SCORE.INTRA.DIHEDRAL.0>
0

>  <SCORE.INTRA.POLAR>
0

>  <SCORE.INTRA.POLAR.0>
0

>  <SCORE.INTRA.REPUL>
0

>  <SCORE.INTRA.REPUL.0>
0

>  <SCORE.INTRA.SOLV>
0

>  <SCORE.INTRA.SOLV.lig_0>
-48.6608

>  <SCORE.INTRA.VDW>
0

>  <SCORE.INTRA.VDW.0>
0

>  <SCORE.INTRA.norm>
0

>  <SCORE.RESTR>
0

>  <SCORE.RESTR.CAVITY>
0

>  <SCORE.RESTR.norm>
0

>  <SCORE.SYSTEM>
0

>  <SCORE.SYSTEM.CONST>
0

>  <SCORE.SYSTEM.DIHEDRAL>
0

>  <SCORE.SYSTEM.SOLV>
0

>  <SCORE.SYSTEM.norm>
0

>  <SCORE.heavy>
13

>  <SCORE.norm>
-0.71226

>  <RMSD>
6.640

$$$$
ligand
 OpenBabel11021811483D
libRbt.so/2013.1/901 2013/11/27
 13 14  0  0  0  0  0  0  0  0999 V2000
    6.1606   38.2408   73.3376 N   0  0  0  0  0  0  0  0  0  0  0  0
    7.1347   39.3826   71.5709 N   0  0  0  0  0  0  0  0  0  0  0  0
    6.3495   39.3718   72.6639 C   0  0  0  0  0  0  0  0  0  0  0  0
    5.7183   40.5392   73.0912 N   0  0  0  0  0  0  0  0  0  0  0  0
    5.9312   41.7140   72.3672 C   0  0  0  0  0  0  0  0  0  0  0  0
    6.7591   41.7013   71.2494 C   0  0  0  0  0  0  0  0  0  0  0  0
    5.3816   42.7583   72.7156 O   0  0  0  0  0  0  0  0  0  0  0  0
    6.9394   42.8766   70.4954 N   0  0  0  0  0  0  0  0  0  0  0  0
    7.8538   42.9383   69.3200 C   0  0  2  0  0  0  0  0  0  0  0  0
    7.9432   41.5448   68.6751 C   0  0  0  0  0  0  0  0  0  0  0  0
    7.3413   40.5042   70.8576 C   0  0  0  0  0  0  0  0  0  0  0  0
    8.1553   40.4834   69.7187 N   0  0  0  0  0  0  0  0  0  0  0  0
    9.2635   43.3852   69.8104 C   0  0  0  0  0  0  0  0  0  0  0  0
  1  3  1  0  0  0  0
  2  3  2  0  0  0  0
  2 11  1  0  0  0  0
  3  4  1  0  0  0  0
  4  5  1  0  0  0  0
  5  6  1  0  0  0  0
  5  7  2  0  0  0  0
  6  8  1  0  0  0  0
  6 11  2  0  0  0  0
  8  9  1  0  0  0  0
  9 10  1  0  0  0  0
  9 13  1  1  0  0  0
 10 12  1  0  0  0  0
 11 12  1  0  0  0  0
M  END
>  <CHROM.1>
7.00311810,41.22508009,71.21449963,-2.34460571,0.89746075,-0.21221894

>  <Name>
ligand

>  <RI>
0

>  <Rbt.Current_Directory>
/home/itssahil/PROJECTS/Mol_Feturizer/New_Systems/rnas/3SUX

>  <Rbt.Executable>
rbdock ($Id: //depot/dev/client3/rdock/2013.1/src/exe/rbdock.cxx#4 $)

>  <Rbt.Library>
libRbt.so (2013.1, Build901 2013/11/27)

>  <Rbt.Parameter_File>
/export/apps/rDock/src/rDock_2013.1_src/data/scripts/dock_solv.prm

>  <Rbt.Receptor>
prm/pocket_docking_7.prm

>  <SCORE>
-9.26275

>  <SCORE.INTER>
-9.26275

>  <SCORE.INTER.CONST>
1

>  <SCORE.INTER.POLAR>
0

>  <SCORE.INTER.ROT>
0

>  <SCORE.INTER.SOLV>
9.79572

>  <SCORE.INTER.VDW>
-13.0404

>  <SCORE.INTER.norm>
-0.712519

>  <SCORE.INTRA>
0

>  <SCORE.INTRA.DIHEDRAL>
0

>  <SCORE.INTRA.DIHEDRAL.0>
0

>  <SCORE.INTRA.POLAR>
0

>  <SCORE.INTRA.POLAR.0>
0

>  <SCORE.INTRA.REPUL>
0

>  <SCORE.INTRA.REPUL.0>
0

>  <SCORE.INTRA.SOLV>
0

>  <SCORE.INTRA.SOLV.lig_0>
-48.6608

>  <SCORE.INTRA.VDW>
0

>  <SCORE.INTRA.VDW.0>
0

>  <SCORE.INTRA.norm>
0

>  <SCORE.RESTR>
0

>  <SCORE.RESTR.CAVITY>
0

>  <SCORE.RESTR.norm>
0

>  <SCORE.SYSTEM>
0

>  <SCORE.SYSTEM.CONST>
0

>  <SCORE.SYSTEM.DIHEDRAL>
0

>  <SCORE.SYSTEM.SOLV>
0

>  <SCORE.SYSTEM.norm>
0

>  <SCORE.heavy>
13

>  <SCORE.norm>
-0.712519

>  <RMSD>
6.642

$$$$
ligand
 OpenBabel11021811483D
libRbt.so/2013.1/901 2013/11/27
 13 14  0  0  0  0  0  0  0  0999 V2000
    6.1769   38.2422   73.3195 N   0  0  0  0  0  0  0  0  0  0  0  0
    7.1437   39.4098   71.5657 N   0  0  0  0  0  0  0  0  0  0  0  0
    6.3566   39.3813   72.6571 C   0  0  0  0  0  0  0  0  0  0  0  0
    5.7139   40.5387   73.0944 N   0  0  0  0  0  0  0  0  0  0  0  0
    5.9175   41.7223   72.3820 C   0  0  0  0  0  0  0  0  0  0  0  0
    6.7475   41.7280   71.2658 C   0  0  0  0  0  0  0  0  0  0  0  0
    5.3577   42.7582   72.7394 O   0  0  0  0  0  0  0  0  0  0  0  0
    6.9184   42.9120   70.5235 N   0  0  0  0  0  0  0  0  0  0  0  0
    7.8344   42.9934   69.3504 C   0  0  2  0  0  0  0  0  0  0  0  0
    7.9377   41.6070   68.6923 C   0  0  0  0  0  0  0  0  0  0  0  0
    7.3413   40.5401   70.8636 C   0  0  0  0  0  0  0  0  0  0  0  0
    8.1576   40.5376   69.7261 N   0  0  0  0  0  0  0  0  0  0  0  0
    9.2390   43.4485   69.8478 C   0  0  0  0  0  0  0  0  0  0  0  0
  1  3  1  0  0  0  0
  2  3  2  0  0  0  0
  2 11  1  0  0  0  0
  3  4  1  0  0  0  0
  4  5  1  0  0  0  0
  5  6  1  0  0  0  0
  5  7  2  0  0  0  0
  6  8  1  0  0  0  0
  6 11  2  0  0  0  0
  8  9  1  0  0  0  0
  9 10  1  0  0  0  0
  9 13  1  1  0  0  0
 10 12  1  0  0  0  0
 11 12  1  0  0  0  0
M  END
>  <CHROM.1>
6.99591138,41.25435333,71.22677912,-2.33093676,0.89369418,-0.21328264

>  <Name>
ligand

>  <RI>
0

>  <Rbt.Current_Directory>
/home/itssahil/PROJECTS/Mol_Feturizer/New_Systems/rnas/3SUX

>  <Rbt.Executable>
rbdock ($Id: //depot/dev/client3/rdock/2013.1/src/exe/rbdock.cxx#4 $)

>  <Rbt.Library>
libRbt.so (2013.1, Build901 2013/11/27)

>  <Rbt.Parameter_File>
/export/apps/rDock/src/rDock_2013.1_src/data/scripts/dock_solv.prm

>  <Rbt.Receptor>
prm/pocket_docking_8.prm

>  <SCORE>
-9.21919

>  <SCORE.INTER>
-9.21919

>  <SCORE.INTER.CONST>
1

>  <SCORE.INTER.POLAR>
0

>  <SCORE.INTER.ROT>
0

>  <SCORE.INTER.SOLV>
9.66653

>  <SCORE.INTER.VDW>
-12.9683

>  <SCORE.INTER.norm>
-0.709169

>  <SCORE.INTRA>
0

>  <SCORE.INTRA.DIHEDRAL>
0

>  <SCORE.INTRA.DIHEDRAL.0>
0

>  <SCORE.INTRA.POLAR>
0

>  <SCORE.INTRA.POLAR.0>
0

>  <SCORE.INTRA.REPUL>
0

>  <SCORE.INTRA.REPUL.0>
0

>  <SCORE.INTRA.SOLV>
0

>  <SCORE.INTRA.SOLV.lig_0>
-48.6608

>  <SCORE.INTRA.VDW>
0

>  <SCORE.INTRA.VDW.0>
0

>  <SCORE.INTRA.norm>
0

>  <SCORE.RESTR>
0

>  <SCORE.RESTR.CAVITY>
0

>  <SCORE.RESTR.norm>
0

>  <SCORE.SYSTEM>
0

>  <SCORE.SYSTEM.CONST>
0

>  <SCORE.SYSTEM.DIHEDRAL>
0

>  <SCORE.SYSTEM.SOLV>
0

>  <SCORE.SYSTEM.norm>
0

>  <SCORE.heavy>
13

>  <SCORE.norm>
-0.709169

>  <RMSD>
6.642

$$$$
ligand
 OpenBabel11021811483D
libRbt.so/2013.1/901 2013/11/27
 13 14  0  0  0  0  0  0  0  0999 V2000
    6.1594   38.2415   73.3385 N   0  0  0  0  0  0  0  0  0  0  0  0
    7.1332   39.3824   71.5711 N   0  0  0  0  0  0  0  0  0  0  0  0
    6.3494   39.3725   72.6650 C   0  0  0  0  0  0  0  0  0  0  0  0
    5.7206   40.5408   73.0936 N   0  0  0  0  0  0  0  0  0  0  0  0
    5.9347   41.7155   72.3698 C   0  0  0  0  0  0  0  0  0  0  0  0
    6.7612   41.7020   71.2510 C   0  0  0  0  0  0  0  0  0  0  0  0
    5.3872   42.7607   72.7193 O   0  0  0  0  0  0  0  0  0  0  0  0
    6.9426   42.8772   70.4973 N   0  0  0  0  0  0  0  0  0  0  0  0
    7.8557   42.9379   69.3208 C   0  0  2  0  0  0  0  0  0  0  0  0
    7.9419   41.5445   68.6752 C   0  0  0  0  0  0  0  0  0  0  0  0
    7.3409   40.5040   70.8580 C   0  0  0  0  0  0  0  0  0  0  0  0
    8.1535   40.4823   69.7181 N   0  0  0  0  0  0  0  0  0  0  0  0
    9.2667   43.3823   69.8097 C   0  0  0  0  0  0  0  0  0  0  0  0
  1  3  1  0  0  0  0
  2  3  2  0  0  0  0
  2 11  1  0  0  0  0
  3  4  1  0  0  0  0
  4  5  1  0  0  0  0
  5  6  1  0  0  0  0
  5  7  2  0  0  0  0
  6  8  1  0  0  0  0
  6 11  2  0  0  0  0
  8  9  1  0  0  0  0
  9 10  1  0  0  0  0
  9 13  1  1  0  0  0
 10 12  1  0  0  0  0
 11 12  1  0  0  0  0
M  END
>  <CHROM.1>
7.00436158,41.22531009,71.21562906,-2.34683699,0.89898253,-0.21005662

>  <Name>
ligand

>  <RI>
0

>  <Rbt.Current_Directory>
/home/itssahil/PROJECTS/Mol_Feturizer/New_Systems/rnas/3SUX

>  <Rbt.Executable>
rbdock ($Id: //depot/dev/client3/rdock/2013.1/src/exe/rbdock.cxx#4 $)

>  <Rbt.Library>
libRbt.so (2013.1, Build901 2013/11/27)

>  <Rbt.Parameter_File>
/export/apps/rDock/src/rDock_2013.1_src/data/scripts/dock_solv.prm

>  <Rbt.Receptor>
prm/pocket_docking_8.prm

>  <SCORE>
-9.26446

>  <SCORE.INTER>
-9.26446

>  <SCORE.INTER.CONST>
1

>  <SCORE.INTER.POLAR>
0

>  <SCORE.INTER.ROT>
0

>  <SCORE.INTER.SOLV>
9.78036

>  <SCORE.INTER.VDW>
-13.0364

>  <SCORE.INTER.norm>
-0.712651

>  <SCORE.INTRA>
0

>  <SCORE.INTRA.DIHEDRAL>
0

>  <SCORE.INTRA.DIHEDRAL.0>
0

>  <SCORE.INTRA.POLAR>
0

>  <SCORE.INTRA.POLAR.0>
0

>  <SCORE.INTRA.REPUL>
0

>  <SCORE.INTRA.REPUL.0>
0

>  <SCORE.INTRA.SOLV>
0

>  <SCORE.INTRA.SOLV.lig_0>
-48.6608

>  <SCORE.INTRA.VDW>
0

>  <SCORE.INTRA.VDW.0>
0

>  <SCORE.INTRA.norm>
0

>  <SCORE.RESTR>
0

>  <SCORE.RESTR.CAVITY>
0

>  <SCORE.RESTR.norm>
0

>  <SCORE.SYSTEM>
0

>  <SCORE.SYSTEM.CONST>
0

>  <SCORE.SYSTEM.DIHEDRAL>
0

>  <SCORE.SYSTEM.SOLV>
0

>  <SCORE.SYSTEM.norm>
0

>  <SCORE.heavy>
13

>  <SCORE.norm>
-0.712651

>  <RMSD>
6.642

$$$$
ligand
 OpenBabel11021811483D
libRbt.so/2013.1/901 2013/11/27
 13 14  0  0  0  0  0  0  0  0999 V2000
    6.1625   38.2334   73.3345 N   0  0  0  0  0  0  0  0  0  0  0  0
    7.1352   39.3776   71.5686 N   0  0  0  0  0  0  0  0  0  0  0  0
    6.3509   39.3653   72.6621 C   0  0  0  0  0  0  0  0  0  0  0  0
    5.7199   40.5321   73.0915 N   0  0  0  0  0  0  0  0  0  0  0  0
    5.9323   41.7079   72.3688 C   0  0  0  0  0  0  0  0  0  0  0  0
    6.7594   41.6968   71.2504 C   0  0  0  0  0  0  0  0  0  0  0  0
    5.3830   42.7518   72.7190 O   0  0  0  0  0  0  0  0  0  0  0  0
    6.9391   42.8730   70.4979 N   0  0  0  0  0  0  0  0  0  0  0  0
    7.8526   42.9363   69.3219 C   0  0  2  0  0  0  0  0  0  0  0  0
    7.9415   41.5437   68.6750 C   0  0  0  0  0  0  0  0  0  0  0  0
    7.3413   40.5002   70.8566 C   0  0  0  0  0  0  0  0  0  0  0  0
    8.1544   40.4809   69.7170 N   0  0  0  0  0  0  0  0  0  0  0  0
    9.2627   43.3826   69.8118 C   0  0  0  0  0  0  0  0  0  0  0  0
  1  3  1  0  0  0  0
  2  3  2  0  0  0  0
  2 11  1  0  0  0  0
  3  4  1  0  0  0  0
  4  5  1  0  0  0  0
  5  6  1  0  0  0  0
  5  7  2  0  0  0  0
  6  8  1  0  0  0  0
  6 11  2  0  0  0  0
  8  9  1  0  0  0  0
  9 10  1  0  0  0  0
  9 13  1  1  0  0  0
 10 12  1  0  0  0  0
 11 12  1  0  0  0  0
M  END
>  <CHROM.1>
7.00336453,41.22056652,71.21471911,-2.34433332,0.89818346,-0.21109927

>  <Name>
ligand

>  <RI>
0

>  <Rbt.Current_Directory>
/home/itssahil/PROJECTS/Mol_Feturizer/New_Systems/rnas/3SUX

>  <Rbt.Executable>
rbdock ($Id: //depot/dev/client3/rdock/2013.1/src/exe/rbdock.cxx#4 $)

>  <Rbt.Library>
libRbt.so (2013.1, Build901 2013/11/27)

>  <Rbt.Parameter_File>
/export/apps/rDock/src/rDock_2013.1_src/data/scripts/dock_solv.prm

>  <Rbt.Receptor>
prm/pocket_docking_7.prm

>  <SCORE>
-9.26322

>  <SCORE.INTER>
-9.26322

>  <SCORE.INTER.CONST>
1

>  <SCORE.INTER.POLAR>
0

>  <SCORE.INTER.ROT>
0

>  <SCORE.INTER.SOLV>
9.7903

>  <SCORE.INTER.VDW>
-13.0389

>  <SCORE.INTER.norm>
-0.712555

>  <SCORE.INTRA>
0

>  <SCORE.INTRA.DIHEDRAL>
0

>  <SCORE.INTRA.DIHEDRAL.0>
0

>  <SCORE.INTRA.POLAR>
0

>  <SCORE.INTRA.POLAR.0>
0

>  <SCORE.INTRA.REPUL>
0

>  <SCORE.INTRA.REPUL.0>
0

>  <SCORE.INTRA.SOLV>
0

>  <SCORE.INTRA.SOLV.lig_0>
-48.6608

>  <SCORE.INTRA.VDW>
0

>  <SCORE.INTRA.VDW.0>
0

>  <SCORE.INTRA.norm>
0

>  <SCORE.RESTR>
0

>  <SCORE.RESTR.CAVITY>
0

>  <SCORE.RESTR.norm>
0

>  <SCORE.SYSTEM>
0

>  <SCORE.SYSTEM.CONST>
0

>  <SCORE.SYSTEM.DIHEDRAL>
0

>  <SCORE.SYSTEM.SOLV>
0

>  <SCORE.SYSTEM.norm>
0

>  <SCORE.heavy>
13

>  <SCORE.norm>
-0.712555

>  <RMSD>
6.643

$$$$
ligand
 OpenBabel11021811483D
libRbt.so/2013.1/901 2013/11/27
 13 14  0  0  0  0  0  0  0  0999 V2000
    6.1572   38.2317   73.3300 N   0  0  0  0  0  0  0  0  0  0  0  0
    7.1319   39.3774   71.5662 N   0  0  0  0  0  0  0  0  0  0  0  0
    6.3441   39.3636   72.6573 C   0  0  0  0  0  0  0  0  0  0  0  0
    5.7081   40.5288   73.0835 N   0  0  0  0  0  0  0  0  0  0  0  0
    5.9191   41.7046   72.3605 C   0  0  0  0  0  0  0  0  0  0  0  0
    6.7498   41.6951   71.2448 C   0  0  0  0  0  0  0  0  0  0  0  0
    5.3654   42.7471   72.7080 O   0  0  0  0  0  0  0  0  0  0  0  0
    6.9283   42.8712   70.4918 N   0  0  0  0  0  0  0  0  0  0  0  0
    7.8454   42.9364   69.3186 C   0  0  2  0  0  0  0  0  0  0  0  0
    7.9408   41.5434   68.6733 C   0  0  0  0  0  0  0  0  0  0  0  0
    7.3368   40.5000   70.8539 C   0  0  0  0  0  0  0  0  0  0  0  0
    8.1537   40.4822   69.7170 N   0  0  0  0  0  0  0  0  0  0  0  0
    9.2525   43.3876   69.8127 C   0  0  0  0  0  0  0  0  0  0  0  0
  1  3  1  0  0  0  0
  2  3  2  0  0  0  0
  2 11  1  0  0  0  0
  3  4  1  0  0  0  0
  4  5  1  0  0  0  0
  5  6  1  0  0  0  0
  5  7  2  0  0  0  0
  6  8  1  0  0  0  0
  6 11  2  0  0  0  0
  8  9  1  0  0  0  0
  9 10  1  0  0  0  0
  9 13  1  1  0  0  0
 10 12  1  0  0  0  0
 11 12  1  0  0  0  0
M  END
>  <CHROM.1>
6.99542881,41.21962077,71.21029003,-2.34048016,0.89435956,-0.21501059

>  <Name>
ligand

>  <RI>
0

>  <Rbt.Current_Directory>
/home/itssahil/PROJECTS/Mol_Feturizer/New_Systems/rnas/3SUX

>  <Rbt.Executable>
rbdock ($Id: //depot/dev/client3/rdock/2013.1/src/exe/rbdock.cxx#4 $)

>  <Rbt.Library>
libRbt.so (2013.1, Build901 2013/11/27)

>  <Rbt.Parameter_File>
/export/apps/rDock/src/rDock_2013.1_src/data/scripts/dock_solv.prm

>  <Rbt.Receptor>
prm/pocket_docking_7.prm

>  <SCORE>
-9.24417

>  <SCORE.INTER>
-9.24417

>  <SCORE.INTER.CONST>
1

>  <SCORE.INTER.POLAR>
0

>  <SCORE.INTER.ROT>
0

>  <SCORE.INTER.SOLV>
9.88923

>  <SCORE.INTER.VDW>
-13.0592

>  <SCORE.INTER.norm>
-0.71109

>  <SCORE.INTRA>
0

>  <SCORE.INTRA.DIHEDRAL>
0

>  <SCORE.INTRA.DIHEDRAL.0>
0

>  <SCORE.INTRA.POLAR>
0

>  <SCORE.INTRA.POLAR.0>
0

>  <SCORE.INTRA.REPUL>
0

>  <SCORE.INTRA.REPUL.0>
0

>  <SCORE.INTRA.SOLV>
0

>  <SCORE.INTRA.SOLV.lig_0>
-48.6608

>  <SCORE.INTRA.VDW>
0

>  <SCORE.INTRA.VDW.0>
0

>  <SCORE.INTRA.norm>
0

>  <SCORE.RESTR>
0

>  <SCORE.RESTR.CAVITY>
0

>  <SCORE.RESTR.norm>
0

>  <SCORE.SYSTEM>
0

>  <SCORE.SYSTEM.CONST>
0

>  <SCORE.SYSTEM.DIHEDRAL>
0

>  <SCORE.SYSTEM.SOLV>
0

>  <SCORE.SYSTEM.norm>
0

>  <SCORE.heavy>
13

>  <SCORE.norm>
-0.71109

>  <RMSD>
6.647

$$$$
ligand
 OpenBabel11021811483D
libRbt.so/2013.1/901 2013/11/27
 13 14  0  0  0  0  0  0  0  0999 V2000
    6.1521   38.2405   73.3423 N   0  0  0  0  0  0  0  0  0  0  0  0
    7.1248   39.3819   71.5746 N   0  0  0  0  0  0  0  0  0  0  0  0
    6.3413   39.3715   72.6688 C   0  0  0  0  0  0  0  0  0  0  0  0
    5.7120   40.5395   73.0975 N   0  0  0  0  0  0  0  0  0  0  0  0
    5.9252   41.7144   72.3736 C   0  0  0  0  0  0  0  0  0  0  0  0
    6.7515   41.7012   71.2545 C   0  0  0  0  0  0  0  0  0  0  0  0
    5.3774   42.7592   72.7232 O   0  0  0  0  0  0  0  0  0  0  0  0
    6.9321   42.8765   70.5008 N   0  0  0  0  0  0  0  0  0  0  0  0
    7.8448   42.9376   69.3240 C   0  0  2  0  0  0  0  0  0  0  0  0
    7.9316   41.5442   68.6784 C   0  0  0  0  0  0  0  0  0  0  0  0
    7.3317   40.5035   70.8614 C   0  0  0  0  0  0  0  0  0  0  0  0
    8.1440   40.4822   69.7213 N   0  0  0  0  0  0  0  0  0  0  0  0
    9.2558   43.3827   69.8125 C   0  0  0  0  0  0  0  0  0  0  0  0
  1  3  1  0  0  0  0
  2  3  2  0  0  0  0
  2 11  1  0  0  0  0
  3  4  1  0  0  0  0
  4  5  1  0  0  0  0
  5  6  1  0  0  0  0
  5  7  2  0  0  0  0
  6  8  1  0  0  0  0
  6 11  2  0  0  0  0
  8  9  1  0  0  0  0
  9 10  1  0  0  0  0
  9 13  1  1  0  0  0
 10 12  1  0  0  0  0
 11 12  1  0  0  0  0
M  END
>  <CHROM.1>
6.99488999,41.22465398,71.21911600,-2.34593794,0.89914139,-0.21080151

>  <Name>
ligand

>  <RI>
0

>  <Rbt.Current_Directory>
/home/itssahil/PROJECTS/Mol_Feturizer/New_Systems/rnas/3SUX

>  <Rbt.Executable>
rbdock ($Id: //depot/dev/client3/rdock/2013.1/src/exe/rbdock.cxx#4 $)

>  <Rbt.Library>
libRbt.so (2013.1, Build901 2013/11/27)

>  <Rbt.Parameter_File>
/export/apps/rDock/src/rDock_2013.1_src/data/scripts/dock_solv.prm

>  <Rbt.Receptor>
prm/pocket_docking_8.prm

>  <SCORE>
-9.25567

>  <SCORE.INTER>
-9.25567

>  <SCORE.INTER.CONST>
1

>  <SCORE.INTER.POLAR>
0

>  <SCORE.INTER.ROT>
0

>  <SCORE.INTER.SOLV>
9.83096

>  <SCORE.INTER.VDW>
-13.0474

>  <SCORE.INTER.norm>
-0.711975

>  <SCORE.INTRA>
0

>  <SCORE.INTRA.DIHEDRAL>
0

>  <SCORE.INTRA.DIHEDRAL.0>
0

>  <SCORE.INTRA.POLAR>
0

>  <SCORE.INTRA.POLAR.0>
0

>  <SCORE.INTRA.REPUL>
0

>  <SCORE.INTRA.REPUL.0>
0

>  <SCORE.INTRA.SOLV>
0

>  <SCORE.INTRA.SOLV.lig_0>
-48.6608

>  <SCORE.INTRA.VDW>
0

>  <SCORE.INTRA.VDW.0>
0

>  <SCORE.INTRA.norm>
0

>  <SCORE.RESTR>
0

>  <SCORE.RESTR.CAVITY>
0

>  <SCORE.RESTR.norm>
0

>  <SCORE.SYSTEM>
0

>  <SCORE.SYSTEM.CONST>
0

>  <SCORE.SYSTEM.DIHEDRAL>
0

>  <SCORE.SYSTEM.SOLV>
0

>  <SCORE.SYSTEM.norm>
0

>  <SCORE.heavy>
13

>  <SCORE.norm>
-0.711975

>  <RMSD>
6.649

$$$$
ligand
 OpenBabel11021811483D
libRbt.so/2013.1/901 2013/11/27
 13 14  0  0  0  0  0  0  0  0999 V2000
    6.0643   38.2495   73.3334 N   0  0  0  0  0  0  0  0  0  0  0  0
    7.0713   39.3734   71.5737 N   0  0  0  0  0  0  0  0  0  0  0  0
    6.2898   39.3795   72.6694 C   0  0  0  0  0  0  0  0  0  0  0  0
    5.7006   40.5640   73.1097 N   0  0  0  0  0  0  0  0  0  0  0  0
    5.9515   41.7374   72.3957 C   0  0  0  0  0  0  0  0  0  0  0  0
    6.7748   41.7066   71.2748 C   0  0  0  0  0  0  0  0  0  0  0  0
    5.4395   42.7968   72.7556 O   0  0  0  0  0  0  0  0  0  0  0  0
    6.9930   42.8819   70.5310 N   0  0  0  0  0  0  0  0  0  0  0  0
    7.9051   42.9230   69.3528 C   0  0  2  0  0  0  0  0  0  0  0  0
    7.9442   41.5332   68.6949 C   0  0  0  0  0  0  0  0  0  0  0  0
    7.3141   40.4938   70.8699 C   0  0  0  0  0  0  0  0  0  0  0  0
    8.1231   40.4555   69.7279 N   0  0  0  0  0  0  0  0  0  0  0  0
    9.3310   43.3165   69.8421 C   0  0  0  0  0  0  0  0  0  0  0  0
  1  3  1  0  0  0  0
  2  3  2  0  0  0  0
  2 11  1  0  0  0  0
  3  4  1  0  0  0  0
  4  5  1  0  0  0  0
  5  6  1  0  0  0  0
  5  7  2  0  0  0  0
  6  8  1  0  0  0  0
  6 11  2  0  0  0  0
  8  9  1  0  0  0  0
  9 10  1  0  0  0  0
  9 13  1  1  0  0  0
 10 12  1  0  0  0  0
 11 12  1  0  0  0  0
M  END
>  <CHROM.1>
7.00213371,41.22256794,71.23465545,-2.39820510,0.90727525,-0.16094369

>  <Name>
ligand

>  <RI>
0

>  <Rbt.Current_Directory>
/home/itssahil/PROJECTS/Mol_Feturizer/New_Systems/rnas/3SUX

>  <Rbt.Executable>
rbdock ($Id: //depot/dev/client3/rdock/2013.1/src/exe/rbdock.cxx#4 $)

>  <Rbt.Library>
libRbt.so (2013.1, Build901 2013/11/27)

>  <Rbt.Parameter_File>
/export/apps/rDock/src/rDock_2013.1_src/data/scripts/dock_solv.prm

>  <Rbt.Receptor>
prm/pocket_docking_7.prm

>  <SCORE>
-9.13744

>  <SCORE.INTER>
-9.13744

>  <SCORE.INTER.CONST>
1

>  <SCORE.INTER.POLAR>
0

>  <SCORE.INTER.ROT>
0

>  <SCORE.INTER.SOLV>
9.84695

>  <SCORE.INTER.VDW>
-12.9739

>  <SCORE.INTER.norm>
-0.70288

>  <SCORE.INTRA>
0

>  <SCORE.INTRA.DIHEDRAL>
0

>  <SCORE.INTRA.DIHEDRAL.0>
0

>  <SCORE.INTRA.POLAR>
0

>  <SCORE.INTRA.POLAR.0>
0

>  <SCORE.INTRA.REPUL>
0

>  <SCORE.INTRA.REPUL.0>
0

>  <SCORE.INTRA.SOLV>
0

>  <SCORE.INTRA.SOLV.lig_0>
-48.6608

>  <SCORE.INTRA.VDW>
0

>  <SCORE.INTRA.VDW.0>
0

>  <SCORE.INTRA.norm>
0

>  <SCORE.RESTR>
0

>  <SCORE.RESTR.CAVITY>
0

>  <SCORE.RESTR.norm>
0

>  <SCORE.SYSTEM>
0

>  <SCORE.SYSTEM.CONST>
0

>  <SCORE.SYSTEM.DIHEDRAL>
0

>  <SCORE.SYSTEM.SOLV>
0

>  <SCORE.SYSTEM.norm>
0

>  <SCORE.heavy>
13

>  <SCORE.norm>
-0.70288

>  <RMSD>
6.651

$$$$
ligand
 OpenBabel11021811483D
libRbt.so/2013.1/901 2013/11/27
 13 14  0  0  0  0  0  0  0  0999 V2000
    6.1810   38.2176   73.3161 N   0  0  0  0  0  0  0  0  0  0  0  0
    7.1425   39.4007   71.5698 N   0  0  0  0  0  0  0  0  0  0  0  0
    6.3588   39.3625   72.6633 C   0  0  0  0  0  0  0  0  0  0  0  0
    5.7177   40.5161   73.1129 N   0  0  0  0  0  0  0  0  0  0  0  0
    5.9191   41.7060   72.4106 C   0  0  0  0  0  0  0  0  0  0  0  0
    6.7457   41.7216   71.2918 C   0  0  0  0  0  0  0  0  0  0  0  0
    5.3606   42.7387   72.7789 O   0  0  0  0  0  0  0  0  0  0  0  0
    6.9145   42.9122   70.5597 N   0  0  0  0  0  0  0  0  0  0  0  0
    7.8269   43.0039   69.3846 C   0  0  2  0  0  0  0  0  0  0  0  0
    7.9279   41.6235   68.7138 C   0  0  0  0  0  0  0  0  0  0  0  0
    7.3382   40.5372   70.8772 C   0  0  0  0  0  0  0  0  0  0  0  0
    8.1509   40.5448   69.7372 N   0  0  0  0  0  0  0  0  0  0  0  0
    9.2331   43.4544   69.8816 C   0  0  0  0  0  0  0  0  0  0  0  0
  1  3  1  0  0  0  0
  2  3  2  0  0  0  0
  2 11  1  0  0  0  0
  3  4  1  0  0  0  0
  4  5  1  0  0  0  0
  5  6  1  0  0  0  0
  5  7  2  0  0  0  0
  6  8  1  0  0  0  0
  6 11  2  0  0  0  0
  8  9  1  0  0  0  0
  9 10  1  0  0  0  0
  9 13  1  1  0  0  0
 10 12  1  0  0  0  0
 11 12  1  0  0  0  0
M  END
>  <CHROM.1>
6.99395499,41.24826103,71.24784759,-2.33011654,0.89674308,-0.20497175

>  <Name>
ligand

>  <RI>
0

>  <Rbt.Current_Directory>
/home/itssahil/PROJECTS/Mol_Feturizer/New_Systems/rnas/3SUX

>  <Rbt.Executable>
rbdock ($Id: //depot/dev/client3/rdock/2013.1/src/exe/rbdock.cxx#4 $)

>  <Rbt.Library>
libRbt.so (2013.1, Build901 2013/11/27)

>  <Rbt.Parameter_File>
/export/apps/rDock/src/rDock_2013.1_src/data/scripts/dock_solv.prm

>  <Rbt.Receptor>
prm/pocket_docking_8.prm

>  <SCORE>
-9.20349

>  <SCORE.INTER>
-9.20349

>  <SCORE.INTER.CONST>
1

>  <SCORE.INTER.POLAR>
0

>  <SCORE.INTER.ROT>
0

>  <SCORE.INTER.SOLV>
9.51234

>  <SCORE.INTER.VDW>
-12.9064

>  <SCORE.INTER.norm>
-0.707961

>  <SCORE.INTRA>
0

>  <SCORE.INTRA.DIHEDRAL>
0

>  <SCORE.INTRA.DIHEDRAL.0>
0

>  <SCORE.INTRA.POLAR>
0

>  <SCORE.INTRA.POLAR.0>
0

>  <SCORE.INTRA.REPUL>
0

>  <SCORE.INTRA.REPUL.0>
0

>  <SCORE.INTRA.SOLV>
0

>  <SCORE.INTRA.SOLV.lig_0>
-48.6608

>  <SCORE.INTRA.VDW>
0

>  <SCORE.INTRA.VDW.0>
0

>  <SCORE.INTRA.norm>
0

>  <SCORE.RESTR>
0

>  <SCORE.RESTR.CAVITY>
0

>  <SCORE.RESTR.norm>
0

>  <SCORE.SYSTEM>
0

>  <SCORE.SYSTEM.CONST>
0

>  <SCORE.SYSTEM.DIHEDRAL>
0

>  <SCORE.SYSTEM.SOLV>
0

>  <SCORE.SYSTEM.norm>
0

>  <SCORE.heavy>
13

>  <SCORE.norm>
-0.707961

>  <RMSD>
6.652

$$$$
ligand
 OpenBabel11021811483D
libRbt.so/2013.1/901 2013/11/27
 13 14  0  0  0  0  0  0  0  0999 V2000
    6.1246   38.2300   73.3479 N   0  0  0  0  0  0  0  0  0  0  0  0
    7.1006   39.3682   71.5800 N   0  0  0  0  0  0  0  0  0  0  0  0
    6.3260   39.3626   72.6805 C   0  0  0  0  0  0  0  0  0  0  0  0
    5.7188   40.5373   73.1224 N   0  0  0  0  0  0  0  0  0  0  0  0
    5.9445   41.7137   72.4048 C   0  0  0  0  0  0  0  0  0  0  0  0
    6.7612   41.6953   71.2788 C   0  0  0  0  0  0  0  0  0  0  0  0
    5.4161   42.7646   72.7660 O   0  0  0  0  0  0  0  0  0  0  0  0
    6.9541   42.8728   70.5316 N   0  0  0  0  0  0  0  0  0  0  0  0
    7.8579   42.9278   69.3477 C   0  0  2  0  0  0  0  0  0  0  0  0
    7.9174   41.5377   68.6919 C   0  0  0  0  0  0  0  0  0  0  0  0
    7.3193   40.4915   70.8727 C   0  0  0  0  0  0  0  0  0  0  0  0
    8.1217   40.4652   69.7257 N   0  0  0  0  0  0  0  0  0  0  0  0
    9.2797   43.3473   69.8274 C   0  0  0  0  0  0  0  0  0  0  0  0
  1  3  1  0  0  0  0
  2  3  2  0  0  0  0
  2 11  1  0  0  0  0
  3  4  1  0  0  0  0
  4  5  1  0  0  0  0
  5  6  1  0  0  0  0
  5  7  2  0  0  0  0
  6  8  1  0  0  0  0
  6 11  2  0  0  0  0
  8  9  1  0  0  0  0
  9 10  1  0  0  0  0
  9 13  1  1  0  0  0
 10 12  1  0  0  0  0
 11 12  1  0  0  0  0
M  END
>  <CHROM.1>
6.99678825,41.21526175,71.23812858,-2.36823612,0.91037700,-0.18638516

>  <Name>
ligand

>  <RI>
0

>  <Rbt.Current_Directory>
/home/itssahil/PROJECTS/Mol_Feturizer/New_Systems/rnas/3SUX

>  <Rbt.Executable>
rbdock ($Id: //depot/dev/client3/rdock/2013.1/src/exe/rbdock.cxx#4 $)

>  <Rbt.Library>
libRbt.so (2013.1, Build901 2013/11/27)

>  <Rbt.Parameter_File>
/export/apps/rDock/src/rDock_2013.1_src/data/scripts/dock_solv.prm

>  <Rbt.Receptor>
prm/pocket_docking_8.prm

>  <SCORE>
-9.20818

>  <SCORE.INTER>
-9.20818

>  <SCORE.INTER.CONST>
1

>  <SCORE.INTER.POLAR>
0

>  <SCORE.INTER.ROT>
0

>  <SCORE.INTER.SOLV>
9.72896

>  <SCORE.INTER.VDW>
-12.9818

>  <SCORE.INTER.norm>
-0.708322

>  <SCORE.INTRA>
0

>  <SCORE.INTRA.DIHEDRAL>
0

>  <SCORE.INTRA.DIHEDRAL.0>
0

>  <SCORE.INTRA.POLAR>
0

>  <SCORE.INTRA.POLAR.0>
0

>  <SCORE.INTRA.REPUL>
0

>  <SCORE.INTRA.REPUL.0>
0

>  <SCORE.INTRA.SOLV>
0

>  <SCORE.INTRA.SOLV.lig_0>
-48.6608

>  <SCORE.INTRA.VDW>
0

>  <SCORE.INTRA.VDW.0>
0

>  <SCORE.INTRA.norm>
0

>  <SCORE.RESTR>
0

>  <SCORE.RESTR.CAVITY>
0

>  <SCORE.RESTR.norm>
0

>  <SCORE.SYSTEM>
0

>  <SCORE.SYSTEM.CONST>
0

>  <SCORE.SYSTEM.DIHEDRAL>
0

>  <SCORE.SYSTEM.SOLV>
0

>  <SCORE.SYSTEM.norm>
0

>  <SCORE.heavy>
13

>  <SCORE.norm>
-0.708322

>  <RMSD>
6.656

$$$$
ligand
 OpenBabel11021811483D
libRbt.so/2013.1/901 2013/11/27
 13 14  0  0  0  0  0  0  0  0999 V2000
    6.1789   38.2200   73.3201 N   0  0  0  0  0  0  0  0  0  0  0  0
    7.1415   39.4001   71.5724 N   0  0  0  0  0  0  0  0  0  0  0  0
    6.3514   39.3623   72.6612 C   0  0  0  0  0  0  0  0  0  0  0  0
    5.6979   40.5132   73.0996 N   0  0  0  0  0  0  0  0  0  0  0  0
    5.8939   41.7004   72.3910 C   0  0  0  0  0  0  0  0  0  0  0  0
    6.7272   41.7158   71.2773 C   0  0  0  0  0  0  0  0  0  0  0  0
    5.3246   42.7307   72.7494 O   0  0  0  0  0  0  0  0  0  0  0  0
    6.8908   42.9032   70.5387 N   0  0  0  0  0  0  0  0  0  0  0  0
    7.8096   42.9951   69.3687 C   0  0  2  0  0  0  0  0  0  0  0  0
    7.9262   41.6114   68.7072 C   0  0  0  0  0  0  0  0  0  0  0  0
    7.3320   40.5338   70.8738 C   0  0  0  0  0  0  0  0  0  0  0  0
    8.1517   40.5411   69.7388 N   0  0  0  0  0  0  0  0  0  0  0  0
    9.2090   43.4603   69.8715 C   0  0  0  0  0  0  0  0  0  0  0  0
  1  3  1  0  0  0  0
  2  3  2  0  0  0  0
  2 11  1  0  0  0  0
  3  4  1  0  0  0  0
  4  5  1  0  0  0  0
  5  6  1  0  0  0  0
  5  7  2  0  0  0  0
  6  8  1  0  0  0  0
  6 11  2  0  0  0  0
  8  9  1  0  0  0  0
  9 10  1  0  0  0  0
  9 13  1  1  0  0  0
 10 12  1  0  0  0  0
 11 12  1  0  0  0  0
M  END
>  <CHROM.1>
6.97966840,41.24429391,71.23782927,-2.31927635,0.88895545,-0.21970192

>  <Name>
ligand

>  <RI>
0

>  <Rbt.Current_Directory>
/home/itssahil/PROJECTS/Mol_Feturizer/New_Systems/rnas/3SUX

>  <Rbt.Executable>
rbdock ($Id: //depot/dev/client3/rdock/2013.1/src/exe/rbdock.cxx#4 $)

>  <Rbt.Library>
libRbt.so (2013.1, Build901 2013/11/27)

>  <Rbt.Parameter_File>
/export/apps/rDock/src/rDock_2013.1_src/data/scripts/dock_solv.prm

>  <Rbt.Receptor>
prm/pocket_docking_7.prm

>  <SCORE>
-9.20905

>  <SCORE.INTER>
-9.20905

>  <SCORE.INTER.CONST>
1

>  <SCORE.INTER.POLAR>
0

>  <SCORE.INTER.ROT>
0

>  <SCORE.INTER.SOLV>
9.69537

>  <SCORE.INTER.VDW>
-12.9712

>  <SCORE.INTER.norm>
-0.708388

>  <SCORE.INTRA>
0

>  <SCORE.INTRA.DIHEDRAL>
0

>  <SCORE.INTRA.DIHEDRAL.0>
0

>  <SCORE.INTRA.POLAR>
0

>  <SCORE.INTRA.POLAR.0>
0

>  <SCORE.INTRA.REPUL>
0

>  <SCORE.INTRA.REPUL.0>
0

>  <SCORE.INTRA.SOLV>
0

>  <SCORE.INTRA.SOLV.lig_0>
-48.6608

>  <SCORE.INTRA.VDW>
0

>  <SCORE.INTRA.VDW.0>
0

>  <SCORE.INTRA.norm>
0

>  <SCORE.RESTR>
0

>  <SCORE.RESTR.CAVITY>
0

>  <SCORE.RESTR.norm>
0

>  <SCORE.SYSTEM>
0

>  <SCORE.SYSTEM.CONST>
0

>  <SCORE.SYSTEM.DIHEDRAL>
0

>  <SCORE.SYSTEM.SOLV>
0

>  <SCORE.SYSTEM.norm>
0

>  <SCORE.heavy>
13

>  <SCORE.norm>
-0.708388

>  <RMSD>
6.659

$$$$
ligand
 OpenBabel11021811483D
libRbt.so/2013.1/901 2013/11/27
 13 14  0  0  0  0  0  0  0  0999 V2000
    4.8194   45.0489   73.2671 N   0  0  0  0  0  0  0  0  0  0  0  0
    5.4838   42.8281   73.2672 N   0  0  0  0  0  0  0  0  0  0  0  0
    5.4161   44.0272   72.6600 C   0  0  0  0  0  0  0  0  0  0  0  0
    5.9575   44.2057   71.3876 N   0  0  0  0  0  0  0  0  0  0  0  0
    6.5783   43.1181   70.7700 C   0  0  0  0  0  0  0  0  0  0  0  0
    6.6476   41.8930   71.4254 C   0  0  0  0  0  0  0  0  0  0  0  0
    7.0586   43.2430   69.6441 O   0  0  0  0  0  0  0  0  0  0  0  0
    7.2360   40.7860   70.7848 N   0  0  0  0  0  0  0  0  0  0  0  0
    7.3863   39.4631   71.4549 C   0  0  2  0  0  0  0  0  0  0  0  0
    6.2643   39.2917   72.4930 C   0  0  0  0  0  0  0  0  0  0  0  0
    6.0698   41.7686   72.6809 C   0  0  0  0  0  0  0  0  0  0  0  0
    6.1164   40.5303   73.3324 N   0  0  0  0  0  0  0  0  0  0  0  0
    8.7732   39.4201   72.1636 C   0  0  0  0  0  0  0  0  0  0  0  0
  1  3  1  0  0  0  0
  2  3  2  0  0  0  0
  2 11  1  0  0  0  0
  3  4  1  0  0  0  0
  4  5  1  0  0  0  0
  5  6  1  0  0  0  0
  5  7  2  0  0  0  0
  6  8  1  0  0  0  0
  6 11  2  0  0  0  0
  8  9  1  0  0  0  0
  9 10  1  0  0  0  0
  9 13  1  1  0  0  0
 10 12  1  0  0  0  0
 11 12  1  0  0  0  0
M  END
>  <CHROM.1>
6.47409109,41.95121485,71.92947211,2.33385349,0.97466841,-0.61107602

>  <Name>
ligand

>  <RI>
0

>  <Rbt.Current_Directory>
/home/itssahil/PROJECTS/Mol_Feturizer/New_Systems/rnas/3SUX

>  <Rbt.Executable>
rbdock ($Id: //depot/dev/client3/rdock/2013.1/src/exe/rbdock.cxx#4 $)

>  <Rbt.Library>
libRbt.so (2013.1, Build901 2013/11/27)

>  <Rbt.Parameter_File>
/export/apps/rDock/src/rDock_2013.1_src/data/scripts/dock_solv.prm

>  <Rbt.Receptor>
prm/pocket_docking_7.prm

>  <SCORE>
-6.84296

>  <SCORE.INTER>
-6.84296

>  <SCORE.INTER.CONST>
1

>  <SCORE.INTER.POLAR>
0

>  <SCORE.INTER.ROT>
0

>  <SCORE.INTER.SOLV>
9.59852

>  <SCORE.INTER.VDW>
-11.3615

>  <SCORE.INTER.norm>
-0.526381

>  <SCORE.INTRA>
0

>  <SCORE.INTRA.DIHEDRAL>
0

>  <SCORE.INTRA.DIHEDRAL.0>
0

>  <SCORE.INTRA.POLAR>
0

>  <SCORE.INTRA.POLAR.0>
0

>  <SCORE.INTRA.REPUL>
0

>  <SCORE.INTRA.REPUL.0>
0

>  <SCORE.INTRA.SOLV>
0

>  <SCORE.INTRA.SOLV.lig_0>
-48.6608

>  <SCORE.INTRA.VDW>
0

>  <SCORE.INTRA.VDW.0>
0

>  <SCORE.INTRA.norm>
0

>  <SCORE.RESTR>
0

>  <SCORE.RESTR.CAVITY>
0

>  <SCORE.RESTR.norm>
0

>  <SCORE.SYSTEM>
0

>  <SCORE.SYSTEM.CONST>
0

>  <SCORE.SYSTEM.DIHEDRAL>
0

>  <SCORE.SYSTEM.SOLV>
0

>  <SCORE.SYSTEM.norm>
0

>  <SCORE.heavy>
13

>  <SCORE.norm>
-0.526381

>  <RMSD>
6.759

$$$$
ligand
 OpenBabel11021811483D
libRbt.so/2013.1/901 2013/11/27
 13 14  0  0  0  0  0  0  0  0999 V2000
    4.8203   45.0553   73.2706 N   0  0  0  0  0  0  0  0  0  0  0  0
    5.4804   42.8332   73.2694 N   0  0  0  0  0  0  0  0  0  0  0  0
    5.4158   44.0330   72.6632 C   0  0  0  0  0  0  0  0  0  0  0  0
    5.9590   44.2116   71.3916 N   0  0  0  0  0  0  0  0  0  0  0  0
    6.5784   43.1233   70.7738 C   0  0  0  0  0  0  0  0  0  0  0  0
    6.6446   41.8975   71.4281 C   0  0  0  0  0  0  0  0  0  0  0  0
    7.0603   43.2483   69.6485 O   0  0  0  0  0  0  0  0  0  0  0  0
    7.2316   40.7899   70.7873 N   0  0  0  0  0  0  0  0  0  0  0  0
    7.3785   39.4662   71.4563 C   0  0  2  0  0  0  0  0  0  0  0  0
    6.2550   39.2960   72.4929 C   0  0  0  0  0  0  0  0  0  0  0  0
    6.0650   41.7731   72.6828 C   0  0  0  0  0  0  0  0  0  0  0  0
    6.1085   40.5341   73.3333 N   0  0  0  0  0  0  0  0  0  0  0  0
    8.7645   39.4198   72.1666 C   0  0  0  0  0  0  0  0  0  0  0  0
  1  3  1  0  0  0  0
  2  3  2  0  0  0  0
  2 11  1  0  0  0  0
  3  4  1  0  0  0  0
  4  5  1  0  0  0  0
  5  6  1  0  0  0  0
  5  7  2  0  0  0  0
  6  8  1  0  0  0  0
  6 11  2  0  0  0  0
  8  9  1  0  0  0  0
  9 10  1  0  0  0  0
  9 13  1  1  0  0  0
 10 12  1  0  0  0  0
 11 12  1  0  0  0  0
M  END
>  <CHROM.1>
6.47060542,41.95559415,71.93206910,2.32980523,0.97480846,-0.60681368

>  <Name>
ligand

>  <RI>
0

>  <Rbt.Current_Directory>
/home/itssahil/PROJECTS/Mol_Feturizer/New_Systems/rnas/3SUX

>  <Rbt.Executable>
rbdock ($Id: //depot/dev/client3/rdock/2013.1/src/exe/rbdock.cxx#4 $)

>  <Rbt.Library>
libRbt.so (2013.1, Build901 2013/11/27)

>  <Rbt.Parameter_File>
/export/apps/rDock/src/rDock_2013.1_src/data/scripts/dock_solv.prm

>  <Rbt.Receptor>
prm/pocket_docking_6.prm

>  <SCORE>
-6.8433

>  <SCORE.INTER>
-6.8433

>  <SCORE.INTER.CONST>
1

>  <SCORE.INTER.POLAR>
0

>  <SCORE.INTER.ROT>
0

>  <SCORE.INTER.SOLV>
9.59823

>  <SCORE.INTER.VDW>
-11.3616

>  <SCORE.INTER.norm>
-0.526408

>  <SCORE.INTRA>
0

>  <SCORE.INTRA.DIHEDRAL>
0

>  <SCORE.INTRA.DIHEDRAL.0>
0

>  <SCORE.INTRA.POLAR>
0

>  <SCORE.INTRA.POLAR.0>
0

>  <SCORE.INTRA.REPUL>
0

>  <SCORE.INTRA.REPUL.0>
0

>  <SCORE.INTRA.SOLV>
0

>  <SCORE.INTRA.SOLV.lig_0>
-48.6608

>  <SCORE.INTRA.VDW>
0

>  <SCORE.INTRA.VDW.0>
0

>  <SCORE.INTRA.norm>
0

>  <SCORE.RESTR>
0

>  <SCORE.RESTR.CAVITY>
0

>  <SCORE.RESTR.norm>
0

>  <SCORE.SYSTEM>
0

>  <SCORE.SYSTEM.CONST>
0

>  <SCORE.SYSTEM.DIHEDRAL>
0

>  <SCORE.SYSTEM.SOLV>
0

>  <SCORE.SYSTEM.norm>
0

>  <SCORE.heavy>
13

>  <SCORE.norm>
-0.526408

>  <RMSD>
6.761

$$$$
ligand
 OpenBabel11021811483D
libRbt.so/2013.1/901 2013/11/27
 13 14  0  0  0  0  0  0  0  0999 V2000
    4.8152   45.0536   73.2971 N   0  0  0  0  0  0  0  0  0  0  0  0
    5.4837   42.8340   73.2909 N   0  0  0  0  0  0  0  0  0  0  0  0
    5.4088   44.0332   72.6847 C   0  0  0  0  0  0  0  0  0  0  0  0
    5.9393   44.2131   71.4079 N   0  0  0  0  0  0  0  0  0  0  0  0
    6.5570   43.1268   70.7850 C   0  0  0  0  0  0  0  0  0  0  0  0
    6.6341   41.9016   71.4393 C   0  0  0  0  0  0  0  0  0  0  0  0
    7.0278   43.2529   69.6551 O   0  0  0  0  0  0  0  0  0  0  0  0
    7.2192   40.7959   70.7936 N   0  0  0  0  0  0  0  0  0  0  0  0
    7.3774   39.4731   71.4620 C   0  0  2  0  0  0  0  0  0  0  0  0
    6.2644   39.2993   72.5092 C   0  0  0  0  0  0  0  0  0  0  0  0
    6.0668   41.7758   72.6995 C   0  0  0  0  0  0  0  0  0  0  0  0
    6.1211   40.5374   73.3502 N   0  0  0  0  0  0  0  0  0  0  0  0
    8.7702   39.4324   72.1592 C   0  0  0  0  0  0  0  0  0  0  0  0
  1  3  1  0  0  0  0
  2  3  2  0  0  0  0
  2 11  1  0  0  0  0
  3  4  1  0  0  0  0
  4  5  1  0  0  0  0
  5  6  1  0  0  0  0
  5  7  2  0  0  0  0
  6  8  1  0  0  0  0
  6 11  2  0  0  0  0
  8  9  1  0  0  0  0
  9 10  1  0  0  0  0
  9 13  1  1  0  0  0
 10 12  1  0  0  0  0
 11 12  1  0  0  0  0
M  END
>  <CHROM.1>
6.46457905,41.95937082,71.94484142,2.34506377,0.98031957,-0.62006033

>  <Name>
ligand

>  <RI>
0

>  <Rbt.Current_Directory>
/home/itssahil/PROJECTS/Mol_Feturizer/New_Systems/rnas/3SUX

>  <Rbt.Executable>
rbdock ($Id: //depot/dev/client3/rdock/2013.1/src/exe/rbdock.cxx#4 $)

>  <Rbt.Library>
libRbt.so (2013.1, Build901 2013/11/27)

>  <Rbt.Parameter_File>
/export/apps/rDock/src/rDock_2013.1_src/data/scripts/dock_solv.prm

>  <Rbt.Receptor>
prm/pocket_docking_8.prm

>  <SCORE>
-6.84837

>  <SCORE.INTER>
-6.84837

>  <SCORE.INTER.CONST>
1

>  <SCORE.INTER.POLAR>
0

>  <SCORE.INTER.ROT>
0

>  <SCORE.INTER.SOLV>
9.51811

>  <SCORE.INTER.VDW>
-11.3383

>  <SCORE.INTER.norm>
-0.526798

>  <SCORE.INTRA>
0

>  <SCORE.INTRA.DIHEDRAL>
0

>  <SCORE.INTRA.DIHEDRAL.0>
0

>  <SCORE.INTRA.POLAR>
0

>  <SCORE.INTRA.POLAR.0>
0

>  <SCORE.INTRA.REPUL>
0

>  <SCORE.INTRA.REPUL.0>
0

>  <SCORE.INTRA.SOLV>
0

>  <SCORE.INTRA.SOLV.lig_0>
-48.6608

>  <SCORE.INTRA.VDW>
0

>  <SCORE.INTRA.VDW.0>
0

>  <SCORE.INTRA.norm>
0

>  <SCORE.RESTR>
0

>  <SCORE.RESTR.CAVITY>
0

>  <SCORE.RESTR.norm>
0

>  <SCORE.SYSTEM>
0

>  <SCORE.SYSTEM.CONST>
0

>  <SCORE.SYSTEM.DIHEDRAL>
0

>  <SCORE.SYSTEM.SOLV>
0

>  <SCORE.SYSTEM.norm>
0

>  <SCORE.heavy>
13

>  <SCORE.norm>
-0.526798

>  <RMSD>
6.775

$$$$
ligand
 OpenBabel11021811483D
libRbt.so/2013.1/901 2013/11/27
 13 14  0  0  0  0  0  0  0  0999 V2000
    4.8150   45.0570   73.2907 N   0  0  0  0  0  0  0  0  0  0  0  0
    5.4835   42.8373   73.2918 N   0  0  0  0  0  0  0  0  0  0  0  0
    5.4058   44.0337   72.6803 C   0  0  0  0  0  0  0  0  0  0  0  0
    5.9302   44.2076   71.4002 N   0  0  0  0  0  0  0  0  0  0  0  0
    6.5450   43.1184   70.7794 C   0  0  0  0  0  0  0  0  0  0  0  0
    6.6251   41.8963   71.4391 C   0  0  0  0  0  0  0  0  0  0  0  0
    7.0105   43.2392   69.6468 O   0  0  0  0  0  0  0  0  0  0  0  0
    7.2072   40.7875   70.7958 N   0  0  0  0  0  0  0  0  0  0  0  0
    7.3686   39.4679   71.4696 C   0  0  2  0  0  0  0  0  0  0  0  0
    6.2605   39.2990   72.5229 C   0  0  0  0  0  0  0  0  0  0  0  0
    6.0638   41.7764   72.7025 C   0  0  0  0  0  0  0  0  0  0  0  0
    6.1212   40.5410   73.3588 N   0  0  0  0  0  0  0  0  0  0  0  0
    8.7647   39.4305   72.1604 C   0  0  0  0  0  0  0  0  0  0  0  0
  1  3  1  0  0  0  0
  2  3  2  0  0  0  0
  2 11  1  0  0  0  0
  3  4  1  0  0  0  0
  4  5  1  0  0  0  0
  5  6  1  0  0  0  0
  5  7  2  0  0  0  0
  6  8  1  0  0  0  0
  6 11  2  0  0  0  0
  8  9  1  0  0  0  0
  9 10  1  0  0  0  0
  9 13  1  1  0  0  0
 10 12  1  0  0  0  0
 11 12  1  0  0  0  0
M  END
>  <CHROM.1>
6.45803738,41.95638979,71.94514474,2.35003545,0.98415629,-0.62887249

>  <Name>
ligand

>  <RI>
0

>  <Rbt.Current_Directory>
/home/itssahil/PROJECTS/Mol_Feturizer/New_Systems/rnas/3SUX

>  <Rbt.Executable>
rbdock ($Id: //depot/dev/client3/rdock/2013.1/src/exe/rbdock.cxx#4 $)

>  <Rbt.Library>
libRbt.so (2013.1, Build901 2013/11/27)

>  <Rbt.Parameter_File>
/export/apps/rDock/src/rDock_2013.1_src/data/scripts/dock_solv.prm

>  <Rbt.Receptor>
prm/pocket_docking_7.prm

>  <SCORE>
-6.844

>  <SCORE.INTER>
-6.844

>  <SCORE.INTER.CONST>
1

>  <SCORE.INTER.POLAR>
0

>  <SCORE.INTER.ROT>
0

>  <SCORE.INTER.SOLV>
9.57225

>  <SCORE.INTER.VDW>
-11.3534

>  <SCORE.INTER.norm>
-0.526462

>  <SCORE.INTRA>
0

>  <SCORE.INTRA.DIHEDRAL>
0

>  <SCORE.INTRA.DIHEDRAL.0>
0

>  <SCORE.INTRA.POLAR>
0

>  <SCORE.INTRA.POLAR.0>
0

>  <SCORE.INTRA.REPUL>
0

>  <SCORE.INTRA.REPUL.0>
0

>  <SCORE.INTRA.SOLV>
0

>  <SCORE.INTRA.SOLV.lig_0>
-48.6608

>  <SCORE.INTRA.VDW>
0

>  <SCORE.INTRA.VDW.0>
0

>  <SCORE.INTRA.norm>
0

>  <SCORE.RESTR>
0

>  <SCORE.RESTR.CAVITY>
0

>  <SCORE.RESTR.norm>
0

>  <SCORE.SYSTEM>
0

>  <SCORE.SYSTEM.CONST>
0

>  <SCORE.SYSTEM.DIHEDRAL>
0

>  <SCORE.SYSTEM.SOLV>
0

>  <SCORE.SYSTEM.norm>
0

>  <SCORE.heavy>
13

>  <SCORE.norm>
-0.526462

>  <RMSD>
6.780

$$$$
ligand
 OpenBabel11021811483D
libRbt.so/2013.1/901 2013/11/27
 13 14  0  0  0  0  0  0  0  0999 V2000
    4.7040   43.4012   74.1145 N   0  0  0  0  0  0  0  0  0  0  0  0
    6.3063   43.3190   72.4413 N   0  0  0  0  0  0  0  0  0  0  0  0
    5.4452   42.6947   73.2660 C   0  0  0  0  0  0  0  0  0  0  0  0
    5.3322   41.3052   73.2480 N   0  0  0  0  0  0  0  0  0  0  0  0
    6.1214   40.5850   72.3490 C   0  0  0  0  0  0  0  0  0  0  0  0
    6.9929   41.2556   71.4971 C   0  0  0  0  0  0  0  0  0  0  0  0
    6.0491   39.3571   72.3152 O   0  0  0  0  0  0  0  0  0  0  0  0
    7.8189   40.5261   70.6209 N   0  0  0  0  0  0  0  0  0  0  0  0
    8.7340   41.1893   69.6490 C   0  0  2  0  0  0  0  0  0  0  0  0
    9.1608   42.5570   70.2085 C   0  0  0  0  0  0  0  0  0  0  0  0
    7.0802   42.6382   71.5770 C   0  0  0  0  0  0  0  0  0  0  0  0
    7.9744   43.3139   70.7380 N   0  0  0  0  0  0  0  0  0  0  0  0
    7.9733   41.3828   68.3031 C   0  0  0  0  0  0  0  0  0  0  0  0
  1  3  1  0  0  0  0
  2  3  2  0  0  0  0
  2 11  1  0  0  0  0
  3  4  1  0  0  0  0
  4  5  1  0  0  0  0
  5  6  1  0  0  0  0
  5  7  2  0  0  0  0
  6  8  1  0  0  0  0
  6 11  2  0  0  0  0
  8  9  1  0  0  0  0
  9 10  1  0  0  0  0
  9 13  1  6  0  0  0
 10 12  1  0  0  0  0
 11 12  1  0  0  0  0
M  END
>  <CHROM.1>
6.90823430,41.78368464,71.53614268,-2.86590008,-0.86487941,-2.94377620

>  <Name>
ligand

>  <RI>
0

>  <Rbt.Current_Directory>
/home/itssahil/PROJECTS/Mol_Feturizer/New_Systems/rnas/3SUX

>  <Rbt.Executable>
rbdock ($Id: //depot/dev/client3/rdock/2013.1/src/exe/rbdock.cxx#4 $)

>  <Rbt.Library>
libRbt.so (2013.1, Build901 2013/11/27)

>  <Rbt.Parameter_File>
/export/apps/rDock/src/rDock_2013.1_src/data/scripts/dock_solv.prm

>  <Rbt.Receptor>
prm/pocket_docking_7.prm

>  <SCORE>
-6.71619

>  <SCORE.INTER>
-6.71619

>  <SCORE.INTER.CONST>
1

>  <SCORE.INTER.POLAR>
0

>  <SCORE.INTER.ROT>
0

>  <SCORE.INTER.SOLV>
9.08518

>  <SCORE.INTER.VDW>
-11.1059

>  <SCORE.INTER.norm>
-0.51663

>  <SCORE.INTRA>
0

>  <SCORE.INTRA.DIHEDRAL>
0

>  <SCORE.INTRA.DIHEDRAL.0>
0

>  <SCORE.INTRA.POLAR>
0

>  <SCORE.INTRA.POLAR.0>
0

>  <SCORE.INTRA.REPUL>
0

>  <SCORE.INTRA.REPUL.0>
0

>  <SCORE.INTRA.SOLV>
0

>  <SCORE.INTRA.SOLV.lig_0>
-48.6608

>  <SCORE.INTRA.VDW>
0

>  <SCORE.INTRA.VDW.0>
0

>  <SCORE.INTRA.norm>
0

>  <SCORE.RESTR>
0

>  <SCORE.RESTR.CAVITY>
0

>  <SCORE.RESTR.norm>
0

>  <SCORE.SYSTEM>
0

>  <SCORE.SYSTEM.CONST>
0

>  <SCORE.SYSTEM.DIHEDRAL>
0

>  <SCORE.SYSTEM.SOLV>
0

>  <SCORE.SYSTEM.norm>
0

>  <SCORE.heavy>
13

>  <SCORE.norm>
-0.51663

>  <RMSD>
6.890

$$$$
ligand
 OpenBabel11021811483D
libRbt.so/2013.1/901 2013/11/27
 13 14  0  0  0  0  0  0  0  0999 V2000
    4.6779   43.4108   74.1044 N   0  0  0  0  0  0  0  0  0  0  0  0
    6.2845   43.3289   72.4353 N   0  0  0  0  0  0  0  0  0  0  0  0
    5.4234   42.7042   73.2597 C   0  0  0  0  0  0  0  0  0  0  0  0
    5.3147   41.3143   73.2454 N   0  0  0  0  0  0  0  0  0  0  0  0
    6.1084   40.5940   72.3503 C   0  0  0  0  0  0  0  0  0  0  0  0
    6.9798   41.2648   71.4986 C   0  0  0  0  0  0  0  0  0  0  0  0
    6.0400   39.3658   72.3199 O   0  0  0  0  0  0  0  0  0  0  0  0
    7.8102   40.5355   70.6264 N   0  0  0  0  0  0  0  0  0  0  0  0
    8.7255   41.1987   69.6549 C   0  0  2  0  0  0  0  0  0  0  0  0
    9.1467   42.5693   70.2115 C   0  0  0  0  0  0  0  0  0  0  0  0
    7.0626   42.6479   71.5747 C   0  0  0  0  0  0  0  0  0  0  0  0
    7.9567   43.3240   70.7359 N   0  0  0  0  0  0  0  0  0  0  0  0
    7.9674   41.3859   68.3066 C   0  0  0  0  0  0  0  0  0  0  0  0
  1  3  1  0  0  0  0
  2  3  2  0  0  0  0
  2 11  1  0  0  0  0
  3  4  1  0  0  0  0
  4  5  1  0  0  0  0
  5  6  1  0  0  0  0
  5  7  2  0  0  0  0
  6  8  1  0  0  0  0
  6 11  2  0  0  0  0
  8  9  1  0  0  0  0
  9 10  1  0  0  0  0
  9 13  1  6  0  0  0
 10 12  1  0  0  0  0
 11 12  1  0  0  0  0
M  END
>  <CHROM.1>
6.89339371,41.79278484,71.53592319,-2.87133053,-0.86313385,-2.95078387

>  <Name>
ligand

>  <RI>
0

>  <Rbt.Current_Directory>
/home/itssahil/PROJECTS/Mol_Feturizer/New_Systems/rnas/3SUX

>  <Rbt.Executable>
rbdock ($Id: //depot/dev/client3/rdock/2013.1/src/exe/rbdock.cxx#4 $)

>  <Rbt.Library>
libRbt.so (2013.1, Build901 2013/11/27)

>  <Rbt.Parameter_File>
/export/apps/rDock/src/rDock_2013.1_src/data/scripts/dock_solv.prm

>  <Rbt.Receptor>
prm/pocket_docking_8.prm

>  <SCORE>
-6.71643

>  <SCORE.INTER>
-6.71643

>  <SCORE.INTER.CONST>
1

>  <SCORE.INTER.POLAR>
0

>  <SCORE.INTER.ROT>
0

>  <SCORE.INTER.SOLV>
9.21298

>  <SCORE.INTER.VDW>
-11.1486

>  <SCORE.INTER.norm>
-0.516648

>  <SCORE.INTRA>
0

>  <SCORE.INTRA.DIHEDRAL>
0

>  <SCORE.INTRA.DIHEDRAL.0>
0

>  <SCORE.INTRA.POLAR>
0

>  <SCORE.INTRA.POLAR.0>
0

>  <SCORE.INTRA.REPUL>
0

>  <SCORE.INTRA.REPUL.0>
0

>  <SCORE.INTRA.SOLV>
0

>  <SCORE.INTRA.SOLV.lig_0>
-48.6608

>  <SCORE.INTRA.VDW>
0

>  <SCORE.INTRA.VDW.0>
0

>  <SCORE.INTRA.norm>
0

>  <SCORE.RESTR>
0

>  <SCORE.RESTR.CAVITY>
0

>  <SCORE.RESTR.norm>
0

>  <SCORE.SYSTEM>
0

>  <SCORE.SYSTEM.CONST>
0

>  <SCORE.SYSTEM.DIHEDRAL>
0

>  <SCORE.SYSTEM.SOLV>
0

>  <SCORE.SYSTEM.norm>
0

>  <SCORE.heavy>
13

>  <SCORE.norm>
-0.516648

>  <RMSD>
6.896

$$$$
ligand
 OpenBabel11021811483D
libRbt.so/2013.1/901 2013/11/27
 13 14  0  0  0  0  0  0  0  0999 V2000
    4.6774   43.4087   74.1202 N   0  0  0  0  0  0  0  0  0  0  0  0
    6.2635   43.3361   72.4312 N   0  0  0  0  0  0  0  0  0  0  0  0
    5.4214   42.7060   73.2708 C   0  0  0  0  0  0  0  0  0  0  0  0
    5.3309   41.3147   73.2675 N   0  0  0  0  0  0  0  0  0  0  0  0
    6.1226   40.5986   72.3673 C   0  0  0  0  0  0  0  0  0  0  0  0
    6.9742   41.2749   71.4998 C   0  0  0  0  0  0  0  0  0  0  0  0
    6.0701   39.3694   72.3461 O   0  0  0  0  0  0  0  0  0  0  0  0
    7.8030   40.5504   70.6221 N   0  0  0  0  0  0  0  0  0  0  0  0
    8.6970   41.2188   69.6344 C   0  0  2  0  0  0  0  0  0  0  0  0
    9.1070   42.5987   70.1762 C   0  0  0  0  0  0  0  0  0  0  0  0
    7.0395   42.6595   71.5655 C   0  0  0  0  0  0  0  0  0  0  0  0
    7.9139   43.3413   70.7107 N   0  0  0  0  0  0  0  0  0  0  0  0
    7.9194   41.3866   68.2948 C   0  0  0  0  0  0  0  0  0  0  0  0
  1  3  1  0  0  0  0
  2  3  2  0  0  0  0
  2 11  1  0  0  0  0
  3  4  1  0  0  0  0
  4  5  1  0  0  0  0
  5  6  1  0  0  0  0
  5  7  2  0  0  0  0
  6  8  1  0  0  0  0
  6 11  2  0  0  0  0
  8  9  1  0  0  0  0
  9 10  1  0  0  0  0
  9 13  1  6  0  0  0
 10 12  1  0  0  0  0
 11 12  1  0  0  0  0
M  END
>  <CHROM.1>
6.88123169,41.80192425,71.53468118,-2.88790116,-0.87807088,-2.97037396

>  <Name>
ligand

>  <RI>
0

>  <Rbt.Current_Directory>
/home/itssahil/PROJECTS/Mol_Feturizer/New_Systems/rnas/3SUX

>  <Rbt.Executable>
rbdock ($Id: //depot/dev/client3/rdock/2013.1/src/exe/rbdock.cxx#4 $)

>  <Rbt.Library>
libRbt.so (2013.1, Build901 2013/11/27)

>  <Rbt.Parameter_File>
/export/apps/rDock/src/rDock_2013.1_src/data/scripts/dock_solv.prm

>  <Rbt.Receptor>
prm/pocket_docking_6.prm

>  <SCORE>
-6.70616

>  <SCORE.INTER>
-6.70616

>  <SCORE.INTER.CONST>
1

>  <SCORE.INTER.POLAR>
0

>  <SCORE.INTER.ROT>
0

>  <SCORE.INTER.SOLV>
9.2104

>  <SCORE.INTER.VDW>
-11.1409

>  <SCORE.INTER.norm>
-0.515858

>  <SCORE.INTRA>
0

>  <SCORE.INTRA.DIHEDRAL>
0

>  <SCORE.INTRA.DIHEDRAL.0>
0

>  <SCORE.INTRA.POLAR>
0

>  <SCORE.INTRA.POLAR.0>
0

>  <SCORE.INTRA.REPUL>
0

>  <SCORE.INTRA.REPUL.0>
0

>  <SCORE.INTRA.SOLV>
0

>  <SCORE.INTRA.SOLV.lig_0>
-48.6608

>  <SCORE.INTRA.VDW>
0

>  <SCORE.INTRA.VDW.0>
0

>  <SCORE.INTRA.norm>
0

>  <SCORE.RESTR>
0

>  <SCORE.RESTR.CAVITY>
0

>  <SCORE.RESTR.norm>
0

>  <SCORE.SYSTEM>
0

>  <SCORE.SYSTEM.CONST>
0

>  <SCORE.SYSTEM.DIHEDRAL>
0

>  <SCORE.SYSTEM.SOLV>
0

>  <SCORE.SYSTEM.norm>
0

>  <SCORE.heavy>
13

>  <SCORE.norm>
-0.515858

>  <RMSD>
6.899

$$$$
ligand
 OpenBabel11021811483D
libRbt.so/2013.1/901 2013/11/27
 13 14  0  0  0  0  0  0  0  0999 V2000
    4.7626   43.2607   74.2037 N   0  0  0  0  0  0  0  0  0  0  0  0
    6.3351   43.2031   72.5014 N   0  0  0  0  0  0  0  0  0  0  0  0
    5.4769   42.5683   73.3210 C   0  0  0  0  0  0  0  0  0  0  0  0
    5.3386   41.1822   73.2618 N   0  0  0  0  0  0  0  0  0  0  0  0
    6.0998   40.4769   72.3274 C   0  0  0  0  0  0  0  0  0  0  0  0
    6.9689   41.1586   71.4819 C   0  0  0  0  0  0  0  0  0  0  0  0
    6.0050   39.2521   72.2568 O   0  0  0  0  0  0  0  0  0  0  0  0
    7.7670   40.4427   70.5694 N   0  0  0  0  0  0  0  0  0  0  0  0
    8.6775   41.1200   69.6030 C   0  0  2  0  0  0  0  0  0  0  0  0
    9.1380   42.4618   70.1973 C   0  0  0  0  0  0  0  0  0  0  0  0
    7.0822   42.5363   71.6032 C   0  0  0  0  0  0  0  0  0  0  0  0
    7.9744   43.2222   70.7703 N   0  0  0  0  0  0  0  0  0  0  0  0
    7.8981   41.3688   68.2771 C   0  0  0  0  0  0  0  0  0  0  0  0
  1  3  1  0  0  0  0
  2  3  2  0  0  0  0
  2 11  1  0  0  0  0
  3  4  1  0  0  0  0
  4  5  1  0  0  0  0
  5  6  1  0  0  0  0
  5  7  2  0  0  0  0
  6  8  1  0  0  0  0
  6 11  2  0  0  0  0
  8  9  1  0  0  0  0
  9 10  1  0  0  0  0
  9 13  1  6  0  0  0
 10 12  1  0  0  0  0
 11 12  1  0  0  0  0
M  END
>  <CHROM.1>
6.89435153,41.68659631,71.53878936,-2.83327175,-0.87740689,-2.88760963

>  <Name>
ligand

>  <RI>
0

>  <Rbt.Current_Directory>
/home/itssahil/PROJECTS/Mol_Feturizer/New_Systems/rnas/3SUX

>  <Rbt.Executable>
rbdock ($Id: //depot/dev/client3/rdock/2013.1/src/exe/rbdock.cxx#4 $)

>  <Rbt.Library>
libRbt.so (2013.1, Build901 2013/11/27)

>  <Rbt.Parameter_File>
/export/apps/rDock/src/rDock_2013.1_src/data/scripts/dock_solv.prm

>  <Rbt.Receptor>
prm/pocket_docking_6.prm

>  <SCORE>
-6.69432

>  <SCORE.INTER>
-6.69432

>  <SCORE.INTER.CONST>
1

>  <SCORE.INTER.POLAR>
0

>  <SCORE.INTER.ROT>
0

>  <SCORE.INTER.SOLV>
9.22327

>  <SCORE.INTER.VDW>
-11.1373

>  <SCORE.INTER.norm>
-0.514948

>  <SCORE.INTRA>
0

>  <SCORE.INTRA.DIHEDRAL>
0

>  <SCORE.INTRA.DIHEDRAL.0>
0

>  <SCORE.INTRA.POLAR>
0

>  <SCORE.INTRA.POLAR.0>
0

>  <SCORE.INTRA.REPUL>
0

>  <SCORE.INTRA.REPUL.0>
0

>  <SCORE.INTRA.SOLV>
0

>  <SCORE.INTRA.SOLV.lig_0>
-48.6608

>  <SCORE.INTRA.VDW>
0

>  <SCORE.INTRA.VDW.0>
0

>  <SCORE.INTRA.norm>
0

>  <SCORE.RESTR>
0

>  <SCORE.RESTR.CAVITY>
0

>  <SCORE.RESTR.norm>
0

>  <SCORE.SYSTEM>
0

>  <SCORE.SYSTEM.CONST>
0

>  <SCORE.SYSTEM.DIHEDRAL>
0

>  <SCORE.SYSTEM.SOLV>
0

>  <SCORE.SYSTEM.norm>
0

>  <SCORE.heavy>
13

>  <SCORE.norm>
-0.514948

>  <RMSD>
6.923

$$$$
ligand
 OpenBabel11021811483D
libRbt.so/2013.1/901 2013/11/27
 13 14  0  0  0  0  0  0  0  0999 V2000
    7.6419   41.9418   71.4752 N   0  0  0  0  0  0  0  0  0  0  0  0
    8.2091   39.7082   71.2247 N   0  0  0  0  0  0  0  0  0  0  0  0
    7.3641   40.6560   71.6706 C   0  0  0  0  0  0  0  0  0  0  0  0
    6.2001   40.3006   72.3508 N   0  0  0  0  0  0  0  0  0  0  0  0
    5.9304   38.9443   72.5445 C   0  0  0  0  0  0  0  0  0  0  0  0
    6.8130   37.9840   72.0608 C   0  0  0  0  0  0  0  0  0  0  0  0
    4.9147   38.6001   73.1479 O   0  0  0  0  0  0  0  0  0  0  0  0
    6.5618   36.6184   72.2936 N   0  0  0  0  0  0  0  0  0  0  0  0
    7.4418   35.5421   71.7562 C   0  0  2  0  0  0  0  0  0  0  0  0
    8.8734   36.0853   71.6101 C   0  0  0  0  0  0  0  0  0  0  0  0
    7.9678   38.3981   71.4124 C   0  0  0  0  0  0  0  0  0  0  0  0
    8.8701   37.4344   70.9463 N   0  0  0  0  0  0  0  0  0  0  0  0
    6.8976   35.1048   70.3633 C   0  0  0  0  0  0  0  0  0  0  0  0
  1  3  1  0  0  0  0
  2  3  2  0  0  0  0
  2 11  1  0  0  0  0
  3  4  1  0  0  0  0
  4  5  1  0  0  0  0
  5  6  1  0  0  0  0
  5  7  2  0  0  0  0
  6  8  1  0  0  0  0
  6 11  2  0  0  0  0
  8  9  1  0  0  0  0
  9 10  1  0  0  0  0
  9 13  1  6  0  0  0
 10 12  1  0  0  0  0
 11 12  1  0  0  0  0
M  END
>  <CHROM.1>
7.18625072,38.22218663,71.75833645,-1.71491853,-0.48345546,-3.07921041

>  <Name>
ligand

>  <RI>
0

>  <Rbt.Current_Directory>
/home/itssahil/PROJECTS/Mol_Feturizer/New_Systems/rnas/3SUX

>  <Rbt.Executable>
rbdock ($Id: //depot/dev/client3/rdock/2013.1/src/exe/rbdock.cxx#4 $)

>  <Rbt.Library>
libRbt.so (2013.1, Build901 2013/11/27)

>  <Rbt.Parameter_File>
/export/apps/rDock/src/rDock_2013.1_src/data/scripts/dock_solv.prm

>  <Rbt.Receptor>
prm/pocket_docking_8.prm

>  <SCORE>
-8.15499

>  <SCORE.INTER>
-8.15499

>  <SCORE.INTER.CONST>
1

>  <SCORE.INTER.POLAR>
0

>  <SCORE.INTER.ROT>
0

>  <SCORE.INTER.SOLV>
9.64944

>  <SCORE.INTER.VDW>
-12.2531

>  <SCORE.INTER.norm>
-0.627307

>  <SCORE.INTRA>
0

>  <SCORE.INTRA.DIHEDRAL>
0

>  <SCORE.INTRA.DIHEDRAL.0>
0

>  <SCORE.INTRA.POLAR>
0

>  <SCORE.INTRA.POLAR.0>
0

>  <SCORE.INTRA.REPUL>
0

>  <SCORE.INTRA.REPUL.0>
0

>  <SCORE.INTRA.SOLV>
0

>  <SCORE.INTRA.SOLV.lig_0>
-48.6608

>  <SCORE.INTRA.VDW>
0

>  <SCORE.INTRA.VDW.0>
0

>  <SCORE.INTRA.norm>
0

>  <SCORE.RESTR>
0

>  <SCORE.RESTR.CAVITY>
0

>  <SCORE.RESTR.norm>
0

>  <SCORE.SYSTEM>
0

>  <SCORE.SYSTEM.CONST>
0

>  <SCORE.SYSTEM.DIHEDRAL>
0

>  <SCORE.SYSTEM.SOLV>
0

>  <SCORE.SYSTEM.norm>
0

>  <SCORE.heavy>
13

>  <SCORE.norm>
-0.627307

>  <RMSD>
7.572

$$$$
ligand
 OpenBabel11021811483D
libRbt.so/2013.1/901 2013/11/27
 13 14  0  0  0  0  0  0  0  0999 V2000
    7.6132   41.9366   71.5145 N   0  0  0  0  0  0  0  0  0  0  0  0
    8.1923   39.7074   71.2519 N   0  0  0  0  0  0  0  0  0  0  0  0
    7.3406   40.6482   71.7000 C   0  0  0  0  0  0  0  0  0  0  0  0
    6.1751   40.2828   72.3722 N   0  0  0  0  0  0  0  0  0  0  0  0
    5.9109   38.9240   72.5555 C   0  0  0  0  0  0  0  0  0  0  0  0
    6.8003   37.9711   72.0698 C   0  0  0  0  0  0  0  0  0  0  0  0
    4.8940   38.5709   73.1516 O   0  0  0  0  0  0  0  0  0  0  0  0
    6.5546   36.6028   72.2921 N   0  0  0  0  0  0  0  0  0  0  0  0
    7.4423   35.5343   71.7519 C   0  0  2  0  0  0  0  0  0  0  0  0
    8.8720   36.0853   71.6163 C   0  0  0  0  0  0  0  0  0  0  0  0
    7.9563   38.3950   71.4297 C   0  0  0  0  0  0  0  0  0  0  0  0
    8.8654   37.4387   70.9615 N   0  0  0  0  0  0  0  0  0  0  0  0
    6.9069   35.1037   70.3535 C   0  0  0  0  0  0  0  0  0  0  0  0
  1  3  1  0  0  0  0
  2  3  2  0  0  0  0
  2 11  1  0  0  0  0
  3  4  1  0  0  0  0
  4  5  1  0  0  0  0
  5  6  1  0  0  0  0
  5  7  2  0  0  0  0
  6  8  1  0  0  0  0
  6 11  2  0  0  0  0
  8  9  1  0  0  0  0
  9 10  1  0  0  0  0
  9 13  1  6  0  0  0
 10 12  1  0  0  0  0
 11 12  1  0  0  0  0
M  END
>  <CHROM.1>
7.17395107,38.21304121,71.77064546,-1.72062871,-0.47894026,-3.07518024

>  <Name>
ligand

>  <RI>
0

>  <Rbt.Current_Directory>
/home/itssahil/PROJECTS/Mol_Feturizer/New_Systems/rnas/3SUX

>  <Rbt.Executable>
rbdock ($Id: //depot/dev/client3/rdock/2013.1/src/exe/rbdock.cxx#4 $)

>  <Rbt.Library>
libRbt.so (2013.1, Build901 2013/11/27)

>  <Rbt.Parameter_File>
/export/apps/rDock/src/rDock_2013.1_src/data/scripts/dock_solv.prm

>  <Rbt.Receptor>
prm/pocket_docking_8.prm

>  <SCORE>
-8.14995

>  <SCORE.INTER>
-8.14995

>  <SCORE.INTER.CONST>
1

>  <SCORE.INTER.POLAR>
0

>  <SCORE.INTER.ROT>
0

>  <SCORE.INTER.SOLV>
9.64948

>  <SCORE.INTER.VDW>
-12.2498

>  <SCORE.INTER.norm>
-0.62692

>  <SCORE.INTRA>
0

>  <SCORE.INTRA.DIHEDRAL>
0

>  <SCORE.INTRA.DIHEDRAL.0>
0

>  <SCORE.INTRA.POLAR>
0

>  <SCORE.INTRA.POLAR.0>
0

>  <SCORE.INTRA.REPUL>
0

>  <SCORE.INTRA.REPUL.0>
0

>  <SCORE.INTRA.SOLV>
0

>  <SCORE.INTRA.SOLV.lig_0>
-48.6608

>  <SCORE.INTRA.VDW>
0

>  <SCORE.INTRA.VDW.0>
0

>  <SCORE.INTRA.norm>
0

>  <SCORE.RESTR>
0

>  <SCORE.RESTR.CAVITY>
0

>  <SCORE.RESTR.norm>
0

>  <SCORE.SYSTEM>
0

>  <SCORE.SYSTEM.CONST>
0

>  <SCORE.SYSTEM.DIHEDRAL>
0

>  <SCORE.SYSTEM.SOLV>
0

>  <SCORE.SYSTEM.norm>
0

>  <SCORE.heavy>
13

>  <SCORE.norm>
-0.62692

>  <RMSD>
7.595

$$$$
ligand
 OpenBabel11021811483D
libRbt.so/2013.1/901 2013/11/27
 13 14  0  0  0  0  0  0  0  0999 V2000
    3.4639   48.4702   61.8885 N   0  0  0  0  0  0  0  0  0  0  0  0
    4.7721   46.5800   61.5895 N   0  0  0  0  0  0  0  0  0  0  0  0
    4.3588   47.7921   61.1757 C   0  0  0  0  0  0  0  0  0  0  0  0
    4.8531   48.3408   59.9932 N   0  0  0  0  0  0  0  0  0  0  0  0
    5.7912   47.6097   59.2616 C   0  0  0  0  0  0  0  0  0  0  0  0
    6.2128   46.3653   59.7188 C   0  0  0  0  0  0  0  0  0  0  0  0
    6.2399   48.0646   58.2100 O   0  0  0  0  0  0  0  0  0  0  0  0
    7.1265   45.6104   58.9589 N   0  0  0  0  0  0  0  0  0  0  0  0
    7.6545   44.2955   59.4214 C   0  0  2  0  0  0  0  0  0  0  0  0
    6.6111   43.6227   60.3295 C   0  0  0  0  0  0  0  0  0  0  0  0
    5.6676   45.8596   60.8904 C   0  0  0  0  0  0  0  0  0  0  0  0
    6.0717   44.5968   61.3400 N   0  0  0  0  0  0  0  0  0  0  0  0
    8.9698   44.5415   60.2195 C   0  0  0  0  0  0  0  0  0  0  0  0
  1  3  1  0  0  0  0
  2  3  2  0  0  0  0
  2 11  1  0  0  0  0
  3  4  1  0  0  0  0
  4  5  1  0  0  0  0
  5  6  1  0  0  0  0
  5  7  2  0  0  0  0
  6  8  1  0  0  0  0
  6 11  2  0  0  0  0
  8  9  1  0  0  0  0
  9 10  1  0  0  0  0
  9 13  1  1  0  0  0
 10 12  1  0  0  0  0
 11 12  1  0  0  0  0
M  END
>  <CHROM.1>
6.01669202,46.28115457,60.21075300,2.65810251,0.74512839,-0.68861883

>  <Name>
ligand

>  <RI>
0

>  <Rbt.Current_Directory>
/home/itssahil/PROJECTS/Mol_Feturizer/New_Systems/rnas/3SUX

>  <Rbt.Executable>
rbdock ($Id: //depot/dev/client3/rdock/2013.1/src/exe/rbdock.cxx#4 $)

>  <Rbt.Library>
libRbt.so (2013.1, Build901 2013/11/27)

>  <Rbt.Parameter_File>
/export/apps/rDock/src/rDock_2013.1_src/data/scripts/dock_solv.prm

>  <Rbt.Receptor>
prm/blind_docking_100.prm

>  <SCORE>
-7.1054

>  <SCORE.INTER>
-7.1054

>  <SCORE.INTER.CONST>
1

>  <SCORE.INTER.POLAR>
0

>  <SCORE.INTER.ROT>
0

>  <SCORE.INTER.SOLV>
9.96613

>  <SCORE.INTER.VDW>
-11.659

>  <SCORE.INTER.norm>
-0.546569

>  <SCORE.INTRA>
0

>  <SCORE.INTRA.DIHEDRAL>
0

>  <SCORE.INTRA.DIHEDRAL.0>
0

>  <SCORE.INTRA.POLAR>
0

>  <SCORE.INTRA.POLAR.0>
0

>  <SCORE.INTRA.REPUL>
0

>  <SCORE.INTRA.REPUL.0>
0

>  <SCORE.INTRA.SOLV>
0

>  <SCORE.INTRA.SOLV.lig_0>
-48.6608

>  <SCORE.INTRA.VDW>
0

>  <SCORE.INTRA.VDW.0>
0

>  <SCORE.INTRA.norm>
0

>  <SCORE.RESTR>
0

>  <SCORE.RESTR.CAVITY>
0

>  <SCORE.RESTR.norm>
0

>  <SCORE.SYSTEM>
0

>  <SCORE.SYSTEM.CONST>
0

>  <SCORE.SYSTEM.DIHEDRAL>
0

>  <SCORE.SYSTEM.SOLV>
0

>  <SCORE.SYSTEM.norm>
0

>  <SCORE.heavy>
13

>  <SCORE.norm>
-0.546569

>  <RMSD>
10.710

$$$$
ligand
 OpenBabel11021811483D
libRbt.so/2013.1/901 2013/11/27
 13 14  0  0  0  0  0  0  0  0999 V2000
    1.2344   39.6994   59.4158 N   0  0  0  0  0  0  0  0  0  0  0  0
    0.7686   41.8848   60.0329 N   0  0  0  0  0  0  0  0  0  0  0  0
    1.4783   41.0021   59.3060 C   0  0  0  0  0  0  0  0  0  0  0  0
    2.4815   41.4426   58.4437 N   0  0  0  0  0  0  0  0  0  0  0  0
    2.7197   42.8150   58.3460 C   0  0  0  0  0  0  0  0  0  0  0  0
    1.9620   43.7074   59.0976 C   0  0  0  0  0  0  0  0  0  0  0  0
    3.6036   43.2334   57.5992 O   0  0  0  0  0  0  0  0  0  0  0  0
    2.2313   45.0876   59.0304 N   0  0  0  0  0  0  0  0  0  0  0  0
    1.4208   46.0958   59.7709 C   0  0  2  0  0  0  0  0  0  0  0  0
    0.8448   45.4474   61.0412 C   0  0  0  0  0  0  0  0  0  0  0  0
    0.9932   43.2089   59.9569 C   0  0  0  0  0  0  0  0  0  0  0  0
    0.2459   44.1031   60.7329 N   0  0  0  0  0  0  0  0  0  0  0  0
    0.2599   46.5742   58.8485 C   0  0  0  0  0  0  0  0  0  0  0  0
  1  3  1  0  0  0  0
  2  3  2  0  0  0  0
  2 11  1  0  0  0  0
  3  4  1  0  0  0  0
  4  5  1  0  0  0  0
  5  6  1  0  0  0  0
  5  7  2  0  0  0  0
  6  8  1  0  0  0  0
  6 11  2  0  0  0  0
  8  9  1  0  0  0  0
  9 10  1  0  0  0  0
  9 13  1  6  0  0  0
 10 12  1  0  0  0  0
 11 12  1  0  0  0  0
M  END
>  <CHROM.1>
1.56302670,43.44231842,59.33868080,1.31361585,-0.76365171,3.11493232

>  <Name>
ligand

>  <RI>
0

>  <Rbt.Current_Directory>
/home/itssahil/PROJECTS/Mol_Feturizer/New_Systems/rnas/3SUX

>  <Rbt.Executable>
rbdock ($Id: //depot/dev/client3/rdock/2013.1/src/exe/rbdock.cxx#4 $)

>  <Rbt.Library>
libRbt.so (2013.1, Build901 2013/11/27)

>  <Rbt.Parameter_File>
/export/apps/rDock/src/rDock_2013.1_src/data/scripts/dock_solv.prm

>  <Rbt.Receptor>
prm/blind_docking_100.prm

>  <SCORE>
-7.77033

>  <SCORE.INTER>
-7.77033

>  <SCORE.INTER.CONST>
1

>  <SCORE.INTER.POLAR>
0

>  <SCORE.INTER.ROT>
0

>  <SCORE.INTER.SOLV>
8.59244

>  <SCORE.INTER.VDW>
-11.6444

>  <SCORE.INTER.norm>
-0.597718

>  <SCORE.INTRA>
0

>  <SCORE.INTRA.DIHEDRAL>
0

>  <SCORE.INTRA.DIHEDRAL.0>
0

>  <SCORE.INTRA.POLAR>
0

>  <SCORE.INTRA.POLAR.0>
0

>  <SCORE.INTRA.REPUL>
0

>  <SCORE.INTRA.REPUL.0>
0

>  <SCORE.INTRA.SOLV>
0

>  <SCORE.INTRA.SOLV.lig_0>
-48.6608

>  <SCORE.INTRA.VDW>
0

>  <SCORE.INTRA.VDW.0>
0

>  <SCORE.INTRA.norm>
0

>  <SCORE.RESTR>
0

>  <SCORE.RESTR.CAVITY>
0

>  <SCORE.RESTR.norm>
0

>  <SCORE.SYSTEM>
0

>  <SCORE.SYSTEM.CONST>
0

>  <SCORE.SYSTEM.DIHEDRAL>
0

>  <SCORE.SYSTEM.SOLV>
0

>  <SCORE.SYSTEM.norm>
0

>  <SCORE.heavy>
13

>  <SCORE.norm>
-0.597718

>  <RMSD>
13.405

$$$$
ligand
 OpenBabel11021811483D
libRbt.so/2013.1/901 2013/11/27
 13 14  0  0  0  0  0  0  0  0999 V2000
    1.3407   39.5642   59.4564 N   0  0  0  0  0  0  0  0  0  0  0  0
    0.8089   41.7386   60.0588 N   0  0  0  0  0  0  0  0  0  0  0  0
    1.5226   40.8739   59.3144 C   0  0  0  0  0  0  0  0  0  0  0  0
    2.4657   41.3410   58.3998 N   0  0  0  0  0  0  0  0  0  0  0  0
    2.6394   42.7203   58.2690 C   0  0  0  0  0  0  0  0  0  0  0  0
    1.8785   43.5930   59.0400 C   0  0  0  0  0  0  0  0  0  0  0  0
    3.4696   43.1623   57.4756 O   0  0  0  0  0  0  0  0  0  0  0  0
    2.0843   44.9821   58.9382 N   0  0  0  0  0  0  0  0  0  0  0  0
    1.2652   45.9681   59.6987 C   0  0  2  0  0  0  0  0  0  0  0  0
    0.7759   45.3190   61.0045 C   0  0  0  0  0  0  0  0  0  0  0  0
    0.9722   43.0695   59.9511 C   0  0  0  0  0  0  0  0  0  0  0  0
    0.2227   43.9450   60.7460 N   0  0  0  0  0  0  0  0  0  0  0  0
    0.0440   46.3798   58.8231 C   0  0  0  0  0  0  0  0  0  0  0  0
  1  3  1  0  0  0  0
  2  3  2  0  0  0  0
  2 11  1  0  0  0  0
  3  4  1  0  0  0  0
  4  5  1  0  0  0  0
  5  6  1  0  0  0  0
  5  7  2  0  0  0  0
  6  8  1  0  0  0  0
  6 11  2  0  0  0  0
  8  9  1  0  0  0  0
  9 10  1  0  0  0  0
  9 13  1  6  0  0  0
 10 12  1  0  0  0  0
 11 12  1  0  0  0  0
M  END
>  <CHROM.1>
1.50270528,43.31568746,59.30353766,1.24912122,-0.80676889,3.05207988

>  <Name>
ligand

>  <RI>
0

>  <Rbt.Current_Directory>
/home/itssahil/PROJECTS/Mol_Feturizer/New_Systems/rnas/3SUX

>  <Rbt.Executable>
rbdock ($Id: //depot/dev/client3/rdock/2013.1/src/exe/rbdock.cxx#4 $)

>  <Rbt.Library>
libRbt.so (2013.1, Build901 2013/11/27)

>  <Rbt.Parameter_File>
/export/apps/rDock/src/rDock_2013.1_src/data/scripts/dock_solv.prm

>  <Rbt.Receptor>
prm/blind_docking_100.prm

>  <SCORE>
-7.77445

>  <SCORE.INTER>
-7.77445

>  <SCORE.INTER.CONST>
1

>  <SCORE.INTER.POLAR>
0

>  <SCORE.INTER.ROT>
0

>  <SCORE.INTER.SOLV>
9.70957

>  <SCORE.INTER.VDW>
-12.0195

>  <SCORE.INTER.norm>
-0.598035

>  <SCORE.INTRA>
0

>  <SCORE.INTRA.DIHEDRAL>
0

>  <SCORE.INTRA.DIHEDRAL.0>
0

>  <SCORE.INTRA.POLAR>
0

>  <SCORE.INTRA.POLAR.0>
0

>  <SCORE.INTRA.REPUL>
0

>  <SCORE.INTRA.REPUL.0>
0

>  <SCORE.INTRA.SOLV>
0

>  <SCORE.INTRA.SOLV.lig_0>
-48.6608

>  <SCORE.INTRA.VDW>
0

>  <SCORE.INTRA.VDW.0>
0

>  <SCORE.INTRA.norm>
0

>  <SCORE.RESTR>
0

>  <SCORE.RESTR.CAVITY>
0

>  <SCORE.RESTR.norm>
0

>  <SCORE.SYSTEM>
0

>  <SCORE.SYSTEM.CONST>
0

>  <SCORE.SYSTEM.DIHEDRAL>
0

>  <SCORE.SYSTEM.SOLV>
0

>  <SCORE.SYSTEM.norm>
0

>  <SCORE.heavy>
13

>  <SCORE.norm>
-0.598035

>  <RMSD>
13.463

$$$$
ligand
 OpenBabel11021811483D
libRbt.so/2013.1/901 2013/11/27
 13 14  0  0  0  0  0  0  0  0999 V2000
    1.2951   39.7184   59.5537 N   0  0  0  0  0  0  0  0  0  0  0  0
    2.3378   41.4252   58.3817 N   0  0  0  0  0  0  0  0  0  0  0  0
    1.4739   41.0171   59.3295 C   0  0  0  0  0  0  0  0  0  0  0  0
    0.7507   41.9483   60.0736 N   0  0  0  0  0  0  0  0  0  0  0  0
    0.9548   43.3060   59.8196 C   0  0  0  0  0  0  0  0  0  0  0  0
    1.8645   43.7018   58.8444 C   0  0  0  0  0  0  0  0  0  0  0  0
    0.3255   44.1512   60.4550 O   0  0  0  0  0  0  0  0  0  0  0  0
    2.0384   45.0695   58.5597 N   0  0  0  0  0  0  0  0  0  0  0  0
    3.0346   45.5571   57.5639 C   0  0  2  0  0  0  0  0  0  0  0  0
    3.2468   44.4764   56.4901 C   0  0  0  0  0  0  0  0  0  0  0  0
    2.5378   42.7292   58.1189 C   0  0  0  0  0  0  0  0  0  0  0  0
    3.4356   43.1242   57.1199 N   0  0  0  0  0  0  0  0  0  0  0  0
    4.3773   45.8396   58.3021 C   0  0  0  0  0  0  0  0  0  0  0  0
  1  3  1  0  0  0  0
  2  3  2  0  0  0  0
  2 11  1  0  0  0  0
  3  4  1  0  0  0  0
  4  5  1  0  0  0  0
  5  6  1  0  0  0  0
  5  7  2  0  0  0  0
  6  8  1  0  0  0  0
  6 11  2  0  0  0  0
  8  9  1  0  0  0  0
  9 10  1  0  0  0  0
  9 13  1  1  0  0  0
 10 12  1  0  0  0  0
 11 12  1  0  0  0  0
M  END
>  <CHROM.1>
2.13551979,43.27316450,58.67000803,-2.29197801,0.81133305,0.10141558

>  <Name>
ligand

>  <RI>
0

>  <Rbt.Current_Directory>
/home/itssahil/PROJECTS/Mol_Feturizer/New_Systems/rnas/3SUX

>  <Rbt.Executable>
rbdock ($Id: //depot/dev/client3/rdock/2013.1/src/exe/rbdock.cxx#4 $)

>  <Rbt.Library>
libRbt.so (2013.1, Build901 2013/11/27)

>  <Rbt.Parameter_File>
/export/apps/rDock/src/rDock_2013.1_src/data/scripts/dock_solv.prm

>  <Rbt.Receptor>
prm/blind_docking_80.prm

>  <SCORE>
-7.08084

>  <SCORE.INTER>
-7.08084

>  <SCORE.INTER.CONST>
1

>  <SCORE.INTER.POLAR>
0

>  <SCORE.INTER.ROT>
0

>  <SCORE.INTER.SOLV>
7.78241

>  <SCORE.INTER.VDW>
-10.9147

>  <SCORE.INTER.norm>
-0.54468

>  <SCORE.INTRA>
0

>  <SCORE.INTRA.DIHEDRAL>
0

>  <SCORE.INTRA.DIHEDRAL.0>
0

>  <SCORE.INTRA.POLAR>
0

>  <SCORE.INTRA.POLAR.0>
0

>  <SCORE.INTRA.REPUL>
0

>  <SCORE.INTRA.REPUL.0>
0

>  <SCORE.INTRA.SOLV>
0

>  <SCORE.INTRA.SOLV.lig_0>
-48.6608

>  <SCORE.INTRA.VDW>
0

>  <SCORE.INTRA.VDW.0>
0

>  <SCORE.INTRA.norm>
0

>  <SCORE.RESTR>
0

>  <SCORE.RESTR.CAVITY>
0

>  <SCORE.RESTR.norm>
0

>  <SCORE.SYSTEM>
0

>  <SCORE.SYSTEM.CONST>
0

>  <SCORE.SYSTEM.DIHEDRAL>
0

>  <SCORE.SYSTEM.SOLV>
0

>  <SCORE.SYSTEM.norm>
0

>  <SCORE.heavy>
13

>  <SCORE.norm>
-0.54468

>  <RMSD>
13.665

$$$$
ligand
 OpenBabel11021811483D
libRbt.so/2013.1/901 2013/11/27
 13 14  0  0  0  0  0  0  0  0999 V2000
    3.2655   44.5430   58.1529 N   0  0  0  0  0  0  0  0  0  0  0  0
    2.8209   42.3142   57.6963 N   0  0  0  0  0  0  0  0  0  0  0  0
    2.6226   43.4156   58.4437 C   0  0  0  0  0  0  0  0  0  0  0  0
    1.7545   43.3819   59.5342 N   0  0  0  0  0  0  0  0  0  0  0  0
    1.0916   42.1868   59.8202 C   0  0  0  0  0  0  0  0  0  0  0  0
    1.3030   41.0665   59.0231 C   0  0  0  0  0  0  0  0  0  0  0  0
    0.3250   42.1242   60.7808 O   0  0  0  0  0  0  0  0  0  0  0  0
    0.6669   39.8505   59.3374 N   0  0  0  0  0  0  0  0  0  0  0  0
    0.8129   38.6316   58.4921 C   0  0  2  0  0  0  0  0  0  0  0  0
    2.1774   38.6682   57.7833 C   0  0  0  0  0  0  0  0  0  0  0  0
    2.1970   41.1531   57.9654 C   0  0  0  0  0  0  0  0  0  0  0  0
    2.4305   40.0204   57.1764 N   0  0  0  0  0  0  0  0  0  0  0  0
   -0.3318   38.6202   57.4352 C   0  0  0  0  0  0  0  0  0  0  0  0
  1  3  1  0  0  0  0
  2  3  2  0  0  0  0
  2 11  1  0  0  0  0
  3  4  1  0  0  0  0
  4  5  1  0  0  0  0
  5  6  1  0  0  0  0
  5  7  2  0  0  0  0
  6  8  1  0  0  0  0
  6 11  2  0  0  0  0
  8  9  1  0  0  0  0
  9 10  1  0  0  0  0
  9 13  1  6  0  0  0
 10 12  1  0  0  0  0
 11 12  1  0  0  0  0
M  END
>  <CHROM.1>
1.59628191,41.20518697,58.59608380,-1.12448840,-0.78059040,-2.63897202

>  <Name>
ligand

>  <RI>
0

>  <Rbt.Current_Directory>
/home/itssahil/PROJECTS/Mol_Feturizer/New_Systems/rnas/3SUX

>  <Rbt.Executable>
rbdock ($Id: //depot/dev/client3/rdock/2013.1/src/exe/rbdock.cxx#4 $)

>  <Rbt.Library>
libRbt.so (2013.1, Build901 2013/11/27)

>  <Rbt.Parameter_File>
/export/apps/rDock/src/rDock_2013.1_src/data/scripts/dock_solv.prm

>  <Rbt.Receptor>
prm/blind_docking_100.prm

>  <SCORE>
-8.12849

>  <SCORE.INTER>
-8.12849

>  <SCORE.INTER.CONST>
1

>  <SCORE.INTER.POLAR>
0

>  <SCORE.INTER.ROT>
0

>  <SCORE.INTER.SOLV>
11.7012

>  <SCORE.INTER.VDW>
-12.9194

>  <SCORE.INTER.norm>
-0.625268

>  <SCORE.INTRA>
0

>  <SCORE.INTRA.DIHEDRAL>
0

>  <SCORE.INTRA.DIHEDRAL.0>
0

>  <SCORE.INTRA.POLAR>
0

>  <SCORE.INTRA.POLAR.0>
0

>  <SCORE.INTRA.REPUL>
0

>  <SCORE.INTRA.REPUL.0>
0

>  <SCORE.INTRA.SOLV>
0

>  <SCORE.INTRA.SOLV.lig_0>
-48.6608

>  <SCORE.INTRA.VDW>
0

>  <SCORE.INTRA.VDW.0>
0

>  <SCORE.INTRA.norm>
0

>  <SCORE.RESTR>
0

>  <SCORE.RESTR.CAVITY>
0

>  <SCORE.RESTR.norm>
0

>  <SCORE.SYSTEM>
0

>  <SCORE.SYSTEM.CONST>
0

>  <SCORE.SYSTEM.DIHEDRAL>
0

>  <SCORE.SYSTEM.SOLV>
0

>  <SCORE.SYSTEM.norm>
0

>  <SCORE.heavy>
13

>  <SCORE.norm>
-0.625268

>  <RMSD>
13.787

$$$$
ligand
 OpenBabel11021811483D
libRbt.so/2013.1/901 2013/11/27
 13 14  0  0  0  0  0  0  0  0999 V2000
    4.9536   44.8242   55.2305 N   0  0  0  0  0  0  0  0  0  0  0  0
    3.0098   45.4713   56.3151 N   0  0  0  0  0  0  0  0  0  0  0  0
    4.0526   44.6300   56.1892 C   0  0  0  0  0  0  0  0  0  0  0  0
    4.1908   43.5430   57.0514 N   0  0  0  0  0  0  0  0  0  0  0  0
    3.2318   43.3594   58.0495 C   0  0  0  0  0  0  0  0  0  0  0  0
    2.1713   44.2519   58.1674 C   0  0  0  0  0  0  0  0  0  0  0  0
    3.3228   42.4048   58.8206 O   0  0  0  0  0  0  0  0  0  0  0  0
    1.1820   44.0420   59.1469 N   0  0  0  0  0  0  0  0  0  0  0  0
    0.0516   44.9908   59.3557 C   0  0  2  0  0  0  0  0  0  0  0  0
   -0.2657   45.6994   58.0279 C   0  0  0  0  0  0  0  0  0  0  0  0
    2.0728   45.3017   57.2653 C   0  0  0  0  0  0  0  0  0  0  0  0
    0.9931   46.1873   57.3661 N   0  0  0  0  0  0  0  0  0  0  0  0
    0.4753   46.0400   60.4268 C   0  0  0  0  0  0  0  0  0  0  0  0
  1  3  1  0  0  0  0
  2  3  2  0  0  0  0
  2 11  1  0  0  0  0
  3  4  1  0  0  0  0
  4  5  1  0  0  0  0
  5  6  1  0  0  0  0
  5  7  2  0  0  0  0
  6  8  1  0  0  0  0
  6 11  2  0  0  0  0
  8  9  1  0  0  0  0
  9 10  1  0  0  0  0
  9 13  1  1  0  0  0
 10 12  1  0  0  0  0
 11 12  1  0  0  0  0
M  END
>  <CHROM.1>
2.25044175,44.66639773,57.83648620,0.24757618,0.63088060,-0.81484537

>  <Name>
ligand

>  <RI>
0

>  <Rbt.Current_Directory>
/home/itssahil/PROJECTS/Mol_Feturizer/New_Systems/rnas/3SUX

>  <Rbt.Executable>
rbdock ($Id: //depot/dev/client3/rdock/2013.1/src/exe/rbdock.cxx#4 $)

>  <Rbt.Library>
libRbt.so (2013.1, Build901 2013/11/27)

>  <Rbt.Parameter_File>
/export/apps/rDock/src/rDock_2013.1_src/data/scripts/dock_solv.prm

>  <Rbt.Receptor>
prm/blind_docking_100.prm

>  <SCORE>
-5.61262

>  <SCORE.INTER>
-5.61262

>  <SCORE.INTER.CONST>
1

>  <SCORE.INTER.POLAR>
0

>  <SCORE.INTER.ROT>
0

>  <SCORE.INTER.SOLV>
7.85994

>  <SCORE.INTER.VDW>
-9.96173

>  <SCORE.INTER.norm>
-0.43174

>  <SCORE.INTRA>
0

>  <SCORE.INTRA.DIHEDRAL>
0

>  <SCORE.INTRA.DIHEDRAL.0>
0

>  <SCORE.INTRA.POLAR>
0

>  <SCORE.INTRA.POLAR.0>
0

>  <SCORE.INTRA.REPUL>
0

>  <SCORE.INTRA.REPUL.0>
0

>  <SCORE.INTRA.SOLV>
0

>  <SCORE.INTRA.SOLV.lig_0>
-48.6608

>  <SCORE.INTRA.VDW>
0

>  <SCORE.INTRA.VDW.0>
0

>  <SCORE.INTRA.norm>
0

>  <SCORE.RESTR>
0

>  <SCORE.RESTR.CAVITY>
0

>  <SCORE.RESTR.norm>
0

>  <SCORE.SYSTEM>
0

>  <SCORE.SYSTEM.CONST>
0

>  <SCORE.SYSTEM.DIHEDRAL>
0

>  <SCORE.SYSTEM.SOLV>
0

>  <SCORE.SYSTEM.norm>
0

>  <SCORE.heavy>
13

>  <SCORE.norm>
-0.43174

>  <RMSD>
13.868

$$$$
ligand
 OpenBabel11021811483D
libRbt.so/2013.1/901 2013/11/27
 13 14  0  0  0  0  0  0  0  0999 V2000
    0.4312   40.4893   61.0258 N   0  0  0  0  0  0  0  0  0  0  0  0
    1.3667   42.3276   59.9678 N   0  0  0  0  0  0  0  0  0  0  0  0
    1.1110   41.0068   60.0066 C   0  0  0  0  0  0  0  0  0  0  0  0
    1.5661   40.1695   58.9890 N   0  0  0  0  0  0  0  0  0  0  0  0
    2.2782   40.7359   57.9298 C   0  0  0  0  0  0  0  0  0  0  0  0
    2.5165   42.1062   57.9063 C   0  0  0  0  0  0  0  0  0  0  0  0
    2.6991   40.0212   57.0209 O   0  0  0  0  0  0  0  0  0  0  0  0
    3.2709   42.6702   56.8599 N   0  0  0  0  0  0  0  0  0  0  0  0
    3.5149   44.1366   56.7524 C   0  0  2  0  0  0  0  0  0  0  0  0
    3.4989   44.7565   58.1599 C   0  0  0  0  0  0  0  0  0  0  0  0
    2.0598   42.8861   58.9592 C   0  0  0  0  0  0  0  0  0  0  0  0
    2.3195   44.2618   58.9505 N   0  0  0  0  0  0  0  0  0  0  0  0
    2.3841   44.7659   55.8847 C   0  0  0  0  0  0  0  0  0  0  0  0
  1  3  1  0  0  0  0
  2  3  2  0  0  0  0
  2 11  1  0  0  0  0
  3  4  1  0  0  0  0
  4  5  1  0  0  0  0
  5  6  1  0  0  0  0
  5  7  2  0  0  0  0
  6  8  1  0  0  0  0
  6 11  2  0  0  0  0
  8  9  1  0  0  0  0
  9 10  1  0  0  0  0
  9 13  1  6  0  0  0
 10 12  1  0  0  0  0
 11 12  1  0  0  0  0
M  END
>  <CHROM.1>
2.24209575,42.34100288,58.30272106,2.54917608,-1.11376657,-2.86008934

>  <Name>
ligand

>  <RI>
0

>  <Rbt.Current_Directory>
/home/itssahil/PROJECTS/Mol_Feturizer/New_Systems/rnas/3SUX

>  <Rbt.Executable>
rbdock ($Id: //depot/dev/client3/rdock/2013.1/src/exe/rbdock.cxx#4 $)

>  <Rbt.Library>
libRbt.so (2013.1, Build901 2013/11/27)

>  <Rbt.Parameter_File>
/export/apps/rDock/src/rDock_2013.1_src/data/scripts/dock_solv.prm

>  <Rbt.Receptor>
prm/blind_docking_80.prm

>  <SCORE>
-6.85738

>  <SCORE.INTER>
-6.85738

>  <SCORE.INTER.CONST>
1

>  <SCORE.INTER.POLAR>
0

>  <SCORE.INTER.ROT>
0

>  <SCORE.INTER.SOLV>
11.7253

>  <SCORE.INTER.VDW>
-12.08

>  <SCORE.INTER.norm>
-0.52749

>  <SCORE.INTRA>
0

>  <SCORE.INTRA.DIHEDRAL>
0

>  <SCORE.INTRA.DIHEDRAL.0>
0

>  <SCORE.INTRA.POLAR>
0

>  <SCORE.INTRA.POLAR.0>
0

>  <SCORE.INTRA.REPUL>
0

>  <SCORE.INTRA.REPUL.0>
0

>  <SCORE.INTRA.SOLV>
0

>  <SCORE.INTRA.SOLV.lig_0>
-48.6608

>  <SCORE.INTRA.VDW>
0

>  <SCORE.INTRA.VDW.0>
0

>  <SCORE.INTRA.norm>
0

>  <SCORE.RESTR>
0

>  <SCORE.RESTR.CAVITY>
0

>  <SCORE.RESTR.norm>
0

>  <SCORE.SYSTEM>
0

>  <SCORE.SYSTEM.CONST>
0

>  <SCORE.SYSTEM.DIHEDRAL>
0

>  <SCORE.SYSTEM.SOLV>
0

>  <SCORE.SYSTEM.norm>
0

>  <SCORE.heavy>
13

>  <SCORE.norm>
-0.52749

>  <RMSD>
13.972

$$$$
ligand
 OpenBabel11021811483D
libRbt.so/2013.1/901 2013/11/27
 13 14  0  0  0  0  0  0  0  0999 V2000
    1.2347   41.2012   59.9376 N   0  0  0  0  0  0  0  0  0  0  0  0
    2.3774   42.7162   58.6063 N   0  0  0  0  0  0  0  0  0  0  0  0
    1.2926   42.3825   59.3295 C   0  0  0  0  0  0  0  0  0  0  0  0
    0.2174   43.2635   59.4368 N   0  0  0  0  0  0  0  0  0  0  0  0
    0.3011   44.4976   58.7889 C   0  0  0  0  0  0  0  0  0  0  0  0
    1.4398   44.8241   58.0596 C   0  0  0  0  0  0  0  0  0  0  0  0
   -0.6351   45.2930   58.8591 O   0  0  0  0  0  0  0  0  0  0  0  0
    1.5058   46.0508   57.3718 N   0  0  0  0  0  0  0  0  0  0  0  0
    2.7181   46.4787   56.6177 C   0  0  2  0  0  0  0  0  0  0  0  0
    3.4691   45.2327   56.1183 C   0  0  0  0  0  0  0  0  0  0  0  0
    2.4684   43.8971   57.9685 C   0  0  0  0  0  0  0  0  0  0  0  0
    3.6053   44.2131   57.2149 N   0  0  0  0  0  0  0  0  0  0  0  0
    3.6339   47.2998   57.5742 C   0  0  0  0  0  0  0  0  0  0  0  0
  1  3  1  0  0  0  0
  2  3  2  0  0  0  0
  2 11  1  0  0  0  0
  3  4  1  0  0  0  0
  4  5  1  0  0  0  0
  5  6  1  0  0  0  0
  5  7  2  0  0  0  0
  6  8  1  0  0  0  0
  6 11  2  0  0  0  0
  8  9  1  0  0  0  0
  9 10  1  0  0  0  0
  9 13  1  1  0  0  0
 10 12  1  0  0  0  0
 11 12  1  0  0  0  0
M  END
>  <CHROM.1>
1.81560287,44.45005021,58.14017368,-2.08936374,0.43415460,-0.35993439

>  <Name>
ligand

>  <RI>
0

>  <Rbt.Current_Directory>
/home/itssahil/PROJECTS/Mol_Feturizer/New_Systems/rnas/3SUX

>  <Rbt.Executable>
rbdock ($Id: //depot/dev/client3/rdock/2013.1/src/exe/rbdock.cxx#4 $)

>  <Rbt.Library>
libRbt.so (2013.1, Build901 2013/11/27)

>  <Rbt.Parameter_File>
/export/apps/rDock/src/rDock_2013.1_src/data/scripts/dock_solv.prm

>  <Rbt.Receptor>
prm/blind_docking_80.prm

>  <SCORE>
-6.48149

>  <SCORE.INTER>
-6.48149

>  <SCORE.INTER.CONST>
1

>  <SCORE.INTER.POLAR>
0

>  <SCORE.INTER.ROT>
0

>  <SCORE.INTER.SOLV>
9.81175

>  <SCORE.INTER.VDW>
-11.1916

>  <SCORE.INTER.norm>
-0.498576

>  <SCORE.INTRA>
0

>  <SCORE.INTRA.DIHEDRAL>
0

>  <SCORE.INTRA.DIHEDRAL.0>
0

>  <SCORE.INTRA.POLAR>
0

>  <SCORE.INTRA.POLAR.0>
0

>  <SCORE.INTRA.REPUL>
0

>  <SCORE.INTRA.REPUL.0>
0

>  <SCORE.INTRA.SOLV>
0

>  <SCORE.INTRA.SOLV.lig_0>
-48.6608

>  <SCORE.INTRA.VDW>
0

>  <SCORE.INTRA.VDW.0>
0

>  <SCORE.INTRA.norm>
0

>  <SCORE.RESTR>
0

>  <SCORE.RESTR.CAVITY>
0

>  <SCORE.RESTR.norm>
0

>  <SCORE.SYSTEM>
0

>  <SCORE.SYSTEM.CONST>
0

>  <SCORE.SYSTEM.DIHEDRAL>
0

>  <SCORE.SYSTEM.SOLV>
0

>  <SCORE.SYSTEM.norm>
0

>  <SCORE.heavy>
13

>  <SCORE.norm>
-0.498576

>  <RMSD>
14.356

$$$$
ligand
 OpenBabel11021811483D
libRbt.so/2013.1/901 2013/11/27
 13 14  0  0  0  0  0  0  0  0999 V2000
    7.5025   41.5718   53.3951 N   0  0  0  0  0  0  0  0  0  0  0  0
    6.1553   42.5820   54.9883 N   0  0  0  0  0  0  0  0  0  0  0  0
    6.7910   42.6189   53.8027 C   0  0  0  0  0  0  0  0  0  0  0  0
    6.7210   43.7562   52.9992 N   0  0  0  0  0  0  0  0  0  0  0  0
    5.9685   44.8432   53.4488 C   0  0  0  0  0  0  0  0  0  0  0  0
    5.3090   44.7740   54.6716 C   0  0  0  0  0  0  0  0  0  0  0  0
    5.8942   45.8635   52.7651 O   0  0  0  0  0  0  0  0  0  0  0  0
    4.5856   45.8858   55.1435 N   0  0  0  0  0  0  0  0  0  0  0  0
    3.8163   45.8541   56.4197 C   0  0  2  0  0  0  0  0  0  0  0  0
    4.4761   44.8533   57.3833 C   0  0  0  0  0  0  0  0  0  0  0  0
    5.4349   43.6248   55.4392 C   0  0  0  0  0  0  0  0  0  0  0  0
    4.7924   43.5618   56.6815 N   0  0  0  0  0  0  0  0  0  0  0  0
    2.3570   45.4052   56.1088 C   0  0  0  0  0  0  0  0  0  0  0  0
  1  3  1  0  0  0  0
  2  3  2  0  0  0  0
  2 11  1  0  0  0  0
  3  4  1  0  0  0  0
  4  5  1  0  0  0  0
  5  6  1  0  0  0  0
  5  7  2  0  0  0  0
  6  8  1  0  0  0  0
  6 11  2  0  0  0  0
  8  9  1  0  0  0  0
  9 10  1  0  0  0  0
  9 13  1  6  0  0  0
 10 12  1  0  0  0  0
 11 12  1  0  0  0  0
M  END
>  <CHROM.1>
5.34355325,44.27456694,54.86396907,-0.06397223,-0.86880503,2.37791787

>  <Name>
ligand

>  <RI>
0

>  <Rbt.Current_Directory>
/home/itssahil/PROJECTS/Mol_Feturizer/New_Systems/rnas/3SUX

>  <Rbt.Executable>
rbdock ($Id: //depot/dev/client3/rdock/2013.1/src/exe/rbdock.cxx#4 $)

>  <Rbt.Library>
libRbt.so (2013.1, Build901 2013/11/27)

>  <Rbt.Parameter_File>
/export/apps/rDock/src/rDock_2013.1_src/data/scripts/dock_solv.prm

>  <Rbt.Receptor>
prm/blind_docking_100.prm

>  <SCORE>
-6.57089

>  <SCORE.INTER>
-6.57089

>  <SCORE.INTER.CONST>
1

>  <SCORE.INTER.POLAR>
0

>  <SCORE.INTER.ROT>
0

>  <SCORE.INTER.SOLV>
7.50902

>  <SCORE.INTER.VDW>
-10.4836

>  <SCORE.INTER.norm>
-0.505453

>  <SCORE.INTRA>
0

>  <SCORE.INTRA.DIHEDRAL>
0

>  <SCORE.INTRA.DIHEDRAL.0>
0

>  <SCORE.INTRA.POLAR>
0

>  <SCORE.INTRA.POLAR.0>
0

>  <SCORE.INTRA.REPUL>
0

>  <SCORE.INTRA.REPUL.0>
0

>  <SCORE.INTRA.SOLV>
0

>  <SCORE.INTRA.SOLV.lig_0>
-48.6608

>  <SCORE.INTRA.VDW>
0

>  <SCORE.INTRA.VDW.0>
0

>  <SCORE.INTRA.norm>
0

>  <SCORE.RESTR>
0

>  <SCORE.RESTR.CAVITY>
0

>  <SCORE.RESTR.norm>
0

>  <SCORE.SYSTEM>
0

>  <SCORE.SYSTEM.CONST>
0

>  <SCORE.SYSTEM.DIHEDRAL>
0

>  <SCORE.SYSTEM.SOLV>
0

>  <SCORE.SYSTEM.norm>
0

>  <SCORE.heavy>
13

>  <SCORE.norm>
-0.505453

>  <RMSD>
14.817

$$$$
ligand
 OpenBabel11021811483D
libRbt.so/2013.1/901 2013/11/27
 13 14  0  0  0  0  0  0  0  0999 V2000
    8.9921   47.3104   54.6769 N   0  0  0  0  0  0  0  0  0  0  0  0
    7.0180   46.7741   55.7673 N   0  0  0  0  0  0  0  0  0  0  0  0
    7.7761   46.7722   54.6553 C   0  0  0  0  0  0  0  0  0  0  0  0
    7.2906   46.2199   53.4708 N   0  0  0  0  0  0  0  0  0  0  0  0
    6.0108   45.6615   53.4726 C   0  0  0  0  0  0  0  0  0  0  0  0
    5.2532   45.6632   54.6393 C   0  0  0  0  0  0  0  0  0  0  0  0
    5.5521   45.1734   52.4404 O   0  0  0  0  0  0  0  0  0  0  0  0
    3.9469   45.1383   54.6294 N   0  0  0  0  0  0  0  0  0  0  0  0
    3.1069   45.0649   55.8585 C   0  0  2  0  0  0  0  0  0  0  0  0
    3.5141   46.1962   56.8177 C   0  0  0  0  0  0  0  0  0  0  0  0
    5.7797   46.2489   55.7818 C   0  0  0  0  0  0  0  0  0  0  0  0
    5.0098   46.2741   56.9509 N   0  0  0  0  0  0  0  0  0  0  0  0
    3.3431   43.6836   56.5396 C   0  0  0  0  0  0  0  0  0  0  0  0
  1  3  1  0  0  0  0
  2  3  2  0  0  0  0
  2 11  1  0  0  0  0
  3  4  1  0  0  0  0
  4  5  1  0  0  0  0
  5  6  1  0  0  0  0
  5  7  2  0  0  0  0
  6  8  1  0  0  0  0
  6 11  2  0  0  0  0
  8  9  1  0  0  0  0
  9 10  1  0  0  0  0
  9 13  1  1  0  0  0
 10 12  1  0  0  0  0
 11 12  1  0  0  0  0
M  END
>  <CHROM.1>
5.55618254,45.83382750,55.04756549,-0.29003801,0.48120298,1.26004168

>  <Name>
ligand

>  <RI>
0

>  <Rbt.Current_Directory>
/home/itssahil/PROJECTS/Mol_Feturizer/New_Systems/rnas/3SUX

>  <Rbt.Executable>
rbdock ($Id: //depot/dev/client3/rdock/2013.1/src/exe/rbdock.cxx#4 $)

>  <Rbt.Library>
libRbt.so (2013.1, Build901 2013/11/27)

>  <Rbt.Parameter_File>
/export/apps/rDock/src/rDock_2013.1_src/data/scripts/dock_solv.prm

>  <Rbt.Receptor>
prm/blind_docking_100.prm

>  <SCORE>
-6.25872

>  <SCORE.INTER>
-6.25872

>  <SCORE.INTER.CONST>
1

>  <SCORE.INTER.POLAR>
0

>  <SCORE.INTER.ROT>
0

>  <SCORE.INTER.SOLV>
10.4292

>  <SCORE.INTER.VDW>
-11.2489

>  <SCORE.INTER.norm>
-0.48144

>  <SCORE.INTRA>
0

>  <SCORE.INTRA.DIHEDRAL>
0

>  <SCORE.INTRA.DIHEDRAL.0>
0

>  <SCORE.INTRA.POLAR>
0

>  <SCORE.INTRA.POLAR.0>
0

>  <SCORE.INTRA.REPUL>
0

>  <SCORE.INTRA.REPUL.0>
0

>  <SCORE.INTRA.SOLV>
0

>  <SCORE.INTRA.SOLV.lig_0>
-48.6608

>  <SCORE.INTRA.VDW>
0

>  <SCORE.INTRA.VDW.0>
0

>  <SCORE.INTRA.norm>
0

>  <SCORE.RESTR>
0

>  <SCORE.RESTR.CAVITY>
0

>  <SCORE.RESTR.norm>
0

>  <SCORE.SYSTEM>
0

>  <SCORE.SYSTEM.CONST>
0

>  <SCORE.SYSTEM.DIHEDRAL>
0

>  <SCORE.SYSTEM.SOLV>
0

>  <SCORE.SYSTEM.norm>
0

>  <SCORE.heavy>
13

>  <SCORE.norm>
-0.48144

>  <RMSD>
14.819

$$$$
ligand
 OpenBabel11021811483D
libRbt.so/2013.1/901 2013/11/27
 13 14  0  0  0  0  0  0  0  0999 V2000
    3.0160   38.0186   55.0838 N   0  0  0  0  0  0  0  0  0  0  0  0
    2.7115   39.3422   56.9624 N   0  0  0  0  0  0  0  0  0  0  0  0
    2.2517   38.4220   56.0947 C   0  0  0  0  0  0  0  0  0  0  0  0
    0.9692   37.8944   56.2390 N   0  0  0  0  0  0  0  0  0  0  0  0
    0.1853   38.3340   57.3076 C   0  0  0  0  0  0  0  0  0  0  0  0
    0.6897   39.2753   58.1989 C   0  0  0  0  0  0  0  0  0  0  0  0
   -0.9535   37.8922   57.4565 O   0  0  0  0  0  0  0  0  0  0  0  0
   -0.1167   39.7493   59.2511 N   0  0  0  0  0  0  0  0  0  0  0  0
    0.3849   40.7174   60.2673 C   0  0  2  0  0  0  0  0  0  0  0  0
    1.4817   41.5911   59.6353 C   0  0  0  0  0  0  0  0  0  0  0  0
    1.9644   39.7826   57.9908 C   0  0  0  0  0  0  0  0  0  0  0  0
    2.4654   40.7483   58.8720 N   0  0  0  0  0  0  0  0  0  0  0  0
    0.9729   39.9171   61.4679 C   0  0  0  0  0  0  0  0  0  0  0  0
  1  3  1  0  0  0  0
  2  3  2  0  0  0  0
  2 11  1  0  0  0  0
  3  4  1  0  0  0  0
  4  5  1  0  0  0  0
  5  6  1  0  0  0  0
  5  7  2  0  0  0  0
  6  8  1  0  0  0  0
  6 11  2  0  0  0  0
  8  9  1  0  0  0  0
  9 10  1  0  0  0  0
  9 13  1  1  0  0  0
 10 12  1  0  0  0  0
 11 12  1  0  0  0  0
M  END
>  <CHROM.1>
1.20922429,39.35807094,58.09462662,-1.36108187,0.44115582,0.97413312

>  <Name>
ligand

>  <RI>
0

>  <Rbt.Current_Directory>
/home/itssahil/PROJECTS/Mol_Feturizer/New_Systems/rnas/3SUX

>  <Rbt.Executable>
rbdock ($Id: //depot/dev/client3/rdock/2013.1/src/exe/rbdock.cxx#4 $)

>  <Rbt.Library>
libRbt.so (2013.1, Build901 2013/11/27)

>  <Rbt.Parameter_File>
/export/apps/rDock/src/rDock_2013.1_src/data/scripts/dock_solv.prm

>  <Rbt.Receptor>
prm/blind_docking_100.prm

>  <SCORE>
-8.20493

>  <SCORE.INTER>
-8.20493

>  <SCORE.INTER.CONST>
1

>  <SCORE.INTER.POLAR>
0

>  <SCORE.INTER.ROT>
0

>  <SCORE.INTER.SOLV>
13.0595

>  <SCORE.INTER.VDW>
-13.4231

>  <SCORE.INTER.norm>
-0.631149

>  <SCORE.INTRA>
0

>  <SCORE.INTRA.DIHEDRAL>
0

>  <SCORE.INTRA.DIHEDRAL.0>
0

>  <SCORE.INTRA.POLAR>
0

>  <SCORE.INTRA.POLAR.0>
0

>  <SCORE.INTRA.REPUL>
0

>  <SCORE.INTRA.REPUL.0>
0

>  <SCORE.INTRA.SOLV>
0

>  <SCORE.INTRA.SOLV.lig_0>
-48.6608

>  <SCORE.INTRA.VDW>
0

>  <SCORE.INTRA.VDW.0>
0

>  <SCORE.INTRA.norm>
0

>  <SCORE.RESTR>
0

>  <SCORE.RESTR.CAVITY>
0

>  <SCORE.RESTR.norm>
0

>  <SCORE.SYSTEM>
0

>  <SCORE.SYSTEM.CONST>
0

>  <SCORE.SYSTEM.DIHEDRAL>
0

>  <SCORE.SYSTEM.SOLV>
0

>  <SCORE.SYSTEM.norm>
0

>  <SCORE.heavy>
13

>  <SCORE.norm>
-0.631149

>  <RMSD>
14.838

$$$$
ligand
 OpenBabel11021811483D
libRbt.so/2013.1/901 2013/11/27
 13 14  0  0  0  0  0  0  0  0999 V2000
    4.2258   47.5759   57.4746 N   0  0  0  0  0  0  0  0  0  0  0  0
    6.4425   47.5791   56.7967 N   0  0  0  0  0  0  0  0  0  0  0  0
    5.1567   47.2431   56.5850 C   0  0  0  0  0  0  0  0  0  0  0  0
    4.7914   46.5338   55.4415 N   0  0  0  0  0  0  0  0  0  0  0  0
    5.7866   46.1950   54.5225 C   0  0  0  0  0  0  0  0  0  0  0  0
    7.1061   46.5670   54.7580 C   0  0  0  0  0  0  0  0  0  0  0  0
    5.4960   45.5627   53.5077 O   0  0  0  0  0  0  0  0  0  0  0  0
    8.1151   46.1883   53.8520 N   0  0  0  0  0  0  0  0  0  0  0  0
    9.5371   46.6011   54.0228 C   0  0  2  0  0  0  0  0  0  0  0  0
    9.8300   46.7985   55.5198 C   0  0  0  0  0  0  0  0  0  0  0  0
    7.4136   47.2511   55.9255 C   0  0  0  0  0  0  0  0  0  0  0  0
    8.7446   47.6052   56.1769 N   0  0  0  0  0  0  0  0  0  0  0  0
    9.7604   47.9407   53.2592 C   0  0  0  0  0  0  0  0  0  0  0  0
  1  3  1  0  0  0  0
  2  3  2  0  0  0  0
  2 11  1  0  0  0  0
  3  4  1  0  0  0  0
  4  5  1  0  0  0  0
  5  6  1  0  0  0  0
  5  7  2  0  0  0  0
  6  8  1  0  0  0  0
  6 11  2  0  0  0  0
  8  9  1  0  0  0  0
  9 10  1  0  0  0  0
  9 13  1  6  0  0  0
 10 12  1  0  0  0  0
 11 12  1  0  0  0  0
M  END
>  <CHROM.1>
7.12571230,46.89185046,55.18420804,-2.77581721,-0.20443437,-2.00899736

>  <Name>
ligand

>  <RI>
0

>  <Rbt.Current_Directory>
/home/itssahil/PROJECTS/Mol_Feturizer/New_Systems/rnas/3SUX

>  <Rbt.Executable>
rbdock ($Id: //depot/dev/client3/rdock/2013.1/src/exe/rbdock.cxx#4 $)

>  <Rbt.Library>
libRbt.so (2013.1, Build901 2013/11/27)

>  <Rbt.Parameter_File>
/export/apps/rDock/src/rDock_2013.1_src/data/scripts/dock_solv.prm

>  <Rbt.Receptor>
prm/blind_docking_100.prm

>  <SCORE>
-5.80355

>  <SCORE.INTER>
-5.80355

>  <SCORE.INTER.CONST>
1

>  <SCORE.INTER.POLAR>
0

>  <SCORE.INTER.ROT>
0

>  <SCORE.INTER.SOLV>
9.18408

>  <SCORE.INTER.VDW>
-10.5304

>  <SCORE.INTER.norm>
-0.446427

>  <SCORE.INTRA>
0

>  <SCORE.INTRA.DIHEDRAL>
0

>  <SCORE.INTRA.DIHEDRAL.0>
0

>  <SCORE.INTRA.POLAR>
0

>  <SCORE.INTRA.POLAR.0>
0

>  <SCORE.INTRA.REPUL>
0

>  <SCORE.INTRA.REPUL.0>
0

>  <SCORE.INTRA.SOLV>
0

>  <SCORE.INTRA.SOLV.lig_0>
-48.6608

>  <SCORE.INTRA.VDW>
0

>  <SCORE.INTRA.VDW.0>
0

>  <SCORE.INTRA.norm>
0

>  <SCORE.RESTR>
0

>  <SCORE.RESTR.CAVITY>
0

>  <SCORE.RESTR.norm>
0

>  <SCORE.SYSTEM>
0

>  <SCORE.SYSTEM.CONST>
0

>  <SCORE.SYSTEM.DIHEDRAL>
0

>  <SCORE.SYSTEM.SOLV>
0

>  <SCORE.SYSTEM.norm>
0

>  <SCORE.heavy>
13

>  <SCORE.norm>
-0.446427

>  <RMSD>
14.921

$$$$
ligand
 OpenBabel11021811483D
libRbt.so/2013.1/901 2013/11/27
 13 14  0  0  0  0  0  0  0  0999 V2000
    3.6434   39.1291   54.7230 N   0  0  0  0  0  0  0  0  0  0  0  0
    3.8945   41.4025   55.1001 N   0  0  0  0  0  0  0  0  0  0  0  0
    4.4223   40.2052   54.7853 C   0  0  0  0  0  0  0  0  0  0  0  0
    5.7882   40.0796   54.5352 N   0  0  0  0  0  0  0  0  0  0  0  0
    6.5858   41.2235   54.6073 C   0  0  0  0  0  0  0  0  0  0  0  0
    6.0129   42.4519   54.9205 C   0  0  0  0  0  0  0  0  0  0  0  0
    7.7958   41.1427   54.3992 O   0  0  0  0  0  0  0  0  0  0  0  0
    6.8243   43.5967   55.0346 N   0  0  0  0  0  0  0  0  0  0  0  0
    6.2625   44.9483   55.3159 C   0  0  2  0  0  0  0  0  0  0  0  0
    4.9625   44.7975   56.1239 C   0  0  0  0  0  0  0  0  0  0  0  0
    4.6516   42.5113   55.1830 C   0  0  0  0  0  0  0  0  0  0  0  0
    4.0766   43.7418   55.5226 N   0  0  0  0  0  0  0  0  0  0  0  0
    5.9629   45.6537   53.9593 C   0  0  0  0  0  0  0  0  0  0  0  0
  1  3  1  0  0  0  0
  2  3  2  0  0  0  0
  2 11  1  0  0  0  0
  3  4  1  0  0  0  0
  4  5  1  0  0  0  0
  5  6  1  0  0  0  0
  5  7  2  0  0  0  0
  6  8  1  0  0  0  0
  6 11  2  0  0  0  0
  8  9  1  0  0  0  0
  9 10  1  0  0  0  0
  9 13  1  6  0  0  0
 10 12  1  0  0  0  0
 11 12  1  0  0  0  0
M  END
>  <CHROM.1>
5.47902126,42.40195855,54.92837309,1.76353331,-0.22708199,-3.02583075

>  <Name>
ligand

>  <RI>
0

>  <Rbt.Current_Directory>
/home/itssahil/PROJECTS/Mol_Feturizer/New_Systems/rnas/3SUX

>  <Rbt.Executable>
rbdock ($Id: //depot/dev/client3/rdock/2013.1/src/exe/rbdock.cxx#4 $)

>  <Rbt.Library>
libRbt.so (2013.1, Build901 2013/11/27)

>  <Rbt.Parameter_File>
/export/apps/rDock/src/rDock_2013.1_src/data/scripts/dock_solv.prm

>  <Rbt.Receptor>
prm/blind_docking_100.prm

>  <SCORE>
-7.35406

>  <SCORE.INTER>
-7.35406

>  <SCORE.INTER.CONST>
1

>  <SCORE.INTER.POLAR>
0

>  <SCORE.INTER.ROT>
0

>  <SCORE.INTER.SOLV>
5.86768

>  <SCORE.INTER.VDW>
-10.4586

>  <SCORE.INTER.norm>
-0.565697

>  <SCORE.INTRA>
0

>  <SCORE.INTRA.DIHEDRAL>
0

>  <SCORE.INTRA.DIHEDRAL.0>
0

>  <SCORE.INTRA.POLAR>
0

>  <SCORE.INTRA.POLAR.0>
0

>  <SCORE.INTRA.REPUL>
0

>  <SCORE.INTRA.REPUL.0>
0

>  <SCORE.INTRA.SOLV>
0

>  <SCORE.INTRA.SOLV.lig_0>
-48.6608

>  <SCORE.INTRA.VDW>
0

>  <SCORE.INTRA.VDW.0>
0

>  <SCORE.INTRA.norm>
0

>  <SCORE.RESTR>
0

>  <SCORE.RESTR.CAVITY>
0

>  <SCORE.RESTR.norm>
0

>  <SCORE.SYSTEM>
0

>  <SCORE.SYSTEM.CONST>
0

>  <SCORE.SYSTEM.DIHEDRAL>
0

>  <SCORE.SYSTEM.SOLV>
0

>  <SCORE.SYSTEM.norm>
0

>  <SCORE.heavy>
13

>  <SCORE.norm>
-0.565697

>  <RMSD>
14.937

$$$$
ligand
 OpenBabel11021811483D
libRbt.so/2013.1/901 2013/11/27
 13 14  0  0  0  0  0  0  0  0999 V2000
    3.6778   39.1995   54.7910 N   0  0  0  0  0  0  0  0  0  0  0  0
    3.9465   41.4806   55.1042 N   0  0  0  0  0  0  0  0  0  0  0  0
    4.4650   40.2710   54.8226 C   0  0  0  0  0  0  0  0  0  0  0  0
    5.8296   40.1281   54.5751 N   0  0  0  0  0  0  0  0  0  0  0  0
    6.6359   41.2675   54.6146 C   0  0  0  0  0  0  0  0  0  0  0  0
    6.0726   42.5084   54.8938 C   0  0  0  0  0  0  0  0  0  0  0  0
    7.8451   41.1717   54.4079 O   0  0  0  0  0  0  0  0  0  0  0  0
    6.8928   43.6498   54.9753 N   0  0  0  0  0  0  0  0  0  0  0  0
    6.3415   45.0129   55.2192 C   0  0  2  0  0  0  0  0  0  0  0  0
    5.0412   44.8946   56.0321 C   0  0  0  0  0  0  0  0  0  0  0  0
    4.7121   42.5855   55.1556 C   0  0  0  0  0  0  0  0  0  0  0  0
    4.1467   43.8293   55.4612 N   0  0  0  0  0  0  0  0  0  0  0  0
    6.0460   45.6825   53.8438 C   0  0  0  0  0  0  0  0  0  0  0  0
  1  3  1  0  0  0  0
  2  3  2  0  0  0  0
  2 11  1  0  0  0  0
  3  4  1  0  0  0  0
  4  5  1  0  0  0  0
  5  6  1  0  0  0  0
  5  7  2  0  0  0  0
  6  8  1  0  0  0  0
  6 11  2  0  0  0  0
  8  9  1  0  0  0  0
  9 10  1  0  0  0  0
  9 13  1  6  0  0  0
 10 12  1  0  0  0  0
 11 12  1  0  0  0  0
M  END
>  <CHROM.1>
5.53839223,42.46278927,54.90350549,1.77137183,-0.22716458,-3.05196710

>  <Name>
ligand

>  <RI>
0

>  <Rbt.Current_Directory>
/home/itssahil/PROJECTS/Mol_Feturizer/New_Systems/rnas/3SUX

>  <Rbt.Executable>
rbdock ($Id: //depot/dev/client3/rdock/2013.1/src/exe/rbdock.cxx#4 $)

>  <Rbt.Library>
libRbt.so (2013.1, Build901 2013/11/27)

>  <Rbt.Parameter_File>
/export/apps/rDock/src/rDock_2013.1_src/data/scripts/dock_solv.prm

>  <Rbt.Receptor>
prm/blind_docking_100.prm

>  <SCORE>
-7.37486

>  <SCORE.INTER>
-7.37486

>  <SCORE.INTER.CONST>
1

>  <SCORE.INTER.POLAR>
0

>  <SCORE.INTER.ROT>
0

>  <SCORE.INTER.SOLV>
5.89811

>  <SCORE.INTER.VDW>
-10.4826

>  <SCORE.INTER.norm>
-0.567297

>  <SCORE.INTRA>
0

>  <SCORE.INTRA.DIHEDRAL>
0

>  <SCORE.INTRA.DIHEDRAL.0>
0

>  <SCORE.INTRA.POLAR>
0

>  <SCORE.INTRA.POLAR.0>
0

>  <SCORE.INTRA.REPUL>
0

>  <SCORE.INTRA.REPUL.0>
0

>  <SCORE.INTRA.SOLV>
0

>  <SCORE.INTRA.SOLV.lig_0>
-48.6608

>  <SCORE.INTRA.VDW>
0

>  <SCORE.INTRA.VDW.0>
0

>  <SCORE.INTRA.norm>
0

>  <SCORE.RESTR>
0

>  <SCORE.RESTR.CAVITY>
0

>  <SCORE.RESTR.norm>
0

>  <SCORE.SYSTEM>
0

>  <SCORE.SYSTEM.CONST>
0

>  <SCORE.SYSTEM.DIHEDRAL>
0

>  <SCORE.SYSTEM.SOLV>
0

>  <SCORE.SYSTEM.norm>
0

>  <SCORE.heavy>
13

>  <SCORE.norm>
-0.567297

>  <RMSD>
14.943

$$$$
ligand
 OpenBabel11021811483D
libRbt.so/2013.1/901 2013/11/27
 13 14  0  0  0  0  0  0  0  0999 V2000
    3.5972   39.2063   54.7963 N   0  0  0  0  0  0  0  0  0  0  0  0
    3.9126   41.4774   55.1375 N   0  0  0  0  0  0  0  0  0  0  0  0
    4.4005   40.2661   54.8122 C   0  0  0  0  0  0  0  0  0  0  0  0
    5.7509   40.1088   54.5028 N   0  0  0  0  0  0  0  0  0  0  0  0
    6.5747   41.2360   54.5270 C   0  0  0  0  0  0  0  0  0  0  0  0
    6.0423   42.4794   54.8523 C   0  0  0  0  0  0  0  0  0  0  0  0
    7.7722   41.1273   54.2659 O   0  0  0  0  0  0  0  0  0  0  0  0
    6.8818   43.6076   54.9178 N   0  0  0  0  0  0  0  0  0  0  0  0
    6.3616   44.9736   55.2095 C   0  0  2  0  0  0  0  0  0  0  0  0
    5.0963   44.8585   56.0763 C   0  0  0  0  0  0  0  0  0  0  0  0
    4.6957   42.5705   55.1747 C   0  0  0  0  0  0  0  0  0  0  0  0
    4.1624   43.8163   55.5264 N   0  0  0  0  0  0  0  0  0  0  0  0
    6.0164   45.6721   53.8602 C   0  0  0  0  0  0  0  0  0  0  0  0
  1  3  1  0  0  0  0
  2  3  2  0  0  0  0
  2 11  1  0  0  0  0
  3  4  1  0  0  0  0
  4  5  1  0  0  0  0
  5  6  1  0  0  0  0
  5  7  2  0  0  0  0
  6  8  1  0  0  0  0
  6 11  2  0  0  0  0
  8  9  1  0  0  0  0
  9 10  1  0  0  0  0
  9 13  1  6  0  0  0
 10 12  1  0  0  0  0
 11 12  1  0  0  0  0
M  END
>  <CHROM.1>
5.50837405,42.44098439,54.88454212,1.79049839,-0.26913892,-3.02942479

>  <Name>
ligand

>  <RI>
0

>  <Rbt.Current_Directory>
/home/itssahil/PROJECTS/Mol_Feturizer/New_Systems/rnas/3SUX

>  <Rbt.Executable>
rbdock ($Id: //depot/dev/client3/rdock/2013.1/src/exe/rbdock.cxx#4 $)

>  <Rbt.Library>
libRbt.so (2013.1, Build901 2013/11/27)

>  <Rbt.Parameter_File>
/export/apps/rDock/src/rDock_2013.1_src/data/scripts/dock_solv.prm

>  <Rbt.Receptor>
prm/blind_docking_100.prm

>  <SCORE>
-7.36732

>  <SCORE.INTER>
-7.36732

>  <SCORE.INTER.CONST>
1

>  <SCORE.INTER.POLAR>
0

>  <SCORE.INTER.ROT>
0

>  <SCORE.INTER.SOLV>
5.59898

>  <SCORE.INTER.VDW>
-10.3779

>  <SCORE.INTER.norm>
-0.566717

>  <SCORE.INTRA>
0

>  <SCORE.INTRA.DIHEDRAL>
0

>  <SCORE.INTRA.DIHEDRAL.0>
0

>  <SCORE.INTRA.POLAR>
0

>  <SCORE.INTRA.POLAR.0>
0

>  <SCORE.INTRA.REPUL>
0

>  <SCORE.INTRA.REPUL.0>
0

>  <SCORE.INTRA.SOLV>
0

>  <SCORE.INTRA.SOLV.lig_0>
-48.6608

>  <SCORE.INTRA.VDW>
0

>  <SCORE.INTRA.VDW.0>
0

>  <SCORE.INTRA.norm>
0

>  <SCORE.RESTR>
0

>  <SCORE.RESTR.CAVITY>
0

>  <SCORE.RESTR.norm>
0

>  <SCORE.SYSTEM>
0

>  <SCORE.SYSTEM.CONST>
0

>  <SCORE.SYSTEM.DIHEDRAL>
0

>  <SCORE.SYSTEM.SOLV>
0

>  <SCORE.SYSTEM.norm>
0

>  <SCORE.heavy>
13

>  <SCORE.norm>
-0.566717

>  <RMSD>
14.975

$$$$
ligand
 OpenBabel11021811483D
libRbt.so/2013.1/901 2013/11/27
 13 14  0  0  0  0  0  0  0  0999 V2000
    3.5423   39.2077   54.5453 N   0  0  0  0  0  0  0  0  0  0  0  0
    5.3307   40.6713   54.3634 N   0  0  0  0  0  0  0  0  0  0  0  0
    4.0652   40.4145   54.7426 C   0  0  0  0  0  0  0  0  0  0  0  0
    3.2887   41.4114   55.3319 N   0  0  0  0  0  0  0  0  0  0  0  0
    3.8595   42.6706   55.5280 C   0  0  0  0  0  0  0  0  0  0  0  0
    5.1745   42.9059   55.1402 C   0  0  0  0  0  0  0  0  0  0  0  0
    3.1965   43.5727   56.0387 O   0  0  0  0  0  0  0  0  0  0  0  0
    5.7353   44.1874   55.2995 N   0  0  0  0  0  0  0  0  0  0  0  0
    7.1533   44.4869   54.9516 C   0  0  2  0  0  0  0  0  0  0  0  0
    7.6088   43.5414   53.8272 C   0  0  0  0  0  0  0  0  0  0  0  0
    5.8908   41.8820   54.5367 C   0  0  0  0  0  0  0  0  0  0  0  0
    7.2064   42.1232   54.1230 N   0  0  0  0  0  0  0  0  0  0  0  0
    8.0330   44.2644   56.2182 C   0  0  0  0  0  0  0  0  0  0  0  0
  1  3  1  0  0  0  0
  2  3  2  0  0  0  0
  2 11  1  0  0  0  0
  3  4  1  0  0  0  0
  4  5  1  0  0  0  0
  5  6  1  0  0  0  0
  5  7  2  0  0  0  0
  6  8  1  0  0  0  0
  6 11  2  0  0  0  0
  8  9  1  0  0  0  0
  9 10  1  0  0  0  0
  9 13  1  1  0  0  0
 10 12  1  0  0  0  0
 11 12  1  0  0  0  0
M  END
>  <CHROM.1>
5.40128559,42.44321927,54.99146404,-2.45714519,0.30287441,0.39592893

>  <Name>
ligand

>  <RI>
0

>  <Rbt.Current_Directory>
/home/itssahil/PROJECTS/Mol_Feturizer/New_Systems/rnas/3SUX

>  <Rbt.Executable>
rbdock ($Id: //depot/dev/client3/rdock/2013.1/src/exe/rbdock.cxx#4 $)

>  <Rbt.Library>
libRbt.so (2013.1, Build901 2013/11/27)

>  <Rbt.Parameter_File>
/export/apps/rDock/src/rDock_2013.1_src/data/scripts/dock_solv.prm

>  <Rbt.Receptor>
prm/blind_docking_100.prm

>  <SCORE>
-6.7658

>  <SCORE.INTER>
-6.7658

>  <SCORE.INTER.CONST>
1

>  <SCORE.INTER.POLAR>
0

>  <SCORE.INTER.ROT>
0

>  <SCORE.INTER.SOLV>
4.29491

>  <SCORE.INTER.VDW>
-9.54217

>  <SCORE.INTER.norm>
-0.520446

>  <SCORE.INTRA>
0

>  <SCORE.INTRA.DIHEDRAL>
0

>  <SCORE.INTRA.DIHEDRAL.0>
0

>  <SCORE.INTRA.POLAR>
0

>  <SCORE.INTRA.POLAR.0>
0

>  <SCORE.INTRA.REPUL>
0

>  <SCORE.INTRA.REPUL.0>
0

>  <SCORE.INTRA.SOLV>
0

>  <SCORE.INTRA.SOLV.lig_0>
-48.6608

>  <SCORE.INTRA.VDW>
0

>  <SCORE.INTRA.VDW.0>
0

>  <SCORE.INTRA.norm>
0

>  <SCORE.RESTR>
0

>  <SCORE.RESTR.CAVITY>
0

>  <SCORE.RESTR.norm>
0

>  <SCORE.SYSTEM>
0

>  <SCORE.SYSTEM.CONST>
0

>  <SCORE.SYSTEM.DIHEDRAL>
0

>  <SCORE.SYSTEM.SOLV>
0

>  <SCORE.SYSTEM.norm>
0

>  <SCORE.heavy>
13

>  <SCORE.norm>
-0.520446

>  <RMSD>
14.991

$$$$
ligand
 OpenBabel11021811483D
libRbt.so/2013.1/901 2013/11/27
 13 14  0  0  0  0  0  0  0  0999 V2000
    7.8297   41.4638   52.6802 N   0  0  0  0  0  0  0  0  0  0  0  0
    8.9040   43.4164   53.3182 N   0  0  0  0  0  0  0  0  0  0  0  0
    7.7734   42.7458   53.0297 C   0  0  0  0  0  0  0  0  0  0  0  0
    6.5379   43.3898   53.0813 N   0  0  0  0  0  0  0  0  0  0  0  0
    6.5043   44.7361   53.4501 C   0  0  0  0  0  0  0  0  0  0  0  0
    7.6860   45.4025   53.7576 C   0  0  0  0  0  0  0  0  0  0  0  0
    5.4295   45.3334   53.4972 O   0  0  0  0  0  0  0  0  0  0  0  0
    7.6555   46.7707   54.0880 N   0  0  0  0  0  0  0  0  0  0  0  0
    8.8805   47.5253   54.4771 C   0  0  2  0  0  0  0  0  0  0  0  0
   10.1046   46.8865   53.7994 C   0  0  0  0  0  0  0  0  0  0  0  0
    8.8884   44.7159   53.6654 C   0  0  0  0  0  0  0  0  0  0  0  0
   10.0816   45.3907   53.9504 N   0  0  0  0  0  0  0  0  0  0  0  0
    9.0366   47.4543   56.0257 C   0  0  0  0  0  0  0  0  0  0  0  0
  1  3  1  0  0  0  0
  2  3  2  0  0  0  0
  2 11  1  0  0  0  0
  3  4  1  0  0  0  0
  4  5  1  0  0  0  0
  5  6  1  0  0  0  0
  5  7  2  0  0  0  0
  6  8  1  0  0  0  0
  6 11  2  0  0  0  0
  8  9  1  0  0  0  0
  9 10  1  0  0  0  0
  9 13  1  1  0  0  0
 10 12  1  0  0  0  0
 11 12  1  0  0  0  0
M  END
>  <CHROM.1>
8.08959953,45.04970462,53.77436434,-1.95161070,-0.07768424,0.35598832

>  <Name>
ligand

>  <RI>
0

>  <Rbt.Current_Directory>
/home/itssahil/PROJECTS/Mol_Feturizer/New_Systems/rnas/3SUX

>  <Rbt.Executable>
rbdock ($Id: //depot/dev/client3/rdock/2013.1/src/exe/rbdock.cxx#4 $)

>  <Rbt.Library>
libRbt.so (2013.1, Build901 2013/11/27)

>  <Rbt.Parameter_File>
/export/apps/rDock/src/rDock_2013.1_src/data/scripts/dock_solv.prm

>  <Rbt.Receptor>
prm/blind_docking_100.prm

>  <SCORE>
-6.69246

>  <SCORE.INTER>
-6.69246

>  <SCORE.INTER.CONST>
1

>  <SCORE.INTER.POLAR>
0

>  <SCORE.INTER.ROT>
0

>  <SCORE.INTER.SOLV>
4.9879

>  <SCORE.INTER.VDW>
-9.72427

>  <SCORE.INTER.norm>
-0.514804

>  <SCORE.INTRA>
0

>  <SCORE.INTRA.DIHEDRAL>
0

>  <SCORE.INTRA.DIHEDRAL.0>
0

>  <SCORE.INTRA.POLAR>
0

>  <SCORE.INTRA.POLAR.0>
0

>  <SCORE.INTRA.REPUL>
0

>  <SCORE.INTRA.REPUL.0>
0

>  <SCORE.INTRA.SOLV>
0

>  <SCORE.INTRA.SOLV.lig_0>
-48.6608

>  <SCORE.INTRA.VDW>
0

>  <SCORE.INTRA.VDW.0>
0

>  <SCORE.INTRA.norm>
0

>  <SCORE.RESTR>
0

>  <SCORE.RESTR.CAVITY>
0

>  <SCORE.RESTR.norm>
0

>  <SCORE.SYSTEM>
0

>  <SCORE.SYSTEM.CONST>
0

>  <SCORE.SYSTEM.DIHEDRAL>
0

>  <SCORE.SYSTEM.SOLV>
0

>  <SCORE.SYSTEM.norm>
0

>  <SCORE.heavy>
13

>  <SCORE.norm>
-0.514804

>  <RMSD>
15.456

$$$$
ligand
 OpenBabel11021811483D
libRbt.so/2013.1/901 2013/11/27
 13 14  0  0  0  0  0  0  0  0999 V2000
   21.6222   29.7450   54.5044 N   0  0  0  0  0  0  0  0  0  0  0  0
   20.9972   28.7828   56.5187 N   0  0  0  0  0  0  0  0  0  0  0  0
   21.6033   28.6949   55.3203 C   0  0  0  0  0  0  0  0  0  0  0  0
   22.2034   27.5023   54.9185 N   0  0  0  0  0  0  0  0  0  0  0  0
   22.1699   26.4133   55.7919 C   0  0  0  0  0  0  0  0  0  0  0  0
   21.5497   26.5348   57.0310 C   0  0  0  0  0  0  0  0  0  0  0  0
   22.6844   25.3453   55.4620 O   0  0  0  0  0  0  0  0  0  0  0  0
   21.4793   25.4241   57.8933 N   0  0  0  0  0  0  0  0  0  0  0  0
   20.8746   25.5064   59.2531 C   0  0  2  0  0  0  0  0  0  0  0  0
   19.7966   26.6035   59.2617 C   0  0  0  0  0  0  0  0  0  0  0  0
   20.9482   27.7395   57.3665 C   0  0  0  0  0  0  0  0  0  0  0  0
   20.3018   27.8571   58.6028 N   0  0  0  0  0  0  0  0  0  0  0  0
   21.9965   25.8597   60.2750 C   0  0  0  0  0  0  0  0  0  0  0  0
  1  3  1  0  0  0  0
  2  3  2  0  0  0  0
  2 11  1  0  0  0  0
  3  4  1  0  0  0  0
  4  5  1  0  0  0  0
  5  6  1  0  0  0  0
  5  7  2  0  0  0  0
  6  8  1  0  0  0  0
  6 11  2  0  0  0  0
  8  9  1  0  0  0  0
  9 10  1  0  0  0  0
  9 13  1  1  0  0  0
 10 12  1  0  0  0  0
 11 12  1  0  0  0  0
M  END
>  <CHROM.1>
21.41533518,27.04748166,57.11289197,1.25505263,1.02317322,-0.80291957

>  <Name>
ligand

>  <RI>
0

>  <Rbt.Current_Directory>
/home/itssahil/PROJECTS/Mol_Feturizer/New_Systems/rnas/3SUX

>  <Rbt.Executable>
rbdock ($Id: //depot/dev/client3/rdock/2013.1/src/exe/rbdock.cxx#4 $)

>  <Rbt.Library>
libRbt.so (2013.1, Build901 2013/11/27)

>  <Rbt.Parameter_File>
/export/apps/rDock/src/rDock_2013.1_src/data/scripts/dock_solv.prm

>  <Rbt.Receptor>
prm/blind_docking_80.prm

>  <SCORE>
-7.02593

>  <SCORE.INTER>
-7.02593

>  <SCORE.INTER.CONST>
1

>  <SCORE.INTER.POLAR>
0

>  <SCORE.INTER.ROT>
0

>  <SCORE.INTER.SOLV>
7.84379

>  <SCORE.INTER.VDW>
-10.8986

>  <SCORE.INTER.norm>
-0.540456

>  <SCORE.INTRA>
0

>  <SCORE.INTRA.DIHEDRAL>
0

>  <SCORE.INTRA.DIHEDRAL.0>
0

>  <SCORE.INTRA.POLAR>
0

>  <SCORE.INTRA.POLAR.0>
0

>  <SCORE.INTRA.REPUL>
0

>  <SCORE.INTRA.REPUL.0>
0

>  <SCORE.INTRA.SOLV>
0

>  <SCORE.INTRA.SOLV.lig_0>
-48.6608

>  <SCORE.INTRA.VDW>
0

>  <SCORE.INTRA.VDW.0>
0

>  <SCORE.INTRA.norm>
0

>  <SCORE.RESTR>
0

>  <SCORE.RESTR.CAVITY>
0

>  <SCORE.RESTR.norm>
0

>  <SCORE.SYSTEM>
0

>  <SCORE.SYSTEM.CONST>
0

>  <SCORE.SYSTEM.DIHEDRAL>
0

>  <SCORE.SYSTEM.SOLV>
0

>  <SCORE.SYSTEM.norm>
0

>  <SCORE.heavy>
13

>  <SCORE.norm>
-0.540456

>  <RMSD>
22.258

$$$$
ligand
 OpenBabel11021811483D
libRbt.so/2013.1/901 2013/11/27
 13 14  0  0  0  0  0  0  0  0999 V2000
   16.5646   22.1605   57.3423 N   0  0  0  0  0  0  0  0  0  0  0  0
   18.4135   23.4012   57.9874 N   0  0  0  0  0  0  0  0  0  0  0  0
   17.2500   23.3000   57.3187 C   0  0  0  0  0  0  0  0  0  0  0  0
   16.7602   24.3808   56.5865 N   0  0  0  0  0  0  0  0  0  0  0  0
   17.4978   25.5664   56.5762 C   0  0  0  0  0  0  0  0  0  0  0  0
   18.6902   25.6495   57.2878 C   0  0  0  0  0  0  0  0  0  0  0  0
   17.0949   26.5348   55.9329 O   0  0  0  0  0  0  0  0  0  0  0  0
   19.4544   26.8311   57.2423 N   0  0  0  0  0  0  0  0  0  0  0  0
   20.7123   26.9985   58.0242 C   0  0  2  0  0  0  0  0  0  0  0  0
   21.3671   25.6220   58.2296 C   0  0  0  0  0  0  0  0  0  0  0  0
   19.1400   24.5334   57.9787 C   0  0  0  0  0  0  0  0  0  0  0  0
   20.3521   24.6064   58.6756 N   0  0  0  0  0  0  0  0  0  0  0  0
   20.3587   27.6272   59.4052 C   0  0  0  0  0  0  0  0  0  0  0  0
  1  3  1  0  0  0  0
  2  3  2  0  0  0  0
  2 11  1  0  0  0  0
  3  4  1  0  0  0  0
  4  5  1  0  0  0  0
  5  6  1  0  0  0  0
  5  7  2  0  0  0  0
  6  8  1  0  0  0  0
  6 11  2  0  0  0  0
  8  9  1  0  0  0  0
  9 10  1  0  0  0  0
  9 13  1  1  0  0  0
 10 12  1  0  0  0  0
 11 12  1  0  0  0  0
M  END
>  <CHROM.1>
18.74991453,25.20819838,57.58650132,-2.59113966,-0.56077583,-0.28271430

>  <Name>
ligand

>  <RI>
0

>  <Rbt.Current_Directory>
/home/itssahil/PROJECTS/Mol_Feturizer/New_Systems/rnas/3SUX

>  <Rbt.Executable>
rbdock ($Id: //depot/dev/client3/rdock/2013.1/src/exe/rbdock.cxx#4 $)

>  <Rbt.Library>
libRbt.so (2013.1, Build901 2013/11/27)

>  <Rbt.Parameter_File>
/export/apps/rDock/src/rDock_2013.1_src/data/scripts/dock_solv.prm

>  <Rbt.Receptor>
prm/blind_docking_100.prm

>  <SCORE>
-3.51058

>  <SCORE.INTER>
-3.51058

>  <SCORE.INTER.CONST>
1

>  <SCORE.INTER.POLAR>
0

>  <SCORE.INTER.ROT>
0

>  <SCORE.INTER.SOLV>
6.14021

>  <SCORE.INTER.VDW>
-7.98712

>  <SCORE.INTER.norm>
-0.270044

>  <SCORE.INTRA>
0

>  <SCORE.INTRA.DIHEDRAL>
0

>  <SCORE.INTRA.DIHEDRAL.0>
0

>  <SCORE.INTRA.POLAR>
0

>  <SCORE.INTRA.POLAR.0>
0

>  <SCORE.INTRA.REPUL>
0

>  <SCORE.INTRA.REPUL.0>
0

>  <SCORE.INTRA.SOLV>
0

>  <SCORE.INTRA.SOLV.lig_0>
-48.6608

>  <SCORE.INTRA.VDW>
0

>  <SCORE.INTRA.VDW.0>
0

>  <SCORE.INTRA.norm>
0

>  <SCORE.RESTR>
0

>  <SCORE.RESTR.CAVITY>
0

>  <SCORE.RESTR.norm>
0

>  <SCORE.SYSTEM>
0

>  <SCORE.SYSTEM.CONST>
0

>  <SCORE.SYSTEM.DIHEDRAL>
0

>  <SCORE.SYSTEM.SOLV>
0

>  <SCORE.SYSTEM.norm>
0

>  <SCORE.heavy>
13

>  <SCORE.norm>
-0.270044

>  <RMSD>
22.576

$$$$
ligand
 OpenBabel11021811483D
libRbt.so/2013.1/901 2013/11/27
 13 14  0  0  0  0  0  0  0  0999 V2000
   20.1830   26.4799   56.6916 N   0  0  0  0  0  0  0  0  0  0  0  0
   19.2769   24.5887   57.6794 N   0  0  0  0  0  0  0  0  0  0  0  0
   20.2792   25.4791   57.5621 C   0  0  0  0  0  0  0  0  0  0  0  0
   21.4296   25.3537   58.3398 N   0  0  0  0  0  0  0  0  0  0  0  0
   21.5077   24.2943   59.2461 C   0  0  0  0  0  0  0  0  0  0  0  0
   20.4516   23.3960   59.3584 C   0  0  0  0  0  0  0  0  0  0  0  0
   22.5136   24.1532   59.9408 O   0  0  0  0  0  0  0  0  0  0  0  0
   20.5490   22.3041   60.2417 N   0  0  0  0  0  0  0  0  0  0  0  0
   19.4313   21.3389   60.4438 C   0  0  2  0  0  0  0  0  0  0  0  0
   18.5890   21.2642   59.1590 C   0  0  0  0  0  0  0  0  0  0  0  0
   19.3420   23.5575   58.5408 C   0  0  0  0  0  0  0  0  0  0  0  0
   18.2881   22.6406   58.6341 N   0  0  0  0  0  0  0  0  0  0  0  0
   18.5491   21.8411   61.6258 C   0  0  0  0  0  0  0  0  0  0  0  0
  1  3  1  0  0  0  0
  2  3  2  0  0  0  0
  2 11  1  0  0  0  0
  3  4  1  0  0  0  0
  4  5  1  0  0  0  0
  5  6  1  0  0  0  0
  5  7  2  0  0  0  0
  6  8  1  0  0  0  0
  6 11  2  0  0  0  0
  8  9  1  0  0  0  0
  9 10  1  0  0  0  0
  9 13  1  1  0  0  0
 10 12  1  0  0  0  0
 11 12  1  0  0  0  0
M  END
>  <CHROM.1>
20.03610343,23.57339553,59.06939066,1.17955751,-0.44966936,-0.77672026

>  <Name>
ligand

>  <RI>
0

>  <Rbt.Current_Directory>
/home/itssahil/PROJECTS/Mol_Feturizer/New_Systems/rnas/3SUX

>  <Rbt.Executable>
rbdock ($Id: //depot/dev/client3/rdock/2013.1/src/exe/rbdock.cxx#4 $)

>  <Rbt.Library>
libRbt.so (2013.1, Build901 2013/11/27)

>  <Rbt.Parameter_File>
/export/apps/rDock/src/rDock_2013.1_src/data/scripts/dock_solv.prm

>  <Rbt.Receptor>
prm/blind_docking_80.prm

>  <SCORE>
-6.39934

>  <SCORE.INTER>
-6.39934

>  <SCORE.INTER.CONST>
1

>  <SCORE.INTER.POLAR>
0

>  <SCORE.INTER.ROT>
0

>  <SCORE.INTER.SOLV>
6.6336

>  <SCORE.INTER.VDW>
-10.0774

>  <SCORE.INTER.norm>
-0.492257

>  <SCORE.INTRA>
0

>  <SCORE.INTRA.DIHEDRAL>
0

>  <SCORE.INTRA.DIHEDRAL.0>
0

>  <SCORE.INTRA.POLAR>
0

>  <SCORE.INTRA.POLAR.0>
0

>  <SCORE.INTRA.REPUL>
0

>  <SCORE.INTRA.REPUL.0>
0

>  <SCORE.INTRA.SOLV>
0

>  <SCORE.INTRA.SOLV.lig_0>
-48.6608

>  <SCORE.INTRA.VDW>
0

>  <SCORE.INTRA.VDW.0>
0

>  <SCORE.INTRA.norm>
0

>  <SCORE.RESTR>
0

>  <SCORE.RESTR.CAVITY>
0

>  <SCORE.RESTR.norm>
0

>  <SCORE.SYSTEM>
0

>  <SCORE.SYSTEM.CONST>
0

>  <SCORE.SYSTEM.DIHEDRAL>
0

>  <SCORE.SYSTEM.SOLV>
0

>  <SCORE.SYSTEM.norm>
0

>  <SCORE.heavy>
13

>  <SCORE.norm>
-0.492257

>  <RMSD>
23.398

$$$$
ligand
 OpenBabel11021811483D
libRbt.so/2013.1/901 2013/11/27
 13 14  0  0  0  0  0  0  0  0999 V2000
   20.0761   26.4458   56.5005 N   0  0  0  0  0  0  0  0  0  0  0  0
   19.2307   24.5600   57.5506 N   0  0  0  0  0  0  0  0  0  0  0  0
   20.2087   25.4715   57.3959 C   0  0  0  0  0  0  0  0  0  0  0  0
   21.3719   25.3956   58.1609 N   0  0  0  0  0  0  0  0  0  0  0  0
   21.4884   24.3633   59.0940 C   0  0  0  0  0  0  0  0  0  0  0  0
   20.4566   23.4425   59.2446 C   0  0  0  0  0  0  0  0  0  0  0  0
   22.5064   24.2659   59.7783 O   0  0  0  0  0  0  0  0  0  0  0  0
   20.5928   22.3776   60.1553 N   0  0  0  0  0  0  0  0  0  0  0  0
   19.5024   21.3909   60.3984 C   0  0  2  0  0  0  0  0  0  0  0  0
   18.6456   21.2607   59.1276 C   0  0  0  0  0  0  0  0  0  0  0  0
   19.3328   23.5544   58.4383 C   0  0  0  0  0  0  0  0  0  0  0  0
   18.3034   22.6146   58.5704 N   0  0  0  0  0  0  0  0  0  0  0  0
   18.6234   21.9028   61.5785 C   0  0  0  0  0  0  0  0  0  0  0  0
  1  3  1  0  0  0  0
  2  3  2  0  0  0  0
  2 11  1  0  0  0  0
  3  4  1  0  0  0  0
  4  5  1  0  0  0  0
  5  6  1  0  0  0  0
  5  7  2  0  0  0  0
  6  8  1  0  0  0  0
  6 11  2  0  0  0  0
  8  9  1  0  0  0  0
  9 10  1  0  0  0  0
  9 13  1  1  0  0  0
 10 12  1  0  0  0  0
 11 12  1  0  0  0  0
M  END
>  <CHROM.1>
20.03307666,23.60173297,58.95667546,1.20966574,-0.45778410,-0.79035775

>  <Name>
ligand

>  <RI>
0

>  <Rbt.Current_Directory>
/home/itssahil/PROJECTS/Mol_Feturizer/New_Systems/rnas/3SUX

>  <Rbt.Executable>
rbdock ($Id: //depot/dev/client3/rdock/2013.1/src/exe/rbdock.cxx#4 $)

>  <Rbt.Library>
libRbt.so (2013.1, Build901 2013/11/27)

>  <Rbt.Parameter_File>
/export/apps/rDock/src/rDock_2013.1_src/data/scripts/dock_solv.prm

>  <Rbt.Receptor>
prm/blind_docking_80.prm

>  <SCORE>
-6.41149

>  <SCORE.INTER>
-6.41149

>  <SCORE.INTER.CONST>
1

>  <SCORE.INTER.POLAR>
0

>  <SCORE.INTER.ROT>
0

>  <SCORE.INTER.SOLV>
6.9508

>  <SCORE.INTER.VDW>
-10.1913

>  <SCORE.INTER.norm>
-0.493191

>  <SCORE.INTRA>
0

>  <SCORE.INTRA.DIHEDRAL>
0

>  <SCORE.INTRA.DIHEDRAL.0>
0

>  <SCORE.INTRA.POLAR>
0

>  <SCORE.INTRA.POLAR.0>
0

>  <SCORE.INTRA.REPUL>
0

>  <SCORE.INTRA.REPUL.0>
0

>  <SCORE.INTRA.SOLV>
0

>  <SCORE.INTRA.SOLV.lig_0>
-48.6608

>  <SCORE.INTRA.VDW>
0

>  <SCORE.INTRA.VDW.0>
0

>  <SCORE.INTRA.norm>
0

>  <SCORE.RESTR>
0

>  <SCORE.RESTR.CAVITY>
0

>  <SCORE.RESTR.norm>
0

>  <SCORE.SYSTEM>
0

>  <SCORE.SYSTEM.CONST>
0

>  <SCORE.SYSTEM.DIHEDRAL>
0

>  <SCORE.SYSTEM.SOLV>
0

>  <SCORE.SYSTEM.norm>
0

>  <SCORE.heavy>
13

>  <SCORE.norm>
-0.493191

>  <RMSD>
23.419

$$$$
ligand
 OpenBabel11021811483D
libRbt.so/2013.1/901 2013/11/27
 13 14  0  0  0  0  0  0  0  0999 V2000
   15.9312   22.3993   55.9800 N   0  0  0  0  0  0  0  0  0  0  0  0
   15.7751   21.9273   58.2442 N   0  0  0  0  0  0  0  0  0  0  0  0
   16.5204   22.1503   57.1460 C   0  0  0  0  0  0  0  0  0  0  0  0
   17.9122   22.1096   57.2173 N   0  0  0  0  0  0  0  0  0  0  0  0
   18.5078   21.8456   58.4523 C   0  0  0  0  0  0  0  0  0  0  0  0
   17.7148   21.6330   59.5753 C   0  0  0  0  0  0  0  0  0  0  0  0
   19.7338   21.7958   58.5449 O   0  0  0  0  0  0  0  0  0  0  0  0
   18.3150   21.3250   60.8110 N   0  0  0  0  0  0  0  0  0  0  0  0
   17.5219   21.1384   62.0590 C   0  0  2  0  0  0  0  0  0  0  0  0
   16.1182   20.6261   61.6943 C   0  0  0  0  0  0  0  0  0  0  0  0
   16.3342   21.6620   59.4386 C   0  0  0  0  0  0  0  0  0  0  0  0
   15.5334   21.4239   60.5620 N   0  0  0  0  0  0  0  0  0  0  0  0
   17.4108   22.5116   62.7868 C   0  0  0  0  0  0  0  0  0  0  0  0
  1  3  1  0  0  0  0
  2  3  2  0  0  0  0
  2 11  1  0  0  0  0
  3  4  1  0  0  0  0
  4  5  1  0  0  0  0
  5  6  1  0  0  0  0
  5  7  2  0  0  0  0
  6  8  1  0  0  0  0
  6 11  2  0  0  0  0
  8  9  1  0  0  0  0
  9 10  1  0  0  0  0
  9 13  1  6  0  0  0
 10 12  1  0  0  0  0
 11 12  1  0  0  0  0
M  END
>  <CHROM.1>
17.20327123,21.73889131,59.45406903,1.59834124,-0.03495495,-1.43934713

>  <Name>
ligand

>  <RI>
0

>  <Rbt.Current_Directory>
/home/itssahil/PROJECTS/Mol_Feturizer/New_Systems/rnas/3SUX

>  <Rbt.Executable>
rbdock ($Id: //depot/dev/client3/rdock/2013.1/src/exe/rbdock.cxx#4 $)

>  <Rbt.Library>
libRbt.so (2013.1, Build901 2013/11/27)

>  <Rbt.Parameter_File>
/export/apps/rDock/src/rDock_2013.1_src/data/scripts/dock_solv.prm

>  <Rbt.Receptor>
prm/blind_docking_100.prm

>  <SCORE>
-6.18956

>  <SCORE.INTER>
-6.18956

>  <SCORE.INTER.CONST>
1

>  <SCORE.INTER.POLAR>
0

>  <SCORE.INTER.ROT>
0

>  <SCORE.INTER.SOLV>
5.37563

>  <SCORE.INTER.VDW>
-9.51825

>  <SCORE.INTER.norm>
-0.47612

>  <SCORE.INTRA>
0

>  <SCORE.INTRA.DIHEDRAL>
0

>  <SCORE.INTRA.DIHEDRAL.0>
0

>  <SCORE.INTRA.POLAR>
0

>  <SCORE.INTRA.POLAR.0>
0

>  <SCORE.INTRA.REPUL>
0

>  <SCORE.INTRA.REPUL.0>
0

>  <SCORE.INTRA.SOLV>
0

>  <SCORE.INTRA.SOLV.lig_0>
-48.6608

>  <SCORE.INTRA.VDW>
0

>  <SCORE.INTRA.VDW.0>
0

>  <SCORE.INTRA.norm>
0

>  <SCORE.RESTR>
0

>  <SCORE.RESTR.CAVITY>
0

>  <SCORE.RESTR.norm>
0

>  <SCORE.SYSTEM>
0

>  <SCORE.SYSTEM.CONST>
0

>  <SCORE.SYSTEM.DIHEDRAL>
0

>  <SCORE.SYSTEM.SOLV>
0

>  <SCORE.SYSTEM.norm>
0

>  <SCORE.heavy>
13

>  <SCORE.norm>
-0.47612

>  <RMSD>
23.952

$$$$
ligand
 OpenBabel11021811483D
libRbt.so/2013.1/901 2013/11/27
 13 14  0  0  0  0  0  0  0  0999 V2000
  -19.0232   43.1200   52.9831 N   0  0  0  0  0  0  0  0  0  0  0  0
  -19.8953   43.4155   55.1105 N   0  0  0  0  0  0  0  0  0  0  0  0
  -19.8941   42.7747   53.9271 C   0  0  0  0  0  0  0  0  0  0  0  0
  -20.8111   41.7550   53.6754 N   0  0  0  0  0  0  0  0  0  0  0  0
  -21.7160   41.4108   54.6816 C   0  0  0  0  0  0  0  0  0  0  0  0
  -21.6868   42.0790   55.9013 C   0  0  0  0  0  0  0  0  0  0  0  0
  -22.5422   40.5201   54.4862 O   0  0  0  0  0  0  0  0  0  0  0  0
  -22.6270   41.7603   56.8996 N   0  0  0  0  0  0  0  0  0  0  0  0
  -22.6131   42.4041   58.2438 C   0  0  2  0  0  0  0  0  0  0  0  0
  -22.0124   43.8149   58.1227 C   0  0  0  0  0  0  0  0  0  0  0  0
  -20.7673   43.1018   56.0856 C   0  0  0  0  0  0  0  0  0  0  0  0
  -20.7519   43.7926   57.3033 N   0  0  0  0  0  0  0  0  0  0  0  0
  -21.7397   41.5380   59.2002 C   0  0  0  0  0  0  0  0  0  0  0  0
  1  3  1  0  0  0  0
  2  3  2  0  0  0  0
  2 11  1  0  0  0  0
  3  4  1  0  0  0  0
  4  5  1  0  0  0  0
  5  6  1  0  0  0  0
  5  7  2  0  0  0  0
  6  8  1  0  0  0  0
  6 11  2  0  0  0  0
  8  9  1  0  0  0  0
  9 10  1  0  0  0  0
  9 13  1  1  0  0  0
 10 12  1  0  0  0  0
 11 12  1  0  0  0  0
M  END
>  <CHROM.1>
-21.25702363,42.39929071,55.91809112,-0.99085849,0.79040405,1.12749113

>  <Name>
ligand

>  <RI>
0

>  <Rbt.Current_Directory>
/home/itssahil/PROJECTS/Mol_Feturizer/New_Systems/rnas/3SUX

>  <Rbt.Executable>
rbdock ($Id: //depot/dev/client3/rdock/2013.1/src/exe/rbdock.cxx#4 $)

>  <Rbt.Library>
libRbt.so (2013.1, Build901 2013/11/27)

>  <Rbt.Parameter_File>
/export/apps/rDock/src/rDock_2013.1_src/data/scripts/dock_solv.prm

>  <Rbt.Receptor>
prm/blind_docking_80.prm

>  <SCORE>
-10.0769

>  <SCORE.INTER>
-10.0769

>  <SCORE.INTER.CONST>
1

>  <SCORE.INTER.POLAR>
0

>  <SCORE.INTER.ROT>
0

>  <SCORE.INTER.SOLV>
19.8874

>  <SCORE.INTER.VDW>
-16.9471

>  <SCORE.INTER.norm>
-0.775149

>  <SCORE.INTRA>
0

>  <SCORE.INTRA.DIHEDRAL>
0

>  <SCORE.INTRA.DIHEDRAL.0>
0

>  <SCORE.INTRA.POLAR>
0

>  <SCORE.INTRA.POLAR.0>
0

>  <SCORE.INTRA.REPUL>
0

>  <SCORE.INTRA.REPUL.0>
0

>  <SCORE.INTRA.SOLV>
0

>  <SCORE.INTRA.SOLV.lig_0>
-48.6608

>  <SCORE.INTRA.VDW>
0

>  <SCORE.INTRA.VDW.0>
0

>  <SCORE.INTRA.norm>
0

>  <SCORE.RESTR>
0

>  <SCORE.RESTR.CAVITY>
0

>  <SCORE.RESTR.norm>
0

>  <SCORE.SYSTEM>
0

>  <SCORE.SYSTEM.CONST>
0

>  <SCORE.SYSTEM.DIHEDRAL>
0

>  <SCORE.SYSTEM.SOLV>
0

>  <SCORE.SYSTEM.norm>
0

>  <SCORE.heavy>
13

>  <SCORE.norm>
-0.775149

>  <RMSD>
34.530

$$$$
ligand
 OpenBabel11021811483D
libRbt.so/2013.1/901 2013/11/27
 13 14  0  0  0  0  0  0  0  0999 V2000
  -23.0099   39.5828   59.0929 N   0  0  0  0  0  0  0  0  0  0  0  0
  -22.6327   40.4558   56.9789 N   0  0  0  0  0  0  0  0  0  0  0  0
  -22.5511   40.5614   58.3181 C   0  0  0  0  0  0  0  0  0  0  0  0
  -21.9989   41.6997   58.9041 N   0  0  0  0  0  0  0  0  0  0  0  0
  -21.5246   42.7140   58.0699 C   0  0  0  0  0  0  0  0  0  0  0  0
  -21.6075   42.5737   56.6884 C   0  0  0  0  0  0  0  0  0  0  0  0
  -21.0389   43.7338   58.5579 O   0  0  0  0  0  0  0  0  0  0  0  0
  -21.1680   43.6150   55.8489 N   0  0  0  0  0  0  0  0  0  0  0  0
  -21.1829   43.5022   54.3627 C   0  0  2  0  0  0  0  0  0  0  0  0
  -22.3115   42.5469   53.9393 C   0  0  0  0  0  0  0  0  0  0  0  0
  -22.1892   41.4288   56.1627 C   0  0  0  0  0  0  0  0  0  0  0  0
  -22.2963   41.2957   54.7731 N   0  0  0  0  0  0  0  0  0  0  0  0
  -19.8085   42.9375   53.8938 C   0  0  0  0  0  0  0  0  0  0  0  0
  1  3  1  0  0  0  0
  2  3  2  0  0  0  0
  2 11  1  0  0  0  0
  3  4  1  0  0  0  0
  4  5  1  0  0  0  0
  5  6  1  0  0  0  0
  5  7  2  0  0  0  0
  6  8  1  0  0  0  0
  6 11  2  0  0  0  0
  8  9  1  0  0  0  0
  9 10  1  0  0  0  0
  9 13  1  1  0  0  0
 10 12  1  0  0  0  0
 11 12  1  0  0  0  0
M  END
>  <CHROM.1>
-21.76929633,42.07636961,56.56978567,2.13249017,1.04382596,1.52072594

>  <Name>
ligand

>  <RI>
0

>  <Rbt.Current_Directory>
/home/itssahil/PROJECTS/Mol_Feturizer/New_Systems/rnas/3SUX

>  <Rbt.Executable>
rbdock ($Id: //depot/dev/client3/rdock/2013.1/src/exe/rbdock.cxx#4 $)

>  <Rbt.Library>
libRbt.so (2013.1, Build901 2013/11/27)

>  <Rbt.Parameter_File>
/export/apps/rDock/src/rDock_2013.1_src/data/scripts/dock_solv.prm

>  <Rbt.Receptor>
prm/blind_docking_100.prm

>  <SCORE>
-14.4907

>  <SCORE.INTER>
-14.4907

>  <SCORE.INTER.CONST>
1

>  <SCORE.INTER.POLAR>
0

>  <SCORE.INTER.ROT>
0

>  <SCORE.INTER.SOLV>
15.3164

>  <SCORE.INTER.VDW>
-18.3659

>  <SCORE.INTER.norm>
-1.11467

>  <SCORE.INTRA>
0

>  <SCORE.INTRA.DIHEDRAL>
0

>  <SCORE.INTRA.DIHEDRAL.0>
0

>  <SCORE.INTRA.POLAR>
0

>  <SCORE.INTRA.POLAR.0>
0

>  <SCORE.INTRA.REPUL>
0

>  <SCORE.INTRA.REPUL.0>
0

>  <SCORE.INTRA.SOLV>
0

>  <SCORE.INTRA.SOLV.lig_0>
-48.6608

>  <SCORE.INTRA.VDW>
0

>  <SCORE.INTRA.VDW.0>
0

>  <SCORE.INTRA.norm>
0

>  <SCORE.RESTR>
0

>  <SCORE.RESTR.CAVITY>
0

>  <SCORE.RESTR.norm>
0

>  <SCORE.SYSTEM>
0

>  <SCORE.SYSTEM.CONST>
0

>  <SCORE.SYSTEM.DIHEDRAL>
0

>  <SCORE.SYSTEM.SOLV>
0

>  <SCORE.SYSTEM.norm>
0

>  <SCORE.heavy>
13

>  <SCORE.norm>
-1.11467

>  <RMSD>
34.948

$$$$
ligand
 OpenBabel11021811483D
libRbt.so/2013.1/901 2013/11/27
 13 14  0  0  0  0  0  0  0  0999 V2000
  -23.0320   39.6288   59.1330 N   0  0  0  0  0  0  0  0  0  0  0  0
  -22.6498   40.4724   57.0079 N   0  0  0  0  0  0  0  0  0  0  0  0
  -22.5690   40.5954   58.3457 C   0  0  0  0  0  0  0  0  0  0  0  0
  -22.0131   41.7393   58.9171 N   0  0  0  0  0  0  0  0  0  0  0  0
  -21.5345   42.7408   58.0700 C   0  0  0  0  0  0  0  0  0  0  0  0
  -21.6167   42.5826   56.6904 C   0  0  0  0  0  0  0  0  0  0  0  0
  -21.0455   43.7652   58.5450 O   0  0  0  0  0  0  0  0  0  0  0  0
  -21.1728   43.6111   55.8376 N   0  0  0  0  0  0  0  0  0  0  0  0
  -21.1869   43.4787   54.3531 C   0  0  2  0  0  0  0  0  0  0  0  0
  -22.3186   42.5220   53.9413 C   0  0  0  0  0  0  0  0  0  0  0  0
  -22.2022   41.4329   56.1794 C   0  0  0  0  0  0  0  0  0  0  0  0
  -22.3086   41.2819   54.7915 N   0  0  0  0  0  0  0  0  0  0  0  0
  -19.8142   42.9030   53.8928 C   0  0  0  0  0  0  0  0  0  0  0  0
  1  3  1  0  0  0  0
  2  3  2  0  0  0  0
  2 11  1  0  0  0  0
  3  4  1  0  0  0  0
  4  5  1  0  0  0  0
  5  6  1  0  0  0  0
  5  7  2  0  0  0  0
  6  8  1  0  0  0  0
  6 11  2  0  0  0  0
  8  9  1  0  0  0  0
  9 10  1  0  0  0  0
  9 13  1  1  0  0  0
 10 12  1  0  0  0  0
 11 12  1  0  0  0  0
M  END
>  <CHROM.1>
-21.78028094,42.08430387,56.57822745,2.13373979,1.04016809,1.50644725

>  <Name>
ligand

>  <RI>
0

>  <Rbt.Current_Directory>
/home/itssahil/PROJECTS/Mol_Feturizer/New_Systems/rnas/3SUX

>  <Rbt.Executable>
rbdock ($Id: //depot/dev/client3/rdock/2013.1/src/exe/rbdock.cxx#4 $)

>  <Rbt.Library>
libRbt.so (2013.1, Build901 2013/11/27)

>  <Rbt.Parameter_File>
/export/apps/rDock/src/rDock_2013.1_src/data/scripts/dock_solv.prm

>  <Rbt.Receptor>
prm/blind_docking_80.prm

>  <SCORE>
-14.4793

>  <SCORE.INTER>
-14.4793

>  <SCORE.INTER.CONST>
1

>  <SCORE.INTER.POLAR>
0

>  <SCORE.INTER.ROT>
0

>  <SCORE.INTER.SOLV>
15.4896

>  <SCORE.INTER.VDW>
-18.4161

>  <SCORE.INTER.norm>
-1.11379

>  <SCORE.INTRA>
0

>  <SCORE.INTRA.DIHEDRAL>
0

>  <SCORE.INTRA.DIHEDRAL.0>
0

>  <SCORE.INTRA.POLAR>
0

>  <SCORE.INTRA.POLAR.0>
0

>  <SCORE.INTRA.REPUL>
0

>  <SCORE.INTRA.REPUL.0>
0

>  <SCORE.INTRA.SOLV>
0

>  <SCORE.INTRA.SOLV.lig_0>
-48.6608

>  <SCORE.INTRA.VDW>
0

>  <SCORE.INTRA.VDW.0>
0

>  <SCORE.INTRA.norm>
0

>  <SCORE.RESTR>
0

>  <SCORE.RESTR.CAVITY>
0

>  <SCORE.RESTR.norm>
0

>  <SCORE.SYSTEM>
0

>  <SCORE.SYSTEM.CONST>
0

>  <SCORE.SYSTEM.DIHEDRAL>
0

>  <SCORE.SYSTEM.SOLV>
0

>  <SCORE.SYSTEM.norm>
0

>  <SCORE.heavy>
13

>  <SCORE.norm>
-1.11379

>  <RMSD>
34.956

$$$$
ligand
 OpenBabel11021811483D
libRbt.so/2013.1/901 2013/11/27
 13 14  0  0  0  0  0  0  0  0999 V2000
  -22.9827   39.6133   59.0744 N   0  0  0  0  0  0  0  0  0  0  0  0
  -22.6048   40.4592   56.9495 N   0  0  0  0  0  0  0  0  0  0  0  0
  -22.5380   40.5887   58.2874 C   0  0  0  0  0  0  0  0  0  0  0  0
  -22.0161   41.7483   58.8592 N   0  0  0  0  0  0  0  0  0  0  0  0
  -21.5562   42.7589   58.0124 C   0  0  0  0  0  0  0  0  0  0  0  0
  -21.6231   42.5939   56.6328 C   0  0  0  0  0  0  0  0  0  0  0  0
  -21.0973   43.7969   58.4877 O   0  0  0  0  0  0  0  0  0  0  0  0
  -21.1985   43.6305   55.7799 N   0  0  0  0  0  0  0  0  0  0  0  0
  -21.1971   43.4929   54.2958 C   0  0  2  0  0  0  0  0  0  0  0  0
  -22.3008   42.5062   53.8784 C   0  0  0  0  0  0  0  0  0  0  0  0
  -22.1749   41.4280   56.1211 C   0  0  0  0  0  0  0  0  0  0  0  0
  -22.2661   41.2697   54.7330 N   0  0  0  0  0  0  0  0  0  0  0  0
  -19.8066   42.9507   53.8487 C   0  0  0  0  0  0  0  0  0  0  0  0
  1  3  1  0  0  0  0
  2  3  2  0  0  0  0
  2 11  1  0  0  0  0
  3  4  1  0  0  0  0
  4  5  1  0  0  0  0
  5  6  1  0  0  0  0
  5  7  2  0  0  0  0
  6  8  1  0  0  0  0
  6 11  2  0  0  0  0
  8  9  1  0  0  0  0
  9 10  1  0  0  0  0
  9 13  1  1  0  0  0
 10 12  1  0  0  0  0
 11 12  1  0  0  0  0
M  END
>  <CHROM.1>
-21.77300942,42.09128203,56.52107194,2.15394472,1.06494081,1.48542779

>  <Name>
ligand

>  <RI>
0

>  <Rbt.Current_Directory>
/home/itssahil/PROJECTS/Mol_Feturizer/New_Systems/rnas/3SUX

>  <Rbt.Executable>
rbdock ($Id: //depot/dev/client3/rdock/2013.1/src/exe/rbdock.cxx#4 $)

>  <Rbt.Library>
libRbt.so (2013.1, Build901 2013/11/27)

>  <Rbt.Parameter_File>
/export/apps/rDock/src/rDock_2013.1_src/data/scripts/dock_solv.prm

>  <Rbt.Receptor>
prm/blind_docking_100.prm

>  <SCORE>
-14.4914

>  <SCORE.INTER>
-14.4914

>  <SCORE.INTER.CONST>
1

>  <SCORE.INTER.POLAR>
0

>  <SCORE.INTER.ROT>
0

>  <SCORE.INTER.SOLV>
15.1765

>  <SCORE.INTER.VDW>
-18.3198

>  <SCORE.INTER.norm>
-1.11473

>  <SCORE.INTRA>
0

>  <SCORE.INTRA.DIHEDRAL>
0

>  <SCORE.INTRA.DIHEDRAL.0>
0

>  <SCORE.INTRA.POLAR>
0

>  <SCORE.INTRA.POLAR.0>
0

>  <SCORE.INTRA.REPUL>
0

>  <SCORE.INTRA.REPUL.0>
0

>  <SCORE.INTRA.SOLV>
0

>  <SCORE.INTRA.SOLV.lig_0>
-48.6608

>  <SCORE.INTRA.VDW>
0

>  <SCORE.INTRA.VDW.0>
0

>  <SCORE.INTRA.norm>
0

>  <SCORE.RESTR>
0

>  <SCORE.RESTR.CAVITY>
0

>  <SCORE.RESTR.norm>
0

>  <SCORE.SYSTEM>
0

>  <SCORE.SYSTEM.CONST>
0

>  <SCORE.SYSTEM.DIHEDRAL>
0

>  <SCORE.SYSTEM.SOLV>
0

>  <SCORE.SYSTEM.norm>
0

>  <SCORE.heavy>
13

>  <SCORE.norm>
-1.11473

>  <RMSD>
34.968

$$$$
ligand
 OpenBabel11021811483D
libRbt.so/2013.1/901 2013/11/27
 13 14  0  0  0  0  0  0  0  0999 V2000
  -22.8606   39.6009   59.1492 N   0  0  0  0  0  0  0  0  0  0  0  0
  -22.5001   40.3960   57.0018 N   0  0  0  0  0  0  0  0  0  0  0  0
  -22.4700   40.5772   58.3350 C   0  0  0  0  0  0  0  0  0  0  0  0
  -22.0432   41.7905   58.8731 N   0  0  0  0  0  0  0  0  0  0  0  0
  -21.6387   42.8008   57.9981 C   0  0  0  0  0  0  0  0  0  0  0  0
  -21.6656   42.5829   56.6245 C   0  0  0  0  0  0  0  0  0  0  0  0
  -21.2642   43.8851   58.4431 O   0  0  0  0  0  0  0  0  0  0  0  0
  -21.2980   43.6163   55.7419 N   0  0  0  0  0  0  0  0  0  0  0  0
  -21.2566   43.4268   54.2641 C   0  0  2  0  0  0  0  0  0  0  0  0
  -22.2789   42.3497   53.8635 C   0  0  0  0  0  0  0  0  0  0  0  0
  -22.1230   41.3632   56.1462 C   0  0  0  0  0  0  0  0  0  0  0  0
  -22.1744   41.1498   54.7635 N   0  0  0  0  0  0  0  0  0  0  0  0
  -19.8223   42.9699   53.8621 C   0  0  0  0  0  0  0  0  0  0  0  0
  1  3  1  0  0  0  0
  2  3  2  0  0  0  0
  2 11  1  0  0  0  0
  3  4  1  0  0  0  0
  4  5  1  0  0  0  0
  5  6  1  0  0  0  0
  5  7  2  0  0  0  0
  6  8  1  0  0  0  0
  6 11  2  0  0  0  0
  8  9  1  0  0  0  0
  9 10  1  0  0  0  0
  9 13  1  1  0  0  0
 10 12  1  0  0  0  0
 11 12  1  0  0  0  0
M  END
>  <CHROM.1>
-21.77725278,42.06715960,56.52866540,2.21622256,1.13299376,1.39384330

>  <Name>
ligand

>  <RI>
0

>  <Rbt.Current_Directory>
/home/itssahil/PROJECTS/Mol_Feturizer/New_Systems/rnas/3SUX

>  <Rbt.Executable>
rbdock ($Id: //depot/dev/client3/rdock/2013.1/src/exe/rbdock.cxx#4 $)

>  <Rbt.Library>
libRbt.so (2013.1, Build901 2013/11/27)

>  <Rbt.Parameter_File>
/export/apps/rDock/src/rDock_2013.1_src/data/scripts/dock_solv.prm

>  <Rbt.Receptor>
prm/blind_docking_100.prm

>  <SCORE>
-14.3604

>  <SCORE.INTER>
-14.3604

>  <SCORE.INTER.CONST>
1

>  <SCORE.INTER.POLAR>
0

>  <SCORE.INTER.ROT>
0

>  <SCORE.INTER.SOLV>
15.0147

>  <SCORE.INTER.VDW>
-18.1785

>  <SCORE.INTER.norm>
-1.10464

>  <SCORE.INTRA>
0

>  <SCORE.INTRA.DIHEDRAL>
0

>  <SCORE.INTRA.DIHEDRAL.0>
0

>  <SCORE.INTRA.POLAR>
0

>  <SCORE.INTRA.POLAR.0>
0

>  <SCORE.INTRA.REPUL>
0

>  <SCORE.INTRA.REPUL.0>
0

>  <SCORE.INTRA.SOLV>
0

>  <SCORE.INTRA.SOLV.lig_0>
-48.6608

>  <SCORE.INTRA.VDW>
0

>  <SCORE.INTRA.VDW.0>
0

>  <SCORE.INTRA.norm>
0

>  <SCORE.RESTR>
0

>  <SCORE.RESTR.CAVITY>
0

>  <SCORE.RESTR.norm>
0

>  <SCORE.SYSTEM>
0

>  <SCORE.SYSTEM.CONST>
0

>  <SCORE.SYSTEM.DIHEDRAL>
0

>  <SCORE.SYSTEM.SOLV>
0

>  <SCORE.SYSTEM.norm>
0

>  <SCORE.heavy>
13

>  <SCORE.norm>
-1.10464

>  <RMSD>
34.968

$$$$
ligand
 OpenBabel11021811483D
libRbt.so/2013.1/901 2013/11/27
 13 14  0  0  0  0  0  0  0  0999 V2000
  -23.0156   39.6437   59.0943 N   0  0  0  0  0  0  0  0  0  0  0  0
  -22.6339   40.4830   56.9675 N   0  0  0  0  0  0  0  0  0  0  0  0
  -22.5599   40.6122   58.3050 C   0  0  0  0  0  0  0  0  0  0  0  0
  -22.0188   41.7643   58.8741 N   0  0  0  0  0  0  0  0  0  0  0  0
  -21.5477   42.7676   58.0249 C   0  0  0  0  0  0  0  0  0  0  0  0
  -21.6226   42.6031   56.6457 C   0  0  0  0  0  0  0  0  0  0  0  0
  -21.0717   43.7991   58.4978 O   0  0  0  0  0  0  0  0  0  0  0  0
  -21.1864   43.6330   55.7906 N   0  0  0  0  0  0  0  0  0  0  0  0
  -21.1930   43.4947   54.3066 C   0  0  2  0  0  0  0  0  0  0  0  0
  -22.3126   42.5240   53.8941 C   0  0  0  0  0  0  0  0  0  0  0  0
  -22.1934   41.4451   56.1369 C   0  0  0  0  0  0  0  0  0  0  0  0
  -22.2925   41.2875   54.7493 N   0  0  0  0  0  0  0  0  0  0  0  0
  -19.8123   42.9321   53.8541 C   0  0  0  0  0  0  0  0  0  0  0  0
  1  3  1  0  0  0  0
  2  3  2  0  0  0  0
  2 11  1  0  0  0  0
  3  4  1  0  0  0  0
  4  5  1  0  0  0  0
  5  6  1  0  0  0  0
  5  7  2  0  0  0  0
  6  8  1  0  0  0  0
  6 11  2  0  0  0  0
  8  9  1  0  0  0  0
  9 10  1  0  0  0  0
  9 13  1  1  0  0  0
 10 12  1  0  0  0  0
 11 12  1  0  0  0  0
M  END
>  <CHROM.1>
-21.78022006,42.10261931,56.53485456,2.14331105,1.05073574,1.49420975

>  <Name>
ligand

>  <RI>
0

>  <Rbt.Current_Directory>
/home/itssahil/PROJECTS/Mol_Feturizer/New_Systems/rnas/3SUX

>  <Rbt.Executable>
rbdock ($Id: //depot/dev/client3/rdock/2013.1/src/exe/rbdock.cxx#4 $)

>  <Rbt.Library>
libRbt.so (2013.1, Build901 2013/11/27)

>  <Rbt.Parameter_File>
/export/apps/rDock/src/rDock_2013.1_src/data/scripts/dock_solv.prm

>  <Rbt.Receptor>
prm/blind_docking_100.prm

>  <SCORE>
-14.5139

>  <SCORE.INTER>
-14.5139

>  <SCORE.INTER.CONST>
1

>  <SCORE.INTER.POLAR>
0

>  <SCORE.INTER.ROT>
0

>  <SCORE.INTER.SOLV>
15.3592

>  <SCORE.INTER.VDW>
-18.3957

>  <SCORE.INTER.norm>
-1.11646

>  <SCORE.INTRA>
0

>  <SCORE.INTRA.DIHEDRAL>
0

>  <SCORE.INTRA.DIHEDRAL.0>
0

>  <SCORE.INTRA.POLAR>
0

>  <SCORE.INTRA.POLAR.0>
0

>  <SCORE.INTRA.REPUL>
0

>  <SCORE.INTRA.REPUL.0>
0

>  <SCORE.INTRA.SOLV>
0

>  <SCORE.INTRA.SOLV.lig_0>
-48.6608

>  <SCORE.INTRA.VDW>
0

>  <SCORE.INTRA.VDW.0>
0

>  <SCORE.INTRA.norm>
0

>  <SCORE.RESTR>
0

>  <SCORE.RESTR.CAVITY>
0

>  <SCORE.RESTR.norm>
0

>  <SCORE.SYSTEM>
0

>  <SCORE.SYSTEM.CONST>
0

>  <SCORE.SYSTEM.DIHEDRAL>
0

>  <SCORE.SYSTEM.SOLV>
0

>  <SCORE.SYSTEM.norm>
0

>  <SCORE.heavy>
13

>  <SCORE.norm>
-1.11646

>  <RMSD>
34.970

$$$$
ligand
 OpenBabel11021811483D
libRbt.so/2013.1/901 2013/11/27
 13 14  0  0  0  0  0  0  0  0999 V2000
  -22.9835   39.5880   59.0723 N   0  0  0  0  0  0  0  0  0  0  0  0
  -22.6162   40.4545   56.9538 N   0  0  0  0  0  0  0  0  0  0  0  0
  -22.5403   40.5699   58.2925 C   0  0  0  0  0  0  0  0  0  0  0  0
  -22.0102   41.7216   58.8728 N   0  0  0  0  0  0  0  0  0  0  0  0
  -21.5521   42.7391   58.0335 C   0  0  0  0  0  0  0  0  0  0  0  0
  -21.6286   42.5887   56.6527 C   0  0  0  0  0  0  0  0  0  0  0  0
  -21.0861   43.7705   58.5164 O   0  0  0  0  0  0  0  0  0  0  0  0
  -21.2056   43.6325   55.8079 N   0  0  0  0  0  0  0  0  0  0  0  0
  -21.2144   43.5103   54.3224 C   0  0  2  0  0  0  0  0  0  0  0  0
  -22.3245   42.5321   53.9020 C   0  0  0  0  0  0  0  0  0  0  0  0
  -22.1881   41.4303   56.1327 C   0  0  0  0  0  0  0  0  0  0  0  0
  -22.2890   41.2867   54.7437 N   0  0  0  0  0  0  0  0  0  0  0  0
  -19.8288   42.9676   53.8606 C   0  0  0  0  0  0  0  0  0  0  0  0
  1  3  1  0  0  0  0
  2  3  2  0  0  0  0
  2 11  1  0  0  0  0
  3  4  1  0  0  0  0
  4  5  1  0  0  0  0
  5  6  1  0  0  0  0
  5  7  2  0  0  0  0
  6  8  1  0  0  0  0
  6 11  2  0  0  0  0
  8  9  1  0  0  0  0
  9 10  1  0  0  0  0
  9 13  1  1  0  0  0
 10 12  1  0  0  0  0
 11 12  1  0  0  0  0
M  END
>  <CHROM.1>
-21.78108337,42.08782758,56.53680523,2.13995158,1.06167427,1.50800131

>  <Name>
ligand

>  <RI>
0

>  <Rbt.Current_Directory>
/home/itssahil/PROJECTS/Mol_Feturizer/New_Systems/rnas/3SUX

>  <Rbt.Executable>
rbdock ($Id: //depot/dev/client3/rdock/2013.1/src/exe/rbdock.cxx#4 $)

>  <Rbt.Library>
libRbt.so (2013.1, Build901 2013/11/27)

>  <Rbt.Parameter_File>
/export/apps/rDock/src/rDock_2013.1_src/data/scripts/dock_solv.prm

>  <Rbt.Receptor>
prm/blind_docking_80.prm

>  <SCORE>
-14.5141

>  <SCORE.INTER>
-14.5141

>  <SCORE.INTER.CONST>
1

>  <SCORE.INTER.POLAR>
0

>  <SCORE.INTER.ROT>
0

>  <SCORE.INTER.SOLV>
15.1576

>  <SCORE.INTER.VDW>
-18.3286

>  <SCORE.INTER.norm>
-1.11647

>  <SCORE.INTRA>
0

>  <SCORE.INTRA.DIHEDRAL>
0

>  <SCORE.INTRA.DIHEDRAL.0>
0

>  <SCORE.INTRA.POLAR>
0

>  <SCORE.INTRA.POLAR.0>
0

>  <SCORE.INTRA.REPUL>
0

>  <SCORE.INTRA.REPUL.0>
0

>  <SCORE.INTRA.SOLV>
0

>  <SCORE.INTRA.SOLV.lig_0>
-48.6608

>  <SCORE.INTRA.VDW>
0

>  <SCORE.INTRA.VDW.0>
0

>  <SCORE.INTRA.norm>
0

>  <SCORE.RESTR>
0

>  <SCORE.RESTR.CAVITY>
0

>  <SCORE.RESTR.norm>
0

>  <SCORE.SYSTEM>
0

>  <SCORE.SYSTEM.CONST>
0

>  <SCORE.SYSTEM.DIHEDRAL>
0

>  <SCORE.SYSTEM.SOLV>
0

>  <SCORE.SYSTEM.norm>
0

>  <SCORE.heavy>
13

>  <SCORE.norm>
-1.11647

>  <RMSD>
34.970

$$$$
ligand
 OpenBabel11021811483D
libRbt.so/2013.1/901 2013/11/27
 13 14  0  0  0  0  0  0  0  0999 V2000
  -23.0118   39.6472   59.0854 N   0  0  0  0  0  0  0  0  0  0  0  0
  -22.6298   40.4866   56.9586 N   0  0  0  0  0  0  0  0  0  0  0  0
  -22.5579   40.6167   58.2962 C   0  0  0  0  0  0  0  0  0  0  0  0
  -22.0209   41.7706   58.8654 N   0  0  0  0  0  0  0  0  0  0  0  0
  -21.5516   42.7749   58.0164 C   0  0  0  0  0  0  0  0  0  0  0  0
  -21.6241   42.6094   56.6371 C   0  0  0  0  0  0  0  0  0  0  0  0
  -21.0792   43.8080   58.4894 O   0  0  0  0  0  0  0  0  0  0  0  0
  -21.1897   43.6401   55.7821 N   0  0  0  0  0  0  0  0  0  0  0  0
  -21.1939   43.5010   54.2981 C   0  0  2  0  0  0  0  0  0  0  0  0
  -22.3102   42.5270   53.8846 C   0  0  0  0  0  0  0  0  0  0  0  0
  -22.1909   41.4495   56.1281 C   0  0  0  0  0  0  0  0  0  0  0  0
  -22.2877   41.2909   54.7405 N   0  0  0  0  0  0  0  0  0  0  0  0
  -19.8110   42.9422   53.8478 C   0  0  0  0  0  0  0  0  0  0  0  0
  1  3  1  0  0  0  0
  2  3  2  0  0  0  0
  2 11  1  0  0  0  0
  3  4  1  0  0  0  0
  4  5  1  0  0  0  0
  5  6  1  0  0  0  0
  5  7  2  0  0  0  0
  6  8  1  0  0  0  0
  6 11  2  0  0  0  0
  8  9  1  0  0  0  0
  9 10  1  0  0  0  0
  9 13  1  1  0  0  0
 10 12  1  0  0  0  0
 11 12  1  0  0  0  0
M  END
>  <CHROM.1>
-21.78015535,42.10843404,56.52634008,2.14647795,1.05351630,1.49094512

>  <Name>
ligand

>  <RI>
0

>  <Rbt.Current_Directory>
/home/itssahil/PROJECTS/Mol_Feturizer/New_Systems/rnas/3SUX

>  <Rbt.Executable>
rbdock ($Id: //depot/dev/client3/rdock/2013.1/src/exe/rbdock.cxx#4 $)

>  <Rbt.Library>
libRbt.so (2013.1, Build901 2013/11/27)

>  <Rbt.Parameter_File>
/export/apps/rDock/src/rDock_2013.1_src/data/scripts/dock_solv.prm

>  <Rbt.Receptor>
prm/blind_docking_100.prm

>  <SCORE>
-14.5172

>  <SCORE.INTER>
-14.5172

>  <SCORE.INTER.CONST>
1

>  <SCORE.INTER.POLAR>
0

>  <SCORE.INTER.ROT>
0

>  <SCORE.INTER.SOLV>
15.345

>  <SCORE.INTER.VDW>
-18.3931

>  <SCORE.INTER.norm>
-1.11671

>  <SCORE.INTRA>
0

>  <SCORE.INTRA.DIHEDRAL>
0

>  <SCORE.INTRA.DIHEDRAL.0>
0

>  <SCORE.INTRA.POLAR>
0

>  <SCORE.INTRA.POLAR.0>
0

>  <SCORE.INTRA.REPUL>
0

>  <SCORE.INTRA.REPUL.0>
0

>  <SCORE.INTRA.SOLV>
0

>  <SCORE.INTRA.SOLV.lig_0>
-48.6608

>  <SCORE.INTRA.VDW>
0

>  <SCORE.INTRA.VDW.0>
0

>  <SCORE.INTRA.norm>
0

>  <SCORE.RESTR>
0

>  <SCORE.RESTR.CAVITY>
0

>  <SCORE.RESTR.norm>
0

>  <SCORE.SYSTEM>
0

>  <SCORE.SYSTEM.CONST>
0

>  <SCORE.SYSTEM.DIHEDRAL>
0

>  <SCORE.SYSTEM.SOLV>
0

>  <SCORE.SYSTEM.norm>
0

>  <SCORE.heavy>
13

>  <SCORE.norm>
-1.11671

>  <RMSD>
34.972

$$$$
ligand
 OpenBabel11021811483D
libRbt.so/2013.1/901 2013/11/27
 13 14  0  0  0  0  0  0  0  0999 V2000
  -23.0078   39.6025   59.0568 N   0  0  0  0  0  0  0  0  0  0  0  0
  -22.6395   40.4633   56.9362 N   0  0  0  0  0  0  0  0  0  0  0  0
  -22.5518   40.5765   58.2744 C   0  0  0  0  0  0  0  0  0  0  0  0
  -21.9962   41.7176   58.8515 N   0  0  0  0  0  0  0  0  0  0  0  0
  -21.5250   42.7269   58.0095 C   0  0  0  0  0  0  0  0  0  0  0  0
  -21.6141   42.5789   56.6292 C   0  0  0  0  0  0  0  0  0  0  0  0
  -21.0363   43.7490   58.4897 O   0  0  0  0  0  0  0  0  0  0  0  0
  -21.1777   43.6151   55.7820 N   0  0  0  0  0  0  0  0  0  0  0  0
  -21.1994   43.4940   54.2965 C   0  0  2  0  0  0  0  0  0  0  0  0
  -22.3306   42.5372   53.8836 C   0  0  0  0  0  0  0  0  0  0  0  0
  -22.1990   41.4315   56.1126 C   0  0  0  0  0  0  0  0  0  0  0  0
  -22.3125   41.2907   54.7243 N   0  0  0  0  0  0  0  0  0  0  0  0
  -19.8276   42.9258   53.8245 C   0  0  0  0  0  0  0  0  0  0  0  0
  1  3  1  0  0  0  0
  2  3  2  0  0  0  0
  2 11  1  0  0  0  0
  3  4  1  0  0  0  0
  4  5  1  0  0  0  0
  5  6  1  0  0  0  0
  5  7  2  0  0  0  0
  6  8  1  0  0  0  0
  6 11  2  0  0  0  0
  8  9  1  0  0  0  0
  9 10  1  0  0  0  0
  9 13  1  1  0  0  0
 10 12  1  0  0  0  0
 11 12  1  0  0  0  0
M  END
>  <CHROM.1>
-21.77685464,42.08102187,56.51416145,2.12345911,1.04334378,1.52293028

>  <Name>
ligand

>  <RI>
0

>  <Rbt.Current_Directory>
/home/itssahil/PROJECTS/Mol_Feturizer/New_Systems/rnas/3SUX

>  <Rbt.Executable>
rbdock ($Id: //depot/dev/client3/rdock/2013.1/src/exe/rbdock.cxx#4 $)

>  <Rbt.Library>
libRbt.so (2013.1, Build901 2013/11/27)

>  <Rbt.Parameter_File>
/export/apps/rDock/src/rDock_2013.1_src/data/scripts/dock_solv.prm

>  <Rbt.Receptor>
prm/blind_docking_80.prm

>  <SCORE>
-14.4764

>  <SCORE.INTER>
-14.4764

>  <SCORE.INTER.CONST>
1

>  <SCORE.INTER.POLAR>
0

>  <SCORE.INTER.ROT>
0

>  <SCORE.INTER.SOLV>
15.1253

>  <SCORE.INTER.VDW>
-18.2927

>  <SCORE.INTER.norm>
-1.11357

>  <SCORE.INTRA>
0

>  <SCORE.INTRA.DIHEDRAL>
0

>  <SCORE.INTRA.DIHEDRAL.0>
0

>  <SCORE.INTRA.POLAR>
0

>  <SCORE.INTRA.POLAR.0>
0

>  <SCORE.INTRA.REPUL>
0

>  <SCORE.INTRA.REPUL.0>
0

>  <SCORE.INTRA.SOLV>
0

>  <SCORE.INTRA.SOLV.lig_0>
-48.6608

>  <SCORE.INTRA.VDW>
0

>  <SCORE.INTRA.VDW.0>
0

>  <SCORE.INTRA.norm>
0

>  <SCORE.RESTR>
0

>  <SCORE.RESTR.CAVITY>
0

>  <SCORE.RESTR.norm>
0

>  <SCORE.SYSTEM>
0

>  <SCORE.SYSTEM.CONST>
0

>  <SCORE.SYSTEM.DIHEDRAL>
0

>  <SCORE.SYSTEM.SOLV>
0

>  <SCORE.SYSTEM.norm>
0

>  <SCORE.heavy>
13

>  <SCORE.norm>
-1.11357

>  <RMSD>
34.974

$$$$
ligand
 OpenBabel11021811483D
libRbt.so/2013.1/901 2013/11/27
 13 14  0  0  0  0  0  0  0  0999 V2000
  -23.0195   39.6499   59.0877 N   0  0  0  0  0  0  0  0  0  0  0  0
  -22.6350   40.4901   56.9617 N   0  0  0  0  0  0  0  0  0  0  0  0
  -22.5639   40.6193   58.2994 C   0  0  0  0  0  0  0  0  0  0  0  0
  -22.0259   41.7722   58.8697 N   0  0  0  0  0  0  0  0  0  0  0  0
  -21.5547   42.7764   58.0216 C   0  0  0  0  0  0  0  0  0  0  0  0
  -21.6265   42.6119   56.6422 C   0  0  0  0  0  0  0  0  0  0  0  0
  -21.0814   43.8087   58.4956 O   0  0  0  0  0  0  0  0  0  0  0  0
  -21.1903   43.6426   55.7881 N   0  0  0  0  0  0  0  0  0  0  0  0
  -21.1936   43.5045   54.3040 C   0  0  2  0  0  0  0  0  0  0  0  0
  -22.3108   42.5320   53.8892 C   0  0  0  0  0  0  0  0  0  0  0  0
  -22.1943   41.4530   56.1321 C   0  0  0  0  0  0  0  0  0  0  0  0
  -22.2904   41.2954   54.7443 N   0  0  0  0  0  0  0  0  0  0  0  0
  -19.8111   42.9442   53.8543 C   0  0  0  0  0  0  0  0  0  0  0  0
  1  3  1  0  0  0  0
  2  3  2  0  0  0  0
  2 11  1  0  0  0  0
  3  4  1  0  0  0  0
  4  5  1  0  0  0  0
  5  6  1  0  0  0  0
  5  7  2  0  0  0  0
  6  8  1  0  0  0  0
  6 11  2  0  0  0  0
  8  9  1  0  0  0  0
  9 10  1  0  0  0  0
  9 13  1  1  0  0  0
 10 12  1  0  0  0  0
 11 12  1  0  0  0  0
M  END
>  <CHROM.1>
-21.78307782,42.11117803,56.53098835,2.14766582,1.05224408,1.49053724

>  <Name>
ligand

>  <RI>
0

>  <Rbt.Current_Directory>
/home/itssahil/PROJECTS/Mol_Feturizer/New_Systems/rnas/3SUX

>  <Rbt.Executable>
rbdock ($Id: //depot/dev/client3/rdock/2013.1/src/exe/rbdock.cxx#4 $)

>  <Rbt.Library>
libRbt.so (2013.1, Build901 2013/11/27)

>  <Rbt.Parameter_File>
/export/apps/rDock/src/rDock_2013.1_src/data/scripts/dock_solv.prm

>  <Rbt.Receptor>
prm/blind_docking_80.prm

>  <SCORE>
-14.5107

>  <SCORE.INTER>
-14.5107

>  <SCORE.INTER.CONST>
1

>  <SCORE.INTER.POLAR>
0

>  <SCORE.INTER.ROT>
0

>  <SCORE.INTER.SOLV>
15.3847

>  <SCORE.INTER.VDW>
-18.402

>  <SCORE.INTER.norm>
-1.11621

>  <SCORE.INTRA>
0

>  <SCORE.INTRA.DIHEDRAL>
0

>  <SCORE.INTRA.DIHEDRAL.0>
0

>  <SCORE.INTRA.POLAR>
0

>  <SCORE.INTRA.POLAR.0>
0

>  <SCORE.INTRA.REPUL>
0

>  <SCORE.INTRA.REPUL.0>
0

>  <SCORE.INTRA.SOLV>
0

>  <SCORE.INTRA.SOLV.lig_0>
-48.6608

>  <SCORE.INTRA.VDW>
0

>  <SCORE.INTRA.VDW.0>
0

>  <SCORE.INTRA.norm>
0

>  <SCORE.RESTR>
0

>  <SCORE.RESTR.CAVITY>
0

>  <SCORE.RESTR.norm>
0

>  <SCORE.SYSTEM>
0

>  <SCORE.SYSTEM.CONST>
0

>  <SCORE.SYSTEM.DIHEDRAL>
0

>  <SCORE.SYSTEM.SOLV>
0

>  <SCORE.SYSTEM.norm>
0

>  <SCORE.heavy>
13

>  <SCORE.norm>
-1.11621

>  <RMSD>
34.974

$$$$
ligand
 OpenBabel11021811483D
libRbt.so/2013.1/901 2013/11/27
 13 14  0  0  0  0  0  0  0  0999 V2000
  -22.9897   39.5901   59.0664 N   0  0  0  0  0  0  0  0  0  0  0  0
  -22.6171   40.4536   56.9476 N   0  0  0  0  0  0  0  0  0  0  0  0
  -22.5459   40.5716   58.2863 C   0  0  0  0  0  0  0  0  0  0  0  0
  -22.0202   41.7254   58.8663 N   0  0  0  0  0  0  0  0  0  0  0  0
  -21.5614   42.7424   58.0267 C   0  0  0  0  0  0  0  0  0  0  0  0
  -21.6330   42.5894   56.6460 C   0  0  0  0  0  0  0  0  0  0  0  0
  -21.0992   43.7756   58.5094 O   0  0  0  0  0  0  0  0  0  0  0  0
  -21.2094   43.6325   55.8007 N   0  0  0  0  0  0  0  0  0  0  0  0
  -21.2129   43.5076   54.3154 C   0  0  2  0  0  0  0  0  0  0  0  0
  -22.3195   42.5263   53.8931 C   0  0  0  0  0  0  0  0  0  0  0  0
  -22.1883   41.4288   56.1262 C   0  0  0  0  0  0  0  0  0  0  0  0
  -22.2842   41.2825   54.7371 N   0  0  0  0  0  0  0  0  0  0  0  0
  -19.8247   42.9670   53.8592 C   0  0  0  0  0  0  0  0  0  0  0  0
  1  3  1  0  0  0  0
  2  3  2  0  0  0  0
  2 11  1  0  0  0  0
  3  4  1  0  0  0  0
  4  5  1  0  0  0  0
  5  6  1  0  0  0  0
  5  7  2  0  0  0  0
  6  8  1  0  0  0  0
  6 11  2  0  0  0  0
  8  9  1  0  0  0  0
  9 10  1  0  0  0  0
  9 13  1  1  0  0  0
 10 12  1  0  0  0  0
 11 12  1  0  0  0  0
M  END
>  <CHROM.1>
-21.78401974,42.08794276,56.53046914,2.14713361,1.06356677,1.49993235

>  <Name>
ligand

>  <RI>
0

>  <Rbt.Current_Directory>
/home/itssahil/PROJECTS/Mol_Feturizer/New_Systems/rnas/3SUX

>  <Rbt.Executable>
rbdock ($Id: //depot/dev/client3/rdock/2013.1/src/exe/rbdock.cxx#4 $)

>  <Rbt.Library>
libRbt.so (2013.1, Build901 2013/11/27)

>  <Rbt.Parameter_File>
/export/apps/rDock/src/rDock_2013.1_src/data/scripts/dock_solv.prm

>  <Rbt.Receptor>
prm/blind_docking_80.prm

>  <SCORE>
-14.5132

>  <SCORE.INTER>
-14.5132

>  <SCORE.INTER.CONST>
1

>  <SCORE.INTER.POLAR>
0

>  <SCORE.INTER.ROT>
0

>  <SCORE.INTER.SOLV>
15.1371

>  <SCORE.INTER.VDW>
-18.3212

>  <SCORE.INTER.norm>
-1.1164

>  <SCORE.INTRA>
0

>  <SCORE.INTRA.DIHEDRAL>
0

>  <SCORE.INTRA.DIHEDRAL.0>
0

>  <SCORE.INTRA.POLAR>
0

>  <SCORE.INTRA.POLAR.0>
0

>  <SCORE.INTRA.REPUL>
0

>  <SCORE.INTRA.REPUL.0>
0

>  <SCORE.INTRA.SOLV>
0

>  <SCORE.INTRA.SOLV.lig_0>
-48.6608

>  <SCORE.INTRA.VDW>
0

>  <SCORE.INTRA.VDW.0>
0

>  <SCORE.INTRA.norm>
0

>  <SCORE.RESTR>
0

>  <SCORE.RESTR.CAVITY>
0

>  <SCORE.RESTR.norm>
0

>  <SCORE.SYSTEM>
0

>  <SCORE.SYSTEM.CONST>
0

>  <SCORE.SYSTEM.DIHEDRAL>
0

>  <SCORE.SYSTEM.SOLV>
0

>  <SCORE.SYSTEM.norm>
0

>  <SCORE.heavy>
13

>  <SCORE.norm>
-1.1164

>  <RMSD>
34.975

$$$$
ligand
 OpenBabel11021811483D
libRbt.so/2013.1/901 2013/11/27
 13 14  0  0  0  0  0  0  0  0999 V2000
  -22.9883   39.5853   59.0757 N   0  0  0  0  0  0  0  0  0  0  0  0
  -22.6275   40.4538   56.9569 N   0  0  0  0  0  0  0  0  0  0  0  0
  -22.5464   40.5675   58.2955 C   0  0  0  0  0  0  0  0  0  0  0  0
  -22.0123   41.7175   58.8751 N   0  0  0  0  0  0  0  0  0  0  0  0
  -21.5555   42.7353   58.0354 C   0  0  0  0  0  0  0  0  0  0  0  0
  -21.6375   42.5867   56.6547 C   0  0  0  0  0  0  0  0  0  0  0  0
  -21.0861   43.7653   58.5178 O   0  0  0  0  0  0  0  0  0  0  0  0
  -21.2159   43.6308   55.8095 N   0  0  0  0  0  0  0  0  0  0  0  0
  -21.2304   43.5104   54.3240 C   0  0  2  0  0  0  0  0  0  0  0  0
  -22.3437   42.5345   53.9066 C   0  0  0  0  0  0  0  0  0  0  0  0
  -22.2008   41.4298   56.1354 C   0  0  0  0  0  0  0  0  0  0  0  0
  -22.3071   41.2880   54.7466 N   0  0  0  0  0  0  0  0  0  0  0  0
  -19.8475   42.9659   53.8563 C   0  0  0  0  0  0  0  0  0  0  0  0
  1  3  1  0  0  0  0
  2  3  2  0  0  0  0
  2 11  1  0  0  0  0
  3  4  1  0  0  0  0
  4  5  1  0  0  0  0
  5  6  1  0  0  0  0
  5  7  2  0  0  0  0
  6  8  1  0  0  0  0
  6 11  2  0  0  0  0
  8  9  1  0  0  0  0
  9 10  1  0  0  0  0
  9 13  1  1  0  0  0
 10 12  1  0  0  0  0
 11 12  1  0  0  0  0
M  END
>  <CHROM.1>
-21.79122755,42.08621059,56.53877909,2.13211437,1.06024162,1.51604171

>  <Name>
ligand

>  <RI>
0

>  <Rbt.Current_Directory>
/home/itssahil/PROJECTS/Mol_Feturizer/New_Systems/rnas/3SUX

>  <Rbt.Executable>
rbdock ($Id: //depot/dev/client3/rdock/2013.1/src/exe/rbdock.cxx#4 $)

>  <Rbt.Library>
libRbt.so (2013.1, Build901 2013/11/27)

>  <Rbt.Parameter_File>
/export/apps/rDock/src/rDock_2013.1_src/data/scripts/dock_solv.prm

>  <Rbt.Receptor>
prm/blind_docking_100.prm

>  <SCORE>
-14.4938

>  <SCORE.INTER>
-14.4938

>  <SCORE.INTER.CONST>
1

>  <SCORE.INTER.POLAR>
0

>  <SCORE.INTER.ROT>
0

>  <SCORE.INTER.SOLV>
15.1501

>  <SCORE.INTER.VDW>
-18.3126

>  <SCORE.INTER.norm>
-1.11491

>  <SCORE.INTRA>
0

>  <SCORE.INTRA.DIHEDRAL>
0

>  <SCORE.INTRA.DIHEDRAL.0>
0

>  <SCORE.INTRA.POLAR>
0

>  <SCORE.INTRA.POLAR.0>
0

>  <SCORE.INTRA.REPUL>
0

>  <SCORE.INTRA.REPUL.0>
0

>  <SCORE.INTRA.SOLV>
0

>  <SCORE.INTRA.SOLV.lig_0>
-48.6608

>  <SCORE.INTRA.VDW>
0

>  <SCORE.INTRA.VDW.0>
0

>  <SCORE.INTRA.norm>
0

>  <SCORE.RESTR>
0

>  <SCORE.RESTR.CAVITY>
0

>  <SCORE.RESTR.norm>
0

>  <SCORE.SYSTEM>
0

>  <SCORE.SYSTEM.CONST>
0

>  <SCORE.SYSTEM.DIHEDRAL>
0

>  <SCORE.SYSTEM.SOLV>
0

>  <SCORE.SYSTEM.norm>
0

>  <SCORE.heavy>
13

>  <SCORE.norm>
-1.11491

>  <RMSD>
34.978

$$$$
ligand
 OpenBabel11021811483D
libRbt.so/2013.1/901 2013/11/27
 13 14  0  0  0  0  0  0  0  0999 V2000
  -22.9488   39.5757   59.0828 N   0  0  0  0  0  0  0  0  0  0  0  0
  -22.5932   40.4276   56.9564 N   0  0  0  0  0  0  0  0  0  0  0  0
  -22.5212   40.5573   58.2940 C   0  0  0  0  0  0  0  0  0  0  0  0
  -22.0115   41.7233   58.8638 N   0  0  0  0  0  0  0  0  0  0  0  0
  -21.5694   42.7403   58.0152 C   0  0  0  0  0  0  0  0  0  0  0  0
  -21.6414   42.5752   56.6358 C   0  0  0  0  0  0  0  0  0  0  0  0
  -21.1217   43.7841   58.4887 O   0  0  0  0  0  0  0  0  0  0  0  0
  -21.2350   43.6177   55.7814 N   0  0  0  0  0  0  0  0  0  0  0  0
  -21.2396   43.4809   54.2972 C   0  0  2  0  0  0  0  0  0  0  0  0
  -22.3324   42.4801   53.8850 C   0  0  0  0  0  0  0  0  0  0  0  0
  -22.1805   41.4024   56.1264 C   0  0  0  0  0  0  0  0  0  0  0  0
  -22.2770   41.2437   54.7387 N   0  0  0  0  0  0  0  0  0  0  0  0
  -19.8444   42.9573   53.8424 C   0  0  0  0  0  0  0  0  0  0  0  0
  1  3  1  0  0  0  0
  2  3  2  0  0  0  0
  2 11  1  0  0  0  0
  3  4  1  0  0  0  0
  4  5  1  0  0  0  0
  5  6  1  0  0  0  0
  5  7  2  0  0  0  0
  6  8  1  0  0  0  0
  6 11  2  0  0  0  0
  8  9  1  0  0  0  0
  9 10  1  0  0  0  0
  9 13  1  1  0  0  0
 10 12  1  0  0  0  0
 11 12  1  0  0  0  0
M  END
>  <CHROM.1>
-21.78528203,42.07070674,56.52463130,2.14520426,1.07846693,1.49366107

>  <Name>
ligand

>  <RI>
0

>  <Rbt.Current_Directory>
/home/itssahil/PROJECTS/Mol_Feturizer/New_Systems/rnas/3SUX

>  <Rbt.Executable>
rbdock ($Id: //depot/dev/client3/rdock/2013.1/src/exe/rbdock.cxx#4 $)

>  <Rbt.Library>
libRbt.so (2013.1, Build901 2013/11/27)

>  <Rbt.Parameter_File>
/export/apps/rDock/src/rDock_2013.1_src/data/scripts/dock_solv.prm

>  <Rbt.Receptor>
prm/blind_docking_80.prm

>  <SCORE>
-14.4379

>  <SCORE.INTER>
-14.4379

>  <SCORE.INTER.CONST>
1

>  <SCORE.INTER.POLAR>
0

>  <SCORE.INTER.ROT>
0

>  <SCORE.INTER.SOLV>
14.9807

>  <SCORE.INTER.VDW>
-18.2188

>  <SCORE.INTER.norm>
-1.11061

>  <SCORE.INTRA>
0

>  <SCORE.INTRA.DIHEDRAL>
0

>  <SCORE.INTRA.DIHEDRAL.0>
0

>  <SCORE.INTRA.POLAR>
0

>  <SCORE.INTRA.POLAR.0>
0

>  <SCORE.INTRA.REPUL>
0

>  <SCORE.INTRA.REPUL.0>
0

>  <SCORE.INTRA.SOLV>
0

>  <SCORE.INTRA.SOLV.lig_0>
-48.6608

>  <SCORE.INTRA.VDW>
0

>  <SCORE.INTRA.VDW.0>
0

>  <SCORE.INTRA.norm>
0

>  <SCORE.RESTR>
0

>  <SCORE.RESTR.CAVITY>
0

>  <SCORE.RESTR.norm>
0

>  <SCORE.SYSTEM>
0

>  <SCORE.SYSTEM.CONST>
0

>  <SCORE.SYSTEM.DIHEDRAL>
0

>  <SCORE.SYSTEM.SOLV>
0

>  <SCORE.SYSTEM.norm>
0

>  <SCORE.heavy>
13

>  <SCORE.norm>
-1.11061

>  <RMSD>
34.978

$$$$
ligand
 OpenBabel11021811483D
libRbt.so/2013.1/901 2013/11/27
 13 14  0  0  0  0  0  0  0  0999 V2000
  -22.9944   39.5916   59.0704 N   0  0  0  0  0  0  0  0  0  0  0  0
  -22.6354   40.4591   56.9509 N   0  0  0  0  0  0  0  0  0  0  0  0
  -22.5495   40.5717   58.2893 C   0  0  0  0  0  0  0  0  0  0  0  0
  -22.0072   41.7185   58.8679 N   0  0  0  0  0  0  0  0  0  0  0  0
  -21.5476   42.7342   58.0272 C   0  0  0  0  0  0  0  0  0  0  0  0
  -21.6346   42.5868   56.6467 C   0  0  0  0  0  0  0  0  0  0  0  0
  -21.0709   43.7614   58.5087 O   0  0  0  0  0  0  0  0  0  0  0  0
  -21.2099   43.6290   55.8008 N   0  0  0  0  0  0  0  0  0  0  0  0
  -21.2298   43.5094   54.3152 C   0  0  2  0  0  0  0  0  0  0  0  0
  -22.3497   42.5399   53.9008 C   0  0  0  0  0  0  0  0  0  0  0  0
  -22.2059   41.4332   56.1286 C   0  0  0  0  0  0  0  0  0  0  0  0
  -22.3173   41.2928   54.7401 N   0  0  0  0  0  0  0  0  0  0  0  0
  -19.8513   42.9576   53.8430 C   0  0  0  0  0  0  0  0  0  0  0  0
  1  3  1  0  0  0  0
  2  3  2  0  0  0  0
  2 11  1  0  0  0  0
  3  4  1  0  0  0  0
  4  5  1  0  0  0  0
  5  6  1  0  0  0  0
  5  7  2  0  0  0  0
  6  8  1  0  0  0  0
  6 11  2  0  0  0  0
  8  9  1  0  0  0  0
  9 10  1  0  0  0  0
  9 13  1  1  0  0  0
 10 12  1  0  0  0  0
 11 12  1  0  0  0  0
M  END
>  <CHROM.1>
-21.79145640,42.08717534,56.53103935,2.12521319,1.05492302,1.52257316

>  <Name>
ligand

>  <RI>
0

>  <Rbt.Current_Directory>
/home/itssahil/PROJECTS/Mol_Feturizer/New_Systems/rnas/3SUX

>  <Rbt.Executable>
rbdock ($Id: //depot/dev/client3/rdock/2013.1/src/exe/rbdock.cxx#4 $)

>  <Rbt.Library>
libRbt.so (2013.1, Build901 2013/11/27)

>  <Rbt.Parameter_File>
/export/apps/rDock/src/rDock_2013.1_src/data/scripts/dock_solv.prm

>  <Rbt.Receptor>
prm/blind_docking_100.prm

>  <SCORE>
-14.4984

>  <SCORE.INTER>
-14.4984

>  <SCORE.INTER.CONST>
1

>  <SCORE.INTER.POLAR>
0

>  <SCORE.INTER.ROT>
0

>  <SCORE.INTER.SOLV>
15.1498

>  <SCORE.INTER.VDW>
-18.3156

>  <SCORE.INTER.norm>
-1.11526

>  <SCORE.INTRA>
0

>  <SCORE.INTRA.DIHEDRAL>
0

>  <SCORE.INTRA.DIHEDRAL.0>
0

>  <SCORE.INTRA.POLAR>
0

>  <SCORE.INTRA.POLAR.0>
0

>  <SCORE.INTRA.REPUL>
0

>  <SCORE.INTRA.REPUL.0>
0

>  <SCORE.INTRA.SOLV>
0

>  <SCORE.INTRA.SOLV.lig_0>
-48.6608

>  <SCORE.INTRA.VDW>
0

>  <SCORE.INTRA.VDW.0>
0

>  <SCORE.INTRA.norm>
0

>  <SCORE.RESTR>
0

>  <SCORE.RESTR.CAVITY>
0

>  <SCORE.RESTR.norm>
0

>  <SCORE.SYSTEM>
0

>  <SCORE.SYSTEM.CONST>
0

>  <SCORE.SYSTEM.DIHEDRAL>
0

>  <SCORE.SYSTEM.SOLV>
0

>  <SCORE.SYSTEM.norm>
0

>  <SCORE.heavy>
13

>  <SCORE.norm>
-1.11526

>  <RMSD>
34.981

$$$$
ligand
 OpenBabel11021811483D
libRbt.so/2013.1/901 2013/11/27
 13 14  0  0  0  0  0  0  0  0999 V2000
  -23.0449   39.6314   59.0720 N   0  0  0  0  0  0  0  0  0  0  0  0
  -22.6665   40.4829   56.9494 N   0  0  0  0  0  0  0  0  0  0  0  0
  -22.5809   40.5998   58.2874 C   0  0  0  0  0  0  0  0  0  0  0  0
  -22.0191   41.7392   58.8619 N   0  0  0  0  0  0  0  0  0  0  0  0
  -21.5396   42.7427   58.0177 C   0  0  0  0  0  0  0  0  0  0  0  0
  -21.6268   42.5908   56.6377 C   0  0  0  0  0  0  0  0  0  0  0  0
  -21.0453   43.7632   58.4955 O   0  0  0  0  0  0  0  0  0  0  0  0
  -21.1819   43.6214   55.7880 N   0  0  0  0  0  0  0  0  0  0  0  0
  -21.2012   43.4956   54.3029 C   0  0  2  0  0  0  0  0  0  0  0  0
  -22.3377   42.5447   53.8907 C   0  0  0  0  0  0  0  0  0  0  0  0
  -22.2180   41.4455   56.1236 C   0  0  0  0  0  0  0  0  0  0  0  0
  -22.3294   41.3009   54.7354 N   0  0  0  0  0  0  0  0  0  0  0  0
  -19.8321   42.9169   53.8357 C   0  0  0  0  0  0  0  0  0  0  0  0
  1  3  1  0  0  0  0
  2  3  2  0  0  0  0
  2 11  1  0  0  0  0
  3  4  1  0  0  0  0
  4  5  1  0  0  0  0
  5  6  1  0  0  0  0
  5  7  2  0  0  0  0
  6  8  1  0  0  0  0
  6 11  2  0  0  0  0
  8  9  1  0  0  0  0
  9 10  1  0  0  0  0
  9 13  1  1  0  0  0
 10 12  1  0  0  0  0
 11 12  1  0  0  0  0
M  END
>  <CHROM.1>
-21.79247559,42.09357572,56.52389668,2.12699262,1.03676097,1.51661971

>  <Name>
ligand

>  <RI>
0

>  <Rbt.Current_Directory>
/home/itssahil/PROJECTS/Mol_Feturizer/New_Systems/rnas/3SUX

>  <Rbt.Executable>
rbdock ($Id: //depot/dev/client3/rdock/2013.1/src/exe/rbdock.cxx#4 $)

>  <Rbt.Library>
libRbt.so (2013.1, Build901 2013/11/27)

>  <Rbt.Parameter_File>
/export/apps/rDock/src/rDock_2013.1_src/data/scripts/dock_solv.prm

>  <Rbt.Receptor>
prm/blind_docking_100.prm

>  <SCORE>
-14.534

>  <SCORE.INTER>
-14.534

>  <SCORE.INTER.CONST>
1

>  <SCORE.INTER.POLAR>
0

>  <SCORE.INTER.ROT>
0

>  <SCORE.INTER.SOLV>
15.2975

>  <SCORE.INTER.VDW>
-18.3885

>  <SCORE.INTER.norm>
-1.118

>  <SCORE.INTRA>
0

>  <SCORE.INTRA.DIHEDRAL>
0

>  <SCORE.INTRA.DIHEDRAL.0>
0

>  <SCORE.INTRA.POLAR>
0

>  <SCORE.INTRA.POLAR.0>
0

>  <SCORE.INTRA.REPUL>
0

>  <SCORE.INTRA.REPUL.0>
0

>  <SCORE.INTRA.SOLV>
0

>  <SCORE.INTRA.SOLV.lig_0>
-48.6608

>  <SCORE.INTRA.VDW>
0

>  <SCORE.INTRA.VDW.0>
0

>  <SCORE.INTRA.norm>
0

>  <SCORE.RESTR>
0

>  <SCORE.RESTR.CAVITY>
0

>  <SCORE.RESTR.norm>
0

>  <SCORE.SYSTEM>
0

>  <SCORE.SYSTEM.CONST>
0

>  <SCORE.SYSTEM.DIHEDRAL>
0

>  <SCORE.SYSTEM.SOLV>
0

>  <SCORE.SYSTEM.norm>
0

>  <SCORE.heavy>
13

>  <SCORE.norm>
-1.118

>  <RMSD>
34.985

$$$$
ligand
 OpenBabel11021811483D
libRbt.so/2013.1/901 2013/11/27
 13 14  0  0  0  0  0  0  0  0999 V2000
  -23.0120   39.5906   59.0727 N   0  0  0  0  0  0  0  0  0  0  0  0
  -22.6532   40.4618   56.9547 N   0  0  0  0  0  0  0  0  0  0  0  0
  -22.5623   40.5697   58.2931 C   0  0  0  0  0  0  0  0  0  0  0  0
  -22.0099   41.7107   58.8734 N   0  0  0  0  0  0  0  0  0  0  0  0
  -21.5453   42.7256   58.0343 C   0  0  0  0  0  0  0  0  0  0  0  0
  -21.6377   42.5829   56.6537 C   0  0  0  0  0  0  0  0  0  0  0  0
  -21.0596   43.7478   58.5174 O   0  0  0  0  0  0  0  0  0  0  0  0
  -21.2080   43.6245   55.8095 N   0  0  0  0  0  0  0  0  0  0  0  0
  -21.2333   43.5094   54.3237 C   0  0  2  0  0  0  0  0  0  0  0  0
  -22.3615   42.5495   53.9099 C   0  0  0  0  0  0  0  0  0  0  0  0
  -22.2191   41.4351   56.1339 C   0  0  0  0  0  0  0  0  0  0  0  0
  -22.3358   41.2996   54.7453 N   0  0  0  0  0  0  0  0  0  0  0  0
  -19.8604   42.9490   53.8456 C   0  0  0  0  0  0  0  0  0  0  0  0
  1  3  1  0  0  0  0
  2  3  2  0  0  0  0
  2 11  1  0  0  0  0
  3  4  1  0  0  0  0
  4  5  1  0  0  0  0
  5  6  1  0  0  0  0
  5  7  2  0  0  0  0
  6  8  1  0  0  0  0
  6 11  2  0  0  0  0
  8  9  1  0  0  0  0
  9 10  1  0  0  0  0
  9 13  1  1  0  0  0
 10 12  1  0  0  0  0
 11 12  1  0  0  0  0
M  END
>  <CHROM.1>
-21.79857649,42.08480933,56.53701836,2.11832172,1.04769495,1.53151894

>  <Name>
ligand

>  <RI>
0

>  <Rbt.Current_Directory>
/home/itssahil/PROJECTS/Mol_Feturizer/New_Systems/rnas/3SUX

>  <Rbt.Executable>
rbdock ($Id: //depot/dev/client3/rdock/2013.1/src/exe/rbdock.cxx#4 $)

>  <Rbt.Library>
libRbt.so (2013.1, Build901 2013/11/27)

>  <Rbt.Parameter_File>
/export/apps/rDock/src/rDock_2013.1_src/data/scripts/dock_solv.prm

>  <Rbt.Receptor>
prm/blind_docking_80.prm

>  <SCORE>
-14.5014

>  <SCORE.INTER>
-14.5014

>  <SCORE.INTER.CONST>
1

>  <SCORE.INTER.POLAR>
0

>  <SCORE.INTER.ROT>
0

>  <SCORE.INTER.SOLV>
15.1864

>  <SCORE.INTER.VDW>
-18.3297

>  <SCORE.INTER.norm>
-1.11549

>  <SCORE.INTRA>
0

>  <SCORE.INTRA.DIHEDRAL>
0

>  <SCORE.INTRA.DIHEDRAL.0>
0

>  <SCORE.INTRA.POLAR>
0

>  <SCORE.INTRA.POLAR.0>
0

>  <SCORE.INTRA.REPUL>
0

>  <SCORE.INTRA.REPUL.0>
0

>  <SCORE.INTRA.SOLV>
0

>  <SCORE.INTRA.SOLV.lig_0>
-48.6608

>  <SCORE.INTRA.VDW>
0

>  <SCORE.INTRA.VDW.0>
0

>  <SCORE.INTRA.norm>
0

>  <SCORE.RESTR>
0

>  <SCORE.RESTR.CAVITY>
0

>  <SCORE.RESTR.norm>
0

>  <SCORE.SYSTEM>
0

>  <SCORE.SYSTEM.CONST>
0

>  <SCORE.SYSTEM.DIHEDRAL>
0

>  <SCORE.SYSTEM.SOLV>
0

>  <SCORE.SYSTEM.norm>
0

>  <SCORE.heavy>
13

>  <SCORE.norm>
-1.11549

>  <RMSD>
34.986

$$$$
ligand
 OpenBabel11021811483D
libRbt.so/2013.1/901 2013/11/27
 13 14  0  0  0  0  0  0  0  0999 V2000
  -23.0584   39.6518   59.0815 N   0  0  0  0  0  0  0  0  0  0  0  0
  -22.6790   40.4964   56.9563 N   0  0  0  0  0  0  0  0  0  0  0  0
  -22.5914   40.6164   58.2939 C   0  0  0  0  0  0  0  0  0  0  0  0
  -22.0243   41.7549   58.8649 N   0  0  0  0  0  0  0  0  0  0  0  0
  -21.5417   42.7543   58.0175 C   0  0  0  0  0  0  0  0  0  0  0  0
  -21.6311   42.5992   56.6380 C   0  0  0  0  0  0  0  0  0  0  0  0
  -21.0427   43.7740   58.4922 O   0  0  0  0  0  0  0  0  0  0  0  0
  -21.1830   43.6258   55.7852 N   0  0  0  0  0  0  0  0  0  0  0  0
  -21.2046   43.4963   54.3005 C   0  0  2  0  0  0  0  0  0  0  0  0
  -22.3454   42.5490   53.8920 C   0  0  0  0  0  0  0  0  0  0  0  0
  -22.2276   41.4550   56.1275 C   0  0  0  0  0  0  0  0  0  0  0  0
  -22.3412   41.3073   54.7399 N   0  0  0  0  0  0  0  0  0  0  0  0
  -19.8384   42.9108   53.8331 C   0  0  0  0  0  0  0  0  0  0  0  0
  1  3  1  0  0  0  0
  2  3  2  0  0  0  0
  2 11  1  0  0  0  0
  3  4  1  0  0  0  0
  4  5  1  0  0  0  0
  5  6  1  0  0  0  0
  5  7  2  0  0  0  0
  6  8  1  0  0  0  0
  6 11  2  0  0  0  0
  8  9  1  0  0  0  0
  9 10  1  0  0  0  0
  9 13  1  1  0  0  0
 10 12  1  0  0  0  0
 11 12  1  0  0  0  0
M  END
>  <CHROM.1>
-21.79896227,42.10237111,56.52570940,2.12429533,1.03276609,1.51638031

>  <Name>
ligand

>  <RI>
0

>  <Rbt.Current_Directory>
/home/itssahil/PROJECTS/Mol_Feturizer/New_Systems/rnas/3SUX

>  <Rbt.Executable>
rbdock ($Id: //depot/dev/client3/rdock/2013.1/src/exe/rbdock.cxx#4 $)

>  <Rbt.Library>
libRbt.so (2013.1, Build901 2013/11/27)

>  <Rbt.Parameter_File>
/export/apps/rDock/src/rDock_2013.1_src/data/scripts/dock_solv.prm

>  <Rbt.Receptor>
prm/blind_docking_80.prm

>  <SCORE>
-14.5224

>  <SCORE.INTER>
-14.5224

>  <SCORE.INTER.CONST>
1

>  <SCORE.INTER.POLAR>
0

>  <SCORE.INTER.ROT>
0

>  <SCORE.INTER.SOLV>
15.3905

>  <SCORE.INTER.VDW>
-18.4118

>  <SCORE.INTER.norm>
-1.11711

>  <SCORE.INTRA>
0

>  <SCORE.INTRA.DIHEDRAL>
0

>  <SCORE.INTRA.DIHEDRAL.0>
0

>  <SCORE.INTRA.POLAR>
0

>  <SCORE.INTRA.POLAR.0>
0

>  <SCORE.INTRA.REPUL>
0

>  <SCORE.INTRA.REPUL.0>
0

>  <SCORE.INTRA.SOLV>
0

>  <SCORE.INTRA.SOLV.lig_0>
-48.6608

>  <SCORE.INTRA.VDW>
0

>  <SCORE.INTRA.VDW.0>
0

>  <SCORE.INTRA.norm>
0

>  <SCORE.RESTR>
0

>  <SCORE.RESTR.CAVITY>
0

>  <SCORE.RESTR.norm>
0

>  <SCORE.SYSTEM>
0

>  <SCORE.SYSTEM.CONST>
0

>  <SCORE.SYSTEM.DIHEDRAL>
0

>  <SCORE.SYSTEM.SOLV>
0

>  <SCORE.SYSTEM.norm>
0

>  <SCORE.heavy>
13

>  <SCORE.norm>
-1.11711

>  <RMSD>
34.991

$$$$
ligand
 OpenBabel11021811483D
libRbt.so/2013.1/901 2013/11/27
 13 14  0  0  0  0  0  0  0  0999 V2000
  -22.9916   39.6848   59.1458 N   0  0  0  0  0  0  0  0  0  0  0  0
  -22.6325   40.4730   56.9956 N   0  0  0  0  0  0  0  0  0  0  0  0
  -22.5506   40.6370   58.3288 C   0  0  0  0  0  0  0  0  0  0  0  0
  -22.0167   41.8083   58.8645 N   0  0  0  0  0  0  0  0  0  0  0  0
  -21.5609   42.7940   57.9867 C   0  0  0  0  0  0  0  0  0  0  0  0
  -21.6436   42.5935   56.6127 C   0  0  0  0  0  0  0  0  0  0  0  0
  -21.0916   43.8417   58.4297 O   0  0  0  0  0  0  0  0  0  0  0  0
  -21.2230   43.6052   55.7285 N   0  0  0  0  0  0  0  0  0  0  0  0
  -21.2384   43.4289   54.2486 C   0  0  2  0  0  0  0  0  0  0  0  0
  -22.3515   42.4376   53.8689 C   0  0  0  0  0  0  0  0  0  0  0  0
  -22.2068   41.4176   56.1376 C   0  0  0  0  0  0  0  0  0  0  0  0
  -22.3138   41.2236   54.7552 N   0  0  0  0  0  0  0  0  0  0  0  0
  -19.8555   42.8679   53.8009 C   0  0  0  0  0  0  0  0  0  0  0  0
  1  3  1  0  0  0  0
  2  3  2  0  0  0  0
  2 11  1  0  0  0  0
  3  4  1  0  0  0  0
  4  5  1  0  0  0  0
  5  6  1  0  0  0  0
  5  7  2  0  0  0  0
  6  8  1  0  0  0  0
  6 11  2  0  0  0  0
  8  9  1  0  0  0  0
  9 10  1  0  0  0  0
  9 13  1  1  0  0  0
 10 12  1  0  0  0  0
 11 12  1  0  0  0  0
M  END
>  <CHROM.1>
-21.79720958,42.08890182,56.51576620,2.13095104,1.06074036,1.47939153

>  <Name>
ligand

>  <RI>
0

>  <Rbt.Current_Directory>
/home/itssahil/PROJECTS/Mol_Feturizer/New_Systems/rnas/3SUX

>  <Rbt.Executable>
rbdock ($Id: //depot/dev/client3/rdock/2013.1/src/exe/rbdock.cxx#4 $)

>  <Rbt.Library>
libRbt.so (2013.1, Build901 2013/11/27)

>  <Rbt.Parameter_File>
/export/apps/rDock/src/rDock_2013.1_src/data/scripts/dock_solv.prm

>  <Rbt.Receptor>
prm/blind_docking_80.prm

>  <SCORE>
-14.5351

>  <SCORE.INTER>
-14.5351

>  <SCORE.INTER.CONST>
1

>  <SCORE.INTER.POLAR>
0

>  <SCORE.INTER.ROT>
0

>  <SCORE.INTER.SOLV>
15.2665

>  <SCORE.INTER.VDW>
-18.3789

>  <SCORE.INTER.norm>
-1.11808

>  <SCORE.INTRA>
0

>  <SCORE.INTRA.DIHEDRAL>
0

>  <SCORE.INTRA.DIHEDRAL.0>
0

>  <SCORE.INTRA.POLAR>
0

>  <SCORE.INTRA.POLAR.0>
0

>  <SCORE.INTRA.REPUL>
0

>  <SCORE.INTRA.REPUL.0>
0

>  <SCORE.INTRA.SOLV>
0

>  <SCORE.INTRA.SOLV.lig_0>
-48.6608

>  <SCORE.INTRA.VDW>
0

>  <SCORE.INTRA.VDW.0>
0

>  <SCORE.INTRA.norm>
0

>  <SCORE.RESTR>
0

>  <SCORE.RESTR.CAVITY>
0

>  <SCORE.RESTR.norm>
0

>  <SCORE.SYSTEM>
0

>  <SCORE.SYSTEM.CONST>
0

>  <SCORE.SYSTEM.DIHEDRAL>
0

>  <SCORE.SYSTEM.SOLV>
0

>  <SCORE.SYSTEM.norm>
0

>  <SCORE.heavy>
13

>  <SCORE.norm>
-1.11808

>  <RMSD>
34.992

$$$$
ligand
 OpenBabel11021811483D
libRbt.so/2013.1/901 2013/11/27
 13 14  0  0  0  0  0  0  0  0999 V2000
  -22.9514   39.7210   59.1680 N   0  0  0  0  0  0  0  0  0  0  0  0
  -22.5320   40.4513   57.0083 N   0  0  0  0  0  0  0  0  0  0  0  0
  -22.5378   40.6723   58.3358 C   0  0  0  0  0  0  0  0  0  0  0  0
  -22.1241   41.9010   58.8487 N   0  0  0  0  0  0  0  0  0  0  0  0
  -21.6949   42.8844   57.9552 C   0  0  0  0  0  0  0  0  0  0  0  0
  -21.6848   42.6255   56.5885 C   0  0  0  0  0  0  0  0  0  0  0  0
  -21.3311   43.9815   58.3775 O   0  0  0  0  0  0  0  0  0  0  0  0
  -21.2922   43.6319   55.6856 N   0  0  0  0  0  0  0  0  0  0  0  0
  -21.2111   43.3982   54.2158 C   0  0  2  0  0  0  0  0  0  0  0  0
  -22.2236   42.3101   53.8201 C   0  0  0  0  0  0  0  0  0  0  0  0
  -22.1307   41.3922   56.1347 C   0  0  0  0  0  0  0  0  0  0  0  0
  -22.1450   41.1376   54.7581 N   0  0  0  0  0  0  0  0  0  0  0  0
  -19.7670   42.9287   53.8666 C   0  0  0  0  0  0  0  0  0  0  0  0
  1  3  1  0  0  0  0
  2  3  2  0  0  0  0
  2 11  1  0  0  0  0
  3  4  1  0  0  0  0
  4  5  1  0  0  0  0
  5  6  1  0  0  0  0
  5  7  2  0  0  0  0
  6  8  1  0  0  0  0
  6 11  2  0  0  0  0
  8  9  1  0  0  0  0
  9 10  1  0  0  0  0
  9 13  1  1  0  0  0
 10 12  1  0  0  0  0
 11 12  1  0  0  0  0
M  END
>  <CHROM.1>
-21.79451574,42.10720142,56.50512529,2.27762369,1.12624727,1.30837758

>  <Name>
ligand

>  <RI>
0

>  <Rbt.Current_Directory>
/home/itssahil/PROJECTS/Mol_Feturizer/New_Systems/rnas/3SUX

>  <Rbt.Executable>
rbdock ($Id: //depot/dev/client3/rdock/2013.1/src/exe/rbdock.cxx#4 $)

>  <Rbt.Library>
libRbt.so (2013.1, Build901 2013/11/27)

>  <Rbt.Parameter_File>
/export/apps/rDock/src/rDock_2013.1_src/data/scripts/dock_solv.prm

>  <Rbt.Receptor>
prm/blind_docking_80.prm

>  <SCORE>
-14.3804

>  <SCORE.INTER>
-14.3804

>  <SCORE.INTER.CONST>
1

>  <SCORE.INTER.POLAR>
0

>  <SCORE.INTER.ROT>
0

>  <SCORE.INTER.SOLV>
15.4272

>  <SCORE.INTER.VDW>
-18.3293

>  <SCORE.INTER.norm>
-1.10618

>  <SCORE.INTRA>
0

>  <SCORE.INTRA.DIHEDRAL>
0

>  <SCORE.INTRA.DIHEDRAL.0>
0

>  <SCORE.INTRA.POLAR>
0

>  <SCORE.INTRA.POLAR.0>
0

>  <SCORE.INTRA.REPUL>
0

>  <SCORE.INTRA.REPUL.0>
0

>  <SCORE.INTRA.SOLV>
0

>  <SCORE.INTRA.SOLV.lig_0>
-48.6608

>  <SCORE.INTRA.VDW>
0

>  <SCORE.INTRA.VDW.0>
0

>  <SCORE.INTRA.norm>
0

>  <SCORE.RESTR>
0

>  <SCORE.RESTR.CAVITY>
0

>  <SCORE.RESTR.norm>
0

>  <SCORE.SYSTEM>
0

>  <SCORE.SYSTEM.CONST>
0

>  <SCORE.SYSTEM.DIHEDRAL>
0

>  <SCORE.SYSTEM.SOLV>
0

>  <SCORE.SYSTEM.norm>
0

>  <SCORE.heavy>
13

>  <SCORE.norm>
-1.10618

>  <RMSD>
34.993

$$$$
ligand
 OpenBabel11021811483D
libRbt.so/2013.1/901 2013/11/27
 13 14  0  0  0  0  0  0  0  0999 V2000
  -23.0432   39.6309   59.0827 N   0  0  0  0  0  0  0  0  0  0  0  0
  -22.6719   40.4851   56.9599 N   0  0  0  0  0  0  0  0  0  0  0  0
  -22.5845   40.6016   58.2978 C   0  0  0  0  0  0  0  0  0  0  0  0
  -22.0263   41.7429   58.8721 N   0  0  0  0  0  0  0  0  0  0  0  0
  -21.5523   42.7488   58.0275 C   0  0  0  0  0  0  0  0  0  0  0  0
  -21.6412   42.5973   56.6476 C   0  0  0  0  0  0  0  0  0  0  0  0
  -21.0614   43.7711   58.5051 O   0  0  0  0  0  0  0  0  0  0  0  0
  -21.2019   43.6301   55.7977 N   0  0  0  0  0  0  0  0  0  0  0  0
  -21.2232   43.5051   54.3126 C   0  0  2  0  0  0  0  0  0  0  0  0
  -22.3566   42.5498   53.9018 C   0  0  0  0  0  0  0  0  0  0  0  0
  -22.2287   41.4499   56.1339 C   0  0  0  0  0  0  0  0  0  0  0  0
  -22.3419   41.3056   54.7459 N   0  0  0  0  0  0  0  0  0  0  0  0
  -19.8526   42.9322   53.8428 C   0  0  0  0  0  0  0  0  0  0  0  0
  1  3  1  0  0  0  0
  2  3  2  0  0  0  0
  2 11  1  0  0  0  0
  3  4  1  0  0  0  0
  4  5  1  0  0  0  0
  5  6  1  0  0  0  0
  5  7  2  0  0  0  0
  6  8  1  0  0  0  0
  6 11  2  0  0  0  0
  8  9  1  0  0  0  0
  9 10  1  0  0  0  0
  9 13  1  1  0  0  0
 10 12  1  0  0  0  0
 11 12  1  0  0  0  0
M  END
>  <CHROM.1>
-21.80511100,42.09948945,56.53383989,2.12409450,1.04089048,1.51965300

>  <Name>
ligand

>  <RI>
0

>  <Rbt.Current_Directory>
/home/itssahil/PROJECTS/Mol_Feturizer/New_Systems/rnas/3SUX

>  <Rbt.Executable>
rbdock ($Id: //depot/dev/client3/rdock/2013.1/src/exe/rbdock.cxx#4 $)

>  <Rbt.Library>
libRbt.so (2013.1, Build901 2013/11/27)

>  <Rbt.Parameter_File>
/export/apps/rDock/src/rDock_2013.1_src/data/scripts/dock_solv.prm

>  <Rbt.Receptor>
prm/blind_docking_80.prm

>  <SCORE>
-14.5074

>  <SCORE.INTER>
-14.5074

>  <SCORE.INTER.CONST>
1

>  <SCORE.INTER.POLAR>
0

>  <SCORE.INTER.ROT>
0

>  <SCORE.INTER.SOLV>
15.341

>  <SCORE.INTER.VDW>
-18.3853

>  <SCORE.INTER.norm>
-1.11595

>  <SCORE.INTRA>
0

>  <SCORE.INTRA.DIHEDRAL>
0

>  <SCORE.INTRA.DIHEDRAL.0>
0

>  <SCORE.INTRA.POLAR>
0

>  <SCORE.INTRA.POLAR.0>
0

>  <SCORE.INTRA.REPUL>
0

>  <SCORE.INTRA.REPUL.0>
0

>  <SCORE.INTRA.SOLV>
0

>  <SCORE.INTRA.SOLV.lig_0>
-48.6608

>  <SCORE.INTRA.VDW>
0

>  <SCORE.INTRA.VDW.0>
0

>  <SCORE.INTRA.norm>
0

>  <SCORE.RESTR>
0

>  <SCORE.RESTR.CAVITY>
0

>  <SCORE.RESTR.norm>
0

>  <SCORE.SYSTEM>
0

>  <SCORE.SYSTEM.CONST>
0

>  <SCORE.SYSTEM.DIHEDRAL>
0

>  <SCORE.SYSTEM.SOLV>
0

>  <SCORE.SYSTEM.norm>
0

>  <SCORE.heavy>
13

>  <SCORE.norm>
-1.11595

>  <RMSD>
34.993

$$$$
ligand
 OpenBabel11021811483D
libRbt.so/2013.1/901 2013/11/27
 13 14  0  0  0  0  0  0  0  0999 V2000
  -23.0339   39.6343   59.0927 N   0  0  0  0  0  0  0  0  0  0  0  0
  -22.6690   40.4716   56.9621 N   0  0  0  0  0  0  0  0  0  0  0  0
  -22.5761   40.5980   58.2988 C   0  0  0  0  0  0  0  0  0  0  0  0
  -22.0130   41.7423   58.8621 N   0  0  0  0  0  0  0  0  0  0  0  0
  -21.5400   42.7407   58.0082 C   0  0  0  0  0  0  0  0  0  0  0  0
  -21.6348   42.5789   56.6298 C   0  0  0  0  0  0  0  0  0  0  0  0
  -21.0448   43.7654   58.4761 O   0  0  0  0  0  0  0  0  0  0  0  0
  -21.1964   43.6043   55.7704 N   0  0  0  0  0  0  0  0  0  0  0  0
  -21.2240   43.4681   54.2864 C   0  0  2  0  0  0  0  0  0  0  0  0
  -22.3611   42.5124   53.8872 C   0  0  0  0  0  0  0  0  0  0  0  0
  -22.2269   41.4291   56.1270 C   0  0  0  0  0  0  0  0  0  0  0  0
  -22.3459   41.2746   54.7406 N   0  0  0  0  0  0  0  0  0  0  0  0
  -19.8566   42.8884   53.8154 C   0  0  0  0  0  0  0  0  0  0  0  0
  1  3  1  0  0  0  0
  2  3  2  0  0  0  0
  2 11  1  0  0  0  0
  3  4  1  0  0  0  0
  4  5  1  0  0  0  0
  5  6  1  0  0  0  0
  5  7  2  0  0  0  0
  6  8  1  0  0  0  0
  6 11  2  0  0  0  0
  8  9  1  0  0  0  0
  9 10  1  0  0  0  0
  9 13  1  1  0  0  0
 10 12  1  0  0  0  0
 11 12  1  0  0  0  0
M  END
>  <CHROM.1>
-21.80023748,42.08068904,56.52041985,2.11603576,1.03876890,1.51904699

>  <Name>
ligand

>  <RI>
0

>  <Rbt.Current_Directory>
/home/itssahil/PROJECTS/Mol_Feturizer/New_Systems/rnas/3SUX

>  <Rbt.Executable>
rbdock ($Id: //depot/dev/client3/rdock/2013.1/src/exe/rbdock.cxx#4 $)

>  <Rbt.Library>
libRbt.so (2013.1, Build901 2013/11/27)

>  <Rbt.Parameter_File>
/export/apps/rDock/src/rDock_2013.1_src/data/scripts/dock_solv.prm

>  <Rbt.Receptor>
prm/blind_docking_80.prm

>  <SCORE>
-14.5238

>  <SCORE.INTER>
-14.5238

>  <SCORE.INTER.CONST>
1

>  <SCORE.INTER.POLAR>
0

>  <SCORE.INTER.ROT>
0

>  <SCORE.INTER.SOLV>
15.2204

>  <SCORE.INTER.VDW>
-18.356

>  <SCORE.INTER.norm>
-1.11721

>  <SCORE.INTRA>
0

>  <SCORE.INTRA.DIHEDRAL>
0

>  <SCORE.INTRA.DIHEDRAL.0>
0

>  <SCORE.INTRA.POLAR>
0

>  <SCORE.INTRA.POLAR.0>
0

>  <SCORE.INTRA.REPUL>
0

>  <SCORE.INTRA.REPUL.0>
0

>  <SCORE.INTRA.SOLV>
0

>  <SCORE.INTRA.SOLV.lig_0>
-48.6608

>  <SCORE.INTRA.VDW>
0

>  <SCORE.INTRA.VDW.0>
0

>  <SCORE.INTRA.norm>
0

>  <SCORE.RESTR>
0

>  <SCORE.RESTR.CAVITY>
0

>  <SCORE.RESTR.norm>
0

>  <SCORE.SYSTEM>
0

>  <SCORE.SYSTEM.CONST>
0

>  <SCORE.SYSTEM.DIHEDRAL>
0

>  <SCORE.SYSTEM.SOLV>
0

>  <SCORE.SYSTEM.norm>
0

>  <SCORE.heavy>
13

>  <SCORE.norm>
-1.11721

>  <RMSD>
34.994

$$$$
ligand
 OpenBabel11021811483D
libRbt.so/2013.1/901 2013/11/27
 13 14  0  0  0  0  0  0  0  0999 V2000
  -23.0531   39.6277   59.0721 N   0  0  0  0  0  0  0  0  0  0  0  0
  -22.6787   40.4877   56.9522 N   0  0  0  0  0  0  0  0  0  0  0  0
  -22.5913   40.5996   58.2906 C   0  0  0  0  0  0  0  0  0  0  0  0
  -22.0298   41.7373   58.8687 N   0  0  0  0  0  0  0  0  0  0  0  0
  -21.5525   42.7445   58.0276 C   0  0  0  0  0  0  0  0  0  0  0  0
  -21.6416   42.5978   56.6471 C   0  0  0  0  0  0  0  0  0  0  0  0
  -21.0586   43.7637   58.5086 O   0  0  0  0  0  0  0  0  0  0  0  0
  -21.1989   43.6321   55.8007 N   0  0  0  0  0  0  0  0  0  0  0  0
  -21.2203   43.5120   54.3153 C   0  0  2  0  0  0  0  0  0  0  0  0
  -22.3564   42.5616   53.9010 C   0  0  0  0  0  0  0  0  0  0  0  0
  -22.2324   41.4539   56.1295 C   0  0  0  0  0  0  0  0  0  0  0  0
  -22.3457   41.3145   54.7410 N   0  0  0  0  0  0  0  0  0  0  0  0
  -19.8513   42.9365   53.8438 C   0  0  0  0  0  0  0  0  0  0  0  0
  1  3  1  0  0  0  0
  2  3  2  0  0  0  0
  2 11  1  0  0  0  0
  3  4  1  0  0  0  0
  4  5  1  0  0  0  0
  5  6  1  0  0  0  0
  5  7  2  0  0  0  0
  6  8  1  0  0  0  0
  6 11  2  0  0  0  0
  8  9  1  0  0  0  0
  9 10  1  0  0  0  0
  9 13  1  1  0  0  0
 10 12  1  0  0  0  0
 11 12  1  0  0  0  0
M  END
>  <CHROM.1>
-21.80691639,42.10089641,56.53168585,2.12424995,1.03783892,1.52281383

>  <Name>
ligand

>  <RI>
0

>  <Rbt.Current_Directory>
/home/itssahil/PROJECTS/Mol_Feturizer/New_Systems/rnas/3SUX

>  <Rbt.Executable>
rbdock ($Id: //depot/dev/client3/rdock/2013.1/src/exe/rbdock.cxx#4 $)

>  <Rbt.Library>
libRbt.so (2013.1, Build901 2013/11/27)

>  <Rbt.Parameter_File>
/export/apps/rDock/src/rDock_2013.1_src/data/scripts/dock_solv.prm

>  <Rbt.Receptor>
prm/blind_docking_100.prm

>  <SCORE>
-14.5061

>  <SCORE.INTER>
-14.5061

>  <SCORE.INTER.CONST>
1

>  <SCORE.INTER.POLAR>
0

>  <SCORE.INTER.ROT>
0

>  <SCORE.INTER.SOLV>
15.3448

>  <SCORE.INTER.VDW>
-18.3857

>  <SCORE.INTER.norm>
-1.11586

>  <SCORE.INTRA>
0

>  <SCORE.INTRA.DIHEDRAL>
0

>  <SCORE.INTRA.DIHEDRAL.0>
0

>  <SCORE.INTRA.POLAR>
0

>  <SCORE.INTRA.POLAR.0>
0

>  <SCORE.INTRA.REPUL>
0

>  <SCORE.INTRA.REPUL.0>
0

>  <SCORE.INTRA.SOLV>
0

>  <SCORE.INTRA.SOLV.lig_0>
-48.6608

>  <SCORE.INTRA.VDW>
0

>  <SCORE.INTRA.VDW.0>
0

>  <SCORE.INTRA.norm>
0

>  <SCORE.RESTR>
0

>  <SCORE.RESTR.CAVITY>
0

>  <SCORE.RESTR.norm>
0

>  <SCORE.SYSTEM>
0

>  <SCORE.SYSTEM.CONST>
0

>  <SCORE.SYSTEM.DIHEDRAL>
0

>  <SCORE.SYSTEM.SOLV>
0

>  <SCORE.SYSTEM.norm>
0

>  <SCORE.heavy>
13

>  <SCORE.norm>
-1.11586

>  <RMSD>
34.996

$$$$
ligand
 OpenBabel11021811483D
libRbt.so/2013.1/901 2013/11/27
 13 14  0  0  0  0  0  0  0  0999 V2000
  -23.0431   39.6306   59.0841 N   0  0  0  0  0  0  0  0  0  0  0  0
  -22.6779   40.4826   56.9593 N   0  0  0  0  0  0  0  0  0  0  0  0
  -22.5842   40.5992   58.2968 C   0  0  0  0  0  0  0  0  0  0  0  0
  -22.0190   41.7386   58.8681 N   0  0  0  0  0  0  0  0  0  0  0  0
  -21.5449   42.7424   58.0211 C   0  0  0  0  0  0  0  0  0  0  0  0
  -21.6406   42.5907   56.6417 C   0  0  0  0  0  0  0  0  0  0  0  0
  -21.0479   43.7629   58.4961 O   0  0  0  0  0  0  0  0  0  0  0  0
  -21.2011   43.6215   55.7894 N   0  0  0  0  0  0  0  0  0  0  0  0
  -21.2295   43.4960   54.3045 C   0  0  2  0  0  0  0  0  0  0  0  0
  -22.3684   42.5450   53.8991 C   0  0  0  0  0  0  0  0  0  0  0  0
  -22.2347   41.4453   56.1309 C   0  0  0  0  0  0  0  0  0  0  0  0
  -22.3547   41.3010   54.7435 N   0  0  0  0  0  0  0  0  0  0  0  0
  -19.8632   42.9176   53.8287 C   0  0  0  0  0  0  0  0  0  0  0  0
  1  3  1  0  0  0  0
  2  3  2  0  0  0  0
  2 11  1  0  0  0  0
  3  4  1  0  0  0  0
  4  5  1  0  0  0  0
  5  6  1  0  0  0  0
  5  7  2  0  0  0  0
  6  8  1  0  0  0  0
  6 11  2  0  0  0  0
  8  9  1  0  0  0  0
  9 10  1  0  0  0  0
  9 13  1  1  0  0  0
 10 12  1  0  0  0  0
 11 12  1  0  0  0  0
M  END
>  <CHROM.1>
-21.80688281,42.09346257,56.52879157,2.11494684,1.03724245,1.52717570

>  <Name>
ligand

>  <RI>
0

>  <Rbt.Current_Directory>
/home/itssahil/PROJECTS/Mol_Feturizer/New_Systems/rnas/3SUX

>  <Rbt.Executable>
rbdock ($Id: //depot/dev/client3/rdock/2013.1/src/exe/rbdock.cxx#4 $)

>  <Rbt.Library>
libRbt.so (2013.1, Build901 2013/11/27)

>  <Rbt.Parameter_File>
/export/apps/rDock/src/rDock_2013.1_src/data/scripts/dock_solv.prm

>  <Rbt.Receptor>
prm/blind_docking_100.prm

>  <SCORE>
-14.4889

>  <SCORE.INTER>
-14.4889

>  <SCORE.INTER.CONST>
1

>  <SCORE.INTER.POLAR>
0

>  <SCORE.INTER.ROT>
0

>  <SCORE.INTER.SOLV>
15.3017

>  <SCORE.INTER.VDW>
-18.3598

>  <SCORE.INTER.norm>
-1.11453

>  <SCORE.INTRA>
0

>  <SCORE.INTRA.DIHEDRAL>
0

>  <SCORE.INTRA.DIHEDRAL.0>
0

>  <SCORE.INTRA.POLAR>
0

>  <SCORE.INTRA.POLAR.0>
0

>  <SCORE.INTRA.REPUL>
0

>  <SCORE.INTRA.REPUL.0>
0

>  <SCORE.INTRA.SOLV>
0

>  <SCORE.INTRA.SOLV.lig_0>
-48.6608

>  <SCORE.INTRA.VDW>
0

>  <SCORE.INTRA.VDW.0>
0

>  <SCORE.INTRA.norm>
0

>  <SCORE.RESTR>
0

>  <SCORE.RESTR.CAVITY>
0

>  <SCORE.RESTR.norm>
0

>  <SCORE.SYSTEM>
0

>  <SCORE.SYSTEM.CONST>
0

>  <SCORE.SYSTEM.DIHEDRAL>
0

>  <SCORE.SYSTEM.SOLV>
0

>  <SCORE.SYSTEM.norm>
0

>  <SCORE.heavy>
13

>  <SCORE.norm>
-1.11453

>  <RMSD>
34.997

$$$$
ligand
 OpenBabel11021811483D
libRbt.so/2013.1/901 2013/11/27
 13 14  0  0  0  0  0  0  0  0999 V2000
  -22.9880   39.4566   58.9720 N   0  0  0  0  0  0  0  0  0  0  0  0
  -22.6013   40.3742   56.8786 N   0  0  0  0  0  0  0  0  0  0  0  0
  -22.5573   40.4658   58.2206 C   0  0  0  0  0  0  0  0  0  0  0  0
  -22.0738   41.6209   58.8338 N   0  0  0  0  0  0  0  0  0  0  0  0
  -21.6279   42.6673   58.0239 C   0  0  0  0  0  0  0  0  0  0  0  0
  -21.6705   42.5416   56.6392 C   0  0  0  0  0  0  0  0  0  0  0  0
  -21.2028   43.7022   58.5362 O   0  0  0  0  0  0  0  0  0  0  0  0
  -21.2605   43.6133   55.8236 N   0  0  0  0  0  0  0  0  0  0  0  0
  -21.2341   43.5196   54.3362 C   0  0  2  0  0  0  0  0  0  0  0  0
  -22.3057   42.5181   53.8735 C   0  0  0  0  0  0  0  0  0  0  0  0
  -22.1846   41.3777   56.0855 C   0  0  0  0  0  0  0  0  0  0  0  0
  -22.2516   41.2581   54.6922 N   0  0  0  0  0  0  0  0  0  0  0  0
  -19.8237   43.0263   53.8947 C   0  0  0  0  0  0  0  0  0  0  0  0
  1  3  1  0  0  0  0
  2  3  2  0  0  0  0
  2 11  1  0  0  0  0
  3  4  1  0  0  0  0
  4  5  1  0  0  0  0
  5  6  1  0  0  0  0
  5  7  2  0  0  0  0
  6  8  1  0  0  0  0
  6 11  2  0  0  0  0
  8  9  1  0  0  0  0
  9 10  1  0  0  0  0
  9 13  1  1  0  0  0
 10 12  1  0  0  0  0
 11 12  1  0  0  0  0
M  END
>  <CHROM.1>
-21.80577528,42.03879498,56.51067389,2.18982718,1.08913691,1.48317462

>  <Name>
ligand

>  <RI>
0

>  <Rbt.Current_Directory>
/home/itssahil/PROJECTS/Mol_Feturizer/New_Systems/rnas/3SUX

>  <Rbt.Executable>
rbdock ($Id: //depot/dev/client3/rdock/2013.1/src/exe/rbdock.cxx#4 $)

>  <Rbt.Library>
libRbt.so (2013.1, Build901 2013/11/27)

>  <Rbt.Parameter_File>
/export/apps/rDock/src/rDock_2013.1_src/data/scripts/dock_solv.prm

>  <Rbt.Receptor>
prm/blind_docking_80.prm

>  <SCORE>
-14.3969

>  <SCORE.INTER>
-14.3969

>  <SCORE.INTER.CONST>
1

>  <SCORE.INTER.POLAR>
0

>  <SCORE.INTER.ROT>
0

>  <SCORE.INTER.SOLV>
14.5471

>  <SCORE.INTER.VDW>
-18.047

>  <SCORE.INTER.norm>
-1.10746

>  <SCORE.INTRA>
0

>  <SCORE.INTRA.DIHEDRAL>
0

>  <SCORE.INTRA.DIHEDRAL.0>
0

>  <SCORE.INTRA.POLAR>
0

>  <SCORE.INTRA.POLAR.0>
0

>  <SCORE.INTRA.REPUL>
0

>  <SCORE.INTRA.REPUL.0>
0

>  <SCORE.INTRA.SOLV>
0

>  <SCORE.INTRA.SOLV.lig_0>
-48.6608

>  <SCORE.INTRA.VDW>
0

>  <SCORE.INTRA.VDW.0>
0

>  <SCORE.INTRA.norm>
0

>  <SCORE.RESTR>
0

>  <SCORE.RESTR.CAVITY>
0

>  <SCORE.RESTR.norm>
0

>  <SCORE.SYSTEM>
0

>  <SCORE.SYSTEM.CONST>
0

>  <SCORE.SYSTEM.DIHEDRAL>
0

>  <SCORE.SYSTEM.SOLV>
0

>  <SCORE.SYSTEM.norm>
0

>  <SCORE.heavy>
13

>  <SCORE.norm>
-1.10746

>  <RMSD>
35.003

$$$$
ligand
 OpenBabel11021811483D
libRbt.so/2013.1/901 2013/11/27
 13 14  0  0  0  0  0  0  0  0999 V2000
  -23.0090   39.5807   59.0893 N   0  0  0  0  0  0  0  0  0  0  0  0
  -22.6629   40.4391   56.9639 N   0  0  0  0  0  0  0  0  0  0  0  0
  -22.5664   40.5563   58.3011 C   0  0  0  0  0  0  0  0  0  0  0  0
  -22.0156   41.7032   58.8714 N   0  0  0  0  0  0  0  0  0  0  0  0
  -21.5585   42.7140   58.0235 C   0  0  0  0  0  0  0  0  0  0  0  0
  -21.6565   42.5618   56.6442 C   0  0  0  0  0  0  0  0  0  0  0  0
  -21.0745   43.7412   58.4975 O   0  0  0  0  0  0  0  0  0  0  0  0
  -21.2344   43.5993   55.7912 N   0  0  0  0  0  0  0  0  0  0  0  0
  -21.2659   43.4743   54.3063 C   0  0  2  0  0  0  0  0  0  0  0  0
  -22.3925   42.5075   53.9040 C   0  0  0  0  0  0  0  0  0  0  0  0
  -22.2360   41.4085   56.1347 C   0  0  0  0  0  0  0  0  0  0  0  0
  -22.3584   41.2634   54.7476 N   0  0  0  0  0  0  0  0  0  0  0  0
  -19.8931   42.9157   53.8258 C   0  0  0  0  0  0  0  0  0  0  0  0
  1  3  1  0  0  0  0
  2  3  2  0  0  0  0
  2 11  1  0  0  0  0
  3  4  1  0  0  0  0
  4  5  1  0  0  0  0
  5  6  1  0  0  0  0
  5  7  2  0  0  0  0
  6  8  1  0  0  0  0
  6 11  2  0  0  0  0
  8  9  1  0  0  0  0
  9 10  1  0  0  0  0
  9 13  1  1  0  0  0
 10 12  1  0  0  0  0
 11 12  1  0  0  0  0
M  END
>  <CHROM.1>
-21.81610641,42.06240812,56.53158615,2.10965492,1.05153467,1.53237632

>  <Name>
ligand

>  <RI>
0

>  <Rbt.Current_Directory>
/home/itssahil/PROJECTS/Mol_Feturizer/New_Systems/rnas/3SUX

>  <Rbt.Executable>
rbdock ($Id: //depot/dev/client3/rdock/2013.1/src/exe/rbdock.cxx#4 $)

>  <Rbt.Library>
libRbt.so (2013.1, Build901 2013/11/27)

>  <Rbt.Parameter_File>
/export/apps/rDock/src/rDock_2013.1_src/data/scripts/dock_solv.prm

>  <Rbt.Receptor>
prm/blind_docking_80.prm

>  <SCORE>
-14.4606

>  <SCORE.INTER>
-14.4606

>  <SCORE.INTER.CONST>
1

>  <SCORE.INTER.POLAR>
0

>  <SCORE.INTER.ROT>
0

>  <SCORE.INTER.SOLV>
15.0331

>  <SCORE.INTER.VDW>
-18.2515

>  <SCORE.INTER.norm>
-1.11236

>  <SCORE.INTRA>
0

>  <SCORE.INTRA.DIHEDRAL>
0

>  <SCORE.INTRA.DIHEDRAL.0>
0

>  <SCORE.INTRA.POLAR>
0

>  <SCORE.INTRA.POLAR.0>
0

>  <SCORE.INTRA.REPUL>
0

>  <SCORE.INTRA.REPUL.0>
0

>  <SCORE.INTRA.SOLV>
0

>  <SCORE.INTRA.SOLV.lig_0>
-48.6608

>  <SCORE.INTRA.VDW>
0

>  <SCORE.INTRA.VDW.0>
0

>  <SCORE.INTRA.norm>
0

>  <SCORE.RESTR>
0

>  <SCORE.RESTR.CAVITY>
0

>  <SCORE.RESTR.norm>
0

>  <SCORE.SYSTEM>
0

>  <SCORE.SYSTEM.CONST>
0

>  <SCORE.SYSTEM.DIHEDRAL>
0

>  <SCORE.SYSTEM.SOLV>
0

>  <SCORE.SYSTEM.norm>
0

>  <SCORE.heavy>
13

>  <SCORE.norm>
-1.11236

>  <RMSD>
35.004

$$$$
ligand
 OpenBabel11021811483D
libRbt.so/2013.1/901 2013/11/27
 13 14  0  0  0  0  0  0  0  0999 V2000
  -23.0905   39.2627   58.7785 N   0  0  0  0  0  0  0  0  0  0  0  0
  -22.6857   40.3207   56.7560 N   0  0  0  0  0  0  0  0  0  0  0  0
  -22.6259   40.3082   58.1005 C   0  0  0  0  0  0  0  0  0  0  0  0
  -22.0902   41.3930   58.7934 N   0  0  0  0  0  0  0  0  0  0  0  0
  -21.6094   42.4794   58.0597 C   0  0  0  0  0  0  0  0  0  0  0  0
  -21.6697   42.4611   56.6700 C   0  0  0  0  0  0  0  0  0  0  0  0
  -21.1379   43.4545   58.6436 O   0  0  0  0  0  0  0  0  0  0  0  0
  -21.2237   43.5746   55.9328 N   0  0  0  0  0  0  0  0  0  0  0  0
  -21.2146   43.5934   54.4425 C   0  0  2  0  0  0  0  0  0  0  0  0
  -22.3303   42.6735   53.9183 C   0  0  0  0  0  0  0  0  0  0  0  0
  -22.2357   41.3642   56.0361 C   0  0  0  0  0  0  0  0  0  0  0  0
  -22.3201   41.3538   54.6386 N   0  0  0  0  0  0  0  0  0  0  0  0
  -19.8295   43.0791   53.9479 C   0  0  0  0  0  0  0  0  0  0  0  0
  1  3  1  0  0  0  0
  2  3  2  0  0  0  0
  2 11  1  0  0  0  0
  3  4  1  0  0  0  0
  4  5  1  0  0  0  0
  5  6  1  0  0  0  0
  5  7  2  0  0  0  0
  6  8  1  0  0  0  0
  6 11  2  0  0  0  0
  8  9  1  0  0  0  0
  9 10  1  0  0  0  0
  9 13  1  6  0  0  0
 10 12  1  0  0  0  0
 11 12  1  0  0  0  0
M  END
>  <CHROM.1>
-21.82644033,41.97540313,56.50545145,2.16458720,1.04920971,1.58126770

>  <Name>
ligand

>  <RI>
0

>  <Rbt.Current_Directory>
/home/itssahil/PROJECTS/Mol_Feturizer/New_Systems/rnas/3SUX

>  <Rbt.Executable>
rbdock ($Id: //depot/dev/client3/rdock/2013.1/src/exe/rbdock.cxx#4 $)

>  <Rbt.Library>
libRbt.so (2013.1, Build901 2013/11/27)

>  <Rbt.Parameter_File>
/export/apps/rDock/src/rDock_2013.1_src/data/scripts/dock_solv.prm

>  <Rbt.Receptor>
prm/blind_docking_80.prm

>  <SCORE>
-14.404

>  <SCORE.INTER>
-14.404

>  <SCORE.INTER.CONST>
1

>  <SCORE.INTER.POLAR>
0

>  <SCORE.INTER.ROT>
0

>  <SCORE.INTER.SOLV>
14.0303

>  <SCORE.INTER.VDW>
-17.8794

>  <SCORE.INTER.norm>
-1.108

>  <SCORE.INTRA>
0

>  <SCORE.INTRA.DIHEDRAL>
0

>  <SCORE.INTRA.DIHEDRAL.0>
0

>  <SCORE.INTRA.POLAR>
0

>  <SCORE.INTRA.POLAR.0>
0

>  <SCORE.INTRA.REPUL>
0

>  <SCORE.INTRA.REPUL.0>
0

>  <SCORE.INTRA.SOLV>
0

>  <SCORE.INTRA.SOLV.lig_0>
-48.6608

>  <SCORE.INTRA.VDW>
0

>  <SCORE.INTRA.VDW.0>
0

>  <SCORE.INTRA.norm>
0

>  <SCORE.RESTR>
0

>  <SCORE.RESTR.CAVITY>
0

>  <SCORE.RESTR.norm>
0

>  <SCORE.SYSTEM>
0

>  <SCORE.SYSTEM.CONST>
0

>  <SCORE.SYSTEM.DIHEDRAL>
0

>  <SCORE.SYSTEM.SOLV>
0

>  <SCORE.SYSTEM.norm>
0

>  <SCORE.heavy>
13

>  <SCORE.norm>
-1.108

>  <RMSD>
35.027

$$$$
ligand
 OpenBabel11021811483D
libRbt.so/2013.1/901 2013/11/27
 13 14  0  0  0  0  0  0  0  0999 V2000
  -23.1138   39.2967   58.7971 N   0  0  0  0  0  0  0  0  0  0  0  0
  -22.6972   40.3305   56.7645 N   0  0  0  0  0  0  0  0  0  0  0  0
  -22.6438   40.3333   58.1093 C   0  0  0  0  0  0  0  0  0  0  0  0
  -22.1091   41.4250   58.7922 N   0  0  0  0  0  0  0  0  0  0  0  0
  -21.6227   42.5019   58.0483 C   0  0  0  0  0  0  0  0  0  0  0  0
  -21.6764   42.4677   56.6587 C   0  0  0  0  0  0  0  0  0  0  0  0
  -21.1519   43.4827   58.6232 O   0  0  0  0  0  0  0  0  0  0  0  0
  -21.2246   43.5717   55.9109 N   0  0  0  0  0  0  0  0  0  0  0  0
  -21.2084   43.5733   54.4205 C   0  0  2  0  0  0  0  0  0  0  0  0
  -22.3235   42.6497   53.9016 C   0  0  0  0  0  0  0  0  0  0  0  0
  -22.2417   41.3647   56.0348 C   0  0  0  0  0  0  0  0  0  0  0  0
  -22.3195   41.3383   54.6371 N   0  0  0  0  0  0  0  0  0  0  0  0
  -19.8220   43.0506   53.9384 C   0  0  0  0  0  0  0  0  0  0  0  0
  1  3  1  0  0  0  0
  2  3  2  0  0  0  0
  2 11  1  0  0  0  0
  3  4  1  0  0  0  0
  4  5  1  0  0  0  0
  5  6  1  0  0  0  0
  5  7  2  0  0  0  0
  6  8  1  0  0  0  0
  6 11  2  0  0  0  0
  8  9  1  0  0  0  0
  9 10  1  0  0  0  0
  9 13  1  1  0  0  0
 10 12  1  0  0  0  0
 11 12  1  0  0  0  0
M  END
>  <CHROM.1>
-21.83334351,41.98043438,56.49900950,2.17409699,1.04717502,1.56151779

>  <Name>
ligand

>  <RI>
0

>  <Rbt.Current_Directory>
/home/itssahil/PROJECTS/Mol_Feturizer/New_Systems/rnas/3SUX

>  <Rbt.Executable>
rbdock ($Id: //depot/dev/client3/rdock/2013.1/src/exe/rbdock.cxx#4 $)

>  <Rbt.Library>
libRbt.so (2013.1, Build901 2013/11/27)

>  <Rbt.Parameter_File>
/export/apps/rDock/src/rDock_2013.1_src/data/scripts/dock_solv.prm

>  <Rbt.Receptor>
prm/blind_docking_80.prm

>  <SCORE>
-14.4278

>  <SCORE.INTER>
-14.4278

>  <SCORE.INTER.CONST>
1

>  <SCORE.INTER.POLAR>
0

>  <SCORE.INTER.ROT>
0

>  <SCORE.INTER.SOLV>
14.0704

>  <SCORE.INTER.VDW>
-17.9087

>  <SCORE.INTER.norm>
-1.10983

>  <SCORE.INTRA>
0

>  <SCORE.INTRA.DIHEDRAL>
0

>  <SCORE.INTRA.DIHEDRAL.0>
0

>  <SCORE.INTRA.POLAR>
0

>  <SCORE.INTRA.POLAR.0>
0

>  <SCORE.INTRA.REPUL>
0

>  <SCORE.INTRA.REPUL.0>
0

>  <SCORE.INTRA.SOLV>
0

>  <SCORE.INTRA.SOLV.lig_0>
-48.6608

>  <SCORE.INTRA.VDW>
0

>  <SCORE.INTRA.VDW.0>
0

>  <SCORE.INTRA.norm>
0

>  <SCORE.RESTR>
0

>  <SCORE.RESTR.CAVITY>
0

>  <SCORE.RESTR.norm>
0

>  <SCORE.SYSTEM>
0

>  <SCORE.SYSTEM.CONST>
0

>  <SCORE.SYSTEM.DIHEDRAL>
0

>  <SCORE.SYSTEM.SOLV>
0

>  <SCORE.SYSTEM.norm>
0

>  <SCORE.heavy>
13

>  <SCORE.norm>
-1.10983

>  <RMSD>
35.036

$$$$
ligand
 OpenBabel11021811483D
libRbt.so/2013.1/901 2013/11/27
 13 14  0  0  0  0  0  0  0  0999 V2000
  -23.1249   39.2348   58.6819 N   0  0  0  0  0  0  0  0  0  0  0  0
  -22.6799   40.3088   56.6764 N   0  0  0  0  0  0  0  0  0  0  0  0
  -22.6521   40.2881   58.0217 C   0  0  0  0  0  0  0  0  0  0  0  0
  -22.1412   41.3723   58.7341 N   0  0  0  0  0  0  0  0  0  0  0  0
  -21.6513   42.4669   58.0189 C   0  0  0  0  0  0  0  0  0  0  0  0
  -21.6782   42.4571   56.6281 C   0  0  0  0  0  0  0  0  0  0  0  0
  -21.2011   43.4417   58.6200 O   0  0  0  0  0  0  0  0  0  0  0  0
  -21.2231   43.5786   55.9088 N   0  0  0  0  0  0  0  0  0  0  0  0
  -21.1785   43.6070   54.4193 C   0  0  2  0  0  0  0  0  0  0  0  0
  -22.2744   42.6823   53.8627 C   0  0  0  0  0  0  0  0  0  0  0  0
  -22.2206   41.3602   55.9740 C   0  0  0  0  0  0  0  0  0  0  0  0
  -22.2716   41.3581   54.5748 N   0  0  0  0  0  0  0  0  0  0  0  0
  -19.7782   43.1062   53.9547 C   0  0  0  0  0  0  0  0  0  0  0  0
  1  3  1  0  0  0  0
  2  3  2  0  0  0  0
  2 11  1  0  0  0  0
  3  4  1  0  0  0  0
  4  5  1  0  0  0  0
  5  6  1  0  0  0  0
  5  7  2  0  0  0  0
  6  8  1  0  0  0  0
  6 11  2  0  0  0  0
  8  9  1  0  0  0  0
  9 10  1  0  0  0  0
  9 13  1  1  0  0  0
 10 12  1  0  0  0  0
 11 12  1  0  0  0  0
M  END
>  <CHROM.1>
-21.82728890,41.97133406,56.45680062,2.21299655,1.05646400,1.54555911

>  <Name>
ligand

>  <RI>
0

>  <Rbt.Current_Directory>
/home/itssahil/PROJECTS/Mol_Feturizer/New_Systems/rnas/3SUX

>  <Rbt.Executable>
rbdock ($Id: //depot/dev/client3/rdock/2013.1/src/exe/rbdock.cxx#4 $)

>  <Rbt.Library>
libRbt.so (2013.1, Build901 2013/11/27)

>  <Rbt.Parameter_File>
/export/apps/rDock/src/rDock_2013.1_src/data/scripts/dock_solv.prm

>  <Rbt.Receptor>
prm/blind_docking_80.prm

>  <SCORE>
-14.4468

>  <SCORE.INTER>
-14.4468

>  <SCORE.INTER.CONST>
1

>  <SCORE.INTER.POLAR>
0

>  <SCORE.INTER.ROT>
0

>  <SCORE.INTER.SOLV>
13.7028

>  <SCORE.INTER.VDW>
-17.7988

>  <SCORE.INTER.norm>
-1.11129

>  <SCORE.INTRA>
0

>  <SCORE.INTRA.DIHEDRAL>
0

>  <SCORE.INTRA.DIHEDRAL.0>
0

>  <SCORE.INTRA.POLAR>
0

>  <SCORE.INTRA.POLAR.0>
0

>  <SCORE.INTRA.REPUL>
0

>  <SCORE.INTRA.REPUL.0>
0

>  <SCORE.INTRA.SOLV>
0

>  <SCORE.INTRA.SOLV.lig_0>
-48.6608

>  <SCORE.INTRA.VDW>
0

>  <SCORE.INTRA.VDW.0>
0

>  <SCORE.INTRA.norm>
0

>  <SCORE.RESTR>
0

>  <SCORE.RESTR.CAVITY>
0

>  <SCORE.RESTR.norm>
0

>  <SCORE.SYSTEM>
0

>  <SCORE.SYSTEM.CONST>
0

>  <SCORE.SYSTEM.DIHEDRAL>
0

>  <SCORE.SYSTEM.SOLV>
0

>  <SCORE.SYSTEM.norm>
0

>  <SCORE.heavy>
13

>  <SCORE.norm>
-1.11129

>  <RMSD>
35.045

$$$$
ligand
 OpenBabel11021811483D
libRbt.so/2013.1/901 2013/11/27
 13 14  0  0  0  0  0  0  0  0999 V2000
  -22.9231   39.7010   59.1264 N   0  0  0  0  0  0  0  0  0  0  0  0
  -22.5475   40.4224   56.9556 N   0  0  0  0  0  0  0  0  0  0  0  0
  -22.5281   40.6495   58.2820 C   0  0  0  0  0  0  0  0  0  0  0  0
  -22.1078   41.8816   58.7812 N   0  0  0  0  0  0  0  0  0  0  0  0
  -21.6985   42.8620   57.8750 C   0  0  0  0  0  0  0  0  0  0  0  0
  -21.7143   42.5968   56.5096 C   0  0  0  0  0  0  0  0  0  0  0  0
  -21.3294   43.9619   58.2852 O   0  0  0  0  0  0  0  0  0  0  0  0
  -21.3418   43.6000   55.5947 N   0  0  0  0  0  0  0  0  0  0  0  0
  -21.2885   43.3597   54.1247 C   0  0  2  0  0  0  0  0  0  0  0  0
  -22.3057   42.2672   53.7536 C   0  0  0  0  0  0  0  0  0  0  0  0
  -22.1656   41.3603   56.0702 C   0  0  0  0  0  0  0  0  0  0  0  0
  -22.2059   41.0993   54.6953 N   0  0  0  0  0  0  0  0  0  0  0  0
  -19.8503   42.8923   53.7497 C   0  0  0  0  0  0  0  0  0  0  0  0
  1  3  1  0  0  0  0
  2  3  2  0  0  0  0
  2 11  1  0  0  0  0
  3  4  1  0  0  0  0
  4  5  1  0  0  0  0
  5  6  1  0  0  0  0
  5  7  2  0  0  0  0
  6  8  1  0  0  0  0
  6 11  2  0  0  0  0
  8  9  1  0  0  0  0
  9 10  1  0  0  0  0
  9 13  1  1  0  0  0
 10 12  1  0  0  0  0
 11 12  1  0  0  0  0
M  END
>  <CHROM.1>
-21.82417601,42.07783908,56.43075868,2.23505993,1.13343178,1.34227843

>  <Name>
ligand

>  <RI>
0

>  <Rbt.Current_Directory>
/home/itssahil/PROJECTS/Mol_Feturizer/New_Systems/rnas/3SUX

>  <Rbt.Executable>
rbdock ($Id: //depot/dev/client3/rdock/2013.1/src/exe/rbdock.cxx#4 $)

>  <Rbt.Library>
libRbt.so (2013.1, Build901 2013/11/27)

>  <Rbt.Parameter_File>
/export/apps/rDock/src/rDock_2013.1_src/data/scripts/dock_solv.prm

>  <Rbt.Receptor>
prm/blind_docking_80.prm

>  <SCORE>
-14.4501

>  <SCORE.INTER>
-14.4501

>  <SCORE.INTER.CONST>
1

>  <SCORE.INTER.POLAR>
0

>  <SCORE.INTER.ROT>
0

>  <SCORE.INTER.SOLV>
14.9113

>  <SCORE.INTER.VDW>
-18.2038

>  <SCORE.INTER.norm>
-1.11154

>  <SCORE.INTRA>
0

>  <SCORE.INTRA.DIHEDRAL>
0

>  <SCORE.INTRA.DIHEDRAL.0>
0

>  <SCORE.INTRA.POLAR>
0

>  <SCORE.INTRA.POLAR.0>
0

>  <SCORE.INTRA.REPUL>
0

>  <SCORE.INTRA.REPUL.0>
0

>  <SCORE.INTRA.SOLV>
0

>  <SCORE.INTRA.SOLV.lig_0>
-48.6608

>  <SCORE.INTRA.VDW>
0

>  <SCORE.INTRA.VDW.0>
0

>  <SCORE.INTRA.norm>
0

>  <SCORE.RESTR>
0

>  <SCORE.RESTR.CAVITY>
0

>  <SCORE.RESTR.norm>
0

>  <SCORE.SYSTEM>
0

>  <SCORE.SYSTEM.CONST>
0

>  <SCORE.SYSTEM.DIHEDRAL>
0

>  <SCORE.SYSTEM.SOLV>
0

>  <SCORE.SYSTEM.norm>
0

>  <SCORE.heavy>
13

>  <SCORE.norm>
-1.11154

>  <RMSD>
35.045

$$$$
ligand
 OpenBabel11021811483D
libRbt.so/2013.1/901 2013/11/27
 13 14  0  0  0  0  0  0  0  0999 V2000
  -23.1305   39.2651   58.6910 N   0  0  0  0  0  0  0  0  0  0  0  0
  -22.6865   40.3249   56.6777 N   0  0  0  0  0  0  0  0  0  0  0  0
  -22.6541   40.3118   58.0230 C   0  0  0  0  0  0  0  0  0  0  0  0
  -22.1345   41.3972   58.7273 N   0  0  0  0  0  0  0  0  0  0  0  0
  -21.6409   42.4848   58.0040 C   0  0  0  0  0  0  0  0  0  0  0  0
  -21.6728   42.4672   56.6134 C   0  0  0  0  0  0  0  0  0  0  0  0
  -21.1831   43.4605   58.5979 O   0  0  0  0  0  0  0  0  0  0  0  0
  -21.2140   43.5818   55.8860 N   0  0  0  0  0  0  0  0  0  0  0  0
  -21.1745   43.6014   54.3962 C   0  0  2  0  0  0  0  0  0  0  0  0
  -22.2777   42.6798   53.8489 C   0  0  0  0  0  0  0  0  0  0  0  0
  -22.2239   41.3696   55.9676 C   0  0  0  0  0  0  0  0  0  0  0  0
  -22.2798   41.3597   54.5687 N   0  0  0  0  0  0  0  0  0  0  0  0
  -19.7787   43.0899   53.9296 C   0  0  0  0  0  0  0  0  0  0  0  0
  1  3  1  0  0  0  0
  2  3  2  0  0  0  0
  2 11  1  0  0  0  0
  3  4  1  0  0  0  0
  4  5  1  0  0  0  0
  5  6  1  0  0  0  0
  5  7  2  0  0  0  0
  6  8  1  0  0  0  0
  6 11  2  0  0  0  0
  8  9  1  0  0  0  0
  9 10  1  0  0  0  0
  9 13  1  1  0  0  0
 10 12  1  0  0  0  0
 11 12  1  0  0  0  0
M  END
>  <CHROM.1>
-21.82531347,41.98127100,56.44544977,2.20550884,1.05086023,1.54628584

>  <Name>
ligand

>  <RI>
0

>  <Rbt.Current_Directory>
/home/itssahil/PROJECTS/Mol_Feturizer/New_Systems/rnas/3SUX

>  <Rbt.Executable>
rbdock ($Id: //depot/dev/client3/rdock/2013.1/src/exe/rbdock.cxx#4 $)

>  <Rbt.Library>
libRbt.so (2013.1, Build901 2013/11/27)

>  <Rbt.Parameter_File>
/export/apps/rDock/src/rDock_2013.1_src/data/scripts/dock_solv.prm

>  <Rbt.Receptor>
prm/blind_docking_80.prm

>  <SCORE>
-14.406

>  <SCORE.INTER>
-14.406

>  <SCORE.INTER.CONST>
1

>  <SCORE.INTER.POLAR>
0

>  <SCORE.INTER.ROT>
0

>  <SCORE.INTER.SOLV>
13.7529

>  <SCORE.INTER.VDW>
-17.7883

>  <SCORE.INTER.norm>
-1.10815

>  <SCORE.INTRA>
0

>  <SCORE.INTRA.DIHEDRAL>
0

>  <SCORE.INTRA.DIHEDRAL.0>
0

>  <SCORE.INTRA.POLAR>
0

>  <SCORE.INTRA.POLAR.0>
0

>  <SCORE.INTRA.REPUL>
0

>  <SCORE.INTRA.REPUL.0>
0

>  <SCORE.INTRA.SOLV>
0

>  <SCORE.INTRA.SOLV.lig_0>
-48.6608

>  <SCORE.INTRA.VDW>
0

>  <SCORE.INTRA.VDW.0>
0

>  <SCORE.INTRA.norm>
0

>  <SCORE.RESTR>
0

>  <SCORE.RESTR.CAVITY>
0

>  <SCORE.RESTR.norm>
0

>  <SCORE.SYSTEM>
0

>  <SCORE.SYSTEM.CONST>
0

>  <SCORE.SYSTEM.DIHEDRAL>
0

>  <SCORE.SYSTEM.SOLV>
0

>  <SCORE.SYSTEM.norm>
0

>  <SCORE.heavy>
13

>  <SCORE.norm>
-1.10815

>  <RMSD>
35.047

$$$$
ligand
 OpenBabel11021811483D
libRbt.so/2013.1/901 2013/11/27
 13 14  0  0  0  0  0  0  0  0999 V2000
  -22.4958   37.1892   57.2201 N   0  0  0  0  0  0  0  0  0  0  0  0
  -21.9410   39.3940   56.7672 N   0  0  0  0  0  0  0  0  0  0  0  0
  -22.5234   38.4749   57.5592 C   0  0  0  0  0  0  0  0  0  0  0  0
  -23.1704   38.8619   58.7321 N   0  0  0  0  0  0  0  0  0  0  0  0
  -23.1868   40.2175   59.0666 C   0  0  0  0  0  0  0  0  0  0  0  0
  -22.5647   41.1457   58.2381 C   0  0  0  0  0  0  0  0  0  0  0  0
  -23.7565   40.5903   60.0916 O   0  0  0  0  0  0  0  0  0  0  0  0
  -22.6183   42.5166   58.5542 N   0  0  0  0  0  0  0  0  0  0  0  0
  -21.9276   43.5522   57.7344 C   0  0  2  0  0  0  0  0  0  0  0  0
  -21.8302   43.0634   56.2793 C   0  0  0  0  0  0  0  0  0  0  0  0
  -21.9572   40.7043   57.0712 C   0  0  0  0  0  0  0  0  0  0  0  0
  -21.3516   41.6391   56.2229 N   0  0  0  0  0  0  0  0  0  0  0  0
  -20.4986   43.7732   58.3146 C   0  0  0  0  0  0  0  0  0  0  0  0
  1  3  1  0  0  0  0
  2  3  2  0  0  0  0
  2 11  1  0  0  0  0
  3  4  1  0  0  0  0
  4  5  1  0  0  0  0
  5  6  1  0  0  0  0
  5  7  2  0  0  0  0
  6  8  1  0  0  0  0
  6 11  2  0  0  0  0
  8  9  1  0  0  0  0
  9 10  1  0  0  0  0
  9 13  1  1  0  0  0
 10 12  1  0  0  0  0
 11 12  1  0  0  0  0
M  END
>  <CHROM.1>
-22.29011092,40.88733247,57.85669445,-2.10612289,1.03595242,0.39218875

>  <Name>
ligand

>  <RI>
0

>  <Rbt.Current_Directory>
/home/itssahil/PROJECTS/Mol_Feturizer/New_Systems/rnas/3SUX

>  <Rbt.Executable>
rbdock ($Id: //depot/dev/client3/rdock/2013.1/src/exe/rbdock.cxx#4 $)

>  <Rbt.Library>
libRbt.so (2013.1, Build901 2013/11/27)

>  <Rbt.Parameter_File>
/export/apps/rDock/src/rDock_2013.1_src/data/scripts/dock_solv.prm

>  <Rbt.Receptor>
prm/blind_docking_80.prm

>  <SCORE>
-9.52621

>  <SCORE.INTER>
-9.56427

>  <SCORE.INTER.CONST>
1

>  <SCORE.INTER.POLAR>
0

>  <SCORE.INTER.ROT>
0

>  <SCORE.INTER.SOLV>
17.5433

>  <SCORE.INTER.VDW>
-15.824

>  <SCORE.INTER.norm>
-0.735713

>  <SCORE.INTRA>
0

>  <SCORE.INTRA.DIHEDRAL>
0

>  <SCORE.INTRA.DIHEDRAL.0>
0

>  <SCORE.INTRA.POLAR>
0

>  <SCORE.INTRA.POLAR.0>
0

>  <SCORE.INTRA.REPUL>
0

>  <SCORE.INTRA.REPUL.0>
0

>  <SCORE.INTRA.SOLV>
0

>  <SCORE.INTRA.SOLV.lig_0>
-48.6608

>  <SCORE.INTRA.VDW>
0

>  <SCORE.INTRA.VDW.0>
0

>  <SCORE.INTRA.norm>
0

>  <SCORE.RESTR>
0.0380691

>  <SCORE.RESTR.CAVITY>
0.0380691

>  <SCORE.RESTR.norm>
0.00292839

>  <SCORE.SYSTEM>
0

>  <SCORE.SYSTEM.CONST>
0

>  <SCORE.SYSTEM.DIHEDRAL>
0

>  <SCORE.SYSTEM.SOLV>
0

>  <SCORE.SYSTEM.norm>
0

>  <SCORE.heavy>
13

>  <SCORE.norm>
-0.732785

>  <RMSD>
35.048

$$$$
ligand
 OpenBabel11021811483D
libRbt.so/2013.1/901 2013/11/27
 13 14  0  0  0  0  0  0  0  0999 V2000
  -22.4984   37.1903   57.2306 N   0  0  0  0  0  0  0  0  0  0  0  0
  -21.9464   39.3950   56.7743 N   0  0  0  0  0  0  0  0  0  0  0  0
  -22.5255   38.4761   57.5690 C   0  0  0  0  0  0  0  0  0  0  0  0
  -23.1685   38.8636   58.7439 N   0  0  0  0  0  0  0  0  0  0  0  0
  -23.1844   40.2194   59.0777 C   0  0  0  0  0  0  0  0  0  0  0  0
  -22.5658   41.1473   58.2463 C   0  0  0  0  0  0  0  0  0  0  0  0
  -23.7507   40.5926   60.1044 O   0  0  0  0  0  0  0  0  0  0  0  0
  -22.6189   42.5184   58.5617 N   0  0  0  0  0  0  0  0  0  0  0  0
  -21.9317   43.5539   57.7388 C   0  0  2  0  0  0  0  0  0  0  0  0
  -21.8392   43.0641   56.2837 C   0  0  0  0  0  0  0  0  0  0  0  0
  -21.9622   40.7055   57.0775 C   0  0  0  0  0  0  0  0  0  0  0  0
  -21.3602   41.6401   56.2264 N   0  0  0  0  0  0  0  0  0  0  0  0
  -20.5007   43.7759   58.3138 C   0  0  0  0  0  0  0  0  0  0  0  0
  1  3  1  0  0  0  0
  2  3  2  0  0  0  0
  2 11  1  0  0  0  0
  3  4  1  0  0  0  0
  4  5  1  0  0  0  0
  5  6  1  0  0  0  0
  5  7  2  0  0  0  0
  6  8  1  0  0  0  0
  6 11  2  0  0  0  0
  8  9  1  0  0  0  0
  9 10  1  0  0  0  0
  9 13  1  1  0  0  0
 10 12  1  0  0  0  0
 11 12  1  0  0  0  0
M  END
>  <CHROM.1>
-22.29239202,40.88889340,57.86408332,-2.10786293,1.03944756,0.39304284

>  <Name>
ligand

>  <RI>
0

>  <Rbt.Current_Directory>
/home/itssahil/PROJECTS/Mol_Feturizer/New_Systems/rnas/3SUX

>  <Rbt.Executable>
rbdock ($Id: //depot/dev/client3/rdock/2013.1/src/exe/rbdock.cxx#4 $)

>  <Rbt.Library>
libRbt.so (2013.1, Build901 2013/11/27)

>  <Rbt.Parameter_File>
/export/apps/rDock/src/rDock_2013.1_src/data/scripts/dock_solv.prm

>  <Rbt.Receptor>
prm/blind_docking_80.prm

>  <SCORE>
-9.49158

>  <SCORE.INTER>
-9.52798

>  <SCORE.INTER.CONST>
1

>  <SCORE.INTER.POLAR>
0

>  <SCORE.INTER.ROT>
0

>  <SCORE.INTER.SOLV>
17.5314

>  <SCORE.INTER.VDW>
-15.7958

>  <SCORE.INTER.norm>
-0.732922

>  <SCORE.INTRA>
0

>  <SCORE.INTRA.DIHEDRAL>
0

>  <SCORE.INTRA.DIHEDRAL.0>
0

>  <SCORE.INTRA.POLAR>
0

>  <SCORE.INTRA.POLAR.0>
0

>  <SCORE.INTRA.REPUL>
0

>  <SCORE.INTRA.REPUL.0>
0

>  <SCORE.INTRA.SOLV>
0

>  <SCORE.INTRA.SOLV.lig_0>
-48.6608

>  <SCORE.INTRA.VDW>
0

>  <SCORE.INTRA.VDW.0>
0

>  <SCORE.INTRA.norm>
0

>  <SCORE.RESTR>
0.0363994

>  <SCORE.RESTR.CAVITY>
0.0363994

>  <SCORE.RESTR.norm>
0.00279995

>  <SCORE.SYSTEM>
0

>  <SCORE.SYSTEM.CONST>
0

>  <SCORE.SYSTEM.DIHEDRAL>
0

>  <SCORE.SYSTEM.SOLV>
0

>  <SCORE.SYSTEM.norm>
0

>  <SCORE.heavy>
13

>  <SCORE.norm>
-0.730122

>  <RMSD>
35.048

$$$$
ligand
 OpenBabel11021811483D
libRbt.so/2013.1/901 2013/11/27
 13 14  0  0  0  0  0  0  0  0999 V2000
  -23.0971   39.4054   58.8698 N   0  0  0  0  0  0  0  0  0  0  0  0
  -22.6891   40.3698   56.8017 N   0  0  0  0  0  0  0  0  0  0  0  0
  -22.6362   40.4211   58.1455 C   0  0  0  0  0  0  0  0  0  0  0  0
  -22.1116   41.5411   58.7892 N   0  0  0  0  0  0  0  0  0  0  0  0
  -21.6346   42.5952   58.0074 C   0  0  0  0  0  0  0  0  0  0  0  0
  -21.6875   42.5110   56.6199 C   0  0  0  0  0  0  0  0  0  0  0  0
  -21.1729   43.6000   58.5470 O   0  0  0  0  0  0  0  0  0  0  0  0
  -21.2454   43.5917   55.8332 N   0  0  0  0  0  0  0  0  0  0  0  0
  -21.2287   43.5404   54.3437 C   0  0  2  0  0  0  0  0  0  0  0  0
  -22.3353   42.5889   53.8580 C   0  0  0  0  0  0  0  0  0  0  0  0
  -22.2426   41.3814   56.0356 C   0  0  0  0  0  0  0  0  0  0  0  0
  -22.3197   41.3046   54.6398 N   0  0  0  0  0  0  0  0  0  0  0  0
  -19.8375   43.0134   53.8806 C   0  0  0  0  0  0  0  0  0  0  0  0
  1  3  1  0  0  0  0
  2  3  2  0  0  0  0
  2 11  1  0  0  0  0
  3  4  1  0  0  0  0
  4  5  1  0  0  0  0
  5  6  1  0  0  0  0
  5  7  2  0  0  0  0
  6  8  1  0  0  0  0
  6 11  2  0  0  0  0
  8  9  1  0  0  0  0
  9 10  1  0  0  0  0
  9 13  1  1  0  0  0
 10 12  1  0  0  0  0
 11 12  1  0  0  0  0
M  END
>  <CHROM.1>
-21.84004165,42.01699613,56.47763251,2.17499348,1.05615936,1.52510953

>  <Name>
ligand

>  <RI>
0

>  <Rbt.Current_Directory>
/home/itssahil/PROJECTS/Mol_Feturizer/New_Systems/rnas/3SUX

>  <Rbt.Executable>
rbdock ($Id: //depot/dev/client3/rdock/2013.1/src/exe/rbdock.cxx#4 $)

>  <Rbt.Library>
libRbt.so (2013.1, Build901 2013/11/27)

>  <Rbt.Parameter_File>
/export/apps/rDock/src/rDock_2013.1_src/data/scripts/dock_solv.prm

>  <Rbt.Receptor>
prm/blind_docking_80.prm

>  <SCORE>
-14.3974

>  <SCORE.INTER>
-14.3974

>  <SCORE.INTER.CONST>
1

>  <SCORE.INTER.POLAR>
0

>  <SCORE.INTER.ROT>
0

>  <SCORE.INTER.SOLV>
14.2744

>  <SCORE.INTER.VDW>
-17.9564

>  <SCORE.INTER.norm>
-1.10749

>  <SCORE.INTRA>
0

>  <SCORE.INTRA.DIHEDRAL>
0

>  <SCORE.INTRA.DIHEDRAL.0>
0

>  <SCORE.INTRA.POLAR>
0

>  <SCORE.INTRA.POLAR.0>
0

>  <SCORE.INTRA.REPUL>
0

>  <SCORE.INTRA.REPUL.0>
0

>  <SCORE.INTRA.SOLV>
0

>  <SCORE.INTRA.SOLV.lig_0>
-48.6608

>  <SCORE.INTRA.VDW>
0

>  <SCORE.INTRA.VDW.0>
0

>  <SCORE.INTRA.norm>
0

>  <SCORE.RESTR>
0

>  <SCORE.RESTR.CAVITY>
0

>  <SCORE.RESTR.norm>
0

>  <SCORE.SYSTEM>
0

>  <SCORE.SYSTEM.CONST>
0

>  <SCORE.SYSTEM.DIHEDRAL>
0

>  <SCORE.SYSTEM.SOLV>
0

>  <SCORE.SYSTEM.norm>
0

>  <SCORE.heavy>
13

>  <SCORE.norm>
-1.10749

>  <RMSD>
35.048

$$$$
ligand
 OpenBabel11021811483D
libRbt.so/2013.1/901 2013/11/27
 13 14  0  0  0  0  0  0  0  0999 V2000
  -22.9381   39.7383   59.1146 N   0  0  0  0  0  0  0  0  0  0  0  0
  -22.5482   40.4446   56.9414 N   0  0  0  0  0  0  0  0  0  0  0  0
  -22.5399   40.6818   58.2661 C   0  0  0  0  0  0  0  0  0  0  0  0
  -22.1277   41.9191   58.7592 N   0  0  0  0  0  0  0  0  0  0  0  0
  -21.7148   42.8941   57.8488 C   0  0  0  0  0  0  0  0  0  0  0  0
  -21.7192   42.6185   56.4853 C   0  0  0  0  0  0  0  0  0  0  0  0
  -21.3528   43.9983   58.2535 O   0  0  0  0  0  0  0  0  0  0  0  0
  -21.3432   43.6161   55.5658 N   0  0  0  0  0  0  0  0  0  0  0  0
  -21.2777   43.3650   54.0981 C   0  0  2  0  0  0  0  0  0  0  0  0
  -22.2882   42.2661   53.7275 C   0  0  0  0  0  0  0  0  0  0  0  0
  -22.1628   41.3772   56.0518 C   0  0  0  0  0  0  0  0  0  0  0  0
  -22.1916   41.1057   54.6787 N   0  0  0  0  0  0  0  0  0  0  0  0
  -19.8351   42.8998   53.7377 C   0  0  0  0  0  0  0  0  0  0  0  0
  1  3  1  0  0  0  0
  2  3  2  0  0  0  0
  2 11  1  0  0  0  0
  3  4  1  0  0  0  0
  4  5  1  0  0  0  0
  5  6  1  0  0  0  0
  5  7  2  0  0  0  0
  6  8  1  0  0  0  0
  6 11  2  0  0  0  0
  8  9  1  0  0  0  0
  9 10  1  0  0  0  0
  9 13  1  1  0  0  0
 10 12  1  0  0  0  0
 11 12  1  0  0  0  0
M  END
>  <CHROM.1>
-21.82665819,42.09860866,56.40958902,2.25468616,1.13500552,1.31694650

>  <Name>
ligand

>  <RI>
0

>  <Rbt.Current_Directory>
/home/itssahil/PROJECTS/Mol_Feturizer/New_Systems/rnas/3SUX

>  <Rbt.Executable>
rbdock ($Id: //depot/dev/client3/rdock/2013.1/src/exe/rbdock.cxx#4 $)

>  <Rbt.Library>
libRbt.so (2013.1, Build901 2013/11/27)

>  <Rbt.Parameter_File>
/export/apps/rDock/src/rDock_2013.1_src/data/scripts/dock_solv.prm

>  <Rbt.Receptor>
prm/blind_docking_80.prm

>  <SCORE>
-14.3845

>  <SCORE.INTER>
-14.3845

>  <SCORE.INTER.CONST>
1

>  <SCORE.INTER.POLAR>
0

>  <SCORE.INTER.ROT>
0

>  <SCORE.INTER.SOLV>
15.0064

>  <SCORE.INTER.VDW>
-18.1918

>  <SCORE.INTER.norm>
-1.1065

>  <SCORE.INTRA>
0

>  <SCORE.INTRA.DIHEDRAL>
0

>  <SCORE.INTRA.DIHEDRAL.0>
0

>  <SCORE.INTRA.POLAR>
0

>  <SCORE.INTRA.POLAR.0>
0

>  <SCORE.INTRA.REPUL>
0

>  <SCORE.INTRA.REPUL.0>
0

>  <SCORE.INTRA.SOLV>
0

>  <SCORE.INTRA.SOLV.lig_0>
-48.6608

>  <SCORE.INTRA.VDW>
0

>  <SCORE.INTRA.VDW.0>
0

>  <SCORE.INTRA.norm>
0

>  <SCORE.RESTR>
0

>  <SCORE.RESTR.CAVITY>
0

>  <SCORE.RESTR.norm>
0

>  <SCORE.SYSTEM>
0

>  <SCORE.SYSTEM.CONST>
0

>  <SCORE.SYSTEM.DIHEDRAL>
0

>  <SCORE.SYSTEM.SOLV>
0

>  <SCORE.SYSTEM.norm>
0

>  <SCORE.heavy>
13

>  <SCORE.norm>
-1.1065

>  <RMSD>
35.054

$$$$
ligand
 OpenBabel11021811483D
libRbt.so/2013.1/901 2013/11/27
 13 14  0  0  0  0  0  0  0  0999 V2000
  -23.0812   39.2413   58.6974 N   0  0  0  0  0  0  0  0  0  0  0  0
  -22.6200   40.2954   56.6850 N   0  0  0  0  0  0  0  0  0  0  0  0
  -22.6364   40.3025   58.0307 C   0  0  0  0  0  0  0  0  0  0  0  0
  -22.2010   41.4237   58.7361 N   0  0  0  0  0  0  0  0  0  0  0  0
  -21.7392   42.5260   58.0141 C   0  0  0  0  0  0  0  0  0  0  0  0
  -21.7190   42.4876   56.6238 C   0  0  0  0  0  0  0  0  0  0  0  0
  -21.3556   43.5327   58.6087 O   0  0  0  0  0  0  0  0  0  0  0  0
  -21.2931   43.6150   55.8959 N   0  0  0  0  0  0  0  0  0  0  0  0
  -21.2000   43.6162   54.4084 C   0  0  2  0  0  0  0  0  0  0  0  0
  -22.2322   42.6297   53.8363 C   0  0  0  0  0  0  0  0  0  0  0  0
  -22.1872   41.3534   55.9758 C   0  0  0  0  0  0  0  0  0  0  0  0
  -22.1911   41.3214   54.5761 N   0  0  0  0  0  0  0  0  0  0  0  0
  -19.7630   43.1734   54.0004 C   0  0  0  0  0  0  0  0  0  0  0  0
  1  3  1  0  0  0  0
  2  3  2  0  0  0  0
  2 11  1  0  0  0  0
  3  4  1  0  0  0  0
  4  5  1  0  0  0  0
  5  6  1  0  0  0  0
  5  7  2  0  0  0  0
  6  8  1  0  0  0  0
  6 11  2  0  0  0  0
  8  9  1  0  0  0  0
  9 10  1  0  0  0  0
  9 13  1  1  0  0  0
 10 12  1  0  0  0  0
 11 12  1  0  0  0  0
M  END
>  <CHROM.1>
-21.83936054,41.99196868,56.45803628,2.28972876,1.10131666,1.45740399

>  <Name>
ligand

>  <RI>
0

>  <Rbt.Current_Directory>
/home/itssahil/PROJECTS/Mol_Feturizer/New_Systems/rnas/3SUX

>  <Rbt.Executable>
rbdock ($Id: //depot/dev/client3/rdock/2013.1/src/exe/rbdock.cxx#4 $)

>  <Rbt.Library>
libRbt.so (2013.1, Build901 2013/11/27)

>  <Rbt.Parameter_File>
/export/apps/rDock/src/rDock_2013.1_src/data/scripts/dock_solv.prm

>  <Rbt.Receptor>
prm/blind_docking_80.prm

>  <SCORE>
-14.486

>  <SCORE.INTER>
-14.486

>  <SCORE.INTER.CONST>
1

>  <SCORE.INTER.POLAR>
0

>  <SCORE.INTER.ROT>
0

>  <SCORE.INTER.SOLV>
13.7533

>  <SCORE.INTER.VDW>
-17.8418

>  <SCORE.INTER.norm>
-1.11431

>  <SCORE.INTRA>
0

>  <SCORE.INTRA.DIHEDRAL>
0

>  <SCORE.INTRA.DIHEDRAL.0>
0

>  <SCORE.INTRA.POLAR>
0

>  <SCORE.INTRA.POLAR.0>
0

>  <SCORE.INTRA.REPUL>
0

>  <SCORE.INTRA.REPUL.0>
0

>  <SCORE.INTRA.SOLV>
0

>  <SCORE.INTRA.SOLV.lig_0>
-48.6608

>  <SCORE.INTRA.VDW>
0

>  <SCORE.INTRA.VDW.0>
0

>  <SCORE.INTRA.norm>
0

>  <SCORE.RESTR>
0

>  <SCORE.RESTR.CAVITY>
0

>  <SCORE.RESTR.norm>
0

>  <SCORE.SYSTEM>
0

>  <SCORE.SYSTEM.CONST>
0

>  <SCORE.SYSTEM.DIHEDRAL>
0

>  <SCORE.SYSTEM.SOLV>
0

>  <SCORE.SYSTEM.norm>
0

>  <SCORE.heavy>
13

>  <SCORE.norm>
-1.11431

>  <RMSD>
35.055

$$$$
ligand
 OpenBabel11021811483D
libRbt.so/2013.1/901 2013/11/27
 13 14  0  0  0  0  0  0  0  0999 V2000
  -23.0861   39.3418   58.8387 N   0  0  0  0  0  0  0  0  0  0  0  0
  -22.6766   40.3215   56.7781 N   0  0  0  0  0  0  0  0  0  0  0  0
  -22.6372   40.3686   58.1225 C   0  0  0  0  0  0  0  0  0  0  0  0
  -22.1394   41.4957   58.7752 N   0  0  0  0  0  0  0  0  0  0  0  0
  -21.6746   42.5613   58.0018 C   0  0  0  0  0  0  0  0  0  0  0  0
  -21.7129   42.4815   56.6135 C   0  0  0  0  0  0  0  0  0  0  0  0
  -21.2366   43.5724   58.5494 O   0  0  0  0  0  0  0  0  0  0  0  0
  -21.2835   43.5731   55.8350 N   0  0  0  0  0  0  0  0  0  0  0  0
  -21.2519   43.5278   54.3456 C   0  0  2  0  0  0  0  0  0  0  0  0
  -22.3361   42.5579   53.8460 C   0  0  0  0  0  0  0  0  0  0  0  0
  -22.2416   41.3441   56.0199 C   0  0  0  0  0  0  0  0  0  0  0  0
  -22.3042   41.2712   54.6232 N   0  0  0  0  0  0  0  0  0  0  0  0
  -19.8469   43.0282   53.8937 C   0  0  0  0  0  0  0  0  0  0  0  0
  1  3  1  0  0  0  0
  2  3  2  0  0  0  0
  2 11  1  0  0  0  0
  3  4  1  0  0  0  0
  4  5  1  0  0  0  0
  5  6  1  0  0  0  0
  5  7  2  0  0  0  0
  6  8  1  0  0  0  0
  6 11  2  0  0  0  0
  8  9  1  0  0  0  0
  9 10  1  0  0  0  0
  9 13  1  1  0  0  0
 10 12  1  0  0  0  0
 11 12  1  0  0  0  0
M  END
>  <CHROM.1>
-21.85498656,41.98527231,56.46805275,2.19640988,1.07406642,1.51009761

>  <Name>
ligand

>  <RI>
0

>  <Rbt.Current_Directory>
/home/itssahil/PROJECTS/Mol_Feturizer/New_Systems/rnas/3SUX

>  <Rbt.Executable>
rbdock ($Id: //depot/dev/client3/rdock/2013.1/src/exe/rbdock.cxx#4 $)

>  <Rbt.Library>
libRbt.so (2013.1, Build901 2013/11/27)

>  <Rbt.Parameter_File>
/export/apps/rDock/src/rDock_2013.1_src/data/scripts/dock_solv.prm

>  <Rbt.Receptor>
prm/blind_docking_80.prm

>  <SCORE>
-14.383

>  <SCORE.INTER>
-14.383

>  <SCORE.INTER.CONST>
1

>  <SCORE.INTER.POLAR>
0

>  <SCORE.INTER.ROT>
0

>  <SCORE.INTER.SOLV>
13.974

>  <SCORE.INTER.VDW>
-17.8466

>  <SCORE.INTER.norm>
-1.10638

>  <SCORE.INTRA>
0

>  <SCORE.INTRA.DIHEDRAL>
0

>  <SCORE.INTRA.DIHEDRAL.0>
0

>  <SCORE.INTRA.POLAR>
0

>  <SCORE.INTRA.POLAR.0>
0

>  <SCORE.INTRA.REPUL>
0

>  <SCORE.INTRA.REPUL.0>
0

>  <SCORE.INTRA.SOLV>
0

>  <SCORE.INTRA.SOLV.lig_0>
-48.6608

>  <SCORE.INTRA.VDW>
0

>  <SCORE.INTRA.VDW.0>
0

>  <SCORE.INTRA.norm>
0

>  <SCORE.RESTR>
0

>  <SCORE.RESTR.CAVITY>
0

>  <SCORE.RESTR.norm>
0

>  <SCORE.SYSTEM>
0

>  <SCORE.SYSTEM.CONST>
0

>  <SCORE.SYSTEM.DIHEDRAL>
0

>  <SCORE.SYSTEM.SOLV>
0

>  <SCORE.SYSTEM.norm>
0

>  <SCORE.heavy>
13

>  <SCORE.norm>
-1.10638

>  <RMSD>
35.066

$$$$
ligand
 OpenBabel11021811483D
libRbt.so/2013.1/901 2013/11/27
 13 14  0  0  0  0  0  0  0  0999 V2000
  -22.9218   39.7378   59.1169 N   0  0  0  0  0  0  0  0  0  0  0  0
  -22.5044   40.4212   56.9415 N   0  0  0  0  0  0  0  0  0  0  0  0
  -22.5395   40.6815   58.2614 C   0  0  0  0  0  0  0  0  0  0  0  0
  -22.1894   41.9427   58.7417 N   0  0  0  0  0  0  0  0  0  0  0  0
  -21.7921   42.9174   57.8242 C   0  0  0  0  0  0  0  0  0  0  0  0
  -21.7504   42.6182   56.4663 C   0  0  0  0  0  0  0  0  0  0  0  0
  -21.4845   44.0421   58.2173 O   0  0  0  0  0  0  0  0  0  0  0  0
  -21.3907   43.6138   55.5382 N   0  0  0  0  0  0  0  0  0  0  0  0
  -21.2776   43.3400   54.0775 C   0  0  2  0  0  0  0  0  0  0  0  0
  -22.2340   42.1953   53.7021 C   0  0  0  0  0  0  0  0  0  0  0  0
  -22.1334   41.3528   56.0448 C   0  0  0  0  0  0  0  0  0  0  0  0
  -22.1161   41.0564   54.6766 N   0  0  0  0  0  0  0  0  0  0  0  0
  -19.8089   42.9267   53.7619 C   0  0  0  0  0  0  0  0  0  0  0  0
  1  3  1  0  0  0  0
  2  3  2  0  0  0  0
  2 11  1  0  0  0  0
  3  4  1  0  0  0  0
  4  5  1  0  0  0  0
  5  6  1  0  0  0  0
  5  7  2  0  0  0  0
  6  8  1  0  0  0  0
  6 11  2  0  0  0  0
  8  9  1  0  0  0  0
  9 10  1  0  0  0  0
  9 13  1  1  0  0  0
 10 12  1  0  0  0  0
 11 12  1  0  0  0  0
M  END
>  <CHROM.1>
-21.83532900,42.09314489,56.39748000,2.34311180,1.16541533,1.21827387

>  <Name>
ligand

>  <RI>
0

>  <Rbt.Current_Directory>
/home/itssahil/PROJECTS/Mol_Feturizer/New_Systems/rnas/3SUX

>  <Rbt.Executable>
rbdock ($Id: //depot/dev/client3/rdock/2013.1/src/exe/rbdock.cxx#4 $)

>  <Rbt.Library>
libRbt.so (2013.1, Build901 2013/11/27)

>  <Rbt.Parameter_File>
/export/apps/rDock/src/rDock_2013.1_src/data/scripts/dock_solv.prm

>  <Rbt.Receptor>
prm/blind_docking_80.prm

>  <SCORE>
-14.4333

>  <SCORE.INTER>
-14.4333

>  <SCORE.INTER.CONST>
1

>  <SCORE.INTER.POLAR>
0

>  <SCORE.INTER.ROT>
0

>  <SCORE.INTER.SOLV>
15.0206

>  <SCORE.INTER.VDW>
-18.2291

>  <SCORE.INTER.norm>
-1.11026

>  <SCORE.INTRA>
0

>  <SCORE.INTRA.DIHEDRAL>
0

>  <SCORE.INTRA.DIHEDRAL.0>
0

>  <SCORE.INTRA.POLAR>
0

>  <SCORE.INTRA.POLAR.0>
0

>  <SCORE.INTRA.REPUL>
0

>  <SCORE.INTRA.REPUL.0>
0

>  <SCORE.INTRA.SOLV>
0

>  <SCORE.INTRA.SOLV.lig_0>
-48.6608

>  <SCORE.INTRA.VDW>
0

>  <SCORE.INTRA.VDW.0>
0

>  <SCORE.INTRA.norm>
0

>  <SCORE.RESTR>
0

>  <SCORE.RESTR.CAVITY>
0

>  <SCORE.RESTR.norm>
0

>  <SCORE.SYSTEM>
0

>  <SCORE.SYSTEM.CONST>
0

>  <SCORE.SYSTEM.DIHEDRAL>
0

>  <SCORE.SYSTEM.SOLV>
0

>  <SCORE.SYSTEM.norm>
0

>  <SCORE.heavy>
13

>  <SCORE.norm>
-1.11026

>  <RMSD>
35.067

$$$$
ligand
 OpenBabel11021811483D
libRbt.so/2013.1/901 2013/11/27
 13 14  0  0  0  0  0  0  0  0999 V2000
  -23.1178   39.2363   58.6815 N   0  0  0  0  0  0  0  0  0  0  0  0
  -22.6520   40.2939   56.6720 N   0  0  0  0  0  0  0  0  0  0  0  0
  -22.6631   40.2953   58.0177 C   0  0  0  0  0  0  0  0  0  0  0  0
  -22.2121   41.4081   58.7263 N   0  0  0  0  0  0  0  0  0  0  0  0
  -21.7401   42.5082   58.0073 C   0  0  0  0  0  0  0  0  0  0  0  0
  -21.7256   42.4756   56.6167 C   0  0  0  0  0  0  0  0  0  0  0  0
  -21.3426   43.5077   58.6048 O   0  0  0  0  0  0  0  0  0  0  0  0
  -21.2894   43.6011   55.8922 N   0  0  0  0  0  0  0  0  0  0  0  0
  -21.2019   43.6078   54.4043 C   0  0  2  0  0  0  0  0  0  0  0  0
  -22.2477   42.6359   53.8319 C   0  0  0  0  0  0  0  0  0  0  0  0
  -22.2096   41.3498   55.9656 C   0  0  0  0  0  0  0  0  0  0  0  0
  -22.2192   41.3240   54.5658 N   0  0  0  0  0  0  0  0  0  0  0  0
  -19.7717   43.1501   53.9888 C   0  0  0  0  0  0  0  0  0  0  0  0
  1  3  1  0  0  0  0
  2  3  2  0  0  0  0
  2 11  1  0  0  0  0
  3  4  1  0  0  0  0
  4  5  1  0  0  0  0
  5  6  1  0  0  0  0
  5  7  2  0  0  0  0
  6  8  1  0  0  0  0
  6 11  2  0  0  0  0
  8  9  1  0  0  0  0
  9 10  1  0  0  0  0
  9 13  1  1  0  0  0
 10 12  1  0  0  0  0
 11 12  1  0  0  0  0
M  END
>  <CHROM.1>
-21.85243598,41.98215134,56.44931477,2.27869576,1.09011486,1.47158190

>  <Name>
ligand

>  <RI>
0

>  <Rbt.Current_Directory>
/home/itssahil/PROJECTS/Mol_Feturizer/New_Systems/rnas/3SUX

>  <Rbt.Executable>
rbdock ($Id: //depot/dev/client3/rdock/2013.1/src/exe/rbdock.cxx#4 $)

>  <Rbt.Library>
libRbt.so (2013.1, Build901 2013/11/27)

>  <Rbt.Parameter_File>
/export/apps/rDock/src/rDock_2013.1_src/data/scripts/dock_solv.prm

>  <Rbt.Receptor>
prm/blind_docking_100.prm

>  <SCORE>
-14.4709

>  <SCORE.INTER>
-14.4709

>  <SCORE.INTER.CONST>
1

>  <SCORE.INTER.POLAR>
0

>  <SCORE.INTER.ROT>
0

>  <SCORE.INTER.SOLV>
13.6637

>  <SCORE.INTER.VDW>
-17.8018

>  <SCORE.INTER.norm>
-1.11315

>  <SCORE.INTRA>
0

>  <SCORE.INTRA.DIHEDRAL>
0

>  <SCORE.INTRA.DIHEDRAL.0>
0

>  <SCORE.INTRA.POLAR>
0

>  <SCORE.INTRA.POLAR.0>
0

>  <SCORE.INTRA.REPUL>
0

>  <SCORE.INTRA.REPUL.0>
0

>  <SCORE.INTRA.SOLV>
0

>  <SCORE.INTRA.SOLV.lig_0>
-48.6608

>  <SCORE.INTRA.VDW>
0

>  <SCORE.INTRA.VDW.0>
0

>  <SCORE.INTRA.norm>
0

>  <SCORE.RESTR>
0

>  <SCORE.RESTR.CAVITY>
0

>  <SCORE.RESTR.norm>
0

>  <SCORE.SYSTEM>
0

>  <SCORE.SYSTEM.CONST>
0

>  <SCORE.SYSTEM.DIHEDRAL>
0

>  <SCORE.SYSTEM.SOLV>
0

>  <SCORE.SYSTEM.norm>
0

>  <SCORE.heavy>
13

>  <SCORE.norm>
-1.11315

>  <RMSD>
35.071

$$$$
ligand
 OpenBabel11021811483D
libRbt.so/2013.1/901 2013/11/27
 13 14  0  0  0  0  0  0  0  0999 V2000
  -22.9288   39.7629   59.1373 N   0  0  0  0  0  0  0  0  0  0  0  0
  -22.5172   40.4351   56.9573 N   0  0  0  0  0  0  0  0  0  0  0  0
  -22.5456   40.7012   58.2762 C   0  0  0  0  0  0  0  0  0  0  0  0
  -22.1875   41.9627   58.7498 N   0  0  0  0  0  0  0  0  0  0  0  0
  -21.7894   42.9316   57.8265 C   0  0  0  0  0  0  0  0  0  0  0  0
  -21.7549   42.6265   56.4698 C   0  0  0  0  0  0  0  0  0  0  0  0
  -21.4749   44.0565   58.2137 O   0  0  0  0  0  0  0  0  0  0  0  0
  -21.3942   43.6166   55.5360 N   0  0  0  0  0  0  0  0  0  0  0  0
  -21.2886   43.3360   54.0760 C   0  0  2  0  0  0  0  0  0  0  0  0
  -22.2519   42.1944   53.7093 C   0  0  0  0  0  0  0  0  0  0  0  0
  -22.1455   41.3612   56.0552 C   0  0  0  0  0  0  0  0  0  0  0  0
  -22.1353   41.0590   54.6881 N   0  0  0  0  0  0  0  0  0  0  0  0
  -19.8231   42.9144   53.7561 C   0  0  0  0  0  0  0  0  0  0  0  0
  1  3  1  0  0  0  0
  2  3  2  0  0  0  0
  2 11  1  0  0  0  0
  3  4  1  0  0  0  0
  4  5  1  0  0  0  0
  5  6  1  0  0  0  0
  5  7  2  0  0  0  0
  6  8  1  0  0  0  0
  6 11  2  0  0  0  0
  8  9  1  0  0  0  0
  9 10  1  0  0  0  0
  9 13  1  1  0  0  0
 10 12  1  0  0  0  0
 11 12  1  0  0  0  0
M  END
>  <CHROM.1>
-21.84252997,42.10162018,56.40349563,2.32916885,1.16236876,1.22687359

>  <Name>
ligand

>  <RI>
0

>  <Rbt.Current_Directory>
/home/itssahil/PROJECTS/Mol_Feturizer/New_Systems/rnas/3SUX

>  <Rbt.Executable>
rbdock ($Id: //depot/dev/client3/rdock/2013.1/src/exe/rbdock.cxx#4 $)

>  <Rbt.Library>
libRbt.so (2013.1, Build901 2013/11/27)

>  <Rbt.Parameter_File>
/export/apps/rDock/src/rDock_2013.1_src/data/scripts/dock_solv.prm

>  <Rbt.Receptor>
prm/blind_docking_80.prm

>  <SCORE>
-14.4257

>  <SCORE.INTER>
-14.4257

>  <SCORE.INTER.CONST>
1

>  <SCORE.INTER.POLAR>
0

>  <SCORE.INTER.ROT>
0

>  <SCORE.INTER.SOLV>
15.1159

>  <SCORE.INTER.VDW>
-18.2558

>  <SCORE.INTER.norm>
-1.10967

>  <SCORE.INTRA>
0

>  <SCORE.INTRA.DIHEDRAL>
0

>  <SCORE.INTRA.DIHEDRAL.0>
0

>  <SCORE.INTRA.POLAR>
0

>  <SCORE.INTRA.POLAR.0>
0

>  <SCORE.INTRA.REPUL>
0

>  <SCORE.INTRA.REPUL.0>
0

>  <SCORE.INTRA.SOLV>
0

>  <SCORE.INTRA.SOLV.lig_0>
-48.6608

>  <SCORE.INTRA.VDW>
0

>  <SCORE.INTRA.VDW.0>
0

>  <SCORE.INTRA.norm>
0

>  <SCORE.RESTR>
0

>  <SCORE.RESTR.CAVITY>
0

>  <SCORE.RESTR.norm>
0

>  <SCORE.SYSTEM>
0

>  <SCORE.SYSTEM.CONST>
0

>  <SCORE.SYSTEM.DIHEDRAL>
0

>  <SCORE.SYSTEM.SOLV>
0

>  <SCORE.SYSTEM.norm>
0

>  <SCORE.heavy>
13

>  <SCORE.norm>
-1.10967

>  <RMSD>
35.071

$$$$
ligand
 OpenBabel11021811483D
libRbt.so/2013.1/901 2013/11/27
 13 14  0  0  0  0  0  0  0  0999 V2000
  -23.1826   39.2447   58.6829 N   0  0  0  0  0  0  0  0  0  0  0  0
  -22.7254   40.3104   56.6757 N   0  0  0  0  0  0  0  0  0  0  0  0
  -22.6977   40.2914   58.0211 C   0  0  0  0  0  0  0  0  0  0  0  0
  -22.1743   41.3707   58.7317 N   0  0  0  0  0  0  0  0  0  0  0  0
  -21.6718   42.4585   58.0148 C   0  0  0  0  0  0  0  0  0  0  0  0
  -21.6989   42.4470   56.6241 C   0  0  0  0  0  0  0  0  0  0  0  0
  -21.2104   43.4289   58.6144 O   0  0  0  0  0  0  0  0  0  0  0  0
  -21.2310   43.5620   55.9030 N   0  0  0  0  0  0  0  0  0  0  0  0
  -21.1862   43.5876   54.4134 C   0  0  2  0  0  0  0  0  0  0  0  0
  -22.2929   42.6749   53.8584 C   0  0  0  0  0  0  0  0  0  0  0  0
  -22.2541   41.3553   55.9716 C   0  0  0  0  0  0  0  0  0  0  0  0
  -22.3052   41.3518   54.5725 N   0  0  0  0  0  0  0  0  0  0  0  0
  -19.7919   43.0700   53.9495 C   0  0  0  0  0  0  0  0  0  0  0  0
  1  3  1  0  0  0  0
  2  3  2  0  0  0  0
  2 11  1  0  0  0  0
  3  4  1  0  0  0  0
  4  5  1  0  0  0  0
  5  6  1  0  0  0  0
  5  7  2  0  0  0  0
  6  8  1  0  0  0  0
  6 11  2  0  0  0  0
  8  9  1  0  0  0  0
  9 10  1  0  0  0  0
  9 13  1  1  0  0  0
 10 12  1  0  0  0  0
 11 12  1  0  0  0  0
M  END
>  <CHROM.1>
-21.85369229,41.96265586,56.45350350,2.21219769,1.04490994,1.54473930

>  <Name>
ligand

>  <RI>
0

>  <Rbt.Current_Directory>
/home/itssahil/PROJECTS/Mol_Feturizer/New_Systems/rnas/3SUX

>  <Rbt.Executable>
rbdock ($Id: //depot/dev/client3/rdock/2013.1/src/exe/rbdock.cxx#4 $)

>  <Rbt.Library>
libRbt.so (2013.1, Build901 2013/11/27)

>  <Rbt.Parameter_File>
/export/apps/rDock/src/rDock_2013.1_src/data/scripts/dock_solv.prm

>  <Rbt.Receptor>
prm/blind_docking_80.prm

>  <SCORE>
-14.4317

>  <SCORE.INTER>
-14.4317

>  <SCORE.INTER.CONST>
1

>  <SCORE.INTER.POLAR>
0

>  <SCORE.INTER.ROT>
0

>  <SCORE.INTER.SOLV>
13.6776

>  <SCORE.INTER.VDW>
-17.7804

>  <SCORE.INTER.norm>
-1.11013

>  <SCORE.INTRA>
0

>  <SCORE.INTRA.DIHEDRAL>
0

>  <SCORE.INTRA.DIHEDRAL.0>
0

>  <SCORE.INTRA.POLAR>
0

>  <SCORE.INTRA.POLAR.0>
0

>  <SCORE.INTRA.REPUL>
0

>  <SCORE.INTRA.REPUL.0>
0

>  <SCORE.INTRA.SOLV>
0

>  <SCORE.INTRA.SOLV.lig_0>
-48.6608

>  <SCORE.INTRA.VDW>
0

>  <SCORE.INTRA.VDW.0>
0

>  <SCORE.INTRA.norm>
0

>  <SCORE.RESTR>
0

>  <SCORE.RESTR.CAVITY>
0

>  <SCORE.RESTR.norm>
0

>  <SCORE.SYSTEM>
0

>  <SCORE.SYSTEM.CONST>
0

>  <SCORE.SYSTEM.DIHEDRAL>
0

>  <SCORE.SYSTEM.SOLV>
0

>  <SCORE.SYSTEM.norm>
0

>  <SCORE.heavy>
13

>  <SCORE.norm>
-1.11013

>  <RMSD>
35.072

$$$$
ligand
 OpenBabel11021811483D
libRbt.so/2013.1/901 2013/11/27
 13 14  0  0  0  0  0  0  0  0999 V2000
  -22.9211   39.7409   59.1248 N   0  0  0  0  0  0  0  0  0  0  0  0
  -22.5106   40.4204   56.9468 N   0  0  0  0  0  0  0  0  0  0  0  0
  -22.5407   40.6828   58.2665 C   0  0  0  0  0  0  0  0  0  0  0  0
  -22.1872   41.9443   58.7436 N   0  0  0  0  0  0  0  0  0  0  0  0
  -21.7920   42.9171   57.8232 C   0  0  0  0  0  0  0  0  0  0  0  0
  -21.7556   42.6158   56.4656 C   0  0  0  0  0  0  0  0  0  0  0  0
  -21.4815   44.0420   58.2135 O   0  0  0  0  0  0  0  0  0  0  0  0
  -21.3979   43.6096   55.5348 N   0  0  0  0  0  0  0  0  0  0  0  0
  -21.2904   43.3333   54.0740 C   0  0  2  0  0  0  0  0  0  0  0  0
  -22.2496   42.1894   53.7038 C   0  0  0  0  0  0  0  0  0  0  0  0
  -22.1416   41.3502   56.0474 C   0  0  0  0  0  0  0  0  0  0  0  0
  -22.1296   41.0518   54.6796 N   0  0  0  0  0  0  0  0  0  0  0  0
  -19.8234   42.9177   53.7538 C   0  0  0  0  0  0  0  0  0  0  0  0
  1  3  1  0  0  0  0
  2  3  2  0  0  0  0
  2 11  1  0  0  0  0
  3  4  1  0  0  0  0
  4  5  1  0  0  0  0
  5  6  1  0  0  0  0
  5  7  2  0  0  0  0
  6  8  1  0  0  0  0
  6 11  2  0  0  0  0
  8  9  1  0  0  0  0
  9 10  1  0  0  0  0
  9 13  1  1  0  0  0
 10 12  1  0  0  0  0
 11 12  1  0  0  0  0
M  END
>  <CHROM.1>
-21.84138691,42.09073483,56.39788959,2.33345683,1.16543963,1.22563337

>  <Name>
ligand

>  <RI>
0

>  <Rbt.Current_Directory>
/home/itssahil/PROJECTS/Mol_Feturizer/New_Systems/rnas/3SUX

>  <Rbt.Executable>
rbdock ($Id: //depot/dev/client3/rdock/2013.1/src/exe/rbdock.cxx#4 $)

>  <Rbt.Library>
libRbt.so (2013.1, Build901 2013/11/27)

>  <Rbt.Parameter_File>
/export/apps/rDock/src/rDock_2013.1_src/data/scripts/dock_solv.prm

>  <Rbt.Receptor>
prm/blind_docking_80.prm

>  <SCORE>
-14.4382

>  <SCORE.INTER>
-14.4382

>  <SCORE.INTER.CONST>
1

>  <SCORE.INTER.POLAR>
0

>  <SCORE.INTER.ROT>
0

>  <SCORE.INTER.SOLV>
15.0107

>  <SCORE.INTER.VDW>
-18.229

>  <SCORE.INTER.norm>
-1.11063

>  <SCORE.INTRA>
0

>  <SCORE.INTRA.DIHEDRAL>
0

>  <SCORE.INTRA.DIHEDRAL.0>
0

>  <SCORE.INTRA.POLAR>
0

>  <SCORE.INTRA.POLAR.0>
0

>  <SCORE.INTRA.REPUL>
0

>  <SCORE.INTRA.REPUL.0>
0

>  <SCORE.INTRA.SOLV>
0

>  <SCORE.INTRA.SOLV.lig_0>
-48.6608

>  <SCORE.INTRA.VDW>
0

>  <SCORE.INTRA.VDW.0>
0

>  <SCORE.INTRA.norm>
0

>  <SCORE.RESTR>
0

>  <SCORE.RESTR.CAVITY>
0

>  <SCORE.RESTR.norm>
0

>  <SCORE.SYSTEM>
0

>  <SCORE.SYSTEM.CONST>
0

>  <SCORE.SYSTEM.DIHEDRAL>
0

>  <SCORE.SYSTEM.SOLV>
0

>  <SCORE.SYSTEM.norm>
0

>  <SCORE.heavy>
13

>  <SCORE.norm>
-1.11063

>  <RMSD>
35.072

$$$$
ligand
 OpenBabel11021811483D
libRbt.so/2013.1/901 2013/11/27
 13 14  0  0  0  0  0  0  0  0999 V2000
  -23.1234   39.2320   58.6876 N   0  0  0  0  0  0  0  0  0  0  0  0
  -22.6556   40.2834   56.6753 N   0  0  0  0  0  0  0  0  0  0  0  0
  -22.6695   40.2895   58.0210 C   0  0  0  0  0  0  0  0  0  0  0  0
  -22.2219   41.4056   58.7266 N   0  0  0  0  0  0  0  0  0  0  0  0
  -21.7506   42.5041   58.0047 C   0  0  0  0  0  0  0  0  0  0  0  0
  -21.7333   42.4667   56.6143 C   0  0  0  0  0  0  0  0  0  0  0  0
  -21.3561   43.5064   58.5995 O   0  0  0  0  0  0  0  0  0  0  0  0
  -21.2978   43.5906   55.8867 N   0  0  0  0  0  0  0  0  0  0  0  0
  -21.2074   43.5922   54.3990 C   0  0  2  0  0  0  0  0  0  0  0  0
  -22.2503   42.6164   53.8279 C   0  0  0  0  0  0  0  0  0  0  0  0
  -22.2139   41.3377   55.9662 C   0  0  0  0  0  0  0  0  0  0  0  0
  -22.2206   41.3070   54.5665 N   0  0  0  0  0  0  0  0  0  0  0  0
  -19.7756   43.1358   53.9879 C   0  0  0  0  0  0  0  0  0  0  0  0
  1  3  1  0  0  0  0
  2  3  2  0  0  0  0
  2 11  1  0  0  0  0
  3  4  1  0  0  0  0
  4  5  1  0  0  0  0
  5  6  1  0  0  0  0
  5  7  2  0  0  0  0
  6  8  1  0  0  0  0
  6 11  2  0  0  0  0
  8  9  1  0  0  0  0
  9 10  1  0  0  0  0
  9 13  1  1  0  0  0
 10 12  1  0  0  0  0
 11 12  1  0  0  0  0
M  END
>  <CHROM.1>
-21.85886981,41.97243402,56.44835417,2.28334425,1.09179270,1.46399105

>  <Name>
ligand

>  <RI>
0

>  <Rbt.Current_Directory>
/home/itssahil/PROJECTS/Mol_Feturizer/New_Systems/rnas/3SUX

>  <Rbt.Executable>
rbdock ($Id: //depot/dev/client3/rdock/2013.1/src/exe/rbdock.cxx#4 $)

>  <Rbt.Library>
libRbt.so (2013.1, Build901 2013/11/27)

>  <Rbt.Parameter_File>
/export/apps/rDock/src/rDock_2013.1_src/data/scripts/dock_solv.prm

>  <Rbt.Receptor>
prm/blind_docking_80.prm

>  <SCORE>
-14.4768

>  <SCORE.INTER>
-14.4768

>  <SCORE.INTER.CONST>
1

>  <SCORE.INTER.POLAR>
0

>  <SCORE.INTER.ROT>
0

>  <SCORE.INTER.SOLV>
13.6194

>  <SCORE.INTER.VDW>
-17.791

>  <SCORE.INTER.norm>
-1.1136

>  <SCORE.INTRA>
0

>  <SCORE.INTRA.DIHEDRAL>
0

>  <SCORE.INTRA.DIHEDRAL.0>
0

>  <SCORE.INTRA.POLAR>
0

>  <SCORE.INTRA.POLAR.0>
0

>  <SCORE.INTRA.REPUL>
0

>  <SCORE.INTRA.REPUL.0>
0

>  <SCORE.INTRA.SOLV>
0

>  <SCORE.INTRA.SOLV.lig_0>
-48.6608

>  <SCORE.INTRA.VDW>
0

>  <SCORE.INTRA.VDW.0>
0

>  <SCORE.INTRA.norm>
0

>  <SCORE.RESTR>
0

>  <SCORE.RESTR.CAVITY>
0

>  <SCORE.RESTR.norm>
0

>  <SCORE.SYSTEM>
0

>  <SCORE.SYSTEM.CONST>
0

>  <SCORE.SYSTEM.DIHEDRAL>
0

>  <SCORE.SYSTEM.SOLV>
0

>  <SCORE.SYSTEM.norm>
0

>  <SCORE.heavy>
13

>  <SCORE.norm>
-1.1136

>  <RMSD>
35.077

$$$$
ligand
 OpenBabel11021811483D
libRbt.so/2013.1/901 2013/11/27
 13 14  0  0  0  0  0  0  0  0999 V2000
  -23.1732   39.2524   58.6880 N   0  0  0  0  0  0  0  0  0  0  0  0
  -22.7286   40.3130   56.6752 N   0  0  0  0  0  0  0  0  0  0  0  0
  -22.6952   40.2987   58.0206 C   0  0  0  0  0  0  0  0  0  0  0  0
  -22.1731   41.3825   58.7253 N   0  0  0  0  0  0  0  0  0  0  0  0
  -21.6779   42.4698   58.0026 C   0  0  0  0  0  0  0  0  0  0  0  0
  -21.7108   42.4534   56.6121 C   0  0  0  0  0  0  0  0  0  0  0  0
  -21.2178   43.4441   58.5970 O   0  0  0  0  0  0  0  0  0  0  0  0
  -21.2503   43.5678   55.8853 N   0  0  0  0  0  0  0  0  0  0  0  0
  -21.2119   43.5885   54.3954 C   0  0  2  0  0  0  0  0  0  0  0  0
  -22.3172   42.6695   53.8482 C   0  0  0  0  0  0  0  0  0  0  0  0
  -22.2644   41.3574   55.9657 C   0  0  0  0  0  0  0  0  0  0  0  0
  -22.3213   41.3488   54.5668 N   0  0  0  0  0  0  0  0  0  0  0  0
  -19.8174   43.0748   53.9274 C   0  0  0  0  0  0  0  0  0  0  0  0
  1  3  1  0  0  0  0
  2  3  2  0  0  0  0
  2 11  1  0  0  0  0
  3  4  1  0  0  0  0
  4  5  1  0  0  0  0
  5  6  1  0  0  0  0
  5  7  2  0  0  0  0
  6  8  1  0  0  0  0
  6 11  2  0  0  0  0
  8  9  1  0  0  0  0
  9 10  1  0  0  0  0
  9 13  1  1  0  0  0
 10 12  1  0  0  0  0
 11 12  1  0  0  0  0
M  END
>  <CHROM.1>
-21.86433391,41.96789770,56.44379526,2.20403601,1.04897141,1.54839985

>  <Name>
ligand

>  <RI>
0

>  <Rbt.Current_Directory>
/home/itssahil/PROJECTS/Mol_Feturizer/New_Systems/rnas/3SUX

>  <Rbt.Executable>
rbdock ($Id: //depot/dev/client3/rdock/2013.1/src/exe/rbdock.cxx#4 $)

>  <Rbt.Library>
libRbt.so (2013.1, Build901 2013/11/27)

>  <Rbt.Parameter_File>
/export/apps/rDock/src/rDock_2013.1_src/data/scripts/dock_solv.prm

>  <Rbt.Receptor>
prm/blind_docking_80.prm

>  <SCORE>
-14.4112

>  <SCORE.INTER>
-14.4112

>  <SCORE.INTER.CONST>
1

>  <SCORE.INTER.POLAR>
0

>  <SCORE.INTER.ROT>
0

>  <SCORE.INTER.SOLV>
13.6464

>  <SCORE.INTER.VDW>
-17.7563

>  <SCORE.INTER.norm>
-1.10856

>  <SCORE.INTRA>
0

>  <SCORE.INTRA.DIHEDRAL>
0

>  <SCORE.INTRA.DIHEDRAL.0>
0

>  <SCORE.INTRA.POLAR>
0

>  <SCORE.INTRA.POLAR.0>
0

>  <SCORE.INTRA.REPUL>
0

>  <SCORE.INTRA.REPUL.0>
0

>  <SCORE.INTRA.SOLV>
0

>  <SCORE.INTRA.SOLV.lig_0>
-48.6608

>  <SCORE.INTRA.VDW>
0

>  <SCORE.INTRA.VDW.0>
0

>  <SCORE.INTRA.norm>
0

>  <SCORE.RESTR>
0

>  <SCORE.RESTR.CAVITY>
0

>  <SCORE.RESTR.norm>
0

>  <SCORE.SYSTEM>
0

>  <SCORE.SYSTEM.CONST>
0

>  <SCORE.SYSTEM.DIHEDRAL>
0

>  <SCORE.SYSTEM.SOLV>
0

>  <SCORE.SYSTEM.norm>
0

>  <SCORE.heavy>
13

>  <SCORE.norm>
-1.10856

>  <RMSD>
35.084

$$$$
ligand
 OpenBabel11021811483D
libRbt.so/2013.1/901 2013/11/27
 13 14  0  0  0  0  0  0  0  0999 V2000
  -22.9468   39.7524   59.0987 N   0  0  0  0  0  0  0  0  0  0  0  0
  -22.5216   40.4298   56.9229 N   0  0  0  0  0  0  0  0  0  0  0  0
  -22.5621   40.6940   58.2420 C   0  0  0  0  0  0  0  0  0  0  0  0
  -22.2151   41.9570   58.7200 N   0  0  0  0  0  0  0  0  0  0  0  0
  -21.8152   42.9294   57.8011 C   0  0  0  0  0  0  0  0  0  0  0  0
  -21.7680   42.6262   56.4443 C   0  0  0  0  0  0  0  0  0  0  0  0
  -21.5103   44.0555   58.1923 O   0  0  0  0  0  0  0  0  0  0  0  0
  -21.4055   43.6196   55.5148 N   0  0  0  0  0  0  0  0  0  0  0  0
  -21.2864   43.3415   54.0553 C   0  0  2  0  0  0  0  0  0  0  0  0
  -22.2402   42.1949   53.6795 C   0  0  0  0  0  0  0  0  0  0  0  0
  -22.1480   41.3592   56.0250 C   0  0  0  0  0  0  0  0  0  0  0  0
  -22.1250   41.0589   54.6577 N   0  0  0  0  0  0  0  0  0  0  0  0
  -19.8161   42.9288   53.7467 C   0  0  0  0  0  0  0  0  0  0  0  0
  1  3  1  0  0  0  0
  2  3  2  0  0  0  0
  2 11  1  0  0  0  0
  3  4  1  0  0  0  0
  4  5  1  0  0  0  0
  5  6  1  0  0  0  0
  5  7  2  0  0  0  0
  6  8  1  0  0  0  0
  6 11  2  0  0  0  0
  8  9  1  0  0  0  0
  9 10  1  0  0  0  0
  9 13  1  1  0  0  0
 10 12  1  0  0  0  0
 11 12  1  0  0  0  0
M  END
>  <CHROM.1>
-21.85204034,42.10090955,56.37671636,2.35334054,1.16497009,1.20596465

>  <Name>
ligand

>  <RI>
0

>  <Rbt.Current_Directory>
/home/itssahil/PROJECTS/Mol_Feturizer/New_Systems/rnas/3SUX

>  <Rbt.Executable>
rbdock ($Id: //depot/dev/client3/rdock/2013.1/src/exe/rbdock.cxx#4 $)

>  <Rbt.Library>
libRbt.so (2013.1, Build901 2013/11/27)

>  <Rbt.Parameter_File>
/export/apps/rDock/src/rDock_2013.1_src/data/scripts/dock_solv.prm

>  <Rbt.Receptor>
prm/blind_docking_80.prm

>  <SCORE>
-14.4654

>  <SCORE.INTER>
-14.4654

>  <SCORE.INTER.CONST>
1

>  <SCORE.INTER.POLAR>
0

>  <SCORE.INTER.ROT>
0

>  <SCORE.INTER.SOLV>
15.0201

>  <SCORE.INTER.VDW>
-18.2503

>  <SCORE.INTER.norm>
-1.11272

>  <SCORE.INTRA>
0

>  <SCORE.INTRA.DIHEDRAL>
0

>  <SCORE.INTRA.DIHEDRAL.0>
0

>  <SCORE.INTRA.POLAR>
0

>  <SCORE.INTRA.POLAR.0>
0

>  <SCORE.INTRA.REPUL>
0

>  <SCORE.INTRA.REPUL.0>
0

>  <SCORE.INTRA.SOLV>
0

>  <SCORE.INTRA.SOLV.lig_0>
-48.6608

>  <SCORE.INTRA.VDW>
0

>  <SCORE.INTRA.VDW.0>
0

>  <SCORE.INTRA.norm>
0

>  <SCORE.RESTR>
0

>  <SCORE.RESTR.CAVITY>
0

>  <SCORE.RESTR.norm>
0

>  <SCORE.SYSTEM>
0

>  <SCORE.SYSTEM.CONST>
0

>  <SCORE.SYSTEM.DIHEDRAL>
0

>  <SCORE.SYSTEM.SOLV>
0

>  <SCORE.SYSTEM.norm>
0

>  <SCORE.heavy>
13

>  <SCORE.norm>
-1.11272

>  <RMSD>
35.090

$$$$
ligand
 OpenBabel11021811483D
libRbt.so/2013.1/901 2013/11/27
 13 14  0  0  0  0  0  0  0  0999 V2000
  -23.1423   39.2437   58.6738 N   0  0  0  0  0  0  0  0  0  0  0  0
  -22.6255   40.2890   56.6703 N   0  0  0  0  0  0  0  0  0  0  0  0
  -22.6967   40.3090   58.0141 C   0  0  0  0  0  0  0  0  0  0  0  0
  -22.3177   41.4474   58.7242 N   0  0  0  0  0  0  0  0  0  0  0  0
  -21.8538   42.5536   58.0095 C   0  0  0  0  0  0  0  0  0  0  0  0
  -21.7762   42.5020   56.6216 C   0  0  0  0  0  0  0  0  0  0  0  0
  -21.5193   43.5754   58.6081 O   0  0  0  0  0  0  0  0  0  0  0  0
  -21.3487   43.6323   55.8993 N   0  0  0  0  0  0  0  0  0  0  0  0
  -21.1953   43.6211   54.4168 C   0  0  2  0  0  0  0  0  0  0  0  0
  -22.1791   42.6038   53.8143 C   0  0  0  0  0  0  0  0  0  0  0  0
  -22.1901   41.3502   55.9676 C   0  0  0  0  0  0  0  0  0  0  0  0
  -22.1364   41.3043   54.5693 N   0  0  0  0  0  0  0  0  0  0  0  0
  -19.7325   43.2100   54.0720 C   0  0  0  0  0  0  0  0  0  0  0  0
  1  3  1  0  0  0  0
  2  3  2  0  0  0  0
  2 11  1  0  0  0  0
  3  4  1  0  0  0  0
  4  5  1  0  0  0  0
  5  6  1  0  0  0  0
  5  7  2  0  0  0  0
  6  8  1  0  0  0  0
  6 11  2  0  0  0  0
  8  9  1  0  0  0  0
  9 10  1  0  0  0  0
  9 13  1  1  0  0  0
 10 12  1  0  0  0  0
 11 12  1  0  0  0  0
M  END
>  <CHROM.1>
-21.87772233,42.00193041,56.45655185,2.38859330,1.11894338,1.35844053

>  <Name>
ligand

>  <RI>
0

>  <Rbt.Current_Directory>
/home/itssahil/PROJECTS/Mol_Feturizer/New_Systems/rnas/3SUX

>  <Rbt.Executable>
rbdock ($Id: //depot/dev/client3/rdock/2013.1/src/exe/rbdock.cxx#4 $)

>  <Rbt.Library>
libRbt.so (2013.1, Build901 2013/11/27)

>  <Rbt.Parameter_File>
/export/apps/rDock/src/rDock_2013.1_src/data/scripts/dock_solv.prm

>  <Rbt.Receptor>
prm/blind_docking_80.prm

>  <SCORE>
-14.4446

>  <SCORE.INTER>
-14.4446

>  <SCORE.INTER.CONST>
1

>  <SCORE.INTER.POLAR>
0

>  <SCORE.INTER.ROT>
0

>  <SCORE.INTER.SOLV>
13.778

>  <SCORE.INTER.VDW>
-17.8224

>  <SCORE.INTER.norm>
-1.11112

>  <SCORE.INTRA>
0

>  <SCORE.INTRA.DIHEDRAL>
0

>  <SCORE.INTRA.DIHEDRAL.0>
0

>  <SCORE.INTRA.POLAR>
0

>  <SCORE.INTRA.POLAR.0>
0

>  <SCORE.INTRA.REPUL>
0

>  <SCORE.INTRA.REPUL.0>
0

>  <SCORE.INTRA.SOLV>
0

>  <SCORE.INTRA.SOLV.lig_0>
-48.6608

>  <SCORE.INTRA.VDW>
0

>  <SCORE.INTRA.VDW.0>
0

>  <SCORE.INTRA.norm>
0

>  <SCORE.RESTR>
0

>  <SCORE.RESTR.CAVITY>
0

>  <SCORE.RESTR.norm>
0

>  <SCORE.SYSTEM>
0

>  <SCORE.SYSTEM.CONST>
0

>  <SCORE.SYSTEM.DIHEDRAL>
0

>  <SCORE.SYSTEM.SOLV>
0

>  <SCORE.SYSTEM.norm>
0

>  <SCORE.heavy>
13

>  <SCORE.norm>
-1.11112

>  <RMSD>
35.092

$$$$
ligand
 OpenBabel11021811483D
libRbt.so/2013.1/901 2013/11/27
 13 14  0  0  0  0  0  0  0  0999 V2000
  -20.5530   44.1851   58.4668 N   0  0  0  0  0  0  0  0  0  0  0  0
  -21.6434   42.1395   58.4468 N   0  0  0  0  0  0  0  0  0  0  0  0
  -21.1173   43.1894   57.7894 C   0  0  0  0  0  0  0  0  0  0  0  0
  -21.1704   43.2494   56.3974 N   0  0  0  0  0  0  0  0  0  0  0  0
  -21.7685   42.1924   55.7083 C   0  0  0  0  0  0  0  0  0  0  0  0
  -22.2918   41.1119   56.4109 C   0  0  0  0  0  0  0  0  0  0  0  0
  -21.8370   42.2206   54.4800 O   0  0  0  0  0  0  0  0  0  0  0  0
  -22.9323   40.0671   55.7179 N   0  0  0  0  0  0  0  0  0  0  0  0
  -23.4657   38.8596   56.4100 C   0  0  2  0  0  0  0  0  0  0  0  0
  -23.8609   39.2344   57.8485 C   0  0  0  0  0  0  0  0  0  0  0  0
  -22.2315   41.1188   57.7972 C   0  0  0  0  0  0  0  0  0  0  0  0
  -22.7793   40.0442   58.5081 N   0  0  0  0  0  0  0  0  0  0  0  0
  -22.3531   37.7691   56.4345 C   0  0  0  0  0  0  0  0  0  0  0  0
  1  3  1  0  0  0  0
  2  3  2  0  0  0  0
  2 11  1  0  0  0  0
  3  4  1  0  0  0  0
  4  5  1  0  0  0  0
  5  6  1  0  0  0  0
  5  7  2  0  0  0  0
  6  8  1  0  0  0  0
  6 11  2  0  0  0  0
  8  9  1  0  0  0  0
  9 10  1  0  0  0  0
  9 13  1  1  0  0  0
 10 12  1  0  0  0  0
 11 12  1  0  0  0  0
M  END
>  <CHROM.1>
-22.15825073,41.15519934,56.92847728,0.11695195,1.15250639,1.55882273

>  <Name>
ligand

>  <RI>
0

>  <Rbt.Current_Directory>
/home/itssahil/PROJECTS/Mol_Feturizer/New_Systems/rnas/3SUX

>  <Rbt.Executable>
rbdock ($Id: //depot/dev/client3/rdock/2013.1/src/exe/rbdock.cxx#4 $)

>  <Rbt.Library>
libRbt.so (2013.1, Build901 2013/11/27)

>  <Rbt.Parameter_File>
/export/apps/rDock/src/rDock_2013.1_src/data/scripts/dock_solv.prm

>  <Rbt.Receptor>
prm/blind_docking_80.prm

>  <SCORE>
-10.2861

>  <SCORE.INTER>
-10.2861

>  <SCORE.INTER.CONST>
1

>  <SCORE.INTER.POLAR>
0

>  <SCORE.INTER.ROT>
0

>  <SCORE.INTER.SOLV>
20.5245

>  <SCORE.INTER.VDW>
-17.2989

>  <SCORE.INTER.norm>
-0.791236

>  <SCORE.INTRA>
0

>  <SCORE.INTRA.DIHEDRAL>
0

>  <SCORE.INTRA.DIHEDRAL.0>
0

>  <SCORE.INTRA.POLAR>
0

>  <SCORE.INTRA.POLAR.0>
0

>  <SCORE.INTRA.REPUL>
0

>  <SCORE.INTRA.REPUL.0>
0

>  <SCORE.INTRA.SOLV>
0

>  <SCORE.INTRA.SOLV.lig_0>
-48.6608

>  <SCORE.INTRA.VDW>
0

>  <SCORE.INTRA.VDW.0>
0

>  <SCORE.INTRA.norm>
0

>  <SCORE.RESTR>
0

>  <SCORE.RESTR.CAVITY>
0

>  <SCORE.RESTR.norm>
0

>  <SCORE.SYSTEM>
0

>  <SCORE.SYSTEM.CONST>
0

>  <SCORE.SYSTEM.DIHEDRAL>
0

>  <SCORE.SYSTEM.SOLV>
0

>  <SCORE.SYSTEM.norm>
0

>  <SCORE.heavy>
13

>  <SCORE.norm>
-0.791236

>  <RMSD>
35.099

$$$$
ligand
 OpenBabel11021811483D
libRbt.so/2013.1/901 2013/11/27
 13 14  0  0  0  0  0  0  0  0999 V2000
  -20.8463   43.3433   53.8358 N   0  0  0  0  0  0  0  0  0  0  0  0
  -21.5397   41.3087   54.7036 N   0  0  0  0  0  0  0  0  0  0  0  0
  -21.2925   42.6223   54.8604 C   0  0  0  0  0  0  0  0  0  0  0  0
  -21.4884   43.2348   56.0974 N   0  0  0  0  0  0  0  0  0  0  0  0
  -21.9568   42.4570   57.1583 C   0  0  0  0  0  0  0  0  0  0  0  0
  -22.2185   41.1044   56.9661 C   0  0  0  0  0  0  0  0  0  0  0  0
  -22.1322   42.9679   58.2639 O   0  0  0  0  0  0  0  0  0  0  0  0
  -22.6501   40.3119   58.0467 N   0  0  0  0  0  0  0  0  0  0  0  0
  -22.9961   38.8705   57.8913 C   0  0  2  0  0  0  0  0  0  0  0  0
  -22.1790   38.2765   56.7314 C   0  0  0  0  0  0  0  0  0  0  0  0
  -21.9817   40.5445   55.7187 C   0  0  0  0  0  0  0  0  0  0  0  0
  -22.2208   39.1781   55.5289 N   0  0  0  0  0  0  0  0  0  0  0  0
  -24.5182   38.7560   57.5786 C   0  0  0  0  0  0  0  0  0  0  0  0
  1  3  1  0  0  0  0
  2  3  2  0  0  0  0
  2 11  1  0  0  0  0
  3  4  1  0  0  0  0
  4  5  1  0  0  0  0
  5  6  1  0  0  0  0
  5  7  2  0  0  0  0
  6  8  1  0  0  0  0
  6 11  2  0  0  0  0
  8  9  1  0  0  0  0
  9 10  1  0  0  0  0
  9 13  1  6  0  0  0
 10 12  1  0  0  0  0
 11 12  1  0  0  0  0
M  END
>  <CHROM.1>
-22.17750541,40.98797596,56.44419141,-0.40038173,-1.14225855,-2.49684542

>  <Name>
ligand

>  <RI>
0

>  <Rbt.Current_Directory>
/home/itssahil/PROJECTS/Mol_Feturizer/New_Systems/rnas/3SUX

>  <Rbt.Executable>
rbdock ($Id: //depot/dev/client3/rdock/2013.1/src/exe/rbdock.cxx#4 $)

>  <Rbt.Library>
libRbt.so (2013.1, Build901 2013/11/27)

>  <Rbt.Parameter_File>
/export/apps/rDock/src/rDock_2013.1_src/data/scripts/dock_solv.prm

>  <Rbt.Receptor>
prm/blind_docking_100.prm

>  <SCORE>
-11.3489

>  <SCORE.INTER>
-11.3503

>  <SCORE.INTER.CONST>
1

>  <SCORE.INTER.POLAR>
0

>  <SCORE.INTER.ROT>
0

>  <SCORE.INTER.SOLV>
11.4655

>  <SCORE.INTER.VDW>
-14.9887

>  <SCORE.INTER.norm>
-0.873098

>  <SCORE.INTRA>
0

>  <SCORE.INTRA.DIHEDRAL>
0

>  <SCORE.INTRA.DIHEDRAL.0>
0

>  <SCORE.INTRA.POLAR>
0

>  <SCORE.INTRA.POLAR.0>
0

>  <SCORE.INTRA.REPUL>
0

>  <SCORE.INTRA.REPUL.0>
0

>  <SCORE.INTRA.SOLV>
0

>  <SCORE.INTRA.SOLV.lig_0>
-48.6608

>  <SCORE.INTRA.VDW>
0

>  <SCORE.INTRA.VDW.0>
0

>  <SCORE.INTRA.norm>
0

>  <SCORE.RESTR>
0.00135817

>  <SCORE.RESTR.CAVITY>
0.00135817

>  <SCORE.RESTR.norm>
0.000104475

>  <SCORE.SYSTEM>
0

>  <SCORE.SYSTEM.CONST>
0

>  <SCORE.SYSTEM.DIHEDRAL>
0

>  <SCORE.SYSTEM.SOLV>
0

>  <SCORE.SYSTEM.norm>
0

>  <SCORE.heavy>
13

>  <SCORE.norm>
-0.872994

>  <RMSD>
35.184

$$$$
ligand
 OpenBabel11021811483D
libRbt.so/2013.1/901 2013/11/27
 13 14  0  0  0  0  0  0  0  0999 V2000
  -20.6956   43.9663   58.6371 N   0  0  0  0  0  0  0  0  0  0  0  0
  -21.7692   41.9198   58.4557 N   0  0  0  0  0  0  0  0  0  0  0  0
  -21.2512   43.0221   57.8831 C   0  0  0  0  0  0  0  0  0  0  0  0
  -21.3037   43.1903   56.5000 N   0  0  0  0  0  0  0  0  0  0  0  0
  -21.8926   42.1857   55.7295 C   0  0  0  0  0  0  0  0  0  0  0  0
  -22.4076   41.0493   56.3448 C   0  0  0  0  0  0  0  0  0  0  0  0
  -21.9605   42.3093   54.5071 O   0  0  0  0  0  0  0  0  0  0  0  0
  -23.0390   40.0567   55.5713 N   0  0  0  0  0  0  0  0  0  0  0  0
  -23.5631   38.7946   56.1662 C   0  0  2  0  0  0  0  0  0  0  0  0
  -23.9624   39.0525   57.6290 C   0  0  0  0  0  0  0  0  0  0  0  0
  -22.3484   40.9483   57.7275 C   0  0  0  0  0  0  0  0  0  0  0  0
  -22.8880   39.8170   58.3514 N   0  0  0  0  0  0  0  0  0  0  0  0
  -22.4416   37.7146   56.1069 C   0  0  0  0  0  0  0  0  0  0  0  0
  1  3  1  0  0  0  0
  2  3  2  0  0  0  0
  2 11  1  0  0  0  0
  3  4  1  0  0  0  0
  4  5  1  0  0  0  0
  5  6  1  0  0  0  0
  5  7  2  0  0  0  0
  6  8  1  0  0  0  0
  6 11  2  0  0  0  0
  8  9  1  0  0  0  0
  9 10  1  0  0  0  0
  9 13  1  1  0  0  0
 10 12  1  0  0  0  0
 11 12  1  0  0  0  0
M  END
>  <CHROM.1>
-22.27482317,41.05307980,56.86434721,0.11910613,1.16066585,1.63512593

>  <Name>
ligand

>  <RI>
0

>  <Rbt.Current_Directory>
/home/itssahil/PROJECTS/Mol_Feturizer/New_Systems/rnas/3SUX

>  <Rbt.Executable>
rbdock ($Id: //depot/dev/client3/rdock/2013.1/src/exe/rbdock.cxx#4 $)

>  <Rbt.Library>
libRbt.so (2013.1, Build901 2013/11/27)

>  <Rbt.Parameter_File>
/export/apps/rDock/src/rDock_2013.1_src/data/scripts/dock_solv.prm

>  <Rbt.Receptor>
prm/blind_docking_80.prm

>  <SCORE>
-10.3135

>  <SCORE.INTER>
-10.3135

>  <SCORE.INTER.CONST>
1

>  <SCORE.INTER.POLAR>
0

>  <SCORE.INTER.ROT>
0

>  <SCORE.INTER.SOLV>
19.6261

>  <SCORE.INTER.VDW>
-17.0177

>  <SCORE.INTER.norm>
-0.79335

>  <SCORE.INTRA>
0

>  <SCORE.INTRA.DIHEDRAL>
0

>  <SCORE.INTRA.DIHEDRAL.0>
0

>  <SCORE.INTRA.POLAR>
0

>  <SCORE.INTRA.POLAR.0>
0

>  <SCORE.INTRA.REPUL>
0

>  <SCORE.INTRA.REPUL.0>
0

>  <SCORE.INTRA.SOLV>
0

>  <SCORE.INTRA.SOLV.lig_0>
-48.6608

>  <SCORE.INTRA.VDW>
0

>  <SCORE.INTRA.VDW.0>
0

>  <SCORE.INTRA.norm>
0

>  <SCORE.RESTR>
0

>  <SCORE.RESTR.CAVITY>
0

>  <SCORE.RESTR.norm>
0

>  <SCORE.SYSTEM>
0

>  <SCORE.SYSTEM.CONST>
0

>  <SCORE.SYSTEM.DIHEDRAL>
0

>  <SCORE.SYSTEM.SOLV>
0

>  <SCORE.SYSTEM.norm>
0

>  <SCORE.heavy>
13

>  <SCORE.norm>
-0.79335

>  <RMSD>
35.239

$$$$
ligand
 OpenBabel11021811483D
libRbt.so/2013.1/901 2013/11/27
 13 14  0  0  0  0  0  0  0  0999 V2000
  -20.6968   43.4561   54.6038 N   0  0  0  0  0  0  0  0  0  0  0  0
  -21.4862   41.3440   55.1421 N   0  0  0  0  0  0  0  0  0  0  0  0
  -21.2645   42.6286   55.4765 C   0  0  0  0  0  0  0  0  0  0  0  0
  -21.6147   43.0992   56.7414 N   0  0  0  0  0  0  0  0  0  0  0  0
  -22.2087   42.2115   57.6407 C   0  0  0  0  0  0  0  0  0  0  0  0
  -22.4402   40.8923   57.2650 C   0  0  0  0  0  0  0  0  0  0  0  0
  -22.5218   42.5958   58.7669 O   0  0  0  0  0  0  0  0  0  0  0  0
  -23.0001   39.9873   58.1867 N   0  0  0  0  0  0  0  0  0  0  0  0
  -23.3195   38.5766   57.8267 C   0  0  2  0  0  0  0  0  0  0  0  0
  -22.3626   38.1089   56.7170 C   0  0  0  0  0  0  0  0  0  0  0  0
  -22.0484   40.4747   56.0010 C   0  0  0  0  0  0  0  0  0  0  0  0
  -22.2576   39.1413   55.6289 N   0  0  0  0  0  0  0  0  0  0  0  0
  -24.7905   38.5149   57.3170 C   0  0  0  0  0  0  0  0  0  0  0  0
  1  3  1  0  0  0  0
  2  3  2  0  0  0  0
  2 11  1  0  0  0  0
  3  4  1  0  0  0  0
  4  5  1  0  0  0  0
  5  6  1  0  0  0  0
  5  7  2  0  0  0  0
  6  8  1  0  0  0  0
  6 11  2  0  0  0  0
  8  9  1  0  0  0  0
  9 10  1  0  0  0  0
  9 13  1  6  0  0  0
 10 12  1  0  0  0  0
 11 12  1  0  0  0  0
M  END
>  <CHROM.1>
-22.33423362,40.83525273,56.74238813,-0.55343326,-1.03931297,-2.51866975

>  <Name>
ligand

>  <RI>
0

>  <Rbt.Current_Directory>
/home/itssahil/PROJECTS/Mol_Feturizer/New_Systems/rnas/3SUX

>  <Rbt.Executable>
rbdock ($Id: //depot/dev/client3/rdock/2013.1/src/exe/rbdock.cxx#4 $)

>  <Rbt.Library>
libRbt.so (2013.1, Build901 2013/11/27)

>  <Rbt.Parameter_File>
/export/apps/rDock/src/rDock_2013.1_src/data/scripts/dock_solv.prm

>  <Rbt.Receptor>
prm/blind_docking_100.prm

>  <SCORE>
-11.4111

>  <SCORE.INTER>
-11.4111

>  <SCORE.INTER.CONST>
1

>  <SCORE.INTER.POLAR>
0

>  <SCORE.INTER.ROT>
0

>  <SCORE.INTER.SOLV>
14.7212

>  <SCORE.INTER.VDW>
-16.1145

>  <SCORE.INTER.norm>
-0.877776

>  <SCORE.INTRA>
0

>  <SCORE.INTRA.DIHEDRAL>
0

>  <SCORE.INTRA.DIHEDRAL.0>
0

>  <SCORE.INTRA.POLAR>
0

>  <SCORE.INTRA.POLAR.0>
0

>  <SCORE.INTRA.REPUL>
0

>  <SCORE.INTRA.REPUL.0>
0

>  <SCORE.INTRA.SOLV>
0

>  <SCORE.INTRA.SOLV.lig_0>
-48.6608

>  <SCORE.INTRA.VDW>
0

>  <SCORE.INTRA.VDW.0>
0

>  <SCORE.INTRA.norm>
0

>  <SCORE.RESTR>
0

>  <SCORE.RESTR.CAVITY>
0

>  <SCORE.RESTR.norm>
0

>  <SCORE.SYSTEM>
0

>  <SCORE.SYSTEM.CONST>
0

>  <SCORE.SYSTEM.DIHEDRAL>
0

>  <SCORE.SYSTEM.SOLV>
0

>  <SCORE.SYSTEM.norm>
0

>  <SCORE.heavy>
13

>  <SCORE.norm>
-0.877776

>  <RMSD>
35.244

$$$$
ligand
 OpenBabel11021811483D
libRbt.so/2013.1/901 2013/11/27
 13 14  0  0  0  0  0  0  0  0999 V2000
  -20.8539   43.3532   53.8576 N   0  0  0  0  0  0  0  0  0  0  0  0
  -21.5652   41.2993   54.6634 N   0  0  0  0  0  0  0  0  0  0  0  0
  -21.3146   42.6073   54.8576 C   0  0  0  0  0  0  0  0  0  0  0  0
  -21.5224   43.1878   56.1081 N   0  0  0  0  0  0  0  0  0  0  0  0
  -22.0059   42.3842   57.1426 C   0  0  0  0  0  0  0  0  0  0  0  0
  -22.2707   41.0382   56.9118 C   0  0  0  0  0  0  0  0  0  0  0  0
  -22.1920   42.8665   58.2592 O   0  0  0  0  0  0  0  0  0  0  0  0
  -22.7177   40.2193   57.9661 N   0  0  0  0  0  0  0  0  0  0  0  0
  -23.0675   38.7840   57.7687 C   0  0  2  0  0  0  0  0  0  0  0  0
  -22.2395   38.2174   56.6029 C   0  0  0  0  0  0  0  0  0  0  0  0
  -22.0217   40.5105   55.6528 C   0  0  0  0  0  0  0  0  0  0  0  0
  -22.2640   39.1506   55.4242 N   0  0  0  0  0  0  0  0  0  0  0  0
  -24.5863   38.6842   57.4358 C   0  0  0  0  0  0  0  0  0  0  0  0
  1  3  1  0  0  0  0
  2  3  2  0  0  0  0
  2 11  1  0  0  0  0
  3  4  1  0  0  0  0
  4  5  1  0  0  0  0
  5  6  1  0  0  0  0
  5  7  2  0  0  0  0
  6  8  1  0  0  0  0
  6 11  2  0  0  0  0
  8  9  1  0  0  0  0
  9 10  1  0  0  0  0
  9 13  1  6  0  0  0
 10 12  1  0  0  0  0
 11 12  1  0  0  0  0
M  END
>  <CHROM.1>
-22.22413795,40.93546610,56.38748154,-0.40928847,-1.13072583,-2.47852462

>  <Name>
ligand

>  <RI>
0

>  <Rbt.Current_Directory>
/home/itssahil/PROJECTS/Mol_Feturizer/New_Systems/rnas/3SUX

>  <Rbt.Executable>
rbdock ($Id: //depot/dev/client3/rdock/2013.1/src/exe/rbdock.cxx#4 $)

>  <Rbt.Library>
libRbt.so (2013.1, Build901 2013/11/27)

>  <Rbt.Parameter_File>
/export/apps/rDock/src/rDock_2013.1_src/data/scripts/dock_solv.prm

>  <Rbt.Receptor>
prm/blind_docking_100.prm

>  <SCORE>
-11.3412

>  <SCORE.INTER>
-11.3416

>  <SCORE.INTER.CONST>
1

>  <SCORE.INTER.POLAR>
0

>  <SCORE.INTER.ROT>
0

>  <SCORE.INTER.SOLV>
11.2868

>  <SCORE.INTER.VDW>
-14.9233

>  <SCORE.INTER.norm>
-0.872432

>  <SCORE.INTRA>
0

>  <SCORE.INTRA.DIHEDRAL>
0

>  <SCORE.INTRA.DIHEDRAL.0>
0

>  <SCORE.INTRA.POLAR>
0

>  <SCORE.INTRA.POLAR.0>
0

>  <SCORE.INTRA.REPUL>
0

>  <SCORE.INTRA.REPUL.0>
0

>  <SCORE.INTRA.SOLV>
0

>  <SCORE.INTRA.SOLV.lig_0>
-48.6608

>  <SCORE.INTRA.VDW>
0

>  <SCORE.INTRA.VDW.0>
0

>  <SCORE.INTRA.norm>
0

>  <SCORE.RESTR>
0.000403611

>  <SCORE.RESTR.CAVITY>
0.000403611

>  <SCORE.RESTR.norm>
3.1047e-05

>  <SCORE.SYSTEM>
0

>  <SCORE.SYSTEM.CONST>
0

>  <SCORE.SYSTEM.DIHEDRAL>
0

>  <SCORE.SYSTEM.SOLV>
0

>  <SCORE.SYSTEM.norm>
0

>  <SCORE.heavy>
13

>  <SCORE.norm>
-0.872401

>  <RMSD>
35.250

$$$$
ligand
 OpenBabel11021811483D
libRbt.so/2013.1/901 2013/11/27
 13 14  0  0  0  0  0  0  0  0999 V2000
  -20.7057   43.4550   54.6056 N   0  0  0  0  0  0  0  0  0  0  0  0
  -21.4877   41.3408   55.1465 N   0  0  0  0  0  0  0  0  0  0  0  0
  -21.2745   42.6277   55.4778 C   0  0  0  0  0  0  0  0  0  0  0  0
  -21.6346   43.1009   56.7389 N   0  0  0  0  0  0  0  0  0  0  0  0
  -22.2295   42.2133   57.6378 C   0  0  0  0  0  0  0  0  0  0  0  0
  -22.4521   40.8916   57.2653 C   0  0  0  0  0  0  0  0  0  0  0  0
  -22.5512   42.5999   58.7608 O   0  0  0  0  0  0  0  0  0  0  0  0
  -23.0130   39.9870   58.1868 N   0  0  0  0  0  0  0  0  0  0  0  0
  -23.3230   38.5735   57.8298 C   0  0  2  0  0  0  0  0  0  0  0  0
  -22.3573   38.1068   56.7274 C   0  0  0  0  0  0  0  0  0  0  0  0
  -22.0506   40.4716   56.0051 C   0  0  0  0  0  0  0  0  0  0  0  0
  -22.2509   39.1359   55.6364 N   0  0  0  0  0  0  0  0  0  0  0  0
  -24.7907   38.5026   57.3116 C   0  0  0  0  0  0  0  0  0  0  0  0
  1  3  1  0  0  0  0
  2  3  2  0  0  0  0
  2 11  1  0  0  0  0
  3  4  1  0  0  0  0
  4  5  1  0  0  0  0
  5  6  1  0  0  0  0
  5  7  2  0  0  0  0
  6  8  1  0  0  0  0
  6 11  2  0  0  0  0
  8  9  1  0  0  0  0
  9 10  1  0  0  0  0
  9 13  1  6  0  0  0
 10 12  1  0  0  0  0
 11 12  1  0  0  0  0
M  END
>  <CHROM.1>
-22.34272675,40.83333372,56.74351765,-0.56833653,-1.03733850,-2.53497931

>  <Name>
ligand

>  <RI>
0

>  <Rbt.Current_Directory>
/home/itssahil/PROJECTS/Mol_Feturizer/New_Systems/rnas/3SUX

>  <Rbt.Executable>
rbdock ($Id: //depot/dev/client3/rdock/2013.1/src/exe/rbdock.cxx#4 $)

>  <Rbt.Library>
libRbt.so (2013.1, Build901 2013/11/27)

>  <Rbt.Parameter_File>
/export/apps/rDock/src/rDock_2013.1_src/data/scripts/dock_solv.prm

>  <Rbt.Receptor>
prm/blind_docking_80.prm

>  <SCORE>
-11.3847

>  <SCORE.INTER>
-11.3847

>  <SCORE.INTER.CONST>
1

>  <SCORE.INTER.POLAR>
0

>  <SCORE.INTER.ROT>
0

>  <SCORE.INTER.SOLV>
14.7475

>  <SCORE.INTER.VDW>
-16.1056

>  <SCORE.INTER.norm>
-0.875742

>  <SCORE.INTRA>
0

>  <SCORE.INTRA.DIHEDRAL>
0

>  <SCORE.INTRA.DIHEDRAL.0>
0

>  <SCORE.INTRA.POLAR>
0

>  <SCORE.INTRA.POLAR.0>
0

>  <SCORE.INTRA.REPUL>
0

>  <SCORE.INTRA.REPUL.0>
0

>  <SCORE.INTRA.SOLV>
0

>  <SCORE.INTRA.SOLV.lig_0>
-48.6608

>  <SCORE.INTRA.VDW>
0

>  <SCORE.INTRA.VDW.0>
0

>  <SCORE.INTRA.norm>
0

>  <SCORE.RESTR>
0

>  <SCORE.RESTR.CAVITY>
0

>  <SCORE.RESTR.norm>
0

>  <SCORE.SYSTEM>
0

>  <SCORE.SYSTEM.CONST>
0

>  <SCORE.SYSTEM.DIHEDRAL>
0

>  <SCORE.SYSTEM.SOLV>
0

>  <SCORE.SYSTEM.norm>
0

>  <SCORE.heavy>
13

>  <SCORE.norm>
-0.875742

>  <RMSD>
35.252

$$$$
ligand
 OpenBabel11021811483D
libRbt.so/2013.1/901 2013/11/27
 13 14  0  0  0  0  0  0  0  0999 V2000
  -22.8109   40.7429   59.5651 N   0  0  0  0  0  0  0  0  0  0  0  0
  -21.9455   42.0470   57.8551 N   0  0  0  0  0  0  0  0  0  0  0  0
  -22.5143   40.9031   58.2787 C   0  0  0  0  0  0  0  0  0  0  0  0
  -22.7849   39.8737   57.3782 N   0  0  0  0  0  0  0  0  0  0  0  0
  -22.4638   40.0650   56.0328 C   0  0  0  0  0  0  0  0  0  0  0  0
  -21.8898   41.2625   55.6185 C   0  0  0  0  0  0  0  0  0  0  0  0
  -22.6838   39.1716   55.2157 O   0  0  0  0  0  0  0  0  0  0  0  0
  -21.5275   41.4381   54.2694 N   0  0  0  0  0  0  0  0  0  0  0  0
  -20.9577   42.7161   53.7559 C   0  0  2  0  0  0  0  0  0  0  0  0
  -20.2030   43.4262   54.8927 C   0  0  0  0  0  0  0  0  0  0  0  0
  -21.6215   42.2419   56.5642 C   0  0  0  0  0  0  0  0  0  0  0  0
  -21.0213   43.4384   56.1540 N   0  0  0  0  0  0  0  0  0  0  0  0
  -22.1272   43.6156   53.2552 C   0  0  0  0  0  0  0  0  0  0  0  0
  1  3  1  0  0  0  0
  2  3  2  0  0  0  0
  2 11  1  0  0  0  0
  3  4  1  0  0  0  0
  4  5  1  0  0  0  0
  5  6  1  0  0  0  0
  5  7  2  0  0  0  0
  6  8  1  0  0  0  0
  6 11  2  0  0  0  0
  8  9  1  0  0  0  0
  9 10  1  0  0  0  0
  9 13  1  1  0  0  0
 10 12  1  0  0  0  0
 11 12  1  0  0  0  0
M  END
>  <CHROM.1>
-21.89337938,41.61137272,56.02574611,-2.37805217,-1.16777962,-1.76367608

>  <Name>
ligand

>  <RI>
0

>  <Rbt.Current_Directory>
/home/itssahil/PROJECTS/Mol_Feturizer/New_Systems/rnas/3SUX

>  <Rbt.Executable>
rbdock ($Id: //depot/dev/client3/rdock/2013.1/src/exe/rbdock.cxx#4 $)

>  <Rbt.Library>
libRbt.so (2013.1, Build901 2013/11/27)

>  <Rbt.Parameter_File>
/export/apps/rDock/src/rDock_2013.1_src/data/scripts/dock_solv.prm

>  <Rbt.Receptor>
prm/blind_docking_80.prm

>  <SCORE>
-10.4089

>  <SCORE.INTER>
-10.4089

>  <SCORE.INTER.CONST>
1

>  <SCORE.INTER.POLAR>
0

>  <SCORE.INTER.ROT>
0

>  <SCORE.INTER.SOLV>
18.9959

>  <SCORE.INTER.VDW>
-16.8712

>  <SCORE.INTER.norm>
-0.800682

>  <SCORE.INTRA>
0

>  <SCORE.INTRA.DIHEDRAL>
0

>  <SCORE.INTRA.DIHEDRAL.0>
0

>  <SCORE.INTRA.POLAR>
0

>  <SCORE.INTRA.POLAR.0>
0

>  <SCORE.INTRA.REPUL>
0

>  <SCORE.INTRA.REPUL.0>
0

>  <SCORE.INTRA.SOLV>
0

>  <SCORE.INTRA.SOLV.lig_0>
-48.6608

>  <SCORE.INTRA.VDW>
0

>  <SCORE.INTRA.VDW.0>
0

>  <SCORE.INTRA.norm>
0

>  <SCORE.RESTR>
0

>  <SCORE.RESTR.CAVITY>
0

>  <SCORE.RESTR.norm>
0

>  <SCORE.SYSTEM>
0

>  <SCORE.SYSTEM.CONST>
0

>  <SCORE.SYSTEM.DIHEDRAL>
0

>  <SCORE.SYSTEM.SOLV>
0

>  <SCORE.SYSTEM.norm>
0

>  <SCORE.heavy>
13

>  <SCORE.norm>
-0.800682

>  <RMSD>
35.300

$$$$
ligand
 OpenBabel11021811483D
libRbt.so/2013.1/901 2013/11/27
 13 14  0  0  0  0  0  0  0  0999 V2000
  -22.2873   40.9516   59.2097 N   0  0  0  0  0  0  0  0  0  0  0  0
  -21.4375   42.2234   57.4679 N   0  0  0  0  0  0  0  0  0  0  0  0
  -22.1933   41.1999   57.9066 C   0  0  0  0  0  0  0  0  0  0  0  0
  -22.8719   40.3848   57.0016 N   0  0  0  0  0  0  0  0  0  0  0  0
  -22.7572   40.6648   55.6384 C   0  0  0  0  0  0  0  0  0  0  0  0
  -21.9813   41.7376   55.2119 C   0  0  0  0  0  0  0  0  0  0  0  0
  -23.3384   39.9584   54.8153 O   0  0  0  0  0  0  0  0  0  0  0  0
  -21.8320   41.9933   53.8355 N   0  0  0  0  0  0  0  0  0  0  0  0
  -21.0572   43.1573   53.3194 C   0  0  2  0  0  0  0  0  0  0  0  0
  -19.9575   43.5214   54.3311 C   0  0  0  0  0  0  0  0  0  0  0  0
  -21.3095   42.4993   56.1575 C   0  0  0  0  0  0  0  0  0  0  0  0
  -20.5081   43.5646   55.7296 N   0  0  0  0  0  0  0  0  0  0  0  0
  -22.0300   44.3611   53.1398 C   0  0  0  0  0  0  0  0  0  0  0  0
  1  3  1  0  0  0  0
  2  3  2  0  0  0  0
  2 11  1  0  0  0  0
  3  4  1  0  0  0  0
  4  5  1  0  0  0  0
  5  6  1  0  0  0  0
  5  7  2  0  0  0  0
  6  8  1  0  0  0  0
  6 11  2  0  0  0  0
  8  9  1  0  0  0  0
  9 10  1  0  0  0  0
  9 13  1  1  0  0  0
 10 12  1  0  0  0  0
 11 12  1  0  0  0  0
M  END
>  <CHROM.1>
-21.82371898,42.02316558,55.63758626,-2.00534473,-0.91130112,-1.33310290

>  <Name>
ligand

>  <RI>
0

>  <Rbt.Current_Directory>
/home/itssahil/PROJECTS/Mol_Feturizer/New_Systems/rnas/3SUX

>  <Rbt.Executable>
rbdock ($Id: //depot/dev/client3/rdock/2013.1/src/exe/rbdock.cxx#4 $)

>  <Rbt.Library>
libRbt.so (2013.1, Build901 2013/11/27)

>  <Rbt.Parameter_File>
/export/apps/rDock/src/rDock_2013.1_src/data/scripts/dock_solv.prm

>  <Rbt.Receptor>
prm/blind_docking_100.prm

>  <SCORE>
-9.67512

>  <SCORE.INTER>
-9.6752

>  <SCORE.INTER.CONST>
1

>  <SCORE.INTER.POLAR>
0

>  <SCORE.INTER.ROT>
0

>  <SCORE.INTER.SOLV>
18.0699

>  <SCORE.INTER.VDW>
-16.0734

>  <SCORE.INTER.norm>
-0.744246

>  <SCORE.INTRA>
0

>  <SCORE.INTRA.DIHEDRAL>
0

>  <SCORE.INTRA.DIHEDRAL.0>
0

>  <SCORE.INTRA.POLAR>
0

>  <SCORE.INTRA.POLAR.0>
0

>  <SCORE.INTRA.REPUL>
0

>  <SCORE.INTRA.REPUL.0>
0

>  <SCORE.INTRA.SOLV>
0

>  <SCORE.INTRA.SOLV.lig_0>
-48.6608

>  <SCORE.INTRA.VDW>
0

>  <SCORE.INTRA.VDW.0>
0

>  <SCORE.INTRA.norm>
0

>  <SCORE.RESTR>
8.07188e-05

>  <SCORE.RESTR.CAVITY>
8.07188e-05

>  <SCORE.RESTR.norm>
6.20914e-06

>  <SCORE.SYSTEM>
0

>  <SCORE.SYSTEM.CONST>
0

>  <SCORE.SYSTEM.DIHEDRAL>
0

>  <SCORE.SYSTEM.SOLV>
0

>  <SCORE.SYSTEM.norm>
0

>  <SCORE.heavy>
13

>  <SCORE.norm>
-0.74424

>  <RMSD>
35.353

$$$$
ligand
 OpenBabel11021811483D
libRbt.so/2013.1/901 2013/11/27
 13 14  0  0  0  0  0  0  0  0999 V2000
  -21.1913   43.6037   58.3104 N   0  0  0  0  0  0  0  0  0  0  0  0
  -22.2507   41.5899   57.8678 N   0  0  0  0  0  0  0  0  0  0  0  0
  -21.4731   42.6132   57.4688 C   0  0  0  0  0  0  0  0  0  0  0  0
  -20.9680   42.6513   56.1698 N   0  0  0  0  0  0  0  0  0  0  0  0
  -21.2782   41.6004   55.3043 C   0  0  0  0  0  0  0  0  0  0  0  0
  -22.0722   40.5471   55.7461 C   0  0  0  0  0  0  0  0  0  0  0  0
  -20.8532   41.6099   54.1495 O   0  0  0  0  0  0  0  0  0  0  0  0
  -22.4194   39.5094   54.8602 N   0  0  0  0  0  0  0  0  0  0  0  0
  -23.2228   38.3294   55.2888 C   0  0  2  0  0  0  0  0  0  0  0  0
  -24.1433   38.7394   56.4509 C   0  0  0  0  0  0  0  0  0  0  0  0
  -22.5663   40.5755   57.0425 C   0  0  0  0  0  0  0  0  0  0  0  0
  -23.3859   39.5291   57.4821 N   0  0  0  0  0  0  0  0  0  0  0  0
  -22.2474   37.2083   55.7573 C   0  0  0  0  0  0  0  0  0  0  0  0
  1  3  1  0  0  0  0
  2  3  2  0  0  0  0
  2 11  1  0  0  0  0
  3  4  1  0  0  0  0
  4  5  1  0  0  0  0
  5  6  1  0  0  0  0
  5  7  2  0  0  0  0
  6  8  1  0  0  0  0
  6 11  2  0  0  0  0
  8  9  1  0  0  0  0
  9 10  1  0  0  0  0
  9 13  1  1  0  0  0
 10 12  1  0  0  0  0
 11 12  1  0  0  0  0
M  END
>  <CHROM.1>
-22.15350796,40.59526911,56.27398383,0.88871053,0.96692450,0.86412995

>  <Name>
ligand

>  <RI>
0

>  <Rbt.Current_Directory>
/home/itssahil/PROJECTS/Mol_Feturizer/New_Systems/rnas/3SUX

>  <Rbt.Executable>
rbdock ($Id: //depot/dev/client3/rdock/2013.1/src/exe/rbdock.cxx#4 $)

>  <Rbt.Library>
libRbt.so (2013.1, Build901 2013/11/27)

>  <Rbt.Parameter_File>
/export/apps/rDock/src/rDock_2013.1_src/data/scripts/dock_solv.prm

>  <Rbt.Receptor>
prm/blind_docking_100.prm

>  <SCORE>
-10.0659

>  <SCORE.INTER>
-10.0659

>  <SCORE.INTER.CONST>
1

>  <SCORE.INTER.POLAR>
0

>  <SCORE.INTER.ROT>
0

>  <SCORE.INTER.SOLV>
18.4633

>  <SCORE.INTER.VDW>
-16.465

>  <SCORE.INTER.norm>
-0.774301

>  <SCORE.INTRA>
0

>  <SCORE.INTRA.DIHEDRAL>
0

>  <SCORE.INTRA.DIHEDRAL.0>
0

>  <SCORE.INTRA.POLAR>
0

>  <SCORE.INTRA.POLAR.0>
0

>  <SCORE.INTRA.REPUL>
0

>  <SCORE.INTRA.REPUL.0>
0

>  <SCORE.INTRA.SOLV>
0

>  <SCORE.INTRA.SOLV.lig_0>
-48.6608

>  <SCORE.INTRA.VDW>
0

>  <SCORE.INTRA.VDW.0>
0

>  <SCORE.INTRA.norm>
0

>  <SCORE.RESTR>
0

>  <SCORE.RESTR.CAVITY>
0

>  <SCORE.RESTR.norm>
0

>  <SCORE.SYSTEM>
0

>  <SCORE.SYSTEM.CONST>
0

>  <SCORE.SYSTEM.DIHEDRAL>
0

>  <SCORE.SYSTEM.SOLV>
0

>  <SCORE.SYSTEM.norm>
0

>  <SCORE.heavy>
13

>  <SCORE.norm>
-0.774301

>  <RMSD>
35.361

$$$$
ligand
 OpenBabel11021811483D
libRbt.so/2013.1/901 2013/11/27
 13 14  0  0  0  0  0  0  0  0999 V2000
  -22.1540   41.3187   59.3398 N   0  0  0  0  0  0  0  0  0  0  0  0
  -21.3737   42.3556   57.4190 N   0  0  0  0  0  0  0  0  0  0  0  0
  -22.1139   41.4014   58.0131 C   0  0  0  0  0  0  0  0  0  0  0  0
  -22.8327   40.4856   57.2459 N   0  0  0  0  0  0  0  0  0  0  0  0
  -22.7743   40.5921   55.8549 C   0  0  0  0  0  0  0  0  0  0  0  0
  -22.0133   41.5966   55.2658 C   0  0  0  0  0  0  0  0  0  0  0  0
  -23.3919   39.7936   55.1513 O   0  0  0  0  0  0  0  0  0  0  0  0
  -21.9210   41.6771   53.8633 N   0  0  0  0  0  0  0  0  0  0  0  0
  -21.1646   42.7607   53.1741 C   0  0  2  0  0  0  0  0  0  0  0  0
  -20.0221   43.2389   54.0862 C   0  0  0  0  0  0  0  0  0  0  0  0
  -21.2998   42.4645   56.0802 C   0  0  0  0  0  0  0  0  0  0  0  0
  -20.5134   43.4610   55.4897 N   0  0  0  0  0  0  0  0  0  0  0  0
  -22.1398   43.9411   52.8855 C   0  0  0  0  0  0  0  0  0  0  0  0
  1  3  1  0  0  0  0
  2  3  2  0  0  0  0
  2 11  1  0  0  0  0
  3  4  1  0  0  0  0
  4  5  1  0  0  0  0
  5  6  1  0  0  0  0
  5  7  2  0  0  0  0
  6  8  1  0  0  0  0
  6 11  2  0  0  0  0
  8  9  1  0  0  0  0
  9 10  1  0  0  0  0
  9 13  1  1  0  0  0
 10 12  1  0  0  0  0
 11 12  1  0  0  0  0
M  END
>  <CHROM.1>
-21.83701207,41.93168467,55.64561294,-1.94125153,-0.89706556,-1.40811752

>  <Name>
ligand

>  <RI>
0

>  <Rbt.Current_Directory>
/home/itssahil/PROJECTS/Mol_Feturizer/New_Systems/rnas/3SUX

>  <Rbt.Executable>
rbdock ($Id: //depot/dev/client3/rdock/2013.1/src/exe/rbdock.cxx#4 $)

>  <Rbt.Library>
libRbt.so (2013.1, Build901 2013/11/27)

>  <Rbt.Parameter_File>
/export/apps/rDock/src/rDock_2013.1_src/data/scripts/dock_solv.prm

>  <Rbt.Receptor>
prm/blind_docking_80.prm

>  <SCORE>
-9.68094

>  <SCORE.INTER>
-9.68094

>  <SCORE.INTER.CONST>
1

>  <SCORE.INTER.POLAR>
0

>  <SCORE.INTER.ROT>
0

>  <SCORE.INTER.SOLV>
18.471

>  <SCORE.INTER.VDW>
-16.211

>  <SCORE.INTER.norm>
-0.744688

>  <SCORE.INTRA>
0

>  <SCORE.INTRA.DIHEDRAL>
0

>  <SCORE.INTRA.DIHEDRAL.0>
0

>  <SCORE.INTRA.POLAR>
0

>  <SCORE.INTRA.POLAR.0>
0

>  <SCORE.INTRA.REPUL>
0

>  <SCORE.INTRA.REPUL.0>
0

>  <SCORE.INTRA.SOLV>
0

>  <SCORE.INTRA.SOLV.lig_0>
-48.6608

>  <SCORE.INTRA.VDW>
0

>  <SCORE.INTRA.VDW.0>
0

>  <SCORE.INTRA.norm>
0

>  <SCORE.RESTR>
0

>  <SCORE.RESTR.CAVITY>
0

>  <SCORE.RESTR.norm>
0

>  <SCORE.SYSTEM>
0

>  <SCORE.SYSTEM.CONST>
0

>  <SCORE.SYSTEM.DIHEDRAL>
0

>  <SCORE.SYSTEM.SOLV>
0

>  <SCORE.SYSTEM.norm>
0

>  <SCORE.heavy>
13

>  <SCORE.norm>
-0.744688

>  <RMSD>
35.361

$$$$
ligand
 OpenBabel11021811483D
libRbt.so/2013.1/901 2013/11/27
 13 14  0  0  0  0  0  0  0  0999 V2000
  -23.4088   39.8877   59.7852 N   0  0  0  0  0  0  0  0  0  0  0  0
  -22.5743   41.4127   58.2516 N   0  0  0  0  0  0  0  0  0  0  0  0
  -22.9449   40.1583   58.5686 C   0  0  0  0  0  0  0  0  0  0  0  0
  -22.8340   39.1315   57.6319 N   0  0  0  0  0  0  0  0  0  0  0  0
  -22.3435   39.4399   56.3615 C   0  0  0  0  0  0  0  0  0  0  0  0
  -21.9811   40.7474   56.0547 C   0  0  0  0  0  0  0  0  0  0  0  0
  -22.2271   38.5534   55.5161 O   0  0  0  0  0  0  0  0  0  0  0  0
  -21.4470   41.0494   54.7875 N   0  0  0  0  0  0  0  0  0  0  0  0
  -21.0895   42.4386   54.3826 C   0  0  2  0  0  0  0  0  0  0  0  0
  -20.7047   43.2468   55.6334 C   0  0  0  0  0  0  0  0  0  0  0  0
  -22.0909   41.7231   57.0353 C   0  0  0  0  0  0  0  0  0  0  0  0
  -21.7036   43.0350   56.7370 N   0  0  0  0  0  0  0  0  0  0  0  0
  -22.3261   43.0886   53.6928 C   0  0  0  0  0  0  0  0  0  0  0  0
  1  3  1  0  0  0  0
  2  3  2  0  0  0  0
  2 11  1  0  0  0  0
  3  4  1  0  0  0  0
  4  5  1  0  0  0  0
  5  6  1  0  0  0  0
  5  7  2  0  0  0  0
  6  8  1  0  0  0  0
  6 11  2  0  0  0  0
  8  9  1  0  0  0  0
  9 10  1  0  0  0  0
  9 13  1  1  0  0  0
 10 12  1  0  0  0  0
 11 12  1  0  0  0  0
M  END
>  <CHROM.1>
-22.12725059,41.07111168,56.45645865,3.13862181,-1.27245046,-2.46667603

>  <Name>
ligand

>  <RI>
0

>  <Rbt.Current_Directory>
/home/itssahil/PROJECTS/Mol_Feturizer/New_Systems/rnas/3SUX

>  <Rbt.Executable>
rbdock ($Id: //depot/dev/client3/rdock/2013.1/src/exe/rbdock.cxx#4 $)

>  <Rbt.Library>
libRbt.so (2013.1, Build901 2013/11/27)

>  <Rbt.Parameter_File>
/export/apps/rDock/src/rDock_2013.1_src/data/scripts/dock_solv.prm

>  <Rbt.Receptor>
prm/blind_docking_100.prm

>  <SCORE>
-11.0043

>  <SCORE.INTER>
-11.0043

>  <SCORE.INTER.CONST>
1

>  <SCORE.INTER.POLAR>
0

>  <SCORE.INTER.ROT>
0

>  <SCORE.INTER.SOLV>
17.386

>  <SCORE.INTER.VDW>
-16.7315

>  <SCORE.INTER.norm>
-0.846485

>  <SCORE.INTRA>
0

>  <SCORE.INTRA.DIHEDRAL>
0

>  <SCORE.INTRA.DIHEDRAL.0>
0

>  <SCORE.INTRA.POLAR>
0

>  <SCORE.INTRA.POLAR.0>
0

>  <SCORE.INTRA.REPUL>
0

>  <SCORE.INTRA.REPUL.0>
0

>  <SCORE.INTRA.SOLV>
0

>  <SCORE.INTRA.SOLV.lig_0>
-48.6608

>  <SCORE.INTRA.VDW>
0

>  <SCORE.INTRA.VDW.0>
0

>  <SCORE.INTRA.norm>
0

>  <SCORE.RESTR>
0

>  <SCORE.RESTR.CAVITY>
0

>  <SCORE.RESTR.norm>
0

>  <SCORE.SYSTEM>
0

>  <SCORE.SYSTEM.CONST>
0

>  <SCORE.SYSTEM.DIHEDRAL>
0

>  <SCORE.SYSTEM.SOLV>
0

>  <SCORE.SYSTEM.norm>
0

>  <SCORE.heavy>
13

>  <SCORE.norm>
-0.846485

>  <RMSD>
35.397

$$$$
ligand
 OpenBabel11021811483D
libRbt.so/2013.1/901 2013/11/27
 13 14  0  0  0  0  0  0  0  0999 V2000
  -23.3454   39.9446   59.7544 N   0  0  0  0  0  0  0  0  0  0  0  0
  -22.4946   41.4362   58.1971 N   0  0  0  0  0  0  0  0  0  0  0  0
  -22.9051   40.1972   58.5251 C   0  0  0  0  0  0  0  0  0  0  0  0
  -22.8604   39.1671   57.5866 N   0  0  0  0  0  0  0  0  0  0  0  0
  -22.3935   39.4565   56.3028 C   0  0  0  0  0  0  0  0  0  0  0  0
  -21.9888   40.7489   55.9851 C   0  0  0  0  0  0  0  0  0  0  0  0
  -22.3354   38.5663   55.4553 O   0  0  0  0  0  0  0  0  0  0  0  0
  -21.4785   41.0302   54.7035 N   0  0  0  0  0  0  0  0  0  0  0  0
  -21.0782   42.4044   54.2877 C   0  0  2  0  0  0  0  0  0  0  0  0
  -20.6277   43.1965   55.5268 C   0  0  0  0  0  0  0  0  0  0  0  0
  -22.0331   41.7278   56.9676 C   0  0  0  0  0  0  0  0  0  0  0  0
  -21.6032   43.0237   56.6578 N   0  0  0  0  0  0  0  0  0  0  0  0
  -22.3071   43.1025   53.6319 C   0  0  0  0  0  0  0  0  0  0  0  0
  1  3  1  0  0  0  0
  2  3  2  0  0  0  0
  2 11  1  0  0  0  0
  3  4  1  0  0  0  0
  4  5  1  0  0  0  0
  5  6  1  0  0  0  0
  5  7  2  0  0  0  0
  6  8  1  0  0  0  0
  6 11  2  0  0  0  0
  8  9  1  0  0  0  0
  9 10  1  0  0  0  0
  9 13  1  1  0  0  0
 10 12  1  0  0  0  0
 11 12  1  0  0  0  0
M  END
>  <CHROM.1>
-22.11101920,41.07797170,56.39055445,-2.98450714,-1.26590459,-2.31404218

>  <Name>
ligand

>  <RI>
0

>  <Rbt.Current_Directory>
/home/itssahil/PROJECTS/Mol_Feturizer/New_Systems/rnas/3SUX

>  <Rbt.Executable>
rbdock ($Id: //depot/dev/client3/rdock/2013.1/src/exe/rbdock.cxx#4 $)

>  <Rbt.Library>
libRbt.so (2013.1, Build901 2013/11/27)

>  <Rbt.Parameter_File>
/export/apps/rDock/src/rDock_2013.1_src/data/scripts/dock_solv.prm

>  <Rbt.Receptor>
prm/blind_docking_100.prm

>  <SCORE>
-10.9937

>  <SCORE.INTER>
-10.9937

>  <SCORE.INTER.CONST>
1

>  <SCORE.INTER.POLAR>
0

>  <SCORE.INTER.ROT>
0

>  <SCORE.INTER.SOLV>
17.198

>  <SCORE.INTER.VDW>
-16.6618

>  <SCORE.INTER.norm>
-0.84567

>  <SCORE.INTRA>
0

>  <SCORE.INTRA.DIHEDRAL>
0

>  <SCORE.INTRA.DIHEDRAL.0>
0

>  <SCORE.INTRA.POLAR>
0

>  <SCORE.INTRA.POLAR.0>
0

>  <SCORE.INTRA.REPUL>
0

>  <SCORE.INTRA.REPUL.0>
0

>  <SCORE.INTRA.SOLV>
0

>  <SCORE.INTRA.SOLV.lig_0>
-48.6608

>  <SCORE.INTRA.VDW>
0

>  <SCORE.INTRA.VDW.0>
0

>  <SCORE.INTRA.norm>
0

>  <SCORE.RESTR>
0

>  <SCORE.RESTR.CAVITY>
0

>  <SCORE.RESTR.norm>
0

>  <SCORE.SYSTEM>
0

>  <SCORE.SYSTEM.CONST>
0

>  <SCORE.SYSTEM.DIHEDRAL>
0

>  <SCORE.SYSTEM.SOLV>
0

>  <SCORE.SYSTEM.norm>
0

>  <SCORE.heavy>
13

>  <SCORE.norm>
-0.84567

>  <RMSD>
35.404

$$$$
ligand
 OpenBabel11021811483D
libRbt.so/2013.1/901 2013/11/27
 13 14  0  0  0  0  0  0  0  0999 V2000
  -23.4545   39.8862   59.7630 N   0  0  0  0  0  0  0  0  0  0  0  0
  -22.5684   41.3984   58.2457 N   0  0  0  0  0  0  0  0  0  0  0  0
  -22.9842   40.1546   58.5483 C   0  0  0  0  0  0  0  0  0  0  0  0
  -22.9137   39.1362   57.5988 N   0  0  0  0  0  0  0  0  0  0  0  0
  -22.4155   39.4421   56.3307 C   0  0  0  0  0  0  0  0  0  0  0  0
  -22.0059   40.7391   56.0389 C   0  0  0  0  0  0  0  0  0  0  0  0
  -22.3341   38.5624   55.4741 O   0  0  0  0  0  0  0  0  0  0  0  0
  -21.4644   41.0369   54.7740 N   0  0  0  0  0  0  0  0  0  0  0  0
  -21.0570   42.4169   54.3850 C   0  0  2  0  0  0  0  0  0  0  0  0
  -20.6395   43.1948   55.6445 C   0  0  0  0  0  0  0  0  0  0  0  0
  -22.0771   41.7058   57.0318 C   0  0  0  0  0  0  0  0  0  0  0  0
  -21.6426   43.0063   56.7486 N   0  0  0  0  0  0  0  0  0  0  0  0
  -22.2707   43.1205   53.7072 C   0  0  0  0  0  0  0  0  0  0  0  0
  1  3  1  0  0  0  0
  2  3  2  0  0  0  0
  2 11  1  0  0  0  0
  3  4  1  0  0  0  0
  4  5  1  0  0  0  0
  5  6  1  0  0  0  0
  5  7  2  0  0  0  0
  6  8  1  0  0  0  0
  6 11  2  0  0  0  0
  8  9  1  0  0  0  0
  9 10  1  0  0  0  0
  9 13  1  1  0  0  0
 10 12  1  0  0  0  0
 11 12  1  0  0  0  0
M  END
>  <CHROM.1>
-22.13900634,41.06291638,56.44513244,-3.04789850,-1.25008090,-2.36221279

>  <Name>
ligand

>  <RI>
0

>  <Rbt.Current_Directory>
/home/itssahil/PROJECTS/Mol_Feturizer/New_Systems/rnas/3SUX

>  <Rbt.Executable>
rbdock ($Id: //depot/dev/client3/rdock/2013.1/src/exe/rbdock.cxx#4 $)

>  <Rbt.Library>
libRbt.so (2013.1, Build901 2013/11/27)

>  <Rbt.Parameter_File>
/export/apps/rDock/src/rDock_2013.1_src/data/scripts/dock_solv.prm

>  <Rbt.Receptor>
prm/blind_docking_100.prm

>  <SCORE>
-10.9934

>  <SCORE.INTER>
-10.9934

>  <SCORE.INTER.CONST>
1

>  <SCORE.INTER.POLAR>
0

>  <SCORE.INTER.ROT>
0

>  <SCORE.INTER.SOLV>
17.2435

>  <SCORE.INTER.VDW>
-16.6768

>  <SCORE.INTER.norm>
-0.845647

>  <SCORE.INTRA>
0

>  <SCORE.INTRA.DIHEDRAL>
0

>  <SCORE.INTRA.DIHEDRAL.0>
0

>  <SCORE.INTRA.POLAR>
0

>  <SCORE.INTRA.POLAR.0>
0

>  <SCORE.INTRA.REPUL>
0

>  <SCORE.INTRA.REPUL.0>
0

>  <SCORE.INTRA.SOLV>
0

>  <SCORE.INTRA.SOLV.lig_0>
-48.6608

>  <SCORE.INTRA.VDW>
0

>  <SCORE.INTRA.VDW.0>
0

>  <SCORE.INTRA.norm>
0

>  <SCORE.RESTR>
0

>  <SCORE.RESTR.CAVITY>
0

>  <SCORE.RESTR.norm>
0

>  <SCORE.SYSTEM>
0

>  <SCORE.SYSTEM.CONST>
0

>  <SCORE.SYSTEM.DIHEDRAL>
0

>  <SCORE.SYSTEM.SOLV>
0

>  <SCORE.SYSTEM.norm>
0

>  <SCORE.heavy>
13

>  <SCORE.norm>
-0.845647

>  <RMSD>
35.414

$$$$
ligand
 OpenBabel11021811483D
libRbt.so/2013.1/901 2013/11/27
 13 14  0  0  0  0  0  0  0  0999 V2000
  -23.3971   39.9539   59.7588 N   0  0  0  0  0  0  0  0  0  0  0  0
  -22.5398   41.4550   58.2143 N   0  0  0  0  0  0  0  0  0  0  0  0
  -22.9437   40.2121   58.5355 C   0  0  0  0  0  0  0  0  0  0  0  0
  -22.8785   39.1838   57.5961 N   0  0  0  0  0  0  0  0  0  0  0  0
  -22.3982   39.4791   56.3187 C   0  0  0  0  0  0  0  0  0  0  0  0
  -22.0007   40.7754   56.0078 C   0  0  0  0  0  0  0  0  0  0  0  0
  -22.3218   38.5907   55.4706 O   0  0  0  0  0  0  0  0  0  0  0  0
  -21.4769   41.0630   54.7330 N   0  0  0  0  0  0  0  0  0  0  0  0
  -21.0834   42.4412   54.3242 C   0  0  2  0  0  0  0  0  0  0  0  0
  -20.6551   43.2353   55.5699 C   0  0  0  0  0  0  0  0  0  0  0  0
  -22.0657   41.7524   56.9911 C   0  0  0  0  0  0  0  0  0  0  0  0
  -21.6431   43.0524   56.6884 N   0  0  0  0  0  0  0  0  0  0  0  0
  -22.3099   43.1297   53.6541 C   0  0  0  0  0  0  0  0  0  0  0  0
  1  3  1  0  0  0  0
  2  3  2  0  0  0  0
  2 11  1  0  0  0  0
  3  4  1  0  0  0  0
  4  5  1  0  0  0  0
  5  6  1  0  0  0  0
  5  7  2  0  0  0  0
  6  8  1  0  0  0  0
  6 11  2  0  0  0  0
  8  9  1  0  0  0  0
  9 10  1  0  0  0  0
  9 13  1  1  0  0  0
 10 12  1  0  0  0  0
 11 12  1  0  0  0  0
M  END
>  <CHROM.1>
-22.13076655,41.10280400,56.41214728,-3.03404528,-1.26347530,-2.35983603

>  <Name>
ligand

>  <RI>
0

>  <Rbt.Current_Directory>
/home/itssahil/PROJECTS/Mol_Feturizer/New_Systems/rnas/3SUX

>  <Rbt.Executable>
rbdock ($Id: //depot/dev/client3/rdock/2013.1/src/exe/rbdock.cxx#4 $)

>  <Rbt.Library>
libRbt.so (2013.1, Build901 2013/11/27)

>  <Rbt.Parameter_File>
/export/apps/rDock/src/rDock_2013.1_src/data/scripts/dock_solv.prm

>  <Rbt.Receptor>
prm/blind_docking_80.prm

>  <SCORE>
-11.0164

>  <SCORE.INTER>
-11.0164

>  <SCORE.INTER.CONST>
1

>  <SCORE.INTER.POLAR>
0

>  <SCORE.INTER.ROT>
0

>  <SCORE.INTER.SOLV>
17.438

>  <SCORE.INTER.VDW>
-16.757

>  <SCORE.INTER.norm>
-0.847416

>  <SCORE.INTRA>
0

>  <SCORE.INTRA.DIHEDRAL>
0

>  <SCORE.INTRA.DIHEDRAL.0>
0

>  <SCORE.INTRA.POLAR>
0

>  <SCORE.INTRA.POLAR.0>
0

>  <SCORE.INTRA.REPUL>
0

>  <SCORE.INTRA.REPUL.0>
0

>  <SCORE.INTRA.SOLV>
0

>  <SCORE.INTRA.SOLV.lig_0>
-48.6608

>  <SCORE.INTRA.VDW>
0

>  <SCORE.INTRA.VDW.0>
0

>  <SCORE.INTRA.norm>
0

>  <SCORE.RESTR>
0

>  <SCORE.RESTR.CAVITY>
0

>  <SCORE.RESTR.norm>
0

>  <SCORE.SYSTEM>
0

>  <SCORE.SYSTEM.CONST>
0

>  <SCORE.SYSTEM.DIHEDRAL>
0

>  <SCORE.SYSTEM.SOLV>
0

>  <SCORE.SYSTEM.norm>
0

>  <SCORE.heavy>
13

>  <SCORE.norm>
-0.847416

>  <RMSD>
35.414

$$$$
ligand
 OpenBabel11021811483D
libRbt.so/2013.1/901 2013/11/27
 13 14  0  0  0  0  0  0  0  0999 V2000
  -23.4153   39.9443   59.7422 N   0  0  0  0  0  0  0  0  0  0  0  0
  -22.5534   41.4493   58.2040 N   0  0  0  0  0  0  0  0  0  0  0  0
  -22.9558   40.2049   58.5217 C   0  0  0  0  0  0  0  0  0  0  0  0
  -22.8826   39.1778   57.5817 N   0  0  0  0  0  0  0  0  0  0  0  0
  -22.3960   39.4757   56.3073 C   0  0  0  0  0  0  0  0  0  0  0  0
  -22.0002   40.7733   55.9999 C   0  0  0  0  0  0  0  0  0  0  0  0
  -22.3125   38.5884   55.4588 O   0  0  0  0  0  0  0  0  0  0  0  0
  -21.4701   41.0635   54.7283 N   0  0  0  0  0  0  0  0  0  0  0  0
  -21.0779   42.4432   54.3231 C   0  0  2  0  0  0  0  0  0  0  0  0
  -20.6588   43.2373   55.5719 C   0  0  0  0  0  0  0  0  0  0  0  0
  -22.0732   41.7492   56.9837 C   0  0  0  0  0  0  0  0  0  0  0  0
  -21.6525   43.0506   56.6847 N   0  0  0  0  0  0  0  0  0  0  0  0
  -22.3026   43.1292   53.6469 C   0  0  0  0  0  0  0  0  0  0  0  0
  1  3  1  0  0  0  0
  2  3  2  0  0  0  0
  2 11  1  0  0  0  0
  3  4  1  0  0  0  0
  4  5  1  0  0  0  0
  5  6  1  0  0  0  0
  5  7  2  0  0  0  0
  6  8  1  0  0  0  0
  6 11  2  0  0  0  0
  8  9  1  0  0  0  0
  9 10  1  0  0  0  0
  9 13  1  1  0  0  0
 10 12  1  0  0  0  0
 11 12  1  0  0  0  0
M  END
>  <CHROM.1>
-22.13338436,41.09997520,56.40384520,-3.05311586,-1.26134200,-2.37700961

>  <Name>
ligand

>  <RI>
0

>  <Rbt.Current_Directory>
/home/itssahil/PROJECTS/Mol_Feturizer/New_Systems/rnas/3SUX

>  <Rbt.Executable>
rbdock ($Id: //depot/dev/client3/rdock/2013.1/src/exe/rbdock.cxx#4 $)

>  <Rbt.Library>
libRbt.so (2013.1, Build901 2013/11/27)

>  <Rbt.Parameter_File>
/export/apps/rDock/src/rDock_2013.1_src/data/scripts/dock_solv.prm

>  <Rbt.Receptor>
prm/blind_docking_100.prm

>  <SCORE>
-11.0259

>  <SCORE.INTER>
-11.0259

>  <SCORE.INTER.CONST>
1

>  <SCORE.INTER.POLAR>
0

>  <SCORE.INTER.ROT>
0

>  <SCORE.INTER.SOLV>
17.4343

>  <SCORE.INTER.VDW>
-16.7621

>  <SCORE.INTER.norm>
-0.848149

>  <SCORE.INTRA>
0

>  <SCORE.INTRA.DIHEDRAL>
0

>  <SCORE.INTRA.DIHEDRAL.0>
0

>  <SCORE.INTRA.POLAR>
0

>  <SCORE.INTRA.POLAR.0>
0

>  <SCORE.INTRA.REPUL>
0

>  <SCORE.INTRA.REPUL.0>
0

>  <SCORE.INTRA.SOLV>
0

>  <SCORE.INTRA.SOLV.lig_0>
-48.6608

>  <SCORE.INTRA.VDW>
0

>  <SCORE.INTRA.VDW.0>
0

>  <SCORE.INTRA.norm>
0

>  <SCORE.RESTR>
0

>  <SCORE.RESTR.CAVITY>
0

>  <SCORE.RESTR.norm>
0

>  <SCORE.SYSTEM>
0

>  <SCORE.SYSTEM.CONST>
0

>  <SCORE.SYSTEM.DIHEDRAL>
0

>  <SCORE.SYSTEM.SOLV>
0

>  <SCORE.SYSTEM.norm>
0

>  <SCORE.heavy>
13

>  <SCORE.norm>
-0.848149

>  <RMSD>
35.420

$$$$
ligand
 OpenBabel11021811483D
libRbt.so/2013.1/901 2013/11/27
 13 14  0  0  0  0  0  0  0  0999 V2000
  -23.4766   39.7781   59.7027 N   0  0  0  0  0  0  0  0  0  0  0  0
  -22.6256   41.3345   58.2104 N   0  0  0  0  0  0  0  0  0  0  0  0
  -23.0000   40.0740   58.4969 C   0  0  0  0  0  0  0  0  0  0  0  0
  -22.8798   39.0671   57.5400 N   0  0  0  0  0  0  0  0  0  0  0  0
  -22.3760   39.4019   56.2815 C   0  0  0  0  0  0  0  0  0  0  0  0
  -22.0098   40.7154   56.0062 C   0  0  0  0  0  0  0  0  0  0  0  0
  -22.2513   38.5334   55.4189 O   0  0  0  0  0  0  0  0  0  0  0  0
  -21.4625   41.0437   54.7513 N   0  0  0  0  0  0  0  0  0  0  0  0
  -21.1001   42.4409   54.3795 C   0  0  2  0  0  0  0  0  0  0  0  0
  -20.7281   43.2223   55.6511 C   0  0  0  0  0  0  0  0  0  0  0  0
  -22.1293   41.6702   57.0060 C   0  0  0  0  0  0  0  0  0  0  0  0
  -21.7385   42.9879   56.7396 N   0  0  0  0  0  0  0  0  0  0  0  0
  -22.3292   43.1062   53.6909 C   0  0  0  0  0  0  0  0  0  0  0  0
  1  3  1  0  0  0  0
  2  3  2  0  0  0  0
  2 11  1  0  0  0  0
  3  4  1  0  0  0  0
  4  5  1  0  0  0  0
  5  6  1  0  0  0  0
  5  7  2  0  0  0  0
  6  8  1  0  0  0  0
  6 11  2  0  0  0  0
  8  9  1  0  0  0  0
  9 10  1  0  0  0  0
  9 13  1  1  0  0  0
 10 12  1  0  0  0  0
 11 12  1  0  0  0  0
M  END
>  <CHROM.1>
-22.16002105,41.03064529,56.41320163,3.11830924,-1.26399809,-2.46493712

>  <Name>
ligand

>  <RI>
0

>  <Rbt.Current_Directory>
/home/itssahil/PROJECTS/Mol_Feturizer/New_Systems/rnas/3SUX

>  <Rbt.Executable>
rbdock ($Id: //depot/dev/client3/rdock/2013.1/src/exe/rbdock.cxx#4 $)

>  <Rbt.Library>
libRbt.so (2013.1, Build901 2013/11/27)

>  <Rbt.Parameter_File>
/export/apps/rDock/src/rDock_2013.1_src/data/scripts/dock_solv.prm

>  <Rbt.Receptor>
prm/blind_docking_100.prm

>  <SCORE>
-11.0573

>  <SCORE.INTER>
-11.0573

>  <SCORE.INTER.CONST>
1

>  <SCORE.INTER.POLAR>
0

>  <SCORE.INTER.ROT>
0

>  <SCORE.INTER.SOLV>
16.7786

>  <SCORE.INTER.VDW>
-16.5644

>  <SCORE.INTER.norm>
-0.850565

>  <SCORE.INTRA>
0

>  <SCORE.INTRA.DIHEDRAL>
0

>  <SCORE.INTRA.DIHEDRAL.0>
0

>  <SCORE.INTRA.POLAR>
0

>  <SCORE.INTRA.POLAR.0>
0

>  <SCORE.INTRA.REPUL>
0

>  <SCORE.INTRA.REPUL.0>
0

>  <SCORE.INTRA.SOLV>
0

>  <SCORE.INTRA.SOLV.lig_0>
-48.6608

>  <SCORE.INTRA.VDW>
0

>  <SCORE.INTRA.VDW.0>
0

>  <SCORE.INTRA.norm>
0

>  <SCORE.RESTR>
0

>  <SCORE.RESTR.CAVITY>
0

>  <SCORE.RESTR.norm>
0

>  <SCORE.SYSTEM>
0

>  <SCORE.SYSTEM.CONST>
0

>  <SCORE.SYSTEM.DIHEDRAL>
0

>  <SCORE.SYSTEM.SOLV>
0

>  <SCORE.SYSTEM.norm>
0

>  <SCORE.heavy>
13

>  <SCORE.norm>
-0.850565

>  <RMSD>
35.445

$$$$
ligand
 OpenBabel11021811483D
libRbt.so/2013.1/901 2013/11/27
 13 14  0  0  0  0  0  0  0  0999 V2000
  -23.4860   39.7474   59.6896 N   0  0  0  0  0  0  0  0  0  0  0  0
  -22.6365   41.3108   58.2038 N   0  0  0  0  0  0  0  0  0  0  0  0
  -23.0040   40.0475   58.4871 C   0  0  0  0  0  0  0  0  0  0  0  0
  -22.8709   39.0422   57.5302 N   0  0  0  0  0  0  0  0  0  0  0  0
  -22.3616   39.3815   56.2751 C   0  0  0  0  0  0  0  0  0  0  0  0
  -22.0028   40.6977   56.0030 C   0  0  0  0  0  0  0  0  0  0  0  0
  -22.2254   38.5146   55.4126 O   0  0  0  0  0  0  0  0  0  0  0  0
  -21.4499   41.0308   54.7519 N   0  0  0  0  0  0  0  0  0  0  0  0
  -21.0949   42.4308   54.3834 C   0  0  2  0  0  0  0  0  0  0  0  0
  -20.7362   43.2137   55.6578 C   0  0  0  0  0  0  0  0  0  0  0  0
  -22.1351   41.6509   57.0028 C   0  0  0  0  0  0  0  0  0  0  0  0
  -21.7517   42.9715   56.7398 N   0  0  0  0  0  0  0  0  0  0  0  0
  -22.3243   43.0881   53.6876 C   0  0  0  0  0  0  0  0  0  0  0  0
  1  3  1  0  0  0  0
  2  3  2  0  0  0  0
  2 11  1  0  0  0  0
  3  4  1  0  0  0  0
  4  5  1  0  0  0  0
  5  6  1  0  0  0  0
  5  7  2  0  0  0  0
  6  8  1  0  0  0  0
  6 11  2  0  0  0  0
  8  9  1  0  0  0  0
  9 10  1  0  0  0  0
  9 13  1  1  0  0  0
 10 12  1  0  0  0  0
 11 12  1  0  0  0  0
M  END
>  <CHROM.1>
-22.15767776,41.01160973,56.40932317,3.08752197,-1.26334380,-2.49351945

>  <Name>
ligand

>  <RI>
0

>  <Rbt.Current_Directory>
/home/itssahil/PROJECTS/Mol_Feturizer/New_Systems/rnas/3SUX

>  <Rbt.Executable>
rbdock ($Id: //depot/dev/client3/rdock/2013.1/src/exe/rbdock.cxx#4 $)

>  <Rbt.Library>
libRbt.so (2013.1, Build901 2013/11/27)

>  <Rbt.Parameter_File>
/export/apps/rDock/src/rDock_2013.1_src/data/scripts/dock_solv.prm

>  <Rbt.Receptor>
prm/blind_docking_100.prm

>  <SCORE>
-11.0631

>  <SCORE.INTER>
-11.0631

>  <SCORE.INTER.CONST>
1

>  <SCORE.INTER.POLAR>
0

>  <SCORE.INTER.ROT>
0

>  <SCORE.INTER.SOLV>
16.6889

>  <SCORE.INTER.VDW>
-16.5384

>  <SCORE.INTER.norm>
-0.851008

>  <SCORE.INTRA>
0

>  <SCORE.INTRA.DIHEDRAL>
0

>  <SCORE.INTRA.DIHEDRAL.0>
0

>  <SCORE.INTRA.POLAR>
0

>  <SCORE.INTRA.POLAR.0>
0

>  <SCORE.INTRA.REPUL>
0

>  <SCORE.INTRA.REPUL.0>
0

>  <SCORE.INTRA.SOLV>
0

>  <SCORE.INTRA.SOLV.lig_0>
-48.6608

>  <SCORE.INTRA.VDW>
0

>  <SCORE.INTRA.VDW.0>
0

>  <SCORE.INTRA.norm>
0

>  <SCORE.RESTR>
0

>  <SCORE.RESTR.CAVITY>
0

>  <SCORE.RESTR.norm>
0

>  <SCORE.SYSTEM>
0

>  <SCORE.SYSTEM.CONST>
0

>  <SCORE.SYSTEM.DIHEDRAL>
0

>  <SCORE.SYSTEM.SOLV>
0

>  <SCORE.SYSTEM.norm>
0

>  <SCORE.heavy>
13

>  <SCORE.norm>
-0.851008

>  <RMSD>
35.445

$$$$
ligand
 OpenBabel11021811483D
libRbt.so/2013.1/901 2013/11/27
 13 14  0  0  0  0  0  0  0  0999 V2000
  -23.4974   39.9100   59.7052 N   0  0  0  0  0  0  0  0  0  0  0  0
  -22.6286   41.4277   58.1836 N   0  0  0  0  0  0  0  0  0  0  0  0
  -23.0137   40.1765   58.4954 C   0  0  0  0  0  0  0  0  0  0  0  0
  -22.8972   39.1485   57.5608 N   0  0  0  0  0  0  0  0  0  0  0  0
  -22.3858   39.4525   56.2975 C   0  0  0  0  0  0  0  0  0  0  0  0
  -22.0085   40.7570   55.9958 C   0  0  0  0  0  0  0  0  0  0  0  0
  -22.2640   38.5648   55.4542 O   0  0  0  0  0  0  0  0  0  0  0  0
  -21.4536   41.0543   54.7365 N   0  0  0  0  0  0  0  0  0  0  0  0
  -21.0792   42.4405   54.3365 C   0  0  2  0  0  0  0  0  0  0  0  0
  -20.7065   43.2461   55.5926 C   0  0  0  0  0  0  0  0  0  0  0  0
  -22.1249   41.7339   56.9744 C   0  0  0  0  0  0  0  0  0  0  0  0
  -21.7230   43.0427   56.6816 N   0  0  0  0  0  0  0  0  0  0  0  0
  -22.3005   43.1000   53.6286 C   0  0  0  0  0  0  0  0  0  0  0  0
  1  3  1  0  0  0  0
  2  3  2  0  0  0  0
  2 11  1  0  0  0  0
  3  4  1  0  0  0  0
  4  5  1  0  0  0  0
  5  6  1  0  0  0  0
  5  7  2  0  0  0  0
  6  8  1  0  0  0  0
  6 11  2  0  0  0  0
  8  9  1  0  0  0  0
  9 10  1  0  0  0  0
  9 13  1  1  0  0  0
 10 12  1  0  0  0  0
 11 12  1  0  0  0  0
M  END
>  <CHROM.1>
-22.15800014,41.08203010,56.39529620,3.12903729,-1.25607825,-2.47611791

>  <Name>
ligand

>  <RI>
0

>  <Rbt.Current_Directory>
/home/itssahil/PROJECTS/Mol_Feturizer/New_Systems/rnas/3SUX

>  <Rbt.Executable>
rbdock ($Id: //depot/dev/client3/rdock/2013.1/src/exe/rbdock.cxx#4 $)

>  <Rbt.Library>
libRbt.so (2013.1, Build901 2013/11/27)

>  <Rbt.Parameter_File>
/export/apps/rDock/src/rDock_2013.1_src/data/scripts/dock_solv.prm

>  <Rbt.Receptor>
prm/blind_docking_100.prm

>  <SCORE>
-11.082

>  <SCORE.INTER>
-11.082

>  <SCORE.INTER.CONST>
1

>  <SCORE.INTER.POLAR>
0

>  <SCORE.INTER.ROT>
0

>  <SCORE.INTER.SOLV>
17.5031

>  <SCORE.INTER.VDW>
-16.8224

>  <SCORE.INTER.norm>
-0.852465

>  <SCORE.INTRA>
0

>  <SCORE.INTRA.DIHEDRAL>
0

>  <SCORE.INTRA.DIHEDRAL.0>
0

>  <SCORE.INTRA.POLAR>
0

>  <SCORE.INTRA.POLAR.0>
0

>  <SCORE.INTRA.REPUL>
0

>  <SCORE.INTRA.REPUL.0>
0

>  <SCORE.INTRA.SOLV>
0

>  <SCORE.INTRA.SOLV.lig_0>
-48.6608

>  <SCORE.INTRA.VDW>
0

>  <SCORE.INTRA.VDW.0>
0

>  <SCORE.INTRA.norm>
0

>  <SCORE.RESTR>
0

>  <SCORE.RESTR.CAVITY>
0

>  <SCORE.RESTR.norm>
0

>  <SCORE.SYSTEM>
0

>  <SCORE.SYSTEM.CONST>
0

>  <SCORE.SYSTEM.DIHEDRAL>
0

>  <SCORE.SYSTEM.SOLV>
0

>  <SCORE.SYSTEM.norm>
0

>  <SCORE.heavy>
13

>  <SCORE.norm>
-0.852465

>  <RMSD>
35.447

$$$$
ligand
 OpenBabel11021811483D
libRbt.so/2013.1/901 2013/11/27
 13 14  0  0  0  0  0  0  0  0999 V2000
  -21.1181   44.2009   58.1294 N   0  0  0  0  0  0  0  0  0  0  0  0
  -21.5239   42.6329   56.4710 N   0  0  0  0  0  0  0  0  0  0  0  0
  -21.6143   43.0251   57.7552 C   0  0  0  0  0  0  0  0  0  0  0  0
  -22.2152   42.1998   58.7048 N   0  0  0  0  0  0  0  0  0  0  0  0
  -22.7281   40.9698   58.2881 C   0  0  0  0  0  0  0  0  0  0  0  0
  -22.6348   40.5943   56.9520 C   0  0  0  0  0  0  0  0  0  0  0  0
  -23.2573   40.2166   59.1047 O   0  0  0  0  0  0  0  0  0  0  0  0
  -23.1141   39.3360   56.5407 N   0  0  0  0  0  0  0  0  0  0  0  0
  -23.0894   38.8993   55.1159 C   0  0  2  0  0  0  0  0  0  0  0  0
  -21.9208   39.5921   54.3947 C   0  0  0  0  0  0  0  0  0  0  0  0
  -22.0044   41.4467   56.0566 C   0  0  0  0  0  0  0  0  0  0  0  0
  -21.8872   41.0606   54.7160 N   0  0  0  0  0  0  0  0  0  0  0  0
  -24.4376   39.3052   54.4486 C   0  0  0  0  0  0  0  0  0  0  0  0
  1  3  1  0  0  0  0
  2  3  2  0  0  0  0
  2 11  1  0  0  0  0
  3  4  1  0  0  0  0
  4  5  1  0  0  0  0
  5  6  1  0  0  0  0
  5  7  2  0  0  0  0
  6  8  1  0  0  0  0
  6 11  2  0  0  0  0
  8  9  1  0  0  0  0
  9 10  1  0  0  0  0
  9 13  1  6  0  0  0
 10 12  1  0  0  0  0
 11 12  1  0  0  0  0
M  END
>  <CHROM.1>
-22.45212256,41.00791021,56.66360187,-1.01932250,-1.00266638,-1.90204635

>  <Name>
ligand

>  <RI>
0

>  <Rbt.Current_Directory>
/home/itssahil/PROJECTS/Mol_Feturizer/New_Systems/rnas/3SUX

>  <Rbt.Executable>
rbdock ($Id: //depot/dev/client3/rdock/2013.1/src/exe/rbdock.cxx#4 $)

>  <Rbt.Library>
libRbt.so (2013.1, Build901 2013/11/27)

>  <Rbt.Parameter_File>
/export/apps/rDock/src/rDock_2013.1_src/data/scripts/dock_solv.prm

>  <Rbt.Receptor>
prm/blind_docking_100.prm

>  <SCORE>
-10.8439

>  <SCORE.INTER>
-10.8439

>  <SCORE.INTER.CONST>
1

>  <SCORE.INTER.POLAR>
0

>  <SCORE.INTER.ROT>
0

>  <SCORE.INTER.SOLV>
19.5101

>  <SCORE.INTER.VDW>
-17.3326

>  <SCORE.INTER.norm>
-0.834146

>  <SCORE.INTRA>
0

>  <SCORE.INTRA.DIHEDRAL>
0

>  <SCORE.INTRA.DIHEDRAL.0>
0

>  <SCORE.INTRA.POLAR>
0

>  <SCORE.INTRA.POLAR.0>
0

>  <SCORE.INTRA.REPUL>
0

>  <SCORE.INTRA.REPUL.0>
0

>  <SCORE.INTRA.SOLV>
0

>  <SCORE.INTRA.SOLV.lig_0>
-48.6608

>  <SCORE.INTRA.VDW>
0

>  <SCORE.INTRA.VDW.0>
0

>  <SCORE.INTRA.norm>
0

>  <SCORE.RESTR>
0

>  <SCORE.RESTR.CAVITY>
0

>  <SCORE.RESTR.norm>
0

>  <SCORE.SYSTEM>
0

>  <SCORE.SYSTEM.CONST>
0

>  <SCORE.SYSTEM.DIHEDRAL>
0

>  <SCORE.SYSTEM.SOLV>
0

>  <SCORE.SYSTEM.norm>
0

>  <SCORE.heavy>
13

>  <SCORE.norm>
-0.834146

>  <RMSD>
35.480

$$$$
ligand
 OpenBabel11021811483D
libRbt.so/2013.1/901 2013/11/27
 13 14  0  0  0  0  0  0  0  0999 V2000
  -21.5165   44.4307   58.0233 N   0  0  0  0  0  0  0  0  0  0  0  0
  -21.8448   42.8024   56.4063 N   0  0  0  0  0  0  0  0  0  0  0  0
  -21.8598   43.1884   57.6955 C   0  0  0  0  0  0  0  0  0  0  0  0
  -22.2214   42.2888   58.6975 N   0  0  0  0  0  0  0  0  0  0  0  0
  -22.5770   40.9898   58.3288 C   0  0  0  0  0  0  0  0  0  0  0  0
  -22.5673   40.6204   56.9877 C   0  0  0  0  0  0  0  0  0  0  0  0
  -22.8934   40.1714   59.1915 O   0  0  0  0  0  0  0  0  0  0  0  0
  -22.8850   39.2989   56.6208 N   0  0  0  0  0  0  0  0  0  0  0  0
  -22.9424   38.8575   55.1983 C   0  0  2  0  0  0  0  0  0  0  0  0
  -21.9786   39.7169   54.3627 C   0  0  0  0  0  0  0  0  0  0  0  0
  -22.1753   41.5519   56.0368 C   0  0  0  0  0  0  0  0  0  0  0  0
  -22.1409   41.1757   54.6886 N   0  0  0  0  0  0  0  0  0  0  0  0
  -24.4000   39.0418   54.6796 C   0  0  0  0  0  0  0  0  0  0  0  0
  1  3  1  0  0  0  0
  2  3  2  0  0  0  0
  2 11  1  0  0  0  0
  3  4  1  0  0  0  0
  4  5  1  0  0  0  0
  5  6  1  0  0  0  0
  5  7  2  0  0  0  0
  6  8  1  0  0  0  0
  6 11  2  0  0  0  0
  8  9  1  0  0  0  0
  9 10  1  0  0  0  0
  9 13  1  6  0  0  0
 10 12  1  0  0  0  0
 11 12  1  0  0  0  0
M  END
>  <CHROM.1>
-22.48274168,41.05464587,56.68456015,-0.89031900,-1.18270044,-1.78851136

>  <Name>
ligand

>  <RI>
0

>  <Rbt.Current_Directory>
/home/itssahil/PROJECTS/Mol_Feturizer/New_Systems/rnas/3SUX

>  <Rbt.Executable>
rbdock ($Id: //depot/dev/client3/rdock/2013.1/src/exe/rbdock.cxx#4 $)

>  <Rbt.Library>
libRbt.so (2013.1, Build901 2013/11/27)

>  <Rbt.Parameter_File>
/export/apps/rDock/src/rDock_2013.1_src/data/scripts/dock_solv.prm

>  <Rbt.Receptor>
prm/blind_docking_80.prm

>  <SCORE>
-11.2574

>  <SCORE.INTER>
-11.2574

>  <SCORE.INTER.CONST>
1

>  <SCORE.INTER.POLAR>
0

>  <SCORE.INTER.ROT>
0

>  <SCORE.INTER.SOLV>
19.7895

>  <SCORE.INTER.VDW>
-17.7015

>  <SCORE.INTER.norm>
-0.865956

>  <SCORE.INTRA>
0

>  <SCORE.INTRA.DIHEDRAL>
0

>  <SCORE.INTRA.DIHEDRAL.0>
0

>  <SCORE.INTRA.POLAR>
0

>  <SCORE.INTRA.POLAR.0>
0

>  <SCORE.INTRA.REPUL>
0

>  <SCORE.INTRA.REPUL.0>
0

>  <SCORE.INTRA.SOLV>
0

>  <SCORE.INTRA.SOLV.lig_0>
-48.6608

>  <SCORE.INTRA.VDW>
0

>  <SCORE.INTRA.VDW.0>
0

>  <SCORE.INTRA.norm>
0

>  <SCORE.RESTR>
0

>  <SCORE.RESTR.CAVITY>
0

>  <SCORE.RESTR.norm>
0

>  <SCORE.SYSTEM>
0

>  <SCORE.SYSTEM.CONST>
0

>  <SCORE.SYSTEM.DIHEDRAL>
0

>  <SCORE.SYSTEM.SOLV>
0

>  <SCORE.SYSTEM.norm>
0

>  <SCORE.heavy>
13

>  <SCORE.norm>
-0.865956

>  <RMSD>
35.502

$$$$
ligand
 OpenBabel11021811483D
libRbt.so/2013.1/901 2013/11/27
 13 14  0  0  0  0  0  0  0  0999 V2000
  -21.4835   44.5116   58.0477 N   0  0  0  0  0  0  0  0  0  0  0  0
  -21.7747   42.9252   56.3827 N   0  0  0  0  0  0  0  0  0  0  0  0
  -21.8360   43.2836   57.6785 C   0  0  0  0  0  0  0  0  0  0  0  0
  -22.2557   42.3700   58.6445 N   0  0  0  0  0  0  0  0  0  0  0  0
  -22.6200   41.0865   58.2327 C   0  0  0  0  0  0  0  0  0  0  0  0
  -22.5614   40.7458   56.8853 C   0  0  0  0  0  0  0  0  0  0  0  0
  -22.9872   40.2561   59.0632 O   0  0  0  0  0  0  0  0  0  0  0  0
  -22.8882   39.4389   56.4763 N   0  0  0  0  0  0  0  0  0  0  0  0
  -22.8947   39.0293   55.0432 C   0  0  2  0  0  0  0  0  0  0  0  0
  -21.8810   39.8874   54.2673 C   0  0  0  0  0  0  0  0  0  0  0  0
  -22.1128   41.6896   55.9722 C   0  0  0  0  0  0  0  0  0  0  0  0
  -22.0294   41.3418   54.6186 N   0  0  0  0  0  0  0  0  0  0  0  0
  -24.3258   39.2533   54.4692 C   0  0  0  0  0  0  0  0  0  0  0  0
  1  3  1  0  0  0  0
  2  3  2  0  0  0  0
  2 11  1  0  0  0  0
  3  4  1  0  0  0  0
  4  5  1  0  0  0  0
  5  6  1  0  0  0  0
  5  7  2  0  0  0  0
  6  8  1  0  0  0  0
  6 11  2  0  0  0  0
  8  9  1  0  0  0  0
  9 10  1  0  0  0  0
  9 13  1  6  0  0  0
 10 12  1  0  0  0  0
 11 12  1  0  0  0  0
M  END
>  <CHROM.1>
-22.45618909,41.18467845,56.59556817,-0.98072863,-1.15391644,-1.84986130

>  <Name>
ligand

>  <RI>
0

>  <Rbt.Current_Directory>
/home/itssahil/PROJECTS/Mol_Feturizer/New_Systems/rnas/3SUX

>  <Rbt.Executable>
rbdock ($Id: //depot/dev/client3/rdock/2013.1/src/exe/rbdock.cxx#4 $)

>  <Rbt.Library>
libRbt.so (2013.1, Build901 2013/11/27)

>  <Rbt.Parameter_File>
/export/apps/rDock/src/rDock_2013.1_src/data/scripts/dock_solv.prm

>  <Rbt.Receptor>
prm/blind_docking_80.prm

>  <SCORE>
-11.2728

>  <SCORE.INTER>
-11.2728

>  <SCORE.INTER.CONST>
1

>  <SCORE.INTER.POLAR>
0

>  <SCORE.INTER.ROT>
0

>  <SCORE.INTER.SOLV>
20.0654

>  <SCORE.INTER.VDW>
-17.8037

>  <SCORE.INTER.norm>
-0.867138

>  <SCORE.INTRA>
0

>  <SCORE.INTRA.DIHEDRAL>
0

>  <SCORE.INTRA.DIHEDRAL.0>
0

>  <SCORE.INTRA.POLAR>
0

>  <SCORE.INTRA.POLAR.0>
0

>  <SCORE.INTRA.REPUL>
0

>  <SCORE.INTRA.REPUL.0>
0

>  <SCORE.INTRA.SOLV>
0

>  <SCORE.INTRA.SOLV.lig_0>
-48.6608

>  <SCORE.INTRA.VDW>
0

>  <SCORE.INTRA.VDW.0>
0

>  <SCORE.INTRA.norm>
0

>  <SCORE.RESTR>
0

>  <SCORE.RESTR.CAVITY>
0

>  <SCORE.RESTR.norm>
0

>  <SCORE.SYSTEM>
0

>  <SCORE.SYSTEM.CONST>
0

>  <SCORE.SYSTEM.DIHEDRAL>
0

>  <SCORE.SYSTEM.SOLV>
0

>  <SCORE.SYSTEM.norm>
0

>  <SCORE.heavy>
13

>  <SCORE.norm>
-0.867138

>  <RMSD>
35.504

$$$$
ligand
 OpenBabel11021811483D
libRbt.so/2013.1/901 2013/11/27
 13 14  0  0  0  0  0  0  0  0999 V2000
  -21.4777   44.4900   58.0653 N   0  0  0  0  0  0  0  0  0  0  0  0
  -21.7676   42.9150   56.3892 N   0  0  0  0  0  0  0  0  0  0  0  0
  -21.8319   43.2651   57.6871 C   0  0  0  0  0  0  0  0  0  0  0  0
  -22.2564   42.3463   58.6460 N   0  0  0  0  0  0  0  0  0  0  0  0
  -22.6224   41.0663   58.2248 C   0  0  0  0  0  0  0  0  0  0  0  0
  -22.5607   40.7342   56.8753 C   0  0  0  0  0  0  0  0  0  0  0  0
  -22.9939   40.2313   59.0487 O   0  0  0  0  0  0  0  0  0  0  0  0
  -22.8893   39.4308   56.4569 N   0  0  0  0  0  0  0  0  0  0  0  0
  -22.8926   39.0305   55.0211 C   0  0  2  0  0  0  0  0  0  0  0  0
  -21.8748   39.8913   54.2538 C   0  0  0  0  0  0  0  0  0  0  0  0
  -22.1074   41.6829   55.9697 C   0  0  0  0  0  0  0  0  0  0  0  0
  -22.0209   41.3437   54.6141 N   0  0  0  0  0  0  0  0  0  0  0  0
  -24.3215   39.2615   54.4445 C   0  0  0  0  0  0  0  0  0  0  0  0
  1  3  1  0  0  0  0
  2  3  2  0  0  0  0
  2 11  1  0  0  0  0
  3  4  1  0  0  0  0
  4  5  1  0  0  0  0
  5  6  1  0  0  0  0
  5  7  2  0  0  0  0
  6  8  1  0  0  0  0
  6 11  2  0  0  0  0
  8  9  1  0  0  0  0
  9 10  1  0  0  0  0
  9 13  1  6  0  0  0
 10 12  1  0  0  0  0
 11 12  1  0  0  0  0
M  END
>  <CHROM.1>
-22.45370084,41.17473262,56.58877020,-0.98600445,-1.15094116,-1.84817511

>  <Name>
ligand

>  <RI>
0

>  <Rbt.Current_Directory>
/home/itssahil/PROJECTS/Mol_Feturizer/New_Systems/rnas/3SUX

>  <Rbt.Executable>
rbdock ($Id: //depot/dev/client3/rdock/2013.1/src/exe/rbdock.cxx#4 $)

>  <Rbt.Library>
libRbt.so (2013.1, Build901 2013/11/27)

>  <Rbt.Parameter_File>
/export/apps/rDock/src/rDock_2013.1_src/data/scripts/dock_solv.prm

>  <Rbt.Receptor>
prm/blind_docking_80.prm

>  <SCORE>
-11.2835

>  <SCORE.INTER>
-11.2835

>  <SCORE.INTER.CONST>
1

>  <SCORE.INTER.POLAR>
0

>  <SCORE.INTER.ROT>
0

>  <SCORE.INTER.SOLV>
19.9959

>  <SCORE.INTER.VDW>
-17.7876

>  <SCORE.INTER.norm>
-0.867959

>  <SCORE.INTRA>
0

>  <SCORE.INTRA.DIHEDRAL>
0

>  <SCORE.INTRA.DIHEDRAL.0>
0

>  <SCORE.INTRA.POLAR>
0

>  <SCORE.INTRA.POLAR.0>
0

>  <SCORE.INTRA.REPUL>
0

>  <SCORE.INTRA.REPUL.0>
0

>  <SCORE.INTRA.SOLV>
0

>  <SCORE.INTRA.SOLV.lig_0>
-48.6608

>  <SCORE.INTRA.VDW>
0

>  <SCORE.INTRA.VDW.0>
0

>  <SCORE.INTRA.norm>
0

>  <SCORE.RESTR>
0

>  <SCORE.RESTR.CAVITY>
0

>  <SCORE.RESTR.norm>
0

>  <SCORE.SYSTEM>
0

>  <SCORE.SYSTEM.CONST>
0

>  <SCORE.SYSTEM.DIHEDRAL>
0

>  <SCORE.SYSTEM.SOLV>
0

>  <SCORE.SYSTEM.norm>
0

>  <SCORE.heavy>
13

>  <SCORE.norm>
-0.867959

>  <RMSD>
35.505

$$$$
ligand
 OpenBabel11021811483D
libRbt.so/2013.1/901 2013/11/27
 13 14  0  0  0  0  0  0  0  0999 V2000
  -21.4930   44.3984   58.0490 N   0  0  0  0  0  0  0  0  0  0  0  0
  -21.8155   42.7734   56.4276 N   0  0  0  0  0  0  0  0  0  0  0  0
  -21.8567   43.1636   57.7149 C   0  0  0  0  0  0  0  0  0  0  0  0
  -22.2670   42.2760   58.7088 N   0  0  0  0  0  0  0  0  0  0  0  0
  -22.6433   40.9847   58.3336 C   0  0  0  0  0  0  0  0  0  0  0  0
  -22.6055   40.6110   56.9942 C   0  0  0  0  0  0  0  0  0  0  0  0
  -23.0027   40.1767   59.1892 O   0  0  0  0  0  0  0  0  0  0  0  0
  -22.9445   39.2963   56.6219 N   0  0  0  0  0  0  0  0  0  0  0  0
  -22.9734   38.8520   55.1994 C   0  0  2  0  0  0  0  0  0  0  0  0
  -21.9667   39.6856   54.3886 C   0  0  0  0  0  0  0  0  0  0  0  0
  -22.1655   41.5300   56.0521 C   0  0  0  0  0  0  0  0  0  0  0  0
  -22.1030   41.1489   54.7064 N   0  0  0  0  0  0  0  0  0  0  0  0
  -24.4114   39.0693   54.6404 C   0  0  0  0  0  0  0  0  0  0  0  0
  1  3  1  0  0  0  0
  2  3  2  0  0  0  0
  2 11  1  0  0  0  0
  3  4  1  0  0  0  0
  4  5  1  0  0  0  0
  5  6  1  0  0  0  0
  5  7  2  0  0  0  0
  6  8  1  0  0  0  0
  6 11  2  0  0  0  0
  8  9  1  0  0  0  0
  9 10  1  0  0  0  0
  9 13  1  6  0  0  0
 10 12  1  0  0  0  0
 11 12  1  0  0  0  0
M  END
>  <CHROM.1>
-22.50235669,41.04216854,56.69242470,-0.94370308,-1.15292151,-1.84038600

>  <Name>
ligand

>  <RI>
0

>  <Rbt.Current_Directory>
/home/itssahil/PROJECTS/Mol_Feturizer/New_Systems/rnas/3SUX

>  <Rbt.Executable>
rbdock ($Id: //depot/dev/client3/rdock/2013.1/src/exe/rbdock.cxx#4 $)

>  <Rbt.Library>
libRbt.so (2013.1, Build901 2013/11/27)

>  <Rbt.Parameter_File>
/export/apps/rDock/src/rDock_2013.1_src/data/scripts/dock_solv.prm

>  <Rbt.Receptor>
prm/blind_docking_80.prm

>  <SCORE>
-11.2721

>  <SCORE.INTER>
-11.2721

>  <SCORE.INTER.CONST>
1

>  <SCORE.INTER.POLAR>
0

>  <SCORE.INTER.ROT>
0

>  <SCORE.INTER.SOLV>
19.7786

>  <SCORE.INTER.VDW>
-17.7076

>  <SCORE.INTER.norm>
-0.867085

>  <SCORE.INTRA>
0

>  <SCORE.INTRA.DIHEDRAL>
0

>  <SCORE.INTRA.DIHEDRAL.0>
0

>  <SCORE.INTRA.POLAR>
0

>  <SCORE.INTRA.POLAR.0>
0

>  <SCORE.INTRA.REPUL>
0

>  <SCORE.INTRA.REPUL.0>
0

>  <SCORE.INTRA.SOLV>
0

>  <SCORE.INTRA.SOLV.lig_0>
-48.6608

>  <SCORE.INTRA.VDW>
0

>  <SCORE.INTRA.VDW.0>
0

>  <SCORE.INTRA.norm>
0

>  <SCORE.RESTR>
0

>  <SCORE.RESTR.CAVITY>
0

>  <SCORE.RESTR.norm>
0

>  <SCORE.SYSTEM>
0

>  <SCORE.SYSTEM.CONST>
0

>  <SCORE.SYSTEM.DIHEDRAL>
0

>  <SCORE.SYSTEM.SOLV>
0

>  <SCORE.SYSTEM.norm>
0

>  <SCORE.heavy>
13

>  <SCORE.norm>
-0.867085

>  <RMSD>
35.518

$$$$
ligand
 OpenBabel11021811483D
libRbt.so/2013.1/901 2013/11/27
 13 14  0  0  0  0  0  0  0  0999 V2000
  -24.9792   37.8846   55.6890 N   0  0  0  0  0  0  0  0  0  0  0  0
  -24.0332   39.3982   57.1680 N   0  0  0  0  0  0  0  0  0  0  0  0
  -24.0863   38.8360   55.9465 C   0  0  0  0  0  0  0  0  0  0  0  0
  -23.2002   39.2348   54.9466 N   0  0  0  0  0  0  0  0  0  0  0  0
  -22.2712   40.2349   55.2410 C   0  0  0  0  0  0  0  0  0  0  0  0
  -22.2468   40.8101   56.5074 C   0  0  0  0  0  0  0  0  0  0  0  0
  -21.4713   40.6024   54.3814 O   0  0  0  0  0  0  0  0  0  0  0  0
  -21.2824   41.7881   56.8162 N   0  0  0  0  0  0  0  0  0  0  0  0
  -21.2392   42.4775   58.1370 C   0  0  2  0  0  0  0  0  0  0  0  0
  -21.8126   41.5418   59.2147 C   0  0  0  0  0  0  0  0  0  0  0  0
  -23.1375   40.3556   57.4694 C   0  0  0  0  0  0  0  0  0  0  0  0
  -23.0989   40.9155   58.7521 N   0  0  0  0  0  0  0  0  0  0  0  0
  -22.1001   43.7731   58.0493 C   0  0  0  0  0  0  0  0  0  0  0  0
  1  3  1  0  0  0  0
  2  3  2  0  0  0  0
  2 11  1  0  0  0  0
  3  4  1  0  0  0  0
  4  5  1  0  0  0  0
  5  6  1  0  0  0  0
  5  7  2  0  0  0  0
  6  8  1  0  0  0  0
  6 11  2  0  0  0  0
  8  9  1  0  0  0  0
  9 10  1  0  0  0  0
  9 13  1  6  0  0  0
 10 12  1  0  0  0  0
 11 12  1  0  0  0  0
M  END
>  <CHROM.1>
-22.66880578,40.63680843,56.78929329,2.20541108,-0.79557668,-2.01614925

>  <Name>
ligand

>  <RI>
0

>  <Rbt.Current_Directory>
/home/itssahil/PROJECTS/Mol_Feturizer/New_Systems/rnas/3SUX

>  <Rbt.Executable>
rbdock ($Id: //depot/dev/client3/rdock/2013.1/src/exe/rbdock.cxx#4 $)

>  <Rbt.Library>
libRbt.so (2013.1, Build901 2013/11/27)

>  <Rbt.Parameter_File>
/export/apps/rDock/src/rDock_2013.1_src/data/scripts/dock_solv.prm

>  <Rbt.Receptor>
prm/blind_docking_100.prm

>  <SCORE>
-8.27528

>  <SCORE.INTER>
-8.27528

>  <SCORE.INTER.CONST>
1

>  <SCORE.INTER.POLAR>
0

>  <SCORE.INTER.ROT>
0

>  <SCORE.INTER.SOLV>
15.1544

>  <SCORE.INTER.VDW>
-14.1683

>  <SCORE.INTER.norm>
-0.63656

>  <SCORE.INTRA>
0

>  <SCORE.INTRA.DIHEDRAL>
0

>  <SCORE.INTRA.DIHEDRAL.0>
0

>  <SCORE.INTRA.POLAR>
0

>  <SCORE.INTRA.POLAR.0>
0

>  <SCORE.INTRA.REPUL>
0

>  <SCORE.INTRA.REPUL.0>
0

>  <SCORE.INTRA.SOLV>
0

>  <SCORE.INTRA.SOLV.lig_0>
-48.6608

>  <SCORE.INTRA.VDW>
0

>  <SCORE.INTRA.VDW.0>
0

>  <SCORE.INTRA.norm>
0

>  <SCORE.RESTR>
0

>  <SCORE.RESTR.CAVITY>
0

>  <SCORE.RESTR.norm>
0

>  <SCORE.SYSTEM>
0

>  <SCORE.SYSTEM.CONST>
0

>  <SCORE.SYSTEM.DIHEDRAL>
0

>  <SCORE.SYSTEM.SOLV>
0

>  <SCORE.SYSTEM.norm>
0

>  <SCORE.heavy>
13

>  <SCORE.norm>
-0.63656

>  <RMSD>
35.735

$$$$
ligand
 OpenBabel11021811483D
libRbt.so/2013.1/901 2013/11/27
 13 14  0  0  0  0  0  0  0  0999 V2000
  -19.3076   49.0542   52.1441 N   0  0  0  0  0  0  0  0  0  0  0  0
  -20.8005   50.8273   52.1133 N   0  0  0  0  0  0  0  0  0  0  0  0
  -20.1348   49.8723   52.7885 C   0  0  0  0  0  0  0  0  0  0  0  0
  -20.3153   49.7234   54.1630 N   0  0  0  0  0  0  0  0  0  0  0  0
  -21.1895   50.5937   54.8173 C   0  0  0  0  0  0  0  0  0  0  0  0
  -21.8544   51.5818   54.0985 C   0  0  0  0  0  0  0  0  0  0  0  0
  -21.3750   50.4820   56.0286 O   0  0  0  0  0  0  0  0  0  0  0  0
  -22.7676   52.4313   54.7516 N   0  0  0  0  0  0  0  0  0  0  0  0
  -23.4701   53.5407   54.0465 C   0  0  2  0  0  0  0  0  0  0  0  0
  -23.6292   53.1753   52.5609 C   0  0  0  0  0  0  0  0  0  0  0  0
  -21.6533   51.6665   52.7282 C   0  0  0  0  0  0  0  0  0  0  0  0
  -22.3400   52.6442   51.9982 N   0  0  0  0  0  0  0  0  0  0  0  0
  -22.6156   54.8362   54.1837 C   0  0  0  0  0  0  0  0  0  0  0  0
  1  3  1  0  0  0  0
  2  3  2  0  0  0  0
  2 11  1  0  0  0  0
  3  4  1  0  0  0  0
  4  5  1  0  0  0  0
  5  6  1  0  0  0  0
  5  7  2  0  0  0  0
  6  8  1  0  0  0  0
  6 11  2  0  0  0  0
  8  9  1  0  0  0  0
  9 10  1  0  0  0  0
  9 13  1  6  0  0  0
 10 12  1  0  0  0  0
 11 12  1  0  0  0  0
M  END
>  <CHROM.1>
-21.66279195,51.59643883,53.59786388,-0.05892208,0.93299465,-1.38339166

>  <Name>
ligand

>  <RI>
0

>  <Rbt.Current_Directory>
/home/itssahil/PROJECTS/Mol_Feturizer/New_Systems/rnas/3SUX

>  <Rbt.Executable>
rbdock ($Id: //depot/dev/client3/rdock/2013.1/src/exe/rbdock.cxx#4 $)

>  <Rbt.Library>
libRbt.so (2013.1, Build901 2013/11/27)

>  <Rbt.Parameter_File>
/export/apps/rDock/src/rDock_2013.1_src/data/scripts/dock_solv.prm

>  <Rbt.Receptor>
prm/blind_docking_100.prm

>  <SCORE>
-7.78731

>  <SCORE.INTER>
-7.78731

>  <SCORE.INTER.CONST>
1

>  <SCORE.INTER.POLAR>
0

>  <SCORE.INTER.ROT>
0

>  <SCORE.INTER.SOLV>
7.2587

>  <SCORE.INTER.VDW>
-11.2111

>  <SCORE.INTER.norm>
-0.599024

>  <SCORE.INTRA>
0

>  <SCORE.INTRA.DIHEDRAL>
0

>  <SCORE.INTRA.DIHEDRAL.0>
0

>  <SCORE.INTRA.POLAR>
0

>  <SCORE.INTRA.POLAR.0>
0

>  <SCORE.INTRA.REPUL>
0

>  <SCORE.INTRA.REPUL.0>
0

>  <SCORE.INTRA.SOLV>
0

>  <SCORE.INTRA.SOLV.lig_0>
-48.6608

>  <SCORE.INTRA.VDW>
0

>  <SCORE.INTRA.VDW.0>
0

>  <SCORE.INTRA.norm>
0

>  <SCORE.RESTR>
0

>  <SCORE.RESTR.CAVITY>
0

>  <SCORE.RESTR.norm>
0

>  <SCORE.SYSTEM>
0

>  <SCORE.SYSTEM.CONST>
0

>  <SCORE.SYSTEM.DIHEDRAL>
0

>  <SCORE.SYSTEM.SOLV>
0

>  <SCORE.SYSTEM.norm>
0

>  <SCORE.heavy>
13

>  <SCORE.norm>
-0.599024

>  <RMSD>
36.842

$$$$
ligand
 OpenBabel11021811483D
libRbt.so/2013.1/901 2013/11/27
 13 14  0  0  0  0  0  0  0  0999 V2000
  -19.3274   49.0336   52.1467 N   0  0  0  0  0  0  0  0  0  0  0  0
  -20.7900   50.8314   52.0991 N   0  0  0  0  0  0  0  0  0  0  0  0
  -20.1549   49.8598   52.7801 C   0  0  0  0  0  0  0  0  0  0  0  0
  -20.3678   49.7024   54.1490 N   0  0  0  0  0  0  0  0  0  0  0  0
  -21.2416   50.5815   54.7919 C   0  0  0  0  0  0  0  0  0  0  0  0
  -21.8744   51.5865   54.0676 C   0  0  0  0  0  0  0  0  0  0  0  0
  -21.4554   50.4627   55.9979 O   0  0  0  0  0  0  0  0  0  0  0  0
  -22.7876   52.4455   54.7081 N   0  0  0  0  0  0  0  0  0  0  0  0
  -23.4563   53.5723   53.9977 C   0  0  2  0  0  0  0  0  0  0  0  0
  -23.5889   53.2221   52.5059 C   0  0  0  0  0  0  0  0  0  0  0  0
  -21.6421   51.6794   52.7027 C   0  0  0  0  0  0  0  0  0  0  0  0
  -22.2966   52.6745   51.9666 N   0  0  0  0  0  0  0  0  0  0  0  0
  -22.5838   54.8523   54.1648 C   0  0  0  0  0  0  0  0  0  0  0  0
  1  3  1  0  0  0  0
  2  3  2  0  0  0  0
  2 11  1  0  0  0  0
  3  4  1  0  0  0  0
  4  5  1  0  0  0  0
  5  6  1  0  0  0  0
  5  7  2  0  0  0  0
  6  8  1  0  0  0  0
  6 11  2  0  0  0  0
  8  9  1  0  0  0  0
  9 10  1  0  0  0  0
  9 13  1  6  0  0  0
 10 12  1  0  0  0  0
 11 12  1  0  0  0  0
M  END
>  <CHROM.1>
-21.67173688,51.60222416,53.57132366,-0.10072982,0.94462510,-1.34105296

>  <Name>
ligand

>  <RI>
0

>  <Rbt.Current_Directory>
/home/itssahil/PROJECTS/Mol_Feturizer/New_Systems/rnas/3SUX

>  <Rbt.Executable>
rbdock ($Id: //depot/dev/client3/rdock/2013.1/src/exe/rbdock.cxx#4 $)

>  <Rbt.Library>
libRbt.so (2013.1, Build901 2013/11/27)

>  <Rbt.Parameter_File>
/export/apps/rDock/src/rDock_2013.1_src/data/scripts/dock_solv.prm

>  <Rbt.Receptor>
prm/blind_docking_100.prm

>  <SCORE>
-7.80013

>  <SCORE.INTER>
-7.80013

>  <SCORE.INTER.CONST>
1

>  <SCORE.INTER.POLAR>
0

>  <SCORE.INTER.ROT>
0

>  <SCORE.INTER.SOLV>
7.36799

>  <SCORE.INTER.VDW>
-11.2561

>  <SCORE.INTER.norm>
-0.60001

>  <SCORE.INTRA>
0

>  <SCORE.INTRA.DIHEDRAL>
0

>  <SCORE.INTRA.DIHEDRAL.0>
0

>  <SCORE.INTRA.POLAR>
0

>  <SCORE.INTRA.POLAR.0>
0

>  <SCORE.INTRA.REPUL>
0

>  <SCORE.INTRA.REPUL.0>
0

>  <SCORE.INTRA.SOLV>
0

>  <SCORE.INTRA.SOLV.lig_0>
-48.6608

>  <SCORE.INTRA.VDW>
0

>  <SCORE.INTRA.VDW.0>
0

>  <SCORE.INTRA.norm>
0

>  <SCORE.RESTR>
0

>  <SCORE.RESTR.CAVITY>
0

>  <SCORE.RESTR.norm>
0

>  <SCORE.SYSTEM>
0

>  <SCORE.SYSTEM.CONST>
0

>  <SCORE.SYSTEM.DIHEDRAL>
0

>  <SCORE.SYSTEM.SOLV>
0

>  <SCORE.SYSTEM.norm>
0

>  <SCORE.heavy>
13

>  <SCORE.norm>
-0.60001

>  <RMSD>
36.864

$$$$
ligand
 OpenBabel11021811483D
libRbt.so/2013.1/901 2013/11/27
 13 14  0  0  0  0  0  0  0  0999 V2000
  -26.0651   52.4371   55.5410 N   0  0  0  0  0  0  0  0  0  0  0  0
  -23.8963   51.6251   55.6433 N   0  0  0  0  0  0  0  0  0  0  0  0
  -24.8985   52.1959   54.9498 C   0  0  0  0  0  0  0  0  0  0  0  0
  -24.7283   52.5266   53.6061 N   0  0  0  0  0  0  0  0  0  0  0  0
  -23.4948   52.2631   53.0071 C   0  0  0  0  0  0  0  0  0  0  0  0
  -22.4703   51.6857   53.7501 C   0  0  0  0  0  0  0  0  0  0  0  0
  -23.3172   52.5369   51.8206 O   0  0  0  0  0  0  0  0  0  0  0  0
  -21.2414   51.3815   53.1343 N   0  0  0  0  0  0  0  0  0  0  0  0
  -20.0899   50.8112   53.8896 C   0  0  2  0  0  0  0  0  0  0  0  0
  -20.6206   49.9924   55.0786 C   0  0  0  0  0  0  0  0  0  0  0  0
  -22.7059   51.3562   55.0773 C   0  0  0  0  0  0  0  0  0  0  0  0
  -21.6847   50.7524   55.8208 N   0  0  0  0  0  0  0  0  0  0  0  0
  -19.2060   51.9847   54.4083 C   0  0  0  0  0  0  0  0  0  0  0  0
  1  3  1  0  0  0  0
  2  3  2  0  0  0  0
  2 11  1  0  0  0  0
  3  4  1  0  0  0  0
  4  5  1  0  0  0  0
  5  6  1  0  0  0  0
  5  7  2  0  0  0  0
  6  8  1  0  0  0  0
  6 11  2  0  0  0  0
  8  9  1  0  0  0  0
  9 10  1  0  0  0  0
  9 13  1  1  0  0  0
 10 12  1  0  0  0  0
 11 12  1  0  0  0  0
M  END
>  <CHROM.1>
-22.61547440,51.66415064,54.26592402,3.08210788,0.25394333,-1.23800560

>  <Name>
ligand

>  <RI>
0

>  <Rbt.Current_Directory>
/home/itssahil/PROJECTS/Mol_Feturizer/New_Systems/rnas/3SUX

>  <Rbt.Executable>
rbdock ($Id: //depot/dev/client3/rdock/2013.1/src/exe/rbdock.cxx#4 $)

>  <Rbt.Library>
libRbt.so (2013.1, Build901 2013/11/27)

>  <Rbt.Parameter_File>
/export/apps/rDock/src/rDock_2013.1_src/data/scripts/dock_solv.prm

>  <Rbt.Receptor>
prm/blind_docking_100.prm

>  <SCORE>
-7.05426

>  <SCORE.INTER>
-7.05426

>  <SCORE.INTER.CONST>
1

>  <SCORE.INTER.POLAR>
0

>  <SCORE.INTER.ROT>
0

>  <SCORE.INTER.SOLV>
8.61869

>  <SCORE.INTER.VDW>
-11.1757

>  <SCORE.INTER.norm>
-0.542635

>  <SCORE.INTRA>
0

>  <SCORE.INTRA.DIHEDRAL>
0

>  <SCORE.INTRA.DIHEDRAL.0>
0

>  <SCORE.INTRA.POLAR>
0

>  <SCORE.INTRA.POLAR.0>
0

>  <SCORE.INTRA.REPUL>
0

>  <SCORE.INTRA.REPUL.0>
0

>  <SCORE.INTRA.SOLV>
0

>  <SCORE.INTRA.SOLV.lig_0>
-48.6608

>  <SCORE.INTRA.VDW>
0

>  <SCORE.INTRA.VDW.0>
0

>  <SCORE.INTRA.norm>
0

>  <SCORE.RESTR>
0

>  <SCORE.RESTR.CAVITY>
0

>  <SCORE.RESTR.norm>
0

>  <SCORE.SYSTEM>
0

>  <SCORE.SYSTEM.CONST>
0

>  <SCORE.SYSTEM.DIHEDRAL>
0

>  <SCORE.SYSTEM.SOLV>
0

>  <SCORE.SYSTEM.norm>
0

>  <SCORE.heavy>
13

>  <SCORE.norm>
-0.542635

>  <RMSD>
37.588

$$$$
ligand
 OpenBabel11021811483D
libRbt.so/2013.1/901 2013/11/27
 13 14  0  0  0  0  0  0  0  0999 V2000
  -20.0185   56.5617   52.7264 N   0  0  0  0  0  0  0  0  0  0  0  0
  -21.7651   55.0998   52.2951 N   0  0  0  0  0  0  0  0  0  0  0  0
  -20.9407   55.7103   53.1662 C   0  0  0  0  0  0  0  0  0  0  0  0
  -21.0365   55.4470   54.5320 N   0  0  0  0  0  0  0  0  0  0  0  0
  -22.0121   54.5489   54.9697 C   0  0  0  0  0  0  0  0  0  0  0  0
  -22.8613   53.9423   54.0500 C   0  0  0  0  0  0  0  0  0  0  0  0
  -22.1158   54.2907   56.1683 O   0  0  0  0  0  0  0  0  0  0  0  0
  -23.8164   53.0050   54.4876 N   0  0  0  0  0  0  0  0  0  0  0  0
  -24.7876   52.3618   53.5578 C   0  0  2  0  0  0  0  0  0  0  0  0
  -24.1675   52.2851   52.1523 C   0  0  0  0  0  0  0  0  0  0  0  0
  -22.7030   54.2249   52.7007 C   0  0  0  0  0  0  0  0  0  0  0  0
  -23.5402   53.5971   51.7705 N   0  0  0  0  0  0  0  0  0  0  0  0
  -26.0834   53.2261   53.5174 C   0  0  0  0  0  0  0  0  0  0  0  0
  1  3  1  0  0  0  0
  2  3  2  0  0  0  0
  2 11  1  0  0  0  0
  3  4  1  0  0  0  0
  4  5  1  0  0  0  0
  5  6  1  0  0  0  0
  5  7  2  0  0  0  0
  6  8  1  0  0  0  0
  6 11  2  0  0  0  0
  8  9  1  0  0  0  0
  9 10  1  0  0  0  0
  9 13  1  6  0  0  0
 10 12  1  0  0  0  0
 11 12  1  0  0  0  0
M  END
>  <CHROM.1>
-22.78694147,54.16322016,53.56699458,-0.04560770,-0.63340650,-1.50226373

>  <Name>
ligand

>  <RI>
0

>  <Rbt.Current_Directory>
/home/itssahil/PROJECTS/Mol_Feturizer/New_Systems/rnas/3SUX

>  <Rbt.Executable>
rbdock ($Id: //depot/dev/client3/rdock/2013.1/src/exe/rbdock.cxx#4 $)

>  <Rbt.Library>
libRbt.so (2013.1, Build901 2013/11/27)

>  <Rbt.Parameter_File>
/export/apps/rDock/src/rDock_2013.1_src/data/scripts/dock_solv.prm

>  <Rbt.Receptor>
prm/blind_docking_100.prm

>  <SCORE>
-7.16526

>  <SCORE.INTER>
-7.16526

>  <SCORE.INTER.CONST>
1

>  <SCORE.INTER.POLAR>
0

>  <SCORE.INTER.ROT>
0

>  <SCORE.INTER.SOLV>
10.1023

>  <SCORE.INTER.VDW>
-11.7443

>  <SCORE.INTER.norm>
-0.551174

>  <SCORE.INTRA>
0

>  <SCORE.INTRA.DIHEDRAL>
0

>  <SCORE.INTRA.DIHEDRAL.0>
0

>  <SCORE.INTRA.POLAR>
0

>  <SCORE.INTRA.POLAR.0>
0

>  <SCORE.INTRA.REPUL>
0

>  <SCORE.INTRA.REPUL.0>
0

>  <SCORE.INTRA.SOLV>
0

>  <SCORE.INTRA.SOLV.lig_0>
-48.6608

>  <SCORE.INTRA.VDW>
0

>  <SCORE.INTRA.VDW.0>
0

>  <SCORE.INTRA.norm>
0

>  <SCORE.RESTR>
0

>  <SCORE.RESTR.CAVITY>
0

>  <SCORE.RESTR.norm>
0

>  <SCORE.SYSTEM>
0

>  <SCORE.SYSTEM.CONST>
0

>  <SCORE.SYSTEM.DIHEDRAL>
0

>  <SCORE.SYSTEM.SOLV>
0

>  <SCORE.SYSTEM.norm>
0

>  <SCORE.heavy>
13

>  <SCORE.norm>
-0.551174

>  <RMSD>
38.452

$$$$
ligand
 OpenBabel11021811483D
libRbt.so/2013.1/901 2013/11/27
 13 14  0  0  0  0  0  0  0  0999 V2000
  -20.0282   56.5574   52.7291 N   0  0  0  0  0  0  0  0  0  0  0  0
  -21.7828   55.1045   52.2995 N   0  0  0  0  0  0  0  0  0  0  0  0
  -20.9516   55.7075   53.1694 C   0  0  0  0  0  0  0  0  0  0  0  0
  -21.0415   55.4379   54.5344 N   0  0  0  0  0  0  0  0  0  0  0  0
  -22.0184   54.5415   54.9726 C   0  0  0  0  0  0  0  0  0  0  0  0
  -22.8747   53.9428   54.0543 C   0  0  0  0  0  0  0  0  0  0  0  0
  -22.1171   54.2779   56.1704 O   0  0  0  0  0  0  0  0  0  0  0  0
  -23.8313   53.0072   54.4921 N   0  0  0  0  0  0  0  0  0  0  0  0
  -24.8098   52.3724   53.5642 C   0  0  2  0  0  0  0  0  0  0  0  0
  -24.1971   52.3001   52.1552 C   0  0  0  0  0  0  0  0  0  0  0  0
  -22.7221   54.2314   52.7056 C   0  0  0  0  0  0  0  0  0  0  0  0
  -23.5665   53.6115   51.7766 N   0  0  0  0  0  0  0  0  0  0  0  0
  -26.1023   53.2420   53.5346 C   0  0  0  0  0  0  0  0  0  0  0  0
  1  3  1  0  0  0  0
  2  3  2  0  0  0  0
  2 11  1  0  0  0  0
  3  4  1  0  0  0  0
  4  5  1  0  0  0  0
  5  6  1  0  0  0  0
  5  7  2  0  0  0  0
  6  8  1  0  0  0  0
  6 11  2  0  0  0  0
  8  9  1  0  0  0  0
  9 10  1  0  0  0  0
  9 13  1  6  0  0  0
 10 12  1  0  0  0  0
 11 12  1  0  0  0  0
M  END
>  <CHROM.1>
-22.80192938,54.16577751,53.57199893,-0.03971551,-0.62906920,-1.49388252

>  <Name>
ligand

>  <RI>
0

>  <Rbt.Current_Directory>
/home/itssahil/PROJECTS/Mol_Feturizer/New_Systems/rnas/3SUX

>  <Rbt.Executable>
rbdock ($Id: //depot/dev/client3/rdock/2013.1/src/exe/rbdock.cxx#4 $)

>  <Rbt.Library>
libRbt.so (2013.1, Build901 2013/11/27)

>  <Rbt.Parameter_File>
/export/apps/rDock/src/rDock_2013.1_src/data/scripts/dock_solv.prm

>  <Rbt.Receptor>
prm/blind_docking_100.prm

>  <SCORE>
-7.17561

>  <SCORE.INTER>
-7.17561

>  <SCORE.INTER.CONST>
1

>  <SCORE.INTER.POLAR>
0

>  <SCORE.INTER.ROT>
0

>  <SCORE.INTER.SOLV>
10.1459

>  <SCORE.INTER.VDW>
-11.7657

>  <SCORE.INTER.norm>
-0.55197

>  <SCORE.INTRA>
0

>  <SCORE.INTRA.DIHEDRAL>
0

>  <SCORE.INTRA.DIHEDRAL.0>
0

>  <SCORE.INTRA.POLAR>
0

>  <SCORE.INTRA.POLAR.0>
0

>  <SCORE.INTRA.REPUL>
0

>  <SCORE.INTRA.REPUL.0>
0

>  <SCORE.INTRA.SOLV>
0

>  <SCORE.INTRA.SOLV.lig_0>
-48.6608

>  <SCORE.INTRA.VDW>
0

>  <SCORE.INTRA.VDW.0>
0

>  <SCORE.INTRA.norm>
0

>  <SCORE.RESTR>
0

>  <SCORE.RESTR.CAVITY>
0

>  <SCORE.RESTR.norm>
0

>  <SCORE.SYSTEM>
0

>  <SCORE.SYSTEM.CONST>
0

>  <SCORE.SYSTEM.DIHEDRAL>
0

>  <SCORE.SYSTEM.SOLV>
0

>  <SCORE.SYSTEM.norm>
0

>  <SCORE.heavy>
13

>  <SCORE.norm>
-0.55197

>  <RMSD>
38.464

$$$$
ligand
 OpenBabel11021811483D
libRbt.so/2013.1/901 2013/11/27
 13 14  0  0  0  0  0  0  0  0999 V2000
  -20.2047   56.1446   51.1171 N   0  0  0  0  0  0  0  0  0  0  0  0
  -21.9592   54.6382   51.2785 N   0  0  0  0  0  0  0  0  0  0  0  0
  -21.0643   55.4561   51.8626 C   0  0  0  0  0  0  0  0  0  0  0  0
  -21.0211   55.5791   53.2508 N   0  0  0  0  0  0  0  0  0  0  0  0
  -21.9332   54.8457   54.0123 C   0  0  0  0  0  0  0  0  0  0  0  0
  -22.8577   54.0184   53.3831 C   0  0  0  0  0  0  0  0  0  0  0  0
  -21.9144   54.9277   55.2399 O   0  0  0  0  0  0  0  0  0  0  0  0
  -23.7487   53.2471   54.1534 N   0  0  0  0  0  0  0  0  0  0  0  0
  -24.7951   52.3832   53.5367 C   0  0  2  0  0  0  0  0  0  0  0  0
  -24.3144   51.9171   52.1519 C   0  0  0  0  0  0  0  0  0  0  0  0
  -22.8374   53.9179   51.9993 C   0  0  0  0  0  0  0  0  0  0  0  0
  -23.7506   53.0673   51.3647 N   0  0  0  0  0  0  0  0  0  0  0  0
  -26.1035   53.2162   53.3893 C   0  0  0  0  0  0  0  0  0  0  0  0
  1  3  1  0  0  0  0
  2  3  2  0  0  0  0
  2 11  1  0  0  0  0
  3  4  1  0  0  0  0
  4  5  1  0  0  0  0
  5  6  1  0  0  0  0
  5  7  2  0  0  0  0
  6  8  1  0  0  0  0
  6 11  2  0  0  0  0
  8  9  1  0  0  0  0
  9 10  1  0  0  0  0
  9 13  1  6  0  0  0
 10 12  1  0  0  0  0
 11 12  1  0  0  0  0
M  END
>  <CHROM.1>
-22.83494298,54.09740674,52.85318427,0.07817008,-0.64052740,-1.70732819

>  <Name>
ligand

>  <RI>
0

>  <Rbt.Current_Directory>
/home/itssahil/PROJECTS/Mol_Feturizer/New_Systems/rnas/3SUX

>  <Rbt.Executable>
rbdock ($Id: //depot/dev/client3/rdock/2013.1/src/exe/rbdock.cxx#4 $)

>  <Rbt.Library>
libRbt.so (2013.1, Build901 2013/11/27)

>  <Rbt.Parameter_File>
/export/apps/rDock/src/rDock_2013.1_src/data/scripts/dock_solv.prm

>  <Rbt.Receptor>
prm/blind_docking_100.prm

>  <SCORE>
-7.13907

>  <SCORE.INTER>
-7.13907

>  <SCORE.INTER.CONST>
1

>  <SCORE.INTER.POLAR>
0

>  <SCORE.INTER.ROT>
0

>  <SCORE.INTER.SOLV>
14.3861

>  <SCORE.INTER.VDW>
-13.1547

>  <SCORE.INTER.norm>
-0.54916

>  <SCORE.INTRA>
0

>  <SCORE.INTRA.DIHEDRAL>
0

>  <SCORE.INTRA.DIHEDRAL.0>
0

>  <SCORE.INTRA.POLAR>
0

>  <SCORE.INTRA.POLAR.0>
0

>  <SCORE.INTRA.REPUL>
0

>  <SCORE.INTRA.REPUL.0>
0

>  <SCORE.INTRA.SOLV>
0

>  <SCORE.INTRA.SOLV.lig_0>
-48.6608

>  <SCORE.INTRA.VDW>
0

>  <SCORE.INTRA.VDW.0>
0

>  <SCORE.INTRA.norm>
0

>  <SCORE.RESTR>
0

>  <SCORE.RESTR.CAVITY>
0

>  <SCORE.RESTR.norm>
0

>  <SCORE.SYSTEM>
0

>  <SCORE.SYSTEM.CONST>
0

>  <SCORE.SYSTEM.DIHEDRAL>
0

>  <SCORE.SYSTEM.SOLV>
0

>  <SCORE.SYSTEM.norm>
0

>  <SCORE.heavy>
13

>  <SCORE.norm>
-0.54916

>  <RMSD>
38.733

$$$$
ligand
 OpenBabel11021811483D
libRbt.so/2013.1/901 2013/11/27
 13 14  0  0  0  0  0  0  0  0999 V2000
  -25.7635   52.7272   54.2211 N   0  0  0  0  0  0  0  0  0  0  0  0
  -23.7576   53.8880   54.1744 N   0  0  0  0  0  0  0  0  0  0  0  0
  -24.7067   53.1700   53.5461 C   0  0  0  0  0  0  0  0  0  0  0  0
  -24.5849   52.8732   52.1892 N   0  0  0  0  0  0  0  0  0  0  0  0
  -23.4661   53.3484   51.5020 C   0  0  0  0  0  0  0  0  0  0  0  0
  -22.5066   54.1008   52.1717 C   0  0  0  0  0  0  0  0  0  0  0  0
  -23.3272   53.0962   50.3057 O   0  0  0  0  0  0  0  0  0  0  0  0
  -21.3582   54.5434   51.4882 N   0  0  0  0  0  0  0  0  0  0  0  0
  -20.3221   55.3960   52.1372 C   0  0  2  0  0  0  0  0  0  0  0  0
  -20.2992   55.1030   53.6470 C   0  0  0  0  0  0  0  0  0  0  0  0
  -22.6695   54.3441   53.5281 C   0  0  0  0  0  0  0  0  0  0  0  0
  -21.6932   55.0801   54.2101 N   0  0  0  0  0  0  0  0  0  0  0  0
  -20.6861   56.8914   51.8943 C   0  0  0  0  0  0  0  0  0  0  0  0
  1  3  1  0  0  0  0
  2  3  2  0  0  0  0
  2 11  1  0  0  0  0
  3  4  1  0  0  0  0
  4  5  1  0  0  0  0
  5  6  1  0  0  0  0
  5  7  2  0  0  0  0
  6  8  1  0  0  0  0
  6 11  2  0  0  0  0
  8  9  1  0  0  0  0
  9 10  1  0  0  0  0
  9 13  1  1  0  0  0
 10 12  1  0  0  0  0
 11 12  1  0  0  0  0
M  END
>  <CHROM.1>
-22.68276623,54.21438449,52.66530839,-3.12648560,-0.59079496,-1.77588536

>  <Name>
ligand

>  <RI>
0

>  <Rbt.Current_Directory>
/home/itssahil/PROJECTS/Mol_Feturizer/New_Systems/rnas/3SUX

>  <Rbt.Executable>
rbdock ($Id: //depot/dev/client3/rdock/2013.1/src/exe/rbdock.cxx#4 $)

>  <Rbt.Library>
libRbt.so (2013.1, Build901 2013/11/27)

>  <Rbt.Parameter_File>
/export/apps/rDock/src/rDock_2013.1_src/data/scripts/dock_solv.prm

>  <Rbt.Receptor>
prm/blind_docking_100.prm

>  <SCORE>
-7.62528

>  <SCORE.INTER>
-7.62528

>  <SCORE.INTER.CONST>
1

>  <SCORE.INTER.POLAR>
0

>  <SCORE.INTER.ROT>
0

>  <SCORE.INTER.SOLV>
10.0481

>  <SCORE.INTER.VDW>
-12.0329

>  <SCORE.INTER.norm>
-0.58656

>  <SCORE.INTRA>
0

>  <SCORE.INTRA.DIHEDRAL>
0

>  <SCORE.INTRA.DIHEDRAL.0>
0

>  <SCORE.INTRA.POLAR>
0

>  <SCORE.INTRA.POLAR.0>
0

>  <SCORE.INTRA.REPUL>
0

>  <SCORE.INTRA.REPUL.0>
0

>  <SCORE.INTRA.SOLV>
0

>  <SCORE.INTRA.SOLV.lig_0>
-48.6608

>  <SCORE.INTRA.VDW>
0

>  <SCORE.INTRA.VDW.0>
0

>  <SCORE.INTRA.norm>
0

>  <SCORE.RESTR>
0

>  <SCORE.RESTR.CAVITY>
0

>  <SCORE.RESTR.norm>
0

>  <SCORE.SYSTEM>
0

>  <SCORE.SYSTEM.CONST>
0

>  <SCORE.SYSTEM.DIHEDRAL>
0

>  <SCORE.SYSTEM.SOLV>
0

>  <SCORE.SYSTEM.norm>
0

>  <SCORE.heavy>
13

>  <SCORE.norm>
-0.58656

>  <RMSD>
38.955

$$$$
ligand
 OpenBabel11021811483D
libRbt.so/2013.1/901 2013/11/27
 13 14  0  0  0  0  0  0  0  0999 V2000
  -25.8122   52.7895   54.1937 N   0  0  0  0  0  0  0  0  0  0  0  0
  -23.8048   53.9486   54.1705 N   0  0  0  0  0  0  0  0  0  0  0  0
  -24.7402   53.2195   53.5344 C   0  0  0  0  0  0  0  0  0  0  0  0
  -24.5884   52.8979   52.1863 N   0  0  0  0  0  0  0  0  0  0  0  0
  -23.4542   53.3600   51.5156 C   0  0  0  0  0  0  0  0  0  0  0  0
  -22.5094   54.1242   52.1926 C   0  0  0  0  0  0  0  0  0  0  0  0
  -23.2889   53.0859   50.3275 O   0  0  0  0  0  0  0  0  0  0  0  0
  -21.3456   54.5538   51.5268 N   0  0  0  0  0  0  0  0  0  0  0  0
  -20.3236   55.4178   52.1831 C   0  0  2  0  0  0  0  0  0  0  0  0
  -20.3346   55.1525   53.6981 C   0  0  0  0  0  0  0  0  0  0  0  0
  -22.7022   54.3923   53.5403 C   0  0  0  0  0  0  0  0  0  0  0  0
  -21.7408   55.1404   54.2303 N   0  0  0  0  0  0  0  0  0  0  0  0
  -20.6809   56.9085   51.9048 C   0  0  0  0  0  0  0  0  0  0  0  0
  1  3  1  0  0  0  0
  2  3  2  0  0  0  0
  2 11  1  0  0  0  0
  3  4  1  0  0  0  0
  4  5  1  0  0  0  0
  5  6  1  0  0  0  0
  5  7  2  0  0  0  0
  6  8  1  0  0  0  0
  6 11  2  0  0  0  0
  8  9  1  0  0  0  0
  9 10  1  0  0  0  0
  9 13  1  1  0  0  0
 10 12  1  0  0  0  0
 11 12  1  0  0  0  0
M  END
>  <CHROM.1>
-22.69637063,54.24687276,52.67999034,3.13071709,-0.58534184,-1.80862652

>  <Name>
ligand

>  <RI>
0

>  <Rbt.Current_Directory>
/home/itssahil/PROJECTS/Mol_Feturizer/New_Systems/rnas/3SUX

>  <Rbt.Executable>
rbdock ($Id: //depot/dev/client3/rdock/2013.1/src/exe/rbdock.cxx#4 $)

>  <Rbt.Library>
libRbt.so (2013.1, Build901 2013/11/27)

>  <Rbt.Parameter_File>
/export/apps/rDock/src/rDock_2013.1_src/data/scripts/dock_solv.prm

>  <Rbt.Receptor>
prm/blind_docking_100.prm

>  <SCORE>
-7.64865

>  <SCORE.INTER>
-7.64865

>  <SCORE.INTER.CONST>
1

>  <SCORE.INTER.POLAR>
0

>  <SCORE.INTER.ROT>
0

>  <SCORE.INTER.SOLV>
10.3734

>  <SCORE.INTER.VDW>
-12.1569

>  <SCORE.INTER.norm>
-0.588358

>  <SCORE.INTRA>
0

>  <SCORE.INTRA.DIHEDRAL>
0

>  <SCORE.INTRA.DIHEDRAL.0>
0

>  <SCORE.INTRA.POLAR>
0

>  <SCORE.INTRA.POLAR.0>
0

>  <SCORE.INTRA.REPUL>
0

>  <SCORE.INTRA.REPUL.0>
0

>  <SCORE.INTRA.SOLV>
0

>  <SCORE.INTRA.SOLV.lig_0>
-48.6608

>  <SCORE.INTRA.VDW>
0

>  <SCORE.INTRA.VDW.0>
0

>  <SCORE.INTRA.norm>
0

>  <SCORE.RESTR>
0

>  <SCORE.RESTR.CAVITY>
0

>  <SCORE.RESTR.norm>
0

>  <SCORE.SYSTEM>
0

>  <SCORE.SYSTEM.CONST>
0

>  <SCORE.SYSTEM.DIHEDRAL>
0

>  <SCORE.SYSTEM.SOLV>
0

>  <SCORE.SYSTEM.norm>
0

>  <SCORE.heavy>
13

>  <SCORE.norm>
-0.588358

>  <RMSD>
38.970

$$$$
ligand
 OpenBabel11021811483D
libRbt.so/2013.1/901 2013/11/27
 13 14  0  0  0  0  0  0  0  0999 V2000
  -28.0012   52.9745   54.0994 N   0  0  0  0  0  0  0  0  0  0  0  0
  -25.7613   53.5710   54.0714 N   0  0  0  0  0  0  0  0  0  0  0  0
  -26.7801   52.8343   53.5914 C   0  0  0  0  0  0  0  0  0  0  0  0
  -26.5634   51.9107   52.5696 N   0  0  0  0  0  0  0  0  0  0  0  0
  -25.2728   51.7808   52.0529 C   0  0  0  0  0  0  0  0  0  0  0  0
  -24.2400   52.5647   52.5568 C   0  0  0  0  0  0  0  0  0  0  0  0
  -25.0491   50.9687   51.1559 O   0  0  0  0  0  0  0  0  0  0  0  0
  -22.9309   52.4029   52.0646 N   0  0  0  0  0  0  0  0  0  0  0  0
  -21.7941   53.2486   52.5273 C   0  0  2  0  0  0  0  0  0  0  0  0
  -22.0620   53.7110   53.9696 C   0  0  0  0  0  0  0  0  0  0  0  0
  -24.5108   53.4498   53.5906 C   0  0  0  0  0  0  0  0  0  0  0  0
  -23.4683   54.2224   54.1164 N   0  0  0  0  0  0  0  0  0  0  0  0
  -21.6813   54.4864   51.5877 C   0  0  0  0  0  0  0  0  0  0  0  0
  1  3  1  0  0  0  0
  2  3  2  0  0  0  0
  2 11  1  0  0  0  0
  3  4  1  0  0  0  0
  4  5  1  0  0  0  0
  5  6  1  0  0  0  0
  5  7  2  0  0  0  0
  6  8  1  0  0  0  0
  6 11  2  0  0  0  0
  8  9  1  0  0  0  0
  9 10  1  0  0  0  0
  9 13  1  6  0  0  0
 10 12  1  0  0  0  0
 11 12  1  0  0  0  0
M  END
>  <CHROM.1>
-24.44230340,52.93039650,52.89281129,3.07765237,-0.27796271,-2.29049432

>  <Name>
ligand

>  <RI>
0

>  <Rbt.Current_Directory>
/home/itssahil/PROJECTS/Mol_Feturizer/New_Systems/rnas/3SUX

>  <Rbt.Executable>
rbdock ($Id: //depot/dev/client3/rdock/2013.1/src/exe/rbdock.cxx#4 $)

>  <Rbt.Library>
libRbt.so (2013.1, Build901 2013/11/27)

>  <Rbt.Parameter_File>
/export/apps/rDock/src/rDock_2013.1_src/data/scripts/dock_solv.prm

>  <Rbt.Receptor>
prm/blind_docking_100.prm

>  <SCORE>
-8.45064

>  <SCORE.INTER>
-8.45109

>  <SCORE.INTER.CONST>
1

>  <SCORE.INTER.POLAR>
0

>  <SCORE.INTER.ROT>
0

>  <SCORE.INTER.SOLV>
14.3782

>  <SCORE.INTER.VDW>
-14.0268

>  <SCORE.INTER.norm>
-0.650084

>  <SCORE.INTRA>
0

>  <SCORE.INTRA.DIHEDRAL>
0

>  <SCORE.INTRA.DIHEDRAL.0>
0

>  <SCORE.INTRA.POLAR>
0

>  <SCORE.INTRA.POLAR.0>
0

>  <SCORE.INTRA.REPUL>
0

>  <SCORE.INTRA.REPUL.0>
0

>  <SCORE.INTRA.SOLV>
0

>  <SCORE.INTRA.SOLV.lig_0>
-48.6608

>  <SCORE.INTRA.VDW>
0

>  <SCORE.INTRA.VDW.0>
0

>  <SCORE.INTRA.norm>
0

>  <SCORE.RESTR>
0.000443771

>  <SCORE.RESTR.CAVITY>
0.000443771

>  <SCORE.RESTR.norm>
3.41362e-05

>  <SCORE.SYSTEM>
0

>  <SCORE.SYSTEM.CONST>
0

>  <SCORE.SYSTEM.DIHEDRAL>
0

>  <SCORE.SYSTEM.SOLV>
0

>  <SCORE.SYSTEM.norm>
0

>  <SCORE.heavy>
13

>  <SCORE.norm>
-0.650049

>  <RMSD>
40.068

$$$$
