@<TRIPOS>MOLECULE
3SUX_rdock.pdb
 2153 2411 0 0 0
SMALL
GASTEIGER

@<TRIPOS>ATOM
      1  P        -43.6540   13.9650   55.2420 P.3     1  G1          0.1280
      2  C5'      -42.5750   13.1150   52.9690 C.3     1  G1          0.1795
      3  O5'      -42.8330   14.1910   53.8800 O.3     1  G1         -0.3259
      4  C4'      -43.8020   12.7820   52.1330 C.3     1  G1          0.1772
      5  O4'      -44.9860   13.2070   52.8510 O.3     1  G1         -0.3307
      6  C3'      -43.8740   13.4370   50.7540 C.3     1  G1          0.1860
      7  O3'      -43.4110   12.5290   49.7410 O.3     1  G1         -0.3112
      8  C2'      -45.3550   13.7900   50.5700 C.3     1  G1          0.2309
      9  O2'      -46.0290   12.9710   49.6330 O.3     1  G1         -0.2156
     10  C1'      -45.9880   13.6330   51.9520 C.3     1  G1          0.2408
     11  N1       -49.3310   17.3630   51.0900 N.ar    1  G1         -0.1709
     12  C2       -49.0800   16.2310   50.3470 C.ar    1  G1          0.2606
     13  N2       -49.7980   16.0760   49.2250 N.pl3   1  G1         -0.0859
     14  N3       -48.1760   15.3170   50.6780 N.ar    1  G1         -0.1918
     15  C4       -47.5360   15.6320   51.8340 C.ar    1  G1          0.1723
     16  C5       -47.7170   16.7310   52.6460 C.ar    1  G1          0.1748
     17  C6       -48.6820   17.6990   52.2800 C.ar    1  G1          0.3023
     18  O6       -48.9810   18.7400   52.8830 O.2     1  G1         -0.2633
     19  N7       -46.8670   16.6840   53.7440 N.ar    1  G1         -0.2173
     20  C8       -46.1980   15.5780   53.5770 C.ar    1  G1          0.1817
     21  N9       -46.5550   14.8850   52.4440 N.ar    1  G1         -0.2693
     22  OP1      -42.8850   13.0780   56.1460 O.3     1  G1         -0.1955
     23  OP2      -44.1300   15.2820   55.7270 O.co2   1  G1         -0.7863
     24  P        -43.0260   13.0170   48.2570 P.3     2  G2          0.2141
     25  C5'      -44.4330   12.4400   46.0950 C.3     2  G2          0.1812
     26  O5'      -44.4070   12.9060   47.4460 O.3     2  G2         -0.3114
     27  C4'      -45.1340   13.4300   45.1780 C.3     2  G2          0.1773
     28  O4'      -46.3170   13.9570   45.8270 O.3     2  G2         -0.3307
     29  C3'      -44.3280   14.6690   44.8190 C.3     2  G2          0.1860
     30  O3'      -43.4600   14.4040   43.7190 O.3     2  G2         -0.3112
     31  C2'      -45.4180   15.6700   44.4460 C.3     2  G2          0.2309
     32  O2'      -45.8130   15.5970   43.0920 O.3     2  G2         -0.2156
     33  C1'      -46.5760   15.2650   45.3510 C.3     2  G2          0.2408
     34  N1       -47.3330   20.0680   46.8590 N.ar    2  G2         -0.1709
     35  C2       -47.3040   19.5520   45.5830 C.ar    2  G2          0.2606
     36  N2       -47.5000   20.4230   44.5830 N.pl3   2  G2         -0.0859
     37  N3       -47.0940   18.2690   45.3070 N.ar    2  G2         -0.1918
     38  C4       -46.9200   17.5280   46.4310 C.ar    2  G2          0.1723
     39  C5       -46.9350   17.9490   47.7410 C.ar    2  G2          0.1748
     40  C6       -47.1540   19.3190   48.0220 C.ar    2  G2          0.3023
     41  O6       -47.2000   19.8710   49.1300 O.2     2  G2         -0.2633
     42  N7       -46.7170   16.8820   48.6040 N.ar    2  G2         -0.2173
     43  C8       -46.5800   15.8540   47.8150 C.ar    2  G2          0.1817
     44  N9       -46.7010   16.1700   46.4850 N.ar    2  G2         -0.2693
     45  OP1      -42.0590   12.0390   47.7000 O.2     2  G2         -0.5172
     46  OP2      -42.6560   14.4490   48.3270 O.co2   2  G2         -0.4373
     47  P        -42.4840   15.5540   43.1780 P.3     3  A3          0.2141
     48  C5'      -42.9320   17.1440   41.1210 C.3     3  A3          0.1812
     49  O5'      -43.4490   16.4530   42.2600 O.3     3  A3         -0.3114
     50  C4'      -43.7630   18.3780   40.8090 C.3     3  A3          0.1773
     51  O4'      -44.7750   18.5880   41.8270 O.3     3  A3         -0.3307
     52  C3'      -42.9880   19.6840   40.8140 C.3     3  A3          0.1860
     53  O3'      -42.2810   19.8560   39.5940 O.3     3  A3         -0.3112
     54  C2'      -44.1060   20.7050   40.9990 C.3     3  A3          0.2309
     55  O2'      -44.8230   20.9730   39.8080 O.3     3  A3         -0.2156
     56  C1'      -44.9930   19.9800   42.0080 C.3     3  A3          0.2408
     57  N1       -44.9680   23.6300   45.6790 N.ar    3  A3         -0.2040
     58  C2       -45.3470   23.6590   44.3930 C.ar    3  A3          0.2016
     59  N3       -45.3340   22.6790   43.4870 N.ar    3  A3         -0.2048
     60  C4       -44.8540   21.5420   44.0200 C.ar    3  A3          0.1692
     61  C5       -44.4260   21.3580   45.3250 C.ar    3  A3          0.1518
     62  C6       -44.4950   22.4720   46.1910 C.ar    3  A3          0.1919
     63  N6       -44.1140   22.4380   47.4730 N.pl3   3  A3         -0.1054
     64  N7       -43.9990   20.0550   45.5180 N.ar    3  A3         -0.2193
     65  C8       -44.1730   19.4860   44.3470 C.ar    3  A3          0.1816
     66  N9       -44.6890   20.3220   43.3960 N.ar    3  A3         -0.2693
     67  OP1      -41.4470   14.9280   42.3220 O.2     3  A3         -0.5172
     68  OP2      -42.0820   16.3630   44.3530 O.co2   3  A3         -0.4373
     69  P        -40.7560   20.3340   39.6530 P.3     4  C4          0.2141
     70  C5'      -41.7320   22.6510   38.9290 C.3     4  C4          0.1812
     71  O5'      -40.8920   21.9210   39.8170 O.3     4  C4         -0.3114
     72  C4'      -42.0940   24.0060   39.5080 C.3     4  C4          0.1773
     73  O4'      -42.9550   23.8550   40.6670 O.3     4  C4         -0.3307
     74  C3'      -40.9280   24.7860   40.0840 C.3     4  C4          0.1860
     75  O3'      -40.1250   25.3500   39.0730 O.3     4  C4         -0.3112
     76  C2'      -41.6530   25.8220   40.9360 C.3     4  C4          0.2309
     77  O2'      -42.2340   26.8760   40.1950 O.3     4  C4         -0.2156
     78  C1'      -42.7260   24.9360   41.5620 C.3     4  C4          0.2420
     79  N1       -42.2750   24.4090   42.8830 N.ar    4  C4         -0.2535
     80  C2       -42.3640   25.2490   44.0000 C.ar    4  C4          0.3532
     81  O2       -42.8500   26.3810   43.8600 O.2     4  C4         -0.2443
     82  N3       -41.9260   24.7840   45.2010 N.ar    4  C4         -0.1739
     83  C4       -41.4030   23.5590   45.3000 C.ar    4  C4          0.1759
     84  N4       -40.9930   23.1480   46.5060 N.pl3   4  C4         -0.1070
     85  C5       -41.2850   22.7000   44.1650 C.ar    4  C4          0.0566
     86  C6       -41.7200   23.1640   42.9860 C.ar    4  C4          0.0850
     87  OP1      -40.1230   20.0410   38.3460 O.2     4  C4         -0.5172
     88  OP2      -40.1750   19.7820   40.8980 O.co2   4  C4         -0.4373
     89  P        -38.5510   25.4120   39.3460 P.3     5  A5          0.2141
     90  C5'      -38.8120   27.8850   40.1870 C.3     5  A5          0.1812
     91  O5'      -38.4390   26.5410   40.4840 O.3     5  A5         -0.3114
     92  C4'      -38.6350   28.7750   41.3990 C.3     5  A5          0.1773
     93  O4'      -39.4690   28.2940   42.4800 O.3     5  A5         -0.3307
     94  C3'      -37.2580   28.7200   42.0320 C.3     5  A5          0.1860
     95  O3'      -36.3060   29.4700   41.3150 O.3     5  A5         -0.3112
     96  C2'      -37.5570   29.3250   43.3910 C.3     5  A5          0.2309
     97  O2'      -37.8600   30.6990   43.2880 O.3     5  A5         -0.2156
     98  C1'      -38.8120   28.5270   43.7200 C.3     5  A5          0.2408
     99  N1       -37.6850   26.0740   48.1420 N.ar    5  A5         -0.2040
    100  C2       -37.8630   27.3730   47.8590 C.ar    5  A5          0.2016
    101  N3       -38.1520   27.9470   46.6850 N.ar    5  A5         -0.2048
    102  C4       -38.2530   27.0280   45.7070 C.ar    5  A5          0.1692
    103  C5       -38.0950   25.6610   45.8460 C.ar    5  A5          0.1518
    104  C6       -37.8030   25.1770   47.1390 C.ar    5  A5          0.1919
    105  N6       -37.6230   23.8830   47.4140 N.pl3   5  A5         -0.1054
    106  N7       -38.2690   25.0280   44.6300 N.ar    5  A5         -0.2193
    107  C8       -38.5310   26.0040   43.7910 C.ar    5  A5          0.1816
    108  N9       -38.5400   27.2430   44.3730 N.ar    5  A5         -0.2693
    109  OP1      -37.9020   25.9000   38.1070 O.2     5  A5         -0.5172
    110  OP2      -38.1480   24.1090   39.9250 O.co2   5  A5         -0.4373
    111  P        -34.7970   28.9420   41.3510 P.3     6  G6          0.2141
    112  C5'      -34.3620   30.8090   43.1460 C.3     6  G6          0.1812
    113  O5'      -34.3000   29.4360   42.7910 O.3     6  G6         -0.3114
    114  C4'      -34.0480   30.9540   44.6220 C.3     6  G6          0.1773
    115  O4'      -34.9690   30.1460   45.3980 O.3     6  G6         -0.3307
    116  C3'      -32.6750   30.4320   45.0250 C.3     6  G6          0.1860
    117  O3'      -31.6810   31.4280   44.8080 O.3     6  G6         -0.3112
    118  C2'      -32.8700   30.1310   46.5100 C.3     6  G6          0.2309
    119  O2'      -32.7650   31.2760   47.3320 O.3     6  G6         -0.2156
    120  C1'      -34.3070   29.6290   46.5410 C.3     6  G6          0.2408
    121  N1       -34.3540   25.4530   49.4580 N.ar    6  G6         -0.1709
    122  C2       -34.1980   26.7690   49.8190 C.ar    6  G6          0.2606
    123  N2       -34.0440   27.0140   51.1290 N.pl3   6  G6         -0.0859
    124  N3       -34.1990   27.7790   48.9580 N.ar    6  G6         -0.1918
    125  C4       -34.3620   27.3620   47.6800 C.ar    6  G6          0.1723
    126  C5       -34.5190   26.0780   47.2190 C.ar    6  G6          0.1748
    127  C6       -34.5320   25.0130   48.1510 C.ar    6  G6          0.3023
    128  O6       -34.6790   23.8050   47.9330 O.2     6  G6         -0.2633
    129  N7       -34.6610   26.0710   45.8350 N.ar    6  G6         -0.2173
    130  C8       -34.5890   27.3280   45.4870 C.ar    6  G6          0.1817
    131  N9       -34.4080   28.1690   46.5620 N.ar    6  G6         -0.2693
    132  OP1      -34.0400   29.6470   40.2930 O.2     6  G6         -0.5172
    133  OP2      -34.8270   27.4580   41.3680 O.co2   6  G6         -0.4373
    134  P        -30.2800   31.0230   44.1490 P.3     7  A7          0.2141
    135  C5'      -29.4430   31.4330   46.5770 C.3     7  A7          0.1812
    136  O5'      -29.4180   30.6100   45.4260 O.3     7  A7         -0.3114
    137  C4'      -28.9470   30.6260   47.7590 C.3     7  A7          0.1773
    138  O4'      -29.8950   29.5570   48.0330 O.3     7  A7         -0.3307
    139  C3'      -27.6020   29.9480   47.4960 C.3     7  A7          0.1860
    140  O3'      -26.7930   29.9270   48.6720 O.3     7  A7         -0.3112
    141  C2'      -28.0260   28.5390   47.1220 C.3     7  A7          0.2309
    142  O2'      -26.9950   27.5930   47.3370 O.3     7  A7         -0.2156
    143  C1'      -29.1640   28.3560   48.1190 C.3     7  A7          0.2408
    144  N1       -31.1690   23.9280   49.7960 N.ar    7  A7         -0.2040
    145  C2       -30.5410   24.9260   50.4330 C.ar    7  A7          0.2016
    146  N3       -30.0590   26.0700   49.9430 N.ar    7  A7         -0.2048
    147  C4       -30.2780   26.1500   48.6220 C.ar    7  A7          0.1692
    148  C5       -30.9080   25.2090   47.8310 C.ar    7  A7          0.1518
    149  C6       -31.3630   24.0410   48.4670 C.ar    7  A7          0.1919
    150  N6       -31.9630   23.0460   47.8200 N.pl3   7  A7         -0.1054
    151  N7       -30.9500   25.6300   46.5140 N.ar    7  A7         -0.2193
    152  C8       -30.3500   26.7990   46.5350 C.ar    7  A7          0.1816
    153  N9       -29.9650   27.1920   47.7840 N.ar    7  A7         -0.2693
    154  OP1      -29.6630   32.2380   43.5760 O.3     7  A7         -0.4373
    155  OP2      -30.5180   29.8330   43.2980 O.co2   7  A7         -0.5172
    156  P        -25.7710   31.1220   48.9590 P.3     8  G8          0.2141
    157  C5'      -24.0040   29.9960   47.3850 C.3     8  G8          0.1812
    158  O5'      -24.3570   30.4470   48.6800 O.3     8  G8         -0.3114
    159  C4'      -22.4940   29.8630   47.3630 C.3     8  G8          0.1773
    160  O4'      -22.0110   29.9350   45.9960 O.3     8  G8         -0.3307
    161  C3'      -21.8310   31.0250   48.0870 C.3     8  G8          0.1860
    162  O3'      -20.5100   30.6970   48.4650 O.3     8  G8         -0.3112
    163  C2'      -21.8420   32.0830   46.9950 C.3     8  G8          0.2309
    164  O2'      -20.8410   33.0520   47.2140 O.3     8  G8         -0.2156
    165  C1'      -21.4870   31.2340   45.7790 C.3     8  G8          0.2408
    166  N1       -21.8640   30.3140   40.8300 N.ar    8  G8         -0.1709
    167  C2       -21.3150   29.5480   41.8320 C.ar    8  G8          0.2606
    168  N2       -20.7970   28.3660   41.4540 N.pl3   8  G8         -0.0859
    169  N3       -21.2830   29.9060   43.1100 N.ar    8  G8         -0.1918
    170  C4       -21.8540   31.1160   43.2950 C.ar    8  G8          0.1723
    171  C5       -22.4240   31.9570   42.3660 C.ar    8  G8          0.1748
    172  C6       -22.4520   31.5570   41.0100 C.ar    8  G8          0.3023
    173  O6       -22.9110   32.1520   40.0280 O.2     8  G8         -0.2633
    174  N7       -22.8910   33.1130   42.9780 N.ar    8  G8         -0.2173
    175  C8       -22.6010   32.9460   44.2450 C.ar    8  G8          0.1817
    176  N9       -21.9840   31.7460   44.5070 N.ar    8  G8         -0.2693
    177  OP1      -25.8620   31.4770   50.3960 O.3     8  G8         -0.4373
    178  OP2      -25.9950   32.1590   47.9300 O.co2   8  G8         -0.5172
    179  P        -20.0120   30.9620   49.9620 P.3     9  U9          0.2141
    180  C5'      -18.7240   33.2150   50.0750 C.3     9  U9          0.1812
    181  O5'      -19.9590   32.5510   50.0320 O.3     9  U9         -0.3114
    182  C4'      -18.9420   34.5240   50.7860 C.3     9  U9          0.1773
    183  O4'      -20.2580   35.0250   50.4550 O.3     9  U9         -0.3307
    184  C3'      -18.9280   34.4000   52.2970 C.3     9  U9          0.1860
    185  O3'      -18.2650   35.5280   52.8060 O.3     9  U9         -0.3112
    186  C2'      -20.3990   34.4420   52.6690 C.3     9  U9          0.2309
    187  O2'      -20.5900   34.9620   53.9650 O.3     9  U9         -0.2156
    188  C1'      -20.8750   35.4500   51.6450 C.3     9  U9          0.2420
    189  N1       -22.3360   35.4380   51.4610 N.ar    9  U9         -0.2534
    190  C2       -23.0670   36.5530   51.8160 C.ar    9  U9          0.3546
    191  O2       -22.5630   37.5700   52.2630 O.2     9  U9         -0.2443
    192  N3       -24.4250   36.4340   51.6250 N.ar    9  U9         -0.1530
    193  C4       -25.1090   35.3360   51.1230 C.ar    9  U9          0.2846
    194  O4       -26.3330   35.3730   51.0040 O.2     9  U9         -0.2650
    195  C5       -24.2690   34.2140   50.7780 C.ar    9  U9          0.0814
    196  C6       -22.9440   34.3050   50.9560 C.ar    9  U9          0.0870
    197  OP1      -18.6400   30.4340   50.0710 O.2     9  U9         -0.5172
    198  OP2      -21.0540   30.5150   50.9100 O.co2   9  U9         -0.4373
    199  P        -16.7890   35.3490   53.3650 P.3    10  A10         0.2141
    200  C5'      -15.9960   37.4630   52.0680 C.3    10  A10         0.1812
    201  O5'      -16.2140   36.8380   53.3280 O.3    10  A10        -0.3114
    202  C4'      -16.0110   38.9710   52.2180 C.3    10  A10         0.1773
    203  O4'      -17.3770   39.4290   52.3730 O.3    10  A10        -0.3307
    204  C3'      -15.3090   39.4700   53.4670 C.3    10  A10         0.1860
    205  O3'      -13.9340   39.6430   53.1940 O.3    10  A10        -0.3112
    206  C2'      -15.9790   40.8180   53.6480 C.3    10  A10         0.2309
    207  O2'      -15.4340   41.7610   52.7500 O.3    10  A10        -0.2156
    208  C1'      -17.4280   40.4910   53.3010 C.3    10  A10         0.2408
    209  N1       -18.6990   41.4040   58.1940 N.ar   10  A10        -0.2040
    210  C2       -18.0430   42.1450   57.2900 C.ar   10  A10         0.2016
    211  N3       -17.7520   41.8450   56.0210 N.ar   10  A10        -0.2048
    212  C4       -18.2280   40.6340   55.6890 C.ar   10  A10         0.1692
    213  C5       -18.9360   39.7720   56.5020 C.ar   10  A10         0.1518
    214  C6       -19.1680   40.1940   57.8240 C.ar   10  A10         0.1919
    215  N6       -19.8270   39.4630   58.7200 N.pl3  10  A10        -0.1054
    216  N7       -19.2700   38.6190   55.8150 N.ar   10  A10        -0.2193
    217  C8       -18.7630   38.8040   54.6160 C.ar   10  A10         0.1816
    218  N9       -18.1380   40.0080   54.4700 N.ar   10  A10        -0.2693
    219  OP1      -16.0240   34.5630   52.3720 O.2    10  A10        -0.5172
    220  OP2      -16.9400   34.8990   54.7660 O.co2  10  A10        -0.4373
    221  P        -12.8640   39.4040   54.3530 P.3    11  G11         0.2141
    222  C5'      -13.0110   41.8180   55.3030 C.3    11  G11         0.1812
    223  O5'      -13.2500   40.4420   55.5060 O.3    11  G11        -0.3114
    224  C4'      -13.2100   42.5760   56.5970 C.3    11  G11         0.1773
    225  O4'      -14.5990   42.4960   56.9860 O.3    11  G11        -0.3307
    226  C3'      -12.4740   42.0190   57.8020 C.3    11  G11         0.1860
    227  O3'      -11.1300   42.4560   57.7960 O.3    11  G11        -0.3112
    228  C2'      -13.2610   42.6770   58.9240 C.3    11  G11         0.2309
    229  O2'      -12.9330   44.0440   59.0650 O.3    11  G11        -0.2156
    230  C1'      -14.6840   42.5330   58.3950 C.3    11  G11         0.2408
    231  N1       -16.6320   40.0100   62.3470 N.ar   11  G11        -0.1709
    232  C2       -16.0590   41.2620   62.3050 C.ar   11  G11         0.2606
    233  N2       -16.0030   41.9270   63.4670 N.pl3  11  G11        -0.0859
    234  N3       -15.5920   41.8270   61.1960 N.ar   11  G11        -0.1918
    235  C4       -15.7290   41.0130   60.1180 C.ar   11  G11         0.1723
    236  C5       -16.2960   39.7600   60.0510 C.ar   11  G11         0.1748
    237  C6       -16.7950   39.1720   61.2420 C.ar   11  G11         0.3023
    238  O6       -17.3110   38.0550   61.3910 O.2    11  G11        -0.2633
    239  N7       -16.2580   39.2700   58.7490 N.ar   11  G11        -0.2173
    240  C8       -15.6630   40.2110   58.0680 C.ar   11  G11         0.1817
    241  N9       -15.3250   41.3020   58.8360 N.ar   11  G11        -0.2693
    242  OP1      -11.5270   39.7350   53.8040 O.2    11  G11        -0.5172
    243  OP2      -13.1470   38.0630   54.8970 O.co2  11  G11        -0.4373
    244  P        -10.0000   41.5200   58.4360 P.3    12  G12         0.2141
    245  C5'       -9.8520   42.5050   60.8550 C.3    12  G12         0.1812
    246  O5'      -10.3720   41.5080   59.9900 O.3    12  G12        -0.3114
    247  C4'      -10.4750   42.3860   62.2370 C.3    12  G12         0.1773
    248  O4'      -11.8970   42.0920   62.1660 O.3    12  G12        -0.3307
    249  C3'       -9.9410   41.2370   63.0640 C.3    12  G12         0.1860
    250  O3'       -8.7190   41.5910   63.6410 O.3    12  G12        -0.3112
    251  C2'      -11.0120   41.1070   64.1330 C.3    12  G12         0.2309
    252  O2'      -10.8770   42.0810   65.1420 O.3    12  G12        -0.2156
    253  C1'      -12.2740   41.3530   63.3190 C.3    12  G12         0.2408
    254  N1       -14.7330   37.2090   64.9360 N.ar   12  G12        -0.1709
    255  C2       -14.2490   38.2730   65.6560 C.ar   12  G12         0.2606
    256  N2       -14.4440   38.2490   66.9820 N.pl3  12  G12        -0.0859
    257  N3       -13.6070   39.2960   65.1180 N.ar   12  G12        -0.1918
    258  C4       -13.5000   39.1820   63.7730 C.ar   12  G12         0.1723
    259  C5       -13.9420   38.1620   62.9670 C.ar   12  G12         0.1748
    260  C6       -14.6260   37.0730   63.5540 C.ar   12  G12         0.3023
    261  O6       -15.1050   36.0820   62.9870 O.2    12  G12        -0.2633
    262  N7       -13.6210   38.4110   61.6360 N.ar   12  G12        -0.2173
    263  C8       -13.0080   39.5640   61.6620 C.ar   12  G12         0.1817
    264  N9       -12.9080   40.0960   62.9260 N.ar   12  G12        -0.2693
    265  OP1       -8.6900   42.1930   58.2840 O.3    12  G12        -0.4373
    266  OP2      -10.1880   40.1620   57.8880 O.co2  12  G12        -0.5172
    267  P         -7.6540   40.4190   63.8070 P.3    13  U13         0.2141
    268  C5'       -8.3650   40.3590   66.3170 C.3    13  U13         0.1812
    269  O5'       -8.1840   39.6540   65.1050 O.3    13  U13        -0.3114
    270  C4'       -9.1200   39.4820   67.2970 C.3    13  U13         0.1773
    271  O4'      -10.4720   39.2250   66.8320 O.3    13  U13        -0.3307
    272  C3'       -8.5670   38.0760   67.4590 C.3    13  U13         0.1860
    273  O3'       -7.3950   38.0790   68.2440 O.3    13  U13        -0.3112
    274  C2'       -9.7300   37.4470   68.2040 C.3    13  U13         0.2309
    275  O2'       -9.8620   37.9750   69.5060 O.3    13  U13        -0.2156
    276  C1'      -10.8740   37.9670   67.3510 C.3    13  U13         0.2420
    277  N1       -11.1820   37.0530   66.2410 N.ar   13  U13        -0.2534
    278  C2       -11.9010   35.9060   66.5090 C.ar   13  U13         0.3546
    279  O2       -12.2990   35.6020   67.6240 O.2    13  U13        -0.2443
    280  N3       -12.1740   35.1370   65.4070 N.ar   13  U13        -0.1530
    281  C4       -11.7960   35.4020   64.1060 C.ar   13  U13         0.2846
    282  O4       -12.1020   34.6190   63.2190 O.2    13  U13        -0.2650
    283  C5       -11.0460   36.6140   63.9150 C.ar   13  U13         0.0814
    284  C6       -10.7670   37.3770   64.9720 C.ar   13  U13         0.0870
    285  OP1       -6.3420   41.0270   64.1160 O.3    13  U13        -0.4373
    286  OP2       -7.8140   39.5270   62.6380 O.co2  13  U13        -0.5172
    287  P         -6.2350   37.0120   67.9470 P.3    14  A14         0.2141
    288  C5'       -6.9470   35.4110   69.8770 C.3    14  A14         0.1812
    289  O5'       -6.8430   35.6300   68.4810 O.3    14  A14        -0.3114
    290  C4'       -7.8670   34.2430   70.1540 C.3    14  A14         0.1773
    291  O4'       -9.0600   34.3460   69.3410 O.3    14  A14        -0.3307
    292  C3'       -7.3200   32.8950   69.7360 C.3    14  A14         0.1860
    293  O3'       -6.3490   32.4580   70.6550 O.3    14  A14        -0.3112
    294  C2'       -8.5950   32.0660   69.7850 C.3    14  A14         0.2309
    295  O2'       -9.0230   31.7950   71.1010 O.3    14  A14        -0.2156
    296  C1'       -9.5700   33.0410   69.1350 C.3    14  A14         0.2408
    297  N1       -11.6580   30.0950   65.5070 N.ar   14  A14        -0.2040
    298  C2       -11.7180   30.0600   66.8420 C.ar   14  A14         0.2016
    299  N3       -11.1410   30.8670   67.7310 N.ar   14  A14        -0.2048
    300  C4       -10.4260   31.8110   67.1120 C.ar   14  A14         0.1692
    301  C5       -10.2580   31.9750   65.7550 C.ar   14  A14         0.1518
    302  C6       -10.9190   31.0550   64.9240 C.ar   14  A14         0.1919
    303  N6       -10.8500   31.0870   63.5960 N.pl3  14  A14        -0.1054
    304  N7        -9.4370   33.0590   65.4920 N.ar   14  A14        -0.2193
    305  C8        -9.1330   33.5250   66.6830 C.ar   14  A14         0.1816
    306  N9        -9.7010   32.8130   67.7030 N.ar   14  A14        -0.2693
    307  OP1       -5.0870   37.4100   68.7910 O.3    14  A14        -0.4373
    308  OP2       -6.0520   36.8660   66.4870 O.co2  14  A14        -0.5172
    309  P         -5.1820   31.5040   70.1220 P.3    15  A15         0.2141
    310  C5'       -6.0470   29.2830   71.1510 C.3    15  A15         0.1812
    311  O5'       -5.9290   30.0930   70.0090 O.3    15  A15        -0.3114
    312  C4'       -7.0610   28.2000   70.8850 C.3    15  A15         0.1773
    313  O4'       -8.1670   28.7760   70.1530 O.3    15  A15        -0.3307
    314  C3'       -6.5610   27.0800   69.9900 C.3    15  A15         0.1860
    315  O3'       -5.8980   26.1120   70.7670 O.3    15  A15        -0.3112
    316  C2'       -7.8630   26.5360   69.4200 C.3    15  A15         0.2309
    317  O2'       -8.5170   25.6300   70.2860 O.3    15  A15        -0.2156
    318  C1'       -8.6670   27.8230   69.2310 C.3    15  A15         0.2408
    319  N1       -10.0160   27.4640   64.2940 N.ar   15  A15        -0.2040
    320  C2       -10.4290   26.8020   65.3850 C.ar   15  A15         0.2016
    321  N3       -10.0420   26.9560   66.6510 N.ar   15  A15        -0.2048
    322  C4        -9.1080   27.9150   66.7460 C.ar   15  A15         0.1692
    323  C5        -8.5770   28.6730   65.7210 C.ar   15  A15         0.1518
    324  C6        -9.0670   28.4200   64.4290 C.ar   15  A15         0.1919
    325  N6        -8.6450   29.0860   63.3540 N.pl3  15  A15        -0.1054
    326  N7        -7.6400   29.5700   66.1980 N.ar   15  A15        -0.2193
    327  C8        -7.6100   29.3300   67.4870 C.ar   15  A15         0.1816
    328  N9        -8.4830   28.3540   67.8840 N.ar   15  A15        -0.2693
    329  OP1       -4.1330   31.4470   71.1670 O.3    15  A15        -0.4373
    330  OP2       -4.8220   31.9200   68.7490 O.co2  15  A15        -0.5172
    331  P         -4.6420   25.3310   70.1600 P.3    16  A16         0.2141
    332  C5'       -6.1690   23.2560   69.8160 C.3    16  A16         0.1812
    333  O5'       -5.3480   24.2430   69.2170 O.3    16  A16        -0.3114
    334  C4'       -6.9920   22.5020   68.7930 C.3    16  A16         0.1773
    335  O4'       -7.9280   23.4020   68.1520 O.3    16  A16        -0.3307
    336  C3'       -6.2180   21.8800   67.6430 C.3    16  A16         0.1860
    337  O3'       -5.6340   20.6450   68.0230 O.3    16  A16        -0.3112
    338  C2'       -7.3370   21.6980   66.6210 C.3    16  A16         0.2309
    339  O2'       -8.1810   20.5880   66.8800 O.3    16  A16        -0.2156
    340  C1'       -8.0850   23.0200   66.7950 C.3    16  A16         0.2408
    341  N1        -7.9120   25.1120   62.0760 N.ar   16  A16        -0.2040
    342  C2        -8.5580   24.0410   62.5550 C.ar   16  A16         0.2016
    343  N3        -8.5630   23.5480   63.7930 N.ar   16  A16        -0.2048
    344  C4        -7.7850   24.2830   64.6010 C.ar   16  A16         0.1692
    345  C5        -7.0480   25.3970   64.2480 C.ar   16  A16         0.1518
    346  C6        -7.1300   25.8230   62.9090 C.ar   16  A16         0.1919
    347  N6        -6.4710   26.8770   62.4290 N.pl3  16  A16        -0.1054
    348  N7        -6.3520   25.8880   65.3390 N.ar   16  A16        -0.2193
    349  C8        -6.6780   25.0720   66.3150 C.ar   16  A16         0.1816
    350  N9        -7.5510   24.0870   65.9450 N.ar   16  A16        -0.2693
    351  OP1       -3.9690   24.6490   71.2870 O.3    16  A16        -0.4373
    352  OP2       -3.8500   26.2640   69.3280 O.co2  16  A16        -0.5172
    353  P         -4.1870   20.2300   67.4680 P.3    17  C17         0.2141
    354  C5'       -5.3180   18.7040   65.6990 C.3    17  C17         0.1812
    355  O5'       -4.4940   19.8290   65.9500 O.3    17  C17        -0.3114
    356  C4'       -5.6950   18.6510   64.2360 C.3    17  C17         0.1773
    357  O4'       -6.5340   19.7930   63.9310 O.3    17  C17        -0.3307
    358  C3'       -4.5240   18.7940   63.2790 C.3    17  C17         0.1860
    359  O3'       -3.8660   17.5640   63.0910 O.3    17  C17        -0.3112
    360  C2'       -5.2520   19.2490   62.0240 C.3    17  C17         0.2309
    361  O2'       -5.9440   18.1970   61.3930 O.3    17  C17        -0.2156
    362  C1'       -6.2360   20.2550   62.6220 C.3    17  C17         0.2420
    363  N1        -5.6270   21.6250   62.6600 N.ar   17  C17        -0.2535
    364  C2        -5.5500   22.3510   61.4670 C.ar   17  C17         0.3532
    365  O2        -6.0710   21.8840   60.4490 O.2    17  C17        -0.2443
    366  N3        -4.9290   23.5550   61.4650 N.ar   17  C17        -0.1739
    367  C4        -4.3800   24.0220   62.5870 C.ar   17  C17         0.1759
    368  N4        -3.7830   25.2130   62.5270 N.pl3  17  C17        -0.1070
    369  C5        -4.4150   23.2890   63.8090 C.ar   17  C17         0.0566
    370  C6        -5.0330   22.1020   63.7960 C.ar   17  C17         0.0850
    371  OP1       -3.7550   19.0070   68.1840 O.3    17  C17        -0.4373
    372  OP2       -3.3140   21.4240   67.4760 O.co2  17  C17        -0.5172
    373  P         -2.2740   17.5530   62.9130 P.3    18  G18         0.2141
    374  C5'       -2.7260   17.3270   60.4000 C.3    18  G18         0.1812
    375  O5'       -2.0970   18.0720   61.4180 O.3    18  G18        -0.3114
    376  C4'       -2.6550   18.1070   59.1130 C.3    18  G18         0.1773
    377  O4'       -3.3500   19.3660   59.2660 O.3    18  G18        -0.3307
    378  C3'       -1.2570   18.5620   58.7720 C.3    18  G18         0.1860
    379  O3'       -0.5520   17.4830   58.2150 O.3    18  G18        -0.3112
    380  C2'       -1.5770   19.6330   57.7400 C.3    18  G18         0.2309
    381  O2'       -1.9790   19.0760   56.5110 O.3    18  G18        -0.2156
    382  C1'       -2.7700   20.3190   58.3900 C.3    18  G18         0.2408
    383  N1        -1.3030   25.2050   58.2200 N.ar   18  G18        -0.1709
    384  C2        -1.6320   24.3690   57.1820 C.ar   18  G18         0.2606
    385  N2        -1.5540   24.8870   55.9490 N.pl3  18  G18        -0.0859
    386  N3        -2.0150   23.1100   57.3500 N.ar   18  G18        -0.1918
    387  C4        -2.0400   22.7420   58.6600 C.ar   18  G18         0.1723
    388  C5        -1.7380   23.5080   59.7630 C.ar   18  G18         0.1748
    389  C6        -1.3390   24.8550   59.5690 C.ar   18  G18         0.3023
    390  O6        -1.0350   25.6930   60.4290 O.2    18  G18        -0.2633
    391  N7        -1.8790   22.7620   60.9350 N.ar   18  G18        -0.2173
    392  C8        -2.2610   21.5830   60.5290 C.ar   18  G18         0.1817
    393  N9        -2.3780   21.4960   59.1620 N.ar   18  G18        -0.2693
    394  OP1       -1.8030   16.1480   62.9130 O.2    18  G18        -0.5172
    395  OP2       -1.6840   18.5260   63.8610 O.co2  18  G18        -0.4373
    396  P          1.0360   17.4680   58.3610 P.3    19  U19         0.2141
    397  C5'        1.1100   18.5000   55.9670 C.3    19  U19         0.1812
    398  O5'        1.4300   18.6250   57.3390 O.3    19  U19        -0.3114
    399  C4'        1.6050   19.7370   55.2500 C.3    19  U19         0.1773
    400  O4'        0.7850   20.8700   55.6300 O.3    19  U19        -0.3307
    401  C3'        3.0020   20.1810   55.6500 C.3    19  U19         0.1860
    402  O3'        3.9400   19.3960   54.9660 O.3    19  U19        -0.3112
    403  C2'        2.9680   21.5920   55.0940 C.3    19  U19         0.2309
    404  O2'        3.0470   21.5700   53.6910 O.3    19  U19        -0.2156
    405  C1'        1.5730   22.0370   55.5190 C.3    19  U19         0.2420
    406  N1         1.6250   22.6910   56.8390 N.ar   19  U19        -0.2534
    407  C2         1.9680   24.0250   56.8830 C.ar   19  U19         0.3546
    408  O2         2.1930   24.6730   55.8790 O.2    19  U19        -0.2443
    409  N3         2.0520   24.5650   58.1410 N.ar   19  U19        -0.1530
    410  C4         1.8390   23.8950   59.3290 C.ar   19  U19         0.2846
    411  O4         1.9340   24.5040   60.3910 O.2    19  U19        -0.2650
    412  C5         1.4930   22.4990   59.1970 C.ar   19  U19         0.0814
    413  C6         1.4110   21.9510   57.9820 C.ar   19  U19         0.0870
    414  OP1        1.5590   16.1990   57.8100 O.2    19  U19        -0.5172
    415  OP2        1.3830   17.9240   59.7320 O.co2  19  U19        -0.4373
    416  P          5.5030   19.6550   55.1560 P.3    20  G20         0.2141
    417  C5'        6.7650   21.9650   55.1800 C.3    20  G20         0.1812
    418  O5'        5.7530   21.1400   54.6090 O.3    20  G20        -0.3114
    419  C4'        6.5740   23.3920   54.7140 C.3    20  G20         0.1773
    420  O4'        5.4340   23.9630   55.4000 O.3    20  G20        -0.3307
    421  C3'        7.6980   24.3400   55.0760 C.3    20  G20         0.1860
    422  O3'        8.7500   24.2390   54.1290 O.3    20  G20        -0.3112
    423  C2'        6.9890   25.6880   55.0040 C.3    20  G20         0.2309
    424  O2'        6.8100   26.1180   53.6730 O.3    20  G20        -0.2156
    425  C1'        5.6340   25.3480   55.6100 C.3    20  G20         0.2408
    426  N1         5.9690   28.8590   59.2940 N.ar   20  G20        -0.1709
    427  C2         6.0420   29.0190   57.9310 C.ar   20  G20         0.2606
    428  N2         6.2110   30.2730   57.4960 N.pl3  20  G20        -0.0859
    429  N3         5.9330   28.0300   57.0510 N.ar   20  G20        -0.1918
    430  C4         5.7340   26.8330   57.6660 C.ar   20  G20         0.1723
    431  C5         5.6430   26.5770   59.0180 C.ar   20  G20         0.1748
    432  C6         5.7630   27.6470   59.9390 C.ar   20  G20         0.3023
    433  O6         5.7160   27.6180   61.1770 O.2    20  G20        -0.2633
    434  N7         5.4280   25.2260   59.2370 N.ar   20  G20        -0.2173
    435  C8         5.4120   24.6990   58.0430 C.ar   20  G20         0.1817
    436  N9         5.5850   25.6120   57.0400 N.ar   20  G20        -0.2693
    437  OP1        6.1870   18.7160   54.2410 O.2    20  G20        -0.5172
    438  OP2        5.7940   19.6890   56.6070 O.co2  20  G20        -0.4373
    439  P         10.2450   24.3570   54.6850 P.3    21  C21         0.2141
    440  C5'       10.1590   26.9020   54.0700 C.3    21  C21         0.1812
    441  O5'       10.3360   25.9100   55.0660 O.3    21  C21        -0.3114
    442  C4'       10.2730   28.2680   54.7050 C.3    21  C21         0.1773
    443  O4'        9.1590   28.4710   55.6130 O.3    21  C21        -0.3307
    444  C3'       11.4730   28.4410   55.6100 C.3    21  C21         0.1860
    445  O3'       12.6090   28.7590   54.8420 O.3    21  C21        -0.3112
    446  C2'       11.0280   29.6400   56.4280 C.3    21  C21         0.2309
    447  O2'       11.1530   30.8130   55.6590 O.3    21  C21        -0.2156
    448  C1'        9.5580   29.3200   56.6710 C.3    21  C21         0.2420
    449  N1         9.3710   28.5880   57.9360 N.ar   21  C21        -0.2535
    450  C2         9.5090   29.2740   59.1430 C.ar   21  C21         0.3532
    451  O2         9.7300   30.4900   59.1160 O.2    21  C21        -0.2443
    452  N3         9.3570   28.5970   60.3110 N.ar   21  C21        -0.1739
    453  C4         9.1240   27.2820   60.2870 C.ar   21  C21         0.1759
    454  N4         9.0170   26.6560   61.4590 N.pl3  21  C21        -0.1070
    455  C5         9.0140   26.5540   59.0670 C.ar   21  C21         0.0566
    456  C6         9.1490   27.2410   57.9280 C.ar   21  C21         0.0850
    457  OP1       11.2060   24.0550   53.6010 O.2    21  C21        -0.5172
    458  OP2       10.2860   23.5790   55.9390 O.co2  21  C21        -0.4373
    459  P         14.0780   28.4340   55.4050 P.3    22  G22         0.2141
    460  C5'       14.5240   30.7800   56.4230 C.3    22  G22         0.1812
    461  O5'       14.2540   29.4090   56.6610 O.3    22  G22        -0.3114
    462  C4'       14.5740   31.5300   57.7360 C.3    22  G22         0.1773
    463  O4'       13.3790   31.2940   58.5150 O.3    22  G22        -0.3307
    464  C3'       15.6660   31.0420   58.6540 C.3    22  G22         0.1860
    465  O3'       16.8350   31.6820   58.2690 O.3    22  G22        -0.3112
    466  C2'       15.1990   31.6110   59.9720 C.3    22  G22         0.2309
    467  O2'       15.3950   33.0050   59.9560 O.3    22  G22        -0.2156
    468  C1'       13.7110   31.3340   59.8890 C.3    22  G22         0.2408
    469  N1        12.4080   28.6810   64.0800 N.ar   22  G22        -0.1709
    470  C2        12.8970   29.9580   63.9870 C.ar   22  G22         0.2606
    471  N2        13.0070   30.6080   65.1440 N.pl3  22  G22        -0.0859
    472  N3        13.2430   30.5570   62.8580 N.ar   22  G22        -0.1918
    473  C4        13.0310   29.7610   61.7840 C.ar   22  G22         0.1723
    474  C5        12.5520   28.4750   61.7750 C.ar   22  G22         0.1748
    475  C6        12.1900   27.8510   62.9870 C.ar   22  G22         0.3023
    476  O6        11.7620   26.7030   63.1530 O.2    22  G22        -0.2633
    477  N7        12.5010   27.9780   60.4860 N.ar   22  G22        -0.2173
    478  C8        12.9110   28.9660   59.7400 C.ar   22  G22         0.1817
    479  N9        13.2810   30.0690   60.4610 N.ar   22  G22        -0.2693
    480  OP1       15.0350   28.8610   54.3590 O.2    22  G22        -0.5172
    481  OP2       14.0860   27.0430   55.9020 O.co2  22  G22        -0.4373
    482  P         18.2330   30.9890   58.5900 P.3    23  U23         0.2141
    483  C5'       18.6610   31.9190   60.9780 C.3    23  U23         0.1812
    484  O5'       18.1610   30.8610   60.1900 O.3    23  U23        -0.3114
    485  C4'       18.5340   31.6110   62.4510 C.3    23  U23         0.1773
    486  O4'       17.1640   31.2610   62.7430 O.3    23  U23        -0.3307
    487  C3'       19.3370   30.4180   62.9350 C.3    23  U23         0.1860
    488  O3'       20.6420   30.8480   63.2610 O.3    23  U23        -0.3112
    489  C2'       18.5830   30.1180   64.2130 C.3    23  U23         0.2309
    490  O2'       18.8270   31.1280   65.1540 O.3    23  U23        -0.2156
    491  C1'       17.1490   30.2910   63.7640 C.3    23  U23         0.2420
    492  N1        16.4980   29.0530   63.2750 N.ar   23  U23        -0.2534
    493  C2        15.8450   28.2700   64.1940 C.ar   23  U23         0.3546
    494  O2        15.8320   28.5190   65.3840 O.2    23  U23        -0.2443
    495  N3        15.2120   27.1720   63.6820 N.ar   23  U23        -0.1530
    496  C4        15.1480   26.8000   62.3580 C.ar   23  U23         0.2846
    497  O4        14.5210   25.7880   62.0540 O.2    23  U23        -0.2650
    498  C5        15.8440   27.6770   61.4490 C.ar   23  U23         0.0814
    499  C6        16.4820   28.7480   61.9310 C.ar   23  U23         0.0870
    500  OP1       19.2890   31.9530   58.1900 O.3    23  U23        -0.4373
    501  OP2       18.2020   29.6370   57.9880 O.co2  23  U23        -0.5172
    502  P         21.9310   30.0410   62.7690 P.3    24  A24         0.2141
    503  C5'       23.6230   31.7660   61.7500 C.3    24  A24         0.1812
    504  O5'       22.4780   30.9490   61.5710 O.3    24  A24        -0.3114
    505  C4'       23.8860   32.5950   60.5070 C.3    24  A24         0.1773
    506  O4'       24.6530   31.8230   59.5520 O.3    24  A24        -0.3307
    507  C3'       22.6520   33.0190   59.7330 C.3    24  A24         0.1860
    508  O3'       22.9610   34.1840   58.9920 O.3    24  A24        -0.3112
    509  C2'       22.4260   31.8270   58.8150 C.3    24  A24         0.2309
    510  O2'       21.6910   32.1690   57.6610 O.3    24  A24        -0.2156
    511  C1'       23.8580   31.5000   58.4260 C.3    24  A24         0.2408
    512  N1        26.3800   28.0900   55.4930 N.ar   24  A24        -0.2040
    513  C2        26.4090   29.4270   55.5260 C.ar   24  A24         0.2016
    514  N3        25.7300   30.2580   56.3140 N.ar   24  A24        -0.2048
    515  C4        24.9270   29.5770   57.1520 C.ar   24  A24         0.1692
    516  C5        24.7850   28.2050   57.2300 C.ar   24  A24         0.1518
    517  C6        25.5630   27.4280   56.3440 C.ar   24  A24         0.1919
    518  N6        25.5240   26.0860   56.3060 N.pl3  24  A24        -0.1054
    519  N7        23.8620   27.8640   58.2070 N.ar   24  A24        -0.2193
    520  C8        23.4700   29.0180   58.6910 C.ar   24  A24         0.1816
    521  N9        24.0680   30.0930   58.0990 N.ar   24  A24        -0.2693
    522  OP1       21.5050   28.7570   62.1870 O.2    24  A24        -0.5172
    523  OP2       22.9010   30.0580   63.8790 O.co2  24  A24        -0.4373
    524  P         22.6910   35.6120   59.6550 P.3    25  A25         0.2141
    525  C5'       20.2310   35.3300   58.9060 C.3    25  A25         0.1812
    526  O5'       21.1300   35.5690   59.9670 O.3    25  A25        -0.3114
    527  C4'       18.8800   35.8880   59.2850 C.3    25  A25         0.1773
    528  O4'       18.3570   35.1480   60.4180 O.3    25  A25        -0.3307
    529  C3'       18.9300   37.3490   59.7090 C.3    25  A25         0.1860
    530  O3'       17.8960   38.0410   59.0480 O.3    25  A25        -0.3112
    531  C2'       18.6440   37.3060   61.2010 C.3    25  A25         0.2309
    532  O2'       17.9180   38.4490   61.5900 O.3    25  A25        -0.2156
    533  C1'       17.7560   36.0740   61.2860 C.3    25  A25         0.2408
    534  N1        15.0050   33.0580   64.4410 N.ar   25  A25        -0.2040
    535  C2        14.8900   33.3120   63.1350 C.ar   25  A25         0.2016
    536  N3        15.6480   34.0920   62.3640 N.ar   25  A25        -0.2048
    537  C4        16.6380   34.6520   63.0730 C.ar   25  A25         0.1692
    538  C5        16.8690   34.4930   64.4240 C.ar   25  A25         0.1518
    539  C6        15.9990   33.6510   65.1240 C.ar   25  A25         0.1919
    540  N6        16.1200   33.4300   66.4280 N.pl3  25  A25        -0.1054
    541  N7        17.9320   35.2610   64.8430 N.ar   25  A25        -0.2193
    542  C8        18.3340   35.8470   63.7380 C.ar   25  A25         0.1816
    543  N9        17.6130   35.5130   62.6270 N.ar   25  A25        -0.2693
    544  OP1       22.9180   36.6220   58.5970 O.2    25  A25        -0.5172
    545  OP2       23.4000   35.6930   60.9550 O.co2  25  A25        -0.4373
    546  P         18.1900   39.4070   58.2690 P.3    26  A26         0.2141
    547  C5'       16.4830   39.2310   56.2580 C.3    26  A26         0.1812
    548  O5'       16.7730   39.6880   57.5670 O.3    26  A26        -0.3114
    549  C4'       15.2480   38.3410   56.2010 C.3    26  A26         0.1773
    550  O4'       15.4460   37.1390   56.9960 O.3    26  A26        -0.3307
    551  C3'       13.9110   38.8570   56.7200 C.3    26  A26         0.1860
    552  O3'       13.3120   39.8340   55.8540 O.3    26  A26        -0.3112
    553  C2'       13.1590   37.5260   56.6700 C.3    26  A26         0.2309
    554  O2'       12.8800   37.1140   55.3500 O.3    26  A26        -0.2156
    555  C1'       14.1780   36.5620   57.2670 C.3    26  A26         0.2408
    556  N1        11.3730   34.1670   60.8480 N.ar   26  A26        -0.2040
    557  C2        11.3800   34.0900   59.5160 C.ar   26  A26         0.2016
    558  N3        12.1400   34.7470   58.6460 N.ar   26  A26        -0.2048
    559  C4        12.9950   35.5660   59.2760 C.ar   26  A26         0.1692
    560  C5        13.1030   35.7540   60.6370 C.ar   26  A26         0.1518
    561  C6        12.2280   35.0130   61.4510 C.ar   26  A26         0.1919
    562  N6        12.2120   35.1020   62.7840 N.pl3  26  A26        -0.1054
    563  N7        14.0980   36.6680   60.9290 N.ar   26  A26        -0.2193
    564  C8        14.5650   37.0080   59.7470 C.ar   26  A26         0.1816
    565  N9        13.9520   36.3730   58.7020 N.ar   26  A26        -0.2693
    566  OP1       19.2520   39.1330   57.2710 O.2    26  A26        -0.5172
    567  OP2       18.3620   40.4520   59.3040 O.co2  26  A26        -0.4373
    568  P         11.8170   40.4050   56.0870 P.3    27  G27         0.2141
    569  C5'        9.7200   38.8080   56.1050 C.3    27  G27         0.1812
    570  O5'       10.9610   39.1850   56.6850 O.3    27  G27        -0.3114
    571  C4'        8.9010   37.9900   57.0810 C.3    27  G27         0.1773
    572  O4'        9.7630   37.1560   57.8890 O.3    27  G27        -0.3307
    573  C3'        8.1810   38.8100   58.1250 C.3    27  G27         0.1860
    574  O3'        7.0120   39.3430   57.5700 O.3    27  G27        -0.3112
    575  C2'        7.9050   37.7650   59.1980 C.3    27  G27         0.2309
    576  O2'        6.8920   36.8530   58.8420 O.3    27  G27        -0.2156
    577  C1'        9.2410   37.0460   59.2020 C.3    27  G27         0.2408
    578  N1        10.5980   37.8230   64.0300 N.ar   27  G27        -0.1709
    579  C2         9.5870   37.0420   63.5250 C.ar   27  G27         0.2606
    580  N2         8.8420   36.4080   64.4380 N.pl3  27  G27        -0.0859
    581  N3         9.3120   36.9090   62.2340 N.ar   27  G27        -0.1918
    582  C4        10.1620   37.6370   61.4800 C.ar   27  G27         0.1723
    583  C5        11.2030   38.4390   61.8840 C.ar   27  G27         0.1748
    584  C6        11.4740   38.5780   63.2550 C.ar   27  G27         0.3023
    585  O6        12.3640   39.2510   63.7860 O.2    27  G27        -0.2633
    586  N7        11.8420   39.0150   60.8030 N.ar   27  G27        -0.2173
    587  C8        11.2020   38.5430   59.7680 C.ar   27  G27         0.1817
    588  N9        10.1730   37.6980   60.1090 N.ar   27  G27        -0.2693
    589  OP1       11.2810   40.7830   54.7580 O.2    27  G27        -0.5172
    590  OP2       11.8710   41.3880   57.1850 O.co2  27  G27        -0.4373
    591  P          6.4420   40.6900   58.2030 P.3    28  U28         0.2141
    592  C5'        5.0040   39.7690   60.2200 C.3    28  U28         0.1812
    593  O5'        6.2110   40.3170   59.7480 O.3    28  U28        -0.3114
    594  C4'        5.1210   39.4750   61.7030 C.3    28  U28         0.1773
    595  O4'        6.4490   38.9940   62.0390 O.3    28  U28        -0.3307
    596  C3'        4.9730   40.6920   62.5860 C.3    28  U28         0.1860
    597  O3'        3.6040   40.9910   62.7810 O.3    28  U28        -0.3112
    598  C2'        5.6380   40.2250   63.8730 C.3    28  U28         0.2309
    599  O2'        4.8020   39.3550   64.6010 O.3    28  U28        -0.2156
    600  C1'        6.8370   39.4730   63.3170 C.3    28  U28         0.2420
    601  N1         8.0610   40.3330   63.1740 N.ar   28  U28        -0.2534
    602  C2         8.7300   40.7860   64.2980 C.ar   28  U28         0.3546
    603  O2         8.3830   40.5600   65.4400 O.2    28  U28        -0.2443
    604  N3         9.8460   41.5350   64.0560 N.ar   28  U28        -0.1530
    605  C4        10.3450   41.8860   62.8230 C.ar   28  U28         0.2846
    606  O4        11.3450   42.5950   62.7690 O.2    28  U28        -0.2650
    607  C5         9.6100   41.3780   61.6940 C.ar   28  U28         0.0814
    608  C6         8.5220   40.6400   61.9110 C.ar   28  U28         0.0870
    609  OP1        5.1550   40.9940   57.5400 O.2    28  U28        -0.5172
    610  OP2        7.5490   41.6760   58.1580 O.co2  28  U28        -0.4373
    611  P          3.1730   42.5320   62.7040 P.3    29  G29         0.2141
    612  C5'        3.3370   42.8440   65.2880 C.3    29  G29         0.1812
    613  O5'        3.8610   43.1530   64.0070 O.3    29  G29        -0.3114
    614  C4'        4.1940   43.5110   66.3440 C.3    29  G29         0.1773
    615  O4'        5.5420   42.9890   66.2790 O.3    29  G29        -0.3307
    616  C3'        4.4140   44.9980   66.1420 C.3    29  G29         0.1860
    617  O3'        3.3000   45.7050   66.6270 O.3    29  G29        -0.3112
    618  C2'        5.6280   45.2230   67.0230 C.3    29  G29         0.2309
    619  O2'        5.2690   45.1260   68.3840 O.3    29  G29        -0.2156
    620  C1'        6.4600   44.0100   66.6380 C.3    29  G29         0.2408
    621  N1        10.6700   46.2340   64.7830 N.ar   29  G29        -0.1709
    622  C2        10.1890   46.2460   66.0700 C.ar   29  G29         0.2606
    623  N2        10.9320   46.9310   66.9500 N.pl3  29  G29        -0.0859
    624  N3         9.0760   45.6290   66.4670 N.ar   29  G29        -0.1918
    625  C4         8.4740   44.9860   65.4350 C.ar   29  G29         0.1723
    626  C5         8.8800   44.9170   64.1240 C.ar   29  G29         0.1748
    627  C6        10.0530   45.5790   63.7250 C.ar   29  G29         0.3023
    628  O6        10.5400   45.6220   62.5920 O.2    29  G29        -0.2633
    629  N7         7.9940   44.1760   63.3610 N.ar   29  G29        -0.2173
    630  C8         7.0820   43.7990   64.2100 C.ar   29  G29         0.1817
    631  N9         7.3030   44.2630   65.4820 N.ar   29  G29        -0.2693
    632  OP1        1.6990   42.6120   62.8540 O.3    29  G29        -0.4373
    633  OP2        3.8470   43.0890   61.5080 O.co2  29  G29        -0.5172
    634  P          3.0290   47.1620   66.0430 P.3    30  C30         0.2141
    635  C5'        4.4350   48.7300   67.6050 C.3    30  C30         0.1812
    636  O5'        4.3740   47.9300   66.4440 O.3    30  C30        -0.3114
    637  C4'        5.7440   49.4890   67.5940 C.3    30  C30         0.1773
    638  O4'        6.7750   48.6320   67.0580 O.3    30  C30        -0.3307
    639  C3'        5.7910   50.6470   66.6220 C.3    30  C30         0.1860
    640  O3'        5.1180   51.7670   67.1560 O.3    30  C30        -0.3112
    641  C2'        7.2940   50.8590   66.4920 C.3    30  C30         0.2309
    642  O2'        7.8770   51.5110   67.6010 O.3    30  C30        -0.2156
    643  C1'        7.7800   49.4200   66.4480 C.3    30  C30         0.2420
    644  N1         7.9820   48.9480   65.0620 N.ar   30  C30        -0.2535
    645  C2         9.0990   49.3950   64.3370 C.ar   30  C30         0.3532
    646  O2         9.9160   50.1680   64.8570 O.2    30  C30        -0.2443
    647  N3         9.2600   48.9710   63.0630 N.ar   30  C30        -0.1739
    648  C4         8.3680   48.1470   62.5320 C.ar   30  C30         0.1759
    649  N4         8.5900   47.7640   61.2790 N.pl3  30  C30        -0.1070
    650  C5         7.2250   47.6800   63.2440 C.ar   30  C30         0.0566
    651  C6         7.0660   48.1090   64.4970 C.ar   30  C30         0.0850
    652  OP1        1.8820   47.7040   66.8020 O.3    30  C30        -0.4373
    653  OP2        3.0010   47.0980   64.5600 O.co2  30  C30        -0.5172
    654  P          3.9750   52.4300   66.2630 P.3    31  C31         0.2141
    655  C5'        5.7680   54.3400   66.2980 C.3    31  C31         0.1812
    656  O5'        4.7790   53.6270   65.5560 O.3    31  C31        -0.3114
    657  C4'        6.7200   55.1340   65.4170 C.3    31  C31         0.1773
    658  O4'        7.8260   54.2920   65.0100 O.3    31  C31        -0.3307
    659  C3'        6.1530   55.6580   64.1060 C.3    31  C31         0.1860
    660  O3'        5.5210   56.9050   64.3030 O.3    31  C31        -0.3112
    661  C2'        7.4120   55.8270   63.2690 C.3    31  C31         0.2309
    662  O2'        8.1240   56.9960   63.6050 O.3    31  C31        -0.2156
    663  C1'        8.2020   54.5910   63.6740 C.3    31  C31         0.2420
    664  N1         7.8890   53.4260   62.7840 N.ar   31  C31        -0.2535
    665  C2         8.5990   53.2450   61.5860 C.ar   31  C31         0.3532
    666  O2         9.5160   54.0190   61.2930 O.2    31  C31        -0.2443
    667  N3         8.2760   52.2080   60.7780 N.ar   31  C31        -0.1739
    668  C4         7.2990   51.3740   61.1330 C.ar   31  C31         0.1759
    669  N4         7.0180   50.3550   60.3150 N.pl3  31  C31        -0.1070
    670  C5         6.5610   51.5450   62.3390 C.ar   31  C31         0.0566
    671  C6         6.8760   52.5780   63.1220 C.ar   31  C31         0.0850
    672  OP1        2.9360   52.9390   67.1860 O.3    31  C31        -0.4373
    673  OP2        3.5860   51.4430   65.2330 O.co2  31  C31        -0.5172
    674  P          4.3150   57.3510   63.3500 P.3    32  U32         0.2141
    675  C5'        5.9510   58.6290   61.7500 C.3    32  U32         0.1812
    676  O5'        5.0100   57.5780   61.9200 O.3    32  U32        -0.3114
    677  C4'        6.4510   58.7290   60.3200 C.3    32  U32         0.1773
    678  O4'        7.4540   57.7090   60.0600 O.3    32  U32        -0.3307
    679  C3'        5.4020   58.5340   59.2360 C.3    32  U32         0.1860
    680  O3'        4.7160   59.7410   58.9640 O.3    32  U32        -0.3112
    681  C2'        6.2910   58.1400   58.0630 C.3    32  U32         0.2309
    682  O2'        6.9360   59.2440   57.4670 O.3    32  U32        -0.2156
    683  C1'        7.2940   57.2090   58.7400 C.3    32  U32         0.2420
    684  N1         6.7620   55.7940   58.7310 N.ar   32  U32        -0.2534
    685  C2         6.9600   55.0040   57.6090 C.ar   32  U32         0.3546
    686  O2         7.6280   55.3520   56.6520 O.2    32  U32        -0.2443
    687  N3         6.3670   53.7650   57.6490 N.ar   32  U32        -0.1530
    688  C4         5.5920   53.2460   58.6700 C.ar   32  U32         0.2846
    689  O4         5.1280   52.1130   58.5730 O.2    32  U32        -0.2650
    690  C5         5.4130   54.1290   59.7950 C.ar   32  U32         0.0814
    691  C6         5.9680   55.3480   59.7730 C.ar   32  U32         0.0870
    692  OP1        3.8400   58.6490   63.8760 O.3    32  U32        -0.4373
    693  OP2        3.3520   56.2360   63.2240 O.co2  32  U32        -0.5172
    694  P          3.2430   59.7330   58.3290 P.3    33  G33         0.2141
    695  C5'        4.5830   60.0490   56.1160 C.3    33  G33         0.1812
    696  O5'        3.4970   59.4380   56.7760 O.3    33  G33        -0.3114
    697  C4'        4.7180   59.4910   54.7150 C.3    33  G33         0.1773
    698  O4'        5.5300   58.2860   54.7550 O.3    33  G33        -0.3307
    699  C3'        3.4150   59.0170   54.0930 C.3    33  G33         0.1860
    700  O3'        2.6920   60.0710   53.5030 O.3    33  G33        -0.3112
    701  C2'        3.9440   58.0570   53.0340 C.3    33  G33         0.2309
    702  O2'        4.4730   58.7290   51.9120 O.3    33  G33        -0.2156
    703  C1'        5.0430   57.3360   53.8100 C.3    33  G33         0.2408
    704  N1         3.8980   52.3470   53.4330 N.ar   33  G33        -0.1709
    705  C2         4.4190   53.1920   52.4930 C.ar   33  G33         0.2606
    706  N2         4.6950   52.6450   51.3070 N.pl3  33  G33        -0.0859
    707  N3         4.6690   54.4750   52.6980 N.ar   33  G33        -0.1918
    708  C4         4.3560   54.8680   53.9550 C.ar   33  G33         0.1723
    709  C5         3.8250   54.1000   54.9670 C.ar   33  G33         0.1748
    710  C6         3.5580   52.7250   54.7260 C.ar   33  G33         0.3023
    711  O6         3.0710   51.8840   55.4950 O.2    33  G33        -0.2633
    712  N7         3.6340   54.8670   56.1130 N.ar   33  G33        -0.2173
    713  C8         4.0640   56.0530   55.7820 C.ar   33  G33         0.1817
    714  N9         4.5370   56.1330   54.4920 N.ar   33  G33        -0.2693
    715  OP1        2.6860   61.0960   58.4640 O.2    33  G33        -0.5172
    716  OP2        2.4780   58.6160   58.9220 O.co2  33  G33        -0.4373
    717  P          1.2120   59.7960   52.9500 P.3    34  A34         0.2141
    718  C5'        1.5450   58.7810   50.5670 C.3    34  A34         0.1812
    719  O5'        1.4030   58.5630   51.9600 O.3    34  A34        -0.3114
    720  C4'        1.4270   57.4570   49.8360 C.3    34  A34         0.1773
    721  O4'        2.2020   56.4370   50.5200 O.3    34  A34        -0.3307
    722  C3'        0.0290   56.8660   49.8310 C.3    34  A34         0.1860
    723  O3'       -0.7540   57.4480   48.8240 O.3    34  A34        -0.3112
    724  C2'        0.3410   55.4200   49.4910 C.3    34  A34         0.2309
    725  O2'        0.6770   55.2610   48.1290 O.3    34  A34        -0.2156
    726  C1'        1.5610   55.1790   50.3670 C.3    34  A34         0.2408
    727  N1         0.1680   50.9940   53.0540 N.ar   34  A34        -0.2040
    728  C2         0.4580   51.1760   51.7620 C.ar   34  A34         0.2016
    729  N3         0.8040   52.2910   51.1200 N.ar   34  A34        -0.2048
    730  C4         0.8620   53.3320   51.9640 C.ar   34  A34         0.1692
    731  C5         0.5910   53.3020   53.3160 C.ar   34  A34         0.1518
    732  C6         0.2370   52.0530   53.8730 C.ar   34  A34         0.1919
    733  N6        -0.0440   51.8670   55.1600 N.pl3  34  A34        -0.1054
    734  N7         0.7630   54.5630   53.8660 N.ar   34  A34        -0.2193
    735  C8         1.1200   55.3140   52.8520 C.ar   34  A34         0.1816
    736  N9         1.2060   54.6350   51.6750 N.ar   34  A34        -0.2693
    737  OP1        0.7990   60.9340   52.1070 O.2    34  A34        -0.5172
    738  OP2        0.3700   59.3710   54.0920 O.co2  34  A34        -0.4373
    739  P         -2.3320   57.2370   48.9270 P.3    35  G35         0.2141
    740  C5'       -2.2110   55.1610   47.3300 C.3    35  G35         0.1812
    741  O5'       -2.4560   55.6710   48.6390 O.3    35  G35        -0.3114
    742  C4'       -2.7020   53.7300   47.2770 C.3    35  G35         0.1773
    743  O4'       -1.8450   52.8870   48.0920 O.3    35  G35        -0.3307
    744  C3'       -4.0810   53.5320   47.8850 C.3    35  G35         0.1860
    745  O3'       -5.0500   53.9350   46.9290 O.3    35  G35        -0.3112
    746  C2'       -4.0250   52.0250   48.0870 C.3    35  G35         0.2309
    747  O2'       -4.0740   51.3240   46.8640 O.3    35  G35        -0.2156
    748  C1'       -2.6320   51.8780   48.6900 C.3    35  G35         0.2408
    749  N1        -3.3590   49.5630   53.1490 N.ar   35  G35        -0.1709
    750  C2        -3.3190   49.0330   51.8840 C.ar   35  G35         0.2606
    751  N2        -3.5180   47.7130   51.7910 N.pl3  35  G35        -0.0859
    752  N3        -3.1150   49.7470   50.7850 N.ar   35  G35        -0.1918
    753  C4        -2.9350   51.0620   51.0590 C.ar   35  G35         0.1723
    754  C5        -2.9440   51.6860   52.2830 C.ar   35  G35         0.1748
    755  C6        -3.1750   50.9060   53.4450 C.ar   35  G35         0.3023
    756  O6        -3.2250   51.2690   54.6260 O.2    35  G35        -0.2633
    757  N7        -2.6960   53.0480   52.1330 N.ar   35  G35        -0.2173
    758  C8        -2.5680   53.2200   50.8470 C.ar   35  G35         0.1817
    759  N9        -2.6670   52.0500   50.1370 N.ar   35  G35        -0.2693
    760  OP1       -2.9960   57.9380   47.8060 O.2    35  G35        -0.5172
    761  OP2       -2.7420   57.5230   50.3260 O.co2  35  G35        -0.4373
    762  P         -6.6300   53.8560   47.1970 P.3    36  G36         0.2141
    763  C5'       -7.9530   51.8390   48.2210 C.3    36  G36         0.1812
    764  O5'       -6.8920   52.2980   47.4160 O.3    36  G36        -0.3114
    765  C4'       -7.7550   50.3550   48.4370 C.3    36  G36         0.1773
    766  O4'       -6.5170   50.1160   49.1570 O.3    36  G36        -0.3307
    767  C3'       -8.8220   49.7340   49.3080 C.3    36  G36         0.1860
    768  O3'       -9.9580   49.4290   48.5200 O.3    36  G36        -0.3112
    769  C2'       -8.0960   48.5090   49.8520 C.3    36  G36         0.2309
    770  O2'       -8.0010   47.4610   48.8960 O.3    36  G36        -0.2156
    771  C1'       -6.7280   49.1280   50.1540 C.3    36  G36         0.2408
    772  N1        -6.9260   48.7970   55.2900 N.ar   36  G36        -0.1709
    773  C2        -7.0590   47.7980   54.3600 C.ar   36  G36         0.2606
    774  N2        -7.2700   46.5700   54.8420 N.pl3  36  G36        -0.0859
    775  N3        -6.9950   47.9790   53.0470 N.ar   36  G36        -0.1918
    776  C4        -6.7630   49.2710   52.7240 C.ar   36  G36         0.1723
    777  C5        -6.6100   50.3310   53.5840 C.ar   36  G36         0.1748
    778  C6        -6.6900   50.1280   54.9730 C.ar   36  G36         0.3023
    779  O6        -6.5700   50.9740   55.8660 O.2    36  G36        -0.2633
    780  N7        -6.3710   51.4980   52.8870 N.ar   36  G36        -0.2173
    781  C8        -6.3890   51.1350   51.6340 C.ar   36  G36         0.1817
    782  N9        -6.6380   49.8000   51.4510 N.ar   36  G36        -0.2693
    783  OP1       -7.3100   54.2010   45.9290 O.2    36  G36        -0.5172
    784  OP2       -6.9340   54.5800   48.4560 O.co2  36  G36        -0.4373
    785  P        -11.3870   49.7490   49.1620 P.3    37  G37         0.2141
    786  C5'      -11.4510   47.2300   49.8310 C.3    37  G37         0.1812
    787  O5'      -11.5180   48.5850   50.2400 O.3    37  G37        -0.3114
    788  C4'      -11.4370   46.3940   51.0860 C.3    37  G37         0.1773
    789  O4'      -10.3150   46.8170   51.8880 O.3    37  G37        -0.3307
    790  C3'      -12.5680   46.7070   52.0470 C.3    37  G37         0.1860
    791  O3'      -13.8020   46.1920   51.5790 O.3    37  G37        -0.3112
    792  C2'      -12.0440   46.0350   53.3060 C.3    37  G37         0.2309
    793  O2'      -12.1050   44.6300   53.2070 O.3    37  G37        -0.2156
    794  C1'      -10.5860   46.4720   53.2360 C.3    37  G37         0.2408
    795  N1       -10.2130   48.2070   57.9510 N.ar   37  G37        -0.1709
    796  C2       -10.4670   46.9260   57.5080 C.ar   37  G37         0.2606
    797  N2       -10.6390   45.9820   58.4480 N.pl3  37  G37        -0.0859
    798  N3       -10.5310   46.5870   56.2250 N.ar   37  G37        -0.1918
    799  C4       -10.3170   47.6540   55.4230 C.ar   37  G37         0.1723
    800  C5       -10.0690   48.9580   55.7610 C.ar   37  G37         0.1748
    801  C6       -10.0040   49.3090   57.1190 C.ar   37  G37         0.3023
    802  O6        -9.7770   50.4310   57.5900 O.2    37  G37        -0.2633
    803  N7        -9.9130   49.7490   54.6360 N.ar   37  G37        -0.2173
    804  C8       -10.0840   48.9170   53.6470 C.ar   37  G37         0.1817
    805  N9       -10.3270   47.6330   54.0600 N.ar   37  G37        -0.2693
    806  OP1      -12.4340   49.5420   48.1390 O.2    37  G37        -0.5172
    807  OP2      -11.2690   51.0170   49.9120 O.co2  37  G37        -0.4373
    808  P        -15.1500   46.8220   52.1590 P.3    38  A38         0.2141
    809  C5'      -15.7670   45.4650   54.3000 C.3    38  A38         0.1812
    810  O5'      -15.0360   46.5370   53.7330 O.3    38  A38        -0.3114
    811  C4'      -15.6750   45.4850   55.8100 C.3    38  A38         0.1773
    812  O4'      -14.3240   45.7940   56.2110 O.3    38  A38        -0.3307
    813  C3'      -16.5100   46.5450   56.4950 C.3    38  A38         0.1860
    814  O3'      -17.8030   46.0510   56.6950 O.3    38  A38        -0.3112
    815  C2'      -15.7890   46.6730   57.8220 C.3    38  A38         0.2309
    816  O2'      -16.0680   45.5950   58.6860 O.3    38  A38        -0.2156
    817  C1'      -14.3420   46.6130   57.3620 C.3    38  A38         0.2408
    818  N1       -13.0640   51.2350   59.1200 N.ar   38  A38        -0.2040
    819  C2       -13.4410   50.1070   59.7420 C.ar   38  A38         0.2016
    820  N3       -13.7570   48.9240   59.2100 N.ar   38  A38        -0.2048
    821  C4       -13.6460   48.9620   57.8720 C.ar   38  A38         0.1692
    822  C5       -13.2780   50.0340   57.0900 C.ar   38  A38         0.1518
    823  C6       -12.9780   51.2290   57.7690 C.ar   38  A38         0.1919
    824  N6       -12.6010   52.3400   57.1350 N.pl3  38  A38        -0.1054
    825  N7       -13.2910   49.7040   55.7480 N.ar   38  A38        -0.2193
    826  C8       -13.6750   48.4530   55.7460 C.ar   38  A38         0.1816
    827  N9       -13.8770   47.9400   56.9980 N.ar   38  A38        -0.2693
    828  OP1      -16.2800   46.0530   51.6060 O.2    38  A38        -0.5172
    829  OP2      -15.1040   48.2860   51.9750 O.co2  38  A38        -0.4373
    830  P        -19.0320   46.9520   56.2310 P.3    39  C39         0.2141
    831  C5'      -19.0140   47.4340   58.7590 C.3    39  C39         0.1812
    832  O5'      -19.1260   47.9660   57.4610 O.3    39  C39        -0.3114
    833  C4'      -19.4750   48.4530   59.7730 C.3    39  C39         0.1773
    834  O4'      -18.3510   49.2490   60.2110 O.3    39  C39        -0.3307
    835  C3'      -20.4860   49.4600   59.2510 C.3    39  C39         0.1860
    836  O3'      -21.7510   48.9090   59.4800 O.3    39  C39        -0.3112
    837  C2'      -20.2640   50.6350   60.1900 C.3    39  C39         0.2309
    838  O2'      -20.9240   50.4470   61.4280 O.3    39  C39        -0.2156
    839  C1'      -18.7520   50.5920   60.3720 C.3    39  C39         0.2420
    840  N1       -18.0410   51.3730   59.3450 N.ar   39  C39        -0.2535
    841  C2       -17.8110   52.7320   59.5730 C.ar   39  C39         0.3532
    842  O2       -18.2140   53.2300   60.6360 O.2    39  C39        -0.2443
    843  N3       -17.1560   53.4480   58.6190 N.ar   39  C39        -0.1739
    844  C4       -16.7500   52.8450   57.4950 C.ar   39  C39         0.1759
    845  N4       -16.1200   53.5820   56.5790 N.pl3  39  C39        -0.1070
    846  C5       -16.9780   51.4580   57.2490 C.ar   39  C39         0.0566
    847  C6       -17.6230   50.7650   58.1940 C.ar   39  C39         0.0850
    848  OP1      -20.2490   46.1060   56.1830 O.3    39  C39        -0.4373
    849  OP2      -18.5960   47.6770   55.0140 O.co2  39  C39        -0.5172
    850  P        -23.0260   49.4850   58.7310 P.3    40  G40         0.2141
    851  C5'      -23.2600   47.2610   57.4040 C.3    40  G40         0.1812
    852  O5'      -23.0600   48.6560   57.3690 O.3    40  G40        -0.3114
    853  C4'      -23.3780   46.7360   55.9890 C.3    40  G40         0.1773
    854  O4'      -23.3320   45.2840   56.0320 O.3    40  G40        -0.3307
    855  C3'      -24.6830   47.0980   55.2900 C.3    40  G40         0.1860
    856  O3'      -24.5050   47.0880   53.8950 O.3    40  G40        -0.3112
    857  C2'      -25.5630   45.9210   55.6660 C.3    40  G40         0.2309
    858  O2'      -26.5820   45.7280   54.7120 O.3    40  G40        -0.2156
    859  C1'      -24.5550   44.7860   55.5300 C.3    40  G40         0.2408
    860  N1       -25.7990   42.6030   59.9940 N.ar   40  G40        -0.1709
    861  C2       -25.3300   43.8810   59.7680 C.ar   40  G40         0.2606
    862  N2       -25.1850   44.6630   60.8570 N.pl3  40  G40        -0.0859
    863  N3       -25.0240   44.3550   58.5570 N.ar   40  G40        -0.1918
    864  C4       -25.2240   43.4280   57.5810 C.ar   40  G40         0.1723
    865  C5       -25.6770   42.1340   57.7160 C.ar   40  G40         0.1748
    866  C6       -26.0020   41.6460   58.9980 C.ar   40  G40         0.3023
    867  O6       -26.4060   40.5100   59.2810 O.2    40  G40        -0.2633
    868  N7       -25.7360   41.4900   56.4910 N.ar   40  G40        -0.2173
    869  C8       -25.3320   42.3910   55.6400 C.ar   40  G40         0.1817
    870  N9       -24.9770   43.5790   56.2310 N.ar   40  G40        -0.2693
    871  OP1      -22.7370   50.9030   58.4110 O.2    40  G40        -0.5172
    872  OP2      -24.2050   49.0900   59.5400 O.co2  40  G40        -0.4373
    873  P        -24.1800   48.4490   53.1400 P.3    41  G41         0.2141
    874  C5'      -24.2140   47.6180   50.6740 C.3    41  G41         0.1812
    875  O5'      -24.9010   48.2850   51.7180 O.3    41  G41        -0.3114
    876  C4'      -24.8220   47.8590   49.3030 C.3    41  G41         0.1773
    877  O4'      -26.2400   47.5560   49.3050 O.3    41  G41        -0.3307
    878  C3'      -24.7110   49.2770   48.7690 C.3    41  G41         0.1860
    879  O3'      -23.4930   49.4310   48.0530 O.3    41  G41        -0.3112
    880  C2'      -25.9120   49.3570   47.8390 C.3    41  G41         0.2309
    881  O2'      -25.6410   48.7570   46.5910 O.3    41  G41        -0.2156
    882  C1'      -26.9610   48.5700   48.6270 C.3    41  G41         0.2408
    883  N1       -29.2690   53.0110   49.7230 N.ar   41  G41        -0.1709
    884  C2       -28.7970   52.5600   48.5190 C.ar   41  G41         0.2606
    885  N2       -28.9290   53.4020   47.4860 N.pl3  41  G41        -0.0859
    886  N3       -28.2280   51.3690   48.3460 N.ar   41  G41        -0.1918
    887  C4       -28.1760   50.6430   49.4920 C.ar   41  G41         0.1723
    888  C5       -28.6380   51.0000   50.7390 C.ar   41  G41         0.1748
    889  C6       -29.2350   52.2790   50.9050 C.ar   41  G41         0.3023
    890  O6       -29.6970   52.7890   51.9330 O.2    41  G41        -0.2633
    891  N7       -28.3950   49.9830   51.6600 N.ar   41  G41        -0.2173
    892  C8       -27.8030   49.0510   50.9690 C.ar   41  G41         0.1817
    893  N9       -27.6330   49.3800   49.6450 N.ar   41  G41        -0.2693
    894  OP1      -22.7300   48.5210   52.8960 O.2    41  G41        -0.5172
    895  OP2      -24.8070   49.5260   53.9330 O.co2  41  G41        -0.4373
    896  P        -22.4060   50.4400   48.6510 P.3    42  G42         0.2141
    897  C5'      -22.9390   51.7980   46.4990 C.3    42  G42         0.1812
    898  O5'      -22.7940   51.8030   47.9110 O.3    42  G42        -0.3114
    899  C4'      -23.4790   53.1360   46.0530 C.3    42  G42         0.1773
    900  O4'      -24.9130   53.1420   46.2510 O.3    42  G42        -0.3307
    901  C3'      -23.0110   54.3110   46.8970 C.3    42  G42         0.1860
    902  O3'      -21.7350   54.7560   46.4730 O.3    42  G42        -0.3112
    903  C2'      -24.0930   55.3240   46.5590 C.3    42  G42         0.2309
    904  O2'      -23.9830   55.8090   45.2370 O.3    42  G42        -0.2156
    905  C1'      -25.3190   54.4290   46.6810 C.3    42  G42         0.2408
    906  N1       -27.4620   57.0430   50.4830 N.ar   42  G42        -0.1709
    907  C2       -27.1390   57.4570   49.2140 C.ar   42  G42         0.2606
    908  N2       -27.3930   58.7360   48.9060 N.pl3  42  G42        -0.0859
    909  N3       -26.5900   56.6690   48.3010 N.ar   42  G42        -0.1918
    910  C4       -26.3690   55.4130   48.7650 C.ar   42  G42         0.1723
    911  C5       -26.6580   54.9080   50.0090 C.ar   42  G42         0.1748
    912  C6       -27.2460   55.7590   50.9730 C.ar   42  G42         0.3023
    913  O6       -27.5620   55.4900   52.1380 O.2    42  G42        -0.2633
    914  N7       -26.2770   53.5740   50.0890 N.ar   42  G42        -0.2173
    915  C8       -25.7740   53.3020   48.9160 C.ar   42  G42         0.1817
    916  N9       -25.8070   54.3710   48.0570 N.ar   42  G42        -0.2693
    917  OP1      -21.0640   50.0480   48.1690 O.2    42  G42        -0.5172
    918  OP2      -22.6630   50.5670   50.1070 O.co2  42  G42        -0.4373
    919  P        -20.7040   55.3790   47.5260 P.3    43  G43         0.2141
    920  C5'      -21.5820   57.8140   47.0780 C.3    43  G43         0.1812
    921  O5'      -21.4140   56.7310   47.9770 O.3    43  G43        -0.3114
    922  C4'      -22.0760   58.9970   47.8810 C.3    43  G43         0.1773
    923  O4'      -23.4290   58.7370   48.3280 O.3    43  G43        -0.3307
    924  C3'      -21.3410   59.1650   49.1920 C.3    43  G43         0.1860
    925  O3'      -20.0760   59.7520   48.9550 O.3    43  G43        -0.3112
    926  C2'      -22.3260   60.0510   49.9430 C.3    43  G43         0.2309
    927  O2'      -22.3260   61.3860   49.4940 O.3    43  G43        -0.2156
    928  C1'      -23.6430   59.3870   49.5650 C.3    43  G43         0.2408
    929  N1       -25.6470   58.6240   54.1570 N.ar   43  G43        -0.1709
    930  C2       -25.4820   59.7990   53.4560 C.ar   43  G43         0.2606
    931  N2       -25.8890   60.9190   54.0630 N.pl3  43  G43        -0.0859
    932  N3       -24.9410   59.8770   52.2470 N.ar   43  G43        -0.1918
    933  C4       -24.5910   58.6550   51.7790 C.ar   43  G43         0.1723
    934  C5       -24.7260   57.4290   52.3870 C.ar   43  G43         0.1748
    935  C6       -25.2920   57.3630   53.6810 C.ar   43  G43         0.3023
    936  O6       -25.4940   56.3570   54.3700 O.2    43  G43        -0.2633
    937  N7       -24.2490   56.4160   51.5680 N.ar   43  G43        -0.2173
    938  C8       -23.8280   57.0400   50.5030 C.ar   43  G43         0.1817
    939  N9       -24.0290   58.3960   50.5550 N.ar   43  G43        -0.2693
    940  OP1      -19.4710   55.7050   46.7840 O.2    43  G43        -0.5172
    941  OP2      -20.6660   54.5200   48.7300 O.co2  43  G43        -0.4373
    942  P        -19.1850   60.2950   50.1720 P.3    44  A44         0.2141
    943  C5'      -19.4970   62.4570   51.6060 C.3    44  A44         0.1812
    944  O5'      -20.0050   61.5980   50.6070 O.3    44  A44        -0.3114
    945  C4'      -20.6040   62.8960   52.5410 C.3    44  A44         0.1773
    946  O4'      -21.7620   62.0300   52.4540 O.3    44  A44        -0.3307
    947  C3'      -20.2290   62.7840   53.9980 C.3    44  A44         0.1860
    948  O3'      -19.3750   63.8430   54.3320 O.3    44  A44        -0.3112
    949  C2'      -21.5970   62.9090   54.6380 C.3    44  A44         0.2309
    950  O2'      -22.0730   64.2300   54.5670 O.3    44  A44        -0.2156
    951  C1'      -22.4100   62.0070   53.7160 C.3    44  A44         0.2408
    952  N1       -23.8500   58.8720   57.5510 N.ar   44  A44        -0.2040
    953  C2       -23.9670   60.1970   57.3890 C.ar   44  A44         0.2016
    954  N3       -23.5680   60.9520   56.3650 N.ar   44  A44        -0.2048
    955  C4       -22.9780   60.2070   55.4150 C.ar   44  A44         0.1692
    956  C5       -22.7820   58.8390   55.4410 C.ar   44  A44         0.1518
    957  C6       -23.2540   58.1510   56.5780 C.ar   44  A44         0.1919
    958  N6       -23.1140   56.8330   56.7400 N.pl3  44  A44        -0.1054
    959  N7       -22.1380   58.4110   54.2940 N.ar   44  A44        -0.2193
    960  C8       -21.9640   59.5140   53.6050 C.ar   44  A44         0.1816
    961  N9       -22.4630   60.6340   54.2120 N.ar   44  A44        -0.2693
    962  OP1      -17.8760   60.7170   49.6200 O.2    44  A44        -0.5172
    963  OP2      -19.2400   59.3330   51.2970 O.co2  44  A44        -0.4373
    964  P        -17.8780   63.4910   54.7500 P.3    45  G45         0.2141
    965  C5'      -18.5600   64.2000   57.1490 C.3    45  G45         0.1812
    966  O5'      -18.0840   63.1660   56.3030 O.3    45  G45        -0.3114
    967  C4'      -19.4230   63.6540   58.2680 C.3    45  G45         0.1773
    968  O4'      -20.4200   62.7510   57.7350 O.3    45  G45        -0.3307
    969  C3'      -18.6870   62.8000   59.2840 C.3    45  G45         0.1860
    970  O3'      -17.9710   63.5920   60.2160 O.3    45  G45        -0.3112
    971  C2'      -19.8290   62.0150   59.9120 C.3    45  G45         0.2309
    972  O2'      -20.5750   62.7550   60.8510 O.3    45  G45        -0.2156
    973  C1'      -20.6640   61.7180   58.6760 C.3    45  G45         0.2408
    974  N1       -20.9570   56.6970   59.1520 N.ar   45  G45        -0.1709
    975  C2       -21.4340   57.6940   59.9770 C.ar   45  G45         0.2606
    976  N2       -22.0830   57.3170   61.0840 N.pl3  45  G45        -0.0859
    977  N3       -21.2800   58.9850   59.7460 N.ar   45  G45        -0.1918
    978  C4       -20.6000   59.2010   58.5980 C.ar   45  G45         0.1723
    979  C5       -20.0820   58.2870   57.7070 C.ar   45  G45         0.1748
    980  C6       -20.2500   56.9060   57.9650 C.ar   45  G45         0.3023
    981  O6       -19.8560   55.9440   57.2860 O.2    45  G45        -0.2633
    982  N7       -19.4550   58.9310   56.6520 N.ar   45  G45        -0.2173
    983  C8       -19.6090   60.1980   56.9190 C.ar   45  G45         0.1817
    984  N9       -20.3080   60.4350   58.0790 N.ar   45  G45        -0.2693
    985  OP1      -17.0480   64.7100   54.6000 O.3    45  G45        -0.4373
    986  OP2      -17.4830   62.2580   54.0310 O.co2  45  G45        -0.5172
    987  P        -16.4260   63.2460   60.4610 P.3    46  U46         0.2141
    988  C5'      -17.4820   62.0680   62.5780 C.3    46  U46         0.1812
    989  O5'      -16.5050   62.0650   61.5390 O.3    46  U46        -0.3114
    990  C4'      -17.7990   60.6400   62.9880 C.3    46  U46         0.1773
    991  O4'      -18.5010   59.9630   61.9110 O.3    46  U46        -0.3307
    992  C3'      -16.5850   59.7530   63.2400 C.3    46  U46         0.1860
    993  O3'      -16.0540   59.9640   64.5520 O.3    46  U46        -0.3112
    994  C2'      -17.2160   58.3740   63.0890 C.3    46  U46         0.2309
    995  O2'      -17.9930   58.0330   64.2190 O.3    46  U46        -0.2156
    996  C1'      -18.1290   58.5960   61.8880 C.3    46  U46         0.2420
    997  N1       -17.5120   58.2420   60.5640 N.ar   46  U46        -0.2534
    998  C2       -17.6220   56.9490   60.0980 C.ar   46  U46         0.3546
    999  O2       -18.1890   56.0700   60.7150 O.2    46  U46        -0.2443
   1000  N3       -17.0540   56.7130   58.8720 N.ar   46  U46        -0.1530
   1001  C4       -16.3800   57.6260   58.0830 C.ar   46  U46         0.2846
   1002  O4       -15.9060   57.2730   57.0080 O.2    46  U46        -0.2650
   1003  C5       -16.3010   58.9560   58.6320 C.ar   46  U46         0.0814
   1004  C6       -16.8580   59.2080   59.8240 C.ar   46  U46         0.0870
   1005  OP1      -15.7770   64.4190   61.0900 O.3    46  U46        -0.4373
   1006  OP2      -15.8640   62.6890   59.2060 O.co2  46  U46        -0.5172
   1007  P        -14.5120   59.6670   64.8970 P.3    47  U47         0.2141
   1008  C5'      -15.2540   57.3350   65.9040 C.3    47  U47         0.1812
   1009  O5'      -14.4540   58.0660   64.9680 O.3    47  U47        -0.3114
   1010  C4'      -14.9460   55.8480   65.8290 C.3    47  U47         0.1773
   1011  O4'      -15.4640   55.3130   64.5840 O.3    47  U47        -0.3307
   1012  C3'      -13.4570   55.5290   65.8570 C.3    47  U47         0.1860
   1013  O3'      -13.0870   55.0560   67.1440 O.3    47  U47        -0.3112
   1014  C2'      -13.2450   54.4540   64.7950 C.3    47  U47         0.2309
   1015  O2'      -12.9380   53.1940   65.3630 O.3    47  U47        -0.2156
   1016  C1'      -14.5500   54.4050   63.9980 C.3    47  U47         0.2420
   1017  N1       -14.3580   54.7750   62.5630 N.ar   47  U47        -0.2534
   1018  C2       -14.3890   53.7980   61.5840 C.ar   47  U47         0.3546
   1019  O2       -14.6010   52.6180   61.8100 O.2    47  U47        -0.2443
   1020  N3       -14.1750   54.2600   60.3070 N.ar   47  U47        -0.1530
   1021  C4       -13.9380   55.5680   59.9220 C.ar   47  U47         0.2846
   1022  O4       -13.7720   55.8410   58.7380 O.2    47  U47        -0.2650
   1023  C5       -13.9270   56.5240   60.9960 C.ar   47  U47         0.0814
   1024  C6       -14.1150   56.0970   62.2480 C.ar   47  U47         0.0870
   1025  OP1      -14.2730   60.2220   66.2500 O.3    47  U47        -0.4373
   1026  OP2      -13.6510   60.0900   63.7640 O.co2  47  U47        -0.5172
   1027  P        -11.9790   55.8290   68.0030 P.3    48  G48         0.2141
   1028  C5'      -10.3010   53.8270   67.6160 C.3    48  G48         0.1812
   1029  O5'      -10.5950   55.2160   67.4780 O.3    48  G48        -0.3114
   1030  C4'       -9.6320   53.3000   66.3590 C.3    48  G48         0.1773
   1031  O4'      -10.3020   53.8420   65.1890 O.3    48  G48        -0.3307
   1032  C3'       -8.1590   53.6640   66.2130 C.3    48  G48         0.1860
   1033  O3'       -7.4450   52.5820   65.6140 O.3    48  G48        -0.3112
   1034  C2'       -8.1960   54.8940   65.3090 C.3    48  G48         0.2309
   1035  O2'       -7.0380   55.0450   64.5110 O.3    48  G48        -0.2156
   1036  C1'       -9.4160   54.6400   64.4280 C.3    48  G48         0.2408
   1037  N1       -11.2190   57.6740   60.7230 N.ar   48  G48        -0.1709
   1038  C2       -10.6300   56.4320   60.6190 C.ar   48  G48         0.2606
   1039  N2       -10.4950   55.9410   59.3790 N.pl3  48  G48        -0.0859
   1040  N3       -10.2050   55.7160   61.6560 N.ar   48  G48        -0.1918
   1041  C4       -10.4130   56.3580   62.8310 C.ar   48  G48         0.1723
   1042  C5       -10.9960   57.5930   63.0360 C.ar   48  G48         0.1748
   1043  C6       -11.4510   58.3480   61.9240 C.ar   48  G48         0.3023
   1044  O6       -11.9980   59.4640   61.9200 O.2    48  G48        -0.2633
   1045  N7       -11.0320   57.8980   64.3910 N.ar   48  G48        -0.2173
   1046  C8       -10.4760   56.8680   64.9640 C.ar   48  G48         0.1817
   1047  N9       -10.0900   55.8870   64.0840 N.ar   48  G48        -0.2693
   1048  OP1      -12.1670   55.4240   69.4150 O.3    48  G48        -0.4373
   1049  OP2      -12.0120   57.2640   67.6420 O.co2  48  G48        -0.5172
   1050  P         -6.3440   51.7710   66.4470 P.3    49  U49         0.2141
   1051  C5'       -7.9340   49.6760   66.6120 C.3    49  U49         0.1812
   1052  O5'       -6.7080   50.2370   66.1550 O.3    49  U49        -0.3114
   1053  C4'       -8.5150   48.7380   65.5680 C.3    49  U49         0.1773
   1054  O4'       -9.4770   49.4530   64.7560 O.3    49  U49        -0.3307
   1055  C3'       -7.5430   48.1800   64.5370 C.3    49  U49         0.1860
   1056  O3'       -6.8180   47.0770   65.0590 O.3    49  U49        -0.3112
   1057  C2'       -8.5160   47.7290   63.4570 C.3    49  U49         0.2309
   1058  O2'       -9.1660   46.5160   63.7820 O.3    49  U49        -0.2156
   1059  C1'       -9.5180   48.8780   63.4610 C.3    49  U49         0.2420
   1060  N1        -9.1840   49.9170   62.4450 N.ar   49  U49        -0.2534
   1061  C2        -9.5330   49.7060   61.1230 C.ar   49  U49         0.3546
   1062  O2       -10.1290   48.7180   60.7310 O.2    49  U49        -0.2443
   1063  N3        -9.1600   50.7100   60.2630 N.ar   49  U49        -0.1530
   1064  C4        -8.4800   51.8740   60.5830 C.ar   49  U49         0.2846
   1065  O4        -8.2110   52.6800   59.6990 O.2    49  U49        -0.2650
   1066  C5        -8.1440   52.0210   61.9760 C.ar   49  U49         0.0814
   1067  C6        -8.4980   51.0540   62.8320 C.ar   49  U49         0.0870
   1068  OP1       -6.5690   52.0550   67.8860 O.3    49  U49        -0.4373
   1069  OP2       -5.0330   52.0460   65.8170 O.co2  49  U49        -0.5172
   1070  P         -5.3280   46.7830   64.5550 P.3    50  C50         0.2141
   1071  C5'       -6.0960   44.6450   63.2590 C.3    50  C50         0.1812
   1072  O5'       -5.5430   45.9540   63.2020 O.3    50  C50        -0.3114
   1073  C4'       -6.4090   44.1040   61.8770 C.3    50  C50         0.1773
   1074  O4'       -7.4540   44.8950   61.2620 O.3    50  C50        -0.3307
   1075  C3'       -5.2670   44.1780   60.8850 C.3    50  C50         0.1860
   1076  O3'       -4.4270   43.0590   60.9980 O.3    50  C50        -0.3112
   1077  C2'       -6.0080   44.1450   59.5610 C.3    50  C50         0.2309
   1078  O2'       -6.4340   42.8490   59.2190 O.3    50  C50        -0.2156
   1079  C1'       -7.2170   45.0080   59.8720 C.3    50  C50         0.2420
   1080  N1        -7.0040   46.4360   59.4680 N.ar   50  C50        -0.2535
   1081  C2        -7.1880   46.7720   58.1170 C.ar   50  C50         0.3532
   1082  O2        -7.5350   45.8860   57.3240 O.2    50  C50        -0.2443
   1083  N3        -6.9930   48.0550   57.7140 N.ar   50  C50        -0.1739
   1084  C4        -6.6340   48.9730   58.6130 C.ar   50  C50         0.1759
   1085  N4        -6.4870   50.2250   58.1760 N.pl3  50  C50        -0.1070
   1086  C5        -6.4320   48.6530   59.9950 C.ar   50  C50         0.0566
   1087  C6        -6.6070   47.3810   60.3750 C.ar   50  C50         0.0850
   1088  OP1       -4.6820   45.9120   65.5590 O.3    50  C50        -0.4373
   1089  OP2       -4.7120   48.0780   64.2050 O.co2  50  C50        -0.5172
   1090  P         -2.9630   43.1600   60.3620 P.3    51  C51         0.2141
   1091  C5'       -3.7240   41.9470   58.2130 C.3    51  C51         0.1812
   1092  O5'       -3.2530   43.1370   58.7900 O.3    51  C51        -0.3114
   1093  C4'       -3.7950   42.1000   56.7100 C.3    51  C51         0.1773
   1094  O4'       -4.7200   43.1600   56.3770 O.3    51  C51        -0.3307
   1095  C3'       -2.4930   42.5560   56.0880 C.3    51  C51         0.1860
   1096  O3'       -1.6810   41.4610   55.8040 O.3    51  C51        -0.3112
   1097  C2'       -2.9710   43.1760   54.7880 C.3    51  C51         0.2309
   1098  O2'       -3.2740   42.1800   53.8490 O.3    51  C51        -0.2156
   1099  C1'       -4.2470   43.8610   55.2380 C.3    51  C51         0.2420
   1100  N1        -4.0150   45.2880   55.5880 N.ar   51  C51        -0.2535
   1101  C2        -4.0240   46.2470   54.5720 C.ar   51  C51         0.3532
   1102  O2        -4.1990   45.8750   53.4110 O.2    51  C51        -0.2443
   1103  N3        -3.8130   47.5500   54.8790 N.ar   51  C51        -0.1739
   1104  C4        -3.5850   47.8900   56.1510 C.ar   51  C51         0.1759
   1105  N4        -3.3830   49.1770   56.4280 N.pl3  51  C51        -0.1070
   1106  C5        -3.5710   46.9260   57.2050 C.ar   51  C51         0.0566
   1107  C6        -3.7800   45.6450   56.8820 C.ar   51  C51         0.0850
   1108  OP1       -2.1910   41.9370   60.6940 O.2    51  C51        -0.5172
   1109  OP2       -2.4410   44.4940   60.7480 O.co2  51  C51        -0.4373
   1110  P         -0.1700   41.7990   55.4490 P.3    52  U52         0.2141
   1111  C5'       -0.0780   41.9010   52.8470 C.3    52  U52         0.1812
   1112  O5'       -0.2860   42.5780   54.0620 O.3    52  U52        -0.3114
   1113  C4'       -0.0670   42.9050   51.7110 C.3    52  U52         0.1773
   1114  O4'       -1.0350   43.9590   51.9450 O.3    52  U52        -0.3307
   1115  C3'        1.2400   43.6580   51.5510 C.3    52  U52         0.1860
   1116  O3'        2.1360   42.8800   50.8000 O.3    52  U52        -0.3112
   1117  C2'        0.7880   44.8740   50.7580 C.3    52  U52         0.2309
   1118  O2'        0.6180   44.5870   49.3820 O.3    52  U52        -0.2156
   1119  C1'       -0.5560   45.1740   51.4030 C.3    52  U52         0.2420
   1120  N1        -0.4690   46.1630   52.5040 N.ar   52  U52        -0.2534
   1121  C2        -0.2650   47.5010   52.2200 C.ar   52  U52         0.3546
   1122  O2        -0.1130   47.9310   51.0870 O.2    52  U52        -0.2443
   1123  N3        -0.2220   48.3270   53.3150 N.ar   52  U52        -0.1530
   1124  C4        -0.3640   47.9540   54.6370 C.ar   52  U52         0.2846
   1125  O4        -0.3280   48.8000   55.5270 O.2    52  U52        -0.2650
   1126  C5        -0.5790   46.5450   54.8480 C.ar   52  U52         0.0814
   1127  C6        -0.6310   45.7220   53.7970 C.ar   52  U52         0.0870
   1128  OP1        0.5500   40.5290   55.2050 O.2    52  U52        -0.5172
   1129  OP2        0.2940   42.7370   56.4930 O.co2  52  U52        -0.4373
   1130  P          3.6310   42.7680   51.3210 P.3    53  C53         0.2141
   1131  C5'        3.7920   44.1130   49.1380 C.3    53  C53         0.1812
   1132  O5'        4.3390   43.8610   50.4180 O.3    53  C53        -0.3114
   1133  C4'        4.1600   45.5220   48.7270 C.3    53  C53         0.1773
   1134  O4'        3.1350   46.4590   49.1340 O.3    53  C53        -0.3307
   1135  C3'        5.3980   46.0700   49.4100 C.3    53  C53         0.1860
   1136  O3'        6.5410   45.5750   48.7730 O.3    53  C53        -0.3112
   1137  C2'        5.2250   47.5380   49.0850 C.3    53  C53         0.2309
   1138  O2'        5.4480   47.7590   47.7060 O.3    53  C53        -0.2156
   1139  C1'        3.7470   47.7030   49.4060 C.3    53  C53         0.2420
   1140  N1         3.5460   48.0410   50.8320 N.ar   53  C53        -0.2535
   1141  C2         3.7070   49.3700   51.2520 C.ar   53  C53         0.3532
   1142  O2         4.0080   50.2280   50.4160 O.2    53  C53        -0.2443
   1143  N3         3.5420   49.6880   52.5560 N.ar   53  C53        -0.1739
   1144  C4         3.2380   48.7210   53.4200 C.ar   53  C53         0.1759
   1145  N4         3.1030   49.0490   54.7090 N.pl3  53  C53        -0.1070
   1146  C5         3.0640   47.3630   53.0080 C.ar   53  C53         0.0566
   1147  C6         3.2400   47.0590   51.7200 C.ar   53  C53         0.0850
   1148  OP1        4.1490   41.4450   50.9180 O.2    53  C53        -0.5172
   1149  OP2        3.6810   43.1900   52.7340 O.co2  53  C53        -0.4373
   1150  P          7.9410   45.6720   49.5300 P.3    54  A54         0.2141
   1151  C5'        8.9620   47.8800   48.6730 C.3    54  A54         0.1812
   1152  O5'        8.2370   47.2310   49.6950 O.3    54  A54        -0.3114
   1153  C4'        9.1170   49.3400   49.0230 C.3    54  A54         0.1773
   1154  O4'        7.8520   49.8750   49.4740 O.3    54  A54        -0.3307
   1155  C3'       10.0670   49.5810   50.1750 C.3    54  A54         0.1860
   1156  O3'       11.3790   49.6070   49.6600 O.3    54  A54        -0.3112
   1157  C2'        9.6160   50.9650   50.6110 C.3    54  A54         0.2309
   1158  O2'       10.1940   51.9660   49.8060 O.3    54  A54        -0.2156
   1159  C1'        8.1010   50.9020   50.4050 C.3    54  A54         0.2408
   1160  N1         6.7400   52.2760   55.1740 N.ar   54  A54        -0.2040
   1161  C2         7.2590   52.9820   54.1630 C.ar   54  A54         0.2016
   1162  N3         7.5700   52.5710   52.9330 N.ar   54  A54        -0.2048
   1163  C4         7.3080   51.2620   52.7780 C.ar   54  A54         0.1692
   1164  C5         6.7740   50.4110   53.7180 C.ar   54  A54         0.1518
   1165  C6         6.4840   50.9610   54.9770 C.ar   54  A54         0.1919
   1166  N6         5.9570   50.2410   55.9660 N.pl3  54  A54        -0.1054
   1167  N7         6.6090   49.1420   53.1980 N.ar   54  A54        -0.2193
   1168  C8         7.0580   49.2370   51.9700 C.ar   54  A54         0.1816
   1169  N9         7.4770   50.4940   51.6490 N.ar   54  A54        -0.2693
   1170  OP1        8.9240   45.1230   48.5690 O.2    54  A54        -0.5172
   1171  OP2        7.7810   45.1300   50.9020 O.co2  54  A54        -0.4373
   1172  P         12.6100   49.2020   50.5900 P.3    55  G55         0.2141
   1173  C5'       13.2300   51.7300   50.9630 C.3    55  G55         0.1812
   1174  O5'       12.8510   50.4760   51.5230 O.3    55  G55        -0.3114
   1175  C4'       13.1960   52.7890   52.0470 C.3    55  G55         0.1773
   1176  O4'       11.8200   53.0140   52.4380 O.3    55  G55        -0.3307
   1177  C3'       13.8240   52.3480   53.3570 C.3    55  G55         0.1860
   1178  O3'       15.2320   52.4430   53.3040 O.3    55  G55        -0.3112
   1179  C2'       13.2160   53.3680   54.3050 C.3    55  G55         0.2309
   1180  O2'       13.7990   54.6430   54.1620 O.3    55  G55        -0.2156
   1181  C1'       11.7790   53.3820   53.8050 C.3    55  G55         0.2408
   1182  N1         9.5290   52.2690   58.2350 N.ar   55  G55        -0.1709
   1183  C2        10.2240   53.3930   57.8760 C.ar   55  G55         0.2606
   1184  N2        10.3370   54.3220   58.8260 N.pl3  55  G55        -0.0859
   1185  N3        10.7770   53.5760   56.6840 N.ar   55  G55        -0.1918
   1186  C4        10.5570   52.5250   55.8520 C.ar   55  G55         0.1723
   1187  C5         9.8700   51.3650   56.1140 C.ar   55  G55         0.1748
   1188  C6         9.2960   51.1840   57.3950 C.ar   55  G55         0.3023
   1189  O6         8.6450   50.2190   57.8180 O.2    55  G55        -0.2633
   1190  N7         9.8520   50.5400   54.9980 N.ar   55  G55        -0.2173
   1191  C8        10.5250   51.1980   54.0940 C.ar   55  G55         0.1817
   1192  N9        10.9700   52.4190   54.5410 N.ar   55  G55        -0.2693
   1193  OP1       13.7680   49.0020   49.6900 O.2    55  G55        -0.5172
   1194  OP2       12.1650   48.1250   51.4930 O.co2  55  G55        -0.4373
   1195  P         16.1260   51.6840   54.3940 P.3    56  G56         0.2141
   1196  C5'       16.1880   53.6070   56.1680 C.3    56  G56         0.1812
   1197  O5'       15.6750   52.3340   55.7920 O.3    56  G56        -0.3114
   1198  C4'       15.7390   54.0320   57.5530 C.3    56  G56         0.1773
   1199  O4'       14.3050   53.9150   57.6720 O.3    56  G56        -0.3307
   1200  C3'       16.2650   53.1820   58.6900 C.3    56  G56         0.1860
   1201  O3'       17.5720   53.5800   59.0420 O.3    56  G56        -0.3112
   1202  C2'       15.2640   53.4960   59.7930 C.3    56  G56         0.2309
   1203  O2'       15.5340   54.7120   60.4520 O.3    56  G56        -0.2156
   1204  C1'       13.9640   53.5910   59.0060 C.3    56  G56         0.2408
   1205  N1        10.9550   50.2720   61.4700 N.ar   56  G56        -0.1709
   1206  C2        11.4730   51.4590   61.9260 C.ar   56  G56         0.2606
   1207  N2        11.1410   51.7870   63.1850 N.pl3  56  G56        -0.0859
   1208  N3        12.2490   52.2570   61.1920 N.ar   56  G56        -0.1918
   1209  C4        12.4790   51.7520   59.9560 C.ar   56  G56         0.1723
   1210  C5        12.0070   50.5790   59.4180 C.ar   56  G56         0.1748
   1211  C6        11.1660   49.7500   60.1980 C.ar   56  G56         0.3023
   1212  O6        10.6350   48.6740   59.8830 O.2    56  G56        -0.2633
   1213  N7        12.4480   50.4200   58.1120 N.ar   56  G56        -0.2173
   1214  C8        13.1780   51.4730   57.8890 C.ar   56  G56         0.1817
   1215  N9        13.2380   52.3280   58.9620 N.ar   56  G56        -0.2693
   1216  OP1       17.5330   52.0300   54.0990 O.2    56  G56        -0.5172
   1217  OP2       15.7360   50.2550   54.4240 O.co2  56  G56        -0.4373
   1218  P         18.5970   52.5090   59.6460 P.3    57  A57         0.2141
   1219  C5'       18.5760   53.3660   62.0970 C.3    57  A57         0.1812
   1220  O5'       18.1130   52.4090   61.1720 O.3    57  A57        -0.3114
   1221  C4'       17.7900   53.3200   63.3900 C.3    57  A57         0.1773
   1222  O4'       16.3620   53.2960   63.1310 O.3    57  A57        -0.3307
   1223  C3'       18.0150   52.0740   64.2160 C.3    57  A57         0.1860
   1224  O3'       19.2240   52.1500   64.9330 O.3    57  A57        -0.3112
   1225  C2'       16.7840   52.0870   65.1150 C.3    57  A57         0.2309
   1226  O2'       16.8460   53.0360   66.1520 O.3    57  A57        -0.2156
   1227  C1'       15.7160   52.4930   64.1120 C.3    57  A57         0.2408
   1228  N1        12.4740   48.5070   64.5990 N.ar   57  A57        -0.2040
   1229  C2        12.8450   49.4660   65.4570 C.ar   57  A57         0.2016
   1230  N3        13.6930   50.4770   65.2690 N.ar   57  A57        -0.2048
   1231  C4        14.2000   50.4520   64.0260 C.ar   57  A57         0.1692
   1232  C5        13.9150   49.5330   63.0380 C.ar   57  A57         0.1518
   1233  C6        12.9990   48.5170   63.3580 C.ar   57  A57         0.1919
   1234  N6        12.6420   47.5660   62.4970 N.pl3  57  A57        -0.1054
   1235  N7        14.6260   49.8110   61.8870 N.ar   57  A57        -0.2193
   1236  C8        15.3280   50.8740   62.1990 C.ar   57  A57         0.1816
   1237  N9        15.1040   51.3290   63.4690 N.ar   57  A57        -0.2693
   1238  OP1       19.9550   53.0940   59.5880 O.3    57  A57        -0.4373
   1239  OP2       18.3800   51.2050   58.9770 O.co2  57  A57        -0.5172
   1240  P         20.0680   50.8040   65.1280 P.3    58  C58         0.2141
   1241  C5'       18.6670   50.4530   67.3120 C.3    58  C58         0.1812
   1242  O5'       19.0890   49.9250   66.0520 O.3    58  C58        -0.3114
   1243  C4'       17.8020   49.4970   68.1240 C.3    58  C58         0.1773
   1244  O4'       16.4280   49.5020   67.6480 O.3    58  C58        -0.3307
   1245  C3'       18.1730   48.0180   68.1300 C.3    58  C58         0.1860
   1246  O3'       19.2230   47.7350   69.0270 O.3    58  C58        -0.3112
   1247  C2'       16.8690   47.4410   68.6550 C.3    58  C58         0.2309
   1248  O2'       16.6530   47.7810   70.0090 O.3    58  C58        -0.2156
   1249  C1'       15.8960   48.1890   67.7550 C.3    58  C58         0.2420
   1250  N1        15.8570   47.5700   66.3960 N.ar   58  C58        -0.2535
   1251  C2        14.9680   46.5160   66.1180 C.ar   58  C58         0.3532
   1252  O2        14.1830   46.1170   66.9940 O.2    58  C58        -0.2443
   1253  N3        14.9910   45.9640   64.8770 N.ar   58  C58        -0.1739
   1254  C4        15.8550   46.4120   63.9630 C.ar   58  C58         0.1759
   1255  N4        15.8510   45.8400   62.7610 N.pl3  58  C58        -0.1070
   1256  C5        16.7710   47.4680   64.2300 C.ar   58  C58         0.0566
   1257  C6        16.7450   48.0020   65.4510 C.ar   58  C58         0.0850
   1258  OP1       21.2750   51.1170   65.9280 O.3    58  C58        -0.4373
   1259  OP2       20.2340   50.1800   63.7890 O.co2  58  C58        -0.5172
   1260  P         20.1450   46.4560   68.7430 P.3    59  G59         0.2141
   1261  C5'       18.8920   44.9950   70.5410 C.3    59  G59         0.1812
   1262  O5'       19.2130   45.2240   69.1730 O.3    59  G59        -0.3114
   1263  C4'       17.7810   43.9670   70.6680 C.3    59  G59         0.1773
   1264  O4'       16.6860   44.3140   69.7760 O.3    59  G59        -0.3307
   1265  C3'       18.1580   42.5490   70.2600 C.3    59  G59         0.1860
   1266  O3'       18.7970   41.8460   71.3220 O.3    59  G59        -0.3112
   1267  C2'       16.7750   41.9720   70.0080 C.3    59  G59         0.2309
   1268  O2'       16.1270   41.6610   71.2250 O.3    59  G59        -0.2156
   1269  C1'       16.0810   43.1290   69.2850 C.3    59  G59         0.2408
   1270  N1        14.3900   40.9420   64.9900 N.ar   59  G59        -0.1709
   1271  C2        13.9050   40.8410   66.2670 C.ar   59  G59         0.2606
   1272  N2        12.8380   40.0520   66.4300 N.pl3  59  G59        -0.0859
   1273  N3        14.4070   41.4830   67.3120 N.ar   59  G59        -0.1918
   1274  C4        15.4860   42.2330   66.9750 C.ar   59  G59         0.1723
   1275  C5        16.0600   42.3770   65.7340 C.ar   59  G59         0.1748
   1276  C6        15.4970   41.6990   64.6290 C.ar   59  G59         0.3023
   1277  O6        15.8810   41.7090   63.4520 O.2    59  G59        -0.2633
   1278  N7        17.1640   43.2130   65.7970 N.ar   59  G59        -0.2173
   1279  C8        17.2390   43.5500   67.0550 C.ar   59  G59         0.1817
   1280  N9        16.2400   43.0140   67.8310 N.ar   59  G59        -0.2693
   1281  OP1       21.2990   46.5160   69.6670 O.3    59  G59        -0.4373
   1282  OP2       20.3800   46.3610   67.2810 O.co2  59  G59        -0.5172
   1283  P         19.7790   40.6250   70.9750 P.3    60  A60         0.2141
   1284  C5'       17.8960   38.9910   71.7930 C.3    60  A60         0.1812
   1285  O5'       18.8000   39.3820   70.7780 O.3    60  A60        -0.3114
   1286  C4'       17.1250   37.8100   71.2480 C.3    60  A60         0.1773
   1287  O4'       16.4660   38.2150   70.0160 O.3    60  A60        -0.3307
   1288  C3'       18.0180   36.6210   70.8940 C.3    60  A60         0.1860
   1289  O3'       17.4820   35.4330   71.4500 O.3    60  A60        -0.3112
   1290  C2'       17.9760   36.5810   69.3720 C.3    60  A60         0.2309
   1291  O2'       18.1100   35.2720   68.8410 O.3    60  A60        -0.2156
   1292  C1'       16.5830   37.1460   69.1090 C.3    60  A60         0.2408
   1293  N1        13.9600   36.5240   64.7490 N.ar   60  A60        -0.2040
   1294  C2        13.7700   36.0450   65.9800 C.ar   60  A60         0.2016
   1295  N3        14.4760   36.2740   67.0800 N.ar   60  A60        -0.2048
   1296  C4        15.4950   37.1050   66.8260 C.ar   60  A60         0.1692
   1297  C5        15.8080   37.6870   65.6160 C.ar   60  A60         0.1518
   1298  C6        14.9760   37.3760   64.5300 C.ar   60  A60         0.1919
   1299  N6        15.1570   37.8540   63.3000 N.pl3  60  A60        -0.1054
   1300  N7        16.9270   38.4880   65.7330 N.ar   60  A60        -0.2193
   1301  C8        17.2590   38.3770   67.0010 C.ar   60  A60         0.1816
   1302  N9        16.4230   37.5760   67.7250 N.ar   60  A60        -0.2693
   1303  OP1       20.5950   40.3430   72.1780 O.3    60  A60        -0.4373
   1304  OP2       20.4180   40.8870   69.6610 O.co2  60  A60        -0.5172
   1305  P         17.4920   35.2160   73.0360 P.3    61  A61         0.2141
   1306  C5'       19.0980   33.2120   72.4850 C.3    61  A61         0.1812
   1307  O5'       17.9530   33.6850   73.1800 O.3    61  A61        -0.3114
   1308  C4'       18.8300   31.8720   71.8300 C.3    61  A61         0.1773
   1309  O4'       18.1600   30.9910   72.7640 O.3    61  A61        -0.3307
   1310  C3'       17.9230   31.9150   70.6170 C.3    61  A61         0.1860
   1311  O3'       18.4190   30.9870   69.7120 O.3    61  A61        -0.3112
   1312  C2'       16.5950   31.4030   71.1530 C.3    61  A61         0.2309
   1313  O2'       15.8610   30.7610   70.1370 O.3    61  A61        -0.2156
   1314  C1'       17.0940   30.3390   72.1110 C.3    61  A61         0.2408
   1315  N1        13.8700   26.6470   73.7560 N.ar   61  A61        -0.2040
   1316  C2        14.6870   26.7000   72.6960 C.ar   61  A61         0.2016
   1317  N3        15.5080   27.6830   72.3190 N.ar   61  A61        -0.2048
   1318  C4        15.4300   28.7250   73.1680 C.ar   61  A61         0.1692
   1319  C5        14.6240   28.8130   74.2910 C.ar   61  A61         0.1518
   1320  C6        13.8020   27.7100   74.5790 C.ar   61  A61         0.1919
   1321  N6        12.9830   27.6730   75.6310 N.pl3  61  A61        -0.1054
   1322  N7        14.8100   30.0200   74.9410 N.ar   61  A61        -0.2193
   1323  C8        15.6890   30.6390   74.1880 C.ar   61  A61         0.1816
   1324  N9        16.1070   29.9220   73.1030 N.ar   61  A61        -0.2693
   1325  OP1       16.1020   35.3220   73.5460 O.2    61  A61        -0.5172
   1326  OP2       18.5420   36.1040   73.5930 O.co2  61  A61        -0.4373
   1327  P         19.6550   31.3360   68.7710 P.3    62  C62         0.2141
   1328  C5'       21.2360   29.9400   70.3920 C.3    62  C62         0.1812
   1329  O5'       20.7300   30.1890   69.0900 O.3    62  C62        -0.3114
   1330  C4'       20.6600   28.6630   70.9800 C.3    62  C62         0.1773
   1331  O4'       19.3180   28.4070   70.5040 O.3    62  C62        -0.3307
   1332  C3'       21.3680   27.3590   70.6790 C.3    62  C62         0.1860
   1333  O3'       22.5460   27.3110   71.4490 O.3    62  C62        -0.3112
   1334  C2'       20.3220   26.4200   71.2670 C.3    62  C62         0.2309
   1335  O2'       20.2590   26.4810   72.6780 O.3    62  C62        -0.2156
   1336  C1'       19.0430   27.0440   70.7360 C.3    62  C62         0.2420
   1337  N1        18.5860   26.4320   69.4800 N.ar   62  C62        -0.2535
   1338  C2        17.8480   25.2370   69.5180 C.ar   62  C62         0.3532
   1339  O2        17.6100   24.7040   70.6120 O.2    62  C62        -0.2443
   1340  N3        17.4170   24.6990   68.3490 N.ar   62  C62        -0.1739
   1341  C4        17.6920   25.3270   67.2040 C.ar   62  C62         0.1759
   1342  N4        17.2360   24.8000   66.0730 N.pl3  62  C62        -0.1070
   1343  C5        18.4370   26.5390   67.1510 C.ar   62  C62         0.0566
   1344  C6        18.8620   27.0610   68.3060 C.ar   62  C62         0.0850
   1345  OP1       20.2030   32.6530   69.1510 O.3    62  C62        -0.4373
   1346  OP2       19.2120   31.0920   67.3860 O.co2  62  C62        -0.5172
   1347  P         23.5710   26.0760   71.3940 P.3    63  A63         0.2141
   1348  C5'       22.8290   24.5570   73.3600 C.3    63  A63         0.1812
   1349  O5'       22.7560   24.8290   71.9750 O.3    63  A63        -0.3114
   1350  C4'       22.1240   23.2480   73.6200 C.3    63  A63         0.1773
   1351  O4'       20.7900   23.3330   73.0590 O.3    63  A63        -0.3307
   1352  C3'       22.7310   22.0400   72.9140 C.3    63  A63         0.1860
   1353  O3'       23.7600   21.4800   73.6970 O.3    63  A63        -0.3112
   1354  C2'       21.5450   21.0920   72.8890 C.3    63  A63         0.2309
   1355  O2'       21.3440   20.5210   74.1640 O.3    63  A63        -0.2156
   1356  C1'       20.4130   22.0590   72.5700 C.3    63  A63         0.2408
   1357  N1        17.8390   20.0910   68.5790 N.ar   63  A63        -0.2040
   1358  C2        17.9110   19.7270   69.8610 C.ar   63  A63         0.2016
   1359  N3        18.6120   20.2840   70.8460 N.ar   63  A63        -0.2048
   1360  C4        19.3130   21.3410   70.4070 C.ar   63  A63         0.1692
   1361  C5        19.3360   21.8410   69.1230 C.ar   63  A63         0.1518
   1362  C6        18.5550   21.1610   68.1680 C.ar   63  A63         0.1919
   1363  N6        18.4950   21.5180   66.8830 N.pl3  63  A63        -0.1054
   1364  N7        20.1540   22.9570   69.0470 N.ar   63  A63        -0.2193
   1365  C8        20.5920   23.1150   70.2780 C.ar   63  A63         0.1816
   1366  N9        20.1300   22.1680   71.1450 N.ar   63  A63        -0.2693
   1367  OP1       24.6420   26.4040   72.3580 O.3    63  A63        -0.4373
   1368  OP2       23.9120   25.8110   69.9820 O.co2  63  A63        -0.5172
   1369  P         25.0240   20.8570   72.9530 P.3    64  C64         0.2141
   1370  C5'       23.9690   18.5450   73.6390 C.3    64  C64         0.1812
   1371  O5'       24.6170   19.3380   72.6530 O.3    64  C64        -0.3114
   1372  C4'       23.3040   17.3770   72.9490 C.3    64  C64         0.1773
   1373  O4'       22.0380   17.8070   72.3880 O.3    64  C64        -0.3307
   1374  C3'       24.0800   16.9010   71.7360 C.3    64  C64         0.1860
   1375  O3'       25.0800   16.0010   72.1240 O.3    64  C64        -0.3112
   1376  C2'       23.0000   16.2080   70.9230 C.3    64  C64         0.2309
   1377  O2'       22.7310   14.9060   71.3900 O.3    64  C64        -0.2156
   1378  C1'       21.8100   17.1330   71.1580 C.3    64  C64         0.2420
   1379  N1        21.7040   18.1130   70.0430 N.ar   64  C64        -0.2535
   1380  C2        20.9920   17.7630   68.8960 C.ar   64  C64         0.3532
   1381  O2        20.3830   16.6950   68.8730 O.2    64  C64        -0.2443
   1382  N3        20.9500   18.6270   67.8540 N.ar   64  C64        -0.1739
   1383  C4        21.5930   19.7910   67.9310 C.ar   64  C64         0.1759
   1384  N4        21.4970   20.6120   66.8910 N.pl3  64  C64        -0.1070
   1385  C5        22.3540   20.1600   69.0720 C.ar   64  C64         0.0566
   1386  C6        22.3990   19.2890   70.0870 C.ar   64  C64         0.0850
   1387  OP1       26.1530   20.8620   73.9090 O.3    64  C64        -0.4373
   1388  OP2       25.1180   21.5290   71.6410 O.co2  64  C64        -0.5172
   1389  P         26.3300   15.7850   71.1610 P.3    65  C65         0.2141
   1390  C5'       25.7170   13.5200   69.9920 C.3    65  C65         0.1812
   1391  O5'       25.7180   14.9390   69.9550 O.3    65  C65        -0.3114
   1392  C4'       25.2410   12.9900   68.6530 C.3    65  C65         0.1773
   1393  O4'       23.9750   13.6180   68.3160 O.3    65  C65        -0.3307
   1394  C3'       26.1190   13.3580   67.4710 C.3    65  C65         0.1860
   1395  O3'       27.2280   12.5050   67.3790 O.3    65  C65        -0.3112
   1396  C2'       25.1450   13.1250   66.3290 C.3    65  C65         0.2309
   1397  O2'       24.9330   11.7570   66.0510 O.3    65  C65        -0.2156
   1398  C1'       23.8760   13.7420   66.9090 C.3    65  C65         0.2420
   1399  N1        23.7510   15.1730   66.5100 N.ar   65  C65        -0.2535
   1400  C2        23.2900   15.4680   65.2190 C.ar   65  C65         0.3532
   1401  O2        22.9240   14.5480   64.4740 O.2    65  C65        -0.2443
   1402  N3        23.2200   16.7620   64.8270 N.ar   65  C65        -0.1739
   1403  C4        23.6110   17.7250   65.6590 C.ar   65  C65         0.1759
   1404  N4        23.5080   18.9800   65.2210 N.pl3  65  C65        -0.1070
   1405  C5        24.1040   17.4480   66.9700 C.ar   65  C65         0.0566
   1406  C6        24.1690   16.1670   67.3490 C.ar   65  C65         0.0850
   1407  OP1       27.3220   14.9820   71.9080 O.3    65  C65        -0.4373
   1408  OP2       26.7160   17.1010   70.6110 O.co2  65  C65        -0.5172
   1409  P         28.6960   13.1170   67.2280 P.3    66  G66         0.2141
   1410  C5'       28.6420   12.6710   64.6950 C.3    66  G66         0.1812
   1411  O5'       28.6930   13.6310   65.7240 O.3    66  G66        -0.3114
   1412  C4'       28.4740   13.3460   63.3530 C.3    66  G66         0.1773
   1413  O4'       27.1610   13.9520   63.3060 O.3    66  G66        -0.3307
   1414  C3'       29.4090   14.5140   63.0750 C.3    66  G66         0.1860
   1415  O3'       30.6690   14.0490   62.6590 O.3    66  G66        -0.3112
   1416  C2'       28.6670   15.1230   61.8990 C.3    66  G66         0.2309
   1417  O2'       28.8950   14.4180   60.6970 O.3    66  G66        -0.2156
   1418  C1'       27.2130   15.0100   62.3700 C.3    66  G66         0.2408
   1419  N1        25.5030   19.6810   61.5240 N.ar   66  G66        -0.1709
   1420  C2        25.5670   18.6140   60.6700 C.ar   66  G66         0.2606
   1421  N2        25.1520   18.8440   59.4170 N.pl3  66  G66        -0.0859
   1422  N3        26.0070   17.4140   61.0240 N.ar   66  G66        -0.1918
   1423  C4        26.3980   17.3790   62.3230 C.ar   66  G66         0.1723
   1424  C5        26.3800   18.3900   63.2520 C.ar   66  G66         0.1748
   1425  C6        25.8990   19.6560   62.8520 C.ar   66  G66         0.3023
   1426  O6        25.7910   20.6770   63.5300 O.2    66  G66        -0.2633
   1427  N7        26.8610   17.9490   64.4840 N.ar   66  G66        -0.2173
   1428  C8        27.1610   16.6970   64.2710 C.ar   66  G66         0.1817
   1429  N9        26.8630   16.2750   62.9960 N.ar   66  G66        -0.2693
   1430  OP1       29.6580   12.0000   67.3420 O.2    66  G66        -0.5172
   1431  OP2       28.8250   14.2920   68.1180 O.co2  66  G66        -0.4373
   1432  P         32.0180   14.9060   62.8230 P.3    67  A67         0.2141
   1433  C5'       32.7300   17.3880   62.5760 C.3    67  A67         0.1812
   1434  O5'       31.6630   16.4410   62.5760 O.3    67  A67        -0.3114
   1435  C4'       32.9000   17.9990   61.1980 C.3    67  A67         0.1773
   1436  O4'       33.4030   16.9950   60.2870 O.3    67  A67        -0.3307
   1437  C3'       31.6050   18.4290   60.5320 C.3    67  A67         0.1860
   1438  O3'       31.2040   19.7050   61.0120 O.3    67  A67        -0.3112
   1439  C2'       31.9880   18.4440   59.0540 C.3    67  A67         0.2309
   1440  O2'       32.6550   19.6300   58.6820 O.3    67  A67        -0.2156
   1441  C1'       32.9630   17.2770   58.9690 C.3    67  A67         0.2408
   1442  N1        31.3970   14.8340   54.7190 N.ar   67  A67        -0.2040
   1443  C2        31.8850   16.0670   54.9160 C.ar   67  A67         0.2016
   1444  N3        32.2710   16.6460   56.0580 N.ar   67  A67        -0.2048
   1445  C4        32.1020   15.8140   57.0940 C.ar   67  A67         0.1692
   1446  C5        31.5980   14.5300   57.0520 C.ar   67  A67         0.1518
   1447  C6        31.2320   14.0300   55.7900 C.ar   67  A67         0.1919
   1448  N6        30.7300   12.8080   55.6030 N.pl3  67  A67        -0.1054
   1449  N7        31.5810   13.9730   58.3150 N.ar   67  A67        -0.2193
   1450  C8        32.0510   14.9240   59.0880 C.ar   67  A67         0.1816
   1451  N9        32.3870   16.0620   58.4110 N.ar   67  A67        -0.2693
   1452  OP1       32.8870   14.5270   61.6900 O.2    67  A67        -0.5172
   1453  OP2       32.4860   14.7580   64.2170 O.co2  67  A67        -0.4373
   1454  P         29.9640   19.8510   62.0190 P.3    68  A68         0.2141
   1455  C5'       28.5790   20.2430   59.9070 C.3    68  A68         0.1812
   1456  O5'       29.0250   20.7760   61.1250 O.3    68  A68        -0.3114
   1457  C4'       28.7320   21.2010   58.7450 C.3    68  A68         0.1773
   1458  O4'       29.6910   20.6160   57.8300 O.3    68  A68        -0.3307
   1459  C3'       27.4300   21.2770   57.9560 C.3    68  A68         0.1860
   1460  O3'       26.8320   22.5630   58.0260 O.3    68  A68        -0.3112
   1461  C2'       27.7500   20.7670   56.5440 C.3    68  A68         0.2309
   1462  O2'       28.0620   21.7920   55.6230 O.3    68  A68        -0.2156
   1463  C1'       28.9920   19.9240   56.8020 C.3    68  A68         0.2408
   1464  N1        28.0250   15.1290   55.0670 N.ar   68  A68        -0.2040
   1465  C2        28.1430   16.3040   54.4430 C.ar   68  A68         0.2016
   1466  N3        28.3800   17.5110   54.9630 N.ar   68  A68        -0.2048
   1467  C4        28.5060   17.4620   56.2980 C.ar   68  A68         0.1692
   1468  C5        28.4040   16.3300   57.0850 C.ar   68  A68         0.1518
   1469  C6        28.1480   15.1120   56.4100 C.ar   68  A68         0.1919
   1470  N6        28.0150   13.9440   57.0370 N.pl3  68  A68        -0.1054
   1471  N7        28.5840   16.6460   58.4270 N.ar   68  A68        -0.2193
   1472  C8        28.7910   17.9420   58.4140 C.ar   68  A68         0.1816
   1473  N9        28.7550   18.5110   57.1630 N.ar   68  A68        -0.2693
   1474  OP1       30.4150   20.6280   63.1970 O.3    68  A68        -0.4373
   1475  OP2       29.3040   18.5350   62.2150 O.co2  68  A68        -0.5172
   1476  P         25.2610   22.6510   58.3170 P.3    69  A69         0.2141
   1477  C5'       24.5760   22.7300   55.7930 C.3    69  A69         0.1812
   1478  O5'       24.6300   21.9940   57.0000 O.3    69  A69        -0.3114
   1479  C4'       24.2700   21.8090   54.6270 C.3    69  A69         0.1773
   1480  O4'       25.2700   20.7620   54.5550 O.3    69  A69        -0.3307
   1481  C3'       22.9630   21.0360   54.6980 C.3    69  A69         0.1860
   1482  O3'       21.8710   21.8420   54.2750 O.3    69  A69        -0.3112
   1483  C2'       23.2410   19.9280   53.6870 C.3    69  A69         0.2309
   1484  O2'       23.0660   20.3380   52.3470 O.3    69  A69        -0.2156
   1485  C1'       24.7060   19.6120   53.9570 C.3    69  A69         0.2408
   1486  N1        24.8930   14.5250   54.6870 N.ar   69  A69        -0.2040
   1487  C2        24.9010   15.2650   53.5690 C.ar   69  A69         0.2016
   1488  N3        24.8750   16.5910   53.4400 N.ar   69  A69        -0.2048
   1489  C4        24.8190   17.1850   54.6420 C.ar   69  A69         0.1692
   1490  C5        24.8150   16.5610   55.8750 C.ar   69  A69         0.1518
   1491  C6        24.8530   15.1540   55.8790 C.ar   69  A69         0.1919
   1492  N6        24.8610   14.4290   56.9980 N.pl3  69  A69        -0.1054
   1493  N7        24.7630   17.4940   56.8990 N.ar   69  A69        -0.2193
   1494  C8        24.7280   18.6440   56.2710 C.ar   69  A69         0.1816
   1495  N9        24.7880   18.5290   54.9130 N.ar   69  A69        -0.2693
   1496  OP1       24.8860   24.0850   58.3560 O.2    69  A69        -0.5172
   1497  OP2       24.9540   21.7540   59.4550 O.co2  69  A69        -0.4373
   1498  P         20.6910   22.2100   55.2910 P.3    70  G70         0.2141
   1499  C5'       19.7020   19.8250   54.8100 C.3    70  G70         0.1812
   1500  O5'       20.1270   20.7930   55.7520 O.3    70  G70        -0.3114
   1501  C4'       19.8460   18.4710   55.4700 C.3    70  G70         0.1773
   1502  O4'       21.1530   18.3960   56.0950 O.3    70  G70        -0.3307
   1503  C3'       18.9200   18.2660   56.6510 C.3    70  G70         0.1860
   1504  O3'       17.6370   17.8690   56.2270 O.3    70  G70        -0.3112
   1505  C2'       19.6280   17.1360   57.3790 C.3    70  G70         0.2309
   1506  O2'       19.3920   15.8940   56.7520 O.3    70  G70        -0.2156
   1507  C1'       21.0850   17.5550   57.2300 C.3    70  G70         0.2408
   1508  N1        22.3300   17.2520   62.1370 N.ar   70  G70        -0.1709
   1509  C2        21.9900   16.2540   61.2540 C.ar   70  G70         0.2606
   1510  N2        21.9430   15.0060   61.7390 N.pl3  70  G70        -0.0859
   1511  N3        21.6810   16.4670   59.9840 N.ar   70  G70        -0.1918
   1512  C4        21.7670   17.7730   59.6520 C.ar   70  G70         0.1723
   1513  C5        22.1070   18.8390   60.4540 C.ar   70  G70         0.1748
   1514  C6        22.4200   18.6030   61.8130 C.ar   70  G70         0.3023
   1515  O6        22.7560   19.4210   62.6810 O.2    70  G70        -0.2633
   1516  N7        22.0800   20.0230   59.7270 N.ar   70  G70        -0.2173
   1517  C8        21.7170   19.6530   58.5230 C.ar   70  G70         0.1817
   1518  N9        21.5290   18.2960   58.4020 N.ar   70  G70        -0.2693
   1519  OP1       19.6300   22.9000   54.5170 O.2    70  G70        -0.5172
   1520  OP2       21.3090   22.8220   56.4890 O.co2  70  G70        -0.4373
   1521  P         16.4410   17.9630   57.2850 P.3    71  G71         0.2141
   1522  C5'       16.3740   15.5120   58.2090 C.3    71  G71         0.1812
   1523  O5'       16.8400   16.8410   58.3510 O.3    71  G71        -0.3114
   1524  C4'       16.6730   14.7820   59.5010 C.3    71  G71         0.1773
   1525  O4'       17.9700   15.1970   59.9900 O.3    71  G71        -0.3307
   1526  C3'       15.7770   15.1870   60.6470 C.3    71  G71         0.1860
   1527  O3'       14.5580   14.5080   60.5640 O.3    71  G71        -0.3112
   1528  C2'       16.5990   14.7660   61.8590 C.3    71  G71         0.2309
   1529  O2'       16.4530   13.4020   62.1880 O.3    71  G71        -0.2156
   1530  C1'       18.0210   15.0670   61.3980 C.3    71  G71         0.2408
   1531  N1        19.9810   17.6320   65.3820 N.ar   71  G71        -0.1709
   1532  C2        19.6080   16.3160   65.3130 C.ar   71  G71         0.2606
   1533  N2        19.7930   15.6140   66.4340 N.pl3  71  G71        -0.0859
   1534  N3        19.1010   15.7430   64.2230 N.ar   71  G71        -0.1918
   1535  C4        18.9900   16.6130   63.1860 C.ar   71  G71         0.1723
   1536  C5        19.3340   17.9460   63.1650 C.ar   71  G71         0.1748
   1537  C6        19.8720   18.5390   64.3310 C.ar   71  G71         0.3023
   1538  O6        20.2210   19.7130   64.5050 O.2    71  G71        -0.2633
   1539  N7        19.0920   18.4980   61.9170 N.ar   71  G71        -0.2173
   1540  C8        18.6040   17.5110   61.2130 C.ar   71  G71         0.1817
   1541  N9        18.5200   16.3350   61.9170 N.ar   71  G71        -0.2693
   1542  OP1       15.1770   17.5520   56.6280 O.2    71  G71        -0.5172
   1543  OP2       16.5790   19.2860   57.9360 O.co2  71  G71        -0.4373
   1544  P         13.2620   15.1920   61.1900 P.3    72  U72         0.2141
   1545  C5'       13.1090   13.9730   63.4960 C.3    72  U72         0.1812
   1546  O5'       13.5310   15.1120   62.7680 O.3    72  U72        -0.3114
   1547  C4'       13.3900   14.1400   64.9750 C.3    72  U72         0.1773
   1548  O4'       14.7950   14.4180   65.1810 O.3    72  U72        -0.3307
   1549  C3'       12.7080   15.3220   65.6230 C.3    72  U72         0.1860
   1550  O3'       11.3680   14.9900   65.9380 O.3    72  U72        -0.3112
   1551  C2'       13.5690   15.4700   66.8710 C.3    72  U72         0.2309
   1552  O2'       13.2530   14.4910   67.8310 O.3    72  U72        -0.2156
   1553  C1'       14.9730   15.2270   66.3280 C.3    72  U72         0.2420
   1554  N1        15.6280   16.5070   65.9260 N.ar   72  U72        -0.2534
   1555  C2        16.1600   17.3350   66.8940 C.ar   72  U72         0.3546
   1556  O2        16.1800   17.0560   68.0780 O.2    72  U72        -0.2443
   1557  N3        16.6700   18.5230   66.4310 N.ar   72  U72        -0.1530
   1558  C4        16.6850   18.9650   65.1210 C.ar   72  U72         0.2846
   1559  O4        17.1720   20.0600   64.8540 O.2    72  U72        -0.2650
   1560  C5        16.1080   18.0520   64.1690 C.ar   72  U72         0.0814
   1561  C6        15.6070   16.8910   64.6000 C.ar   72  U72         0.0870
   1562  OP1       12.0950   14.3470   60.8480 O.3    72  U72        -0.4373
   1563  OP2       13.2780   16.6160   60.8030 O.co2  72  U72        -0.5172
   1564  P         10.2490   16.1350   65.9460 P.3    73  G73         0.2141
   1565  C5'       10.4410   16.3300   68.5180 C.3    73  G73         0.1812
   1566  O5'       10.6070   16.9540   67.2700 O.3    73  G73        -0.3114
   1567  C4'       11.0480   17.1820   69.6070 C.3    73  G73         0.1773
   1568  O4'       12.4600   17.3760   69.3590 O.3    73  G73        -0.3307
   1569  C3'       10.5130   18.5930   69.6690 C.3    73  G73         0.1860
   1570  O3'        9.3190   18.5970   70.3850 O.3    73  G73        -0.3112
   1571  C2'       11.5950   19.2550   70.4950 C.3    73  G73         0.2309
   1572  O2'       11.4720   18.8730   71.8470 O.3    73  G73        -0.2156
   1573  C1'       12.8420   18.6420   69.8680 C.3    73  G73         0.2408
   1574  N1        15.7230   22.5660   68.3430 N.ar   73  G73        -0.1709
   1575  C2        15.4680   22.1190   69.6120 C.ar   73  G73         0.2606
   1576  N2        16.0680   22.7960   70.5950 N.pl3  73  G73        -0.0859
   1577  N3        14.6870   21.0870   69.9050 N.ar   73  G73        -0.1918
   1578  C4        14.1830   20.5080   68.7920 C.ar   73  G73         0.1723
   1579  C5        14.3760   20.8760   67.4860 C.ar   73  G73         0.1748
   1580  C6        15.2010   21.9920   67.1940 C.ar   73  G73         0.3023
   1581  O6        15.4890   22.4710   66.0850 O.2    73  G73        -0.2633
   1582  N7        13.6840   20.0220   66.6320 N.ar   73  G73        -0.2173
   1583  C8        13.0930   19.1780   67.4240 C.ar   73  G73         0.1817
   1584  N9        13.3490   19.4180   68.7470 N.ar   73  G73        -0.2693
   1585  OP1        8.9150   15.5180   66.1290 O.3    73  G73        -0.4373
   1586  OP2       10.4880   17.0060   64.7790 O.co2  73  G73        -0.5172
   1587  P          8.4470   19.9240   70.3190 P.3    74  G74         0.2141
   1588  C5'        9.0300   22.2290   71.2710 C.3    74  G74         0.1812
   1589  O5'        9.1170   20.8310   71.4460 O.3    74  G74        -0.3114
   1590  C4'       10.3280   22.8770   71.6720 C.3    74  G74         0.1773
   1591  O4'       11.3980   22.4840   70.7870 O.3    74  G74        -0.3307
   1592  C3'       10.3090   24.3770   71.5350 C.3    74  G74         0.1860
   1593  O3'        9.6540   24.8790   72.6850 O.3    74  G74        -0.3112
   1594  C2'       11.8060   24.6690   71.5510 C.3    74  G74         0.2309
   1595  O2'       12.3130   24.6360   72.8690 O.3    74  G74        -0.2156
   1596  C1'       12.3740   23.5090   70.7390 C.3    74  G74         0.2408
   1597  N1        14.6580   26.5350   67.3390 N.ar   74  G74        -0.1709
   1598  C2        14.7340   26.5720   68.7070 C.ar   74  G74         0.2606
   1599  N2        15.5050   27.5330   69.2320 N.pl3  74  G74        -0.0859
   1600  N3        14.0990   25.7290   69.5040 N.ar   74  G74        -0.1918
   1601  C4        13.3760   24.8220   68.8000 C.ar   74  G74         0.1723
   1602  C5        13.2480   24.7050   67.4340 C.ar   74  G74         0.1748
   1603  C6        13.9360   25.6090   66.5990 C.ar   74  G74         0.3023
   1604  O6        13.9570   25.6510   65.3590 O.2    74  G74        -0.2633
   1605  N7        12.4070   23.6580   67.1000 N.ar   74  G74        -0.2173
   1606  C8        12.0470   23.1700   68.2530 C.ar   74  G74         0.1817
   1607  N9        12.5960   23.8200   69.3310 N.ar   74  G74        -0.2693
   1608  OP1        7.0530   19.6110   70.7080 O.3    74  G74        -0.4373
   1609  OP2        8.7320   20.5840   69.0270 O.co2  74  G74        -0.5172
   1610  P          8.6630   26.1210   72.5620 P.3    75  C75         0.2141
   1611  C5'       10.3110   28.1570   72.9380 C.3    75  C75         0.1812
   1612  O5'        9.6520   27.2670   72.0280 O.3    75  C75        -0.3114
   1613  C4'       11.3580   28.9660   72.1910 C.3    75  C75         0.1773
   1614  O4'       12.0290   28.0710   71.2720 O.3    75  C75        -0.3307
   1615  C3'       10.8330   30.0540   71.2610 C.3    75  C75         0.1860
   1616  O3'       10.6080   31.2690   71.9420 O.3    75  C75        -0.3112
   1617  C2'       12.0080   30.2310   70.3230 C.3    75  C75         0.2309
   1618  O2'       13.0480   30.9160   70.9860 O.3    75  C75        -0.2156
   1619  C1'       12.4040   28.7800   70.1070 C.3    75  C75         0.2420
   1620  N1        11.8170   28.1330   68.9030 N.ar   75  C75        -0.2535
   1621  C2        12.2480   28.5590   67.6520 C.ar   75  C75         0.3532
   1622  O2        13.0340   29.5000   67.5920 O.2    75  C75        -0.2443
   1623  N3        11.7740   27.9600   66.5430 N.ar   75  C75        -0.1739
   1624  C4        10.8980   26.9710   66.6700 C.ar   75  C75         0.1759
   1625  N4        10.4570   26.4210   65.5480 N.pl3  75  C75        -0.1070
   1626  C5        10.4360   26.5060   67.9290 C.ar   75  C75         0.0566
   1627  C6        10.9190   27.1150   69.0150 C.ar   75  C75         0.0850
   1628  OP1        8.1760   26.4520   73.9230 O.3    75  C75        -0.4373
   1629  OP2        7.7120   25.8160   71.4750 O.co2  75  C75        -0.5172
   1630  P          9.3190   32.1100   71.5180 P.3    76  G76         0.2141
   1631  C5'       10.8610   33.5370   69.9550 C.3    76  G76         0.1812
   1632  O5'        9.7360   32.6940   70.0920 O.3    76  G76        -0.3114
   1633  C4'       10.9110   34.0400   68.5260 C.3    76  G76         0.1773
   1634  O4'       11.0380   32.9260   67.6000 O.3    76  G76        -0.3307
   1635  C3'        9.6430   34.7640   68.1180 C.3    76  G76         0.1860
   1636  O3'        9.9840   35.8420   67.2610 O.3    76  G76        -0.3112
   1637  C2'        8.8590   33.6810   67.3920 C.3    76  G76         0.2309
   1638  O2'        7.9830   34.2340   66.4390 O.3    76  G76        -0.2156
   1639  C1'        9.9700   32.9240   66.6780 C.3    76  G76         0.2408
   1640  N1         9.3340   29.5750   62.8420 N.ar   76  G76        -0.1709
   1641  C2         9.7650   30.8820   62.7910 C.ar   76  G76         0.2606
   1642  N2        10.0540   31.3780   61.5730 N.pl3  76  G76        -0.0859
   1643  N3         9.8910   31.6520   63.8730 N.ar   76  G76        -0.1918
   1644  C4         9.5470   31.0190   65.0240 C.ar   76  G76         0.1723
   1645  C5         9.1030   29.7240   65.1680 C.ar   76  G76         0.1748
   1646  C6         8.9800   28.9080   64.0180 C.ar   76  G76         0.3023
   1647  O6         8.5920   27.7330   63.9570 O.2    76  G76        -0.2633
   1648  N7         8.8750   29.4280   66.5040 N.ar   76  G76        -0.2173
   1649  C8         9.1780   30.5350   67.1350 C.ar   76  G76         0.1817
   1650  N9         9.6050   31.5510   66.3000 N.ar   76  G76        -0.2693
   1651  OP1        9.1580   33.2190   72.4840 O.3    76  G76        -0.4373
   1652  OP2        8.2060   31.1560   71.2890 O.co2  76  G76        -0.5172
   1653  P         10.1580   37.3250   67.8390 P.3    77  G77         0.2141
   1654  C5'        7.6240   37.7380   67.3960 C.3    77  G77         0.1812
   1655  O5'        8.6880   37.7370   68.3120 O.3    77  G77        -0.3114
   1656  C4'        6.3400   37.5460   68.1620 C.3    77  G77         0.1773
   1657  O4'        6.1020   38.6890   69.0000 O.3    77  G77        -0.3307
   1658  C3'        5.0990   37.4230   67.3010 C.3    77  G77         0.1860
   1659  O3'        4.9400   36.0470   67.0570 O.3    77  G77        -0.3112
   1660  C2'        3.9870   37.9620   68.1940 C.3    77  G77         0.2309
   1661  O2'        3.2170   36.9200   68.7570 O.3    77  G77        -0.2156
   1662  C1'        4.7290   38.6890   69.3080 C.3    77  G77         0.2408
   1663  N1         2.3510   41.9980   72.2910 N.ar   77  G77        -0.1709
   1664  C2         2.5060   40.6340   72.4340 C.ar   77  G77         0.2606
   1665  N2         1.9630   40.0630   73.5190 N.pl3  77  G77        -0.0859
   1666  N3         3.1430   39.8660   71.5650 N.ar   77  G77        -0.1918
   1667  C4         3.6290   40.5870   70.5320 C.ar   77  G77         0.1723
   1668  C5         3.5390   41.9390   70.2970 C.ar   77  G77         0.1748
   1669  C6         2.8470   42.7520   71.2230 C.ar   77  G77         0.3023
   1670  O6         2.6610   43.9790   71.1670 O.2    77  G77        -0.2633
   1671  N7         4.1790   42.2780   69.1130 N.ar   77  G77        -0.2173
   1672  C8         4.6390   41.1410   68.6700 C.ar   77  G77         0.1817
   1673  N9         4.3310   40.0740   69.4770 N.ar   77  G77        -0.2693
   1674  OP1       10.5430   38.1730   66.6860 O.2    77  G77        -0.5172
   1675  OP2       11.0010   37.2610   69.0550 O.co2  77  G77        -0.4373
   1676  P          3.8770   35.4770   66.0190 P.3    78  U78         0.2141
   1677  C5'        5.5700   36.0520   64.0970 C.3    78  U78         0.1812
   1678  O5'        4.7310   35.1060   64.7190 O.3    78  U78        -0.3114
   1679  C4'        6.0990   35.4730   62.8030 C.3    78  U78         0.1773
   1680  O4'        7.0130   34.3880   63.0920 O.3    78  U78        -0.3307
   1681  C3'        5.0400   34.8270   61.9340 C.3    78  U78         0.1860
   1682  O3'        4.4660   35.8030   61.1140 O.3    78  U78        -0.3112
   1683  C2'        5.8640   33.8580   61.1010 C.3    78  U78         0.2309
   1684  O2'        6.4960   34.5150   60.0270 O.3    78  U78        -0.2156
   1685  C1'        6.8830   33.3620   62.1200 C.3    78  U78         0.2420
   1686  N1         6.4640   32.1110   62.8320 N.ar   78  U78        -0.2534
   1687  C2         6.4290   30.8930   62.1700 C.ar   78  U78         0.3546
   1688  O2         6.7120   30.7480   60.9920 O.2    78  U78        -0.2443
   1689  N3         6.0580   29.8310   62.9540 N.ar   78  U78        -0.1530
   1690  C4         5.7030   29.8700   64.2910 C.ar   78  U78         0.2846
   1691  O4         5.3590   28.8420   64.8630 O.2    78  U78        -0.2650
   1692  C5         5.7750   31.1630   64.9130 C.ar   78  U78         0.0814
   1693  C6         6.1450   32.2070   64.1720 C.ar   78  U78         0.0870
   1694  OP1        2.9280   36.5620   65.7050 O.2    78  U78        -0.5172
   1695  OP2        3.3880   34.2010   66.5750 O.co2  78  U78        -0.4373
   1696  P          2.9400   35.6750   60.6700 P.3    79  A79         0.2141
   1697  C5'        3.7240   35.2000   58.2620 C.3    79  A79         0.1812
   1698  O5'        3.0450   34.7170   59.3940 O.3    79  A79        -0.3114
   1699  C4'        3.3340   34.4190   57.0240 C.3    79  A79         0.1773
   1700  O4'        4.1640   33.2330   56.9300 O.3    79  A79        -0.3307
   1701  C3'        1.9020   33.9080   56.9600 C.3    79  A79         0.1860
   1702  O3'        1.0830   34.8760   56.3380 O.3    79  A79        -0.3112
   1703  C2'        2.0680   32.7200   56.0270 C.3    79  A79         0.2309
   1704  O2'        2.2080   33.1420   54.6890 O.3    79  A79        -0.2156
   1705  C1'        3.3850   32.1300   56.5140 C.3    79  A79         0.2408
   1706  N1         2.2960   27.3050   57.9020 N.ar   79  A79        -0.2040
   1707  C2         2.4630   27.8710   56.7030 C.ar   79  A79         0.2016
   1708  N3         2.7720   29.1340   56.4150 N.ar   79  A79        -0.2048
   1709  C4         2.8880   29.8700   57.5360 C.ar   79  A79         0.1692
   1710  C5         2.7470   29.4270   58.8330 C.ar   79  A79         0.1518
   1711  C6         2.4540   28.0620   58.9990 C.ar   79  A79         0.1919
   1712  N6         2.3110   27.4770   60.1820 N.pl3  79  A79        -0.1054
   1713  N7         2.9560   30.4640   59.7280 N.ar   79  A79        -0.2193
   1714  C8         3.1970   31.5010   58.9630 C.ar   79  A79         0.1816
   1715  N9         3.1930   31.2080   57.6300 N.ar   79  A79        -0.2693
   1716  OP1        2.5460   37.0310   60.2150 O.2    79  A79        -0.5172
   1717  OP2        2.1700   35.0090   61.7470 O.co2  79  A79        -0.4373
   1718  P         -0.5120   34.8010   56.4550 P.3    80  C80         0.2141
   1719  C5'       -1.1630   33.5780   54.2580 C.3    80  C80         0.1812
   1720  O5'       -0.9120   33.4840   55.6450 O.3    80  C80        -0.3114
   1721  C4'       -1.2600   32.1870   53.6690 C.3    80  C80         0.1773
   1722  O4'       -0.2190   31.3580   54.2410 O.3    80  C80        -0.3307
   1723  C3'       -2.5310   31.4240   54.0080 C.3    80  C80         0.1860
   1724  O3'       -3.5660   31.7690   53.1270 O.3    80  C80        -0.3112
   1725  C2'       -2.0900   30.0000   53.7270 C.3    80  C80         0.2309
   1726  O2'       -1.9470   29.7690   52.3450 O.3    80  C80        -0.2156
   1727  C1'       -0.7110   30.0360   54.3560 C.3    80  C80         0.2420
   1728  N1        -0.7390   29.6230   55.7680 N.ar   80  C80        -0.2535
   1729  C2        -0.8700   28.2650   56.0320 C.ar   80  C80         0.3532
   1730  O2        -0.9900   27.4960   55.0660 O.2    80  C80        -0.2443
   1731  N3        -0.8580   27.8490   57.3210 N.ar   80  C80        -0.1739
   1732  C4        -0.7290   28.7450   58.2980 C.ar   80  C80         0.1759
   1733  N4        -0.7240   28.3060   59.5540 N.pl3  80  C80        -0.1070
   1734  C5        -0.5970   30.1380   58.0440 C.ar   80  C80         0.0566
   1735  C6        -0.6010   30.5320   56.7680 C.ar   80  C80         0.0850
   1736  OP1       -1.0430   35.9750   55.7300 O.2    80  C80        -0.5172
   1737  OP2       -0.8810   34.5900   57.8670 O.co2  80  C80        -0.4373
   1738  P         -5.0660   31.7130   53.6660 P.3    81  G81         0.2141
   1739  C5'       -5.4750   29.5570   52.2830 C.3    81  G81         0.1812
   1740  O5'       -5.4400   30.1640   53.5490 O.3    81  G81        -0.3114
   1741  C4'       -5.6040   28.0640   52.4780 C.3    81  G81         0.1773
   1742  O4'       -4.5050   27.5790   53.2880 O.3    81  G81        -0.3307
   1743  C3'       -6.8180   27.6430   53.2820 C.3    81  G81         0.1860
   1744  O3'       -7.9550   27.6300   52.4570 O.3    81  G81        -0.3112
   1745  C2'       -6.4020   26.2390   53.6820 C.3    81  G81         0.2309
   1746  O2'       -6.4510   25.3490   52.5820 O.3    81  G81        -0.2156
   1747  C1'       -4.9550   26.5010   54.0810 C.3    81  G81         0.2408
   1748  N1        -4.8670   25.0070   58.9660 N.ar   81  G81        -0.1709
   1749  C2        -5.1630   24.2830   57.8410 C.ar   81  G81         0.2606
   1750  N2        -5.4780   23.0040   58.0430 N.pl3  81  G81        -0.0859
   1751  N3        -5.1570   24.7650   56.6080 N.ar   81  G81        -0.1918
   1752  C4        -4.8260   26.0780   56.5890 C.ar   81  G81         0.1723
   1753  C5        -4.5140   26.8890   57.6570 C.ar   81  G81         0.1748
   1754  C6        -4.5120   26.3500   58.9670 C.ar   81  G81         0.3023
   1755  O6        -4.2400   26.9130   60.0410 O.2    81  G81        -0.2633
   1756  N7        -4.2280   28.1760   57.2210 N.ar   81  G81        -0.2173
   1757  C8        -4.3780   28.1240   55.9230 C.ar   81  G81         0.1817
   1758  N9        -4.7550   26.8850   55.4710 N.ar   81  G81        -0.2693
   1759  OP1       -5.8920   32.4990   52.7180 O.2    81  G81        -0.5172
   1760  OP2       -5.0510   32.0570   55.1060 O.co2  81  G81        -0.4373
   1761  P         -9.3290   28.1890   53.0470 P.3    82  U82         0.2141
   1762  C5'      -10.0180   25.6700   53.3050 C.3    82  U82         0.1812
   1763  O5'       -9.8380   26.9480   53.9250 O.3    82  U82        -0.3114
   1764  C4'      -10.2830   24.5760   54.3280 C.3    82  U82         0.1773
   1765  O4'       -9.0840   24.2550   55.0810 O.3    82  U82        -0.3307
   1766  C3'      -11.2970   24.9080   55.4070 C.3    82  U82         0.1860
   1767  O3'      -12.5840   24.7270   54.8780 O.3    82  U82        -0.3112
   1768  C2'      -10.9530   23.8430   56.4450 C.3    82  U82         0.2309
   1769  O2'      -11.4010   22.5590   56.0540 O.3    82  U82        -0.2156
   1770  C1'       -9.4310   23.8750   56.3990 C.3    82  U82         0.2420
   1771  N1        -8.8390   24.8590   57.3350 N.ar   82  U82        -0.2534
   1772  C2        -8.5740   24.4810   58.6320 C.ar   82  U82         0.3546
   1773  O2        -8.8040   23.3720   59.0670 O.2    82  U82        -0.2443
   1774  N3        -8.0140   25.4530   59.4180 N.ar   82  U82        -0.1530
   1775  C4        -7.7040   26.7430   59.0380 C.ar   82  U82         0.2846
   1776  O4        -7.2350   27.5090   59.8640 O.2    82  U82        -0.2650
   1777  C5        -8.0060   27.0700   57.6700 C.ar   82  U82         0.0814
   1778  C6        -8.5480   26.1330   56.8840 C.ar   82  U82         0.0870
   1779  OP1      -10.2300   28.3820   51.8930 O.2    82  U82        -0.5172
   1780  OP2       -9.0520   29.3170   53.9640 O.co2  82  U82        -0.4373
   1781  P        -13.8500   25.3790   55.6000 P.3    83  U83         0.2141
   1782  C5'      -14.0290   23.2970   57.2280 C.3    83  U83         0.1812
   1783  O5'      -13.8540   24.7010   57.0520 O.3    83  U83        -0.3114
   1784  C4'      -14.0090   22.9590   58.7080 C.3    83  U83         0.1773
   1785  O4'      -12.6670   23.1120   59.2210 O.3    83  U83        -0.3307
   1786  C3'      -14.8250   23.9170   59.5530 C.3    83  U83         0.1860
   1787  O3'      -16.1750   23.5070   59.5630 O.3    83  U83        -0.3112
   1788  C2'      -14.1780   23.7570   60.9170 C.3    83  U83         0.2309
   1789  O2'      -14.6470   22.6170   61.6010 O.3    83  U83        -0.2156
   1790  C1'      -12.7100   23.6080   60.5470 C.3    83  U83         0.2420
   1791  N1       -11.9920   24.9180   60.6330 N.ar   83  U83        -0.2534
   1792  C2       -11.5790   25.3850   61.8690 C.ar   83  U83         0.3546
   1793  O2       -11.7270   24.7750   62.9110 O.2    83  U83        -0.2443
   1794  N3       -10.9630   26.6080   61.8520 N.ar   83  U83        -0.1530
   1795  C4       -10.7420   27.4070   60.7490 C.ar   83  U83         0.2846
   1796  O4       -10.1800   28.4810   60.8980 O.2    83  U83        -0.2650
   1797  C5       -11.2080   26.8700   59.4970 C.ar   83  U83         0.0814
   1798  C6       -11.8090   25.6730   59.4890 C.ar   83  U83         0.0870
   1799  OP1      -15.0410   24.9540   54.8280 O.2    83  U83        -0.5172
   1800  OP2      -13.5800   26.8180   55.8100 O.co2  83  U83        -0.4373
   1801  P        -17.3160   24.4390   60.1910 P.3    84  U84         0.2141
   1802  C5'      -17.5750   23.9490   62.7680 C.3    84  U84         0.1812
   1803  O5'      -16.8630   24.6120   61.7210 O.3    84  U84        -0.3114
   1804  C4'      -16.9500   24.2950   64.1070 C.3    84  U84         0.1773
   1805  O4'      -15.5230   24.4980   63.9430 O.3    84  U84        -0.3307
   1806  C3'      -17.4280   25.6100   64.7010 C.3    84  U84         0.1860
   1807  O3'      -18.6540   25.4460   65.3800 O.3    84  U84        -0.3112
   1808  C2'      -16.2970   25.9400   65.6610 C.3    84  U84         0.2309
   1809  O2'      -16.3620   25.1840   66.8510 O.3    84  U84        -0.2156
   1810  C1'      -15.0890   25.5170   64.8330 C.3    84  U84         0.2420
   1811  N1       -14.4910   26.6510   64.0590 N.ar   84  U84        -0.2534
   1812  C2       -13.6840   27.5730   64.7100 C.ar   84  U84         0.3546
   1813  O2       -13.4260   27.5340   65.9010 O.2    84  U84        -0.2443
   1814  N3       -13.1780   28.5650   63.9130 N.ar   84  U84        -0.1530
   1815  C4       -13.4000   28.7210   62.5610 C.ar   84  U84         0.2846
   1816  O4       -12.8800   29.6600   61.9770 O.2    84  U84        -0.2650
   1817  C5       -14.2410   27.7230   61.9500 C.ar   84  U84         0.0814
   1818  C6       -14.7480   26.7480   62.7070 C.ar   84  U84         0.0870
   1819  OP1      -18.5590   23.6400   60.1200 O.3    84  U84        -0.4373
   1820  OP2      -17.2710   25.7800   59.5630 O.co2  84  U84        -0.5172
   1821  P        -19.8120   26.5180   65.1200 P.3    85  A85         0.2141
   1822  C5'      -19.6380   27.3450   67.5600 C.3    85  A85         0.1812
   1823  O5'      -19.4650   27.6560   66.1890 O.3    85  A85        -0.3114
   1824  C4'      -18.5800   28.0280   68.3950 C.3    85  A85         0.1773
   1825  O4'      -17.2890   27.9450   67.7490 O.3    85  A85        -0.3307
   1826  C3'      -18.7760   29.5220   68.4980 C.3    85  A85         0.1860
   1827  O3'      -19.8250   29.8100   69.3890 O.3    85  A85        -0.3112
   1828  C2'      -17.4010   29.9710   68.9750 C.3    85  A85         0.2309
   1829  O2'      -17.1440   29.6920   70.3320 O.3    85  A85        -0.2156
   1830  C1'      -16.5180   29.0860   68.1050 C.3    85  A85         0.2408
   1831  N1       -13.7100   32.9790   66.2050 N.ar   85  A85        -0.2040
   1832  C2       -13.9170   32.5590   67.4580 C.ar   85  A85         0.2016
   1833  N3       -14.6550   31.5290   67.8830 N.ar   85  A85        -0.2048
   1834  C4       -15.2330   30.8820   66.8530 C.ar   85  A85         0.1692
   1835  C5       -15.1160   31.1970   65.5140 C.ar   85  A85         0.1518
   1836  C6       -14.3020   32.3050   65.1940 C.ar   85  A85         0.1919
   1837  N6       -14.0970   32.7150   63.9410 N.pl3  85  A85        -0.1054
   1838  N7       -15.8590   30.3180   64.7390 N.ar   85  A85        -0.2193
   1839  C8       -16.4100   29.5030   65.6070 C.ar   85  A85         0.1816
   1840  N9       -16.0700   29.7850   66.9010 N.ar   85  A85        -0.2693
   1841  OP1      -21.1000   25.8930   65.4990 O.3    85  A85        -0.4373
   1842  OP2      -19.6420   27.0600   63.7530 O.co2  85  A85        -0.5172
   1843  P        -20.8950   30.8950   68.9160 P.3    86  C86         0.2141
   1844  C5'      -19.7580   32.2870   70.8130 C.3    86  C86         0.1812
   1845  O5'      -20.2490   32.2450   69.4850 O.3    86  C86        -0.3114
   1846  C4'      -18.7110   33.3770   70.9280 C.3    86  C86         0.1773
   1847  O4'      -17.5750   33.0530   70.0900 O.3    86  C86        -0.3307
   1848  C3'      -19.1480   34.7180   70.3760 C.3    86  C86         0.1860
   1849  O3'      -19.9240   35.4160   71.3130 O.3    86  C86        -0.3112
   1850  C2'      -17.8090   35.3990   70.1750 C.3    86  C86         0.2309
   1851  O2'      -17.2680   35.8110   71.4090 O.3    86  C86        -0.2156
   1852  C1'      -16.9980   34.2490   69.5900 C.3    86  C86         0.2420
   1853  N1       -17.0190   34.2250   68.0910 N.ar   86  C86        -0.2535
   1854  C2       -16.1220   35.0230   67.3600 C.ar   86  C86         0.3532
   1855  O2       -15.3010   35.7330   67.9590 O.2    86  C86        -0.2443
   1856  N3       -16.1600   34.9860   66.0050 N.ar   86  C86        -0.1739
   1857  C4       -17.0470   34.2020   65.3920 C.ar   86  C86         0.1759
   1858  N4       -17.0480   34.1880   64.0600 N.pl3  86  C86        -0.1070
   1859  C5       -17.9610   33.3820   66.1140 C.ar   86  C86         0.0566
   1860  C6       -17.9140   33.4230   67.4480 C.ar   86  C86         0.0850
   1861  OP1      -22.1650   30.6460   69.6320 O.3    86  C86        -0.4373
   1862  OP2      -20.8880   30.9400   67.4330 O.co2  86  C86        -0.5172
   1863  P        -21.0120   36.4250   70.7250 P.3    87  C87         0.2141
   1864  C5'      -19.2700   38.3350   71.1520 C.3    87  C87         0.1812
   1865  O5'      -20.1030   37.6460   70.2220 O.3    87  C87        -0.3114
   1866  C4'      -18.4500   39.3940   70.4450 C.3    87  C87         0.1773
   1867  O4'      -17.5510   38.7400   69.5220 O.3    87  C87        -0.3307
   1868  C3'      -19.2320   40.3150   69.5230 C.3    87  C87         0.1860
   1869  O3'      -19.8530   41.3490   70.2580 O.3    87  C87        -0.3112
   1870  C2'      -18.0980   40.8730   68.6790 C.3    87  C87         0.2309
   1871  O2'      -17.2960   41.7770   69.4130 O.3    87  C87        -0.2156
   1872  C1'      -17.3260   39.5900   68.4090 C.3    87  C87         0.2420
   1873  N1       -17.7500   38.8890   67.1670 N.ar   87  C87        -0.2535
   1874  C2       -17.3950   39.4080   65.9170 C.ar   87  C87         0.3532
   1875  O2       -16.7530   40.4610   65.8630 O.2    87  C87        -0.2443
   1876  N3       -17.7650   38.7420   64.7940 N.ar   87  C87        -0.1739
   1877  C4       -18.4540   37.6030   64.8970 C.ar   87  C87         0.1759
   1878  N4       -18.8040   36.9720   63.7750 N.pl3  87  C87        -0.1070
   1879  C5       -18.8170   37.0550   66.1620 C.ar   87  C87         0.0566
   1880  C6       -18.4440   37.7210   67.2600 C.ar   87  C87         0.0850
   1881  OP1      -21.8580   36.8850   71.8490 O.3    87  C87        -0.4373
   1882  OP2      -21.6380   35.7790   69.5450 O.co2  87  C87        -0.5172
   1883  P        -21.2020   42.0240   69.7220 P.3    88  G88         0.2141
   1884  C5'      -19.8770   44.1620   68.9560 C.3    88  G88         0.1812
   1885  O5'      -20.7010   43.0510   68.5940 O.3    88  G88        -0.3114
   1886  C4'      -19.4650   44.9770   67.7390 C.3    88  G88         0.1773
   1887  O4'      -18.6620   44.1740   66.8350 O.3    88  G88        -0.3307
   1888  C3'      -20.6100   45.4630   66.8660 C.3    88  G88         0.1860
   1889  O3'      -21.1890   46.6410   67.4250 O.3    88  G88        -0.3112
   1890  C2'      -19.8870   45.7440   65.5520 C.3    88  G88         0.2309
   1891  O2'      -19.2070   46.9850   65.5850 O.3    88  G88        -0.2156
   1892  C1'      -18.8870   44.5910   65.5000 C.3    88  G88         0.2408
   1893  N1       -19.0130   42.3700   60.9180 N.ar   88  G88        -0.1709
   1894  C2       -18.5270   43.6020   61.2810 C.ar   88  G88         0.2606
   1895  N2       -17.9880   44.3350   60.3010 N.pl3  88  G88        -0.0859
   1896  N3       -18.5520   44.0840   62.5130 N.ar   88  G88        -0.1918
   1897  C4       -19.1260   43.2140   63.3740 C.ar   88  G88         0.1723
   1898  C5       -19.6410   41.9620   63.1110 C.ar   88  G88         0.1748
   1899  C6       -19.6020   41.4620   61.7890 C.ar   88  G88         0.3023
   1900  O6       -20.0170   40.3820   61.3550 O.2    88  G88        -0.2633
   1901  N7       -20.1410   41.3870   64.2700 N.ar   88  G88        -0.2173
   1902  C8       -19.9160   42.2840   65.1950 C.ar   88  G88         0.1817
   1903  N9       -19.3110   43.4260   64.7230 N.ar   88  G88        -0.2693
   1904  OP1      -21.7340   42.7970   70.8630 O.3    88  G88        -0.4373
   1905  OP2      -22.0350   40.9860   69.0670 O.co2  88  G88        -0.5172
   1906  P        -22.7830   46.8120   67.4130 P.3    89  C89         0.2141
   1907  C5'      -22.2580   48.7100   65.6810 C.3    89  C89         0.1812
   1908  O5'      -23.0660   47.6100   66.0520 O.3    89  C89        -0.3114
   1909  C4'      -22.1840   48.7800   64.1720 C.3    89  C89         0.1773
   1910  O4'      -21.6600   47.5270   63.6640 O.3    89  C89        -0.3307
   1911  C3'      -23.5300   48.9970   63.4910 C.3    89  C89         0.1860
   1912  O3'      -23.3960   49.9580   62.4540 O.3    89  C89        -0.3112
   1913  C2'      -23.8730   47.6220   62.9400 C.3    89  C89         0.2309
   1914  O2'      -24.6680   47.6680   61.7730 O.3    89  C89        -0.2156
   1915  C1'      -22.4870   47.0800   62.6140 C.3    89  C89         0.2420
   1916  N1       -22.5010   45.5960   62.5630 N.ar   89  C89        -0.2535
   1917  C2       -22.1890   44.9390   61.3710 C.ar   89  C89         0.3532
   1918  O2       -21.8160   45.5910   60.3960 O.2    89  C89        -0.2443
   1919  N3       -22.2660   43.5930   61.3190 N.ar   89  C89        -0.1739
   1920  C4       -22.6590   42.9130   62.3940 C.ar   89  C89         0.1759
   1921  N4       -22.7220   41.5840   62.2890 N.pl3  89  C89        -0.1070
   1922  C5       -22.9950   43.5610   63.6190 C.ar   89  C89         0.0566
   1923  C6       -22.9140   44.8930   63.6550 C.ar   89  C89         0.0850
   1924  OP1      -23.1220   47.6740   68.5680 O.3    89  C89        -0.4373
   1925  OP2      -23.3970   45.4740   67.2510 O.co2  89  C89        -0.5172
   1926  P        -23.8450   51.4680   62.7300 P.3    90  A90         0.2141
   1927  C5'      -26.3370   51.0850   61.9410 C.3    90  A90         0.1812
   1928  O5'      -25.4170   51.3150   63.0160 O.3    90  A90        -0.3114
   1929  C4'      -27.7500   51.5230   62.2990 C.3    90  A90         0.1773
   1930  O4'      -28.4640   50.4010   62.8940 O.3    90  A90        -0.3307
   1931  C3'      -27.8480   52.6640   63.3260 C.3    90  A90         0.1860
   1932  O3'      -28.6820   53.8150   62.9540 O.3    90  A90        -0.3112
   1933  C2'      -28.3520   51.9610   64.5880 C.3    90  A90         0.2309
   1934  O2'      -29.0550   52.8390   65.4470 O.3    90  A90        -0.2156
   1935  C1'      -29.2750   50.9460   63.9210 C.3    90  A90         0.2408
   1936  N1       -33.7260   48.8170   65.5070 N.ar   90  A90        -0.2040
   1937  C2       -33.4670   49.8170   64.6550 C.ar   90  A90         0.2016
   1938  N3       -32.2830   50.3160   64.2920 N.ar   90  A90        -0.2048
   1939  C4       -31.2610   49.6810   64.9080 C.ar   90  A90         0.1692
   1940  C5       -31.3760   48.6360   65.8130 C.ar   90  A90         0.1518
   1941  C6       -32.6900   48.1950   66.1160 C.ar   90  A90         0.1919
   1942  N6       -32.9600   47.2000   66.9690 N.pl3  90  A90        -0.1054
   1943  N7       -30.1160   48.2320   66.2440 N.ar   90  A90        -0.2193
   1944  C8       -29.2800   49.0230   65.6040 C.ar   90  A90         0.1816
   1945  N9       -29.8990   49.9220   64.7740 N.ar   90  A90        -0.2693
   1946  OP1      -23.6510   52.2400   61.4800 O.2    90  A90        -0.5172
   1947  OP2      -23.1640   51.9020   63.9710 O.co2  90  A90        -0.4373
   1948  P        -29.9060   53.8470   61.9000 P.3    91  U91         0.2141
   1949  C5'      -30.6960   55.6080   63.6840 C.3    91  U91         0.1812
   1950  O5'      -30.7550   55.1270   62.3530 O.3    91  U91        -0.3114
   1951  C4'      -30.1120   57.0060   63.7000 C.3    91  U91         0.1773
   1952  O4'      -28.6710   56.9140   63.8110 O.3    91  U91        -0.3307
   1953  C3'      -30.3390   57.8210   62.4340 C.3    91  U91         0.1860
   1954  O3'      -31.6250   58.4450   62.4540 O.3    91  U91        -0.3112
   1955  C2'      -29.1940   58.8300   62.5190 C.3    91  U91         0.2309
   1956  O2'      -29.4720   59.9490   63.3390 O.3    91  U91        -0.2156
   1957  C1'      -28.0680   57.9950   63.1260 C.3    91  U91         0.2420
   1958  N1       -27.1480   57.4660   62.0770 N.ar   91  U91        -0.2534
   1959  C2       -26.2970   58.3450   61.4370 C.ar   91  U91         0.3546
   1960  O2       -26.2280   59.5310   61.7130 O.2    91  U91        -0.2443
   1961  N3       -25.5100   57.7800   60.4610 N.ar   91  U91        -0.1530
   1962  C4       -25.4980   56.4550   60.0600 C.ar   91  U91         0.2846
   1963  O4       -24.7370   56.1060   59.1650 O.2    91  U91        -0.2650
   1964  C5       -26.4220   55.6000   60.7610 C.ar   91  U91         0.0814
   1965  C6       -27.1970   56.1300   61.7180 C.ar   91  U91         0.0870
   1966  OP1      -30.7580   52.6500   62.0860 O.3    91  U91        -0.4373
   1967  OP2      -29.3490   54.1580   60.5610 O.co2  91  U91        -0.5172
   1968  P        -32.5490   58.5180   61.1420 P.3    92  C92         0.2141
   1969  C5'      -31.4880   60.8750   60.7170 C.3    92  C92         0.1812
   1970  O5'      -31.7820   59.5760   60.2110 O.3    92  C92        -0.3114
   1971  C4'      -30.7520   61.7490   59.7140 C.3    92  C92         0.1773
   1972  O4'      -29.3220   61.4980   59.7520 O.3    92  C92        -0.3307
   1973  C3'      -31.1330   61.5840   58.2520 C.3    92  C92         0.1860
   1974  O3'      -32.2900   62.3420   57.9790 O.3    92  C92        -0.3112
   1975  C2'      -29.9080   62.1980   57.5850 C.3    92  C92         0.2309
   1976  O2'      -29.8880   63.6070   57.6950 O.3    92  C92        -0.2156
   1977  C1'      -28.7990   61.5880   58.4360 C.3    92  C92         0.2420
   1978  N1       -28.4000   60.2190   57.9720 N.ar   92  C92        -0.2535
   1979  C2       -27.6440   60.0700   56.7990 C.ar   92  C92         0.3532
   1980  O2       -27.3030   61.0710   56.1610 O.2    92  C92        -0.2443
   1981  N3       -27.3030   58.8250   56.3890 N.ar   92  C92        -0.1739
   1982  C4       -27.6920   57.7630   57.0970 C.ar   92  C92         0.1759
   1983  N4       -27.3310   56.5590   56.6490 N.pl3  92  C92        -0.1070
   1984  C5       -28.4710   57.8850   58.2860 C.ar   92  C92         0.0566
   1985  C6       -28.7950   59.1180   58.6830 C.ar   92  C92         0.0850
   1986  OP1      -33.8490   59.0990   61.5450 O.3    92  C92        -0.4373
   1987  OP2      -32.5400   57.1980   60.4710 O.co2  92  C92        -0.5172
   1988  P        -33.3090   61.9020   56.8280 P.3    93  U93         0.2141
   1989  C5'      -32.0940   63.0620   54.7980 C.3    93  U93         0.1812
   1990  O5'      -32.4040   61.8610   55.5060 O.3    93  U93        -0.3114
   1991  C4'      -31.2090   62.7840   53.5930 C.3    93  U93         0.1773
   1992  O4'      -29.9820   62.1420   54.0340 O.3    93  U93        -0.3307
   1993  C3'      -31.7860   61.8130   52.5730 C.3    93  U93         0.1860
   1994  O3'      -32.6880   62.4530   51.6670 O.3    93  U93        -0.3112
   1995  C2'      -30.5130   61.3150   51.8930 C.3    93  U93         0.2309
   1996  O2'      -29.9980   62.2260   50.9510 O.3    93  U93        -0.2156
   1997  C1'      -29.5510   61.1900   53.0720 C.3    93  U93         0.2420
   1998  N1       -29.5510   59.8020   53.6430 N.ar   93  U93        -0.2534
   1999  C2       -28.8330   58.8110   53.0060 C.ar   93  U93         0.3546
   2000  O2       -28.1410   59.0100   52.0290 O.2    93  U93        -0.2443
   2001  N3       -28.9440   57.5600   53.5540 N.ar   93  U93        -0.1530
   2002  C4       -29.6990   57.2020   54.6520 C.ar   93  U93         0.2846
   2003  O4       -29.6960   56.0410   55.0380 O.2    93  U93        -0.2650
   2004  C5       -30.4280   58.2830   55.2620 C.ar   93  U93         0.0814
   2005  C6       -30.3360   59.5100   54.7390 C.ar   93  U93         0.0870
   2006  OP1      -34.2940   62.9970   56.6890 O.2    93  U93        -0.5172
   2007  OP2      -33.7870   60.5330   57.1200 O.co2  93  U93        -0.4373
   2008  P        -33.8810   61.6150   50.9900 P.3    94  C94         0.2141
   2009  C5'      -32.9490   61.3180   48.5660 C.3    94  C94         0.1812
   2010  O5'      -33.1180   60.7760   49.8650 O.3    94  C94        -0.3114
   2011  C4'      -32.1790   60.3420   47.7080 C.3    94  C94         0.1773
   2012  O4'      -31.0040   59.9010   48.4350 O.3    94  C94        -0.3307
   2013  C3'      -32.9060   59.0420   47.4130 C.3    94  C94         0.1860
   2014  O3'      -33.8530   59.2180   46.3700 O.3    94  C94        -0.3112
   2015  C2'      -31.7140   58.2160   46.9650 C.3    94  C94         0.2309
   2016  O2'      -31.2130   58.6800   45.7250 O.3    94  C94        -0.2156
   2017  C1'      -30.7280   58.5580   48.0780 C.3    94  C94         0.2420
   2018  N1       -30.8630   57.6850   49.2800 N.ar   94  C94        -0.2535
   2019  C2       -30.6080   56.3100   49.1720 C.ar   94  C94         0.3532
   2020  O2       -30.2600   55.8490   48.0820 O.2    94  C94        -0.2443
   2021  N3       -30.7560   55.5100   50.2570 N.ar   94  C94        -0.1739
   2022  C4       -31.1010   56.0490   51.4250 C.ar   94  C94         0.1759
   2023  N4       -31.1910   55.2330   52.4770 N.pl3  94  C94        -0.1070
   2024  C5       -31.3390   57.4510   51.5690 C.ar   94  C94         0.0566
   2025  C6       -31.2130   58.2230   50.4820 C.ar   94  C94         0.0850
   2026  OP1      -34.8170   62.5390   50.3030 O.2    94  C94        -0.5172
   2027  OP2      -34.4080   60.6670   51.9990 O.co2  94  C94        -0.4373
   2028  P        -35.4150   59.1570   46.7100 P.3    95  G95         0.2141
   2029  C5'      -36.0070   57.5340   44.8090 C.3    95  G95         0.1812
   2030  O5'      -35.9130   57.7350   46.1970 O.3    95  G95        -0.3114
   2031  C4'      -34.9010   56.5960   44.3790 C.3    95  G95         0.1773
   2032  O4'      -33.8490   56.5930   45.3740 O.3    95  G95        -0.3307
   2033  C3'      -35.3350   55.1490   44.3210 C.3    95  G95         0.1860
   2034  O3'      -35.9430   54.8970   43.0740 O.3    95  G95        -0.3112
   2035  C2'      -33.9930   54.4460   44.4180 C.3    95  G95         0.2309
   2036  O2'      -33.2800   54.5420   43.2040 O.3    95  G95        -0.2156
   2037  C1'      -33.2990   55.2960   45.4710 C.3    95  G95         0.2408
   2038  N1       -32.1070   51.5360   48.7380 N.ar   95  G95        -0.1709
   2039  C2       -31.9000   51.6190   47.3840 C.ar   95  G95         0.2606
   2040  N2       -31.3000   50.5640   46.8220 N.pl3  95  G95        -0.0859
   2041  N3       -32.2600   52.6510   46.6280 N.ar   95  G95        -0.1918
   2042  C4       -32.8810   53.6230   47.3470 C.ar   95  G95         0.1723
   2043  C5       -33.1350   53.6370   48.7050 C.ar   95  G95         0.1748
   2044  C6       -32.7310   52.5210   49.4970 C.ar   95  G95         0.3023
   2045  O6       -32.8670   52.3360   50.7160 O.2    95  G95        -0.2633
   2046  N7       -33.7750   54.8230   49.0590 N.ar   95  G95        -0.2173
   2047  C8       -33.8920   55.4840   47.9370 C.ar   95  G95         0.1817
   2048  N9       -33.3930   54.8100   46.8490 N.ar   95  G95        -0.2693
   2049  OP1      -36.0890   60.1750   45.8760 O.2    95  G95        -0.5172
   2050  OP2      -35.5370   59.1450   48.1860 O.co2  95  G95        -0.4373
   2051  P        -36.9230   53.6430   42.9570 P.3    96  C96         0.2141
   2052  C5'      -35.3890   51.7610   41.9790 C.3    96  C96         0.1812
   2053  O5'      -35.9320   52.3990   43.1220 O.3    96  C96        -0.3114
   2054  C4'      -34.7830   50.4520   42.4240 C.3    96  C96         0.1773
   2055  O4'      -34.0360   50.6960   43.6370 O.3    96  C96        -0.3307
   2056  C3'      -35.8060   49.4370   42.8970 C.3    96  C96         0.1860
   2057  O3'      -36.4010   48.7600   41.8070 O.3    96  C96        -0.3112
   2058  C2'      -34.9430   48.5080   43.7340 C.3    96  C96         0.2309
   2059  O2'      -34.1450   47.6530   42.9410 O.3    96  C96        -0.2156
   2060  C1'      -34.0590   49.5260   44.4320 C.3    96  C96         0.2420
   2061  N1       -34.4980   49.8810   45.7940 N.ar   96  C96        -0.2535
   2062  C2       -34.1780   49.0110   46.8390 C.ar   96  C96         0.3532
   2063  O2       -33.6000   47.9560   46.5710 O.2    96  C96        -0.2443
   2064  N3       -34.5080   49.3480   48.1100 N.ar   96  C96        -0.1739
   2065  C4       -35.1280   50.5080   48.3400 C.ar   96  C96         0.1759
   2066  N4       -35.4290   50.8000   49.6070 N.pl3  96  C96        -0.1070
   2067  C5       -35.4580   51.4150   47.2860 C.ar   96  C96         0.0566
   2068  C6       -35.1260   51.0690   46.0360 C.ar   96  C96         0.0850
   2069  OP1      -37.4500   53.5810   41.5790 O.2    96  C96        -0.5172
   2070  OP2      -37.8260   53.7120   44.1300 O.co2  96  C96        -0.4373
   2071  P        -37.8950   48.2270   42.0010 P.3    97  U97         0.2141
   2072  C5'      -37.0670   45.7680   42.4350 C.3    97  U97         0.1812
   2073  O5'      -37.6970   46.9420   42.9360 O.3    97  U97        -0.3114
   2074  C4'      -37.0320   44.7360   43.5420 C.3    97  U97         0.1773
   2075  O4'      -36.1810   45.2330   44.6050 O.3    97  U97        -0.3307
   2076  C3'      -38.3540   44.5510   44.2670 C.3    97  U97         0.1860
   2077  O3'      -39.2510   43.7180   43.5510 O.3    97  U97        -0.3112
   2078  C2'      -37.8830   43.9210   45.5730 C.3    97  U97         0.2309
   2079  O2'      -37.4610   42.5780   45.4270 O.3    97  U97        -0.2156
   2080  C1'      -36.6880   44.8150   45.8630 C.3    97  U97         0.2420
   2081  N1       -37.0470   45.9850   46.7130 N.ar   97  U97        -0.2534
   2082  C2       -37.1790   45.7650   48.0650 C.ar   97  U97         0.3546
   2083  O2       -37.0240   44.6700   48.5710 O.2    97  U97        -0.2443
   2084  N3       -37.4880   46.8690   48.8160 N.ar   97  U97        -0.1530
   2085  C4       -37.7020   48.1440   48.3480 C.ar   97  U97         0.2846
   2086  O4       -37.9950   49.0190   49.1500 O.2    97  U97        -0.2650
   2087  C5       -37.5530   48.3030   46.9220 C.ar   97  U97         0.0814
   2088  C6       -37.2460   47.2390   46.1690 C.ar   97  U97         0.0870
   2089  OP1      -38.3810   47.7720   40.6740 O.2    97  U97        -0.5172
   2090  OP2      -38.6260   49.2560   42.7840 O.co2  97  U97        -0.4373
   2091  P        -40.8210   43.8130   43.8730 P.3    98  G98         0.2141
   2092  C5'      -40.8000   41.8660   45.6140 C.3    98  G98         0.1812
   2093  O5'      -40.9500   43.2590   45.3680 O.3    98  G98        -0.3114
   2094  C4'      -41.1260   41.5760   47.0630 C.3    98  G98         0.1773
   2095  O4'      -40.1750   42.2820   47.9020 O.3    98  G98        -0.3307
   2096  C3'      -42.4650   42.1320   47.5270 C.3    98  G98         0.1860
   2097  O3'      -43.5720   41.3200   47.1450 O.3    98  G98        -0.3112
   2098  C2'      -42.2470   42.1550   49.0360 C.3    98  G98         0.2309
   2099  O2'      -42.3060   40.8720   49.6360 O.3    98  G98        -0.2156
   2100  C1'      -40.8350   42.7260   49.0770 C.3    98  G98         0.2408
   2101  N1       -41.2220   46.8210   52.0270 N.ar   98  G98        -0.1709
   2102  C2       -41.2090   45.4880   52.3740 C.ar   98  G98         0.2606
   2103  N2       -41.3030   45.2020   53.6820 N.pl3  98  G98        -0.0859
   2104  N3       -41.0960   44.5010   51.4950 N.ar   98  G98        -0.1918
   2105  C4       -41.0100   44.9610   50.2240 C.ar   98  G98         0.1723
   2106  C5       -41.0270   46.2600   49.7760 C.ar   98  G98         0.1748
   2107  C6       -41.1360   47.3090   50.7230 C.ar   98  G98         0.3023
   2108  O6       -41.1640   48.5320   50.5200 O.2    98  G98        -0.2633
   2109  N7       -40.9200   46.2990   48.3910 N.ar   98  G98        -0.2173
   2110  C8       -40.8410   45.0460   48.0350 C.ar   98  G98         0.1817
   2111  N9       -40.8660   44.1830   49.1020 N.ar   98  G98        -0.2693
   2112  OP1      -41.4790   42.8430   42.9710 O.2    98  G98        -0.5172
   2113  OP2      -41.2390   45.2340   43.8860 O.co2  98  G98        -0.4373
   2114  P        -45.0250   41.6760   47.7240 P.3    99  U99         0.2141
   2115  C5'      -46.1380   40.8830   49.9780 C.3    99  U99         0.1812
   2116  O5'      -44.9720   40.9920   49.1770 O.3    99  U99        -0.3114
   2117  C4'      -45.9330   41.4730   51.3630 C.3    99  U99         0.1773
   2118  O4'      -44.7030   42.2410   51.4520 O.3    99  U99        -0.3307
   2119  C3'      -46.9660   42.5060   51.7850 C.3    99  U99         0.1860
   2120  O3'      -48.2430   41.9390   52.0310 O.3    99  U99        -0.3112
   2121  C2'      -46.2740   43.0780   53.0140 C.3    99  U99         0.2309
   2122  O2'      -46.2200   42.1730   54.1000 O.3    99  U99        -0.2156
   2123  C1'      -44.8860   43.2830   52.4070 C.3    99  U99         0.2420
   2124  N1       -44.7650   44.6200   51.7330 N.ar   99  U99        -0.2534
   2125  C2       -44.7410   45.7690   52.5060 C.ar   99  U99         0.3546
   2126  O2       -44.7950   45.7650   53.7240 O.2    99  U99        -0.2443
   2127  N3       -44.6440   46.9420   51.7970 N.ar   99  U99        -0.1530
   2128  C4       -44.5760   47.0810   50.4200 C.ar   99  U99         0.2846
   2129  O4       -44.4870   48.2030   49.9280 O.2    99  U99        -0.2650
   2130  C5       -44.6230   45.8430   49.6810 C.ar   99  U99         0.0814
   2131  C6       -44.7170   44.6870   50.3510 C.ar   99  U99         0.0870
   2132  OP1      -46.0170   40.9890   46.8640 O.2    99  U99        -0.5172
   2133  OP2      -45.1170   43.1460   47.9130 O.co2  99  U99        -0.4373
   2134  P        -49.3240   42.0000   50.8500 P.3   100  U100        0.2141
   2135  C5'      -50.2780   44.3090   51.5860 C.3   100  U100        0.1813
   2136  O5'      -50.4810   42.9110   51.4700 O.3   100  U100       -0.3114
   2137  C4'      -50.0530   44.6870   53.0380 C.3   100  U100        0.1801
   2138  O4'      -48.7100   45.2130   53.1830 O.3   100  U100       -0.3306
   2139  C3'      -51.0050   45.7560   53.5700 C.3   100  U100        0.2161
   2140  O3'      -52.0790   45.1490   54.3010 O.3   100  U100       -0.2175
   2141  C2'      -50.1220   46.6190   54.4720 C.3   100  U100        0.2338
   2142  O2'      -50.1080   46.1890   55.8190 O.3   100  U100       -0.2155
   2143  C1'      -48.7350   46.4580   53.8570 C.3   100  U100        0.2421
   2144  N1       -48.3600   47.5550   52.9050 N.ar  100  U100       -0.2534
   2145  C2       -48.2350   48.8510   53.3760 C.ar  100  U100        0.3546
   2146  O2       -48.4200   49.1680   54.5390 O.2   100  U100       -0.2443
   2147  N3       -47.8780   49.7750   52.4230 N.ar  100  U100       -0.1530
   2148  C4       -47.6390   49.5400   51.0810 C.ar  100  U100        0.2846
   2149  O4       -47.3240   50.4700   50.3480 O.2   100  U100       -0.2650
   2150  C5       -47.7920   48.1690   50.6650 C.ar  100  U100        0.0814
   2151  C6       -48.1340   47.2500   51.5740 C.ar  100  U100        0.0870
   2152  OP1      -49.8310   40.6250   50.6330 O.3   100  U100       -0.4373
   2153  OP2      -48.7370   42.7530   49.7170 O.co2 100  U100       -0.5172
@<TRIPOS>BOND
     1   109    89    2
     2    87    69    2
     3    70    72    1
     4    70    71    1
     5    75    89    1
     6    75    74    1
     7    89   110    1
     8    89    91    1
     9    72    74    1
    10    72    73    1
    11    53    69    1
    12    53    52    1
    13    69    71    1
    14    69    88    1
    15    55    54    1
    16   173   172    2
    17    74    76    1
    18    90    91    1
    19    90    92    1
    20    77    76    1
    21   132   111    2
    22    73    78    1
    23  2089  2071    2
    24    50    52    1
    25    50    48    1
    26    50    51    1
    27    52    54    1
    28   166   172   ar
    29   166   167   ar
    30    76    78    1
    31    54    56    1
    32   172   171   ar
    33    48    49    1
    34    95   111    1
    35    95    94    1
    36   111   133    1
    37   111   113    1
    38    92    94    1
    39    92    93    1
    40   168   167    1
    41    78    79    1
    42  2069  2051    2
    43  2057  2071    1
    44  2057  2056    1
    45    51    56    1
    46   167   169   ar
    47  2052  2054    1
    48  2052  2053    1
    49  2071  2090    1
    50  2071  2073    1
    51    56    66    1
    52    94    96    1
    53    49    47    1
    54    67    47    2
    55   171   174   ar
    56   171   170   ar
    57  2054  2056    1
    58  2054  2055    1
    59  2072  2073    1
    60  2072  2074    1
    61    93    98    1
    62   113   112    1
    63    79    86   ar
    64    79    80   ar
    65  2056  2058    1
    66  2059  2058    1
    67  2051  2034    1
    68  2051  2053    1
    69  2051  2070    1
    70  2112  2091    2
    71   174   175   ar
    72    86    85   ar
    73  2034  2033    1
    74    32    31    1
    75   169   170   ar
    76   112   114    1
    77    47    30    1
    78    47    68    1
    79  2036  2035    1
    80    97    96    1
    81   170   176   ar
    82   155   134    2
    83    96    98    1
    84    66    60   ar
    85    66    65   ar
    86    59    60   ar
    87    59    58   ar
    88  2074  2076    1
    89  2074  2075    1
    90  2077  2091    1
    91  2077  2076    1
    92   154   134    1
    93  2055  2060    1
    94    30    29    1
    95    98   108    1
    96  2058  2060    1
    97   107   108   ar
    98   107   106   ar
    99    81    80    2
   100  2091  2113    1
   101  2091  2093    1
   102    80    82   ar
   103    60    61   ar
   104   134   117    1
   105   134   136    1
   106    85    83   ar
   107   175   176   ar
   108  2076  2078    1
   109  2033  2031    1
   110  2033  2035    1
   111    65    64   ar
   112   108   102   ar
   113  2031  2029    1
   114  2031  2032    1
   115    58    57   ar
   116  2035  2037    1
   117  2060  2061    1
   118    31    29    1
   119    31    33    1
   120   176   165    1
   121    36    35    1
   122  2075  2080    1
   123   114   116    1
   124   114   115    1
   125   106   103   ar
   126   117   116    1
   127  2029  2030    1
   128    29    27    1
   129   116   118    1
   130    27    28    1
   131    27    25    1
   132    82    83   ar
   133   904   903    1
   134    83    84    1
   135    37    35   ar
   136    37    38   ar
   137    61    64   ar
   138    61    62   ar
   139    33    28    1
   140    33    44    1
   141  2093  2092    1
   142  2032  2037    1
   143   115   120    1
   144   136   135    1
   145  2079  2078    1
   146  2037  2048    1
   147   130   129   ar
   148   130   131   ar
   149  2078  2080    1
   150    35    34   ar
   151  2092  2094    1
   152    57    62   ar
   153   102   103   ar
   154   102   101   ar
   155  2016  2015    1
   156   165   160    1
   157   165   163    1
   158  2061  2068   ar
   159  2061  2062   ar
   160   129   126   ar
   161   103   104   ar
   162  2080  2081    1
   163  2049  2028    2
   164   783   762    2
   165   160   159    1
   166  2068  2067   ar
   167   899   900    1
   168   899   897    1
   169   899   901    1
   170    25    26    1
   171  2088  2081   ar
   172  2088  2087   ar
   173    62    63    1
   174  2030  2028    1
   175   900   905    1
   176  2014  2028    1
   177  2014  2013    1
   178    38    44   ar
   179    38    39   ar
   180   902   901    1
   181   902   919    1
   182    44    43   ar
   183   897   898    1
   184   118   120    1
   185   118   119    1
   186   151   152   ar
   187   151   148   ar
   188   152   153   ar
   189   120   131    1
   190   903   905    1
   191   903   901    1
   192   131   125   ar
   193  2063  2062    2
   194   135   137    1
   195   881   880    1
   196  2041  2042   ar
   197  2041  2039   ar
   198   905   916    1
   199   101   100   ar
   200  2028  2050    1
   201  2081  2082   ar
   202   940   919    2
   203  2040  2039    1
   204  2062  2064   ar
   205  2048  2042   ar
   206  2048  2047   ar
   207    34    40   ar
   208  2132  2114    2
   209   747   746    1
   210  2087  2085   ar
   211   745   762    1
   212   745   744    1
   213  2015  2013    1
   214  2015  2017    1
   215   163   164    1
   216   163   161    1
   217  2094  2096    1
   218  2094  2095    1
   219   920   922    1
   220   920   921    1
   221   141   142    1
   222   141   139    1
   223   141   143    1
   224   104   105    1
   225   104    99   ar
   226  2097  2096    1
   227  2097  2114    1
   228   762   764    1
   229   762   784    1
   230   126   125   ar
   231   126   127   ar
   232   742   740    1
   233   742   744    1
   234   742   743    1
   235  2067  2065   ar
   236   740   741    1
   237  2042  2043   ar
   238   159   157    1
   239   159   161    1
   240  2039  2038   ar
   241   157   158    1
   242  2013  2011    1
   243   764   763    1
   244    26    24    1
   245   885   884    1
   246   139   137    1
   247   139   140    1
   248   919   921    1
   249   919   941    1
   250  2096  2098    1
   251   125   124   ar
   252    45    24    2
   253  1138  1137    1
   254  2011  2012    1
   255  2011  2009    1
   256  2114  2133    1
   257  2114  2116    1
   258    39    40   ar
   259    39    42   ar
   260   137   138    1
   261   153   143    1
   262   153   147   ar
   263   760   739    2
   264    43    42   ar
   265   150   149    1
   266   148   149   ar
   267   148   147   ar
   268   880   882    1
   269   880   878    1
   270   100    99   ar
   271   922   923    1
   272   922   924    1
   273   744   746    1
   274  2095  2100    1
   275   898   896    1
   276   178   156    2
   277   128   127    2
   278  2047  2046   ar
   279    40    41    2
   280   138   143    1
   281  2110  2109   ar
   282  2110  2111   ar
   283   879   896    1
   284   879   878    1
   285   916   910   ar
   286   916   915   ar
   287  2082  2083    2
   288  2082  2084   ar
   289  2017  2012    1
   290  2017  2018    1
   291  2020  2019    2
   292   161   162    1
   293   746   748    1
   294   743   748    1
   295  2064  2065   ar
   296   725   724    1
   297   806   785    2
   298   127   121   ar
   299   917   896    2
   300   763   765    1
   301    24    46    1
   302    24     7    1
   303   909   910   ar
   304   909   907   ar
   305   923   928    1
   306  2065  2066    1
   307   886   884   ar
   308   886   887   ar
   309  2085  2084   ar
   310  2085  2086    2
   311  2109  2106   ar
   312   765   766    1
   313   765   767    1
   314   162   179    1
   315   149   144   ar
   316   884   883   ar
   317   768   785    1
   318   768   767    1
   319  2009  2010    1
   320  1170  1150    2
   321   147   146   ar
   322   882   877    1
   323   882   893    1
   324   741   739    1
   325   896   918    1
   326   140   156    1
   327  1151  1153    1
   328  1151  1152    1
   329   158   156    1
   330   748   759    1
   331  2043  2046   ar
   332  2043  2044   ar
   333  1133  1134    1
   334  1133  1131    1
   335  1133  1135    1
   336  2038  2044   ar
   337   910   911   ar
   338   878   876    1
   339  1136  1135    1
   340  1136  1150    1
   341   723   739    1
   342   723   722    1
   343   770   769    1
   344   908   907    1
   345   915   914   ar
   346   739   761    1
   347   925   924    1
   348   925   942    1
   349   124   122   ar
   350   156   177    1
   351  1153  1154    1
   352  1153  1155    1
   353  2098  2100    1
   354  2098  2099    1
   355  2100  2111    1
   356  1137  1139    1
   357  1137  1135    1
   358  2111  2105   ar
   359  1134  1139    1
   360  1131  1132    1
   361   766   771    1
   362   785   807    1
   363   785   787    1
   364  2019  2018   ar
   365  2019  2021   ar
   366  2116  2115    1
   367   924   926    1
   368   907   906   ar
   369    13    12    1
   370  2018  2025   ar
   371   876   877    1
   372   876   874    1
   373   767   769    1
   374  1118  1117    1
   375  1139  1140    1
   376   121   122   ar
   377  1154  1159    1
   378   724   722    1
   379   724   726    1
   380   887   893   ar
   381   887   888   ar
   382   927   926    1
   383  2044  2045    2
   384  1150  1152    1
   385  1150  1171    1
   386   928   926    1
   387   928   939    1
   388   962   942    2
   389     9     8    1
   390   893   892   ar
   391  1156  1155    1
   392  1156  1172    1
   393  2130  2131   ar
   394  2130  2128   ar
   395  1193  1172    2
   396  2153  2134    2
   397   883   889   ar
   398     7     6    1
   399  2106  2105   ar
   400  2106  2107   ar
   401   144   145   ar
   402  1158  1157    1
   403   122   123    1
   404   722   720    1
   405   786   787    1
   406   786   788    1
   407   720   721    1
   408   720   718    1
   409   769   771    1
   410  2010  2008    1
   411  2129  2128    2
   412   146   145   ar
   413   179   181    1
   414   179   197    2
   415   179   198    1
   416  2115  2117    1
   417   911   914   ar
   418   911   912   ar
   419   181   180    1
   420   180   182    1
   421   759   758   ar
   422   759   753   ar
   423   771   782    1
   424   942   944    1
   425   942   963    1
   426  1155  1157    1
   427  2105  2104   ar
   428  2021  2022   ar
   429  2026  2008    2
   430    12    14   ar
   431    12    11   ar
   432  2149  2148    2
   433  2131  2124   ar
   434   726   721    1
   435   726   736    1
   436  1159  1157    1
   437  1159  1169    1
   438  1142  1141    2
   439  1132  1130    1
   440  2128  2127   ar
   441   183   182    1
   442   183   188    1
   443  2025  2024   ar
   444   906   912   ar
   445   938   939   ar
   446   938   937   ar
   447  2108  2107    2
   448   939   933   ar
   449   718   719    1
   450     8     6    1
   451     8    10    1
   452  1172  1194    1
   453  1172  1174    1
   454   944   943    1
   455  2152  2134    1
   456  2150  2148   ar
   457  2150  2151   ar
   458   874   875    1
   459    14    15   ar
   460  2107  2101   ar
   461   888   889   ar
   462   888   891   ar
   463     6     4    1
   464  1117  1119    1
   465  1117  1115    1
   466   195   196   ar
   467   195   193   ar
   468   752   753   ar
   469   752   750   ar
   470   182   184    1
   471  1116  1130    1
   472  1116  1115    1
   473  1140  1141   ar
   474  1140  1147   ar
   475   758   757   ar
   476  2134  2136    1
   477  2134  2120    1
   478   889   890    2
   479  1148  1130    2
   480  1996  1995    1
   481   196   189   ar
   482  1173  1174    1
   483  1173  1175    1
   484   892   891   ar
   485   912   913    2
   486  2008  1994    1
   487  2008  2027    1
   488   194   193    2
   489   753   754   ar
   490  2148  2147   ar
   491   788   789    1
   492   788   790    1
   493  1122  1121    2
   494    11    17   ar
   495   729   728   ar
   496   729   730   ar
   497   193   192   ar
   498  1141  1143   ar
   499   706   705    1
   500  1130  1149    1
   501  2117  2118    1
   502  2117  2119    1
   503  1119  1114    1
   504  1119  1120    1
   505  2022  2024   ar
   506  2022  2023    1
   507   782   781   ar
   508   782   776   ar
   509  2118  2123    1
   510   189   188    1
   511   189   190   ar
   512  2136  2135    1
   513  2104  2102   ar
   514  1115  1113    1
   515   937   934   ar
   516  2151  2144   ar
   517   791   790    1
   518   791   808    1
   519  2135  2137    1
   520   828   808    2
   521   943   945    1
   522   192   190   ar
   523   781   780   ar
   524   188   186    1
   525  1169  1168   ar
   526  1169  1163   ar
   527  1994  1993    1
   528   736   730   ar
   529   736   735   ar
   530  1113  1114    1
   531  1113  1111    1
   532   875   873    1
   533  1147  1146   ar
   534  2124  2123    1
   535  2124  2125   ar
   536   728   727   ar
   537   933   932   ar
   538   933   934   ar
   539  2119  2120    1
   540  2119  2121    1
   541   751   750    1
   542  2127  2125   ar
   543   190   191    2
   544    15    21   ar
   545    15    16   ar
   546   750   749   ar
   547   789   794    1
   548  1995  1993    1
   549  1995  1997    1
   550  1779  1761    2
   551   702   701    1
   552    10    21    1
   553    10     5    1
   554   719   717    1
   555   730   731   ar
   556  1168  1167   ar
   557   829   808    1
   558  2101  2102   ar
   559  2000  1999    2
   560  1175  1176    1
   561  1175  1177    1
   562   790   792    1
   563   200   202    1
   564   200   201    1
   565   737   717    2
   566   757   754   ar
   567     4     5    1
   568     4     2    1
   569   808   810    1
   570   202   203    1
   571   202   204    1
   572  1121  1120   ar
   573  1121  1123   ar
   574   932   930   ar
   575    17    16   ar
   576    17    18    2
   577  1739  1741    1
   578  1739  1740    1
   579   754   755   ar
   580   184   186    1
   581   184   185    1
   582  1726  1725    1
   583  1484  1483    1
   584   219   199    2
   585   203   208    1
   586  2102  2103    1
   587   934   935   ar
   588  2123  2121    1
   589  2147  2145   ar
   590  1176  1181    1
   591    21    20   ar
   592   946   945    1
   593   946   951    1
   594  1744  1761    1
   595  1744  1743    1
   596  1741  1743    1
   597  1741  1742    1
   598   705   707   ar
   599   705   704   ar
   600  1120  1127   ar
   601  2125  2126    2
   602   945   947    1
   603  1143  1144   ar
   604  1993  1991    1
   605  1746  1745    1
   606    16    19   ar
   607   186   187    1
   608   707   708   ar
   609  1759  1738    2
   610   776   775   ar
   611   776   777   ar
   612   207   206    1
   613  1163  1162   ar
   614  1163  1164   ar
   615   185   199    1
   616  1111  1112    1
   617   735   734   ar
   618   780   777   ar
   619   894   873    2
   620  2144  2145   ar
   621  2144  2143    1
   622  1162  1161   ar
   623   717   700    1
   624   717   738    1
   625     2     3    1
   626  1999  2001   ar
   627  1999  1998   ar
   628  1146  1144   ar
   629  2121  2122    1
   630   701   703    1
   631   701   699    1
   632  2137  2138    1
   633  2137  2139    1
   634  1761  1763    1
   635  1761  1780    1
   636   775   773   ar
   637   727   732   ar
   638  1997  1998    1
   639  1997  1992    1
   640  1724  1738    1
   641  1724  1723    1
   642   873   856    1
   643   873   895    1
   644   749   755   ar
   645  2138  2143    1
   646   205   204    1
   647   205   221    1
   648  1167  1164   ar
   649   793   792    1
   650   794   792    1
   651   794   805    1
   652  1743  1745    1
   653  1742  1747    1
   654   208   206    1
   655   208   218    1
   656  1178  1177    1
   657  1178  1195    1
   658  1762  1763    1
   659  1762  1764    1
   660  1123  1124   ar
   661   731   734   ar
   662   731   732   ar
   663   201   199    1
   664  1177  1179    1
   665   199   220    1
   666  2145  2146    2
   667  1102  1101    2
   668  1144  1145    1
   669   704   710   ar
   670  1488  1487   ar
   671  1488  1489   ar
   672   755   756    2
   673   930   931    1
   674   930   929   ar
   675   204   206    1
   676   700   699    1
   677  1740  1738    1
   678  2001  2002   ar
   679  1487  1486   ar
   680  2139  2140    1
   681  2139  2141    1
   682    20    19   ar
   683   777   778   ar
   684  1991  1992    1
   685  1991  1989    1
   686   457   439    2
   687   960   961   ar
   688   960   959   ar
   689  1998  2005   ar
   690   804   805   ar
   691   804   803   ar
   692  1738  1760    1
   693  1721  1723    1
   694  1721  1722    1
   695  1721  1719    1
   696   424   423    1
   697   935   929   ar
   698   935   936    2
   699  1745  1747    1
   700  1483  1485    1
   701  1483  1481    1
   702   404   403    1
   703   951   961    1
   704   951   949    1
   705  1164  1165   ar
   706  1725  1723    1
   707  1725  1727    1
   708   810   809    1
   709  1127  1126   ar
   710   242   221    2
   711  1181  1179    1
   712  1181  1192    1
   713   703   714    1
   714   703   698    1
   715  1098  1097    1
   716  2143  2141    1
   717   732   733    1
   718     3     1    1
   719   856   855    1
   720   708   714   ar
   721   708   709   ar
   722  1485  1480    1
   723  1485  1495    1
   724   947   948    1
   725   947   949    1
   726   986   964    2
   727   805   799   ar
   728  1112  1110    1
   729   440   442    1
   730   440   441    1
   731  1747  1758    1
   732   699   697    1
   733  1191  1192   ar
   734  1191  1190   ar
   735  1216  1195    2
   736   422   439    1
   737   422   421    1
   738  1180  1179    1
   739  1161  1160   ar
   740   961   955   ar
   741  1722  1727    1
   742   437   416    2
   743  1719  1720    1
   744  1482  1481    1
   745  1482  1498    1
   746   959   956   ar
   747   809   811    1
   748  1764  1765    1
   749  1764  1766    1
   750   948   964    1
   751   221   243    1
   752   221   223    1
   753  1727  1728    1
   754   480   459    2
   755   773   774    1
   756   773   772   ar
   757  1195  1217    1
   758  1195  1197    1
   759  1465  1466   ar
   760  1465  1464   ar
   761   218   217   ar
   762   218   212   ar
   763  2141  2142    1
   764   714   713   ar
   765  1519  1498    2
   766  1192  1186   ar
   767  1480  1479    1
   768   950   949    1
   769  1101  1103   ar
   770  1101  1100   ar
   771   985   964    1
   772   418   416    1
   773   418   417    1
   774   217   216   ar
   775  1479  1481    1
   776  1479  1477    1
   777   803   800   ar
   778  1124  1126   ar
   779  1124  1125    2
   780  1489  1495   ar
   781  1489  1490   ar
   782  2002  2003    2
   783  2002  2004   ar
   784   439   441    1
   785   439   458    1
   786  1486  1491   ar
   787  1704  1703    1
   788   442   444    1
   789   442   443    1
   790   858   857    1
   791   419   421    1
   792   419   417    1
   793   419   420    1
   794   697   698    1
   795   697   695    1
   796  1442  1443   ar
   797  1442  1447   ar
   798   710   709   ar
   799   710   711    2
   800  2005  2004   ar
   801   964   966    1
   802   589   568    2
   803  1097  1099    1
   804  1097  1095    1
   805  1989  1990    1
   806  1499  1501    1
   807  1499  1500    1
   808  1799  1781    2
   809   445   459    1
   810   445   444    1
   811  1767  1766    1
   812  1767  1781    1
   813  1103  1104   ar
   814  1495  1494   ar
   815  1443  1444   ar
   816  1466  1467   ar
   817   402   416    1
   818   402   401    1
   819   709   712   ar
   820   778   772   ar
   821   778   779    2
   822  1165  1160   ar
   823  1165  1166    1
   824  1190  1187   ar
   825   423   421    1
   826   423   425    1
   827   849   830    2
   828  1730  1729    2
   829  1464  1469   ar
   830  1765  1770    1
   831   403   405    1
   832   403   401    1
   833   416   438    1
   834  1128  1110    2
   835  1099  1100    1
   836  1099  1094    1
   837     1    23    1
   838     1    22    1
   839   399   400    1
   840   399   401    1
   841   399   397    1
   842   855   857    1
   843   855   853    1
   844  1498  1500    1
   845  1498  1520    1
   846   222   223    1
   847   222   224    1
   848   554   553    1
   849   420   425    1
   850   459   481    1
   851   459   461    1
   852  1766  1768    1
   853   955   956   ar
   854   955   954   ar
   855   799   800   ar
   856   799   798   ar
   857   956   957   ar
   858  1110  1096    1
   859  1110  1129    1
   860  1501  1502    1
   861  1501  1503    1
   862  1758  1757   ar
   863  1758  1752   ar
   864   512   513   ar
   865   512   517   ar
   866  1990  1988    1
   867   405   400    1
   868   405   406    1
   869   513   514   ar
   870   859   857    1
   871   859   854    1
   872   859   870    1
   873  1100  1107   ar
   874  1781  1800    1
   875  1781  1783    1
   876  1448  1447    1
   877   444   446    1
   878   425   436    1
   879   443   448    1
   880  1462  1461    1
   881   869   870   ar
   882   869   868   ar
   883  1720  1718    1
   884   447   446    1
   885   212   211   ar
   886   212   213   ar
   887  1736  1718    2
   888   826   825   ar
   889   826   827   ar
   890   825   822   ar
   891   800   801   ar
   892  1728  1729   ar
   893  1728  1735   ar
   894   713   712   ar
   895  1447  1446   ar
   896  1197  1196    1
   897  1477  1478    1
   898  1096  1095    1
   899   811   812    1
   900   811   813    1
   901   216   213   ar
   902  1186  1187   ar
   903  1186  1185   ar
   904   552   568    1
   905   552   551    1
   906  1490  1491   ar
   907  1490  1493   ar
   908   408   407    2
   909  1491  1492    1
   910  1757  1756   ar
   911   385   384    1
   912   397   398    1
   913   853   854    1
   914   853   851    1
   915   211   210   ar
   916  1703  1705    1
   917  1703  1701    1
   918  1729  1731   ar
   919  1769  1768    1
   920  1444  1445   ar
   921   568   570    1
   922   568   590    1
   923  1095  1093    1
   924  1502  1507    1
   925   569   570    1
   926   569   571    1
   927  1187  1188   ar
   928   695   696    1
   929  1104  1105    1
   930  1104  1106   ar
   931  1980  1979    2
   932  1196  1198    1
   933   848   830    1
   934   549   547    1
   935   549   551    1
   936   549   550    1
   937   812   817    1
   938   798   796   ar
   939  1504  1503    1
   940  1504  1521    1
   941   870   864   ar
   942   830   814    1
   943   830   832    1
   944   547   548    1
   945  1494  1493   ar
   946  1467  1468   ar
   947  1467  1473   ar
   948   966   965    1
   949   518   517    1
   950   514   515   ar
   951  1702  1718    1
   952  1702  1701    1
   953   517   516   ar
   954   954   953   ar
   955  1094  1093    1
   956  1981  1979   ar
   957  1981  1982   ar
   958  1770  1768    1
   959  1770  1771    1
   960  1469  1470    1
   961  1469  1468   ar
   962  1708  1707   ar
   963  1708  1709   ar
   964   460   461    1
   965   460   462    1
   966   446   448    1
   967  1718  1737    1
   968   868   865   ar
   969   813   814    1
   970   813   815    1
   971   213   214   ar
   972   381   380    1
   973  1705  1700    1
   974  1705  1715    1
   975  1461  1463    1
   976  1461  1459    1
   977   957   958    1
   978   957   952   ar
   979   845   844    1
   980  1752  1751   ar
   981  1752  1753   ar
   982   224   225    1
   983   224   226    1
   984  1751  1749   ar
   985  1542  1521    2
   986  1983  1982    1
   987  1503  1505    1
   988   982   983   ar
   989   982   979   ar
   990   686   685    2
   991   553   551    1
   992   553   555    1
   993   448   449    1
   994  1185  1183   ar
   995  2006  1988    2
   996  1707  1706   ar
   997  1093  1091    1
   998  1506  1505    1
   999  1735  1734   ar
  1000   696   694    1
  1001  1979  1978   ar
  1002  1463  1473    1
  1003  1463  1458    1
  1004  1988  2007    1
  1005  1988  1974    1
  1006   406   407   ar
  1007   406   413   ar
  1008  1107  1106   ar
  1009   407   409   ar
  1010  1778  1771   ar
  1011  1778  1777   ar
  1012   983   984   ar
  1013  1700  1699    1
  1014  1701  1699    1
  1015   225   230    1
  1016   550   555    1
  1017   827   817    1
  1018   827   821   ar
  1019  1478  1476    1
  1020  1002  1001    2
  1021  1699  1697    1
  1022   436   430   ar
  1023   436   435   ar
  1024   429   430   ar
  1025   429   427   ar
  1026  1446  1445   ar
  1027  1446  1449   ar
  1028  1783  1782    1
  1029   571   572    1
  1030   571   573    1
  1031  1468  1471   ar
  1032   822   823   ar
  1033   822   821   ar
  1034  1445  1451   ar
  1035  1982  1984   ar
  1036   801   802    2
  1037   801   795   ar
  1038   824   823    1
  1039   965   967    1
  1040   515   516   ar
  1041   515   521   ar
  1042  1473  1472   ar
  1043   384   386   ar
  1044   384   383   ar
  1045  1756  1753   ar
  1046  1782  1784    1
  1047  1507  1505    1
  1048  1507  1518    1
  1049   516   519   ar
  1050   846   844   ar
  1051   846   847   ar
  1052   555   565    1
  1053   566   546    2
  1054  1521  1543    1
  1055  1521  1523    1
  1056   981   980    2
  1057   210   209   ar
  1058  1731  1732   ar
  1059  1082  1081    2
  1060  1771  1772   ar
  1061   398   396    1
  1062   386   387   ar
  1063   817   815    1
  1064   852   851    1
  1065   852   850    1
  1066   953   952   ar
  1067  1188  1189    2
  1068  1188  1182   ar
  1069   832   831    1
  1070   682   681    1
  1071   844   843   ar
  1072   428   427    1
  1073   796   795   ar
  1074   796   797    1
  1075  1709  1715   ar
  1076  1709  1710   ar
  1077   609   591    2
  1078  1198  1199    1
  1079  1198  1200    1
  1080   548   546    1
  1081   574   573    1
  1082   574   591    1
  1083   864   865   ar
  1084   864   863   ar
  1085  1975  1976    1
  1086  1975  1973    1
  1087  1975  1977    1
  1088   685   687   ar
  1089   685   684   ar
  1090  1715  1714   ar
  1091   687   688   ar
  1092  1753  1754   ar
  1093   510   509    1
  1094   430   431   ar
  1095  1777  1775   ar
  1096  1199  1204    1
  1097   979   980   ar
  1098   979   978   ar
  1099  1083  1081   ar
  1100  1083  1084   ar
  1101   865   866   ar
  1102   968   967    1
  1103   968   973    1
  1104   462   463    1
  1105   462   464    1
  1106   380   382    1
  1107   380   378    1
  1108   823   818   ar
  1109   227   226    1
  1110   227   244    1
  1111   226   228    1
  1112   414   396    2
  1113   815   816    1
  1114   214   209   ar
  1115   214   215    1
  1116  1458  1457    1
  1117  1749  1750    1
  1118  1749  1748   ar
  1119   821   820   ar
  1120  1183  1182   ar
  1121  1183  1184    1
  1122   266   244    2
  1123  1214  1213   ar
  1124  1214  1215   ar
  1125   572   577    1
  1126  1706  1711   ar
  1127   456   449   ar
  1128   456   455   ar
  1129   427   426   ar
  1130   449   450   ar
  1131  1459  1460    1
  1132  1459  1457    1
  1133   980   974   ar
  1134  1978  1977    1
  1135  1978  1985   ar
  1136  1974  1973    1
  1137   413   412   ar
  1138   501   482    2
  1139  1460  1476    1
  1140   435   434   ar
  1141  1734  1732   ar
  1142   681   683    1
  1143   681   679    1
  1144   240   239   ar
  1145   240   241   ar
  1146   984   978   ar
  1147   984   973    1
  1148  1001  1003   ar
  1149  1001  1000   ar
  1150   521   511    1
  1151   521   520   ar
  1152  1213  1210   ar
  1153  1081  1080   ar
  1154   573   575    1
  1155   409   410   ar
  1156   610   591    1
  1157  1085  1084    1
  1158   500   482    1
  1159   847   840   ar
  1160   591   593    1
  1161   519   520   ar
  1162  1522  1523    1
  1163  1522  1524    1
  1164  1091  1092    1
  1165   379   396    1
  1166   379   378    1
  1167   383   389   ar
  1168  1973  1971    1
  1169  1697  1698    1
  1170   967   969    1
  1171   546   530    1
  1172   546   567    1
  1173   465   482    1
  1174   465   464    1
  1175   265   244    1
  1176  1984  1985   ar
  1177  1732  1733    1
  1178  1449  1450   ar
  1179  1476  1496    2
  1180  1476  1497    1
  1181   694   715    2
  1182   694   716    1
  1183   694   680    1
  1184   396   415    1
  1185   382   393    1
  1186   382   377    1
  1187   230   241    1
  1188   230   228    1
  1189  1518  1517   ar
  1190  1518  1512   ar
  1191   871   850    2
  1192  1451  1441    1
  1193  1451  1450   ar
  1194  1472  1471   ar
  1195   511   509    1
  1196   511   506    1
  1197   244   246    1
  1198  1977  1972    1
  1199   463   468    1
  1200  1517  1516   ar
  1201   863   861   ar
  1202   689   688    2
  1203   482   484    1
  1204   544   524    2
  1205   978   977   ar
  1206  1084  1086   ar
  1207   843   841   ar
  1208  1772  1773    2
  1209  1772  1774   ar
  1210  1003  1004   ar
  1211   558   559   ar
  1212   558   557   ar
  1213   464   466    1
  1214   387   393   ar
  1215   387   388   ar
  1216   688   690   ar
  1217   973   971    1
  1218  1440  1439    1
  1219  1200  1201    1
  1220  1200  1202    1
  1221   565   559   ar
  1222   565   564   ar
  1223  1784  1785    1
  1224  1784  1786    1
  1225   684   683    1
  1226   684   691   ar
  1227   850   836    1
  1228   850   872    1
  1229  1022  1021    2
  1230   683   678    1
  1231  1457  1455    1
  1232   239   236   ar
  1233   831   833    1
  1234   378   376    1
  1235  1092  1090    1
  1236   509   507    1
  1237  1710  1711   ar
  1238  1710  1713   ar
  1239   241   235   ar
  1240   576   575    1
  1241  1000   998   ar
  1242   525   527    1
  1243   525   526    1
  1244   228   229    1
  1245  1215  1204    1
  1246  1215  1209   ar
  1247  1714  1713   ar
  1248   680   679    1
  1249  1748  1754   ar
  1250  1754  1755    2
  1251  1441  1439    1
  1252  1441  1436    1
  1253  1239  1218    2
  1254   508   524    1
  1255   508   507    1
  1256   866   867    2
  1257   866   860   ar
  1258  1711  1712    1
  1259  1204  1202    1
  1260   431   434   ar
  1261   431   432   ar
  1262  1775  1774   ar
  1263  1775  1776    2
  1264  1201  1218    1
  1265   530   529    1
  1266  1439  1437    1
  1267   455   453   ar
  1268   376   377    1
  1269   376   374    1
  1270   451   450    2
  1271   818   819   ar
  1272   450   452   ar
  1273   974   975   ar
  1274   393   392   ar
  1275  1963  1962    2
  1276   412   410   ar
  1277   575   577    1
  1278   577   588    1
  1279  1006   987    2
  1280   820   819   ar
  1281  1078  1077    1
  1282  1785  1790    1
  1283   679   677    1
  1284   835   836    1
  1285   835   833    1
  1286   835   837    1
  1287   559   560   ar
  1288   969   971    1
  1289   969   970    1
  1290   527   529    1
  1291   527   528    1
  1292   426   432   ar
  1293   410   411    2
  1294   840   841   ar
  1295   840   839    1
  1296  1039  1038    1
  1297  1698  1696    1
  1298  1421  1420    1
  1299  1210  1209   ar
  1300  1210  1211   ar
  1301  1080  1079    1
  1302  1080  1087   ar
  1303  1798  1797   ar
  1304  1798  1791   ar
  1305  1797  1795   ar
  1306  1524  1525    1
  1307  1524  1526    1
  1308   557   556   ar
  1309   506   505    1
  1310  1786  1787    1
  1311  1786  1788    1
  1312  1077  1079    1
  1313  1077  1075    1
  1314  1787  1801    1
  1315  1820  1801    2
  1316   389   388   ar
  1317   389   390    2
  1318   841   842    2
  1319  1238  1218    1
  1320  1218  1220    1
  1321  1512  1511   ar
  1322  1512  1513   ar
  1323   524   526    1
  1324   524   545    1
  1325  1065  1064    2
  1326   529   531    1
  1327  1971  1972    1
  1328  1971  1969    1
  1329  1516  1513   ar
  1330   507   505    1
  1331   478   479   ar
  1332   478   477   ar
  1333   977   975   ar
  1334   564   563   ar
  1335   593   592    1
  1336   388   391   ar
  1337   861   860   ar
  1338   861   862    1
  1339   587   588   ar
  1340   587   586   ar
  1341   691   690   ar
  1342   833   834    1
  1343  1202  1203    1
  1344  1004   997   ar
  1345  1079  1074    1
  1346  1212  1211    2
  1347   468   466    1
  1348   468   479    1
  1349  1455  1456    1
  1350   971   972    1
  1351  1021  1020   ar
  1352  1021  1023   ar
  1353   432   433    2
  1354   467   466    1
  1355  1209  1208   ar
  1356   975   976    1
  1357  1511  1509   ar
  1358   246   245    1
  1359  1525  1530    1
  1360  1086  1087   ar
  1361  1684  1683    1
  1362   236   235   ar
  1363   236   237   ar
  1364  1962  1961   ar
  1365  1962  1964   ar
  1366   678   677    1
  1367   998   997   ar
  1368   998   999    2
  1369   588   582   ar
  1370   235   234   ar
  1371  1819  1801    1
  1372   837   839    1
  1373   837   838    1
  1374   484   483    1
  1375  1801  1803    1
  1376  1211  1205   ar
  1377   834   839    1
  1378  1970  1969    1
  1379  1970  1968    1
  1380  1716  1696    2
  1381   970   987    1
  1382   592   594    1
  1383  1063  1064   ar
  1384  1063  1061   ar
  1385   453   452   ar
  1386   453   454    1
  1387  1436  1435    1
  1388  1895  1894    1
  1389  1020  1018   ar
  1390   669   668    1
  1391   677   675    1
  1392  1090  1108    2
  1393  1090  1109    1
  1394  1090  1076    1
  1395  1918  1917    2
  1396   374   375    1
  1397   528   533    1
  1398   365   364    2
  1399  1513  1514   ar
  1400   987  1005    1
  1401   987   989    1
  1402   479   473   ar
  1403  1961  1959   ar
  1404  1987  1968    2
  1405   477   474   ar
  1406   505   503    1
  1407   392   391   ar
  1408  1437  1438    1
  1409  1437  1435    1
  1410  1790  1791    1
  1411  1790  1788    1
  1412  1967  1948    2
  1413   997   996    1
  1414  1527  1526    1
  1415  1527  1544    1
  1416  1064  1066   ar
  1417  1038  1037   ar
  1418  1038  1040   ar
  1419  1791  1792   ar
  1420   560   563   ar
  1421   560   561   ar
  1422  1526  1528    1
  1423  1696  1682    1
  1424  1696  1717    1
  1425  1420  1422   ar
  1426  1420  1419   ar
  1427  1417  1416    1
  1428  1037  1043   ar
  1429  1062  1061    2
  1430  1795  1796    2
  1431  1795  1794   ar
  1432  1964  1965   ar
  1433   667   668   ar
  1434   667   665   ar
  1435  1563  1544    2
  1436   586   583   ar
  1437  1562  1544    1
  1438   556   561   ar
  1439   245   247    1
  1440  1075  1076    1
  1441  1075  1073    1
  1442  1788  1789    1
  1443  1893  1894   ar
  1444  1893  1899   ar
  1445   483   485    1
  1446  1688  1687    2
  1447  1023  1024   ar
  1448  1438  1454    1
  1449  1422  1423   ar
  1450  1683  1681    1
  1451  1683  1685    1
  1452  1682  1681    1
  1453  1061  1060   ar
  1454  1456  1454    1
  1455   668   670   ar
  1456  1968  1986    1
  1457  1968  1954    1
  1458  1220  1219    1
  1459  1544  1546    1
  1460  1208  1206   ar
  1461   234   232   ar
  1462  1435  1433    1
  1463   531   533    1
  1464   531   532    1
  1465  1540  1541   ar
  1466  1540  1539   ar
  1467   237   238    2
  1468   237   231   ar
  1469  1509  1510    1
  1470  1509  1508   ar
  1471  1074  1073    1
  1472   649   648    1
  1473  1894  1896   ar
  1474   533   543    1
  1475   666   665    2
  1476  1919  1917   ar
  1477  1919  1920   ar
  1478  1900  1899    2
  1479  1917  1916   ar
  1480   361   360    1
  1481  1530  1528    1
  1482  1530  1541    1
  1483   375   373    1
  1484  1959  1960    2
  1485  1959  1958   ar
  1486   498   499   ar
  1487   498   496   ar
  1488   561   562    1
  1489   366   364   ar
  1490   366   367   ar
  1491   364   363   ar
  1492  1205  1206   ar
  1493   582   583   ar
  1494   582   581   ar
  1495  1946  1926    2
  1496   633   611    2
  1497  1419  1425   ar
  1498   989   988    1
  1499   504   503    1
  1500   504   502    1
  1501  1642  1641    1
  1502  1018  1019    2
  1503  1018  1017   ar
  1504   665   664   ar
  1505   262   263   ar
  1506   262   259   ar
  1507  1040  1041   ar
  1508   263   264   ar
  1509  1452  1432    2
  1510   607   608   ar
  1511   607   605   ar
  1512   594   595    1
  1513   594   596    1
  1514  1965  1958   ar
  1515  1803  1802    1
  1516   675   676    1
  1517  1914  1913    1
  1518   474   473   ar
  1519   474   475   ar
  1520   473   472   ar
  1521  1899  1898   ar
  1522  1514  1508   ar
  1523  1514  1515    2
  1524  1794  1792   ar
  1525  1528  1529    1
  1526  1792  1793    2
  1527  1073  1071    1
  1528   583   584   ar
  1529  1235  1236   ar
  1530  1235  1232   ar
  1531   996   991    1
  1532   996   994    1
  1533  1416  1418    1
  1534  1416  1414    1
  1535  1948  1966    1
  1536  1948  1950    1
  1537  1948  1932    1
  1538   608   601   ar
  1539   991   990    1
  1540  1541  1535   ar
  1541  1539  1536   ar
  1542   676   674    1
  1543  1044  1043    2
  1544  1043  1042   ar
  1545  1206  1207    1
  1546   499   492   ar
  1547  1681  1679    1
  1548  1927  1929    1
  1549  1927  1928    1
  1550  1817  1815   ar
  1551  1817  1818   ar
  1552  1066  1067   ar
  1553  1816  1815    2
  1554  1454  1475    2
  1555  1454  1474    1
  1556   360   362    1
  1557   360   358    1
  1558   595   600    1
  1559   497   496    2
  1560   341   342   ar
  1561   341   346   ar
  1562  1958  1957    1
  1563  1219  1221    1
  1564  1685  1686    1
  1565  1685  1680    1
  1566   248   247    1
  1567   248   253    1
  1568  1687  1686   ar
  1569  1687  1689   ar
  1570   522   502    2
  1571  1236  1237   ar
  1572   581   579   ar
  1573   247   249    1
  1574  1024  1017   ar
  1575  1921  1920    1
  1576  1929  1930    1
  1577  1929  1931    1
  1578   232   231   ar
  1579   232   233    1
  1580  1423  1429   ar
  1581  1423  1424   ar
  1582   670   671   ar
  1583  1950  1949    1
  1584   496   495   ar
  1585   536   537   ar
  1586   536   535   ar
  1587  1418  1429    1
  1588  1418  1413    1
  1589  1920  1922   ar
  1590   347   346    1
  1591  1953  1954    1
  1592  1953  1955    1
  1593  1953  1951    1
  1594  1060  1067   ar
  1595  1060  1059    1
  1596   485   486    1
  1597   485   487    1
  1598  1912  1926    1
  1599  1912  1911    1
  1600  1234  1233    1
  1601  1896  1897   ar
  1602  1955  1957    1
  1603  1955  1956    1
  1604   368   367    1
  1605   648   647   ar
  1606   648   650   ar
  1607   342   343   ar
  1608  1815  1814   ar
  1609  1916  1915    1
  1610  1916  1923   ar
  1611  1017  1016    1
  1612  1434  1433    1
  1613  1434  1432    1
  1614   988   990    1
  1615   596   597    1
  1616   596   598    1
  1617   367   369   ar
  1618   628   627    2
  1619  1915  1913    1
  1620  1915  1910    1
  1621   362   363    1
  1622   362   357    1
  1623   543   537   ar
  1624   543   542   ar
  1625   286   267    2
  1626  1415  1432    1
  1627  1415  1414    1
  1628   363   370   ar
  1629   611   597    1
  1630   611   632    1
  1631   611   613    1
  1632  1818  1811   ar
  1633  1926  1928    1
  1634  1926  1947    1
  1635   486   491    1
  1636  1255  1254    1
  1637  1802  1804    1
  1638  1546  1545    1
  1639   606   605    2
  1640   502   488    1
  1641   502   523    1
  1642   664   671   ar
  1643   664   663    1
  1644  1641  1640   ar
  1645  1641  1643   ar
  1646  1679  1680    1
  1647  1679  1677    1
  1648   605   604   ar
  1649  1432  1453    1
  1650  1041  1042   ar
  1651  1041  1047   ar
  1652  1686  1693   ar
  1653  1640  1646   ar
  1654  1425  1424   ar
  1655  1425  1426    2
  1656   472   470   ar
  1657  1930  1935    1
  1658   346   345   ar
  1659   394   373    2
  1660   373   359    1
  1661   373   395    1
  1662   264   253    1
  1663   264   258   ar
  1664   487   488    1
  1665   487   489    1
  1666  1913  1911    1
  1667  1932  1931    1
  1668  1689  1690   ar
  1669   259   260   ar
  1670   259   258   ar
  1671   475   476    2
  1672   475   469   ar
  1673   261   260    2
  1674   990   992    1
  1675  1429  1428   ar
  1676  1042  1045   ar
  1677  1232  1233   ar
  1678  1232  1231   ar
  1679   647   645   ar
  1680   249   250    1
  1681   249   251    1
  1682   537   538   ar
  1683  1414  1412    1
  1684   994   992    1
  1685   994   995    1
  1686   359   358    1
  1687  1898  1897   ar
  1688  1898  1901   ar
  1689  1957  1952    1
  1690  1222  1221    1
  1691  1222  1227    1
  1692   535   534   ar
  1693  1536  1535   ar
  1694  1536  1537   ar
  1695   601   600    1
  1696   601   602   ar
  1697  1535  1534   ar
  1698  1072  1071    1
  1699  1072  1070    1
  1700   282   281    2
  1701   693   674    2
  1702   992   993    1
  1703   650   651   ar
  1704  1424  1427   ar
  1705   584   585    2
  1706   584   578   ar
  1707   661   662    1
  1708   661   663    1
  1709   661   659    1
  1710   492   491    1
  1711   492   493   ar
  1712   358   356    1
  1713  1299  1298    1
  1714  1413  1412    1
  1715   600   598    1
  1716   253   251    1
  1717  1931  1933    1
  1718   674   692    1
  1719   674   660    1
  1720  1412  1410    1
  1721   325   324    1
  1722  1233  1228   ar
  1723   629   626   ar
  1724   629   630   ar
  1725  1897  1903   ar
  1726  1221  1223    1
  1727  1277  1276    2
  1728  1057  1059    1
  1729  1057  1058    1
  1730  1057  1055    1
  1731  1059  1054    1
  1732  1237  1231   ar
  1733  1237  1227    1
  1734  1911  1909    1
  1735  1545  1547    1
  1736   579   578   ar
  1737   579   580    1
  1738   260   254   ar
  1739   303   302    1
  1740  1922  1923   ar
  1741   250   267    1
  1742  1910  1909    1
  1743   663   658    1
  1744   495   493   ar
  1745  1949  1951    1
  1746  1951  1952    1
  1747   627   626   ar
  1748   627   621   ar
  1749   542   541   ar
  1750  1842  1821    2
  1751   491   489    1
  1752  1026  1007    2
  1753   258   257   ar
  1754  1878  1877    1
  1755  1259  1240    2
  1756   343   344   ar
  1757   370   369   ar
  1758   267   285    1
  1759   267   269    1
  1760   598   599    1
  1761  1643  1644   ar
  1762  1814  1812   ar
  1763   283   281   ar
  1764   283   284   ar
  1765  1935  1933    1
  1766  1935  1945    1
  1767   357   356    1
  1768  1837  1836    1
  1769  1805  1804    1
  1770  1805  1810    1
  1771  1647  1646    2
  1772  1254  1256   ar
  1773  1254  1253   ar
  1774   470   469   ar
  1775   470   471    1
  1776  1016  1011    1
  1777  1016  1014    1
  1778   613   612    1
  1779  1646  1645   ar
  1780  1231  1230   ar
  1781   604   602   ar
  1782  1811  1812   ar
  1783  1811  1810    1
  1784  1858  1857    1
  1785  1047  1036    1
  1786  1047  1046   ar
  1787  1677  1678    1
  1788   659   660    1
  1789   659   657    1
  1790   281   280   ar
  1791  1804  1806    1
  1792  1227  1225    1
  1793   626   625   ar
  1794   251   252    1
  1795  1560  1561   ar
  1796  1560  1558   ar
  1797  1693  1692   ar
  1798  1909  1907    1
  1799   493   494    2
  1800  1089  1070    2
  1801   630   631   ar
  1802   489   490    1
  1803  1223  1224    1
  1804  1223  1225    1
  1805  1534  1532   ar
  1806  1256  1257   ar
  1807   356   354    1
  1808   345   344   ar
  1809   345   348   ar
  1810  1901  1902   ar
  1811  1428  1427   ar
  1812  1690  1691    2
  1813  1690  1692   ar
  1814  1938  1937   ar
  1815  1938  1939   ar
  1816   319   324   ar
  1817   319   320   ar
  1818   602   603    2
  1819  1537  1538    2
  1820  1537  1531   ar
  1821   645   646    2
  1822   645   644   ar
  1823  1045  1046   ar
  1824   538   541   ar
  1825   538   539   ar
  1826  1036  1031    1
  1827  1036  1034    1
  1828   324   323   ar
  1829   534   539   ar
  1830  1401  1400    2
  1831   651   644   ar
  1832  1035  1034    1
  1833  1298  1293   ar
  1834  1298  1297   ar
  1835  1055  1056    1
  1836  1055  1053    1
  1837   993  1007    1
  1838  1070  1056    1
  1839  1070  1088    1
  1840   653   634    2
  1841  1011  1010    1
  1842  1933  1934    1
  1843  1228  1229   ar
  1844  1561  1554   ar
  1845   344   350   ar
  1846  1276  1270   ar
  1847  1276  1275   ar
  1848  1937  1936   ar
  1849  1410  1411    1
  1850  1806  1807    1
  1851  1806  1808    1
  1852  1812  1813    2
  1853  1678  1676    1
  1854  1903  1902   ar
  1855  1903  1892    1
  1856  1838  1835   ar
  1857  1838  1839   ar
  1858  1293  1294   ar
  1859  1054  1053    1
  1860  1945  1939   ar
  1861  1945  1944   ar
  1862  1586  1564    2
  1863   621   622   ar
  1864  1876  1877   ar
  1865  1876  1874   ar
  1866  1014  1015    1
  1867  1014  1012    1
  1868  1402  1400   ar
  1869  1402  1403   ar
  1870  1810  1808    1
  1871  1559  1558    2
  1872  1253  1251   ar
  1873  1877  1879   ar
  1874  1007  1009    1
  1875  1007  1025    1
  1876  1939  1940   ar
  1877   302   297   ar
  1878   302   301   ar
  1879  1224  1240    1
  1880   254   255   ar
  1881  1009  1008    1
  1882   284   277   ar
  1883  1547  1548    1
  1884  1547  1549    1
  1885  1270  1271   ar
  1886   658   657    1
  1887  1644  1645   ar
  1888  1644  1650   ar
  1889   644   643    1
  1890   269   268    1
  1891  1225  1226    1
  1892   257   255   ar
  1893  1821  1807    1
  1894  1821  1841    1
  1895  1821  1823    1
  1896  1558  1557   ar
  1897   539   540    1
  1898  1240  1258    1
  1899  1240  1242    1
  1900  1645  1648   ar
  1901  1548  1553    1
  1902  1031  1030    1
  1903  1836  1835   ar
  1904  1836  1831   ar
  1905  1400  1399   ar
  1906  1404  1403    1
  1907   673   654    2
  1908  1230  1229   ar
  1909   612   614    1
  1910  1034  1032    1
  1911  1532  1531   ar
  1912  1532  1533    1
  1913   348   349   ar
  1914  1604  1603    2
  1915   320   321   ar
  1916  1857  1856   ar
  1917  1857  1859   ar
  1918   280   278   ar
  1919   657   655    1
  1920   625   631   ar
  1921   625   624   ar
  1922  1257  1250   ar
  1923   631   620    1
  1924   304   301   ar
  1925   304   305   ar
  1926  1892  1890    1
  1927  1892  1887    1
  1928  1936  1941   ar
  1929   297   298   ar
  1930  1835  1834   ar
  1931  1625  1624    1
  1932  1890  1891    1
  1933  1890  1888    1
  1934   656   654    1
  1935   656   655    1
  1936  1053  1051    1
  1937  1944  1943   ar
  1938  1839  1840   ar
  1939  1033  1032    1
  1940  1033  1050    1
  1941  1297  1300   ar
  1942  1297  1296   ar
  1943  1549  1550    1
  1944  1549  1551    1
  1945   255   256    1
  1946  1403  1405   ar
  1947  1808  1809    1
  1948  1907  1908    1
  1949   354   355    1
  1950  1694  1676    2
  1951   323   326   ar
  1952   323   322   ar
  1953  1411  1409    1
  1954  1300  1301   ar
  1955  1275  1278   ar
  1956  1275  1274   ar
  1957   301   300   ar
  1958  1278  1279   ar
  1959  1940  1941   ar
  1960  1940  1943   ar
  1961  1069  1050    2
  1962  1010  1012    1
  1963  1010  1008    1
  1964  1012  1013    1
  1965  1875  1874    2
  1966  1874  1873   ar
  1967  1554  1553    1
  1968  1554  1555   ar
  1969  1550  1564    1
  1970   350   349   ar
  1971   350   340    1
  1972  1564  1585    1
  1973  1564  1566    1
  1974   355   353    1
  1975  1294  1295   ar
  1976  1856  1854   ar
  1977  1676  1695    1
  1978  1676  1659    1
  1979   634   636    1
  1980   634   617    1
  1981   634   652    1
  1982  1397  1396    1
  1983  1908  1906    1
  1984  1242  1241    1
  1985   622   624   ar
  1986   622   623    1
  1987  1342  1341    1
  1988  1581  1580    2
  1989  1859  1860   ar
  1990  1941  1942    1
  1991  1251  1250   ar
  1992  1251  1252    2
  1993   616   614    1
  1994   616   617    1
  1995   616   618    1
  1996  1052  1050    1
  1997  1052  1051    1
  1998  1879  1880   ar
  1999  1823  1822    1
  2000   326   327   ar
  2001  1831  1832   ar
  2002  1032  1030    1
  2003   277   278   ar
  2004   277   276    1
  2005   654   640    1
  2006   654   672    1
  2007  1271  1272    1
  2008  1271  1273   ar
  2009   615   614    1
  2010   615   620    1
  2011  1650  1639    1
  2012  1650  1649   ar
  2013   268   270    1
  2014  1553  1551    1
  2015  1396  1398    1
  2016  1396  1394    1
  2017  1030  1028    1
  2018  1250  1249    1
  2019  1557  1555   ar
  2020  1638  1637    1
  2021   636   635    1
  2022  1050  1068    1
  2023   643   641    1
  2024   643   638    1
  2025   308   287    2
  2026   641   639    1
  2027   641   642    1
  2028  1648  1649   ar
  2029   278   279    2
  2030  1399  1398    1
  2031  1399  1406   ar
  2032  1623  1624   ar
  2033  1623  1621   ar
  2034  1603  1597   ar
  2035  1603  1602   ar
  2036   338   340    1
  2037   338   339    1
  2038   338   336    1
  2039   639   640    1
  2040   639   637    1
  2041  1582  1583   ar
  2042  1582  1579   ar
  2043   620   618    1
  2044   321   322   ar
  2045  1624  1626   ar
  2046  1639  1637    1
  2047  1639  1634    1
  2048   305   306   ar
  2049  1674  1653    2
  2050   322   328   ar
  2051   340   335    1
  2052  1296  1295   ar
  2053  1296  1302   ar
  2054   271   270    1
  2055   271   276    1
  2056  1887  1886    1
  2057   298   299   ar
  2058  1834  1840   ar
  2059  1834  1833   ar
  2060  1888  1889    1
  2061  1888  1886    1
  2062  1551  1552    1
  2063  1363  1362    1
  2064  1384  1383    1
  2065  1555  1556    2
  2066  1840  1830    1
  2067  1398  1393    1
  2068  1405  1406   ar
  2069  1274  1273   ar
  2070  1274  1280   ar
  2071  1301  1302   ar
  2072   618   619    1
  2073  1279  1280   ar
  2074  1659  1658    1
  2075   638   637    1
  2076  1605  1602   ar
  2077  1605  1606   ar
  2078   300   306   ar
  2079   300   299   ar
  2080  1013  1027    1
  2081  1343  1341   ar
  2082  1343  1344   ar
  2083  1873  1880   ar
  2084  1873  1872    1
  2085  1580  1579   ar
  2086  1580  1574   ar
  2087  1341  1340   ar
  2088  1409  1430    2
  2089  1409  1395    1
  2090  1409  1431    1
  2091  1925  1906    2
  2092  1636  1653    1
  2093  1636  1635    1
  2094  1566  1565    1
  2095  1282  1260    2
  2096   270   272    1
  2097  1658  1656    1
  2098  1658  1660    1
  2099  1241  1243    1
  2100  1597  1598   ar
  2101   276   274    1
  2102  1854  1855    2
  2103  1854  1853   ar
  2104  1395  1394    1
  2105  1346  1327    2
  2106  1637  1635    1
  2107  1654  1656    1
  2108  1654  1655    1
  2109  1906  1889    1
  2110  1906  1924    1
  2111  1583  1584   ar
  2112  1862  1843    2
  2113  1602  1601   ar
  2114  1860  1853   ar
  2115  1832  1833   ar
  2116   272   274    1
  2117   272   273    1
  2118   353   372    2
  2119   353   337    1
  2120   353   371    1
  2121  1394  1392    1
  2122  1029  1028    1
  2123  1029  1027    1
  2124  1579  1578   ar
  2125   327   328   ar
  2126  1822  1824    1
  2127  1622  1621    2
  2128   637   635    1
  2129  1634  1633    1
  2130  1049  1027    2
  2131   336   337    1
  2132   336   334    1
  2133  1244  1249    1
  2134  1244  1243    1
  2135  1621  1620   ar
  2136   306   296    1
  2137  1302  1292    1
  2138  1886  1884    1
  2139  1825  1830    1
  2140  1825  1824    1
  2141  1249  1247    1
  2142  1280  1269    1
  2143  1653  1655    1
  2144  1653  1675    1
  2145  1382  1383   ar
  2146  1382  1380   ar
  2147   328   318    1
  2148  1626  1627   ar
  2149  1383  1385   ar
  2150   287   273    1
  2151   287   289    1
  2152   287   307    1
  2153  1027  1048    1
  2154  1853  1852    1
  2155  1830  1828    1
  2156  1635  1633    1
  2157  1243  1245    1
  2158  1245  1247    1
  2159  1245  1246    1
  2160   335   334    1
  2161  1656  1657    1
  2162  1362  1357   ar
  2163  1362  1361   ar
  2164  1660  1661    1
  2165  1660  1662    1
  2166   274   275    1
  2167  1606  1607   ar
  2168  1344  1337   ar
  2169  1393  1392    1
  2170  1574  1575   ar
  2171  1340  1338   ar
  2172  1824  1826    1
  2173  1872  1870    1
  2174  1872  1867    1
  2175   289   288    1
  2176  1826  1828    1
  2177  1826  1827    1
  2178  1565  1567    1
  2179  1633  1631    1
  2180  1357  1358   ar
  2181  1885  1884    1
  2182  1885  1883    1
  2183  1392  1390    1
  2184  1247  1248    1
  2185  1672  1671   ar
  2186  1672  1673   ar
  2187  1870  1871    1
  2188  1870  1868    1
  2189  1598  1599    1
  2190  1598  1600   ar
  2191  1260  1246    1
  2192  1260  1262    1
  2193  1260  1281    1
  2194  1584  1578   ar
  2195  1584  1573    1
  2196   330   309    2
  2197  1327  1329    1
  2198  1327  1345    1
  2199  1327  1311    1
  2200  1578  1577   ar
  2201   334   332    1
  2202  1601  1607   ar
  2203  1601  1600   ar
  2204  1291  1290    1
  2205  1381  1380    2
  2206  1380  1379   ar
  2207  1620  1627   ar
  2208  1620  1619    1
  2209  1843  1827    1
  2210  1843  1845    1
  2211  1843  1861    1
  2212  1828  1829    1
  2213  1657  1662    1
  2214  1609  1587    2
  2215  1364  1361   ar
  2216  1364  1365   ar
  2217  1905  1883    2
  2218  1385  1386   ar
  2219  1329  1328    1
  2220  1292  1290    1
  2221  1292  1287    1
  2222  1671  1668   ar
  2223  1361  1360   ar
  2224   296   291    1
  2225   296   294    1
  2226  1262  1261    1
  2227   333   332    1
  2228   333   331    1
  2229   318   316    1
  2230   318   313    1
  2231  1269  1264    1
  2232  1269  1267    1
  2233  1662  1673    1
  2234   352   331    2
  2235  1607  1596    1
  2236   291   290    1
  2237  1568  1567    1
  2238  1568  1573    1
  2239  1290  1288    1
  2240   316   314    1
  2241   316   317    1
  2242  1673  1667   ar
  2243  1337  1338   ar
  2244  1337  1336    1
  2245  1845  1844    1
  2246  1338  1339    2
  2247  1867  1866    1
  2248  1868  1869    1
  2249  1868  1866    1
  2250  1882  1863    2
  2251  1852  1847    1
  2252  1852  1850    1
  2253  1567  1569    1
  2254  1575  1577   ar
  2255  1575  1576    1
  2256  1304  1283    2
  2257  1569  1570    1
  2258  1569  1571    1
  2259  1311  1310    1
  2260  1883  1869    1
  2261  1883  1904    1
  2262   292   294    1
  2263   292   290    1
  2264   292   293    1
  2265  1264  1263    1
  2266   294   295    1
  2267  1358  1359   ar
  2268  1573  1571    1
  2269   288   290    1
  2270  1391  1390    1
  2271  1391  1389    1
  2272  1631  1632    1
  2273  1368  1347    2
  2274   314   315    1
  2275   314   312    1
  2276  1267  1265    1
  2277  1267  1268    1
  2278   311   309    1
  2279   311   310    1
  2280  1287  1286    1
  2281  1379  1386   ar
  2282  1379  1378    1
  2283  1847  1846    1
  2284  1632  1630    1
  2285  1619  1617    1
  2286  1619  1614    1
  2287   309   293    1
  2288   309   329    1
  2289  1313  1312    1
  2290   313   312    1
  2291   331   315    1
  2292   331   351    1
  2293  1850  1848    1
  2294  1850  1851    1
  2295  1865  1863    1
  2296  1865  1864    1
  2297  1265  1263    1
  2298  1265  1266    1
  2299  1365  1366   ar
  2300  1668  1667   ar
  2301  1668  1669   ar
  2302  1587  1570    1
  2303  1587  1608    1
  2304  1587  1589    1
  2305  1617  1618    1
  2306  1617  1615    1
  2307  1848  1846    1
  2308  1848  1849    1
  2309  1328  1330    1
  2310  1360  1359   ar
  2311  1360  1366   ar
  2312  1866  1864    1
  2313  1571  1572    1
  2314  1331  1336    1
  2315  1331  1330    1
  2316  1667  1666   ar
  2317  1261  1263    1
  2318  1408  1389    2
  2319  1310  1312    1
  2320  1310  1308    1
  2321  1332  1330    1
  2322  1332  1334    1
  2323  1332  1333    1
  2324  1863  1849    1
  2325  1863  1881    1
  2326  1336  1334    1
  2327  1596  1591    1
  2328  1596  1594    1
  2329  1285  1283    1
  2330  1285  1284    1
  2331  1591  1590    1
  2332  1844  1846    1
  2333   312   310    1
  2334  1288  1286    1
  2335  1288  1289    1
  2336  1376  1378    1
  2337  1376  1377    1
  2338  1376  1374    1
  2339  1283  1266    1
  2340  1283  1303    1
  2341  1366  1356    1
  2342  1312  1314    1
  2343  1378  1373    1
  2344  1389  1407    1
  2345  1389  1375    1
  2346  1670  1669    2
  2347  1669  1663   ar
  2348  1286  1284    1
  2349  1615  1616    1
  2350  1615  1613    1
  2351  1334  1335    1
  2352  1588  1589    1
  2353  1588  1590    1
  2354  1614  1613    1
  2355  1652  1630    2
  2356  1347  1333    1
  2357  1347  1349    1
  2358  1347  1367    1
  2359  1289  1305    1
  2360  1629  1610    2
  2361  1630  1616    1
  2362  1630  1651    1
  2363  1592  1594    1
  2364  1592  1590    1
  2365  1592  1593    1
  2366  1594  1595    1
  2367  1666  1664   ar
  2368  1388  1369    2
  2369  1374  1375    1
  2370  1374  1372    1
  2371  1308  1306    1
  2372  1308  1309    1
  2373  1349  1348    1
  2374  1612  1610    1
  2375  1612  1611    1
  2376  1314  1309    1
  2377  1314  1324    1
  2378  1613  1611    1
  2379  1663  1664   ar
  2380  1317  1316   ar
  2381  1317  1318   ar
  2382  1373  1372    1
  2383  1664  1665    1
  2384  1306  1307    1
  2385  1610  1593    1
  2386  1610  1628    1
  2387  1356  1354    1
  2388  1356  1351    1
  2389  1371  1369    1
  2390  1371  1370    1
  2391  1316  1315   ar
  2392  1354  1352    1
  2393  1354  1355    1
  2394  1352  1350    1
  2395  1352  1353    1
  2396  1372  1370    1
  2397  1369  1353    1
  2398  1369  1387    1
  2399  1305  1307    1
  2400  1305  1325    2
  2401  1305  1326    1
  2402  1351  1350    1
  2403  1324  1318   ar
  2404  1324  1323   ar
  2405  1318  1319   ar
  2406  1348  1350    1
  2407  1315  1320   ar
  2408  1323  1322   ar
  2409  1319  1320   ar
  2410  1319  1322   ar
  2411  1320  1321    1
