lig.pdb
 OpenBabel03051820513D

 27 30  0  0  1  0  0  0  0  0999 V2000
   27.7370   35.5150   19.6320 N   0  0  0  0  0  0  0  0  0  0  0  0
   28.0170   36.7280   20.0400 C   0  0  0  0  0  0  0  0  0  0  0  0
   27.7650   37.2050   21.2850 N   0  0  0  0  0  0  0  0  0  0  0  0
   27.2230   36.3600   22.2120 C   0  0  0  0  0  0  0  0  0  0  0  0
   26.9250   35.0690   21.8820 C   0  0  0  0  0  0  0  0  0  0  0  0
   27.1710   34.6150   20.5340 C   0  0  0  0  0  0  0  0  0  0  0  0
   26.8790   33.4770   20.1460 O   0  0  0  0  0  0  0  0  0  0  0  0
   28.5090   37.8360   19.0830 C   0  0  2  0  0  0  0  0  0  0  0  0
   27.9550   39.1050   19.7510 C   0  0  0  0  0  0  0  0  0  0  0  0
   28.0890   40.2770   18.8840 N   0  0  0  0  0  0  0  0  0  0  0  0
   27.2950   40.0650   17.6630 C   0  0  0  0  0  0  0  0  0  0  0  0
   27.8250   38.8840   16.8740 C   0  0  0  0  0  0  0  0  0  0  0  0
   27.8280   37.6190   17.7210 C   0  0  0  0  0  0  0  0  0  0  0  0
   27.0490   36.9960   23.5110 C   0  0  0  0  0  0  0  0  0  0  0  0
   27.4580   38.6520   23.7670 S   0  0  0  0  0  0  0  0  0  0  0  0
   27.0220   38.5740   25.3840 C   0  0  0  0  0  0  0  0  0  0  0  0
   26.5410   37.3690   25.7150 C   0  0  0  0  0  0  0  0  0  0  0  0
   26.5560   36.4450   24.6520 C   0  0  0  0  0  0  0  0  0  0  0  0
   27.6660   41.5150   19.5620 C   0  0  0  0  0  0  0  0  0  0  0  0
   27.9410   41.5750   21.0480 C   0  0  0  0  0  0  0  0  0  0  0  0
   26.9140   41.7750   21.9590 C   0  0  0  0  0  0  0  0  0  0  0  0
   27.0940   42.1900   23.2260 N   0  0  0  0  0  0  0  0  0  0  0  0
   28.3560   42.4390   23.5420 C   0  0  0  0  0  0  0  0  0  0  0  0
   29.4310   42.3360   22.7770 N   0  0  0  0  0  0  0  0  0  0  0  0
   29.1880   41.9240   21.5240 C   0  0  0  0  0  0  0  0  0  0  0  0
   28.5300   42.8600   24.8000 O   0  0  0  0  0  0  0  0  0  0  0  0
   29.8670   43.1590   25.2180 C   0  0  0  0  0  0  0  0  0  0  0  0
  1  2  2  0  0  0  0
  1  6  1  0  0  0  0
  2  3  1  0  0  0  0
  3  4  2  0  0  0  0
  4 14  1  0  0  0  0
  5  4  1  0  0  0  0
  6  5  1  0  0  0  0
  7  6  2  0  0  0  0
  8  9  1  0  0  0  0
  8  2  1  1  0  0  0
 10 19  1  0  0  0  0
 10  9  1  0  0  0  0
 11 10  1  0  0  0  0
 12 11  1  0  0  0  0
 12 13  1  0  0  0  0
 13  8  1  0  0  0  0
 14 15  1  0  0  0  0
 14 18  2  0  0  0  0
 15 16  1  0  0  0  0
 16 17  2  0  0  0  0
 18 17  1  0  0  0  0
 19 20  1  0  0  0  0
 20 25  2  0  0  0  0
 20 21  1  0  0  0  0
 21 22  2  0  0  0  0
 22 23  1  0  0  0  0
 23 26  1  0  0  0  0
 24 23  2  0  0  0  0
 25 24  1  0  0  0  0
 26 27  1  0  0  0  0
M  END
$$$$
