lig.pdb
 OpenBabel11021811523D
libRbt.so/2013.1/901 2013/11/27
 27 30  0  0  0  0  0  0  0  0999 V2000
   27.9076   35.5679   19.9402 N   0  0  0  0  0  0  0  0  0  0  0  0
   28.2064   36.7780   20.3436 C   0  0  0  0  0  0  0  0  0  0  0  0
   27.8897   37.2906   21.5593 N   0  0  0  0  0  0  0  0  0  0  0  0
   27.2539   36.4865   22.4628 C   0  0  0  0  0  0  0  0  0  0  0  0
   26.9289   35.2009   22.1375 C   0  0  0  0  0  0  0  0  0  0  0  0
   27.2475   34.7093   20.8182 C   0  0  0  0  0  0  0  0  0  0  0  0
   26.9383   33.5750   20.4326 O   0  0  0  0  0  0  0  0  0  0  0  0
   28.8046   37.8461   19.4018 C   0  0  2  0  0  0  0  0  0  0  0  0
   27.9890   39.0947   19.7750 C   0  0  0  0  0  0  0  0  0  0  0  0
   28.2137   40.1913   18.8315 N   0  0  0  0  0  0  0  0  0  0  0  0
   27.7577   39.7766   17.4950 C   0  0  0  0  0  0  0  0  0  0  0  0
   28.5706   38.6012   16.9892 C   0  0  0  0  0  0  0  0  0  0  0  0
   28.4919   37.4272   17.9552 C   0  0  0  0  0  0  0  0  0  0  0  0
   27.0175   37.1562   23.7348 C   0  0  0  0  0  0  0  0  0  0  0  0
   27.4747   38.8000   23.9878 S   0  0  0  0  0  0  0  0  0  0  0  0
   26.9265   38.7733   25.5720 C   0  0  0  0  0  0  0  0  0  0  0  0
   26.3757   37.5953   25.8912 C   0  0  0  0  0  0  0  0  0  0  0  0
   26.4259   36.6491   24.8489 C   0  0  0  0  0  0  0  0  0  0  0  0
   27.5253   41.4259   19.2478 C   0  0  0  0  0  0  0  0  0  0  0  0
   27.8635   41.9293   20.6333 C   0  0  0  0  0  0  0  0  0  0  0  0
   29.1739   41.9488   21.0882 C   0  0  0  0  0  0  0  0  0  0  0  0
   29.5259   42.0343   22.3839 N   0  0  0  0  0  0  0  0  0  0  0  0
   28.5024   42.0608   23.2243 C   0  0  0  0  0  0  0  0  0  0  0  0
   27.2094   42.0087   22.9473 N   0  0  0  0  0  0  0  0  0  0  0  0
   26.9208   41.9182   21.6406 C   0  0  0  0  0  0  0  0  0  0  0  0
   28.8566   42.1368   24.5123 O   0  0  0  0  0  0  0  0  0  0  0  0
   29.5748   43.3026   24.9326 C   0  0  0  0  0  0  0  0  0  0  0  0
  1  2  2  0  0  0  0
  1  6  1  0  0  0  0
  2  3  1  0  0  0  0
  3  4  2  0  0  0  0
  4 14  1  0  0  0  0
  5  4  1  0  0  0  0
  6  5  1  0  0  0  0
  7  6  2  0  0  0  0
  8  9  1  0  0  0  0
  8  2  1  1  0  0  0
 10 19  1  0  0  0  0
 10  9  1  0  0  0  0
 11 10  1  0  0  0  0
 12 11  1  0  0  0  0
 12 13  1  0  0  0  0
 13  8  1  0  0  0  0
 14 15  1  0  0  0  0
 14 18  2  0  0  0  0
 15 16  1  0  0  0  0
 16 17  2  0  0  0  0
 18 17  1  0  0  0  0
 19 20  1  0  0  0  0
 20 25  2  0  0  0  0
 20 21  1  0  0  0  0
 21 22  2  0  0  0  0
 22 23  1  0  0  0  0
 23 26  1  0  0  0  0
 24 23  2  0  0  0  0
 25 24  1  0  0  0  0
 26 27  1  0  0  0  0
M  END
>  <CHROM.1>
1.65539002,135.92022109,55.90048316,43.42735625,62.59498340,27.83529061,38.91442726
21.68329348,2.07921672,-1.33204134,-2.13567463

>  <Name>
lig.pdb

>  <RI>
0

>  <Rbt.Current_Directory>
/home/itssahil/PROJECTS/Mol_Feturizer/New_Systems/rnas/5kx9

>  <Rbt.Executable>
rbdock ($Id: //depot/dev/client3/rdock/2013.1/src/exe/rbdock.cxx#4 $)

>  <Rbt.Library>
libRbt.so (2013.1, Build901 2013/11/27)

>  <Rbt.Parameter_File>
/export/apps/rDock/src/rDock_2013.1_src/data/scripts/dock_solv.prm

>  <Rbt.Receptor>
prm/pocket_docking_8.prm

>  <SCORE>
-37.2537

>  <SCORE.INTER>
-34.3163

>  <SCORE.INTER.CONST>
1

>  <SCORE.INTER.POLAR>
0

>  <SCORE.INTER.ROT>
5

>  <SCORE.INTER.SOLV>
12.4389

>  <SCORE.INTER.VDW>
-33.9571

>  <SCORE.INTER.norm>
-1.27097

>  <SCORE.INTRA>
-2.93744

>  <SCORE.INTRA.DIHEDRAL>
2.93405

>  <SCORE.INTRA.DIHEDRAL.0>
2.68224

>  <SCORE.INTRA.POLAR>
0

>  <SCORE.INTRA.POLAR.0>
0

>  <SCORE.INTRA.REPUL>
0

>  <SCORE.INTRA.REPUL.0>
0

>  <SCORE.INTRA.SOLV>
0.363714

>  <SCORE.INTRA.SOLV.lig_0>
-19.4148

>  <SCORE.INTRA.VDW>
-4.58632

>  <SCORE.INTRA.VDW.0>
5.42093

>  <SCORE.INTRA.norm>
-0.108794

>  <SCORE.RESTR>
0

>  <SCORE.RESTR.CAVITY>
0

>  <SCORE.RESTR.norm>
0

>  <SCORE.SYSTEM>
0

>  <SCORE.SYSTEM.CONST>
0

>  <SCORE.SYSTEM.DIHEDRAL>
0

>  <SCORE.SYSTEM.SOLV>
0

>  <SCORE.SYSTEM.norm>
0

>  <SCORE.heavy>
27

>  <SCORE.norm>
-1.37977

>  <RMSD>
0.437

$$$$
lig.pdb
 OpenBabel11021811523D
libRbt.so/2013.1/901 2013/11/27
 27 30  0  0  0  0  0  0  0  0999 V2000
   27.9716   35.5172   20.0235 N   0  0  0  0  0  0  0  0  0  0  0  0
   28.1396   36.7555   20.4168 C   0  0  0  0  0  0  0  0  0  0  0  0
   27.7459   37.2478   21.6183 N   0  0  0  0  0  0  0  0  0  0  0  0
   27.1725   36.3947   22.5187 C   0  0  0  0  0  0  0  0  0  0  0  0
   26.9841   35.0795   22.2038 C   0  0  0  0  0  0  0  0  0  0  0  0
   27.3800   34.6071   20.8985 C   0  0  0  0  0  0  0  0  0  0  0  0
   27.1937   33.4435   20.5217 O   0  0  0  0  0  0  0  0  0  0  0  0
   28.6503   37.8671   19.4738 C   0  0  2  0  0  0  0  0  0  0  0  0
   27.9337   39.1098   20.0266 C   0  0  0  0  0  0  0  0  0  0  0  0
   28.0749   40.2601   19.1320 N   0  0  0  0  0  0  0  0  0  0  0  0
   27.4378   39.9474   17.8426 C   0  0  0  0  0  0  0  0  0  0  0  0
   28.1374   38.7865   17.1635 C   0  0  0  0  0  0  0  0  0  0  0  0
   28.1411   37.5536   18.0566 C   0  0  0  0  0  0  0  0  0  0  0  0
   26.8417   37.0519   23.7760 C   0  0  0  0  0  0  0  0  0  0  0  0
   27.2681   38.6964   24.0741 S   0  0  0  0  0  0  0  0  0  0  0  0
   26.6093   38.6526   25.6152 C   0  0  0  0  0  0  0  0  0  0  0  0
   26.0457   37.4683   25.8850 C   0  0  0  0  0  0  0  0  0  0  0  0
   26.1763   36.5314   24.8414 C   0  0  0  0  0  0  0  0  0  0  0  0
   27.4894   41.4825   19.7100 C   0  0  0  0  0  0  0  0  0  0  0  0
   27.9264   41.8154   21.1191 C   0  0  0  0  0  0  0  0  0  0  0  0
   26.9965   42.0173   22.1286 C   0  0  0  0  0  0  0  0  0  0  0  0
   27.2593   42.6496   23.2867 N   0  0  0  0  0  0  0  0  0  0  0  0
   28.4959   43.1143   23.3835 C   0  0  0  0  0  0  0  0  0  0  0  0
   29.4752   43.0371   22.4966 N   0  0  0  0  0  0  0  0  0  0  0  0
   29.1518   42.4015   21.3607 C   0  0  0  0  0  0  0  0  0  0  0  0
   28.7508   43.7502   24.5327 O   0  0  0  0  0  0  0  0  0  0  0  0
   29.8457   43.2731   25.3234 C   0  0  0  0  0  0  0  0  0  0  0  0
  1  2  2  0  0  0  0
  1  6  1  0  0  0  0
  2  3  1  0  0  0  0
  3  4  2  0  0  0  0
  4 14  1  0  0  0  0
  5  4  1  0  0  0  0
  6  5  1  0  0  0  0
  7  6  2  0  0  0  0
  8  9  1  0  0  0  0
  8  2  1  1  0  0  0
 10 19  1  0  0  0  0
 10  9  1  0  0  0  0
 11 10  1  0  0  0  0
 12 11  1  0  0  0  0
 12 13  1  0  0  0  0
 13  8  1  0  0  0  0
 14 15  1  0  0  0  0
 14 18  2  0  0  0  0
 15 16  1  0  0  0  0
 16 17  2  0  0  0  0
 18 17  1  0  0  0  0
 19 20  1  0  0  0  0
 20 25  2  0  0  0  0
 20 21  1  0  0  0  0
 21 22  2  0  0  0  0
 22 23  1  0  0  0  0
 23 26  1  0  0  0  0
 24 23  2  0  0  0  0
 25 24  1  0  0  0  0
 26 27  1  0  0  0  0
M  END
>  <CHROM.1>
-4.45382520,148.19879108,50.61874224,-125.55567757,123.66090467,27.74708129
39.06783990,21.85174811,-2.19636669,1.33000924,0.97891093

>  <Name>
lig.pdb

>  <RI>
0

>  <Rbt.Current_Directory>
/home/itssahil/PROJECTS/Mol_Feturizer/New_Systems/rnas/5kx9

>  <Rbt.Executable>
rbdock ($Id: //depot/dev/client3/rdock/2013.1/src/exe/rbdock.cxx#4 $)

>  <Rbt.Library>
libRbt.so (2013.1, Build901 2013/11/27)

>  <Rbt.Parameter_File>
/export/apps/rDock/src/rDock_2013.1_src/data/scripts/dock_solv.prm

>  <Rbt.Receptor>
prm/pocket_docking_2.prm

>  <SCORE>
-39.0914

>  <SCORE.INTER>
-37.8753

>  <SCORE.INTER.CONST>
1

>  <SCORE.INTER.POLAR>
0

>  <SCORE.INTER.ROT>
5

>  <SCORE.INTER.SOLV>
15.5816

>  <SCORE.INTER.VDW>
-37.3774

>  <SCORE.INTER.norm>
-1.40279

>  <SCORE.INTRA>
-1.21607

>  <SCORE.INTRA.DIHEDRAL>
2.71928

>  <SCORE.INTRA.DIHEDRAL.0>
2.68224

>  <SCORE.INTRA.POLAR>
0

>  <SCORE.INTRA.POLAR.0>
0

>  <SCORE.INTRA.REPUL>
0

>  <SCORE.INTRA.REPUL.0>
0

>  <SCORE.INTRA.SOLV>
-0.324386

>  <SCORE.INTRA.SOLV.lig_0>
-19.4148

>  <SCORE.INTRA.VDW>
-2.41352

>  <SCORE.INTRA.VDW.0>
5.42093

>  <SCORE.INTRA.norm>
-0.0450397

>  <SCORE.RESTR>
0

>  <SCORE.RESTR.CAVITY>
0

>  <SCORE.RESTR.norm>
0

>  <SCORE.SYSTEM>
0

>  <SCORE.SYSTEM.CONST>
0

>  <SCORE.SYSTEM.DIHEDRAL>
0

>  <SCORE.SYSTEM.SOLV>
0

>  <SCORE.SYSTEM.norm>
0

>  <SCORE.heavy>
27

>  <SCORE.norm>
-1.44783

>  <RMSD>
0.454

$$$$
lig.pdb
 OpenBabel11021811523D
libRbt.so/2013.1/901 2013/11/27
 27 30  0  0  0  0  0  0  0  0999 V2000
   27.9403   35.5575   19.9549 N   0  0  0  0  0  0  0  0  0  0  0  0
   28.1143   36.7897   20.3645 C   0  0  0  0  0  0  0  0  0  0  0  0
   27.7336   37.2649   21.5771 N   0  0  0  0  0  0  0  0  0  0  0  0
   27.1680   36.3996   22.4707 C   0  0  0  0  0  0  0  0  0  0  0  0
   26.9744   35.0894   22.1386 C   0  0  0  0  0  0  0  0  0  0  0  0
   27.3562   34.6356   20.8226 C   0  0  0  0  0  0  0  0  0  0  0  0
   27.1643   33.4778   20.4307 O   0  0  0  0  0  0  0  0  0  0  0  0
   28.6171   37.9142   19.4327 C   0  0  2  0  0  0  0  0  0  0  0  0
   27.9030   39.1487   20.0068 C   0  0  0  0  0  0  0  0  0  0  0  0
   28.0366   40.3108   19.1265 N   0  0  0  0  0  0  0  0  0  0  0  0
   27.3909   40.0143   17.8376 C   0  0  0  0  0  0  0  0  0  0  0  0
   28.0871   38.8633   17.1384 C   0  0  0  0  0  0  0  0  0  0  0  0
   28.0984   37.6188   18.0151 C   0  0  0  0  0  0  0  0  0  0  0  0
   26.8512   37.0388   23.7408 C   0  0  0  0  0  0  0  0  0  0  0  0
   27.2721   38.6819   24.0539 S   0  0  0  0  0  0  0  0  0  0  0  0
   26.6353   38.6146   25.6033 C   0  0  0  0  0  0  0  0  0  0  0  0
   26.0824   37.4237   25.8658 C   0  0  0  0  0  0  0  0  0  0  0  0
   26.2038   36.5009   24.8086 C   0  0  0  0  0  0  0  0  0  0  0  0
   27.4538   41.5248   19.7246 C   0  0  0  0  0  0  0  0  0  0  0  0
   27.9352   41.8650   21.1174 C   0  0  0  0  0  0  0  0  0  0  0  0
   27.0371   42.0939   22.1497 C   0  0  0  0  0  0  0  0  0  0  0  0
   27.3425   42.7338   23.2930 N   0  0  0  0  0  0  0  0  0  0  0  0
   28.5891   43.1779   23.3507 C   0  0  0  0  0  0  0  0  0  0  0  0
   29.5421   43.0741   22.4382 N   0  0  0  0  0  0  0  0  0  0  0  0
   29.1767   42.4321   21.3188 C   0  0  0  0  0  0  0  0  0  0  0  0
   28.8865   43.8214   24.4853 O   0  0  0  0  0  0  0  0  0  0  0  0
   30.0919   43.4458   25.1619 C   0  0  0  0  0  0  0  0  0  0  0  0
  1  2  2  0  0  0  0
  1  6  1  0  0  0  0
  2  3  1  0  0  0  0
  3  4  2  0  0  0  0
  4 14  1  0  0  0  0
  5  4  1  0  0  0  0
  6  5  1  0  0  0  0
  7  6  2  0  0  0  0
  8  9  1  0  0  0  0
  8  2  1  1  0  0  0
 10 19  1  0  0  0  0
 10  9  1  0  0  0  0
 11 10  1  0  0  0  0
 12 11  1  0  0  0  0
 12 13  1  0  0  0  0
 13  8  1  0  0  0  0
 14 15  1  0  0  0  0
 14 18  2  0  0  0  0
 15 16  1  0  0  0  0
 16 17  2  0  0  0  0
 18 17  1  0  0  0  0
 19 20  1  0  0  0  0
 20 25  2  0  0  0  0
 20 21  1  0  0  0  0
 21 22  2  0  0  0  0
 22 23  1  0  0  0  0
 23 26  1  0  0  0  0
 24 23  2  0  0  0  0
 25 24  1  0  0  0  0
 26 27  1  0  0  0  0
M  END
>  <CHROM.1>
-3.96584942,147.94413122,52.57425601,-127.54359842,131.48083241,27.76206285
39.10379370,21.81465843,-2.28965196,1.32637504,1.05236618

>  <Name>
lig.pdb

>  <RI>
0

>  <Rbt.Current_Directory>
/home/itssahil/PROJECTS/Mol_Feturizer/New_Systems/rnas/5kx9

>  <Rbt.Executable>
rbdock ($Id: //depot/dev/client3/rdock/2013.1/src/exe/rbdock.cxx#4 $)

>  <Rbt.Library>
libRbt.so (2013.1, Build901 2013/11/27)

>  <Rbt.Parameter_File>
/export/apps/rDock/src/rDock_2013.1_src/data/scripts/dock_solv.prm

>  <Rbt.Receptor>
prm/pocket_docking_2.prm

>  <SCORE>
-39.0602

>  <SCORE.INTER>
-37.7682

>  <SCORE.INTER.CONST>
1

>  <SCORE.INTER.POLAR>
0

>  <SCORE.INTER.ROT>
5

>  <SCORE.INTER.SOLV>
15.7008

>  <SCORE.INTER.VDW>
-37.3457

>  <SCORE.INTER.norm>
-1.39882

>  <SCORE.INTRA>
-1.29197

>  <SCORE.INTRA.DIHEDRAL>
2.06762

>  <SCORE.INTRA.DIHEDRAL.0>
2.68224

>  <SCORE.INTRA.POLAR>
0

>  <SCORE.INTRA.POLAR.0>
0

>  <SCORE.INTRA.REPUL>
0

>  <SCORE.INTRA.REPUL.0>
0

>  <SCORE.INTRA.SOLV>
-0.350568

>  <SCORE.INTRA.SOLV.lig_0>
-19.4148

>  <SCORE.INTRA.VDW>
-2.1505

>  <SCORE.INTRA.VDW.0>
5.42093

>  <SCORE.INTRA.norm>
-0.0478508

>  <SCORE.RESTR>
0

>  <SCORE.RESTR.CAVITY>
0

>  <SCORE.RESTR.norm>
0

>  <SCORE.SYSTEM>
0

>  <SCORE.SYSTEM.CONST>
0

>  <SCORE.SYSTEM.DIHEDRAL>
0

>  <SCORE.SYSTEM.SOLV>
0

>  <SCORE.SYSTEM.norm>
0

>  <SCORE.heavy>
27

>  <SCORE.norm>
-1.44667

>  <RMSD>
0.462

$$$$
lig.pdb
 OpenBabel11021811523D
libRbt.so/2013.1/901 2013/11/27
 27 30  0  0  0  0  0  0  0  0999 V2000
   27.9271   35.8028   19.8080 N   0  0  0  0  0  0  0  0  0  0  0  0
   28.1666   37.0208   20.2266 C   0  0  0  0  0  0  0  0  0  0  0  0
   27.8575   37.4914   21.4612 N   0  0  0  0  0  0  0  0  0  0  0  0
   27.2978   36.6347   22.3666 C   0  0  0  0  0  0  0  0  0  0  0  0
   27.0389   35.3383   22.0252 C   0  0  0  0  0  0  0  0  0  0  0  0
   27.3454   34.8906   20.6875 C   0  0  0  0  0  0  0  0  0  0  0  0
   27.0917   33.7473   20.2885 O   0  0  0  0  0  0  0  0  0  0  0  0
   28.6722   38.1395   19.2893 C   0  0  2  0  0  0  0  0  0  0  0  0
   28.0136   39.3885   19.8975 C   0  0  0  0  0  0  0  0  0  0  0  0
   28.1532   40.5550   19.0240 N   0  0  0  0  0  0  0  0  0  0  0  0
   27.4580   40.2905   17.7540 C   0  0  0  0  0  0  0  0  0  0  0  0
   28.0971   39.1268   17.0221 C   0  0  0  0  0  0  0  0  0  0  0  0
   28.0998   37.8737   17.8867 C   0  0  0  0  0  0  0  0  0  0  0  0
   27.0613   37.2658   23.6581 C   0  0  0  0  0  0  0  0  0  0  0  0
   26.1603   36.4743   24.8978 S   0  0  0  0  0  0  0  0  0  0  0  0
   26.3208   37.7817   25.9350 C   0  0  0  0  0  0  0  0  0  0  0  0
   27.0621   38.7588   25.3976 C   0  0  0  0  0  0  0  0  0  0  0  0
   27.4907   38.4833   24.0845 C   0  0  0  0  0  0  0  0  0  0  0  0
   27.6259   41.7794   19.6517 C   0  0  0  0  0  0  0  0  0  0  0  0
   28.0506   42.0167   21.0837 C   0  0  0  0  0  0  0  0  0  0  0  0
   27.1121   42.2250   22.0840 C   0  0  0  0  0  0  0  0  0  0  0  0
   27.3861   42.7834   23.2769 N   0  0  0  0  0  0  0  0  0  0  0  0
   28.6456   43.1675   23.4205 C   0  0  0  0  0  0  0  0  0  0  0  0
   29.6381   43.0745   22.5499 N   0  0  0  0  0  0  0  0  0  0  0  0
   29.3029   42.5153   21.3778 C   0  0  0  0  0  0  0  0  0  0  0  0
   28.9122   43.7304   24.6046 O   0  0  0  0  0  0  0  0  0  0  0  0
   30.0821   43.2841   25.3002 C   0  0  0  0  0  0  0  0  0  0  0  0
  1  2  2  0  0  0  0
  1  6  1  0  0  0  0
  2  3  1  0  0  0  0
  3  4  2  0  0  0  0
  4 14  1  0  0  0  0
  5  4  1  0  0  0  0
  6  5  1  0  0  0  0
  7  6  2  0  0  0  0
  8  9  1  0  0  0  0
  8  2  1  1  0  0  0
 10 19  1  0  0  0  0
 10  9  1  0  0  0  0
 11 10  1  0  0  0  0
 12 11  1  0  0  0  0
 12 13  1  0  0  0  0
 13  8  1  0  0  0  0
 14 15  1  0  0  0  0
 14 18  2  0  0  0  0
 15 16  1  0  0  0  0
 16 17  2  0  0  0  0
 18 17  1  0  0  0  0
 19 20  1  0  0  0  0
 20 25  2  0  0  0  0
 20 21  1  0  0  0  0
 21 22  2  0  0  0  0
 22 23  1  0  0  0  0
 23 26  1  0  0  0  0
 24 23  2  0  0  0  0
 25 24  1  0  0  0  0
 26 27  1  0  0  0  0
M  END
>  <CHROM.1>
171.06584564,147.05433679,46.52735774,-125.69206572,132.83949482,27.78805529
39.13797709,21.80942126,-2.40837205,1.31362029,1.11540284

>  <Name>
lig.pdb

>  <RI>
0

>  <Rbt.Current_Directory>
/home/itssahil/PROJECTS/Mol_Feturizer/New_Systems/rnas/5kx9

>  <Rbt.Executable>
rbdock ($Id: //depot/dev/client3/rdock/2013.1/src/exe/rbdock.cxx#4 $)

>  <Rbt.Library>
libRbt.so (2013.1, Build901 2013/11/27)

>  <Rbt.Parameter_File>
/export/apps/rDock/src/rDock_2013.1_src/data/scripts/dock_solv.prm

>  <Rbt.Receptor>
prm/pocket_docking_2.prm

>  <SCORE>
-38.8193

>  <SCORE.INTER>
-37.9568

>  <SCORE.INTER.CONST>
1

>  <SCORE.INTER.POLAR>
0

>  <SCORE.INTER.ROT>
5

>  <SCORE.INTER.SOLV>
15.5853

>  <SCORE.INTER.VDW>
-37.4329

>  <SCORE.INTER.norm>
-1.40581

>  <SCORE.INTRA>
-0.862574

>  <SCORE.INTRA.DIHEDRAL>
2.35012

>  <SCORE.INTRA.DIHEDRAL.0>
2.68224

>  <SCORE.INTRA.POLAR>
0

>  <SCORE.INTRA.POLAR.0>
0

>  <SCORE.INTRA.REPUL>
0

>  <SCORE.INTRA.REPUL.0>
0

>  <SCORE.INTRA.SOLV>
-0.573901

>  <SCORE.INTRA.SOLV.lig_0>
-19.4148

>  <SCORE.INTRA.VDW>
-1.75068

>  <SCORE.INTRA.VDW.0>
5.42093

>  <SCORE.INTRA.norm>
-0.0319472

>  <SCORE.RESTR>
0

>  <SCORE.RESTR.CAVITY>
0

>  <SCORE.RESTR.norm>
0

>  <SCORE.SYSTEM>
0

>  <SCORE.SYSTEM.CONST>
0

>  <SCORE.SYSTEM.DIHEDRAL>
0

>  <SCORE.SYSTEM.SOLV>
0

>  <SCORE.SYSTEM.norm>
0

>  <SCORE.heavy>
27

>  <SCORE.norm>
-1.43775

>  <RMSD>
0.474

$$$$
lig.pdb
 OpenBabel11021811523D
libRbt.so/2013.1/901 2013/11/27
 27 30  0  0  0  0  0  0  0  0999 V2000
   27.8581   35.7950   19.7826 N   0  0  0  0  0  0  0  0  0  0  0  0
   28.1230   37.0068   20.2039 C   0  0  0  0  0  0  0  0  0  0  0  0
   27.8430   37.4745   21.4464 N   0  0  0  0  0  0  0  0  0  0  0  0
   27.2869   36.6206   22.3568 C   0  0  0  0  0  0  0  0  0  0  0  0
   27.0029   35.3302   22.0127 C   0  0  0  0  0  0  0  0  0  0  0  0
   27.2788   34.8862   20.6672 C   0  0  0  0  0  0  0  0  0  0  0  0
   27.0011   33.7491   20.2662 O   0  0  0  0  0  0  0  0  0  0  0  0
   28.6282   38.1236   19.2641 C   0  0  2  0  0  0  0  0  0  0  0  0
   27.9789   39.3753   19.8766 C   0  0  0  0  0  0  0  0  0  0  0  0
   28.1187   40.5416   19.0028 N   0  0  0  0  0  0  0  0  0  0  0  0
   27.4149   40.2808   17.7368 C   0  0  0  0  0  0  0  0  0  0  0  0
   28.0443   39.1145   17.0007 C   0  0  0  0  0  0  0  0  0  0  0  0
   28.0463   37.8611   17.8647 C   0  0  0  0  0  0  0  0  0  0  0  0
   27.0829   37.2474   23.6560 C   0  0  0  0  0  0  0  0  0  0  0  0
   26.1852   36.4654   24.9041 S   0  0  0  0  0  0  0  0  0  0  0  0
   26.3878   37.7621   25.9474 C   0  0  0  0  0  0  0  0  0  0  0  0
   27.1402   38.7279   25.4052 C   0  0  0  0  0  0  0  0  0  0  0  0
   27.5432   38.4530   24.0838 C   0  0  0  0  0  0  0  0  0  0  0  0
   27.6007   41.7681   19.6341 C   0  0  0  0  0  0  0  0  0  0  0  0
   28.0560   42.0163   21.0548 C   0  0  0  0  0  0  0  0  0  0  0  0
   27.1393   42.2369   22.0725 C   0  0  0  0  0  0  0  0  0  0  0  0
   27.4401   42.8047   23.2545 N   0  0  0  0  0  0  0  0  0  0  0  0
   28.7037   43.1853   23.3684 C   0  0  0  0  0  0  0  0  0  0  0  0
   29.6774   43.0809   22.4782 N   0  0  0  0  0  0  0  0  0  0  0  0
   29.3159   42.5128   21.3183 C   0  0  0  0  0  0  0  0  0  0  0  0
   28.9969   43.7575   24.5417 O   0  0  0  0  0  0  0  0  0  0  0  0
   30.2094   43.3544   25.1890 C   0  0  0  0  0  0  0  0  0  0  0  0
  1  2  2  0  0  0  0
  1  6  1  0  0  0  0
  2  3  1  0  0  0  0
  3  4  2  0  0  0  0
  4 14  1  0  0  0  0
  5  4  1  0  0  0  0
  6  5  1  0  0  0  0
  7  6  2  0  0  0  0
  8  9  1  0  0  0  0
  8  2  1  1  0  0  0
 10 19  1  0  0  0  0
 10  9  1  0  0  0  0
 11 10  1  0  0  0  0
 12 11  1  0  0  0  0
 12 13  1  0  0  0  0
 13  8  1  0  0  0  0
 14 15  1  0  0  0  0
 14 18  2  0  0  0  0
 15 16  1  0  0  0  0
 16 17  2  0  0  0  0
 18 17  1  0  0  0  0
 19 20  1  0  0  0  0
 20 25  2  0  0  0  0
 20 21  1  0  0  0  0
 21 22  2  0  0  0  0
 22 23  1  0  0  0  0
 23 26  1  0  0  0  0
 24 23  2  0  0  0  0
 25 24  1  0  0  0  0
 26 27  1  0  0  0  0
M  END
>  <CHROM.1>
170.72163838,146.09864699,47.64670599,-126.14485350,135.46345620,27.79046417
39.13433655,21.78540088,-2.49138246,1.31200680,1.18303655

>  <Name>
lig.pdb

>  <RI>
0

>  <Rbt.Current_Directory>
/home/itssahil/PROJECTS/Mol_Feturizer/New_Systems/rnas/5kx9

>  <Rbt.Executable>
rbdock ($Id: //depot/dev/client3/rdock/2013.1/src/exe/rbdock.cxx#4 $)

>  <Rbt.Library>
libRbt.so (2013.1, Build901 2013/11/27)

>  <Rbt.Parameter_File>
/export/apps/rDock/src/rDock_2013.1_src/data/scripts/dock_solv.prm

>  <Rbt.Receptor>
prm/pocket_docking_2.prm

>  <SCORE>
-38.7542

>  <SCORE.INTER>
-37.7427

>  <SCORE.INTER.CONST>
1

>  <SCORE.INTER.POLAR>
0

>  <SCORE.INTER.ROT>
5

>  <SCORE.INTER.SOLV>
15.4831

>  <SCORE.INTER.VDW>
-37.2562

>  <SCORE.INTER.norm>
-1.39788

>  <SCORE.INTRA>
-1.01146

>  <SCORE.INTRA.DIHEDRAL>
2.12169

>  <SCORE.INTRA.DIHEDRAL.0>
2.68224

>  <SCORE.INTRA.POLAR>
0

>  <SCORE.INTRA.POLAR.0>
0

>  <SCORE.INTRA.REPUL>
0

>  <SCORE.INTRA.REPUL.0>
0

>  <SCORE.INTRA.SOLV>
-0.584232

>  <SCORE.INTRA.SOLV.lig_0>
-19.4148

>  <SCORE.INTRA.VDW>
-1.78019

>  <SCORE.INTRA.VDW.0>
5.42093

>  <SCORE.INTRA.norm>
-0.0374616

>  <SCORE.RESTR>
0

>  <SCORE.RESTR.CAVITY>
0

>  <SCORE.RESTR.norm>
0

>  <SCORE.SYSTEM>
0

>  <SCORE.SYSTEM.CONST>
0

>  <SCORE.SYSTEM.DIHEDRAL>
0

>  <SCORE.SYSTEM.SOLV>
0

>  <SCORE.SYSTEM.norm>
0

>  <SCORE.heavy>
27

>  <SCORE.norm>
-1.43534

>  <RMSD>
0.478

$$$$
lig.pdb
 OpenBabel11021811523D
libRbt.so/2013.1/901 2013/11/27
 27 30  0  0  0  0  0  0  0  0999 V2000
   27.9852   35.6017   19.9257 N   0  0  0  0  0  0  0  0  0  0  0  0
   28.2162   36.8133   20.3671 C   0  0  0  0  0  0  0  0  0  0  0  0
   27.8201   37.2872   21.5753 N   0  0  0  0  0  0  0  0  0  0  0  0
   27.1726   36.4402   22.4299 C   0  0  0  0  0  0  0  0  0  0  0  0
   26.9146   35.1504   22.0636 C   0  0  0  0  0  0  0  0  0  0  0  0
   27.3167   34.6998   20.7525 C   0  0  0  0  0  0  0  0  0  0  0  0
   27.0715   33.5632   20.3297 O   0  0  0  0  0  0  0  0  0  0  0  0
   28.8177   37.9235   19.4775 C   0  0  2  0  0  0  0  0  0  0  0  0
   28.0863   39.1751   19.9893 C   0  0  0  0  0  0  0  0  0  0  0  0
   28.3167   40.3310   19.1209 N   0  0  0  0  0  0  0  0  0  0  0  0
   27.7718   40.0441   17.7841 C   0  0  0  0  0  0  0  0  0  0  0  0
   28.4973   38.8760   17.1460 C   0  0  0  0  0  0  0  0  0  0  0  0
   28.4099   37.6345   18.0228 C   0  0  0  0  0  0  0  0  0  0  0  0
   26.8478   37.0729   23.7013 C   0  0  0  0  0  0  0  0  0  0  0  0
   27.2718   38.7127   24.0276 S   0  0  0  0  0  0  0  0  0  0  0  0
   26.6224   38.6382   25.5715 C   0  0  0  0  0  0  0  0  0  0  0  0
   26.0635   37.4476   25.8224 C   0  0  0  0  0  0  0  0  0  0  0  0
   26.1902   36.5308   24.7606 C   0  0  0  0  0  0  0  0  0  0  0  0
   27.7136   41.5594   19.6675 C   0  0  0  0  0  0  0  0  0  0  0  0
   28.0693   41.8818   21.1017 C   0  0  0  0  0  0  0  0  0  0  0  0
   27.0841   42.0434   22.0650 C   0  0  0  0  0  0  0  0  0  0  0  0
   27.2703   42.6643   23.2438 N   0  0  0  0  0  0  0  0  0  0  0  0
   28.4873   43.1600   23.4104 C   0  0  0  0  0  0  0  0  0  0  0  0
   29.5122   43.1224   22.5740 N   0  0  0  0  0  0  0  0  0  0  0  0
   29.2644   42.4962   21.4141 C   0  0  0  0  0  0  0  0  0  0  0  0
   28.6660   43.7845   24.5801 O   0  0  0  0  0  0  0  0  0  0  0  0
   29.7305   43.3228   25.4200 C   0  0  0  0  0  0  0  0  0  0  0  0
  1  2  2  0  0  0  0
  1  6  1  0  0  0  0
  2  3  1  0  0  0  0
  3  4  2  0  0  0  0
  4 14  1  0  0  0  0
  5  4  1  0  0  0  0
  6  5  1  0  0  0  0
  7  6  2  0  0  0  0
  8  9  1  0  0  0  0
  8  2  1  1  0  0  0
 10 19  1  0  0  0  0
 10  9  1  0  0  0  0
 11 10  1  0  0  0  0
 12 11  1  0  0  0  0
 12 13  1  0  0  0  0
 13  8  1  0  0  0  0
 14 15  1  0  0  0  0
 14 18  2  0  0  0  0
 15 16  1  0  0  0  0
 16 17  2  0  0  0  0
 18 17  1  0  0  0  0
 19 20  1  0  0  0  0
 20 25  2  0  0  0  0
 20 21  1  0  0  0  0
 21 22  2  0  0  0  0
 22 23  1  0  0  0  0
 23 26  1  0  0  0  0
 24 23  2  0  0  0  0
 25 24  1  0  0  0  0
 26 27  1  0  0  0  0
M  END
>  <CHROM.1>
-0.30435716,144.31928446,51.61060339,-123.10167300,123.56623739,27.81329929
39.12101463,21.81173557,-2.09872786,1.29582245,0.89613233

>  <Name>
lig.pdb

>  <RI>
0

>  <Rbt.Current_Directory>
/home/itssahil/PROJECTS/Mol_Feturizer/New_Systems/rnas/5kx9

>  <Rbt.Executable>
rbdock ($Id: //depot/dev/client3/rdock/2013.1/src/exe/rbdock.cxx#4 $)

>  <Rbt.Library>
libRbt.so (2013.1, Build901 2013/11/27)

>  <Rbt.Parameter_File>
/export/apps/rDock/src/rDock_2013.1_src/data/scripts/dock_solv.prm

>  <Rbt.Receptor>
prm/pocket_docking_3.prm

>  <SCORE>
-39.1681

>  <SCORE.INTER>
-37.3814

>  <SCORE.INTER.CONST>
1

>  <SCORE.INTER.POLAR>
0

>  <SCORE.INTER.ROT>
5

>  <SCORE.INTER.SOLV>
15.6502

>  <SCORE.INTER.VDW>
-37.071

>  <SCORE.INTER.norm>
-1.38449

>  <SCORE.INTRA>
-1.78673

>  <SCORE.INTRA.DIHEDRAL>
2.5521

>  <SCORE.INTRA.DIHEDRAL.0>
2.68224

>  <SCORE.INTRA.POLAR>
0

>  <SCORE.INTRA.POLAR.0>
0

>  <SCORE.INTRA.REPUL>
0

>  <SCORE.INTRA.REPUL.0>
0

>  <SCORE.INTRA.SOLV>
-0.33082

>  <SCORE.INTRA.SOLV.lig_0>
-19.4148

>  <SCORE.INTRA.VDW>
-2.89737

>  <SCORE.INTRA.VDW.0>
5.42093

>  <SCORE.INTRA.norm>
-0.0661751

>  <SCORE.RESTR>
0

>  <SCORE.RESTR.CAVITY>
0

>  <SCORE.RESTR.norm>
0

>  <SCORE.SYSTEM>
0

>  <SCORE.SYSTEM.CONST>
0

>  <SCORE.SYSTEM.DIHEDRAL>
0

>  <SCORE.SYSTEM.SOLV>
0

>  <SCORE.SYSTEM.norm>
0

>  <SCORE.heavy>
27

>  <SCORE.norm>
-1.45067

>  <RMSD>
0.478

$$$$
lig.pdb
 OpenBabel11021811523D
libRbt.so/2013.1/901 2013/11/27
 27 30  0  0  0  0  0  0  0  0999 V2000
   27.9055   35.8129   19.7976 N   0  0  0  0  0  0  0  0  0  0  0  0
   28.1527   37.0305   20.2130 C   0  0  0  0  0  0  0  0  0  0  0  0
   27.8548   37.5035   21.4493 N   0  0  0  0  0  0  0  0  0  0  0  0
   27.2989   36.6498   22.3600 C   0  0  0  0  0  0  0  0  0  0  0  0
   27.0327   35.3539   22.0220 C   0  0  0  0  0  0  0  0  0  0  0  0
   27.3273   34.9038   20.6825 C   0  0  0  0  0  0  0  0  0  0  0  0
   27.0663   33.7610   20.2867 O   0  0  0  0  0  0  0  0  0  0  0  0
   28.6551   38.1463   19.2706 C   0  0  2  0  0  0  0  0  0  0  0  0
   28.0038   39.3980   19.8810 C   0  0  0  0  0  0  0  0  0  0  0  0
   28.1408   40.5627   19.0047 N   0  0  0  0  0  0  0  0  0  0  0  0
   27.4366   40.2980   17.7397 C   0  0  0  0  0  0  0  0  0  0  0  0
   28.0678   39.1315   17.0056 C   0  0  0  0  0  0  0  0  0  0  0  0
   28.0728   37.8798   17.8721 C   0  0  0  0  0  0  0  0  0  0  0  0
   27.0747   37.2832   23.6526 C   0  0  0  0  0  0  0  0  0  0  0  0
   26.1743   36.4992   24.8975 S   0  0  0  0  0  0  0  0  0  0  0  0
   26.3510   37.8056   25.9334 C   0  0  0  0  0  0  0  0  0  0  0  0
   27.0971   38.7765   25.3916 C   0  0  0  0  0  0  0  0  0  0  0  0
   27.5163   38.4973   24.0762 C   0  0  0  0  0  0  0  0  0  0  0  0
   27.6208   41.7895   19.6339 C   0  0  0  0  0  0  0  0  0  0  0  0
   28.0553   42.0279   21.0628 C   0  0  0  0  0  0  0  0  0  0  0  0
   27.1238   42.2391   22.0689 C   0  0  0  0  0  0  0  0  0  0  0  0
   27.4066   42.7985   23.2593 N   0  0  0  0  0  0  0  0  0  0  0  0
   28.6677   43.1806   23.3941 C   0  0  0  0  0  0  0  0  0  0  0  0
   29.6542   43.0848   22.5171 N   0  0  0  0  0  0  0  0  0  0  0  0
   29.3103   42.5248   21.3480 C   0  0  0  0  0  0  0  0  0  0  0  0
   28.9430   43.7446   24.5757 O   0  0  0  0  0  0  0  0  0  0  0  0
   30.1470   43.3389   25.2372 C   0  0  0  0  0  0  0  0  0  0  0  0
  1  2  2  0  0  0  0
  1  6  1  0  0  0  0
  2  3  1  0  0  0  0
  3  4  2  0  0  0  0
  4 14  1  0  0  0  0
  5  4  1  0  0  0  0
  6  5  1  0  0  0  0
  7  6  2  0  0  0  0
  8  9  1  0  0  0  0
  8  2  1  1  0  0  0
 10 19  1  0  0  0  0
 10  9  1  0  0  0  0
 11 10  1  0  0  0  0
 12 11  1  0  0  0  0
 12 13  1  0  0  0  0
 13  8  1  0  0  0  0
 14 15  1  0  0  0  0
 14 18  2  0  0  0  0
 15 16  1  0  0  0  0
 16 17  2  0  0  0  0
 18 17  1  0  0  0  0
 19 20  1  0  0  0  0
 20 25  2  0  0  0  0
 20 21  1  0  0  0  0
 21 22  2  0  0  0  0
 22 23  1  0  0  0  0
 23 26  1  0  0  0  0
 24 23  2  0  0  0  0
 25 24  1  0  0  0  0
 26 27  1  0  0  0  0
M  END
>  <CHROM.1>
170.78320879,146.96003581,46.52092923,-125.63367584,135.46866391,27.79182238
39.15276578,21.79411210,-2.43995614,1.31364279,1.14310851

>  <Name>
lig.pdb

>  <RI>
0

>  <Rbt.Current_Directory>
/home/itssahil/PROJECTS/Mol_Feturizer/New_Systems/rnas/5kx9

>  <Rbt.Executable>
rbdock ($Id: //depot/dev/client3/rdock/2013.1/src/exe/rbdock.cxx#4 $)

>  <Rbt.Library>
libRbt.so (2013.1, Build901 2013/11/27)

>  <Rbt.Parameter_File>
/export/apps/rDock/src/rDock_2013.1_src/data/scripts/dock_solv.prm

>  <Rbt.Receptor>
prm/pocket_docking_2.prm

>  <SCORE>
-38.8505

>  <SCORE.INTER>
-37.9847

>  <SCORE.INTER.CONST>
1

>  <SCORE.INTER.POLAR>
0

>  <SCORE.INTER.ROT>
5

>  <SCORE.INTER.SOLV>
15.5773

>  <SCORE.INTER.VDW>
-37.4489

>  <SCORE.INTER.norm>
-1.40684

>  <SCORE.INTRA>
-0.865743

>  <SCORE.INTRA.DIHEDRAL>
2.14844

>  <SCORE.INTRA.DIHEDRAL.0>
2.68224

>  <SCORE.INTRA.POLAR>
0

>  <SCORE.INTRA.POLAR.0>
0

>  <SCORE.INTRA.REPUL>
0

>  <SCORE.INTRA.REPUL.0>
0

>  <SCORE.INTRA.SOLV>
-0.573593

>  <SCORE.INTRA.SOLV.lig_0>
-19.4148

>  <SCORE.INTRA.VDW>
-1.65317

>  <SCORE.INTRA.VDW.0>
5.42093

>  <SCORE.INTRA.norm>
-0.0320646

>  <SCORE.RESTR>
0

>  <SCORE.RESTR.CAVITY>
0

>  <SCORE.RESTR.norm>
0

>  <SCORE.SYSTEM>
0

>  <SCORE.SYSTEM.CONST>
0

>  <SCORE.SYSTEM.DIHEDRAL>
0

>  <SCORE.SYSTEM.SOLV>
0

>  <SCORE.SYSTEM.norm>
0

>  <SCORE.heavy>
27

>  <SCORE.norm>
-1.43891

>  <RMSD>
0.483

$$$$
lig.pdb
 OpenBabel11021811523D
libRbt.so/2013.1/901 2013/11/27
 27 30  0  0  0  0  0  0  0  0999 V2000
   27.9175   35.4685   19.9908 N   0  0  0  0  0  0  0  0  0  0  0  0
   28.1080   36.7042   20.3820 C   0  0  0  0  0  0  0  0  0  0  0  0
   27.7290   37.2040   21.5851 N   0  0  0  0  0  0  0  0  0  0  0  0
   27.1464   36.3613   22.4893 C   0  0  0  0  0  0  0  0  0  0  0  0
   26.9345   35.0491   22.1768 C   0  0  0  0  0  0  0  0  0  0  0  0
   27.3155   34.5691   20.8698 C   0  0  0  0  0  0  0  0  0  0  0  0
   27.1080   33.4084   20.4951 O   0  0  0  0  0  0  0  0  0  0  0  0
   28.6320   37.8063   19.4352 C   0  0  2  0  0  0  0  0  0  0  0  0
   27.9238   39.0580   19.9784 C   0  0  0  0  0  0  0  0  0  0  0  0
   28.0785   40.2023   19.0783 N   0  0  0  0  0  0  0  0  0  0  0  0
   27.4439   39.8881   17.7880 C   0  0  0  0  0  0  0  0  0  0  0  0
   28.1363   38.7177   17.1180 C   0  0  0  0  0  0  0  0  0  0  0  0
   28.1258   37.4897   18.0176 C   0  0  0  0  0  0  0  0  0  0  0  0
   26.8333   37.0250   23.7478 C   0  0  0  0  0  0  0  0  0  0  0  0
   27.2620   38.6716   24.0306 S   0  0  0  0  0  0  0  0  0  0  0  0
   26.6259   38.6355   25.5814 C   0  0  0  0  0  0  0  0  0  0  0  0
   26.0678   37.4521   25.8659 C   0  0  0  0  0  0  0  0  0  0  0  0
   26.1842   36.5097   24.8256 C   0  0  0  0  0  0  0  0  0  0  0  0
   27.5011   41.4327   19.6474 C   0  0  0  0  0  0  0  0  0  0  0  0
   27.9816   41.8020   21.0331 C   0  0  0  0  0  0  0  0  0  0  0  0
   27.0833   42.1146   22.0431 C   0  0  0  0  0  0  0  0  0  0  0  0
   27.4062   42.7820   23.1657 N   0  0  0  0  0  0  0  0  0  0  0  0
   28.6726   43.1656   23.2244 C   0  0  0  0  0  0  0  0  0  0  0  0
   29.6305   42.9796   22.3303 N   0  0  0  0  0  0  0  0  0  0  0  0
   29.2473   42.3140   21.2308 C   0  0  0  0  0  0  0  0  0  0  0  0
   28.9878   43.8367   24.3381 O   0  0  0  0  0  0  0  0  0  0  0  0
   30.1893   43.4587   25.0200 C   0  0  0  0  0  0  0  0  0  0  0  0
  1  2  2  0  0  0  0
  1  6  1  0  0  0  0
  2  3  1  0  0  0  0
  3  4  2  0  0  0  0
  4 14  1  0  0  0  0
  5  4  1  0  0  0  0
  6  5  1  0  0  0  0
  7  6  2  0  0  0  0
  8  9  1  0  0  0  0
  8  2  1  1  0  0  0
 10 19  1  0  0  0  0
 10  9  1  0  0  0  0
 11 10  1  0  0  0  0
 12 11  1  0  0  0  0
 12 13  1  0  0  0  0
 13  8  1  0  0  0  0
 14 15  1  0  0  0  0
 14 18  2  0  0  0  0
 15 16  1  0  0  0  0
 16 17  2  0  0  0  0
 18 17  1  0  0  0  0
 19 20  1  0  0  0  0
 20 25  2  0  0  0  0
 20 21  1  0  0  0  0
 21 22  2  0  0  0  0
 22 23  1  0  0  0  0
 23 26  1  0  0  0  0
 24 23  2  0  0  0  0
 25 24  1  0  0  0  0
 26 27  1  0  0  0  0
M  END
>  <CHROM.1>
-3.27926542,147.44672095,53.19030666,-130.31426483,133.60287564,27.78313275
39.05348466,21.77956220,-2.31060636,1.31171023,1.04455786

>  <Name>
lig.pdb

>  <RI>
0

>  <Rbt.Current_Directory>
/home/itssahil/PROJECTS/Mol_Feturizer/New_Systems/rnas/5kx9

>  <Rbt.Executable>
rbdock ($Id: //depot/dev/client3/rdock/2013.1/src/exe/rbdock.cxx#4 $)

>  <Rbt.Library>
libRbt.so (2013.1, Build901 2013/11/27)

>  <Rbt.Parameter_File>
/export/apps/rDock/src/rDock_2013.1_src/data/scripts/dock_solv.prm

>  <Rbt.Receptor>
prm/pocket_docking_2.prm

>  <SCORE>
-39.102

>  <SCORE.INTER>
-37.7603

>  <SCORE.INTER.CONST>
1

>  <SCORE.INTER.POLAR>
0

>  <SCORE.INTER.ROT>
5

>  <SCORE.INTER.SOLV>
15.8295

>  <SCORE.INTER.VDW>
-37.3834

>  <SCORE.INTER.norm>
-1.39853

>  <SCORE.INTRA>
-1.34168

>  <SCORE.INTRA.DIHEDRAL>
1.91713

>  <SCORE.INTRA.DIHEDRAL.0>
2.68224

>  <SCORE.INTRA.POLAR>
0

>  <SCORE.INTRA.POLAR.0>
0

>  <SCORE.INTRA.REPUL>
0

>  <SCORE.INTRA.REPUL.0>
0

>  <SCORE.INTRA.SOLV>
-0.373052

>  <SCORE.INTRA.SOLV.lig_0>
-19.4148

>  <SCORE.INTRA.VDW>
-2.11372

>  <SCORE.INTRA.VDW.0>
5.42093

>  <SCORE.INTRA.norm>
-0.0496918

>  <SCORE.RESTR>
0

>  <SCORE.RESTR.CAVITY>
0

>  <SCORE.RESTR.norm>
0

>  <SCORE.SYSTEM>
0

>  <SCORE.SYSTEM.CONST>
0

>  <SCORE.SYSTEM.DIHEDRAL>
0

>  <SCORE.SYSTEM.SOLV>
0

>  <SCORE.SYSTEM.norm>
0

>  <SCORE.heavy>
27

>  <SCORE.norm>
-1.44822

>  <RMSD>
0.484

$$$$
lig.pdb
 OpenBabel11021811523D
libRbt.so/2013.1/901 2013/11/27
 27 30  0  0  0  0  0  0  0  0999 V2000
   27.9697   35.7954   19.8242 N   0  0  0  0  0  0  0  0  0  0  0  0
   28.1879   37.0201   20.2350 C   0  0  0  0  0  0  0  0  0  0  0  0
   27.8632   37.4954   21.4637 N   0  0  0  0  0  0  0  0  0  0  0  0
   27.3103   36.6373   22.3720 C   0  0  0  0  0  0  0  0  0  0  0  0
   27.0734   35.3344   22.0389 C   0  0  0  0  0  0  0  0  0  0  0  0
   27.3959   34.8813   20.7069 C   0  0  0  0  0  0  0  0  0  0  0  0
   27.1622   33.7312   20.3150 O   0  0  0  0  0  0  0  0  0  0  0  0
   28.6830   38.1391   19.2925 C   0  0  2  0  0  0  0  0  0  0  0  0
   28.0091   39.3840   19.8922 C   0  0  0  0  0  0  0  0  0  0  0  0
   28.1375   40.5471   19.0124 N   0  0  0  0  0  0  0  0  0  0  0  0
   27.4480   40.2677   17.7425 C   0  0  0  0  0  0  0  0  0  0  0  0
   28.1016   39.1072   17.0186 C   0  0  0  0  0  0  0  0  0  0  0  0
   28.1165   37.8590   17.8901 C   0  0  0  0  0  0  0  0  0  0  0  0
   27.0554   37.2746   23.6569 C   0  0  0  0  0  0  0  0  0  0  0  0
   26.1724   36.4724   24.9027 S   0  0  0  0  0  0  0  0  0  0  0  0
   26.2977   37.7934   25.9275 C   0  0  0  0  0  0  0  0  0  0  0  0
   27.0150   38.7838   25.3819 C   0  0  0  0  0  0  0  0  0  0  0  0
   27.4530   38.5067   24.0722 C   0  0  0  0  0  0  0  0  0  0  0  0
   27.5952   41.7690   19.6321 C   0  0  0  0  0  0  0  0  0  0  0  0
   28.0281   42.0282   21.0579 C   0  0  0  0  0  0  0  0  0  0  0  0
   27.0951   42.1834   22.0728 C   0  0  0  0  0  0  0  0  0  0  0  0
   27.3562   42.7551   23.2623 N   0  0  0  0  0  0  0  0  0  0  0  0
   28.5946   43.2083   23.3871 C   0  0  0  0  0  0  0  0  0  0  0  0
   29.5771   43.1711   22.5012 N   0  0  0  0  0  0  0  0  0  0  0  0
   29.2553   42.5953   21.3335 C   0  0  0  0  0  0  0  0  0  0  0  0
   28.8479   43.7841   24.5680 O   0  0  0  0  0  0  0  0  0  0  0  0
   29.9573   43.2834   25.3231 C   0  0  0  0  0  0  0  0  0  0  0  0
  1  2  2  0  0  0  0
  1  6  1  0  0  0  0
  2  3  1  0  0  0  0
  3  4  2  0  0  0  0
  4 14  1  0  0  0  0
  5  4  1  0  0  0  0
  6  5  1  0  0  0  0
  7  6  2  0  0  0  0
  8  9  1  0  0  0  0
  8  2  1  1  0  0  0
 10 19  1  0  0  0  0
 10  9  1  0  0  0  0
 11 10  1  0  0  0  0
 12 11  1  0  0  0  0
 12 13  1  0  0  0  0
 13  8  1  0  0  0  0
 14 15  1  0  0  0  0
 14 18  2  0  0  0  0
 15 16  1  0  0  0  0
 16 17  2  0  0  0  0
 18 17  1  0  0  0  0
 19 20  1  0  0  0  0
 20 25  2  0  0  0  0
 20 21  1  0  0  0  0
 21 22  2  0  0  0  0
 22 23  1  0  0  0  0
 23 26  1  0  0  0  0
 24 23  2  0  0  0  0
 25 24  1  0  0  0  0
 26 27  1  0  0  0  0
M  END
>  <CHROM.1>
171.72891816,147.42640857,47.27505280,-123.34538513,125.13235474,27.77735260
39.14367275,21.80358469,-2.37167523,1.32137129,1.07087937

>  <Name>
lig.pdb

>  <RI>
0

>  <Rbt.Current_Directory>
/home/itssahil/PROJECTS/Mol_Feturizer/New_Systems/rnas/5kx9

>  <Rbt.Executable>
rbdock ($Id: //depot/dev/client3/rdock/2013.1/src/exe/rbdock.cxx#4 $)

>  <Rbt.Library>
libRbt.so (2013.1, Build901 2013/11/27)

>  <Rbt.Parameter_File>
/export/apps/rDock/src/rDock_2013.1_src/data/scripts/dock_solv.prm

>  <Rbt.Receptor>
prm/pocket_docking_2.prm

>  <SCORE>
-38.7665

>  <SCORE.INTER>
-37.9015

>  <SCORE.INTER.CONST>
1

>  <SCORE.INTER.POLAR>
0

>  <SCORE.INTER.ROT>
5

>  <SCORE.INTER.SOLV>
15.8777

>  <SCORE.INTER.VDW>
-37.4936

>  <SCORE.INTER.norm>
-1.40376

>  <SCORE.INTRA>
-0.86654

>  <SCORE.INTRA.DIHEDRAL>
2.85872

>  <SCORE.INTRA.DIHEDRAL.0>
2.68224

>  <SCORE.INTRA.POLAR>
0

>  <SCORE.INTRA.POLAR.0>
0

>  <SCORE.INTRA.REPUL>
0

>  <SCORE.INTRA.REPUL.0>
0

>  <SCORE.INTRA.SOLV>
-0.560311

>  <SCORE.INTRA.SOLV.lig_0>
-19.4148

>  <SCORE.INTRA.VDW>
-2.01574

>  <SCORE.INTRA.VDW.0>
5.42093

>  <SCORE.INTRA.norm>
-0.0320941

>  <SCORE.RESTR>
0.00162195

>  <SCORE.RESTR.CAVITY>
0.00162195

>  <SCORE.RESTR.norm>
6.00723e-05

>  <SCORE.SYSTEM>
0

>  <SCORE.SYSTEM.CONST>
0

>  <SCORE.SYSTEM.DIHEDRAL>
0

>  <SCORE.SYSTEM.SOLV>
0

>  <SCORE.SYSTEM.norm>
0

>  <SCORE.heavy>
27

>  <SCORE.norm>
-1.43579

>  <RMSD>
0.487

$$$$
lig.pdb
 OpenBabel11021811523D
libRbt.so/2013.1/901 2013/11/27
 27 30  0  0  0  0  0  0  0  0999 V2000
   27.9518   35.8254   19.8295 N   0  0  0  0  0  0  0  0  0  0  0  0
   28.1763   37.0472   20.2455 C   0  0  0  0  0  0  0  0  0  0  0  0
   27.8553   37.5185   21.4767 N   0  0  0  0  0  0  0  0  0  0  0  0
   27.2992   36.6590   22.3817 C   0  0  0  0  0  0  0  0  0  0  0  0
   27.0557   35.3588   22.0431 C   0  0  0  0  0  0  0  0  0  0  0  0
   27.3745   34.9101   20.7087 C   0  0  0  0  0  0  0  0  0  0  0  0
   27.1348   33.7630   20.3119 O   0  0  0  0  0  0  0  0  0  0  0  0
   28.6757   38.1680   19.3075 C   0  0  2  0  0  0  0  0  0  0  0  0
   28.0117   39.4140   19.9158 C   0  0  0  0  0  0  0  0  0  0  0  0
   28.1449   40.5809   19.0419 N   0  0  0  0  0  0  0  0  0  0  0  0
   27.4499   40.3128   17.7726 C   0  0  0  0  0  0  0  0  0  0  0  0
   28.0939   39.1519   17.0405 C   0  0  0  0  0  0  0  0  0  0  0  0
   28.1033   37.8991   17.9054 C   0  0  0  0  0  0  0  0  0  0  0  0
   27.0489   37.2917   23.6698 C   0  0  0  0  0  0  0  0  0  0  0  0
   26.1662   36.4870   24.9142 S   0  0  0  0  0  0  0  0  0  0  0  0
   26.2974   37.8034   25.9441 C   0  0  0  0  0  0  0  0  0  0  0  0
   27.0164   38.7939   25.4011 C   0  0  0  0  0  0  0  0  0  0  0  0
   27.4509   38.5209   24.0893 C   0  0  0  0  0  0  0  0  0  0  0  0
   27.6123   41.8030   19.6698 C   0  0  0  0  0  0  0  0  0  0  0  0
   28.0344   42.0410   21.1024 C   0  0  0  0  0  0  0  0  0  0  0  0
   27.0948   42.1525   22.1170 C   0  0  0  0  0  0  0  0  0  0  0  0
   27.3387   42.7040   23.3196 N   0  0  0  0  0  0  0  0  0  0  0  0
   28.5658   43.1828   23.4588 C   0  0  0  0  0  0  0  0  0  0  0  0
   29.5518   43.1876   22.5761 N   0  0  0  0  0  0  0  0  0  0  0  0
   29.2472   42.6300   21.3949 C   0  0  0  0  0  0  0  0  0  0  0  0
   28.8018   43.7384   24.6529 O   0  0  0  0  0  0  0  0  0  0  0  0
   29.9496   43.2828   25.3787 C   0  0  0  0  0  0  0  0  0  0  0  0
  1  2  2  0  0  0  0
  1  6  1  0  0  0  0
  2  3  1  0  0  0  0
  3  4  2  0  0  0  0
  4 14  1  0  0  0  0
  5  4  1  0  0  0  0
  6  5  1  0  0  0  0
  7  6  2  0  0  0  0
  8  9  1  0  0  0  0
  8  2  1  1  0  0  0
 10 19  1  0  0  0  0
 10  9  1  0  0  0  0
 11 10  1  0  0  0  0
 12 11  1  0  0  0  0
 12 13  1  0  0  0  0
 13  8  1  0  0  0  0
 14 15  1  0  0  0  0
 14 18  2  0  0  0  0
 15 16  1  0  0  0  0
 16 17  2  0  0  0  0
 18 17  1  0  0  0  0
 19 20  1  0  0  0  0
 20 25  2  0  0  0  0
 20 21  1  0  0  0  0
 21 22  2  0  0  0  0
 22 23  1  0  0  0  0
 23 26  1  0  0  0  0
 24 23  2  0  0  0  0
 25 24  1  0  0  0  0
 26 27  1  0  0  0  0
M  END
>  <CHROM.1>
171.85739442,147.57364653,46.39105028,-121.16111661,127.45320563,27.76773822
39.15903005,21.83219441,-2.36143132,1.31997179,1.07749781

>  <Name>
lig.pdb

>  <RI>
0

>  <Rbt.Current_Directory>
/home/itssahil/PROJECTS/Mol_Feturizer/New_Systems/rnas/5kx9

>  <Rbt.Executable>
rbdock ($Id: //depot/dev/client3/rdock/2013.1/src/exe/rbdock.cxx#4 $)

>  <Rbt.Library>
libRbt.so (2013.1, Build901 2013/11/27)

>  <Rbt.Parameter_File>
/export/apps/rDock/src/rDock_2013.1_src/data/scripts/dock_solv.prm

>  <Rbt.Receptor>
prm/pocket_docking_2.prm

>  <SCORE>
-38.8011

>  <SCORE.INTER>
-37.9545

>  <SCORE.INTER.CONST>
1

>  <SCORE.INTER.POLAR>
0

>  <SCORE.INTER.ROT>
5

>  <SCORE.INTER.SOLV>
15.6576

>  <SCORE.INTER.VDW>
-37.4555

>  <SCORE.INTER.norm>
-1.40572

>  <SCORE.INTRA>
-0.846643

>  <SCORE.INTRA.DIHEDRAL>
2.65702

>  <SCORE.INTRA.DIHEDRAL.0>
2.68224

>  <SCORE.INTRA.POLAR>
0

>  <SCORE.INTRA.POLAR.0>
0

>  <SCORE.INTRA.REPUL>
0

>  <SCORE.INTRA.REPUL.0>
0

>  <SCORE.INTRA.SOLV>
-0.531528

>  <SCORE.INTRA.SOLV.lig_0>
-19.4148

>  <SCORE.INTRA.VDW>
-1.90939

>  <SCORE.INTRA.VDW.0>
5.42093

>  <SCORE.INTRA.norm>
-0.0313571

>  <SCORE.RESTR>
0

>  <SCORE.RESTR.CAVITY>
0

>  <SCORE.RESTR.norm>
0

>  <SCORE.SYSTEM>
0

>  <SCORE.SYSTEM.CONST>
0

>  <SCORE.SYSTEM.DIHEDRAL>
0

>  <SCORE.SYSTEM.SOLV>
0

>  <SCORE.SYSTEM.norm>
0

>  <SCORE.heavy>
27

>  <SCORE.norm>
-1.43708

>  <RMSD>
0.489

$$$$
lig.pdb
 OpenBabel11021811523D
libRbt.so/2013.1/901 2013/11/27
 27 30  0  0  0  0  0  0  0  0999 V2000
   27.8918   35.6388   19.9066 N   0  0  0  0  0  0  0  0  0  0  0  0
   28.1735   36.8481   20.3241 C   0  0  0  0  0  0  0  0  0  0  0  0
   27.8560   37.3396   21.5483 N   0  0  0  0  0  0  0  0  0  0  0  0
   27.2387   36.5137   22.4448 C   0  0  0  0  0  0  0  0  0  0  0  0
   26.9324   35.2273   22.1046 C   0  0  0  0  0  0  0  0  0  0  0  0
   27.2508   34.7582   20.7771 C   0  0  0  0  0  0  0  0  0  0  0  0
   26.9576   33.6242   20.3784 O   0  0  0  0  0  0  0  0  0  0  0  0
   28.7487   37.9379   19.3929 C   0  0  2  0  0  0  0  0  0  0  0  0
   28.0231   39.1989   19.8897 C   0  0  0  0  0  0  0  0  0  0  0  0
   28.2274   40.3334   18.9872 N   0  0  0  0  0  0  0  0  0  0  0  0
   27.6533   40.0101   17.6711 C   0  0  0  0  0  0  0  0  0  0  0  0
   28.3697   38.8293   17.0461 C   0  0  0  0  0  0  0  0  0  0  0  0
   28.3089   37.6102   17.9559 C   0  0  0  0  0  0  0  0  0  0  0  0
   26.9992   37.1628   23.7268 C   0  0  0  0  0  0  0  0  0  0  0  0
   27.4038   38.8188   23.9893 S   0  0  0  0  0  0  0  0  0  0  0  0
   26.8815   38.7584   25.5813 C   0  0  0  0  0  0  0  0  0  0  0  0
   26.3763   37.5592   25.8970 C   0  0  0  0  0  0  0  0  0  0  0  0
   26.4427   36.6252   24.8448 C   0  0  0  0  0  0  0  0  0  0  0  0
   27.6310   41.5726   19.5163 C   0  0  0  0  0  0  0  0  0  0  0  0
   27.7240   41.7567   21.0146 C   0  0  0  0  0  0  0  0  0  0  0  0
   26.5848   41.7751   21.8061 C   0  0  0  0  0  0  0  0  0  0  0  0
   26.5360   42.2757   23.0538 N   0  0  0  0  0  0  0  0  0  0  0  0
   27.6772   42.8010   23.4734 C   0  0  0  0  0  0  0  0  0  0  0  0
   28.8272   42.8942   22.8251 N   0  0  0  0  0  0  0  0  0  0  0  0
   28.8126   42.3837   21.5849 C   0  0  0  0  0  0  0  0  0  0  0  0
   27.6223   43.3058   24.7113 O   0  0  0  0  0  0  0  0  0  0  0  0
   28.7943   43.1869   25.5262 C   0  0  0  0  0  0  0  0  0  0  0  0
  1  2  2  0  0  0  0
  1  6  1  0  0  0  0
  2  3  1  0  0  0  0
  3  4  2  0  0  0  0
  4 14  1  0  0  0  0
  5  4  1  0  0  0  0
  6  5  1  0  0  0  0
  7  6  2  0  0  0  0
  8  9  1  0  0  0  0
  8  2  1  1  0  0  0
 10 19  1  0  0  0  0
 10  9  1  0  0  0  0
 11 10  1  0  0  0  0
 12 11  1  0  0  0  0
 12 13  1  0  0  0  0
 13  8  1  0  0  0  0
 14 15  1  0  0  0  0
 14 18  2  0  0  0  0
 15 16  1  0  0  0  0
 16 17  2  0  0  0  0
 18 17  1  0  0  0  0
 19 20  1  0  0  0  0
 20 25  2  0  0  0  0
 20 21  1  0  0  0  0
 21 22  2  0  0  0  0
 22 23  1  0  0  0  0
 23 26  1  0  0  0  0
 24 23  2  0  0  0  0
 25 24  1  0  0  0  0
 26 27  1  0  0  0  0
M  END
>  <CHROM.1>
2.84442348,141.70241589,36.76028780,-114.87550059,145.06914847,27.62532376
39.07979821,21.79773814,1.71493772,-1.37432457,-2.47783814

>  <Name>
lig.pdb

>  <RI>
0

>  <Rbt.Current_Directory>
/home/itssahil/PROJECTS/Mol_Feturizer/New_Systems/rnas/5kx9

>  <Rbt.Executable>
rbdock ($Id: //depot/dev/client3/rdock/2013.1/src/exe/rbdock.cxx#4 $)

>  <Rbt.Library>
libRbt.so (2013.1, Build901 2013/11/27)

>  <Rbt.Parameter_File>
/export/apps/rDock/src/rDock_2013.1_src/data/scripts/dock_solv.prm

>  <Rbt.Receptor>
prm/pocket_docking_5.prm

>  <SCORE>
-37.1782

>  <SCORE.INTER>
-35.5513

>  <SCORE.INTER.CONST>
1

>  <SCORE.INTER.POLAR>
0

>  <SCORE.INTER.ROT>
5

>  <SCORE.INTER.SOLV>
13.8547

>  <SCORE.INTER.VDW>
-35.2524

>  <SCORE.INTER.norm>
-1.31671

>  <SCORE.INTRA>
-1.62689

>  <SCORE.INTRA.DIHEDRAL>
1.29521

>  <SCORE.INTRA.DIHEDRAL.0>
2.68224

>  <SCORE.INTRA.POLAR>
0

>  <SCORE.INTRA.POLAR.0>
0

>  <SCORE.INTRA.REPUL>
0

>  <SCORE.INTRA.REPUL.0>
0

>  <SCORE.INTRA.SOLV>
-0.133126

>  <SCORE.INTRA.SOLV.lig_0>
-19.4148

>  <SCORE.INTRA.VDW>
-2.20793

>  <SCORE.INTRA.VDW.0>
5.42093

>  <SCORE.INTRA.norm>
-0.060255

>  <SCORE.RESTR>
0

>  <SCORE.RESTR.CAVITY>
0

>  <SCORE.RESTR.norm>
0

>  <SCORE.SYSTEM>
0

>  <SCORE.SYSTEM.CONST>
0

>  <SCORE.SYSTEM.DIHEDRAL>
0

>  <SCORE.SYSTEM.SOLV>
0

>  <SCORE.SYSTEM.norm>
0

>  <SCORE.heavy>
27

>  <SCORE.norm>
-1.37697

>  <RMSD>
0.492

$$$$
lig.pdb
 OpenBabel11021811523D
libRbt.so/2013.1/901 2013/11/27
 27 30  0  0  0  0  0  0  0  0999 V2000
   27.9154   35.4672   20.0160 N   0  0  0  0  0  0  0  0  0  0  0  0
   28.0976   36.7072   20.3974 C   0  0  0  0  0  0  0  0  0  0  0  0
   27.7188   37.2129   21.5981 N   0  0  0  0  0  0  0  0  0  0  0  0
   27.1459   36.3724   22.5106 C   0  0  0  0  0  0  0  0  0  0  0  0
   26.9433   35.0564   22.2084 C   0  0  0  0  0  0  0  0  0  0  0  0
   27.3235   34.5697   20.9037 C   0  0  0  0  0  0  0  0  0  0  0  0
   27.1238   33.4046   20.5383 O   0  0  0  0  0  0  0  0  0  0  0  0
   28.6097   37.8063   19.4407 C   0  0  2  0  0  0  0  0  0  0  0  0
   27.9101   39.0601   19.9901 C   0  0  0  0  0  0  0  0  0  0  0  0
   28.0536   40.2018   19.0850 N   0  0  0  0  0  0  0  0  0  0  0  0
   27.4014   39.8849   17.8043 C   0  0  0  0  0  0  0  0  0  0  0  0
   28.0836   38.7121   17.1280 C   0  0  0  0  0  0  0  0  0  0  0  0
   28.0842   37.4864   18.0310 C   0  0  0  0  0  0  0  0  0  0  0  0
   26.8319   37.0430   23.7652 C   0  0  0  0  0  0  0  0  0  0  0  0
   27.2537   38.6933   24.0365 S   0  0  0  0  0  0  0  0  0  0  0  0
   26.6203   38.6645   25.5885 C   0  0  0  0  0  0  0  0  0  0  0  0
   26.0680   37.4805   25.8817 C   0  0  0  0  0  0  0  0  0  0  0  0
   26.1869   36.5318   24.8474 C   0  0  0  0  0  0  0  0  0  0  0  0
   27.4851   41.4343   19.6586 C   0  0  0  0  0  0  0  0  0  0  0  0
   27.9797   41.8032   21.0394 C   0  0  0  0  0  0  0  0  0  0  0  0
   27.0918   42.1139   22.0591 C   0  0  0  0  0  0  0  0  0  0  0  0
   27.4256   42.7810   23.1787 N   0  0  0  0  0  0  0  0  0  0  0  0
   28.6921   43.1663   23.2242 C   0  0  0  0  0  0  0  0  0  0  0  0
   29.6407   42.9823   22.3199 N   0  0  0  0  0  0  0  0  0  0  0  0
   29.2468   42.3170   21.2240 C   0  0  0  0  0  0  0  0  0  0  0  0
   29.0181   43.8371   24.3350 O   0  0  0  0  0  0  0  0  0  0  0  0
   30.2218   43.4531   25.0098 C   0  0  0  0  0  0  0  0  0  0  0  0
  1  2  2  0  0  0  0
  1  6  1  0  0  0  0
  2  3  1  0  0  0  0
  3  4  2  0  0  0  0
  4 14  1  0  0  0  0
  5  4  1  0  0  0  0
  6  5  1  0  0  0  0
  7  6  2  0  0  0  0
  8  9  1  0  0  0  0
  8  2  1  1  0  0  0
 10 19  1  0  0  0  0
 10  9  1  0  0  0  0
 11 10  1  0  0  0  0
 12 11  1  0  0  0  0
 12 13  1  0  0  0  0
 13  8  1  0  0  0  0
 14 15  1  0  0  0  0
 14 18  2  0  0  0  0
 15 16  1  0  0  0  0
 16 17  2  0  0  0  0
 18 17  1  0  0  0  0
 19 20  1  0  0  0  0
 20 25  2  0  0  0  0
 20 21  1  0  0  0  0
 21 22  2  0  0  0  0
 22 23  1  0  0  0  0
 23 26  1  0  0  0  0
 24 23  2  0  0  0  0
 25 24  1  0  0  0  0
 26 27  1  0  0  0  0
M  END
>  <CHROM.1>
-3.49999937,148.25867483,52.91312594,-130.05096798,133.11762797,27.77942439
39.05907487,21.79146947,-2.33025192,1.31333972,1.06202244

>  <Name>
lig.pdb

>  <RI>
0

>  <Rbt.Current_Directory>
/home/itssahil/PROJECTS/Mol_Feturizer/New_Systems/rnas/5kx9

>  <Rbt.Executable>
rbdock ($Id: //depot/dev/client3/rdock/2013.1/src/exe/rbdock.cxx#4 $)

>  <Rbt.Library>
libRbt.so (2013.1, Build901 2013/11/27)

>  <Rbt.Parameter_File>
/export/apps/rDock/src/rDock_2013.1_src/data/scripts/dock_solv.prm

>  <Rbt.Receptor>
prm/pocket_docking_2.prm

>  <SCORE>
-39.0861

>  <SCORE.INTER>
-37.8475

>  <SCORE.INTER.CONST>
1

>  <SCORE.INTER.POLAR>
0

>  <SCORE.INTER.ROT>
5

>  <SCORE.INTER.SOLV>
15.8284

>  <SCORE.INTER.VDW>
-37.4411

>  <SCORE.INTER.norm>
-1.40176

>  <SCORE.INTRA>
-1.23857

>  <SCORE.INTRA.DIHEDRAL>
1.96385

>  <SCORE.INTRA.DIHEDRAL.0>
2.68224

>  <SCORE.INTRA.POLAR>
0

>  <SCORE.INTRA.POLAR.0>
0

>  <SCORE.INTRA.REPUL>
0

>  <SCORE.INTRA.REPUL.0>
0

>  <SCORE.INTRA.SOLV>
-0.364698

>  <SCORE.INTRA.SOLV.lig_0>
-19.4148

>  <SCORE.INTRA.VDW>
-2.03815

>  <SCORE.INTRA.VDW.0>
5.42093

>  <SCORE.INTRA.norm>
-0.0458731

>  <SCORE.RESTR>
0

>  <SCORE.RESTR.CAVITY>
0

>  <SCORE.RESTR.norm>
0

>  <SCORE.SYSTEM>
0

>  <SCORE.SYSTEM.CONST>
0

>  <SCORE.SYSTEM.DIHEDRAL>
0

>  <SCORE.SYSTEM.SOLV>
0

>  <SCORE.SYSTEM.norm>
0

>  <SCORE.heavy>
27

>  <SCORE.norm>
-1.44763

>  <RMSD>
0.494

$$$$
lig.pdb
 OpenBabel11021811523D
libRbt.so/2013.1/901 2013/11/27
 27 30  0  0  0  0  0  0  0  0999 V2000
   28.0132   35.6256   19.9673 N   0  0  0  0  0  0  0  0  0  0  0  0
   28.2398   36.8356   20.4154 C   0  0  0  0  0  0  0  0  0  0  0  0
   27.8326   37.3048   21.6217 N   0  0  0  0  0  0  0  0  0  0  0  0
   27.1775   36.4544   22.4672 C   0  0  0  0  0  0  0  0  0  0  0  0
   26.9232   35.1659   22.0936 C   0  0  0  0  0  0  0  0  0  0  0  0
   27.3375   34.7204   20.7845 C   0  0  0  0  0  0  0  0  0  0  0  0
   27.0965   33.5853   20.3552 O   0  0  0  0  0  0  0  0  0  0  0  0
   28.8491   37.9493   19.5356 C   0  0  2  0  0  0  0  0  0  0  0  0
   27.9663   39.1567   19.8908 C   0  0  0  0  0  0  0  0  0  0  0  0
   28.2019   40.2851   18.9883 N   0  0  0  0  0  0  0  0  0  0  0  0
   27.8390   39.8888   17.6182 C   0  0  0  0  0  0  0  0  0  0  0  0
   28.7239   38.7578   17.1322 C   0  0  0  0  0  0  0  0  0  0  0  0
   28.6356   37.5570   18.0637 C   0  0  0  0  0  0  0  0  0  0  0  0
   26.8410   37.0821   23.7379 C   0  0  0  0  0  0  0  0  0  0  0  0
   27.2799   38.7142   24.0825 S   0  0  0  0  0  0  0  0  0  0  0  0
   26.6059   38.6370   25.6157 C   0  0  0  0  0  0  0  0  0  0  0  0
   26.0286   37.4517   25.8494 C   0  0  0  0  0  0  0  0  0  0  0  0
   26.1605   36.5408   24.7832 C   0  0  0  0  0  0  0  0  0  0  0  0
   27.4440   41.4821   19.3935 C   0  0  0  0  0  0  0  0  0  0  0  0
   27.8518   42.1006   20.7120 C   0  0  0  0  0  0  0  0  0  0  0  0
   29.1868   42.1899   21.0788 C   0  0  0  0  0  0  0  0  0  0  0  0
   29.6158   42.3852   22.3389 N   0  0  0  0  0  0  0  0  0  0  0  0
   28.6462   42.4501   23.2390 C   0  0  0  0  0  0  0  0  0  0  0  0
   27.3407   42.3426   23.0506 N   0  0  0  0  0  0  0  0  0  0  0  0
   26.9744   42.1430   21.7759 C   0  0  0  0  0  0  0  0  0  0  0  0
   29.0772   42.6354   24.4920 O   0  0  0  0  0  0  0  0  0  0  0  0
   30.1331   43.5818   24.6946 C   0  0  0  0  0  0  0  0  0  0  0  0
  1  2  2  0  0  0  0
  1  6  1  0  0  0  0
  2  3  1  0  0  0  0
  3  4  2  0  0  0  0
  4 14  1  0  0  0  0
  5  4  1  0  0  0  0
  6  5  1  0  0  0  0
  7  6  2  0  0  0  0
  8  9  1  0  0  0  0
  8  2  1  1  0  0  0
 10 19  1  0  0  0  0
 10  9  1  0  0  0  0
 11 10  1  0  0  0  0
 12 11  1  0  0  0  0
 12 13  1  0  0  0  0
 13  8  1  0  0  0  0
 14 15  1  0  0  0  0
 14 18  2  0  0  0  0
 15 16  1  0  0  0  0
 16 17  2  0  0  0  0
 18 17  1  0  0  0  0
 19 20  1  0  0  0  0
 20 25  2  0  0  0  0
 20 21  1  0  0  0  0
 21 22  2  0  0  0  0
 22 23  1  0  0  0  0
 23 26  1  0  0  0  0
 24 23  2  0  0  0  0
 25 24  1  0  0  0  0
 26 27  1  0  0  0  0
M  END
>  <CHROM.1>
-1.13054415,136.03822692,65.94535597,39.73141211,42.31835023,27.84812267
39.01064075,21.72159294,-2.19439911,1.28946998,0.94129929

>  <Name>
lig.pdb

>  <RI>
0

>  <Rbt.Current_Directory>
/home/itssahil/PROJECTS/Mol_Feturizer/New_Systems/rnas/5kx9

>  <Rbt.Executable>
rbdock ($Id: //depot/dev/client3/rdock/2013.1/src/exe/rbdock.cxx#4 $)

>  <Rbt.Library>
libRbt.so (2013.1, Build901 2013/11/27)

>  <Rbt.Parameter_File>
/export/apps/rDock/src/rDock_2013.1_src/data/scripts/dock_solv.prm

>  <Rbt.Receptor>
prm/pocket_docking_3.prm

>  <SCORE>
-38.4038

>  <SCORE.INTER>
-35.7826

>  <SCORE.INTER.CONST>
1

>  <SCORE.INTER.POLAR>
0

>  <SCORE.INTER.ROT>
5

>  <SCORE.INTER.SOLV>
13.9606

>  <SCORE.INTER.VDW>
-35.4419

>  <SCORE.INTER.norm>
-1.32528

>  <SCORE.INTRA>
-2.62126

>  <SCORE.INTRA.DIHEDRAL>
1.31647

>  <SCORE.INTRA.DIHEDRAL.0>
2.68224

>  <SCORE.INTRA.POLAR>
0

>  <SCORE.INTRA.POLAR.0>
0

>  <SCORE.INTRA.REPUL>
0

>  <SCORE.INTRA.REPUL.0>
0

>  <SCORE.INTRA.SOLV>
-0.0826409

>  <SCORE.INTRA.SOLV.lig_0>
-19.4148

>  <SCORE.INTRA.VDW>
-3.23818

>  <SCORE.INTRA.VDW.0>
5.42093

>  <SCORE.INTRA.norm>
-0.0970838

>  <SCORE.RESTR>
0

>  <SCORE.RESTR.CAVITY>
0

>  <SCORE.RESTR.norm>
0

>  <SCORE.SYSTEM>
0

>  <SCORE.SYSTEM.CONST>
0

>  <SCORE.SYSTEM.DIHEDRAL>
0

>  <SCORE.SYSTEM.SOLV>
0

>  <SCORE.SYSTEM.norm>
0

>  <SCORE.heavy>
27

>  <SCORE.norm>
-1.42236

>  <RMSD>
0.494

$$$$
lig.pdb
 OpenBabel11021811523D
libRbt.so/2013.1/901 2013/11/27
 27 30  0  0  0  0  0  0  0  0999 V2000
   28.0396   35.7457   19.8489 N   0  0  0  0  0  0  0  0  0  0  0  0
   28.2891   36.9383   20.3302 C   0  0  0  0  0  0  0  0  0  0  0  0
   27.8942   37.3803   21.5507 N   0  0  0  0  0  0  0  0  0  0  0  0
   27.2267   36.5181   22.3742 C   0  0  0  0  0  0  0  0  0  0  0  0
   26.9482   35.2454   21.9654 C   0  0  0  0  0  0  0  0  0  0  0  0
   27.3503   34.8299   20.6427 C   0  0  0  0  0  0  0  0  0  0  0  0
   27.0877   33.7119   20.1824 O   0  0  0  0  0  0  0  0  0  0  0  0
   28.9155   38.0654   19.4800 C   0  0  2  0  0  0  0  0  0  0  0  0
   28.0066   39.2599   19.8126 C   0  0  0  0  0  0  0  0  0  0  0  0
   28.2602   40.3976   18.9268 N   0  0  0  0  0  0  0  0  0  0  0  0
   27.9499   40.0072   17.5420 C   0  0  0  0  0  0  0  0  0  0  0  0
   28.8645   38.8902   17.0794 C   0  0  0  0  0  0  0  0  0  0  0  0
   28.7580   37.6816   17.9989 C   0  0  0  0  0  0  0  0  0  0  0  0
   26.9054   37.1155   23.6634 C   0  0  0  0  0  0  0  0  0  0  0  0
   27.3145   38.7512   24.0272 S   0  0  0  0  0  0  0  0  0  0  0  0
   26.6783   38.6315   25.5737 C   0  0  0  0  0  0  0  0  0  0  0  0
   26.1340   37.4290   25.7992 C   0  0  0  0  0  0  0  0  0  0  0  0
   26.2620   36.5403   24.7140 C   0  0  0  0  0  0  0  0  0  0  0  0
   27.4746   41.5827   19.3136 C   0  0  0  0  0  0  0  0  0  0  0  0
   27.6557   42.0519   20.7399 C   0  0  0  0  0  0  0  0  0  0  0  0
   28.9199   42.1806   21.2966 C   0  0  0  0  0  0  0  0  0  0  0  0
   29.1643   42.2399   22.6182 N   0  0  0  0  0  0  0  0  0  0  0  0
   28.0842   42.1249   23.3762 C   0  0  0  0  0  0  0  0  0  0  0  0
   26.8274   41.9571   22.9968 N   0  0  0  0  0  0  0  0  0  0  0  0
   26.6472   41.8996   21.6690 C   0  0  0  0  0  0  0  0  0  0  0  0
   28.3323   42.1753   24.6899 O   0  0  0  0  0  0  0  0  0  0  0  0
   29.0340   43.3211   25.1865 C   0  0  0  0  0  0  0  0  0  0  0  0
  1  2  2  0  0  0  0
  1  6  1  0  0  0  0
  2  3  1  0  0  0  0
  3  4  2  0  0  0  0
  4 14  1  0  0  0  0
  5  4  1  0  0  0  0
  6  5  1  0  0  0  0
  7  6  2  0  0  0  0
  8  9  1  0  0  0  0
  8  2  1  1  0  0  0
 10 19  1  0  0  0  0
 10  9  1  0  0  0  0
 11 10  1  0  0  0  0
 12 11  1  0  0  0  0
 12 13  1  0  0  0  0
 13  8  1  0  0  0  0
 14 15  1  0  0  0  0
 14 18  2  0  0  0  0
 15 16  1  0  0  0  0
 16 17  2  0  0  0  0
 18 17  1  0  0  0  0
 19 20  1  0  0  0  0
 20 25  2  0  0  0  0
 20 21  1  0  0  0  0
 21 22  2  0  0  0  0
 22 23  1  0  0  0  0
 23 26  1  0  0  0  0
 24 23  2  0  0  0  0
 25 24  1  0  0  0  0
 26 27  1  0  0  0  0
M  END
>  <CHROM.1>
1.54547481,133.01677569,55.72873855,46.67505975,55.53354397,27.73708473,38.99793237
21.70802585,1.74094779,-1.32759490,-2.42664129

>  <Name>
lig.pdb

>  <RI>
0

>  <Rbt.Current_Directory>
/home/itssahil/PROJECTS/Mol_Feturizer/New_Systems/rnas/5kx9

>  <Rbt.Executable>
rbdock ($Id: //depot/dev/client3/rdock/2013.1/src/exe/rbdock.cxx#4 $)

>  <Rbt.Library>
libRbt.so (2013.1, Build901 2013/11/27)

>  <Rbt.Parameter_File>
/export/apps/rDock/src/rDock_2013.1_src/data/scripts/dock_solv.prm

>  <Rbt.Receptor>
prm/pocket_docking_4.prm

>  <SCORE>
-37.3996

>  <SCORE.INTER>
-34.2255

>  <SCORE.INTER.CONST>
1

>  <SCORE.INTER.POLAR>
0

>  <SCORE.INTER.ROT>
5

>  <SCORE.INTER.SOLV>
12.5491

>  <SCORE.INTER.VDW>
-33.9333

>  <SCORE.INTER.norm>
-1.26761

>  <SCORE.INTRA>
-3.17412

>  <SCORE.INTRA.DIHEDRAL>
2.46419

>  <SCORE.INTRA.DIHEDRAL.0>
2.68224

>  <SCORE.INTRA.POLAR>
0

>  <SCORE.INTRA.POLAR.0>
0

>  <SCORE.INTRA.REPUL>
0

>  <SCORE.INTRA.REPUL.0>
0

>  <SCORE.INTRA.SOLV>
0.335127

>  <SCORE.INTRA.SOLV.lig_0>
-19.4148

>  <SCORE.INTRA.VDW>
-4.57377

>  <SCORE.INTRA.VDW.0>
5.42093

>  <SCORE.INTRA.norm>
-0.11756

>  <SCORE.RESTR>
0

>  <SCORE.RESTR.CAVITY>
0

>  <SCORE.RESTR.norm>
0

>  <SCORE.SYSTEM>
0

>  <SCORE.SYSTEM.CONST>
0

>  <SCORE.SYSTEM.DIHEDRAL>
0

>  <SCORE.SYSTEM.SOLV>
0

>  <SCORE.SYSTEM.norm>
0

>  <SCORE.heavy>
27

>  <SCORE.norm>
-1.38517

>  <RMSD>
0.507

$$$$
lig.pdb
 OpenBabel11021811523D
libRbt.so/2013.1/901 2013/11/27
 27 30  0  0  0  0  0  0  0  0999 V2000
   28.0165   35.6231   19.9077 N   0  0  0  0  0  0  0  0  0  0  0  0
   28.2414   36.8308   20.3627 C   0  0  0  0  0  0  0  0  0  0  0  0
   27.8408   37.2899   21.5751 N   0  0  0  0  0  0  0  0  0  0  0  0
   27.1951   36.4310   22.4191 C   0  0  0  0  0  0  0  0  0  0  0  0
   26.9433   35.1441   22.0383 C   0  0  0  0  0  0  0  0  0  0  0  0
   27.3501   34.7095   20.7232 C   0  0  0  0  0  0  0  0  0  0  0  0
   27.1107   33.5765   20.2877 O   0  0  0  0  0  0  0  0  0  0  0  0
   28.8402   37.9531   19.4865 C   0  0  2  0  0  0  0  0  0  0  0  0
   28.0925   39.1940   20.0009 C   0  0  0  0  0  0  0  0  0  0  0  0
   28.3194   40.3583   19.1430 N   0  0  0  0  0  0  0  0  0  0  0  0
   27.7890   40.0761   17.7994 C   0  0  0  0  0  0  0  0  0  0  0  0
   28.5311   38.9196   17.1592 C   0  0  0  0  0  0  0  0  0  0  0  0
   28.4478   37.6710   18.0262 C   0  0  0  0  0  0  0  0  0  0  0  0
   26.8649   37.0484   23.6965 C   0  0  0  0  0  0  0  0  0  0  0  0
   27.3247   38.6706   24.0604 S   0  0  0  0  0  0  0  0  0  0  0  0
   26.6475   38.5847   25.5917 C   0  0  0  0  0  0  0  0  0  0  0  0
   26.0544   37.4044   25.8111 C   0  0  0  0  0  0  0  0  0  0  0  0
   26.1759   36.5042   24.7346 C   0  0  0  0  0  0  0  0  0  0  0  0
   27.7001   41.5770   19.6931 C   0  0  0  0  0  0  0  0  0  0  0  0
   28.0624   41.9076   21.1237 C   0  0  0  0  0  0  0  0  0  0  0  0
   27.0813   42.0886   22.0877 C   0  0  0  0  0  0  0  0  0  0  0  0
   27.2771   42.7175   23.2607 N   0  0  0  0  0  0  0  0  0  0  0  0
   28.5000   43.2007   23.4205 C   0  0  0  0  0  0  0  0  0  0  0  0
   29.5226   43.1443   22.5822 N   0  0  0  0  0  0  0  0  0  0  0  0
   29.2651   42.5110   21.4284 C   0  0  0  0  0  0  0  0  0  0  0  0
   28.6884   43.8331   24.5844 O   0  0  0  0  0  0  0  0  0  0  0  0
   29.3471   43.1098   25.6306 C   0  0  0  0  0  0  0  0  0  0  0  0
  1  2  2  0  0  0  0
  1  6  1  0  0  0  0
  2  3  1  0  0  0  0
  3  4  2  0  0  0  0
  4 14  1  0  0  0  0
  5  4  1  0  0  0  0
  6  5  1  0  0  0  0
  7  6  2  0  0  0  0
  8  9  1  0  0  0  0
  8  2  1  1  0  0  0
 10 19  1  0  0  0  0
 10  9  1  0  0  0  0
 11 10  1  0  0  0  0
 12 11  1  0  0  0  0
 12 13  1  0  0  0  0
 13  8  1  0  0  0  0
 14 15  1  0  0  0  0
 14 18  2  0  0  0  0
 15 16  1  0  0  0  0
 16 17  2  0  0  0  0
 18 17  1  0  0  0  0
 19 20  1  0  0  0  0
 20 25  2  0  0  0  0
 20 21  1  0  0  0  0
 21 22  2  0  0  0  0
 22 23  1  0  0  0  0
 23 26  1  0  0  0  0
 24 23  2  0  0  0  0
 25 24  1  0  0  0  0
 26 27  1  0  0  0  0
M  END
>  <CHROM.1>
-2.25030194,143.79560433,52.81316028,-124.83273082,99.98535594,27.81593075
39.12229071,21.82424801,-2.05813245,1.30268306,0.86539390

>  <Name>
lig.pdb

>  <RI>
0

>  <Rbt.Current_Directory>
/home/itssahil/PROJECTS/Mol_Feturizer/New_Systems/rnas/5kx9

>  <Rbt.Executable>
rbdock ($Id: //depot/dev/client3/rdock/2013.1/src/exe/rbdock.cxx#4 $)

>  <Rbt.Library>
libRbt.so (2013.1, Build901 2013/11/27)

>  <Rbt.Parameter_File>
/export/apps/rDock/src/rDock_2013.1_src/data/scripts/dock_solv.prm

>  <Rbt.Receptor>
prm/pocket_docking_5.prm

>  <SCORE>
-39.0233

>  <SCORE.INTER>
-37.4138

>  <SCORE.INTER.CONST>
1

>  <SCORE.INTER.POLAR>
0

>  <SCORE.INTER.ROT>
5

>  <SCORE.INTER.SOLV>
15.7816

>  <SCORE.INTER.VDW>
-37.1364

>  <SCORE.INTER.norm>
-1.3857

>  <SCORE.INTRA>
-1.60953

>  <SCORE.INTRA.DIHEDRAL>
3.89664

>  <SCORE.INTRA.DIHEDRAL.0>
2.68224

>  <SCORE.INTRA.POLAR>
0

>  <SCORE.INTRA.POLAR.0>
0

>  <SCORE.INTRA.REPUL>
0

>  <SCORE.INTRA.REPUL.0>
0

>  <SCORE.INTRA.SOLV>
-0.37044

>  <SCORE.INTRA.SOLV.lig_0>
-19.4148

>  <SCORE.INTRA.VDW>
-3.37263

>  <SCORE.INTRA.VDW.0>
5.42093

>  <SCORE.INTRA.norm>
-0.0596122

>  <SCORE.RESTR>
0

>  <SCORE.RESTR.CAVITY>
0

>  <SCORE.RESTR.norm>
0

>  <SCORE.SYSTEM>
0

>  <SCORE.SYSTEM.CONST>
0

>  <SCORE.SYSTEM.DIHEDRAL>
0

>  <SCORE.SYSTEM.SOLV>
0

>  <SCORE.SYSTEM.norm>
0

>  <SCORE.heavy>
27

>  <SCORE.norm>
-1.44531

>  <RMSD>
0.509

$$$$
lig.pdb
 OpenBabel11021811523D
libRbt.so/2013.1/901 2013/11/27
 27 30  0  0  0  0  0  0  0  0999 V2000
   27.9653   35.8381   19.8360 N   0  0  0  0  0  0  0  0  0  0  0  0
   28.1749   37.0645   20.2462 C   0  0  0  0  0  0  0  0  0  0  0  0
   27.8635   37.5332   21.4809 N   0  0  0  0  0  0  0  0  0  0  0  0
   27.3351   36.6665   22.3956 C   0  0  0  0  0  0  0  0  0  0  0  0
   27.1089   35.3616   22.0632 C   0  0  0  0  0  0  0  0  0  0  0  0
   27.4163   34.9152   20.7253 C   0  0  0  0  0  0  0  0  0  0  0  0
   27.1905   33.7632   20.3343 O   0  0  0  0  0  0  0  0  0  0  0  0
   28.6417   38.1915   19.2988 C   0  0  2  0  0  0  0  0  0  0  0  0
   27.9838   39.4308   19.9271 C   0  0  0  0  0  0  0  0  0  0  0  0
   28.0858   40.6009   19.0532 N   0  0  0  0  0  0  0  0  0  0  0  0
   27.3608   40.3304   17.8012 C   0  0  0  0  0  0  0  0  0  0  0  0
   27.9950   39.1764   17.0499 C   0  0  0  0  0  0  0  0  0  0  0  0
   28.0360   37.9216   17.9109 C   0  0  0  0  0  0  0  0  0  0  0  0
   27.0924   37.2979   23.6858 C   0  0  0  0  0  0  0  0  0  0  0  0
   26.1777   36.5105   24.9180 S   0  0  0  0  0  0  0  0  0  0  0  0
   26.3376   37.8161   25.9575 C   0  0  0  0  0  0  0  0  0  0  0  0
   27.0884   38.7894   25.4265 C   0  0  0  0  0  0  0  0  0  0  0  0
   27.5255   38.5126   24.1164 C   0  0  0  0  0  0  0  0  0  0  0  0
   27.5599   41.8172   19.6975 C   0  0  0  0  0  0  0  0  0  0  0  0
   28.0263   42.0615   21.1154 C   0  0  0  0  0  0  0  0  0  0  0  0
   27.1170   42.2396   22.1479 C   0  0  0  0  0  0  0  0  0  0  0  0
   27.4157   42.8015   23.3332 N   0  0  0  0  0  0  0  0  0  0  0  0
   28.6679   43.2208   23.4355 C   0  0  0  0  0  0  0  0  0  0  0  0
   29.6323   43.1590   22.5312 N   0  0  0  0  0  0  0  0  0  0  0  0
   29.2733   42.5946   21.3688 C   0  0  0  0  0  0  0  0  0  0  0  0
   28.9587   43.7870   24.6123 O   0  0  0  0  0  0  0  0  0  0  0  0
   30.1768   43.3908   25.2535 C   0  0  0  0  0  0  0  0  0  0  0  0
  1  2  2  0  0  0  0
  1  6  1  0  0  0  0
  2  3  1  0  0  0  0
  3  4  2  0  0  0  0
  4 14  1  0  0  0  0
  5  4  1  0  0  0  0
  6  5  1  0  0  0  0
  7  6  2  0  0  0  0
  8  9  1  0  0  0  0
  8  2  1  1  0  0  0
 10 19  1  0  0  0  0
 10  9  1  0  0  0  0
 11 10  1  0  0  0  0
 12 11  1  0  0  0  0
 12 13  1  0  0  0  0
 13  8  1  0  0  0  0
 14 15  1  0  0  0  0
 14 18  2  0  0  0  0
 15 16  1  0  0  0  0
 16 17  2  0  0  0  0
 18 17  1  0  0  0  0
 19 20  1  0  0  0  0
 20 25  2  0  0  0  0
 20 21  1  0  0  0  0
 21 22  2  0  0  0  0
 22 23  1  0  0  0  0
 23 26  1  0  0  0  0
 24 23  2  0  0  0  0
 25 24  1  0  0  0  0
 26 27  1  0  0  0  0
M  END
>  <CHROM.1>
168.93436347,148.44639733,46.92180276,-124.90840524,134.01567608,27.79407083
39.18062037,21.83352446,-2.44917211,1.32387907,1.14907180

>  <Name>
lig.pdb

>  <RI>
0

>  <Rbt.Current_Directory>
/home/itssahil/PROJECTS/Mol_Feturizer/New_Systems/rnas/5kx9

>  <Rbt.Executable>
rbdock ($Id: //depot/dev/client3/rdock/2013.1/src/exe/rbdock.cxx#4 $)

>  <Rbt.Library>
libRbt.so (2013.1, Build901 2013/11/27)

>  <Rbt.Parameter_File>
/export/apps/rDock/src/rDock_2013.1_src/data/scripts/dock_solv.prm

>  <Rbt.Receptor>
prm/pocket_docking_2.prm

>  <SCORE>
-38.6908

>  <SCORE.INTER>
-38.0347

>  <SCORE.INTER.CONST>
1

>  <SCORE.INTER.POLAR>
0

>  <SCORE.INTER.ROT>
5

>  <SCORE.INTER.SOLV>
15.7858

>  <SCORE.INTER.VDW>
-37.5517

>  <SCORE.INTER.norm>
-1.40869

>  <SCORE.INTRA>
-0.656116

>  <SCORE.INTRA.DIHEDRAL>
2.37865

>  <SCORE.INTRA.DIHEDRAL.0>
2.68224

>  <SCORE.INTRA.POLAR>
0

>  <SCORE.INTRA.POLAR.0>
0

>  <SCORE.INTRA.REPUL>
0

>  <SCORE.INTRA.REPUL.0>
0

>  <SCORE.INTRA.SOLV>
-0.568007

>  <SCORE.INTRA.SOLV.lig_0>
-19.4148

>  <SCORE.INTRA.VDW>
-1.56144

>  <SCORE.INTRA.VDW.0>
5.42093

>  <SCORE.INTRA.norm>
-0.0243006

>  <SCORE.RESTR>
0

>  <SCORE.RESTR.CAVITY>
0

>  <SCORE.RESTR.norm>
0

>  <SCORE.SYSTEM>
0

>  <SCORE.SYSTEM.CONST>
0

>  <SCORE.SYSTEM.DIHEDRAL>
0

>  <SCORE.SYSTEM.SOLV>
0

>  <SCORE.SYSTEM.norm>
0

>  <SCORE.heavy>
27

>  <SCORE.norm>
-1.43299

>  <RMSD>
0.520

$$$$
lig.pdb
 OpenBabel11021811523D
libRbt.so/2013.1/901 2013/11/27
 27 30  0  0  0  0  0  0  0  0999 V2000
   27.9060   35.5446   20.0353 N   0  0  0  0  0  0  0  0  0  0  0  0
   28.1085   36.7766   20.4320 C   0  0  0  0  0  0  0  0  0  0  0  0
   27.7340   37.2747   21.6372 N   0  0  0  0  0  0  0  0  0  0  0  0
   27.1429   36.4338   22.5376 C   0  0  0  0  0  0  0  0  0  0  0  0
   26.9184   35.1252   22.2192 C   0  0  0  0  0  0  0  0  0  0  0  0
   27.2951   34.6472   20.9102 C   0  0  0  0  0  0  0  0  0  0  0  0
   27.0763   33.4902   20.5304 O   0  0  0  0  0  0  0  0  0  0  0  0
   28.6434   37.8777   19.4902 C   0  0  2  0  0  0  0  0  0  0  0  0
   27.9599   39.1364   20.0488 C   0  0  0  0  0  0  0  0  0  0  0  0
   28.1266   40.2852   19.1568 N   0  0  0  0  0  0  0  0  0  0  0  0
   27.4774   39.9921   17.8689 C   0  0  0  0  0  0  0  0  0  0  0  0
   28.1455   38.8160   17.1842 C   0  0  0  0  0  0  0  0  0  0  0  0
   28.1216   37.5810   18.0740 C   0  0  0  0  0  0  0  0  0  0  0  0
   26.8361   37.0950   23.7989 C   0  0  0  0  0  0  0  0  0  0  0  0
   27.3037   38.7279   24.0990 S   0  0  0  0  0  0  0  0  0  0  0  0
   26.6537   38.6953   25.6441 C   0  0  0  0  0  0  0  0  0  0  0  0
   26.0636   37.5241   25.9141 C   0  0  0  0  0  0  0  0  0  0  0  0
   26.1651   36.5875   24.8669 C   0  0  0  0  0  0  0  0  0  0  0  0
   27.5737   41.5203   19.7401 C   0  0  0  0  0  0  0  0  0  0  0  0
   28.0757   41.8740   21.1223 C   0  0  0  0  0  0  0  0  0  0  0  0
   27.1934   42.0988   22.1690 C   0  0  0  0  0  0  0  0  0  0  0  0
   27.5117   42.7487   23.3031 N   0  0  0  0  0  0  0  0  0  0  0  0
   28.7541   43.2070   23.3362 C   0  0  0  0  0  0  0  0  0  0  0  0
   29.6919   43.1085   22.4077 N   0  0  0  0  0  0  0  0  0  0  0  0
   29.3141   42.4560   21.2985 C   0  0  0  0  0  0  0  0  0  0  0  0
   29.0641   43.8604   24.4618 O   0  0  0  0  0  0  0  0  0  0  0  0
   30.2277   43.4293   25.1773 C   0  0  0  0  0  0  0  0  0  0  0  0
  1  2  2  0  0  0  0
  1  6  1  0  0  0  0
  2  3  1  0  0  0  0
  3  4  2  0  0  0  0
  4 14  1  0  0  0  0
  5  4  1  0  0  0  0
  6  5  1  0  0  0  0
  7  6  2  0  0  0  0
  8  9  1  0  0  0  0
  8  2  1  1  0  0  0
 10 19  1  0  0  0  0
 10  9  1  0  0  0  0
 11 10  1  0  0  0  0
 12 11  1  0  0  0  0
 12 13  1  0  0  0  0
 13  8  1  0  0  0  0
 14 15  1  0  0  0  0
 14 18  2  0  0  0  0
 15 16  1  0  0  0  0
 16 17  2  0  0  0  0
 18 17  1  0  0  0  0
 19 20  1  0  0  0  0
 20 25  2  0  0  0  0
 20 21  1  0  0  0  0
 21 22  2  0  0  0  0
 22 23  1  0  0  0  0
 23 26  1  0  0  0  0
 24 23  2  0  0  0  0
 25 24  1  0  0  0  0
 26 27  1  0  0  0  0
M  END
>  <CHROM.1>
-4.30479065,148.06684118,53.48728877,-125.61375122,126.52838914,27.81379233
39.11946010,21.85312920,-2.33175525,1.30032826,1.07661589

>  <Name>
lig.pdb

>  <RI>
0

>  <Rbt.Current_Directory>
/home/itssahil/PROJECTS/Mol_Feturizer/New_Systems/rnas/5kx9

>  <Rbt.Executable>
rbdock ($Id: //depot/dev/client3/rdock/2013.1/src/exe/rbdock.cxx#4 $)

>  <Rbt.Library>
libRbt.so (2013.1, Build901 2013/11/27)

>  <Rbt.Parameter_File>
/export/apps/rDock/src/rDock_2013.1_src/data/scripts/dock_solv.prm

>  <Rbt.Receptor>
prm/pocket_docking_2.prm

>  <SCORE>
-39.1844

>  <SCORE.INTER>
-37.8822

>  <SCORE.INTER.CONST>
1

>  <SCORE.INTER.POLAR>
0

>  <SCORE.INTER.ROT>
5

>  <SCORE.INTER.SOLV>
15.7594

>  <SCORE.INTER.VDW>
-37.4413

>  <SCORE.INTER.norm>
-1.40305

>  <SCORE.INTRA>
-1.30218

>  <SCORE.INTRA.DIHEDRAL>
2.42467

>  <SCORE.INTRA.DIHEDRAL.0>
2.68224

>  <SCORE.INTRA.POLAR>
0

>  <SCORE.INTRA.POLAR.0>
0

>  <SCORE.INTRA.REPUL>
0

>  <SCORE.INTRA.REPUL.0>
0

>  <SCORE.INTRA.SOLV>
-0.347897

>  <SCORE.INTRA.SOLV.lig_0>
-19.4148

>  <SCORE.INTRA.VDW>
-2.34057

>  <SCORE.INTRA.VDW.0>
5.42093

>  <SCORE.INTRA.norm>
-0.048229

>  <SCORE.RESTR>
0

>  <SCORE.RESTR.CAVITY>
0

>  <SCORE.RESTR.norm>
0

>  <SCORE.SYSTEM>
0

>  <SCORE.SYSTEM.CONST>
0

>  <SCORE.SYSTEM.DIHEDRAL>
0

>  <SCORE.SYSTEM.SOLV>
0

>  <SCORE.SYSTEM.norm>
0

>  <SCORE.heavy>
27

>  <SCORE.norm>
-1.45127

>  <RMSD>
0.521

$$$$
lig.pdb
 OpenBabel11021811523D
libRbt.so/2013.1/901 2013/11/27
 27 30  0  0  0  0  0  0  0  0999 V2000
   27.8704   35.7218   19.9194 N   0  0  0  0  0  0  0  0  0  0  0  0
   28.1222   36.9469   20.3092 C   0  0  0  0  0  0  0  0  0  0  0  0
   27.8263   37.4468   21.5354 N   0  0  0  0  0  0  0  0  0  0  0  0
   27.2672   36.6145   22.4638 C   0  0  0  0  0  0  0  0  0  0  0  0
   26.9960   35.3129   22.1530 C   0  0  0  0  0  0  0  0  0  0  0  0
   27.2888   34.8336   20.8232 C   0  0  0  0  0  0  0  0  0  0  0  0
   27.0234   33.6838   20.4514 O   0  0  0  0  0  0  0  0  0  0  0  0
   28.6288   38.0408   19.3437 C   0  0  2  0  0  0  0  0  0  0  0  0
   27.9882   39.3085   19.9319 C   0  0  0  0  0  0  0  0  0  0  0  0
   28.1299   40.4551   19.0328 N   0  0  0  0  0  0  0  0  0  0  0  0
   27.4194   40.1708   17.7756 C   0  0  0  0  0  0  0  0  0  0  0  0
   28.0400   38.9859   17.0620 C   0  0  0  0  0  0  0  0  0  0  0  0
   28.0397   37.7512   17.9526 C   0  0  0  0  0  0  0  0  0  0  0  0
   27.0456   37.2757   23.7428 C   0  0  0  0  0  0  0  0  0  0  0  0
   26.1497   36.5179   25.0071 S   0  0  0  0  0  0  0  0  0  0  0  0
   26.3273   37.8468   26.0137 C   0  0  0  0  0  0  0  0  0  0  0  0
   27.0705   38.8067   25.4487 C   0  0  0  0  0  0  0  0  0  0  0  0
   27.4865   38.4994   24.1385 C   0  0  0  0  0  0  0  0  0  0  0  0
   27.6205   41.6974   19.6398 C   0  0  0  0  0  0  0  0  0  0  0  0
   28.0654   41.9626   21.0608 C   0  0  0  0  0  0  0  0  0  0  0  0
   27.1406   42.1679   22.0744 C   0  0  0  0  0  0  0  0  0  0  0  0
   27.4248   42.7480   23.2545 N   0  0  0  0  0  0  0  0  0  0  0  0
   28.6793   43.1571   23.3706 C   0  0  0  0  0  0  0  0  0  0  0  0
   29.6581   43.0700   22.4841 N   0  0  0  0  0  0  0  0  0  0  0  0
   29.3131   42.4882   21.3259 C   0  0  0  0  0  0  0  0  0  0  0  0
   28.9558   43.7415   24.5419 O   0  0  0  0  0  0  0  0  0  0  0  0
   28.8095   42.9496   25.7265 C   0  0  0  0  0  0  0  0  0  0  0  0
  1  2  2  0  0  0  0
  1  6  1  0  0  0  0
  2  3  1  0  0  0  0
  3  4  2  0  0  0  0
  4 14  1  0  0  0  0
  5  4  1  0  0  0  0
  6  5  1  0  0  0  0
  7  6  2  0  0  0  0
  8  9  1  0  0  0  0
  8  2  1  1  0  0  0
 10 19  1  0  0  0  0
 10  9  1  0  0  0  0
 11 10  1  0  0  0  0
 12 11  1  0  0  0  0
 12 13  1  0  0  0  0
 13  8  1  0  0  0  0
 14 15  1  0  0  0  0
 14 18  2  0  0  0  0
 15 16  1  0  0  0  0
 16 17  2  0  0  0  0
 18 17  1  0  0  0  0
 19 20  1  0  0  0  0
 20 25  2  0  0  0  0
 20 21  1  0  0  0  0
 21 22  2  0  0  0  0
 22 23  1  0  0  0  0
 23 26  1  0  0  0  0
 24 23  2  0  0  0  0
 25 24  1  0  0  0  0
 26 27  1  0  0  0  0
M  END
>  <CHROM.1>
171.12619193,147.23774972,46.71329088,-124.07756788,61.78885492,27.72303103
39.08748552,21.86974356,-2.30375406,1.32264307,1.02660340

>  <Name>
lig.pdb

>  <RI>
0

>  <Rbt.Current_Directory>
/home/itssahil/PROJECTS/Mol_Feturizer/New_Systems/rnas/5kx9

>  <Rbt.Executable>
rbdock ($Id: //depot/dev/client3/rdock/2013.1/src/exe/rbdock.cxx#4 $)

>  <Rbt.Library>
libRbt.so (2013.1, Build901 2013/11/27)

>  <Rbt.Parameter_File>
/export/apps/rDock/src/rDock_2013.1_src/data/scripts/dock_solv.prm

>  <Rbt.Receptor>
prm/pocket_docking_2.prm

>  <SCORE>
-38.2043

>  <SCORE.INTER>
-37.5639

>  <SCORE.INTER.CONST>
1

>  <SCORE.INTER.POLAR>
0

>  <SCORE.INTER.ROT>
5

>  <SCORE.INTER.SOLV>
15.5522

>  <SCORE.INTER.VDW>
-37.16

>  <SCORE.INTER.norm>
-1.39126

>  <SCORE.INTRA>
-0.640356

>  <SCORE.INTRA.DIHEDRAL>
3.40177

>  <SCORE.INTRA.DIHEDRAL.0>
2.68224

>  <SCORE.INTRA.POLAR>
0

>  <SCORE.INTRA.POLAR.0>
0

>  <SCORE.INTRA.REPUL>
0

>  <SCORE.INTRA.REPUL.0>
0

>  <SCORE.INTRA.SOLV>
-0.565263

>  <SCORE.INTRA.SOLV.lig_0>
-19.4148

>  <SCORE.INTRA.VDW>
-2.05861

>  <SCORE.INTRA.VDW.0>
5.42093

>  <SCORE.INTRA.norm>
-0.0237169

>  <SCORE.RESTR>
0

>  <SCORE.RESTR.CAVITY>
0

>  <SCORE.RESTR.norm>
0

>  <SCORE.SYSTEM>
0

>  <SCORE.SYSTEM.CONST>
0

>  <SCORE.SYSTEM.DIHEDRAL>
0

>  <SCORE.SYSTEM.SOLV>
0

>  <SCORE.SYSTEM.norm>
0

>  <SCORE.heavy>
27

>  <SCORE.norm>
-1.41497

>  <RMSD>
0.526

$$$$
lig.pdb
 OpenBabel11021811523D
libRbt.so/2013.1/901 2013/11/27
 27 30  0  0  0  0  0  0  0  0999 V2000
   28.0176   35.6197   19.9643 N   0  0  0  0  0  0  0  0  0  0  0  0
   28.2384   36.8334   20.4054 C   0  0  0  0  0  0  0  0  0  0  0  0
   27.8341   37.3059   21.6113 N   0  0  0  0  0  0  0  0  0  0  0  0
   27.1887   36.4555   22.4642 C   0  0  0  0  0  0  0  0  0  0  0  0
   26.9409   35.1635   22.0982 C   0  0  0  0  0  0  0  0  0  0  0  0
   27.3517   34.7142   20.7894 C   0  0  0  0  0  0  0  0  0  0  0  0
   27.1160   33.5755   20.3669 O   0  0  0  0  0  0  0  0  0  0  0  0
   28.8363   37.9465   19.5171 C   0  0  2  0  0  0  0  0  0  0  0  0
   27.8986   39.1288   19.8113 C   0  0  0  0  0  0  0  0  0  0  0  0
   28.1235   40.2422   18.8877 N   0  0  0  0  0  0  0  0  0  0  0  0
   27.8216   39.7985   17.5172 C   0  0  0  0  0  0  0  0  0  0  0  0
   28.7630   38.6895   17.0905 C   0  0  0  0  0  0  0  0  0  0  0  0
   28.6870   37.5098   18.0498 C   0  0  0  0  0  0  0  0  0  0  0  0
   26.8542   37.0873   23.7334 C   0  0  0  0  0  0  0  0  0  0  0  0
   27.3098   38.7146   24.0791 S   0  0  0  0  0  0  0  0  0  0  0  0
   26.6292   38.6454   25.6098 C   0  0  0  0  0  0  0  0  0  0  0  0
   26.0379   37.4666   25.8417 C   0  0  0  0  0  0  0  0  0  0  0  0
   26.1638   36.5540   24.7762 C   0  0  0  0  0  0  0  0  0  0  0  0
   27.3093   41.4199   19.2362 C   0  0  0  0  0  0  0  0  0  0  0  0
   27.6679   42.1027   20.5372 C   0  0  0  0  0  0  0  0  0  0  0  0
   28.9908   42.2483   20.9288 C   0  0  0  0  0  0  0  0  0  0  0  0
   29.3849   42.5067   22.1889 N   0  0  0  0  0  0  0  0  0  0  0  0
   28.3935   42.5768   23.0646 C   0  0  0  0  0  0  0  0  0  0  0  0
   27.0965   42.4209   22.8526 N   0  0  0  0  0  0  0  0  0  0  0  0
   26.7656   42.1597   21.5793 C   0  0  0  0  0  0  0  0  0  0  0  0
   28.7900   42.8250   24.3181 O   0  0  0  0  0  0  0  0  0  0  0  0
   29.9926   43.5832   24.4930 C   0  0  0  0  0  0  0  0  0  0  0  0
  1  2  2  0  0  0  0
  1  6  1  0  0  0  0
  2  3  1  0  0  0  0
  3  4  2  0  0  0  0
  4 14  1  0  0  0  0
  5  4  1  0  0  0  0
  6  5  1  0  0  0  0
  7  6  2  0  0  0  0
  8  9  1  0  0  0  0
  8  2  1  1  0  0  0
 10 19  1  0  0  0  0
 10  9  1  0  0  0  0
 11 10  1  0  0  0  0
 12 11  1  0  0  0  0
 12 13  1  0  0  0  0
 13  8  1  0  0  0  0
 14 15  1  0  0  0  0
 14 18  2  0  0  0  0
 15 16  1  0  0  0  0
 16 17  2  0  0  0  0
 18 17  1  0  0  0  0
 19 20  1  0  0  0  0
 20 25  2  0  0  0  0
 20 21  1  0  0  0  0
 21 22  2  0  0  0  0
 22 23  1  0  0  0  0
 23 26  1  0  0  0  0
 24 23  2  0  0  0  0
 25 24  1  0  0  0  0
 26 27  1  0  0  0  0
M  END
>  <CHROM.1>
-2.28323910,133.00313552,67.13097267,38.99563522,29.14897307,27.78438369
39.02055267,21.65111579,-2.12917453,1.31631165,0.84151634

>  <Name>
lig.pdb

>  <RI>
0

>  <Rbt.Current_Directory>
/home/itssahil/PROJECTS/Mol_Feturizer/New_Systems/rnas/5kx9

>  <Rbt.Executable>
rbdock ($Id: //depot/dev/client3/rdock/2013.1/src/exe/rbdock.cxx#4 $)

>  <Rbt.Library>
libRbt.so (2013.1, Build901 2013/11/27)

>  <Rbt.Parameter_File>
/export/apps/rDock/src/rDock_2013.1_src/data/scripts/dock_solv.prm

>  <Rbt.Receptor>
prm/pocket_docking_5.prm

>  <SCORE>
-38.3886

>  <SCORE.INTER>
-35.9394

>  <SCORE.INTER.CONST>
1

>  <SCORE.INTER.POLAR>
0

>  <SCORE.INTER.ROT>
5

>  <SCORE.INTER.SOLV>
14.2713

>  <SCORE.INTER.VDW>
-35.6501

>  <SCORE.INTER.norm>
-1.33109

>  <SCORE.INTRA>
-2.4492

>  <SCORE.INTRA.DIHEDRAL>
0.298746

>  <SCORE.INTRA.DIHEDRAL.0>
2.68224

>  <SCORE.INTRA.POLAR>
0

>  <SCORE.INTRA.POLAR.0>
0

>  <SCORE.INTRA.REPUL>
0

>  <SCORE.INTRA.REPUL.0>
0

>  <SCORE.INTRA.SOLV>
-0.137335

>  <SCORE.INTRA.SOLV.lig_0>
-19.4148

>  <SCORE.INTRA.VDW>
-2.52991

>  <SCORE.INTRA.VDW.0>
5.42093

>  <SCORE.INTRA.norm>
-0.0907112

>  <SCORE.RESTR>
0

>  <SCORE.RESTR.CAVITY>
0

>  <SCORE.RESTR.norm>
0

>  <SCORE.SYSTEM>
0

>  <SCORE.SYSTEM.CONST>
0

>  <SCORE.SYSTEM.DIHEDRAL>
0

>  <SCORE.SYSTEM.SOLV>
0

>  <SCORE.SYSTEM.norm>
0

>  <SCORE.heavy>
27

>  <SCORE.norm>
-1.4218

>  <RMSD>
0.537

$$$$
lig.pdb
 OpenBabel11021811523D
libRbt.so/2013.1/901 2013/11/27
 27 30  0  0  0  0  0  0  0  0999 V2000
   28.0028   35.7591   19.7457 N   0  0  0  0  0  0  0  0  0  0  0  0
   28.2860   36.9498   20.2128 C   0  0  0  0  0  0  0  0  0  0  0  0
   27.9466   37.3995   21.4472 N   0  0  0  0  0  0  0  0  0  0  0  0
   27.3033   36.5473   22.2999 C   0  0  0  0  0  0  0  0  0  0  0  0
   26.9933   35.2771   21.9065 C   0  0  0  0  0  0  0  0  0  0  0  0
   27.3359   34.8535   20.5697 C   0  0  0  0  0  0  0  0  0  0  0  0
   27.0415   33.7375   20.1239 O   0  0  0  0  0  0  0  0  0  0  0  0
   28.8903   38.0672   19.3344 C   0  0  2  0  0  0  0  0  0  0  0  0
   28.1579   39.3147   19.8548 C   0  0  0  0  0  0  0  0  0  0  0  0
   28.3909   40.4779   18.9969 N   0  0  0  0  0  0  0  0  0  0  0  0
   27.8496   40.2025   17.6562 C   0  0  0  0  0  0  0  0  0  0  0  0
   28.5765   39.0396   17.0102 C   0  0  0  0  0  0  0  0  0  0  0  0
   28.4864   37.7908   17.8762 C   0  0  0  0  0  0  0  0  0  0  0  0
   27.0421   37.1517   23.5994 C   0  0  0  0  0  0  0  0  0  0  0  0
   27.4641   38.7904   23.9337 S   0  0  0  0  0  0  0  0  0  0  0  0
   26.9024   38.6785   25.5094 C   0  0  0  0  0  0  0  0  0  0  0  0
   26.3724   37.4763   25.7675 C   0  0  0  0  0  0  0  0  0  0  0  0
   26.4508   36.5813   24.6827 C   0  0  0  0  0  0  0  0  0  0  0  0
   27.7867   41.7018   19.5522 C   0  0  0  0  0  0  0  0  0  0  0  0
   27.9106   41.8723   21.0498 C   0  0  0  0  0  0  0  0  0  0  0  0
   26.7886   41.8741   21.8658 C   0  0  0  0  0  0  0  0  0  0  0  0
   26.7629   42.3623   23.1191 N   0  0  0  0  0  0  0  0  0  0  0  0
   27.9089   42.8925   23.5192 C   0  0  0  0  0  0  0  0  0  0  0  0
   29.0438   43.0009   22.8472 N   0  0  0  0  0  0  0  0  0  0  0  0
   29.0064   42.5023   21.6027 C   0  0  0  0  0  0  0  0  0  0  0  0
   27.8768   43.3850   24.7628 O   0  0  0  0  0  0  0  0  0  0  0  0
   28.3455   42.5404   25.8205 C   0  0  0  0  0  0  0  0  0  0  0  0
  1  2  2  0  0  0  0
  1  6  1  0  0  0  0
  2  3  1  0  0  0  0
  3  4  2  0  0  0  0
  4 14  1  0  0  0  0
  5  4  1  0  0  0  0
  6  5  1  0  0  0  0
  7  6  2  0  0  0  0
  8  9  1  0  0  0  0
  8  2  1  1  0  0  0
 10 19  1  0  0  0  0
 10  9  1  0  0  0  0
 11 10  1  0  0  0  0
 12 11  1  0  0  0  0
 12 13  1  0  0  0  0
 13  8  1  0  0  0  0
 14 15  1  0  0  0  0
 14 18  2  0  0  0  0
 15 16  1  0  0  0  0
 16 17  2  0  0  0  0
 18 17  1  0  0  0  0
 19 20  1  0  0  0  0
 20 25  2  0  0  0  0
 20 21  1  0  0  0  0
 21 22  2  0  0  0  0
 22 23  1  0  0  0  0
 23 26  1  0  0  0  0
 24 23  2  0  0  0  0
 25 24  1  0  0  0  0
 26 27  1  0  0  0  0
M  END
>  <CHROM.1>
2.45905419,141.32441238,40.07935522,-115.36411275,95.81633743,27.73232656
39.12926337,21.75048422,1.67592768,-1.35024576,-2.48151815

>  <Name>
lig.pdb

>  <RI>
0

>  <Rbt.Current_Directory>
/home/itssahil/PROJECTS/Mol_Feturizer/New_Systems/rnas/5kx9

>  <Rbt.Executable>
rbdock ($Id: //depot/dev/client3/rdock/2013.1/src/exe/rbdock.cxx#4 $)

>  <Rbt.Library>
libRbt.so (2013.1, Build901 2013/11/27)

>  <Rbt.Parameter_File>
/export/apps/rDock/src/rDock_2013.1_src/data/scripts/dock_solv.prm

>  <Rbt.Receptor>
prm/pocket_docking_3.prm

>  <SCORE>
-37.1523

>  <SCORE.INTER>
-35.4311

>  <SCORE.INTER.CONST>
1

>  <SCORE.INTER.POLAR>
0

>  <SCORE.INTER.ROT>
5

>  <SCORE.INTER.SOLV>
13.8196

>  <SCORE.INTER.VDW>
-35.1606

>  <SCORE.INTER.norm>
-1.31226

>  <SCORE.INTRA>
-1.72114

>  <SCORE.INTRA.DIHEDRAL>
4.26863

>  <SCORE.INTRA.DIHEDRAL.0>
2.68224

>  <SCORE.INTRA.POLAR>
0

>  <SCORE.INTRA.POLAR.0>
0

>  <SCORE.INTRA.REPUL>
0

>  <SCORE.INTRA.REPUL.0>
0

>  <SCORE.INTRA.SOLV>
-0.175588

>  <SCORE.INTRA.SOLV.lig_0>
-19.4148

>  <SCORE.INTRA.VDW>
-3.76766

>  <SCORE.INTRA.VDW.0>
5.42093

>  <SCORE.INTRA.norm>
-0.063746

>  <SCORE.RESTR>
0

>  <SCORE.RESTR.CAVITY>
0

>  <SCORE.RESTR.norm>
0

>  <SCORE.SYSTEM>
0

>  <SCORE.SYSTEM.CONST>
0

>  <SCORE.SYSTEM.DIHEDRAL>
0

>  <SCORE.SYSTEM.SOLV>
0

>  <SCORE.SYSTEM.norm>
0

>  <SCORE.heavy>
27

>  <SCORE.norm>
-1.37601

>  <RMSD>
0.553

$$$$
lig.pdb
 OpenBabel11021811523D
libRbt.so/2013.1/901 2013/11/27
 27 30  0  0  0  0  0  0  0  0999 V2000
   27.8933   35.5788   20.0297 N   0  0  0  0  0  0  0  0  0  0  0  0
   28.0843   36.8111   20.4313 C   0  0  0  0  0  0  0  0  0  0  0  0
   27.7132   37.2987   21.6419 N   0  0  0  0  0  0  0  0  0  0  0  0
   27.1390   36.4463   22.5423 C   0  0  0  0  0  0  0  0  0  0  0  0
   26.9274   35.1367   22.2189 C   0  0  0  0  0  0  0  0  0  0  0  0
   27.2996   34.6699   20.9046 C   0  0  0  0  0  0  0  0  0  0  0  0
   27.0916   33.5124   20.5204 O   0  0  0  0  0  0  0  0  0  0  0  0
   28.5991   37.9232   19.4912 C   0  0  2  0  0  0  0  0  0  0  0  0
   27.7695   39.1353   19.9451 C   0  0  0  0  0  0  0  0  0  0  0  0
   27.9105   40.2646   19.0242 N   0  0  0  0  0  0  0  0  0  0  0  0
   27.3943   39.8744   17.7023 C   0  0  0  0  0  0  0  0  0  0  0  0
   28.2119   38.7391   17.1184 C   0  0  0  0  0  0  0  0  0  0  0  0
   28.2201   37.5363   18.0516 C   0  0  0  0  0  0  0  0  0  0  0  0
   26.8340   37.0974   23.8093 C   0  0  0  0  0  0  0  0  0  0  0  0
   27.3082   38.7255   24.1244 S   0  0  0  0  0  0  0  0  0  0  0  0
   26.6571   38.6817   25.6687 C   0  0  0  0  0  0  0  0  0  0  0  0
   26.0618   37.5106   25.9278 C   0  0  0  0  0  0  0  0  0  0  0  0
   26.1601   36.5831   24.8723 C   0  0  0  0  0  0  0  0  0  0  0  0
   27.2106   41.4653   19.5138 C   0  0  0  0  0  0  0  0  0  0  0  0
   27.7778   42.0879   20.7700 C   0  0  0  0  0  0  0  0  0  0  0  0
   29.1316   42.3697   20.8814 C   0  0  0  0  0  0  0  0  0  0  0  0
   29.7692   42.5801   22.0473 N   0  0  0  0  0  0  0  0  0  0  0  0
   28.9986   42.4579   23.1177 C   0  0  0  0  0  0  0  0  0  0  0  0
   27.7114   42.1557   23.1741 N   0  0  0  0  0  0  0  0  0  0  0  0
   27.1323   41.9515   21.9817 C   0  0  0  0  0  0  0  0  0  0  0  0
   29.6381   42.6590   24.2755 O   0  0  0  0  0  0  0  0  0  0  0  0
   28.9110   43.3010   25.3294 C   0  0  0  0  0  0  0  0  0  0  0  0
  1  2  2  0  0  0  0
  1  6  1  0  0  0  0
  2  3  1  0  0  0  0
  3  4  2  0  0  0  0
  4 14  1  0  0  0  0
  5  4  1  0  0  0  0
  6  5  1  0  0  0  0
  7  6  2  0  0  0  0
  8  9  1  0  0  0  0
  8  2  1  1  0  0  0
 10 19  1  0  0  0  0
 10  9  1  0  0  0  0
 11 10  1  0  0  0  0
 12 11  1  0  0  0  0
 12 13  1  0  0  0  0
 13  8  1  0  0  0  0
 14 15  1  0  0  0  0
 14 18  2  0  0  0  0
 15 16  1  0  0  0  0
 16 17  2  0  0  0  0
 18 17  1  0  0  0  0
 19 20  1  0  0  0  0
 20 25  2  0  0  0  0
 20 21  1  0  0  0  0
 21 22  2  0  0  0  0
 22 23  1  0  0  0  0
 23 26  1  0  0  0  0
 24 23  2  0  0  0  0
 25 24  1  0  0  0  0
 26 27  1  0  0  0  0
M  END
>  <CHROM.1>
-5.35652129,141.11714885,66.69029354,50.11391540,144.62190710,27.75884208
38.99311411,21.77226703,-2.31527718,1.32017096,1.08299902

>  <Name>
lig.pdb

>  <RI>
0

>  <Rbt.Current_Directory>
/home/itssahil/PROJECTS/Mol_Feturizer/New_Systems/rnas/5kx9

>  <Rbt.Executable>
rbdock ($Id: //depot/dev/client3/rdock/2013.1/src/exe/rbdock.cxx#4 $)

>  <Rbt.Library>
libRbt.so (2013.1, Build901 2013/11/27)

>  <Rbt.Parameter_File>
/export/apps/rDock/src/rDock_2013.1_src/data/scripts/dock_solv.prm

>  <Rbt.Receptor>
prm/pocket_docking_2.prm

>  <SCORE>
-38.7302

>  <SCORE.INTER>
-36.2133

>  <SCORE.INTER.CONST>
1

>  <SCORE.INTER.POLAR>
0

>  <SCORE.INTER.ROT>
5

>  <SCORE.INTER.SOLV>
14.1846

>  <SCORE.INTER.VDW>
-35.8038

>  <SCORE.INTER.norm>
-1.34123

>  <SCORE.INTRA>
-2.51817

>  <SCORE.INTRA.DIHEDRAL>
1.19173

>  <SCORE.INTRA.DIHEDRAL.0>
2.68224

>  <SCORE.INTRA.POLAR>
0

>  <SCORE.INTRA.POLAR.0>
0

>  <SCORE.INTRA.REPUL>
0

>  <SCORE.INTRA.REPUL.0>
0

>  <SCORE.INTRA.SOLV>
-0.0451354

>  <SCORE.INTRA.SOLV.lig_0>
-19.4148

>  <SCORE.INTRA.VDW>
-3.09146

>  <SCORE.INTRA.VDW.0>
5.42093

>  <SCORE.INTRA.norm>
-0.0932654

>  <SCORE.RESTR>
0.00133761

>  <SCORE.RESTR.CAVITY>
0.00133761

>  <SCORE.RESTR.norm>
4.95412e-05

>  <SCORE.SYSTEM>
0

>  <SCORE.SYSTEM.CONST>
0

>  <SCORE.SYSTEM.DIHEDRAL>
0

>  <SCORE.SYSTEM.SOLV>
0

>  <SCORE.SYSTEM.norm>
0

>  <SCORE.heavy>
27

>  <SCORE.norm>
-1.43445

>  <RMSD>
0.559

$$$$
lig.pdb
 OpenBabel11021811523D
libRbt.so/2013.1/901 2013/11/27
 27 30  0  0  0  0  0  0  0  0999 V2000
   28.0054   35.5938   20.0302 N   0  0  0  0  0  0  0  0  0  0  0  0
   28.2437   36.8333   20.3811 C   0  0  0  0  0  0  0  0  0  0  0  0
   27.9005   37.3813   21.5739 N   0  0  0  0  0  0  0  0  0  0  0  0
   27.3039   36.5864   22.5116 C   0  0  0  0  0  0  0  0  0  0  0  0
   27.0430   35.2735   22.2420 C   0  0  0  0  0  0  0  0  0  0  0  0
   27.3872   34.7421   20.9447 C   0  0  0  0  0  0  0  0  0  0  0  0
   27.1348   33.5785   20.6083 O   0  0  0  0  0  0  0  0  0  0  0  0
   28.7898   37.8882   19.3939 C   0  0  2  0  0  0  0  0  0  0  0  0
   27.9240   39.1148   19.7250 C   0  0  0  0  0  0  0  0  0  0  0  0
   28.0957   40.1823   18.7380 N   0  0  0  0  0  0  0  0  0  0  0  0
   27.6493   39.6967   17.4222 C   0  0  0  0  0  0  0  0  0  0  0  0
   28.5084   38.5380   16.9557 C   0  0  0  0  0  0  0  0  0  0  0  0
   28.4861   37.4004   17.9671 C   0  0  0  0  0  0  0  0  0  0  0  0
   27.0330   37.2975   23.7538 C   0  0  0  0  0  0  0  0  0  0  0  0
   26.0943   36.5867   25.0143 S   0  0  0  0  0  0  0  0  0  0  0  0
   26.2299   37.9561   25.9719 C   0  0  0  0  0  0  0  0  0  0  0  0
   26.9896   38.8963   25.3959 C   0  0  0  0  0  0  0  0  0  0  0  0
   27.4545   38.5385   24.1154 C   0  0  0  0  0  0  0  0  0  0  0  0
   27.3578   41.4018   19.1116 C   0  0  0  0  0  0  0  0  0  0  0  0
   27.7572   42.0320   20.4272 C   0  0  0  0  0  0  0  0  0  0  0  0
   29.0818   42.0518   20.8390 C   0  0  0  0  0  0  0  0  0  0  0  0
   29.4787   42.2568   22.1080 N   0  0  0  0  0  0  0  0  0  0  0  0
   28.4847   42.4051   22.9709 C   0  0  0  0  0  0  0  0  0  0  0  0
   27.1822   42.3704   22.7388 N   0  0  0  0  0  0  0  0  0  0  0  0
   26.8483   42.1571   21.4575 C   0  0  0  0  0  0  0  0  0  0  0  0
   28.8831   42.5998   24.2332 O   0  0  0  0  0  0  0  0  0  0  0  0
   29.9248   43.5571   24.4573 C   0  0  0  0  0  0  0  0  0  0  0  0
  1  2  2  0  0  0  0
  1  6  1  0  0  0  0
  2  3  1  0  0  0  0
  3  4  2  0  0  0  0
  4 14  1  0  0  0  0
  5  4  1  0  0  0  0
  6  5  1  0  0  0  0
  7  6  2  0  0  0  0
  8  9  1  0  0  0  0
  8  2  1  1  0  0  0
 10 19  1  0  0  0  0
 10  9  1  0  0  0  0
 11 10  1  0  0  0  0
 12 11  1  0  0  0  0
 12 13  1  0  0  0  0
 13  8  1  0  0  0  0
 14 15  1  0  0  0  0
 14 18  2  0  0  0  0
 15 16  1  0  0  0  0
 16 17  2  0  0  0  0
 18 17  1  0  0  0  0
 19 20  1  0  0  0  0
 20 25  2  0  0  0  0
 20 21  1  0  0  0  0
 21 22  2  0  0  0  0
 22 23  1  0  0  0  0
 23 26  1  0  0  0  0
 24 23  2  0  0  0  0
 25 24  1  0  0  0  0
 26 27  1  0  0  0  0
M  END
>  <CHROM.1>
171.48122208,136.54098060,60.34661082,37.21470516,46.57207057,27.75881582
38.89832053,21.67220648,-2.34920238,1.31849360,0.90404552

>  <Name>
lig.pdb

>  <RI>
0

>  <Rbt.Current_Directory>
/home/itssahil/PROJECTS/Mol_Feturizer/New_Systems/rnas/5kx9

>  <Rbt.Executable>
rbdock ($Id: //depot/dev/client3/rdock/2013.1/src/exe/rbdock.cxx#4 $)

>  <Rbt.Library>
libRbt.so (2013.1, Build901 2013/11/27)

>  <Rbt.Parameter_File>
/export/apps/rDock/src/rDock_2013.1_src/data/scripts/dock_solv.prm

>  <Rbt.Receptor>
prm/pocket_docking_2.prm

>  <SCORE>
-37.6319

>  <SCORE.INTER>
-35.4379

>  <SCORE.INTER.CONST>
1

>  <SCORE.INTER.POLAR>
0

>  <SCORE.INTER.ROT>
5

>  <SCORE.INTER.SOLV>
14.209

>  <SCORE.INTER.VDW>
-35.2949

>  <SCORE.INTER.norm>
-1.31251

>  <SCORE.INTRA>
-2.194

>  <SCORE.INTRA.DIHEDRAL>
1.84808

>  <SCORE.INTRA.DIHEDRAL.0>
2.68224

>  <SCORE.INTRA.POLAR>
0

>  <SCORE.INTRA.POLAR.0>
0

>  <SCORE.INTRA.REPUL>
0

>  <SCORE.INTRA.REPUL.0>
0

>  <SCORE.INTRA.SOLV>
-0.262978

>  <SCORE.INTRA.SOLV.lig_0>
-19.4148

>  <SCORE.INTRA.VDW>
-2.98655

>  <SCORE.INTRA.VDW.0>
5.42093

>  <SCORE.INTRA.norm>
-0.0812593

>  <SCORE.RESTR>
0

>  <SCORE.RESTR.CAVITY>
0

>  <SCORE.RESTR.norm>
0

>  <SCORE.SYSTEM>
0

>  <SCORE.SYSTEM.CONST>
0

>  <SCORE.SYSTEM.DIHEDRAL>
0

>  <SCORE.SYSTEM.SOLV>
0

>  <SCORE.SYSTEM.norm>
0

>  <SCORE.heavy>
27

>  <SCORE.norm>
-1.39377

>  <RMSD>
0.561

$$$$
lig.pdb
 OpenBabel11021811523D
libRbt.so/2013.1/901 2013/11/27
 27 30  0  0  0  0  0  0  0  0999 V2000
   27.9348   35.5738   20.0280 N   0  0  0  0  0  0  0  0  0  0  0  0
   28.1487   36.8089   20.4090 C   0  0  0  0  0  0  0  0  0  0  0  0
   27.7992   37.3196   21.6165 N   0  0  0  0  0  0  0  0  0  0  0  0
   27.2233   36.4892   22.5361 C   0  0  0  0  0  0  0  0  0  0  0  0
   26.9887   35.1783   22.2347 C   0  0  0  0  0  0  0  0  0  0  0  0
   27.3383   34.6868   20.9232 C   0  0  0  0  0  0  0  0  0  0  0  0
   27.1088   33.5269   20.5587 O   0  0  0  0  0  0  0  0  0  0  0  0
   28.6685   37.8993   19.4465 C   0  0  2  0  0  0  0  0  0  0  0  0
   27.7905   39.1037   19.8233 C   0  0  0  0  0  0  0  0  0  0  0  0
   27.9357   40.2016   18.8658 N   0  0  0  0  0  0  0  0  0  0  0  0
   27.4799   39.7482   17.5418 C   0  0  0  0  0  0  0  0  0  0  0  0
   28.3487   38.6154   17.0318 C   0  0  0  0  0  0  0  0  0  0  0  0
   28.3540   37.4488   18.0098 C   0  0  0  0  0  0  0  0  0  0  0  0
   26.9431   37.1632   23.7968 C   0  0  0  0  0  0  0  0  0  0  0  0
   27.3251   38.8284   24.0342 S   0  0  0  0  0  0  0  0  0  0  0  0
   26.7601   38.7970   25.6124 C   0  0  0  0  0  0  0  0  0  0  0  0
   26.2576   37.5999   25.9402 C   0  0  0  0  0  0  0  0  0  0  0  0
   26.3611   36.6443   24.9106 C   0  0  0  0  0  0  0  0  0  0  0  0
   27.1863   41.3995   19.2834 C   0  0  0  0  0  0  0  0  0  0  0  0
   27.5809   41.9863   20.6204 C   0  0  0  0  0  0  0  0  0  0  0  0
   28.9146   42.1523   20.9641 C   0  0  0  0  0  0  0  0  0  0  0  0
   29.3582   42.3213   22.2229 N   0  0  0  0  0  0  0  0  0  0  0  0
   28.4075   42.2787   23.1442 C   0  0  0  0  0  0  0  0  0  0  0  0
   27.1085   42.0887   22.9773 N   0  0  0  0  0  0  0  0  0  0  0  0
   26.7275   41.9205   21.7024 C   0  0  0  0  0  0  0  0  0  0  0  0
   28.8536   42.4382   24.3955 O   0  0  0  0  0  0  0  0  0  0  0  0
   27.9924   43.1076   25.3239 C   0  0  0  0  0  0  0  0  0  0  0  0
  1  2  2  0  0  0  0
  1  6  1  0  0  0  0
  2  3  1  0  0  0  0
  3  4  2  0  0  0  0
  4 14  1  0  0  0  0
  5  4  1  0  0  0  0
  6  5  1  0  0  0  0
  7  6  2  0  0  0  0
  8  9  1  0  0  0  0
  8  2  1  1  0  0  0
 10 19  1  0  0  0  0
 10  9  1  0  0  0  0
 11 10  1  0  0  0  0
 12 11  1  0  0  0  0
 12 13  1  0  0  0  0
 13  8  1  0  0  0  0
 14 15  1  0  0  0  0
 14 18  2  0  0  0  0
 15 16  1  0  0  0  0
 16 17  2  0  0  0  0
 18 17  1  0  0  0  0
 19 20  1  0  0  0  0
 20 25  2  0  0  0  0
 20 21  1  0  0  0  0
 21 22  2  0  0  0  0
 22 23  1  0  0  0  0
 23 26  1  0  0  0  0
 24 23  2  0  0  0  0
 25 24  1  0  0  0  0
 26 27  1  0  0  0  0
M  END
>  <CHROM.1>
-0.09263510,137.20053079,59.57807535,45.06511281,146.98285501,27.65874107
38.95237456,21.72775214,1.85713529,-1.37715552,-2.36423524

>  <Name>
lig.pdb

>  <RI>
0

>  <Rbt.Current_Directory>
/home/itssahil/PROJECTS/Mol_Feturizer/New_Systems/rnas/5kx9

>  <Rbt.Executable>
rbdock ($Id: //depot/dev/client3/rdock/2013.1/src/exe/rbdock.cxx#4 $)

>  <Rbt.Library>
libRbt.so (2013.1, Build901 2013/11/27)

>  <Rbt.Parameter_File>
/export/apps/rDock/src/rDock_2013.1_src/data/scripts/dock_solv.prm

>  <Rbt.Receptor>
prm/pocket_docking_2.prm

>  <SCORE>
-37.6619

>  <SCORE.INTER>
-34.5009

>  <SCORE.INTER.CONST>
1

>  <SCORE.INTER.POLAR>
0

>  <SCORE.INTER.ROT>
5

>  <SCORE.INTER.SOLV>
13.064

>  <SCORE.INTER.VDW>
-34.2886

>  <SCORE.INTER.norm>
-1.27781

>  <SCORE.INTRA>
-3.16101

>  <SCORE.INTRA.DIHEDRAL>
0.651967

>  <SCORE.INTRA.DIHEDRAL.0>
2.68224

>  <SCORE.INTRA.POLAR>
0

>  <SCORE.INTRA.POLAR.0>
0

>  <SCORE.INTRA.REPUL>
0

>  <SCORE.INTRA.REPUL.0>
0

>  <SCORE.INTRA.SOLV>
0.205236

>  <SCORE.INTRA.SOLV.lig_0>
-19.4148

>  <SCORE.INTRA.VDW>
-3.58961

>  <SCORE.INTRA.VDW.0>
5.42093

>  <SCORE.INTRA.norm>
-0.117074

>  <SCORE.RESTR>
0

>  <SCORE.RESTR.CAVITY>
0

>  <SCORE.RESTR.norm>
0

>  <SCORE.SYSTEM>
0

>  <SCORE.SYSTEM.CONST>
0

>  <SCORE.SYSTEM.DIHEDRAL>
0

>  <SCORE.SYSTEM.SOLV>
0

>  <SCORE.SYSTEM.norm>
0

>  <SCORE.heavy>
27

>  <SCORE.norm>
-1.39488

>  <RMSD>
0.575

$$$$
lig.pdb
 OpenBabel11021811523D
libRbt.so/2013.1/901 2013/11/27
 27 30  0  0  0  0  0  0  0  0999 V2000
   28.0571   35.8951   19.7603 N   0  0  0  0  0  0  0  0  0  0  0  0
   28.3195   37.0771   20.2607 C   0  0  0  0  0  0  0  0  0  0  0  0
   27.9653   37.4889   21.5040 N   0  0  0  0  0  0  0  0  0  0  0  0
   27.3290   36.6052   22.3294 C   0  0  0  0  0  0  0  0  0  0  0  0
   27.0404   35.3414   21.9005 C   0  0  0  0  0  0  0  0  0  0  0  0
   27.3981   34.9584   20.5555 C   0  0  0  0  0  0  0  0  0  0  0  0
   27.1232   33.8505   20.0782 O   0  0  0  0  0  0  0  0  0  0  0  0
   28.9131   38.2261   19.4163 C   0  0  2  0  0  0  0  0  0  0  0  0
   28.0386   39.4180   19.8382 C   0  0  0  0  0  0  0  0  0  0  0  0
   28.2582   40.5828   18.9790 N   0  0  0  0  0  0  0  0  0  0  0  0
   27.8686   40.2439   17.6008 C   0  0  0  0  0  0  0  0  0  0  0  0
   28.7426   39.1338   17.0513 C   0  0  0  0  0  0  0  0  0  0  0  0
   28.6709   37.8953   17.9338 C   0  0  0  0  0  0  0  0  0  0  0  0
   27.0503   37.1711   23.6425 C   0  0  0  0  0  0  0  0  0  0  0  0
   27.4586   38.8021   24.0274 S   0  0  0  0  0  0  0  0  0  0  0  0
   26.8808   38.6425   25.5932 C   0  0  0  0  0  0  0  0  0  0  0  0
   26.3555   37.4304   25.8116 C   0  0  0  0  0  0  0  0  0  0  0  0
   26.4509   36.5669   24.7028 C   0  0  0  0  0  0  0  0  0  0  0  0
   27.5096   41.7622   19.4479 C   0  0  0  0  0  0  0  0  0  0  0  0
   27.8331   42.2288   20.8498 C   0  0  0  0  0  0  0  0  0  0  0  0
   29.1467   42.3935   21.2646 C   0  0  0  0  0  0  0  0  0  0  0  0
   29.5340   42.4529   22.5516 N   0  0  0  0  0  0  0  0  0  0  0  0
   28.5483   42.3001   23.4231 C   0  0  0  0  0  0  0  0  0  0  0  0
   27.2629   42.0956   23.1834 N   0  0  0  0  0  0  0  0  0  0  0  0
   26.9388   42.0401   21.8831 C   0  0  0  0  0  0  0  0  0  0  0  0
   28.9386   42.3509   24.7019 O   0  0  0  0  0  0  0  0  0  0  0  0
   28.1403   43.1229   25.6065 C   0  0  0  0  0  0  0  0  0  0  0  0
  1  2  2  0  0  0  0
  1  6  1  0  0  0  0
  2  3  1  0  0  0  0
  3  4  2  0  0  0  0
  4 14  1  0  0  0  0
  5  4  1  0  0  0  0
  6  5  1  0  0  0  0
  7  6  2  0  0  0  0
  8  9  1  0  0  0  0
  8  2  1  1  0  0  0
 10 19  1  0  0  0  0
 10  9  1  0  0  0  0
 11 10  1  0  0  0  0
 12 11  1  0  0  0  0
 12 13  1  0  0  0  0
 13  8  1  0  0  0  0
 14 15  1  0  0  0  0
 14 18  2  0  0  0  0
 15 16  1  0  0  0  0
 16 17  2  0  0  0  0
 18 17  1  0  0  0  0
 19 20  1  0  0  0  0
 20 25  2  0  0  0  0
 20 21  1  0  0  0  0
 21 22  2  0  0  0  0
 22 23  1  0  0  0  0
 23 26  1  0  0  0  0
 24 23  2  0  0  0  0
 25 24  1  0  0  0  0
 26 27  1  0  0  0  0
M  END
>  <CHROM.1>
1.90602552,134.58107404,59.17035765,48.19703793,135.72770387,27.83726002
39.12045128,21.72689485,1.82407221,-1.34143985,-2.31971822

>  <Name>
lig.pdb

>  <RI>
0

>  <Rbt.Current_Directory>
/home/itssahil/PROJECTS/Mol_Feturizer/New_Systems/rnas/5kx9

>  <Rbt.Executable>
rbdock ($Id: //depot/dev/client3/rdock/2013.1/src/exe/rbdock.cxx#4 $)

>  <Rbt.Library>
libRbt.so (2013.1, Build901 2013/11/27)

>  <Rbt.Parameter_File>
/export/apps/rDock/src/rDock_2013.1_src/data/scripts/dock_solv.prm

>  <Rbt.Receptor>
prm/pocket_docking_3.prm

>  <SCORE>
-37.9507

>  <SCORE.INTER>
-34.5018

>  <SCORE.INTER.CONST>
1

>  <SCORE.INTER.POLAR>
0

>  <SCORE.INTER.ROT>
5

>  <SCORE.INTER.SOLV>
12.6749

>  <SCORE.INTER.VDW>
-34.1595

>  <SCORE.INTER.norm>
-1.27784

>  <SCORE.INTRA>
-3.44892

>  <SCORE.INTRA.DIHEDRAL>
1.62067

>  <SCORE.INTRA.DIHEDRAL.0>
2.68224

>  <SCORE.INTRA.POLAR>
0

>  <SCORE.INTRA.POLAR.0>
0

>  <SCORE.INTRA.REPUL>
0

>  <SCORE.INTRA.REPUL.0>
0

>  <SCORE.INTRA.SOLV>
0.198036

>  <SCORE.INTRA.SOLV.lig_0>
-19.4148

>  <SCORE.INTRA.VDW>
-4.35827

>  <SCORE.INTRA.VDW.0>
5.42093

>  <SCORE.INTRA.norm>
-0.127738

>  <SCORE.RESTR>
0

>  <SCORE.RESTR.CAVITY>
0

>  <SCORE.RESTR.norm>
0

>  <SCORE.SYSTEM>
0

>  <SCORE.SYSTEM.CONST>
0

>  <SCORE.SYSTEM.DIHEDRAL>
0

>  <SCORE.SYSTEM.SOLV>
0

>  <SCORE.SYSTEM.norm>
0

>  <SCORE.heavy>
27

>  <SCORE.norm>
-1.40558

>  <RMSD>
0.578

$$$$
lig.pdb
 OpenBabel11021811523D
libRbt.so/2013.1/901 2013/11/27
 27 30  0  0  0  0  0  0  0  0999 V2000
   27.9791   35.7951   19.9548 N   0  0  0  0  0  0  0  0  0  0  0  0
   28.1881   37.0442   20.2897 C   0  0  0  0  0  0  0  0  0  0  0  0
   27.8717   37.5882   21.4919 N   0  0  0  0  0  0  0  0  0  0  0  0
   27.3384   36.7797   22.4557 C   0  0  0  0  0  0  0  0  0  0  0  0
   27.1124   35.4570   22.2032 C   0  0  0  0  0  0  0  0  0  0  0  0
   27.4252   34.9290   20.8966 C   0  0  0  0  0  0  0  0  0  0  0  0
   27.2000   33.7553   20.5763 O   0  0  0  0  0  0  0  0  0  0  0  0
   28.6602   38.1104   19.2769 C   0  0  2  0  0  0  0  0  0  0  0  0
   28.0914   39.4030   19.8845 C   0  0  0  0  0  0  0  0  0  0  0  0
   28.2051   40.5327   18.9603 N   0  0  0  0  0  0  0  0  0  0  0  0
   27.4088   40.2499   17.7553 C   0  0  0  0  0  0  0  0  0  0  0  0
   27.9518   39.0389   17.0226 C   0  0  0  0  0  0  0  0  0  0  0  0
   27.9763   37.8173   17.9307 C   0  0  0  0  0  0  0  0  0  0  0  0
   27.0907   37.4894   23.7036 C   0  0  0  0  0  0  0  0  0  0  0  0
   26.3497   36.7110   25.0527 S   0  0  0  0  0  0  0  0  0  0  0  0
   26.4036   38.1132   25.9702 C   0  0  0  0  0  0  0  0  0  0  0  0
   26.9976   39.1180   25.3141 C   0  0  0  0  0  0  0  0  0  0  0  0
   27.3929   38.7803   24.0050 C   0  0  0  0  0  0  0  0  0  0  0  0
   27.7678   41.7966   19.5788 C   0  0  0  0  0  0  0  0  0  0  0  0
   27.7548   41.8160   21.0910 C   0  0  0  0  0  0  0  0  0  0  0  0
   26.5606   41.8302   21.7969 C   0  0  0  0  0  0  0  0  0  0  0  0
   26.4454   42.1996   23.0854 N   0  0  0  0  0  0  0  0  0  0  0  0
   27.5805   42.5978   23.6400 C   0  0  0  0  0  0  0  0  0  0  0  0
   28.7811   42.6784   23.0889 N   0  0  0  0  0  0  0  0  0  0  0  0
   28.8320   42.3029   21.8024 C   0  0  0  0  0  0  0  0  0  0  0  0
   27.4603   42.9728   24.9186 O   0  0  0  0  0  0  0  0  0  0  0  0
   28.6605   43.3088   25.6246 C   0  0  0  0  0  0  0  0  0  0  0  0
  1  2  2  0  0  0  0
  1  6  1  0  0  0  0
  2  3  1  0  0  0  0
  3  4  2  0  0  0  0
  4 14  1  0  0  0  0
  5  4  1  0  0  0  0
  6  5  1  0  0  0  0
  7  6  2  0  0  0  0
  8  9  1  0  0  0  0
  8  2  1  1  0  0  0
 10 19  1  0  0  0  0
 10  9  1  0  0  0  0
 11 10  1  0  0  0  0
 12 11  1  0  0  0  0
 12 13  1  0  0  0  0
 13  8  1  0  0  0  0
 14 15  1  0  0  0  0
 14 18  2  0  0  0  0
 15 16  1  0  0  0  0
 16 17  2  0  0  0  0
 18 17  1  0  0  0  0
 19 20  1  0  0  0  0
 20 25  2  0  0  0  0
 20 21  1  0  0  0  0
 21 22  2  0  0  0  0
 22 23  1  0  0  0  0
 23 26  1  0  0  0  0
 24 23  2  0  0  0  0
 25 24  1  0  0  0  0
 26 27  1  0  0  0  0
M  END
>  <CHROM.1>
177.00194503,152.63218459,20.30717010,-109.22582940,174.82237057,27.55476209
39.09411905,21.90185509,1.63987418,-1.38537230,-2.50922746

>  <Name>
lig.pdb

>  <RI>
0

>  <Rbt.Current_Directory>
/home/itssahil/PROJECTS/Mol_Feturizer/New_Systems/rnas/5kx9

>  <Rbt.Executable>
rbdock ($Id: //depot/dev/client3/rdock/2013.1/src/exe/rbdock.cxx#4 $)

>  <Rbt.Library>
libRbt.so (2013.1, Build901 2013/11/27)

>  <Rbt.Parameter_File>
/export/apps/rDock/src/rDock_2013.1_src/data/scripts/dock_solv.prm

>  <Rbt.Receptor>
prm/pocket_docking_2.prm

>  <SCORE>
-34.5916

>  <SCORE.INTER>
-35.9665

>  <SCORE.INTER.CONST>
1

>  <SCORE.INTER.POLAR>
0

>  <SCORE.INTER.ROT>
5

>  <SCORE.INTER.SOLV>
13.6544

>  <SCORE.INTER.VDW>
-35.4625

>  <SCORE.INTER.norm>
-1.33209

>  <SCORE.INTRA>
1.37492

>  <SCORE.INTRA.DIHEDRAL>
0.722597

>  <SCORE.INTRA.DIHEDRAL.0>
2.68224

>  <SCORE.INTRA.POLAR>
0

>  <SCORE.INTRA.POLAR.0>
0

>  <SCORE.INTRA.REPUL>
0

>  <SCORE.INTRA.REPUL.0>
0

>  <SCORE.INTRA.SOLV>
-0.179129

>  <SCORE.INTRA.SOLV.lig_0>
-19.4148

>  <SCORE.INTRA.VDW>
1.10318

>  <SCORE.INTRA.VDW.0>
5.42093

>  <SCORE.INTRA.norm>
0.0509229

>  <SCORE.RESTR>
0

>  <SCORE.RESTR.CAVITY>
0

>  <SCORE.RESTR.norm>
0

>  <SCORE.SYSTEM>
0

>  <SCORE.SYSTEM.CONST>
0

>  <SCORE.SYSTEM.DIHEDRAL>
0

>  <SCORE.SYSTEM.SOLV>
0

>  <SCORE.SYSTEM.norm>
0

>  <SCORE.heavy>
27

>  <SCORE.norm>
-1.28117

>  <RMSD>
0.583

$$$$
lig.pdb
 OpenBabel11021811523D
libRbt.so/2013.1/901 2013/11/27
 27 30  0  0  0  0  0  0  0  0999 V2000
   27.9761   35.5828   20.0507 N   0  0  0  0  0  0  0  0  0  0  0  0
   28.1113   36.8277   20.4356 C   0  0  0  0  0  0  0  0  0  0  0  0
   27.7184   37.3141   21.6398 N   0  0  0  0  0  0  0  0  0  0  0  0
   27.1831   36.4488   22.5518 C   0  0  0  0  0  0  0  0  0  0  0  0
   27.0309   35.1268   22.2460 C   0  0  0  0  0  0  0  0  0  0  0  0
   27.4240   34.6598   20.9379 C   0  0  0  0  0  0  0  0  0  0  0  0
   27.2685   33.4890   20.5693 O   0  0  0  0  0  0  0  0  0  0  0  0
   28.5755   37.9493   19.4805 C   0  0  2  0  0  0  0  0  0  0  0  0
   27.7395   39.1461   19.9622 C   0  0  0  0  0  0  0  0  0  0  0  0
   27.8305   40.2782   19.0385 N   0  0  0  0  0  0  0  0  0  0  0  0
   27.2789   39.8794   17.7335 C   0  0  0  0  0  0  0  0  0  0  0  0
   28.0972   38.7592   17.1223 C   0  0  0  0  0  0  0  0  0  0  0  0
   28.1571   37.5563   18.0535 C   0  0  0  0  0  0  0  0  0  0  0  0
   26.8488   37.1023   23.8101 C   0  0  0  0  0  0  0  0  0  0  0  0
   27.2983   38.7375   24.1251 S   0  0  0  0  0  0  0  0  0  0  0  0
   26.6215   38.6934   25.6583 C   0  0  0  0  0  0  0  0  0  0  0  0
   26.0357   37.5165   25.9130 C   0  0  0  0  0  0  0  0  0  0  0  0
   26.1630   36.5851   24.8641 C   0  0  0  0  0  0  0  0  0  0  0  0
   27.1254   41.4660   19.5516 C   0  0  0  0  0  0  0  0  0  0  0  0
   27.7380   42.1149   20.7728 C   0  0  0  0  0  0  0  0  0  0  0  0
   29.1002   42.3683   20.8419 C   0  0  0  0  0  0  0  0  0  0  0  0
   29.7715   42.6008   21.9844 N   0  0  0  0  0  0  0  0  0  0  0  0
   29.0255   42.5310   23.0766 C   0  0  0  0  0  0  0  0  0  0  0  0
   27.7335   42.2611   23.1743 N   0  0  0  0  0  0  0  0  0  0  0  0
   27.1202   42.0325   22.0036 C   0  0  0  0  0  0  0  0  0  0  0  0
   29.6983   42.7540   24.2114 O   0  0  0  0  0  0  0  0  0  0  0  0
   28.9601   43.2630   25.3284 C   0  0  0  0  0  0  0  0  0  0  0  0
  1  2  2  0  0  0  0
  1  6  1  0  0  0  0
  2  3  1  0  0  0  0
  3  4  2  0  0  0  0
  4 14  1  0  0  0  0
  5  4  1  0  0  0  0
  6  5  1  0  0  0  0
  7  6  2  0  0  0  0
  8  9  1  0  0  0  0
  8  2  1  1  0  0  0
 10 19  1  0  0  0  0
 10  9  1  0  0  0  0
 11 10  1  0  0  0  0
 12 11  1  0  0  0  0
 12 13  1  0  0  0  0
 13  8  1  0  0  0  0
 14 15  1  0  0  0  0
 14 18  2  0  0  0  0
 15 16  1  0  0  0  0
 16 17  2  0  0  0  0
 18 17  1  0  0  0  0
 19 20  1  0  0  0  0
 20 25  2  0  0  0  0
 20 21  1  0  0  0  0
 21 22  2  0  0  0  0
 22 23  1  0  0  0  0
 23 26  1  0  0  0  0
 24 23  2  0  0  0  0
 25 24  1  0  0  0  0
 26 27  1  0  0  0  0
M  END
>  <CHROM.1>
-7.55812293,143.66614589,67.90270513,46.74499482,153.74882866,27.76177800
39.01094002,21.77313346,-2.34121639,1.33526742,1.09007253

>  <Name>
lig.pdb

>  <RI>
0

>  <Rbt.Current_Directory>
/home/itssahil/PROJECTS/Mol_Feturizer/New_Systems/rnas/5kx9

>  <Rbt.Executable>
rbdock ($Id: //depot/dev/client3/rdock/2013.1/src/exe/rbdock.cxx#4 $)

>  <Rbt.Library>
libRbt.so (2013.1, Build901 2013/11/27)

>  <Rbt.Parameter_File>
/export/apps/rDock/src/rDock_2013.1_src/data/scripts/dock_solv.prm

>  <Rbt.Receptor>
prm/pocket_docking_2.prm

>  <SCORE>
-38.6942

>  <SCORE.INTER>
-36.6955

>  <SCORE.INTER.CONST>
1

>  <SCORE.INTER.POLAR>
0

>  <SCORE.INTER.ROT>
5

>  <SCORE.INTER.SOLV>
14.6453

>  <SCORE.INTER.VDW>
-36.2788

>  <SCORE.INTER.norm>
-1.35909

>  <SCORE.INTRA>
-1.99871

>  <SCORE.INTRA.DIHEDRAL>
0.593754

>  <SCORE.INTRA.DIHEDRAL.0>
2.68224

>  <SCORE.INTRA.POLAR>
0

>  <SCORE.INTRA.POLAR.0>
0

>  <SCORE.INTRA.REPUL>
0

>  <SCORE.INTRA.REPUL.0>
0

>  <SCORE.INTRA.SOLV>
-0.0822169

>  <SCORE.INTRA.SOLV.lig_0>
-19.4148

>  <SCORE.INTRA.VDW>
-2.25448

>  <SCORE.INTRA.VDW.0>
5.42093

>  <SCORE.INTRA.norm>
-0.0740263

>  <SCORE.RESTR>
0

>  <SCORE.RESTR.CAVITY>
0

>  <SCORE.RESTR.norm>
0

>  <SCORE.SYSTEM>
0

>  <SCORE.SYSTEM.CONST>
0

>  <SCORE.SYSTEM.DIHEDRAL>
0

>  <SCORE.SYSTEM.SOLV>
0

>  <SCORE.SYSTEM.norm>
0

>  <SCORE.heavy>
27

>  <SCORE.norm>
-1.43312

>  <RMSD>
0.584

$$$$
lig.pdb
 OpenBabel11021811523D
libRbt.so/2013.1/901 2013/11/27
 27 30  0  0  0  0  0  0  0  0999 V2000
   27.8407   35.5383   19.9227 N   0  0  0  0  0  0  0  0  0  0  0  0
   27.9454   36.8256   20.1423 C   0  0  0  0  0  0  0  0  0  0  0  0
   27.6754   37.4352   21.3240 N   0  0  0  0  0  0  0  0  0  0  0  0
   27.3115   36.6626   22.3906 C   0  0  0  0  0  0  0  0  0  0  0  0
   27.2044   35.3076   22.2599 C   0  0  0  0  0  0  0  0  0  0  0  0
   27.4606   34.7047   20.9737 C   0  0  0  0  0  0  0  0  0  0  0  0
   27.3331   33.4919   20.7643 O   0  0  0  0  0  0  0  0  0  0  0  0
   28.2178   37.8438   19.0133 C   0  0  2  0  0  0  0  0  0  0  0  0
   28.3304   39.1639   19.7933 C   0  0  0  0  0  0  0  0  0  0  0  0
   28.3466   40.3227   18.8988 N   0  0  0  0  0  0  0  0  0  0  0  0
   27.0741   40.3785   18.1613 C   0  0  0  0  0  0  0  0  0  0  0  0
   26.9088   39.1569   17.2789 C   0  0  0  0  0  0  0  0  0  0  0  0
   26.9806   37.8769   18.1000 C   0  0  0  0  0  0  0  0  0  0  0  0
   27.0959   37.4472   23.5990 C   0  0  0  0  0  0  0  0  0  0  0  0
   26.4516   36.7373   25.0329 S   0  0  0  0  0  0  0  0  0  0  0  0
   26.4939   38.2003   25.8505 C   0  0  0  0  0  0  0  0  0  0  0  0
   27.0158   39.1784   25.0994 C   0  0  0  0  0  0  0  0  0  0  0  0
   27.3610   38.7658   23.7977 C   0  0  0  0  0  0  0  0  0  0  0  0
   28.5698   41.5813   19.6318 C   0  0  0  0  0  0  0  0  0  0  0  0
   28.3715   41.5112   21.1295 C   0  0  0  0  0  0  0  0  0  0  0  0
   27.2123   41.9909   21.7218 C   0  0  0  0  0  0  0  0  0  0  0  0
   27.0969   42.2940   23.0274 N   0  0  0  0  0  0  0  0  0  0  0  0
   28.2128   42.1341   23.7229 C   0  0  0  0  0  0  0  0  0  0  0  0
   29.3974   41.7277   23.2950 N   0  0  0  0  0  0  0  0  0  0  0  0
   29.4521   41.4464   21.9848 C   0  0  0  0  0  0  0  0  0  0  0  0
   28.0966   42.4450   25.0190 O   0  0  0  0  0  0  0  0  0  0  0  0
   29.1743   43.1685   25.6245 C   0  0  0  0  0  0  0  0  0  0  0  0
  1  2  2  0  0  0  0
  1  6  1  0  0  0  0
  2  3  1  0  0  0  0
  3  4  2  0  0  0  0
  4 14  1  0  0  0  0
  5  4  1  0  0  0  0
  6  5  1  0  0  0  0
  7  6  2  0  0  0  0
  8  9  1  0  0  0  0
  8  2  1  1  0  0  0
 10 19  1  0  0  0  0
 10  9  1  0  0  0  0
 11 10  1  0  0  0  0
 12 11  1  0  0  0  0
 12 13  1  0  0  0  0
 13  8  1  0  0  0  0
 14 15  1  0  0  0  0
 14 18  2  0  0  0  0
 15 16  1  0  0  0  0
 16 17  2  0  0  0  0
 18 17  1  0  0  0  0
 19 20  1  0  0  0  0
 20 25  2  0  0  0  0
 20 21  1  0  0  0  0
 21 22  2  0  0  0  0
 22 23  1  0  0  0  0
 23 26  1  0  0  0  0
 24 23  2  0  0  0  0
 25 24  1  0  0  0  0
 26 27  1  0  0  0  0
M  END
>  <CHROM.1>
172.70052926,-176.77948273,-15.60786956,-101.76753057,-138.50324835,27.67210940
38.92191328,21.91176658,2.23917884,-1.37378966,-1.92410966

>  <Name>
lig.pdb

>  <RI>
0

>  <Rbt.Current_Directory>
/home/itssahil/PROJECTS/Mol_Feturizer/New_Systems/rnas/5kx9

>  <Rbt.Executable>
rbdock ($Id: //depot/dev/client3/rdock/2013.1/src/exe/rbdock.cxx#4 $)

>  <Rbt.Library>
libRbt.so (2013.1, Build901 2013/11/27)

>  <Rbt.Parameter_File>
/export/apps/rDock/src/rDock_2013.1_src/data/scripts/dock_solv.prm

>  <Rbt.Receptor>
prm/pocket_docking_2.prm

>  <SCORE>
-33.5397

>  <SCORE.INTER>
-35.2638

>  <SCORE.INTER.CONST>
1

>  <SCORE.INTER.POLAR>
0

>  <SCORE.INTER.ROT>
5

>  <SCORE.INTER.SOLV>
13.0187

>  <SCORE.INTER.VDW>
-34.7821

>  <SCORE.INTER.norm>
-1.30607

>  <SCORE.INTRA>
1.72411

>  <SCORE.INTRA.DIHEDRAL>
2.9834

>  <SCORE.INTRA.DIHEDRAL.0>
2.68224

>  <SCORE.INTRA.POLAR>
0

>  <SCORE.INTRA.POLAR.0>
0

>  <SCORE.INTRA.REPUL>
0

>  <SCORE.INTRA.REPUL.0>
0

>  <SCORE.INTRA.SOLV>
0.129227

>  <SCORE.INTRA.SOLV.lig_0>
-19.4148

>  <SCORE.INTRA.VDW>
0.167795

>  <SCORE.INTRA.VDW.0>
5.42093

>  <SCORE.INTRA.norm>
0.0638559

>  <SCORE.RESTR>
0

>  <SCORE.RESTR.CAVITY>
0

>  <SCORE.RESTR.norm>
0

>  <SCORE.SYSTEM>
0

>  <SCORE.SYSTEM.CONST>
0

>  <SCORE.SYSTEM.DIHEDRAL>
0

>  <SCORE.SYSTEM.SOLV>
0

>  <SCORE.SYSTEM.norm>
0

>  <SCORE.heavy>
27

>  <SCORE.norm>
-1.24221

>  <RMSD>
0.591

$$$$
lig.pdb
 OpenBabel11021811523D
libRbt.so/2013.1/901 2013/11/27
 27 30  0  0  0  0  0  0  0  0999 V2000
   27.9051   35.8487   19.9180 N   0  0  0  0  0  0  0  0  0  0  0  0
   28.1604   37.0851   20.2676 C   0  0  0  0  0  0  0  0  0  0  0  0
   27.8887   37.6186   21.4852 N   0  0  0  0  0  0  0  0  0  0  0  0
   27.3526   36.8112   22.4484 C   0  0  0  0  0  0  0  0  0  0  0  0
   27.0799   35.5004   22.1804 C   0  0  0  0  0  0  0  0  0  0  0  0
   27.3462   34.9846   20.8587 C   0  0  0  0  0  0  0  0  0  0  0  0
   27.0774   33.8238   20.5252 O   0  0  0  0  0  0  0  0  0  0  0  0
   28.6423   38.1529   19.2610 C   0  0  2  0  0  0  0  0  0  0  0  0
   28.0320   39.4388   19.8419 C   0  0  0  0  0  0  0  0  0  0  0  0
   28.1518   40.5639   18.9129 N   0  0  0  0  0  0  0  0  0  0  0  0
   27.3966   40.2577   17.6873 C   0  0  0  0  0  0  0  0  0  0  0  0
   27.9833   39.0520   16.9800 C   0  0  0  0  0  0  0  0  0  0  0  0
   28.0038   37.8375   17.8976 C   0  0  0  0  0  0  0  0  0  0  0  0
   27.1556   37.5075   23.7127 C   0  0  0  0  0  0  0  0  0  0  0  0
   26.4119   36.7335   25.0629 S   0  0  0  0  0  0  0  0  0  0  0  0
   26.5359   38.1164   26.0027 C   0  0  0  0  0  0  0  0  0  0  0  0
   27.1546   39.1098   25.3521 C   0  0  0  0  0  0  0  0  0  0  0  0
   27.5118   38.7807   24.0299 C   0  0  0  0  0  0  0  0  0  0  0  0
   27.6732   41.8237   19.5087 C   0  0  0  0  0  0  0  0  0  0  0  0
   27.7257   41.8959   21.0185 C   0  0  0  0  0  0  0  0  0  0  0  0
   26.5661   41.8481   21.7787 C   0  0  0  0  0  0  0  0  0  0  0  0
   26.4809   42.2537   23.0585 N   0  0  0  0  0  0  0  0  0  0  0  0
   27.6066   42.7532   23.5463 C   0  0  0  0  0  0  0  0  0  0  0  0
   28.7722   42.9016   22.9374 N   0  0  0  0  0  0  0  0  0  0  0  0
   28.7940   42.4852   21.6627 C   0  0  0  0  0  0  0  0  0  0  0  0
   27.5154   43.1638   24.8164 O   0  0  0  0  0  0  0  0  0  0  0  0
   28.6450   42.9363   25.6673 C   0  0  0  0  0  0  0  0  0  0  0  0
  1  2  2  0  0  0  0
  1  6  1  0  0  0  0
  2  3  1  0  0  0  0
  3  4  2  0  0  0  0
  4 14  1  0  0  0  0
  5  4  1  0  0  0  0
  6  5  1  0  0  0  0
  7  6  2  0  0  0  0
  8  9  1  0  0  0  0
  8  2  1  1  0  0  0
 10 19  1  0  0  0  0
 10  9  1  0  0  0  0
 11 10  1  0  0  0  0
 12 11  1  0  0  0  0
 12 13  1  0  0  0  0
 13  8  1  0  0  0  0
 14 15  1  0  0  0  0
 14 18  2  0  0  0  0
 15 16  1  0  0  0  0
 16 17  2  0  0  0  0
 18 17  1  0  0  0  0
 19 20  1  0  0  0  0
 20 25  2  0  0  0  0
 20 21  1  0  0  0  0
 21 22  2  0  0  0  0
 22 23  1  0  0  0  0
 23 26  1  0  0  0  0
 24 23  2  0  0  0  0
 25 24  1  0  0  0  0
 26 27  1  0  0  0  0
M  END
>  <CHROM.1>
176.57248527,148.28654155,25.27848394,-108.11017625,142.29875670,27.55955424
39.13198190,21.86822848,1.70257083,-1.40049421,-2.45630925

>  <Name>
lig.pdb

>  <RI>
0

>  <Rbt.Current_Directory>
/home/itssahil/PROJECTS/Mol_Feturizer/New_Systems/rnas/5kx9

>  <Rbt.Executable>
rbdock ($Id: //depot/dev/client3/rdock/2013.1/src/exe/rbdock.cxx#4 $)

>  <Rbt.Library>
libRbt.so (2013.1, Build901 2013/11/27)

>  <Rbt.Parameter_File>
/export/apps/rDock/src/rDock_2013.1_src/data/scripts/dock_solv.prm

>  <Rbt.Receptor>
prm/pocket_docking_2.prm

>  <SCORE>
-35.6402

>  <SCORE.INTER>
-35.763

>  <SCORE.INTER.CONST>
1

>  <SCORE.INTER.POLAR>
0

>  <SCORE.INTER.ROT>
5

>  <SCORE.INTER.SOLV>
13.8203

>  <SCORE.INTER.VDW>
-35.3821

>  <SCORE.INTER.norm>
-1.32456

>  <SCORE.INTRA>
0.122745

>  <SCORE.INTRA.DIHEDRAL>
2.21685

>  <SCORE.INTRA.DIHEDRAL.0>
2.68224

>  <SCORE.INTRA.POLAR>
0

>  <SCORE.INTRA.POLAR.0>
0

>  <SCORE.INTRA.REPUL>
0

>  <SCORE.INTRA.REPUL.0>
0

>  <SCORE.INTRA.SOLV>
-0.292471

>  <SCORE.INTRA.SOLV.lig_0>
-19.4148

>  <SCORE.INTRA.VDW>
-0.839445

>  <SCORE.INTRA.VDW.0>
5.42093

>  <SCORE.INTRA.norm>
0.00454609

>  <SCORE.RESTR>
0

>  <SCORE.RESTR.CAVITY>
0

>  <SCORE.RESTR.norm>
0

>  <SCORE.SYSTEM>
0

>  <SCORE.SYSTEM.CONST>
0

>  <SCORE.SYSTEM.DIHEDRAL>
0

>  <SCORE.SYSTEM.SOLV>
0

>  <SCORE.SYSTEM.norm>
0

>  <SCORE.heavy>
27

>  <SCORE.norm>
-1.32001

>  <RMSD>
0.597

$$$$
lig.pdb
 OpenBabel11021811523D
libRbt.so/2013.1/901 2013/11/27
 27 30  0  0  0  0  0  0  0  0999 V2000
   28.0377   35.6953   19.9704 N   0  0  0  0  0  0  0  0  0  0  0  0
   28.2478   36.9003   20.4394 C   0  0  0  0  0  0  0  0  0  0  0  0
   27.8377   37.3418   21.6551 N   0  0  0  0  0  0  0  0  0  0  0  0
   27.1981   36.4668   22.4873 C   0  0  0  0  0  0  0  0  0  0  0  0
   26.9618   35.1815   22.0915 C   0  0  0  0  0  0  0  0  0  0  0  0
   27.3783   34.7657   20.7735 C   0  0  0  0  0  0  0  0  0  0  0  0
   27.1528   33.6349   20.3247 O   0  0  0  0  0  0  0  0  0  0  0  0
   28.8376   38.0385   19.5778 C   0  0  2  0  0  0  0  0  0  0  0  0
   27.9231   39.2202   19.9393 C   0  0  0  0  0  0  0  0  0  0  0  0
   28.1392   40.3645   19.0520 N   0  0  0  0  0  0  0  0  0  0  0  0
   27.7972   39.9757   17.6743 C   0  0  0  0  0  0  0  0  0  0  0  0
   28.7130   38.8720   17.1829 C   0  0  0  0  0  0  0  0  0  0  0  0
   28.6457   37.6585   18.0997 C   0  0  0  0  0  0  0  0  0  0  0  0
   26.8565   37.0667   23.7701 C   0  0  0  0  0  0  0  0  0  0  0  0
   27.3241   38.6792   24.1653 S   0  0  0  0  0  0  0  0  0  0  0  0
   26.6268   38.5746   25.6864 C   0  0  0  0  0  0  0  0  0  0  0  0
   26.0218   37.3957   25.8796 C   0  0  0  0  0  0  0  0  0  0  0  0
   26.1500   36.5116   24.7906 C   0  0  0  0  0  0  0  0  0  0  0  0
   27.3495   41.5382   19.4644 C   0  0  0  0  0  0  0  0  0  0  0  0
   27.7687   42.1856   20.7654 C   0  0  0  0  0  0  0  0  0  0  0  0
   29.1017   42.4641   21.0300 C   0  0  0  0  0  0  0  0  0  0  0  0
   29.5987   42.6973   22.2583 N   0  0  0  0  0  0  0  0  0  0  0  0
   28.7063   42.6018   23.2324 C   0  0  0  0  0  0  0  0  0  0  0  0
   27.4194   42.3064   23.1428 N   0  0  0  0  0  0  0  0  0  0  0  0
   26.9838   42.0786   21.8949 C   0  0  0  0  0  0  0  0  0  0  0  0
   29.2060   42.8255   24.4532 O   0  0  0  0  0  0  0  0  0  0  0  0
   28.3009   43.2844   25.4641 C   0  0  0  0  0  0  0  0  0  0  0  0
  1  2  2  0  0  0  0
  1  6  1  0  0  0  0
  2  3  1  0  0  0  0
  3  4  2  0  0  0  0
  4 14  1  0  0  0  0
  5  4  1  0  0  0  0
  6  5  1  0  0  0  0
  7  6  2  0  0  0  0
  8  9  1  0  0  0  0
  8  2  1  1  0  0  0
 10 19  1  0  0  0  0
 10  9  1  0  0  0  0
 11 10  1  0  0  0  0
 12 11  1  0  0  0  0
 12 13  1  0  0  0  0
 13  8  1  0  0  0  0
 14 15  1  0  0  0  0
 14 18  2  0  0  0  0
 15 16  1  0  0  0  0
 16 17  2  0  0  0  0
 18 17  1  0  0  0  0
 19 20  1  0  0  0  0
 20 25  2  0  0  0  0
 20 21  1  0  0  0  0
 21 22  2  0  0  0  0
 22 23  1  0  0  0  0
 23 26  1  0  0  0  0
 24 23  2  0  0  0  0
 25 24  1  0  0  0  0
 26 27  1  0  0  0  0
M  END
>  <CHROM.1>
-3.47118131,135.12383691,68.39486813,47.10695064,154.89920917,27.78266648
39.05485988,21.78039914,-2.01099725,1.31361895,0.80355781

>  <Name>
lig.pdb

>  <RI>
0

>  <Rbt.Current_Directory>
/home/itssahil/PROJECTS/Mol_Feturizer/New_Systems/rnas/5kx9

>  <Rbt.Executable>
rbdock ($Id: //depot/dev/client3/rdock/2013.1/src/exe/rbdock.cxx#4 $)

>  <Rbt.Library>
libRbt.so (2013.1, Build901 2013/11/27)

>  <Rbt.Parameter_File>
/export/apps/rDock/src/rDock_2013.1_src/data/scripts/dock_solv.prm

>  <Rbt.Receptor>
prm/pocket_docking_3.prm

>  <SCORE>
-38.8887

>  <SCORE.INTER>
-35.8346

>  <SCORE.INTER.CONST>
1

>  <SCORE.INTER.POLAR>
0

>  <SCORE.INTER.ROT>
5

>  <SCORE.INTER.SOLV>
14.3623

>  <SCORE.INTER.VDW>
-35.6105

>  <SCORE.INTER.norm>
-1.32721

>  <SCORE.INTRA>
-3.05409

>  <SCORE.INTRA.DIHEDRAL>
0.321389

>  <SCORE.INTRA.DIHEDRAL.0>
2.68224

>  <SCORE.INTRA.POLAR>
0

>  <SCORE.INTRA.POLAR.0>
0

>  <SCORE.INTRA.REPUL>
0

>  <SCORE.INTRA.REPUL.0>
0

>  <SCORE.INTRA.SOLV>
-0.134519

>  <SCORE.INTRA.SOLV.lig_0>
-19.4148

>  <SCORE.INTRA.VDW>
-3.14753

>  <SCORE.INTRA.VDW.0>
5.42093

>  <SCORE.INTRA.norm>
-0.113115

>  <SCORE.RESTR>
0

>  <SCORE.RESTR.CAVITY>
0

>  <SCORE.RESTR.norm>
0

>  <SCORE.SYSTEM>
0

>  <SCORE.SYSTEM.CONST>
0

>  <SCORE.SYSTEM.DIHEDRAL>
0

>  <SCORE.SYSTEM.SOLV>
0

>  <SCORE.SYSTEM.norm>
0

>  <SCORE.heavy>
27

>  <SCORE.norm>
-1.44032

>  <RMSD>
0.598

$$$$
lig.pdb
 OpenBabel11021811523D
libRbt.so/2013.1/901 2013/11/27
 27 30  0  0  0  0  0  0  0  0999 V2000
   27.9773   35.8677   19.8885 N   0  0  0  0  0  0  0  0  0  0  0  0
   28.2296   37.1004   20.2534 C   0  0  0  0  0  0  0  0  0  0  0  0
   27.9449   37.6217   21.4733 N   0  0  0  0  0  0  0  0  0  0  0  0
   27.3979   36.8049   22.4224 C   0  0  0  0  0  0  0  0  0  0  0  0
   27.1274   35.4970   22.1381 C   0  0  0  0  0  0  0  0  0  0  0  0
   27.4078   34.9945   20.8143 C   0  0  0  0  0  0  0  0  0  0  0  0
   27.1419   33.8374   20.4661 O   0  0  0  0  0  0  0  0  0  0  0  0
   28.7229   38.1780   19.2630 C   0  0  2  0  0  0  0  0  0  0  0  0
   28.1109   39.4590   19.8528 C   0  0  0  0  0  0  0  0  0  0  0  0
   28.2417   40.5939   18.9374 N   0  0  0  0  0  0  0  0  0  0  0  0
   27.4965   40.3034   17.7019 C   0  0  0  0  0  0  0  0  0  0  0  0
   28.0863   39.1041   16.9864 C   0  0  0  0  0  0  0  0  0  0  0  0
   28.0956   37.8794   17.8907 C   0  0  0  0  0  0  0  0  0  0  0  0
   27.1876   37.4885   23.6915 C   0  0  0  0  0  0  0  0  0  0  0  0
   26.4639   36.6893   25.0379 S   0  0  0  0  0  0  0  0  0  0  0  0
   26.5584   38.0686   25.9864 C   0  0  0  0  0  0  0  0  0  0  0  0
   27.1533   39.0798   25.3411 C   0  0  0  0  0  0  0  0  0  0  0  0
   27.5155   38.7674   24.0163 C   0  0  0  0  0  0  0  0  0  0  0  0
   27.7610   41.8483   19.5430 C   0  0  0  0  0  0  0  0  0  0  0  0
   27.8554   41.9264   21.0504 C   0  0  0  0  0  0  0  0  0  0  0  0
   26.7204   41.8471   21.8442 C   0  0  0  0  0  0  0  0  0  0  0  0
   26.6607   42.2538   23.1252 N   0  0  0  0  0  0  0  0  0  0  0  0
   27.7852   42.7871   23.5788 C   0  0  0  0  0  0  0  0  0  0  0  0
   28.9278   42.9675   22.9359 N   0  0  0  0  0  0  0  0  0  0  0  0
   28.9244   42.5482   21.6619 C   0  0  0  0  0  0  0  0  0  0  0  0
   27.7192   43.1985   24.8503 O   0  0  0  0  0  0  0  0  0  0  0  0
   28.4468   42.4451   25.8273 C   0  0  0  0  0  0  0  0  0  0  0  0
  1  2  2  0  0  0  0
  1  6  1  0  0  0  0
  2  3  1  0  0  0  0
  3  4  2  0  0  0  0
  4 14  1  0  0  0  0
  5  4  1  0  0  0  0
  6  5  1  0  0  0  0
  7  6  2  0  0  0  0
  8  9  1  0  0  0  0
  8  2  1  1  0  0  0
 10 19  1  0  0  0  0
 10  9  1  0  0  0  0
 11 10  1  0  0  0  0
 12 11  1  0  0  0  0
 12 13  1  0  0  0  0
 13  8  1  0  0  0  0
 14 15  1  0  0  0  0
 14 18  2  0  0  0  0
 15 16  1  0  0  0  0
 16 17  2  0  0  0  0
 18 17  1  0  0  0  0
 19 20  1  0  0  0  0
 20 25  2  0  0  0  0
 20 21  1  0  0  0  0
 21 22  2  0  0  0  0
 22 23  1  0  0  0  0
 23 26  1  0  0  0  0
 24 23  2  0  0  0  0
 25 24  1  0  0  0  0
 26 27  1  0  0  0  0
M  END
>  <CHROM.1>
178.09881683,148.46173711,27.78135944,-107.31680166,109.09447057,27.63558529
39.12386117,21.87332576,1.70259551,-1.38939549,-2.44337938

>  <Name>
lig.pdb

>  <RI>
0

>  <Rbt.Current_Directory>
/home/itssahil/PROJECTS/Mol_Feturizer/New_Systems/rnas/5kx9

>  <Rbt.Executable>
rbdock ($Id: //depot/dev/client3/rdock/2013.1/src/exe/rbdock.cxx#4 $)

>  <Rbt.Library>
libRbt.so (2013.1, Build901 2013/11/27)

>  <Rbt.Parameter_File>
/export/apps/rDock/src/rDock_2013.1_src/data/scripts/dock_solv.prm

>  <Rbt.Receptor>
prm/pocket_docking_2.prm

>  <SCORE>
-35.5622

>  <SCORE.INTER>
-35.624

>  <SCORE.INTER.CONST>
1

>  <SCORE.INTER.POLAR>
0

>  <SCORE.INTER.ROT>
5

>  <SCORE.INTER.SOLV>
13.7462

>  <SCORE.INTER.VDW>
-35.2647

>  <SCORE.INTER.norm>
-1.31941

>  <SCORE.INTRA>
0.0618355

>  <SCORE.INTRA.DIHEDRAL>
4.49894

>  <SCORE.INTRA.DIHEDRAL.0>
2.68224

>  <SCORE.INTRA.POLAR>
0

>  <SCORE.INTRA.POLAR.0>
0

>  <SCORE.INTRA.REPUL>
0

>  <SCORE.INTRA.REPUL.0>
0

>  <SCORE.INTRA.SOLV>
-0.318441

>  <SCORE.INTRA.SOLV.lig_0>
-19.4148

>  <SCORE.INTRA.VDW>
-2.02842

>  <SCORE.INTRA.VDW.0>
5.42093

>  <SCORE.INTRA.norm>
0.0022902

>  <SCORE.RESTR>
0

>  <SCORE.RESTR.CAVITY>
0

>  <SCORE.RESTR.norm>
0

>  <SCORE.SYSTEM>
0

>  <SCORE.SYSTEM.CONST>
0

>  <SCORE.SYSTEM.DIHEDRAL>
0

>  <SCORE.SYSTEM.SOLV>
0

>  <SCORE.SYSTEM.norm>
0

>  <SCORE.heavy>
27

>  <SCORE.norm>
-1.31712

>  <RMSD>
0.607

$$$$
lig.pdb
 OpenBabel11021811523D
libRbt.so/2013.1/901 2013/11/27
 27 30  0  0  0  0  0  0  0  0999 V2000
   27.9208   35.5305   20.0693 N   0  0  0  0  0  0  0  0  0  0  0  0
   28.1236   36.7637   20.4623 C   0  0  0  0  0  0  0  0  0  0  0  0
   27.7445   37.2669   21.6640 N   0  0  0  0  0  0  0  0  0  0  0  0
   27.1480   36.4304   22.5648 C   0  0  0  0  0  0  0  0  0  0  0  0
   26.9226   35.1210   22.2503 C   0  0  0  0  0  0  0  0  0  0  0  0
   27.3043   34.6375   20.9448 C   0  0  0  0  0  0  0  0  0  0  0  0
   27.0853   33.4795   20.5682 O   0  0  0  0  0  0  0  0  0  0  0  0
   28.6647   37.8603   19.5189 C   0  0  2  0  0  0  0  0  0  0  0  0
   27.8062   39.0734   19.9127 C   0  0  0  0  0  0  0  0  0  0  0  0
   27.9730   40.1838   18.9733 N   0  0  0  0  0  0  0  0  0  0  0  0
   27.5134   39.7595   17.6410 C   0  0  0  0  0  0  0  0  0  0  0  0
   28.3643   38.6203   17.1151 C   0  0  0  0  0  0  0  0  0  0  0  0
   28.3468   37.4383   18.0743 C   0  0  0  0  0  0  0  0  0  0  0  0
   26.8365   37.0968   23.8223 C   0  0  0  0  0  0  0  0  0  0  0  0
   27.3068   38.7296   24.1189 S   0  0  0  0  0  0  0  0  0  0  0  0
   26.6491   38.7040   25.6609 C   0  0  0  0  0  0  0  0  0  0  0  0
   26.0547   37.5352   25.9321 C   0  0  0  0  0  0  0  0  0  0  0  0
   26.1590   36.5947   24.8888 C   0  0  0  0  0  0  0  0  0  0  0  0
   27.2428   41.3875   19.4081 C   0  0  0  0  0  0  0  0  0  0  0  0
   27.7516   42.0411   20.6736 C   0  0  0  0  0  0  0  0  0  0  0  0
   29.0591   42.4947   20.7696 C   0  0  0  0  0  0  0  0  0  0  0  0
   29.6895   42.7519   21.9299 N   0  0  0  0  0  0  0  0  0  0  0  0
   28.9655   42.4976   23.0095 C   0  0  0  0  0  0  0  0  0  0  0  0
   27.7303   42.0276   23.0794 N   0  0  0  0  0  0  0  0  0  0  0  0
   27.1566   41.7850   21.8916 C   0  0  0  0  0  0  0  0  0  0  0  0
   29.5989   42.7461   24.1616 O   0  0  0  0  0  0  0  0  0  0  0  0
   28.8226   43.2789   25.2411 C   0  0  0  0  0  0  0  0  0  0  0  0
  1  2  2  0  0  0  0
  1  6  1  0  0  0  0
  2  3  1  0  0  0  0
  3  4  2  0  0  0  0
  4 14  1  0  0  0  0
  5  4  1  0  0  0  0
  6  5  1  0  0  0  0
  7  6  2  0  0  0  0
  8  9  1  0  0  0  0
  8  2  1  1  0  0  0
 10 19  1  0  0  0  0
 10  9  1  0  0  0  0
 11 10  1  0  0  0  0
 12 11  1  0  0  0  0
 12 13  1  0  0  0  0
 13  8  1  0  0  0  0
 14 15  1  0  0  0  0
 14 18  2  0  0  0  0
 15 16  1  0  0  0  0
 16 17  2  0  0  0  0
 18 17  1  0  0  0  0
 19 20  1  0  0  0  0
 20 25  2  0  0  0  0
 20 21  1  0  0  0  0
 21 22  2  0  0  0  0
 22 23  1  0  0  0  0
 23 26  1  0  0  0  0
 24 23  2  0  0  0  0
 25 24  1  0  0  0  0
 26 27  1  0  0  0  0
M  END
>  <CHROM.1>
-4.35458231,138.91605044,66.54718602,58.50760715,143.48111633,27.77240656
38.96794049,21.74426134,-2.27498808,1.31572353,1.00741288

>  <Name>
lig.pdb

>  <RI>
0

>  <Rbt.Current_Directory>
/home/itssahil/PROJECTS/Mol_Feturizer/New_Systems/rnas/5kx9

>  <Rbt.Executable>
rbdock ($Id: //depot/dev/client3/rdock/2013.1/src/exe/rbdock.cxx#4 $)

>  <Rbt.Library>
libRbt.so (2013.1, Build901 2013/11/27)

>  <Rbt.Parameter_File>
/export/apps/rDock/src/rDock_2013.1_src/data/scripts/dock_solv.prm

>  <Rbt.Receptor>
prm/pocket_docking_2.prm

>  <SCORE>
-38.6618

>  <SCORE.INTER>
-35.9847

>  <SCORE.INTER.CONST>
1

>  <SCORE.INTER.POLAR>
0

>  <SCORE.INTER.ROT>
5

>  <SCORE.INTER.SOLV>
14.2604

>  <SCORE.INTER.VDW>
-35.6766

>  <SCORE.INTER.norm>
-1.33277

>  <SCORE.INTRA>
-2.67707

>  <SCORE.INTRA.DIHEDRAL>
1.40527

>  <SCORE.INTRA.DIHEDRAL.0>
2.68224

>  <SCORE.INTRA.POLAR>
0

>  <SCORE.INTRA.POLAR.0>
0

>  <SCORE.INTRA.REPUL>
0

>  <SCORE.INTRA.REPUL.0>
0

>  <SCORE.INTRA.SOLV>
-0.0208029

>  <SCORE.INTRA.SOLV.lig_0>
-19.4148

>  <SCORE.INTRA.VDW>
-3.3693

>  <SCORE.INTRA.VDW.0>
5.42093

>  <SCORE.INTRA.norm>
-0.0991506

>  <SCORE.RESTR>
0

>  <SCORE.RESTR.CAVITY>
0

>  <SCORE.RESTR.norm>
0

>  <SCORE.SYSTEM>
0

>  <SCORE.SYSTEM.CONST>
0

>  <SCORE.SYSTEM.DIHEDRAL>
0

>  <SCORE.SYSTEM.SOLV>
0

>  <SCORE.SYSTEM.norm>
0

>  <SCORE.heavy>
27

>  <SCORE.norm>
-1.43192

>  <RMSD>
0.607

$$$$
lig.pdb
 OpenBabel11021811523D
libRbt.so/2013.1/901 2013/11/27
 27 30  0  0  0  0  0  0  0  0999 V2000
   28.0573   35.8386   19.8313 N   0  0  0  0  0  0  0  0  0  0  0  0
   28.3024   37.0265   20.3262 C   0  0  0  0  0  0  0  0  0  0  0  0
   27.9100   37.4514   21.5536 N   0  0  0  0  0  0  0  0  0  0  0  0
   27.2506   36.5755   22.3692 C   0  0  0  0  0  0  0  0  0  0  0  0
   26.9773   35.3065   21.9459 C   0  0  0  0  0  0  0  0  0  0  0  0
   27.3762   34.9094   20.6166 C   0  0  0  0  0  0  0  0  0  0  0  0
   27.1178   33.7956   20.1437 O   0  0  0  0  0  0  0  0  0  0  0  0
   28.9192   38.1674   19.4874 C   0  0  2  0  0  0  0  0  0  0  0  0
   28.0306   39.3622   19.8698 C   0  0  0  0  0  0  0  0  0  0  0  0
   28.2740   40.5180   19.0048 N   0  0  0  0  0  0  0  0  0  0  0  0
   27.9263   40.1632   17.6193 C   0  0  0  0  0  0  0  0  0  0  0  0
   28.8181   39.0488   17.1086 C   0  0  0  0  0  0  0  0  0  0  0  0
   28.7219   37.8199   18.0020 C   0  0  0  0  0  0  0  0  0  0  0  0
   26.9313   37.1553   23.6669 C   0  0  0  0  0  0  0  0  0  0  0  0
   27.3732   38.7744   24.0653 S   0  0  0  0  0  0  0  0  0  0  0  0
   26.7211   38.6395   25.6039 C   0  0  0  0  0  0  0  0  0  0  0  0
   26.1485   37.4454   25.8018 C   0  0  0  0  0  0  0  0  0  0  0  0
   26.2663   36.5747   24.7009 C   0  0  0  0  0  0  0  0  0  0  0  0
   27.5099   41.7010   19.4382 C   0  0  0  0  0  0  0  0  0  0  0  0
   27.7847   42.1786   20.8466 C   0  0  0  0  0  0  0  0  0  0  0  0
   29.0823   42.3784   21.2948 C   0  0  0  0  0  0  0  0  0  0  0  0
   29.4345   42.4505   22.5912 N   0  0  0  0  0  0  0  0  0  0  0  0
   28.4308   42.2738   23.4374 C   0  0  0  0  0  0  0  0  0  0  0  0
   27.1579   42.0354   23.1651 N   0  0  0  0  0  0  0  0  0  0  0  0
   26.8691   41.9687   21.8570 C   0  0  0  0  0  0  0  0  0  0  0  0
   28.7865   42.3373   24.7257 O   0  0  0  0  0  0  0  0  0  0  0  0
   27.9185   43.0475   25.6167 C   0  0  0  0  0  0  0  0  0  0  0  0
  1  2  2  0  0  0  0
  1  6  1  0  0  0  0
  2  3  1  0  0  0  0
  3  4  2  0  0  0  0
  4 14  1  0  0  0  0
  5  4  1  0  0  0  0
  6  5  1  0  0  0  0
  7  6  2  0  0  0  0
  8  9  1  0  0  0  0
  8  2  1  1  0  0  0
 10 19  1  0  0  0  0
 10  9  1  0  0  0  0
 11 10  1  0  0  0  0
 12 11  1  0  0  0  0
 12 13  1  0  0  0  0
 13  8  1  0  0  0  0
 14 15  1  0  0  0  0
 14 18  2  0  0  0  0
 15 16  1  0  0  0  0
 16 17  2  0  0  0  0
 18 17  1  0  0  0  0
 19 20  1  0  0  0  0
 20 25  2  0  0  0  0
 20 21  1  0  0  0  0
 21 22  2  0  0  0  0
 22 23  1  0  0  0  0
 23 26  1  0  0  0  0
 24 23  2  0  0  0  0
 25 24  1  0  0  0  0
 26 27  1  0  0  0  0
M  END
>  <CHROM.1>
-0.23042853,134.60346335,58.83183505,49.81060317,138.03509083,27.77443154
39.07865436,21.75688921,1.72607813,-1.32129501,-2.41777411

>  <Name>
lig.pdb

>  <RI>
0

>  <Rbt.Current_Directory>
/home/itssahil/PROJECTS/Mol_Feturizer/New_Systems/rnas/5kx9

>  <Rbt.Executable>
rbdock ($Id: //depot/dev/client3/rdock/2013.1/src/exe/rbdock.cxx#4 $)

>  <Rbt.Library>
libRbt.so (2013.1, Build901 2013/11/27)

>  <Rbt.Parameter_File>
/export/apps/rDock/src/rDock_2013.1_src/data/scripts/dock_solv.prm

>  <Rbt.Receptor>
prm/pocket_docking_7.prm

>  <SCORE>
-37.9395

>  <SCORE.INTER>
-34.509

>  <SCORE.INTER.CONST>
1

>  <SCORE.INTER.POLAR>
0

>  <SCORE.INTER.ROT>
5

>  <SCORE.INTER.SOLV>
12.8187

>  <SCORE.INTER.VDW>
-34.2122

>  <SCORE.INTER.norm>
-1.27811

>  <SCORE.INTRA>
-3.43055

>  <SCORE.INTRA.DIHEDRAL>
1.46583

>  <SCORE.INTRA.DIHEDRAL.0>
2.68224

>  <SCORE.INTRA.POLAR>
0

>  <SCORE.INTRA.POLAR.0>
0

>  <SCORE.INTRA.REPUL>
0

>  <SCORE.INTRA.REPUL.0>
0

>  <SCORE.INTRA.SOLV>
0.207139

>  <SCORE.INTRA.SOLV.lig_0>
-19.4148

>  <SCORE.INTRA.VDW>
-4.26703

>  <SCORE.INTRA.VDW.0>
5.42093

>  <SCORE.INTRA.norm>
-0.127057

>  <SCORE.RESTR>
0

>  <SCORE.RESTR.CAVITY>
0

>  <SCORE.RESTR.norm>
0

>  <SCORE.SYSTEM>
0

>  <SCORE.SYSTEM.CONST>
0

>  <SCORE.SYSTEM.DIHEDRAL>
0

>  <SCORE.SYSTEM.SOLV>
0

>  <SCORE.SYSTEM.norm>
0

>  <SCORE.heavy>
27

>  <SCORE.norm>
-1.40517

>  <RMSD>
0.607

$$$$
lig.pdb
 OpenBabel11021811523D
libRbt.so/2013.1/901 2013/11/27
 27 30  0  0  0  0  0  0  0  0999 V2000
   27.9839   35.8124   19.7665 N   0  0  0  0  0  0  0  0  0  0  0  0
   28.3398   36.9736   20.2575 C   0  0  0  0  0  0  0  0  0  0  0  0
   28.0015   37.4315   21.4892 N   0  0  0  0  0  0  0  0  0  0  0  0
   27.2762   36.6178   22.3131 C   0  0  0  0  0  0  0  0  0  0  0  0
   26.8858   35.3783   21.8941 C   0  0  0  0  0  0  0  0  0  0  0  0
   27.2320   34.9474   20.5605 C   0  0  0  0  0  0  0  0  0  0  0  0
   26.8696   33.8613   20.0916 O   0  0  0  0  0  0  0  0  0  0  0  0
   29.0461   38.0550   19.4105 C   0  0  2  0  0  0  0  0  0  0  0  0
   28.3389   39.3383   19.8759 C   0  0  0  0  0  0  0  0  0  0  0  0
   28.6757   40.4818   19.0261 N   0  0  0  0  0  0  0  0  0  0  0  0
   28.2065   40.2175   17.6564 C   0  0  0  0  0  0  0  0  0  0  0  0
   28.9196   39.0177   17.0647 C   0  0  0  0  0  0  0  0  0  0  0  0
   28.7210   37.7825   17.9320 C   0  0  0  0  0  0  0  0  0  0  0  0
   27.0253   37.2234   23.6140 C   0  0  0  0  0  0  0  0  0  0  0  0
   27.4942   38.8471   23.9591 S   0  0  0  0  0  0  0  0  0  0  0  0
   26.9197   38.7446   25.5308 C   0  0  0  0  0  0  0  0  0  0  0  0
   26.3523   37.5575   25.7797 C   0  0  0  0  0  0  0  0  0  0  0  0
   26.4105   36.6659   24.6909 C   0  0  0  0  0  0  0  0  0  0  0  0
   28.0932   41.7363   19.5344 C   0  0  0  0  0  0  0  0  0  0  0  0
   28.1021   41.9009   21.0378 C   0  0  0  0  0  0  0  0  0  0  0  0
   26.9354   41.7794   21.7785 C   0  0  0  0  0  0  0  0  0  0  0  0
   26.7791   42.2478   23.0300 N   0  0  0  0  0  0  0  0  0  0  0  0
   27.8369   42.8867   23.5069 C   0  0  0  0  0  0  0  0  0  0  0  0
   28.9959   43.1174   22.9112 N   0  0  0  0  0  0  0  0  0  0  0  0
   29.0899   42.6322   21.6644 C   0  0  0  0  0  0  0  0  0  0  0  0
   27.6746   43.3587   24.7483 O   0  0  0  0  0  0  0  0  0  0  0  0
   28.6636   43.0083   25.7233 C   0  0  0  0  0  0  0  0  0  0  0  0
  1  2  2  0  0  0  0
  1  6  1  0  0  0  0
  2  3  1  0  0  0  0
  3  4  2  0  0  0  0
  4 14  1  0  0  0  0
  5  4  1  0  0  0  0
  6  5  1  0  0  0  0
  7  6  2  0  0  0  0
  8  9  1  0  0  0  0
  8  2  1  1  0  0  0
 10 19  1  0  0  0  0
 10  9  1  0  0  0  0
 11 10  1  0  0  0  0
 12 11  1  0  0  0  0
 12 13  1  0  0  0  0
 13  8  1  0  0  0  0
 14 15  1  0  0  0  0
 14 18  2  0  0  0  0
 15 16  1  0  0  0  0
 16 17  2  0  0  0  0
 18 17  1  0  0  0  0
 19 20  1  0  0  0  0
 20 25  2  0  0  0  0
 20 21  1  0  0  0  0
 21 22  2  0  0  0  0
 22 23  1  0  0  0  0
 23 26  1  0  0  0  0
 24 23  2  0  0  0  0
 25 24  1  0  0  0  0
 26 27  1  0  0  0  0
M  END
>  <CHROM.1>
5.18047055,138.42019414,38.67743028,-106.43455552,127.25994321,27.80280173
39.18252477,21.75735379,1.67609676,-1.30048788,-2.48484920

>  <Name>
lig.pdb

>  <RI>
0

>  <Rbt.Current_Directory>
/home/itssahil/PROJECTS/Mol_Feturizer/New_Systems/rnas/5kx9

>  <Rbt.Executable>
rbdock ($Id: //depot/dev/client3/rdock/2013.1/src/exe/rbdock.cxx#4 $)

>  <Rbt.Library>
libRbt.so (2013.1, Build901 2013/11/27)

>  <Rbt.Parameter_File>
/export/apps/rDock/src/rDock_2013.1_src/data/scripts/dock_solv.prm

>  <Rbt.Receptor>
prm/pocket_docking_5.prm

>  <SCORE>
-37.4479

>  <SCORE.INTER>
-35.2555

>  <SCORE.INTER.CONST>
1

>  <SCORE.INTER.POLAR>
0

>  <SCORE.INTER.ROT>
5

>  <SCORE.INTER.SOLV>
13.9201

>  <SCORE.INTER.VDW>
-35.077

>  <SCORE.INTER.norm>
-1.30576

>  <SCORE.INTRA>
-2.1924

>  <SCORE.INTRA.DIHEDRAL>
2.60921

>  <SCORE.INTRA.DIHEDRAL.0>
2.68224

>  <SCORE.INTRA.POLAR>
0

>  <SCORE.INTRA.POLAR.0>
0

>  <SCORE.INTRA.REPUL>
0

>  <SCORE.INTRA.REPUL.0>
0

>  <SCORE.INTRA.SOLV>
-0.120804

>  <SCORE.INTRA.SOLV.lig_0>
-19.4148

>  <SCORE.INTRA.VDW>
-3.4366

>  <SCORE.INTRA.VDW.0>
5.42093

>  <SCORE.INTRA.norm>
-0.0811999

>  <SCORE.RESTR>
0

>  <SCORE.RESTR.CAVITY>
0

>  <SCORE.RESTR.norm>
0

>  <SCORE.SYSTEM>
0

>  <SCORE.SYSTEM.CONST>
0

>  <SCORE.SYSTEM.DIHEDRAL>
0

>  <SCORE.SYSTEM.SOLV>
0

>  <SCORE.SYSTEM.norm>
0

>  <SCORE.heavy>
27

>  <SCORE.norm>
-1.38696

>  <RMSD>
0.621

$$$$
lig.pdb
 OpenBabel11021811523D
libRbt.so/2013.1/901 2013/11/27
 27 30  0  0  0  0  0  0  0  0999 V2000
   27.9669   35.5979   20.0289 N   0  0  0  0  0  0  0  0  0  0  0  0
   28.1780   36.8162   20.4617 C   0  0  0  0  0  0  0  0  0  0  0  0
   27.7834   37.2889   21.6708 N   0  0  0  0  0  0  0  0  0  0  0  0
   27.1601   36.4342   22.5357 C   0  0  0  0  0  0  0  0  0  0  0  0
   26.9241   35.1376   22.1786 C   0  0  0  0  0  0  0  0  0  0  0  0
   27.3234   34.6877   20.8665 C   0  0  0  0  0  0  0  0  0  0  0  0
   27.0968   33.5442   20.4520 O   0  0  0  0  0  0  0  0  0  0  0  0
   28.7499   37.9329   19.5609 C   0  0  2  0  0  0  0  0  0  0  0  0
   27.8284   39.1171   19.8953 C   0  0  0  0  0  0  0  0  0  0  0  0
   28.0263   40.2360   18.9721 N   0  0  0  0  0  0  0  0  0  0  0  0
   27.6754   39.8030   17.6099 C   0  0  0  0  0  0  0  0  0  0  0  0
   28.5964   38.6929   17.1434 C   0  0  0  0  0  0  0  0  0  0  0  0
   28.5481   37.5070   18.0968 C   0  0  0  0  0  0  0  0  0  0  0  0
   26.8342   37.0674   23.8065 C   0  0  0  0  0  0  0  0  0  0  0  0
   27.3201   38.6842   24.1600 S   0  0  0  0  0  0  0  0  0  0  0  0
   26.6338   38.6222   25.6884 C   0  0  0  0  0  0  0  0  0  0  0  0
   26.0192   37.4542   25.9139 C   0  0  0  0  0  0  0  0  0  0  0  0
   26.1305   36.5434   24.8452 C   0  0  0  0  0  0  0  0  0  0  0  0
   27.2301   41.4147   19.3564 C   0  0  0  0  0  0  0  0  0  0  0  0
   27.7050   42.1531   20.5880 C   0  0  0  0  0  0  0  0  0  0  0  0
   29.0488   42.4416   20.7764 C   0  0  0  0  0  0  0  0  0  0  0  0
   29.5970   42.7609   21.9628 N   0  0  0  0  0  0  0  0  0  0  0  0
   28.7454   42.7428   22.9772 C   0  0  0  0  0  0  0  0  0  0  0  0
   27.4549   42.4499   22.9624 N   0  0  0  0  0  0  0  0  0  0  0  0
   26.9672   42.1341   21.7536 C   0  0  0  0  0  0  0  0  0  0  0  0
   29.2961   43.0521   24.1567 O   0  0  0  0  0  0  0  0  0  0  0  0
   28.4148   43.2252   25.2725 C   0  0  0  0  0  0  0  0  0  0  0  0
  1  2  2  0  0  0  0
  1  6  1  0  0  0  0
  2  3  1  0  0  0  0
  3  4  2  0  0  0  0
  4 14  1  0  0  0  0
  5  4  1  0  0  0  0
  6  5  1  0  0  0  0
  7  6  2  0  0  0  0
  8  9  1  0  0  0  0
  8  2  1  1  0  0  0
 10 19  1  0  0  0  0
 10  9  1  0  0  0  0
 11 10  1  0  0  0  0
 12 11  1  0  0  0  0
 12 13  1  0  0  0  0
 13  8  1  0  0  0  0
 14 15  1  0  0  0  0
 14 18  2  0  0  0  0
 15 16  1  0  0  0  0
 16 17  2  0  0  0  0
 18 17  1  0  0  0  0
 19 20  1  0  0  0  0
 20 25  2  0  0  0  0
 20 21  1  0  0  0  0
 21 22  2  0  0  0  0
 22 23  1  0  0  0  0
 23 26  1  0  0  0  0
 24 23  2  0  0  0  0
 25 24  1  0  0  0  0
 26 27  1  0  0  0  0
M  END
>  <CHROM.1>
-4.38901010,134.70290272,71.88480411,45.04977326,172.09193633,27.74683360
39.02725396,21.72333547,-2.12684576,1.32285689,0.83530942

>  <Name>
lig.pdb

>  <RI>
0

>  <Rbt.Current_Directory>
/home/itssahil/PROJECTS/Mol_Feturizer/New_Systems/rnas/5kx9

>  <Rbt.Executable>
rbdock ($Id: //depot/dev/client3/rdock/2013.1/src/exe/rbdock.cxx#4 $)

>  <Rbt.Library>
libRbt.so (2013.1, Build901 2013/11/27)

>  <Rbt.Parameter_File>
/export/apps/rDock/src/rDock_2013.1_src/data/scripts/dock_solv.prm

>  <Rbt.Receptor>
prm/blind_docking_60.prm

>  <SCORE>
-39.1358

>  <SCORE.INTER>
-36.4043

>  <SCORE.INTER.CONST>
1

>  <SCORE.INTER.POLAR>
0

>  <SCORE.INTER.ROT>
5

>  <SCORE.INTER.SOLV>
15.1605

>  <SCORE.INTER.VDW>
-36.2564

>  <SCORE.INTER.norm>
-1.34831

>  <SCORE.INTRA>
-2.73152

>  <SCORE.INTRA.DIHEDRAL>
-0.363096

>  <SCORE.INTRA.DIHEDRAL.0>
2.68224

>  <SCORE.INTRA.POLAR>
0

>  <SCORE.INTRA.POLAR.0>
0

>  <SCORE.INTRA.REPUL>
0

>  <SCORE.INTRA.REPUL.0>
0

>  <SCORE.INTRA.SOLV>
-0.202032

>  <SCORE.INTRA.SOLV.lig_0>
-19.4148

>  <SCORE.INTRA.VDW>
-2.44896

>  <SCORE.INTRA.VDW.0>
5.42093

>  <SCORE.INTRA.norm>
-0.101168

>  <SCORE.RESTR>
0

>  <SCORE.RESTR.CAVITY>
0

>  <SCORE.RESTR.norm>
0

>  <SCORE.SYSTEM>
0

>  <SCORE.SYSTEM.CONST>
0

>  <SCORE.SYSTEM.DIHEDRAL>
0

>  <SCORE.SYSTEM.SOLV>
0

>  <SCORE.SYSTEM.norm>
0

>  <SCORE.heavy>
27

>  <SCORE.norm>
-1.44948

>  <RMSD>
0.634

$$$$
lig.pdb
 OpenBabel11021811523D
libRbt.so/2013.1/901 2013/11/27
 27 30  0  0  0  0  0  0  0  0999 V2000
   27.9453   35.5899   19.8632 N   0  0  0  0  0  0  0  0  0  0  0  0
   28.1795   36.8233   20.2374 C   0  0  0  0  0  0  0  0  0  0  0  0
   27.8637   37.3384   21.4523 N   0  0  0  0  0  0  0  0  0  0  0  0
   27.3025   36.5142   22.3865 C   0  0  0  0  0  0  0  0  0  0  0  0
   27.0488   35.2052   22.0924 C   0  0  0  0  0  0  0  0  0  0  0  0
   27.3624   34.7092   20.7735 C   0  0  0  0  0  0  0  0  0  0  0  0
   27.1136   33.5511   20.4161 O   0  0  0  0  0  0  0  0  0  0  0  0
   28.6860   37.9080   19.2614 C   0  0  2  0  0  0  0  0  0  0  0  0
   28.1398   39.1946   19.9015 C   0  0  0  0  0  0  0  0  0  0  0  0
   28.2884   40.3481   19.0124 N   0  0  0  0  0  0  0  0  0  0  0  0
   27.4987   40.1191   17.7917 C   0  0  0  0  0  0  0  0  0  0  0  0
   28.0223   38.9182   17.0287 C   0  0  0  0  0  0  0  0  0  0  0  0
   28.0099   37.6701   17.9004 C   0  0  0  0  0  0  0  0  0  0  0  0
   27.0586   37.1921   23.6527 C   0  0  0  0  0  0  0  0  0  0  0  0
   26.1373   36.4525   24.9094 S   0  0  0  0  0  0  0  0  0  0  0  0
   26.2994   37.7937   25.9023 C   0  0  0  0  0  0  0  0  0  0  0  0
   27.0556   38.7446   25.3392 C   0  0  0  0  0  0  0  0  0  0  0  0
   27.4952   38.4197   24.0411 C   0  0  0  0  0  0  0  0  0  0  0  0
   27.8729   41.6028   19.6637 C   0  0  0  0  0  0  0  0  0  0  0  0
   28.4475   41.8475   21.0412 C   0  0  0  0  0  0  0  0  0  0  0  0
   27.7834   41.4180   22.1810 C   0  0  0  0  0  0  0  0  0  0  0  0
   28.0211   41.8866   23.4194 N   0  0  0  0  0  0  0  0  0  0  0  0
   28.9350   42.8440   23.4719 C   0  0  0  0  0  0  0  0  0  0  0  0
   29.6191   43.3832   22.4756 N   0  0  0  0  0  0  0  0  0  0  0  0
   29.3348   42.8798   21.2654 C   0  0  0  0  0  0  0  0  0  0  0  0
   29.1622   43.3137   24.7039 O   0  0  0  0  0  0  0  0  0  0  0  0
   28.0615   43.3248   25.6204 C   0  0  0  0  0  0  0  0  0  0  0  0
  1  2  2  0  0  0  0
  1  6  1  0  0  0  0
  2  3  1  0  0  0  0
  3  4  2  0  0  0  0
  4 14  1  0  0  0  0
  5  4  1  0  0  0  0
  6  5  1  0  0  0  0
  7  6  2  0  0  0  0
  8  9  1  0  0  0  0
  8  2  1  1  0  0  0
 10 19  1  0  0  0  0
 10  9  1  0  0  0  0
 11 10  1  0  0  0  0
 12 11  1  0  0  0  0
 12 13  1  0  0  0  0
 13  8  1  0  0  0  0
 14 15  1  0  0  0  0
 14 18  2  0  0  0  0
 15 16  1  0  0  0  0
 16 17  2  0  0  0  0
 18 17  1  0  0  0  0
 19 20  1  0  0  0  0
 20 25  2  0  0  0  0
 20 21  1  0  0  0  0
 21 22  2  0  0  0  0
 22 23  1  0  0  0  0
 23 26  1  0  0  0  0
 24 23  2  0  0  0  0
 25 24  1  0  0  0  0
 26 27  1  0  0  0  0
M  END
>  <CHROM.1>
170.26260529,152.58202050,48.94101133,-90.80574818,-31.98152946,27.80210722
38.97151209,21.83906928,-2.25021510,1.29430524,0.99512531

>  <Name>
lig.pdb

>  <RI>
0

>  <Rbt.Current_Directory>
/home/itssahil/PROJECTS/Mol_Feturizer/New_Systems/rnas/5kx9

>  <Rbt.Executable>
rbdock ($Id: //depot/dev/client3/rdock/2013.1/src/exe/rbdock.cxx#4 $)

>  <Rbt.Library>
libRbt.so (2013.1, Build901 2013/11/27)

>  <Rbt.Parameter_File>
/export/apps/rDock/src/rDock_2013.1_src/data/scripts/dock_solv.prm

>  <Rbt.Receptor>
prm/pocket_docking_2.prm

>  <SCORE>
-35.1907

>  <SCORE.INTER>
-35.7532

>  <SCORE.INTER.CONST>
1

>  <SCORE.INTER.POLAR>
0

>  <SCORE.INTER.ROT>
5

>  <SCORE.INTER.SOLV>
14.3249

>  <SCORE.INTER.VDW>
-35.5438

>  <SCORE.INTER.norm>
-1.32419

>  <SCORE.INTRA>
0.562517

>  <SCORE.INTRA.DIHEDRAL>
0.862525

>  <SCORE.INTRA.DIHEDRAL.0>
2.68224

>  <SCORE.INTRA.POLAR>
0

>  <SCORE.INTRA.POLAR.0>
0

>  <SCORE.INTRA.REPUL>
0

>  <SCORE.INTRA.REPUL.0>
0

>  <SCORE.INTRA.SOLV>
-0.226375

>  <SCORE.INTRA.SOLV.lig_0>
-19.4148

>  <SCORE.INTRA.VDW>
0.244442

>  <SCORE.INTRA.VDW.0>
5.42093

>  <SCORE.INTRA.norm>
0.020834

>  <SCORE.RESTR>
0

>  <SCORE.RESTR.CAVITY>
0

>  <SCORE.RESTR.norm>
0

>  <SCORE.SYSTEM>
0

>  <SCORE.SYSTEM.CONST>
0

>  <SCORE.SYSTEM.DIHEDRAL>
0

>  <SCORE.SYSTEM.SOLV>
0

>  <SCORE.SYSTEM.norm>
0

>  <SCORE.heavy>
27

>  <SCORE.norm>
-1.30336

>  <RMSD>
0.634

$$$$
lig.pdb
 OpenBabel11021811523D
libRbt.so/2013.1/901 2013/11/27
 27 30  0  0  0  0  0  0  0  0999 V2000
   28.0336   35.7403   19.8007 N   0  0  0  0  0  0  0  0  0  0  0  0
   28.3006   36.9366   20.2631 C   0  0  0  0  0  0  0  0  0  0  0  0
   27.9441   37.3908   21.4910 N   0  0  0  0  0  0  0  0  0  0  0  0
   27.2999   36.5380   22.3424 C   0  0  0  0  0  0  0  0  0  0  0  0
   27.0060   35.2624   21.9540 C   0  0  0  0  0  0  0  0  0  0  0  0
   27.3667   34.8336   20.6236 C   0  0  0  0  0  0  0  0  0  0  0  0
   27.0875   33.7121   20.1819 O   0  0  0  0  0  0  0  0  0  0  0  0
   28.9035   38.0541   19.3839 C   0  0  2  0  0  0  0  0  0  0  0  0
   28.1530   39.2977   19.8877 C   0  0  0  0  0  0  0  0  0  0  0  0
   28.3840   40.4573   19.0245 N   0  0  0  0  0  0  0  0  0  0  0  0
   27.8605   40.1677   17.6799 C   0  0  0  0  0  0  0  0  0  0  0  0
   28.6060   39.0078   17.0498 C   0  0  0  0  0  0  0  0  0  0  0  0
   28.5186   37.7639   17.9232 C   0  0  0  0  0  0  0  0  0  0  0  0
   27.0194   37.1481   23.6352 C   0  0  0  0  0  0  0  0  0  0  0  0
   27.3887   38.8030   23.9512 S   0  0  0  0  0  0  0  0  0  0  0  0
   26.8307   38.6908   25.5282 C   0  0  0  0  0  0  0  0  0  0  0  0
   26.3394   37.4751   25.7998 C   0  0  0  0  0  0  0  0  0  0  0  0
   26.4465   36.5711   24.7249 C   0  0  0  0  0  0  0  0  0  0  0  0
   27.7616   41.6788   19.5648 C   0  0  0  0  0  0  0  0  0  0  0  0
   27.8721   41.8634   21.0618 C   0  0  0  0  0  0  0  0  0  0  0  0
   26.7418   41.8886   21.8658 C   0  0  0  0  0  0  0  0  0  0  0  0
   26.7095   42.3903   23.1137 N   0  0  0  0  0  0  0  0  0  0  0  0
   27.8582   42.9095   23.5203 C   0  0  0  0  0  0  0  0  0  0  0  0
   29.0015   42.9958   22.8593 N   0  0  0  0  0  0  0  0  0  0  0  0
   28.9704   42.4847   21.6197 C   0  0  0  0  0  0  0  0  0  0  0  0
   27.8198   43.4154   24.7584 O   0  0  0  0  0  0  0  0  0  0  0  0
   27.6817   42.4929   25.8454 C   0  0  0  0  0  0  0  0  0  0  0  0
  1  2  2  0  0  0  0
  1  6  1  0  0  0  0
  2  3  1  0  0  0  0
  3  4  2  0  0  0  0
  4 14  1  0  0  0  0
  5  4  1  0  0  0  0
  6  5  1  0  0  0  0
  7  6  2  0  0  0  0
  8  9  1  0  0  0  0
  8  2  1  1  0  0  0
 10 19  1  0  0  0  0
 10  9  1  0  0  0  0
 11 10  1  0  0  0  0
 12 11  1  0  0  0  0
 12 13  1  0  0  0  0
 13  8  1  0  0  0  0
 14 15  1  0  0  0  0
 14 18  2  0  0  0  0
 15 16  1  0  0  0  0
 16 17  2  0  0  0  0
 18 17  1  0  0  0  0
 19 20  1  0  0  0  0
 20 25  2  0  0  0  0
 20 21  1  0  0  0  0
 21 22  2  0  0  0  0
 22 23  1  0  0  0  0
 23 26  1  0  0  0  0
 24 23  2  0  0  0  0
 25 24  1  0  0  0  0
 26 27  1  0  0  0  0
M  END
>  <CHROM.1>
3.91039834,141.27510260,40.32397028,-116.79945399,68.94747899,27.69061423
39.12061721,21.77899705,1.55419416,-1.34142555,-2.60325400

>  <Name>
lig.pdb

>  <RI>
0

>  <Rbt.Current_Directory>
/home/itssahil/PROJECTS/Mol_Feturizer/New_Systems/rnas/5kx9

>  <Rbt.Executable>
rbdock ($Id: //depot/dev/client3/rdock/2013.1/src/exe/rbdock.cxx#4 $)

>  <Rbt.Library>
libRbt.so (2013.1, Build901 2013/11/27)

>  <Rbt.Parameter_File>
/export/apps/rDock/src/rDock_2013.1_src/data/scripts/dock_solv.prm

>  <Rbt.Receptor>
prm/pocket_docking_4.prm

>  <SCORE>
-37.2808

>  <SCORE.INTER>
-35.517

>  <SCORE.INTER.CONST>
1

>  <SCORE.INTER.POLAR>
0

>  <SCORE.INTER.ROT>
5

>  <SCORE.INTER.SOLV>
14.0786

>  <SCORE.INTER.VDW>
-35.3042

>  <SCORE.INTER.norm>
-1.31545

>  <SCORE.INTRA>
-1.76377

>  <SCORE.INTRA.DIHEDRAL>
3.70525

>  <SCORE.INTRA.DIHEDRAL.0>
2.68224

>  <SCORE.INTRA.POLAR>
0

>  <SCORE.INTRA.POLAR.0>
0

>  <SCORE.INTRA.REPUL>
0

>  <SCORE.INTRA.REPUL.0>
0

>  <SCORE.INTRA.SOLV>
-0.174544

>  <SCORE.INTRA.SOLV.lig_0>
-19.4148

>  <SCORE.INTRA.VDW>
-3.52912

>  <SCORE.INTRA.VDW.0>
5.42093

>  <SCORE.INTRA.norm>
-0.0653247

>  <SCORE.RESTR>
0

>  <SCORE.RESTR.CAVITY>
0

>  <SCORE.RESTR.norm>
0

>  <SCORE.SYSTEM>
0

>  <SCORE.SYSTEM.CONST>
0

>  <SCORE.SYSTEM.DIHEDRAL>
0

>  <SCORE.SYSTEM.SOLV>
0

>  <SCORE.SYSTEM.norm>
0

>  <SCORE.heavy>
27

>  <SCORE.norm>
-1.38077

>  <RMSD>
0.648

$$$$
lig.pdb
 OpenBabel11021811523D
libRbt.so/2013.1/901 2013/11/27
 27 30  0  0  0  0  0  0  0  0999 V2000
   27.8517   36.0887   19.7279 N   0  0  0  0  0  0  0  0  0  0  0  0
   28.1086   37.2783   20.2128 C   0  0  0  0  0  0  0  0  0  0  0  0
   27.8230   37.6786   21.4774 N   0  0  0  0  0  0  0  0  0  0  0  0
   27.2697   36.7751   22.3403 C   0  0  0  0  0  0  0  0  0  0  0  0
   26.9940   35.5029   21.9284 C   0  0  0  0  0  0  0  0  0  0  0  0
   27.2756   35.1315   20.5622 C   0  0  0  0  0  0  0  0  0  0  0  0
   27.0055   34.0154   20.1014 O   0  0  0  0  0  0  0  0  0  0  0  0
   28.6095   38.4456   19.3341 C   0  0  2  0  0  0  0  0  0  0  0  0
   27.9614   39.6610   20.0168 C   0  0  0  0  0  0  0  0  0  0  0  0
   28.0971   40.8737   19.2081 N   0  0  0  0  0  0  0  0  0  0  0  0
   27.3890   40.6823   17.9321 C   0  0  0  0  0  0  0  0  0  0  0  0
   28.0167   39.5590   17.1308 C   0  0  0  0  0  0  0  0  0  0  0  0
   28.0229   38.2599   17.9244 C   0  0  0  0  0  0  0  0  0  0  0  0
   27.0591   37.3318   23.6700 C   0  0  0  0  0  0  0  0  0  0  0  0
   26.1673   36.4782   24.8747 S   0  0  0  0  0  0  0  0  0  0  0  0
   26.3574   37.7208   25.9841 C   0  0  0  0  0  0  0  0  0  0  0  0
   27.1017   38.7199   25.4937 C   0  0  0  0  0  0  0  0  0  0  0  0
   27.5082   38.5176   24.1604 C   0  0  0  0  0  0  0  0  0  0  0  0
   27.5804   42.0632   19.9077 C   0  0  0  0  0  0  0  0  0  0  0  0
   28.0439   42.2355   21.3370 C   0  0  0  0  0  0  0  0  0  0  0  0
   27.1325   42.3508   22.3766 C   0  0  0  0  0  0  0  0  0  0  0  0
   27.4257   42.8512   23.5905 N   0  0  0  0  0  0  0  0  0  0  0  0
   28.6744   43.2748   23.7163 C   0  0  0  0  0  0  0  0  0  0  0  0
   29.6398   43.2694   22.8110 N   0  0  0  0  0  0  0  0  0  0  0  0
   29.2862   42.7647   21.6198 C   0  0  0  0  0  0  0  0  0  0  0  0
   28.9598   43.7799   24.9219 O   0  0  0  0  0  0  0  0  0  0  0  0
   30.1451   43.3076   25.5728 C   0  0  0  0  0  0  0  0  0  0  0  0
  1  2  2  0  0  0  0
  1  6  1  0  0  0  0
  2  3  1  0  0  0  0
  3  4  2  0  0  0  0
  4 14  1  0  0  0  0
  5  4  1  0  0  0  0
  6  5  1  0  0  0  0
  7  6  2  0  0  0  0
  8  9  1  0  0  0  0
  8  2  1  1  0  0  0
 10 19  1  0  0  0  0
 10  9  1  0  0  0  0
 11 10  1  0  0  0  0
 12 11  1  0  0  0  0
 12 13  1  0  0  0  0
 13  8  1  0  0  0  0
 14 15  1  0  0  0  0
 14 18  2  0  0  0  0
 15 16  1  0  0  0  0
 16 17  2  0  0  0  0
 18 17  1  0  0  0  0
 19 20  1  0  0  0  0
 20 25  2  0  0  0  0
 20 21  1  0  0  0  0
 21 22  2  0  0  0  0
 22 23  1  0  0  0  0
 23 26  1  0  0  0  0
 24 23  2  0  0  0  0
 25 24  1  0  0  0  0
 26 27  1  0  0  0  0
M  END
>  <CHROM.1>
170.92088611,146.56703421,47.82634531,-123.81944950,130.83525706,27.76836338
39.31482315,21.91061955,-2.48078848,1.31346479,1.22952316

>  <Name>
lig.pdb

>  <RI>
0

>  <Rbt.Current_Directory>
/home/itssahil/PROJECTS/Mol_Feturizer/New_Systems/rnas/5kx9

>  <Rbt.Executable>
rbdock ($Id: //depot/dev/client3/rdock/2013.1/src/exe/rbdock.cxx#4 $)

>  <Rbt.Library>
libRbt.so (2013.1, Build901 2013/11/27)

>  <Rbt.Parameter_File>
/export/apps/rDock/src/rDock_2013.1_src/data/scripts/dock_solv.prm

>  <Rbt.Receptor>
prm/pocket_docking_2.prm

>  <SCORE>
-38.8415

>  <SCORE.INTER>
-37.8458

>  <SCORE.INTER.CONST>
1

>  <SCORE.INTER.POLAR>
0

>  <SCORE.INTER.ROT>
5

>  <SCORE.INTER.SOLV>
15.2959

>  <SCORE.INTER.VDW>
-37.2625

>  <SCORE.INTER.norm>
-1.4017

>  <SCORE.INTRA>
-0.99575

>  <SCORE.INTRA.DIHEDRAL>
2.43994

>  <SCORE.INTRA.DIHEDRAL.0>
2.68224

>  <SCORE.INTRA.POLAR>
0

>  <SCORE.INTRA.POLAR.0>
0

>  <SCORE.INTRA.REPUL>
0

>  <SCORE.INTRA.REPUL.0>
0

>  <SCORE.INTRA.SOLV>
-0.574697

>  <SCORE.INTRA.SOLV.lig_0>
-19.4148

>  <SCORE.INTRA.VDW>
-1.92837

>  <SCORE.INTRA.VDW.0>
5.42093

>  <SCORE.INTRA.norm>
-0.0368796

>  <SCORE.RESTR>
0

>  <SCORE.RESTR.CAVITY>
0

>  <SCORE.RESTR.norm>
0

>  <SCORE.SYSTEM>
0

>  <SCORE.SYSTEM.CONST>
0

>  <SCORE.SYSTEM.DIHEDRAL>
0

>  <SCORE.SYSTEM.SOLV>
0

>  <SCORE.SYSTEM.norm>
0

>  <SCORE.heavy>
27

>  <SCORE.norm>
-1.43858

>  <RMSD>
0.651

$$$$
lig.pdb
 OpenBabel11021811523D
libRbt.so/2013.1/901 2013/11/27
 27 30  0  0  0  0  0  0  0  0999 V2000
   27.9999   35.6248   20.0717 N   0  0  0  0  0  0  0  0  0  0  0  0
   28.1890   36.8513   20.4917 C   0  0  0  0  0  0  0  0  0  0  0  0
   27.7879   37.3289   21.6967 N   0  0  0  0  0  0  0  0  0  0  0  0
   27.1823   36.4715   22.5716 C   0  0  0  0  0  0  0  0  0  0  0  0
   26.9700   35.1671   22.2282 C   0  0  0  0  0  0  0  0  0  0  0  0
   27.3753   34.7114   20.9199 C   0  0  0  0  0  0  0  0  0  0  0  0
   27.1693   33.5596   20.5175 O   0  0  0  0  0  0  0  0  0  0  0  0
   28.7382   37.9692   19.5784 C   0  0  2  0  0  0  0  0  0  0  0  0
   27.8110   39.1467   19.9211 C   0  0  0  0  0  0  0  0  0  0  0  0
   27.9860   40.2634   18.9907 N   0  0  0  0  0  0  0  0  0  0  0  0
   27.6196   39.8218   17.6353 C   0  0  0  0  0  0  0  0  0  0  0  0
   28.5436   38.7178   17.1602 C   0  0  0  0  0  0  0  0  0  0  0  0
   28.5194   37.5355   18.1189 C   0  0  0  0  0  0  0  0  0  0  0  0
   26.8470   37.1115   23.8366 C   0  0  0  0  0  0  0  0  0  0  0  0
   27.2997   38.7419   24.1709 S   0  0  0  0  0  0  0  0  0  0  0  0
   26.6196   38.6820   25.7022 C   0  0  0  0  0  0  0  0  0  0  0  0
   26.0306   37.5038   25.9424 C   0  0  0  0  0  0  0  0  0  0  0  0
   26.1578   36.5840   24.8832 C   0  0  0  0  0  0  0  0  0  0  0  0
   27.1848   41.4367   19.3815 C   0  0  0  0  0  0  0  0  0  0  0  0
   27.6939   42.2084   20.5785 C   0  0  0  0  0  0  0  0  0  0  0  0
   29.0434   42.4948   20.7249 C   0  0  0  0  0  0  0  0  0  0  0  0
   29.6226   42.8459   21.8873 N   0  0  0  0  0  0  0  0  0  0  0  0
   28.7966   42.8626   22.9226 C   0  0  0  0  0  0  0  0  0  0  0  0
   27.5047   42.5766   22.9486 N   0  0  0  0  0  0  0  0  0  0  0  0
   26.9854   42.2280   21.7621 C   0  0  0  0  0  0  0  0  0  0  0  0
   29.3780   43.2035   24.0784 O   0  0  0  0  0  0  0  0  0  0  0  0
   28.5786   43.1380   25.2651 C   0  0  0  0  0  0  0  0  0  0  0  0
  1  2  2  0  0  0  0
  1  6  1  0  0  0  0
  2  3  1  0  0  0  0
  3  4  2  0  0  0  0
  4 14  1  0  0  0  0
  5  4  1  0  0  0  0
  6  5  1  0  0  0  0
  7  6  2  0  0  0  0
  8  9  1  0  0  0  0
  8  2  1  1  0  0  0
 10 19  1  0  0  0  0
 10  9  1  0  0  0  0
 11 10  1  0  0  0  0
 12 11  1  0  0  0  0
 12 13  1  0  0  0  0
 13  8  1  0  0  0  0
 14 15  1  0  0  0  0
 14 18  2  0  0  0  0
 15 16  1  0  0  0  0
 16 17  2  0  0  0  0
 18 17  1  0  0  0  0
 19 20  1  0  0  0  0
 20 25  2  0  0  0  0
 20 21  1  0  0  0  0
 21 22  2  0  0  0  0
 22 23  1  0  0  0  0
 23 26  1  0  0  0  0
 24 23  2  0  0  0  0
 25 24  1  0  0  0  0
 26 27  1  0  0  0  0
M  END
>  <CHROM.1>
-4.23053376,135.67093503,73.63778055,43.47379208,-174.95146683,27.76022012
39.07359523,21.73391260,-2.17870228,1.32855757,0.85379044

>  <Name>
lig.pdb

>  <RI>
0

>  <Rbt.Current_Directory>
/home/itssahil/PROJECTS/Mol_Feturizer/New_Systems/rnas/5kx9

>  <Rbt.Executable>
rbdock ($Id: //depot/dev/client3/rdock/2013.1/src/exe/rbdock.cxx#4 $)

>  <Rbt.Library>
libRbt.so (2013.1, Build901 2013/11/27)

>  <Rbt.Parameter_File>
/export/apps/rDock/src/rDock_2013.1_src/data/scripts/dock_solv.prm

>  <Rbt.Receptor>
prm/pocket_docking_6.prm

>  <SCORE>
-39.1325

>  <SCORE.INTER>
-36.5527

>  <SCORE.INTER.CONST>
1

>  <SCORE.INTER.POLAR>
0

>  <SCORE.INTER.ROT>
5

>  <SCORE.INTER.SOLV>
15.6778

>  <SCORE.INTER.VDW>
-36.5277

>  <SCORE.INTER.norm>
-1.3538

>  <SCORE.INTRA>
-2.57978

>  <SCORE.INTRA.DIHEDRAL>
-0.391269

>  <SCORE.INTRA.DIHEDRAL.0>
2.68224

>  <SCORE.INTRA.POLAR>
0

>  <SCORE.INTRA.POLAR.0>
0

>  <SCORE.INTRA.REPUL>
0

>  <SCORE.INTRA.REPUL.0>
0

>  <SCORE.INTRA.SOLV>
-0.226436

>  <SCORE.INTRA.SOLV.lig_0>
-19.4148

>  <SCORE.INTRA.VDW>
-2.27093

>  <SCORE.INTRA.VDW.0>
5.42093

>  <SCORE.INTRA.norm>
-0.0955474

>  <SCORE.RESTR>
0

>  <SCORE.RESTR.CAVITY>
0

>  <SCORE.RESTR.norm>
0

>  <SCORE.SYSTEM>
0

>  <SCORE.SYSTEM.CONST>
0

>  <SCORE.SYSTEM.DIHEDRAL>
0

>  <SCORE.SYSTEM.SOLV>
0

>  <SCORE.SYSTEM.norm>
0

>  <SCORE.heavy>
27

>  <SCORE.norm>
-1.44935

>  <RMSD>
0.663

$$$$
lig.pdb
 OpenBabel11021811523D
libRbt.so/2013.1/901 2013/11/27
 27 30  0  0  0  0  0  0  0  0999 V2000
   27.8829   36.0702   19.7802 N   0  0  0  0  0  0  0  0  0  0  0  0
   28.1647   37.2762   20.2073 C   0  0  0  0  0  0  0  0  0  0  0  0
   27.9133   37.7338   21.4597 N   0  0  0  0  0  0  0  0  0  0  0  0
   27.3699   36.8751   22.3732 C   0  0  0  0  0  0  0  0  0  0  0  0
   27.0699   35.5900   22.0227 C   0  0  0  0  0  0  0  0  0  0  0  0
   27.3154   35.1570   20.6678 C   0  0  0  0  0  0  0  0  0  0  0  0
   27.0217   34.0257   20.2618 O   0  0  0  0  0  0  0  0  0  0  0  0
   28.6585   38.3984   19.2680 C   0  0  2  0  0  0  0  0  0  0  0  0
   28.0011   39.6440   19.8843 C   0  0  0  0  0  0  0  0  0  0  0  0
   28.1292   40.8127   19.0121 N   0  0  0  0  0  0  0  0  0  0  0  0
   27.4240   40.5485   17.7476 C   0  0  0  0  0  0  0  0  0  0  0  0
   28.0606   39.3884   17.0079 C   0  0  0  0  0  0  0  0  0  0  0  0
   28.0749   38.1336   17.8698 C   0  0  0  0  0  0  0  0  0  0  0  0
   27.1967   37.4908   23.6820 C   0  0  0  0  0  0  0  0  0  0  0  0
   26.5070   36.6228   25.0034 S   0  0  0  0  0  0  0  0  0  0  0  0
   26.6324   37.9494   26.0209 C   0  0  0  0  0  0  0  0  0  0  0  0
   27.2133   38.9922   25.4142 C   0  0  0  0  0  0  0  0  0  0  0  0
   27.5381   38.7498   24.0652 C   0  0  0  0  0  0  0  0  0  0  0  0
   27.6033   42.0341   19.6468 C   0  0  0  0  0  0  0  0  0  0  0  0
   28.1289   42.3302   21.0337 C   0  0  0  0  0  0  0  0  0  0  0  0
   29.4632   42.1246   21.3530 C   0  0  0  0  0  0  0  0  0  0  0  0
   29.9349   42.0172   22.6084 N   0  0  0  0  0  0  0  0  0  0  0  0
   29.0026   42.0852   23.5468 C   0  0  0  0  0  0  0  0  0  0  0  0
   27.6962   42.2365   23.3986 N   0  0  0  0  0  0  0  0  0  0  0  0
   27.2854   42.3317   22.1254 C   0  0  0  0  0  0  0  0  0  0  0  0
   29.4744   41.9690   24.7933 O   0  0  0  0  0  0  0  0  0  0  0  0
   28.6935   42.5370   25.8513 C   0  0  0  0  0  0  0  0  0  0  0  0
  1  2  2  0  0  0  0
  1  6  1  0  0  0  0
  2  3  1  0  0  0  0
  3  4  2  0  0  0  0
  4 14  1  0  0  0  0
  5  4  1  0  0  0  0
  6  5  1  0  0  0  0
  7  6  2  0  0  0  0
  8  9  1  0  0  0  0
  8  2  1  1  0  0  0
 10 19  1  0  0  0  0
 10  9  1  0  0  0  0
 11 10  1  0  0  0  0
 12 11  1  0  0  0  0
 12 13  1  0  0  0  0
 13  8  1  0  0  0  0
 14 15  1  0  0  0  0
 14 18  2  0  0  0  0
 15 16  1  0  0  0  0
 16 17  2  0  0  0  0
 18 17  1  0  0  0  0
 19 20  1  0  0  0  0
 20 25  2  0  0  0  0
 20 21  1  0  0  0  0
 21 22  2  0  0  0  0
 22 23  1  0  0  0  0
 23 26  1  0  0  0  0
 24 23  2  0  0  0  0
 25 24  1  0  0  0  0
 26 27  1  0  0  0  0
M  END
>  <CHROM.1>
179.05979576,144.70708343,51.39286023,40.07107408,155.86927399,27.84852763
39.11369304,21.85435631,2.23561412,-1.33157489,-1.86145697

>  <Name>
lig.pdb

>  <RI>
0

>  <Rbt.Current_Directory>
/home/itssahil/PROJECTS/Mol_Feturizer/New_Systems/rnas/5kx9

>  <Rbt.Executable>
rbdock ($Id: //depot/dev/client3/rdock/2013.1/src/exe/rbdock.cxx#4 $)

>  <Rbt.Library>
libRbt.so (2013.1, Build901 2013/11/27)

>  <Rbt.Parameter_File>
/export/apps/rDock/src/rDock_2013.1_src/data/scripts/dock_solv.prm

>  <Rbt.Receptor>
prm/pocket_docking_2.prm

>  <SCORE>
-36.2566

>  <SCORE.INTER>
-34.5851

>  <SCORE.INTER.CONST>
1

>  <SCORE.INTER.POLAR>
0

>  <SCORE.INTER.ROT>
5

>  <SCORE.INTER.SOLV>
13.0901

>  <SCORE.INTER.VDW>
-34.3534

>  <SCORE.INTER.norm>
-1.28093

>  <SCORE.INTRA>
-1.69794

>  <SCORE.INTRA.DIHEDRAL>
0.0506781

>  <SCORE.INTRA.DIHEDRAL.0>
2.68224

>  <SCORE.INTRA.POLAR>
0

>  <SCORE.INTRA.POLAR.0>
0

>  <SCORE.INTRA.REPUL>
0

>  <SCORE.INTRA.REPUL.0>
0

>  <SCORE.INTRA.SOLV>
0.067511

>  <SCORE.INTRA.SOLV.lig_0>
-19.4148

>  <SCORE.INTRA.VDW>
-1.75703

>  <SCORE.INTRA.VDW.0>
5.42093

>  <SCORE.INTRA.norm>
-0.0628865

>  <SCORE.RESTR>
0.0263413

>  <SCORE.RESTR.CAVITY>
0.0263413

>  <SCORE.RESTR.norm>
0.000975605

>  <SCORE.SYSTEM>
0

>  <SCORE.SYSTEM.CONST>
0

>  <SCORE.SYSTEM.DIHEDRAL>
0

>  <SCORE.SYSTEM.SOLV>
0

>  <SCORE.SYSTEM.norm>
0

>  <SCORE.heavy>
27

>  <SCORE.norm>
-1.34284

>  <RMSD>
0.670

$$$$
lig.pdb
 OpenBabel11021811523D
libRbt.so/2013.1/901 2013/11/27
 27 30  0  0  0  0  0  0  0  0999 V2000
   27.9133   35.5974   19.9108 N   0  0  0  0  0  0  0  0  0  0  0  0
   27.9799   36.8846   20.1449 C   0  0  0  0  0  0  0  0  0  0  0  0
   27.6694   37.4751   21.3264 N   0  0  0  0  0  0  0  0  0  0  0  0
   27.3034   36.6826   22.3776 C   0  0  0  0  0  0  0  0  0  0  0  0
   27.2344   35.3267   22.2317 C   0  0  0  0  0  0  0  0  0  0  0  0
   27.5330   34.7436   20.9455 C   0  0  0  0  0  0  0  0  0  0  0  0
   27.4416   33.5301   20.7219 O   0  0  0  0  0  0  0  0  0  0  0  0
   28.2493   37.9209   19.0317 C   0  0  2  0  0  0  0  0  0  0  0  0
   28.3586   39.2290   19.8319 C   0  0  0  0  0  0  0  0  0  0  0  0
   28.3716   40.4015   18.9555 N   0  0  0  0  0  0  0  0  0  0  0  0
   27.0988   40.4655   18.2192 C   0  0  0  0  0  0  0  0  0  0  0  0
   26.9364   39.2572   17.3181 C   0  0  0  0  0  0  0  0  0  0  0  0
   27.0117   37.9649   18.1193 C   0  0  0  0  0  0  0  0  0  0  0  0
   27.0422   37.4491   23.5886 C   0  0  0  0  0  0  0  0  0  0  0  0
   26.4637   36.6939   25.0274 S   0  0  0  0  0  0  0  0  0  0  0  0
   26.4071   38.1560   25.8460 C   0  0  0  0  0  0  0  0  0  0  0  0
   26.8501   39.1695   25.0913 C   0  0  0  0  0  0  0  0  0  0  0  0
   27.2128   38.7834   23.7862 C   0  0  0  0  0  0  0  0  0  0  0  0
   28.5918   41.6492   19.7078 C   0  0  0  0  0  0  0  0  0  0  0  0
   28.2494   41.5958   21.1800 C   0  0  0  0  0  0  0  0  0  0  0  0
   27.0321   42.0670   21.6499 C   0  0  0  0  0  0  0  0  0  0  0  0
   26.7863   42.3853   22.9337 N   0  0  0  0  0  0  0  0  0  0  0  0
   27.8310   42.2496   23.7366 C   0  0  0  0  0  0  0  0  0  0  0  0
   29.0566   41.8542   23.4317 N   0  0  0  0  0  0  0  0  0  0  0  0
   29.2422   41.5568   22.1372 C   0  0  0  0  0  0  0  0  0  0  0  0
   27.5851   42.5756   25.0107 O   0  0  0  0  0  0  0  0  0  0  0  0
   28.7109   42.8608   25.8491 C   0  0  0  0  0  0  0  0  0  0  0  0
  1  2  2  0  0  0  0
  1  6  1  0  0  0  0
  2  3  1  0  0  0  0
  3  4  2  0  0  0  0
  4 14  1  0  0  0  0
  5  4  1  0  0  0  0
  6  5  1  0  0  0  0
  7  6  2  0  0  0  0
  8  9  1  0  0  0  0
  8  2  1  1  0  0  0
 10 19  1  0  0  0  0
 10  9  1  0  0  0  0
 11 10  1  0  0  0  0
 12 11  1  0  0  0  0
 12 13  1  0  0  0  0
 13  8  1  0  0  0  0
 14 15  1  0  0  0  0
 14 18  2  0  0  0  0
 15 16  1  0  0  0  0
 16 17  2  0  0  0  0
 18 17  1  0  0  0  0
 19 20  1  0  0  0  0
 20 25  2  0  0  0  0
 20 21  1  0  0  0  0
 21 22  2  0  0  0  0
 22 23  1  0  0  0  0
 23 26  1  0  0  0  0
 24 23  2  0  0  0  0
 25 24  1  0  0  0  0
 26 27  1  0  0  0  0
M  END
>  <CHROM.1>
175.91588411,-174.94032467,-22.00666302,-97.87465461,-161.05675895,27.58352077
38.96111273,21.93173164,1.96444056,-1.40417136,-2.18685102

>  <Name>
lig.pdb

>  <RI>
0

>  <Rbt.Current_Directory>
/home/itssahil/PROJECTS/Mol_Feturizer/New_Systems/rnas/5kx9

>  <Rbt.Executable>
rbdock ($Id: //depot/dev/client3/rdock/2013.1/src/exe/rbdock.cxx#4 $)

>  <Rbt.Library>
libRbt.so (2013.1, Build901 2013/11/27)

>  <Rbt.Parameter_File>
/export/apps/rDock/src/rDock_2013.1_src/data/scripts/dock_solv.prm

>  <Rbt.Receptor>
prm/pocket_docking_2.prm

>  <SCORE>
-33.5827

>  <SCORE.INTER>
-34.8474

>  <SCORE.INTER.CONST>
1

>  <SCORE.INTER.POLAR>
0

>  <SCORE.INTER.ROT>
5

>  <SCORE.INTER.SOLV>
13.2721

>  <SCORE.INTER.VDW>
-34.589

>  <SCORE.INTER.norm>
-1.29064

>  <SCORE.INTRA>
1.26467

>  <SCORE.INTRA.DIHEDRAL>
0.914302

>  <SCORE.INTRA.DIHEDRAL.0>
2.68224

>  <SCORE.INTRA.POLAR>
0

>  <SCORE.INTRA.POLAR.0>
0

>  <SCORE.INTRA.REPUL>
0

>  <SCORE.INTRA.REPUL.0>
0

>  <SCORE.INTRA.SOLV>
0.0947538

>  <SCORE.INTRA.SOLV.lig_0>
-19.4148

>  <SCORE.INTRA.VDW>
0.760147

>  <SCORE.INTRA.VDW.0>
5.42093

>  <SCORE.INTRA.norm>
0.0468398

>  <SCORE.RESTR>
0

>  <SCORE.RESTR.CAVITY>
0

>  <SCORE.RESTR.norm>
0

>  <SCORE.SYSTEM>
0

>  <SCORE.SYSTEM.CONST>
0

>  <SCORE.SYSTEM.DIHEDRAL>
0

>  <SCORE.SYSTEM.SOLV>
0

>  <SCORE.SYSTEM.norm>
0

>  <SCORE.heavy>
27

>  <SCORE.norm>
-1.2438

>  <RMSD>
0.670

$$$$
lig.pdb
 OpenBabel11021811523D
libRbt.so/2013.1/901 2013/11/27
 27 30  0  0  0  0  0  0  0  0999 V2000
   28.0701   35.8690   19.9573 N   0  0  0  0  0  0  0  0  0  0  0  0
   28.2840   37.0696   20.4359 C   0  0  0  0  0  0  0  0  0  0  0  0
   27.8689   37.5051   21.6520 N   0  0  0  0  0  0  0  0  0  0  0  0
   27.2193   36.6281   22.4742 C   0  0  0  0  0  0  0  0  0  0  0  0
   26.9781   35.3469   22.0682 C   0  0  0  0  0  0  0  0  0  0  0  0
   27.4004   34.9377   20.7499 C   0  0  0  0  0  0  0  0  0  0  0  0
   27.1712   33.8113   20.2920 O   0  0  0  0  0  0  0  0  0  0  0  0
   28.8856   38.2102   19.5857 C   0  0  2  0  0  0  0  0  0  0  0  0
   27.9623   39.3893   19.9331 C   0  0  0  0  0  0  0  0  0  0  0  0
   28.1906   40.5352   19.0509 N   0  0  0  0  0  0  0  0  0  0  0  0
   27.8729   40.1473   17.6671 C   0  0  0  0  0  0  0  0  0  0  0  0
   28.7995   39.0464   17.1900 C   0  0  0  0  0  0  0  0  0  0  0  0
   28.7197   37.8316   18.1041 C   0  0  0  0  0  0  0  0  0  0  0  0
   26.8732   37.2211   23.7590 C   0  0  0  0  0  0  0  0  0  0  0  0
   27.2316   38.8698   24.1178 S   0  0  0  0  0  0  0  0  0  0  0  0
   26.5905   38.7378   25.6613 C   0  0  0  0  0  0  0  0  0  0  0  0
   26.0808   37.5207   25.8891 C   0  0  0  0  0  0  0  0  0  0  0  0
   26.2412   36.6315   24.8085 C   0  0  0  0  0  0  0  0  0  0  0  0
   27.3912   41.7065   19.4513 C   0  0  0  0  0  0  0  0  0  0  0  0
   27.6545   42.2344   20.8439 C   0  0  0  0  0  0  0  0  0  0  0  0
   28.9485   42.4496   21.2956 C   0  0  0  0  0  0  0  0  0  0  0  0
   29.2897   42.5681   22.5915 N   0  0  0  0  0  0  0  0  0  0  0  0
   28.2788   42.4226   23.4349 C   0  0  0  0  0  0  0  0  0  0  0  0
   27.0080   42.1752   23.1606 N   0  0  0  0  0  0  0  0  0  0  0  0
   26.7302   42.0616   21.8534 C   0  0  0  0  0  0  0  0  0  0  0  0
   28.6236   42.5323   24.7230 O   0  0  0  0  0  0  0  0  0  0  0  0
   27.5870   42.8468   25.6602 C   0  0  0  0  0  0  0  0  0  0  0  0
  1  2  2  0  0  0  0
  1  6  1  0  0  0  0
  2  3  1  0  0  0  0
  3  4  2  0  0  0  0
  4 14  1  0  0  0  0
  5  4  1  0  0  0  0
  6  5  1  0  0  0  0
  7  6  2  0  0  0  0
  8  9  1  0  0  0  0
  8  2  1  1  0  0  0
 10 19  1  0  0  0  0
 10  9  1  0  0  0  0
 11 10  1  0  0  0  0
 12 11  1  0  0  0  0
 12 13  1  0  0  0  0
 13  8  1  0  0  0  0
 14 15  1  0  0  0  0
 14 18  2  0  0  0  0
 15 16  1  0  0  0  0
 16 17  2  0  0  0  0
 18 17  1  0  0  0  0
 19 20  1  0  0  0  0
 20 25  2  0  0  0  0
 20 21  1  0  0  0  0
 21 22  2  0  0  0  0
 22 23  1  0  0  0  0
 23 26  1  0  0  0  0
 24 23  2  0  0  0  0
 25 24  1  0  0  0  0
 26 27  1  0  0  0  0
M  END
>  <CHROM.1>
1.71546789,134.28609787,60.12363666,47.85300389,159.08189264,27.69121373
39.13028941,21.81994305,1.61589564,-1.32515365,-2.54199706

>  <Name>
lig.pdb

>  <RI>
0

>  <Rbt.Current_Directory>
/home/itssahil/PROJECTS/Mol_Feturizer/New_Systems/rnas/5kx9

>  <Rbt.Executable>
rbdock ($Id: //depot/dev/client3/rdock/2013.1/src/exe/rbdock.cxx#4 $)

>  <Rbt.Library>
libRbt.so (2013.1, Build901 2013/11/27)

>  <Rbt.Parameter_File>
/export/apps/rDock/src/rDock_2013.1_src/data/scripts/dock_solv.prm

>  <Rbt.Receptor>
prm/pocket_docking_3.prm

>  <SCORE>
-38.0165

>  <SCORE.INTER>
-34.6855

>  <SCORE.INTER.CONST>
1

>  <SCORE.INTER.POLAR>
0

>  <SCORE.INTER.ROT>
5

>  <SCORE.INTER.SOLV>
13.2733

>  <SCORE.INTER.VDW>
-34.4814

>  <SCORE.INTER.norm>
-1.28465

>  <SCORE.INTRA>
-3.33103

>  <SCORE.INTRA.DIHEDRAL>
-0.12456

>  <SCORE.INTRA.DIHEDRAL.0>
2.68224

>  <SCORE.INTRA.POLAR>
0

>  <SCORE.INTRA.POLAR.0>
0

>  <SCORE.INTRA.REPUL>
0

>  <SCORE.INTRA.REPUL.0>
0

>  <SCORE.INTRA.SOLV>
0.171695

>  <SCORE.INTRA.SOLV.lig_0>
-19.4148

>  <SCORE.INTRA.VDW>
-3.35459

>  <SCORE.INTRA.VDW.0>
5.42093

>  <SCORE.INTRA.norm>
-0.123371

>  <SCORE.RESTR>
0

>  <SCORE.RESTR.CAVITY>
0

>  <SCORE.RESTR.norm>
0

>  <SCORE.SYSTEM>
0

>  <SCORE.SYSTEM.CONST>
0

>  <SCORE.SYSTEM.DIHEDRAL>
0

>  <SCORE.SYSTEM.SOLV>
0

>  <SCORE.SYSTEM.norm>
0

>  <SCORE.heavy>
27

>  <SCORE.norm>
-1.40802

>  <RMSD>
0.688

$$$$
lig.pdb
 OpenBabel11021811523D
libRbt.so/2013.1/901 2013/11/27
 27 30  0  0  0  0  0  0  0  0999 V2000
   27.9474   35.5019   20.0847 N   0  0  0  0  0  0  0  0  0  0  0  0
   28.0871   36.7521   20.4503 C   0  0  0  0  0  0  0  0  0  0  0  0
   27.7061   37.2562   21.6510 N   0  0  0  0  0  0  0  0  0  0  0  0
   27.1790   36.4046   22.5805 C   0  0  0  0  0  0  0  0  0  0  0  0
   27.0230   35.0785   22.2953 C   0  0  0  0  0  0  0  0  0  0  0  0
   27.4032   34.5922   20.9904 C   0  0  0  0  0  0  0  0  0  0  0  0
   27.2433   33.4163   20.6403 O   0  0  0  0  0  0  0  0  0  0  0  0
   28.5428   37.8593   19.4746 C   0  0  2  0  0  0  0  0  0  0  0  0
   27.6679   39.0471   19.9074 C   0  0  0  0  0  0  0  0  0  0  0  0
   27.7498   40.1563   18.9554 N   0  0  0  0  0  0  0  0  0  0  0  0
   27.2348   39.7093   17.6511 C   0  0  0  0  0  0  0  0  0  0  0  0
   28.0928   38.5943   17.0865 C   0  0  0  0  0  0  0  0  0  0  0  0
   28.1633   37.4184   18.0507 C   0  0  0  0  0  0  0  0  0  0  0  0
   26.8573   37.0765   23.8324 C   0  0  0  0  0  0  0  0  0  0  0  0
   27.3081   38.7167   24.1180 S   0  0  0  0  0  0  0  0  0  0  0  0
   26.6476   38.6949   25.6588 C   0  0  0  0  0  0  0  0  0  0  0  0
   26.0660   37.5214   25.9374 C   0  0  0  0  0  0  0  0  0  0  0  0
   26.1833   36.5745   24.9012 C   0  0  0  0  0  0  0  0  0  0  0  0
   27.0054   41.3391   19.4224 C   0  0  0  0  0  0  0  0  0  0  0  0
   27.6739   42.1453   20.5135 C   0  0  0  0  0  0  0  0  0  0  0  0
   29.0411   42.3801   20.4952 C   0  0  0  0  0  0  0  0  0  0  0  0
   29.7596   42.7619   21.5665 N   0  0  0  0  0  0  0  0  0  0  0  0
   29.0560   42.8644   22.6841 C   0  0  0  0  0  0  0  0  0  0  0  0
   27.7654   42.6359   22.8671 N   0  0  0  0  0  0  0  0  0  0  0  0
   27.1037   42.2528   21.7652 C   0  0  0  0  0  0  0  0  0  0  0  0
   29.7757   43.2356   23.7492 O   0  0  0  0  0  0  0  0  0  0  0  0
   29.4770   42.6062   25.0007 C   0  0  0  0  0  0  0  0  0  0  0  0
  1  2  2  0  0  0  0
  1  6  1  0  0  0  0
  2  3  1  0  0  0  0
  3  4  2  0  0  0  0
  4 14  1  0  0  0  0
  5  4  1  0  0  0  0
  6  5  1  0  0  0  0
  7  6  2  0  0  0  0
  8  9  1  0  0  0  0
  8  2  1  1  0  0  0
 10 19  1  0  0  0  0
 10  9  1  0  0  0  0
 11 10  1  0  0  0  0
 12 11  1  0  0  0  0
 12 13  1  0  0  0  0
 13  8  1  0  0  0  0
 14 15  1  0  0  0  0
 14 18  2  0  0  0  0
 15 16  1  0  0  0  0
 16 17  2  0  0  0  0
 18 17  1  0  0  0  0
 19 20  1  0  0  0  0
 20 25  2  0  0  0  0
 20 21  1  0  0  0  0
 21 22  2  0  0  0  0
 22 23  1  0  0  0  0
 23 26  1  0  0  0  0
 24 23  2  0  0  0  0
 25 24  1  0  0  0  0
 26 27  1  0  0  0  0
M  END
>  <CHROM.1>
-7.43302487,141.31414627,75.98294573,40.16364777,-140.58923213,27.76907338
38.99264604,21.67147324,-2.54029146,1.33987566,1.14041027

>  <Name>
lig.pdb

>  <RI>
0

>  <Rbt.Current_Directory>
/home/itssahil/PROJECTS/Mol_Feturizer/New_Systems/rnas/5kx9

>  <Rbt.Executable>
rbdock ($Id: //depot/dev/client3/rdock/2013.1/src/exe/rbdock.cxx#4 $)

>  <Rbt.Library>
libRbt.so (2013.1, Build901 2013/11/27)

>  <Rbt.Parameter_File>
/export/apps/rDock/src/rDock_2013.1_src/data/scripts/dock_solv.prm

>  <Rbt.Receptor>
prm/pocket_docking_2.prm

>  <SCORE>
-38.9575

>  <SCORE.INTER>
-36.7446

>  <SCORE.INTER.CONST>
1

>  <SCORE.INTER.POLAR>
0

>  <SCORE.INTER.ROT>
5

>  <SCORE.INTER.SOLV>
15.8531

>  <SCORE.INTER.VDW>
-36.7141

>  <SCORE.INTER.norm>
-1.36091

>  <SCORE.INTRA>
-2.2129

>  <SCORE.INTRA.DIHEDRAL>
1.69804

>  <SCORE.INTRA.DIHEDRAL.0>
2.68224

>  <SCORE.INTRA.POLAR>
0

>  <SCORE.INTRA.POLAR.0>
0

>  <SCORE.INTRA.REPUL>
0

>  <SCORE.INTRA.REPUL.0>
0

>  <SCORE.INTRA.SOLV>
-0.259837

>  <SCORE.INTRA.SOLV.lig_0>
-19.4148

>  <SCORE.INTRA.VDW>
-2.932

>  <SCORE.INTRA.VDW.0>
5.42093

>  <SCORE.INTRA.norm>
-0.0819593

>  <SCORE.RESTR>
0

>  <SCORE.RESTR.CAVITY>
0

>  <SCORE.RESTR.norm>
0

>  <SCORE.SYSTEM>
0

>  <SCORE.SYSTEM.CONST>
0

>  <SCORE.SYSTEM.DIHEDRAL>
0

>  <SCORE.SYSTEM.SOLV>
0

>  <SCORE.SYSTEM.norm>
0

>  <SCORE.heavy>
27

>  <SCORE.norm>
-1.44287

>  <RMSD>
0.709

$$$$
lig.pdb
 OpenBabel11021811523D
libRbt.so/2013.1/901 2013/11/27
 27 30  0  0  0  0  0  0  0  0999 V2000
   28.1469   35.9366   19.8568 N   0  0  0  0  0  0  0  0  0  0  0  0
   28.4048   37.1292   20.3335 C   0  0  0  0  0  0  0  0  0  0  0  0
   28.0317   37.5712   21.5609 N   0  0  0  0  0  0  0  0  0  0  0  0
   27.3792   36.7088   22.3962 C   0  0  0  0  0  0  0  0  0  0  0  0
   27.0937   35.4361   21.9925 C   0  0  0  0  0  0  0  0  0  0  0  0
   27.4722   35.0206   20.6628 C   0  0  0  0  0  0  0  0  0  0  0  0
   27.2016   33.9025   20.2073 O   0  0  0  0  0  0  0  0  0  0  0  0
   29.0156   38.2564   19.4722 C   0  0  2  0  0  0  0  0  0  0  0  0
   28.0983   39.4449   19.8032 C   0  0  0  0  0  0  0  0  0  0  0  0
   28.3361   40.5792   18.9087 N   0  0  0  0  0  0  0  0  0  0  0  0
   28.0203   40.1773   17.5285 C   0  0  0  0  0  0  0  0  0  0  0  0
   28.9417   39.0656   17.0668 C   0  0  0  0  0  0  0  0  0  0  0  0
   28.8519   37.8618   17.9945 C   0  0  0  0  0  0  0  0  0  0  0  0
   27.0809   37.3062   23.6910 C   0  0  0  0  0  0  0  0  0  0  0  0
   26.1476   36.4707   24.8767 S   0  0  0  0  0  0  0  0  0  0  0  0
   26.2430   37.7570   25.9479 C   0  0  0  0  0  0  0  0  0  0  0  0
   26.9860   38.7591   25.4615 C   0  0  0  0  0  0  0  0  0  0  0  0
   27.4704   38.5213   24.1605 C   0  0  0  0  0  0  0  0  0  0  0  0
   27.5425   41.7597   19.2932 C   0  0  0  0  0  0  0  0  0  0  0  0
   27.8935   42.3789   20.6276 C   0  0  0  0  0  0  0  0  0  0  0  0
   29.2109   42.6518   20.9662 C   0  0  0  0  0  0  0  0  0  0  0  0
   29.6440   42.8584   22.2231 N   0  0  0  0  0  0  0  0  0  0  0  0
   28.7029   42.7418   23.1479 C   0  0  0  0  0  0  0  0  0  0  0  0
   27.4227   42.4482   22.9860 N   0  0  0  0  0  0  0  0  0  0  0  0
   27.0519   42.2473   21.7129 C   0  0  0  0  0  0  0  0  0  0  0  0
   29.1392   42.9391   24.3973 O   0  0  0  0  0  0  0  0  0  0  0  0
   28.1594   43.2264   25.4019 C   0  0  0  0  0  0  0  0  0  0  0  0
  1  2  2  0  0  0  0
  1  6  1  0  0  0  0
  2  3  1  0  0  0  0
  3  4  2  0  0  0  0
  4 14  1  0  0  0  0
  5  4  1  0  0  0  0
  6  5  1  0  0  0  0
  7  6  2  0  0  0  0
  8  9  1  0  0  0  0
  8  2  1  1  0  0  0
 10 19  1  0  0  0  0
 10  9  1  0  0  0  0
 11 10  1  0  0  0  0
 12 11  1  0  0  0  0
 12 13  1  0  0  0  0
 13  8  1  0  0  0  0
 14 15  1  0  0  0  0
 14 18  2  0  0  0  0
 15 16  1  0  0  0  0
 16 17  2  0  0  0  0
 18 17  1  0  0  0  0
 19 20  1  0  0  0  0
 20 25  2  0  0  0  0
 20 21  1  0  0  0  0
 21 22  2  0  0  0  0
 22 23  1  0  0  0  0
 23 26  1  0  0  0  0
 24 23  2  0  0  0  0
 25 24  1  0  0  0  0
 26 27  1  0  0  0  0
M  END
>  <CHROM.1>
174.84438498,132.12162298,65.53969905,48.26250699,161.87754962,27.84137128
39.11440522,21.72436658,-2.16559979,1.29611578,0.73769500

>  <Name>
lig.pdb

>  <RI>
0

>  <Rbt.Current_Directory>
/home/itssahil/PROJECTS/Mol_Feturizer/New_Systems/rnas/5kx9

>  <Rbt.Executable>
rbdock ($Id: //depot/dev/client3/rdock/2013.1/src/exe/rbdock.cxx#4 $)

>  <Rbt.Library>
libRbt.so (2013.1, Build901 2013/11/27)

>  <Rbt.Parameter_File>
/export/apps/rDock/src/rDock_2013.1_src/data/scripts/dock_solv.prm

>  <Rbt.Receptor>
prm/pocket_docking_5.prm

>  <SCORE>
-38.6534

>  <SCORE.INTER>
-35.7757

>  <SCORE.INTER.CONST>
1

>  <SCORE.INTER.POLAR>
0

>  <SCORE.INTER.ROT>
5

>  <SCORE.INTER.SOLV>
15.1251

>  <SCORE.INTER.VDW>
-35.8255

>  <SCORE.INTER.norm>
-1.32503

>  <SCORE.INTRA>
-2.88085

>  <SCORE.INTRA.DIHEDRAL>
-0.0874793

>  <SCORE.INTRA.DIHEDRAL.0>
2.68224

>  <SCORE.INTRA.POLAR>
0

>  <SCORE.INTRA.POLAR.0>
0

>  <SCORE.INTRA.REPUL>
0

>  <SCORE.INTRA.REPUL.0>
0

>  <SCORE.INTRA.SOLV>
-0.343243

>  <SCORE.INTRA.SOLV.lig_0>
-19.4148

>  <SCORE.INTRA.VDW>
-2.66549

>  <SCORE.INTRA.VDW.0>
5.42093

>  <SCORE.INTRA.norm>
-0.106698

>  <SCORE.RESTR>
0.00318202

>  <SCORE.RESTR.CAVITY>
0.00318202

>  <SCORE.RESTR.norm>
0.000117852

>  <SCORE.SYSTEM>
0

>  <SCORE.SYSTEM.CONST>
0

>  <SCORE.SYSTEM.DIHEDRAL>
0

>  <SCORE.SYSTEM.SOLV>
0

>  <SCORE.SYSTEM.norm>
0

>  <SCORE.heavy>
27

>  <SCORE.norm>
-1.43161

>  <RMSD>
0.710

$$$$
lig.pdb
 OpenBabel11021811523D
libRbt.so/2013.1/901 2013/11/27
 27 30  0  0  0  0  0  0  0  0999 V2000
   27.9501   35.4940   20.0450 N   0  0  0  0  0  0  0  0  0  0  0  0
   28.0774   36.7474   20.4042 C   0  0  0  0  0  0  0  0  0  0  0  0
   27.6985   37.2523   21.6052 N   0  0  0  0  0  0  0  0  0  0  0  0
   27.1877   36.3986   22.5420 C   0  0  0  0  0  0  0  0  0  0  0  0
   27.0455   35.0694   22.2636 C   0  0  0  0  0  0  0  0  0  0  0  0
   27.4228   34.5820   20.9583 C   0  0  0  0  0  0  0  0  0  0  0  0
   27.2746   33.4027   20.6143 O   0  0  0  0  0  0  0  0  0  0  0  0
   28.5135   37.8556   19.4207 C   0  0  2  0  0  0  0  0  0  0  0  0
   27.6449   39.0419   19.8699 C   0  0  0  0  0  0  0  0  0  0  0  0
   27.7075   40.1515   18.9169 N   0  0  0  0  0  0  0  0  0  0  0  0
   27.1693   39.7042   17.6221 C   0  0  0  0  0  0  0  0  0  0  0  0
   28.0185   38.5907   17.0415 C   0  0  0  0  0  0  0  0  0  0  0  0
   28.1085   37.4145   18.0039 C   0  0  0  0  0  0  0  0  0  0  0  0
   26.8664   37.0721   23.7931 C   0  0  0  0  0  0  0  0  0  0  0  0
   27.3093   38.7155   24.0728 S   0  0  0  0  0  0  0  0  0  0  0  0
   26.6539   38.6943   25.6158 C   0  0  0  0  0  0  0  0  0  0  0  0
   26.0795   37.5184   25.8994 C   0  0  0  0  0  0  0  0  0  0  0  0
   26.1986   36.5694   24.8654 C   0  0  0  0  0  0  0  0  0  0  0  0
   26.9700   41.3330   19.3979 C   0  0  0  0  0  0  0  0  0  0  0  0
   27.6610   42.1447   20.4709 C   0  0  0  0  0  0  0  0  0  0  0  0
   29.0348   42.3365   20.4507 C   0  0  0  0  0  0  0  0  0  0  0  0
   29.7626   42.7221   21.5144 N   0  0  0  0  0  0  0  0  0  0  0  0
   29.0602   42.8736   22.6272 C   0  0  0  0  0  0  0  0  0  0  0  0
   27.7627   42.6898   22.8121 N   0  0  0  0  0  0  0  0  0  0  0  0
   27.0918   42.3005   21.7180 C   0  0  0  0  0  0  0  0  0  0  0  0
   29.7888   43.2484   23.6849 O   0  0  0  0  0  0  0  0  0  0  0  0
   29.4493   42.6816   24.9557 C   0  0  0  0  0  0  0  0  0  0  0  0
  1  2  2  0  0  0  0
  1  6  1  0  0  0  0
  2  3  1  0  0  0  0
  3  4  2  0  0  0  0
  4 14  1  0  0  0  0
  5  4  1  0  0  0  0
  6  5  1  0  0  0  0
  7  6  2  0  0  0  0
  8  9  1  0  0  0  0
  8  2  1  1  0  0  0
 10 19  1  0  0  0  0
 10  9  1  0  0  0  0
 11 10  1  0  0  0  0
 12 11  1  0  0  0  0
 12 13  1  0  0  0  0
 13  8  1  0  0  0  0
 14 15  1  0  0  0  0
 14 18  2  0  0  0  0
 15 16  1  0  0  0  0
 16 17  2  0  0  0  0
 18 17  1  0  0  0  0
 19 20  1  0  0  0  0
 20 25  2  0  0  0  0
 20 21  1  0  0  0  0
 21 22  2  0  0  0  0
 22 23  1  0  0  0  0
 23 26  1  0  0  0  0
 24 23  2  0  0  0  0
 25 24  1  0  0  0  0
 26 27  1  0  0  0  0
M  END
>  <CHROM.1>
-7.86552959,142.24703585,76.33965452,37.39845618,-141.92222119,27.75997905
38.99336971,21.62896180,-2.55918768,1.34630030,1.16100831

>  <Name>
lig.pdb

>  <RI>
0

>  <Rbt.Current_Directory>
/home/itssahil/PROJECTS/Mol_Feturizer/New_Systems/rnas/5kx9

>  <Rbt.Executable>
rbdock ($Id: //depot/dev/client3/rdock/2013.1/src/exe/rbdock.cxx#4 $)

>  <Rbt.Library>
libRbt.so (2013.1, Build901 2013/11/27)

>  <Rbt.Parameter_File>
/export/apps/rDock/src/rDock_2013.1_src/data/scripts/dock_solv.prm

>  <Rbt.Receptor>
prm/pocket_docking_2.prm

>  <SCORE>
-38.8982

>  <SCORE.INTER>
-36.8243

>  <SCORE.INTER.CONST>
1

>  <SCORE.INTER.POLAR>
0

>  <SCORE.INTER.ROT>
5

>  <SCORE.INTER.SOLV>
15.9676

>  <SCORE.INTER.VDW>
-36.8054

>  <SCORE.INTER.norm>
-1.36386

>  <SCORE.INTRA>
-2.07387

>  <SCORE.INTRA.DIHEDRAL>
1.58071

>  <SCORE.INTRA.DIHEDRAL.0>
2.68224

>  <SCORE.INTRA.POLAR>
0

>  <SCORE.INTRA.POLAR.0>
0

>  <SCORE.INTRA.REPUL>
0

>  <SCORE.INTRA.REPUL.0>
0

>  <SCORE.INTRA.SOLV>
-0.270054

>  <SCORE.INTRA.SOLV.lig_0>
-19.4148

>  <SCORE.INTRA.VDW>
-2.72919

>  <SCORE.INTRA.VDW.0>
5.42093

>  <SCORE.INTRA.norm>
-0.0768099

>  <SCORE.RESTR>
0

>  <SCORE.RESTR.CAVITY>
0

>  <SCORE.RESTR.norm>
0

>  <SCORE.SYSTEM>
0

>  <SCORE.SYSTEM.CONST>
0

>  <SCORE.SYSTEM.DIHEDRAL>
0

>  <SCORE.SYSTEM.SOLV>
0

>  <SCORE.SYSTEM.norm>
0

>  <SCORE.heavy>
27

>  <SCORE.norm>
-1.44067

>  <RMSD>
0.716

$$$$
lig.pdb
 OpenBabel11021811523D
libRbt.so/2013.1/901 2013/11/27
 27 30  0  0  0  0  0  0  0  0999 V2000
   27.6167   35.8989   19.7403 N   0  0  0  0  0  0  0  0  0  0  0  0
   27.8489   37.1404   20.0881 C   0  0  0  0  0  0  0  0  0  0  0  0
   27.7072   37.6333   21.3442 N   0  0  0  0  0  0  0  0  0  0  0  0
   27.3421   36.7780   22.3453 C   0  0  0  0  0  0  0  0  0  0  0  0
   27.1071   35.4596   22.0787 C   0  0  0  0  0  0  0  0  0  0  0  0
   27.2292   34.9862   20.7205 C   0  0  0  0  0  0  0  0  0  0  0  0
   26.9817   33.8191   20.3924 O   0  0  0  0  0  0  0  0  0  0  0  0
   28.1409   38.2534   19.0578 C   0  0  2  0  0  0  0  0  0  0  0  0
   27.4281   39.4635   19.6833 C   0  0  0  0  0  0  0  0  0  0  0  0
   27.3598   40.5927   18.7541 N   0  0  0  0  0  0  0  0  0  0  0  0
   26.5662   40.2003   17.5783 C   0  0  0  0  0  0  0  0  0  0  0  0
   27.2384   39.0670   16.8285 C   0  0  0  0  0  0  0  0  0  0  0  0
   27.4552   37.8647   17.7369 C   0  0  0  0  0  0  0  0  0  0  0  0
   27.2718   37.4367   23.6428 C   0  0  0  0  0  0  0  0  0  0  0  0
   26.6943   36.6121   25.0433 S   0  0  0  0  0  0  0  0  0  0  0  0
   26.8950   37.9722   26.0029 C   0  0  0  0  0  0  0  0  0  0  0  0
   27.4207   38.9952   25.3172 C   0  0  0  0  0  0  0  0  0  0  0  0
   27.6372   38.7084   23.9553 C   0  0  0  0  0  0  0  0  0  0  0  0
   26.7814   41.7917   19.3859 C   0  0  0  0  0  0  0  0  0  0  0  0
   27.5223   42.3171   20.5952 C   0  0  0  0  0  0  0  0  0  0  0  0
   28.9036   42.4464   20.5885 C   0  0  0  0  0  0  0  0  0  0  0  0
   29.6605   42.5568   21.6953 N   0  0  0  0  0  0  0  0  0  0  0  0
   28.9780   42.4930   22.8287 C   0  0  0  0  0  0  0  0  0  0  0  0
   27.6752   42.3320   22.9962 N   0  0  0  0  0  0  0  0  0  0  0  0
   26.9746   42.2220   21.8578 C   0  0  0  0  0  0  0  0  0  0  0  0
   29.7351   42.5942   23.9272 O   0  0  0  0  0  0  0  0  0  0  0  0
   29.1746   43.2750   25.0559 C   0  0  0  0  0  0  0  0  0  0  0  0
  1  2  2  0  0  0  0
  1  6  1  0  0  0  0
  2  3  1  0  0  0  0
  3  4  2  0  0  0  0
  4 14  1  0  0  0  0
  5  4  1  0  0  0  0
  6  5  1  0  0  0  0
  7  6  2  0  0  0  0
  8  9  1  0  0  0  0
  8  2  1  1  0  0  0
 10 19  1  0  0  0  0
 10  9  1  0  0  0  0
 11 10  1  0  0  0  0
 12 11  1  0  0  0  0
 12 13  1  0  0  0  0
 13  8  1  0  0  0  0
 14 15  1  0  0  0  0
 14 18  2  0  0  0  0
 15 16  1  0  0  0  0
 16 17  2  0  0  0  0
 18 17  1  0  0  0  0
 19 20  1  0  0  0  0
 20 25  2  0  0  0  0
 20 21  1  0  0  0  0
 21 22  2  0  0  0  0
 22 23  1  0  0  0  0
 23 26  1  0  0  0  0
 24 23  2  0  0  0  0
 25 24  1  0  0  0  0
 26 27  1  0  0  0  0
M  END
>  <CHROM.1>
174.30546694,143.20062063,59.49034622,45.53753278,145.17215342,27.64364689
39.10963383,21.60998582,-3.13883904,1.37026467,1.80661063

>  <Name>
lig.pdb

>  <RI>
0

>  <Rbt.Current_Directory>
/home/itssahil/PROJECTS/Mol_Feturizer/New_Systems/rnas/5kx9

>  <Rbt.Executable>
rbdock ($Id: //depot/dev/client3/rdock/2013.1/src/exe/rbdock.cxx#4 $)

>  <Rbt.Library>
libRbt.so (2013.1, Build901 2013/11/27)

>  <Rbt.Parameter_File>
/export/apps/rDock/src/rDock_2013.1_src/data/scripts/dock_solv.prm

>  <Rbt.Receptor>
prm/pocket_docking_4.prm

>  <SCORE>
-37.1574

>  <SCORE.INTER>
-35.214

>  <SCORE.INTER.CONST>
1

>  <SCORE.INTER.POLAR>
0

>  <SCORE.INTER.ROT>
5

>  <SCORE.INTER.SOLV>
13.7184

>  <SCORE.INTER.VDW>
-34.9821

>  <SCORE.INTER.norm>
-1.30422

>  <SCORE.INTRA>
-1.94342

>  <SCORE.INTRA.DIHEDRAL>
0.976138

>  <SCORE.INTRA.DIHEDRAL.0>
2.68224

>  <SCORE.INTRA.POLAR>
0

>  <SCORE.INTRA.POLAR.0>
0

>  <SCORE.INTRA.REPUL>
0

>  <SCORE.INTRA.REPUL.0>
0

>  <SCORE.INTRA.SOLV>
-0.170945

>  <SCORE.INTRA.SOLV.lig_0>
-19.4148

>  <SCORE.INTRA.VDW>
-2.34602

>  <SCORE.INTRA.VDW.0>
5.42093

>  <SCORE.INTRA.norm>
-0.0719786

>  <SCORE.RESTR>
0

>  <SCORE.RESTR.CAVITY>
0

>  <SCORE.RESTR.norm>
0

>  <SCORE.SYSTEM>
0

>  <SCORE.SYSTEM.CONST>
0

>  <SCORE.SYSTEM.DIHEDRAL>
0

>  <SCORE.SYSTEM.SOLV>
0

>  <SCORE.SYSTEM.norm>
0

>  <SCORE.heavy>
27

>  <SCORE.norm>
-1.3762

>  <RMSD>
0.719

$$$$
lig.pdb
 OpenBabel11021811523D
libRbt.so/2013.1/901 2013/11/27
 27 30  0  0  0  0  0  0  0  0999 V2000
   27.9516   35.9840   19.7993 N   0  0  0  0  0  0  0  0  0  0  0  0
   28.3349   37.1595   20.2321 C   0  0  0  0  0  0  0  0  0  0  0  0
   28.0632   37.6587   21.4642 N   0  0  0  0  0  0  0  0  0  0  0  0
   27.3816   36.8748   22.3519 C   0  0  0  0  0  0  0  0  0  0  0  0
   26.9676   35.6234   21.9953 C   0  0  0  0  0  0  0  0  0  0  0  0
   27.2417   35.1480   20.6602 C   0  0  0  0  0  0  0  0  0  0  0  0
   26.8533   34.0482   20.2472 O   0  0  0  0  0  0  0  0  0  0  0  0
   28.9966   38.2103   19.3136 C   0  0  2  0  0  0  0  0  0  0  0  0
   28.3838   39.5209   19.8335 C   0  0  0  0  0  0  0  0  0  0  0  0
   28.6799   40.6474   18.9466 N   0  0  0  0  0  0  0  0  0  0  0  0
   28.0738   40.3945   17.6295 C   0  0  0  0  0  0  0  0  0  0  0  0
   28.6836   39.1665   16.9827 C   0  0  0  0  0  0  0  0  0  0  0  0
   28.5233   37.9433   17.8747 C   0  0  0  0  0  0  0  0  0  0  0  0
   27.2012   37.5236   23.6437 C   0  0  0  0  0  0  0  0  0  0  0  0
   26.4254   36.7187   24.9573 S   0  0  0  0  0  0  0  0  0  0  0  0
   26.5901   38.0560   25.9550 C   0  0  0  0  0  0  0  0  0  0  0  0
   27.2445   39.0548   25.3491 C   0  0  0  0  0  0  0  0  0  0  0  0
   27.5975   38.7699   24.0156 C   0  0  0  0  0  0  0  0  0  0  0  0
   28.1942   41.9248   19.4977 C   0  0  0  0  0  0  0  0  0  0  0  0
   28.0623   41.9810   21.0033 C   0  0  0  0  0  0  0  0  0  0  0  0
   26.8221   41.8863   21.6177 C   0  0  0  0  0  0  0  0  0  0  0  0
   26.5698   42.2739   22.8810 N   0  0  0  0  0  0  0  0  0  0  0  0
   27.6111   42.8042   23.5048 C   0  0  0  0  0  0  0  0  0  0  0  0
   28.8357   42.9978   23.0420 N   0  0  0  0  0  0  0  0  0  0  0  0
   29.0248   42.5974   21.7760 C   0  0  0  0  0  0  0  0  0  0  0  0
   27.3540   43.1966   24.7578 O   0  0  0  0  0  0  0  0  0  0  0  0
   28.3916   43.0250   25.7302 C   0  0  0  0  0  0  0  0  0  0  0  0
  1  2  2  0  0  0  0
  1  6  1  0  0  0  0
  2  3  1  0  0  0  0
  3  4  2  0  0  0  0
  4 14  1  0  0  0  0
  5  4  1  0  0  0  0
  6  5  1  0  0  0  0
  7  6  2  0  0  0  0
  8  9  1  0  0  0  0
  8  2  1  1  0  0  0
 10 19  1  0  0  0  0
 10  9  1  0  0  0  0
 11 10  1  0  0  0  0
 12 11  1  0  0  0  0
 12 13  1  0  0  0  0
 13  8  1  0  0  0  0
 14 15  1  0  0  0  0
 14 18  2  0  0  0  0
 15 16  1  0  0  0  0
 16 17  2  0  0  0  0
 18 17  1  0  0  0  0
 19 20  1  0  0  0  0
 20 25  2  0  0  0  0
 20 21  1  0  0  0  0
 21 22  2  0  0  0  0
 22 23  1  0  0  0  0
 23 26  1  0  0  0  0
 24 23  2  0  0  0  0
 25 24  1  0  0  0  0
 26 27  1  0  0  0  0
M  END
>  <CHROM.1>
-177.57975194,141.86606384,25.57022821,-103.28947092,143.72283453,27.71638094
39.19990170,21.81463568,1.59693066,-1.32275338,-2.53738408

>  <Name>
lig.pdb

>  <RI>
0

>  <Rbt.Current_Directory>
/home/itssahil/PROJECTS/Mol_Feturizer/New_Systems/rnas/5kx9

>  <Rbt.Executable>
rbdock ($Id: //depot/dev/client3/rdock/2013.1/src/exe/rbdock.cxx#4 $)

>  <Rbt.Library>
libRbt.so (2013.1, Build901 2013/11/27)

>  <Rbt.Parameter_File>
/export/apps/rDock/src/rDock_2013.1_src/data/scripts/dock_solv.prm

>  <Rbt.Receptor>
prm/pocket_docking_7.prm

>  <SCORE>
-36.0355

>  <SCORE.INTER>
-35.4382

>  <SCORE.INTER.CONST>
1

>  <SCORE.INTER.POLAR>
0

>  <SCORE.INTER.ROT>
5

>  <SCORE.INTER.SOLV>
13.914

>  <SCORE.INTER.VDW>
-35.1968

>  <SCORE.INTER.norm>
-1.31253

>  <SCORE.INTRA>
-0.59732

>  <SCORE.INTRA.DIHEDRAL>
1.99513

>  <SCORE.INTRA.DIHEDRAL.0>
2.68224

>  <SCORE.INTRA.POLAR>
0

>  <SCORE.INTRA.POLAR.0>
0

>  <SCORE.INTRA.REPUL>
0

>  <SCORE.INTRA.REPUL.0>
0

>  <SCORE.INTRA.SOLV>
-0.34635

>  <SCORE.INTRA.SOLV.lig_0>
-19.4148

>  <SCORE.INTRA.VDW>
-1.42171

>  <SCORE.INTRA.VDW.0>
5.42093

>  <SCORE.INTRA.norm>
-0.022123

>  <SCORE.RESTR>
0

>  <SCORE.RESTR.CAVITY>
0

>  <SCORE.RESTR.norm>
0

>  <SCORE.SYSTEM>
0

>  <SCORE.SYSTEM.CONST>
0

>  <SCORE.SYSTEM.DIHEDRAL>
0

>  <SCORE.SYSTEM.SOLV>
0

>  <SCORE.SYSTEM.norm>
0

>  <SCORE.heavy>
27

>  <SCORE.norm>
-1.33465

>  <RMSD>
0.728

$$$$
lig.pdb
 OpenBabel11021811523D
libRbt.so/2013.1/901 2013/11/27
 27 30  0  0  0  0  0  0  0  0999 V2000
   28.1255   35.8066   19.9251 N   0  0  0  0  0  0  0  0  0  0  0  0
   28.3840   37.0143   20.3619 C   0  0  0  0  0  0  0  0  0  0  0  0
   28.0129   37.4964   21.5747 N   0  0  0  0  0  0  0  0  0  0  0  0
   27.3621   36.6619   22.4391 C   0  0  0  0  0  0  0  0  0  0  0  0
   27.0761   35.3765   22.0779 C   0  0  0  0  0  0  0  0  0  0  0  0
   27.4523   34.9176   20.7620 C   0  0  0  0  0  0  0  0  0  0  0  0
   27.1812   33.7851   20.3440 O   0  0  0  0  0  0  0  0  0  0  0  0
   28.9931   38.1127   19.4629 C   0  0  2  0  0  0  0  0  0  0  0  0
   28.0023   39.2719   19.6580 C   0  0  0  0  0  0  0  0  0  0  0  0
   28.2412   40.3560   18.7037 N   0  0  0  0  0  0  0  0  0  0  0  0
   28.0303   39.8495   17.3380 C   0  0  0  0  0  0  0  0  0  0  0  0
   29.0297   38.7584   17.0078 C   0  0  0  0  0  0  0  0  0  0  0  0
   28.9396   37.6148   18.0085 C   0  0  0  0  0  0  0  0  0  0  0  0
   27.0659   37.3015   23.7140 C   0  0  0  0  0  0  0  0  0  0  0  0
   26.1281   36.5085   24.9251 S   0  0  0  0  0  0  0  0  0  0  0  0
   26.2289   37.8277   25.9549 C   0  0  0  0  0  0  0  0  0  0  0  0
   26.9768   38.8104   25.4374 C   0  0  0  0  0  0  0  0  0  0  0  0
   27.4608   38.5290   24.1449 C   0  0  0  0  0  0  0  0  0  0  0  0
   27.3708   41.5171   18.9599 C   0  0  0  0  0  0  0  0  0  0  0  0
   27.6260   42.2541   20.2557 C   0  0  0  0  0  0  0  0  0  0  0  0
   28.9160   42.5642   20.6612 C   0  0  0  0  0  0  0  0  0  0  0  0
   29.2585   42.8838   21.9224 N   0  0  0  0  0  0  0  0  0  0  0  0
   28.2540   42.8435   22.7849 C   0  0  0  0  0  0  0  0  0  0  0  0
   26.9885   42.5287   22.5593 N   0  0  0  0  0  0  0  0  0  0  0  0
   26.7093   42.2137   21.2859 C   0  0  0  0  0  0  0  0  0  0  0  0
   28.6003   43.1533   24.0396 O   0  0  0  0  0  0  0  0  0  0  0  0
   29.3811   42.1965   24.7652 C   0  0  0  0  0  0  0  0  0  0  0  0
  1  2  2  0  0  0  0
  1  6  1  0  0  0  0
  2  3  1  0  0  0  0
  3  4  2  0  0  0  0
  4 14  1  0  0  0  0
  5  4  1  0  0  0  0
  6  5  1  0  0  0  0
  7  6  2  0  0  0  0
  8  9  1  0  0  0  0
  8  2  1  1  0  0  0
 10 19  1  0  0  0  0
 10  9  1  0  0  0  0
 11 10  1  0  0  0  0
 12 11  1  0  0  0  0
 12 13  1  0  0  0  0
 13  8  1  0  0  0  0
 14 15  1  0  0  0  0
 14 18  2  0  0  0  0
 15 16  1  0  0  0  0
 16 17  2  0  0  0  0
 18 17  1  0  0  0  0
 19 20  1  0  0  0  0
 20 25  2  0  0  0  0
 20 21  1  0  0  0  0
 21 22  2  0  0  0  0
 22 23  1  0  0  0  0
 23 26  1  0  0  0  0
 24 23  2  0  0  0  0
 25 24  1  0  0  0  0
 26 27  1  0  0  0  0
M  END
>  <CHROM.1>
174.53010234,127.20317069,66.59878342,44.97651722,-71.93758649,27.77754307
39.00606036,21.59694337,-2.29709641,1.32544319,0.64428622

>  <Name>
lig.pdb

>  <RI>
0

>  <Rbt.Current_Directory>
/home/itssahil/PROJECTS/Mol_Feturizer/New_Systems/rnas/5kx9

>  <Rbt.Executable>
rbdock ($Id: //depot/dev/client3/rdock/2013.1/src/exe/rbdock.cxx#4 $)

>  <Rbt.Library>
libRbt.so (2013.1, Build901 2013/11/27)

>  <Rbt.Parameter_File>
/export/apps/rDock/src/rDock_2013.1_src/data/scripts/dock_solv.prm

>  <Rbt.Receptor>
prm/pocket_docking_3.prm

>  <SCORE>
-38.0196

>  <SCORE.INTER>
-34.625

>  <SCORE.INTER.CONST>
1

>  <SCORE.INTER.POLAR>
0

>  <SCORE.INTER.ROT>
5

>  <SCORE.INTER.SOLV>
15.6863

>  <SCORE.INTER.VDW>
-35.2454

>  <SCORE.INTER.norm>
-1.28241

>  <SCORE.INTRA>
-3.39458

>  <SCORE.INTRA.DIHEDRAL>
3.70981

>  <SCORE.INTRA.DIHEDRAL.0>
2.68224

>  <SCORE.INTRA.POLAR>
0

>  <SCORE.INTRA.POLAR.0>
0

>  <SCORE.INTRA.REPUL>
0

>  <SCORE.INTRA.REPUL.0>
0

>  <SCORE.INTRA.SOLV>
-0.421706

>  <SCORE.INTRA.SOLV.lig_0>
-19.4148

>  <SCORE.INTRA.VDW>
-5.03863

>  <SCORE.INTRA.VDW.0>
5.42093

>  <SCORE.INTRA.norm>
-0.125725

>  <SCORE.RESTR>
0

>  <SCORE.RESTR.CAVITY>
0

>  <SCORE.RESTR.norm>
0

>  <SCORE.SYSTEM>
0

>  <SCORE.SYSTEM.CONST>
0

>  <SCORE.SYSTEM.DIHEDRAL>
0

>  <SCORE.SYSTEM.SOLV>
0

>  <SCORE.SYSTEM.norm>
0

>  <SCORE.heavy>
27

>  <SCORE.norm>
-1.40813

>  <RMSD>
0.736

$$$$
lig.pdb
 OpenBabel11021811523D
libRbt.so/2013.1/901 2013/11/27
 27 30  0  0  0  0  0  0  0  0999 V2000
   27.9614   35.6308   20.0909 N   0  0  0  0  0  0  0  0  0  0  0  0
   28.1996   36.8693   20.4455 C   0  0  0  0  0  0  0  0  0  0  0  0
   27.8650   37.4110   21.6437 N   0  0  0  0  0  0  0  0  0  0  0  0
   27.2781   36.6102   22.5826 C   0  0  0  0  0  0  0  0  0  0  0  0
   27.0181   35.2980   22.3090 C   0  0  0  0  0  0  0  0  0  0  0  0
   27.3528   34.7734   21.0065 C   0  0  0  0  0  0  0  0  0  0  0  0
   27.1004   33.6107   20.6669 O   0  0  0  0  0  0  0  0  0  0  0  0
   28.7349   37.9300   19.4587 C   0  0  2  0  0  0  0  0  0  0  0  0
   27.8058   39.1230   19.7362 C   0  0  0  0  0  0  0  0  0  0  0  0
   27.9667   40.1800   18.7361 N   0  0  0  0  0  0  0  0  0  0  0  0
   27.5894   39.6530   17.4147 C   0  0  0  0  0  0  0  0  0  0  0  0
   28.5139   38.5251   17.0005 C   0  0  0  0  0  0  0  0  0  0  0  0
   28.5042   37.4050   18.0314 C   0  0  0  0  0  0  0  0  0  0  0  0
   27.0159   37.3150   23.8303 C   0  0  0  0  0  0  0  0  0  0  0  0
   26.0447   36.6177   25.0736 S   0  0  0  0  0  0  0  0  0  0  0  0
   26.2105   37.9718   26.0481 C   0  0  0  0  0  0  0  0  0  0  0  0
   27.0028   38.8959   25.4902 C   0  0  0  0  0  0  0  0  0  0  0  0
   27.4696   38.5391   24.2100 C   0  0  0  0  0  0  0  0  0  0  0  0
   27.1641   41.3723   19.0607 C   0  0  0  0  0  0  0  0  0  0  0  0
   27.6335   42.1730   20.2548 C   0  0  0  0  0  0  0  0  0  0  0  0
   28.9758   42.4765   20.4308 C   0  0  0  0  0  0  0  0  0  0  0  0
   29.5204   42.8568   21.6007 N   0  0  0  0  0  0  0  0  0  0  0  0
   28.6671   42.8854   22.6134 C   0  0  0  0  0  0  0  0  0  0  0  0
   27.3779   42.5863   22.6112 N   0  0  0  0  0  0  0  0  0  0  0  0
   26.8938   42.2087   21.4188 C   0  0  0  0  0  0  0  0  0  0  0  0
   29.2143   43.2553   23.7769 O   0  0  0  0  0  0  0  0  0  0  0  0
   28.7502   42.6008   24.9634 C   0  0  0  0  0  0  0  0  0  0  0  0
  1  2  2  0  0  0  0
  1  6  1  0  0  0  0
  2  3  1  0  0  0  0
  3  4  2  0  0  0  0
  4 14  1  0  0  0  0
  5  4  1  0  0  0  0
  6  5  1  0  0  0  0
  7  6  2  0  0  0  0
  8  9  1  0  0  0  0
  8  2  1  1  0  0  0
 10 19  1  0  0  0  0
 10  9  1  0  0  0  0
 11 10  1  0  0  0  0
 12 11  1  0  0  0  0
 12 13  1  0  0  0  0
 13  8  1  0  0  0  0
 14 15  1  0  0  0  0
 14 18  2  0  0  0  0
 15 16  1  0  0  0  0
 16 17  2  0  0  0  0
 18 17  1  0  0  0  0
 19 20  1  0  0  0  0
 20 25  2  0  0  0  0
 20 21  1  0  0  0  0
 21 22  2  0  0  0  0
 22 23  1  0  0  0  0
 23 26  1  0  0  0  0
 24 23  2  0  0  0  0
 25 24  1  0  0  0  0
 26 27  1  0  0  0  0
M  END
>  <CHROM.1>
169.37082955,132.86294027,70.07105357,45.00788047,-142.66808424,27.70281833
38.96347956,21.65463189,-2.45664526,1.33329781,0.83354566

>  <Name>
lig.pdb

>  <RI>
0

>  <Rbt.Current_Directory>
/home/itssahil/PROJECTS/Mol_Feturizer/New_Systems/rnas/5kx9

>  <Rbt.Executable>
rbdock ($Id: //depot/dev/client3/rdock/2013.1/src/exe/rbdock.cxx#4 $)

>  <Rbt.Library>
libRbt.so (2013.1, Build901 2013/11/27)

>  <Rbt.Parameter_File>
/export/apps/rDock/src/rDock_2013.1_src/data/scripts/dock_solv.prm

>  <Rbt.Receptor>
prm/pocket_docking_2.prm

>  <SCORE>
-38.5703

>  <SCORE.INTER>
-35.6254

>  <SCORE.INTER.CONST>
1

>  <SCORE.INTER.POLAR>
0

>  <SCORE.INTER.ROT>
5

>  <SCORE.INTER.SOLV>
16.1089

>  <SCORE.INTER.VDW>
-36.0532

>  <SCORE.INTER.norm>
-1.31946

>  <SCORE.INTRA>
-2.94493

>  <SCORE.INTRA.DIHEDRAL>
1.55896

>  <SCORE.INTRA.DIHEDRAL.0>
2.68224

>  <SCORE.INTRA.POLAR>
0

>  <SCORE.INTRA.POLAR.0>
0

>  <SCORE.INTRA.REPUL>
0

>  <SCORE.INTRA.REPUL.0>
0

>  <SCORE.INTRA.SOLV>
-0.43225

>  <SCORE.INTRA.SOLV.lig_0>
-19.4148

>  <SCORE.INTRA.VDW>
-3.50829

>  <SCORE.INTRA.VDW.0>
5.42093

>  <SCORE.INTRA.norm>
-0.109072

>  <SCORE.RESTR>
0

>  <SCORE.RESTR.CAVITY>
0

>  <SCORE.RESTR.norm>
0

>  <SCORE.SYSTEM>
0

>  <SCORE.SYSTEM.CONST>
0

>  <SCORE.SYSTEM.DIHEDRAL>
0

>  <SCORE.SYSTEM.SOLV>
0

>  <SCORE.SYSTEM.norm>
0

>  <SCORE.heavy>
27

>  <SCORE.norm>
-1.42853

>  <RMSD>
0.757

$$$$
lig.pdb
 OpenBabel11021811523D
libRbt.so/2013.1/901 2013/11/27
 27 30  0  0  0  0  0  0  0  0999 V2000
   27.9098   35.4437   20.0178 N   0  0  0  0  0  0  0  0  0  0  0  0
   28.0987   36.6842   20.3941 C   0  0  0  0  0  0  0  0  0  0  0  0
   27.7236   37.1965   21.5932 N   0  0  0  0  0  0  0  0  0  0  0  0
   27.1473   36.3626   22.5095 C   0  0  0  0  0  0  0  0  0  0  0  0
   26.9377   35.0464   22.2127 C   0  0  0  0  0  0  0  0  0  0  0  0
   27.3142   34.5527   20.9096 C   0  0  0  0  0  0  0  0  0  0  0  0
   27.1082   33.3872   20.5489 O   0  0  0  0  0  0  0  0  0  0  0  0
   28.6155   37.7769   19.4326 C   0  0  2  0  0  0  0  0  0  0  0  0
   27.5924   38.9038   19.6495 C   0  0  0  0  0  0  0  0  0  0  0  0
   27.7372   39.9670   18.6536 N   0  0  0  0  0  0  0  0  0  0  0  0
   27.4729   39.4121   17.3162 C   0  0  0  0  0  0  0  0  0  0  0  0
   28.4946   38.3496   16.9622 C   0  0  0  0  0  0  0  0  0  0  0  0
   28.5029   37.2339   17.9979 C   0  0  0  0  0  0  0  0  0  0  0  0
   26.8380   37.0396   23.7618 C   0  0  0  0  0  0  0  0  0  0  0  0
   27.2681   38.6889   24.0261 S   0  0  0  0  0  0  0  0  0  0  0  0
   26.6363   38.6694   25.5789 C   0  0  0  0  0  0  0  0  0  0  0  0
   26.0786   37.4892   25.8774 C   0  0  0  0  0  0  0  0  0  0  0  0
   26.1918   36.5359   24.8468 C   0  0  0  0  0  0  0  0  0  0  0  0
   26.8375   41.1020   18.9246 C   0  0  0  0  0  0  0  0  0  0  0  0
   27.1523   41.9055   20.1667 C   0  0  0  0  0  0  0  0  0  0  0  0
   28.4593   42.2360   20.4938 C   0  0  0  0  0  0  0  0  0  0  0  0
   28.8606   42.6209   21.7189 N   0  0  0  0  0  0  0  0  0  0  0  0
   27.8983   42.6257   22.6292 C   0  0  0  0  0  0  0  0  0  0  0  0
   26.6243   42.2997   22.4807 N   0  0  0  0  0  0  0  0  0  0  0  0
   26.2856   41.9189   21.2401 C   0  0  0  0  0  0  0  0  0  0  0  0
   28.3030   43.0003   23.8482 O   0  0  0  0  0  0  0  0  0  0  0  0
   29.6368   43.5067   23.9752 C   0  0  0  0  0  0  0  0  0  0  0  0
  1  2  2  0  0  0  0
  1  6  1  0  0  0  0
  2  3  1  0  0  0  0
  3  4  2  0  0  0  0
  4 14  1  0  0  0  0
  5  4  1  0  0  0  0
  6  5  1  0  0  0  0
  7  6  2  0  0  0  0
  8  9  1  0  0  0  0
  8  2  1  1  0  0  0
 10 19  1  0  0  0  0
 10  9  1  0  0  0  0
 11 10  1  0  0  0  0
 12 11  1  0  0  0  0
 12 13  1  0  0  0  0
 13  8  1  0  0  0  0
 14 15  1  0  0  0  0
 14 18  2  0  0  0  0
 15 16  1  0  0  0  0
 16 17  2  0  0  0  0
 18 17  1  0  0  0  0
 19 20  1  0  0  0  0
 20 25  2  0  0  0  0
 20 21  1  0  0  0  0
 21 22  2  0  0  0  0
 22 23  1  0  0  0  0
 23 26  1  0  0  0  0
 24 23  2  0  0  0  0
 25 24  1  0  0  0  0
 26 27  1  0  0  0  0
M  END
>  <CHROM.1>
-3.48218658,129.72442544,67.91689697,42.17877988,8.03457628,27.55166858,38.90115817
21.50317770,-2.04551942,1.38956405,0.67528735

>  <Name>
lig.pdb

>  <RI>
0

>  <Rbt.Current_Directory>
/home/itssahil/PROJECTS/Mol_Feturizer/New_Systems/rnas/5kx9

>  <Rbt.Executable>
rbdock ($Id: //depot/dev/client3/rdock/2013.1/src/exe/rbdock.cxx#4 $)

>  <Rbt.Library>
libRbt.so (2013.1, Build901 2013/11/27)

>  <Rbt.Parameter_File>
/export/apps/rDock/src/rDock_2013.1_src/data/scripts/dock_solv.prm

>  <Rbt.Receptor>
prm/pocket_docking_2.prm

>  <SCORE>
-37.8072

>  <SCORE.INTER>
-35.9151

>  <SCORE.INTER.CONST>
1

>  <SCORE.INTER.POLAR>
0

>  <SCORE.INTER.ROT>
5

>  <SCORE.INTER.SOLV>
15.0588

>  <SCORE.INTER.VDW>
-35.8963

>  <SCORE.INTER.norm>
-1.33019

>  <SCORE.INTRA>
-1.89209

>  <SCORE.INTRA.DIHEDRAL>
-0.637437

>  <SCORE.INTRA.DIHEDRAL.0>
2.68224

>  <SCORE.INTRA.POLAR>
0

>  <SCORE.INTRA.POLAR.0>
0

>  <SCORE.INTRA.REPUL>
0

>  <SCORE.INTRA.REPUL.0>
0

>  <SCORE.INTRA.SOLV>
-0.17563

>  <SCORE.INTRA.SOLV.lig_0>
-19.4148

>  <SCORE.INTRA.VDW>
-1.48556

>  <SCORE.INTRA.VDW.0>
5.42093

>  <SCORE.INTRA.norm>
-0.0700775

>  <SCORE.RESTR>
0

>  <SCORE.RESTR.CAVITY>
0

>  <SCORE.RESTR.norm>
0

>  <SCORE.SYSTEM>
0

>  <SCORE.SYSTEM.CONST>
0

>  <SCORE.SYSTEM.DIHEDRAL>
0

>  <SCORE.SYSTEM.SOLV>
0

>  <SCORE.SYSTEM.norm>
0

>  <SCORE.heavy>
27

>  <SCORE.norm>
-1.40026

>  <RMSD>
0.768

$$$$
lig.pdb
 OpenBabel11021811523D
libRbt.so/2013.1/901 2013/11/27
 27 30  0  0  0  0  0  0  0  0999 V2000
   27.9704   35.4458   20.0652 N   0  0  0  0  0  0  0  0  0  0  0  0
   28.1777   36.6788   20.4564 C   0  0  0  0  0  0  0  0  0  0  0  0
   27.7861   37.1896   21.6509 N   0  0  0  0  0  0  0  0  0  0  0  0
   27.1704   36.3613   22.5464 C   0  0  0  0  0  0  0  0  0  0  0  0
   26.9389   35.0525   22.2336 C   0  0  0  0  0  0  0  0  0  0  0  0
   27.3348   34.5611   20.9353 C   0  0  0  0  0  0  0  0  0  0  0  0
   27.1117   33.4034   20.5600 O   0  0  0  0  0  0  0  0  0  0  0  0
   28.7405   37.7675   19.5165 C   0  0  2  0  0  0  0  0  0  0  0  0
   27.7762   38.9379   19.7689 C   0  0  0  0  0  0  0  0  0  0  0  0
   27.9659   40.0163   18.7971 N   0  0  0  0  0  0  0  0  0  0  0  0
   27.6643   39.5075   17.4494 C   0  0  0  0  0  0  0  0  0  0  0  0
   28.6294   38.4047   17.0614 C   0  0  0  0  0  0  0  0  0  0  0  0
   28.5904   37.2654   18.0704 C   0  0  0  0  0  0  0  0  0  0  0  0
   26.8471   37.0349   23.7970 C   0  0  0  0  0  0  0  0  0  0  0  0
   27.3352   38.6616   24.0982 S   0  0  0  0  0  0  0  0  0  0  0  0
   26.6511   38.6489   25.6288 C   0  0  0  0  0  0  0  0  0  0  0  0
   26.0356   37.4893   25.8922 C   0  0  0  0  0  0  0  0  0  0  0  0
   26.1444   36.5449   24.8527 C   0  0  0  0  0  0  0  0  0  0  0  0
   27.1256   41.1875   19.1029 C   0  0  0  0  0  0  0  0  0  0  0  0
   27.6129   42.0664   20.2331 C   0  0  0  0  0  0  0  0  0  0  0  0
   28.9458   42.4399   20.3265 C   0  0  0  0  0  0  0  0  0  0  0  0
   29.5274   42.9016   21.4483 N   0  0  0  0  0  0  0  0  0  0  0  0
   28.7237   42.9403   22.5005 C   0  0  0  0  0  0  0  0  0  0  0  0
   27.4520   42.5822   22.5776 N   0  0  0  0  0  0  0  0  0  0  0  0
   26.9296   42.1248   21.4301 C   0  0  0  0  0  0  0  0  0  0  0  0
   29.3080   43.3916   23.6163 O   0  0  0  0  0  0  0  0  0  0  0  0
   29.2054   42.5789   24.7914 C   0  0  0  0  0  0  0  0  0  0  0  0
  1  2  2  0  0  0  0
  1  6  1  0  0  0  0
  2  3  1  0  0  0  0
  3  4  2  0  0  0  0
  4 14  1  0  0  0  0
  5  4  1  0  0  0  0
  6  5  1  0  0  0  0
  7  6  2  0  0  0  0
  8  9  1  0  0  0  0
  8  2  1  1  0  0  0
 10 19  1  0  0  0  0
 10  9  1  0  0  0  0
 11 10  1  0  0  0  0
 12 11  1  0  0  0  0
 12 13  1  0  0  0  0
 13  8  1  0  0  0  0
 14 15  1  0  0  0  0
 14 18  2  0  0  0  0
 15 16  1  0  0  0  0
 16 17  2  0  0  0  0
 18 17  1  0  0  0  0
 19 20  1  0  0  0  0
 20 25  2  0  0  0  0
 20 21  1  0  0  0  0
 21 22  2  0  0  0  0
 22 23  1  0  0  0  0
 23 26  1  0  0  0  0
 24 23  2  0  0  0  0
 25 24  1  0  0  0  0
 26 27  1  0  0  0  0
M  END
>  <CHROM.1>
-4.76345249,132.27162113,76.99298365,45.22504772,-127.26744307,27.76677872
38.94097178,21.56662000,-2.31093985,1.33446225,0.85902718

>  <Name>
lig.pdb

>  <RI>
0

>  <Rbt.Current_Directory>
/home/itssahil/PROJECTS/Mol_Feturizer/New_Systems/rnas/5kx9

>  <Rbt.Executable>
rbdock ($Id: //depot/dev/client3/rdock/2013.1/src/exe/rbdock.cxx#4 $)

>  <Rbt.Library>
libRbt.so (2013.1, Build901 2013/11/27)

>  <Rbt.Parameter_File>
/export/apps/rDock/src/rDock_2013.1_src/data/scripts/dock_solv.prm

>  <Rbt.Receptor>
prm/pocket_docking_3.prm

>  <SCORE>
-39.4536

>  <SCORE.INTER>
-36.2831

>  <SCORE.INTER.CONST>
1

>  <SCORE.INTER.POLAR>
0

>  <SCORE.INTER.ROT>
5

>  <SCORE.INTER.SOLV>
16.1688

>  <SCORE.INTER.VDW>
-36.5116

>  <SCORE.INTER.norm>
-1.34382

>  <SCORE.INTRA>
-3.17056

>  <SCORE.INTRA.DIHEDRAL>
2.78236

>  <SCORE.INTRA.DIHEDRAL.0>
2.68224

>  <SCORE.INTRA.POLAR>
0

>  <SCORE.INTRA.POLAR.0>
0

>  <SCORE.INTRA.REPUL>
0

>  <SCORE.INTRA.REPUL.0>
0

>  <SCORE.INTRA.SOLV>
-0.306963

>  <SCORE.INTRA.SOLV.lig_0>
-19.4148

>  <SCORE.INTRA.VDW>
-4.40826

>  <SCORE.INTRA.VDW.0>
5.42093

>  <SCORE.INTRA.norm>
-0.117428

>  <SCORE.RESTR>
0

>  <SCORE.RESTR.CAVITY>
0

>  <SCORE.RESTR.norm>
0

>  <SCORE.SYSTEM>
0

>  <SCORE.SYSTEM.CONST>
0

>  <SCORE.SYSTEM.DIHEDRAL>
0

>  <SCORE.SYSTEM.SOLV>
0

>  <SCORE.SYSTEM.norm>
0

>  <SCORE.heavy>
27

>  <SCORE.norm>
-1.46125

>  <RMSD>
0.773

$$$$
lig.pdb
 OpenBabel11021811523D
libRbt.so/2013.1/901 2013/11/27
 27 30  0  0  0  0  0  0  0  0999 V2000
   28.1103   36.1800   19.7456 N   0  0  0  0  0  0  0  0  0  0  0  0
   28.4442   37.3084   20.3214 C   0  0  0  0  0  0  0  0  0  0  0  0
   28.0776   37.6779   21.5745 N   0  0  0  0  0  0  0  0  0  0  0  0
   27.3456   36.8029   22.3267 C   0  0  0  0  0  0  0  0  0  0  0  0
   26.9768   35.5912   21.8167 C   0  0  0  0  0  0  0  0  0  0  0  0
   27.3529   35.2558   20.4640 C   0  0  0  0  0  0  0  0  0  0  0  0
   27.0114   34.2008   19.9151 O   0  0  0  0  0  0  0  0  0  0  0  0
   29.1546   38.4518   19.5641 C   0  0  2  0  0  0  0  0  0  0  0  0
   28.3635   39.6846   20.0308 C   0  0  0  0  0  0  0  0  0  0  0  0
   28.7030   40.8749   19.2490 N   0  0  0  0  0  0  0  0  0  0  0  0
   28.3339   40.6475   17.8425 C   0  0  0  0  0  0  0  0  0  0  0  0
   29.1353   39.5034   17.2534 C   0  0  0  0  0  0  0  0  0  0  0  0
   28.9365   38.2266   18.0583 C   0  0  0  0  0  0  0  0  0  0  0  0
   27.0635   37.3159   23.6606 C   0  0  0  0  0  0  0  0  0  0  0  0
   26.1262   36.4151   24.7943 S   0  0  0  0  0  0  0  0  0  0  0  0
   26.2457   37.6252   25.9485 C   0  0  0  0  0  0  0  0  0  0  0  0
   26.9992   38.6479   25.5251 C   0  0  0  0  0  0  0  0  0  0  0  0
   27.4723   38.4915   24.2077 C   0  0  0  0  0  0  0  0  0  0  0  0
   28.0347   42.0823   19.7655 C   0  0  0  0  0  0  0  0  0  0  0  0
   28.4041   42.4827   21.1764 C   0  0  0  0  0  0  0  0  0  0  0  0
   29.7022   42.3408   21.6447 C   0  0  0  0  0  0  0  0  0  0  0  0
   30.0420   42.3287   22.9463 N   0  0  0  0  0  0  0  0  0  0  0  0
   29.0148   42.4262   23.7769 C   0  0  0  0  0  0  0  0  0  0  0  0
   27.7278   42.5257   23.4850 N   0  0  0  0  0  0  0  0  0  0  0  0
   27.4507   42.5265   22.1727 C   0  0  0  0  0  0  0  0  0  0  0  0
   29.3559   42.4048   25.0705 O   0  0  0  0  0  0  0  0  0  0  0  0
   30.2909   43.3907   25.5239 C   0  0  0  0  0  0  0  0  0  0  0  0
  1  2  2  0  0  0  0
  1  6  1  0  0  0  0
  2  3  1  0  0  0  0
  3  4  2  0  0  0  0
  4 14  1  0  0  0  0
  5  4  1  0  0  0  0
  6  5  1  0  0  0  0
  7  6  2  0  0  0  0
  8  9  1  0  0  0  0
  8  2  1  1  0  0  0
 10 19  1  0  0  0  0
 10  9  1  0  0  0  0
 11 10  1  0  0  0  0
 12 11  1  0  0  0  0
 12 13  1  0  0  0  0
 13  8  1  0  0  0  0
 14 15  1  0  0  0  0
 14 18  2  0  0  0  0
 15 16  1  0  0  0  0
 16 17  2  0  0  0  0
 18 17  1  0  0  0  0
 19 20  1  0  0  0  0
 20 25  2  0  0  0  0
 20 21  1  0  0  0  0
 21 22  2  0  0  0  0
 22 23  1  0  0  0  0
 23 26  1  0  0  0  0
 24 23  2  0  0  0  0
 25 24  1  0  0  0  0
 26 27  1  0  0  0  0
M  END
>  <CHROM.1>
178.69418718,134.83388948,62.32020836,37.36015623,56.68761461,28.06596426
39.19211305,21.90418453,-2.37843079,1.21726802,1.06360354

>  <Name>
lig.pdb

>  <RI>
0

>  <Rbt.Current_Directory>
/home/itssahil/PROJECTS/Mol_Feturizer/New_Systems/rnas/5kx9

>  <Rbt.Executable>
rbdock ($Id: //depot/dev/client3/rdock/2013.1/src/exe/rbdock.cxx#4 $)

>  <Rbt.Library>
libRbt.so (2013.1, Build901 2013/11/27)

>  <Rbt.Parameter_File>
/export/apps/rDock/src/rDock_2013.1_src/data/scripts/dock_solv.prm

>  <Rbt.Receptor>
prm/pocket_docking_3.prm

>  <SCORE>
-38.2221

>  <SCORE.INTER>
-35.5855

>  <SCORE.INTER.CONST>
1

>  <SCORE.INTER.POLAR>
0

>  <SCORE.INTER.ROT>
5

>  <SCORE.INTER.SOLV>
14.659

>  <SCORE.INTER.VDW>
-35.5433

>  <SCORE.INTER.norm>
-1.31798

>  <SCORE.INTRA>
-2.63657

>  <SCORE.INTRA.DIHEDRAL>
2.38548

>  <SCORE.INTRA.DIHEDRAL.0>
2.68224

>  <SCORE.INTRA.POLAR>
0

>  <SCORE.INTRA.POLAR.0>
0

>  <SCORE.INTRA.REPUL>
0

>  <SCORE.INTRA.REPUL.0>
0

>  <SCORE.INTRA.SOLV>
-0.310751

>  <SCORE.INTRA.SOLV.lig_0>
-19.4148

>  <SCORE.INTRA.VDW>
-3.67394

>  <SCORE.INTRA.VDW.0>
5.42093

>  <SCORE.INTRA.norm>
-0.0976509

>  <SCORE.RESTR>
0

>  <SCORE.RESTR.CAVITY>
0

>  <SCORE.RESTR.norm>
0

>  <SCORE.SYSTEM>
0

>  <SCORE.SYSTEM.CONST>
0

>  <SCORE.SYSTEM.DIHEDRAL>
0

>  <SCORE.SYSTEM.SOLV>
0

>  <SCORE.SYSTEM.norm>
0

>  <SCORE.heavy>
27

>  <SCORE.norm>
-1.41563

>  <RMSD>
0.805

$$$$
lig.pdb
 OpenBabel11021811523D
libRbt.so/2013.1/901 2013/11/27
 27 30  0  0  0  0  0  0  0  0999 V2000
   28.3593   36.1195   19.1189 N   0  0  0  0  0  0  0  0  0  0  0  0
   28.5771   37.2391   19.7633 C   0  0  0  0  0  0  0  0  0  0  0  0
   28.1636   37.4984   21.0293 N   0  0  0  0  0  0  0  0  0  0  0  0
   27.5114   36.5153   21.7187 C   0  0  0  0  0  0  0  0  0  0  0  0
   27.2662   35.3057   21.1347 C   0  0  0  0  0  0  0  0  0  0  0  0
   27.6869   35.0869   19.7713 C   0  0  0  0  0  0  0  0  0  0  0  0
   27.4542   34.0379   19.1580 O   0  0  0  0  0  0  0  0  0  0  0  0
   29.1820   38.4873   19.0837 C   0  0  2  0  0  0  0  0  0  0  0  0
   28.2552   39.6061   19.5864 C   0  0  0  0  0  0  0  0  0  0  0  0
   28.4871   40.8637   18.8737 N   0  0  0  0  0  0  0  0  0  0  0  0
   28.1779   40.6721   17.4476 C   0  0  0  0  0  0  0  0  0  0  0  0
   29.1086   39.6487   16.8273 C   0  0  0  0  0  0  0  0  0  0  0  0
   29.0251   38.3185   17.5629 C   0  0  0  0  0  0  0  0  0  0  0  0
   27.1673   36.9205   23.0750 C   0  0  0  0  0  0  0  0  0  0  0  0
   26.2938   35.8767   24.1346 S   0  0  0  0  0  0  0  0  0  0  0  0
   26.2931   37.0200   25.3608 C   0  0  0  0  0  0  0  0  0  0  0  0
   26.9628   38.1264   25.0138 C   0  0  0  0  0  0  0  0  0  0  0  0
   27.4666   38.0909   23.6990 C   0  0  0  0  0  0  0  0  0  0  0  0
   27.6839   41.9675   19.4285 C   0  0  0  0  0  0  0  0  0  0  0  0
   28.0380   42.3923   20.8362 C   0  0  0  0  0  0  0  0  0  0  0  0
   29.3608   42.5009   21.2402 C   0  0  0  0  0  0  0  0  0  0  0  0
   29.7628   42.5191   22.5240 N   0  0  0  0  0  0  0  0  0  0  0  0
   28.7809   42.3835   23.4027 C   0  0  0  0  0  0  0  0  0  0  0  0
   27.4867   42.2305   23.1725 N   0  0  0  0  0  0  0  0  0  0  0  0
   27.1478   42.2141   21.8750 C   0  0  0  0  0  0  0  0  0  0  0  0
   29.1856   42.3931   24.6779 O   0  0  0  0  0  0  0  0  0  0  0  0
   30.0284   43.4732   25.0958 C   0  0  0  0  0  0  0  0  0  0  0  0
  1  2  2  0  0  0  0
  1  6  1  0  0  0  0
  2  3  1  0  0  0  0
  3  4  2  0  0  0  0
  4 14  1  0  0  0  0
  5  4  1  0  0  0  0
  6  5  1  0  0  0  0
  7  6  2  0  0  0  0
  8  9  1  0  0  0  0
  8  2  1  1  0  0  0
 10 19  1  0  0  0  0
 10  9  1  0  0  0  0
 11 10  1  0  0  0  0
 12 11  1  0  0  0  0
 12 13  1  0  0  0  0
 13  8  1  0  0  0  0
 14 15  1  0  0  0  0
 14 18  2  0  0  0  0
 15 16  1  0  0  0  0
 16 17  2  0  0  0  0
 18 17  1  0  0  0  0
 19 20  1  0  0  0  0
 20 25  2  0  0  0  0
 20 21  1  0  0  0  0
 21 22  2  0  0  0  0
 22 23  1  0  0  0  0
 23 26  1  0  0  0  0
 24 23  2  0  0  0  0
 25 24  1  0  0  0  0
 26 27  1  0  0  0  0
M  END
>  <CHROM.1>
177.99616076,133.82790420,66.25053886,41.83078890,51.18898983,28.04025160
39.03327220,21.40556509,-2.29635568,1.28096693,0.96707847

>  <Name>
lig.pdb

>  <RI>
0

>  <Rbt.Current_Directory>
/home/itssahil/PROJECTS/Mol_Feturizer/New_Systems/rnas/5kx9

>  <Rbt.Executable>
rbdock ($Id: //depot/dev/client3/rdock/2013.1/src/exe/rbdock.cxx#4 $)

>  <Rbt.Library>
libRbt.so (2013.1, Build901 2013/11/27)

>  <Rbt.Parameter_File>
/export/apps/rDock/src/rDock_2013.1_src/data/scripts/dock_solv.prm

>  <Rbt.Receptor>
prm/pocket_docking_3.prm

>  <SCORE>
-38.6279

>  <SCORE.INTER>
-36.0086

>  <SCORE.INTER.CONST>
1

>  <SCORE.INTER.POLAR>
0

>  <SCORE.INTER.ROT>
5

>  <SCORE.INTER.SOLV>
13.5051

>  <SCORE.INTER.VDW>
-35.4408

>  <SCORE.INTER.norm>
-1.33365

>  <SCORE.INTRA>
-2.61926

>  <SCORE.INTRA.DIHEDRAL>
2.10721

>  <SCORE.INTRA.DIHEDRAL.0>
2.68224

>  <SCORE.INTRA.POLAR>
0

>  <SCORE.INTRA.POLAR.0>
0

>  <SCORE.INTRA.REPUL>
0

>  <SCORE.INTRA.REPUL.0>
0

>  <SCORE.INTRA.SOLV>
-0.364695

>  <SCORE.INTRA.SOLV.lig_0>
-19.4148

>  <SCORE.INTRA.VDW>
-3.49052

>  <SCORE.INTRA.VDW.0>
5.42093

>  <SCORE.INTRA.norm>
-0.0970098

>  <SCORE.RESTR>
0

>  <SCORE.RESTR.CAVITY>
0

>  <SCORE.RESTR.norm>
0

>  <SCORE.SYSTEM>
0

>  <SCORE.SYSTEM.CONST>
0

>  <SCORE.SYSTEM.DIHEDRAL>
0

>  <SCORE.SYSTEM.SOLV>
0

>  <SCORE.SYSTEM.norm>
0

>  <SCORE.heavy>
27

>  <SCORE.norm>
-1.43066

>  <RMSD>
0.810

$$$$
lig.pdb
 OpenBabel11021811523D
libRbt.so/2013.1/901 2013/11/27
 27 30  0  0  0  0  0  0  0  0999 V2000
   28.0636   35.6305   20.0077 N   0  0  0  0  0  0  0  0  0  0  0  0
   28.3193   36.8571   20.3903 C   0  0  0  0  0  0  0  0  0  0  0  0
   27.9577   37.3879   21.5855 N   0  0  0  0  0  0  0  0  0  0  0  0
   27.3207   36.5872   22.4911 C   0  0  0  0  0  0  0  0  0  0  0  0
   27.0388   35.2861   22.1876 C   0  0  0  0  0  0  0  0  0  0  0  0
   27.4044   34.7740   20.8884 C   0  0  0  0  0  0  0  0  0  0  0  0
   27.1358   33.6233   20.5214 O   0  0  0  0  0  0  0  0  0  0  0  0
   28.9126   37.9198   19.4394 C   0  0  2  0  0  0  0  0  0  0  0  0
   27.9491   39.1011   19.6387 C   0  0  0  0  0  0  0  0  0  0  0  0
   28.1702   40.1547   18.6466 N   0  0  0  0  0  0  0  0  0  0  0  0
   27.9001   39.6152   17.3041 C   0  0  0  0  0  0  0  0  0  0  0  0
   28.8683   38.4982   16.9677 C   0  0  0  0  0  0  0  0  0  0  0  0
   28.7966   37.3837   18.0024 C   0  0  0  0  0  0  0  0  0  0  0  0
   27.0337   37.2785   23.7409 C   0  0  0  0  0  0  0  0  0  0  0  0
   26.0781   36.5481   24.9773 S   0  0  0  0  0  0  0  0  0  0  0  0
   26.2015   37.9020   25.9585 C   0  0  0  0  0  0  0  0  0  0  0  0
   26.9692   38.8508   25.4077 C   0  0  0  0  0  0  0  0  0  0  0  0
   27.4509   38.5133   24.1279 C   0  0  0  0  0  0  0  0  0  0  0  0
   27.3293   41.3374   18.9024 C   0  0  0  0  0  0  0  0  0  0  0  0
   27.7129   42.1656   20.1084 C   0  0  0  0  0  0  0  0  0  0  0  0
   29.0300   42.5407   20.3302 C   0  0  0  0  0  0  0  0  0  0  0  0
   29.5117   42.9530   21.5167 N   0  0  0  0  0  0  0  0  0  0  0  0
   28.6227   42.9391   22.4985 C   0  0  0  0  0  0  0  0  0  0  0  0
   27.3521   42.5717   22.4522 N   0  0  0  0  0  0  0  0  0  0  0  0
   26.9314   42.1653   21.2454 C   0  0  0  0  0  0  0  0  0  0  0  0
   29.1078   43.3412   23.6788 O   0  0  0  0  0  0  0  0  0  0  0  0
   28.9067   42.4787   24.8046 C   0  0  0  0  0  0  0  0  0  0  0  0
  1  2  2  0  0  0  0
  1  6  1  0  0  0  0
  2  3  1  0  0  0  0
  3  4  2  0  0  0  0
  4 14  1  0  0  0  0
  5  4  1  0  0  0  0
  6  5  1  0  0  0  0
  7  6  2  0  0  0  0
  8  9  1  0  0  0  0
  8  2  1  1  0  0  0
 10 19  1  0  0  0  0
 10  9  1  0  0  0  0
 11 10  1  0  0  0  0
 12 11  1  0  0  0  0
 12 13  1  0  0  0  0
 13  8  1  0  0  0  0
 14 15  1  0  0  0  0
 14 18  2  0  0  0  0
 15 16  1  0  0  0  0
 16 17  2  0  0  0  0
 18 17  1  0  0  0  0
 19 20  1  0  0  0  0
 20 25  2  0  0  0  0
 20 21  1  0  0  0  0
 21 22  2  0  0  0  0
 22 23  1  0  0  0  0
 23 26  1  0  0  0  0
 24 23  2  0  0  0  0
 25 24  1  0  0  0  0
 26 27  1  0  0  0  0
M  END
>  <CHROM.1>
172.89452640,129.39502285,71.15754866,47.58321564,-127.66809598,27.78455950
38.94732198,21.55492801,-2.40435423,1.31414218,0.72620715

>  <Name>
lig.pdb

>  <RI>
0

>  <Rbt.Current_Directory>
/home/itssahil/PROJECTS/Mol_Feturizer/New_Systems/rnas/5kx9

>  <Rbt.Executable>
rbdock ($Id: //depot/dev/client3/rdock/2013.1/src/exe/rbdock.cxx#4 $)

>  <Rbt.Library>
libRbt.so (2013.1, Build901 2013/11/27)

>  <Rbt.Parameter_File>
/export/apps/rDock/src/rDock_2013.1_src/data/scripts/dock_solv.prm

>  <Rbt.Receptor>
prm/pocket_docking_4.prm

>  <SCORE>
-38.6712

>  <SCORE.INTER>
-35.3113

>  <SCORE.INTER.CONST>
1

>  <SCORE.INTER.POLAR>
0

>  <SCORE.INTER.ROT>
5

>  <SCORE.INTER.SOLV>
16.3743

>  <SCORE.INTER.VDW>
-35.9323

>  <SCORE.INTER.norm>
-1.30783

>  <SCORE.INTRA>
-3.35987

>  <SCORE.INTRA.DIHEDRAL>
2.63355

>  <SCORE.INTRA.DIHEDRAL.0>
2.68224

>  <SCORE.INTRA.POLAR>
0

>  <SCORE.INTRA.POLAR.0>
0

>  <SCORE.INTRA.REPUL>
0

>  <SCORE.INTRA.REPUL.0>
0

>  <SCORE.INTRA.SOLV>
-0.45728

>  <SCORE.INTRA.SOLV.lig_0>
-19.4148

>  <SCORE.INTRA.VDW>
-4.44801

>  <SCORE.INTRA.VDW.0>
5.42093

>  <SCORE.INTRA.norm>
-0.12444

>  <SCORE.RESTR>
0

>  <SCORE.RESTR.CAVITY>
0

>  <SCORE.RESTR.norm>
0

>  <SCORE.SYSTEM>
0

>  <SCORE.SYSTEM.CONST>
0

>  <SCORE.SYSTEM.DIHEDRAL>
0

>  <SCORE.SYSTEM.SOLV>
0

>  <SCORE.SYSTEM.norm>
0

>  <SCORE.heavy>
27

>  <SCORE.norm>
-1.43227

>  <RMSD>
0.814

$$$$
lig.pdb
 OpenBabel11021811523D
libRbt.so/2013.1/901 2013/11/27
 27 30  0  0  0  0  0  0  0  0999 V2000
   28.2873   35.9970   19.3024 N   0  0  0  0  0  0  0  0  0  0  0  0
   28.5434   37.1057   19.9516 C   0  0  0  0  0  0  0  0  0  0  0  0
   28.0983   37.3936   21.2006 N   0  0  0  0  0  0  0  0  0  0  0  0
   27.3669   36.4518   21.8677 C   0  0  0  0  0  0  0  0  0  0  0  0
   27.0761   35.2550   21.2781 C   0  0  0  0  0  0  0  0  0  0  0  0
   27.5343   35.0067   19.9319 C   0  0  0  0  0  0  0  0  0  0  0  0
   27.2662   33.9695   19.3130 O   0  0  0  0  0  0  0  0  0  0  0  0
   29.2421   38.3149   19.2918 C   0  0  2  0  0  0  0  0  0  0  0  0
   28.3276   39.4788   19.7073 C   0  0  0  0  0  0  0  0  0  0  0  0
   28.6571   40.7108   18.9884 N   0  0  0  0  0  0  0  0  0  0  0  0
   28.4393   40.4998   17.5482 C   0  0  0  0  0  0  0  0  0  0  0  0
   29.3696   39.4287   17.0138 C   0  0  0  0  0  0  0  0  0  0  0  0
   29.1835   38.1190   17.7673 C   0  0  0  0  0  0  0  0  0  0  0  0
   26.9959   36.8820   23.2091 C   0  0  0  0  0  0  0  0  0  0  0  0
   27.3430   38.4741   23.7745 S   0  0  0  0  0  0  0  0  0  0  0  0
   26.6745   38.1528   25.2781 C   0  0  0  0  0  0  0  0  0  0  0  0
   26.1643   36.9166   25.3450 C   0  0  0  0  0  0  0  0  0  0  0  0
   26.3467   36.1673   24.1664 C   0  0  0  0  0  0  0  0  0  0  0  0
   27.8617   41.8560   19.4648 C   0  0  0  0  0  0  0  0  0  0  0  0
   28.1856   42.3440   20.8592 C   0  0  0  0  0  0  0  0  0  0  0  0
   29.4986   42.5354   21.2641 C   0  0  0  0  0  0  0  0  0  0  0  0
   29.8925   42.6161   22.5480 N   0  0  0  0  0  0  0  0  0  0  0  0
   28.9146   42.4569   23.4272 C   0  0  0  0  0  0  0  0  0  0  0  0
   27.6315   42.2283   23.1976 N   0  0  0  0  0  0  0  0  0  0  0  0
   27.3006   42.1523   21.9001 C   0  0  0  0  0  0  0  0  0  0  0  0
   29.3116   42.5289   24.7028 O   0  0  0  0  0  0  0  0  0  0  0  0
   28.4757   43.2500   25.6155 C   0  0  0  0  0  0  0  0  0  0  0  0
  1  2  2  0  0  0  0
  1  6  1  0  0  0  0
  2  3  1  0  0  0  0
  3  4  2  0  0  0  0
  4 14  1  0  0  0  0
  5  4  1  0  0  0  0
  6  5  1  0  0  0  0
  7  6  2  0  0  0  0
  8  9  1  0  0  0  0
  8  2  1  1  0  0  0
 10 19  1  0  0  0  0
 10  9  1  0  0  0  0
 11 10  1  0  0  0  0
 12 11  1  0  0  0  0
 12 13  1  0  0  0  0
 13  8  1  0  0  0  0
 14 15  1  0  0  0  0
 14 18  2  0  0  0  0
 15 16  1  0  0  0  0
 16 17  2  0  0  0  0
 18 17  1  0  0  0  0
 19 20  1  0  0  0  0
 20 25  2  0  0  0  0
 20 21  1  0  0  0  0
 21 22  2  0  0  0  0
 22 23  1  0  0  0  0
 23 26  1  0  0  0  0
 24 23  2  0  0  0  0
 25 24  1  0  0  0  0
 26 27  1  0  0  0  0
M  END
>  <CHROM.1>
5.39702690,131.53297500,69.33839297,46.32562613,138.33918066,28.05563967
39.11803011,21.50558086,-1.93141137,1.25075627,0.82543049

>  <Name>
lig.pdb

>  <RI>
0

>  <Rbt.Current_Directory>
/home/itssahil/PROJECTS/Mol_Feturizer/New_Systems/rnas/5kx9

>  <Rbt.Executable>
rbdock ($Id: //depot/dev/client3/rdock/2013.1/src/exe/rbdock.cxx#4 $)

>  <Rbt.Library>
libRbt.so (2013.1, Build901 2013/11/27)

>  <Rbt.Parameter_File>
/export/apps/rDock/src/rDock_2013.1_src/data/scripts/dock_solv.prm

>  <Rbt.Receptor>
prm/blind_docking_80.prm

>  <SCORE>
-38.5419

>  <SCORE.INTER>
-34.9825

>  <SCORE.INTER.CONST>
1

>  <SCORE.INTER.POLAR>
0

>  <SCORE.INTER.ROT>
5

>  <SCORE.INTER.SOLV>
13.599

>  <SCORE.INTER.VDW>
-34.788

>  <SCORE.INTER.norm>
-1.29565

>  <SCORE.INTRA>
-3.55936

>  <SCORE.INTRA.DIHEDRAL>
1.57017

>  <SCORE.INTRA.DIHEDRAL.0>
2.68224

>  <SCORE.INTRA.POLAR>
0

>  <SCORE.INTRA.POLAR.0>
0

>  <SCORE.INTRA.REPUL>
0

>  <SCORE.INTRA.REPUL.0>
0

>  <SCORE.INTRA.SOLV>
-0.165567

>  <SCORE.INTRA.SOLV.lig_0>
-19.4148

>  <SCORE.INTRA.VDW>
-4.26166

>  <SCORE.INTRA.VDW.0>
5.42093

>  <SCORE.INTRA.norm>
-0.131828

>  <SCORE.RESTR>
0

>  <SCORE.RESTR.CAVITY>
0

>  <SCORE.RESTR.norm>
0

>  <SCORE.SYSTEM>
0

>  <SCORE.SYSTEM.CONST>
0

>  <SCORE.SYSTEM.DIHEDRAL>
0

>  <SCORE.SYSTEM.SOLV>
0

>  <SCORE.SYSTEM.norm>
0

>  <SCORE.heavy>
27

>  <SCORE.norm>
-1.42748

>  <RMSD>
0.822

$$$$
lig.pdb
 OpenBabel11021811523D
libRbt.so/2013.1/901 2013/11/27
 27 30  0  0  0  0  0  0  0  0999 V2000
   28.4127   36.0860   19.1025 N   0  0  0  0  0  0  0  0  0  0  0  0
   28.5934   37.2086   19.7531 C   0  0  0  0  0  0  0  0  0  0  0  0
   28.1508   37.4555   21.0118 N   0  0  0  0  0  0  0  0  0  0  0  0
   27.5080   36.4564   21.6869 C   0  0  0  0  0  0  0  0  0  0  0  0
   27.3007   35.2431   21.0959 C   0  0  0  0  0  0  0  0  0  0  0  0
   27.7515   35.0371   19.7401 C   0  0  0  0  0  0  0  0  0  0  0  0
   27.5537   33.9847   19.1203 O   0  0  0  0  0  0  0  0  0  0  0  0
   29.1829   38.4716   19.0875 C   0  0  2  0  0  0  0  0  0  0  0  0
   28.2421   39.5732   19.6022 C   0  0  0  0  0  0  0  0  0  0  0  0
   28.4584   40.8414   18.9035 N   0  0  0  0  0  0  0  0  0  0  0  0
   28.1520   40.6616   17.4752 C   0  0  0  0  0  0  0  0  0  0  0  0
   29.0955   39.6569   16.8440 C   0  0  0  0  0  0  0  0  0  0  0  0
   29.0284   38.3177   17.5649 C   0  0  0  0  0  0  0  0  0  0  0  0
   27.1298   36.8505   23.0374 C   0  0  0  0  0  0  0  0  0  0  0  0
   26.2010   35.8116   24.0538 S   0  0  0  0  0  0  0  0  0  0  0  0
   26.1858   36.9378   25.2957 C   0  0  0  0  0  0  0  0  0  0  0  0
   26.8899   38.0339   24.9859 C   0  0  0  0  0  0  0  0  0  0  0  0
   27.4342   38.0053   23.6871 C   0  0  0  0  0  0  0  0  0  0  0  0
   27.6414   41.9289   19.4701 C   0  0  0  0  0  0  0  0  0  0  0  0
   28.0286   42.3835   20.8596 C   0  0  0  0  0  0  0  0  0  0  0  0
   29.3599   42.4659   21.2414 C   0  0  0  0  0  0  0  0  0  0  0  0
   29.7816   42.5093   22.5181 N   0  0  0  0  0  0  0  0  0  0  0  0
   28.8098   42.4269   23.4144 C   0  0  0  0  0  0  0  0  0  0  0  0
   27.5084   42.3043   23.2073 N   0  0  0  0  0  0  0  0  0  0  0  0
   27.1496   42.2605   21.9158 C   0  0  0  0  0  0  0  0  0  0  0  0
   29.2338   42.4614   24.6829 O   0  0  0  0  0  0  0  0  0  0  0  0
   30.1394   43.5091   25.0488 C   0  0  0  0  0  0  0  0  0  0  0  0
  1  2  2  0  0  0  0
  1  6  1  0  0  0  0
  2  3  1  0  0  0  0
  3  4  2  0  0  0  0
  4 14  1  0  0  0  0
  5  4  1  0  0  0  0
  6  5  1  0  0  0  0
  7  6  2  0  0  0  0
  8  9  1  0  0  0  0
  8  2  1  1  0  0  0
 10 19  1  0  0  0  0
 10  9  1  0  0  0  0
 11 10  1  0  0  0  0
 12 11  1  0  0  0  0
 12 13  1  0  0  0  0
 13  8  1  0  0  0  0
 14 15  1  0  0  0  0
 14 18  2  0  0  0  0
 15 16  1  0  0  0  0
 16 17  2  0  0  0  0
 18 17  1  0  0  0  0
 19 20  1  0  0  0  0
 20 25  2  0  0  0  0
 20 21  1  0  0  0  0
 21 22  2  0  0  0  0
 22 23  1  0  0  0  0
 23 26  1  0  0  0  0
 24 23  2  0  0  0  0
 25 24  1  0  0  0  0
 26 27  1  0  0  0  0
M  END
>  <CHROM.1>
175.28506390,135.11913626,68.80511885,38.25730022,49.65470823,28.03754993
39.00913184,21.39450762,-2.28909448,1.27295698,0.95032316

>  <Name>
lig.pdb

>  <RI>
0

>  <Rbt.Current_Directory>
/home/itssahil/PROJECTS/Mol_Feturizer/New_Systems/rnas/5kx9

>  <Rbt.Executable>
rbdock ($Id: //depot/dev/client3/rdock/2013.1/src/exe/rbdock.cxx#4 $)

>  <Rbt.Library>
libRbt.so (2013.1, Build901 2013/11/27)

>  <Rbt.Parameter_File>
/export/apps/rDock/src/rDock_2013.1_src/data/scripts/dock_solv.prm

>  <Rbt.Receptor>
prm/pocket_docking_3.prm

>  <SCORE>
-38.6501

>  <SCORE.INTER>
-36.2578

>  <SCORE.INTER.CONST>
1

>  <SCORE.INTER.POLAR>
0

>  <SCORE.INTER.ROT>
5

>  <SCORE.INTER.SOLV>
13.8556

>  <SCORE.INTER.VDW>
-35.7238

>  <SCORE.INTER.norm>
-1.34288

>  <SCORE.INTRA>
-2.39225

>  <SCORE.INTRA.DIHEDRAL>
2.06585

>  <SCORE.INTRA.DIHEDRAL.0>
2.68224

>  <SCORE.INTRA.POLAR>
0

>  <SCORE.INTRA.POLAR.0>
0

>  <SCORE.INTRA.REPUL>
0

>  <SCORE.INTRA.REPUL.0>
0

>  <SCORE.INTRA.SOLV>
-0.406421

>  <SCORE.INTRA.SOLV.lig_0>
-19.4148

>  <SCORE.INTRA.VDW>
-3.22196

>  <SCORE.INTRA.VDW.0>
5.42093

>  <SCORE.INTRA.norm>
-0.0886019

>  <SCORE.RESTR>
0

>  <SCORE.RESTR.CAVITY>
0

>  <SCORE.RESTR.norm>
0

>  <SCORE.SYSTEM>
0

>  <SCORE.SYSTEM.CONST>
0

>  <SCORE.SYSTEM.DIHEDRAL>
0

>  <SCORE.SYSTEM.SOLV>
0

>  <SCORE.SYSTEM.norm>
0

>  <SCORE.heavy>
27

>  <SCORE.norm>
-1.43148

>  <RMSD>
0.830

$$$$
lig.pdb
 OpenBabel11021811523D
libRbt.so/2013.1/901 2013/11/27
 27 30  0  0  0  0  0  0  0  0999 V2000
   27.9126   35.3325   20.0124 N   0  0  0  0  0  0  0  0  0  0  0  0
   28.1627   36.5595   20.3973 C   0  0  0  0  0  0  0  0  0  0  0  0
   27.7936   37.0882   21.5912 N   0  0  0  0  0  0  0  0  0  0  0  0
   27.1547   36.2847   22.4930 C   0  0  0  0  0  0  0  0  0  0  0  0
   26.8783   34.9831   22.1870 C   0  0  0  0  0  0  0  0  0  0  0  0
   27.2517   34.4732   20.8892 C   0  0  0  0  0  0  0  0  0  0  0  0
   26.9885   33.3220   20.5200 O   0  0  0  0  0  0  0  0  0  0  0  0
   28.7574   37.6248   19.4502 C   0  0  2  0  0  0  0  0  0  0  0  0
   28.2211   38.9302   20.0600 C   0  0  0  0  0  0  0  0  0  0  0  0
   28.4562   40.0765   19.1803 N   0  0  0  0  0  0  0  0  0  0  0  0
   27.7263   39.8720   17.9187 C   0  0  0  0  0  0  0  0  0  0  0  0
   28.2496   38.6529   17.1851 C   0  0  0  0  0  0  0  0  0  0  0  0
   28.1482   37.4075   18.0547 C   0  0  0  0  0  0  0  0  0  0  0  0
   26.8595   36.9741   23.7420 C   0  0  0  0  0  0  0  0  0  0  0  0
   27.3795   38.5945   24.0231 S   0  0  0  0  0  0  0  0  0  0  0  0
   26.7155   38.6062   25.5625 C   0  0  0  0  0  0  0  0  0  0  0  0
   26.0837   37.4596   25.8437 C   0  0  0  0  0  0  0  0  0  0  0  0
   26.1624   36.5050   24.8109 C   0  0  0  0  0  0  0  0  0  0  0  0
   28.0487   41.3456   19.8084 C   0  0  0  0  0  0  0  0  0  0  0  0
   28.7866   41.7163   21.0755 C   0  0  0  0  0  0  0  0  0  0  0  0
   28.5953   41.0035   22.2503 C   0  0  0  0  0  0  0  0  0  0  0  0
   28.9161   41.4592   23.4748 N   0  0  0  0  0  0  0  0  0  0  0  0
   29.4074   42.6893   23.4852 C   0  0  0  0  0  0  0  0  0  0  0  0
   29.6088   43.5030   22.4611 N   0  0  0  0  0  0  0  0  0  0  0  0
   29.2648   42.9959   21.2681 C   0  0  0  0  0  0  0  0  0  0  0  0
   29.7169   43.1423   24.7054 O   0  0  0  0  0  0  0  0  0  0  0  0
   28.6585   43.2280   25.6668 C   0  0  0  0  0  0  0  0  0  0  0  0
  1  2  2  0  0  0  0
  1  6  1  0  0  0  0
  2  3  1  0  0  0  0
  3  4  2  0  0  0  0
  4 14  1  0  0  0  0
  5  4  1  0  0  0  0
  6  5  1  0  0  0  0
  7  6  2  0  0  0  0
  8  9  1  0  0  0  0
  8  2  1  1  0  0  0
 10 19  1  0  0  0  0
 10  9  1  0  0  0  0
 11 10  1  0  0  0  0
 12 11  1  0  0  0  0
 12 13  1  0  0  0  0
 13  8  1  0  0  0  0
 14 15  1  0  0  0  0
 14 18  2  0  0  0  0
 15 16  1  0  0  0  0
 16 17  2  0  0  0  0
 18 17  1  0  0  0  0
 19 20  1  0  0  0  0
 20 25  2  0  0  0  0
 20 21  1  0  0  0  0
 21 22  2  0  0  0  0
 22 23  1  0  0  0  0
 23 26  1  0  0  0  0
 24 23  2  0  0  0  0
 25 24  1  0  0  0  0
 26 27  1  0  0  0  0
M  END
>  <CHROM.1>
-3.68788031,152.86435158,61.79271451,-69.75739206,-60.31866137,27.98088741
38.89541507,21.87673166,-2.29900356,1.24742850,1.08110194

>  <Name>
lig.pdb

>  <RI>
0

>  <Rbt.Current_Directory>
/home/itssahil/PROJECTS/Mol_Feturizer/New_Systems/rnas/5kx9

>  <Rbt.Executable>
rbdock ($Id: //depot/dev/client3/rdock/2013.1/src/exe/rbdock.cxx#4 $)

>  <Rbt.Library>
libRbt.so (2013.1, Build901 2013/11/27)

>  <Rbt.Parameter_File>
/export/apps/rDock/src/rDock_2013.1_src/data/scripts/dock_solv.prm

>  <Rbt.Receptor>
prm/pocket_docking_2.prm

>  <SCORE>
-35.9504

>  <SCORE.INTER>
-35.9935

>  <SCORE.INTER.CONST>
1

>  <SCORE.INTER.POLAR>
0

>  <SCORE.INTER.ROT>
5

>  <SCORE.INTER.SOLV>
14.9287

>  <SCORE.INTER.VDW>
-35.9052

>  <SCORE.INTER.norm>
-1.33309

>  <SCORE.INTRA>
0.0431293

>  <SCORE.INTRA.DIHEDRAL>
3.06555

>  <SCORE.INTRA.DIHEDRAL.0>
2.68224

>  <SCORE.INTRA.POLAR>
0

>  <SCORE.INTRA.POLAR.0>
0

>  <SCORE.INTRA.REPUL>
0

>  <SCORE.INTRA.REPUL.0>
0

>  <SCORE.INTRA.SOLV>
0.0342735

>  <SCORE.INTRA.SOLV.lig_0>
-19.4148

>  <SCORE.INTRA.VDW>
-1.50678

>  <SCORE.INTRA.VDW.0>
5.42093

>  <SCORE.INTRA.norm>
0.00159738

>  <SCORE.RESTR>
0

>  <SCORE.RESTR.CAVITY>
0

>  <SCORE.RESTR.norm>
0

>  <SCORE.SYSTEM>
0

>  <SCORE.SYSTEM.CONST>
0

>  <SCORE.SYSTEM.DIHEDRAL>
0

>  <SCORE.SYSTEM.SOLV>
0

>  <SCORE.SYSTEM.norm>
0

>  <SCORE.heavy>
27

>  <SCORE.norm>
-1.3315

>  <RMSD>
0.833

$$$$
lig.pdb
 OpenBabel11021811523D
libRbt.so/2013.1/901 2013/11/27
 27 30  0  0  0  0  0  0  0  0999 V2000
   27.7442   35.2338   20.1365 N   0  0  0  0  0  0  0  0  0  0  0  0
   27.7951   36.5270   20.3399 C   0  0  0  0  0  0  0  0  0  0  0  0
   27.4958   37.1400   21.5128 N   0  0  0  0  0  0  0  0  0  0  0  0
   27.1599   36.3666   22.5880 C   0  0  0  0  0  0  0  0  0  0  0  0
   27.1091   35.0068   22.4744 C   0  0  0  0  0  0  0  0  0  0  0  0
   27.3947   34.3986   21.1968 C   0  0  0  0  0  0  0  0  0  0  0  0
   27.3180   33.1791   21.0027 O   0  0  0  0  0  0  0  0  0  0  0  0
   28.0297   37.5411   19.1988 C   0  0  2  0  0  0  0  0  0  0  0  0
   28.4711   38.7951   19.9709 C   0  0  0  0  0  0  0  0  0  0  0  0
   28.5166   39.9761   19.1069 N   0  0  0  0  0  0  0  0  0  0  0  0
   27.1634   40.2517   18.5979 C   0  0  0  0  0  0  0  0  0  0  0  0
   26.6687   39.1072   17.7356 C   0  0  0  0  0  0  0  0  0  0  0  0
   26.6782   37.7966   18.5102 C   0  0  0  0  0  0  0  0  0  0  0  0
   26.9077   37.1569   23.7855 C   0  0  0  0  0  0  0  0  0  0  0  0
   27.1920   38.8578   23.8206 S   0  0  0  0  0  0  0  0  0  0  0  0
   26.7207   38.9661   25.4259 C   0  0  0  0  0  0  0  0  0  0  0  0
   26.3174   37.7845   25.9098 C   0  0  0  0  0  0  0  0  0  0  0  0
   26.4252   36.7296   24.9827 C   0  0  0  0  0  0  0  0  0  0  0  0
   29.0486   41.1550   19.8129 C   0  0  0  0  0  0  0  0  0  0  0  0
   28.6555   41.2799   21.2680 C   0  0  0  0  0  0  0  0  0  0  0  0
   27.4817   41.9186   21.6406 C   0  0  0  0  0  0  0  0  0  0  0  0
   27.2307   42.3833   22.8779 N   0  0  0  0  0  0  0  0  0  0  0  0
   28.2285   42.2178   23.7331 C   0  0  0  0  0  0  0  0  0  0  0  0
   29.4135   41.6691   23.5180 N   0  0  0  0  0  0  0  0  0  0  0  0
   29.6073   41.2304   22.2655 C   0  0  0  0  0  0  0  0  0  0  0  0
   27.9786   42.6891   24.9601 O   0  0  0  0  0  0  0  0  0  0  0  0
   28.6735   42.0819   26.0557 C   0  0  0  0  0  0  0  0  0  0  0  0
  1  2  2  0  0  0  0
  1  6  1  0  0  0  0
  2  3  1  0  0  0  0
  3  4  2  0  0  0  0
  4 14  1  0  0  0  0
  5  4  1  0  0  0  0
  6  5  1  0  0  0  0
  7  6  2  0  0  0  0
  8  9  1  0  0  0  0
  8  2  1  1  0  0  0
 10 19  1  0  0  0  0
 10  9  1  0  0  0  0
 11 10  1  0  0  0  0
 12 11  1  0  0  0  0
 12 13  1  0  0  0  0
 13  8  1  0  0  0  0
 14 15  1  0  0  0  0
 14 18  2  0  0  0  0
 15 16  1  0  0  0  0
 16 17  2  0  0  0  0
 18 17  1  0  0  0  0
 19 20  1  0  0  0  0
 20 25  2  0  0  0  0
 20 21  1  0  0  0  0
 21 22  2  0  0  0  0
 22 23  1  0  0  0  0
 23 26  1  0  0  0  0
 24 23  2  0  0  0  0
 25 24  1  0  0  0  0
 26 27  1  0  0  0  0
M  END
>  <CHROM.1>
-6.33316194,-161.71073873,-36.59363386,-87.60911983,153.37323425,27.66524115
38.81836361,22.02470447,2.22202973,-1.36587563,-1.98896052

>  <Name>
lig.pdb

>  <RI>
0

>  <Rbt.Current_Directory>
/home/itssahil/PROJECTS/Mol_Feturizer/New_Systems/rnas/5kx9

>  <Rbt.Executable>
rbdock ($Id: //depot/dev/client3/rdock/2013.1/src/exe/rbdock.cxx#4 $)

>  <Rbt.Library>
libRbt.so (2013.1, Build901 2013/11/27)

>  <Rbt.Parameter_File>
/export/apps/rDock/src/rDock_2013.1_src/data/scripts/dock_solv.prm

>  <Rbt.Receptor>
prm/pocket_docking_4.prm

>  <SCORE>
-36.6464

>  <SCORE.INTER>
-34.5916

>  <SCORE.INTER.CONST>
1

>  <SCORE.INTER.POLAR>
0

>  <SCORE.INTER.ROT>
5

>  <SCORE.INTER.SOLV>
13.3249

>  <SCORE.INTER.VDW>
-34.4361

>  <SCORE.INTER.norm>
-1.28117

>  <SCORE.INTRA>
-2.0548

>  <SCORE.INTRA.DIHEDRAL>
0.622798

>  <SCORE.INTRA.DIHEDRAL.0>
2.68224

>  <SCORE.INTRA.POLAR>
0

>  <SCORE.INTRA.POLAR.0>
0

>  <SCORE.INTRA.REPUL>
0

>  <SCORE.INTRA.REPUL.0>
0

>  <SCORE.INTRA.SOLV>
0.33125

>  <SCORE.INTRA.SOLV.lig_0>
-19.4148

>  <SCORE.INTRA.VDW>
-2.53182

>  <SCORE.INTRA.VDW.0>
5.42093

>  <SCORE.INTRA.norm>
-0.0761037

>  <SCORE.RESTR>
0

>  <SCORE.RESTR.CAVITY>
0

>  <SCORE.RESTR.norm>
0

>  <SCORE.SYSTEM>
0

>  <SCORE.SYSTEM.CONST>
0

>  <SCORE.SYSTEM.DIHEDRAL>
0

>  <SCORE.SYSTEM.SOLV>
0

>  <SCORE.SYSTEM.norm>
0

>  <SCORE.heavy>
27

>  <SCORE.norm>
-1.35727

>  <RMSD>
0.841

$$$$
lig.pdb
 OpenBabel11021811523D
libRbt.so/2013.1/901 2013/11/27
 27 30  0  0  0  0  0  0  0  0999 V2000
   27.7648   35.2685   20.1376 N   0  0  0  0  0  0  0  0  0  0  0  0
   27.8008   36.5599   20.3552 C   0  0  0  0  0  0  0  0  0  0  0  0
   27.4920   37.1567   21.5340 N   0  0  0  0  0  0  0  0  0  0  0  0
   27.1624   36.3679   22.6000 C   0  0  0  0  0  0  0  0  0  0  0  0
   27.1271   35.0090   22.4715 C   0  0  0  0  0  0  0  0  0  0  0  0
   27.4224   34.4180   21.1880 C   0  0  0  0  0  0  0  0  0  0  0  0
   27.3598   33.1998   20.9804 O   0  0  0  0  0  0  0  0  0  0  0  0
   28.0264   37.5890   19.2257 C   0  0  2  0  0  0  0  0  0  0  0  0
   28.4801   38.8308   20.0103 C   0  0  0  0  0  0  0  0  0  0  0  0
   28.5201   40.0234   19.1622 N   0  0  0  0  0  0  0  0  0  0  0  0
   27.1625   40.3102   18.6715 C   0  0  0  0  0  0  0  0  0  0  0  0
   26.6550   39.1792   17.7988 C   0  0  0  0  0  0  0  0  0  0  0  0
   26.6685   37.8581   18.5551 C   0  0  0  0  0  0  0  0  0  0  0  0
   26.8988   37.1423   23.8054 C   0  0  0  0  0  0  0  0  0  0  0  0
   27.2578   38.8271   23.8921 S   0  0  0  0  0  0  0  0  0  0  0  0
   26.7285   38.9213   25.4802 C   0  0  0  0  0  0  0  0  0  0  0  0
   26.2536   37.7491   25.9197 C   0  0  0  0  0  0  0  0  0  0  0  0
   26.3505   36.7111   24.9724 C   0  0  0  0  0  0  0  0  0  0  0  0
   29.0635   41.1908   19.8786 C   0  0  0  0  0  0  0  0  0  0  0  0
   28.7030   41.2861   21.3444 C   0  0  0  0  0  0  0  0  0  0  0  0
   27.5133   41.8713   21.7528 C   0  0  0  0  0  0  0  0  0  0  0  0
   27.2749   42.3139   23.0007 N   0  0  0  0  0  0  0  0  0  0  0  0
   28.3004   42.1830   23.8287 C   0  0  0  0  0  0  0  0  0  0  0  0
   29.5015   41.6869   23.5783 N   0  0  0  0  0  0  0  0  0  0  0  0
   29.6813   41.2679   22.3170 C   0  0  0  0  0  0  0  0  0  0  0  0
   28.0624   42.6324   25.0663 O   0  0  0  0  0  0  0  0  0  0  0  0
   28.7777   42.0149   26.1427 C   0  0  0  0  0  0  0  0  0  0  0  0
  1  2  2  0  0  0  0
  1  6  1  0  0  0  0
  2  3  1  0  0  0  0
  3  4  2  0  0  0  0
  4 14  1  0  0  0  0
  5  4  1  0  0  0  0
  6  5  1  0  0  0  0
  7  6  2  0  0  0  0
  8  9  1  0  0  0  0
  8  2  1  1  0  0  0
 10 19  1  0  0  0  0
 10  9  1  0  0  0  0
 11 10  1  0  0  0  0
 12 11  1  0  0  0  0
 12 13  1  0  0  0  0
 13  8  1  0  0  0  0
 14 15  1  0  0  0  0
 14 18  2  0  0  0  0
 15 16  1  0  0  0  0
 16 17  2  0  0  0  0
 18 17  1  0  0  0  0
 19 20  1  0  0  0  0
 20 25  2  0  0  0  0
 20 21  1  0  0  0  0
 21 22  2  0  0  0  0
 22 23  1  0  0  0  0
 23 26  1  0  0  0  0
 24 23  2  0  0  0  0
 25 24  1  0  0  0  0
 26 27  1  0  0  0  0
M  END
>  <CHROM.1>
-10.27324803,-160.59274851,-35.73332331,-85.35049524,151.35155532,27.68990353
38.82137344,22.07238892,2.24854490,-1.35748226,-1.94934841

>  <Name>
lig.pdb

>  <RI>
0

>  <Rbt.Current_Directory>
/home/itssahil/PROJECTS/Mol_Feturizer/New_Systems/rnas/5kx9

>  <Rbt.Executable>
rbdock ($Id: //depot/dev/client3/rdock/2013.1/src/exe/rbdock.cxx#4 $)

>  <Rbt.Library>
libRbt.so (2013.1, Build901 2013/11/27)

>  <Rbt.Parameter_File>
/export/apps/rDock/src/rDock_2013.1_src/data/scripts/dock_solv.prm

>  <Rbt.Receptor>
prm/pocket_docking_8.prm

>  <SCORE>
-36.5803

>  <SCORE.INTER>
-34.5213

>  <SCORE.INTER.CONST>
1

>  <SCORE.INTER.POLAR>
0

>  <SCORE.INTER.ROT>
5

>  <SCORE.INTER.SOLV>
13.2761

>  <SCORE.INTER.VDW>
-34.3729

>  <SCORE.INTER.norm>
-1.27857

>  <SCORE.INTRA>
-2.05901

>  <SCORE.INTRA.DIHEDRAL>
1.09539

>  <SCORE.INTRA.DIHEDRAL.0>
2.68224

>  <SCORE.INTRA.POLAR>
0

>  <SCORE.INTRA.POLAR.0>
0

>  <SCORE.INTRA.REPUL>
0

>  <SCORE.INTRA.REPUL.0>
0

>  <SCORE.INTRA.SOLV>
0.324087

>  <SCORE.INTRA.SOLV.lig_0>
-19.4148

>  <SCORE.INTRA.VDW>
-2.76875

>  <SCORE.INTRA.VDW.0>
5.42093

>  <SCORE.INTRA.norm>
-0.0762598

>  <SCORE.RESTR>
0

>  <SCORE.RESTR.CAVITY>
0

>  <SCORE.RESTR.norm>
0

>  <SCORE.SYSTEM>
0

>  <SCORE.SYSTEM.CONST>
0

>  <SCORE.SYSTEM.DIHEDRAL>
0

>  <SCORE.SYSTEM.SOLV>
0

>  <SCORE.SYSTEM.norm>
0

>  <SCORE.heavy>
27

>  <SCORE.norm>
-1.35483

>  <RMSD>
0.857

$$$$
lig.pdb
 OpenBabel11021811523D
libRbt.so/2013.1/901 2013/11/27
 27 30  0  0  0  0  0  0  0  0999 V2000
   27.9856   35.4261   20.0885 N   0  0  0  0  0  0  0  0  0  0  0  0
   28.1544   36.6723   20.4554 C   0  0  0  0  0  0  0  0  0  0  0  0
   27.7526   37.1924   21.6425 N   0  0  0  0  0  0  0  0  0  0  0  0
   27.1692   36.3614   22.5569 C   0  0  0  0  0  0  0  0  0  0  0  0
   26.9791   35.0401   22.2699 C   0  0  0  0  0  0  0  0  0  0  0  0
   27.3840   34.5375   20.9787 C   0  0  0  0  0  0  0  0  0  0  0  0
   27.1971   33.3663   20.6264 O   0  0  0  0  0  0  0  0  0  0  0  0
   28.6763   37.7610   19.4921 C   0  0  2  0  0  0  0  0  0  0  0  0
   27.6173   38.8639   19.6519 C   0  0  0  0  0  0  0  0  0  0  0  0
   27.7696   39.9125   18.6417 N   0  0  0  0  0  0  0  0  0  0  0  0
   27.5672   39.3270   17.3067 C   0  0  0  0  0  0  0  0  0  0  0  0
   28.6280   38.2858   17.0086 C   0  0  0  0  0  0  0  0  0  0  0  0
   28.6287   37.1895   18.0649 C   0  0  0  0  0  0  0  0  0  0  0  0
   26.8305   37.0475   23.7966 C   0  0  0  0  0  0  0  0  0  0  0  0
   27.2405   38.7032   24.0527 S   0  0  0  0  0  0  0  0  0  0  0  0
   26.5801   38.6927   25.5937 C   0  0  0  0  0  0  0  0  0  0  0  0
   26.0276   37.5103   25.8932 C   0  0  0  0  0  0  0  0  0  0  0  0
   26.1687   36.5482   24.8742 C   0  0  0  0  0  0  0  0  0  0  0  0
   26.8317   41.0279   18.8598 C   0  0  0  0  0  0  0  0  0  0  0  0
   27.1241   41.9054   20.0565 C   0  0  0  0  0  0  0  0  0  0  0  0
   28.4068   42.3708   20.3071 C   0  0  0  0  0  0  0  0  0  0  0  0
   28.8248   42.8393   21.4969 N   0  0  0  0  0  0  0  0  0  0  0  0
   27.9092   42.7885   22.4528 C   0  0  0  0  0  0  0  0  0  0  0  0
   26.6672   42.3377   22.3788 N   0  0  0  0  0  0  0  0  0  0  0  0
   26.3103   41.8785   21.1702 C   0  0  0  0  0  0  0  0  0  0  0  0
   28.3313   43.2470   23.6368 O   0  0  0  0  0  0  0  0  0  0  0  0
   29.6659   42.9144   24.0367 C   0  0  0  0  0  0  0  0  0  0  0  0
  1  2  2  0  0  0  0
  1  6  1  0  0  0  0
  2  3  1  0  0  0  0
  3  4  2  0  0  0  0
  4 14  1  0  0  0  0
  5  4  1  0  0  0  0
  6  5  1  0  0  0  0
  7  6  2  0  0  0  0
  8  9  1  0  0  0  0
  8  2  1  1  0  0  0
 10 19  1  0  0  0  0
 10  9  1  0  0  0  0
 11 10  1  0  0  0  0
 12 11  1  0  0  0  0
 12 13  1  0  0  0  0
 13  8  1  0  0  0  0
 14 15  1  0  0  0  0
 14 18  2  0  0  0  0
 15 16  1  0  0  0  0
 16 17  2  0  0  0  0
 18 17  1  0  0  0  0
 19 20  1  0  0  0  0
 20 25  2  0  0  0  0
 20 21  1  0  0  0  0
 21 22  2  0  0  0  0
 22 23  1  0  0  0  0
 23 26  1  0  0  0  0
 24 23  2  0  0  0  0
 25 24  1  0  0  0  0
 26 27  1  0  0  0  0
M  END
>  <CHROM.1>
-3.60002367,128.30986293,70.99438183,46.48366606,-39.90071050,27.57635002
38.89271439,21.49091405,-2.01437203,1.38608169,0.56869321

>  <Name>
lig.pdb

>  <RI>
0

>  <Rbt.Current_Directory>
/home/itssahil/PROJECTS/Mol_Feturizer/New_Systems/rnas/5kx9

>  <Rbt.Executable>
rbdock ($Id: //depot/dev/client3/rdock/2013.1/src/exe/rbdock.cxx#4 $)

>  <Rbt.Library>
libRbt.so (2013.1, Build901 2013/11/27)

>  <Rbt.Parameter_File>
/export/apps/rDock/src/rDock_2013.1_src/data/scripts/dock_solv.prm

>  <Rbt.Receptor>
prm/pocket_docking_5.prm

>  <SCORE>
-38.8476

>  <SCORE.INTER>
-35.7837

>  <SCORE.INTER.CONST>
1

>  <SCORE.INTER.POLAR>
0

>  <SCORE.INTER.ROT>
5

>  <SCORE.INTER.SOLV>
15.9707

>  <SCORE.INTER.VDW>
-36.1127

>  <SCORE.INTER.norm>
-1.32532

>  <SCORE.INTRA>
-3.06391

>  <SCORE.INTRA.DIHEDRAL>
1.46253

>  <SCORE.INTRA.DIHEDRAL.0>
2.68224

>  <SCORE.INTRA.POLAR>
0

>  <SCORE.INTRA.POLAR.0>
0

>  <SCORE.INTRA.REPUL>
0

>  <SCORE.INTRA.REPUL.0>
0

>  <SCORE.INTRA.SOLV>
-0.236671

>  <SCORE.INTRA.SOLV.lig_0>
-19.4148

>  <SCORE.INTRA.VDW>
-3.67684

>  <SCORE.INTRA.VDW.0>
5.42093

>  <SCORE.INTRA.norm>
-0.113478

>  <SCORE.RESTR>
0

>  <SCORE.RESTR.CAVITY>
0

>  <SCORE.RESTR.norm>
0

>  <SCORE.SYSTEM>
0

>  <SCORE.SYSTEM.CONST>
0

>  <SCORE.SYSTEM.DIHEDRAL>
0

>  <SCORE.SYSTEM.SOLV>
0

>  <SCORE.SYSTEM.norm>
0

>  <SCORE.heavy>
27

>  <SCORE.norm>
-1.4388

>  <RMSD>
0.863

$$$$
lig.pdb
 OpenBabel11021811523D
libRbt.so/2013.1/901 2013/11/27
 27 30  0  0  0  0  0  0  0  0999 V2000
   28.2824   36.0947   19.5456 N   0  0  0  0  0  0  0  0  0  0  0  0
   28.5253   37.2171   20.1761 C   0  0  0  0  0  0  0  0  0  0  0  0
   28.0710   37.5233   21.4174 N   0  0  0  0  0  0  0  0  0  0  0  0
   27.3444   36.5870   22.0975 C   0  0  0  0  0  0  0  0  0  0  0  0
   27.0673   35.3774   21.5279 C   0  0  0  0  0  0  0  0  0  0  0  0
   27.5348   35.1092   20.1888 C   0  0  0  0  0  0  0  0  0  0  0  0
   27.2790   34.0587   19.5872 O   0  0  0  0  0  0  0  0  0  0  0  0
   29.2169   38.4204   19.4984 C   0  0  2  0  0  0  0  0  0  0  0  0
   28.2001   39.5489   19.7353 C   0  0  0  0  0  0  0  0  0  0  0  0
   28.5296   40.7472   18.9615 N   0  0  0  0  0  0  0  0  0  0  0  0
   28.4709   40.4242   17.5268 C   0  0  0  0  0  0  0  0  0  0  0  0
   29.5100   39.3808   17.1665 C   0  0  0  0  0  0  0  0  0  0  0  0
   29.3240   38.1168   17.9943 C   0  0  0  0  0  0  0  0  0  0  0  0
   26.9625   37.0378   23.4291 C   0  0  0  0  0  0  0  0  0  0  0  0
   27.3198   38.6332   23.9787 S   0  0  0  0  0  0  0  0  0  0  0  0
   26.6307   38.3377   25.4783 C   0  0  0  0  0  0  0  0  0  0  0  0
   26.1068   37.1078   25.5546 C   0  0  0  0  0  0  0  0  0  0  0  0
   26.2949   36.3419   24.3875 C   0  0  0  0  0  0  0  0  0  0  0  0
   27.6259   41.8690   19.2717 C   0  0  0  0  0  0  0  0  0  0  0  0
   27.6045   42.3126   20.7175 C   0  0  0  0  0  0  0  0  0  0  0  0
   28.7820   42.5496   21.4116 C   0  0  0  0  0  0  0  0  0  0  0  0
   28.8761   42.5947   22.7529 N   0  0  0  0  0  0  0  0  0  0  0  0
   27.7381   42.3516   23.3857 C   0  0  0  0  0  0  0  0  0  0  0  0
   26.5528   42.0713   22.8679 N   0  0  0  0  0  0  0  0  0  0  0  0
   26.5229   42.0346   21.5276 C   0  0  0  0  0  0  0  0  0  0  0  0
   27.8375   42.3885   24.7194 O   0  0  0  0  0  0  0  0  0  0  0  0
   28.7851   41.5091   25.3362 C   0  0  0  0  0  0  0  0  0  0  0  0
  1  2  2  0  0  0  0
  1  6  1  0  0  0  0
  2  3  1  0  0  0  0
  3  4  2  0  0  0  0
  4 14  1  0  0  0  0
  5  4  1  0  0  0  0
  6  5  1  0  0  0  0
  7  6  2  0  0  0  0
  8  9  1  0  0  0  0
  8  2  1  1  0  0  0
 10 19  1  0  0  0  0
 10  9  1  0  0  0  0
 11 10  1  0  0  0  0
 12 11  1  0  0  0  0
 12 13  1  0  0  0  0
 13  8  1  0  0  0  0
 14 15  1  0  0  0  0
 14 18  2  0  0  0  0
 15 16  1  0  0  0  0
 16 17  2  0  0  0  0
 18 17  1  0  0  0  0
 19 20  1  0  0  0  0
 20 25  2  0  0  0  0
 20 21  1  0  0  0  0
 21 22  2  0  0  0  0
 22 23  1  0  0  0  0
 23 26  1  0  0  0  0
 24 23  2  0  0  0  0
 25 24  1  0  0  0  0
 26 27  1  0  0  0  0
M  END
>  <CHROM.1>
4.19549350,124.64005155,59.01278964,48.76021228,-57.28078353,27.80617018
39.09727591,21.59552213,1.39542242,-1.29985606,-2.68782621

>  <Name>
lig.pdb

>  <RI>
0

>  <Rbt.Current_Directory>
/home/itssahil/PROJECTS/Mol_Feturizer/New_Systems/rnas/5kx9

>  <Rbt.Executable>
rbdock ($Id: //depot/dev/client3/rdock/2013.1/src/exe/rbdock.cxx#4 $)

>  <Rbt.Library>
libRbt.so (2013.1, Build901 2013/11/27)

>  <Rbt.Parameter_File>
/export/apps/rDock/src/rDock_2013.1_src/data/scripts/dock_solv.prm

>  <Rbt.Receptor>
prm/pocket_docking_5.prm

>  <SCORE>
-36.6659

>  <SCORE.INTER>
-32.7

>  <SCORE.INTER.CONST>
1

>  <SCORE.INTER.POLAR>
0

>  <SCORE.INTER.ROT>
5

>  <SCORE.INTER.SOLV>
12.7685

>  <SCORE.INTER.VDW>
-32.9895

>  <SCORE.INTER.norm>
-1.21111

>  <SCORE.INTRA>
-3.9658

>  <SCORE.INTRA.DIHEDRAL>
2.6402

>  <SCORE.INTRA.DIHEDRAL.0>
2.68224

>  <SCORE.INTRA.POLAR>
0

>  <SCORE.INTRA.POLAR.0>
0

>  <SCORE.INTRA.REPUL>
0

>  <SCORE.INTRA.REPUL.0>
0

>  <SCORE.INTRA.SOLV>
0.114195

>  <SCORE.INTRA.SOLV.lig_0>
-19.4148

>  <SCORE.INTRA.VDW>
-5.343

>  <SCORE.INTRA.VDW.0>
5.42093

>  <SCORE.INTRA.norm>
-0.146882

>  <SCORE.RESTR>
0

>  <SCORE.RESTR.CAVITY>
0

>  <SCORE.RESTR.norm>
0

>  <SCORE.SYSTEM>
0

>  <SCORE.SYSTEM.CONST>
0

>  <SCORE.SYSTEM.DIHEDRAL>
0

>  <SCORE.SYSTEM.SOLV>
0

>  <SCORE.SYSTEM.norm>
0

>  <SCORE.heavy>
27

>  <SCORE.norm>
-1.35799

>  <RMSD>
0.871

$$$$
lig.pdb
 OpenBabel11021811523D
libRbt.so/2013.1/901 2013/11/27
 27 30  0  0  0  0  0  0  0  0999 V2000
   27.9961   35.4031   20.0970 N   0  0  0  0  0  0  0  0  0  0  0  0
   28.1610   36.6521   20.4561 C   0  0  0  0  0  0  0  0  0  0  0  0
   27.7586   37.1781   21.6404 N   0  0  0  0  0  0  0  0  0  0  0  0
   27.1791   36.3507   22.5605 C   0  0  0  0  0  0  0  0  0  0  0  0
   26.9932   35.0270   22.2818 C   0  0  0  0  0  0  0  0  0  0  0  0
   27.3984   34.5180   20.9932 C   0  0  0  0  0  0  0  0  0  0  0  0
   27.2151   33.3440   20.6483 O   0  0  0  0  0  0  0  0  0  0  0  0
   28.6781   37.7367   19.4856 C   0  0  2  0  0  0  0  0  0  0  0  0
   27.6137   38.8355   19.6372 C   0  0  0  0  0  0  0  0  0  0  0  0
   27.7615   39.8779   18.6199 N   0  0  0  0  0  0  0  0  0  0  0  0
   27.5627   39.2822   17.2888 C   0  0  0  0  0  0  0  0  0  0  0  0
   28.6287   38.2442   16.9985 C   0  0  0  0  0  0  0  0  0  0  0  0
   28.6341   37.1552   18.0623 C   0  0  0  0  0  0  0  0  0  0  0  0
   26.8393   37.0432   23.7963 C   0  0  0  0  0  0  0  0  0  0  0  0
   27.2487   38.7003   24.0441 S   0  0  0  0  0  0  0  0  0  0  0  0
   26.5872   38.6977   25.5846 C   0  0  0  0  0  0  0  0  0  0  0  0
   26.0349   37.5167   25.8900 C   0  0  0  0  0  0  0  0  0  0  0  0
   26.1769   36.5493   24.8761 C   0  0  0  0  0  0  0  0  0  0  0  0
   26.8180   40.9901   18.8298 C   0  0  0  0  0  0  0  0  0  0  0  0
   27.0999   41.8715   20.0262 C   0  0  0  0  0  0  0  0  0  0  0  0
   28.3851   42.3148   20.3023 C   0  0  0  0  0  0  0  0  0  0  0  0
   28.7849   42.7849   21.4978 N   0  0  0  0  0  0  0  0  0  0  0  0
   27.8473   42.7587   22.4330 C   0  0  0  0  0  0  0  0  0  0  0  0
   26.5989   42.3307   22.3341 N   0  0  0  0  0  0  0  0  0  0  0  0
   26.2608   41.8687   21.1213 C   0  0  0  0  0  0  0  0  0  0  0  0
   28.2512   43.2187   23.6227 O   0  0  0  0  0  0  0  0  0  0  0  0
   29.5370   42.7971   24.0925 C   0  0  0  0  0  0  0  0  0  0  0  0
  1  2  2  0  0  0  0
  1  6  1  0  0  0  0
  2  3  1  0  0  0  0
  3  4  2  0  0  0  0
  4 14  1  0  0  0  0
  5  4  1  0  0  0  0
  6  5  1  0  0  0  0
  7  6  2  0  0  0  0
  8  9  1  0  0  0  0
  8  2  1  1  0  0  0
 10 19  1  0  0  0  0
 10  9  1  0  0  0  0
 11 10  1  0  0  0  0
 12 11  1  0  0  0  0
 12 13  1  0  0  0  0
 13  8  1  0  0  0  0
 14 15  1  0  0  0  0
 14 18  2  0  0  0  0
 15 16  1  0  0  0  0
 16 17  2  0  0  0  0
 18 17  1  0  0  0  0
 19 20  1  0  0  0  0
 20 25  2  0  0  0  0
 20 21  1  0  0  0  0
 21 22  2  0  0  0  0
 22 23  1  0  0  0  0
 23 26  1  0  0  0  0
 24 23  2  0  0  0  0
 25 24  1  0  0  0  0
 26 27  1  0  0  0  0
M  END
>  <CHROM.1>
-3.80922047,128.17641924,70.58439375,44.84459674,-43.67642269,27.56263498
38.86722531,21.48484228,-1.94565272,1.39277875,0.51073480

>  <Name>
lig.pdb

>  <RI>
0

>  <Rbt.Current_Directory>
/home/itssahil/PROJECTS/Mol_Feturizer/New_Systems/rnas/5kx9

>  <Rbt.Executable>
rbdock ($Id: //depot/dev/client3/rdock/2013.1/src/exe/rbdock.cxx#4 $)

>  <Rbt.Library>
libRbt.so (2013.1, Build901 2013/11/27)

>  <Rbt.Parameter_File>
/export/apps/rDock/src/rDock_2013.1_src/data/scripts/dock_solv.prm

>  <Rbt.Receptor>
prm/pocket_docking_6.prm

>  <SCORE>
-38.7949

>  <SCORE.INTER>
-35.5922

>  <SCORE.INTER.CONST>
1

>  <SCORE.INTER.POLAR>
0

>  <SCORE.INTER.ROT>
5

>  <SCORE.INTER.SOLV>
15.9037

>  <SCORE.INTER.VDW>
-35.9627

>  <SCORE.INTER.norm>
-1.31823

>  <SCORE.INTRA>
-3.20267

>  <SCORE.INTRA.DIHEDRAL>
1.73176

>  <SCORE.INTRA.DIHEDRAL.0>
2.68224

>  <SCORE.INTRA.POLAR>
0

>  <SCORE.INTRA.POLAR.0>
0

>  <SCORE.INTRA.REPUL>
0

>  <SCORE.INTRA.REPUL.0>
0

>  <SCORE.INTRA.SOLV>
-0.232964

>  <SCORE.INTRA.SOLV.lig_0>
-19.4148

>  <SCORE.INTRA.VDW>
-3.95206

>  <SCORE.INTRA.VDW.0>
5.42093

>  <SCORE.INTRA.norm>
-0.118617

>  <SCORE.RESTR>
0

>  <SCORE.RESTR.CAVITY>
0

>  <SCORE.RESTR.norm>
0

>  <SCORE.SYSTEM>
0

>  <SCORE.SYSTEM.CONST>
0

>  <SCORE.SYSTEM.DIHEDRAL>
0

>  <SCORE.SYSTEM.SOLV>
0

>  <SCORE.SYSTEM.norm>
0

>  <SCORE.heavy>
27

>  <SCORE.norm>
-1.43685

>  <RMSD>
0.882

$$$$
lig.pdb
 OpenBabel11021811523D
libRbt.so/2013.1/901 2013/11/27
 27 30  0  0  0  0  0  0  0  0999 V2000
   27.9703   35.3891   20.1033 N   0  0  0  0  0  0  0  0  0  0  0  0
   28.1513   36.6341   20.4689 C   0  0  0  0  0  0  0  0  0  0  0  0
   27.7521   37.1602   21.6541 N   0  0  0  0  0  0  0  0  0  0  0  0
   27.1577   36.3367   22.5684 C   0  0  0  0  0  0  0  0  0  0  0  0
   26.9545   35.0171   22.2829 C   0  0  0  0  0  0  0  0  0  0  0  0
   27.3572   34.5083   20.9934 C   0  0  0  0  0  0  0  0  0  0  0  0
   27.1588   33.3386   20.6424 O   0  0  0  0  0  0  0  0  0  0  0  0
   28.6870   37.7157   19.5052 C   0  0  2  0  0  0  0  0  0  0  0  0
   27.6273   38.8209   19.6439 C   0  0  0  0  0  0  0  0  0  0  0  0
   27.7940   39.8626   18.6288 N   0  0  0  0  0  0  0  0  0  0  0  0
   27.6083   39.2684   17.2952 C   0  0  0  0  0  0  0  0  0  0  0  0
   28.6716   38.2241   17.0178 C   0  0  0  0  0  0  0  0  0  0  0  0
   28.6573   37.1349   18.0813 C   0  0  0  0  0  0  0  0  0  0  0  0
   26.8232   37.0282   23.8062 C   0  0  0  0  0  0  0  0  0  0  0  0
   27.2447   38.6816   24.0585 S   0  0  0  0  0  0  0  0  0  0  0  0
   26.5834   38.6795   25.5991 C   0  0  0  0  0  0  0  0  0  0  0  0
   26.0225   37.5018   25.9013 C   0  0  0  0  0  0  0  0  0  0  0  0
   26.1574   36.5362   24.8847 C   0  0  0  0  0  0  0  0  0  0  0  0
   26.8547   40.9804   18.8273 C   0  0  0  0  0  0  0  0  0  0  0  0
   27.1336   41.8667   20.0207 C   0  0  0  0  0  0  0  0  0  0  0  0
   28.4142   42.3303   20.2848 C   0  0  0  0  0  0  0  0  0  0  0  0
   28.8176   42.8072   21.4763 N   0  0  0  0  0  0  0  0  0  0  0  0
   27.8892   42.7668   22.4202 C   0  0  0  0  0  0  0  0  0  0  0  0
   26.6468   42.3192   22.3330 N   0  0  0  0  0  0  0  0  0  0  0  0
   26.3048   41.8512   21.1235 C   0  0  0  0  0  0  0  0  0  0  0  0
   28.2967   43.2336   23.6060 O   0  0  0  0  0  0  0  0  0  0  0  0
   29.6073   42.8612   24.0480 C   0  0  0  0  0  0  0  0  0  0  0  0
  1  2  2  0  0  0  0
  1  6  1  0  0  0  0
  2  3  1  0  0  0  0
  3  4  2  0  0  0  0
  4 14  1  0  0  0  0
  5  4  1  0  0  0  0
  6  5  1  0  0  0  0
  7  6  2  0  0  0  0
  8  9  1  0  0  0  0
  8  2  1  1  0  0  0
 10 19  1  0  0  0  0
 10  9  1  0  0  0  0
 11 10  1  0  0  0  0
 12 11  1  0  0  0  0
 12 13  1  0  0  0  0
 13  8  1  0  0  0  0
 14 15  1  0  0  0  0
 14 18  2  0  0  0  0
 15 16  1  0  0  0  0
 16 17  2  0  0  0  0
 18 17  1  0  0  0  0
 19 20  1  0  0  0  0
 20 25  2  0  0  0  0
 20 21  1  0  0  0  0
 21 22  2  0  0  0  0
 22 23  1  0  0  0  0
 23 26  1  0  0  0  0
 24 23  2  0  0  0  0
 25 24  1  0  0  0  0
 26 27  1  0  0  0  0
M  END
>  <CHROM.1>
-3.36327498,127.44866737,71.07876497,46.33030027,-42.06347149,27.57323819
38.85999229,21.48711508,-2.00151561,1.38260423,0.54928325

>  <Name>
lig.pdb

>  <RI>
0

>  <Rbt.Current_Directory>
/home/itssahil/PROJECTS/Mol_Feturizer/New_Systems/rnas/5kx9

>  <Rbt.Executable>
rbdock ($Id: //depot/dev/client3/rdock/2013.1/src/exe/rbdock.cxx#4 $)

>  <Rbt.Library>
libRbt.so (2013.1, Build901 2013/11/27)

>  <Rbt.Parameter_File>
/export/apps/rDock/src/rDock_2013.1_src/data/scripts/dock_solv.prm

>  <Rbt.Receptor>
prm/pocket_docking_3.prm

>  <SCORE>
-38.8496

>  <SCORE.INTER>
-35.6457

>  <SCORE.INTER.CONST>
1

>  <SCORE.INTER.POLAR>
0

>  <SCORE.INTER.ROT>
5

>  <SCORE.INTER.SOLV>
15.9395

>  <SCORE.INTER.VDW>
-36.0103

>  <SCORE.INTER.norm>
-1.32021

>  <SCORE.INTRA>
-3.20395

>  <SCORE.INTRA.DIHEDRAL>
1.62694

>  <SCORE.INTRA.DIHEDRAL.0>
2.68224

>  <SCORE.INTRA.POLAR>
0

>  <SCORE.INTRA.POLAR.0>
0

>  <SCORE.INTRA.REPUL>
0

>  <SCORE.INTRA.REPUL.0>
0

>  <SCORE.INTRA.SOLV>
-0.245813

>  <SCORE.INTRA.SOLV.lig_0>
-19.4148

>  <SCORE.INTRA.VDW>
-3.89451

>  <SCORE.INTRA.VDW.0>
5.42093

>  <SCORE.INTRA.norm>
-0.118665

>  <SCORE.RESTR>
0

>  <SCORE.RESTR.CAVITY>
0

>  <SCORE.RESTR.norm>
0

>  <SCORE.SYSTEM>
0

>  <SCORE.SYSTEM.CONST>
0

>  <SCORE.SYSTEM.DIHEDRAL>
0

>  <SCORE.SYSTEM.SOLV>
0

>  <SCORE.SYSTEM.norm>
0

>  <SCORE.heavy>
27

>  <SCORE.norm>
-1.43888

>  <RMSD>
0.885

$$$$
lig.pdb
 OpenBabel11021811523D
libRbt.so/2013.1/901 2013/11/27
 27 30  0  0  0  0  0  0  0  0999 V2000
   27.9634   35.3889   20.1112 N   0  0  0  0  0  0  0  0  0  0  0  0
   28.1502   36.6339   20.4739 C   0  0  0  0  0  0  0  0  0  0  0  0
   27.7583   37.1632   21.6602 N   0  0  0  0  0  0  0  0  0  0  0  0
   27.1656   36.3431   22.5785 C   0  0  0  0  0  0  0  0  0  0  0  0
   26.9567   35.0237   22.2961 C   0  0  0  0  0  0  0  0  0  0  0  0
   27.3516   34.5116   21.0056 C   0  0  0  0  0  0  0  0  0  0  0  0
   27.1478   33.3419   20.6574 O   0  0  0  0  0  0  0  0  0  0  0  0
   28.6848   37.7122   19.5060 C   0  0  2  0  0  0  0  0  0  0  0  0
   27.6270   38.8192   19.6444 C   0  0  0  0  0  0  0  0  0  0  0  0
   27.7925   39.8580   18.6262 N   0  0  0  0  0  0  0  0  0  0  0  0
   27.6025   39.2605   17.2946 C   0  0  0  0  0  0  0  0  0  0  0  0
   28.6637   38.2140   17.0173 C   0  0  0  0  0  0  0  0  0  0  0  0
   28.6507   37.1276   18.0837 C   0  0  0  0  0  0  0  0  0  0  0  0
   26.8392   37.0377   23.8168 C   0  0  0  0  0  0  0  0  0  0  0  0
   27.2648   38.6909   24.0633 S   0  0  0  0  0  0  0  0  0  0  0  0
   26.6123   38.6930   25.6077 C   0  0  0  0  0  0  0  0  0  0  0  0
   26.0512   37.5168   25.9154 C   0  0  0  0  0  0  0  0  0  0  0  0
   26.1788   36.5490   24.9000 C   0  0  0  0  0  0  0  0  0  0  0  0
   26.8552   40.9776   18.8241 C   0  0  0  0  0  0  0  0  0  0  0  0
   27.1377   41.8658   20.0152 C   0  0  0  0  0  0  0  0  0  0  0  0
   28.4179   42.3351   20.2712 C   0  0  0  0  0  0  0  0  0  0  0  0
   28.8265   42.8145   21.4599 N   0  0  0  0  0  0  0  0  0  0  0  0
   27.9040   42.7707   22.4095 C   0  0  0  0  0  0  0  0  0  0  0  0
   26.6631   42.3176   22.3302 N   0  0  0  0  0  0  0  0  0  0  0  0
   26.3157   41.8475   21.1231 C   0  0  0  0  0  0  0  0  0  0  0  0
   28.3168   43.2401   23.5925 O   0  0  0  0  0  0  0  0  0  0  0  0
   29.6070   42.8238   24.0550 C   0  0  0  0  0  0  0  0  0  0  0  0
  1  2  2  0  0  0  0
  1  6  1  0  0  0  0
  2  3  1  0  0  0  0
  3  4  2  0  0  0  0
  4 14  1  0  0  0  0
  5  4  1  0  0  0  0
  6  5  1  0  0  0  0
  7  6  2  0  0  0  0
  8  9  1  0  0  0  0
  8  2  1  1  0  0  0
 10 19  1  0  0  0  0
 10  9  1  0  0  0  0
 11 10  1  0  0  0  0
 12 11  1  0  0  0  0
 12 13  1  0  0  0  0
 13  8  1  0  0  0  0
 14 15  1  0  0  0  0
 14 18  2  0  0  0  0
 15 16  1  0  0  0  0
 16 17  2  0  0  0  0
 18 17  1  0  0  0  0
 19 20  1  0  0  0  0
 20 25  2  0  0  0  0
 20 21  1  0  0  0  0
 21 22  2  0  0  0  0
 22 23  1  0  0  0  0
 23 26  1  0  0  0  0
 24 23  2  0  0  0  0
 25 24  1  0  0  0  0
 26 27  1  0  0  0  0
M  END
>  <CHROM.1>
-3.25008716,127.27240244,71.01853984,46.75485758,-44.87449144,27.57972105
38.86101870,21.48952189,-2.01788807,1.38607263,0.56325365

>  <Name>
lig.pdb

>  <RI>
0

>  <Rbt.Current_Directory>
/home/itssahil/PROJECTS/Mol_Feturizer/New_Systems/rnas/5kx9

>  <Rbt.Executable>
rbdock ($Id: //depot/dev/client3/rdock/2013.1/src/exe/rbdock.cxx#4 $)

>  <Rbt.Library>
libRbt.so (2013.1, Build901 2013/11/27)

>  <Rbt.Parameter_File>
/export/apps/rDock/src/rDock_2013.1_src/data/scripts/dock_solv.prm

>  <Rbt.Receptor>
prm/pocket_docking_3.prm

>  <SCORE>
-38.8283

>  <SCORE.INTER>
-35.5385

>  <SCORE.INTER.CONST>
1

>  <SCORE.INTER.POLAR>
0

>  <SCORE.INTER.ROT>
5

>  <SCORE.INTER.SOLV>
15.9122

>  <SCORE.INTER.VDW>
-35.9297

>  <SCORE.INTER.norm>
-1.31624

>  <SCORE.INTRA>
-3.28988

>  <SCORE.INTRA.DIHEDRAL>
1.86437

>  <SCORE.INTRA.DIHEDRAL.0>
2.68224

>  <SCORE.INTRA.POLAR>
0

>  <SCORE.INTRA.POLAR.0>
0

>  <SCORE.INTRA.REPUL>
0

>  <SCORE.INTRA.REPUL.0>
0

>  <SCORE.INTRA.SOLV>
-0.243308

>  <SCORE.INTRA.SOLV.lig_0>
-19.4148

>  <SCORE.INTRA.VDW>
-4.10041

>  <SCORE.INTRA.VDW.0>
5.42093

>  <SCORE.INTRA.norm>
-0.121847

>  <SCORE.RESTR>
0

>  <SCORE.RESTR.CAVITY>
0

>  <SCORE.RESTR.norm>
0

>  <SCORE.SYSTEM>
0

>  <SCORE.SYSTEM.CONST>
0

>  <SCORE.SYSTEM.DIHEDRAL>
0

>  <SCORE.SYSTEM.SOLV>
0

>  <SCORE.SYSTEM.norm>
0

>  <SCORE.heavy>
27

>  <SCORE.norm>
-1.43809

>  <RMSD>
0.887

$$$$
lig.pdb
 OpenBabel11021811523D
libRbt.so/2013.1/901 2013/11/27
 27 30  0  0  0  0  0  0  0  0999 V2000
   27.7068   35.2780   20.0515 N   0  0  0  0  0  0  0  0  0  0  0  0
   27.7093   36.5649   20.2968 C   0  0  0  0  0  0  0  0  0  0  0  0
   27.3907   37.1276   21.4897 N   0  0  0  0  0  0  0  0  0  0  0  0
   27.0881   36.3074   22.5399 C   0  0  0  0  0  0  0  0  0  0  0  0
   27.0886   34.9512   22.3821 C   0  0  0  0  0  0  0  0  0  0  0  0
   27.3928   34.3961   21.0847 C   0  0  0  0  0  0  0  0  0  0  0  0
   27.3619   33.1815   20.8511 O   0  0  0  0  0  0  0  0  0  0  0  0
   27.9013   37.6238   19.1889 C   0  0  2  0  0  0  0  0  0  0  0  0
   28.5255   38.7928   19.9683 C   0  0  0  0  0  0  0  0  0  0  0  0
   28.5739   40.0158   19.1651 N   0  0  0  0  0  0  0  0  0  0  0  0
   27.2008   40.4232   18.8264 C   0  0  0  0  0  0  0  0  0  0  0  0
   26.5231   39.3726   17.9690 C   0  0  0  0  0  0  0  0  0  0  0  0
   26.5087   38.0217   18.6708 C   0  0  0  0  0  0  0  0  0  0  0  0
   26.8100   37.0482   23.7630 C   0  0  0  0  0  0  0  0  0  0  0  0
   27.2498   38.7074   23.9329 S   0  0  0  0  0  0  0  0  0  0  0  0
   26.6550   38.7689   25.4992 C   0  0  0  0  0  0  0  0  0  0  0  0
   26.1019   37.6074   25.8703 C   0  0  0  0  0  0  0  0  0  0  0  0
   26.1885   36.6025   24.8871 C   0  0  0  0  0  0  0  0  0  0  0  0
   29.2745   41.1070   19.8649 C   0  0  0  0  0  0  0  0  0  0  0  0
   28.7503   41.4447   21.2427 C   0  0  0  0  0  0  0  0  0  0  0  0
   27.5529   42.1260   21.4064 C   0  0  0  0  0  0  0  0  0  0  0  0
   27.1932   42.7680   22.5326 N   0  0  0  0  0  0  0  0  0  0  0  0
   28.1065   42.7361   23.4914 C   0  0  0  0  0  0  0  0  0  0  0  0
   29.3014   42.1674   23.4705 N   0  0  0  0  0  0  0  0  0  0  0  0
   29.6057   41.5485   22.3202 C   0  0  0  0  0  0  0  0  0  0  0  0
   27.7489   43.3832   24.6066 O   0  0  0  0  0  0  0  0  0  0  0  0
   28.4780   43.0893   25.8040 C   0  0  0  0  0  0  0  0  0  0  0  0
  1  2  2  0  0  0  0
  1  6  1  0  0  0  0
  2  3  1  0  0  0  0
  3  4  2  0  0  0  0
  4 14  1  0  0  0  0
  5  4  1  0  0  0  0
  6  5  1  0  0  0  0
  7  6  2  0  0  0  0
  8  9  1  0  0  0  0
  8  2  1  1  0  0  0
 10 19  1  0  0  0  0
 10  9  1  0  0  0  0
 11 10  1  0  0  0  0
 12 11  1  0  0  0  0
 12 13  1  0  0  0  0
 13  8  1  0  0  0  0
 14 15  1  0  0  0  0
 14 18  2  0  0  0  0
 15 16  1  0  0  0  0
 16 17  2  0  0  0  0
 18 17  1  0  0  0  0
 19 20  1  0  0  0  0
 20 25  2  0  0  0  0
 20 21  1  0  0  0  0
 21 22  2  0  0  0  0
 22 23  1  0  0  0  0
 23 26  1  0  0  0  0
 24 23  2  0  0  0  0
 25 24  1  0  0  0  0
 26 27  1  0  0  0  0
M  END
>  <CHROM.1>
-15.67264822,-152.46717895,-54.39118381,-73.87551853,162.57735322,27.61693494
38.95041548,21.98422056,-2.23575299,1.35640804,1.01120697

>  <Name>
lig.pdb

>  <RI>
0

>  <Rbt.Current_Directory>
/home/itssahil/PROJECTS/Mol_Feturizer/New_Systems/rnas/5kx9

>  <Rbt.Executable>
rbdock ($Id: //depot/dev/client3/rdock/2013.1/src/exe/rbdock.cxx#4 $)

>  <Rbt.Library>
libRbt.so (2013.1, Build901 2013/11/27)

>  <Rbt.Parameter_File>
/export/apps/rDock/src/rDock_2013.1_src/data/scripts/dock_solv.prm

>  <Rbt.Receptor>
prm/pocket_docking_2.prm

>  <SCORE>
-38.1274

>  <SCORE.INTER>
-35.889

>  <SCORE.INTER.CONST>
1

>  <SCORE.INTER.POLAR>
0

>  <SCORE.INTER.ROT>
5

>  <SCORE.INTER.SOLV>
15.0464

>  <SCORE.INTER.VDW>
-35.8748

>  <SCORE.INTER.norm>
-1.32922

>  <SCORE.INTRA>
-2.68771

>  <SCORE.INTRA.DIHEDRAL>
0.302988

>  <SCORE.INTRA.DIHEDRAL.0>
2.68224

>  <SCORE.INTRA.POLAR>
0

>  <SCORE.INTRA.POLAR.0>
0

>  <SCORE.INTRA.REPUL>
0

>  <SCORE.INTRA.REPUL.0>
0

>  <SCORE.INTRA.SOLV>
-0.156674

>  <SCORE.INTRA.SOLV.lig_0>
-19.4148

>  <SCORE.INTRA.VDW>
-2.76086

>  <SCORE.INTRA.VDW.0>
5.42093

>  <SCORE.INTRA.norm>
-0.0995447

>  <SCORE.RESTR>
0.449269

>  <SCORE.RESTR.CAVITY>
0.449269

>  <SCORE.RESTR.norm>
0.0166396

>  <SCORE.SYSTEM>
0

>  <SCORE.SYSTEM.CONST>
0

>  <SCORE.SYSTEM.DIHEDRAL>
0

>  <SCORE.SYSTEM.SOLV>
0

>  <SCORE.SYSTEM.norm>
0

>  <SCORE.heavy>
27

>  <SCORE.norm>
-1.41213

>  <RMSD>
0.900

$$$$
lig.pdb
 OpenBabel11021811523D
libRbt.so/2013.1/901 2013/11/27
 27 30  0  0  0  0  0  0  0  0999 V2000
   27.7414   35.3453   20.0323 N   0  0  0  0  0  0  0  0  0  0  0  0
   27.7223   36.6279   20.2985 C   0  0  0  0  0  0  0  0  0  0  0  0
   27.3909   37.1658   21.4993 N   0  0  0  0  0  0  0  0  0  0  0  0
   27.0983   36.3239   22.5349 C   0  0  0  0  0  0  0  0  0  0  0  0
   27.1212   34.9705   22.3551 C   0  0  0  0  0  0  0  0  0  0  0  0
   27.4385   34.4417   21.0500 C   0  0  0  0  0  0  0  0  0  0  0  0
   27.4279   33.2307   20.7965 O   0  0  0  0  0  0  0  0  0  0  0  0
   27.9006   37.7077   19.2086 C   0  0  2  0  0  0  0  0  0  0  0  0
   28.5341   38.8619   20.0024 C   0  0  0  0  0  0  0  0  0  0  0  0
   28.5725   40.0999   19.2219 N   0  0  0  0  0  0  0  0  0  0  0  0
   27.1953   40.5132   18.9078 C   0  0  0  0  0  0  0  0  0  0  0  0
   26.5074   39.4787   18.0390 C   0  0  0  0  0  0  0  0  0  0  0  0
   26.5018   38.1148   18.7151 C   0  0  0  0  0  0  0  0  0  0  0  0
   26.8045   37.0401   23.7690 C   0  0  0  0  0  0  0  0  0  0  0  0
   27.2329   38.6983   23.9740 S   0  0  0  0  0  0  0  0  0  0  0  0
   26.6231   38.7270   25.5354 C   0  0  0  0  0  0  0  0  0  0  0  0
   26.0734   37.5556   25.8796 C   0  0  0  0  0  0  0  0  0  0  0  0
   26.1751   36.5698   24.8787 C   0  0  0  0  0  0  0  0  0  0  0  0
   29.2815   41.1779   19.9337 C   0  0  0  0  0  0  0  0  0  0  0  0
   28.8127   41.4495   21.3458 C   0  0  0  0  0  0  0  0  0  0  0  0
   27.8136   42.3770   21.6029 C   0  0  0  0  0  0  0  0  0  0  0  0
   27.5866   42.9334   22.8066 N   0  0  0  0  0  0  0  0  0  0  0  0
   28.4339   42.5511   23.7503 C   0  0  0  0  0  0  0  0  0  0  0  0
   29.4535   41.7134   23.6498 N   0  0  0  0  0  0  0  0  0  0  0  0
   29.6333   41.1960   22.4255 C   0  0  0  0  0  0  0  0  0  0  0  0
   28.2104   43.1133   24.9436 O   0  0  0  0  0  0  0  0  0  0  0  0
   29.3452   43.3529   25.7843 C   0  0  0  0  0  0  0  0  0  0  0  0
  1  2  2  0  0  0  0
  1  6  1  0  0  0  0
  2  3  1  0  0  0  0
  3  4  2  0  0  0  0
  4 14  1  0  0  0  0
  5  4  1  0  0  0  0
  6  5  1  0  0  0  0
  7  6  2  0  0  0  0
  8  9  1  0  0  0  0
  8  2  1  1  0  0  0
 10 19  1  0  0  0  0
 10  9  1  0  0  0  0
 11 10  1  0  0  0  0
 12 11  1  0  0  0  0
 12 13  1  0  0  0  0
 13  8  1  0  0  0  0
 14 15  1  0  0  0  0
 14 18  2  0  0  0  0
 15 16  1  0  0  0  0
 16 17  2  0  0  0  0
 18 17  1  0  0  0  0
 19 20  1  0  0  0  0
 20 25  2  0  0  0  0
 20 21  1  0  0  0  0
 21 22  2  0  0  0  0
 22 23  1  0  0  0  0
 23 26  1  0  0  0  0
 24 23  2  0  0  0  0
 25 24  1  0  0  0  0
 26 27  1  0  0  0  0
M  END
>  <CHROM.1>
-16.37619509,-151.18925693,-51.88435735,-90.63266604,-148.20135447,27.71485722
38.95670872,22.04938813,-2.40992746,1.33369336,1.21466083

>  <Name>
lig.pdb

>  <RI>
0

>  <Rbt.Current_Directory>
/home/itssahil/PROJECTS/Mol_Feturizer/New_Systems/rnas/5kx9

>  <Rbt.Executable>
rbdock ($Id: //depot/dev/client3/rdock/2013.1/src/exe/rbdock.cxx#4 $)

>  <Rbt.Library>
libRbt.so (2013.1, Build901 2013/11/27)

>  <Rbt.Parameter_File>
/export/apps/rDock/src/rDock_2013.1_src/data/scripts/dock_solv.prm

>  <Rbt.Receptor>
prm/pocket_docking_2.prm

>  <SCORE>
-38.361

>  <SCORE.INTER>
-35.4713

>  <SCORE.INTER.CONST>
1

>  <SCORE.INTER.POLAR>
0

>  <SCORE.INTER.ROT>
5

>  <SCORE.INTER.SOLV>
15.3072

>  <SCORE.INTER.VDW>
-35.6833

>  <SCORE.INTER.norm>
-1.31375

>  <SCORE.INTRA>
-3.31282

>  <SCORE.INTRA.DIHEDRAL>
0.995678

>  <SCORE.INTRA.DIHEDRAL.0>
2.68224

>  <SCORE.INTRA.POLAR>
0

>  <SCORE.INTRA.POLAR.0>
0

>  <SCORE.INTRA.REPUL>
0

>  <SCORE.INTRA.REPUL.0>
0

>  <SCORE.INTRA.SOLV>
-0.164664

>  <SCORE.INTRA.SOLV.lig_0>
-19.4148

>  <SCORE.INTRA.VDW>
-3.72833

>  <SCORE.INTRA.VDW.0>
5.42093

>  <SCORE.INTRA.norm>
-0.122697

>  <SCORE.RESTR>
0.423099

>  <SCORE.RESTR.CAVITY>
0.423099

>  <SCORE.RESTR.norm>
0.0156703

>  <SCORE.SYSTEM>
0

>  <SCORE.SYSTEM.CONST>
0

>  <SCORE.SYSTEM.DIHEDRAL>
0

>  <SCORE.SYSTEM.SOLV>
0

>  <SCORE.SYSTEM.norm>
0

>  <SCORE.heavy>
27

>  <SCORE.norm>
-1.42078

>  <RMSD>
0.903

$$$$
lig.pdb
 OpenBabel11021811523D
libRbt.so/2013.1/901 2013/11/27
 27 30  0  0  0  0  0  0  0  0999 V2000
   28.3892   36.1321   19.1123 N   0  0  0  0  0  0  0  0  0  0  0  0
   28.5770   37.2512   19.7669 C   0  0  0  0  0  0  0  0  0  0  0  0
   28.1436   37.4933   21.0296 N   0  0  0  0  0  0  0  0  0  0  0  0
   27.5030   36.4926   21.7045 C   0  0  0  0  0  0  0  0  0  0  0  0
   27.2888   35.2825   21.1094 C   0  0  0  0  0  0  0  0  0  0  0  0
   27.7298   35.0818   19.7496 C   0  0  0  0  0  0  0  0  0  0  0  0
   27.5253   34.0327   19.1264 O   0  0  0  0  0  0  0  0  0  0  0  0
   29.1649   38.5159   19.1031 C   0  0  2  0  0  0  0  0  0  0  0  0
   28.1975   39.6093   19.5849 C   0  0  0  0  0  0  0  0  0  0  0  0
   28.4132   40.8737   18.8792 N   0  0  0  0  0  0  0  0  0  0  0  0
   28.1428   40.6764   17.4459 C   0  0  0  0  0  0  0  0  0  0  0  0
   29.1144   39.6788   16.8467 C   0  0  0  0  0  0  0  0  0  0  0  0
   29.0484   38.3456   17.5788 C   0  0  0  0  0  0  0  0  0  0  0  0
   27.1350   36.8814   23.0594 C   0  0  0  0  0  0  0  0  0  0  0  0
   26.2187   35.8361   24.0807 S   0  0  0  0  0  0  0  0  0  0  0  0
   26.2101   36.9586   25.3260 C   0  0  0  0  0  0  0  0  0  0  0  0
   26.9074   38.0582   25.0134 C   0  0  0  0  0  0  0  0  0  0  0  0
   27.4407   38.0354   23.7099 C   0  0  0  0  0  0  0  0  0  0  0  0
   27.5685   41.9551   19.4160 C   0  0  0  0  0  0  0  0  0  0  0  0
   27.9466   42.4610   20.7902 C   0  0  0  0  0  0  0  0  0  0  0  0
   29.2731   42.6772   21.1340 C   0  0  0  0  0  0  0  0  0  0  0  0
   29.7228   42.7759   22.3981 N   0  0  0  0  0  0  0  0  0  0  0  0
   28.7881   42.6092   23.3217 C   0  0  0  0  0  0  0  0  0  0  0  0
   27.4999   42.3579   23.1521 N   0  0  0  0  0  0  0  0  0  0  0  0
   27.1125   42.2647   21.8715 C   0  0  0  0  0  0  0  0  0  0  0  0
   29.2407   42.6992   24.5776 O   0  0  0  0  0  0  0  0  0  0  0  0
   28.8381   41.6800   25.4999 C   0  0  0  0  0  0  0  0  0  0  0  0
  1  2  2  0  0  0  0
  1  6  1  0  0  0  0
  2  3  1  0  0  0  0
  3  4  2  0  0  0  0
  4 14  1  0  0  0  0
  5  4  1  0  0  0  0
  6  5  1  0  0  0  0
  7  6  2  0  0  0  0
  8  9  1  0  0  0  0
  8  2  1  1  0  0  0
 10 19  1  0  0  0  0
 10  9  1  0  0  0  0
 11 10  1  0  0  0  0
 12 11  1  0  0  0  0
 12 13  1  0  0  0  0
 13  8  1  0  0  0  0
 14 15  1  0  0  0  0
 14 18  2  0  0  0  0
 15 16  1  0  0  0  0
 16 17  2  0  0  0  0
 18 17  1  0  0  0  0
 19 20  1  0  0  0  0
 20 25  2  0  0  0  0
 20 21  1  0  0  0  0
 21 22  2  0  0  0  0
 22 23  1  0  0  0  0
 23 26  1  0  0  0  0
 24 23  2  0  0  0  0
 25 24  1  0  0  0  0
 26 27  1  0  0  0  0
M  END
>  <CHROM.1>
175.65753847,132.99718980,70.84775144,42.70484695,-132.64750992,27.97063308
38.99776633,21.39644096,-2.24679631,1.29561806,0.85194517

>  <Name>
lig.pdb

>  <RI>
0

>  <Rbt.Current_Directory>
/home/itssahil/PROJECTS/Mol_Feturizer/New_Systems/rnas/5kx9

>  <Rbt.Executable>
rbdock ($Id: //depot/dev/client3/rdock/2013.1/src/exe/rbdock.cxx#4 $)

>  <Rbt.Library>
libRbt.so (2013.1, Build901 2013/11/27)

>  <Rbt.Parameter_File>
/export/apps/rDock/src/rDock_2013.1_src/data/scripts/dock_solv.prm

>  <Rbt.Receptor>
prm/pocket_docking_3.prm

>  <SCORE>
-38.4154

>  <SCORE.INTER>
-35.2872

>  <SCORE.INTER.CONST>
1

>  <SCORE.INTER.POLAR>
0

>  <SCORE.INTER.ROT>
5

>  <SCORE.INTER.SOLV>
13.7952

>  <SCORE.INTER.VDW>
-35.0565

>  <SCORE.INTER.norm>
-1.30693

>  <SCORE.INTRA>
-3.13008

>  <SCORE.INTRA.DIHEDRAL>
2.00481

>  <SCORE.INTRA.DIHEDRAL.0>
2.68224

>  <SCORE.INTRA.POLAR>
0

>  <SCORE.INTRA.POLAR.0>
0

>  <SCORE.INTRA.REPUL>
0

>  <SCORE.INTRA.REPUL.0>
0

>  <SCORE.INTRA.SOLV>
-0.437875

>  <SCORE.INTRA.SOLV.lig_0>
-19.4148

>  <SCORE.INTRA.VDW>
-3.91355

>  <SCORE.INTRA.VDW.0>
5.42093

>  <SCORE.INTRA.norm>
-0.115929

>  <SCORE.RESTR>
0.00186363

>  <SCORE.RESTR.CAVITY>
0.00186363

>  <SCORE.RESTR.norm>
6.90234e-05

>  <SCORE.SYSTEM>
0

>  <SCORE.SYSTEM.CONST>
0

>  <SCORE.SYSTEM.DIHEDRAL>
0

>  <SCORE.SYSTEM.SOLV>
0

>  <SCORE.SYSTEM.norm>
0

>  <SCORE.heavy>
27

>  <SCORE.norm>
-1.42279

>  <RMSD>
0.910

$$$$
lig.pdb
 OpenBabel11021811523D
libRbt.so/2013.1/901 2013/11/27
 27 30  0  0  0  0  0  0  0  0999 V2000
   28.1198   36.0945   19.8299 N   0  0  0  0  0  0  0  0  0  0  0  0
   28.3726   37.2858   20.3126 C   0  0  0  0  0  0  0  0  0  0  0  0
   28.0114   37.7146   21.5482 N   0  0  0  0  0  0  0  0  0  0  0  0
   27.3781   36.8396   22.3851 C   0  0  0  0  0  0  0  0  0  0  0  0
   27.0994   35.5674   21.9750 C   0  0  0  0  0  0  0  0  0  0  0  0
   27.4643   35.1659   20.6374 C   0  0  0  0  0  0  0  0  0  0  0  0
   27.1984   34.0488   20.1766 O   0  0  0  0  0  0  0  0  0  0  0  0
   28.9615   38.4254   19.4523 C   0  0  2  0  0  0  0  0  0  0  0  0
   28.0008   39.5861   19.7579 C   0  0  0  0  0  0  0  0  0  0  0  0
   28.2171   40.7205   18.8581 N   0  0  0  0  0  0  0  0  0  0  0  0
   27.9382   40.2979   17.4761 C   0  0  0  0  0  0  0  0  0  0  0  0
   28.9027   39.2130   17.0394 C   0  0  0  0  0  0  0  0  0  0  0  0
   28.8359   38.0143   17.9755 C   0  0  0  0  0  0  0  0  0  0  0  0
   27.0911   37.4241   23.6883 C   0  0  0  0  0  0  0  0  0  0  0  0
   26.2006   36.5617   24.8877 S   0  0  0  0  0  0  0  0  0  0  0  0
   26.2868   37.8450   25.9631 C   0  0  0  0  0  0  0  0  0  0  0  0
   26.9967   38.8664   25.4675 C   0  0  0  0  0  0  0  0  0  0  0  0
   27.4613   38.6458   24.1562 C   0  0  0  0  0  0  0  0  0  0  0  0
   27.3794   41.8777   19.2192 C   0  0  0  0  0  0  0  0  0  0  0  0
   27.4223   42.2890   20.6740 C   0  0  0  0  0  0  0  0  0  0  0  0
   28.6264   42.5662   21.3048 C   0  0  0  0  0  0  0  0  0  0  0  0
   28.7966   42.5873   22.6392 N   0  0  0  0  0  0  0  0  0  0  0  0
   27.7098   42.2777   23.3303 C   0  0  0  0  0  0  0  0  0  0  0  0
   26.5103   41.9532   22.8750 N   0  0  0  0  0  0  0  0  0  0  0  0
   26.4037   41.9435   21.5381 C   0  0  0  0  0  0  0  0  0  0  0  0
   27.8853   42.2910   24.6567 O   0  0  0  0  0  0  0  0  0  0  0  0
   26.7730   42.6892   25.4666 C   0  0  0  0  0  0  0  0  0  0  0  0
  1  2  2  0  0  0  0
  1  6  1  0  0  0  0
  2  3  1  0  0  0  0
  3  4  2  0  0  0  0
  4 14  1  0  0  0  0
  5  4  1  0  0  0  0
  6  5  1  0  0  0  0
  7  6  2  0  0  0  0
  8  9  1  0  0  0  0
  8  2  1  1  0  0  0
 10 19  1  0  0  0  0
 10  9  1  0  0  0  0
 11 10  1  0  0  0  0
 12 11  1  0  0  0  0
 12 13  1  0  0  0  0
 13  8  1  0  0  0  0
 14 15  1  0  0  0  0
 14 18  2  0  0  0  0
 15 16  1  0  0  0  0
 16 17  2  0  0  0  0
 18 17  1  0  0  0  0
 19 20  1  0  0  0  0
 20 25  2  0  0  0  0
 20 21  1  0  0  0  0
 21 22  2  0  0  0  0
 22 23  1  0  0  0  0
 23 26  1  0  0  0  0
 24 23  2  0  0  0  0
 25 24  1  0  0  0  0
 26 27  1  0  0  0  0
M  END
>  <CHROM.1>
175.73185766,129.77549101,49.91938952,54.45320384,146.95795194,27.56531685
39.10114317,21.74733252,1.07272989,-1.32897676,-2.85984945

>  <Name>
lig.pdb

>  <RI>
0

>  <Rbt.Current_Directory>
/home/itssahil/PROJECTS/Mol_Feturizer/New_Systems/rnas/5kx9

>  <Rbt.Executable>
rbdock ($Id: //depot/dev/client3/rdock/2013.1/src/exe/rbdock.cxx#4 $)

>  <Rbt.Library>
libRbt.so (2013.1, Build901 2013/11/27)

>  <Rbt.Parameter_File>
/export/apps/rDock/src/rDock_2013.1_src/data/scripts/dock_solv.prm

>  <Rbt.Receptor>
prm/pocket_docking_3.prm

>  <SCORE>
-37.2051

>  <SCORE.INTER>
-33.8936

>  <SCORE.INTER.CONST>
1

>  <SCORE.INTER.POLAR>
0

>  <SCORE.INTER.ROT>
5

>  <SCORE.INTER.SOLV>
13.3139

>  <SCORE.INTER.VDW>
-33.9671

>  <SCORE.INTER.norm>
-1.25532

>  <SCORE.INTRA>
-3.31152

>  <SCORE.INTRA.DIHEDRAL>
1.0367

>  <SCORE.INTRA.DIHEDRAL.0>
2.68224

>  <SCORE.INTRA.POLAR>
0

>  <SCORE.INTRA.POLAR.0>
0

>  <SCORE.INTRA.REPUL>
0

>  <SCORE.INTRA.REPUL.0>
0

>  <SCORE.INTRA.SOLV>
-0.0164829

>  <SCORE.INTRA.SOLV.lig_0>
-19.4148

>  <SCORE.INTRA.VDW>
-3.82162

>  <SCORE.INTRA.VDW.0>
5.42093

>  <SCORE.INTRA.norm>
-0.122649

>  <SCORE.RESTR>
0

>  <SCORE.RESTR.CAVITY>
0

>  <SCORE.RESTR.norm>
0

>  <SCORE.SYSTEM>
0

>  <SCORE.SYSTEM.CONST>
0

>  <SCORE.SYSTEM.DIHEDRAL>
0

>  <SCORE.SYSTEM.SOLV>
0

>  <SCORE.SYSTEM.norm>
0

>  <SCORE.heavy>
27

>  <SCORE.norm>
-1.37797

>  <RMSD>
0.915

$$$$
lig.pdb
 OpenBabel11021811523D
libRbt.so/2013.1/901 2013/11/27
 27 30  0  0  0  0  0  0  0  0999 V2000
   28.2930   36.0266   19.0371 N   0  0  0  0  0  0  0  0  0  0  0  0
   28.5932   37.0860   19.7469 C   0  0  0  0  0  0  0  0  0  0  0  0
   28.1643   37.3182   21.0131 N   0  0  0  0  0  0  0  0  0  0  0  0
   27.4008   36.3676   21.6298 C   0  0  0  0  0  0  0  0  0  0  0  0
   27.0629   35.2183   20.9746 C   0  0  0  0  0  0  0  0  0  0  0  0
   27.5059   35.0306   19.6137 C   0  0  0  0  0  0  0  0  0  0  0  0
   27.1965   34.0412   18.9382 O   0  0  0  0  0  0  0  0  0  0  0  0
   29.3342   38.3041   19.1530 C   0  0  2  0  0  0  0  0  0  0  0  0
   28.4943   39.4784   19.6814 C   0  0  0  0  0  0  0  0  0  0  0  0
   28.8661   40.7420   19.0424 N   0  0  0  0  0  0  0  0  0  0  0  0
   28.5951   40.6487   17.5988 C   0  0  0  0  0  0  0  0  0  0  0  0
   29.4520   39.5747   16.9581 C   0  0  0  0  0  0  0  0  0  0  0  0
   29.2204   38.2240   17.6211 C   0  0  0  0  0  0  0  0  0  0  0  0
   27.0516   36.7337   22.9959 C   0  0  0  0  0  0  0  0  0  0  0  0
   27.4105   38.2968   23.6310 S   0  0  0  0  0  0  0  0  0  0  0  0
   26.7651   37.9049   25.1279 C   0  0  0  0  0  0  0  0  0  0  0  0
   26.2538   36.6674   25.1439 C   0  0  0  0  0  0  0  0  0  0  0  0
   26.4163   35.9749   23.9282 C   0  0  0  0  0  0  0  0  0  0  0  0
   28.1459   41.8873   19.6262 C   0  0  0  0  0  0  0  0  0  0  0  0
   28.3268   42.0853   21.1147 C   0  0  0  0  0  0  0  0  0  0  0  0
   27.2340   42.1466   21.9671 C   0  0  0  0  0  0  0  0  0  0  0  0
   27.2688   42.6623   23.2092 N   0  0  0  0  0  0  0  0  0  0  0  0
   28.4464   43.1579   23.5588 C   0  0  0  0  0  0  0  0  0  0  0  0
   29.5610   43.2094   22.8473 N   0  0  0  0  0  0  0  0  0  0  0  0
   29.4631   42.6858   21.6164 C   0  0  0  0  0  0  0  0  0  0  0  0
   28.4746   43.6779   24.7913 O   0  0  0  0  0  0  0  0  0  0  0  0
   29.5050   43.2240   25.6767 C   0  0  0  0  0  0  0  0  0  0  0  0
  1  2  2  0  0  0  0
  1  6  1  0  0  0  0
  2  3  1  0  0  0  0
  3  4  2  0  0  0  0
  4 14  1  0  0  0  0
  5  4  1  0  0  0  0
  6  5  1  0  0  0  0
  7  6  2  0  0  0  0
  8  9  1  0  0  0  0
  8  2  1  1  0  0  0
 10 19  1  0  0  0  0
 10  9  1  0  0  0  0
 11 10  1  0  0  0  0
 12 11  1  0  0  0  0
 12 13  1  0  0  0  0
 13  8  1  0  0  0  0
 14 15  1  0  0  0  0
 14 18  2  0  0  0  0
 15 16  1  0  0  0  0
 16 17  2  0  0  0  0
 18 17  1  0  0  0  0
 19 20  1  0  0  0  0
 20 25  2  0  0  0  0
 20 21  1  0  0  0  0
 21 22  2  0  0  0  0
 22 23  1  0  0  0  0
 23 26  1  0  0  0  0
 24 23  2  0  0  0  0
 25 24  1  0  0  0  0
 26 27  1  0  0  0  0
M  END
>  <CHROM.1>
7.61857376,133.45368337,57.58493158,-124.67099724,127.75645289,28.07614379
39.19236731,21.44025981,-1.90689975,1.24616435,0.79703125

>  <Name>
lig.pdb

>  <RI>
0

>  <Rbt.Current_Directory>
/home/itssahil/PROJECTS/Mol_Feturizer/New_Systems/rnas/5kx9

>  <Rbt.Executable>
rbdock ($Id: //depot/dev/client3/rdock/2013.1/src/exe/rbdock.cxx#4 $)

>  <Rbt.Library>
libRbt.so (2013.1, Build901 2013/11/27)

>  <Rbt.Parameter_File>
/export/apps/rDock/src/rDock_2013.1_src/data/scripts/dock_solv.prm

>  <Rbt.Receptor>
prm/pocket_docking_8.prm

>  <SCORE>
-39.724

>  <SCORE.INTER>
-36.7256

>  <SCORE.INTER.CONST>
1

>  <SCORE.INTER.POLAR>
0

>  <SCORE.INTER.ROT>
5

>  <SCORE.INTER.SOLV>
14.5206

>  <SCORE.INTER.VDW>
-36.2573

>  <SCORE.INTER.norm>
-1.36021

>  <SCORE.INTRA>
-2.99837

>  <SCORE.INTRA.DIHEDRAL>
2.26282

>  <SCORE.INTRA.DIHEDRAL.0>
2.68224

>  <SCORE.INTRA.POLAR>
0

>  <SCORE.INTRA.POLAR.0>
0

>  <SCORE.INTRA.REPUL>
0

>  <SCORE.INTRA.REPUL.0>
0

>  <SCORE.INTRA.SOLV>
-0.467867

>  <SCORE.INTRA.SOLV.lig_0>
-19.4148

>  <SCORE.INTRA.VDW>
-3.89585

>  <SCORE.INTRA.VDW.0>
5.42093

>  <SCORE.INTRA.norm>
-0.111051

>  <SCORE.RESTR>
0

>  <SCORE.RESTR.CAVITY>
0

>  <SCORE.RESTR.norm>
0

>  <SCORE.SYSTEM>
0

>  <SCORE.SYSTEM.CONST>
0

>  <SCORE.SYSTEM.DIHEDRAL>
0

>  <SCORE.SYSTEM.SOLV>
0

>  <SCORE.SYSTEM.norm>
0

>  <SCORE.heavy>
27

>  <SCORE.norm>
-1.47126

>  <RMSD>
0.915

$$$$
lig.pdb
 OpenBabel11021811523D
libRbt.so/2013.1/901 2013/11/27
 27 30  0  0  0  0  0  0  0  0999 V2000
   28.4480   36.1820   19.0901 N   0  0  0  0  0  0  0  0  0  0  0  0
   28.6505   37.2892   19.7604 C   0  0  0  0  0  0  0  0  0  0  0  0
   28.2110   37.5230   21.0227 N   0  0  0  0  0  0  0  0  0  0  0  0
   27.5471   36.5256   21.6795 C   0  0  0  0  0  0  0  0  0  0  0  0
   27.3161   35.3272   21.0672 C   0  0  0  0  0  0  0  0  0  0  0  0
   27.7647   35.1358   19.7086 C   0  0  0  0  0  0  0  0  0  0  0  0
   27.5465   34.0985   19.0703 O   0  0  0  0  0  0  0  0  0  0  0  0
   29.2664   38.5513   19.1176 C   0  0  2  0  0  0  0  0  0  0  0  0
   28.4266   39.6740   19.7483 C   0  0  0  0  0  0  0  0  0  0  0  0
   28.6689   40.9632   19.0984 N   0  0  0  0  0  0  0  0  0  0  0  0
   28.2591   40.8748   17.6875 C   0  0  0  0  0  0  0  0  0  0  0  0
   29.0996   39.8547   16.9452 C   0  0  0  0  0  0  0  0  0  0  0  0
   29.0033   38.4854   17.6036 C   0  0  0  0  0  0  0  0  0  0  0  0
   27.1749   36.9037   23.0362 C   0  0  0  0  0  0  0  0  0  0  0  0
   26.2886   35.8352   24.0598 S   0  0  0  0  0  0  0  0  0  0  0  0
   26.2573   36.9558   25.3065 C   0  0  0  0  0  0  0  0  0  0  0  0
   26.9262   38.0725   24.9925 C   0  0  0  0  0  0  0  0  0  0  0  0
   27.4548   38.0642   23.6869 C   0  0  0  0  0  0  0  0  0  0  0  0
   27.9549   42.0624   19.7717 C   0  0  0  0  0  0  0  0  0  0  0  0
   28.2358   42.2178   21.2496 C   0  0  0  0  0  0  0  0  0  0  0  0
   27.2028   42.2572   22.1748 C   0  0  0  0  0  0  0  0  0  0  0  0
   27.3227   42.7376   23.4257 N   0  0  0  0  0  0  0  0  0  0  0  0
   28.5229   43.2206   23.7095 C   0  0  0  0  0  0  0  0  0  0  0  0
   29.5877   43.2898   22.9265 N   0  0  0  0  0  0  0  0  0  0  0  0
   29.4055   42.8014   21.6908 C   0  0  0  0  0  0  0  0  0  0  0  0
   28.6357   43.7054   24.9513 O   0  0  0  0  0  0  0  0  0  0  0  0
   29.7568   43.2724   25.7307 C   0  0  0  0  0  0  0  0  0  0  0  0
  1  2  2  0  0  0  0
  1  6  1  0  0  0  0
  2  3  1  0  0  0  0
  3  4  2  0  0  0  0
  4 14  1  0  0  0  0
  5  4  1  0  0  0  0
  6  5  1  0  0  0  0
  7  6  2  0  0  0  0
  8  9  1  0  0  0  0
  8  2  1  1  0  0  0
 10 19  1  0  0  0  0
 10  9  1  0  0  0  0
 11 10  1  0  0  0  0
 12 11  1  0  0  0  0
 12 13  1  0  0  0  0
 13  8  1  0  0  0  0
 14 15  1  0  0  0  0
 14 18  2  0  0  0  0
 15 16  1  0  0  0  0
 16 17  2  0  0  0  0
 18 17  1  0  0  0  0
 19 20  1  0  0  0  0
 20 25  2  0  0  0  0
 20 21  1  0  0  0  0
 21 22  2  0  0  0  0
 22 23  1  0  0  0  0
 23 26  1  0  0  0  0
 24 23  2  0  0  0  0
 25 24  1  0  0  0  0
 26 27  1  0  0  0  0
M  END
>  <CHROM.1>
178.27660170,139.94056033,55.41191088,-126.86250658,130.62514648,28.03674468
39.19307425,21.53511839,-2.05505249,1.27199620,0.83307827

>  <Name>
lig.pdb

>  <RI>
0

>  <Rbt.Current_Directory>
/home/itssahil/PROJECTS/Mol_Feturizer/New_Systems/rnas/5kx9

>  <Rbt.Executable>
rbdock ($Id: //depot/dev/client3/rdock/2013.1/src/exe/rbdock.cxx#4 $)

>  <Rbt.Library>
libRbt.so (2013.1, Build901 2013/11/27)

>  <Rbt.Parameter_File>
/export/apps/rDock/src/rDock_2013.1_src/data/scripts/dock_solv.prm

>  <Rbt.Receptor>
prm/pocket_docking_3.prm

>  <SCORE>
-40.1609

>  <SCORE.INTER>
-38.1488

>  <SCORE.INTER.CONST>
1

>  <SCORE.INTER.POLAR>
0

>  <SCORE.INTER.ROT>
5

>  <SCORE.INTER.SOLV>
15.4055

>  <SCORE.INTER.VDW>
-37.501

>  <SCORE.INTER.norm>
-1.41292

>  <SCORE.INTRA>
-2.01208

>  <SCORE.INTRA.DIHEDRAL>
2.00174

>  <SCORE.INTRA.DIHEDRAL.0>
2.68224

>  <SCORE.INTRA.POLAR>
0

>  <SCORE.INTRA.POLAR.0>
0

>  <SCORE.INTRA.REPUL>
0

>  <SCORE.INTRA.REPUL.0>
0

>  <SCORE.INTRA.SOLV>
-0.61291

>  <SCORE.INTRA.SOLV.lig_0>
-19.4148

>  <SCORE.INTRA.VDW>
-2.7065

>  <SCORE.INTRA.VDW.0>
5.42093

>  <SCORE.INTRA.norm>
-0.0745216

>  <SCORE.RESTR>
0

>  <SCORE.RESTR.CAVITY>
0

>  <SCORE.RESTR.norm>
0

>  <SCORE.SYSTEM>
0

>  <SCORE.SYSTEM.CONST>
0

>  <SCORE.SYSTEM.DIHEDRAL>
0

>  <SCORE.SYSTEM.SOLV>
0

>  <SCORE.SYSTEM.norm>
0

>  <SCORE.heavy>
27

>  <SCORE.norm>
-1.48744

>  <RMSD>
0.928

$$$$
lig.pdb
 OpenBabel11021811523D
libRbt.so/2013.1/901 2013/11/27
 27 30  0  0  0  0  0  0  0  0999 V2000
   28.2894   36.0981   19.0721 N   0  0  0  0  0  0  0  0  0  0  0  0
   28.5837   37.1535   19.7902 C   0  0  0  0  0  0  0  0  0  0  0  0
   28.1511   37.3747   21.0571 N   0  0  0  0  0  0  0  0  0  0  0  0
   27.3902   36.4165   21.6653 C   0  0  0  0  0  0  0  0  0  0  0  0
   27.0584   35.2706   21.0010 C   0  0  0  0  0  0  0  0  0  0  0  0
   27.5052   35.0947   19.6397 C   0  0  0  0  0  0  0  0  0  0  0  0
   27.2013   34.1090   18.9563 O   0  0  0  0  0  0  0  0  0  0  0  0
   29.3208   38.3790   19.2068 C   0  0  2  0  0  0  0  0  0  0  0  0
   28.4810   39.5463   19.7503 C   0  0  0  0  0  0  0  0  0  0  0  0
   28.8488   40.8171   19.1236 N   0  0  0  0  0  0  0  0  0  0  0  0
   28.5732   40.7387   17.6799 C   0  0  0  0  0  0  0  0  0  0  0  0
   29.4296   39.6729   17.0251 C   0  0  0  0  0  0  0  0  0  0  0  0
   29.2021   38.3149   17.6746 C   0  0  0  0  0  0  0  0  0  0  0  0
   27.0366   36.7712   23.0332 C   0  0  0  0  0  0  0  0  0  0  0  0
   27.3989   38.3267   23.6845 S   0  0  0  0  0  0  0  0  0  0  0  0
   26.7455   37.9234   25.1749 C   0  0  0  0  0  0  0  0  0  0  0  0
   26.2292   36.6879   25.1771 C   0  0  0  0  0  0  0  0  0  0  0  0
   26.3942   36.0062   23.9556 C   0  0  0  0  0  0  0  0  0  0  0  0
   28.1288   41.9551   19.7218 C   0  0  0  0  0  0  0  0  0  0  0  0
   28.3149   42.1381   21.2115 C   0  0  0  0  0  0  0  0  0  0  0  0
   27.2239   42.2400   22.0625 C   0  0  0  0  0  0  0  0  0  0  0  0
   27.2776   42.7477   23.3072 N   0  0  0  0  0  0  0  0  0  0  0  0
   28.4738   43.1928   23.6613 C   0  0  0  0  0  0  0  0  0  0  0  0
   29.5910   43.2019   22.9518 N   0  0  0  0  0  0  0  0  0  0  0  0
   29.4739   42.6889   21.7181 C   0  0  0  0  0  0  0  0  0  0  0  0
   28.5211   43.7050   24.8963 O   0  0  0  0  0  0  0  0  0  0  0  0
   29.5969   43.2869   25.7446 C   0  0  0  0  0  0  0  0  0  0  0  0
  1  2  2  0  0  0  0
  1  6  1  0  0  0  0
  2  3  1  0  0  0  0
  3  4  2  0  0  0  0
  4 14  1  0  0  0  0
  5  4  1  0  0  0  0
  6  5  1  0  0  0  0
  7  6  2  0  0  0  0
  8  9  1  0  0  0  0
  8  2  1  1  0  0  0
 10 19  1  0  0  0  0
 10  9  1  0  0  0  0
 11 10  1  0  0  0  0
 12 11  1  0  0  0  0
 12 13  1  0  0  0  0
 13  8  1  0  0  0  0
 14 15  1  0  0  0  0
 14 18  2  0  0  0  0
 15 16  1  0  0  0  0
 16 17  2  0  0  0  0
 18 17  1  0  0  0  0
 19 20  1  0  0  0  0
 20 25  2  0  0  0  0
 20 21  1  0  0  0  0
 21 22  2  0  0  0  0
 22 23  1  0  0  0  0
 23 26  1  0  0  0  0
 24 23  2  0  0  0  0
 25 24  1  0  0  0  0
 26 27  1  0  0  0  0
M  END
>  <CHROM.1>
7.12142836,133.84687012,57.61866450,-127.16312314,132.80151628,28.07420988
39.24642063,21.50301247,-1.92399815,1.24498962,0.81868720

>  <Name>
lig.pdb

>  <RI>
0

>  <Rbt.Current_Directory>
/home/itssahil/PROJECTS/Mol_Feturizer/New_Systems/rnas/5kx9

>  <Rbt.Executable>
rbdock ($Id: //depot/dev/client3/rdock/2013.1/src/exe/rbdock.cxx#4 $)

>  <Rbt.Library>
libRbt.so (2013.1, Build901 2013/11/27)

>  <Rbt.Parameter_File>
/export/apps/rDock/src/rDock_2013.1_src/data/scripts/dock_solv.prm

>  <Rbt.Receptor>
prm/pocket_docking_4.prm

>  <SCORE>
-39.7209

>  <SCORE.INTER>
-36.7794

>  <SCORE.INTER.CONST>
1

>  <SCORE.INTER.POLAR>
0

>  <SCORE.INTER.ROT>
5

>  <SCORE.INTER.SOLV>
14.6344

>  <SCORE.INTER.VDW>
-36.331

>  <SCORE.INTER.norm>
-1.3622

>  <SCORE.INTRA>
-2.9415

>  <SCORE.INTRA.DIHEDRAL>
1.88041

>  <SCORE.INTRA.DIHEDRAL.0>
2.68224

>  <SCORE.INTRA.POLAR>
0

>  <SCORE.INTRA.POLAR.0>
0

>  <SCORE.INTRA.REPUL>
0

>  <SCORE.INTRA.REPUL.0>
0

>  <SCORE.INTRA.SOLV>
-0.479126

>  <SCORE.INTRA.SOLV.lig_0>
-19.4148

>  <SCORE.INTRA.VDW>
-3.64214

>  <SCORE.INTRA.VDW.0>
5.42093

>  <SCORE.INTRA.norm>
-0.108944

>  <SCORE.RESTR>
0

>  <SCORE.RESTR.CAVITY>
0

>  <SCORE.RESTR.norm>
0

>  <SCORE.SYSTEM>
0

>  <SCORE.SYSTEM.CONST>
0

>  <SCORE.SYSTEM.DIHEDRAL>
0

>  <SCORE.SYSTEM.SOLV>
0

>  <SCORE.SYSTEM.norm>
0

>  <SCORE.heavy>
27

>  <SCORE.norm>
-1.47114

>  <RMSD>
0.929

$$$$
lig.pdb
 OpenBabel11021811523D
libRbt.so/2013.1/901 2013/11/27
 27 30  0  0  0  0  0  0  0  0999 V2000
   28.3591   36.0797   19.1664 N   0  0  0  0  0  0  0  0  0  0  0  0
   28.6299   37.1554   19.8634 C   0  0  0  0  0  0  0  0  0  0  0  0
   28.1818   37.3978   21.1210 N   0  0  0  0  0  0  0  0  0  0  0  0
   27.4302   36.4414   21.7434 C   0  0  0  0  0  0  0  0  0  0  0  0
   27.1229   35.2758   21.1020 C   0  0  0  0  0  0  0  0  0  0  0  0
   27.5854   35.0768   19.7491 C   0  0  0  0  0  0  0  0  0  0  0  0
   27.3036   34.0714   19.0853 O   0  0  0  0  0  0  0  0  0  0  0  0
   29.3532   38.3791   19.2594 C   0  0  2  0  0  0  0  0  0  0  0  0
   28.4193   39.5327   19.6600 C   0  0  0  0  0  0  0  0  0  0  0  0
   28.7762   40.7800   18.9817 N   0  0  0  0  0  0  0  0  0  0  0  0
   28.6203   40.5991   17.5294 C   0  0  0  0  0  0  0  0  0  0  0  0
   29.5748   39.5407   17.0128 C   0  0  0  0  0  0  0  0  0  0  0  0
   29.3599   38.2152   17.7301 C   0  0  0  0  0  0  0  0  0  0  0  0
   27.0581   36.8208   23.0998 C   0  0  0  0  0  0  0  0  0  0  0  0
   27.3521   38.4089   23.7054 S   0  0  0  0  0  0  0  0  0  0  0  0
   26.7123   38.0221   25.2061 C   0  0  0  0  0  0  0  0  0  0  0  0
   26.2490   36.7663   25.2439 C   0  0  0  0  0  0  0  0  0  0  0  0
   26.4463   36.0566   24.0433 C   0  0  0  0  0  0  0  0  0  0  0  0
   27.9586   41.9139   19.4477 C   0  0  0  0  0  0  0  0  0  0  0  0
   28.2213   42.3723   20.8649 C   0  0  0  0  0  0  0  0  0  0  0  0
   29.5154   42.5010   21.3479 C   0  0  0  0  0  0  0  0  0  0  0  0
   29.8365   42.5506   22.6534 N   0  0  0  0  0  0  0  0  0  0  0  0
   28.8028   42.4257   23.4721 C   0  0  0  0  0  0  0  0  0  0  0  0
   27.5265   42.2566   23.1654 N   0  0  0  0  0  0  0  0  0  0  0  0
   27.2693   42.2091   21.8500 C   0  0  0  0  0  0  0  0  0  0  0  0
   29.1271   42.4665   24.7695 O   0  0  0  0  0  0  0  0  0  0  0  0
   28.2861   43.2357   25.6372 C   0  0  0  0  0  0  0  0  0  0  0  0
  1  2  2  0  0  0  0
  1  6  1  0  0  0  0
  2  3  1  0  0  0  0
  3  4  2  0  0  0  0
  4 14  1  0  0  0  0
  5  4  1  0  0  0  0
  6  5  1  0  0  0  0
  7  6  2  0  0  0  0
  8  9  1  0  0  0  0
  8  2  1  1  0  0  0
 10 19  1  0  0  0  0
 10  9  1  0  0  0  0
 11 10  1  0  0  0  0
 12 11  1  0  0  0  0
 12 13  1  0  0  0  0
 13  8  1  0  0  0  0
 14 15  1  0  0  0  0
 14 18  2  0  0  0  0
 15 16  1  0  0  0  0
 16 17  2  0  0  0  0
 18 17  1  0  0  0  0
 19 20  1  0  0  0  0
 20 25  2  0  0  0  0
 20 21  1  0  0  0  0
 21 22  2  0  0  0  0
 22 23  1  0  0  0  0
 23 26  1  0  0  0  0
 24 23  2  0  0  0  0
 25 24  1  0  0  0  0
 26 27  1  0  0  0  0
M  END
>  <CHROM.1>
8.76150219,128.87693478,69.29892955,43.51381856,137.15085249,28.09282729
39.12516404,21.45338264,-1.84062806,1.24604993,0.76769715

>  <Name>
lig.pdb

>  <RI>
0

>  <Rbt.Current_Directory>
/home/itssahil/PROJECTS/Mol_Feturizer/New_Systems/rnas/5kx9

>  <Rbt.Executable>
rbdock ($Id: //depot/dev/client3/rdock/2013.1/src/exe/rbdock.cxx#4 $)

>  <Rbt.Library>
libRbt.so (2013.1, Build901 2013/11/27)

>  <Rbt.Parameter_File>
/export/apps/rDock/src/rDock_2013.1_src/data/scripts/dock_solv.prm

>  <Rbt.Receptor>
prm/pocket_docking_4.prm

>  <SCORE>
-38.5775

>  <SCORE.INTER>
-34.814

>  <SCORE.INTER.CONST>
1

>  <SCORE.INTER.POLAR>
0

>  <SCORE.INTER.ROT>
5

>  <SCORE.INTER.SOLV>
13.3108

>  <SCORE.INTER.VDW>
-34.5796

>  <SCORE.INTER.norm>
-1.28941

>  <SCORE.INTRA>
-3.76352

>  <SCORE.INTRA.DIHEDRAL>
1.72627

>  <SCORE.INTRA.DIHEDRAL.0>
2.68224

>  <SCORE.INTRA.POLAR>
0

>  <SCORE.INTRA.POLAR.0>
0

>  <SCORE.INTRA.REPUL>
0

>  <SCORE.INTRA.REPUL.0>
0

>  <SCORE.INTRA.SOLV>
-0.19189

>  <SCORE.INTRA.SOLV.lig_0>
-19.4148

>  <SCORE.INTRA.VDW>
-4.53071

>  <SCORE.INTRA.VDW.0>
5.42093

>  <SCORE.INTRA.norm>
-0.139389

>  <SCORE.RESTR>
0

>  <SCORE.RESTR.CAVITY>
0

>  <SCORE.RESTR.norm>
0

>  <SCORE.SYSTEM>
0

>  <SCORE.SYSTEM.CONST>
0

>  <SCORE.SYSTEM.DIHEDRAL>
0

>  <SCORE.SYSTEM.SOLV>
0

>  <SCORE.SYSTEM.norm>
0

>  <SCORE.heavy>
27

>  <SCORE.norm>
-1.4288

>  <RMSD>
0.930

$$$$
lig.pdb
 OpenBabel11021811523D
libRbt.so/2013.1/901 2013/11/27
 27 30  0  0  0  0  0  0  0  0999 V2000
   28.3262   36.1376   19.1446 N   0  0  0  0  0  0  0  0  0  0  0  0
   28.6169   37.2082   19.8414 C   0  0  0  0  0  0  0  0  0  0  0  0
   28.1888   37.4504   21.1060 N   0  0  0  0  0  0  0  0  0  0  0  0
   27.4370   36.4988   21.7356 C   0  0  0  0  0  0  0  0  0  0  0  0
   27.1097   35.3385   21.0946 C   0  0  0  0  0  0  0  0  0  0  0  0
   27.5512   35.1400   19.7346 C   0  0  0  0  0  0  0  0  0  0  0  0
   27.2506   34.1397   19.0714 O   0  0  0  0  0  0  0  0  0  0  0  0
   29.3433   38.4272   19.2316 C   0  0  2  0  0  0  0  0  0  0  0  0
   28.4118   39.5849   19.6257 C   0  0  0  0  0  0  0  0  0  0  0  0
   28.7718   40.8280   18.9413 N   0  0  0  0  0  0  0  0  0  0  0  0
   28.6162   40.6400   17.4899 C   0  0  0  0  0  0  0  0  0  0  0  0
   29.5686   39.5768   16.9791 C   0  0  0  0  0  0  0  0  0  0  0  0
   29.3504   38.2555   17.7030 C   0  0  0  0  0  0  0  0  0  0  0  0
   27.0875   36.8769   23.0984 C   0  0  0  0  0  0  0  0  0  0  0  0
   27.4320   38.4506   23.7148 S   0  0  0  0  0  0  0  0  0  0  0  0
   26.7943   38.0691   25.2177 C   0  0  0  0  0  0  0  0  0  0  0  0
   26.2957   36.8268   25.2490 C   0  0  0  0  0  0  0  0  0  0  0  0
   26.4623   36.1223   24.0408 C   0  0  0  0  0  0  0  0  0  0  0  0
   27.9566   41.9661   19.4011 C   0  0  0  0  0  0  0  0  0  0  0  0
   28.1716   42.3881   20.8374 C   0  0  0  0  0  0  0  0  0  0  0  0
   29.4438   42.6527   21.3235 C   0  0  0  0  0  0  0  0  0  0  0  0
   29.7661   42.6817   22.6293 N   0  0  0  0  0  0  0  0  0  0  0  0
   28.7617   42.3934   23.4433 C   0  0  0  0  0  0  0  0  0  0  0  0
   27.5136   42.0828   23.1315 N   0  0  0  0  0  0  0  0  0  0  0  0
   27.2543   42.0642   21.8157 C   0  0  0  0  0  0  0  0  0  0  0  0
   29.0882   42.4145   24.7406 O   0  0  0  0  0  0  0  0  0  0  0  0
   28.3402   43.2861   25.5964 C   0  0  0  0  0  0  0  0  0  0  0  0
  1  2  2  0  0  0  0
  1  6  1  0  0  0  0
  2  3  1  0  0  0  0
  3  4  2  0  0  0  0
  4 14  1  0  0  0  0
  5  4  1  0  0  0  0
  6  5  1  0  0  0  0
  7  6  2  0  0  0  0
  8  9  1  0  0  0  0
  8  2  1  1  0  0  0
 10 19  1  0  0  0  0
 10  9  1  0  0  0  0
 11 10  1  0  0  0  0
 12 11  1  0  0  0  0
 12 13  1  0  0  0  0
 13  8  1  0  0  0  0
 14 15  1  0  0  0  0
 14 18  2  0  0  0  0
 15 16  1  0  0  0  0
 16 17  2  0  0  0  0
 18 17  1  0  0  0  0
 19 20  1  0  0  0  0
 20 25  2  0  0  0  0
 20 21  1  0  0  0  0
 21 22  2  0  0  0  0
 22 23  1  0  0  0  0
 23 26  1  0  0  0  0
 24 23  2  0  0  0  0
 25 24  1  0  0  0  0
 26 27  1  0  0  0  0
M  END
>  <CHROM.1>
7.59078956,127.82362091,66.44476558,52.08206441,123.12380678,28.09054633
39.16035701,21.43328559,-1.84427768,1.25477854,0.78717901

>  <Name>
lig.pdb

>  <RI>
0

>  <Rbt.Current_Directory>
/home/itssahil/PROJECTS/Mol_Feturizer/New_Systems/rnas/5kx9

>  <Rbt.Executable>
rbdock ($Id: //depot/dev/client3/rdock/2013.1/src/exe/rbdock.cxx#4 $)

>  <Rbt.Library>
libRbt.so (2013.1, Build901 2013/11/27)

>  <Rbt.Parameter_File>
/export/apps/rDock/src/rDock_2013.1_src/data/scripts/dock_solv.prm

>  <Rbt.Receptor>
prm/blind_docking_60.prm

>  <SCORE>
-38.3864

>  <SCORE.INTER>
-34.6

>  <SCORE.INTER.CONST>
1

>  <SCORE.INTER.POLAR>
0

>  <SCORE.INTER.ROT>
5

>  <SCORE.INTER.SOLV>
12.7586

>  <SCORE.INTER.VDW>
-34.2529

>  <SCORE.INTER.norm>
-1.28148

>  <SCORE.INTRA>
-3.78636

>  <SCORE.INTRA.DIHEDRAL>
2.91329

>  <SCORE.INTRA.DIHEDRAL.0>
2.68224

>  <SCORE.INTRA.POLAR>
0

>  <SCORE.INTRA.POLAR.0>
0

>  <SCORE.INTRA.REPUL>
0

>  <SCORE.INTRA.REPUL.0>
0

>  <SCORE.INTRA.SOLV>
-0.118654

>  <SCORE.INTRA.SOLV.lig_0>
-19.4148

>  <SCORE.INTRA.VDW>
-5.18368

>  <SCORE.INTRA.VDW.0>
5.42093

>  <SCORE.INTRA.norm>
-0.140236

>  <SCORE.RESTR>
0

>  <SCORE.RESTR.CAVITY>
0

>  <SCORE.RESTR.norm>
0

>  <SCORE.SYSTEM>
0

>  <SCORE.SYSTEM.CONST>
0

>  <SCORE.SYSTEM.DIHEDRAL>
0

>  <SCORE.SYSTEM.SOLV>
0

>  <SCORE.SYSTEM.norm>
0

>  <SCORE.heavy>
27

>  <SCORE.norm>
-1.42172

>  <RMSD>
0.933

$$$$
lig.pdb
 OpenBabel11021811523D
libRbt.so/2013.1/901 2013/11/27
 27 30  0  0  0  0  0  0  0  0999 V2000
   28.1619   36.1184   19.8379 N   0  0  0  0  0  0  0  0  0  0  0  0
   28.3577   37.3198   20.3222 C   0  0  0  0  0  0  0  0  0  0  0  0
   27.9794   37.7283   21.5596 N   0  0  0  0  0  0  0  0  0  0  0  0
   27.3917   36.8221   22.3965 C   0  0  0  0  0  0  0  0  0  0  0  0
   27.1742   35.5385   21.9848 C   0  0  0  0  0  0  0  0  0  0  0  0
   27.5546   35.1576   20.6454 C   0  0  0  0  0  0  0  0  0  0  0  0
   27.3422   34.0297   20.1832 O   0  0  0  0  0  0  0  0  0  0  0  0
   28.8881   38.4883   19.4626 C   0  0  2  0  0  0  0  0  0  0  0  0
   27.9141   39.6208   19.8262 C   0  0  0  0  0  0  0  0  0  0  0  0
   28.0709   40.7762   18.9409 N   0  0  0  0  0  0  0  0  0  0  0  0
   27.7492   40.3727   17.5625 C   0  0  0  0  0  0  0  0  0  0  0  0
   28.7204   39.3185   17.0692 C   0  0  0  0  0  0  0  0  0  0  0  0
   28.7158   38.1015   17.9839 C   0  0  0  0  0  0  0  0  0  0  0  0
   27.0801   37.3895   23.7015 C   0  0  0  0  0  0  0  0  0  0  0  0
   26.1713   36.5099   24.8743 S   0  0  0  0  0  0  0  0  0  0  0  0
   26.2347   37.7801   25.9668 C   0  0  0  0  0  0  0  0  0  0  0  0
   26.9501   38.8096   25.4964 C   0  0  0  0  0  0  0  0  0  0  0  0
   27.4383   38.6064   24.1908 C   0  0  0  0  0  0  0  0  0  0  0  0
   27.2219   41.9070   19.3554 C   0  0  0  0  0  0  0  0  0  0  0  0
   27.2731   42.2605   20.8250 C   0  0  0  0  0  0  0  0  0  0  0  0
   28.4792   42.5300   21.4553 C   0  0  0  0  0  0  0  0  0  0  0  0
   28.6620   42.5003   22.7879 N   0  0  0  0  0  0  0  0  0  0  0  0
   27.5866   42.1474   23.4760 C   0  0  0  0  0  0  0  0  0  0  0  0
   26.3875   41.8237   23.0190 N   0  0  0  0  0  0  0  0  0  0  0  0
   26.2681   41.8658   21.6838 C   0  0  0  0  0  0  0  0  0  0  0  0
   27.7748   42.1103   24.8001 O   0  0  0  0  0  0  0  0  0  0  0  0
   26.7728   42.7133   25.6273 C   0  0  0  0  0  0  0  0  0  0  0  0
  1  2  2  0  0  0  0
  1  6  1  0  0  0  0
  2  3  1  0  0  0  0
  3  4  2  0  0  0  0
  4 14  1  0  0  0  0
  5  4  1  0  0  0  0
  6  5  1  0  0  0  0
  7  6  2  0  0  0  0
  8  9  1  0  0  0  0
  8  2  1  1  0  0  0
 10 19  1  0  0  0  0
 10  9  1  0  0  0  0
 11 10  1  0  0  0  0
 12 11  1  0  0  0  0
 12 13  1  0  0  0  0
 13  8  1  0  0  0  0
 14 15  1  0  0  0  0
 14 18  2  0  0  0  0
 15 16  1  0  0  0  0
 16 17  2  0  0  0  0
 18 17  1  0  0  0  0
 19 20  1  0  0  0  0
 20 25  2  0  0  0  0
 20 21  1  0  0  0  0
 21 22  2  0  0  0  0
 22 23  1  0  0  0  0
 23 26  1  0  0  0  0
 24 23  2  0  0  0  0
 25 24  1  0  0  0  0
 26 27  1  0  0  0  0
M  END
>  <CHROM.1>
172.80071540,132.46245493,47.80324760,54.55223549,134.49019464,27.50338947
39.08297816,21.80890265,0.92184868,-1.34454144,-2.93733521

>  <Name>
lig.pdb

>  <RI>
0

>  <Rbt.Current_Directory>
/home/itssahil/PROJECTS/Mol_Feturizer/New_Systems/rnas/5kx9

>  <Rbt.Executable>
rbdock ($Id: //depot/dev/client3/rdock/2013.1/src/exe/rbdock.cxx#4 $)

>  <Rbt.Library>
libRbt.so (2013.1, Build901 2013/11/27)

>  <Rbt.Parameter_File>
/export/apps/rDock/src/rDock_2013.1_src/data/scripts/dock_solv.prm

>  <Rbt.Receptor>
prm/pocket_docking_3.prm

>  <SCORE>
-36.951

>  <SCORE.INTER>
-33.8677

>  <SCORE.INTER.CONST>
1

>  <SCORE.INTER.POLAR>
0

>  <SCORE.INTER.ROT>
5

>  <SCORE.INTER.SOLV>
13.2238

>  <SCORE.INTER.VDW>
-33.9197

>  <SCORE.INTER.norm>
-1.25436

>  <SCORE.INTRA>
-3.0833

>  <SCORE.INTRA.DIHEDRAL>
2.28097

>  <SCORE.INTRA.DIHEDRAL.0>
2.68224

>  <SCORE.INTRA.POLAR>
0

>  <SCORE.INTRA.POLAR.0>
0

>  <SCORE.INTRA.REPUL>
0

>  <SCORE.INTRA.REPUL.0>
0

>  <SCORE.INTRA.SOLV>
0.0680592

>  <SCORE.INTRA.SOLV.lig_0>
-19.4148

>  <SCORE.INTRA.VDW>
-4.25782

>  <SCORE.INTRA.VDW.0>
5.42093

>  <SCORE.INTRA.norm>
-0.114196

>  <SCORE.RESTR>
0

>  <SCORE.RESTR.CAVITY>
0

>  <SCORE.RESTR.norm>
0

>  <SCORE.SYSTEM>
0

>  <SCORE.SYSTEM.CONST>
0

>  <SCORE.SYSTEM.DIHEDRAL>
0

>  <SCORE.SYSTEM.SOLV>
0

>  <SCORE.SYSTEM.norm>
0

>  <SCORE.heavy>
27

>  <SCORE.norm>
-1.36855

>  <RMSD>
0.933

$$$$
lig.pdb
 OpenBabel11021811523D
libRbt.so/2013.1/901 2013/11/27
 27 30  0  0  0  0  0  0  0  0999 V2000
   28.3096   36.0771   19.0641 N   0  0  0  0  0  0  0  0  0  0  0  0
   28.5986   37.1351   19.7807 C   0  0  0  0  0  0  0  0  0  0  0  0
   28.1605   37.3586   21.0453 N   0  0  0  0  0  0  0  0  0  0  0  0
   27.3993   36.4001   21.6529 C   0  0  0  0  0  0  0  0  0  0  0  0
   27.0729   35.2517   20.9903 C   0  0  0  0  0  0  0  0  0  0  0  0
   27.5255   35.0734   19.6312 C   0  0  0  0  0  0  0  0  0  0  0  0
   27.2266   34.0852   18.9492 O   0  0  0  0  0  0  0  0  0  0  0  0
   29.3352   38.3607   19.1970 C   0  0  2  0  0  0  0  0  0  0  0  0
   28.4969   39.5279   19.7431 C   0  0  0  0  0  0  0  0  0  0  0  0
   28.8641   40.7992   19.1168 N   0  0  0  0  0  0  0  0  0  0  0  0
   28.5858   40.7222   17.6736 C   0  0  0  0  0  0  0  0  0  0  0  0
   29.4405   39.6566   17.0163 C   0  0  0  0  0  0  0  0  0  0  0  0
   29.2137   38.2981   17.6649 C   0  0  0  0  0  0  0  0  0  0  0  0
   27.0395   36.7576   23.0185 C   0  0  0  0  0  0  0  0  0  0  0  0
   27.4260   38.3037   23.6783 S   0  0  0  0  0  0  0  0  0  0  0  0
   26.7503   37.9087   25.1610 C   0  0  0  0  0  0  0  0  0  0  0  0
   26.2099   36.6837   25.1542 C   0  0  0  0  0  0  0  0  0  0  0  0
   26.3733   36.0026   23.9321 C   0  0  0  0  0  0  0  0  0  0  0  0
   28.1457   41.9370   19.7174 C   0  0  0  0  0  0  0  0  0  0  0  0
   28.3447   42.1261   21.2047 C   0  0  0  0  0  0  0  0  0  0  0  0
   27.2611   42.2396   22.0636 C   0  0  0  0  0  0  0  0  0  0  0  0
   27.3279   42.7531   23.3053 N   0  0  0  0  0  0  0  0  0  0  0  0
   28.5299   43.1917   23.6478 C   0  0  0  0  0  0  0  0  0  0  0  0
   29.6415   43.1896   22.9297 N   0  0  0  0  0  0  0  0  0  0  0  0
   29.5114   42.6713   21.6996 C   0  0  0  0  0  0  0  0  0  0  0  0
   28.5904   43.7097   24.8799 O   0  0  0  0  0  0  0  0  0  0  0  0
   29.5826   43.1849   25.7697 C   0  0  0  0  0  0  0  0  0  0  0  0
  1  2  2  0  0  0  0
  1  6  1  0  0  0  0
  2  3  1  0  0  0  0
  3  4  2  0  0  0  0
  4 14  1  0  0  0  0
  5  4  1  0  0  0  0
  6  5  1  0  0  0  0
  7  6  2  0  0  0  0
  8  9  1  0  0  0  0
  8  2  1  1  0  0  0
 10 19  1  0  0  0  0
 10  9  1  0  0  0  0
 11 10  1  0  0  0  0
 12 11  1  0  0  0  0
 12 13  1  0  0  0  0
 13  8  1  0  0  0  0
 14 15  1  0  0  0  0
 14 18  2  0  0  0  0
 15 16  1  0  0  0  0
 16 17  2  0  0  0  0
 18 17  1  0  0  0  0
 19 20  1  0  0  0  0
 20 25  2  0  0  0  0
 20 21  1  0  0  0  0
 21 22  2  0  0  0  0
 22 23  1  0  0  0  0
 23 26  1  0  0  0  0
 24 23  2  0  0  0  0
 25 24  1  0  0  0  0
 26 27  1  0  0  0  0
M  END
>  <CHROM.1>
5.77840519,134.26647179,58.15316989,-127.75974513,126.32898593,28.09418629
39.22900798,21.49390843,-1.93125622,1.24261893,0.82473207

>  <Name>
lig.pdb

>  <RI>
0

>  <Rbt.Current_Directory>
/home/itssahil/PROJECTS/Mol_Feturizer/New_Systems/rnas/5kx9

>  <Rbt.Executable>
rbdock ($Id: //depot/dev/client3/rdock/2013.1/src/exe/rbdock.cxx#4 $)

>  <Rbt.Library>
libRbt.so (2013.1, Build901 2013/11/27)

>  <Rbt.Parameter_File>
/export/apps/rDock/src/rDock_2013.1_src/data/scripts/dock_solv.prm

>  <Rbt.Receptor>
prm/blind_docking_80.prm

>  <SCORE>
-39.6919

>  <SCORE.INTER>
-36.8008

>  <SCORE.INTER.CONST>
1

>  <SCORE.INTER.POLAR>
0

>  <SCORE.INTER.ROT>
5

>  <SCORE.INTER.SOLV>
14.6712

>  <SCORE.INTER.VDW>
-36.3576

>  <SCORE.INTER.norm>
-1.36299

>  <SCORE.INTRA>
-2.89118

>  <SCORE.INTRA.DIHEDRAL>
2.3733

>  <SCORE.INTRA.DIHEDRAL.0>
2.68224

>  <SCORE.INTRA.POLAR>
0

>  <SCORE.INTRA.POLAR.0>
0

>  <SCORE.INTRA.REPUL>
0

>  <SCORE.INTRA.REPUL.0>
0

>  <SCORE.INTRA.SOLV>
-0.489164

>  <SCORE.INTRA.SOLV.lig_0>
-19.4148

>  <SCORE.INTRA.VDW>
-3.83325

>  <SCORE.INTRA.VDW.0>
5.42093

>  <SCORE.INTRA.norm>
-0.107081

>  <SCORE.RESTR>
0

>  <SCORE.RESTR.CAVITY>
0

>  <SCORE.RESTR.norm>
0

>  <SCORE.SYSTEM>
0

>  <SCORE.SYSTEM.CONST>
0

>  <SCORE.SYSTEM.DIHEDRAL>
0

>  <SCORE.SYSTEM.SOLV>
0

>  <SCORE.SYSTEM.norm>
0

>  <SCORE.heavy>
27

>  <SCORE.norm>
-1.47007

>  <RMSD>
0.935

$$$$
lig.pdb
 OpenBabel11021811523D
libRbt.so/2013.1/901 2013/11/27
 27 30  0  0  0  0  0  0  0  0999 V2000
   28.3115   36.1303   19.0905 N   0  0  0  0  0  0  0  0  0  0  0  0
   28.5993   37.1878   19.8082 C   0  0  0  0  0  0  0  0  0  0  0  0
   28.1692   37.4047   21.0767 N   0  0  0  0  0  0  0  0  0  0  0  0
   27.4185   36.4397   21.6869 C   0  0  0  0  0  0  0  0  0  0  0  0
   27.0943   35.2913   21.0231 C   0  0  0  0  0  0  0  0  0  0  0  0
   27.5378   35.1199   19.6602 C   0  0  0  0  0  0  0  0  0  0  0  0
   27.2400   34.1321   18.9774 O   0  0  0  0  0  0  0  0  0  0  0  0
   29.3240   38.4198   19.2229 C   0  0  2  0  0  0  0  0  0  0  0  0
   28.4815   39.5800   19.7774 C   0  0  0  0  0  0  0  0  0  0  0  0
   28.8363   40.8552   19.1521 N   0  0  0  0  0  0  0  0  0  0  0  0
   28.5491   40.7800   17.7105 C   0  0  0  0  0  0  0  0  0  0  0  0
   29.4066   39.7218   17.0449 C   0  0  0  0  0  0  0  0  0  0  0  0
   29.1930   38.3602   17.6915 C   0  0  0  0  0  0  0  0  0  0  0  0
   27.0666   36.7907   23.0563 C   0  0  0  0  0  0  0  0  0  0  0  0
   27.3966   38.3567   23.6997 S   0  0  0  0  0  0  0  0  0  0  0  0
   26.7639   37.9431   25.1962 C   0  0  0  0  0  0  0  0  0  0  0  0
   26.2771   36.6957   25.2063 C   0  0  0  0  0  0  0  0  0  0  0  0
   26.4494   36.0139   23.9859 C   0  0  0  0  0  0  0  0  0  0  0  0
   28.1143   41.9867   19.7602 C   0  0  0  0  0  0  0  0  0  0  0  0
   28.3247   42.1757   21.2459 C   0  0  0  0  0  0  0  0  0  0  0  0
   27.2479   42.2751   22.1149 C   0  0  0  0  0  0  0  0  0  0  0  0
   27.3201   42.7873   23.3568 N   0  0  0  0  0  0  0  0  0  0  0  0
   28.5199   43.2395   23.6891 C   0  0  0  0  0  0  0  0  0  0  0  0
   29.6248   43.2518   22.9607 N   0  0  0  0  0  0  0  0  0  0  0  0
   29.4894   42.7340   21.7309 C   0  0  0  0  0  0  0  0  0  0  0  0
   28.5856   43.7563   24.9214 O   0  0  0  0  0  0  0  0  0  0  0  0
   29.6194   43.2724   25.7868 C   0  0  0  0  0  0  0  0  0  0  0  0
  1  2  2  0  0  0  0
  1  6  1  0  0  0  0
  2  3  1  0  0  0  0
  3  4  2  0  0  0  0
  4 14  1  0  0  0  0
  5  4  1  0  0  0  0
  6  5  1  0  0  0  0
  7  6  2  0  0  0  0
  8  9  1  0  0  0  0
  8  2  1  1  0  0  0
 10 19  1  0  0  0  0
 10  9  1  0  0  0  0
 11 10  1  0  0  0  0
 12 11  1  0  0  0  0
 12 13  1  0  0  0  0
 13  8  1  0  0  0  0
 14 15  1  0  0  0  0
 14 18  2  0  0  0  0
 15 16  1  0  0  0  0
 16 17  2  0  0  0  0
 18 17  1  0  0  0  0
 19 20  1  0  0  0  0
 20 25  2  0  0  0  0
 20 21  1  0  0  0  0
 21 22  2  0  0  0  0
 22 23  1  0  0  0  0
 23 26  1  0  0  0  0
 24 23  2  0  0  0  0
 25 24  1  0  0  0  0
 26 27  1  0  0  0  0
M  END
>  <CHROM.1>
8.05206625,134.19953736,58.32108167,-127.52495653,128.28631909,28.09240784
39.27764122,21.52814156,-1.93637385,1.25104608,0.82891144

>  <Name>
lig.pdb

>  <RI>
0

>  <Rbt.Current_Directory>
/home/itssahil/PROJECTS/Mol_Feturizer/New_Systems/rnas/5kx9

>  <Rbt.Executable>
rbdock ($Id: //depot/dev/client3/rdock/2013.1/src/exe/rbdock.cxx#4 $)

>  <Rbt.Library>
libRbt.so (2013.1, Build901 2013/11/27)

>  <Rbt.Parameter_File>
/export/apps/rDock/src/rDock_2013.1_src/data/scripts/dock_solv.prm

>  <Rbt.Receptor>
prm/pocket_docking_4.prm

>  <SCORE>
-39.7665

>  <SCORE.INTER>
-36.8821

>  <SCORE.INTER.CONST>
1

>  <SCORE.INTER.POLAR>
0

>  <SCORE.INTER.ROT>
5

>  <SCORE.INTER.SOLV>
14.7869

>  <SCORE.INTER.VDW>
-36.4504

>  <SCORE.INTER.norm>
-1.366

>  <SCORE.INTRA>
-2.88435

>  <SCORE.INTRA.DIHEDRAL>
2.30272

>  <SCORE.INTRA.DIHEDRAL.0>
2.68224

>  <SCORE.INTRA.POLAR>
0

>  <SCORE.INTRA.POLAR.0>
0

>  <SCORE.INTRA.REPUL>
0

>  <SCORE.INTRA.REPUL.0>
0

>  <SCORE.INTRA.SOLV>
-0.480957

>  <SCORE.INTRA.SOLV.lig_0>
-19.4148

>  <SCORE.INTRA.VDW>
-3.79523

>  <SCORE.INTRA.VDW.0>
5.42093

>  <SCORE.INTRA.norm>
-0.106828

>  <SCORE.RESTR>
0

>  <SCORE.RESTR.CAVITY>
0

>  <SCORE.RESTR.norm>
0

>  <SCORE.SYSTEM>
0

>  <SCORE.SYSTEM.CONST>
0

>  <SCORE.SYSTEM.DIHEDRAL>
0

>  <SCORE.SYSTEM.SOLV>
0

>  <SCORE.SYSTEM.norm>
0

>  <SCORE.heavy>
27

>  <SCORE.norm>
-1.47283

>  <RMSD>
0.943

$$$$
lig.pdb
 OpenBabel11021811523D
libRbt.so/2013.1/901 2013/11/27
 27 30  0  0  0  0  0  0  0  0999 V2000
   27.6622   35.3838   20.0796 N   0  0  0  0  0  0  0  0  0  0  0  0
   27.6945   36.6785   20.2767 C   0  0  0  0  0  0  0  0  0  0  0  0
   27.4069   37.2913   21.4526 N   0  0  0  0  0  0  0  0  0  0  0  0
   27.1050   36.5170   22.5372 C   0  0  0  0  0  0  0  0  0  0  0  0
   27.0757   35.1561   22.4301 C   0  0  0  0  0  0  0  0  0  0  0  0
   27.3476   34.5473   21.1498 C   0  0  0  0  0  0  0  0  0  0  0  0
   27.2884   33.3258   20.9621 O   0  0  0  0  0  0  0  0  0  0  0  0
   27.8896   37.6915   19.1272 C   0  0  2  0  0  0  0  0  0  0  0  0
   28.5037   38.8945   19.8617 C   0  0  0  0  0  0  0  0  0  0  0  0
   28.5525   40.0834   19.0089 N   0  0  0  0  0  0  0  0  0  0  0  0
   27.1800   40.4704   18.6446 C   0  0  0  0  0  0  0  0  0  0  0  0
   26.5124   39.3823   17.8270 C   0  0  0  0  0  0  0  0  0  0  0  0
   26.4990   38.0615   18.5839 C   0  0  0  0  0  0  0  0  0  0  0  0
   26.8619   37.3081   23.7361 C   0  0  0  0  0  0  0  0  0  0  0  0
   26.0396   36.6483   25.1012 S   0  0  0  0  0  0  0  0  0  0  0  0
   26.1461   38.0947   25.9424 C   0  0  0  0  0  0  0  0  0  0  0  0
   26.8146   39.0271   25.2519 C   0  0  0  0  0  0  0  0  0  0  0  0
   27.2277   38.5953   23.9763 C   0  0  0  0  0  0  0  0  0  0  0  0
   29.2438   41.2057   19.6675 C   0  0  0  0  0  0  0  0  0  0  0  0
   28.4986   41.8523   20.8137 C   0  0  0  0  0  0  0  0  0  0  0  0
   29.0806   42.8603   21.5687 C   0  0  0  0  0  0  0  0  0  0  0  0
   28.6569   43.2347   22.7894 N   0  0  0  0  0  0  0  0  0  0  0  0
   27.6373   42.5266   23.2514 C   0  0  0  0  0  0  0  0  0  0  0  0
   27.0071   41.5175   22.6717 N   0  0  0  0  0  0  0  0  0  0  0  0
   27.4778   41.1864   21.4603 C   0  0  0  0  0  0  0  0  0  0  0  0
   27.2245   42.8961   24.4693 O   0  0  0  0  0  0  0  0  0  0  0  0
   28.2226   43.0636   25.4829 C   0  0  0  0  0  0  0  0  0  0  0  0
  1  2  2  0  0  0  0
  1  6  1  0  0  0  0
  2  3  1  0  0  0  0
  3  4  2  0  0  0  0
  4 14  1  0  0  0  0
  5  4  1  0  0  0  0
  6  5  1  0  0  0  0
  7  6  2  0  0  0  0
  8  9  1  0  0  0  0
  8  2  1  1  0  0  0
 10 19  1  0  0  0  0
 10  9  1  0  0  0  0
 11 10  1  0  0  0  0
 12 11  1  0  0  0  0
 12 13  1  0  0  0  0
 13  8  1  0  0  0  0
 14 15  1  0  0  0  0
 14 18  2  0  0  0  0
 15 16  1  0  0  0  0
 16 17  2  0  0  0  0
 18 17  1  0  0  0  0
 19 20  1  0  0  0  0
 20 25  2  0  0  0  0
 20 21  1  0  0  0  0
 21 22  2  0  0  0  0
 22 23  1  0  0  0  0
 23 26  1  0  0  0  0
 24 23  2  0  0  0  0
 25 24  1  0  0  0  0
 26 27  1  0  0  0  0
M  END
>  <CHROM.1>
162.32084940,-154.39994232,-70.96565914,175.76075524,-48.19981814,27.44386720
38.92404214,21.93487096,-2.19616146,1.33850277,0.80246783

>  <Name>
lig.pdb

>  <RI>
0

>  <Rbt.Current_Directory>
/home/itssahil/PROJECTS/Mol_Feturizer/New_Systems/rnas/5kx9

>  <Rbt.Executable>
rbdock ($Id: //depot/dev/client3/rdock/2013.1/src/exe/rbdock.cxx#4 $)

>  <Rbt.Library>
libRbt.so (2013.1, Build901 2013/11/27)

>  <Rbt.Parameter_File>
/export/apps/rDock/src/rDock_2013.1_src/data/scripts/dock_solv.prm

>  <Rbt.Receptor>
prm/pocket_docking_2.prm

>  <SCORE>
-34.3728

>  <SCORE.INTER>
-34.8113

>  <SCORE.INTER.CONST>
1

>  <SCORE.INTER.POLAR>
0

>  <SCORE.INTER.ROT>
5

>  <SCORE.INTER.SOLV>
14.6861

>  <SCORE.INTER.VDW>
-35.0363

>  <SCORE.INTER.norm>
-1.28931

>  <SCORE.INTRA>
-0.0589931

>  <SCORE.INTRA.DIHEDRAL>
3.08894

>  <SCORE.INTRA.DIHEDRAL.0>
2.68224

>  <SCORE.INTRA.POLAR>
0

>  <SCORE.INTRA.POLAR.0>
0

>  <SCORE.INTRA.REPUL>
0

>  <SCORE.INTRA.REPUL.0>
0

>  <SCORE.INTRA.SOLV>
0.147429

>  <SCORE.INTRA.SOLV.lig_0>
-19.4148

>  <SCORE.INTRA.VDW>
-1.67718

>  <SCORE.INTRA.VDW.0>
5.42093

>  <SCORE.INTRA.norm>
-0.00218493

>  <SCORE.RESTR>
0.497486

>  <SCORE.RESTR.CAVITY>
0.497486

>  <SCORE.RESTR.norm>
0.0184254

>  <SCORE.SYSTEM>
0

>  <SCORE.SYSTEM.CONST>
0

>  <SCORE.SYSTEM.DIHEDRAL>
0

>  <SCORE.SYSTEM.SOLV>
0

>  <SCORE.SYSTEM.norm>
0

>  <SCORE.heavy>
27

>  <SCORE.norm>
-1.27307

>  <RMSD>
0.944

$$$$
lig.pdb
 OpenBabel11021811523D
libRbt.so/2013.1/901 2013/11/27
 27 30  0  0  0  0  0  0  0  0999 V2000
   28.4798   36.1492   19.0515 N   0  0  0  0  0  0  0  0  0  0  0  0
   28.7205   37.2353   19.7433 C   0  0  0  0  0  0  0  0  0  0  0  0
   28.2642   37.4721   20.9990 N   0  0  0  0  0  0  0  0  0  0  0  0
   27.5377   36.4989   21.6254 C   0  0  0  0  0  0  0  0  0  0  0  0
   27.2628   35.3223   20.9895 C   0  0  0  0  0  0  0  0  0  0  0  0
   27.7324   35.1289   19.6383 C   0  0  0  0  0  0  0  0  0  0  0  0
   27.4787   34.1129   18.9793 O   0  0  0  0  0  0  0  0  0  0  0  0
   29.4116   38.4750   19.1341 C   0  0  2  0  0  0  0  0  0  0  0  0
   28.4556   39.6075   19.5427 C   0  0  0  0  0  0  0  0  0  0  0  0
   28.7793   40.8626   18.8621 N   0  0  0  0  0  0  0  0  0  0  0  0
   28.6156   40.6787   17.4111 C   0  0  0  0  0  0  0  0  0  0  0  0
   29.5891   39.6418   16.8862 C   0  0  0  0  0  0  0  0  0  0  0  0
   29.4095   38.3117   17.6046 C   0  0  0  0  0  0  0  0  0  0  0  0
   27.1534   36.8751   22.9793 C   0  0  0  0  0  0  0  0  0  0  0  0
   26.2656   35.8018   23.9965 S   0  0  0  0  0  0  0  0  0  0  0  0
   26.2188   36.9223   25.2427 C   0  0  0  0  0  0  0  0  0  0  0  0
   26.8838   38.0427   24.9335 C   0  0  0  0  0  0  0  0  0  0  0  0
   27.4220   38.0373   23.6318 C   0  0  0  0  0  0  0  0  0  0  0  0
   27.9406   41.9779   19.3353 C   0  0  0  0  0  0  0  0  0  0  0  0
   28.1580   42.3976   20.7720 C   0  0  0  0  0  0  0  0  0  0  0  0
   29.4361   42.5104   21.2997 C   0  0  0  0  0  0  0  0  0  0  0  0
   29.7149   42.5242   22.6157 N   0  0  0  0  0  0  0  0  0  0  0  0
   28.6552   42.3796   23.3971 C   0  0  0  0  0  0  0  0  0  0  0  0
   27.3893   42.2216   23.0450 N   0  0  0  0  0  0  0  0  0  0  0  0
   27.1745   42.2100   21.7212 C   0  0  0  0  0  0  0  0  0  0  0  0
   28.9375   42.3849   24.7049 O   0  0  0  0  0  0  0  0  0  0  0  0
   29.8074   43.4147   25.1892 C   0  0  0  0  0  0  0  0  0  0  0  0
  1  2  2  0  0  0  0
  1  6  1  0  0  0  0
  2  3  1  0  0  0  0
  3  4  2  0  0  0  0
  4 14  1  0  0  0  0
  5  4  1  0  0  0  0
  6  5  1  0  0  0  0
  7  6  2  0  0  0  0
  8  9  1  0  0  0  0
  8  2  1  1  0  0  0
 10 19  1  0  0  0  0
 10  9  1  0  0  0  0
 11 10  1  0  0  0  0
 12 11  1  0  0  0  0
 12 13  1  0  0  0  0
 13  8  1  0  0  0  0
 14 15  1  0  0  0  0
 14 18  2  0  0  0  0
 15 16  1  0  0  0  0
 16 17  2  0  0  0  0
 18 17  1  0  0  0  0
 19 20  1  0  0  0  0
 20 25  2  0  0  0  0
 20 21  1  0  0  0  0
 21 22  2  0  0  0  0
 22 23  1  0  0  0  0
 23 26  1  0  0  0  0
 24 23  2  0  0  0  0
 25 24  1  0  0  0  0
 26 27  1  0  0  0  0
M  END
>  <CHROM.1>
-178.37319659,129.56288175,66.45724369,43.01858234,46.97111985,28.10826059
39.01932131,21.35467915,-2.16153284,1.24167504,0.82614449

>  <Name>
lig.pdb

>  <RI>
0

>  <Rbt.Current_Directory>
/home/itssahil/PROJECTS/Mol_Feturizer/New_Systems/rnas/5kx9

>  <Rbt.Executable>
rbdock ($Id: //depot/dev/client3/rdock/2013.1/src/exe/rbdock.cxx#4 $)

>  <Rbt.Library>
libRbt.so (2013.1, Build901 2013/11/27)

>  <Rbt.Parameter_File>
/export/apps/rDock/src/rDock_2013.1_src/data/scripts/dock_solv.prm

>  <Rbt.Receptor>
prm/blind_docking_60.prm

>  <SCORE>
-39.1044

>  <SCORE.INTER>
-36.1615

>  <SCORE.INTER.CONST>
1

>  <SCORE.INTER.POLAR>
0

>  <SCORE.INTER.ROT>
5

>  <SCORE.INTER.SOLV>
13.6371

>  <SCORE.INTER.VDW>
-35.5867

>  <SCORE.INTER.norm>
-1.33932

>  <SCORE.INTRA>
-2.94288

>  <SCORE.INTRA.DIHEDRAL>
1.72555

>  <SCORE.INTRA.DIHEDRAL.0>
2.68224

>  <SCORE.INTRA.POLAR>
0

>  <SCORE.INTRA.POLAR.0>
0

>  <SCORE.INTRA.REPUL>
0

>  <SCORE.INTRA.REPUL.0>
0

>  <SCORE.INTRA.SOLV>
-0.382052

>  <SCORE.INTRA.SOLV.lig_0>
-19.4148

>  <SCORE.INTRA.VDW>
-3.61463

>  <SCORE.INTRA.VDW.0>
5.42093

>  <SCORE.INTRA.norm>
-0.108996

>  <SCORE.RESTR>
0

>  <SCORE.RESTR.CAVITY>
0

>  <SCORE.RESTR.norm>
0

>  <SCORE.SYSTEM>
0

>  <SCORE.SYSTEM.CONST>
0

>  <SCORE.SYSTEM.DIHEDRAL>
0

>  <SCORE.SYSTEM.SOLV>
0

>  <SCORE.SYSTEM.norm>
0

>  <SCORE.heavy>
27

>  <SCORE.norm>
-1.44831

>  <RMSD>
0.950

$$$$
lig.pdb
 OpenBabel11021811523D
libRbt.so/2013.1/901 2013/11/27
 27 30  0  0  0  0  0  0  0  0999 V2000
   28.2571   36.1162   19.2503 N   0  0  0  0  0  0  0  0  0  0  0  0
   28.6190   37.2068   19.8796 C   0  0  0  0  0  0  0  0  0  0  0  0
   28.2450   37.5339   21.1422 N   0  0  0  0  0  0  0  0  0  0  0  0
   27.4728   36.6525   21.8449 C   0  0  0  0  0  0  0  0  0  0  0  0
   27.0722   35.4770   21.2772 C   0  0  0  0  0  0  0  0  0  0  0  0
   27.4584   35.1878   19.9166 C   0  0  0  0  0  0  0  0  0  0  0  0
   27.0909   34.1696   19.3174 O   0  0  0  0  0  0  0  0  0  0  0  0
   29.3785   38.3573   19.1832 C   0  0  2  0  0  0  0  0  0  0  0  0
   28.5973   39.5920   19.6613 C   0  0  0  0  0  0  0  0  0  0  0  0
   28.9881   40.7981   18.9293 N   0  0  0  0  0  0  0  0  0  0  0  0
   28.6634   40.6221   17.5046 C   0  0  0  0  0  0  0  0  0  0  0  0
   29.4610   39.4796   16.9074 C   0  0  0  0  0  0  0  0  0  0  0  0
   29.2082   38.1832   17.6645 C   0  0  0  0  0  0  0  0  0  0  0  0
   27.1867   37.1166   23.1958 C   0  0  0  0  0  0  0  0  0  0  0  0
   27.5564   38.7259   23.6943 S   0  0  0  0  0  0  0  0  0  0  0  0
   26.9906   38.4412   25.2466 C   0  0  0  0  0  0  0  0  0  0  0  0
   26.4965   37.2039   25.3800 C   0  0  0  0  0  0  0  0  0  0  0  0
   26.6077   36.4239   24.2124 C   0  0  0  0  0  0  0  0  0  0  0  0
   28.3274   42.0033   19.4605 C   0  0  0  0  0  0  0  0  0  0  0  0
   28.1907   42.0661   20.9654 C   0  0  0  0  0  0  0  0  0  0  0  0
   26.9477   41.9835   21.5759 C   0  0  0  0  0  0  0  0  0  0  0  0
   26.6941   42.3777   22.8369 N   0  0  0  0  0  0  0  0  0  0  0  0
   27.7374   42.9021   23.4623 C   0  0  0  0  0  0  0  0  0  0  0  0
   28.9652   43.0844   23.0031 N   0  0  0  0  0  0  0  0  0  0  0  0
   29.1554   42.6777   21.7393 C   0  0  0  0  0  0  0  0  0  0  0  0
   27.4791   43.3012   24.7129 O   0  0  0  0  0  0  0  0  0  0  0  0
   28.0249   42.5198   25.7821 C   0  0  0  0  0  0  0  0  0  0  0  0
  1  2  2  0  0  0  0
  1  6  1  0  0  0  0
  2  3  1  0  0  0  0
  3  4  2  0  0  0  0
  4 14  1  0  0  0  0
  5  4  1  0  0  0  0
  6  5  1  0  0  0  0
  7  6  2  0  0  0  0
  8  9  1  0  0  0  0
  8  2  1  1  0  0  0
 10 19  1  0  0  0  0
 10  9  1  0  0  0  0
 11 10  1  0  0  0  0
 12 11  1  0  0  0  0
 12 13  1  0  0  0  0
 13  8  1  0  0  0  0
 14 15  1  0  0  0  0
 14 18  2  0  0  0  0
 15 16  1  0  0  0  0
 16 17  2  0  0  0  0
 18 17  1  0  0  0  0
 19 20  1  0  0  0  0
 20 25  2  0  0  0  0
 20 21  1  0  0  0  0
 21 22  2  0  0  0  0
 22 23  1  0  0  0  0
 23 26  1  0  0  0  0
 24 23  2  0  0  0  0
 25 24  1  0  0  0  0
 26 27  1  0  0  0  0
M  END
>  <CHROM.1>
10.44199750,133.34605772,39.02641070,-111.90965935,107.86784585,27.94390390
39.26910187,21.49581432,1.44266980,-1.27192567,-2.62952837

>  <Name>
lig.pdb

>  <RI>
0

>  <Rbt.Current_Directory>
/home/itssahil/PROJECTS/Mol_Feturizer/New_Systems/rnas/5kx9

>  <Rbt.Executable>
rbdock ($Id: //depot/dev/client3/rdock/2013.1/src/exe/rbdock.cxx#4 $)

>  <Rbt.Library>
libRbt.so (2013.1, Build901 2013/11/27)

>  <Rbt.Parameter_File>
/export/apps/rDock/src/rDock_2013.1_src/data/scripts/dock_solv.prm

>  <Rbt.Receptor>
prm/pocket_docking_6.prm

>  <SCORE>
-37.1643

>  <SCORE.INTER>
-34.7088

>  <SCORE.INTER.CONST>
1

>  <SCORE.INTER.POLAR>
0

>  <SCORE.INTER.ROT>
5

>  <SCORE.INTER.SOLV>
13.6515

>  <SCORE.INTER.VDW>
-34.623

>  <SCORE.INTER.norm>
-1.28551

>  <SCORE.INTRA>
-2.45554

>  <SCORE.INTRA.DIHEDRAL>
4.14822

>  <SCORE.INTRA.DIHEDRAL.0>
2.68224

>  <SCORE.INTRA.POLAR>
0

>  <SCORE.INTRA.POLAR.0>
0

>  <SCORE.INTRA.REPUL>
0

>  <SCORE.INTRA.REPUL.0>
0

>  <SCORE.INTRA.SOLV>
-0.26107

>  <SCORE.INTRA.SOLV.lig_0>
-19.4148

>  <SCORE.INTRA.VDW>
-4.39912

>  <SCORE.INTRA.VDW.0>
5.42093

>  <SCORE.INTRA.norm>
-0.0909459

>  <SCORE.RESTR>
0

>  <SCORE.RESTR.CAVITY>
0

>  <SCORE.RESTR.norm>
0

>  <SCORE.SYSTEM>
0

>  <SCORE.SYSTEM.CONST>
0

>  <SCORE.SYSTEM.DIHEDRAL>
0

>  <SCORE.SYSTEM.SOLV>
0

>  <SCORE.SYSTEM.norm>
0

>  <SCORE.heavy>
27

>  <SCORE.norm>
-1.37646

>  <RMSD>
0.950

$$$$
lig.pdb
 OpenBabel11021811523D
libRbt.so/2013.1/901 2013/11/27
 27 30  0  0  0  0  0  0  0  0999 V2000
   28.2475   36.1780   19.0730 N   0  0  0  0  0  0  0  0  0  0  0  0
   28.5350   37.2286   19.8010 C   0  0  0  0  0  0  0  0  0  0  0  0
   28.1130   37.4285   21.0749 N   0  0  0  0  0  0  0  0  0  0  0  0
   27.3717   36.4526   21.6792 C   0  0  0  0  0  0  0  0  0  0  0  0
   27.0485   35.3104   21.0044 C   0  0  0  0  0  0  0  0  0  0  0  0
   27.4831   35.1572   19.6364 C   0  0  0  0  0  0  0  0  0  0  0  0
   27.1853   34.1758   18.9443 O   0  0  0  0  0  0  0  0  0  0  0  0
   29.2493   38.4710   19.2250 C   0  0  2  0  0  0  0  0  0  0  0  0
   28.4288   39.6213   19.8307 C   0  0  0  0  0  0  0  0  0  0  0  0
   28.7723   40.9096   19.2262 N   0  0  0  0  0  0  0  0  0  0  0  0
   28.4442   40.8704   17.7919 C   0  0  0  0  0  0  0  0  0  0  0  0
   29.2770   39.8246   17.0772 C   0  0  0  0  0  0  0  0  0  0  0  0
   29.0747   38.4488   17.6969 C   0  0  0  0  0  0  0  0  0  0  0  0
   27.0279   36.7858   23.0551 C   0  0  0  0  0  0  0  0  0  0  0  0
   27.3967   38.3303   23.7286 S   0  0  0  0  0  0  0  0  0  0  0  0
   26.7529   37.9039   25.2168 C   0  0  0  0  0  0  0  0  0  0  0  0
   26.2351   36.6692   25.2028 C   0  0  0  0  0  0  0  0  0  0  0  0
   26.3909   36.0069   23.9695 C   0  0  0  0  0  0  0  0  0  0  0  0
   28.0736   42.0294   19.8814 C   0  0  0  0  0  0  0  0  0  0  0  0
   28.3495   42.1993   21.3587 C   0  0  0  0  0  0  0  0  0  0  0  0
   27.3191   42.4342   22.2574 C   0  0  0  0  0  0  0  0  0  0  0  0
   27.4900   42.9404   23.4920 N   0  0  0  0  0  0  0  0  0  0  0  0
   28.7454   43.2445   23.7855 C   0  0  0  0  0  0  0  0  0  0  0  0
   29.8214   43.1178   23.0256 N   0  0  0  0  0  0  0  0  0  0  0  0
   29.5875   42.6137   21.8049 C   0  0  0  0  0  0  0  0  0  0  0  0
   28.9102   43.7560   25.0108 O   0  0  0  0  0  0  0  0  0  0  0  0
   30.0884   43.3776   25.7321 C   0  0  0  0  0  0  0  0  0  0  0  0
  1  2  2  0  0  0  0
  1  6  1  0  0  0  0
  2  3  1  0  0  0  0
  3  4  2  0  0  0  0
  4 14  1  0  0  0  0
  5  4  1  0  0  0  0
  6  5  1  0  0  0  0
  7  6  2  0  0  0  0
  8  9  1  0  0  0  0
  8  2  1  1  0  0  0
 10 19  1  0  0  0  0
 10  9  1  0  0  0  0
 11 10  1  0  0  0  0
 12 11  1  0  0  0  0
 12 13  1  0  0  0  0
 13  8  1  0  0  0  0
 14 15  1  0  0  0  0
 14 18  2  0  0  0  0
 15 16  1  0  0  0  0
 16 17  2  0  0  0  0
 18 17  1  0  0  0  0
 19 20  1  0  0  0  0
 20 25  2  0  0  0  0
 20 21  1  0  0  0  0
 21 22  2  0  0  0  0
 22 23  1  0  0  0  0
 23 26  1  0  0  0  0
 24 23  2  0  0  0  0
 25 24  1  0  0  0  0
 26 27  1  0  0  0  0
M  END
>  <CHROM.1>
6.21875079,135.71063967,59.55016721,-134.93751286,142.47577615,28.11159702
39.30492077,21.56288944,-2.06980559,1.24571972,0.95224742

>  <Name>
lig.pdb

>  <RI>
0

>  <Rbt.Current_Directory>
/home/itssahil/PROJECTS/Mol_Feturizer/New_Systems/rnas/5kx9

>  <Rbt.Executable>
rbdock ($Id: //depot/dev/client3/rdock/2013.1/src/exe/rbdock.cxx#4 $)

>  <Rbt.Library>
libRbt.so (2013.1, Build901 2013/11/27)

>  <Rbt.Parameter_File>
/export/apps/rDock/src/rDock_2013.1_src/data/scripts/dock_solv.prm

>  <Rbt.Receptor>
prm/pocket_docking_4.prm

>  <SCORE>
-39.2613

>  <SCORE.INTER>
-36.5893

>  <SCORE.INTER.CONST>
1

>  <SCORE.INTER.POLAR>
0

>  <SCORE.INTER.ROT>
5

>  <SCORE.INTER.SOLV>
14.6037

>  <SCORE.INTER.VDW>
-36.1941

>  <SCORE.INTER.norm>
-1.35516

>  <SCORE.INTRA>
-2.67197

>  <SCORE.INTRA.DIHEDRAL>
1.22045

>  <SCORE.INTRA.DIHEDRAL.0>
2.68224

>  <SCORE.INTRA.POLAR>
0

>  <SCORE.INTRA.POLAR.0>
0

>  <SCORE.INTRA.REPUL>
0

>  <SCORE.INTRA.REPUL.0>
0

>  <SCORE.INTRA.SOLV>
-0.503819

>  <SCORE.INTRA.SOLV.lig_0>
-19.4148

>  <SCORE.INTRA.VDW>
-3.03029

>  <SCORE.INTRA.VDW.0>
5.42093

>  <SCORE.INTRA.norm>
-0.0989619

>  <SCORE.RESTR>
0

>  <SCORE.RESTR.CAVITY>
0

>  <SCORE.RESTR.norm>
0

>  <SCORE.SYSTEM>
0

>  <SCORE.SYSTEM.CONST>
0

>  <SCORE.SYSTEM.DIHEDRAL>
0

>  <SCORE.SYSTEM.SOLV>
0

>  <SCORE.SYSTEM.norm>
0

>  <SCORE.heavy>
27

>  <SCORE.norm>
-1.45412

>  <RMSD>
0.958

$$$$
lig.pdb
 OpenBabel11021811523D
libRbt.so/2013.1/901 2013/11/27
 27 30  0  0  0  0  0  0  0  0999 V2000
   28.3398   36.2293   19.0595 N   0  0  0  0  0  0  0  0  0  0  0  0
   28.5684   37.3138   19.7579 C   0  0  0  0  0  0  0  0  0  0  0  0
   28.1396   37.5230   21.0281 N   0  0  0  0  0  0  0  0  0  0  0  0
   27.4578   36.5225   21.6615 C   0  0  0  0  0  0  0  0  0  0  0  0
   27.1991   35.3459   21.0188 C   0  0  0  0  0  0  0  0  0  0  0  0
   27.6375   35.1814   19.6534 C   0  0  0  0  0  0  0  0  0  0  0  0
   27.3949   34.1663   18.9889 O   0  0  0  0  0  0  0  0  0  0  0  0
   29.2078   38.5795   19.1457 C   0  0  2  0  0  0  0  0  0  0  0  0
   28.3795   39.7014   19.7930 C   0  0  0  0  0  0  0  0  0  0  0  0
   28.6458   40.9998   19.1714 N   0  0  0  0  0  0  0  0  0  0  0  0
   28.2457   40.9464   17.7561 C   0  0  0  0  0  0  0  0  0  0  0  0
   29.0769   39.9292   16.9993 C   0  0  0  0  0  0  0  0  0  0  0  0
   28.9555   38.5484   17.6287 C   0  0  0  0  0  0  0  0  0  0  0  0
   27.0997   36.8720   23.0297 C   0  0  0  0  0  0  0  0  0  0  0  0
   26.1895   35.7983   24.0266 S   0  0  0  0  0  0  0  0  0  0  0  0
   26.1908   36.8842   25.3040 C   0  0  0  0  0  0  0  0  0  0  0  0
   26.8871   37.9917   25.0186 C   0  0  0  0  0  0  0  0  0  0  0  0
   27.4112   38.0064   23.7113 C   0  0  0  0  0  0  0  0  0  0  0  0
   27.9428   42.0955   19.8618 C   0  0  0  0  0  0  0  0  0  0  0  0
   28.2605   42.2542   21.3319 C   0  0  0  0  0  0  0  0  0  0  0  0
   27.2499   42.3894   22.2726 C   0  0  0  0  0  0  0  0  0  0  0  0
   27.4282   42.8806   23.5123 N   0  0  0  0  0  0  0  0  0  0  0  0
   28.6669   43.2741   23.7678 C   0  0  0  0  0  0  0  0  0  0  0  0
   29.7200   43.2472   22.9667 N   0  0  0  0  0  0  0  0  0  0  0  0
   29.4792   42.7531   21.7433 C   0  0  0  0  0  0  0  0  0  0  0  0
   28.8383   43.7702   24.9985 O   0  0  0  0  0  0  0  0  0  0  0  0
   29.9618   43.2977   25.7510 C   0  0  0  0  0  0  0  0  0  0  0  0
  1  2  2  0  0  0  0
  1  6  1  0  0  0  0
  2  3  1  0  0  0  0
  3  4  2  0  0  0  0
  4 14  1  0  0  0  0
  5  4  1  0  0  0  0
  6  5  1  0  0  0  0
  7  6  2  0  0  0  0
  8  9  1  0  0  0  0
  8  2  1  1  0  0  0
 10 19  1  0  0  0  0
 10  9  1  0  0  0  0
 11 10  1  0  0  0  0
 12 11  1  0  0  0  0
 12 13  1  0  0  0  0
 13  8  1  0  0  0  0
 14 15  1  0  0  0  0
 14 18  2  0  0  0  0
 15 16  1  0  0  0  0
 16 17  2  0  0  0  0
 18 17  1  0  0  0  0
 19 20  1  0  0  0  0
 20 25  2  0  0  0  0
 20 21  1  0  0  0  0
 21 22  2  0  0  0  0
 22 23  1  0  0  0  0
 23 26  1  0  0  0  0
 24 23  2  0  0  0  0
 25 24  1  0  0  0  0
 26 27  1  0  0  0  0
M  END
>  <CHROM.1>
177.98873766,139.07496803,57.97067646,-131.75571996,132.64083528,28.02102283
39.21438203,21.55616961,-2.15640045,1.25699996,0.92132807

>  <Name>
lig.pdb

>  <RI>
0

>  <Rbt.Current_Directory>
/home/itssahil/PROJECTS/Mol_Feturizer/New_Systems/rnas/5kx9

>  <Rbt.Executable>
rbdock ($Id: //depot/dev/client3/rdock/2013.1/src/exe/rbdock.cxx#4 $)

>  <Rbt.Library>
libRbt.so (2013.1, Build901 2013/11/27)

>  <Rbt.Parameter_File>
/export/apps/rDock/src/rDock_2013.1_src/data/scripts/dock_solv.prm

>  <Rbt.Receptor>
prm/pocket_docking_3.prm

>  <SCORE>
-39.9925

>  <SCORE.INTER>
-37.8994

>  <SCORE.INTER.CONST>
1

>  <SCORE.INTER.POLAR>
0

>  <SCORE.INTER.ROT>
5

>  <SCORE.INTER.SOLV>
15.31

>  <SCORE.INTER.VDW>
-37.303

>  <SCORE.INTER.norm>
-1.40368

>  <SCORE.INTRA>
-2.09307

>  <SCORE.INTRA.DIHEDRAL>
1.92288

>  <SCORE.INTRA.DIHEDRAL.0>
2.68224

>  <SCORE.INTRA.POLAR>
0

>  <SCORE.INTRA.POLAR.0>
0

>  <SCORE.INTRA.REPUL>
0

>  <SCORE.INTRA.REPUL.0>
0

>  <SCORE.INTRA.SOLV>
-0.611452

>  <SCORE.INTRA.SOLV.lig_0>
-19.4148

>  <SCORE.INTRA.VDW>
-2.74879

>  <SCORE.INTRA.VDW.0>
5.42093

>  <SCORE.INTRA.norm>
-0.0775211

>  <SCORE.RESTR>
0

>  <SCORE.RESTR.CAVITY>
0

>  <SCORE.RESTR.norm>
0

>  <SCORE.SYSTEM>
0

>  <SCORE.SYSTEM.CONST>
0

>  <SCORE.SYSTEM.DIHEDRAL>
0

>  <SCORE.SYSTEM.SOLV>
0

>  <SCORE.SYSTEM.norm>
0

>  <SCORE.heavy>
27

>  <SCORE.norm>
-1.4812

>  <RMSD>
0.959

$$$$
lig.pdb
 OpenBabel11021811523D
libRbt.so/2013.1/901 2013/11/27
 27 30  0  0  0  0  0  0  0  0999 V2000
   28.4866   36.1835   19.0722 N   0  0  0  0  0  0  0  0  0  0  0  0
   28.7213   37.2648   19.7737 C   0  0  0  0  0  0  0  0  0  0  0  0
   28.2595   37.4898   21.0296 N   0  0  0  0  0  0  0  0  0  0  0  0
   27.5337   36.5094   21.6452 C   0  0  0  0  0  0  0  0  0  0  0  0
   27.2649   35.3371   20.9988 C   0  0  0  0  0  0  0  0  0  0  0  0
   27.7403   35.1561   19.6479 C   0  0  0  0  0  0  0  0  0  0  0  0
   27.4923   34.1448   18.9797 O   0  0  0  0  0  0  0  0  0  0  0  0
   29.4108   38.5115   19.1772 C   0  0  2  0  0  0  0  0  0  0  0  0
   28.4806   39.6443   19.6411 C   0  0  0  0  0  0  0  0  0  0  0  0
   28.8010   40.9126   18.9839 N   0  0  0  0  0  0  0  0  0  0  0  0
   28.5951   40.7681   17.5338 C   0  0  0  0  0  0  0  0  0  0  0  0
   29.5407   39.7338   16.9557 C   0  0  0  0  0  0  0  0  0  0  0  0
   29.3644   38.3878   17.6447 C   0  0  0  0  0  0  0  0  0  0  0  0
   27.1432   36.8733   23.0007 C   0  0  0  0  0  0  0  0  0  0  0  0
   26.2435   35.7941   24.0011 S   0  0  0  0  0  0  0  0  0  0  0  0
   26.1950   36.9017   25.2588 C   0  0  0  0  0  0  0  0  0  0  0  0
   26.8676   38.0217   24.9654 C   0  0  0  0  0  0  0  0  0  0  0  0
   27.4138   38.0271   23.6671 C   0  0  0  0  0  0  0  0  0  0  0  0
   27.9897   42.0252   19.5086 C   0  0  0  0  0  0  0  0  0  0  0  0
   28.2553   42.4081   20.9474 C   0  0  0  0  0  0  0  0  0  0  0  0
   29.5482   42.4614   21.4475 C   0  0  0  0  0  0  0  0  0  0  0  0
   29.8567   42.4389   22.7568 N   0  0  0  0  0  0  0  0  0  0  0  0
   28.8098   42.3201   23.5596 C   0  0  0  0  0  0  0  0  0  0  0  0
   27.5312   42.2178   23.2339 N   0  0  0  0  0  0  0  0  0  0  0  0
   27.2867   42.2402   21.9153 C   0  0  0  0  0  0  0  0  0  0  0  0
   29.1212   42.2891   24.8604 O   0  0  0  0  0  0  0  0  0  0  0  0
   29.9626   43.3333   25.3637 C   0  0  0  0  0  0  0  0  0  0  0  0
  1  2  2  0  0  0  0
  1  6  1  0  0  0  0
  2  3  1  0  0  0  0
  3  4  2  0  0  0  0
  4 14  1  0  0  0  0
  5  4  1  0  0  0  0
  6  5  1  0  0  0  0
  7  6  2  0  0  0  0
  8  9  1  0  0  0  0
  8  2  1  1  0  0  0
 10 19  1  0  0  0  0
 10  9  1  0  0  0  0
 11 10  1  0  0  0  0
 12 11  1  0  0  0  0
 12 13  1  0  0  0  0
 13  8  1  0  0  0  0
 14 15  1  0  0  0  0
 14 18  2  0  0  0  0
 15 16  1  0  0  0  0
 16 17  2  0  0  0  0
 18 17  1  0  0  0  0
 19 20  1  0  0  0  0
 20 25  2  0  0  0  0
 20 21  1  0  0  0  0
 21 22  2  0  0  0  0
 22 23  1  0  0  0  0
 23 26  1  0  0  0  0
 24 23  2  0  0  0  0
 25 24  1  0  0  0  0
 26 27  1  0  0  0  0
M  END
>  <CHROM.1>
-178.89029232,131.80862133,66.66005515,41.34399531,51.47209543,28.14424346
39.02568164,21.43458192,-2.20129102,1.23196267,0.89747768

>  <Name>
lig.pdb

>  <RI>
0

>  <Rbt.Current_Directory>
/home/itssahil/PROJECTS/Mol_Feturizer/New_Systems/rnas/5kx9

>  <Rbt.Executable>
rbdock ($Id: //depot/dev/client3/rdock/2013.1/src/exe/rbdock.cxx#4 $)

>  <Rbt.Library>
libRbt.so (2013.1, Build901 2013/11/27)

>  <Rbt.Parameter_File>
/export/apps/rDock/src/rDock_2013.1_src/data/scripts/dock_solv.prm

>  <Rbt.Receptor>
prm/pocket_docking_4.prm

>  <SCORE>
-39.1891

>  <SCORE.INTER>
-36.346

>  <SCORE.INTER.CONST>
1

>  <SCORE.INTER.POLAR>
0

>  <SCORE.INTER.ROT>
5

>  <SCORE.INTER.SOLV>
13.7953

>  <SCORE.INTER.VDW>
-35.7625

>  <SCORE.INTER.norm>
-1.34615

>  <SCORE.INTRA>
-2.84305

>  <SCORE.INTRA.DIHEDRAL>
2.08456

>  <SCORE.INTRA.DIHEDRAL.0>
2.68224

>  <SCORE.INTRA.POLAR>
0

>  <SCORE.INTRA.POLAR.0>
0

>  <SCORE.INTRA.REPUL>
0

>  <SCORE.INTRA.REPUL.0>
0

>  <SCORE.INTRA.SOLV>
-0.380399

>  <SCORE.INTRA.SOLV.lig_0>
-19.4148

>  <SCORE.INTRA.VDW>
-3.69513

>  <SCORE.INTRA.VDW.0>
5.42093

>  <SCORE.INTRA.norm>
-0.105298

>  <SCORE.RESTR>
0

>  <SCORE.RESTR.CAVITY>
0

>  <SCORE.RESTR.norm>
0

>  <SCORE.SYSTEM>
0

>  <SCORE.SYSTEM.CONST>
0

>  <SCORE.SYSTEM.DIHEDRAL>
0

>  <SCORE.SYSTEM.SOLV>
0

>  <SCORE.SYSTEM.norm>
0

>  <SCORE.heavy>
27

>  <SCORE.norm>
-1.45145

>  <RMSD>
0.965

$$$$
lig.pdb
 OpenBabel11021811523D
libRbt.so/2013.1/901 2013/11/27
 27 30  0  0  0  0  0  0  0  0999 V2000
   28.2635   36.1157   19.0167 N   0  0  0  0  0  0  0  0  0  0  0  0
   28.5889   37.1482   19.7545 C   0  0  0  0  0  0  0  0  0  0  0  0
   28.1699   37.3539   21.0285 N   0  0  0  0  0  0  0  0  0  0  0  0
   27.3885   36.4029   21.6218 C   0  0  0  0  0  0  0  0  0  0  0  0
   27.0236   35.2798   20.9363 C   0  0  0  0  0  0  0  0  0  0  0  0
   27.4574   35.1210   19.5687 C   0  0  0  0  0  0  0  0  0  0  0  0
   27.1243   34.1577   18.8672 O   0  0  0  0  0  0  0  0  0  0  0  0
   29.3536   38.3664   19.1916 C   0  0  2  0  0  0  0  0  0  0  0  0
   28.5047   39.5415   19.7035 C   0  0  0  0  0  0  0  0  0  0  0  0
   28.9020   40.8075   19.0850 N   0  0  0  0  0  0  0  0  0  0  0  0
   28.6733   40.7259   17.6333 C   0  0  0  0  0  0  0  0  0  0  0  0
   29.5431   39.6518   17.0105 C   0  0  0  0  0  0  0  0  0  0  0  0
   29.2848   38.2978   17.6565 C   0  0  0  0  0  0  0  0  0  0  0  0
   27.0524   36.7380   22.9991 C   0  0  0  0  0  0  0  0  0  0  0  0
   27.4171   38.2864   23.6659 S   0  0  0  0  0  0  0  0  0  0  0  0
   26.7862   37.8605   25.1597 C   0  0  0  0  0  0  0  0  0  0  0  0
   26.2752   36.6229   25.1526 C   0  0  0  0  0  0  0  0  0  0  0  0
   26.4261   35.9581   23.9200 C   0  0  0  0  0  0  0  0  0  0  0  0
   28.1709   41.9526   19.6555 C   0  0  0  0  0  0  0  0  0  0  0  0
   28.2891   42.1249   21.1534 C   0  0  0  0  0  0  0  0  0  0  0  0
   27.1662   42.1032   21.9678 C   0  0  0  0  0  0  0  0  0  0  0  0
   27.1287   42.5902   23.2213 N   0  0  0  0  0  0  0  0  0  0  0  0
   28.2630   43.1438   23.6232 C   0  0  0  0  0  0  0  0  0  0  0  0
   29.3964   43.2759   22.9529 N   0  0  0  0  0  0  0  0  0  0  0  0
   29.3709   42.7772   21.7081 C   0  0  0  0  0  0  0  0  0  0  0  0
   28.2191   43.6349   24.8670 O   0  0  0  0  0  0  0  0  0  0  0  0
   29.2612   43.2448   25.7689 C   0  0  0  0  0  0  0  0  0  0  0  0
  1  2  2  0  0  0  0
  1  6  1  0  0  0  0
  2  3  1  0  0  0  0
  3  4  2  0  0  0  0
  4 14  1  0  0  0  0
  5  4  1  0  0  0  0
  6  5  1  0  0  0  0
  7  6  2  0  0  0  0
  8  9  1  0  0  0  0
  8  2  1  1  0  0  0
 10 19  1  0  0  0  0
 10  9  1  0  0  0  0
 11 10  1  0  0  0  0
 12 11  1  0  0  0  0
 12 13  1  0  0  0  0
 13  8  1  0  0  0  0
 14 15  1  0  0  0  0
 14 18  2  0  0  0  0
 15 16  1  0  0  0  0
 16 17  2  0  0  0  0
 18 17  1  0  0  0  0
 19 20  1  0  0  0  0
 20 25  2  0  0  0  0
 20 21  1  0  0  0  0
 21 22  2  0  0  0  0
 22 23  1  0  0  0  0
 23 26  1  0  0  0  0
 24 23  2  0  0  0  0
 25 24  1  0  0  0  0
 26 27  1  0  0  0  0
M  END
>  <CHROM.1>
8.93203536,131.00854143,56.56368433,-120.61141073,129.21835038,28.03924341
39.22439094,21.46507576,-1.84194301,1.24514408,0.75420891

>  <Name>
lig.pdb

>  <RI>
0

>  <Rbt.Current_Directory>
/home/itssahil/PROJECTS/Mol_Feturizer/New_Systems/rnas/5kx9

>  <Rbt.Executable>
rbdock ($Id: //depot/dev/client3/rdock/2013.1/src/exe/rbdock.cxx#4 $)

>  <Rbt.Library>
libRbt.so (2013.1, Build901 2013/11/27)

>  <Rbt.Parameter_File>
/export/apps/rDock/src/rDock_2013.1_src/data/scripts/dock_solv.prm

>  <Rbt.Receptor>
prm/blind_docking_80.prm

>  <SCORE>
-39.5594

>  <SCORE.INTER>
-36.2929

>  <SCORE.INTER.CONST>
1

>  <SCORE.INTER.POLAR>
0

>  <SCORE.INTER.ROT>
5

>  <SCORE.INTER.SOLV>
14.2176

>  <SCORE.INTER.VDW>
-35.8678

>  <SCORE.INTER.norm>
-1.34418

>  <SCORE.INTRA>
-3.26647

>  <SCORE.INTRA.DIHEDRAL>
2.11921

>  <SCORE.INTRA.DIHEDRAL.0>
2.68224

>  <SCORE.INTRA.POLAR>
0

>  <SCORE.INTRA.POLAR.0>
0

>  <SCORE.INTRA.REPUL>
0

>  <SCORE.INTRA.REPUL.0>
0

>  <SCORE.INTRA.SOLV>
-0.460941

>  <SCORE.INTRA.SOLV.lig_0>
-19.4148

>  <SCORE.INTRA.VDW>
-4.09561

>  <SCORE.INTRA.VDW.0>
5.42093

>  <SCORE.INTRA.norm>
-0.12098

>  <SCORE.RESTR>
0

>  <SCORE.RESTR.CAVITY>
0

>  <SCORE.RESTR.norm>
0

>  <SCORE.SYSTEM>
0

>  <SCORE.SYSTEM.CONST>
0

>  <SCORE.SYSTEM.DIHEDRAL>
0

>  <SCORE.SYSTEM.SOLV>
0

>  <SCORE.SYSTEM.norm>
0

>  <SCORE.heavy>
27

>  <SCORE.norm>
-1.46516

>  <RMSD>
0.967

$$$$
lig.pdb
 OpenBabel11021811523D
libRbt.so/2013.1/901 2013/11/27
 27 30  0  0  0  0  0  0  0  0999 V2000
   28.4276   36.2180   19.0751 N   0  0  0  0  0  0  0  0  0  0  0  0
   28.6301   37.3105   19.7692 C   0  0  0  0  0  0  0  0  0  0  0  0
   28.1884   37.5180   21.0352 N   0  0  0  0  0  0  0  0  0  0  0  0
   27.5219   36.5077   21.6694 C   0  0  0  0  0  0  0  0  0  0  0  0
   27.2906   35.3229   21.0313 C   0  0  0  0  0  0  0  0  0  0  0  0
   27.7417   35.1598   19.6698 C   0  0  0  0  0  0  0  0  0  0  0  0
   27.5235   34.1367   19.0092 O   0  0  0  0  0  0  0  0  0  0  0  0
   29.2490   38.5852   19.1546 C   0  0  2  0  0  0  0  0  0  0  0  0
   28.4029   39.6948   19.7999 C   0  0  0  0  0  0  0  0  0  0  0  0
   28.6482   40.9962   19.1759 N   0  0  0  0  0  0  0  0  0  0  0  0
   28.2489   40.9337   17.7607 C   0  0  0  0  0  0  0  0  0  0  0  0
   29.0963   39.9287   17.0057 C   0  0  0  0  0  0  0  0  0  0  0  0
   28.9971   38.5472   17.6377 C   0  0  0  0  0  0  0  0  0  0  0  0
   27.1474   36.8574   23.0331 C   0  0  0  0  0  0  0  0  0  0  0  0
   26.2291   35.7820   24.0207 S   0  0  0  0  0  0  0  0  0  0  0  0
   26.2130   36.8690   25.2970 C   0  0  0  0  0  0  0  0  0  0  0  0
   26.9093   37.9783   25.0185 C   0  0  0  0  0  0  0  0  0  0  0  0
   27.4480   37.9933   23.7171 C   0  0  0  0  0  0  0  0  0  0  0  0
   27.9278   42.0817   19.8643 C   0  0  0  0  0  0  0  0  0  0  0  0
   28.2453   42.2502   21.3334 C   0  0  0  0  0  0  0  0  0  0  0  0
   27.2341   42.3422   22.2788 C   0  0  0  0  0  0  0  0  0  0  0  0
   27.3978   42.8376   23.5189 N   0  0  0  0  0  0  0  0  0  0  0  0
   28.6206   43.2807   23.7698 C   0  0  0  0  0  0  0  0  0  0  0  0
   29.6704   43.2984   22.9641 N   0  0  0  0  0  0  0  0  0  0  0  0
   29.4445   42.7975   21.7406 C   0  0  0  0  0  0  0  0  0  0  0  0
   28.7772   43.7808   25.0009 O   0  0  0  0  0  0  0  0  0  0  0  0
   29.8836   43.3007   25.7735 C   0  0  0  0  0  0  0  0  0  0  0  0
  1  2  2  0  0  0  0
  1  6  1  0  0  0  0
  2  3  1  0  0  0  0
  3  4  2  0  0  0  0
  4 14  1  0  0  0  0
  5  4  1  0  0  0  0
  6  5  1  0  0  0  0
  7  6  2  0  0  0  0
  8  9  1  0  0  0  0
  8  2  1  1  0  0  0
 10 19  1  0  0  0  0
 10  9  1  0  0  0  0
 11 10  1  0  0  0  0
 12 11  1  0  0  0  0
 12 13  1  0  0  0  0
 13  8  1  0  0  0  0
 14 15  1  0  0  0  0
 14 18  2  0  0  0  0
 15 16  1  0  0  0  0
 16 17  2  0  0  0  0
 18 17  1  0  0  0  0
 19 20  1  0  0  0  0
 20 25  2  0  0  0  0
 20 21  1  0  0  0  0
 21 22  2  0  0  0  0
 22 23  1  0  0  0  0
 23 26  1  0  0  0  0
 24 23  2  0  0  0  0
 25 24  1  0  0  0  0
 26 27  1  0  0  0  0
M  END
>  <CHROM.1>
176.97048020,139.56812646,58.09913645,-130.36291110,129.48249452,28.04145389
39.20687292,21.56187573,-2.10958905,1.26473721,0.87652840

>  <Name>
lig.pdb

>  <RI>
0

>  <Rbt.Current_Directory>
/home/itssahil/PROJECTS/Mol_Feturizer/New_Systems/rnas/5kx9

>  <Rbt.Executable>
rbdock ($Id: //depot/dev/client3/rdock/2013.1/src/exe/rbdock.cxx#4 $)

>  <Rbt.Library>
libRbt.so (2013.1, Build901 2013/11/27)

>  <Rbt.Parameter_File>
/export/apps/rDock/src/rDock_2013.1_src/data/scripts/dock_solv.prm

>  <Rbt.Receptor>
prm/pocket_docking_3.prm

>  <SCORE>
-40.1962

>  <SCORE.INTER>
-38.1586

>  <SCORE.INTER.CONST>
1

>  <SCORE.INTER.POLAR>
0

>  <SCORE.INTER.ROT>
5

>  <SCORE.INTER.SOLV>
15.4843

>  <SCORE.INTER.VDW>
-37.5338

>  <SCORE.INTER.norm>
-1.41328

>  <SCORE.INTRA>
-2.03755

>  <SCORE.INTRA.DIHEDRAL>
2.17981

>  <SCORE.INTRA.DIHEDRAL.0>
2.68224

>  <SCORE.INTRA.POLAR>
0

>  <SCORE.INTRA.POLAR.0>
0

>  <SCORE.INTRA.REPUL>
0

>  <SCORE.INTRA.REPUL.0>
0

>  <SCORE.INTRA.SOLV>
-0.612938

>  <SCORE.INTRA.SOLV.lig_0>
-19.4148

>  <SCORE.INTRA.VDW>
-2.82099

>  <SCORE.INTRA.VDW.0>
5.42093

>  <SCORE.INTRA.norm>
-0.0754649

>  <SCORE.RESTR>
0

>  <SCORE.RESTR.CAVITY>
0

>  <SCORE.RESTR.norm>
0

>  <SCORE.SYSTEM>
0

>  <SCORE.SYSTEM.CONST>
0

>  <SCORE.SYSTEM.DIHEDRAL>
0

>  <SCORE.SYSTEM.SOLV>
0

>  <SCORE.SYSTEM.norm>
0

>  <SCORE.heavy>
27

>  <SCORE.norm>
-1.48875

>  <RMSD>
0.969

$$$$
lig.pdb
 OpenBabel11021811523D
libRbt.so/2013.1/901 2013/11/27
 27 30  0  0  0  0  0  0  0  0999 V2000
   28.4289   36.1263   19.0873 N   0  0  0  0  0  0  0  0  0  0  0  0
   28.6740   37.2077   19.7851 C   0  0  0  0  0  0  0  0  0  0  0  0
   28.2253   37.4359   21.0451 N   0  0  0  0  0  0  0  0  0  0  0  0
   27.5024   36.4586   21.6692 C   0  0  0  0  0  0  0  0  0  0  0  0
   27.2235   35.2864   21.0270 C   0  0  0  0  0  0  0  0  0  0  0  0
   27.6849   35.1021   19.6717 C   0  0  0  0  0  0  0  0  0  0  0  0
   27.4270   34.0908   19.0073 O   0  0  0  0  0  0  0  0  0  0  0  0
   29.3616   38.4514   19.1801 C   0  0  2  0  0  0  0  0  0  0  0  0
   28.4220   39.5843   19.6241 C   0  0  0  0  0  0  0  0  0  0  0  0
   28.7410   40.8469   18.9554 N   0  0  0  0  0  0  0  0  0  0  0  0
   28.5472   40.6853   17.5054 C   0  0  0  0  0  0  0  0  0  0  0  0
   29.5027   39.6497   16.9463 C   0  0  0  0  0  0  0  0  0  0  0  0
   29.3280   38.3104   17.6488 C   0  0  0  0  0  0  0  0  0  0  0  0
   27.1265   36.8257   23.0279 C   0  0  0  0  0  0  0  0  0  0  0  0
   26.1953   35.7686   24.0233 S   0  0  0  0  0  0  0  0  0  0  0  0
   26.1845   36.8688   25.2884 C   0  0  0  0  0  0  0  0  0  0  0  0
   26.8916   37.9689   25.0009 C   0  0  0  0  0  0  0  0  0  0  0  0
   27.4348   37.9658   23.7013 C   0  0  0  0  0  0  0  0  0  0  0  0
   27.9198   41.9610   19.4613 C   0  0  0  0  0  0  0  0  0  0  0  0
   28.2134   42.4006   20.8783 C   0  0  0  0  0  0  0  0  0  0  0  0
   29.5179   42.5283   21.3329 C   0  0  0  0  0  0  0  0  0  0  0  0
   29.8690   42.5610   22.6312 N   0  0  0  0  0  0  0  0  0  0  0  0
   28.8551   42.4199   23.4719 C   0  0  0  0  0  0  0  0  0  0  0  0
   27.5728   42.2493   23.1925 N   0  0  0  0  0  0  0  0  0  0  0  0
   27.2853   42.2191   21.8828 C   0  0  0  0  0  0  0  0  0  0  0  0
   29.2093   42.4439   24.7618 O   0  0  0  0  0  0  0  0  0  0  0  0
   28.4068   43.2270   25.6532 C   0  0  0  0  0  0  0  0  0  0  0  0
  1  2  2  0  0  0  0
  1  6  1  0  0  0  0
  2  3  1  0  0  0  0
  3  4  2  0  0  0  0
  4 14  1  0  0  0  0
  5  4  1  0  0  0  0
  6  5  1  0  0  0  0
  7  6  2  0  0  0  0
  8  9  1  0  0  0  0
  8  2  1  1  0  0  0
 10 19  1  0  0  0  0
 10  9  1  0  0  0  0
 11 10  1  0  0  0  0
 12 11  1  0  0  0  0
 12 13  1  0  0  0  0
 13  8  1  0  0  0  0
 14 15  1  0  0  0  0
 14 18  2  0  0  0  0
 15 16  1  0  0  0  0
 16 17  2  0  0  0  0
 18 17  1  0  0  0  0
 19 20  1  0  0  0  0
 20 25  2  0  0  0  0
 20 21  1  0  0  0  0
 21 22  2  0  0  0  0
 22 23  1  0  0  0  0
 23 26  1  0  0  0  0
 24 23  2  0  0  0  0
 25 24  1  0  0  0  0
 26 27  1  0  0  0  0
M  END
>  <CHROM.1>
179.36838742,130.55084003,69.19555078,42.88305361,135.46540134,28.05970528
38.99826589,21.43250758,-2.07989713,1.23891617,0.78916709

>  <Name>
lig.pdb

>  <RI>
0

>  <Rbt.Current_Directory>
/home/itssahil/PROJECTS/Mol_Feturizer/New_Systems/rnas/5kx9

>  <Rbt.Executable>
rbdock ($Id: //depot/dev/client3/rdock/2013.1/src/exe/rbdock.cxx#4 $)

>  <Rbt.Library>
libRbt.so (2013.1, Build901 2013/11/27)

>  <Rbt.Parameter_File>
/export/apps/rDock/src/rDock_2013.1_src/data/scripts/dock_solv.prm

>  <Rbt.Receptor>
prm/blind_docking_80.prm

>  <SCORE>
-39.3627

>  <SCORE.INTER>
-36.0546

>  <SCORE.INTER.CONST>
1

>  <SCORE.INTER.POLAR>
0

>  <SCORE.INTER.ROT>
5

>  <SCORE.INTER.SOLV>
13.9318

>  <SCORE.INTER.VDW>
-35.6137

>  <SCORE.INTER.norm>
-1.33536

>  <SCORE.INTRA>
-3.30808

>  <SCORE.INTRA.DIHEDRAL>
1.66435

>  <SCORE.INTRA.DIHEDRAL.0>
2.68224

>  <SCORE.INTRA.POLAR>
0

>  <SCORE.INTRA.POLAR.0>
0

>  <SCORE.INTRA.REPUL>
0

>  <SCORE.INTRA.REPUL.0>
0

>  <SCORE.INTRA.SOLV>
-0.418163

>  <SCORE.INTRA.SOLV.lig_0>
-19.4148

>  <SCORE.INTRA.VDW>
-3.93117

>  <SCORE.INTRA.VDW.0>
5.42093

>  <SCORE.INTRA.norm>
-0.122521

>  <SCORE.RESTR>
0

>  <SCORE.RESTR.CAVITY>
0

>  <SCORE.RESTR.norm>
0

>  <SCORE.SYSTEM>
0

>  <SCORE.SYSTEM.CONST>
0

>  <SCORE.SYSTEM.DIHEDRAL>
0

>  <SCORE.SYSTEM.SOLV>
0

>  <SCORE.SYSTEM.norm>
0

>  <SCORE.heavy>
27

>  <SCORE.norm>
-1.45788

>  <RMSD>
0.973

$$$$
lig.pdb
 OpenBabel11021811523D
libRbt.so/2013.1/901 2013/11/27
 27 30  0  0  0  0  0  0  0  0999 V2000
   28.1809   35.7471   19.1201 N   0  0  0  0  0  0  0  0  0  0  0  0
   28.3350   36.9284   19.6651 C   0  0  0  0  0  0  0  0  0  0  0  0
   27.9553   37.2564   20.9258 N   0  0  0  0  0  0  0  0  0  0  0  0
   27.4134   36.2850   21.7194 C   0  0  0  0  0  0  0  0  0  0  0  0
   27.2417   35.0170   21.2427 C   0  0  0  0  0  0  0  0  0  0  0  0
   27.6212   34.7220   19.8816 C   0  0  0  0  0  0  0  0  0  0  0  0
   27.4479   33.6123   19.3628 O   0  0  0  0  0  0  0  0  0  0  0  0
   28.8090   38.1604   18.8631 C   0  0  2  0  0  0  0  0  0  0  0  0
   28.2849   39.3225   19.7224 C   0  0  0  0  0  0  0  0  0  0  0  0
   28.4042   40.6064   19.0291 N   0  0  0  0  0  0  0  0  0  0  0  0
   27.5741   40.5756   17.8142 C   0  0  0  0  0  0  0  0  0  0  0  0
   28.0714   39.5181   16.8485 C   0  0  0  0  0  0  0  0  0  0  0  0
   28.0878   38.1445   17.5046 C   0  0  0  0  0  0  0  0  0  0  0  0
   27.0949   36.7707   23.0554 C   0  0  0  0  0  0  0  0  0  0  0  0
   26.1839   35.8185   24.1683 S   0  0  0  0  0  0  0  0  0  0  0  0
   26.2392   37.0196   25.3368 C   0  0  0  0  0  0  0  0  0  0  0  0
   26.9536   38.0778   24.9332 C   0  0  0  0  0  0  0  0  0  0  0  0
   27.4476   37.9562   23.6198 C   0  0  0  0  0  0  0  0  0  0  0  0
   28.0111   41.7359   19.8900 C   0  0  0  0  0  0  0  0  0  0  0  0
   28.8434   41.9292   21.1380 C   0  0  0  0  0  0  0  0  0  0  0  0
   28.7531   41.0450   22.2032 C   0  0  0  0  0  0  0  0  0  0  0  0
   29.1654   41.3196   23.4540 N   0  0  0  0  0  0  0  0  0  0  0  0
   29.6435   42.5448   23.6117 C   0  0  0  0  0  0  0  0  0  0  0  0
   29.7549   43.5065   22.7095 N   0  0  0  0  0  0  0  0  0  0  0  0
   29.3225   43.1759   21.4837 C   0  0  0  0  0  0  0  0  0  0  0  0
   30.0442   42.8171   24.8589 O   0  0  0  0  0  0  0  0  0  0  0  0
   29.0346   43.1438   25.8210 C   0  0  0  0  0  0  0  0  0  0  0  0
  1  2  2  0  0  0  0
  1  6  1  0  0  0  0
  2  3  1  0  0  0  0
  3  4  2  0  0  0  0
  4 14  1  0  0  0  0
  5  4  1  0  0  0  0
  6  5  1  0  0  0  0
  7  6  2  0  0  0  0
  8  9  1  0  0  0  0
  8  2  1  1  0  0  0
 10 19  1  0  0  0  0
 10  9  1  0  0  0  0
 11 10  1  0  0  0  0
 12 11  1  0  0  0  0
 12 13  1  0  0  0  0
 13  8  1  0  0  0  0
 14 15  1  0  0  0  0
 14 18  2  0  0  0  0
 15 16  1  0  0  0  0
 16 17  2  0  0  0  0
 18 17  1  0  0  0  0
 19 20  1  0  0  0  0
 20 25  2  0  0  0  0
 20 21  1  0  0  0  0
 21 22  2  0  0  0  0
 22 23  1  0  0  0  0
 23 26  1  0  0  0  0
 24 23  2  0  0  0  0
 25 24  1  0  0  0  0
 26 27  1  0  0  0  0
M  END
>  <CHROM.1>
170.47152679,157.65527646,61.74090771,-71.39773408,-79.22710143,28.06439875
38.86568025,21.53123704,-2.49758807,1.26126669,1.27444190

>  <Name>
lig.pdb

>  <RI>
0

>  <Rbt.Current_Directory>
/home/itssahil/PROJECTS/Mol_Feturizer/New_Systems/rnas/5kx9

>  <Rbt.Executable>
rbdock ($Id: //depot/dev/client3/rdock/2013.1/src/exe/rbdock.cxx#4 $)

>  <Rbt.Library>
libRbt.so (2013.1, Build901 2013/11/27)

>  <Rbt.Parameter_File>
/export/apps/rDock/src/rDock_2013.1_src/data/scripts/dock_solv.prm

>  <Rbt.Receptor>
prm/pocket_docking_2.prm

>  <SCORE>
-34.6327

>  <SCORE.INTER>
-35.4704

>  <SCORE.INTER.CONST>
1

>  <SCORE.INTER.POLAR>
0

>  <SCORE.INTER.ROT>
5

>  <SCORE.INTER.SOLV>
14.6399

>  <SCORE.INTER.VDW>
-35.4602

>  <SCORE.INTER.norm>
-1.31372

>  <SCORE.INTRA>
0.762762

>  <SCORE.INTRA.DIHEDRAL>
4.30818

>  <SCORE.INTRA.DIHEDRAL.0>
2.68224

>  <SCORE.INTRA.POLAR>
0

>  <SCORE.INTRA.POLAR.0>
0

>  <SCORE.INTRA.REPUL>
0

>  <SCORE.INTRA.REPUL.0>
0

>  <SCORE.INTRA.SOLV>
-0.316172

>  <SCORE.INTRA.SOLV.lig_0>
-19.4148

>  <SCORE.INTRA.VDW>
-1.23324

>  <SCORE.INTRA.VDW.0>
5.42093

>  <SCORE.INTRA.norm>
0.0282504

>  <SCORE.RESTR>
0.0749062

>  <SCORE.RESTR.CAVITY>
0.0749062

>  <SCORE.RESTR.norm>
0.0027743

>  <SCORE.SYSTEM>
0

>  <SCORE.SYSTEM.CONST>
0

>  <SCORE.SYSTEM.DIHEDRAL>
0

>  <SCORE.SYSTEM.SOLV>
0

>  <SCORE.SYSTEM.norm>
0

>  <SCORE.heavy>
27

>  <SCORE.norm>
-1.28269

>  <RMSD>
0.980

$$$$
lig.pdb
 OpenBabel11021811523D
libRbt.so/2013.1/901 2013/11/27
 27 30  0  0  0  0  0  0  0  0999 V2000
   28.3677   36.1483   19.0206 N   0  0  0  0  0  0  0  0  0  0  0  0
   28.6709   37.2085   19.7280 C   0  0  0  0  0  0  0  0  0  0  0  0
   28.2464   37.4428   20.9952 N   0  0  0  0  0  0  0  0  0  0  0  0
   27.4842   36.4935   21.6158 C   0  0  0  0  0  0  0  0  0  0  0  0
   27.1434   35.3435   20.9633 C   0  0  0  0  0  0  0  0  0  0  0  0
   27.5818   35.1536   19.6012 C   0  0  0  0  0  0  0  0  0  0  0  0
   27.2695   34.1636   18.9281 O   0  0  0  0  0  0  0  0  0  0  0  0
   29.4107   38.4253   19.1299 C   0  0  2  0  0  0  0  0  0  0  0  0
   28.5769   39.6011   19.6644 C   0  0  0  0  0  0  0  0  0  0  0  0
   28.9474   40.8642   19.0237 N   0  0  0  0  0  0  0  0  0  0  0  0
   28.6669   40.7723   17.5818 C   0  0  0  0  0  0  0  0  0  0  0  0
   29.5172   39.6968   16.9350 C   0  0  0  0  0  0  0  0  0  0  0  0
   29.2869   38.3463   17.5988 C   0  0  0  0  0  0  0  0  0  0  0  0
   27.1398   36.8617   22.9826 C   0  0  0  0  0  0  0  0  0  0  0  0
   26.2693   35.7881   24.0143 S   0  0  0  0  0  0  0  0  0  0  0  0
   26.2665   36.8984   25.2705 C   0  0  0  0  0  0  0  0  0  0  0  0
   26.9336   38.0151   24.9528 C   0  0  0  0  0  0  0  0  0  0  0  0
   27.4368   38.0158   23.6372 C   0  0  0  0  0  0  0  0  0  0  0  0
   28.2335   42.0108   19.6127 C   0  0  0  0  0  0  0  0  0  0  0  0
   28.3546   42.1575   21.1131 C   0  0  0  0  0  0  0  0  0  0  0  0
   27.2304   42.1571   21.9259 C   0  0  0  0  0  0  0  0  0  0  0  0
   27.2055   42.6265   23.1865 N   0  0  0  0  0  0  0  0  0  0  0  0
   28.3551   43.1402   23.5977 C   0  0  0  0  0  0  0  0  0  0  0  0
   29.4929   43.2485   22.9305 N   0  0  0  0  0  0  0  0  0  0  0  0
   29.4545   42.7691   21.6785 C   0  0  0  0  0  0  0  0  0  0  0  0
   28.3239   43.6140   24.8485 O   0  0  0  0  0  0  0  0  0  0  0  0
   29.4199   43.2816   25.7088 C   0  0  0  0  0  0  0  0  0  0  0  0
  1  2  2  0  0  0  0
  1  6  1  0  0  0  0
  2  3  1  0  0  0  0
  3  4  2  0  0  0  0
  4 14  1  0  0  0  0
  5  4  1  0  0  0  0
  6  5  1  0  0  0  0
  7  6  2  0  0  0  0
  8  9  1  0  0  0  0
  8  2  1  1  0  0  0
 10 19  1  0  0  0  0
 10  9  1  0  0  0  0
 11 10  1  0  0  0  0
 12 11  1  0  0  0  0
 12 13  1  0  0  0  0
 13  8  1  0  0  0  0
 14 15  1  0  0  0  0
 14 18  2  0  0  0  0
 15 16  1  0  0  0  0
 16 17  2  0  0  0  0
 18 17  1  0  0  0  0
 19 20  1  0  0  0  0
 20 25  2  0  0  0  0
 20 21  1  0  0  0  0
 21 22  2  0  0  0  0
 22 23  1  0  0  0  0
 23 26  1  0  0  0  0
 24 23  2  0  0  0  0
 25 24  1  0  0  0  0
 26 27  1  0  0  0  0
M  END
>  <CHROM.1>
-176.02735247,133.68216319,53.93216799,-121.46831657,134.95775543,28.04584530
39.13347740,21.45973295,-1.98105313,1.23195809,0.75700612

>  <Name>
lig.pdb

>  <RI>
0

>  <Rbt.Current_Directory>
/home/itssahil/PROJECTS/Mol_Feturizer/New_Systems/rnas/5kx9

>  <Rbt.Executable>
rbdock ($Id: //depot/dev/client3/rdock/2013.1/src/exe/rbdock.cxx#4 $)

>  <Rbt.Library>
libRbt.so (2013.1, Build901 2013/11/27)

>  <Rbt.Parameter_File>
/export/apps/rDock/src/rDock_2013.1_src/data/scripts/dock_solv.prm

>  <Rbt.Receptor>
prm/pocket_docking_6.prm

>  <SCORE>
-40.5892

>  <SCORE.INTER>
-37.8503

>  <SCORE.INTER.CONST>
1

>  <SCORE.INTER.POLAR>
0

>  <SCORE.INTER.ROT>
5

>  <SCORE.INTER.SOLV>
15.0486

>  <SCORE.INTER.VDW>
-37.183

>  <SCORE.INTER.norm>
-1.40186

>  <SCORE.INTRA>
-2.73896

>  <SCORE.INTRA.DIHEDRAL>
1.52445

>  <SCORE.INTRA.DIHEDRAL.0>
2.68224

>  <SCORE.INTRA.POLAR>
0

>  <SCORE.INTRA.POLAR.0>
0

>  <SCORE.INTRA.REPUL>
0

>  <SCORE.INTRA.REPUL.0>
0

>  <SCORE.INTRA.SOLV>
-0.617808

>  <SCORE.INTRA.SOLV.lig_0>
-19.4148

>  <SCORE.INTRA.VDW>
-3.19228

>  <SCORE.INTRA.VDW.0>
5.42093

>  <SCORE.INTRA.norm>
-0.101443

>  <SCORE.RESTR>
0

>  <SCORE.RESTR.CAVITY>
0

>  <SCORE.RESTR.norm>
0

>  <SCORE.SYSTEM>
0

>  <SCORE.SYSTEM.CONST>
0

>  <SCORE.SYSTEM.DIHEDRAL>
0

>  <SCORE.SYSTEM.SOLV>
0

>  <SCORE.SYSTEM.norm>
0

>  <SCORE.heavy>
27

>  <SCORE.norm>
-1.5033

>  <RMSD>
0.982

$$$$
lig.pdb
 OpenBabel11021811523D
libRbt.so/2013.1/901 2013/11/27
 27 30  0  0  0  0  0  0  0  0999 V2000
   28.3349   35.9674   19.0155 N   0  0  0  0  0  0  0  0  0  0  0  0
   28.6321   37.0334   19.7167 C   0  0  0  0  0  0  0  0  0  0  0  0
   28.1995   37.2763   20.9796 N   0  0  0  0  0  0  0  0  0  0  0  0
   27.4353   36.3304   21.6027 C   0  0  0  0  0  0  0  0  0  0  0  0
   27.1003   35.1749   20.9567 C   0  0  0  0  0  0  0  0  0  0  0  0
   27.5473   34.9757   19.5987 C   0  0  0  0  0  0  0  0  0  0  0  0
   27.2407   33.9801   18.9311 O   0  0  0  0  0  0  0  0  0  0  0  0
   29.3735   38.2469   19.1141 C   0  0  2  0  0  0  0  0  0  0  0  0
   28.5195   39.4238   19.6133 C   0  0  0  0  0  0  0  0  0  0  0  0
   28.8921   40.6798   18.9601 N   0  0  0  0  0  0  0  0  0  0  0  0
   28.6409   40.5629   17.5146 C   0  0  0  0  0  0  0  0  0  0  0  0
   29.5128   39.4847   16.9018 C   0  0  0  0  0  0  0  0  0  0  0  0
   29.2806   38.1428   17.5823 C   0  0  0  0  0  0  0  0  0  0  0  0
   27.0820   36.7082   22.9645 C   0  0  0  0  0  0  0  0  0  0  0  0
   27.4769   38.2619   23.6012 S   0  0  0  0  0  0  0  0  0  0  0  0
   26.8054   37.8902   25.0918 C   0  0  0  0  0  0  0  0  0  0  0  0
   26.2603   36.6672   25.1041 C   0  0  0  0  0  0  0  0  0  0  0  0
   26.4165   35.9685   23.8911 C   0  0  0  0  0  0  0  0  0  0  0  0
   28.1572   41.8293   19.5167 C   0  0  0  0  0  0  0  0  0  0  0  0
   28.3212   42.0542   21.0033 C   0  0  0  0  0  0  0  0  0  0  0  0
   27.2180   42.2046   21.8310 C   0  0  0  0  0  0  0  0  0  0  0  0
   27.2607   42.7492   23.0604 N   0  0  0  0  0  0  0  0  0  0  0  0
   28.4598   43.1803   23.4223 C   0  0  0  0  0  0  0  0  0  0  0  0
   29.5890   43.1446   22.7331 N   0  0  0  0  0  0  0  0  0  0  0  0
   29.4826   42.5964   21.5137 C   0  0  0  0  0  0  0  0  0  0  0  0
   28.4964   43.7292   24.6419 O   0  0  0  0  0  0  0  0  0  0  0  0
   28.1611   42.8914   25.7542 C   0  0  0  0  0  0  0  0  0  0  0  0
  1  2  2  0  0  0  0
  1  6  1  0  0  0  0
  2  3  1  0  0  0  0
  3  4  2  0  0  0  0
  4 14  1  0  0  0  0
  5  4  1  0  0  0  0
  6  5  1  0  0  0  0
  7  6  2  0  0  0  0
  8  9  1  0  0  0  0
  8  2  1  1  0  0  0
 10 19  1  0  0  0  0
 10  9  1  0  0  0  0
 11 10  1  0  0  0  0
 12 11  1  0  0  0  0
 12 13  1  0  0  0  0
 13  8  1  0  0  0  0
 14 15  1  0  0  0  0
 14 18  2  0  0  0  0
 15 16  1  0  0  0  0
 16 17  2  0  0  0  0
 18 17  1  0  0  0  0
 19 20  1  0  0  0  0
 20 25  2  0  0  0  0
 20 21  1  0  0  0  0
 21 22  2  0  0  0  0
 22 23  1  0  0  0  0
 23 26  1  0  0  0  0
 24 23  2  0  0  0  0
 25 24  1  0  0  0  0
 26 27  1  0  0  0  0
M  END
>  <CHROM.1>
5.88145362,132.68559861,57.80839292,-128.72342094,62.17915498,28.05288841
39.14640449,21.38168263,-1.77389478,1.24545610,0.67426325

>  <Name>
lig.pdb

>  <RI>
0

>  <Rbt.Current_Directory>
/home/itssahil/PROJECTS/Mol_Feturizer/New_Systems/rnas/5kx9

>  <Rbt.Executable>
rbdock ($Id: //depot/dev/client3/rdock/2013.1/src/exe/rbdock.cxx#4 $)

>  <Rbt.Library>
libRbt.so (2013.1, Build901 2013/11/27)

>  <Rbt.Parameter_File>
/export/apps/rDock/src/rDock_2013.1_src/data/scripts/dock_solv.prm

>  <Rbt.Receptor>
prm/pocket_docking_4.prm

>  <SCORE>
-38.9996

>  <SCORE.INTER>
-36.1888

>  <SCORE.INTER.CONST>
1

>  <SCORE.INTER.POLAR>
0

>  <SCORE.INTER.ROT>
5

>  <SCORE.INTER.SOLV>
14.7606

>  <SCORE.INTER.VDW>
-35.9794

>  <SCORE.INTER.norm>
-1.34033

>  <SCORE.INTRA>
-2.81078

>  <SCORE.INTRA.DIHEDRAL>
2.97826

>  <SCORE.INTRA.DIHEDRAL.0>
2.68224

>  <SCORE.INTRA.POLAR>
0

>  <SCORE.INTRA.POLAR.0>
0

>  <SCORE.INTRA.REPUL>
0

>  <SCORE.INTRA.REPUL.0>
0

>  <SCORE.INTRA.SOLV>
-0.509131

>  <SCORE.INTRA.SOLV.lig_0>
-19.4148

>  <SCORE.INTRA.VDW>
-4.04534

>  <SCORE.INTRA.VDW.0>
5.42093

>  <SCORE.INTRA.norm>
-0.104103

>  <SCORE.RESTR>
0

>  <SCORE.RESTR.CAVITY>
0

>  <SCORE.RESTR.norm>
0

>  <SCORE.SYSTEM>
0

>  <SCORE.SYSTEM.CONST>
0

>  <SCORE.SYSTEM.DIHEDRAL>
0

>  <SCORE.SYSTEM.SOLV>
0

>  <SCORE.SYSTEM.norm>
0

>  <SCORE.heavy>
27

>  <SCORE.norm>
-1.44443

>  <RMSD>
0.984

$$$$
lig.pdb
 OpenBabel11021811523D
libRbt.so/2013.1/901 2013/11/27
 27 30  0  0  0  0  0  0  0  0999 V2000
   28.3604   36.1179   18.9865 N   0  0  0  0  0  0  0  0  0  0  0  0
   28.6500   37.1767   19.7015 C   0  0  0  0  0  0  0  0  0  0  0  0
   28.2129   37.4018   20.9661 N   0  0  0  0  0  0  0  0  0  0  0  0
   27.4523   36.4442   21.5756 C   0  0  0  0  0  0  0  0  0  0  0  0
   27.1252   35.2950   20.9147 C   0  0  0  0  0  0  0  0  0  0  0  0
   27.5767   35.1149   19.5554 C   0  0  0  0  0  0  0  0  0  0  0  0
   27.2772   34.1259   18.8749 O   0  0  0  0  0  0  0  0  0  0  0  0
   29.3862   38.4016   19.1157 C   0  0  2  0  0  0  0  0  0  0  0  0
   28.5403   39.5690   19.6498 C   0  0  0  0  0  0  0  0  0  0  0  0
   28.9073   40.8379   19.0187 N   0  0  0  0  0  0  0  0  0  0  0  0
   28.6387   40.7518   17.5742 C   0  0  0  0  0  0  0  0  0  0  0  0
   29.5013   39.6855   16.9284 C   0  0  0  0  0  0  0  0  0  0  0  0
   29.2749   38.3300   17.5832 C   0  0  0  0  0  0  0  0  0  0  0  0
   27.0936   36.8033   22.9410 C   0  0  0  0  0  0  0  0  0  0  0  0
   26.2132   35.7224   23.9568 S   0  0  0  0  0  0  0  0  0  0  0  0
   26.1967   36.8246   25.2201 C   0  0  0  0  0  0  0  0  0  0  0  0
   26.8662   37.9437   24.9165 C   0  0  0  0  0  0  0  0  0  0  0  0
   27.3829   37.9532   23.6062 C   0  0  0  0  0  0  0  0  0  0  0  0
   28.1811   41.9766   19.6081 C   0  0  0  0  0  0  0  0  0  0  0  0
   28.3362   42.1497   21.1026 C   0  0  0  0  0  0  0  0  0  0  0  0
   27.2284   42.2105   21.9354 C   0  0  0  0  0  0  0  0  0  0  0  0
   27.2456   42.7068   23.1858 N   0  0  0  0  0  0  0  0  0  0  0  0
   28.4218   43.1835   23.5649 C   0  0  0  0  0  0  0  0  0  0  0  0
   29.5502   43.2330   22.8750 N   0  0  0  0  0  0  0  0  0  0  0  0
   29.4695   42.7295   21.6346 C   0  0  0  0  0  0  0  0  0  0  0  0
   28.4328   43.6842   24.8055 O   0  0  0  0  0  0  0  0  0  0  0  0
   29.4543   43.2210   25.6963 C   0  0  0  0  0  0  0  0  0  0  0  0
  1  2  2  0  0  0  0
  1  6  1  0  0  0  0
  2  3  1  0  0  0  0
  3  4  2  0  0  0  0
  4 14  1  0  0  0  0
  5  4  1  0  0  0  0
  6  5  1  0  0  0  0
  7  6  2  0  0  0  0
  8  9  1  0  0  0  0
  8  2  1  1  0  0  0
 10 19  1  0  0  0  0
 10  9  1  0  0  0  0
 11 10  1  0  0  0  0
 12 11  1  0  0  0  0
 12 13  1  0  0  0  0
 13  8  1  0  0  0  0
 14 15  1  0  0  0  0
 14 18  2  0  0  0  0
 15 16  1  0  0  0  0
 16 17  2  0  0  0  0
 18 17  1  0  0  0  0
 19 20  1  0  0  0  0
 20 25  2  0  0  0  0
 20 21  1  0  0  0  0
 21 22  2  0  0  0  0
 22 23  1  0  0  0  0
 23 26  1  0  0  0  0
 24 23  2  0  0  0  0
 25 24  1  0  0  0  0
 26 27  1  0  0  0  0
M  END
>  <CHROM.1>
-176.41974928,133.73802066,56.37252538,-125.10133306,128.73391371,28.03337325
39.10794154,21.43047554,-2.01204912,1.22746242,0.77034054

>  <Name>
lig.pdb

>  <RI>
0

>  <Rbt.Current_Directory>
/home/itssahil/PROJECTS/Mol_Feturizer/New_Systems/rnas/5kx9

>  <Rbt.Executable>
rbdock ($Id: //depot/dev/client3/rdock/2013.1/src/exe/rbdock.cxx#4 $)

>  <Rbt.Library>
libRbt.so (2013.1, Build901 2013/11/27)

>  <Rbt.Parameter_File>
/export/apps/rDock/src/rDock_2013.1_src/data/scripts/dock_solv.prm

>  <Rbt.Receptor>
prm/pocket_docking_4.prm

>  <SCORE>
-40.5586

>  <SCORE.INTER>
-37.8483

>  <SCORE.INTER.CONST>
1

>  <SCORE.INTER.POLAR>
0

>  <SCORE.INTER.ROT>
5

>  <SCORE.INTER.SOLV>
15.2146

>  <SCORE.INTER.VDW>
-37.237

>  <SCORE.INTER.norm>
-1.40179

>  <SCORE.INTRA>
-2.71033

>  <SCORE.INTRA.DIHEDRAL>
2.07407

>  <SCORE.INTRA.DIHEDRAL.0>
2.68224

>  <SCORE.INTRA.POLAR>
0

>  <SCORE.INTRA.POLAR.0>
0

>  <SCORE.INTRA.REPUL>
0

>  <SCORE.INTRA.REPUL.0>
0

>  <SCORE.INTRA.SOLV>
-0.619458

>  <SCORE.INTRA.SOLV.lig_0>
-19.4148

>  <SCORE.INTRA.VDW>
-3.43764

>  <SCORE.INTRA.VDW.0>
5.42093

>  <SCORE.INTRA.norm>
-0.100383

>  <SCORE.RESTR>
0

>  <SCORE.RESTR.CAVITY>
0

>  <SCORE.RESTR.norm>
0

>  <SCORE.SYSTEM>
0

>  <SCORE.SYSTEM.CONST>
0

>  <SCORE.SYSTEM.DIHEDRAL>
0

>  <SCORE.SYSTEM.SOLV>
0

>  <SCORE.SYSTEM.norm>
0

>  <SCORE.heavy>
27

>  <SCORE.norm>
-1.50217

>  <RMSD>
0.988

$$$$
lig.pdb
 OpenBabel11021811523D
libRbt.so/2013.1/901 2013/11/27
 27 30  0  0  0  0  0  0  0  0999 V2000
   28.4100   36.2246   19.1364 N   0  0  0  0  0  0  0  0  0  0  0  0
   28.5832   37.3030   19.8599 C   0  0  0  0  0  0  0  0  0  0  0  0
   28.1083   37.4767   21.1190 N   0  0  0  0  0  0  0  0  0  0  0  0
   27.4379   36.4450   21.7134 C   0  0  0  0  0  0  0  0  0  0  0  0
   27.2356   35.2728   21.0432 C   0  0  0  0  0  0  0  0  0  0  0  0
   27.7217   35.1458   19.6899 C   0  0  0  0  0  0  0  0  0  0  0  0
   27.5312   34.1358   19.0011 O   0  0  0  0  0  0  0  0  0  0  0  0
   29.2025   38.5980   19.2898 C   0  0  2  0  0  0  0  0  0  0  0  0
   28.3282   39.6834   19.9388 C   0  0  0  0  0  0  0  0  0  0  0  0
   28.5741   41.0013   19.3507 N   0  0  0  0  0  0  0  0  0  0  0  0
   28.2104   40.9668   17.9249 C   0  0  0  0  0  0  0  0  0  0  0  0
   29.0875   39.9885   17.1687 C   0  0  0  0  0  0  0  0  0  0  0  0
   28.9884   38.5920   17.7666 C   0  0  0  0  0  0  0  0  0  0  0  0
   27.0263   36.7593   23.0751 C   0  0  0  0  0  0  0  0  0  0  0  0
   27.3723   38.2896   23.7919 S   0  0  0  0  0  0  0  0  0  0  0  0
   26.6492   37.8453   25.2378 C   0  0  0  0  0  0  0  0  0  0  0  0
   26.1229   36.6156   25.1769 C   0  0  0  0  0  0  0  0  0  0  0  0
   26.3367   35.9717   23.9426 C   0  0  0  0  0  0  0  0  0  0  0  0
   27.8246   42.0629   20.0453 C   0  0  0  0  0  0  0  0  0  0  0  0
   28.1580   42.2502   21.5086 C   0  0  0  0  0  0  0  0  0  0  0  0
   27.1570   42.3552   22.4635 C   0  0  0  0  0  0  0  0  0  0  0  0
   27.3343   42.8665   23.6952 N   0  0  0  0  0  0  0  0  0  0  0  0
   28.5600   43.3119   23.9273 C   0  0  0  0  0  0  0  0  0  0  0  0
   29.6011   43.3183   23.1102 N   0  0  0  0  0  0  0  0  0  0  0  0
   29.3618   42.8018   21.8958 C   0  0  0  0  0  0  0  0  0  0  0  0
   28.7300   43.8277   25.1500 O   0  0  0  0  0  0  0  0  0  0  0  0
   29.7781   43.2803   25.9584 C   0  0  0  0  0  0  0  0  0  0  0  0
  1  2  2  0  0  0  0
  1  6  1  0  0  0  0
  2  3  1  0  0  0  0
  3  4  2  0  0  0  0
  4 14  1  0  0  0  0
  5  4  1  0  0  0  0
  6  5  1  0  0  0  0
  7  6  2  0  0  0  0
  8  9  1  0  0  0  0
  8  2  1  1  0  0  0
 10 19  1  0  0  0  0
 10  9  1  0  0  0  0
 11 10  1  0  0  0  0
 12 11  1  0  0  0  0
 12 13  1  0  0  0  0
 13  8  1  0  0  0  0
 14 15  1  0  0  0  0
 14 18  2  0  0  0  0
 15 16  1  0  0  0  0
 16 17  2  0  0  0  0
 18 17  1  0  0  0  0
 19 20  1  0  0  0  0
 20 25  2  0  0  0  0
 20 21  1  0  0  0  0
 21 22  2  0  0  0  0
 22 23  1  0  0  0  0
 23 26  1  0  0  0  0
 24 23  2  0  0  0  0
 25 24  1  0  0  0  0
 26 27  1  0  0  0  0
M  END
>  <CHROM.1>
0.35016724,139.55632787,61.24213451,-132.58089997,124.54895097,28.03977239
39.33497517,21.65189852,-1.96601179,1.27876429,0.86360407

>  <Name>
lig.pdb

>  <RI>
0

>  <Rbt.Current_Directory>
/home/itssahil/PROJECTS/Mol_Feturizer/New_Systems/rnas/5kx9

>  <Rbt.Executable>
rbdock ($Id: //depot/dev/client3/rdock/2013.1/src/exe/rbdock.cxx#4 $)

>  <Rbt.Library>
libRbt.so (2013.1, Build901 2013/11/27)

>  <Rbt.Parameter_File>
/export/apps/rDock/src/rDock_2013.1_src/data/scripts/dock_solv.prm

>  <Rbt.Receptor>
prm/pocket_docking_3.prm

>  <SCORE>
-39.4293

>  <SCORE.INTER>
-37.0927

>  <SCORE.INTER.CONST>
1

>  <SCORE.INTER.POLAR>
0

>  <SCORE.INTER.ROT>
5

>  <SCORE.INTER.SOLV>
15.0344

>  <SCORE.INTER.VDW>
-36.6733

>  <SCORE.INTER.norm>
-1.3738

>  <SCORE.INTRA>
-2.33658

>  <SCORE.INTRA.DIHEDRAL>
2.57553

>  <SCORE.INTRA.DIHEDRAL.0>
2.68224

>  <SCORE.INTRA.POLAR>
0

>  <SCORE.INTRA.POLAR.0>
0

>  <SCORE.INTRA.REPUL>
0

>  <SCORE.INTRA.REPUL.0>
0

>  <SCORE.INTRA.SOLV>
-0.502355

>  <SCORE.INTRA.SOLV.lig_0>
-19.4148

>  <SCORE.INTRA.VDW>
-3.37317

>  <SCORE.INTRA.VDW.0>
5.42093

>  <SCORE.INTRA.norm>
-0.08654

>  <SCORE.RESTR>
0

>  <SCORE.RESTR.CAVITY>
0

>  <SCORE.RESTR.norm>
0

>  <SCORE.SYSTEM>
0

>  <SCORE.SYSTEM.CONST>
0

>  <SCORE.SYSTEM.DIHEDRAL>
0

>  <SCORE.SYSTEM.SOLV>
0

>  <SCORE.SYSTEM.norm>
0

>  <SCORE.heavy>
27

>  <SCORE.norm>
-1.46034

>  <RMSD>
0.989

$$$$
lig.pdb
 OpenBabel11021811523D
libRbt.so/2013.1/901 2013/11/27
 27 30  0  0  0  0  0  0  0  0999 V2000
   28.4048   36.1505   19.0330 N   0  0  0  0  0  0  0  0  0  0  0  0
   28.6903   37.2161   19.7396 C   0  0  0  0  0  0  0  0  0  0  0  0
   28.2518   37.4497   21.0022 N   0  0  0  0  0  0  0  0  0  0  0  0
   27.4942   36.4943   21.6189 C   0  0  0  0  0  0  0  0  0  0  0  0
   27.1715   35.3387   20.9671 C   0  0  0  0  0  0  0  0  0  0  0  0
   27.6243   35.1494   19.6095 C   0  0  0  0  0  0  0  0  0  0  0  0
   27.3287   34.1539   18.9368 O   0  0  0  0  0  0  0  0  0  0  0  0
   29.4226   38.4388   19.1444 C   0  0  2  0  0  0  0  0  0  0  0  0
   28.5780   39.6079   19.6767 C   0  0  0  0  0  0  0  0  0  0  0  0
   28.9407   40.8742   19.0378 N   0  0  0  0  0  0  0  0  0  0  0  0
   28.6654   40.7807   17.5950 C   0  0  0  0  0  0  0  0  0  0  0  0
   29.5261   39.7121   16.9504 C   0  0  0  0  0  0  0  0  0  0  0  0
   29.3041   38.3596   17.6129 C   0  0  0  0  0  0  0  0  0  0  0  0
   27.1335   36.8631   22.9813 C   0  0  0  0  0  0  0  0  0  0  0  0
   26.2409   35.7943   23.9993 S   0  0  0  0  0  0  0  0  0  0  0  0
   26.2287   36.9029   25.2570 C   0  0  0  0  0  0  0  0  0  0  0  0
   26.9081   38.0152   24.9502 C   0  0  0  0  0  0  0  0  0  0  0  0
   27.4296   38.0140   23.6418 C   0  0  0  0  0  0  0  0  0  0  0  0
   28.2161   42.0149   19.6251 C   0  0  0  0  0  0  0  0  0  0  0  0
   28.3300   42.1608   21.1261 C   0  0  0  0  0  0  0  0  0  0  0  0
   27.2012   42.1688   21.9326 C   0  0  0  0  0  0  0  0  0  0  0  0
   27.1728   42.6385   23.1930 N   0  0  0  0  0  0  0  0  0  0  0  0
   28.3238   43.1436   23.6106 C   0  0  0  0  0  0  0  0  0  0  0  0
   29.4661   43.2434   22.9498 N   0  0  0  0  0  0  0  0  0  0  0  0
   29.4312   42.7642   21.6976 C   0  0  0  0  0  0  0  0  0  0  0  0
   28.2892   43.6177   24.8613 O   0  0  0  0  0  0  0  0  0  0  0  0
   29.3515   43.2354   25.7428 C   0  0  0  0  0  0  0  0  0  0  0  0
  1  2  2  0  0  0  0
  1  6  1  0  0  0  0
  2  3  1  0  0  0  0
  3  4  2  0  0  0  0
  4 14  1  0  0  0  0
  5  4  1  0  0  0  0
  6  5  1  0  0  0  0
  7  6  2  0  0  0  0
  8  9  1  0  0  0  0
  8  2  1  1  0  0  0
 10 19  1  0  0  0  0
 10  9  1  0  0  0  0
 11 10  1  0  0  0  0
 12 11  1  0  0  0  0
 12 13  1  0  0  0  0
 13  8  1  0  0  0  0
 14 15  1  0  0  0  0
 14 18  2  0  0  0  0
 15 16  1  0  0  0  0
 16 17  2  0  0  0  0
 18 17  1  0  0  0  0
 19 20  1  0  0  0  0
 20 25  2  0  0  0  0
 20 21  1  0  0  0  0
 21 22  2  0  0  0  0
 22 23  1  0  0  0  0
 23 26  1  0  0  0  0
 24 23  2  0  0  0  0
 25 24  1  0  0  0  0
 26 27  1  0  0  0  0
M  END
>  <CHROM.1>
-177.11929414,134.11417034,53.85403725,-122.31243612,132.62845372,28.03880234
39.13563884,21.46793738,-1.95211478,1.23018900,0.73266079

>  <Name>
lig.pdb

>  <RI>
0

>  <Rbt.Current_Directory>
/home/itssahil/PROJECTS/Mol_Feturizer/New_Systems/rnas/5kx9

>  <Rbt.Executable>
rbdock ($Id: //depot/dev/client3/rdock/2013.1/src/exe/rbdock.cxx#4 $)

>  <Rbt.Library>
libRbt.so (2013.1, Build901 2013/11/27)

>  <Rbt.Parameter_File>
/export/apps/rDock/src/rDock_2013.1_src/data/scripts/dock_solv.prm

>  <Rbt.Receptor>
prm/pocket_docking_4.prm

>  <SCORE>
-40.6115

>  <SCORE.INTER>
-37.9255

>  <SCORE.INTER.CONST>
1

>  <SCORE.INTER.POLAR>
0

>  <SCORE.INTER.ROT>
5

>  <SCORE.INTER.SOLV>
15.1698

>  <SCORE.INTER.VDW>
-37.2736

>  <SCORE.INTER.norm>
-1.40465

>  <SCORE.INTRA>
-2.68603

>  <SCORE.INTRA.DIHEDRAL>
1.72111

>  <SCORE.INTRA.DIHEDRAL.0>
2.68224

>  <SCORE.INTRA.POLAR>
0

>  <SCORE.INTRA.POLAR.0>
0

>  <SCORE.INTRA.REPUL>
0

>  <SCORE.INTRA.REPUL.0>
0

>  <SCORE.INTRA.SOLV>
-0.618082

>  <SCORE.INTRA.SOLV.lig_0>
-19.4148

>  <SCORE.INTRA.VDW>
-3.23754

>  <SCORE.INTRA.VDW.0>
5.42093

>  <SCORE.INTRA.norm>
-0.0994825

>  <SCORE.RESTR>
0

>  <SCORE.RESTR.CAVITY>
0

>  <SCORE.RESTR.norm>
0

>  <SCORE.SYSTEM>
0

>  <SCORE.SYSTEM.CONST>
0

>  <SCORE.SYSTEM.DIHEDRAL>
0

>  <SCORE.SYSTEM.SOLV>
0

>  <SCORE.SYSTEM.norm>
0

>  <SCORE.heavy>
27

>  <SCORE.norm>
-1.50413

>  <RMSD>
0.990

$$$$
lig.pdb
 OpenBabel11021811523D
libRbt.so/2013.1/901 2013/11/27
 27 30  0  0  0  0  0  0  0  0999 V2000
   27.6830   34.9347   20.1822 N   0  0  0  0  0  0  0  0  0  0  0  0
   27.6806   36.2368   20.3256 C   0  0  0  0  0  0  0  0  0  0  0  0
   27.3639   36.8902   21.4718 N   0  0  0  0  0  0  0  0  0  0  0  0
   27.0689   36.1539   22.5844 C   0  0  0  0  0  0  0  0  0  0  0  0
   27.0749   34.7894   22.5338 C   0  0  0  0  0  0  0  0  0  0  0  0
   27.3768   34.1354   21.2828 C   0  0  0  0  0  0  0  0  0  0  0  0
   27.3505   32.9061   21.1455 O   0  0  0  0  0  0  0  0  0  0  0  0
   27.8637   37.2061   19.1371 C   0  0  2  0  0  0  0  0  0  0  0  0
   28.5751   38.3961   19.8015 C   0  0  0  0  0  0  0  0  0  0  0  0
   28.6370   39.5568   18.9114 N   0  0  0  0  0  0  0  0  0  0  0  0
   27.2678   40.0031   18.6075 C   0  0  0  0  0  0  0  0  0  0  0  0
   26.5043   38.9281   17.8594 C   0  0  0  0  0  0  0  0  0  0  0  0
   26.4660   37.6313   18.6560 C   0  0  0  0  0  0  0  0  0  0  0  0
   26.7920   36.9874   23.7467 C   0  0  0  0  0  0  0  0  0  0  0  0
   27.1957   38.6642   23.7714 S   0  0  0  0  0  0  0  0  0  0  0  0
   26.6231   38.8425   25.3370 C   0  0  0  0  0  0  0  0  0  0  0  0
   26.1027   37.7039   25.8122 C   0  0  0  0  0  0  0  0  0  0  0  0
   26.1979   36.6230   24.9141 C   0  0  0  0  0  0  0  0  0  0  0  0
   29.4173   40.6602   19.4985 C   0  0  0  0  0  0  0  0  0  0  0  0
   28.9563   41.1383   20.8572 C   0  0  0  0  0  0  0  0  0  0  0  0
   27.9261   42.0592   20.9810 C   0  0  0  0  0  0  0  0  0  0  0  0
   27.6933   42.7933   22.0841 N   0  0  0  0  0  0  0  0  0  0  0  0
   28.5661   42.5977   23.0610 C   0  0  0  0  0  0  0  0  0  0  0  0
   29.6153   41.7913   23.0771 N   0  0  0  0  0  0  0  0  0  0  0  0
   29.7992   41.0907   21.9484 C   0  0  0  0  0  0  0  0  0  0  0  0
   28.3365   43.3360   24.1529 O   0  0  0  0  0  0  0  0  0  0  0  0
   29.2916   43.2566   25.2174 C   0  0  0  0  0  0  0  0  0  0  0  0
  1  2  2  0  0  0  0
  1  6  1  0  0  0  0
  2  3  1  0  0  0  0
  3  4  2  0  0  0  0
  4 14  1  0  0  0  0
  5  4  1  0  0  0  0
  6  5  1  0  0  0  0
  7  6  2  0  0  0  0
  8  9  1  0  0  0  0
  8  2  1  1  0  0  0
 10 19  1  0  0  0  0
 10  9  1  0  0  0  0
 11 10  1  0  0  0  0
 12 11  1  0  0  0  0
 12 13  1  0  0  0  0
 13  8  1  0  0  0  0
 14 15  1  0  0  0  0
 14 18  2  0  0  0  0
 15 16  1  0  0  0  0
 16 17  2  0  0  0  0
 18 17  1  0  0  0  0
 19 20  1  0  0  0  0
 20 25  2  0  0  0  0
 20 21  1  0  0  0  0
 21 22  2  0  0  0  0
 22 23  1  0  0  0  0
 23 26  1  0  0  0  0
 24 23  2  0  0  0  0
 25 24  1  0  0  0  0
 26 27  1  0  0  0  0
M  END
>  <CHROM.1>
-14.39815642,-148.67648332,-55.75002994,-83.72929125,-175.50314128,27.74078538
38.74183652,21.82570444,-2.44927148,1.31336254,1.12334019

>  <Name>
lig.pdb

>  <RI>
0

>  <Rbt.Current_Directory>
/home/itssahil/PROJECTS/Mol_Feturizer/New_Systems/rnas/5kx9

>  <Rbt.Executable>
rbdock ($Id: //depot/dev/client3/rdock/2013.1/src/exe/rbdock.cxx#4 $)

>  <Rbt.Library>
libRbt.so (2013.1, Build901 2013/11/27)

>  <Rbt.Parameter_File>
/export/apps/rDock/src/rDock_2013.1_src/data/scripts/dock_solv.prm

>  <Rbt.Receptor>
prm/pocket_docking_7.prm

>  <SCORE>
-39.228

>  <SCORE.INTER>
-36.0622

>  <SCORE.INTER.CONST>
1

>  <SCORE.INTER.POLAR>
0

>  <SCORE.INTER.ROT>
5

>  <SCORE.INTER.SOLV>
15.7395

>  <SCORE.INTER.VDW>
-36.2213

>  <SCORE.INTER.norm>
-1.33564

>  <SCORE.INTRA>
-3.16583

>  <SCORE.INTRA.DIHEDRAL>
-0.476385

>  <SCORE.INTRA.DIHEDRAL.0>
2.68224

>  <SCORE.INTRA.POLAR>
0

>  <SCORE.INTRA.POLAR.0>
0

>  <SCORE.INTRA.REPUL>
0

>  <SCORE.INTRA.REPUL.0>
0

>  <SCORE.INTRA.SOLV>
-0.237155

>  <SCORE.INTRA.SOLV.lig_0>
-19.4148

>  <SCORE.INTRA.VDW>
-2.80906

>  <SCORE.INTRA.VDW.0>
5.42093

>  <SCORE.INTRA.norm>
-0.117253

>  <SCORE.RESTR>
0

>  <SCORE.RESTR.CAVITY>
0

>  <SCORE.RESTR.norm>
0

>  <SCORE.SYSTEM>
0

>  <SCORE.SYSTEM.CONST>
0

>  <SCORE.SYSTEM.DIHEDRAL>
0

>  <SCORE.SYSTEM.SOLV>
0

>  <SCORE.SYSTEM.norm>
0

>  <SCORE.heavy>
27

>  <SCORE.norm>
-1.45289

>  <RMSD>
0.990

$$$$
lig.pdb
 OpenBabel11021811523D
libRbt.so/2013.1/901 2013/11/27
 27 30  0  0  0  0  0  0  0  0999 V2000
   28.4652   36.1547   19.0551 N   0  0  0  0  0  0  0  0  0  0  0  0
   28.7079   37.2367   19.7528 C   0  0  0  0  0  0  0  0  0  0  0  0
   28.2497   37.4686   21.0087 N   0  0  0  0  0  0  0  0  0  0  0  0
   27.5188   36.4947   21.6287 C   0  0  0  0  0  0  0  0  0  0  0  0
   27.2415   35.3221   20.9864 C   0  0  0  0  0  0  0  0  0  0  0  0
   27.7134   35.1339   19.6353 C   0  0  0  0  0  0  0  0  0  0  0  0
   27.4578   34.1220   18.9707 O   0  0  0  0  0  0  0  0  0  0  0  0
   29.4042   38.4771   19.1511 C   0  0  2  0  0  0  0  0  0  0  0  0
   28.5567   39.6270   19.7196 C   0  0  0  0  0  0  0  0  0  0  0  0
   28.8818   40.9055   19.0849 N   0  0  0  0  0  0  0  0  0  0  0  0
   28.5679   40.8232   17.6493 C   0  0  0  0  0  0  0  0  0  0  0  0
   29.4268   39.7752   16.9693 C   0  0  0  0  0  0  0  0  0  0  0  0
   29.2444   38.4123   17.6227 C   0  0  0  0  0  0  0  0  0  0  0  0
   27.1329   36.8654   22.9836 C   0  0  0  0  0  0  0  0  0  0  0  0
   26.2400   35.7896   23.9939 S   0  0  0  0  0  0  0  0  0  0  0  0
   26.1940   36.9043   25.2454 C   0  0  0  0  0  0  0  0  0  0  0  0
   26.8626   38.0242   24.9429 C   0  0  0  0  0  0  0  0  0  0  0  0
   27.4034   38.0236   23.6424 C   0  0  0  0  0  0  0  0  0  0  0  0
   28.1563   42.0284   19.7046 C   0  0  0  0  0  0  0  0  0  0  0  0
   28.3532   42.1928   21.1951 C   0  0  0  0  0  0  0  0  0  0  0  0
   27.2694   42.2398   22.0600 C   0  0  0  0  0  0  0  0  0  0  0  0
   27.3191   42.7279   23.3126 N   0  0  0  0  0  0  0  0  0  0  0  0
   28.5023   43.2108   23.6609 C   0  0  0  0  0  0  0  0  0  0  0  0
   29.6099   43.2733   22.9392 N   0  0  0  0  0  0  0  0  0  0  0  0
   29.4971   42.7774   21.6982 C   0  0  0  0  0  0  0  0  0  0  0  0
   28.5455   43.7034   24.9042 O   0  0  0  0  0  0  0  0  0  0  0  0
   29.6197   43.2737   25.7485 C   0  0  0  0  0  0  0  0  0  0  0  0
  1  2  2  0  0  0  0
  1  6  1  0  0  0  0
  2  3  1  0  0  0  0
  3  4  2  0  0  0  0
  4 14  1  0  0  0  0
  5  4  1  0  0  0  0
  6  5  1  0  0  0  0
  7  6  2  0  0  0  0
  8  9  1  0  0  0  0
  8  2  1  1  0  0  0
 10 19  1  0  0  0  0
 10  9  1  0  0  0  0
 11 10  1  0  0  0  0
 12 11  1  0  0  0  0
 12 13  1  0  0  0  0
 13  8  1  0  0  0  0
 14 15  1  0  0  0  0
 14 18  2  0  0  0  0
 15 16  1  0  0  0  0
 16 17  2  0  0  0  0
 18 17  1  0  0  0  0
 19 20  1  0  0  0  0
 20 25  2  0  0  0  0
 20 21  1  0  0  0  0
 21 22  2  0  0  0  0
 22 23  1  0  0  0  0
 23 26  1  0  0  0  0
 24 23  2  0  0  0  0
 25 24  1  0  0  0  0
 26 27  1  0  0  0  0
M  END
>  <CHROM.1>
-178.34946010,136.78255214,56.17495824,-125.56654581,130.63039153,28.07685291
39.15989548,21.49517844,-2.01063413,1.23317896,0.77913798

>  <Name>
lig.pdb

>  <RI>
0

>  <Rbt.Current_Directory>
/home/itssahil/PROJECTS/Mol_Feturizer/New_Systems/rnas/5kx9

>  <Rbt.Executable>
rbdock ($Id: //depot/dev/client3/rdock/2013.1/src/exe/rbdock.cxx#4 $)

>  <Rbt.Library>
libRbt.so (2013.1, Build901 2013/11/27)

>  <Rbt.Parameter_File>
/export/apps/rDock/src/rDock_2013.1_src/data/scripts/dock_solv.prm

>  <Rbt.Receptor>
prm/pocket_docking_4.prm

>  <SCORE>
-40.6811

>  <SCORE.INTER>
-38.2668

>  <SCORE.INTER.CONST>
1

>  <SCORE.INTER.POLAR>
0

>  <SCORE.INTER.ROT>
5

>  <SCORE.INTER.SOLV>
15.5605

>  <SCORE.INTER.VDW>
-37.6314

>  <SCORE.INTER.norm>
-1.41729

>  <SCORE.INTRA>
-2.41425

>  <SCORE.INTRA.DIHEDRAL>
1.92675

>  <SCORE.INTRA.DIHEDRAL.0>
2.68224

>  <SCORE.INTRA.POLAR>
0

>  <SCORE.INTRA.POLAR.0>
0

>  <SCORE.INTRA.REPUL>
0

>  <SCORE.INTRA.REPUL.0>
0

>  <SCORE.INTRA.SOLV>
-0.615782

>  <SCORE.INTRA.SOLV.lig_0>
-19.4148

>  <SCORE.INTRA.VDW>
-3.06974

>  <SCORE.INTRA.VDW.0>
5.42093

>  <SCORE.INTRA.norm>
-0.0894168

>  <SCORE.RESTR>
0

>  <SCORE.RESTR.CAVITY>
0

>  <SCORE.RESTR.norm>
0

>  <SCORE.SYSTEM>
0

>  <SCORE.SYSTEM.CONST>
0

>  <SCORE.SYSTEM.DIHEDRAL>
0

>  <SCORE.SYSTEM.SOLV>
0

>  <SCORE.SYSTEM.norm>
0

>  <SCORE.heavy>
27

>  <SCORE.norm>
-1.50671

>  <RMSD>
0.992

$$$$
lig.pdb
 OpenBabel11021811523D
libRbt.so/2013.1/901 2013/11/27
 27 30  0  0  0  0  0  0  0  0999 V2000
   28.0687   36.0933   19.8650 N   0  0  0  0  0  0  0  0  0  0  0  0
   28.4134   37.2603   20.3505 C   0  0  0  0  0  0  0  0  0  0  0  0
   28.0718   37.7200   21.5805 N   0  0  0  0  0  0  0  0  0  0  0  0
   27.3557   36.9026   22.4089 C   0  0  0  0  0  0  0  0  0  0  0  0
   26.9774   35.6574   21.9957 C   0  0  0  0  0  0  0  0  0  0  0  0
   27.3265   35.2243   20.6636 C   0  0  0  0  0  0  0  0  0  0  0  0
   26.9747   34.1325   20.1998 O   0  0  0  0  0  0  0  0  0  0  0  0
   29.1077   38.3451   19.4981 C   0  0  2  0  0  0  0  0  0  0  0  0
   28.4308   39.6300   20.0022 C   0  0  0  0  0  0  0  0  0  0  0  0
   28.7565   40.7815   19.1588 N   0  0  0  0  0  0  0  0  0  0  0  0
   28.2435   40.5426   17.8002 C   0  0  0  0  0  0  0  0  0  0  0  0
   28.9237   39.3429   17.1707 C   0  0  0  0  0  0  0  0  0  0  0  0
   28.7355   38.0978   18.0263 C   0  0  0  0  0  0  0  0  0  0  0  0
   27.1001   37.5114   23.7074 C   0  0  0  0  0  0  0  0  0  0  0  0
   26.2409   36.6709   24.9446 S   0  0  0  0  0  0  0  0  0  0  0  0
   26.3515   37.9746   25.9930 C   0  0  0  0  0  0  0  0  0  0  0  0
   27.0473   38.9872   25.4607 C   0  0  0  0  0  0  0  0  0  0  0  0
   27.4797   38.7422   24.1427 C   0  0  0  0  0  0  0  0  0  0  0  0
   28.2051   42.0355   19.7018 C   0  0  0  0  0  0  0  0  0  0  0  0
   28.0644   42.0920   21.2066 C   0  0  0  0  0  0  0  0  0  0  0  0
   26.8172   42.0391   21.8118 C   0  0  0  0  0  0  0  0  0  0  0  0
   26.5696   42.4317   23.0745 N   0  0  0  0  0  0  0  0  0  0  0  0
   27.6242   42.9234   23.7073 C   0  0  0  0  0  0  0  0  0  0  0  0
   28.8583   43.0753   23.2539 N   0  0  0  0  0  0  0  0  0  0  0  0
   29.0423   42.6720   21.9881 C   0  0  0  0  0  0  0  0  0  0  0  0
   27.3720   43.3211   24.9597 O   0  0  0  0  0  0  0  0  0  0  0  0
   26.7683   42.3713   25.8458 C   0  0  0  0  0  0  0  0  0  0  0  0
  1  2  2  0  0  0  0
  1  6  1  0  0  0  0
  2  3  1  0  0  0  0
  3  4  2  0  0  0  0
  4 14  1  0  0  0  0
  5  4  1  0  0  0  0
  6  5  1  0  0  0  0
  7  6  2  0  0  0  0
  8  9  1  0  0  0  0
  8  2  1  1  0  0  0
 10 19  1  0  0  0  0
 10  9  1  0  0  0  0
 11 10  1  0  0  0  0
 12 11  1  0  0  0  0
 12 13  1  0  0  0  0
 13  8  1  0  0  0  0
 14 15  1  0  0  0  0
 14 18  2  0  0  0  0
 15 16  1  0  0  0  0
 16 17  2  0  0  0  0
 18 17  1  0  0  0  0
 19 20  1  0  0  0  0
 20 25  2  0  0  0  0
 20 21  1  0  0  0  0
 21 22  2  0  0  0  0
 22 23  1  0  0  0  0
 23 26  1  0  0  0  0
 24 23  2  0  0  0  0
 25 24  1  0  0  0  0
 26 27  1  0  0  0  0
M  END
>  <CHROM.1>
-178.80775288,140.76233042,29.65538126,-108.19572801,54.17725346,27.66357827
39.24506933,21.93583629,1.38929072,-1.27003663,-2.71614015

>  <Name>
lig.pdb

>  <RI>
0

>  <Rbt.Current_Directory>
/home/itssahil/PROJECTS/Mol_Feturizer/New_Systems/rnas/5kx9

>  <Rbt.Executable>
rbdock ($Id: //depot/dev/client3/rdock/2013.1/src/exe/rbdock.cxx#4 $)

>  <Rbt.Library>
libRbt.so (2013.1, Build901 2013/11/27)

>  <Rbt.Parameter_File>
/export/apps/rDock/src/rDock_2013.1_src/data/scripts/dock_solv.prm

>  <Rbt.Receptor>
prm/pocket_docking_5.prm

>  <SCORE>
-35.8624

>  <SCORE.INTER>
-35.1624

>  <SCORE.INTER.CONST>
1

>  <SCORE.INTER.POLAR>
0

>  <SCORE.INTER.ROT>
5

>  <SCORE.INTER.SOLV>
14.6828

>  <SCORE.INTER.VDW>
-35.2692

>  <SCORE.INTER.norm>
-1.30231

>  <SCORE.INTRA>
-0.699997

>  <SCORE.INTRA.DIHEDRAL>
3.17316

>  <SCORE.INTRA.DIHEDRAL.0>
2.68224

>  <SCORE.INTRA.POLAR>
0

>  <SCORE.INTRA.POLAR.0>
0

>  <SCORE.INTRA.REPUL>
0

>  <SCORE.INTRA.REPUL.0>
0

>  <SCORE.INTRA.SOLV>
-0.43814

>  <SCORE.INTRA.SOLV.lig_0>
-19.4148

>  <SCORE.INTRA.VDW>
-2.06751

>  <SCORE.INTRA.VDW.0>
5.42093

>  <SCORE.INTRA.norm>
-0.0259258

>  <SCORE.RESTR>
0

>  <SCORE.RESTR.CAVITY>
0

>  <SCORE.RESTR.norm>
0

>  <SCORE.SYSTEM>
0

>  <SCORE.SYSTEM.CONST>
0

>  <SCORE.SYSTEM.DIHEDRAL>
0

>  <SCORE.SYSTEM.SOLV>
0

>  <SCORE.SYSTEM.norm>
0

>  <SCORE.heavy>
27

>  <SCORE.norm>
-1.32824

>  <RMSD>
0.992

$$$$
lig.pdb
 OpenBabel11021811523D
libRbt.so/2013.1/901 2013/11/27
 27 30  0  0  0  0  0  0  0  0999 V2000
   28.4697   36.1553   19.1036 N   0  0  0  0  0  0  0  0  0  0  0  0
   28.6882   37.2293   19.8213 C   0  0  0  0  0  0  0  0  0  0  0  0
   28.2162   37.4320   21.0772 N   0  0  0  0  0  0  0  0  0  0  0  0
   27.4974   36.4354   21.6748 C   0  0  0  0  0  0  0  0  0  0  0  0
   27.2454   35.2692   21.0107 C   0  0  0  0  0  0  0  0  0  0  0  0
   27.7311   35.1120   19.6604 C   0  0  0  0  0  0  0  0  0  0  0  0
   27.4983   34.1073   18.9769 O   0  0  0  0  0  0  0  0  0  0  0  0
   29.3676   38.4915   19.2463 C   0  0  2  0  0  0  0  0  0  0  0  0
   28.4920   39.6165   19.8216 C   0  0  0  0  0  0  0  0  0  0  0  0
   28.8000   40.9103   19.2098 N   0  0  0  0  0  0  0  0  0  0  0  0
   28.5043   40.8436   17.7695 C   0  0  0  0  0  0  0  0  0  0  0  0
   29.3907   39.8223   17.0843 C   0  0  0  0  0  0  0  0  0  0  0  0
   29.2267   38.4466   17.7153 C   0  0  0  0  0  0  0  0  0  0  0  0
   27.0945   36.7764   23.0325 C   0  0  0  0  0  0  0  0  0  0  0  0
   27.4118   38.3333   23.7038 S   0  0  0  0  0  0  0  0  0  0  0  0
   26.7169   37.9111   25.1700 C   0  0  0  0  0  0  0  0  0  0  0  0
   26.2197   36.6679   25.1486 C   0  0  0  0  0  0  0  0  0  0  0  0
   26.4345   35.9962   23.9293 C   0  0  0  0  0  0  0  0  0  0  0  0
   28.0461   42.0099   19.8374 C   0  0  0  0  0  0  0  0  0  0  0  0
   28.2871   42.2084   21.3173 C   0  0  0  0  0  0  0  0  0  0  0  0
   27.2284   42.3494   22.2027 C   0  0  0  0  0  0  0  0  0  0  0  0
   27.3368   42.8725   23.4375 N   0  0  0  0  0  0  0  0  0  0  0  0
   28.5550   43.2919   23.7448 C   0  0  0  0  0  0  0  0  0  0  0  0
   29.6474   43.2632   22.9982 N   0  0  0  0  0  0  0  0  0  0  0  0
   29.4759   42.7366   21.7767 C   0  0  0  0  0  0  0  0  0  0  0  0
   28.6568   43.8196   24.9701 O   0  0  0  0  0  0  0  0  0  0  0  0
   29.6240   43.2470   25.8580 C   0  0  0  0  0  0  0  0  0  0  0  0
  1  2  2  0  0  0  0
  1  6  1  0  0  0  0
  2  3  1  0  0  0  0
  3  4  2  0  0  0  0
  4 14  1  0  0  0  0
  5  4  1  0  0  0  0
  6  5  1  0  0  0  0
  7  6  2  0  0  0  0
  8  9  1  0  0  0  0
  8  2  1  1  0  0  0
 10 19  1  0  0  0  0
 10  9  1  0  0  0  0
 11 10  1  0  0  0  0
 12 11  1  0  0  0  0
 12 13  1  0  0  0  0
 13  8  1  0  0  0  0
 14 15  1  0  0  0  0
 14 18  2  0  0  0  0
 15 16  1  0  0  0  0
 16 17  2  0  0  0  0
 18 17  1  0  0  0  0
 19 20  1  0  0  0  0
 20 25  2  0  0  0  0
 20 21  1  0  0  0  0
 21 22  2  0  0  0  0
 22 23  1  0  0  0  0
 23 26  1  0  0  0  0
 24 23  2  0  0  0  0
 25 24  1  0  0  0  0
 26 27  1  0  0  0  0
M  END
>  <CHROM.1>
4.59139560,136.52603350,59.72958792,-131.79259467,123.76044103,28.12604795
39.29983864,21.55251632,-1.89940449,1.25748864,0.79094046

>  <Name>
lig.pdb

>  <RI>
0

>  <Rbt.Current_Directory>
/home/itssahil/PROJECTS/Mol_Feturizer/New_Systems/rnas/5kx9

>  <Rbt.Executable>
rbdock ($Id: //depot/dev/client3/rdock/2013.1/src/exe/rbdock.cxx#4 $)

>  <Rbt.Library>
libRbt.so (2013.1, Build901 2013/11/27)

>  <Rbt.Parameter_File>
/export/apps/rDock/src/rDock_2013.1_src/data/scripts/dock_solv.prm

>  <Rbt.Receptor>
prm/pocket_docking_4.prm

>  <SCORE>
-39.7009

>  <SCORE.INTER>
-37.0551

>  <SCORE.INTER.CONST>
1

>  <SCORE.INTER.POLAR>
0

>  <SCORE.INTER.ROT>
5

>  <SCORE.INTER.SOLV>
15.2976

>  <SCORE.INTER.VDW>
-36.736

>  <SCORE.INTER.norm>
-1.37241

>  <SCORE.INTRA>
-2.6458

>  <SCORE.INTRA.DIHEDRAL>
2.64158

>  <SCORE.INTRA.DIHEDRAL.0>
2.68224

>  <SCORE.INTRA.POLAR>
0

>  <SCORE.INTRA.POLAR.0>
0

>  <SCORE.INTRA.REPUL>
0

>  <SCORE.INTRA.REPUL.0>
0

>  <SCORE.INTRA.SOLV>
-0.506472

>  <SCORE.INTRA.SOLV.lig_0>
-19.4148

>  <SCORE.INTRA.VDW>
-3.71336

>  <SCORE.INTRA.VDW.0>
5.42093

>  <SCORE.INTRA.norm>
-0.0979928

>  <SCORE.RESTR>
0

>  <SCORE.RESTR.CAVITY>
0

>  <SCORE.RESTR.norm>
0

>  <SCORE.SYSTEM>
0

>  <SCORE.SYSTEM.CONST>
0

>  <SCORE.SYSTEM.DIHEDRAL>
0

>  <SCORE.SYSTEM.SOLV>
0

>  <SCORE.SYSTEM.norm>
0

>  <SCORE.heavy>
27

>  <SCORE.norm>
-1.47041

>  <RMSD>
0.993

$$$$
lig.pdb
 OpenBabel11021811523D
libRbt.so/2013.1/901 2013/11/27
 27 30  0  0  0  0  0  0  0  0999 V2000
   27.9130   35.4109   20.1256 N   0  0  0  0  0  0  0  0  0  0  0  0
   28.1462   36.6684   20.4092 C   0  0  0  0  0  0  0  0  0  0  0  0
   27.8102   37.2756   21.5752 N   0  0  0  0  0  0  0  0  0  0  0  0
   27.2276   36.5269   22.5585 C   0  0  0  0  0  0  0  0  0  0  0  0
   26.9731   35.2001   22.3600 C   0  0  0  0  0  0  0  0  0  0  0  0
   27.3090   34.6041   21.0890 C   0  0  0  0  0  0  0  0  0  0  0  0
   27.0613   33.4230   20.8160 O   0  0  0  0  0  0  0  0  0  0  0  0
   28.6761   37.6739   19.3633 C   0  0  2  0  0  0  0  0  0  0  0  0
   27.6624   38.8236   19.4825 C   0  0  0  0  0  0  0  0  0  0  0  0
   27.8203   39.7999   18.4031 N   0  0  0  0  0  0  0  0  0  0  0  0
   27.5557   39.1393   17.1148 C   0  0  0  0  0  0  0  0  0  0  0  0
   28.5691   38.0424   16.8536 C   0  0  0  0  0  0  0  0  0  0  0  0
   28.5638   37.0157   17.9777 C   0  0  0  0  0  0  0  0  0  0  0  0
   26.9633   37.3000   23.7646 C   0  0  0  0  0  0  0  0  0  0  0  0
   26.0657   36.6397   25.0812 S   0  0  0  0  0  0  0  0  0  0  0  0
   26.1867   38.0633   25.9585 C   0  0  0  0  0  0  0  0  0  0  0  0
   26.9129   38.9868   25.3161 C   0  0  0  0  0  0  0  0  0  0  0  0
   27.3619   38.5685   24.0482 C   0  0  0  0  0  0  0  0  0  0  0  0
   26.9298   40.9611   18.5761 C   0  0  0  0  0  0  0  0  0  0  0  0
   27.2391   41.8537   19.7572 C   0  0  0  0  0  0  0  0  0  0  0  0
   28.5331   42.2861   20.0089 C   0  0  0  0  0  0  0  0  0  0  0  0
   28.9558   42.7662   21.1924 N   0  0  0  0  0  0  0  0  0  0  0  0
   28.0320   42.7618   22.1416 C   0  0  0  0  0  0  0  0  0  0  0  0
   26.7777   42.3465   22.0665 N   0  0  0  0  0  0  0  0  0  0  0  0
   26.4165   41.8735   20.8646 C   0  0  0  0  0  0  0  0  0  0  0  0
   28.4586   43.2317   23.3195 O   0  0  0  0  0  0  0  0  0  0  0  0
   29.6299   42.6319   23.8853 C   0  0  0  0  0  0  0  0  0  0  0  0
  1  2  2  0  0  0  0
  1  6  1  0  0  0  0
  2  3  1  0  0  0  0
  3  4  2  0  0  0  0
  4 14  1  0  0  0  0
  5  4  1  0  0  0  0
  6  5  1  0  0  0  0
  7  6  2  0  0  0  0
  8  9  1  0  0  0  0
  8  2  1  1  0  0  0
 10 19  1  0  0  0  0
 10  9  1  0  0  0  0
 11 10  1  0  0  0  0
 12 11  1  0  0  0  0
 12 13  1  0  0  0  0
 13  8  1  0  0  0  0
 14 15  1  0  0  0  0
 14 18  2  0  0  0  0
 15 16  1  0  0  0  0
 16 17  2  0  0  0  0
 18 17  1  0  0  0  0
 19 20  1  0  0  0  0
 20 25  2  0  0  0  0
 20 21  1  0  0  0  0
 21 22  2  0  0  0  0
 22 23  1  0  0  0  0
 23 26  1  0  0  0  0
 24 23  2  0  0  0  0
 25 24  1  0  0  0  0
 26 27  1  0  0  0  0
M  END
>  <CHROM.1>
172.62313302,127.82088392,67.34034582,47.60525433,-54.21595862,27.56247941
38.79062406,21.42593277,-2.39042028,1.36936839,0.62927668

>  <Name>
lig.pdb

>  <RI>
0

>  <Rbt.Current_Directory>
/home/itssahil/PROJECTS/Mol_Feturizer/New_Systems/rnas/5kx9

>  <Rbt.Executable>
rbdock ($Id: //depot/dev/client3/rdock/2013.1/src/exe/rbdock.cxx#4 $)

>  <Rbt.Library>
libRbt.so (2013.1, Build901 2013/11/27)

>  <Rbt.Parameter_File>
/export/apps/rDock/src/rDock_2013.1_src/data/scripts/dock_solv.prm

>  <Rbt.Receptor>
prm/pocket_docking_2.prm

>  <SCORE>
-37.9006

>  <SCORE.INTER>
-34.764

>  <SCORE.INTER.CONST>
1

>  <SCORE.INTER.POLAR>
0

>  <SCORE.INTER.ROT>
5

>  <SCORE.INTER.SOLV>
16.1934

>  <SCORE.INTER.VDW>
-35.5072

>  <SCORE.INTER.norm>
-1.28756

>  <SCORE.INTRA>
-3.13653

>  <SCORE.INTRA.DIHEDRAL>
2.71899

>  <SCORE.INTRA.DIHEDRAL.0>
2.68224

>  <SCORE.INTRA.POLAR>
0

>  <SCORE.INTRA.POLAR.0>
0

>  <SCORE.INTRA.REPUL>
0

>  <SCORE.INTRA.REPUL.0>
0

>  <SCORE.INTRA.SOLV>
-0.410536

>  <SCORE.INTRA.SOLV.lig_0>
-19.4148

>  <SCORE.INTRA.VDW>
-4.29076

>  <SCORE.INTRA.VDW.0>
5.42093

>  <SCORE.INTRA.norm>
-0.116168

>  <SCORE.RESTR>
0

>  <SCORE.RESTR.CAVITY>
0

>  <SCORE.RESTR.norm>
0

>  <SCORE.SYSTEM>
0

>  <SCORE.SYSTEM.CONST>
0

>  <SCORE.SYSTEM.DIHEDRAL>
0

>  <SCORE.SYSTEM.SOLV>
0

>  <SCORE.SYSTEM.norm>
0

>  <SCORE.heavy>
27

>  <SCORE.norm>
-1.40372

>  <RMSD>
1.001

$$$$
lig.pdb
 OpenBabel11021811523D
libRbt.so/2013.1/901 2013/11/27
 27 30  0  0  0  0  0  0  0  0999 V2000
   28.3419   35.9773   19.0437 N   0  0  0  0  0  0  0  0  0  0  0  0
   28.6018   37.0843   19.6943 C   0  0  0  0  0  0  0  0  0  0  0  0
   28.1845   37.3586   20.9559 N   0  0  0  0  0  0  0  0  0  0  0  0
   27.4799   36.4041   21.6340 C   0  0  0  0  0  0  0  0  0  0  0  0
   27.1877   35.2084   21.0431 C   0  0  0  0  0  0  0  0  0  0  0  0
   27.6153   34.9745   19.6843 C   0  0  0  0  0  0  0  0  0  0  0  0
   27.3433   33.9387   19.0647 O   0  0  0  0  0  0  0  0  0  0  0  0
   29.2710   38.3056   19.0264 C   0  0  2  0  0  0  0  0  0  0  0  0
   28.5282   39.4784   19.6868 C   0  0  0  0  0  0  0  0  0  0  0  0
   28.8263   40.7503   19.0260 N   0  0  0  0  0  0  0  0  0  0  0  0
   28.3581   40.6890   17.6320 C   0  0  0  0  0  0  0  0  0  0  0  0
   29.1037   39.6185   16.8598 C   0  0  0  0  0  0  0  0  0  0  0  0
   28.9466   38.2575   17.5236 C   0  0  0  0  0  0  0  0  0  0  0  0
   27.1374   36.8209   22.9872 C   0  0  0  0  0  0  0  0  0  0  0  0
   26.2439   35.7957   24.0482 S   0  0  0  0  0  0  0  0  0  0  0  0
   26.2567   36.9445   25.2693 C   0  0  0  0  0  0  0  0  0  0  0  0
   26.9449   38.0387   24.9197 C   0  0  0  0  0  0  0  0  0  0  0  0
   27.4528   37.9893   23.6069 C   0  0  0  0  0  0  0  0  0  0  0  0
   28.2092   41.8918   19.7242 C   0  0  0  0  0  0  0  0  0  0  0  0
   28.5237   42.0053   21.1992 C   0  0  0  0  0  0  0  0  0  0  0  0
   27.6594   41.4955   22.1572 C   0  0  0  0  0  0  0  0  0  0  0  0
   27.6696   41.8517   23.4545 N   0  0  0  0  0  0  0  0  0  0  0  0
   28.5649   42.7802   23.7559 C   0  0  0  0  0  0  0  0  0  0  0  0
   29.4234   43.3866   22.9517 N   0  0  0  0  0  0  0  0  0  0  0  0
   29.3619   42.9945   21.6706 C   0  0  0  0  0  0  0  0  0  0  0  0
   28.5660   43.1381   25.0451 O   0  0  0  0  0  0  0  0  0  0  0  0
   27.3208   43.0735   25.7501 C   0  0  0  0  0  0  0  0  0  0  0  0
  1  2  2  0  0  0  0
  1  6  1  0  0  0  0
  2  3  1  0  0  0  0
  3  4  2  0  0  0  0
  4 14  1  0  0  0  0
  5  4  1  0  0  0  0
  6  5  1  0  0  0  0
  7  6  2  0  0  0  0
  8  9  1  0  0  0  0
  8  2  1  1  0  0  0
 10 19  1  0  0  0  0
 10  9  1  0  0  0  0
 11 10  1  0  0  0  0
 12 11  1  0  0  0  0
 12 13  1  0  0  0  0
 13  8  1  0  0  0  0
 14 15  1  0  0  0  0
 14 18  2  0  0  0  0
 15 16  1  0  0  0  0
 16 17  2  0  0  0  0
 18 17  1  0  0  0  0
 19 20  1  0  0  0  0
 20 25  2  0  0  0  0
 20 21  1  0  0  0  0
 21 22  2  0  0  0  0
 22 23  1  0  0  0  0
 23 26  1  0  0  0  0
 24 23  2  0  0  0  0
 25 24  1  0  0  0  0
 26 27  1  0  0  0  0
M  END
>  <CHROM.1>
179.81465082,142.09158885,53.72082600,-95.93370063,-30.90359058,27.95927232
38.98999779,21.50407860,-1.85858735,1.24004184,0.71518514

>  <Name>
lig.pdb

>  <RI>
0

>  <Rbt.Current_Directory>
/home/itssahil/PROJECTS/Mol_Feturizer/New_Systems/rnas/5kx9

>  <Rbt.Executable>
rbdock ($Id: //depot/dev/client3/rdock/2013.1/src/exe/rbdock.cxx#4 $)

>  <Rbt.Library>
libRbt.so (2013.1, Build901 2013/11/27)

>  <Rbt.Parameter_File>
/export/apps/rDock/src/rDock_2013.1_src/data/scripts/dock_solv.prm

>  <Rbt.Receptor>
prm/pocket_docking_3.prm

>  <SCORE>
-36.6971

>  <SCORE.INTER>
-35.687

>  <SCORE.INTER.CONST>
1

>  <SCORE.INTER.POLAR>
0

>  <SCORE.INTER.ROT>
5

>  <SCORE.INTER.SOLV>
13.3572

>  <SCORE.INTER.VDW>
-35.1771

>  <SCORE.INTER.norm>
-1.32174

>  <SCORE.INTRA>
-1.01004

>  <SCORE.INTRA.DIHEDRAL>
0.222809

>  <SCORE.INTRA.DIHEDRAL.0>
2.68224

>  <SCORE.INTRA.POLAR>
0

>  <SCORE.INTRA.POLAR.0>
0

>  <SCORE.INTRA.REPUL>
0

>  <SCORE.INTRA.REPUL.0>
0

>  <SCORE.INTRA.SOLV>
-0.368604

>  <SCORE.INTRA.SOLV.lig_0>
-19.4148

>  <SCORE.INTRA.VDW>
-0.937143

>  <SCORE.INTRA.VDW.0>
5.42093

>  <SCORE.INTRA.norm>
-0.0374089

>  <SCORE.RESTR>
0

>  <SCORE.RESTR.CAVITY>
0

>  <SCORE.RESTR.norm>
0

>  <SCORE.SYSTEM>
0

>  <SCORE.SYSTEM.CONST>
0

>  <SCORE.SYSTEM.DIHEDRAL>
0

>  <SCORE.SYSTEM.SOLV>
0

>  <SCORE.SYSTEM.norm>
0

>  <SCORE.heavy>
27

>  <SCORE.norm>
-1.35915

>  <RMSD>
1.007

$$$$
lig.pdb
 OpenBabel11021811523D
libRbt.so/2013.1/901 2013/11/27
 27 30  0  0  0  0  0  0  0  0999 V2000
   28.4036   36.2182   19.0085 N   0  0  0  0  0  0  0  0  0  0  0  0
   28.6991   37.2718   19.7289 C   0  0  0  0  0  0  0  0  0  0  0  0
   28.2588   37.4955   20.9927 N   0  0  0  0  0  0  0  0  0  0  0  0
   27.4878   36.5418   21.5953 C   0  0  0  0  0  0  0  0  0  0  0  0
   27.1539   35.3980   20.9285 C   0  0  0  0  0  0  0  0  0  0  0  0
   27.6093   35.2195   19.5704 C   0  0  0  0  0  0  0  0  0  0  0  0
   27.3043   34.2358   18.8847 O   0  0  0  0  0  0  0  0  0  0  0  0
   29.4478   38.4928   19.1509 C   0  0  2  0  0  0  0  0  0  0  0  0
   28.5064   39.6503   19.5214 C   0  0  0  0  0  0  0  0  0  0  0  0
   28.8915   40.8966   18.8570 N   0  0  0  0  0  0  0  0  0  0  0  0
   28.7833   40.7180   17.4001 C   0  0  0  0  0  0  0  0  0  0  0  0
   29.7496   39.6557   16.9143 C   0  0  0  0  0  0  0  0  0  0  0  0
   29.5048   38.3305   17.6224 C   0  0  0  0  0  0  0  0  0  0  0  0
   27.1266   36.8985   22.9607 C   0  0  0  0  0  0  0  0  0  0  0  0
   26.2710   35.8041   23.9831 S   0  0  0  0  0  0  0  0  0  0  0  0
   26.2370   36.9100   25.2427 C   0  0  0  0  0  0  0  0  0  0  0  0
   26.8833   38.0411   24.9331 C   0  0  0  0  0  0  0  0  0  0  0  0
   27.3955   38.0562   23.6210 C   0  0  0  0  0  0  0  0  0  0  0  0
   28.0640   42.0338   19.2968 C   0  0  0  0  0  0  0  0  0  0  0  0
   28.1499   42.3765   20.7674 C   0  0  0  0  0  0  0  0  0  0  0  0
   29.3768   42.5223   21.3984 C   0  0  0  0  0  0  0  0  0  0  0  0
   29.5553   42.4709   22.7309 N   0  0  0  0  0  0  0  0  0  0  0  0
   28.4498   42.2256   23.4181 C   0  0  0  0  0  0  0  0  0  0  0  0
   27.2245   42.0248   22.9602 N   0  0  0  0  0  0  0  0  0  0  0  0
   27.1102   42.0822   21.6251 C   0  0  0  0  0  0  0  0  0  0  0  0
   28.6330   42.1664   24.7421 O   0  0  0  0  0  0  0  0  0  0  0  0
   28.9656   43.3844   25.4185 C   0  0  0  0  0  0  0  0  0  0  0  0
  1  2  2  0  0  0  0
  1  6  1  0  0  0  0
  2  3  1  0  0  0  0
  3  4  2  0  0  0  0
  4 14  1  0  0  0  0
  5  4  1  0  0  0  0
  6  5  1  0  0  0  0
  7  6  2  0  0  0  0
  8  9  1  0  0  0  0
  8  2  1  1  0  0  0
 10 19  1  0  0  0  0
 10  9  1  0  0  0  0
 11 10  1  0  0  0  0
 12 11  1  0  0  0  0
 12 13  1  0  0  0  0
 13  8  1  0  0  0  0
 14 15  1  0  0  0  0
 14 18  2  0  0  0  0
 15 16  1  0  0  0  0
 16 17  2  0  0  0  0
 18 17  1  0  0  0  0
 19 20  1  0  0  0  0
 20 25  2  0  0  0  0
 20 21  1  0  0  0  0
 21 22  2  0  0  0  0
 22 23  1  0  0  0  0
 23 26  1  0  0  0  0
 24 23  2  0  0  0  0
 25 24  1  0  0  0  0
 26 27  1  0  0  0  0
M  END
>  <CHROM.1>
-174.70893238,126.30226202,61.77038761,49.29462924,68.70637653,28.04598351
39.01623935,21.35281544,-2.02793075,1.23176032,0.74701014

>  <Name>
lig.pdb

>  <RI>
0

>  <Rbt.Current_Directory>
/home/itssahil/PROJECTS/Mol_Feturizer/New_Systems/rnas/5kx9

>  <Rbt.Executable>
rbdock ($Id: //depot/dev/client3/rdock/2013.1/src/exe/rbdock.cxx#4 $)

>  <Rbt.Library>
libRbt.so (2013.1, Build901 2013/11/27)

>  <Rbt.Parameter_File>
/export/apps/rDock/src/rDock_2013.1_src/data/scripts/dock_solv.prm

>  <Rbt.Receptor>
prm/pocket_docking_5.prm

>  <SCORE>
-39.0415

>  <SCORE.INTER>
-35.7122

>  <SCORE.INTER.CONST>
1

>  <SCORE.INTER.POLAR>
0

>  <SCORE.INTER.ROT>
5

>  <SCORE.INTER.SOLV>
12.8516

>  <SCORE.INTER.VDW>
-35.0254

>  <SCORE.INTER.norm>
-1.32268

>  <SCORE.INTRA>
-3.32923

>  <SCORE.INTRA.DIHEDRAL>
3.43319

>  <SCORE.INTRA.DIHEDRAL.0>
2.68224

>  <SCORE.INTRA.POLAR>
0

>  <SCORE.INTRA.POLAR.0>
0

>  <SCORE.INTRA.REPUL>
0

>  <SCORE.INTRA.REPUL.0>
0

>  <SCORE.INTRA.SOLV>
-0.316992

>  <SCORE.INTRA.SOLV.lig_0>
-19.4148

>  <SCORE.INTRA.VDW>
-4.88733

>  <SCORE.INTRA.VDW.0>
5.42093

>  <SCORE.INTRA.norm>
-0.123305

>  <SCORE.RESTR>
0

>  <SCORE.RESTR.CAVITY>
0

>  <SCORE.RESTR.norm>
0

>  <SCORE.SYSTEM>
0

>  <SCORE.SYSTEM.CONST>
0

>  <SCORE.SYSTEM.DIHEDRAL>
0

>  <SCORE.SYSTEM.SOLV>
0

>  <SCORE.SYSTEM.norm>
0

>  <SCORE.heavy>
27

>  <SCORE.norm>
-1.44598

>  <RMSD>
1.010

$$$$
lig.pdb
 OpenBabel11021811523D
libRbt.so/2013.1/901 2013/11/27
 27 30  0  0  0  0  0  0  0  0999 V2000
   28.3792   36.0399   18.9610 N   0  0  0  0  0  0  0  0  0  0  0  0
   28.6680   37.1130   19.6549 C   0  0  0  0  0  0  0  0  0  0  0  0
   28.2352   37.3603   20.9169 N   0  0  0  0  0  0  0  0  0  0  0  0
   27.4802   36.4117   21.5472 C   0  0  0  0  0  0  0  0  0  0  0  0
   27.1545   35.2492   20.9093 C   0  0  0  0  0  0  0  0  0  0  0  0
   27.6012   35.0451   19.5518 C   0  0  0  0  0  0  0  0  0  0  0  0
   27.3024   34.0426   18.8912 O   0  0  0  0  0  0  0  0  0  0  0  0
   29.3977   38.3291   19.0433 C   0  0  2  0  0  0  0  0  0  0  0  0
   28.5519   39.5036   19.5616 C   0  0  0  0  0  0  0  0  0  0  0  0
   28.9120   40.7622   18.9061 N   0  0  0  0  0  0  0  0  0  0  0  0
   28.6352   40.6499   17.4649 C   0  0  0  0  0  0  0  0  0  0  0  0
   29.4968   39.5744   16.8330 C   0  0  0  0  0  0  0  0  0  0  0  0
   29.2776   38.2301   17.5130 C   0  0  0  0  0  0  0  0  0  0  0  0
   27.1257   36.7952   22.9071 C   0  0  0  0  0  0  0  0  0  0  0  0
   26.2554   35.7295   23.9474 S   0  0  0  0  0  0  0  0  0  0  0  0
   26.2388   36.8557   25.1894 C   0  0  0  0  0  0  0  0  0  0  0  0
   26.9011   37.9722   24.8614 C   0  0  0  0  0  0  0  0  0  0  0  0
   27.4120   37.9591   23.5488 C   0  0  0  0  0  0  0  0  0  0  0  0
   28.1863   41.9092   19.4795 C   0  0  0  0  0  0  0  0  0  0  0  0
   28.3245   42.0909   20.9746 C   0  0  0  0  0  0  0  0  0  0  0  0
   27.2077   42.2353   21.7849 C   0  0  0  0  0  0  0  0  0  0  0  0
   27.2343   42.7453   23.0295 N   0  0  0  0  0  0  0  0  0  0  0  0
   28.4323   43.1481   23.4261 C   0  0  0  0  0  0  0  0  0  0  0  0
   29.5741   43.1141   22.7579 N   0  0  0  0  0  0  0  0  0  0  0  0
   29.4835   42.6012   21.5220 C   0  0  0  0  0  0  0  0  0  0  0  0
   28.4531   43.6628   24.6608 O   0  0  0  0  0  0  0  0  0  0  0  0
   28.2215   42.7672   25.7544 C   0  0  0  0  0  0  0  0  0  0  0  0
  1  2  2  0  0  0  0
  1  6  1  0  0  0  0
  2  3  1  0  0  0  0
  3  4  2  0  0  0  0
  4 14  1  0  0  0  0
  5  4  1  0  0  0  0
  6  5  1  0  0  0  0
  7  6  2  0  0  0  0
  8  9  1  0  0  0  0
  8  2  1  1  0  0  0
 10 19  1  0  0  0  0
 10  9  1  0  0  0  0
 11 10  1  0  0  0  0
 12 11  1  0  0  0  0
 12 13  1  0  0  0  0
 13  8  1  0  0  0  0
 14 15  1  0  0  0  0
 14 18  2  0  0  0  0
 15 16  1  0  0  0  0
 16 17  2  0  0  0  0
 18 17  1  0  0  0  0
 19 20  1  0  0  0  0
 20 25  2  0  0  0  0
 20 21  1  0  0  0  0
 21 22  2  0  0  0  0
 22 23  1  0  0  0  0
 23 26  1  0  0  0  0
 24 23  2  0  0  0  0
 25 24  1  0  0  0  0
 26 27  1  0  0  0  0
M  END
>  <CHROM.1>
-176.31291148,133.86892854,55.05103280,-128.56015605,68.58409962,28.00102391
39.04616872,21.36345995,-1.89781362,1.23169648,0.67153924

>  <Name>
lig.pdb

>  <RI>
0

>  <Rbt.Current_Directory>
/home/itssahil/PROJECTS/Mol_Feturizer/New_Systems/rnas/5kx9

>  <Rbt.Executable>
rbdock ($Id: //depot/dev/client3/rdock/2013.1/src/exe/rbdock.cxx#4 $)

>  <Rbt.Library>
libRbt.so (2013.1, Build901 2013/11/27)

>  <Rbt.Parameter_File>
/export/apps/rDock/src/rDock_2013.1_src/data/scripts/dock_solv.prm

>  <Rbt.Receptor>
prm/pocket_docking_5.prm

>  <SCORE>
-39.8446

>  <SCORE.INTER>
-37.4898

>  <SCORE.INTER.CONST>
1

>  <SCORE.INTER.POLAR>
0

>  <SCORE.INTER.ROT>
5

>  <SCORE.INTER.SOLV>
15.1421

>  <SCORE.INTER.VDW>
-36.9739

>  <SCORE.INTER.norm>
-1.38851

>  <SCORE.INTRA>
-2.35478

>  <SCORE.INTRA.DIHEDRAL>
3.35934

>  <SCORE.INTRA.DIHEDRAL.0>
2.68224

>  <SCORE.INTRA.POLAR>
0

>  <SCORE.INTRA.POLAR.0>
0

>  <SCORE.INTRA.REPUL>
0

>  <SCORE.INTRA.REPUL.0>
0

>  <SCORE.INTRA.SOLV>
-0.618732

>  <SCORE.INTRA.SOLV.lig_0>
-19.4148

>  <SCORE.INTRA.VDW>
-3.72509

>  <SCORE.INTRA.VDW.0>
5.42093

>  <SCORE.INTRA.norm>
-0.0872141

>  <SCORE.RESTR>
0

>  <SCORE.RESTR.CAVITY>
0

>  <SCORE.RESTR.norm>
0

>  <SCORE.SYSTEM>
0

>  <SCORE.SYSTEM.CONST>
0

>  <SCORE.SYSTEM.DIHEDRAL>
0

>  <SCORE.SYSTEM.SOLV>
0

>  <SCORE.SYSTEM.norm>
0

>  <SCORE.heavy>
27

>  <SCORE.norm>
-1.47573

>  <RMSD>
1.019

$$$$
lig.pdb
 OpenBabel11021811523D
libRbt.so/2013.1/901 2013/11/27
 27 30  0  0  0  0  0  0  0  0999 V2000
   28.3924   36.2208   19.0063 N   0  0  0  0  0  0  0  0  0  0  0  0
   28.6720   37.2785   19.7270 C   0  0  0  0  0  0  0  0  0  0  0  0
   28.2365   37.4905   20.9944 N   0  0  0  0  0  0  0  0  0  0  0  0
   27.4891   36.5202   21.6003 C   0  0  0  0  0  0  0  0  0  0  0  0
   27.1734   35.3714   20.9333 C   0  0  0  0  0  0  0  0  0  0  0  0
   27.6224   35.2051   19.5715 C   0  0  0  0  0  0  0  0  0  0  0  0
   27.3322   34.2170   18.8858 O   0  0  0  0  0  0  0  0  0  0  0  0
   29.3919   38.5155   19.1465 C   0  0  2  0  0  0  0  0  0  0  0  0
   28.5543   39.6709   19.7184 C   0  0  0  0  0  0  0  0  0  0  0  0
   28.9039   40.9516   19.1013 N   0  0  0  0  0  0  0  0  0  0  0  0
   28.6045   40.8891   17.6616 C   0  0  0  0  0  0  0  0  0  0  0  0
   29.4562   39.8368   16.9794 C   0  0  0  0  0  0  0  0  0  0  0  0
   29.2478   38.4695   17.6158 C   0  0  0  0  0  0  0  0  0  0  0  0
   27.1308   36.8666   22.9692 C   0  0  0  0  0  0  0  0  0  0  0  0
   26.2541   35.7748   23.9763 S   0  0  0  0  0  0  0  0  0  0  0  0
   26.2359   36.8659   25.2491 C   0  0  0  0  0  0  0  0  0  0  0  0
   26.9023   37.9894   24.9546 C   0  0  0  0  0  0  0  0  0  0  0  0
   27.4178   38.0115   23.6440 C   0  0  0  0  0  0  0  0  0  0  0  0
   28.1873   42.0776   19.7255 C   0  0  0  0  0  0  0  0  0  0  0  0
   28.3821   42.2320   21.2174 C   0  0  0  0  0  0  0  0  0  0  0  0
   27.2966   42.2868   22.0796 C   0  0  0  0  0  0  0  0  0  0  0  0
   27.3485   42.7678   23.3349 N   0  0  0  0  0  0  0  0  0  0  0  0
   28.5362   43.2353   23.6889 C   0  0  0  0  0  0  0  0  0  0  0  0
   29.6463   43.2890   22.9704 N   0  0  0  0  0  0  0  0  0  0  0  0
   29.5312   42.8009   21.7265 C   0  0  0  0  0  0  0  0  0  0  0  0
   28.5816   43.7209   24.9348 O   0  0  0  0  0  0  0  0  0  0  0  0
   29.6273   43.2468   25.7912 C   0  0  0  0  0  0  0  0  0  0  0  0
  1  2  2  0  0  0  0
  1  6  1  0  0  0  0
  2  3  1  0  0  0  0
  3  4  2  0  0  0  0
  4 14  1  0  0  0  0
  5  4  1  0  0  0  0
  6  5  1  0  0  0  0
  7  6  2  0  0  0  0
  8  9  1  0  0  0  0
  8  2  1  1  0  0  0
 10 19  1  0  0  0  0
 10  9  1  0  0  0  0
 11 10  1  0  0  0  0
 12 11  1  0  0  0  0
 12 13  1  0  0  0  0
 13  8  1  0  0  0  0
 14 15  1  0  0  0  0
 14 18  2  0  0  0  0
 15 16  1  0  0  0  0
 16 17  2  0  0  0  0
 18 17  1  0  0  0  0
 19 20  1  0  0  0  0
 20 25  2  0  0  0  0
 20 21  1  0  0  0  0
 21 22  2  0  0  0  0
 22 23  1  0  0  0  0
 23 26  1  0  0  0  0
 24 23  2  0  0  0  0
 25 24  1  0  0  0  0
 26 27  1  0  0  0  0
M  END
>  <CHROM.1>
-176.97939255,135.04586972,56.80440556,-125.69131101,128.96909328,28.07766646
39.18836114,21.49218281,-2.04838690,1.23189353,0.81885676

>  <Name>
lig.pdb

>  <RI>
0

>  <Rbt.Current_Directory>
/home/itssahil/PROJECTS/Mol_Feturizer/New_Systems/rnas/5kx9

>  <Rbt.Executable>
rbdock ($Id: //depot/dev/client3/rdock/2013.1/src/exe/rbdock.cxx#4 $)

>  <Rbt.Library>
libRbt.so (2013.1, Build901 2013/11/27)

>  <Rbt.Parameter_File>
/export/apps/rDock/src/rDock_2013.1_src/data/scripts/dock_solv.prm

>  <Rbt.Receptor>
prm/blind_docking_100.prm

>  <SCORE>
-40.4777

>  <SCORE.INTER>
-37.8931

>  <SCORE.INTER.CONST>
1

>  <SCORE.INTER.POLAR>
0

>  <SCORE.INTER.ROT>
5

>  <SCORE.INTER.SOLV>
15.3234

>  <SCORE.INTER.VDW>
-37.3032

>  <SCORE.INTER.norm>
-1.40345

>  <SCORE.INTRA>
-2.58456

>  <SCORE.INTRA.DIHEDRAL>
2.0631

>  <SCORE.INTRA.DIHEDRAL.0>
2.68224

>  <SCORE.INTRA.POLAR>
0

>  <SCORE.INTRA.POLAR.0>
0

>  <SCORE.INTRA.REPUL>
0

>  <SCORE.INTRA.REPUL.0>
0

>  <SCORE.INTRA.SOLV>
-0.617996

>  <SCORE.INTRA.SOLV.lig_0>
-19.4148

>  <SCORE.INTRA.VDW>
-3.30712

>  <SCORE.INTRA.VDW.0>
5.42093

>  <SCORE.INTRA.norm>
-0.0957246

>  <SCORE.RESTR>
0

>  <SCORE.RESTR.CAVITY>
0

>  <SCORE.RESTR.norm>
0

>  <SCORE.SYSTEM>
0

>  <SCORE.SYSTEM.CONST>
0

>  <SCORE.SYSTEM.DIHEDRAL>
0

>  <SCORE.SYSTEM.SOLV>
0

>  <SCORE.SYSTEM.norm>
0

>  <SCORE.heavy>
27

>  <SCORE.norm>
-1.49917

>  <RMSD>
1.026

$$$$
lig.pdb
 OpenBabel11021811523D
libRbt.so/2013.1/901 2013/11/27
 27 30  0  0  0  0  0  0  0  0999 V2000
   28.4361   36.2252   19.0228 N   0  0  0  0  0  0  0  0  0  0  0  0
   28.6846   37.2924   19.7409 C   0  0  0  0  0  0  0  0  0  0  0  0
   28.2350   37.4990   21.0043 N   0  0  0  0  0  0  0  0  0  0  0  0
   27.5072   36.5132   21.6091 C   0  0  0  0  0  0  0  0  0  0  0  0
   27.2244   35.3543   20.9448 C   0  0  0  0  0  0  0  0  0  0  0  0
   27.6871   35.1934   19.5869 C   0  0  0  0  0  0  0  0  0  0  0  0
   27.4261   34.1956   18.9034 O   0  0  0  0  0  0  0  0  0  0  0  0
   29.3782   38.5443   19.1602 C   0  0  2  0  0  0  0  0  0  0  0  0
   28.5278   39.6826   19.7473 C   0  0  0  0  0  0  0  0  0  0  0  0
   28.8501   40.9723   19.1341 N   0  0  0  0  0  0  0  0  0  0  0  0
   28.5369   40.9130   17.6972 C   0  0  0  0  0  0  0  0  0  0  0  0
   29.3984   39.8785   17.0002 C   0  0  0  0  0  0  0  0  0  0  0  0
   29.2190   38.5045   17.6308 C   0  0  0  0  0  0  0  0  0  0  0  0
   27.1307   36.8564   22.9738 C   0  0  0  0  0  0  0  0  0  0  0  0
   26.2346   35.7650   23.9643 S   0  0  0  0  0  0  0  0  0  0  0  0
   26.2030   36.8517   25.2406 C   0  0  0  0  0  0  0  0  0  0  0  0
   26.8787   37.9731   24.9599 C   0  0  0  0  0  0  0  0  0  0  0  0
   27.4131   37.9975   23.6569 C   0  0  0  0  0  0  0  0  0  0  0  0
   28.1218   42.0829   19.7721 C   0  0  0  0  0  0  0  0  0  0  0  0
   28.3472   42.2460   21.2588 C   0  0  0  0  0  0  0  0  0  0  0  0
   27.2793   42.3608   22.1368 C   0  0  0  0  0  0  0  0  0  0  0  0
   27.3731   42.8539   23.3850 N   0  0  0  0  0  0  0  0  0  0  0  0
   28.5864   43.2707   23.7147 C   0  0  0  0  0  0  0  0  0  0  0  0
   29.6862   43.2648   22.9786 N   0  0  0  0  0  0  0  0  0  0  0  0
   29.5291   42.7677   21.7429 C   0  0  0  0  0  0  0  0  0  0  0  0
   28.6738   43.7685   24.9535 O   0  0  0  0  0  0  0  0  0  0  0  0
   29.7073   43.2539   25.8013 C   0  0  0  0  0  0  0  0  0  0  0  0
  1  2  2  0  0  0  0
  1  6  1  0  0  0  0
  2  3  1  0  0  0  0
  3  4  2  0  0  0  0
  4 14  1  0  0  0  0
  5  4  1  0  0  0  0
  6  5  1  0  0  0  0
  7  6  2  0  0  0  0
  8  9  1  0  0  0  0
  8  2  1  1  0  0  0
 10 19  1  0  0  0  0
 10  9  1  0  0  0  0
 11 10  1  0  0  0  0
 12 11  1  0  0  0  0
 12 13  1  0  0  0  0
 13  8  1  0  0  0  0
 14 15  1  0  0  0  0
 14 18  2  0  0  0  0
 15 16  1  0  0  0  0
 16 17  2  0  0  0  0
 18 17  1  0  0  0  0
 19 20  1  0  0  0  0
 20 25  2  0  0  0  0
 20 21  1  0  0  0  0
 21 22  2  0  0  0  0
 22 23  1  0  0  0  0
 23 26  1  0  0  0  0
 24 23  2  0  0  0  0
 25 24  1  0  0  0  0
 26 27  1  0  0  0  0
M  END
>  <CHROM.1>
-178.75020706,136.28705106,57.76639594,-129.72153224,128.75205743,28.08200587
39.19800243,21.50990447,-2.05825838,1.23614531,0.82430396

>  <Name>
lig.pdb

>  <RI>
0

>  <Rbt.Current_Directory>
/home/itssahil/PROJECTS/Mol_Feturizer/New_Systems/rnas/5kx9

>  <Rbt.Executable>
rbdock ($Id: //depot/dev/client3/rdock/2013.1/src/exe/rbdock.cxx#4 $)

>  <Rbt.Library>
libRbt.so (2013.1, Build901 2013/11/27)

>  <Rbt.Parameter_File>
/export/apps/rDock/src/rDock_2013.1_src/data/scripts/dock_solv.prm

>  <Rbt.Receptor>
prm/pocket_docking_4.prm

>  <SCORE>
-40.5818

>  <SCORE.INTER>
-38.1738

>  <SCORE.INTER.CONST>
1

>  <SCORE.INTER.POLAR>
0

>  <SCORE.INTER.ROT>
5

>  <SCORE.INTER.SOLV>
15.5777

>  <SCORE.INTER.VDW>
-37.5751

>  <SCORE.INTER.norm>
-1.41384

>  <SCORE.INTRA>
-2.40799

>  <SCORE.INTRA.DIHEDRAL>
2.15514

>  <SCORE.INTRA.DIHEDRAL.0>
2.68224

>  <SCORE.INTRA.POLAR>
0

>  <SCORE.INTRA.POLAR.0>
0

>  <SCORE.INTRA.REPUL>
0

>  <SCORE.INTRA.REPUL.0>
0

>  <SCORE.INTRA.SOLV>
-0.615768

>  <SCORE.INTRA.SOLV.lig_0>
-19.4148

>  <SCORE.INTRA.VDW>
-3.17768

>  <SCORE.INTRA.VDW.0>
5.42093

>  <SCORE.INTRA.norm>
-0.0891848

>  <SCORE.RESTR>
0

>  <SCORE.RESTR.CAVITY>
0

>  <SCORE.RESTR.norm>
0

>  <SCORE.SYSTEM>
0

>  <SCORE.SYSTEM.CONST>
0

>  <SCORE.SYSTEM.DIHEDRAL>
0

>  <SCORE.SYSTEM.SOLV>
0

>  <SCORE.SYSTEM.norm>
0

>  <SCORE.heavy>
27

>  <SCORE.norm>
-1.50303

>  <RMSD>
1.029

$$$$
lig.pdb
 OpenBabel11021811523D
libRbt.so/2013.1/901 2013/11/27
 27 30  0  0  0  0  0  0  0  0999 V2000
   28.5101   36.1351   19.0817 N   0  0  0  0  0  0  0  0  0  0  0  0
   28.7393   37.2219   19.7763 C   0  0  0  0  0  0  0  0  0  0  0  0
   28.2696   37.4562   21.0275 N   0  0  0  0  0  0  0  0  0  0  0  0
   27.5412   36.4797   21.6463 C   0  0  0  0  0  0  0  0  0  0  0  0
   27.2776   35.3022   21.0073 C   0  0  0  0  0  0  0  0  0  0  0  0
   27.7614   35.1113   19.6607 C   0  0  0  0  0  0  0  0  0  0  0  0
   27.5186   34.0946   18.9988 O   0  0  0  0  0  0  0  0  0  0  0  0
   29.4312   38.4648   19.1744 C   0  0  2  0  0  0  0  0  0  0  0  0
   28.4498   39.5885   19.5457 C   0  0  0  0  0  0  0  0  0  0  0  0
   28.7761   40.8413   18.8622 N   0  0  0  0  0  0  0  0  0  0  0  0
   28.6549   40.6419   17.4090 C   0  0  0  0  0  0  0  0  0  0  0  0
   29.6557   39.6130   16.9212 C   0  0  0  0  0  0  0  0  0  0  0  0
   29.4734   38.2873   17.6471 C   0  0  0  0  0  0  0  0  0  0  0  0
   27.1420   36.8537   22.9965 C   0  0  0  0  0  0  0  0  0  0  0  0
   26.2377   35.7810   23.9999 S   0  0  0  0  0  0  0  0  0  0  0  0
   26.1801   36.8983   25.2485 C   0  0  0  0  0  0  0  0  0  0  0  0
   26.8531   38.0169   24.9505 C   0  0  0  0  0  0  0  0  0  0  0  0
   27.4070   38.0130   23.6555 C   0  0  0  0  0  0  0  0  0  0  0  0
   27.9105   41.9500   19.3014 C   0  0  0  0  0  0  0  0  0  0  0  0
   28.1595   42.4599   20.7033 C   0  0  0  0  0  0  0  0  0  0  0  0
   29.4481   42.6847   21.1654 C   0  0  0  0  0  0  0  0  0  0  0  0
   29.7808   42.7878   22.4649 N   0  0  0  0  0  0  0  0  0  0  0  0
   28.7674   42.6164   23.3004 C   0  0  0  0  0  0  0  0  0  0  0  0
   27.5014   42.3568   23.0152 N   0  0  0  0  0  0  0  0  0  0  0  0
   27.2321   42.2597   21.7049 C   0  0  0  0  0  0  0  0  0  0  0  0
   29.1038   42.7107   24.5919 O   0  0  0  0  0  0  0  0  0  0  0  0
   28.1626   43.3297   25.4766 C   0  0  0  0  0  0  0  0  0  0  0  0
  1  2  2  0  0  0  0
  1  6  1  0  0  0  0
  2  3  1  0  0  0  0
  3  4  2  0  0  0  0
  4 14  1  0  0  0  0
  5  4  1  0  0  0  0
  6  5  1  0  0  0  0
  7  6  2  0  0  0  0
  8  9  1  0  0  0  0
  8  2  1  1  0  0  0
 10 19  1  0  0  0  0
 10  9  1  0  0  0  0
 11 10  1  0  0  0  0
 12 11  1  0  0  0  0
 12 13  1  0  0  0  0
 13  8  1  0  0  0  0
 14 15  1  0  0  0  0
 14 18  2  0  0  0  0
 15 16  1  0  0  0  0
 16 17  2  0  0  0  0
 18 17  1  0  0  0  0
 19 20  1  0  0  0  0
 20 25  2  0  0  0  0
 20 21  1  0  0  0  0
 21 22  2  0  0  0  0
 22 23  1  0  0  0  0
 23 26  1  0  0  0  0
 24 23  2  0  0  0  0
 25 24  1  0  0  0  0
 26 27  1  0  0  0  0
M  END
>  <CHROM.1>
-178.87574631,128.30254802,71.19382108,44.75333477,143.16223178,28.06813857
39.04589592,21.35573011,-2.02730859,1.23522942,0.68218760

>  <Name>
lig.pdb

>  <RI>
0

>  <Rbt.Current_Directory>
/home/itssahil/PROJECTS/Mol_Feturizer/New_Systems/rnas/5kx9

>  <Rbt.Executable>
rbdock ($Id: //depot/dev/client3/rdock/2013.1/src/exe/rbdock.cxx#4 $)

>  <Rbt.Library>
libRbt.so (2013.1, Build901 2013/11/27)

>  <Rbt.Parameter_File>
/export/apps/rDock/src/rDock_2013.1_src/data/scripts/dock_solv.prm

>  <Rbt.Receptor>
prm/pocket_docking_7.prm

>  <SCORE>
-39.4121

>  <SCORE.INTER>
-35.9632

>  <SCORE.INTER.CONST>
1

>  <SCORE.INTER.POLAR>
0

>  <SCORE.INTER.ROT>
5

>  <SCORE.INTER.SOLV>
14.42

>  <SCORE.INTER.VDW>
-35.7155

>  <SCORE.INTER.norm>
-1.33197

>  <SCORE.INTRA>
-3.44885

>  <SCORE.INTRA.DIHEDRAL>
1.109

>  <SCORE.INTRA.DIHEDRAL.0>
2.68224

>  <SCORE.INTRA.POLAR>
0

>  <SCORE.INTRA.POLAR.0>
0

>  <SCORE.INTRA.REPUL>
0

>  <SCORE.INTRA.REPUL.0>
0

>  <SCORE.INTRA.SOLV>
-0.444782

>  <SCORE.INTRA.SOLV.lig_0>
-19.4148

>  <SCORE.INTRA.VDW>
-3.78096

>  <SCORE.INTRA.VDW.0>
5.42093

>  <SCORE.INTRA.norm>
-0.127735

>  <SCORE.RESTR>
0

>  <SCORE.RESTR.CAVITY>
0

>  <SCORE.RESTR.norm>
0

>  <SCORE.SYSTEM>
0

>  <SCORE.SYSTEM.CONST>
0

>  <SCORE.SYSTEM.DIHEDRAL>
0

>  <SCORE.SYSTEM.SOLV>
0

>  <SCORE.SYSTEM.norm>
0

>  <SCORE.heavy>
27

>  <SCORE.norm>
-1.45971

>  <RMSD>
1.032

$$$$
lig.pdb
 OpenBabel11021811523D
libRbt.so/2013.1/901 2013/11/27
 27 30  0  0  0  0  0  0  0  0999 V2000
   28.4507   36.1772   19.1253 N   0  0  0  0  0  0  0  0  0  0  0  0
   28.6880   37.2607   19.8223 C   0  0  0  0  0  0  0  0  0  0  0  0
   28.2197   37.4958   21.0739 N   0  0  0  0  0  0  0  0  0  0  0  0
   27.4837   36.5235   21.6904 C   0  0  0  0  0  0  0  0  0  0  0  0
   27.2113   35.3494   21.0487 C   0  0  0  0  0  0  0  0  0  0  0  0
   27.6941   35.1579   19.7019 C   0  0  0  0  0  0  0  0  0  0  0  0
   27.4437   34.1444   19.0377 O   0  0  0  0  0  0  0  0  0  0  0  0
   29.3894   38.4996   19.2233 C   0  0  2  0  0  0  0  0  0  0  0  0
   28.3979   39.6243   19.5633 C   0  0  0  0  0  0  0  0  0  0  0  0
   28.7355   40.8714   18.8750 N   0  0  0  0  0  0  0  0  0  0  0  0
   28.6453   40.6580   17.4215 C   0  0  0  0  0  0  0  0  0  0  0  0
   29.6585   39.6271   16.9645 C   0  0  0  0  0  0  0  0  0  0  0  0
   29.4641   38.3079   17.6990 C   0  0  0  0  0  0  0  0  0  0  0  0
   27.0869   36.8976   23.0412 C   0  0  0  0  0  0  0  0  0  0  0  0
   26.2039   35.8165   24.0544 S   0  0  0  0  0  0  0  0  0  0  0  0
   26.1375   36.9382   25.2987 C   0  0  0  0  0  0  0  0  0  0  0  0
   26.7927   38.0650   24.9920 C   0  0  0  0  0  0  0  0  0  0  0  0
   27.3392   38.0634   23.6938 C   0  0  0  0  0  0  0  0  0  0  0  0
   27.8583   41.9820   19.2854 C   0  0  0  0  0  0  0  0  0  0  0  0
   28.0522   42.4819   20.6995 C   0  0  0  0  0  0  0  0  0  0  0  0
   29.3215   42.7105   21.2107 C   0  0  0  0  0  0  0  0  0  0  0  0
   29.6053   42.8050   22.5224 N   0  0  0  0  0  0  0  0  0  0  0  0
   28.5628   42.6208   23.3185 C   0  0  0  0  0  0  0  0  0  0  0  0
   27.3098   42.3561   22.9846 N   0  0  0  0  0  0  0  0  0  0  0  0
   27.0897   42.2681   21.6646 C   0  0  0  0  0  0  0  0  0  0  0  0
   28.8507   42.7066   24.6222 O   0  0  0  0  0  0  0  0  0  0  0  0
   28.3318   41.6855   25.4823 C   0  0  0  0  0  0  0  0  0  0  0  0
  1  2  2  0  0  0  0
  1  6  1  0  0  0  0
  2  3  1  0  0  0  0
  3  4  2  0  0  0  0
  4 14  1  0  0  0  0
  5  4  1  0  0  0  0
  6  5  1  0  0  0  0
  7  6  2  0  0  0  0
  8  9  1  0  0  0  0
  8  2  1  1  0  0  0
 10 19  1  0  0  0  0
 10  9  1  0  0  0  0
 11 10  1  0  0  0  0
 12 11  1  0  0  0  0
 12 13  1  0  0  0  0
 13  8  1  0  0  0  0
 14 15  1  0  0  0  0
 14 18  2  0  0  0  0
 15 16  1  0  0  0  0
 16 17  2  0  0  0  0
 18 17  1  0  0  0  0
 19 20  1  0  0  0  0
 20 25  2  0  0  0  0
 20 21  1  0  0  0  0
 21 22  2  0  0  0  0
 22 23  1  0  0  0  0
 23 26  1  0  0  0  0
 24 23  2  0  0  0  0
 25 24  1  0  0  0  0
 26 27  1  0  0  0  0
M  END
>  <CHROM.1>
-177.52224658,126.82542334,69.67164054,45.44704473,-133.44717654,27.99919393
39.01035525,21.38586045,-2.11639065,1.24475507,0.67703065

>  <Name>
lig.pdb

>  <RI>
0

>  <Rbt.Current_Directory>
/home/itssahil/PROJECTS/Mol_Feturizer/New_Systems/rnas/5kx9

>  <Rbt.Executable>
rbdock ($Id: //depot/dev/client3/rdock/2013.1/src/exe/rbdock.cxx#4 $)

>  <Rbt.Library>
libRbt.so (2013.1, Build901 2013/11/27)

>  <Rbt.Parameter_File>
/export/apps/rDock/src/rDock_2013.1_src/data/scripts/dock_solv.prm

>  <Rbt.Receptor>
prm/pocket_docking_4.prm

>  <SCORE>
-38.8871

>  <SCORE.INTER>
-35.0858

>  <SCORE.INTER.CONST>
1

>  <SCORE.INTER.POLAR>
0

>  <SCORE.INTER.ROT>
5

>  <SCORE.INTER.SOLV>
13.9573

>  <SCORE.INTER.VDW>
-34.9763

>  <SCORE.INTER.norm>
-1.29947

>  <SCORE.INTRA>
-3.80125

>  <SCORE.INTRA.DIHEDRAL>
1.81637

>  <SCORE.INTRA.DIHEDRAL.0>
2.68224

>  <SCORE.INTRA.POLAR>
0

>  <SCORE.INTRA.POLAR.0>
0

>  <SCORE.INTRA.REPUL>
0

>  <SCORE.INTRA.REPUL.0>
0

>  <SCORE.INTRA.SOLV>
-0.438378

>  <SCORE.INTRA.SOLV.lig_0>
-19.4148

>  <SCORE.INTRA.VDW>
-4.49024

>  <SCORE.INTRA.VDW.0>
5.42093

>  <SCORE.INTRA.norm>
-0.140787

>  <SCORE.RESTR>
0

>  <SCORE.RESTR.CAVITY>
0

>  <SCORE.RESTR.norm>
0

>  <SCORE.SYSTEM>
0

>  <SCORE.SYSTEM.CONST>
0

>  <SCORE.SYSTEM.DIHEDRAL>
0

>  <SCORE.SYSTEM.SOLV>
0

>  <SCORE.SYSTEM.norm>
0

>  <SCORE.heavy>
27

>  <SCORE.norm>
-1.44026

>  <RMSD>
1.033

$$$$
lig.pdb
 OpenBabel11021811523D
libRbt.so/2013.1/901 2013/11/27
 27 30  0  0  0  0  0  0  0  0999 V2000
   28.3345   36.2336   19.4114 N   0  0  0  0  0  0  0  0  0  0  0  0
   28.5029   37.3913   20.0011 C   0  0  0  0  0  0  0  0  0  0  0  0
   28.0750   37.6935   21.2528 N   0  0  0  0  0  0  0  0  0  0  0  0
   27.4629   36.7181   21.9883 C   0  0  0  0  0  0  0  0  0  0  0  0
   27.2707   35.4724   21.4631 C   0  0  0  0  0  0  0  0  0  0  0  0
   27.7044   35.2062   20.1123 C   0  0  0  0  0  0  0  0  0  0  0  0
   27.5180   34.1199   19.5500 O   0  0  0  0  0  0  0  0  0  0  0  0
   29.0566   38.6297   19.2627 C   0  0  2  0  0  0  0  0  0  0  0  0
   28.0021   39.6981   19.5945 C   0  0  0  0  0  0  0  0  0  0  0  0
   28.1872   40.9099   18.7942 N   0  0  0  0  0  0  0  0  0  0  0  0
   28.0138   40.5772   17.3710 C   0  0  0  0  0  0  0  0  0  0  0  0
   29.0739   39.5945   16.9143 C   0  0  0  0  0  0  0  0  0  0  0  0
   29.0403   38.3257   17.7549 C   0  0  0  0  0  0  0  0  0  0  0  0
   27.0979   37.1733   23.3231 C   0  0  0  0  0  0  0  0  0  0  0  0
   26.2395   36.1561   24.4201 S   0  0  0  0  0  0  0  0  0  0  0  0
   26.2020   37.3509   25.5957 C   0  0  0  0  0  0  0  0  0  0  0  0
   26.8492   38.4565   25.2062 C   0  0  0  0  0  0  0  0  0  0  0  0
   27.3649   38.3761   23.8980 C   0  0  0  0  0  0  0  0  0  0  0  0
   27.2525   41.9785   19.1884 C   0  0  0  0  0  0  0  0  0  0  0  0
   27.1486   42.2431   20.6739 C   0  0  0  0  0  0  0  0  0  0  0  0
   28.2845   42.3662   21.4607 C   0  0  0  0  0  0  0  0  0  0  0  0
   28.2960   42.2454   22.8005 N   0  0  0  0  0  0  0  0  0  0  0  0
   27.1174   41.9538   23.3298 C   0  0  0  0  0  0  0  0  0  0  0  0
   25.9621   41.7665   22.7120 N   0  0  0  0  0  0  0  0  0  0  0  0
   26.0146   41.8939   21.3779 C   0  0  0  0  0  0  0  0  0  0  0  0
   27.1346   41.8257   24.6615 O   0  0  0  0  0  0  0  0  0  0  0  0
   27.5455   42.9626   25.4297 C   0  0  0  0  0  0  0  0  0  0  0  0
  1  2  2  0  0  0  0
  1  6  1  0  0  0  0
  2  3  1  0  0  0  0
  3  4  2  0  0  0  0
  4 14  1  0  0  0  0
  5  4  1  0  0  0  0
  6  5  1  0  0  0  0
  7  6  2  0  0  0  0
  8  9  1  0  0  0  0
  8  2  1  1  0  0  0
 10 19  1  0  0  0  0
 10  9  1  0  0  0  0
 11 10  1  0  0  0  0
 12 11  1  0  0  0  0
 12 13  1  0  0  0  0
 13  8  1  0  0  0  0
 14 15  1  0  0  0  0
 14 18  2  0  0  0  0
 15 16  1  0  0  0  0
 16 17  2  0  0  0  0
 18 17  1  0  0  0  0
 19 20  1  0  0  0  0
 20 25  2  0  0  0  0
 20 21  1  0  0  0  0
 21 22  2  0  0  0  0
 22 23  1  0  0  0  0
 23 26  1  0  0  0  0
 24 23  2  0  0  0  0
 25 24  1  0  0  0  0
 26 27  1  0  0  0  0
M  END
>  <CHROM.1>
176.80455870,128.33457559,47.68296421,46.93845981,60.10976916,27.52438607
39.03321067,21.52328082,0.89028258,-1.31596771,-3.05485163

>  <Name>
lig.pdb

>  <RI>
0

>  <Rbt.Current_Directory>
/home/itssahil/PROJECTS/Mol_Feturizer/New_Systems/rnas/5kx9

>  <Rbt.Executable>
rbdock ($Id: //depot/dev/client3/rdock/2013.1/src/exe/rbdock.cxx#4 $)

>  <Rbt.Library>
libRbt.so (2013.1, Build901 2013/11/27)

>  <Rbt.Parameter_File>
/export/apps/rDock/src/rDock_2013.1_src/data/scripts/dock_solv.prm

>  <Rbt.Receptor>
prm/pocket_docking_3.prm

>  <SCORE>
-36.61

>  <SCORE.INTER>
-33.5327

>  <SCORE.INTER.CONST>
1

>  <SCORE.INTER.POLAR>
0

>  <SCORE.INTER.ROT>
5

>  <SCORE.INTER.SOLV>
13.1177

>  <SCORE.INTER.VDW>
-33.661

>  <SCORE.INTER.norm>
-1.24195

>  <SCORE.INTRA>
-3.0773

>  <SCORE.INTRA.DIHEDRAL>
3.02975

>  <SCORE.INTRA.DIHEDRAL.0>
2.68224

>  <SCORE.INTRA.POLAR>
0

>  <SCORE.INTRA.POLAR.0>
0

>  <SCORE.INTRA.REPUL>
0

>  <SCORE.INTRA.REPUL.0>
0

>  <SCORE.INTRA.SOLV>
0.0214609

>  <SCORE.INTRA.SOLV.lig_0>
-19.4148

>  <SCORE.INTRA.VDW>
-4.6029

>  <SCORE.INTRA.VDW.0>
5.42093

>  <SCORE.INTRA.norm>
-0.113974

>  <SCORE.RESTR>
0

>  <SCORE.RESTR.CAVITY>
0

>  <SCORE.RESTR.norm>
0

>  <SCORE.SYSTEM>
0

>  <SCORE.SYSTEM.CONST>
0

>  <SCORE.SYSTEM.DIHEDRAL>
0

>  <SCORE.SYSTEM.SOLV>
0

>  <SCORE.SYSTEM.norm>
0

>  <SCORE.heavy>
27

>  <SCORE.norm>
-1.35593

>  <RMSD>
1.039

$$$$
lig.pdb
 OpenBabel11021811523D
libRbt.so/2013.1/901 2013/11/27
 27 30  0  0  0  0  0  0  0  0999 V2000
   28.2640   35.8298   18.9616 N   0  0  0  0  0  0  0  0  0  0  0  0
   28.5863   36.8901   19.6603 C   0  0  0  0  0  0  0  0  0  0  0  0
   28.1707   37.1396   20.9276 N   0  0  0  0  0  0  0  0  0  0  0  0
   27.3967   36.2064   21.5579 C   0  0  0  0  0  0  0  0  0  0  0  0
   27.0356   35.0573   20.9149 C   0  0  0  0  0  0  0  0  0  0  0  0
   27.4654   34.8514   19.5523 C   0  0  0  0  0  0  0  0  0  0  0  0
   27.1351   33.8616   18.8874 O   0  0  0  0  0  0  0  0  0  0  0  0
   29.3422   38.0912   19.0508 C   0  0  2  0  0  0  0  0  0  0  0  0
   28.5714   39.2852   19.6371 C   0  0  0  0  0  0  0  0  0  0  0  0
   28.9583   40.5457   19.0010 N   0  0  0  0  0  0  0  0  0  0  0  0
   28.6163   40.4872   17.5706 C   0  0  0  0  0  0  0  0  0  0  0  0
   29.4024   39.3948   16.8730 C   0  0  0  0  0  0  0  0  0  0  0  0
   29.1534   38.0419   17.5251 C   0  0  0  0  0  0  0  0  0  0  0  0
   27.0637   36.5894   22.9234 C   0  0  0  0  0  0  0  0  0  0  0  0
   27.4399   38.1564   23.5385 S   0  0  0  0  0  0  0  0  0  0  0  0
   26.8066   37.7848   25.0457 C   0  0  0  0  0  0  0  0  0  0  0  0
   26.2867   36.5513   25.0797 C   0  0  0  0  0  0  0  0  0  0  0  0
   26.4323   35.8450   23.8698 C   0  0  0  0  0  0  0  0  0  0  0  0
   28.3086   41.7056   19.6364 C   0  0  0  0  0  0  0  0  0  0  0  0
   28.6252   41.9132   21.1006 C   0  0  0  0  0  0  0  0  0  0  0  0
   27.7575   41.4745   22.0903 C   0  0  0  0  0  0  0  0  0  0  0  0
   27.7717   41.9149   23.3614 N   0  0  0  0  0  0  0  0  0  0  0  0
   28.6747   42.8539   23.6009 C   0  0  0  0  0  0  0  0  0  0  0  0
   29.5374   43.3993   22.7584 N   0  0  0  0  0  0  0  0  0  0  0  0
   29.4717   42.9244   21.5058 C   0  0  0  0  0  0  0  0  0  0  0  0
   28.6797   43.2958   24.8638 O   0  0  0  0  0  0  0  0  0  0  0  0
   27.4840   43.1163   25.6316 C   0  0  0  0  0  0  0  0  0  0  0  0
  1  2  2  0  0  0  0
  1  6  1  0  0  0  0
  2  3  1  0  0  0  0
  3  4  2  0  0  0  0
  4 14  1  0  0  0  0
  5  4  1  0  0  0  0
  6  5  1  0  0  0  0
  7  6  2  0  0  0  0
  8  9  1  0  0  0  0
  8  2  1  1  0  0  0
 10 19  1  0  0  0  0
 10  9  1  0  0  0  0
 11 10  1  0  0  0  0
 12 11  1  0  0  0  0
 12 13  1  0  0  0  0
 13  8  1  0  0  0  0
 14 15  1  0  0  0  0
 14 18  2  0  0  0  0
 15 16  1  0  0  0  0
 16 17  2  0  0  0  0
 18 17  1  0  0  0  0
 19 20  1  0  0  0  0
 20 25  2  0  0  0  0
 20 21  1  0  0  0  0
 21 22  2  0  0  0  0
 22 23  1  0  0  0  0
 23 26  1  0  0  0  0
 24 23  2  0  0  0  0
 25 24  1  0  0  0  0
 26 27  1  0  0  0  0
M  END
>  <CHROM.1>
8.15978640,136.38763007,60.69657034,-98.24934955,-22.41715494,28.06635053
39.00236437,21.39722459,-1.81181525,1.22337714,0.73769256

>  <Name>
lig.pdb

>  <RI>
0

>  <Rbt.Current_Directory>
/home/itssahil/PROJECTS/Mol_Feturizer/New_Systems/rnas/5kx9

>  <Rbt.Executable>
rbdock ($Id: //depot/dev/client3/rdock/2013.1/src/exe/rbdock.cxx#4 $)

>  <Rbt.Library>
libRbt.so (2013.1, Build901 2013/11/27)

>  <Rbt.Parameter_File>
/export/apps/rDock/src/rDock_2013.1_src/data/scripts/dock_solv.prm

>  <Rbt.Receptor>
prm/pocket_docking_7.prm

>  <SCORE>
-36.2303

>  <SCORE.INTER>
-34.5876

>  <SCORE.INTER.CONST>
1

>  <SCORE.INTER.POLAR>
0

>  <SCORE.INTER.ROT>
5

>  <SCORE.INTER.SOLV>
12.8888

>  <SCORE.INTER.VDW>
-34.288

>  <SCORE.INTER.norm>
-1.28102

>  <SCORE.INTRA>
-1.64275

>  <SCORE.INTRA.DIHEDRAL>
-0.258842

>  <SCORE.INTRA.DIHEDRAL.0>
2.68224

>  <SCORE.INTRA.POLAR>
0

>  <SCORE.INTRA.POLAR.0>
0

>  <SCORE.INTRA.REPUL>
0

>  <SCORE.INTRA.REPUL.0>
0

>  <SCORE.INTRA.SOLV>
-0.260588

>  <SCORE.INTRA.SOLV.lig_0>
-19.4148

>  <SCORE.INTRA.VDW>
-1.38303

>  <SCORE.INTRA.VDW.0>
5.42093

>  <SCORE.INTRA.norm>
-0.0608424

>  <SCORE.RESTR>
0

>  <SCORE.RESTR.CAVITY>
0

>  <SCORE.RESTR.norm>
0

>  <SCORE.SYSTEM>
0

>  <SCORE.SYSTEM.CONST>
0

>  <SCORE.SYSTEM.DIHEDRAL>
0

>  <SCORE.SYSTEM.SOLV>
0

>  <SCORE.SYSTEM.norm>
0

>  <SCORE.heavy>
27

>  <SCORE.norm>
-1.34186

>  <RMSD>
1.042

$$$$
lig.pdb
 OpenBabel11021811523D
libRbt.so/2013.1/901 2013/11/27
 27 30  0  0  0  0  0  0  0  0999 V2000
   28.4604   36.2201   19.0758 N   0  0  0  0  0  0  0  0  0  0  0  0
   28.6962   37.2946   19.7872 C   0  0  0  0  0  0  0  0  0  0  0  0
   28.2441   37.5037   21.0493 N   0  0  0  0  0  0  0  0  0  0  0  0
   27.5280   36.5132   21.6602 C   0  0  0  0  0  0  0  0  0  0  0  0
   27.2590   35.3468   21.0032 C   0  0  0  0  0  0  0  0  0  0  0  0
   27.7236   35.1830   19.6464 C   0  0  0  0  0  0  0  0  0  0  0  0
   27.4745   34.1779   18.9691 O   0  0  0  0  0  0  0  0  0  0  0  0
   29.3749   38.5509   19.1987 C   0  0  2  0  0  0  0  0  0  0  0  0
   28.4130   39.6682   19.6345 C   0  0  0  0  0  0  0  0  0  0  0  0
   28.7238   40.9387   18.9770 N   0  0  0  0  0  0  0  0  0  0  0  0
   28.5535   40.7820   17.5234 C   0  0  0  0  0  0  0  0  0  0  0  0
   29.5316   39.7628   16.9732 C   0  0  0  0  0  0  0  0  0  0  0  0
   29.3656   38.4176   17.6663 C   0  0  0  0  0  0  0  0  0  0  0  0
   27.1474   36.8604   23.0229 C   0  0  0  0  0  0  0  0  0  0  0  0
   26.2473   35.7724   24.0134 S   0  0  0  0  0  0  0  0  0  0  0  0
   26.2124   36.8626   25.2867 C   0  0  0  0  0  0  0  0  0  0  0  0
   26.8898   37.9827   25.0050 C   0  0  0  0  0  0  0  0  0  0  0  0
   27.4285   38.0032   23.7037 C   0  0  0  0  0  0  0  0  0  0  0  0
   27.8797   42.0384   19.4763 C   0  0  0  0  0  0  0  0  0  0  0  0
   28.1763   42.5047   20.8842 C   0  0  0  0  0  0  0  0  0  0  0  0
   29.4818   42.6528   21.3295 C   0  0  0  0  0  0  0  0  0  0  0  0
   29.8393   42.7108   22.6252 N   0  0  0  0  0  0  0  0  0  0  0  0
   28.8313   42.5741   23.4735 C   0  0  0  0  0  0  0  0  0  0  0  0
   27.5493   42.3863   23.2040 N   0  0  0  0  0  0  0  0  0  0  0  0
   27.2552   42.3312   21.8966 C   0  0  0  0  0  0  0  0  0  0  0  0
   29.1919   42.6234   24.7610 O   0  0  0  0  0  0  0  0  0  0  0  0
   28.5897   41.6780   25.6528 C   0  0  0  0  0  0  0  0  0  0  0  0
  1  2  2  0  0  0  0
  1  6  1  0  0  0  0
  2  3  1  0  0  0  0
  3  4  2  0  0  0  0
  4 14  1  0  0  0  0
  5  4  1  0  0  0  0
  6  5  1  0  0  0  0
  7  6  2  0  0  0  0
  8  9  1  0  0  0  0
  8  2  1  1  0  0  0
 10 19  1  0  0  0  0
 10  9  1  0  0  0  0
 11 10  1  0  0  0  0
 12 11  1  0  0  0  0
 12 13  1  0  0  0  0
 13  8  1  0  0  0  0
 14 15  1  0  0  0  0
 14 18  2  0  0  0  0
 15 16  1  0  0  0  0
 16 17  2  0  0  0  0
 18 17  1  0  0  0  0
 19 20  1  0  0  0  0
 20 25  2  0  0  0  0
 20 21  1  0  0  0  0
 21 22  2  0  0  0  0
 22 23  1  0  0  0  0
 23 26  1  0  0  0  0
 24 23  2  0  0  0  0
 25 24  1  0  0  0  0
 26 27  1  0  0  0  0
M  END
>  <CHROM.1>
-179.52222835,129.61271527,71.09571198,41.92547322,-137.66117884,28.07425050
39.01748341,21.43333218,-2.18766766,1.25203867,0.80874327

>  <Name>
lig.pdb

>  <RI>
0

>  <Rbt.Current_Directory>
/home/itssahil/PROJECTS/Mol_Feturizer/New_Systems/rnas/5kx9

>  <Rbt.Executable>
rbdock ($Id: //depot/dev/client3/rdock/2013.1/src/exe/rbdock.cxx#4 $)

>  <Rbt.Library>
libRbt.so (2013.1, Build901 2013/11/27)

>  <Rbt.Parameter_File>
/export/apps/rDock/src/rDock_2013.1_src/data/scripts/dock_solv.prm

>  <Rbt.Receptor>
prm/pocket_docking_6.prm

>  <SCORE>
-38.8058

>  <SCORE.INTER>
-35.3109

>  <SCORE.INTER.CONST>
1

>  <SCORE.INTER.POLAR>
0

>  <SCORE.INTER.ROT>
5

>  <SCORE.INTER.SOLV>
13.8272

>  <SCORE.INTER.VDW>
-35.083

>  <SCORE.INTER.norm>
-1.30781

>  <SCORE.INTRA>
-3.49487

>  <SCORE.INTRA.DIHEDRAL>
1.4547

>  <SCORE.INTRA.DIHEDRAL.0>
2.68224

>  <SCORE.INTRA.POLAR>
0

>  <SCORE.INTRA.POLAR.0>
0

>  <SCORE.INTRA.REPUL>
0

>  <SCORE.INTRA.REPUL.0>
0

>  <SCORE.INTRA.SOLV>
-0.449911

>  <SCORE.INTRA.SOLV.lig_0>
-19.4148

>  <SCORE.INTRA.VDW>
-3.99727

>  <SCORE.INTRA.VDW.0>
5.42093

>  <SCORE.INTRA.norm>
-0.12944

>  <SCORE.RESTR>
0

>  <SCORE.RESTR.CAVITY>
0

>  <SCORE.RESTR.norm>
0

>  <SCORE.SYSTEM>
0

>  <SCORE.SYSTEM.CONST>
0

>  <SCORE.SYSTEM.DIHEDRAL>
0

>  <SCORE.SYSTEM.SOLV>
0

>  <SCORE.SYSTEM.norm>
0

>  <SCORE.heavy>
27

>  <SCORE.norm>
-1.43725

>  <RMSD>
1.045

$$$$
lig.pdb
 OpenBabel11021811523D
libRbt.so/2013.1/901 2013/11/27
 27 30  0  0  0  0  0  0  0  0999 V2000
   28.3715   36.1158   19.0152 N   0  0  0  0  0  0  0  0  0  0  0  0
   28.6830   37.1766   19.7180 C   0  0  0  0  0  0  0  0  0  0  0  0
   28.2566   37.4219   20.9825 N   0  0  0  0  0  0  0  0  0  0  0  0
   27.4829   36.4836   21.6055 C   0  0  0  0  0  0  0  0  0  0  0  0
   27.1327   35.3336   20.9580 C   0  0  0  0  0  0  0  0  0  0  0  0
   27.5737   35.1322   19.5984 C   0  0  0  0  0  0  0  0  0  0  0  0
   27.2537   34.1417   18.9295 O   0  0  0  0  0  0  0  0  0  0  0  0
   29.4371   38.3827   19.1160 C   0  0  2  0  0  0  0  0  0  0  0  0
   28.5899   39.5675   19.6077 C   0  0  0  0  0  0  0  0  0  0  0  0
   28.9757   40.8189   18.9532 N   0  0  0  0  0  0  0  0  0  0  0  0
   28.7311   40.7001   17.5067 C   0  0  0  0  0  0  0  0  0  0  0  0
   29.5976   39.6134   16.9012 C   0  0  0  0  0  0  0  0  0  0  0  0
   29.3513   38.2752   17.5840 C   0  0  0  0  0  0  0  0  0  0  0  0
   27.1377   36.8626   22.9691 C   0  0  0  0  0  0  0  0  0  0  0  0
   26.2475   35.8058   24.0016 S   0  0  0  0  0  0  0  0  0  0  0  0
   26.2548   36.9214   25.2530 C   0  0  0  0  0  0  0  0  0  0  0  0
   26.9389   38.0273   24.9335 C   0  0  0  0  0  0  0  0  0  0  0  0
   27.4479   38.0151   23.6202 C   0  0  0  0  0  0  0  0  0  0  0  0
   28.2471   41.9756   19.5029 C   0  0  0  0  0  0  0  0  0  0  0  0
   28.3342   42.1524   21.0025 C   0  0  0  0  0  0  0  0  0  0  0  0
   27.1940   42.1391   21.7927 C   0  0  0  0  0  0  0  0  0  0  0  0
   27.1322   42.6305   23.0436 N   0  0  0  0  0  0  0  0  0  0  0  0
   28.2604   43.1798   23.4678 C   0  0  0  0  0  0  0  0  0  0  0  0
   29.4086   43.3039   22.8214 N   0  0  0  0  0  0  0  0  0  0  0  0
   29.4072   42.8012   21.5780 C   0  0  0  0  0  0  0  0  0  0  0  0
   28.1925   43.6753   24.7087 O   0  0  0  0  0  0  0  0  0  0  0  0
   28.0907   42.7404   25.7892 C   0  0  0  0  0  0  0  0  0  0  0  0
  1  2  2  0  0  0  0
  1  6  1  0  0  0  0
  2  3  1  0  0  0  0
  3  4  2  0  0  0  0
  4 14  1  0  0  0  0
  5  4  1  0  0  0  0
  6  5  1  0  0  0  0
  7  6  2  0  0  0  0
  8  9  1  0  0  0  0
  8  2  1  1  0  0  0
 10 19  1  0  0  0  0
 10  9  1  0  0  0  0
 11 10  1  0  0  0  0
 12 11  1  0  0  0  0
 12 13  1  0  0  0  0
 13  8  1  0  0  0  0
 14 15  1  0  0  0  0
 14 18  2  0  0  0  0
 15 16  1  0  0  0  0
 16 17  2  0  0  0  0
 18 17  1  0  0  0  0
 19 20  1  0  0  0  0
 20 25  2  0  0  0  0
 20 21  1  0  0  0  0
 21 22  2  0  0  0  0
 22 23  1  0  0  0  0
 23 26  1  0  0  0  0
 24 23  2  0  0  0  0
 25 24  1  0  0  0  0
 26 27  1  0  0  0  0
M  END
>  <CHROM.1>
-176.27012855,132.11536257,54.10216447,-120.15208224,69.96760916,27.98440898
39.10210886,21.41388415,-1.84497353,1.22497758,0.62582595

>  <Name>
lig.pdb

>  <RI>
0

>  <Rbt.Current_Directory>
/home/itssahil/PROJECTS/Mol_Feturizer/New_Systems/rnas/5kx9

>  <Rbt.Executable>
rbdock ($Id: //depot/dev/client3/rdock/2013.1/src/exe/rbdock.cxx#4 $)

>  <Rbt.Library>
libRbt.so (2013.1, Build901 2013/11/27)

>  <Rbt.Parameter_File>
/export/apps/rDock/src/rDock_2013.1_src/data/scripts/dock_solv.prm

>  <Rbt.Receptor>
prm/pocket_docking_7.prm

>  <SCORE>
-39.7051

>  <SCORE.INTER>
-37.0431

>  <SCORE.INTER.CONST>
1

>  <SCORE.INTER.POLAR>
0

>  <SCORE.INTER.ROT>
5

>  <SCORE.INTER.SOLV>
15.1468

>  <SCORE.INTER.VDW>
-36.6777

>  <SCORE.INTER.norm>
-1.37197

>  <SCORE.INTRA>
-2.66194

>  <SCORE.INTRA.DIHEDRAL>
3.26911

>  <SCORE.INTRA.DIHEDRAL.0>
2.68224

>  <SCORE.INTRA.POLAR>
0

>  <SCORE.INTRA.POLAR.0>
0

>  <SCORE.INTRA.REPUL>
0

>  <SCORE.INTRA.REPUL.0>
0

>  <SCORE.INTRA.SOLV>
-0.623568

>  <SCORE.INTRA.SOLV.lig_0>
-19.4148

>  <SCORE.INTRA.VDW>
-3.98471

>  <SCORE.INTRA.VDW.0>
5.42093

>  <SCORE.INTRA.norm>
-0.0985905

>  <SCORE.RESTR>
0

>  <SCORE.RESTR.CAVITY>
0

>  <SCORE.RESTR.norm>
0

>  <SCORE.SYSTEM>
0

>  <SCORE.SYSTEM.CONST>
0

>  <SCORE.SYSTEM.DIHEDRAL>
0

>  <SCORE.SYSTEM.SOLV>
0

>  <SCORE.SYSTEM.norm>
0

>  <SCORE.heavy>
27

>  <SCORE.norm>
-1.47056

>  <RMSD>
1.051

$$$$
lig.pdb
 OpenBabel11021811523D
libRbt.so/2013.1/901 2013/11/27
 27 30  0  0  0  0  0  0  0  0999 V2000
   28.3786   36.1301   18.9520 N   0  0  0  0  0  0  0  0  0  0  0  0
   28.7227   37.1660   19.6764 C   0  0  0  0  0  0  0  0  0  0  0  0
   28.3007   37.4002   20.9446 N   0  0  0  0  0  0  0  0  0  0  0  0
   27.4945   36.4759   21.5469 C   0  0  0  0  0  0  0  0  0  0  0  0
   27.1086   35.3512   20.8759 C   0  0  0  0  0  0  0  0  0  0  0  0
   27.5470   35.1621   19.5136 C   0  0  0  0  0  0  0  0  0  0  0  0
   27.1965   34.1961   18.8244 O   0  0  0  0  0  0  0  0  0  0  0  0
   29.5180   38.3582   19.1004 C   0  0  2  0  0  0  0  0  0  0  0  0
   28.6764   39.5582   19.5642 C   0  0  0  0  0  0  0  0  0  0  0  0
   29.1064   40.8023   18.9233 N   0  0  0  0  0  0  0  0  0  0  0  0
   28.9078   40.6877   17.4695 C   0  0  0  0  0  0  0  0  0  0  0  0
   29.7742   39.5854   16.8927 C   0  0  0  0  0  0  0  0  0  0  0  0
   29.4812   38.2520   17.5663 C   0  0  0  0  0  0  0  0  0  0  0  0
   27.1577   36.8391   22.9169 C   0  0  0  0  0  0  0  0  0  0  0  0
   26.2936   35.7613   23.9498 S   0  0  0  0  0  0  0  0  0  0  0  0
   26.2974   36.8672   25.2100 C   0  0  0  0  0  0  0  0  0  0  0  0
   26.9621   37.9854   24.8924 C   0  0  0  0  0  0  0  0  0  0  0  0
   27.4578   37.9909   23.5740 C   0  0  0  0  0  0  0  0  0  0  0  0
   28.3809   41.9721   19.4491 C   0  0  0  0  0  0  0  0  0  0  0  0
   28.3911   42.1276   20.9535 C   0  0  0  0  0  0  0  0  0  0  0  0
   27.2082   42.1740   21.6768 C   0  0  0  0  0  0  0  0  0  0  0  0
   27.1030   42.6550   22.9288 N   0  0  0  0  0  0  0  0  0  0  0  0
   28.2351   43.1315   23.4246 C   0  0  0  0  0  0  0  0  0  0  0  0
   29.4241   43.1937   22.8469 N   0  0  0  0  0  0  0  0  0  0  0  0
   29.4652   42.7050   21.5985 C   0  0  0  0  0  0  0  0  0  0  0  0
   28.1245   43.6171   24.6664 O   0  0  0  0  0  0  0  0  0  0  0  0
   29.1018   43.2021   25.6279 C   0  0  0  0  0  0  0  0  0  0  0  0
  1  2  2  0  0  0  0
  1  6  1  0  0  0  0
  2  3  1  0  0  0  0
  3  4  2  0  0  0  0
  4 14  1  0  0  0  0
  5  4  1  0  0  0  0
  6  5  1  0  0  0  0
  7  6  2  0  0  0  0
  8  9  1  0  0  0  0
  8  2  1  1  0  0  0
 10 19  1  0  0  0  0
 10  9  1  0  0  0  0
 11 10  1  0  0  0  0
 12 11  1  0  0  0  0
 12 13  1  0  0  0  0
 13  8  1  0  0  0  0
 14 15  1  0  0  0  0
 14 18  2  0  0  0  0
 15 16  1  0  0  0  0
 16 17  2  0  0  0  0
 18 17  1  0  0  0  0
 19 20  1  0  0  0  0
 20 25  2  0  0  0  0
 20 21  1  0  0  0  0
 21 22  2  0  0  0  0
 22 23  1  0  0  0  0
 23 26  1  0  0  0  0
 24 23  2  0  0  0  0
 25 24  1  0  0  0  0
 26 27  1  0  0  0  0
M  END
>  <CHROM.1>
-173.36487843,129.87050563,52.57470330,-121.97351904,132.00190198,28.06382158
39.10051829,21.36163473,-1.91517956,1.21543394,0.67998197

>  <Name>
lig.pdb

>  <RI>
0

>  <Rbt.Current_Directory>
/home/itssahil/PROJECTS/Mol_Feturizer/New_Systems/rnas/5kx9

>  <Rbt.Executable>
rbdock ($Id: //depot/dev/client3/rdock/2013.1/src/exe/rbdock.cxx#4 $)

>  <Rbt.Library>
libRbt.so (2013.1, Build901 2013/11/27)

>  <Rbt.Parameter_File>
/export/apps/rDock/src/rDock_2013.1_src/data/scripts/dock_solv.prm

>  <Rbt.Receptor>
prm/pocket_docking_4.prm

>  <SCORE>
-40.4468

>  <SCORE.INTER>
-37.4336

>  <SCORE.INTER.CONST>
1

>  <SCORE.INTER.POLAR>
0

>  <SCORE.INTER.ROT>
5

>  <SCORE.INTER.SOLV>
15.0866

>  <SCORE.INTER.VDW>
-36.9179

>  <SCORE.INTER.norm>
-1.38643

>  <SCORE.INTRA>
-3.01318

>  <SCORE.INTRA.DIHEDRAL>
1.85775

>  <SCORE.INTRA.DIHEDRAL.0>
2.68224

>  <SCORE.INTRA.POLAR>
0

>  <SCORE.INTRA.POLAR.0>
0

>  <SCORE.INTRA.REPUL>
0

>  <SCORE.INTRA.REPUL.0>
0

>  <SCORE.INTRA.SOLV>
-0.622747

>  <SCORE.INTRA.SOLV.lig_0>
-19.4148

>  <SCORE.INTRA.VDW>
-3.63068

>  <SCORE.INTRA.VDW.0>
5.42093

>  <SCORE.INTRA.norm>
-0.111599

>  <SCORE.RESTR>
0

>  <SCORE.RESTR.CAVITY>
0

>  <SCORE.RESTR.norm>
0

>  <SCORE.SYSTEM>
0

>  <SCORE.SYSTEM.CONST>
0

>  <SCORE.SYSTEM.DIHEDRAL>
0

>  <SCORE.SYSTEM.SOLV>
0

>  <SCORE.SYSTEM.norm>
0

>  <SCORE.heavy>
27

>  <SCORE.norm>
-1.49803

>  <RMSD>
1.058

$$$$
lig.pdb
 OpenBabel11021811523D
libRbt.so/2013.1/901 2013/11/27
 27 30  0  0  0  0  0  0  0  0999 V2000
   28.4660   36.2057   19.0708 N   0  0  0  0  0  0  0  0  0  0  0  0
   28.7282   37.2735   19.7832 C   0  0  0  0  0  0  0  0  0  0  0  0
   28.2787   37.4941   21.0442 N   0  0  0  0  0  0  0  0  0  0  0  0
   27.5353   36.5226   21.6531 C   0  0  0  0  0  0  0  0  0  0  0  0
   27.2373   35.3639   20.9950 C   0  0  0  0  0  0  0  0  0  0  0  0
   27.7008   35.1882   19.6393 C   0  0  0  0  0  0  0  0  0  0  0  0
   27.4269   34.1902   18.9611 O   0  0  0  0  0  0  0  0  0  0  0  0
   29.4412   38.5117   19.1967 C   0  0  2  0  0  0  0  0  0  0  0  0
   28.4577   39.6413   19.5432 C   0  0  0  0  0  0  0  0  0  0  0  0
   28.8073   40.8915   18.8664 N   0  0  0  0  0  0  0  0  0  0  0  0
   28.7198   40.6910   17.4110 C   0  0  0  0  0  0  0  0  0  0  0  0
   29.7261   39.6559   16.9483 C   0  0  0  0  0  0  0  0  0  0  0  0
   29.5190   38.3322   17.6710 C   0  0  0  0  0  0  0  0  0  0  0  0
   27.1606   36.8794   23.0149 C   0  0  0  0  0  0  0  0  0  0  0  0
   26.2464   35.8070   24.0096 S   0  0  0  0  0  0  0  0  0  0  0  0
   26.2276   36.9017   25.2794 C   0  0  0  0  0  0  0  0  0  0  0  0
   26.9201   38.0115   24.9936 C   0  0  0  0  0  0  0  0  0  0  0  0
   27.4579   38.0204   23.6918 C   0  0  0  0  0  0  0  0  0  0  0  0
   27.9377   42.0055   19.2836 C   0  0  0  0  0  0  0  0  0  0  0  0
   28.1176   42.4789   20.7087 C   0  0  0  0  0  0  0  0  0  0  0  0
   29.3819   42.6931   21.2381 C   0  0  0  0  0  0  0  0  0  0  0  0
   29.6513   42.7626   22.5544 N   0  0  0  0  0  0  0  0  0  0  0  0
   28.5992   42.5682   23.3353 C   0  0  0  0  0  0  0  0  0  0  0  0
   27.3490   42.3147   22.9827 N   0  0  0  0  0  0  0  0  0  0  0  0
   27.1435   42.2515   21.6588 C   0  0  0  0  0  0  0  0  0  0  0  0
   28.8727   42.6292   24.6435 O   0  0  0  0  0  0  0  0  0  0  0  0
   28.4319   41.5398   25.4625 C   0  0  0  0  0  0  0  0  0  0  0  0
  1  2  2  0  0  0  0
  1  6  1  0  0  0  0
  2  3  1  0  0  0  0
  3  4  2  0  0  0  0
  4 14  1  0  0  0  0
  5  4  1  0  0  0  0
  6  5  1  0  0  0  0
  7  6  2  0  0  0  0
  8  9  1  0  0  0  0
  8  2  1  1  0  0  0
 10 19  1  0  0  0  0
 10  9  1  0  0  0  0
 11 10  1  0  0  0  0
 12 11  1  0  0  0  0
 12 13  1  0  0  0  0
 13  8  1  0  0  0  0
 14 15  1  0  0  0  0
 14 18  2  0  0  0  0
 15 16  1  0  0  0  0
 16 17  2  0  0  0  0
 18 17  1  0  0  0  0
 19 20  1  0  0  0  0
 20 25  2  0  0  0  0
 20 21  1  0  0  0  0
 21 22  2  0  0  0  0
 22 23  1  0  0  0  0
 23 26  1  0  0  0  0
 24 23  2  0  0  0  0
 25 24  1  0  0  0  0
 26 27  1  0  0  0  0
M  END
>  <CHROM.1>
-178.75154094,125.74329573,68.83317569,45.94561612,-128.57337014,28.05421009
39.00008723,21.36676821,-2.14678591,1.24664631,0.70433656

>  <Name>
lig.pdb

>  <RI>
0

>  <Rbt.Current_Directory>
/home/itssahil/PROJECTS/Mol_Feturizer/New_Systems/rnas/5kx9

>  <Rbt.Executable>
rbdock ($Id: //depot/dev/client3/rdock/2013.1/src/exe/rbdock.cxx#4 $)

>  <Rbt.Library>
libRbt.so (2013.1, Build901 2013/11/27)

>  <Rbt.Parameter_File>
/export/apps/rDock/src/rDock_2013.1_src/data/scripts/dock_solv.prm

>  <Rbt.Receptor>
prm/pocket_docking_7.prm

>  <SCORE>
-38.9533

>  <SCORE.INTER>
-35.0533

>  <SCORE.INTER.CONST>
1

>  <SCORE.INTER.POLAR>
0

>  <SCORE.INTER.ROT>
5

>  <SCORE.INTER.SOLV>
13.6279

>  <SCORE.INTER.VDW>
-34.8448

>  <SCORE.INTER.norm>
-1.29827

>  <SCORE.INTRA>
-3.90009

>  <SCORE.INTRA.DIHEDRAL>
2.1877

>  <SCORE.INTRA.DIHEDRAL.0>
2.68224

>  <SCORE.INTRA.POLAR>
0

>  <SCORE.INTRA.POLAR.0>
0

>  <SCORE.INTRA.REPUL>
0

>  <SCORE.INTRA.REPUL.0>
0

>  <SCORE.INTRA.SOLV>
-0.43855

>  <SCORE.INTRA.SOLV.lig_0>
-19.4148

>  <SCORE.INTRA.VDW>
-4.77466

>  <SCORE.INTRA.VDW.0>
5.42093

>  <SCORE.INTRA.norm>
-0.144448

>  <SCORE.RESTR>
0

>  <SCORE.RESTR.CAVITY>
0

>  <SCORE.RESTR.norm>
0

>  <SCORE.SYSTEM>
0

>  <SCORE.SYSTEM.CONST>
0

>  <SCORE.SYSTEM.DIHEDRAL>
0

>  <SCORE.SYSTEM.SOLV>
0

>  <SCORE.SYSTEM.norm>
0

>  <SCORE.heavy>
27

>  <SCORE.norm>
-1.44272

>  <RMSD>
1.072

$$$$
lig.pdb
 OpenBabel11021811523D
libRbt.so/2013.1/901 2013/11/27
 27 30  0  0  0  0  0  0  0  0999 V2000
   28.5305   36.1396   19.0890 N   0  0  0  0  0  0  0  0  0  0  0  0
   28.7421   37.2147   19.8071 C   0  0  0  0  0  0  0  0  0  0  0  0
   28.2529   37.4221   21.0556 N   0  0  0  0  0  0  0  0  0  0  0  0
   27.5226   36.4292   21.6453 C   0  0  0  0  0  0  0  0  0  0  0  0
   27.2766   35.2621   20.9806 C   0  0  0  0  0  0  0  0  0  0  0  0
   27.7809   35.1000   19.6378 C   0  0  0  0  0  0  0  0  0  0  0  0
   27.5547   34.0943   18.9536 O   0  0  0  0  0  0  0  0  0  0  0  0
   29.4336   38.4734   19.2386 C   0  0  2  0  0  0  0  0  0  0  0  0
   28.4177   39.5767   19.5763 C   0  0  0  0  0  0  0  0  0  0  0  0
   28.7470   40.8391   18.9120 N   0  0  0  0  0  0  0  0  0  0  0  0
   28.6866   40.6452   17.4543 C   0  0  0  0  0  0  0  0  0  0  0  0
   29.7248   39.6377   17.0013 C   0  0  0  0  0  0  0  0  0  0  0  0
   29.5390   38.3050   17.7133 C   0  0  0  0  0  0  0  0  0  0  0  0
   27.1015   36.7749   22.9964 C   0  0  0  0  0  0  0  0  0  0  0  0
   26.1408   35.7012   23.9447 S   0  0  0  0  0  0  0  0  0  0  0  0
   26.0860   36.7821   25.2252 C   0  0  0  0  0  0  0  0  0  0  0  0
   26.7995   37.8878   24.9776 C   0  0  0  0  0  0  0  0  0  0  0  0
   27.3850   37.9054   23.6966 C   0  0  0  0  0  0  0  0  0  0  0  0
   27.8443   41.9291   19.3220 C   0  0  0  0  0  0  0  0  0  0  0  0
   28.0425   42.4502   20.7279 C   0  0  0  0  0  0  0  0  0  0  0  0
   29.3141   42.6604   21.2413 C   0  0  0  0  0  0  0  0  0  0  0  0
   29.5938   42.7723   22.5525 N   0  0  0  0  0  0  0  0  0  0  0  0
   28.5439   42.6252   23.3465 C   0  0  0  0  0  0  0  0  0  0  0  0
   27.2870   42.3818   23.0112 N   0  0  0  0  0  0  0  0  0  0  0  0
   27.0711   42.2747   21.6918 C   0  0  0  0  0  0  0  0  0  0  0  0
   28.8276   42.7282   24.6499 O   0  0  0  0  0  0  0  0  0  0  0  0
   27.7315   42.6793   25.5708 C   0  0  0  0  0  0  0  0  0  0  0  0
  1  2  2  0  0  0  0
  1  6  1  0  0  0  0
  2  3  1  0  0  0  0
  3  4  2  0  0  0  0
  4 14  1  0  0  0  0
  5  4  1  0  0  0  0
  6  5  1  0  0  0  0
  7  6  2  0  0  0  0
  8  9  1  0  0  0  0
  8  2  1  1  0  0  0
 10 19  1  0  0  0  0
 10  9  1  0  0  0  0
 11 10  1  0  0  0  0
 12 11  1  0  0  0  0
 12 13  1  0  0  0  0
 13  8  1  0  0  0  0
 14 15  1  0  0  0  0
 14 18  2  0  0  0  0
 15 16  1  0  0  0  0
 16 17  2  0  0  0  0
 18 17  1  0  0  0  0
 19 20  1  0  0  0  0
 20 25  2  0  0  0  0
 20 21  1  0  0  0  0
 21 22  2  0  0  0  0
 22 23  1  0  0  0  0
 23 26  1  0  0  0  0
 24 23  2  0  0  0  0
 25 24  1  0  0  0  0
 26 27  1  0  0  0  0
M  END
>  <CHROM.1>
178.81162630,126.54106966,72.08066319,42.38299435,175.51982303,27.99246263
38.99598170,21.37768216,-1.95038869,1.22824477,0.59330016

>  <Name>
lig.pdb

>  <RI>
0

>  <Rbt.Current_Directory>
/home/itssahil/PROJECTS/Mol_Feturizer/New_Systems/rnas/5kx9

>  <Rbt.Executable>
rbdock ($Id: //depot/dev/client3/rdock/2013.1/src/exe/rbdock.cxx#4 $)

>  <Rbt.Library>
libRbt.so (2013.1, Build901 2013/11/27)

>  <Rbt.Parameter_File>
/export/apps/rDock/src/rDock_2013.1_src/data/scripts/dock_solv.prm

>  <Rbt.Receptor>
prm/pocket_docking_5.prm

>  <SCORE>
-38.6401

>  <SCORE.INTER>
-35.4927

>  <SCORE.INTER.CONST>
1

>  <SCORE.INTER.POLAR>
0

>  <SCORE.INTER.ROT>
5

>  <SCORE.INTER.SOLV>
14.2789

>  <SCORE.INTER.VDW>
-35.3548

>  <SCORE.INTER.norm>
-1.31454

>  <SCORE.INTRA>
-3.14809

>  <SCORE.INTRA.DIHEDRAL>
-0.625971

>  <SCORE.INTRA.DIHEDRAL.0>
2.68224

>  <SCORE.INTRA.POLAR>
0

>  <SCORE.INTRA.POLAR.0>
0

>  <SCORE.INTRA.REPUL>
0

>  <SCORE.INTRA.REPUL.0>
0

>  <SCORE.INTRA.SOLV>
-0.467119

>  <SCORE.INTRA.SOLV.lig_0>
-19.4148

>  <SCORE.INTRA.VDW>
-2.60154

>  <SCORE.INTRA.VDW.0>
5.42093

>  <SCORE.INTRA.norm>
-0.116596

>  <SCORE.RESTR>
0.000737778

>  <SCORE.RESTR.CAVITY>
0.000737778

>  <SCORE.RESTR.norm>
2.73251e-05

>  <SCORE.SYSTEM>
0

>  <SCORE.SYSTEM.CONST>
0

>  <SCORE.SYSTEM.DIHEDRAL>
0

>  <SCORE.SYSTEM.SOLV>
0

>  <SCORE.SYSTEM.norm>
0

>  <SCORE.heavy>
27

>  <SCORE.norm>
-1.43111

>  <RMSD>
1.075

$$$$
lig.pdb
 OpenBabel11021811523D
libRbt.so/2013.1/901 2013/11/27
 27 30  0  0  0  0  0  0  0  0999 V2000
   27.6389   34.9229   20.2644 N   0  0  0  0  0  0  0  0  0  0  0  0
   27.6564   36.2279   20.3782 C   0  0  0  0  0  0  0  0  0  0  0  0
   27.3717   36.9111   21.5153 N   0  0  0  0  0  0  0  0  0  0  0  0
   27.0897   36.2041   22.6501 C   0  0  0  0  0  0  0  0  0  0  0  0
   27.0768   34.8388   22.6304 C   0  0  0  0  0  0  0  0  0  0  0  0
   27.3447   34.1528   21.3889 C   0  0  0  0  0  0  0  0  0  0  0  0
   27.2995   32.9211   21.2801 O   0  0  0  0  0  0  0  0  0  0  0  0
   27.8281   37.1676   19.1645 C   0  0  2  0  0  0  0  0  0  0  0  0
   28.6092   38.3417   19.7769 C   0  0  0  0  0  0  0  0  0  0  0  0
   28.6788   39.4827   18.8623 N   0  0  0  0  0  0  0  0  0  0  0  0
   27.3162   39.9750   18.6034 C   0  0  0  0  0  0  0  0  0  0  0  0
   26.4839   38.9164   17.9072 C   0  0  0  0  0  0  0  0  0  0  0  0
   26.4291   37.6368   18.7301 C   0  0  0  0  0  0  0  0  0  0  0  0
   26.8474   37.0672   23.7983 C   0  0  0  0  0  0  0  0  0  0  0  0
   27.1790   38.7589   23.7415 S   0  0  0  0  0  0  0  0  0  0  0  0
   26.6943   38.9703   25.3325 C   0  0  0  0  0  0  0  0  0  0  0  0
   26.2530   37.8293   25.8770 C   0  0  0  0  0  0  0  0  0  0  0  0
   26.3408   36.7213   25.0117 C   0  0  0  0  0  0  0  0  0  0  0  0
   29.5225   40.5662   19.3964 C   0  0  0  0  0  0  0  0  0  0  0  0
   29.1087   41.1153   20.7435 C   0  0  0  0  0  0  0  0  0  0  0  0
   28.0614   42.0180   20.8580 C   0  0  0  0  0  0  0  0  0  0  0  0
   27.8578   42.8123   21.9245 N   0  0  0  0  0  0  0  0  0  0  0  0
   28.7769   42.6969   22.8712 C   0  0  0  0  0  0  0  0  0  0  0  0
   29.8463   41.9175   22.8885 N   0  0  0  0  0  0  0  0  0  0  0  0
   29.9991   41.1539   21.7966 C   0  0  0  0  0  0  0  0  0  0  0  0
   28.5759   43.4949   23.9262 O   0  0  0  0  0  0  0  0  0  0  0  0
   29.1140   43.0742   25.1852 C   0  0  0  0  0  0  0  0  0  0  0  0
  1  2  2  0  0  0  0
  1  6  1  0  0  0  0
  2  3  1  0  0  0  0
  3  4  2  0  0  0  0
  4 14  1  0  0  0  0
  5  4  1  0  0  0  0
  6  5  1  0  0  0  0
  7  6  2  0  0  0  0
  8  9  1  0  0  0  0
  8  2  1  1  0  0  0
 10 19  1  0  0  0  0
 10  9  1  0  0  0  0
 11 10  1  0  0  0  0
 12 11  1  0  0  0  0
 12 13  1  0  0  0  0
 13  8  1  0  0  0  0
 14 15  1  0  0  0  0
 14 18  2  0  0  0  0
 15 16  1  0  0  0  0
 16 17  2  0  0  0  0
 18 17  1  0  0  0  0
 19 20  1  0  0  0  0
 20 25  2  0  0  0  0
 20 21  1  0  0  0  0
 21 22  2  0  0  0  0
 22 23  1  0  0  0  0
 23 26  1  0  0  0  0
 24 23  2  0  0  0  0
 25 24  1  0  0  0  0
 26 27  1  0  0  0  0
M  END
>  <CHROM.1>
-10.39057228,-146.88208349,-57.56210683,-78.97736935,153.73390882,27.79432839
38.76600469,21.80749994,-2.51291926,1.29958783,1.14109896

>  <Name>
lig.pdb

>  <RI>
0

>  <Rbt.Current_Directory>
/home/itssahil/PROJECTS/Mol_Feturizer/New_Systems/rnas/5kx9

>  <Rbt.Executable>
rbdock ($Id: //depot/dev/client3/rdock/2013.1/src/exe/rbdock.cxx#4 $)

>  <Rbt.Library>
libRbt.so (2013.1, Build901 2013/11/27)

>  <Rbt.Parameter_File>
/export/apps/rDock/src/rDock_2013.1_src/data/scripts/dock_solv.prm

>  <Rbt.Receptor>
prm/blind_docking_100.prm

>  <SCORE>
-39.5459

>  <SCORE.INTER>
-35.9302

>  <SCORE.INTER.CONST>
1

>  <SCORE.INTER.POLAR>
0

>  <SCORE.INTER.ROT>
5

>  <SCORE.INTER.SOLV>
16.1372

>  <SCORE.INTER.VDW>
-36.2659

>  <SCORE.INTER.norm>
-1.33075

>  <SCORE.INTRA>
-3.61575

>  <SCORE.INTRA.DIHEDRAL>
0.174693

>  <SCORE.INTRA.DIHEDRAL.0>
2.68224

>  <SCORE.INTRA.POLAR>
0

>  <SCORE.INTRA.POLAR.0>
0

>  <SCORE.INTRA.REPUL>
0

>  <SCORE.INTRA.REPUL.0>
0

>  <SCORE.INTRA.SOLV>
-0.289941

>  <SCORE.INTRA.SOLV.lig_0>
-19.4148

>  <SCORE.INTRA.VDW>
-3.55813

>  <SCORE.INTRA.VDW.0>
5.42093

>  <SCORE.INTRA.norm>
-0.133917

>  <SCORE.RESTR>
0

>  <SCORE.RESTR.CAVITY>
0

>  <SCORE.RESTR.norm>
0

>  <SCORE.SYSTEM>
0

>  <SCORE.SYSTEM.CONST>
0

>  <SCORE.SYSTEM.DIHEDRAL>
0

>  <SCORE.SYSTEM.SOLV>
0

>  <SCORE.SYSTEM.norm>
0

>  <SCORE.heavy>
27

>  <SCORE.norm>
-1.46466

>  <RMSD>
1.076

$$$$
lig.pdb
 OpenBabel11021811523D
libRbt.so/2013.1/901 2013/11/27
 27 30  0  0  0  0  0  0  0  0999 V2000
   28.3551   36.2950   19.3152 N   0  0  0  0  0  0  0  0  0  0  0  0
   28.6311   37.3905   19.9786 C   0  0  0  0  0  0  0  0  0  0  0  0
   28.2057   37.6624   21.2380 N   0  0  0  0  0  0  0  0  0  0  0  0
   27.4738   36.7171   21.8997 C   0  0  0  0  0  0  0  0  0  0  0  0
   27.1631   35.5331   21.2949 C   0  0  0  0  0  0  0  0  0  0  0  0
   27.6007   35.3021   19.9388 C   0  0  0  0  0  0  0  0  0  0  0  0
   27.3138   34.2778   19.3069 O   0  0  0  0  0  0  0  0  0  0  0  0
   29.3331   38.6032   19.3290 C   0  0  2  0  0  0  0  0  0  0  0  0
   28.3508   39.7448   19.6377 C   0  0  0  0  0  0  0  0  0  0  0  0
   28.6883   40.9647   18.9021 N   0  0  0  0  0  0  0  0  0  0  0  0
   28.5830   40.6998   17.4581 C   0  0  0  0  0  0  0  0  0  0  0  0
   29.5865   39.6477   17.0288 C   0  0  0  0  0  0  0  0  0  0  0  0
   29.3922   38.3567   17.8119 C   0  0  0  0  0  0  0  0  0  0  0  0
   27.1252   37.1291   23.2528 C   0  0  0  0  0  0  0  0  0  0  0  0
   26.2376   36.0953   24.3104 S   0  0  0  0  0  0  0  0  0  0  0  0
   26.2388   37.2423   25.5333 C   0  0  0  0  0  0  0  0  0  0  0  0
   26.9192   38.3423   25.1869 C   0  0  0  0  0  0  0  0  0  0  0  0
   27.4301   38.2989   23.8750 C   0  0  0  0  0  0  0  0  0  0  0  0
   27.8208   42.0940   19.2806 C   0  0  0  0  0  0  0  0  0  0  0  0
   27.6092   42.2887   20.7655 C   0  0  0  0  0  0  0  0  0  0  0  0
   28.6828   42.3234   21.6434 C   0  0  0  0  0  0  0  0  0  0  0  0
   28.5827   42.1359   22.9719 N   0  0  0  0  0  0  0  0  0  0  0  0
   27.3551   41.8694   23.3919 C   0  0  0  0  0  0  0  0  0  0  0  0
   26.2464   41.7630   22.6772 N   0  0  0  0  0  0  0  0  0  0  0  0
   26.4100   41.9542   21.3599 C   0  0  0  0  0  0  0  0  0  0  0  0
   27.2611   41.6746   24.7123 O   0  0  0  0  0  0  0  0  0  0  0  0
   27.6747   42.7451   25.5694 C   0  0  0  0  0  0  0  0  0  0  0  0
  1  2  2  0  0  0  0
  1  6  1  0  0  0  0
  2  3  1  0  0  0  0
  3  4  2  0  0  0  0
  4 14  1  0  0  0  0
  5  4  1  0  0  0  0
  6  5  1  0  0  0  0
  7  6  2  0  0  0  0
  8  9  1  0  0  0  0
  8  2  1  1  0  0  0
 10 19  1  0  0  0  0
 10  9  1  0  0  0  0
 11 10  1  0  0  0  0
 12 11  1  0  0  0  0
 12 13  1  0  0  0  0
 13  8  1  0  0  0  0
 14 15  1  0  0  0  0
 14 18  2  0  0  0  0
 15 16  1  0  0  0  0
 16 17  2  0  0  0  0
 18 17  1  0  0  0  0
 19 20  1  0  0  0  0
 20 25  2  0  0  0  0
 20 21  1  0  0  0  0
 21 22  2  0  0  0  0
 22 23  1  0  0  0  0
 23 26  1  0  0  0  0
 24 23  2  0  0  0  0
 25 24  1  0  0  0  0
 26 27  1  0  0  0  0
M  END
>  <CHROM.1>
-178.40254966,125.28228509,46.03649802,49.87314150,59.08980384,27.71880892
39.02446148,21.52267763,0.94405486,-1.26293789,-2.82604966

>  <Name>
lig.pdb

>  <RI>
0

>  <Rbt.Current_Directory>
/home/itssahil/PROJECTS/Mol_Feturizer/New_Systems/rnas/5kx9

>  <Rbt.Executable>
rbdock ($Id: //depot/dev/client3/rdock/2013.1/src/exe/rbdock.cxx#4 $)

>  <Rbt.Library>
libRbt.so (2013.1, Build901 2013/11/27)

>  <Rbt.Parameter_File>
/export/apps/rDock/src/rDock_2013.1_src/data/scripts/dock_solv.prm

>  <Rbt.Receptor>
prm/blind_docking_100.prm

>  <SCORE>
-36.8025

>  <SCORE.INTER>
-33.5171

>  <SCORE.INTER.CONST>
1

>  <SCORE.INTER.POLAR>
0

>  <SCORE.INTER.ROT>
5

>  <SCORE.INTER.SOLV>
12.4689

>  <SCORE.INTER.VDW>
-33.4344

>  <SCORE.INTER.norm>
-1.24137

>  <SCORE.INTRA>
-3.28541

>  <SCORE.INTRA.DIHEDRAL>
2.99504

>  <SCORE.INTRA.DIHEDRAL.0>
2.68224

>  <SCORE.INTRA.POLAR>
0

>  <SCORE.INTRA.POLAR.0>
0

>  <SCORE.INTRA.REPUL>
0

>  <SCORE.INTRA.REPUL.0>
0

>  <SCORE.INTRA.SOLV>
0.0246678

>  <SCORE.INTRA.SOLV.lig_0>
-19.4148

>  <SCORE.INTRA.VDW>
-4.79526

>  <SCORE.INTRA.VDW.0>
5.42093

>  <SCORE.INTRA.norm>
-0.121682

>  <SCORE.RESTR>
0

>  <SCORE.RESTR.CAVITY>
0

>  <SCORE.RESTR.norm>
0

>  <SCORE.SYSTEM>
0

>  <SCORE.SYSTEM.CONST>
0

>  <SCORE.SYSTEM.DIHEDRAL>
0

>  <SCORE.SYSTEM.SOLV>
0

>  <SCORE.SYSTEM.norm>
0

>  <SCORE.heavy>
27

>  <SCORE.norm>
-1.36306

>  <RMSD>
1.085

$$$$
lig.pdb
 OpenBabel11021811523D
libRbt.so/2013.1/901 2013/11/27
 27 30  0  0  0  0  0  0  0  0999 V2000
   28.4945   36.0403   18.8737 N   0  0  0  0  0  0  0  0  0  0  0  0
   28.7363   37.1100   19.5903 C   0  0  0  0  0  0  0  0  0  0  0  0
   28.2747   37.3211   20.8487 N   0  0  0  0  0  0  0  0  0  0  0  0
   27.5411   36.3376   21.4500 C   0  0  0  0  0  0  0  0  0  0  0  0
   27.2644   35.1763   20.7872 C   0  0  0  0  0  0  0  0  0  0  0  0
   27.7399   35.0105   19.4344 C   0  0  0  0  0  0  0  0  0  0  0  0
   27.4853   34.0103   18.7520 O   0  0  0  0  0  0  0  0  0  0  0  0
   29.4356   38.3597   19.0117 C   0  0  2  0  0  0  0  0  0  0  0  0
   28.5499   39.4976   19.5449 C   0  0  0  0  0  0  0  0  0  0  0  0
   28.8789   40.7796   18.9193 N   0  0  0  0  0  0  0  0  0  0  0  0
   28.6204   40.6892   17.4732 C   0  0  0  0  0  0  0  0  0  0  0  0
   29.5201   39.6532   16.8287 C   0  0  0  0  0  0  0  0  0  0  0  0
   29.3342   38.2891   17.4785 C   0  0  0  0  0  0  0  0  0  0  0  0
   27.1517   36.6857   22.8099 C   0  0  0  0  0  0  0  0  0  0  0  0
   26.2693   35.5875   23.8051 S   0  0  0  0  0  0  0  0  0  0  0  0
   26.2125   36.6841   25.0720 C   0  0  0  0  0  0  0  0  0  0  0  0
   26.8703   37.8146   24.7851 C   0  0  0  0  0  0  0  0  0  0  0  0
   27.4110   37.8372   23.4847 C   0  0  0  0  0  0  0  0  0  0  0  0
   28.1135   41.8925   19.5083 C   0  0  0  0  0  0  0  0  0  0  0  0
   28.2854   42.0898   20.9979 C   0  0  0  0  0  0  0  0  0  0  0  0
   27.1889   42.2765   21.8270 C   0  0  0  0  0  0  0  0  0  0  0  0
   27.2537   42.8019   23.0637 N   0  0  0  0  0  0  0  0  0  0  0  0
   28.4698   43.1758   23.4321 C   0  0  0  0  0  0  0  0  0  0  0  0
   29.5972   43.1008   22.7431 N   0  0  0  0  0  0  0  0  0  0  0  0
   29.4686   42.5743   21.5163 C   0  0  0  0  0  0  0  0  0  0  0  0
   28.5288   43.7060   24.6591 O   0  0  0  0  0  0  0  0  0  0  0  0
   28.2383   42.8446   25.7660 C   0  0  0  0  0  0  0  0  0  0  0  0
  1  2  2  0  0  0  0
  1  6  1  0  0  0  0
  2  3  1  0  0  0  0
  3  4  2  0  0  0  0
  4 14  1  0  0  0  0
  5  4  1  0  0  0  0
  6  5  1  0  0  0  0
  7  6  2  0  0  0  0
  8  9  1  0  0  0  0
  8  2  1  1  0  0  0
 10 19  1  0  0  0  0
 10  9  1  0  0  0  0
 11 10  1  0  0  0  0
 12 11  1  0  0  0  0
 12 13  1  0  0  0  0
 13  8  1  0  0  0  0
 14 15  1  0  0  0  0
 14 18  2  0  0  0  0
 15 16  1  0  0  0  0
 16 17  2  0  0  0  0
 18 17  1  0  0  0  0
 19 20  1  0  0  0  0
 20 25  2  0  0  0  0
 20 21  1  0  0  0  0
 21 22  2  0  0  0  0
 22 23  1  0  0  0  0
 23 26  1  0  0  0  0
 24 23  2  0  0  0  0
 25 24  1  0  0  0  0
 26 27  1  0  0  0  0
M  END
>  <CHROM.1>
-177.69188392,134.32077341,57.99880366,-133.09884379,66.04079292,28.03062661
39.02168874,21.31703757,-1.88181998,1.23345257,0.64961758

>  <Name>
lig.pdb

>  <RI>
0

>  <Rbt.Current_Directory>
/home/itssahil/PROJECTS/Mol_Feturizer/New_Systems/rnas/5kx9

>  <Rbt.Executable>
rbdock ($Id: //depot/dev/client3/rdock/2013.1/src/exe/rbdock.cxx#4 $)

>  <Rbt.Library>
libRbt.so (2013.1, Build901 2013/11/27)

>  <Rbt.Parameter_File>
/export/apps/rDock/src/rDock_2013.1_src/data/scripts/dock_solv.prm

>  <Rbt.Receptor>
prm/pocket_docking_5.prm

>  <SCORE>
-39.7296

>  <SCORE.INTER>
-37.3892

>  <SCORE.INTER.CONST>
1

>  <SCORE.INTER.POLAR>
0

>  <SCORE.INTER.ROT>
5

>  <SCORE.INTER.SOLV>
15.3738

>  <SCORE.INTER.VDW>
-36.9841

>  <SCORE.INTER.norm>
-1.38479

>  <SCORE.INTRA>
-2.34032

>  <SCORE.INTRA.DIHEDRAL>
3.26463

>  <SCORE.INTRA.DIHEDRAL.0>
2.68224

>  <SCORE.INTRA.POLAR>
0

>  <SCORE.INTRA.POLAR.0>
0

>  <SCORE.INTRA.REPUL>
0

>  <SCORE.INTRA.REPUL.0>
0

>  <SCORE.INTRA.SOLV>
-0.615857

>  <SCORE.INTRA.SOLV.lig_0>
-19.4148

>  <SCORE.INTRA.VDW>
-3.66471

>  <SCORE.INTRA.VDW.0>
5.42093

>  <SCORE.INTRA.norm>
-0.0866786

>  <SCORE.RESTR>
0

>  <SCORE.RESTR.CAVITY>
0

>  <SCORE.RESTR.norm>
0

>  <SCORE.SYSTEM>
0

>  <SCORE.SYSTEM.CONST>
0

>  <SCORE.SYSTEM.DIHEDRAL>
0

>  <SCORE.SYSTEM.SOLV>
0

>  <SCORE.SYSTEM.norm>
0

>  <SCORE.heavy>
27

>  <SCORE.norm>
-1.47147

>  <RMSD>
1.086

$$$$
lig.pdb
 OpenBabel11021811523D
libRbt.so/2013.1/901 2013/11/27
 27 30  0  0  0  0  0  0  0  0999 V2000
   27.8964   35.8991   19.6948 N   0  0  0  0  0  0  0  0  0  0  0  0
   27.8092   37.1356   20.1185 C   0  0  0  0  0  0  0  0  0  0  0  0
   27.4447   37.5015   21.3732 N   0  0  0  0  0  0  0  0  0  0  0  0
   27.1913   36.5228   22.2925 C   0  0  0  0  0  0  0  0  0  0  0  0
   27.2856   35.2056   21.9457 C   0  0  0  0  0  0  0  0  0  0  0  0
   27.6362   34.8610   20.5885 C   0  0  0  0  0  0  0  0  0  0  0  0
   27.6899   33.6923   20.1859 O   0  0  0  0  0  0  0  0  0  0  0  0
   27.9363   38.3509   19.1738 C   0  0  2  0  0  0  0  0  0  0  0  0
   28.5446   39.4152   20.1016 C   0  0  0  0  0  0  0  0  0  0  0  0
   28.5316   40.7431   19.4855 N   0  0  0  0  0  0  0  0  0  0  0  0
   27.1372   41.1465   19.2422 C   0  0  0  0  0  0  0  0  0  0  0  0
   26.4694   40.2087   18.2559 C   0  0  0  0  0  0  0  0  0  0  0  0
   26.5178   38.7703   18.7520 C   0  0  0  0  0  0  0  0  0  0  0  0
   26.8547   37.0631   23.6029 C   0  0  0  0  0  0  0  0  0  0  0  0
   27.2176   38.6954   24.0263 S   0  0  0  0  0  0  0  0  0  0  0  0
   26.5870   38.5010   25.5675 C   0  0  0  0  0  0  0  0  0  0  0  0
   26.0775   37.2760   25.7489 C   0  0  0  0  0  0  0  0  0  0  0  0
   26.2293   36.4317   24.6317 C   0  0  0  0  0  0  0  0  0  0  0  0
   29.2166   41.7449   20.3214 C   0  0  0  0  0  0  0  0  0  0  0  0
   28.7864   41.7936   21.7705 C   0  0  0  0  0  0  0  0  0  0  0  0
   27.8884   42.7511   22.2193 C   0  0  0  0  0  0  0  0  0  0  0  0
   27.7265   43.0932   23.5103 N   0  0  0  0  0  0  0  0  0  0  0  0
   28.5362   42.4601   24.3458 C   0  0  0  0  0  0  0  0  0  0  0  0
   29.4647   41.5592   24.0669 N   0  0  0  0  0  0  0  0  0  0  0  0
   29.5835   41.2637   22.7641 C   0  0  0  0  0  0  0  0  0  0  0  0
   28.3784   42.8094   25.6276 O   0  0  0  0  0  0  0  0  0  0  0  0
   29.5610   43.0761   26.3905 C   0  0  0  0  0  0  0  0  0  0  0  0
  1  2  2  0  0  0  0
  1  6  1  0  0  0  0
  2  3  1  0  0  0  0
  3  4  2  0  0  0  0
  4 14  1  0  0  0  0
  5  4  1  0  0  0  0
  6  5  1  0  0  0  0
  7  6  2  0  0  0  0
  8  9  1  0  0  0  0
  8  2  1  1  0  0  0
 10 19  1  0  0  0  0
 10  9  1  0  0  0  0
 11 10  1  0  0  0  0
 12 11  1  0  0  0  0
 12 13  1  0  0  0  0
 13  8  1  0  0  0  0
 14 15  1  0  0  0  0
 14 18  2  0  0  0  0
 15 16  1  0  0  0  0
 16 17  2  0  0  0  0
 18 17  1  0  0  0  0
 19 20  1  0  0  0  0
 20 25  2  0  0  0  0
 20 21  1  0  0  0  0
 21 22  2  0  0  0  0
 22 23  1  0  0  0  0
 23 26  1  0  0  0  0
 24 23  2  0  0  0  0
 25 24  1  0  0  0  0
 26 27  1  0  0  0  0
M  END
>  <CHROM.1>
-17.34769773,-149.55195165,-50.35168481,-99.55402802,-134.08275944,27.77133003
39.19069698,22.15714911,-2.44079472,1.34708985,1.38008652

>  <Name>
lig.pdb

>  <RI>
0

>  <Rbt.Current_Directory>
/home/itssahil/PROJECTS/Mol_Feturizer/New_Systems/rnas/5kx9

>  <Rbt.Executable>
rbdock ($Id: //depot/dev/client3/rdock/2013.1/src/exe/rbdock.cxx#4 $)

>  <Rbt.Library>
libRbt.so (2013.1, Build901 2013/11/27)

>  <Rbt.Parameter_File>
/export/apps/rDock/src/rDock_2013.1_src/data/scripts/dock_solv.prm

>  <Rbt.Receptor>
prm/pocket_docking_2.prm

>  <SCORE>
-36.8952

>  <SCORE.INTER>
-33.3771

>  <SCORE.INTER.CONST>
1

>  <SCORE.INTER.POLAR>
0

>  <SCORE.INTER.ROT>
5

>  <SCORE.INTER.SOLV>
15.2051

>  <SCORE.INTER.VDW>
-34.2531

>  <SCORE.INTER.norm>
-1.23619

>  <SCORE.INTRA>
-3.55883

>  <SCORE.INTRA.DIHEDRAL>
2.22841

>  <SCORE.INTRA.DIHEDRAL.0>
2.68224

>  <SCORE.INTRA.POLAR>
0

>  <SCORE.INTRA.POLAR.0>
0

>  <SCORE.INTRA.REPUL>
0

>  <SCORE.INTRA.REPUL.0>
0

>  <SCORE.INTRA.SOLV>
-0.14498

>  <SCORE.INTRA.SOLV.lig_0>
-19.4148

>  <SCORE.INTRA.VDW>
-4.60055

>  <SCORE.INTRA.VDW.0>
5.42093

>  <SCORE.INTRA.norm>
-0.131809

>  <SCORE.RESTR>
0.0407514

>  <SCORE.RESTR.CAVITY>
0.0407514

>  <SCORE.RESTR.norm>
0.00150931

>  <SCORE.SYSTEM>
0

>  <SCORE.SYSTEM.CONST>
0

>  <SCORE.SYSTEM.DIHEDRAL>
0

>  <SCORE.SYSTEM.SOLV>
0

>  <SCORE.SYSTEM.norm>
0

>  <SCORE.heavy>
27

>  <SCORE.norm>
-1.36649

>  <RMSD>
1.099

$$$$
lig.pdb
 OpenBabel11021811523D
libRbt.so/2013.1/901 2013/11/27
 27 30  0  0  0  0  0  0  0  0999 V2000
   27.6574   34.9768   20.1010 N   0  0  0  0  0  0  0  0  0  0  0  0
   27.6978   36.2841   20.1765 C   0  0  0  0  0  0  0  0  0  0  0  0
   27.4425   37.0044   21.2977 N   0  0  0  0  0  0  0  0  0  0  0  0
   27.1675   36.3351   22.4568 C   0  0  0  0  0  0  0  0  0  0  0  0
   27.1323   34.9703   22.4769 C   0  0  0  0  0  0  0  0  0  0  0  0
   27.3690   34.2444   21.2518 C   0  0  0  0  0  0  0  0  0  0  0  0
   27.3022   33.0111   21.1796 O   0  0  0  0  0  0  0  0  0  0  0  0
   27.8649   37.1856   18.9335 C   0  0  2  0  0  0  0  0  0  0  0  0
   28.6125   38.3966   19.5148 C   0  0  0  0  0  0  0  0  0  0  0  0
   28.6693   39.5071   18.5625 N   0  0  0  0  0  0  0  0  0  0  0  0
   27.2999   39.9603   18.2702 C   0  0  0  0  0  0  0  0  0  0  0  0
   26.4998   38.8605   17.6005 C   0  0  0  0  0  0  0  0  0  0  0  0
   26.4619   37.6088   18.4662 C   0  0  0  0  0  0  0  0  0  0  0  0
   26.9578   37.2348   23.5831 C   0  0  0  0  0  0  0  0  0  0  0  0
   26.3228   36.6692   25.0838 S   0  0  0  0  0  0  0  0  0  0  0  0
   26.3677   38.2058   25.7529 C   0  0  0  0  0  0  0  0  0  0  0  0
   26.8838   39.1054   24.9060 C   0  0  0  0  0  0  0  0  0  0  0  0
   27.2220   38.5668   23.6493 C   0  0  0  0  0  0  0  0  0  0  0  0
   29.4824   40.6265   19.0695 C   0  0  0  0  0  0  0  0  0  0  0  0
   29.1304   41.1165   20.4564 C   0  0  0  0  0  0  0  0  0  0  0  0
   28.3636   42.2580   20.6395 C   0  0  0  0  0  0  0  0  0  0  0  0
   28.3019   42.9541   21.7892 N   0  0  0  0  0  0  0  0  0  0  0  0
   29.0780   42.4812   22.7528 C   0  0  0  0  0  0  0  0  0  0  0  0
   29.8894   41.4363   22.7170 N   0  0  0  0  0  0  0  0  0  0  0  0
   29.9127   40.7867   21.5439 C   0  0  0  0  0  0  0  0  0  0  0  0
   29.0207   43.1812   23.8916 O   0  0  0  0  0  0  0  0  0  0  0  0
   30.2426   43.3665   24.6157 C   0  0  0  0  0  0  0  0  0  0  0  0
  1  2  2  0  0  0  0
  1  6  1  0  0  0  0
  2  3  1  0  0  0  0
  3  4  2  0  0  0  0
  4 14  1  0  0  0  0
  5  4  1  0  0  0  0
  6  5  1  0  0  0  0
  7  6  2  0  0  0  0
  8  9  1  0  0  0  0
  8  2  1  1  0  0  0
 10 19  1  0  0  0  0
 10  9  1  0  0  0  0
 11 10  1  0  0  0  0
 12 11  1  0  0  0  0
 12 13  1  0  0  0  0
 13  8  1  0  0  0  0
 14 15  1  0  0  0  0
 14 18  2  0  0  0  0
 15 16  1  0  0  0  0
 16 17  2  0  0  0  0
 18 17  1  0  0  0  0
 19 20  1  0  0  0  0
 20 25  2  0  0  0  0
 20 21  1  0  0  0  0
 21 22  2  0  0  0  0
 22 23  1  0  0  0  0
 23 26  1  0  0  0  0
 24 23  2  0  0  0  0
 25 24  1  0  0  0  0
 26 27  1  0  0  0  0
M  END
>  <CHROM.1>
168.88578757,-149.62974748,-51.38580104,-100.58555318,-141.42231783,27.87511553
38.67628787,21.67056545,-2.76141649,1.25790994,1.29035198

>  <Name>
lig.pdb

>  <RI>
0

>  <Rbt.Current_Directory>
/home/itssahil/PROJECTS/Mol_Feturizer/New_Systems/rnas/5kx9

>  <Rbt.Executable>
rbdock ($Id: //depot/dev/client3/rdock/2013.1/src/exe/rbdock.cxx#4 $)

>  <Rbt.Library>
libRbt.so (2013.1, Build901 2013/11/27)

>  <Rbt.Parameter_File>
/export/apps/rDock/src/rDock_2013.1_src/data/scripts/dock_solv.prm

>  <Rbt.Receptor>
prm/pocket_docking_4.prm

>  <SCORE>
-39.6255

>  <SCORE.INTER>
-36.3185

>  <SCORE.INTER.CONST>
1

>  <SCORE.INTER.POLAR>
0

>  <SCORE.INTER.ROT>
5

>  <SCORE.INTER.SOLV>
16.0932

>  <SCORE.INTER.VDW>
-36.5101

>  <SCORE.INTER.norm>
-1.34513

>  <SCORE.INTRA>
-3.30697

>  <SCORE.INTRA.DIHEDRAL>
0.957966

>  <SCORE.INTRA.DIHEDRAL.0>
2.68224

>  <SCORE.INTRA.POLAR>
0

>  <SCORE.INTRA.POLAR.0>
0

>  <SCORE.INTRA.REPUL>
0

>  <SCORE.INTRA.REPUL.0>
0

>  <SCORE.INTRA.SOLV>
-0.477889

>  <SCORE.INTRA.SOLV.lig_0>
-19.4148

>  <SCORE.INTRA.VDW>
-3.547

>  <SCORE.INTRA.VDW.0>
5.42093

>  <SCORE.INTRA.norm>
-0.12248

>  <SCORE.RESTR>
0

>  <SCORE.RESTR.CAVITY>
0

>  <SCORE.RESTR.norm>
0

>  <SCORE.SYSTEM>
0

>  <SCORE.SYSTEM.CONST>
0

>  <SCORE.SYSTEM.DIHEDRAL>
0

>  <SCORE.SYSTEM.SOLV>
0

>  <SCORE.SYSTEM.norm>
0

>  <SCORE.heavy>
27

>  <SCORE.norm>
-1.46761

>  <RMSD>
1.113

$$$$
lig.pdb
 OpenBabel11021811523D
libRbt.so/2013.1/901 2013/11/27
 27 30  0  0  0  0  0  0  0  0999 V2000
   27.6957   34.9642   20.1110 N   0  0  0  0  0  0  0  0  0  0  0  0
   27.7339   36.2716   20.1848 C   0  0  0  0  0  0  0  0  0  0  0  0
   27.4629   36.9936   21.3012 N   0  0  0  0  0  0  0  0  0  0  0  0
   27.1729   36.3259   22.4576 C   0  0  0  0  0  0  0  0  0  0  0  0
   27.1387   34.9611   22.4796 C   0  0  0  0  0  0  0  0  0  0  0  0
   27.3926   34.2334   21.2591 C   0  0  0  0  0  0  0  0  0  0  0  0
   27.3279   32.9999   21.1881 O   0  0  0  0  0  0  0  0  0  0  0  0
   27.9169   37.1711   18.9426 C   0  0  2  0  0  0  0  0  0  0  0  0
   28.6650   38.3790   19.5297 C   0  0  0  0  0  0  0  0  0  0  0  0
   28.7361   39.4884   18.5771 N   0  0  0  0  0  0  0  0  0  0  0  0
   27.3717   39.9480   18.2718 C   0  0  0  0  0  0  0  0  0  0  0  0
   26.5724   38.8516   17.5957 C   0  0  0  0  0  0  0  0  0  0  0  0
   26.5204   37.6008   18.4620 C   0  0  0  0  0  0  0  0  0  0  0  0
   26.9472   37.2274   23.5795 C   0  0  0  0  0  0  0  0  0  0  0  0
   26.3149   36.6594   25.0805 S   0  0  0  0  0  0  0  0  0  0  0  0
   26.3366   38.1992   25.7433 C   0  0  0  0  0  0  0  0  0  0  0  0
   26.8433   39.1023   24.8944 C   0  0  0  0  0  0  0  0  0  0  0  0
   27.1931   38.5631   23.6410 C   0  0  0  0  0  0  0  0  0  0  0  0
   29.5500   40.6042   19.0906 C   0  0  0  0  0  0  0  0  0  0  0  0
   29.1718   41.1135   20.4635 C   0  0  0  0  0  0  0  0  0  0  0  0
   28.3494   42.2204   20.6154 C   0  0  0  0  0  0  0  0  0  0  0  0
   28.2514   42.9433   21.7457 N   0  0  0  0  0  0  0  0  0  0  0  0
   29.0479   42.5353   22.7222 C   0  0  0  0  0  0  0  0  0  0  0  0
   29.9098   41.5311   22.7151 N   0  0  0  0  0  0  0  0  0  0  0  0
   29.9672   40.8519   21.5600 C   0  0  0  0  0  0  0  0  0  0  0  0
   28.9542   43.2621   23.8417 O   0  0  0  0  0  0  0  0  0  0  0  0
   30.1674   43.5494   24.5468 C   0  0  0  0  0  0  0  0  0  0  0  0
  1  2  2  0  0  0  0
  1  6  1  0  0  0  0
  2  3  1  0  0  0  0
  3  4  2  0  0  0  0
  4 14  1  0  0  0  0
  5  4  1  0  0  0  0
  6  5  1  0  0  0  0
  7  6  2  0  0  0  0
  8  9  1  0  0  0  0
  8  2  1  1  0  0  0
 10 19  1  0  0  0  0
 10  9  1  0  0  0  0
 11 10  1  0  0  0  0
 12 11  1  0  0  0  0
 12 13  1  0  0  0  0
 13  8  1  0  0  0  0
 14 15  1  0  0  0  0
 14 18  2  0  0  0  0
 15 16  1  0  0  0  0
 16 17  2  0  0  0  0
 18 17  1  0  0  0  0
 19 20  1  0  0  0  0
 20 25  2  0  0  0  0
 20 21  1  0  0  0  0
 21 22  2  0  0  0  0
 22 23  1  0  0  0  0
 23 26  1  0  0  0  0
 24 23  2  0  0  0  0
 25 24  1  0  0  0  0
 26 27  1  0  0  0  0
M  END
>  <CHROM.1>
169.82374433,-149.21214083,-52.43635227,-96.78749346,-140.20643298,27.88712393
38.68454628,21.66506558,-2.71214556,1.25784431,1.22800115

>  <Name>
lig.pdb

>  <RI>
0

>  <Rbt.Current_Directory>
/home/itssahil/PROJECTS/Mol_Feturizer/New_Systems/rnas/5kx9

>  <Rbt.Executable>
rbdock ($Id: //depot/dev/client3/rdock/2013.1/src/exe/rbdock.cxx#4 $)

>  <Rbt.Library>
libRbt.so (2013.1, Build901 2013/11/27)

>  <Rbt.Parameter_File>
/export/apps/rDock/src/rDock_2013.1_src/data/scripts/dock_solv.prm

>  <Rbt.Receptor>
prm/pocket_docking_4.prm

>  <SCORE>
-39.6342

>  <SCORE.INTER>
-36.2494

>  <SCORE.INTER.CONST>
1

>  <SCORE.INTER.POLAR>
0

>  <SCORE.INTER.ROT>
5

>  <SCORE.INTER.SOLV>
16.3832

>  <SCORE.INTER.VDW>
-36.5607

>  <SCORE.INTER.norm>
-1.34257

>  <SCORE.INTRA>
-3.38477

>  <SCORE.INTRA.DIHEDRAL>
0.969525

>  <SCORE.INTRA.DIHEDRAL.0>
2.68224

>  <SCORE.INTRA.POLAR>
0

>  <SCORE.INTRA.POLAR.0>
0

>  <SCORE.INTRA.REPUL>
0

>  <SCORE.INTRA.REPUL.0>
0

>  <SCORE.INTRA.SOLV>
-0.521118

>  <SCORE.INTRA.SOLV.lig_0>
-19.4148

>  <SCORE.INTRA.VDW>
-3.60898

>  <SCORE.INTRA.VDW.0>
5.42093

>  <SCORE.INTRA.norm>
-0.125362

>  <SCORE.RESTR>
0

>  <SCORE.RESTR.CAVITY>
0

>  <SCORE.RESTR.norm>
0

>  <SCORE.SYSTEM>
0

>  <SCORE.SYSTEM.CONST>
0

>  <SCORE.SYSTEM.DIHEDRAL>
0

>  <SCORE.SYSTEM.SOLV>
0

>  <SCORE.SYSTEM.norm>
0

>  <SCORE.heavy>
27

>  <SCORE.norm>
-1.46793

>  <RMSD>
1.119

$$$$
lig.pdb
 OpenBabel11021811523D
libRbt.so/2013.1/901 2013/11/27
 27 30  0  0  0  0  0  0  0  0999 V2000
   27.7127   34.8659   20.0105 N   0  0  0  0  0  0  0  0  0  0  0  0
   27.7399   36.1741   20.0743 C   0  0  0  0  0  0  0  0  0  0  0  0
   27.4582   36.9026   21.1838 N   0  0  0  0  0  0  0  0  0  0  0  0
   27.1686   36.2417   22.3442 C   0  0  0  0  0  0  0  0  0  0  0  0
   27.1454   34.8768   22.3767 C   0  0  0  0  0  0  0  0  0  0  0  0
   27.4105   34.1417   21.1630 C   0  0  0  0  0  0  0  0  0  0  0  0
   27.3561   32.9072   21.1014 O   0  0  0  0  0  0  0  0  0  0  0  0
   27.9211   37.0654   18.8259 C   0  0  2  0  0  0  0  0  0  0  0  0
   28.5005   38.3532   19.4335 C   0  0  0  0  0  0  0  0  0  0  0  0
   28.5287   39.4469   18.4608 N   0  0  0  0  0  0  0  0  0  0  0  0
   27.1507   39.7603   18.0496 C   0  0  0  0  0  0  0  0  0  0  0  0
   26.5158   38.5765   17.3468 C   0  0  0  0  0  0  0  0  0  0  0  0
   26.5269   37.3425   18.2383 C   0  0  0  0  0  0  0  0  0  0  0  0
   26.9308   37.1500   23.4580 C   0  0  0  0  0  0  0  0  0  0  0  0
   26.3083   36.5866   24.9647 S   0  0  0  0  0  0  0  0  0  0  0  0
   26.3080   38.1326   25.6134 C   0  0  0  0  0  0  0  0  0  0  0  0
   26.8006   39.0352   24.7557 C   0  0  0  0  0  0  0  0  0  0  0  0
   27.1572   38.4897   23.5069 C   0  0  0  0  0  0  0  0  0  0  0  0
   29.1879   40.6486   19.0020 C   0  0  0  0  0  0  0  0  0  0  0  0
   28.7351   41.0803   20.3789 C   0  0  0  0  0  0  0  0  0  0  0  0
   27.6016   41.8621   20.5478 C   0  0  0  0  0  0  0  0  0  0  0  0
   27.3293   42.5739   21.6565 N   0  0  0  0  0  0  0  0  0  0  0  0
   28.2664   42.5049   22.5902 C   0  0  0  0  0  0  0  0  0  0  0  0
   29.4107   41.8408   22.5593 N   0  0  0  0  0  0  0  0  0  0  0  0
   29.6289   41.1556   21.4272 C   0  0  0  0  0  0  0  0  0  0  0  0
   27.9962   43.2211   23.6875 O   0  0  0  0  0  0  0  0  0  0  0  0
   27.1305   42.6320   24.6648 C   0  0  0  0  0  0  0  0  0  0  0  0
  1  2  2  0  0  0  0
  1  6  1  0  0  0  0
  2  3  1  0  0  0  0
  3  4  2  0  0  0  0
  4 14  1  0  0  0  0
  5  4  1  0  0  0  0
  6  5  1  0  0  0  0
  7  6  2  0  0  0  0
  8  9  1  0  0  0  0
  8  2  1  1  0  0  0
 10 19  1  0  0  0  0
 10  9  1  0  0  0  0
 11 10  1  0  0  0  0
 12 11  1  0  0  0  0
 12 13  1  0  0  0  0
 13  8  1  0  0  0  0
 14 15  1  0  0  0  0
 14 18  2  0  0  0  0
 15 16  1  0  0  0  0
 16 17  2  0  0  0  0
 18 17  1  0  0  0  0
 19 20  1  0  0  0  0
 20 25  2  0  0  0  0
 20 21  1  0  0  0  0
 21 22  2  0  0  0  0
 22 23  1  0  0  0  0
 23 26  1  0  0  0  0
 24 23  2  0  0  0  0
 25 24  1  0  0  0  0
 26 27  1  0  0  0  0
M  END
>  <CHROM.1>
170.31399044,-155.81459158,-47.99478334,-83.68546852,81.97365510,27.56231377
38.57205956,21.54782264,-2.22126015,1.35131057,0.78477901

>  <Name>
lig.pdb

>  <RI>
0

>  <Rbt.Current_Directory>
/home/itssahil/PROJECTS/Mol_Feturizer/New_Systems/rnas/5kx9

>  <Rbt.Executable>
rbdock ($Id: //depot/dev/client3/rdock/2013.1/src/exe/rbdock.cxx#4 $)

>  <Rbt.Library>
libRbt.so (2013.1, Build901 2013/11/27)

>  <Rbt.Parameter_File>
/export/apps/rDock/src/rDock_2013.1_src/data/scripts/dock_solv.prm

>  <Rbt.Receptor>
prm/pocket_docking_2.prm

>  <SCORE>
-36.4578

>  <SCORE.INTER>
-34.2554

>  <SCORE.INTER.CONST>
1

>  <SCORE.INTER.POLAR>
0

>  <SCORE.INTER.ROT>
5

>  <SCORE.INTER.SOLV>
15.2758

>  <SCORE.INTER.VDW>
-34.8622

>  <SCORE.INTER.norm>
-1.26872

>  <SCORE.INTRA>
-2.40865

>  <SCORE.INTRA.DIHEDRAL>
4.00462

>  <SCORE.INTRA.DIHEDRAL.0>
2.68224

>  <SCORE.INTRA.POLAR>
0

>  <SCORE.INTRA.POLAR.0>
0

>  <SCORE.INTRA.REPUL>
0

>  <SCORE.INTRA.REPUL.0>
0

>  <SCORE.INTRA.SOLV>
-0.507098

>  <SCORE.INTRA.SOLV.lig_0>
-19.4148

>  <SCORE.INTRA.VDW>
-4.15742

>  <SCORE.INTRA.VDW.0>
5.42093

>  <SCORE.INTRA.norm>
-0.0892094

>  <SCORE.RESTR>
0.206333

>  <SCORE.RESTR.CAVITY>
0.206333

>  <SCORE.RESTR.norm>
0.00764196

>  <SCORE.SYSTEM>
0

>  <SCORE.SYSTEM.CONST>
0

>  <SCORE.SYSTEM.DIHEDRAL>
0

>  <SCORE.SYSTEM.SOLV>
0

>  <SCORE.SYSTEM.norm>
0

>  <SCORE.heavy>
27

>  <SCORE.norm>
-1.35029

>  <RMSD>
1.127

$$$$
lig.pdb
 OpenBabel11021811523D
libRbt.so/2013.1/901 2013/11/27
 27 30  0  0  0  0  0  0  0  0999 V2000
   27.6948   35.0275   20.0297 N   0  0  0  0  0  0  0  0  0  0  0  0
   27.6763   36.3344   20.1181 C   0  0  0  0  0  0  0  0  0  0  0  0
   27.3858   37.0314   21.2454 N   0  0  0  0  0  0  0  0  0  0  0  0
   27.1378   36.3390   22.3970 C   0  0  0  0  0  0  0  0  0  0  0  0
   27.1638   34.9739   22.4037 C   0  0  0  0  0  0  0  0  0  0  0  0
   27.4363   34.2715   21.1723 C   0  0  0  0  0  0  0  0  0  0  0  0
   27.4250   33.0372   21.0879 O   0  0  0  0  0  0  0  0  0  0  0  0
   27.8065   37.2547   18.8845 C   0  0  2  0  0  0  0  0  0  0  0  0
   28.5725   38.4564   19.4612 C   0  0  0  0  0  0  0  0  0  0  0  0
   28.6014   39.5813   18.5247 N   0  0  0  0  0  0  0  0  0  0  0  0
   27.2242   40.0396   18.2812 C   0  0  0  0  0  0  0  0  0  0  0  0
   26.4031   38.9506   17.6194 C   0  0  0  0  0  0  0  0  0  0  0  0
   26.3903   37.6857   18.4666 C   0  0  0  0  0  0  0  0  0  0  0  0
   26.8847   37.2173   23.5314 C   0  0  0  0  0  0  0  0  0  0  0  0
   26.2517   36.6122   25.0174 S   0  0  0  0  0  0  0  0  0  0  0  0
   26.2369   38.1411   25.7053 C   0  0  0  0  0  0  0  0  0  0  0  0
   26.7323   39.0679   24.8755 C   0  0  0  0  0  0  0  0  0  0  0  0
   27.1032   38.5565   23.6166 C   0  0  0  0  0  0  0  0  0  0  0  0
   29.4307   40.6924   19.0238 C   0  0  0  0  0  0  0  0  0  0  0  0
   29.0444   41.2407   20.3794 C   0  0  0  0  0  0  0  0  0  0  0  0
   29.7642   40.9088   21.5179 C   0  0  0  0  0  0  0  0  0  0  0  0
   29.3033   41.0478   22.7742 N   0  0  0  0  0  0  0  0  0  0  0  0
   28.0613   41.5018   22.8500 C   0  0  0  0  0  0  0  0  0  0  0  0
   27.2405   41.8207   21.8621 N   0  0  0  0  0  0  0  0  0  0  0  0
   27.7535   41.6557   20.6339 C   0  0  0  0  0  0  0  0  0  0  0  0
   27.6033   41.6302   24.1006 O   0  0  0  0  0  0  0  0  0  0  0  0
   28.0605   42.7555   24.8597 C   0  0  0  0  0  0  0  0  0  0  0  0
  1  2  2  0  0  0  0
  1  6  1  0  0  0  0
  2  3  1  0  0  0  0
  3  4  2  0  0  0  0
  4 14  1  0  0  0  0
  5  4  1  0  0  0  0
  6  5  1  0  0  0  0
  7  6  2  0  0  0  0
  8  9  1  0  0  0  0
  8  2  1  1  0  0  0
 10 19  1  0  0  0  0
 10  9  1  0  0  0  0
 11 10  1  0  0  0  0
 12 11  1  0  0  0  0
 12 13  1  0  0  0  0
 13  8  1  0  0  0  0
 14 15  1  0  0  0  0
 14 18  2  0  0  0  0
 15 16  1  0  0  0  0
 16 17  2  0  0  0  0
 18 17  1  0  0  0  0
 19 20  1  0  0  0  0
 20 25  2  0  0  0  0
 20 21  1  0  0  0  0
 21 22  2  0  0  0  0
 22 23  1  0  0  0  0
 23 26  1  0  0  0  0
 24 23  2  0  0  0  0
 25 24  1  0  0  0  0
 26 27  1  0  0  0  0
M  END
>  <CHROM.1>
168.05861518,-146.37574395,-56.46900872,102.41390130,76.60728173,27.57743562
38.50508863,21.65944409,-2.35543809,1.32998469,0.89251192

>  <Name>
lig.pdb

>  <RI>
0

>  <Rbt.Current_Directory>
/home/itssahil/PROJECTS/Mol_Feturizer/New_Systems/rnas/5kx9

>  <Rbt.Executable>
rbdock ($Id: //depot/dev/client3/rdock/2013.1/src/exe/rbdock.cxx#4 $)

>  <Rbt.Library>
libRbt.so (2013.1, Build901 2013/11/27)

>  <Rbt.Parameter_File>
/export/apps/rDock/src/rDock_2013.1_src/data/scripts/dock_solv.prm

>  <Rbt.Receptor>
prm/pocket_docking_2.prm

>  <SCORE>
-34.0679

>  <SCORE.INTER>
-32.1726

>  <SCORE.INTER.CONST>
1

>  <SCORE.INTER.POLAR>
0

>  <SCORE.INTER.ROT>
5

>  <SCORE.INTER.SOLV>
13.4846

>  <SCORE.INTER.VDW>
-32.8766

>  <SCORE.INTER.norm>
-1.19158

>  <SCORE.INTRA>
-2.3627

>  <SCORE.INTRA.DIHEDRAL>
4.15715

>  <SCORE.INTRA.DIHEDRAL.0>
2.68224

>  <SCORE.INTRA.POLAR>
0

>  <SCORE.INTRA.POLAR.0>
0

>  <SCORE.INTRA.REPUL>
0

>  <SCORE.INTRA.REPUL.0>
0

>  <SCORE.INTRA.SOLV>
0.47316

>  <SCORE.INTRA.SOLV.lig_0>
-19.4148

>  <SCORE.INTRA.VDW>
-4.67785

>  <SCORE.INTRA.VDW.0>
5.42093

>  <SCORE.INTRA.norm>
-0.0875073

>  <SCORE.RESTR>
0.467488

>  <SCORE.RESTR.CAVITY>
0.467488

>  <SCORE.RESTR.norm>
0.0173144

>  <SCORE.SYSTEM>
0

>  <SCORE.SYSTEM.CONST>
0

>  <SCORE.SYSTEM.DIHEDRAL>
0

>  <SCORE.SYSTEM.SOLV>
0

>  <SCORE.SYSTEM.norm>
0

>  <SCORE.heavy>
27

>  <SCORE.norm>
-1.26177

>  <RMSD>
1.129

$$$$
lig.pdb
 OpenBabel11021811523D
libRbt.so/2013.1/901 2013/11/27
 27 30  0  0  0  0  0  0  0  0999 V2000
   27.6573   34.8934   20.2640 N   0  0  0  0  0  0  0  0  0  0  0  0
   27.6744   36.1988   20.3723 C   0  0  0  0  0  0  0  0  0  0  0  0
   27.3915   36.8867   21.5071 N   0  0  0  0  0  0  0  0  0  0  0  0
   27.1119   36.1842   22.6453 C   0  0  0  0  0  0  0  0  0  0  0  0
   27.0996   34.8189   22.6313 C   0  0  0  0  0  0  0  0  0  0  0  0
   27.3656   34.1279   21.3922 C   0  0  0  0  0  0  0  0  0  0  0  0
   27.3207   32.8957   21.2887 O   0  0  0  0  0  0  0  0  0  0  0  0
   27.8434   37.1336   19.1544 C   0  0  2  0  0  0  0  0  0  0  0  0
   28.6241   38.3111   19.7607 C   0  0  0  0  0  0  0  0  0  0  0  0
   28.6911   39.4483   18.8411 N   0  0  0  0  0  0  0  0  0  0  0  0
   27.3276   39.9381   18.5821 C   0  0  0  0  0  0  0  0  0  0  0  0
   26.4956   38.8755   17.8914 C   0  0  0  0  0  0  0  0  0  0  0  0
   26.4434   37.5994   18.7199 C   0  0  0  0  0  0  0  0  0  0  0  0
   26.8713   37.0520   23.7904 C   0  0  0  0  0  0  0  0  0  0  0  0
   27.2467   38.7348   23.7420 S   0  0  0  0  0  0  0  0  0  0  0  0
   26.7395   38.9568   25.3245 C   0  0  0  0  0  0  0  0  0  0  0  0
   26.2599   37.8268   25.8594 C   0  0  0  0  0  0  0  0  0  0  0  0
   26.3347   36.7179   24.9942 C   0  0  0  0  0  0  0  0  0  0  0  0
   29.5344   40.5350   19.3696 C   0  0  0  0  0  0  0  0  0  0  0  0
   29.1234   41.0875   20.7162 C   0  0  0  0  0  0  0  0  0  0  0  0
   28.4374   42.2889   20.8183 C   0  0  0  0  0  0  0  0  0  0  0  0
   28.3483   43.0181   21.9454 N   0  0  0  0  0  0  0  0  0  0  0  0
   29.0138   42.5131   22.9732 C   0  0  0  0  0  0  0  0  0  0  0  0
   29.7412   41.4085   23.0192 N   0  0  0  0  0  0  0  0  0  0  0  0
   29.7975   40.7278   21.8649 C   0  0  0  0  0  0  0  0  0  0  0  0
   28.9302   43.2456   24.0897 O   0  0  0  0  0  0  0  0  0  0  0  0
   30.1364   43.4593   24.8320 C   0  0  0  0  0  0  0  0  0  0  0  0
  1  2  2  0  0  0  0
  1  6  1  0  0  0  0
  2  3  1  0  0  0  0
  3  4  2  0  0  0  0
  4 14  1  0  0  0  0
  5  4  1  0  0  0  0
  6  5  1  0  0  0  0
  7  6  2  0  0  0  0
  8  9  1  0  0  0  0
  8  2  1  1  0  0  0
 10 19  1  0  0  0  0
 10  9  1  0  0  0  0
 11 10  1  0  0  0  0
 12 11  1  0  0  0  0
 12 13  1  0  0  0  0
 13  8  1  0  0  0  0
 14 15  1  0  0  0  0
 14 18  2  0  0  0  0
 15 16  1  0  0  0  0
 16 17  2  0  0  0  0
 18 17  1  0  0  0  0
 19 20  1  0  0  0  0
 20 25  2  0  0  0  0
 20 21  1  0  0  0  0
 21 22  2  0  0  0  0
 22 23  1  0  0  0  0
 23 26  1  0  0  0  0
 24 23  2  0  0  0  0
 25 24  1  0  0  0  0
 26 27  1  0  0  0  0
M  END
>  <CHROM.1>
-12.27181601,-146.92888150,-57.44123911,-101.84268129,-135.75511597,27.89337967
38.72962452,21.80306451,-2.64986371,1.27549306,1.27724434

>  <Name>
lig.pdb

>  <RI>
0

>  <Rbt.Current_Directory>
/home/itssahil/PROJECTS/Mol_Feturizer/New_Systems/rnas/5kx9

>  <Rbt.Executable>
rbdock ($Id: //depot/dev/client3/rdock/2013.1/src/exe/rbdock.cxx#4 $)

>  <Rbt.Library>
libRbt.so (2013.1, Build901 2013/11/27)

>  <Rbt.Parameter_File>
/export/apps/rDock/src/rDock_2013.1_src/data/scripts/dock_solv.prm

>  <Rbt.Receptor>
prm/pocket_docking_7.prm

>  <SCORE>
-39.8988

>  <SCORE.INTER>
-35.8223

>  <SCORE.INTER.CONST>
1

>  <SCORE.INTER.POLAR>
0

>  <SCORE.INTER.ROT>
5

>  <SCORE.INTER.SOLV>
15.9642

>  <SCORE.INTER.VDW>
-36.1362

>  <SCORE.INTER.norm>
-1.32675

>  <SCORE.INTRA>
-4.07656

>  <SCORE.INTRA.DIHEDRAL>
1.4059

>  <SCORE.INTRA.DIHEDRAL.0>
2.68224

>  <SCORE.INTRA.POLAR>
0

>  <SCORE.INTRA.POLAR.0>
0

>  <SCORE.INTRA.REPUL>
0

>  <SCORE.INTRA.REPUL.0>
0

>  <SCORE.INTRA.SOLV>
-0.227072

>  <SCORE.INTRA.SOLV.lig_0>
-19.4148

>  <SCORE.INTRA.VDW>
-4.66597

>  <SCORE.INTRA.VDW.0>
5.42093

>  <SCORE.INTRA.norm>
-0.150984

>  <SCORE.RESTR>
0

>  <SCORE.RESTR.CAVITY>
0

>  <SCORE.RESTR.norm>
0

>  <SCORE.SYSTEM>
0

>  <SCORE.SYSTEM.CONST>
0

>  <SCORE.SYSTEM.DIHEDRAL>
0

>  <SCORE.SYSTEM.SOLV>
0

>  <SCORE.SYSTEM.norm>
0

>  <SCORE.heavy>
27

>  <SCORE.norm>
-1.47773

>  <RMSD>
1.135

$$$$
lig.pdb
 OpenBabel11021811523D
libRbt.so/2013.1/901 2013/11/27
 27 30  0  0  0  0  0  0  0  0999 V2000
   27.7950   35.6771   19.8564 N   0  0  0  0  0  0  0  0  0  0  0  0
   27.7482   36.9587   20.1237 C   0  0  0  0  0  0  0  0  0  0  0  0
   27.4380   37.4877   21.3340 N   0  0  0  0  0  0  0  0  0  0  0  0
   27.1998   36.6383   22.3776 C   0  0  0  0  0  0  0  0  0  0  0  0
   27.2550   35.2861   22.1966 C   0  0  0  0  0  0  0  0  0  0  0  0
   27.5478   34.7658   20.8823 C   0  0  0  0  0  0  0  0  0  0  0  0
   27.5634   33.5549   20.6287 O   0  0  0  0  0  0  0  0  0  0  0  0
   27.8639   38.0426   19.0294 C   0  0  2  0  0  0  0  0  0  0  0  0
   28.4644   39.2229   19.8104 C   0  0  0  0  0  0  0  0  0  0  0  0
   28.4394   40.4599   19.0278 N   0  0  0  0  0  0  0  0  0  0  0  0
   27.0414   40.8169   18.7375 C   0  0  0  0  0  0  0  0  0  0  0  0
   26.3804   39.7540   17.8822 C   0  0  0  0  0  0  0  0  0  0  0  0
   26.4414   38.3923   18.5602 C   0  0  0  0  0  0  0  0  0  0  0  0
   26.9231   37.3466   23.6202 C   0  0  0  0  0  0  0  0  0  0  0  0
   26.1835   36.5569   24.9635 S   0  0  0  0  0  0  0  0  0  0  0  0
   26.1974   37.9627   25.8769 C   0  0  0  0  0  0  0  0  0  0  0  0
   26.7775   38.9778   25.2241 C   0  0  0  0  0  0  0  0  0  0  0  0
   27.1946   38.6445   23.9207 C   0  0  0  0  0  0  0  0  0  0  0  0
   29.1169   41.5669   19.7256 C   0  0  0  0  0  0  0  0  0  0  0  0
   28.5539   41.9287   21.0819 C   0  0  0  0  0  0  0  0  0  0  0  0
   29.1213   41.4352   22.2477 C   0  0  0  0  0  0  0  0  0  0  0  0
   28.4997   41.4060   23.4405 N   0  0  0  0  0  0  0  0  0  0  0  0
   27.2557   41.8602   23.4161 C   0  0  0  0  0  0  0  0  0  0  0  0
   26.5687   42.3213   22.3832 N   0  0  0  0  0  0  0  0  0  0  0  0
   27.2384   42.3202   21.2212 C   0  0  0  0  0  0  0  0  0  0  0  0
   26.6379   41.8213   24.6022 O   0  0  0  0  0  0  0  0  0  0  0  0
   27.0079   42.8075   25.5729 C   0  0  0  0  0  0  0  0  0  0  0  0
  1  2  2  0  0  0  0
  1  6  1  0  0  0  0
  2  3  1  0  0  0  0
  3  4  2  0  0  0  0
  4 14  1  0  0  0  0
  5  4  1  0  0  0  0
  6  5  1  0  0  0  0
  7  6  2  0  0  0  0
  8  9  1  0  0  0  0
  8  2  1  1  0  0  0
 10 19  1  0  0  0  0
 10  9  1  0  0  0  0
 11 10  1  0  0  0  0
 12 11  1  0  0  0  0
 12 13  1  0  0  0  0
 13  8  1  0  0  0  0
 14 15  1  0  0  0  0
 14 18  2  0  0  0  0
 15 16  1  0  0  0  0
 16 17  2  0  0  0  0
 18 17  1  0  0  0  0
 19 20  1  0  0  0  0
 20 25  2  0  0  0  0
 20 21  1  0  0  0  0
 21 22  2  0  0  0  0
 22 23  1  0  0  0  0
 23 26  1  0  0  0  0
 24 23  2  0  0  0  0
 25 24  1  0  0  0  0
 26 27  1  0  0  0  0
M  END
>  <CHROM.1>
163.24950208,-152.18616382,-58.81462502,97.07348748,75.19837429,27.35819576
38.93331787,21.91454530,-1.76875237,1.38414689,0.46567863

>  <Name>
lig.pdb

>  <RI>
0

>  <Rbt.Current_Directory>
/home/itssahil/PROJECTS/Mol_Feturizer/New_Systems/rnas/5kx9

>  <Rbt.Executable>
rbdock ($Id: //depot/dev/client3/rdock/2013.1/src/exe/rbdock.cxx#4 $)

>  <Rbt.Library>
libRbt.so (2013.1, Build901 2013/11/27)

>  <Rbt.Parameter_File>
/export/apps/rDock/src/rDock_2013.1_src/data/scripts/dock_solv.prm

>  <Rbt.Receptor>
prm/pocket_docking_2.prm

>  <SCORE>
-33.5758

>  <SCORE.INTER>
-32.1677

>  <SCORE.INTER.CONST>
1

>  <SCORE.INTER.POLAR>
0

>  <SCORE.INTER.ROT>
5

>  <SCORE.INTER.SOLV>
13.6227

>  <SCORE.INTER.VDW>
-32.9194

>  <SCORE.INTER.norm>
-1.1914

>  <SCORE.INTRA>
-1.82403

>  <SCORE.INTRA.DIHEDRAL>
4.65974

>  <SCORE.INTRA.DIHEDRAL.0>
2.68224

>  <SCORE.INTRA.POLAR>
0

>  <SCORE.INTRA.POLAR.0>
0

>  <SCORE.INTRA.REPUL>
0

>  <SCORE.INTRA.REPUL.0>
0

>  <SCORE.INTRA.SOLV>
0.488976

>  <SCORE.INTRA.SOLV.lig_0>
-19.4148

>  <SCORE.INTRA.VDW>
-4.39839

>  <SCORE.INTRA.VDW.0>
5.42093

>  <SCORE.INTRA.norm>
-0.0675568

>  <SCORE.RESTR>
0.415969

>  <SCORE.RESTR.CAVITY>
0.415969

>  <SCORE.RESTR.norm>
0.0154063

>  <SCORE.SYSTEM>
0

>  <SCORE.SYSTEM.CONST>
0

>  <SCORE.SYSTEM.DIHEDRAL>
0

>  <SCORE.SYSTEM.SOLV>
0

>  <SCORE.SYSTEM.norm>
0

>  <SCORE.heavy>
27

>  <SCORE.norm>
-1.24355

>  <RMSD>
1.138

$$$$
lig.pdb
 OpenBabel11021811523D
libRbt.so/2013.1/901 2013/11/27
 27 30  0  0  0  0  0  0  0  0999 V2000
   27.6666   34.9184   20.1695 N   0  0  0  0  0  0  0  0  0  0  0  0
   27.6979   36.2264   20.2363 C   0  0  0  0  0  0  0  0  0  0  0  0
   27.4144   36.9533   21.3464 N   0  0  0  0  0  0  0  0  0  0  0  0
   27.1183   36.2907   22.5042 C   0  0  0  0  0  0  0  0  0  0  0  0
   27.0905   34.9259   22.5336 C   0  0  0  0  0  0  0  0  0  0  0  0
   27.3577   34.1927   21.3192 C   0  0  0  0  0  0  0  0  0  0  0  0
   27.2995   32.9584   21.2546 O   0  0  0  0  0  0  0  0  0  0  0  0
   27.8867   37.1199   18.9906 C   0  0  2  0  0  0  0  0  0  0  0  0
   28.6301   38.3317   19.5757 C   0  0  0  0  0  0  0  0  0  0  0  0
   28.7050   39.4363   18.6179 N   0  0  0  0  0  0  0  0  0  0  0  0
   27.3417   39.8927   18.3027 C   0  0  0  0  0  0  0  0  0  0  0  0
   26.5476   38.7918   17.6278 C   0  0  0  0  0  0  0  0  0  0  0  0
   26.4923   37.5453   18.5001 C   0  0  0  0  0  0  0  0  0  0  0  0
   26.8791   37.1973   23.6192 C   0  0  0  0  0  0  0  0  0  0  0  0
   26.1482   36.6533   25.0837 S   0  0  0  0  0  0  0  0  0  0  0  0
   26.2079   38.1879   25.7562 C   0  0  0  0  0  0  0  0  0  0  0  0
   26.7968   39.0699   24.9387 C   0  0  0  0  0  0  0  0  0  0  0  0
   27.1829   38.5200   23.7008 C   0  0  0  0  0  0  0  0  0  0  0  0
   29.5147   40.5557   19.1302 C   0  0  0  0  0  0  0  0  0  0  0  0
   29.1308   41.0688   20.5002 C   0  0  0  0  0  0  0  0  0  0  0  0
   28.4502   42.2683   20.6510 C   0  0  0  0  0  0  0  0  0  0  0  0
   28.3845   42.9638   21.8007 N   0  0  0  0  0  0  0  0  0  0  0  0
   29.0678   42.4268   22.8003 C   0  0  0  0  0  0  0  0  0  0  0  0
   29.7928   41.3196   22.7997 N   0  0  0  0  0  0  0  0  0  0  0  0
   29.8253   40.6735   21.6248 C   0  0  0  0  0  0  0  0  0  0  0  0
   29.0073   43.1259   23.9395 O   0  0  0  0  0  0  0  0  0  0  0  0
   30.2380   43.3736   24.6292 C   0  0  0  0  0  0  0  0  0  0  0  0
  1  2  2  0  0  0  0
  1  6  1  0  0  0  0
  2  3  1  0  0  0  0
  3  4  2  0  0  0  0
  4 14  1  0  0  0  0
  5  4  1  0  0  0  0
  6  5  1  0  0  0  0
  7  6  2  0  0  0  0
  8  9  1  0  0  0  0
  8  2  1  1  0  0  0
 10 19  1  0  0  0  0
 10  9  1  0  0  0  0
 11 10  1  0  0  0  0
 12 11  1  0  0  0  0
 12 13  1  0  0  0  0
 13  8  1  0  0  0  0
 14 15  1  0  0  0  0
 14 18  2  0  0  0  0
 15 16  1  0  0  0  0
 16 17  2  0  0  0  0
 18 17  1  0  0  0  0
 19 20  1  0  0  0  0
 20 25  2  0  0  0  0
 20 21  1  0  0  0  0
 21 22  2  0  0  0  0
 22 23  1  0  0  0  0
 23 26  1  0  0  0  0
 24 23  2  0  0  0  0
 25 24  1  0  0  0  0
 26 27  1  0  0  0  0
M  END
>  <CHROM.1>
166.02560419,-148.95952858,-52.26221035,-105.12404301,-132.61312448,27.85080612
38.62803317,21.71340648,-2.70417085,1.24420621,1.22081249

>  <Name>
lig.pdb

>  <RI>
0

>  <Rbt.Current_Directory>
/home/itssahil/PROJECTS/Mol_Feturizer/New_Systems/rnas/5kx9

>  <Rbt.Executable>
rbdock ($Id: //depot/dev/client3/rdock/2013.1/src/exe/rbdock.cxx#4 $)

>  <Rbt.Library>
libRbt.so (2013.1, Build901 2013/11/27)

>  <Rbt.Parameter_File>
/export/apps/rDock/src/rDock_2013.1_src/data/scripts/dock_solv.prm

>  <Rbt.Receptor>
prm/pocket_docking_3.prm

>  <SCORE>
-39.4798

>  <SCORE.INTER>
-36.1472

>  <SCORE.INTER.CONST>
1

>  <SCORE.INTER.POLAR>
0

>  <SCORE.INTER.ROT>
5

>  <SCORE.INTER.SOLV>
16.2221

>  <SCORE.INTER.VDW>
-36.4388

>  <SCORE.INTER.norm>
-1.33879

>  <SCORE.INTRA>
-3.33262

>  <SCORE.INTRA.DIHEDRAL>
1.9294

>  <SCORE.INTRA.DIHEDRAL.0>
2.68224

>  <SCORE.INTRA.POLAR>
0

>  <SCORE.INTRA.POLAR.0>
0

>  <SCORE.INTRA.REPUL>
0

>  <SCORE.INTRA.REPUL.0>
0

>  <SCORE.INTRA.SOLV>
-0.43883

>  <SCORE.INTRA.SOLV.lig_0>
-19.4148

>  <SCORE.INTRA.VDW>
-4.0779

>  <SCORE.INTRA.VDW.0>
5.42093

>  <SCORE.INTRA.norm>
-0.12343

>  <SCORE.RESTR>
0

>  <SCORE.RESTR.CAVITY>
0

>  <SCORE.RESTR.norm>
0

>  <SCORE.SYSTEM>
0

>  <SCORE.SYSTEM.CONST>
0

>  <SCORE.SYSTEM.DIHEDRAL>
0

>  <SCORE.SYSTEM.SOLV>
0

>  <SCORE.SYSTEM.norm>
0

>  <SCORE.heavy>
27

>  <SCORE.norm>
-1.46222

>  <RMSD>
1.142

$$$$
lig.pdb
 OpenBabel11021811523D
libRbt.so/2013.1/901 2013/11/27
 27 30  0  0  0  0  0  0  0  0999 V2000
   27.6518   34.9222   20.0245 N   0  0  0  0  0  0  0  0  0  0  0  0
   27.6760   36.2294   20.1083 C   0  0  0  0  0  0  0  0  0  0  0  0
   27.4269   36.9389   21.2377 N   0  0  0  0  0  0  0  0  0  0  0  0
   27.1770   36.2584   22.3960 C   0  0  0  0  0  0  0  0  0  0  0  0
   27.1602   34.8932   22.4074 C   0  0  0  0  0  0  0  0  0  0  0  0
   27.3893   34.1786   21.1743 C   0  0  0  0  0  0  0  0  0  0  0  0
   27.3379   32.9449   21.0948 O   0  0  0  0  0  0  0  0  0  0  0  0
   27.8137   37.1411   18.8692 C   0  0  2  0  0  0  0  0  0  0  0  0
   28.5624   38.3538   19.4458 C   0  0  0  0  0  0  0  0  0  0  0  0
   28.5935   39.4715   18.5009 N   0  0  0  0  0  0  0  0  0  0  0  0
   27.2156   39.9161   18.2366 C   0  0  0  0  0  0  0  0  0  0  0  0
   26.4120   38.8150   17.5733 C   0  0  0  0  0  0  0  0  0  0  0  0
   26.3994   37.5567   18.4302 C   0  0  0  0  0  0  0  0  0  0  0  0
   26.9711   37.1479   23.5312 C   0  0  0  0  0  0  0  0  0  0  0  0
   26.2770   36.5832   25.0058 S   0  0  0  0  0  0  0  0  0  0  0  0
   26.3608   38.1067   25.7008 C   0  0  0  0  0  0  0  0  0  0  0  0
   26.9314   38.9995   24.8821 C   0  0  0  0  0  0  0  0  0  0  0  0
   27.2823   38.4680   23.6257 C   0  0  0  0  0  0  0  0  0  0  0  0
   29.4071   40.5935   19.0014 C   0  0  0  0  0  0  0  0  0  0  0  0
   29.0815   41.0657   20.4009 C   0  0  0  0  0  0  0  0  0  0  0  0
   28.1573   42.0771   20.6187 C   0  0  0  0  0  0  0  0  0  0  0  0
   28.0677   42.7909   21.7555 N   0  0  0  0  0  0  0  0  0  0  0  0
   28.9762   42.4773   22.6669 C   0  0  0  0  0  0  0  0  0  0  0  0
   29.9394   41.5730   22.5907 N   0  0  0  0  0  0  0  0  0  0  0  0
   29.9822   40.8982   21.4324 C   0  0  0  0  0  0  0  0  0  0  0  0
   28.8896   43.1954   23.7925 O   0  0  0  0  0  0  0  0  0  0  0  0
   27.7904   42.9205   24.6689 C   0  0  0  0  0  0  0  0  0  0  0  0
  1  2  2  0  0  0  0
  1  6  1  0  0  0  0
  2  3  1  0  0  0  0
  3  4  2  0  0  0  0
  4 14  1  0  0  0  0
  5  4  1  0  0  0  0
  6  5  1  0  0  0  0
  7  6  2  0  0  0  0
  8  9  1  0  0  0  0
  8  2  1  1  0  0  0
 10 19  1  0  0  0  0
 10  9  1  0  0  0  0
 11 10  1  0  0  0  0
 12 11  1  0  0  0  0
 12 13  1  0  0  0  0
 13  8  1  0  0  0  0
 14 15  1  0  0  0  0
 14 18  2  0  0  0  0
 15 16  1  0  0  0  0
 16 17  2  0  0  0  0
 18 17  1  0  0  0  0
 19 20  1  0  0  0  0
 20 25  2  0  0  0  0
 20 21  1  0  0  0  0
 21 22  2  0  0  0  0
 22 23  1  0  0  0  0
 23 26  1  0  0  0  0
 24 23  2  0  0  0  0
 25 24  1  0  0  0  0
 26 27  1  0  0  0  0
M  END
>  <CHROM.1>
165.18192658,-149.23386731,-51.06030208,-91.26106759,72.18441927,27.74173547
38.60721926,21.61168695,-2.55933358,1.29934515,1.07601803

>  <Name>
lig.pdb

>  <RI>
0

>  <Rbt.Current_Directory>
/home/itssahil/PROJECTS/Mol_Feturizer/New_Systems/rnas/5kx9

>  <Rbt.Executable>
rbdock ($Id: //depot/dev/client3/rdock/2013.1/src/exe/rbdock.cxx#4 $)

>  <Rbt.Library>
libRbt.so (2013.1, Build901 2013/11/27)

>  <Rbt.Parameter_File>
/export/apps/rDock/src/rDock_2013.1_src/data/scripts/dock_solv.prm

>  <Rbt.Receptor>
prm/pocket_docking_2.prm

>  <SCORE>
-37.931

>  <SCORE.INTER>
-35.2575

>  <SCORE.INTER.CONST>
1

>  <SCORE.INTER.POLAR>
0

>  <SCORE.INTER.ROT>
5

>  <SCORE.INTER.SOLV>
16.1708

>  <SCORE.INTER.VDW>
-35.8286

>  <SCORE.INTER.norm>
-1.30583

>  <SCORE.INTRA>
-3.03074

>  <SCORE.INTRA.DIHEDRAL>
3.87157

>  <SCORE.INTRA.DIHEDRAL.0>
2.68224

>  <SCORE.INTRA.POLAR>
0

>  <SCORE.INTRA.POLAR.0>
0

>  <SCORE.INTRA.REPUL>
0

>  <SCORE.INTRA.REPUL.0>
0

>  <SCORE.INTRA.SOLV>
-0.558924

>  <SCORE.INTRA.SOLV.lig_0>
-19.4148

>  <SCORE.INTRA.VDW>
-4.68706

>  <SCORE.INTRA.VDW.0>
5.42093

>  <SCORE.INTRA.norm>
-0.11225

>  <SCORE.RESTR>
0.357281

>  <SCORE.RESTR.CAVITY>
0.357281

>  <SCORE.RESTR.norm>
0.0132326

>  <SCORE.SYSTEM>
0

>  <SCORE.SYSTEM.CONST>
0

>  <SCORE.SYSTEM.DIHEDRAL>
0

>  <SCORE.SYSTEM.SOLV>
0

>  <SCORE.SYSTEM.norm>
0

>  <SCORE.heavy>
27

>  <SCORE.norm>
-1.40485

>  <RMSD>
1.156

$$$$
lig.pdb
 OpenBabel11021811523D
libRbt.so/2013.1/901 2013/11/27
 27 30  0  0  0  0  0  0  0  0999 V2000
   27.6279   34.8799   20.2466 N   0  0  0  0  0  0  0  0  0  0  0  0
   27.6491   36.1866   20.3371 C   0  0  0  0  0  0  0  0  0  0  0  0
   27.4000   36.8896   21.4706 N   0  0  0  0  0  0  0  0  0  0  0  0
   27.1534   36.2025   22.6257 C   0  0  0  0  0  0  0  0  0  0  0  0
   27.1398   34.8372   22.6300 C   0  0  0  0  0  0  0  0  0  0  0  0
   27.3689   34.1296   21.3929 C   0  0  0  0  0  0  0  0  0  0  0  0
   27.3202   32.8962   21.3069 O   0  0  0  0  0  0  0  0  0  0  0  0
   27.7829   37.1051   19.1026 C   0  0  2  0  0  0  0  0  0  0  0  0
   28.6113   38.2734   19.6613 C   0  0  0  0  0  0  0  0  0  0  0  0
   28.6601   39.3994   18.7270 N   0  0  0  0  0  0  0  0  0  0  0  0
   27.2962   39.9130   18.5214 C   0  0  0  0  0  0  0  0  0  0  0  0
   26.4150   38.8597   17.8793 C   0  0  0  0  0  0  0  0  0  0  0  0
   26.3744   37.5935   18.7237 C   0  0  0  0  0  0  0  0  0  0  0  0
   26.9471   37.0855   23.7658 C   0  0  0  0  0  0  0  0  0  0  0  0
   27.3170   38.7682   23.6826 S   0  0  0  0  0  0  0  0  0  0  0  0
   26.8594   39.0110   25.2771 C   0  0  0  0  0  0  0  0  0  0  0  0
   26.3993   37.8876   25.8422 C   0  0  0  0  0  0  0  0  0  0  0  0
   26.4494   36.7670   24.9903 C   0  0  0  0  0  0  0  0  0  0  0  0
   29.5460   40.4749   19.2062 C   0  0  0  0  0  0  0  0  0  0  0  0
   29.1980   41.0568   20.5582 C   0  0  0  0  0  0  0  0  0  0  0  0
   28.2891   42.0981   20.6774 C   0  0  0  0  0  0  0  0  0  0  0  0
   28.1877   42.8968   21.7552 N   0  0  0  0  0  0  0  0  0  0  0  0
   29.0690   42.6365   22.7092 C   0  0  0  0  0  0  0  0  0  0  0  0
   30.0158   41.7119   22.7240 N   0  0  0  0  0  0  0  0  0  0  0  0
   30.0716   40.9512   21.6208 C   0  0  0  0  0  0  0  0  0  0  0  0
   28.9709   43.4385   23.7755 O   0  0  0  0  0  0  0  0  0  0  0  0
   29.5265   42.9688   25.0093 C   0  0  0  0  0  0  0  0  0  0  0  0
  1  2  2  0  0  0  0
  1  6  1  0  0  0  0
  2  3  1  0  0  0  0
  3  4  2  0  0  0  0
  4 14  1  0  0  0  0
  5  4  1  0  0  0  0
  6  5  1  0  0  0  0
  7  6  2  0  0  0  0
  8  9  1  0  0  0  0
  8  2  1  1  0  0  0
 10 19  1  0  0  0  0
 10  9  1  0  0  0  0
 11 10  1  0  0  0  0
 12 11  1  0  0  0  0
 12 13  1  0  0  0  0
 13  8  1  0  0  0  0
 14 15  1  0  0  0  0
 14 18  2  0  0  0  0
 15 16  1  0  0  0  0
 16 17  2  0  0  0  0
 18 17  1  0  0  0  0
 19 20  1  0  0  0  0
 20 25  2  0  0  0  0
 20 21  1  0  0  0  0
 21 22  2  0  0  0  0
 22 23  1  0  0  0  0
 23 26  1  0  0  0  0
 24 23  2  0  0  0  0
 25 24  1  0  0  0  0
 26 27  1  0  0  0  0
M  END
>  <CHROM.1>
-12.06384708,-145.59964744,-57.89538839,-86.89825559,158.71310458,27.89606285
38.73102748,21.72382174,-2.68186147,1.28834353,1.28640409

>  <Name>
lig.pdb

>  <RI>
0

>  <Rbt.Current_Directory>
/home/itssahil/PROJECTS/Mol_Feturizer/New_Systems/rnas/5kx9

>  <Rbt.Executable>
rbdock ($Id: //depot/dev/client3/rdock/2013.1/src/exe/rbdock.cxx#4 $)

>  <Rbt.Library>
libRbt.so (2013.1, Build901 2013/11/27)

>  <Rbt.Parameter_File>
/export/apps/rDock/src/rDock_2013.1_src/data/scripts/dock_solv.prm

>  <Rbt.Receptor>
prm/pocket_docking_7.prm

>  <SCORE>
-39.3941

>  <SCORE.INTER>
-35.5972

>  <SCORE.INTER.CONST>
1

>  <SCORE.INTER.POLAR>
0

>  <SCORE.INTER.ROT>
5

>  <SCORE.INTER.SOLV>
16.2339

>  <SCORE.INTER.VDW>
-36.0761

>  <SCORE.INTER.norm>
-1.31841

>  <SCORE.INTRA>
-3.79694

>  <SCORE.INTRA.DIHEDRAL>
-0.144478

>  <SCORE.INTRA.DIHEDRAL.0>
2.68224

>  <SCORE.INTRA.POLAR>
0

>  <SCORE.INTRA.POLAR.0>
0

>  <SCORE.INTRA.REPUL>
0

>  <SCORE.INTRA.REPUL.0>
0

>  <SCORE.INTRA.SOLV>
-0.301779

>  <SCORE.INTRA.SOLV.lig_0>
-19.4148

>  <SCORE.INTRA.VDW>
-3.57381

>  <SCORE.INTRA.VDW.0>
5.42093

>  <SCORE.INTRA.norm>
-0.140627

>  <SCORE.RESTR>
0

>  <SCORE.RESTR.CAVITY>
0

>  <SCORE.RESTR.norm>
0

>  <SCORE.SYSTEM>
0

>  <SCORE.SYSTEM.CONST>
0

>  <SCORE.SYSTEM.DIHEDRAL>
0

>  <SCORE.SYSTEM.SOLV>
0

>  <SCORE.SYSTEM.norm>
0

>  <SCORE.heavy>
27

>  <SCORE.norm>
-1.45904

>  <RMSD>
1.158

$$$$
lig.pdb
 OpenBabel11021811523D
libRbt.so/2013.1/901 2013/11/27
 27 30  0  0  0  0  0  0  0  0999 V2000
   27.6334   34.9088   20.2560 N   0  0  0  0  0  0  0  0  0  0  0  0
   27.6471   36.2142   20.3650 C   0  0  0  0  0  0  0  0  0  0  0  0
   27.3720   36.9004   21.5027 N   0  0  0  0  0  0  0  0  0  0  0  0
   27.1047   36.1963   22.6429 C   0  0  0  0  0  0  0  0  0  0  0  0
   27.0969   34.8310   22.6281 C   0  0  0  0  0  0  0  0  0  0  0  0
   27.3541   34.1416   21.3862 C   0  0  0  0  0  0  0  0  0  0  0  0
   27.3124   32.9094   21.2822 O   0  0  0  0  0  0  0  0  0  0  0  0
   27.8023   37.1504   19.1463 C   0  0  2  0  0  0  0  0  0  0  0  0
   28.6119   38.3153   19.7387 C   0  0  0  0  0  0  0  0  0  0  0  0
   28.6744   39.4543   18.8210 N   0  0  0  0  0  0  0  0  0  0  0  0
   27.3123   39.9633   18.5931 C   0  0  0  0  0  0  0  0  0  0  0  0
   26.4511   38.9142   17.9178 C   0  0  0  0  0  0  0  0  0  0  0  0
   26.3995   37.6364   18.7437 C   0  0  0  0  0  0  0  0  0  0  0  0
   26.8714   37.0626   23.7907 C   0  0  0  0  0  0  0  0  0  0  0  0
   27.2200   38.7508   23.7327 S   0  0  0  0  0  0  0  0  0  0  0  0
   26.7379   38.9681   25.3237 C   0  0  0  0  0  0  0  0  0  0  0  0
   26.2853   37.8319   25.8690 C   0  0  0  0  0  0  0  0  0  0  0  0
   26.3617   36.7226   25.0044 C   0  0  0  0  0  0  0  0  0  0  0  0
   29.5436   40.5279   19.3340 C   0  0  0  0  0  0  0  0  0  0  0  0
   29.1622   41.0905   20.6850 C   0  0  0  0  0  0  0  0  0  0  0  0
   28.5022   42.3059   20.7944 C   0  0  0  0  0  0  0  0  0  0  0  0
   28.4432   43.0383   21.9213 N   0  0  0  0  0  0  0  0  0  0  0  0
   29.1120   42.5212   22.9410 C   0  0  0  0  0  0  0  0  0  0  0  0
   29.8172   41.4019   22.9790 N   0  0  0  0  0  0  0  0  0  0  0  0
   29.8441   40.7187   21.8253 C   0  0  0  0  0  0  0  0  0  0  0  0
   29.0584   43.2568   24.0573 O   0  0  0  0  0  0  0  0  0  0  0  0
   30.2586   43.3735   24.8303 C   0  0  0  0  0  0  0  0  0  0  0  0
  1  2  2  0  0  0  0
  1  6  1  0  0  0  0
  2  3  1  0  0  0  0
  3  4  2  0  0  0  0
  4 14  1  0  0  0  0
  5  4  1  0  0  0  0
  6  5  1  0  0  0  0
  7  6  2  0  0  0  0
  8  9  1  0  0  0  0
  8  2  1  1  0  0  0
 10 19  1  0  0  0  0
 10  9  1  0  0  0  0
 11 10  1  0  0  0  0
 12 11  1  0  0  0  0
 12 13  1  0  0  0  0
 13  8  1  0  0  0  0
 14 15  1  0  0  0  0
 14 18  2  0  0  0  0
 15 16  1  0  0  0  0
 16 17  2  0  0  0  0
 18 17  1  0  0  0  0
 19 20  1  0  0  0  0
 20 25  2  0  0  0  0
 20 21  1  0  0  0  0
 21 22  2  0  0  0  0
 22 23  1  0  0  0  0
 23 26  1  0  0  0  0
 24 23  2  0  0  0  0
 25 24  1  0  0  0  0
 26 27  1  0  0  0  0
M  END
>  <CHROM.1>
-11.39701078,-145.70389288,-57.98009789,-102.07345137,-139.78707825,27.90795674
38.73796698,21.79282676,-2.69656157,1.26576492,1.31545064

>  <Name>
lig.pdb

>  <RI>
0

>  <Rbt.Current_Directory>
/home/itssahil/PROJECTS/Mol_Feturizer/New_Systems/rnas/5kx9

>  <Rbt.Executable>
rbdock ($Id: //depot/dev/client3/rdock/2013.1/src/exe/rbdock.cxx#4 $)

>  <Rbt.Library>
libRbt.so (2013.1, Build901 2013/11/27)

>  <Rbt.Parameter_File>
/export/apps/rDock/src/rDock_2013.1_src/data/scripts/dock_solv.prm

>  <Rbt.Receptor>
prm/pocket_docking_3.prm

>  <SCORE>
-39.9173

>  <SCORE.INTER>
-35.7425

>  <SCORE.INTER.CONST>
1

>  <SCORE.INTER.POLAR>
0

>  <SCORE.INTER.ROT>
5

>  <SCORE.INTER.SOLV>
16.0441

>  <SCORE.INTER.VDW>
-36.1097

>  <SCORE.INTER.norm>
-1.3238

>  <SCORE.INTRA>
-4.17479

>  <SCORE.INTRA.DIHEDRAL>
0.993687

>  <SCORE.INTRA.DIHEDRAL.0>
2.68224

>  <SCORE.INTRA.POLAR>
0

>  <SCORE.INTRA.POLAR.0>
0

>  <SCORE.INTRA.REPUL>
0

>  <SCORE.INTRA.REPUL.0>
0

>  <SCORE.INTRA.SOLV>
-0.257426

>  <SCORE.INTRA.SOLV.lig_0>
-19.4148

>  <SCORE.INTRA.VDW>
-4.54292

>  <SCORE.INTRA.VDW.0>
5.42093

>  <SCORE.INTRA.norm>
-0.154622

>  <SCORE.RESTR>
0

>  <SCORE.RESTR.CAVITY>
0

>  <SCORE.RESTR.norm>
0

>  <SCORE.SYSTEM>
0

>  <SCORE.SYSTEM.CONST>
0

>  <SCORE.SYSTEM.DIHEDRAL>
0

>  <SCORE.SYSTEM.SOLV>
0

>  <SCORE.SYSTEM.norm>
0

>  <SCORE.heavy>
27

>  <SCORE.norm>
-1.47842

>  <RMSD>
1.160

$$$$
lig.pdb
 OpenBabel11021811523D
libRbt.so/2013.1/901 2013/11/27
 27 30  0  0  0  0  0  0  0  0999 V2000
   28.3895   35.9975   18.7474 N   0  0  0  0  0  0  0  0  0  0  0  0
   28.7416   37.0134   19.4959 C   0  0  0  0  0  0  0  0  0  0  0  0
   28.3060   37.2314   20.7623 N   0  0  0  0  0  0  0  0  0  0  0  0
   27.4752   36.3107   21.3360 C   0  0  0  0  0  0  0  0  0  0  0  0
   27.0791   35.2057   20.6386 C   0  0  0  0  0  0  0  0  0  0  0  0
   27.5332   35.0342   19.2791 C   0  0  0  0  0  0  0  0  0  0  0  0
   27.1755   34.0877   18.5671 O   0  0  0  0  0  0  0  0  0  0  0  0
   29.5658   38.2017   18.9534 C   0  0  2  0  0  0  0  0  0  0  0  0
   28.7778   39.4084   19.4885 C   0  0  0  0  0  0  0  0  0  0  0  0
   29.2373   40.6640   18.8921 N   0  0  0  0  0  0  0  0  0  0  0  0
   29.0029   40.6204   17.4397 C   0  0  0  0  0  0  0  0  0  0  0  0
   29.8167   39.5155   16.7955 C   0  0  0  0  0  0  0  0  0  0  0  0
   29.4915   38.1646   17.4175 C   0  0  0  0  0  0  0  0  0  0  0  0
   27.1257   36.6542   22.7078 C   0  0  0  0  0  0  0  0  0  0  0  0
   26.2485   35.5634   23.7157 S   0  0  0  0  0  0  0  0  0  0  0  0
   26.2424   36.6503   24.9923 C   0  0  0  0  0  0  0  0  0  0  0  0
   26.9131   37.7713   24.6982 C   0  0  0  0  0  0  0  0  0  0  0  0
   27.4220   37.7953   23.3851 C   0  0  0  0  0  0  0  0  0  0  0  0
   28.5655   41.8338   19.4850 C   0  0  0  0  0  0  0  0  0  0  0  0
   28.6440   41.9406   20.9916 C   0  0  0  0  0  0  0  0  0  0  0  0
   27.6300   42.5446   21.7206 C   0  0  0  0  0  0  0  0  0  0  0  0
   27.7669   42.9961   22.9805 N   0  0  0  0  0  0  0  0  0  0  0  0
   28.9858   42.8542   23.4790 C   0  0  0  0  0  0  0  0  0  0  0  0
   30.0575   42.3398   22.8972 N   0  0  0  0  0  0  0  0  0  0  0  0
   29.8609   41.9128   21.6411 C   0  0  0  0  0  0  0  0  0  0  0  0
   29.1203   43.3124   24.7288 O   0  0  0  0  0  0  0  0  0  0  0  0
   30.4388   43.6609   25.1668 C   0  0  0  0  0  0  0  0  0  0  0  0
  1  2  2  0  0  0  0
  1  6  1  0  0  0  0
  2  3  1  0  0  0  0
  3  4  2  0  0  0  0
  4 14  1  0  0  0  0
  5  4  1  0  0  0  0
  6  5  1  0  0  0  0
  7  6  2  0  0  0  0
  8  9  1  0  0  0  0
  8  2  1  1  0  0  0
 10 19  1  0  0  0  0
 10  9  1  0  0  0  0
 11 10  1  0  0  0  0
 12 11  1  0  0  0  0
 12 13  1  0  0  0  0
 13  8  1  0  0  0  0
 14 15  1  0  0  0  0
 14 18  2  0  0  0  0
 15 16  1  0  0  0  0
 16 17  2  0  0  0  0
 18 17  1  0  0  0  0
 19 20  1  0  0  0  0
 20 25  2  0  0  0  0
 20 21  1  0  0  0  0
 21 22  2  0  0  0  0
 22 23  1  0  0  0  0
 23 26  1  0  0  0  0
 24 23  2  0  0  0  0
 25 24  1  0  0  0  0
 26 27  1  0  0  0  0
M  END
>  <CHROM.1>
-172.44389978,132.59863826,54.04472636,-149.73107898,-157.42662875,28.27533083
38.95065177,21.23837674,-2.17849054,1.17263578,0.91608253

>  <Name>
lig.pdb

>  <RI>
0

>  <Rbt.Current_Directory>
/home/itssahil/PROJECTS/Mol_Feturizer/New_Systems/rnas/5kx9

>  <Rbt.Executable>
rbdock ($Id: //depot/dev/client3/rdock/2013.1/src/exe/rbdock.cxx#4 $)

>  <Rbt.Library>
libRbt.so (2013.1, Build901 2013/11/27)

>  <Rbt.Parameter_File>
/export/apps/rDock/src/rDock_2013.1_src/data/scripts/dock_solv.prm

>  <Rbt.Receptor>
prm/pocket_docking_6.prm

>  <SCORE>
-38.413

>  <SCORE.INTER>
-36.2996

>  <SCORE.INTER.CONST>
1

>  <SCORE.INTER.POLAR>
0

>  <SCORE.INTER.ROT>
5

>  <SCORE.INTER.SOLV>
14.957

>  <SCORE.INTER.VDW>
-36.1188

>  <SCORE.INTER.norm>
-1.34443

>  <SCORE.INTRA>
-2.11331

>  <SCORE.INTRA.DIHEDRAL>
0.452109

>  <SCORE.INTRA.DIHEDRAL.0>
2.68224

>  <SCORE.INTRA.POLAR>
0

>  <SCORE.INTRA.POLAR.0>
0

>  <SCORE.INTRA.REPUL>
0

>  <SCORE.INTRA.REPUL.0>
0

>  <SCORE.INTRA.SOLV>
-0.597408

>  <SCORE.INTRA.SOLV.lig_0>
-19.4148

>  <SCORE.INTRA.VDW>
-2.04066

>  <SCORE.INTRA.VDW.0>
5.42093

>  <SCORE.INTRA.norm>
-0.0782708

>  <SCORE.RESTR>
0

>  <SCORE.RESTR.CAVITY>
0

>  <SCORE.RESTR.norm>
0

>  <SCORE.SYSTEM>
0

>  <SCORE.SYSTEM.CONST>
0

>  <SCORE.SYSTEM.DIHEDRAL>
0

>  <SCORE.SYSTEM.SOLV>
0

>  <SCORE.SYSTEM.norm>
0

>  <SCORE.heavy>
27

>  <SCORE.norm>
-1.4227

>  <RMSD>
1.165

$$$$
lig.pdb
 OpenBabel11021811523D
libRbt.so/2013.1/901 2013/11/27
 27 30  0  0  0  0  0  0  0  0999 V2000
   27.6481   34.8036   20.2078 N   0  0  0  0  0  0  0  0  0  0  0  0
   27.6626   36.1109   20.2910 C   0  0  0  0  0  0  0  0  0  0  0  0
   27.3839   36.8198   21.4139 N   0  0  0  0  0  0  0  0  0  0  0  0
   27.1120   36.1386   22.5668 C   0  0  0  0  0  0  0  0  0  0  0  0
   27.1031   34.7733   22.5791 C   0  0  0  0  0  0  0  0  0  0  0  0
   27.3642   34.0592   21.3521 C   0  0  0  0  0  0  0  0  0  0  0  0
   27.3220   32.8252   21.2725 O   0  0  0  0  0  0  0  0  0  0  0  0
   27.8228   37.0225   19.0545 C   0  0  2  0  0  0  0  0  0  0  0  0
   28.5986   38.2160   19.6352 C   0  0  0  0  0  0  0  0  0  0  0  0
   28.6567   39.3352   18.6933 N   0  0  0  0  0  0  0  0  0  0  0  0
   27.2897   39.8123   18.4289 C   0  0  0  0  0  0  0  0  0  0  0  0
   26.4616   38.7319   17.7617 C   0  0  0  0  0  0  0  0  0  0  0  0
   26.4189   37.4720   18.6152 C   0  0  0  0  0  0  0  0  0  0  0  0
   26.8753   37.0277   23.6963 C   0  0  0  0  0  0  0  0  0  0  0  0
   27.2416   38.7111   23.6119 S   0  0  0  0  0  0  0  0  0  0  0  0
   26.7448   38.9617   25.1935 C   0  0  0  0  0  0  0  0  0  0  0  0
   26.2749   37.8402   25.7540 C   0  0  0  0  0  0  0  0  0  0  0  0
   26.3492   36.7147   24.9103 C   0  0  0  0  0  0  0  0  0  0  0  0
   29.4955   40.4367   19.1978 C   0  0  0  0  0  0  0  0  0  0  0  0
   29.1117   40.9841   20.5545 C   0  0  0  0  0  0  0  0  0  0  0  0
   28.4395   42.1916   20.6757 C   0  0  0  0  0  0  0  0  0  0  0  0
   28.3758   42.9139   21.8089 N   0  0  0  0  0  0  0  0  0  0  0  0
   29.0526   42.3953   22.8225 C   0  0  0  0  0  0  0  0  0  0  0  0
   29.7696   41.2832   22.8494 N   0  0  0  0  0  0  0  0  0  0  0  0
   29.8005   40.6099   21.6898 C   0  0  0  0  0  0  0  0  0  0  0  0
   28.9943   43.1210   23.9450 O   0  0  0  0  0  0  0  0  0  0  0  0
   30.2220   43.3569   24.6441 C   0  0  0  0  0  0  0  0  0  0  0  0
  1  2  2  0  0  0  0
  1  6  1  0  0  0  0
  2  3  1  0  0  0  0
  3  4  2  0  0  0  0
  4 14  1  0  0  0  0
  5  4  1  0  0  0  0
  6  5  1  0  0  0  0
  7  6  2  0  0  0  0
  8  9  1  0  0  0  0
  8  2  1  1  0  0  0
 10 19  1  0  0  0  0
 10  9  1  0  0  0  0
 11 10  1  0  0  0  0
 12 11  1  0  0  0  0
 12 13  1  0  0  0  0
 13  8  1  0  0  0  0
 14 15  1  0  0  0  0
 14 18  2  0  0  0  0
 15 16  1  0  0  0  0
 16 17  2  0  0  0  0
 18 17  1  0  0  0  0
 19 20  1  0  0  0  0
 20 25  2  0  0  0  0
 20 21  1  0  0  0  0
 21 22  2  0  0  0  0
 22 23  1  0  0  0  0
 23 26  1  0  0  0  0
 24 23  2  0  0  0  0
 25 24  1  0  0  0  0
 26 27  1  0  0  0  0
M  END
>  <CHROM.1>
-12.07982569,-147.14991544,-55.58779743,-103.56537378,-133.61989721,27.89468608
38.64939949,21.68505824,-2.67605893,1.27271334,1.29856929

>  <Name>
lig.pdb

>  <RI>
0

>  <Rbt.Current_Directory>
/home/itssahil/PROJECTS/Mol_Feturizer/New_Systems/rnas/5kx9

>  <Rbt.Executable>
rbdock ($Id: //depot/dev/client3/rdock/2013.1/src/exe/rbdock.cxx#4 $)

>  <Rbt.Library>
libRbt.so (2013.1, Build901 2013/11/27)

>  <Rbt.Parameter_File>
/export/apps/rDock/src/rDock_2013.1_src/data/scripts/dock_solv.prm

>  <Rbt.Receptor>
prm/pocket_docking_3.prm

>  <SCORE>
-39.8631

>  <SCORE.INTER>
-35.7687

>  <SCORE.INTER.CONST>
1

>  <SCORE.INTER.POLAR>
0

>  <SCORE.INTER.ROT>
5

>  <SCORE.INTER.SOLV>
15.7235

>  <SCORE.INTER.VDW>
-36.0203

>  <SCORE.INTER.norm>
-1.32477

>  <SCORE.INTRA>
-4.09437

>  <SCORE.INTRA.DIHEDRAL>
1.59465

>  <SCORE.INTRA.DIHEDRAL.0>
2.68224

>  <SCORE.INTRA.POLAR>
0

>  <SCORE.INTRA.POLAR.0>
0

>  <SCORE.INTRA.REPUL>
0

>  <SCORE.INTRA.REPUL.0>
0

>  <SCORE.INTRA.SOLV>
-0.197512

>  <SCORE.INTRA.SOLV.lig_0>
-19.4148

>  <SCORE.INTRA.VDW>
-4.79294

>  <SCORE.INTRA.VDW.0>
5.42093

>  <SCORE.INTRA.norm>
-0.151643

>  <SCORE.RESTR>
0

>  <SCORE.RESTR.CAVITY>
0

>  <SCORE.RESTR.norm>
0

>  <SCORE.SYSTEM>
0

>  <SCORE.SYSTEM.CONST>
0

>  <SCORE.SYSTEM.DIHEDRAL>
0

>  <SCORE.SYSTEM.SOLV>
0

>  <SCORE.SYSTEM.norm>
0

>  <SCORE.heavy>
27

>  <SCORE.norm>
-1.47641

>  <RMSD>
1.168

$$$$
lig.pdb
 OpenBabel11021811523D
libRbt.so/2013.1/901 2013/11/27
 27 30  0  0  0  0  0  0  0  0999 V2000
   27.6650   34.8856   20.1582 N   0  0  0  0  0  0  0  0  0  0  0  0
   27.7038   36.1943   20.2053 C   0  0  0  0  0  0  0  0  0  0  0  0
   27.4401   36.9388   21.3085 N   0  0  0  0  0  0  0  0  0  0  0  0
   27.1576   36.2948   22.4801 C   0  0  0  0  0  0  0  0  0  0  0  0
   27.1234   34.9307   22.5300 C   0  0  0  0  0  0  0  0  0  0  0  0
   27.3692   34.1784   21.3228 C   0  0  0  0  0  0  0  0  0  0  0  0
   27.3039   32.9437   21.2772 O   0  0  0  0  0  0  0  0  0  0  0  0
   27.8788   37.0684   18.9440 C   0  0  2  0  0  0  0  0  0  0  0  0
   28.6363   38.2850   19.5004 C   0  0  0  0  0  0  0  0  0  0  0  0
   28.7027   39.3750   18.5254 N   0  0  0  0  0  0  0  0  0  0  0  0
   27.3372   39.8335   18.2231 C   0  0  0  0  0  0  0  0  0  0  0  0
   26.5282   38.7267   17.5759 C   0  0  0  0  0  0  0  0  0  0  0  0
   26.4796   37.4935   18.4673 C   0  0  0  0  0  0  0  0  0  0  0  0
   26.9392   37.2188   23.5850 C   0  0  0  0  0  0  0  0  0  0  0  0
   26.3374   36.6779   25.1082 S   0  0  0  0  0  0  0  0  0  0  0  0
   26.3519   38.2325   25.7359 C   0  0  0  0  0  0  0  0  0  0  0  0
   26.8346   39.1217   24.8588 C   0  0  0  0  0  0  0  0  0  0  0  0
   27.1707   38.5583   23.6124 C   0  0  0  0  0  0  0  0  0  0  0  0
   29.5250   40.4978   19.0096 C   0  0  0  0  0  0  0  0  0  0  0  0
   29.1664   41.0297   20.3792 C   0  0  0  0  0  0  0  0  0  0  0  0
   28.3749   42.1598   20.5241 C   0  0  0  0  0  0  0  0  0  0  0  0
   28.3012   42.8954   21.6481 N   0  0  0  0  0  0  0  0  0  0  0  0
   29.0905   42.4749   22.6252 C   0  0  0  0  0  0  0  0  0  0  0  0
   29.9249   41.4476   22.6239 N   0  0  0  0  0  0  0  0  0  0  0  0
   29.9591   40.7567   21.4749 C   0  0  0  0  0  0  0  0  0  0  0  0
   29.0211   43.2141   23.7382 O   0  0  0  0  0  0  0  0  0  0  0  0
   30.2173   43.3555   24.5134 C   0  0  0  0  0  0  0  0  0  0  0  0
  1  2  2  0  0  0  0
  1  6  1  0  0  0  0
  2  3  1  0  0  0  0
  3  4  2  0  0  0  0
  4 14  1  0  0  0  0
  5  4  1  0  0  0  0
  6  5  1  0  0  0  0
  7  6  2  0  0  0  0
  8  9  1  0  0  0  0
  8  2  1  1  0  0  0
 10 19  1  0  0  0  0
 10  9  1  0  0  0  0
 11 10  1  0  0  0  0
 12 11  1  0  0  0  0
 12 13  1  0  0  0  0
 13  8  1  0  0  0  0
 14 15  1  0  0  0  0
 14 18  2  0  0  0  0
 15 16  1  0  0  0  0
 16 17  2  0  0  0  0
 18 17  1  0  0  0  0
 19 20  1  0  0  0  0
 20 25  2  0  0  0  0
 20 21  1  0  0  0  0
 21 22  2  0  0  0  0
 22 23  1  0  0  0  0
 23 26  1  0  0  0  0
 24 23  2  0  0  0  0
 25 24  1  0  0  0  0
 26 27  1  0  0  0  0
M  END
>  <CHROM.1>
170.69107927,-148.97746317,-52.05677938,-98.41815502,-146.74517759,27.88256469
38.62215525,21.64364268,-2.74921995,1.25470489,1.24903428

>  <Name>
lig.pdb

>  <RI>
0

>  <Rbt.Current_Directory>
/home/itssahil/PROJECTS/Mol_Feturizer/New_Systems/rnas/5kx9

>  <Rbt.Executable>
rbdock ($Id: //depot/dev/client3/rdock/2013.1/src/exe/rbdock.cxx#4 $)

>  <Rbt.Library>
libRbt.so (2013.1, Build901 2013/11/27)

>  <Rbt.Parameter_File>
/export/apps/rDock/src/rDock_2013.1_src/data/scripts/dock_solv.prm

>  <Rbt.Receptor>
prm/blind_docking_80.prm

>  <SCORE>
-39.7386

>  <SCORE.INTER>
-36.3457

>  <SCORE.INTER.CONST>
1

>  <SCORE.INTER.POLAR>
0

>  <SCORE.INTER.ROT>
5

>  <SCORE.INTER.SOLV>
16.3875

>  <SCORE.INTER.VDW>
-36.6263

>  <SCORE.INTER.norm>
-1.34614

>  <SCORE.INTRA>
-3.39287

>  <SCORE.INTRA.DIHEDRAL>
0.388045

>  <SCORE.INTRA.DIHEDRAL.0>
2.68224

>  <SCORE.INTRA.POLAR>
0

>  <SCORE.INTRA.POLAR.0>
0

>  <SCORE.INTRA.REPUL>
0

>  <SCORE.INTRA.REPUL.0>
0

>  <SCORE.INTRA.SOLV>
-0.51024

>  <SCORE.INTRA.SOLV.lig_0>
-19.4148

>  <SCORE.INTRA.VDW>
-3.33177

>  <SCORE.INTRA.VDW.0>
5.42093

>  <SCORE.INTRA.norm>
-0.125662

>  <SCORE.RESTR>
0

>  <SCORE.RESTR.CAVITY>
0

>  <SCORE.RESTR.norm>
0

>  <SCORE.SYSTEM>
0

>  <SCORE.SYSTEM.CONST>
0

>  <SCORE.SYSTEM.DIHEDRAL>
0

>  <SCORE.SYSTEM.SOLV>
0

>  <SCORE.SYSTEM.norm>
0

>  <SCORE.heavy>
27

>  <SCORE.norm>
-1.4718

>  <RMSD>
1.173

$$$$
lig.pdb
 OpenBabel11021811523D
libRbt.so/2013.1/901 2013/11/27
 27 30  0  0  0  0  0  0  0  0999 V2000
   27.6391   34.8264   20.2753 N   0  0  0  0  0  0  0  0  0  0  0  0
   27.6630   36.1330   20.3671 C   0  0  0  0  0  0  0  0  0  0  0  0
   27.3830   36.8366   21.4929 N   0  0  0  0  0  0  0  0  0  0  0  0
   27.0989   36.1502   22.6397 C   0  0  0  0  0  0  0  0  0  0  0  0
   27.0795   34.7849   22.6430 C   0  0  0  0  0  0  0  0  0  0  0  0
   27.3426   34.0768   21.4129 C   0  0  0  0  0  0  0  0  0  0  0  0
   27.2913   32.8437   21.3250 O   0  0  0  0  0  0  0  0  0  0  0  0
   27.8377   37.0513   19.1376 C   0  0  2  0  0  0  0  0  0  0  0  0
   28.6424   38.2224   19.7246 C   0  0  0  0  0  0  0  0  0  0  0  0
   28.7208   39.3481   18.7920 N   0  0  0  0  0  0  0  0  0  0  0  0
   27.3635   39.8574   18.5379 C   0  0  0  0  0  0  0  0  0  0  0  0
   26.5088   38.8012   17.8656 C   0  0  0  0  0  0  0  0  0  0  0  0
   26.4421   37.5353   18.7087 C   0  0  0  0  0  0  0  0  0  0  0  0
   26.8622   37.0337   23.7735 C   0  0  0  0  0  0  0  0  0  0  0  0
   27.2360   38.7159   23.7002 S   0  0  0  0  0  0  0  0  0  0  0  0
   26.7349   38.9595   25.2814 C   0  0  0  0  0  0  0  0  0  0  0  0
   26.2584   37.8368   25.8339 C   0  0  0  0  0  0  0  0  0  0  0  0
   26.3307   36.7159   24.9840 C   0  0  0  0  0  0  0  0  0  0  0  0
   29.5859   40.4265   19.3017 C   0  0  0  0  0  0  0  0  0  0  0  0
   29.1841   41.0132   20.6365 C   0  0  0  0  0  0  0  0  0  0  0  0
   28.4439   42.1842   20.7106 C   0  0  0  0  0  0  0  0  0  0  0  0
   28.3492   42.9535   21.8102 N   0  0  0  0  0  0  0  0  0  0  0  0
   29.0647   42.5223   22.8381 C   0  0  0  0  0  0  0  0  0  0  0  0
   29.8454   41.4559   22.9071 N   0  0  0  0  0  0  0  0  0  0  0  0
   29.9043   40.7324   21.7793 C   0  0  0  0  0  0  0  0  0  0  0  0
   28.9751   43.2948   23.9269 O   0  0  0  0  0  0  0  0  0  0  0  0
   30.1581   43.4641   24.7165 C   0  0  0  0  0  0  0  0  0  0  0  0
  1  2  2  0  0  0  0
  1  6  1  0  0  0  0
  2  3  1  0  0  0  0
  3  4  2  0  0  0  0
  4 14  1  0  0  0  0
  5  4  1  0  0  0  0
  6  5  1  0  0  0  0
  7  6  2  0  0  0  0
  8  9  1  0  0  0  0
  8  2  1  1  0  0  0
 10 19  1  0  0  0  0
 10  9  1  0  0  0  0
 11 10  1  0  0  0  0
 12 11  1  0  0  0  0
 12 13  1  0  0  0  0
 13  8  1  0  0  0  0
 14 15  1  0  0  0  0
 14 18  2  0  0  0  0
 15 16  1  0  0  0  0
 16 17  2  0  0  0  0
 18 17  1  0  0  0  0
 19 20  1  0  0  0  0
 20 25  2  0  0  0  0
 20 21  1  0  0  0  0
 21 22  2  0  0  0  0
 22 23  1  0  0  0  0
 23 26  1  0  0  0  0
 24 23  2  0  0  0  0
 25 24  1  0  0  0  0
 26 27  1  0  0  0  0
M  END
>  <CHROM.1>
-11.82650342,-146.12060761,-58.22465679,-97.39271017,-143.05065377,27.90654444
38.68992086,21.75573145,-2.65286881,1.26579876,1.25504156

>  <Name>
lig.pdb

>  <RI>
0

>  <Rbt.Current_Directory>
/home/itssahil/PROJECTS/Mol_Feturizer/New_Systems/rnas/5kx9

>  <Rbt.Executable>
rbdock ($Id: //depot/dev/client3/rdock/2013.1/src/exe/rbdock.cxx#4 $)

>  <Rbt.Library>
libRbt.so (2013.1, Build901 2013/11/27)

>  <Rbt.Parameter_File>
/export/apps/rDock/src/rDock_2013.1_src/data/scripts/dock_solv.prm

>  <Rbt.Receptor>
prm/pocket_docking_3.prm

>  <SCORE>
-39.9231

>  <SCORE.INTER>
-35.8736

>  <SCORE.INTER.CONST>
1

>  <SCORE.INTER.POLAR>
0

>  <SCORE.INTER.ROT>
5

>  <SCORE.INTER.SOLV>
16.2381

>  <SCORE.INTER.VDW>
-36.2618

>  <SCORE.INTER.norm>
-1.32865

>  <SCORE.INTRA>
-4.04952

>  <SCORE.INTRA.DIHEDRAL>
0.773064

>  <SCORE.INTRA.DIHEDRAL.0>
2.68224

>  <SCORE.INTRA.POLAR>
0

>  <SCORE.INTRA.POLAR.0>
0

>  <SCORE.INTRA.REPUL>
0

>  <SCORE.INTRA.REPUL.0>
0

>  <SCORE.INTRA.SOLV>
-0.270275

>  <SCORE.INTRA.SOLV.lig_0>
-19.4148

>  <SCORE.INTRA.VDW>
-4.30091

>  <SCORE.INTRA.VDW.0>
5.42093

>  <SCORE.INTRA.norm>
-0.149982

>  <SCORE.RESTR>
0

>  <SCORE.RESTR.CAVITY>
0

>  <SCORE.RESTR.norm>
0

>  <SCORE.SYSTEM>
0

>  <SCORE.SYSTEM.CONST>
0

>  <SCORE.SYSTEM.DIHEDRAL>
0

>  <SCORE.SYSTEM.SOLV>
0

>  <SCORE.SYSTEM.norm>
0

>  <SCORE.heavy>
27

>  <SCORE.norm>
-1.47863

>  <RMSD>
1.179

$$$$
lig.pdb
 OpenBabel11021811523D
libRbt.so/2013.1/901 2013/11/27
 27 30  0  0  0  0  0  0  0  0999 V2000
   27.6579   34.8900   20.1609 N   0  0  0  0  0  0  0  0  0  0  0  0
   27.6915   36.1985   20.2163 C   0  0  0  0  0  0  0  0  0  0  0  0
   27.4264   36.9349   21.3246 N   0  0  0  0  0  0  0  0  0  0  0  0
   27.1480   36.2824   22.4924 C   0  0  0  0  0  0  0  0  0  0  0  0
   27.1192   34.9179   22.5337 C   0  0  0  0  0  0  0  0  0  0  0  0
   27.3665   34.1742   21.3214 C   0  0  0  0  0  0  0  0  0  0  0  0
   27.3060   32.9396   21.2681 O   0  0  0  0  0  0  0  0  0  0  0  0
   27.8615   37.0812   18.9603 C   0  0  2  0  0  0  0  0  0  0  0  0
   28.6429   38.2825   19.5169 C   0  0  0  0  0  0  0  0  0  0  0  0
   28.7110   39.3801   18.5505 N   0  0  0  0  0  0  0  0  0  0  0  0
   27.3479   39.8596   18.2709 C   0  0  0  0  0  0  0  0  0  0  0  0
   26.5152   38.7697   17.6252 C   0  0  0  0  0  0  0  0  0  0  0  0
   26.4618   37.5295   18.5064 C   0  0  0  0  0  0  0  0  0  0  0  0
   26.9275   37.1985   23.6034 C   0  0  0  0  0  0  0  0  0  0  0  0
   26.2250   36.6663   25.0861 S   0  0  0  0  0  0  0  0  0  0  0  0
   26.2937   38.2071   25.7435 C   0  0  0  0  0  0  0  0  0  0  0  0
   26.8653   39.0828   24.9073 C   0  0  0  0  0  0  0  0  0  0  0  0
   27.2297   38.5226   23.6675 C   0  0  0  0  0  0  0  0  0  0  0  0
   29.5550   40.4874   19.0332 C   0  0  0  0  0  0  0  0  0  0  0  0
   29.2002   41.0350   20.3976 C   0  0  0  0  0  0  0  0  0  0  0  0
   28.4101   42.1675   20.5316 C   0  0  0  0  0  0  0  0  0  0  0  0
   28.3399   42.9158   21.6474 N   0  0  0  0  0  0  0  0  0  0  0  0
   29.1312   42.5056   22.6273 C   0  0  0  0  0  0  0  0  0  0  0  0
   29.9645   41.4775   22.6356 N   0  0  0  0  0  0  0  0  0  0  0  0
   29.9953   40.7736   21.4943 C   0  0  0  0  0  0  0  0  0  0  0  0
   29.0652   43.2574   23.7320 O   0  0  0  0  0  0  0  0  0  0  0  0
   30.2529   43.3738   24.5242 C   0  0  0  0  0  0  0  0  0  0  0  0
  1  2  2  0  0  0  0
  1  6  1  0  0  0  0
  2  3  1  0  0  0  0
  3  4  2  0  0  0  0
  4 14  1  0  0  0  0
  5  4  1  0  0  0  0
  6  5  1  0  0  0  0
  7  6  2  0  0  0  0
  8  9  1  0  0  0  0
  8  2  1  1  0  0  0
 10 19  1  0  0  0  0
 10  9  1  0  0  0  0
 11 10  1  0  0  0  0
 12 11  1  0  0  0  0
 12 13  1  0  0  0  0
 13  8  1  0  0  0  0
 14 15  1  0  0  0  0
 14 18  2  0  0  0  0
 15 16  1  0  0  0  0
 16 17  2  0  0  0  0
 18 17  1  0  0  0  0
 19 20  1  0  0  0  0
 20 25  2  0  0  0  0
 20 21  1  0  0  0  0
 21 22  2  0  0  0  0
 22 23  1  0  0  0  0
 23 26  1  0  0  0  0
 24 23  2  0  0  0  0
 25 24  1  0  0  0  0
 26 27  1  0  0  0  0
M  END
>  <CHROM.1>
166.26972416,-147.74410876,-53.53049100,-97.08451673,-148.56595929,27.88344657
38.62646725,21.65731275,-2.75052001,1.24502702,1.23861362

>  <Name>
lig.pdb

>  <RI>
0

>  <Rbt.Current_Directory>
/home/itssahil/PROJECTS/Mol_Feturizer/New_Systems/rnas/5kx9

>  <Rbt.Executable>
rbdock ($Id: //depot/dev/client3/rdock/2013.1/src/exe/rbdock.cxx#4 $)

>  <Rbt.Library>
libRbt.so (2013.1, Build901 2013/11/27)

>  <Rbt.Parameter_File>
/export/apps/rDock/src/rDock_2013.1_src/data/scripts/dock_solv.prm

>  <Rbt.Receptor>
prm/pocket_docking_5.prm

>  <SCORE>
-39.7367

>  <SCORE.INTER>
-36.3914

>  <SCORE.INTER.CONST>
1

>  <SCORE.INTER.POLAR>
0

>  <SCORE.INTER.ROT>
5

>  <SCORE.INTER.SOLV>
16.607

>  <SCORE.INTER.VDW>
-36.73

>  <SCORE.INTER.norm>
-1.34783

>  <SCORE.INTRA>
-3.34525

>  <SCORE.INTRA.DIHEDRAL>
0.59332

>  <SCORE.INTRA.DIHEDRAL.0>
2.68224

>  <SCORE.INTRA.POLAR>
0

>  <SCORE.INTRA.POLAR.0>
0

>  <SCORE.INTRA.REPUL>
0

>  <SCORE.INTRA.REPUL.0>
0

>  <SCORE.INTRA.SOLV>
-0.531452

>  <SCORE.INTRA.SOLV.lig_0>
-19.4148

>  <SCORE.INTRA.VDW>
-3.37618

>  <SCORE.INTRA.VDW.0>
5.42093

>  <SCORE.INTRA.norm>
-0.123898

>  <SCORE.RESTR>
0

>  <SCORE.RESTR.CAVITY>
0

>  <SCORE.RESTR.norm>
0

>  <SCORE.SYSTEM>
0

>  <SCORE.SYSTEM.CONST>
0

>  <SCORE.SYSTEM.DIHEDRAL>
0

>  <SCORE.SYSTEM.SOLV>
0

>  <SCORE.SYSTEM.norm>
0

>  <SCORE.heavy>
27

>  <SCORE.norm>
-1.47173

>  <RMSD>
1.184

$$$$
lig.pdb
 OpenBabel11021811523D
libRbt.so/2013.1/901 2013/11/27
 27 30  0  0  0  0  0  0  0  0999 V2000
   27.6553   35.0119   20.0335 N   0  0  0  0  0  0  0  0  0  0  0  0
   27.6746   36.3190   20.1192 C   0  0  0  0  0  0  0  0  0  0  0  0
   27.4193   37.0260   21.2488 N   0  0  0  0  0  0  0  0  0  0  0  0
   27.1679   36.3430   22.4053 C   0  0  0  0  0  0  0  0  0  0  0  0
   27.1558   34.9776   22.4147 C   0  0  0  0  0  0  0  0  0  0  0  0
   27.3915   34.2656   21.1813 C   0  0  0  0  0  0  0  0  0  0  0  0
   27.3446   33.0319   21.0998 O   0  0  0  0  0  0  0  0  0  0  0  0
   27.8134   37.2330   18.8819 C   0  0  2  0  0  0  0  0  0  0  0  0
   28.5602   38.4453   19.4617 C   0  0  0  0  0  0  0  0  0  0  0  0
   28.5918   39.5647   18.5188 N   0  0  0  0  0  0  0  0  0  0  0  0
   27.2139   40.0087   18.2534 C   0  0  0  0  0  0  0  0  0  0  0  0
   26.4121   38.9081   17.5871 C   0  0  0  0  0  0  0  0  0  0  0  0
   26.3993   37.6483   18.4418 C   0  0  0  0  0  0  0  0  0  0  0  0
   26.9551   37.2300   23.5411 C   0  0  0  0  0  0  0  0  0  0  0  0
   26.3360   36.6437   25.0404 S   0  0  0  0  0  0  0  0  0  0  0  0
   26.3678   38.1746   25.7232 C   0  0  0  0  0  0  0  0  0  0  0  0
   26.8684   39.0877   24.8814 C   0  0  0  0  0  0  0  0  0  0  0  0
   27.2048   38.5643   23.6177 C   0  0  0  0  0  0  0  0  0  0  0  0
   29.4037   40.6865   19.0225 C   0  0  0  0  0  0  0  0  0  0  0  0
   28.9340   41.3043   20.3206 C   0  0  0  0  0  0  0  0  0  0  0  0
   29.3464   40.7988   21.5450 C   0  0  0  0  0  0  0  0  0  0  0  0
   28.7240   41.0387   22.7132 N   0  0  0  0  0  0  0  0  0  0  0  0
   27.6337   41.7830   22.6051 C   0  0  0  0  0  0  0  0  0  0  0  0
   27.0958   42.2997   21.5118 N   0  0  0  0  0  0  0  0  0  0  0  0
   27.7569   42.0216   20.3785 C   0  0  0  0  0  0  0  0  0  0  0  0
   27.0124   42.0120   23.7677 O   0  0  0  0  0  0  0  0  0  0  0  0
   27.6647   42.8744   24.7070 C   0  0  0  0  0  0  0  0  0  0  0  0
  1  2  2  0  0  0  0
  1  6  1  0  0  0  0
  2  3  1  0  0  0  0
  3  4  2  0  0  0  0
  4 14  1  0  0  0  0
  5  4  1  0  0  0  0
  6  5  1  0  0  0  0
  7  6  2  0  0  0  0
  8  9  1  0  0  0  0
  8  2  1  1  0  0  0
 10 19  1  0  0  0  0
 10  9  1  0  0  0  0
 11 10  1  0  0  0  0
 12 11  1  0  0  0  0
 12 13  1  0  0  0  0
 13  8  1  0  0  0  0
 14 15  1  0  0  0  0
 14 18  2  0  0  0  0
 15 16  1  0  0  0  0
 16 17  2  0  0  0  0
 18 17  1  0  0  0  0
 19 20  1  0  0  0  0
 20 25  2  0  0  0  0
 20 21  1  0  0  0  0
 21 22  2  0  0  0  0
 22 23  1  0  0  0  0
 23 26  1  0  0  0  0
 24 23  2  0  0  0  0
 25 24  1  0  0  0  0
 26 27  1  0  0  0  0
M  END
>  <CHROM.1>
168.47862713,-149.04240290,-60.69922664,87.36049926,69.93035458,27.49600794
38.56001328,21.60865103,-2.20266348,1.36879387,0.67251665

>  <Name>
lig.pdb

>  <RI>
0

>  <Rbt.Current_Directory>
/home/itssahil/PROJECTS/Mol_Feturizer/New_Systems/rnas/5kx9

>  <Rbt.Executable>
rbdock ($Id: //depot/dev/client3/rdock/2013.1/src/exe/rbdock.cxx#4 $)

>  <Rbt.Library>
libRbt.so (2013.1, Build901 2013/11/27)

>  <Rbt.Parameter_File>
/export/apps/rDock/src/rDock_2013.1_src/data/scripts/dock_solv.prm

>  <Rbt.Receptor>
prm/pocket_docking_2.prm

>  <SCORE>
-34.6102

>  <SCORE.INTER>
-32.37

>  <SCORE.INTER.CONST>
1

>  <SCORE.INTER.POLAR>
0

>  <SCORE.INTER.ROT>
5

>  <SCORE.INTER.SOLV>
13.5668

>  <SCORE.INTER.VDW>
-33.0356

>  <SCORE.INTER.norm>
-1.19889

>  <SCORE.INTRA>
-2.70828

>  <SCORE.INTRA.DIHEDRAL>
4.02237

>  <SCORE.INTRA.DIHEDRAL.0>
2.68224

>  <SCORE.INTRA.POLAR>
0

>  <SCORE.INTRA.POLAR.0>
0

>  <SCORE.INTRA.REPUL>
0

>  <SCORE.INTRA.REPUL.0>
0

>  <SCORE.INTRA.SOLV>
0.371126

>  <SCORE.INTRA.SOLV.lig_0>
-19.4148

>  <SCORE.INTRA.VDW>
-4.90503

>  <SCORE.INTRA.VDW.0>
5.42093

>  <SCORE.INTRA.norm>
-0.100307

>  <SCORE.RESTR>
0.468016

>  <SCORE.RESTR.CAVITY>
0.468016

>  <SCORE.RESTR.norm>
0.0173339

>  <SCORE.SYSTEM>
0

>  <SCORE.SYSTEM.CONST>
0

>  <SCORE.SYSTEM.DIHEDRAL>
0

>  <SCORE.SYSTEM.SOLV>
0

>  <SCORE.SYSTEM.norm>
0

>  <SCORE.heavy>
27

>  <SCORE.norm>
-1.28186

>  <RMSD>
1.206

$$$$
lig.pdb
 OpenBabel11021811523D
libRbt.so/2013.1/901 2013/11/27
 27 30  0  0  0  0  0  0  0  0999 V2000
   27.6608   34.8736   20.0287 N   0  0  0  0  0  0  0  0  0  0  0  0
   27.6698   36.1810   20.1118 C   0  0  0  0  0  0  0  0  0  0  0  0
   27.3953   36.8886   21.2365 N   0  0  0  0  0  0  0  0  0  0  0  0
   27.1341   36.2063   22.3912 C   0  0  0  0  0  0  0  0  0  0  0  0
   27.1315   34.8409   22.4035 C   0  0  0  0  0  0  0  0  0  0  0  0
   27.3878   34.1279   21.1748 C   0  0  0  0  0  0  0  0  0  0  0  0
   27.3506   32.8938   21.0954 O   0  0  0  0  0  0  0  0  0  0  0  0
   27.8178   37.0933   18.8743 C   0  0  2  0  0  0  0  0  0  0  0  0
   28.5139   38.3284   19.4687 C   0  0  0  0  0  0  0  0  0  0  0  0
   28.5407   39.4443   18.5214 N   0  0  0  0  0  0  0  0  0  0  0  0
   27.1589   39.8483   18.2153 C   0  0  0  0  0  0  0  0  0  0  0  0
   26.4073   38.7229   17.5323 C   0  0  0  0  0  0  0  0  0  0  0  0
   26.4056   37.4669   18.3926 C   0  0  0  0  0  0  0  0  0  0  0  0
   26.9009   37.0942   23.5222 C   0  0  0  0  0  0  0  0  0  0  0  0
   26.1923   36.5225   24.9872 S   0  0  0  0  0  0  0  0  0  0  0  0
   26.2472   38.0475   25.6816 C   0  0  0  0  0  0  0  0  0  0  0  0
   26.8186   38.9465   24.8702 C   0  0  0  0  0  0  0  0  0  0  0  0
   27.1943   38.4182   23.6198 C   0  0  0  0  0  0  0  0  0  0  0  0
   29.3065   40.5905   19.0420 C   0  0  0  0  0  0  0  0  0  0  0  0
   28.6901   41.3089   20.2216 C   0  0  0  0  0  0  0  0  0  0  0  0
   29.1230   42.5725   20.5966 C   0  0  0  0  0  0  0  0  0  0  0  0
   28.8994   43.1238   21.8033 N   0  0  0  0  0  0  0  0  0  0  0  0
   28.2502   42.3369   22.6482 C   0  0  0  0  0  0  0  0  0  0  0  0
   27.8124   41.1034   22.4523 N   0  0  0  0  0  0  0  0  0  0  0  0
   28.0698   40.6059   21.2337 C   0  0  0  0  0  0  0  0  0  0  0  0
   28.0376   42.8852   23.8500 O   0  0  0  0  0  0  0  0  0  0  0  0
   26.8163   42.5540   24.5210 C   0  0  0  0  0  0  0  0  0  0  0  0
  1  2  2  0  0  0  0
  1  6  1  0  0  0  0
  2  3  1  0  0  0  0
  3  4  2  0  0  0  0
  4 14  1  0  0  0  0
  5  4  1  0  0  0  0
  6  5  1  0  0  0  0
  7  6  2  0  0  0  0
  8  9  1  0  0  0  0
  8  2  1  1  0  0  0
 10 19  1  0  0  0  0
 10  9  1  0  0  0  0
 11 10  1  0  0  0  0
 12 11  1  0  0  0  0
 12 13  1  0  0  0  0
 13  8  1  0  0  0  0
 14 15  1  0  0  0  0
 14 18  2  0  0  0  0
 15 16  1  0  0  0  0
 16 17  2  0  0  0  0
 18 17  1  0  0  0  0
 19 20  1  0  0  0  0
 20 25  2  0  0  0  0
 20 21  1  0  0  0  0
 21 22  2  0  0  0  0
 22 23  1  0  0  0  0
 23 26  1  0  0  0  0
 24 23  2  0  0  0  0
 25 24  1  0  0  0  0
 26 27  1  0  0  0  0
M  END
>  <CHROM.1>
165.31412387,-150.54189579,-68.08414777,-164.13876692,145.30633931,27.52140575
38.54758825,21.58775285,-2.28833353,1.32720028,0.75488678

>  <Name>
lig.pdb

>  <RI>
0

>  <Rbt.Current_Directory>
/home/itssahil/PROJECTS/Mol_Feturizer/New_Systems/rnas/5kx9

>  <Rbt.Executable>
rbdock ($Id: //depot/dev/client3/rdock/2013.1/src/exe/rbdock.cxx#4 $)

>  <Rbt.Library>
libRbt.so (2013.1, Build901 2013/11/27)

>  <Rbt.Parameter_File>
/export/apps/rDock/src/rDock_2013.1_src/data/scripts/dock_solv.prm

>  <Rbt.Receptor>
prm/pocket_docking_2.prm

>  <SCORE>
-34.1359

>  <SCORE.INTER>
-32.7628

>  <SCORE.INTER.CONST>
1

>  <SCORE.INTER.POLAR>
0

>  <SCORE.INTER.ROT>
5

>  <SCORE.INTER.SOLV>
14.7279

>  <SCORE.INTER.VDW>
-33.6845

>  <SCORE.INTER.norm>
-1.21344

>  <SCORE.INTRA>
-1.66708

>  <SCORE.INTRA.DIHEDRAL>
1.81372

>  <SCORE.INTRA.DIHEDRAL.0>
2.68224

>  <SCORE.INTRA.POLAR>
0

>  <SCORE.INTRA.POLAR.0>
0

>  <SCORE.INTRA.REPUL>
0

>  <SCORE.INTRA.REPUL.0>
0

>  <SCORE.INTRA.SOLV>
0.0788124

>  <SCORE.INTRA.SOLV.lig_0>
-19.4148

>  <SCORE.INTRA.VDW>
-2.61334

>  <SCORE.INTRA.VDW.0>
5.42093

>  <SCORE.INTRA.norm>
-0.0617436

>  <SCORE.RESTR>
0.293892

>  <SCORE.RESTR.CAVITY>
0.293892

>  <SCORE.RESTR.norm>
0.0108849

>  <SCORE.SYSTEM>
0

>  <SCORE.SYSTEM.CONST>
0

>  <SCORE.SYSTEM.DIHEDRAL>
0

>  <SCORE.SYSTEM.SOLV>
0

>  <SCORE.SYSTEM.norm>
0

>  <SCORE.heavy>
27

>  <SCORE.norm>
-1.26429

>  <RMSD>
1.211

$$$$
lig.pdb
 OpenBabel11021811523D
libRbt.so/2013.1/901 2013/11/27
 27 30  0  0  0  0  0  0  0  0999 V2000
   28.3028   36.1067   19.2410 N   0  0  0  0  0  0  0  0  0  0  0  0
   28.6546   37.2005   19.8703 C   0  0  0  0  0  0  0  0  0  0  0  0
   28.2672   37.5303   21.1281 N   0  0  0  0  0  0  0  0  0  0  0  0
   27.4913   36.6483   21.8261 C   0  0  0  0  0  0  0  0  0  0  0  0
   27.1005   35.4696   21.2582 C   0  0  0  0  0  0  0  0  0  0  0  0
   27.5009   35.1776   19.9025 C   0  0  0  0  0  0  0  0  0  0  0  0
   27.1429   34.1562   19.3029 O   0  0  0  0  0  0  0  0  0  0  0  0
   29.4168   38.3516   19.1776 C   0  0  2  0  0  0  0  0  0  0  0  0
   28.6162   39.5835   19.6303 C   0  0  0  0  0  0  0  0  0  0  0  0
   29.0099   40.7865   18.8948 N   0  0  0  0  0  0  0  0  0  0  0  0
   28.7130   40.5951   17.4660 C   0  0  0  0  0  0  0  0  0  0  0  0
   29.5314   39.4545   16.8937 C   0  0  0  0  0  0  0  0  0  0  0  0
   29.2760   38.1627   17.6577 C   0  0  0  0  0  0  0  0  0  0  0  0
   27.1905   37.1156   23.1727 C   0  0  0  0  0  0  0  0  0  0  0  0
   26.3309   36.1313   24.2984 S   0  0  0  0  0  0  0  0  0  0  0  0
   26.3806   37.3250   25.4746 C   0  0  0  0  0  0  0  0  0  0  0  0
   27.0570   38.4050   25.0633 C   0  0  0  0  0  0  0  0  0  0  0  0
   27.5241   38.3062   23.7381 C   0  0  0  0  0  0  0  0  0  0  0  0
   28.3291   41.9904   19.4030 C   0  0  0  0  0  0  0  0  0  0  0  0
   27.9159   41.9448   20.8572 C   0  0  0  0  0  0  0  0  0  0  0  0
   26.5845   41.8005   21.2193 C   0  0  0  0  0  0  0  0  0  0  0  0
   26.0922   42.1009   22.4348 N   0  0  0  0  0  0  0  0  0  0  0  0
   26.9873   42.5956   23.2765 C   0  0  0  0  0  0  0  0  0  0  0  0
   28.2731   42.8282   23.0664 N   0  0  0  0  0  0  0  0  0  0  0  0
   28.7041   42.5147   21.8356 C   0  0  0  0  0  0  0  0  0  0  0  0
   26.4921   42.9014   24.4812 O   0  0  0  0  0  0  0  0  0  0  0  0
   26.5262   41.8830   25.4878 C   0  0  0  0  0  0  0  0  0  0  0  0
  1  2  2  0  0  0  0
  1  6  1  0  0  0  0
  2  3  1  0  0  0  0
  3  4  2  0  0  0  0
  4 14  1  0  0  0  0
  5  4  1  0  0  0  0
  6  5  1  0  0  0  0
  7  6  2  0  0  0  0
  8  9  1  0  0  0  0
  8  2  1  1  0  0  0
 10 19  1  0  0  0  0
 10  9  1  0  0  0  0
 11 10  1  0  0  0  0
 12 11  1  0  0  0  0
 12 13  1  0  0  0  0
 13  8  1  0  0  0  0
 14 15  1  0  0  0  0
 14 18  2  0  0  0  0
 15 16  1  0  0  0  0
 16 17  2  0  0  0  0
 18 17  1  0  0  0  0
 19 20  1  0  0  0  0
 20 25  2  0  0  0  0
 20 21  1  0  0  0  0
 21 22  2  0  0  0  0
 22 23  1  0  0  0  0
 23 26  1  0  0  0  0
 24 23  2  0  0  0  0
 25 24  1  0  0  0  0
 26 27  1  0  0  0  0
M  END
>  <CHROM.1>
-175.17838621,132.68234612,27.23471333,-106.93586808,90.65097717,27.68246569
39.02665628,21.46453459,1.08023938,-1.22134965,-2.94910008

>  <Name>
lig.pdb

>  <RI>
0

>  <Rbt.Current_Directory>
/home/itssahil/PROJECTS/Mol_Feturizer/New_Systems/rnas/5kx9

>  <Rbt.Executable>
rbdock ($Id: //depot/dev/client3/rdock/2013.1/src/exe/rbdock.cxx#4 $)

>  <Rbt.Library>
libRbt.so (2013.1, Build901 2013/11/27)

>  <Rbt.Parameter_File>
/export/apps/rDock/src/rDock_2013.1_src/data/scripts/dock_solv.prm

>  <Rbt.Receptor>
prm/pocket_docking_4.prm

>  <SCORE>
-35.6523

>  <SCORE.INTER>
-34.2975

>  <SCORE.INTER.CONST>
1

>  <SCORE.INTER.POLAR>
0

>  <SCORE.INTER.ROT>
5

>  <SCORE.INTER.SOLV>
14.2371

>  <SCORE.INTER.VDW>
-34.544

>  <SCORE.INTER.norm>
-1.27028

>  <SCORE.INTRA>
-1.35475

>  <SCORE.INTRA.DIHEDRAL>
4.99367

>  <SCORE.INTRA.DIHEDRAL.0>
2.68224

>  <SCORE.INTRA.POLAR>
0

>  <SCORE.INTRA.POLAR.0>
0

>  <SCORE.INTRA.REPUL>
0

>  <SCORE.INTRA.REPUL.0>
0

>  <SCORE.INTRA.SOLV>
-0.573316

>  <SCORE.INTRA.SOLV.lig_0>
-19.4148

>  <SCORE.INTRA.VDW>
-3.56493

>  <SCORE.INTRA.VDW.0>
5.42093

>  <SCORE.INTRA.norm>
-0.0501759

>  <SCORE.RESTR>
0

>  <SCORE.RESTR.CAVITY>
0

>  <SCORE.RESTR.norm>
0

>  <SCORE.SYSTEM>
0

>  <SCORE.SYSTEM.CONST>
0

>  <SCORE.SYSTEM.DIHEDRAL>
0

>  <SCORE.SYSTEM.SOLV>
0

>  <SCORE.SYSTEM.norm>
0

>  <SCORE.heavy>
27

>  <SCORE.norm>
-1.32045

>  <RMSD>
1.233

$$$$
lig.pdb
 OpenBabel11021811523D
libRbt.so/2013.1/901 2013/11/27
 27 30  0  0  0  0  0  0  0  0999 V2000
   27.6290   34.7690   20.2090 N   0  0  0  0  0  0  0  0  0  0  0  0
   27.6229   36.0743   20.3204 C   0  0  0  0  0  0  0  0  0  0  0  0
   27.3142   36.7545   21.4532 N   0  0  0  0  0  0  0  0  0  0  0  0
   27.0321   36.0446   22.5862 C   0  0  0  0  0  0  0  0  0  0  0  0
   27.0429   34.6793   22.5689 C   0  0  0  0  0  0  0  0  0  0  0  0
   27.3359   33.9959   21.3316 C   0  0  0  0  0  0  0  0  0  0  0  0
   27.3130   32.7635   21.2247 O   0  0  0  0  0  0  0  0  0  0  0  0
   27.7915   37.0148   19.1069 C   0  0  2  0  0  0  0  0  0  0  0  0
   28.6388   38.1527   19.6993 C   0  0  0  0  0  0  0  0  0  0  0  0
   28.7234   39.2962   18.7892 N   0  0  0  0  0  0  0  0  0  0  0  0
   27.3737   39.8441   18.5789 C   0  0  0  0  0  0  0  0  0  0  0  0
   26.4772   38.8241   17.9050 C   0  0  0  0  0  0  0  0  0  0  0  0
   26.3987   37.5421   18.7222 C   0  0  0  0  0  0  0  0  0  0  0  0
   26.7627   36.9054   23.7301 C   0  0  0  0  0  0  0  0  0  0  0  0
   27.1809   38.5788   23.7187 S   0  0  0  0  0  0  0  0  0  0  0  0
   26.6101   38.7957   25.2801 C   0  0  0  0  0  0  0  0  0  0  0  0
   26.0799   37.6722   25.7797 C   0  0  0  0  0  0  0  0  0  0  0  0
   26.1657   36.5714   24.9051 C   0  0  0  0  0  0  0  0  0  0  0  0
   29.6270   40.3417   19.3008 C   0  0  0  0  0  0  0  0  0  0  0  0
   29.2203   40.9746   20.6129 C   0  0  0  0  0  0  0  0  0  0  0  0
   28.6376   42.2330   20.6510 C   0  0  0  0  0  0  0  0  0  0  0  0
   28.5740   43.0066   21.7498 N   0  0  0  0  0  0  0  0  0  0  0  0
   29.1585   42.4834   22.8171 C   0  0  0  0  0  0  0  0  0  0  0  0
   29.7858   41.3231   22.9254 N   0  0  0  0  0  0  0  0  0  0  0  0
   29.8218   40.5997   21.7966 C   0  0  0  0  0  0  0  0  0  0  0  0
   29.1010   43.2595   23.9054 O   0  0  0  0  0  0  0  0  0  0  0  0
   30.2966   43.3988   24.6818 C   0  0  0  0  0  0  0  0  0  0  0  0
  1  2  2  0  0  0  0
  1  6  1  0  0  0  0
  2  3  1  0  0  0  0
  3  4  2  0  0  0  0
  4 14  1  0  0  0  0
  5  4  1  0  0  0  0
  6  5  1  0  0  0  0
  7  6  2  0  0  0  0
  8  9  1  0  0  0  0
  8  2  1  1  0  0  0
 10 19  1  0  0  0  0
 10  9  1  0  0  0  0
 11 10  1  0  0  0  0
 12 11  1  0  0  0  0
 12 13  1  0  0  0  0
 13  8  1  0  0  0  0
 14 15  1  0  0  0  0
 14 18  2  0  0  0  0
 15 16  1  0  0  0  0
 16 17  2  0  0  0  0
 18 17  1  0  0  0  0
 19 20  1  0  0  0  0
 20 25  2  0  0  0  0
 20 21  1  0  0  0  0
 21 22  2  0  0  0  0
 22 23  1  0  0  0  0
 23 26  1  0  0  0  0
 24 23  2  0  0  0  0
 25 24  1  0  0  0  0
 26 27  1  0  0  0  0
M  END
>  <CHROM.1>
-15.29418201,-142.72689038,-62.19497327,-102.86328101,-135.57885444,27.89813863
38.61797618,21.72960647,-2.66032984,1.24555674,1.23940291

>  <Name>
lig.pdb

>  <RI>
0

>  <Rbt.Current_Directory>
/home/itssahil/PROJECTS/Mol_Feturizer/New_Systems/rnas/5kx9

>  <Rbt.Executable>
rbdock ($Id: //depot/dev/client3/rdock/2013.1/src/exe/rbdock.cxx#4 $)

>  <Rbt.Library>
libRbt.so (2013.1, Build901 2013/11/27)

>  <Rbt.Parameter_File>
/export/apps/rDock/src/rDock_2013.1_src/data/scripts/dock_solv.prm

>  <Rbt.Receptor>
prm/pocket_docking_3.prm

>  <SCORE>
-39.8393

>  <SCORE.INTER>
-35.7097

>  <SCORE.INTER.CONST>
1

>  <SCORE.INTER.POLAR>
0

>  <SCORE.INTER.ROT>
5

>  <SCORE.INTER.SOLV>
16.4501

>  <SCORE.INTER.VDW>
-36.2232

>  <SCORE.INTER.norm>
-1.32258

>  <SCORE.INTRA>
-4.1296

>  <SCORE.INTRA.DIHEDRAL>
1.71788

>  <SCORE.INTRA.DIHEDRAL.0>
2.68224

>  <SCORE.INTRA.POLAR>
0

>  <SCORE.INTRA.POLAR.0>
0

>  <SCORE.INTRA.REPUL>
0

>  <SCORE.INTRA.REPUL.0>
0

>  <SCORE.INTRA.SOLV>
-0.297592

>  <SCORE.INTRA.SOLV.lig_0>
-19.4148

>  <SCORE.INTRA.VDW>
-4.83974

>  <SCORE.INTRA.VDW.0>
5.42093

>  <SCORE.INTRA.norm>
-0.152948

>  <SCORE.RESTR>
0

>  <SCORE.RESTR.CAVITY>
0

>  <SCORE.RESTR.norm>
0

>  <SCORE.SYSTEM>
0

>  <SCORE.SYSTEM.CONST>
0

>  <SCORE.SYSTEM.DIHEDRAL>
0

>  <SCORE.SYSTEM.SOLV>
0

>  <SCORE.SYSTEM.norm>
0

>  <SCORE.heavy>
27

>  <SCORE.norm>
-1.47553

>  <RMSD>
1.238

$$$$
lig.pdb
 OpenBabel11021811523D
libRbt.so/2013.1/901 2013/11/27
 27 30  0  0  0  0  0  0  0  0999 V2000
   27.9576   36.3738   19.1357 N   0  0  0  0  0  0  0  0  0  0  0  0
   27.7923   37.5590   19.6688 C   0  0  0  0  0  0  0  0  0  0  0  0
   27.4693   37.7873   20.9667 N   0  0  0  0  0  0  0  0  0  0  0  0
   27.3495   36.7180   21.8089 C   0  0  0  0  0  0  0  0  0  0  0  0
   27.5328   35.4469   21.3450 C   0  0  0  0  0  0  0  0  0  0  0  0
   27.8343   35.2471   19.9475 C   0  0  0  0  0  0  0  0  0  0  0  0
   27.9619   34.1246   19.4430 O   0  0  0  0  0  0  0  0  0  0  0  0
   27.7656   38.8543   18.8280 C   0  0  2  0  0  0  0  0  0  0  0  0
   28.4483   39.8606   19.7687 C   0  0  0  0  0  0  0  0  0  0  0  0
   28.3189   41.2343   19.2795 N   0  0  0  0  0  0  0  0  0  0  0  0
   26.8933   41.5981   19.2396 C   0  0  0  0  0  0  0  0  0  0  0  0
   26.1406   40.7203   18.2593 C   0  0  0  0  0  0  0  0  0  0  0  0
   26.2939   39.2482   18.6159 C   0  0  0  0  0  0  0  0  0  0  0  0
   27.0430   37.1173   23.1760 C   0  0  0  0  0  0  0  0  0  0  0  0
   26.3584   36.0100   24.3075 S   0  0  0  0  0  0  0  0  0  0  0  0
   26.3009   37.1776   25.5093 C   0  0  0  0  0  0  0  0  0  0  0  0
   26.8188   38.3426   25.1003 C   0  0  0  0  0  0  0  0  0  0  0  0
   27.2441   38.3296   23.7576 C   0  0  0  0  0  0  0  0  0  0  0  0
   29.0684   42.1893   20.1147 C   0  0  0  0  0  0  0  0  0  0  0  0
   28.8151   42.0977   21.6029 C   0  0  0  0  0  0  0  0  0  0  0  0
   27.7252   42.7292   22.1841 C   0  0  0  0  0  0  0  0  0  0  0  0
   27.6169   43.0000   23.4975 N   0  0  0  0  0  0  0  0  0  0  0  0
   28.6728   42.6452   24.2142 C   0  0  0  0  0  0  0  0  0  0  0  0
   29.7939   42.0763   23.8006 N   0  0  0  0  0  0  0  0  0  0  0  0
   29.8458   41.8366   22.4820 C   0  0  0  0  0  0  0  0  0  0  0  0
   28.5652   42.9242   25.5183 O   0  0  0  0  0  0  0  0  0  0  0  0
   29.7621   43.2830   26.2184 C   0  0  0  0  0  0  0  0  0  0  0  0
  1  2  2  0  0  0  0
  1  6  1  0  0  0  0
  2  3  1  0  0  0  0
  3  4  2  0  0  0  0
  4 14  1  0  0  0  0
  5  4  1  0  0  0  0
  6  5  1  0  0  0  0
  7  6  2  0  0  0  0
  8  9  1  0  0  0  0
  8  2  1  1  0  0  0
 10 19  1  0  0  0  0
 10  9  1  0  0  0  0
 11 10  1  0  0  0  0
 12 11  1  0  0  0  0
 12 13  1  0  0  0  0
 13  8  1  0  0  0  0
 14 15  1  0  0  0  0
 14 18  2  0  0  0  0
 15 16  1  0  0  0  0
 16 17  2  0  0  0  0
 18 17  1  0  0  0  0
 19 20  1  0  0  0  0
 20 25  2  0  0  0  0
 20 21  1  0  0  0  0
 21 22  2  0  0  0  0
 22 23  1  0  0  0  0
 23 26  1  0  0  0  0
 24 23  2  0  0  0  0
 25 24  1  0  0  0  0
 26 27  1  0  0  0  0
M  END
>  <CHROM.1>
160.32478961,-144.77910478,-50.40534929,-83.24245261,-146.48866898,27.77006647
39.29243076,21.89048054,-2.74551619,1.35253737,1.59432381

>  <Name>
lig.pdb

>  <RI>
0

>  <Rbt.Current_Directory>
/home/itssahil/PROJECTS/Mol_Feturizer/New_Systems/rnas/5kx9

>  <Rbt.Executable>
rbdock ($Id: //depot/dev/client3/rdock/2013.1/src/exe/rbdock.cxx#4 $)

>  <Rbt.Library>
libRbt.so (2013.1, Build901 2013/11/27)

>  <Rbt.Parameter_File>
/export/apps/rDock/src/rDock_2013.1_src/data/scripts/dock_solv.prm

>  <Rbt.Receptor>
prm/pocket_docking_3.prm

>  <SCORE>
-37.9982

>  <SCORE.INTER>
-34.8901

>  <SCORE.INTER.CONST>
1

>  <SCORE.INTER.POLAR>
0

>  <SCORE.INTER.ROT>
5

>  <SCORE.INTER.SOLV>
15.3819

>  <SCORE.INTER.VDW>
-35.3207

>  <SCORE.INTER.norm>
-1.29223

>  <SCORE.INTRA>
-3.10807

>  <SCORE.INTRA.DIHEDRAL>
1.70511

>  <SCORE.INTRA.DIHEDRAL.0>
2.68224

>  <SCORE.INTRA.POLAR>
0

>  <SCORE.INTRA.POLAR.0>
0

>  <SCORE.INTRA.REPUL>
0

>  <SCORE.INTRA.REPUL.0>
0

>  <SCORE.INTRA.SOLV>
-0.585982

>  <SCORE.INTRA.SOLV.lig_0>
-19.4148

>  <SCORE.INTRA.VDW>
-3.66763

>  <SCORE.INTRA.VDW.0>
5.42093

>  <SCORE.INTRA.norm>
-0.115114

>  <SCORE.RESTR>
0

>  <SCORE.RESTR.CAVITY>
0

>  <SCORE.RESTR.norm>
0

>  <SCORE.SYSTEM>
0

>  <SCORE.SYSTEM.CONST>
0

>  <SCORE.SYSTEM.DIHEDRAL>
0

>  <SCORE.SYSTEM.SOLV>
0

>  <SCORE.SYSTEM.norm>
0

>  <SCORE.heavy>
27

>  <SCORE.norm>
-1.40734

>  <RMSD>
1.243

$$$$
lig.pdb
 OpenBabel11021811523D
libRbt.so/2013.1/901 2013/11/27
 27 30  0  0  0  0  0  0  0  0999 V2000
   27.6736   34.7648   20.1491 N   0  0  0  0  0  0  0  0  0  0  0  0
   27.6828   36.0696   20.2660 C   0  0  0  0  0  0  0  0  0  0  0  0
   27.3701   36.7491   21.3981 N   0  0  0  0  0  0  0  0  0  0  0  0
   27.0664   36.0383   22.5249 C   0  0  0  0  0  0  0  0  0  0  0  0
   27.0601   34.6730   22.5020 C   0  0  0  0  0  0  0  0  0  0  0  0
   27.3583   33.9910   21.2652 C   0  0  0  0  0  0  0  0  0  0  0  0
   27.3209   32.7594   21.1529 O   0  0  0  0  0  0  0  0  0  0  0  0
   27.8768   37.0128   19.0584 C   0  0  2  0  0  0  0  0  0  0  0  0
   28.7318   38.1374   19.6649 C   0  0  0  0  0  0  0  0  0  0  0  0
   28.8411   39.2835   18.7606 N   0  0  0  0  0  0  0  0  0  0  0  0
   27.5008   39.8494   18.5376 C   0  0  0  0  0  0  0  0  0  0  0  0
   26.5990   38.8436   17.8495 C   0  0  0  0  0  0  0  0  0  0  0  0
   26.4952   37.5594   18.6605 C   0  0  0  0  0  0  0  0  0  0  0  0
   26.7951   36.8978   23.6694 C   0  0  0  0  0  0  0  0  0  0  0  0
   27.2162   38.5704   23.6616 S   0  0  0  0  0  0  0  0  0  0  0  0
   26.6412   38.7860   25.2217 C   0  0  0  0  0  0  0  0  0  0  0  0
   26.1077   37.6626   25.7181 C   0  0  0  0  0  0  0  0  0  0  0  0
   26.1941   36.5630   24.8421 C   0  0  0  0  0  0  0  0  0  0  0  0
   29.7521   40.3153   19.2866 C   0  0  0  0  0  0  0  0  0  0  0  0
   29.3056   40.9952   20.5617 C   0  0  0  0  0  0  0  0  0  0  0  0
   28.8414   42.3025   20.5516 C   0  0  0  0  0  0  0  0  0  0  0  0
   28.7651   43.0888   21.6406 N   0  0  0  0  0  0  0  0  0  0  0  0
   29.2138   42.5235   22.7513 C   0  0  0  0  0  0  0  0  0  0  0  0
   29.7201   41.3111   22.9105 N   0  0  0  0  0  0  0  0  0  0  0  0
   29.7759   40.5771   21.7894 C   0  0  0  0  0  0  0  0  0  0  0  0
   29.1447   43.3116   23.8303 O   0  0  0  0  0  0  0  0  0  0  0  0
   30.2950   43.3689   24.6818 C   0  0  0  0  0  0  0  0  0  0  0  0
  1  2  2  0  0  0  0
  1  6  1  0  0  0  0
  2  3  1  0  0  0  0
  3  4  2  0  0  0  0
  4 14  1  0  0  0  0
  5  4  1  0  0  0  0
  6  5  1  0  0  0  0
  7  6  2  0  0  0  0
  8  9  1  0  0  0  0
  8  2  1  1  0  0  0
 10 19  1  0  0  0  0
 10  9  1  0  0  0  0
 11 10  1  0  0  0  0
 12 11  1  0  0  0  0
 12 13  1  0  0  0  0
 13  8  1  0  0  0  0
 14 15  1  0  0  0  0
 14 18  2  0  0  0  0
 15 16  1  0  0  0  0
 16 17  2  0  0  0  0
 18 17  1  0  0  0  0
 19 20  1  0  0  0  0
 20 25  2  0  0  0  0
 20 21  1  0  0  0  0
 21 22  2  0  0  0  0
 22 23  1  0  0  0  0
 23 26  1  0  0  0  0
 24 23  2  0  0  0  0
 25 24  1  0  0  0  0
 26 27  1  0  0  0  0
M  END
>  <CHROM.1>
-14.49303112,-142.72382880,-65.03668408,-107.08056270,-134.25969243,27.95726499
38.62138785,21.67614998,-2.63154413,1.23799641,1.20207400

>  <Name>
lig.pdb

>  <RI>
0

>  <Rbt.Current_Directory>
/home/itssahil/PROJECTS/Mol_Feturizer/New_Systems/rnas/5kx9

>  <Rbt.Executable>
rbdock ($Id: //depot/dev/client3/rdock/2013.1/src/exe/rbdock.cxx#4 $)

>  <Rbt.Library>
libRbt.so (2013.1, Build901 2013/11/27)

>  <Rbt.Parameter_File>
/export/apps/rDock/src/rDock_2013.1_src/data/scripts/dock_solv.prm

>  <Rbt.Receptor>
prm/pocket_docking_6.prm

>  <SCORE>
-39.905

>  <SCORE.INTER>
-35.7779

>  <SCORE.INTER.CONST>
1

>  <SCORE.INTER.POLAR>
0

>  <SCORE.INTER.ROT>
5

>  <SCORE.INTER.SOLV>
16.6041

>  <SCORE.INTER.VDW>
-36.3199

>  <SCORE.INTER.norm>
-1.32511

>  <SCORE.INTRA>
-4.1271

>  <SCORE.INTRA.DIHEDRAL>
1.7848

>  <SCORE.INTRA.DIHEDRAL.0>
2.68224

>  <SCORE.INTRA.POLAR>
0

>  <SCORE.INTRA.POLAR.0>
0

>  <SCORE.INTRA.REPUL>
0

>  <SCORE.INTRA.REPUL.0>
0

>  <SCORE.INTRA.SOLV>
-0.278129

>  <SCORE.INTRA.SOLV.lig_0>
-19.4148

>  <SCORE.INTRA.VDW>
-4.88044

>  <SCORE.INTRA.VDW.0>
5.42093

>  <SCORE.INTRA.norm>
-0.152856

>  <SCORE.RESTR>
0

>  <SCORE.RESTR.CAVITY>
0

>  <SCORE.RESTR.norm>
0

>  <SCORE.SYSTEM>
0

>  <SCORE.SYSTEM.CONST>
0

>  <SCORE.SYSTEM.DIHEDRAL>
0

>  <SCORE.SYSTEM.SOLV>
0

>  <SCORE.SYSTEM.norm>
0

>  <SCORE.heavy>
27

>  <SCORE.norm>
-1.47796

>  <RMSD>
1.269

$$$$
lig.pdb
 OpenBabel11021811523D
libRbt.so/2013.1/901 2013/11/27
 27 30  0  0  0  0  0  0  0  0999 V2000
   28.0346   36.4160   19.2246 N   0  0  0  0  0  0  0  0  0  0  0  0
   27.8706   37.6014   19.7577 C   0  0  0  0  0  0  0  0  0  0  0  0
   27.5019   37.8292   21.0435 N   0  0  0  0  0  0  0  0  0  0  0  0
   27.3300   36.7582   21.8744 C   0  0  0  0  0  0  0  0  0  0  0  0
   27.5078   35.4863   21.4107 C   0  0  0  0  0  0  0  0  0  0  0  0
   27.8595   35.2877   20.0248 C   0  0  0  0  0  0  0  0  0  0  0  0
   27.9859   34.1655   19.5193 O   0  0  0  0  0  0  0  0  0  0  0  0
   27.9000   38.9011   18.9238 C   0  0  2  0  0  0  0  0  0  0  0  0
   28.5311   39.8989   19.9085 C   0  0  0  0  0  0  0  0  0  0  0  0
   28.4377   41.2758   19.4200 N   0  0  0  0  0  0  0  0  0  0  0  0
   27.0188   41.6474   19.2980 C   0  0  0  0  0  0  0  0  0  0  0  0
   26.3208   40.7786   18.2703 C   0  0  0  0  0  0  0  0  0  0  0  0
   26.4454   39.3039   18.6273 C   0  0  0  0  0  0  0  0  0  0  0  0
   26.9783   37.1563   23.2308 C   0  0  0  0  0  0  0  0  0  0  0  0
   26.2576   36.0478   24.3385 S   0  0  0  0  0  0  0  0  0  0  0  0
   26.1596   37.2146   25.5385 C   0  0  0  0  0  0  0  0  0  0  0  0
   26.6899   38.3803   25.1475 C   0  0  0  0  0  0  0  0  0  0  0  0
   27.1593   38.3685   23.8195 C   0  0  0  0  0  0  0  0  0  0  0  0
   29.1414   42.2225   20.3030 C   0  0  0  0  0  0  0  0  0  0  0  0
   28.8289   42.0991   21.7777 C   0  0  0  0  0  0  0  0  0  0  0  0
   27.7141   42.7152   22.3276 C   0  0  0  0  0  0  0  0  0  0  0  0
   27.5522   42.9583   23.6408 N   0  0  0  0  0  0  0  0  0  0  0  0
   28.5799   42.5917   24.3919 C   0  0  0  0  0  0  0  0  0  0  0  0
   29.7188   42.0349   24.0121 N   0  0  0  0  0  0  0  0  0  0  0  0
   29.8244   41.8228   22.6920 C   0  0  0  0  0  0  0  0  0  0  0  0
   28.4189   42.8431   25.6961 O   0  0  0  0  0  0  0  0  0  0  0  0
   29.6009   43.0002   26.4898 C   0  0  0  0  0  0  0  0  0  0  0  0
  1  2  2  0  0  0  0
  1  6  1  0  0  0  0
  2  3  1  0  0  0  0
  3  4  2  0  0  0  0
  4 14  1  0  0  0  0
  5  4  1  0  0  0  0
  6  5  1  0  0  0  0
  7  6  2  0  0  0  0
  8  9  1  0  0  0  0
  8  2  1  1  0  0  0
 10 19  1  0  0  0  0
 10  9  1  0  0  0  0
 11 10  1  0  0  0  0
 12 11  1  0  0  0  0
 12 13  1  0  0  0  0
 13  8  1  0  0  0  0
 14 15  1  0  0  0  0
 14 18  2  0  0  0  0
 15 16  1  0  0  0  0
 16 17  2  0  0  0  0
 18 17  1  0  0  0  0
 19 20  1  0  0  0  0
 20 25  2  0  0  0  0
 20 21  1  0  0  0  0
 21 22  2  0  0  0  0
 22 23  1  0  0  0  0
 23 26  1  0  0  0  0
 24 23  2  0  0  0  0
 25 24  1  0  0  0  0
 26 27  1  0  0  0  0
M  END
>  <CHROM.1>
161.49564428,-146.17436273,-48.78083988,-83.71025202,-155.29722411,27.76447827
39.30234226,21.99576917,-2.56139248,1.34499439,1.44261067

>  <Name>
lig.pdb

>  <RI>
0

>  <Rbt.Current_Directory>
/home/itssahil/PROJECTS/Mol_Feturizer/New_Systems/rnas/5kx9

>  <Rbt.Executable>
rbdock ($Id: //depot/dev/client3/rdock/2013.1/src/exe/rbdock.cxx#4 $)

>  <Rbt.Library>
libRbt.so (2013.1, Build901 2013/11/27)

>  <Rbt.Parameter_File>
/export/apps/rDock/src/rDock_2013.1_src/data/scripts/dock_solv.prm

>  <Rbt.Receptor>
prm/pocket_docking_2.prm

>  <SCORE>
-37.0953

>  <SCORE.INTER>
-34.2499

>  <SCORE.INTER.CONST>
1

>  <SCORE.INTER.POLAR>
0

>  <SCORE.INTER.ROT>
5

>  <SCORE.INTER.SOLV>
15.3937

>  <SCORE.INTER.VDW>
-34.8979

>  <SCORE.INTER.norm>
-1.26852

>  <SCORE.INTRA>
-2.91139

>  <SCORE.INTRA.DIHEDRAL>
0.97771

>  <SCORE.INTRA.DIHEDRAL.0>
2.68224

>  <SCORE.INTRA.POLAR>
0

>  <SCORE.INTRA.POLAR.0>
0

>  <SCORE.INTRA.REPUL>
0

>  <SCORE.INTRA.REPUL.0>
0

>  <SCORE.INTRA.SOLV>
-0.579703

>  <SCORE.INTRA.SOLV.lig_0>
-19.4148

>  <SCORE.INTRA.VDW>
-3.11039

>  <SCORE.INTRA.VDW.0>
5.42093

>  <SCORE.INTRA.norm>
-0.107829

>  <SCORE.RESTR>
0.066043

>  <SCORE.RESTR.CAVITY>
0.066043

>  <SCORE.RESTR.norm>
0.00244604

>  <SCORE.SYSTEM>
0

>  <SCORE.SYSTEM.CONST>
0

>  <SCORE.SYSTEM.DIHEDRAL>
0

>  <SCORE.SYSTEM.SOLV>
0

>  <SCORE.SYSTEM.norm>
0

>  <SCORE.heavy>
27

>  <SCORE.norm>
-1.3739

>  <RMSD>
1.285

$$$$
lig.pdb
 OpenBabel11021811523D
libRbt.so/2013.1/901 2013/11/27
 27 30  0  0  0  0  0  0  0  0999 V2000
   28.4746   36.2646   19.0803 N   0  0  0  0  0  0  0  0  0  0  0  0
   28.7265   37.3441   19.7784 C   0  0  0  0  0  0  0  0  0  0  0  0
   28.2859   37.5712   21.0415 N   0  0  0  0  0  0  0  0  0  0  0  0
   27.5643   36.5946   21.6681 C   0  0  0  0  0  0  0  0  0  0  0  0
   27.2787   35.4242   21.0256 C   0  0  0  0  0  0  0  0  0  0  0  0
   27.7317   35.2412   19.6672 C   0  0  0  0  0  0  0  0  0  0  0  0
   27.4674   34.2316   19.0026 O   0  0  0  0  0  0  0  0  0  0  0  0
   29.4136   38.5872   19.1716 C   0  0  2  0  0  0  0  0  0  0  0  0
   28.3828   39.6923   19.4539 C   0  0  0  0  0  0  0  0  0  0  0  0
   28.7090   40.9319   18.7465 N   0  0  0  0  0  0  0  0  0  0  0  0
   28.6699   40.6824   17.2965 C   0  0  0  0  0  0  0  0  0  0  0  0
   29.7236   39.6688   16.8957 C   0  0  0  0  0  0  0  0  0  0  0  0
   29.5409   38.3622   17.6553 C   0  0  0  0  0  0  0  0  0  0  0  0
   27.1973   36.9601   23.0297 C   0  0  0  0  0  0  0  0  0  0  0  0
   26.3311   35.8749   24.0530 S   0  0  0  0  0  0  0  0  0  0  0  0
   26.2952   36.9876   25.3066 C   0  0  0  0  0  0  0  0  0  0  0  0
   26.9484   38.1141   24.9947 C   0  0  0  0  0  0  0  0  0  0  0  0
   27.4678   38.1200   23.6854 C   0  0  0  0  0  0  0  0  0  0  0  0
   27.7906   42.0276   19.1031 C   0  0  0  0  0  0  0  0  0  0  0  0
   27.6110   42.2762   20.5840 C   0  0  0  0  0  0  0  0  0  0  0  0
   28.7044   42.3668   21.4330 C   0  0  0  0  0  0  0  0  0  0  0  0
   28.6404   42.2296   22.7698 N   0  0  0  0  0  0  0  0  0  0  0  0
   27.4291   41.9555   23.2303 C   0  0  0  0  0  0  0  0  0  0  0  0
   26.3059   41.7991   22.5482 N   0  0  0  0  0  0  0  0  0  0  0  0
   26.4336   41.9415   21.2207 C   0  0  0  0  0  0  0  0  0  0  0  0
   27.3710   41.8109   24.5592 O   0  0  0  0  0  0  0  0  0  0  0  0
   26.2321   42.3573   25.2344 C   0  0  0  0  0  0  0  0  0  0  0  0
  1  2  2  0  0  0  0
  1  6  1  0  0  0  0
  2  3  1  0  0  0  0
  3  4  2  0  0  0  0
  4 14  1  0  0  0  0
  5  4  1  0  0  0  0
  6  5  1  0  0  0  0
  7  6  2  0  0  0  0
  8  9  1  0  0  0  0
  8  2  1  1  0  0  0
 10 19  1  0  0  0  0
 10  9  1  0  0  0  0
 11 10  1  0  0  0  0
 12 11  1  0  0  0  0
 12 13  1  0  0  0  0
 13  8  1  0  0  0  0
 14 15  1  0  0  0  0
 14 18  2  0  0  0  0
 15 16  1  0  0  0  0
 16 17  2  0  0  0  0
 18 17  1  0  0  0  0
 19 20  1  0  0  0  0
 20 25  2  0  0  0  0
 20 21  1  0  0  0  0
 21 22  2  0  0  0  0
 22 23  1  0  0  0  0
 23 26  1  0  0  0  0
 24 23  2  0  0  0  0
 25 24  1  0  0  0  0
 26 27  1  0  0  0  0
M  END
>  <CHROM.1>
-177.81620529,123.04117858,51.32246000,47.81761648,140.38381876,27.73433103
38.95353937,21.31819298,0.96168154,-1.23548601,-2.96910956

>  <Name>
lig.pdb

>  <RI>
0

>  <Rbt.Current_Directory>
/home/itssahil/PROJECTS/Mol_Feturizer/New_Systems/rnas/5kx9

>  <Rbt.Executable>
rbdock ($Id: //depot/dev/client3/rdock/2013.1/src/exe/rbdock.cxx#4 $)

>  <Rbt.Library>
libRbt.so (2013.1, Build901 2013/11/27)

>  <Rbt.Parameter_File>
/export/apps/rDock/src/rDock_2013.1_src/data/scripts/dock_solv.prm

>  <Rbt.Receptor>
prm/pocket_docking_4.prm

>  <SCORE>
-37.256

>  <SCORE.INTER>
-33.3713

>  <SCORE.INTER.CONST>
1

>  <SCORE.INTER.POLAR>
0

>  <SCORE.INTER.ROT>
5

>  <SCORE.INTER.SOLV>
12.5694

>  <SCORE.INTER.VDW>
-33.3707

>  <SCORE.INTER.norm>
-1.23597

>  <SCORE.INTRA>
-3.88473

>  <SCORE.INTRA.DIHEDRAL>
1.22852

>  <SCORE.INTRA.DIHEDRAL.0>
2.68224

>  <SCORE.INTRA.POLAR>
0

>  <SCORE.INTRA.POLAR.0>
0

>  <SCORE.INTRA.REPUL>
0

>  <SCORE.INTRA.REPUL.0>
0

>  <SCORE.INTRA.SOLV>
-0.153194

>  <SCORE.INTRA.SOLV.lig_0>
-19.4148

>  <SCORE.INTRA.VDW>
-4.42239

>  <SCORE.INTRA.VDW.0>
5.42093

>  <SCORE.INTRA.norm>
-0.143879

>  <SCORE.RESTR>
0

>  <SCORE.RESTR.CAVITY>
0

>  <SCORE.RESTR.norm>
0

>  <SCORE.SYSTEM>
0

>  <SCORE.SYSTEM.CONST>
0

>  <SCORE.SYSTEM.DIHEDRAL>
0

>  <SCORE.SYSTEM.SOLV>
0

>  <SCORE.SYSTEM.norm>
0

>  <SCORE.heavy>
27

>  <SCORE.norm>
-1.37985

>  <RMSD>
1.290

$$$$
lig.pdb
 OpenBabel11021811523D
libRbt.so/2013.1/901 2013/11/27
 27 30  0  0  0  0  0  0  0  0999 V2000
   27.8854   36.4512   19.0295 N   0  0  0  0  0  0  0  0  0  0  0  0
   27.7138   37.6160   19.6039 C   0  0  0  0  0  0  0  0  0  0  0  0
   27.4209   37.7979   20.9163 N   0  0  0  0  0  0  0  0  0  0  0  0
   27.3415   36.7008   21.7270 C   0  0  0  0  0  0  0  0  0  0  0  0
   27.5344   35.4484   21.2186 C   0  0  0  0  0  0  0  0  0  0  0  0
   27.8027   35.2976   19.8082 C   0  0  0  0  0  0  0  0  0  0  0  0
   27.9364   34.1938   19.2654 O   0  0  0  0  0  0  0  0  0  0  0  0
   27.6428   38.9362   18.8054 C   0  0  2  0  0  0  0  0  0  0  0  0
   28.3698   39.9156   19.7413 C   0  0  0  0  0  0  0  0  0  0  0  0
   28.2138   41.3032   19.3013 N   0  0  0  0  0  0  0  0  0  0  0  0
   26.7873   41.6633   19.3436 C   0  0  0  0  0  0  0  0  0  0  0  0
   25.9882   40.8132   18.3757 C   0  0  0  0  0  0  0  0  0  0  0  0
   26.1617   39.3315   18.6790 C   0  0  0  0  0  0  0  0  0  0  0  0
   27.0641   37.0517   23.1134 C   0  0  0  0  0  0  0  0  0  0  0  0
   27.2369   38.6693   23.6868 S   0  0  0  0  0  0  0  0  0  0  0  0
   26.7945   38.2306   25.2433 C   0  0  0  0  0  0  0  0  0  0  0  0
   26.4802   36.9317   25.3269 C   0  0  0  0  0  0  0  0  0  0  0  0
   26.6368   36.2349   24.1128 C   0  0  0  0  0  0  0  0  0  0  0  0
   29.0023   42.2348   20.1269 C   0  0  0  0  0  0  0  0  0  0  0  0
   28.8063   42.1124   21.6216 C   0  0  0  0  0  0  0  0  0  0  0  0
   27.6725   42.6199   22.2393 C   0  0  0  0  0  0  0  0  0  0  0  0
   27.5758   42.8740   23.5568 N   0  0  0  0  0  0  0  0  0  0  0  0
   28.6857   42.6348   24.2391 C   0  0  0  0  0  0  0  0  0  0  0  0
   29.8488   42.1926   23.7885 N   0  0  0  0  0  0  0  0  0  0  0  0
   29.8859   41.9632   22.4676 C   0  0  0  0  0  0  0  0  0  0  0  0
   28.5884   42.8972   25.5475 O   0  0  0  0  0  0  0  0  0  0  0  0
   29.7890   43.2580   26.2403 C   0  0  0  0  0  0  0  0  0  0  0  0
  1  2  2  0  0  0  0
  1  6  1  0  0  0  0
  2  3  1  0  0  0  0
  3  4  2  0  0  0  0
  4 14  1  0  0  0  0
  5  4  1  0  0  0  0
  6  5  1  0  0  0  0
  7  6  2  0  0  0  0
  8  9  1  0  0  0  0
  8  2  1  1  0  0  0
 10 19  1  0  0  0  0
 10  9  1  0  0  0  0
 11 10  1  0  0  0  0
 12 11  1  0  0  0  0
 12 13  1  0  0  0  0
 13  8  1  0  0  0  0
 14 15  1  0  0  0  0
 14 18  2  0  0  0  0
 15 16  1  0  0  0  0
 16 17  2  0  0  0  0
 18 17  1  0  0  0  0
 19 20  1  0  0  0  0
 20 25  2  0  0  0  0
 20 21  1  0  0  0  0
 21 22  2  0  0  0  0
 22 23  1  0  0  0  0
 23 26  1  0  0  0  0
 24 23  2  0  0  0  0
 25 24  1  0  0  0  0
 26 27  1  0  0  0  0
M  END
>  <CHROM.1>
-14.74683768,-143.15670458,-51.37831404,-76.48819856,-152.39503188,27.79434474
39.45448385,21.83700812,-2.84876940,1.37542909,1.83340385

>  <Name>
lig.pdb

>  <RI>
0

>  <Rbt.Current_Directory>
/home/itssahil/PROJECTS/Mol_Feturizer/New_Systems/rnas/5kx9

>  <Rbt.Executable>
rbdock ($Id: //depot/dev/client3/rdock/2013.1/src/exe/rbdock.cxx#4 $)

>  <Rbt.Library>
libRbt.so (2013.1, Build901 2013/11/27)

>  <Rbt.Parameter_File>
/export/apps/rDock/src/rDock_2013.1_src/data/scripts/dock_solv.prm

>  <Rbt.Receptor>
prm/blind_docking_100.prm

>  <SCORE>
-37.4776

>  <SCORE.INTER>
-33.8676

>  <SCORE.INTER.CONST>
1

>  <SCORE.INTER.POLAR>
0

>  <SCORE.INTER.ROT>
5

>  <SCORE.INTER.SOLV>
14.3386

>  <SCORE.INTER.VDW>
-34.2913

>  <SCORE.INTER.norm>
-1.25435

>  <SCORE.INTRA>
-3.61006

>  <SCORE.INTRA.DIHEDRAL>
0.808759

>  <SCORE.INTRA.DIHEDRAL.0>
2.68224

>  <SCORE.INTRA.POLAR>
0

>  <SCORE.INTRA.POLAR.0>
0

>  <SCORE.INTRA.REPUL>
0

>  <SCORE.INTRA.REPUL.0>
0

>  <SCORE.INTRA.SOLV>
-0.281847

>  <SCORE.INTRA.SOLV.lig_0>
-19.4148

>  <SCORE.INTRA.VDW>
-3.87351

>  <SCORE.INTRA.VDW.0>
5.42093

>  <SCORE.INTRA.norm>
-0.133706

>  <SCORE.RESTR>
0

>  <SCORE.RESTR.CAVITY>
0

>  <SCORE.RESTR.norm>
0

>  <SCORE.SYSTEM>
0

>  <SCORE.SYSTEM.CONST>
0

>  <SCORE.SYSTEM.DIHEDRAL>
0

>  <SCORE.SYSTEM.SOLV>
0

>  <SCORE.SYSTEM.norm>
0

>  <SCORE.heavy>
27

>  <SCORE.norm>
-1.38806

>  <RMSD>
1.304

$$$$
lig.pdb
 OpenBabel11021811523D
libRbt.so/2013.1/901 2013/11/27
 27 30  0  0  0  0  0  0  0  0999 V2000
   27.9578   36.3376   19.3102 N   0  0  0  0  0  0  0  0  0  0  0  0
   27.8123   37.5263   19.8414 C   0  0  0  0  0  0  0  0  0  0  0  0
   27.4526   37.7619   21.1283 N   0  0  0  0  0  0  0  0  0  0  0  0
   27.2699   36.6951   21.9624 C   0  0  0  0  0  0  0  0  0  0  0  0
   27.4283   35.4198   21.5007 C   0  0  0  0  0  0  0  0  0  0  0  0
   27.7709   35.2135   20.1137 C   0  0  0  0  0  0  0  0  0  0  0  0
   27.8797   34.0886   19.6101 O   0  0  0  0  0  0  0  0  0  0  0  0
   27.8557   38.8237   19.0045 C   0  0  2  0  0  0  0  0  0  0  0  0
   28.5749   39.7940   19.9556 C   0  0  0  0  0  0  0  0  0  0  0  0
   28.5157   41.1737   19.4695 N   0  0  0  0  0  0  0  0  0  0  0  0
   27.1094   41.6044   19.4156 C   0  0  0  0  0  0  0  0  0  0  0  0
   26.3267   40.7657   18.4246 C   0  0  0  0  0  0  0  0  0  0  0  0
   26.4066   39.2871   18.7780 C   0  0  0  0  0  0  0  0  0  0  0  0
   26.9298   37.1009   23.3195 C   0  0  0  0  0  0  0  0  0  0  0  0
   26.1551   36.0194   24.4174 S   0  0  0  0  0  0  0  0  0  0  0  0
   26.1034   37.1826   25.6237 C   0  0  0  0  0  0  0  0  0  0  0  0
   26.6871   38.3257   25.2419 C   0  0  0  0  0  0  0  0  0  0  0  0
   27.1618   38.3004   23.9160 C   0  0  0  0  0  0  0  0  0  0  0  0
   29.3004   42.0900   20.3156 C   0  0  0  0  0  0  0  0  0  0  0  0
   28.7693   42.3062   21.7151 C   0  0  0  0  0  0  0  0  0  0  0  0
   29.1844   43.3868   22.4797 C   0  0  0  0  0  0  0  0  0  0  0  0
   29.0534   43.4651   23.8164 N   0  0  0  0  0  0  0  0  0  0  0  0
   28.5186   42.3891   24.3738 C   0  0  0  0  0  0  0  0  0  0  0  0
   28.1142   41.2738   23.7872 N   0  0  0  0  0  0  0  0  0  0  0  0
   28.2756   41.2523   22.4559 C   0  0  0  0  0  0  0  0  0  0  0  0
   28.3981   42.4672   25.7040 O   0  0  0  0  0  0  0  0  0  0  0  0
   29.5396   42.9121   26.4461 C   0  0  0  0  0  0  0  0  0  0  0  0
  1  2  2  0  0  0  0
  1  6  1  0  0  0  0
  2  3  1  0  0  0  0
  3  4  2  0  0  0  0
  4 14  1  0  0  0  0
  5  4  1  0  0  0  0
  6  5  1  0  0  0  0
  7  6  2  0  0  0  0
  8  9  1  0  0  0  0
  8  2  1  1  0  0  0
 10 19  1  0  0  0  0
 10  9  1  0  0  0  0
 11 10  1  0  0  0  0
 12 11  1  0  0  0  0
 12 13  1  0  0  0  0
 13  8  1  0  0  0  0
 14 15  1  0  0  0  0
 14 18  2  0  0  0  0
 15 16  1  0  0  0  0
 16 17  2  0  0  0  0
 18 17  1  0  0  0  0
 19 20  1  0  0  0  0
 20 25  2  0  0  0  0
 20 21  1  0  0  0  0
 21 22  2  0  0  0  0
 22 23  1  0  0  0  0
 23 26  1  0  0  0  0
 24 23  2  0  0  0  0
 25 24  1  0  0  0  0
 26 27  1  0  0  0  0
M  END
>  <CHROM.1>
159.59044993,-143.17899962,-67.47085130,-162.59053724,-47.81853583,27.73141073
39.23283151,22.04961812,-2.56155310,1.32014734,1.37421103

>  <Name>
lig.pdb

>  <RI>
0

>  <Rbt.Current_Directory>
/home/itssahil/PROJECTS/Mol_Feturizer/New_Systems/rnas/5kx9

>  <Rbt.Executable>
rbdock ($Id: //depot/dev/client3/rdock/2013.1/src/exe/rbdock.cxx#4 $)

>  <Rbt.Library>
libRbt.so (2013.1, Build901 2013/11/27)

>  <Rbt.Parameter_File>
/export/apps/rDock/src/rDock_2013.1_src/data/scripts/dock_solv.prm

>  <Rbt.Receptor>
prm/pocket_docking_2.prm

>  <SCORE>
-33.9975

>  <SCORE.INTER>
-32.4783

>  <SCORE.INTER.CONST>
1

>  <SCORE.INTER.POLAR>
0

>  <SCORE.INTER.ROT>
5

>  <SCORE.INTER.SOLV>
14.2519

>  <SCORE.INTER.VDW>
-33.3361

>  <SCORE.INTER.norm>
-1.2029

>  <SCORE.INTRA>
-1.52682

>  <SCORE.INTRA.DIHEDRAL>
3.59078

>  <SCORE.INTRA.DIHEDRAL.0>
2.68224

>  <SCORE.INTRA.POLAR>
0

>  <SCORE.INTRA.POLAR.0>
0

>  <SCORE.INTRA.REPUL>
0

>  <SCORE.INTRA.REPUL.0>
0

>  <SCORE.INTRA.SOLV>
0.0233078

>  <SCORE.INTRA.SOLV.lig_0>
-19.4148

>  <SCORE.INTRA.VDW>
-3.33386

>  <SCORE.INTRA.VDW.0>
5.42093

>  <SCORE.INTRA.norm>
-0.0565489

>  <SCORE.RESTR>
0.00752065

>  <SCORE.RESTR.CAVITY>
0.00752065

>  <SCORE.RESTR.norm>
0.000278543

>  <SCORE.SYSTEM>
0

>  <SCORE.SYSTEM.CONST>
0

>  <SCORE.SYSTEM.DIHEDRAL>
0

>  <SCORE.SYSTEM.SOLV>
0

>  <SCORE.SYSTEM.norm>
0

>  <SCORE.heavy>
27

>  <SCORE.norm>
-1.25917

>  <RMSD>
1.338

$$$$
lig.pdb
 OpenBabel11021811523D
libRbt.so/2013.1/901 2013/11/27
 27 30  0  0  0  0  0  0  0  0999 V2000
   28.0216   36.4954   18.8480 N   0  0  0  0  0  0  0  0  0  0  0  0
   27.8334   37.6477   19.4421 C   0  0  0  0  0  0  0  0  0  0  0  0
   27.5052   37.8016   20.7496 N   0  0  0  0  0  0  0  0  0  0  0  0
   27.4052   36.6876   21.5345 C   0  0  0  0  0  0  0  0  0  0  0  0
   27.6130   35.4463   21.0051 C   0  0  0  0  0  0  0  0  0  0  0  0
   27.9193   35.3255   19.5996 C   0  0  0  0  0  0  0  0  0  0  0  0
   28.0686   34.2336   19.0373 O   0  0  0  0  0  0  0  0  0  0  0  0
   27.7826   38.9845   18.6701 C   0  0  2  0  0  0  0  0  0  0  0  0
   28.4528   39.9513   19.6599 C   0  0  0  0  0  0  0  0  0  0  0  0
   28.2995   41.3464   19.2435 N   0  0  0  0  0  0  0  0  0  0  0  0
   26.8681   41.6886   19.2271 C   0  0  0  0  0  0  0  0  0  0  0  0
   26.1256   40.8510   18.2047 C   0  0  0  0  0  0  0  0  0  0  0  0
   26.3039   39.3650   18.4835 C   0  0  0  0  0  0  0  0  0  0  0  0
   27.0903   37.0089   22.9201 C   0  0  0  0  0  0  0  0  0  0  0  0
   26.4345   35.8287   23.9935 S   0  0  0  0  0  0  0  0  0  0  0  0
   26.3492   36.9317   25.2533 C   0  0  0  0  0  0  0  0  0  0  0  0
   26.8376   38.1286   24.9043 C   0  0  0  0  0  0  0  0  0  0  0  0
   27.2618   38.1946   23.5628 C   0  0  0  0  0  0  0  0  0  0  0  0
   29.0369   42.2685   20.1250 C   0  0  0  0  0  0  0  0  0  0  0  0
   28.7854   42.1001   21.6069 C   0  0  0  0  0  0  0  0  0  0  0  0
   27.6737   42.6664   22.2136 C   0  0  0  0  0  0  0  0  0  0  0  0
   27.5549   42.8729   23.5377 N   0  0  0  0  0  0  0  0  0  0  0  0
   28.6217   42.5222   24.2401 C   0  0  0  0  0  0  0  0  0  0  0  0
   29.7622   42.0118   23.8038 N   0  0  0  0  0  0  0  0  0  0  0  0
   29.8236   41.8347   22.4758 C   0  0  0  0  0  0  0  0  0  0  0  0
   28.5032   42.7372   25.5553 O   0  0  0  0  0  0  0  0  0  0  0  0
   29.6675   43.1847   26.2594 C   0  0  0  0  0  0  0  0  0  0  0  0
  1  2  2  0  0  0  0
  1  6  1  0  0  0  0
  2  3  1  0  0  0  0
  3  4  2  0  0  0  0
  4 14  1  0  0  0  0
  5  4  1  0  0  0  0
  6  5  1  0  0  0  0
  7  6  2  0  0  0  0
  8  9  1  0  0  0  0
  8  2  1  1  0  0  0
 10 19  1  0  0  0  0
 10  9  1  0  0  0  0
 11 10  1  0  0  0  0
 12 11  1  0  0  0  0
 12 13  1  0  0  0  0
 13  8  1  0  0  0  0
 14 15  1  0  0  0  0
 14 18  2  0  0  0  0
 15 16  1  0  0  0  0
 16 17  2  0  0  0  0
 18 17  1  0  0  0  0
 19 20  1  0  0  0  0
 20 25  2  0  0  0  0
 20 21  1  0  0  0  0
 21 22  2  0  0  0  0
 22 23  1  0  0  0  0
 23 26  1  0  0  0  0
 24 23  2  0  0  0  0
 25 24  1  0  0  0  0
 26 27  1  0  0  0  0
M  END
>  <CHROM.1>
160.67816483,-144.46170634,-50.71460751,-81.98778201,-142.71875332,27.78053670
39.26990093,21.74874309,-2.73799862,1.37029329,1.63251888

>  <Name>
lig.pdb

>  <RI>
0

>  <Rbt.Current_Directory>
/home/itssahil/PROJECTS/Mol_Feturizer/New_Systems/rnas/5kx9

>  <Rbt.Executable>
rbdock ($Id: //depot/dev/client3/rdock/2013.1/src/exe/rbdock.cxx#4 $)

>  <Rbt.Library>
libRbt.so (2013.1, Build901 2013/11/27)

>  <Rbt.Parameter_File>
/export/apps/rDock/src/rDock_2013.1_src/data/scripts/dock_solv.prm

>  <Rbt.Receptor>
prm/pocket_docking_3.prm

>  <SCORE>
-38.041

>  <SCORE.INTER>
-34.8731

>  <SCORE.INTER.CONST>
1

>  <SCORE.INTER.POLAR>
0

>  <SCORE.INTER.ROT>
5

>  <SCORE.INTER.SOLV>
14.5841

>  <SCORE.INTER.VDW>
-35.0434

>  <SCORE.INTER.norm>
-1.29159

>  <SCORE.INTRA>
-3.16835

>  <SCORE.INTRA.DIHEDRAL>
1.97092

>  <SCORE.INTRA.DIHEDRAL.0>
2.68224

>  <SCORE.INTRA.POLAR>
0

>  <SCORE.INTRA.POLAR.0>
0

>  <SCORE.INTRA.REPUL>
0

>  <SCORE.INTRA.REPUL.0>
0

>  <SCORE.INTRA.SOLV>
-0.586238

>  <SCORE.INTRA.SOLV.lig_0>
-19.4148

>  <SCORE.INTRA.VDW>
-3.86069

>  <SCORE.INTRA.VDW.0>
5.42093

>  <SCORE.INTRA.norm>
-0.117346

>  <SCORE.RESTR>
0.000453997

>  <SCORE.RESTR.CAVITY>
0.000453997

>  <SCORE.RESTR.norm>
1.68147e-05

>  <SCORE.SYSTEM>
0

>  <SCORE.SYSTEM.CONST>
0

>  <SCORE.SYSTEM.DIHEDRAL>
0

>  <SCORE.SYSTEM.SOLV>
0

>  <SCORE.SYSTEM.norm>
0

>  <SCORE.heavy>
27

>  <SCORE.norm>
-1.40892

>  <RMSD>
1.338

$$$$
lig.pdb
 OpenBabel11021811523D
libRbt.so/2013.1/901 2013/11/27
 27 30  0  0  0  0  0  0  0  0999 V2000
   27.9929   36.5547   18.8947 N   0  0  0  0  0  0  0  0  0  0  0  0
   27.7852   37.7033   19.4895 C   0  0  0  0  0  0  0  0  0  0  0  0
   27.4743   37.8521   20.8018 N   0  0  0  0  0  0  0  0  0  0  0  0
   27.4150   36.7379   21.5905 C   0  0  0  0  0  0  0  0  0  0  0  0
   27.6456   35.5009   21.0603 C   0  0  0  0  0  0  0  0  0  0  0  0
   27.9322   35.3845   19.6503 C   0  0  0  0  0  0  0  0  0  0  0  0
   28.1000   34.2952   19.0880 O   0  0  0  0  0  0  0  0  0  0  0  0
   27.6882   39.0365   18.7157 C   0  0  2  0  0  0  0  0  0  0  0  0
   28.4006   40.0114   19.6673 C   0  0  0  0  0  0  0  0  0  0  0  0
   28.2184   41.4038   19.2535 N   0  0  0  0  0  0  0  0  0  0  0  0
   26.7859   41.7375   19.3064 C   0  0  0  0  0  0  0  0  0  0  0  0
   25.9990   40.8912   18.3253 C   0  0  0  0  0  0  0  0  0  0  0  0
   26.1999   39.4075   18.6007 C   0  0  0  0  0  0  0  0  0  0  0  0
   27.1143   37.0545   22.9803 C   0  0  0  0  0  0  0  0  0  0  0  0
   26.4497   35.8767   24.0508 S   0  0  0  0  0  0  0  0  0  0  0  0
   26.3886   36.9725   25.3181 C   0  0  0  0  0  0  0  0  0  0  0  0
   26.8913   38.1648   24.9734 C   0  0  0  0  0  0  0  0  0  0  0  0
   27.3069   38.2336   23.6293 C   0  0  0  0  0  0  0  0  0  0  0  0
   28.9929   42.3340   20.0939 C   0  0  0  0  0  0  0  0  0  0  0  0
   28.7996   42.1844   21.5864 C   0  0  0  0  0  0  0  0  0  0  0  0
   27.6484   42.6442   22.2093 C   0  0  0  0  0  0  0  0  0  0  0  0
   27.5417   42.8766   23.5301 N   0  0  0  0  0  0  0  0  0  0  0  0
   28.6584   42.6661   24.2107 C   0  0  0  0  0  0  0  0  0  0  0  0
   29.8365   42.2702   23.7558 N   0  0  0  0  0  0  0  0  0  0  0  0
   29.8827   42.0604   22.4319 C   0  0  0  0  0  0  0  0  0  0  0  0
   28.5509   42.9069   25.5224 O   0  0  0  0  0  0  0  0  0  0  0  0
   29.7400   43.2880   26.2241 C   0  0  0  0  0  0  0  0  0  0  0  0
  1  2  2  0  0  0  0
  1  6  1  0  0  0  0
  2  3  1  0  0  0  0
  3  4  2  0  0  0  0
  4 14  1  0  0  0  0
  5  4  1  0  0  0  0
  6  5  1  0  0  0  0
  7  6  2  0  0  0  0
  8  9  1  0  0  0  0
  8  2  1  1  0  0  0
 10 19  1  0  0  0  0
 10  9  1  0  0  0  0
 11 10  1  0  0  0  0
 12 11  1  0  0  0  0
 12 13  1  0  0  0  0
 13  8  1  0  0  0  0
 14 15  1  0  0  0  0
 14 18  2  0  0  0  0
 15 16  1  0  0  0  0
 16 17  2  0  0  0  0
 18 17  1  0  0  0  0
 19 20  1  0  0  0  0
 20 25  2  0  0  0  0
 20 21  1  0  0  0  0
 21 22  2  0  0  0  0
 22 23  1  0  0  0  0
 23 26  1  0  0  0  0
 24 23  2  0  0  0  0
 25 24  1  0  0  0  0
 26 27  1  0  0  0  0
M  END
>  <CHROM.1>
158.31853304,-142.25445845,-51.61265921,-75.40454534,-152.90948039,27.77545405
39.34106414,21.77945879,-2.83627348,1.36989308,1.70426809

>  <Name>
lig.pdb

>  <RI>
0

>  <Rbt.Current_Directory>
/home/itssahil/PROJECTS/Mol_Feturizer/New_Systems/rnas/5kx9

>  <Rbt.Executable>
rbdock ($Id: //depot/dev/client3/rdock/2013.1/src/exe/rbdock.cxx#4 $)

>  <Rbt.Library>
libRbt.so (2013.1, Build901 2013/11/27)

>  <Rbt.Parameter_File>
/export/apps/rDock/src/rDock_2013.1_src/data/scripts/dock_solv.prm

>  <Rbt.Receptor>
prm/blind_docking_60.prm

>  <SCORE>
-38.0076

>  <SCORE.INTER>
-35.1387

>  <SCORE.INTER.CONST>
1

>  <SCORE.INTER.POLAR>
0

>  <SCORE.INTER.ROT>
5

>  <SCORE.INTER.SOLV>
14.9007

>  <SCORE.INTER.VDW>
-35.326

>  <SCORE.INTER.norm>
-1.30143

>  <SCORE.INTRA>
-2.86887

>  <SCORE.INTRA.DIHEDRAL>
1.64879

>  <SCORE.INTRA.DIHEDRAL.0>
2.68224

>  <SCORE.INTRA.POLAR>
0

>  <SCORE.INTRA.POLAR.0>
0

>  <SCORE.INTRA.REPUL>
0

>  <SCORE.INTRA.REPUL.0>
0

>  <SCORE.INTRA.SOLV>
-0.564343

>  <SCORE.INTRA.SOLV.lig_0>
-19.4148

>  <SCORE.INTRA.VDW>
-3.41109

>  <SCORE.INTRA.VDW.0>
5.42093

>  <SCORE.INTRA.norm>
-0.106255

>  <SCORE.RESTR>
0

>  <SCORE.RESTR.CAVITY>
0

>  <SCORE.RESTR.norm>
0

>  <SCORE.SYSTEM>
0

>  <SCORE.SYSTEM.CONST>
0

>  <SCORE.SYSTEM.DIHEDRAL>
0

>  <SCORE.SYSTEM.SOLV>
0

>  <SCORE.SYSTEM.norm>
0

>  <SCORE.heavy>
27

>  <SCORE.norm>
-1.40769

>  <RMSD>
1.364

$$$$
lig.pdb
 OpenBabel11021811523D
libRbt.so/2013.1/901 2013/11/27
 27 30  0  0  0  0  0  0  0  0999 V2000
   27.6060   34.8366   20.0966 N   0  0  0  0  0  0  0  0  0  0  0  0
   27.6376   36.1459   20.1266 C   0  0  0  0  0  0  0  0  0  0  0  0
   27.4046   36.9022   21.2288 N   0  0  0  0  0  0  0  0  0  0  0  0
   27.1642   36.2709   22.4165 C   0  0  0  0  0  0  0  0  0  0  0  0
   27.1407   34.9073   22.4839 C   0  0  0  0  0  0  0  0  0  0  0  0
   27.3526   34.1418   21.2785 C   0  0  0  0  0  0  0  0  0  0  0  0
   27.2942   32.9062   21.2500 O   0  0  0  0  0  0  0  0  0  0  0  0
   27.7661   37.0056   18.8499 C   0  0  2  0  0  0  0  0  0  0  0  0
   28.7095   38.1275   19.3133 C   0  0  0  0  0  0  0  0  0  0  0  0
   28.7862   39.2114   18.3322 N   0  0  0  0  0  0  0  0  0  0  0  0
   27.4541   39.8189   18.1818 C   0  0  0  0  0  0  0  0  0  0  0  0
   26.4618   38.8125   17.6335 C   0  0  0  0  0  0  0  0  0  0  0  0
   26.3776   37.5850   18.5301 C   0  0  0  0  0  0  0  0  0  0  0  0
   26.9753   37.2069   23.5166 C   0  0  0  0  0  0  0  0  0  0  0  0
   26.3133   36.7023   25.0273 S   0  0  0  0  0  0  0  0  0  0  0  0
   26.4018   38.2544   25.6550 C   0  0  0  0  0  0  0  0  0  0  0  0
   26.9512   39.1143   24.7880 C   0  0  0  0  0  0  0  0  0  0  0  0
   27.2806   38.5315   23.5487 C   0  0  0  0  0  0  0  0  0  0  0  0
   29.7753   40.2337   18.7169 C   0  0  0  0  0  0  0  0  0  0  0  0
   29.4933   40.9640   20.0109 C   0  0  0  0  0  0  0  0  0  0  0  0
   29.7481   40.3705   21.2387 C   0  0  0  0  0  0  0  0  0  0  0  0
   29.2149   40.7794   22.4041 N   0  0  0  0  0  0  0  0  0  0  0  0
   28.3733   41.7958   22.2896 C   0  0  0  0  0  0  0  0  0  0  0  0
   28.0008   42.4355   21.1925 N   0  0  0  0  0  0  0  0  0  0  0  0
   28.5607   41.9794   20.0623 C   0  0  0  0  0  0  0  0  0  0  0  0
   27.8382   42.1937   23.4495 O   0  0  0  0  0  0  0  0  0  0  0  0
   28.6435   43.0174   24.3009 C   0  0  0  0  0  0  0  0  0  0  0  0
  1  2  2  0  0  0  0
  1  6  1  0  0  0  0
  2  3  1  0  0  0  0
  3  4  2  0  0  0  0
  4 14  1  0  0  0  0
  5  4  1  0  0  0  0
  6  5  1  0  0  0  0
  7  6  2  0  0  0  0
  8  9  1  0  0  0  0
  8  2  1  1  0  0  0
 10 19  1  0  0  0  0
 10  9  1  0  0  0  0
 11 10  1  0  0  0  0
 12 11  1  0  0  0  0
 12 13  1  0  0  0  0
 13  8  1  0  0  0  0
 14 15  1  0  0  0  0
 14 18  2  0  0  0  0
 15 16  1  0  0  0  0
 16 17  2  0  0  0  0
 18 17  1  0  0  0  0
 19 20  1  0  0  0  0
 20 25  2  0  0  0  0
 20 21  1  0  0  0  0
 21 22  2  0  0  0  0
 22 23  1  0  0  0  0
 23 26  1  0  0  0  0
 24 23  2  0  0  0  0
 25 24  1  0  0  0  0
 26 27  1  0  0  0  0
M  END
>  <CHROM.1>
165.97094138,-140.85929360,-62.38098832,77.57521262,78.94798953,27.73359673
38.45727180,21.49789417,-2.60435568,1.29531791,0.93576339

>  <Name>
lig.pdb

>  <RI>
0

>  <Rbt.Current_Directory>
/home/itssahil/PROJECTS/Mol_Feturizer/New_Systems/rnas/5kx9

>  <Rbt.Executable>
rbdock ($Id: //depot/dev/client3/rdock/2013.1/src/exe/rbdock.cxx#4 $)

>  <Rbt.Library>
libRbt.so (2013.1, Build901 2013/11/27)

>  <Rbt.Parameter_File>
/export/apps/rDock/src/rDock_2013.1_src/data/scripts/dock_solv.prm

>  <Rbt.Receptor>
prm/pocket_docking_3.prm

>  <SCORE>
-36.4197

>  <SCORE.INTER>
-33.0457

>  <SCORE.INTER.CONST>
1

>  <SCORE.INTER.POLAR>
0

>  <SCORE.INTER.ROT>
5

>  <SCORE.INTER.SOLV>
14.332

>  <SCORE.INTER.VDW>
-33.7412

>  <SCORE.INTER.norm>
-1.22392

>  <SCORE.INTRA>
-3.37396

>  <SCORE.INTRA.DIHEDRAL>
4.73478

>  <SCORE.INTRA.DIHEDRAL.0>
2.68224

>  <SCORE.INTRA.POLAR>
0

>  <SCORE.INTRA.POLAR.0>
0

>  <SCORE.INTRA.REPUL>
0

>  <SCORE.INTRA.REPUL.0>
0

>  <SCORE.INTRA.SOLV>
0.185463

>  <SCORE.INTRA.SOLV.lig_0>
-19.4148

>  <SCORE.INTRA.VDW>
-5.83408

>  <SCORE.INTRA.VDW.0>
5.42093

>  <SCORE.INTRA.norm>
-0.124962

>  <SCORE.RESTR>
0

>  <SCORE.RESTR.CAVITY>
0

>  <SCORE.RESTR.norm>
0

>  <SCORE.SYSTEM>
0

>  <SCORE.SYSTEM.CONST>
0

>  <SCORE.SYSTEM.DIHEDRAL>
0

>  <SCORE.SYSTEM.SOLV>
0

>  <SCORE.SYSTEM.norm>
0

>  <SCORE.heavy>
27

>  <SCORE.norm>
-1.34888

>  <RMSD>
1.379

$$$$
lig.pdb
 OpenBabel11021811523D
libRbt.so/2013.1/901 2013/11/27
 27 30  0  0  0  0  0  0  0  0999 V2000
   27.6145   34.7788   20.2708 N   0  0  0  0  0  0  0  0  0  0  0  0
   27.6363   36.0862   20.3513 C   0  0  0  0  0  0  0  0  0  0  0  0
   27.3628   36.7988   21.4731 N   0  0  0  0  0  0  0  0  0  0  0  0
   27.0885   36.1215   22.6277 C   0  0  0  0  0  0  0  0  0  0  0  0
   27.0720   34.7562   22.6427 C   0  0  0  0  0  0  0  0  0  0  0  0
   27.3278   34.0383   21.4168 C   0  0  0  0  0  0  0  0  0  0  0  0
   27.2785   32.8044   21.3397 O   0  0  0  0  0  0  0  0  0  0  0  0
   27.8002   36.9945   19.1128 C   0  0  2  0  0  0  0  0  0  0  0  0
   28.7965   38.0499   19.6197 C   0  0  0  0  0  0  0  0  0  0  0  0
   28.9201   39.1713   18.6867 N   0  0  0  0  0  0  0  0  0  0  0  0
   27.6172   39.8460   18.5707 C   0  0  0  0  0  0  0  0  0  0  0  0
   26.5771   38.9119   17.9843 C   0  0  0  0  0  0  0  0  0  0  0  0
   26.4391   37.6512   18.8266 C   0  0  0  0  0  0  0  0  0  0  0  0
   26.8581   37.0140   23.7557 C   0  0  0  0  0  0  0  0  0  0  0  0
   27.1903   38.7034   23.6522 S   0  0  0  0  0  0  0  0  0  0  0  0
   26.7213   38.9561   25.2419 C   0  0  0  0  0  0  0  0  0  0  0  0
   26.2846   37.8299   25.8198 C   0  0  0  0  0  0  0  0  0  0  0  0
   26.3631   36.7000   24.9824 C   0  0  0  0  0  0  0  0  0  0  0  0
   29.9571   40.1286   19.1103 C   0  0  0  0  0  0  0  0  0  0  0  0
   29.6500   40.9144   20.3656 C   0  0  0  0  0  0  0  0  0  0  0  0
   29.6884   40.3123   21.6149 C   0  0  0  0  0  0  0  0  0  0  0  0
   29.1012   40.8134   22.7167 N   0  0  0  0  0  0  0  0  0  0  0  0
   28.4305   41.9370   22.5117 C   0  0  0  0  0  0  0  0  0  0  0  0
   28.2695   42.6038   21.3799 N   0  0  0  0  0  0  0  0  0  0  0  0
   28.8724   42.0529   20.3160 C   0  0  0  0  0  0  0  0  0  0  0  0
   27.8406   42.4275   23.6079 O   0  0  0  0  0  0  0  0  0  0  0  0
   28.6564   43.1701   24.5214 C   0  0  0  0  0  0  0  0  0  0  0  0
  1  2  2  0  0  0  0
  1  6  1  0  0  0  0
  2  3  1  0  0  0  0
  3  4  2  0  0  0  0
  4 14  1  0  0  0  0
  5  4  1  0  0  0  0
  6  5  1  0  0  0  0
  7  6  2  0  0  0  0
  8  9  1  0  0  0  0
  8  2  1  1  0  0  0
 10 19  1  0  0  0  0
 10  9  1  0  0  0  0
 11 10  1  0  0  0  0
 12 11  1  0  0  0  0
 12 13  1  0  0  0  0
 13  8  1  0  0  0  0
 14 15  1  0  0  0  0
 14 18  2  0  0  0  0
 15 16  1  0  0  0  0
 16 17  2  0  0  0  0
 18 17  1  0  0  0  0
 19 20  1  0  0  0  0
 20 25  2  0  0  0  0
 20 21  1  0  0  0  0
 21 22  2  0  0  0  0
 22 23  1  0  0  0  0
 23 26  1  0  0  0  0
 24 23  2  0  0  0  0
 25 24  1  0  0  0  0
 26 27  1  0  0  0  0
M  END
>  <CHROM.1>
-10.25743607,-137.15893507,-68.22832423,72.87974877,80.39041599,27.80257783
38.53614474,21.66125864,-2.36979064,1.27523719,0.87211147

>  <Name>
lig.pdb

>  <RI>
0

>  <Rbt.Current_Directory>
/home/itssahil/PROJECTS/Mol_Feturizer/New_Systems/rnas/5kx9

>  <Rbt.Executable>
rbdock ($Id: //depot/dev/client3/rdock/2013.1/src/exe/rbdock.cxx#4 $)

>  <Rbt.Library>
libRbt.so (2013.1, Build901 2013/11/27)

>  <Rbt.Parameter_File>
/export/apps/rDock/src/rDock_2013.1_src/data/scripts/dock_solv.prm

>  <Rbt.Receptor>
prm/blind_docking_60.prm

>  <SCORE>
-36.1525

>  <SCORE.INTER>
-32.4525

>  <SCORE.INTER.CONST>
1

>  <SCORE.INTER.POLAR>
0

>  <SCORE.INTER.ROT>
5

>  <SCORE.INTER.SOLV>
15.0018

>  <SCORE.INTER.VDW>
-33.5689

>  <SCORE.INTER.norm>
-1.20194

>  <SCORE.INTRA>
-3.70007

>  <SCORE.INTRA.DIHEDRAL>
4.54204

>  <SCORE.INTRA.DIHEDRAL.0>
2.68224

>  <SCORE.INTRA.POLAR>
0

>  <SCORE.INTRA.POLAR.0>
0

>  <SCORE.INTRA.REPUL>
0

>  <SCORE.INTRA.REPUL.0>
0

>  <SCORE.INTRA.SOLV>
0.461955

>  <SCORE.INTRA.SOLV.lig_0>
-19.4148

>  <SCORE.INTRA.VDW>
-6.20207

>  <SCORE.INTRA.VDW.0>
5.42093

>  <SCORE.INTRA.norm>
-0.13704

>  <SCORE.RESTR>
0

>  <SCORE.RESTR.CAVITY>
0

>  <SCORE.RESTR.norm>
0

>  <SCORE.SYSTEM>
0

>  <SCORE.SYSTEM.CONST>
0

>  <SCORE.SYSTEM.DIHEDRAL>
0

>  <SCORE.SYSTEM.SOLV>
0

>  <SCORE.SYSTEM.norm>
0

>  <SCORE.heavy>
27

>  <SCORE.norm>
-1.33898

>  <RMSD>
1.393

$$$$
lig.pdb
 OpenBabel11021811523D
libRbt.so/2013.1/901 2013/11/27
 27 30  0  0  0  0  0  0  0  0999 V2000
   28.5647   36.3833   18.7718 N   0  0  0  0  0  0  0  0  0  0  0  0
   28.8308   37.3784   19.5812 C   0  0  0  0  0  0  0  0  0  0  0  0
   28.3533   37.4988   20.8455 N   0  0  0  0  0  0  0  0  0  0  0  0
   27.5738   36.4956   21.3487 C   0  0  0  0  0  0  0  0  0  0  0  0
   27.2685   35.4060   20.5845 C   0  0  0  0  0  0  0  0  0  0  0  0
   27.7635   35.3383   19.2302 C   0  0  0  0  0  0  0  0  0  0  0  0
   27.4863   34.4099   18.4607 O   0  0  0  0  0  0  0  0  0  0  0  0
   29.5851   38.6460   19.1230 C   0  0  2  0  0  0  0  0  0  0  0  0
   28.7163   39.7672   19.7159 C   0  0  0  0  0  0  0  0  0  0  0  0
   29.1032   41.0824   19.2022 N   0  0  0  0  0  0  0  0  0  0  0  0
   28.8894   41.1116   17.7463 C   0  0  0  0  0  0  0  0  0  0  0  0
   29.7789   40.1000   17.0508 C   0  0  0  0  0  0  0  0  0  0  0  0
   29.5318   38.6966   17.5866 C   0  0  0  0  0  0  0  0  0  0  0  0
   27.1713   36.7411   22.7270 C   0  0  0  0  0  0  0  0  0  0  0  0
   26.3199   35.5536   23.6436 S   0  0  0  0  0  0  0  0  0  0  0  0
   26.2277   36.5615   24.9801 C   0  0  0  0  0  0  0  0  0  0  0  0
   26.8522   37.7275   24.7715 C   0  0  0  0  0  0  0  0  0  0  0  0
   27.3947   37.8524   23.4777 C   0  0  0  0  0  0  0  0  0  0  0  0
   28.3520   42.1705   19.8525 C   0  0  0  0  0  0  0  0  0  0  0  0
   28.4472   42.2219   21.3611 C   0  0  0  0  0  0  0  0  0  0  0  0
   27.3839   41.8266   22.1598 C   0  0  0  0  0  0  0  0  0  0  0  0
   27.2419   42.1627   23.4546 N   0  0  0  0  0  0  0  0  0  0  0  0
   28.1977   42.9537   23.9186 C   0  0  0  0  0  0  0  0  0  0  0  0
   29.2446   43.4437   23.2742 N   0  0  0  0  0  0  0  0  0  0  0  0
   29.3292   43.0789   21.9863 C   0  0  0  0  0  0  0  0  0  0  0  0
   28.0482   43.2930   25.2042 O   0  0  0  0  0  0  0  0  0  0  0  0
   26.7891   43.0029   25.8222 C   0  0  0  0  0  0  0  0  0  0  0  0
  1  2  2  0  0  0  0
  1  6  1  0  0  0  0
  2  3  1  0  0  0  0
  3  4  2  0  0  0  0
  4 14  1  0  0  0  0
  5  4  1  0  0  0  0
  6  5  1  0  0  0  0
  7  6  2  0  0  0  0
  8  9  1  0  0  0  0
  8  2  1  1  0  0  0
 10 19  1  0  0  0  0
 10  9  1  0  0  0  0
 11 10  1  0  0  0  0
 12 11  1  0  0  0  0
 12 13  1  0  0  0  0
 13  8  1  0  0  0  0
 14 15  1  0  0  0  0
 14 18  2  0  0  0  0
 15 16  1  0  0  0  0
 16 17  2  0  0  0  0
 18 17  1  0  0  0  0
 19 20  1  0  0  0  0
 20 25  2  0  0  0  0
 20 21  1  0  0  0  0
 21 22  2  0  0  0  0
 22 23  1  0  0  0  0
 23 26  1  0  0  0  0
 24 23  2  0  0  0  0
 25 24  1  0  0  0  0
 26 27  1  0  0  0  0
M  END
>  <CHROM.1>
-173.66116245,133.33497585,56.21768301,-105.84001525,-12.12273027,28.00804344
39.14640523,21.43139730,-1.68035791,1.18754617,0.56394256

>  <Name>
lig.pdb

>  <RI>
0

>  <Rbt.Current_Directory>
/home/itssahil/PROJECTS/Mol_Feturizer/New_Systems/rnas/5kx9

>  <Rbt.Executable>
rbdock ($Id: //depot/dev/client3/rdock/2013.1/src/exe/rbdock.cxx#4 $)

>  <Rbt.Library>
libRbt.so (2013.1, Build901 2013/11/27)

>  <Rbt.Parameter_File>
/export/apps/rDock/src/rDock_2013.1_src/data/scripts/dock_solv.prm

>  <Rbt.Receptor>
prm/pocket_docking_4.prm

>  <SCORE>
-37.2663

>  <SCORE.INTER>
-35.9822

>  <SCORE.INTER.CONST>
1

>  <SCORE.INTER.POLAR>
0

>  <SCORE.INTER.ROT>
5

>  <SCORE.INTER.SOLV>
13.6409

>  <SCORE.INTER.VDW>
-35.4684

>  <SCORE.INTER.norm>
-1.33267

>  <SCORE.INTRA>
-1.28407

>  <SCORE.INTRA.DIHEDRAL>
-0.840709

>  <SCORE.INTRA.DIHEDRAL.0>
2.68224

>  <SCORE.INTRA.POLAR>
0

>  <SCORE.INTRA.POLAR.0>
0

>  <SCORE.INTRA.REPUL>
0

>  <SCORE.INTRA.REPUL.0>
0

>  <SCORE.INTRA.SOLV>
-0.552158

>  <SCORE.INTRA.SOLV.lig_0>
-19.4148

>  <SCORE.INTRA.VDW>
-0.587634

>  <SCORE.INTRA.VDW.0>
5.42093

>  <SCORE.INTRA.norm>
-0.047558

>  <SCORE.RESTR>
0

>  <SCORE.RESTR.CAVITY>
0

>  <SCORE.RESTR.norm>
0

>  <SCORE.SYSTEM>
0

>  <SCORE.SYSTEM.CONST>
0

>  <SCORE.SYSTEM.DIHEDRAL>
0

>  <SCORE.SYSTEM.SOLV>
0

>  <SCORE.SYSTEM.norm>
0

>  <SCORE.heavy>
27

>  <SCORE.norm>
-1.38023

>  <RMSD>
1.401

$$$$
lig.pdb
 OpenBabel11021811523D
libRbt.so/2013.1/901 2013/11/27
 27 30  0  0  0  0  0  0  0  0999 V2000
   28.5817   36.3571   18.7683 N   0  0  0  0  0  0  0  0  0  0  0  0
   28.8475   37.3503   19.5801 C   0  0  0  0  0  0  0  0  0  0  0  0
   28.3639   37.4713   20.8420 N   0  0  0  0  0  0  0  0  0  0  0  0
   27.5779   36.4707   21.3401 C   0  0  0  0  0  0  0  0  0  0  0  0
   27.2723   35.3831   20.5732 C   0  0  0  0  0  0  0  0  0  0  0  0
   27.7740   35.3148   19.2214 C   0  0  0  0  0  0  0  0  0  0  0  0
   27.4972   34.3883   18.4494 O   0  0  0  0  0  0  0  0  0  0  0  0
   29.6092   38.6154   19.1271 C   0  0  2  0  0  0  0  0  0  0  0  0
   28.7479   39.7391   19.7263 C   0  0  0  0  0  0  0  0  0  0  0  0
   29.1423   41.0543   19.2184 N   0  0  0  0  0  0  0  0  0  0  0  0
   28.9273   41.0918   17.7629 C   0  0  0  0  0  0  0  0  0  0  0  0
   29.8098   40.0780   17.0616 C   0  0  0  0  0  0  0  0  0  0  0  0
   29.5546   38.6737   17.5911 C   0  0  0  0  0  0  0  0  0  0  0  0
   27.1692   36.7163   22.7166 C   0  0  0  0  0  0  0  0  0  0  0  0
   26.3100   35.5305   23.6281 S   0  0  0  0  0  0  0  0  0  0  0  0
   26.2140   36.5378   24.9648 C   0  0  0  0  0  0  0  0  0  0  0  0
   26.8426   37.7022   24.7602 C   0  0  0  0  0  0  0  0  0  0  0  0
   27.3920   37.8265   23.4691 C   0  0  0  0  0  0  0  0  0  0  0  0
   28.3986   42.1440   19.8747 C   0  0  0  0  0  0  0  0  0  0  0  0
   28.4899   42.1834   21.3839 C   0  0  0  0  0  0  0  0  0  0  0  0
   27.4564   41.7058   22.1767 C   0  0  0  0  0  0  0  0  0  0  0  0
   27.2914   42.0155   23.4754 N   0  0  0  0  0  0  0  0  0  0  0  0
   28.1902   42.8648   23.9499 C   0  0  0  0  0  0  0  0  0  0  0  0
   29.2008   43.4339   23.3124 N   0  0  0  0  0  0  0  0  0  0  0  0
   29.3105   43.0916   22.0203 C   0  0  0  0  0  0  0  0  0  0  0  0
   28.0175   43.1773   25.2393 O   0  0  0  0  0  0  0  0  0  0  0  0
   26.6926   43.0719   25.7733 C   0  0  0  0  0  0  0  0  0  0  0  0
  1  2  2  0  0  0  0
  1  6  1  0  0  0  0
  2  3  1  0  0  0  0
  3  4  2  0  0  0  0
  4 14  1  0  0  0  0
  5  4  1  0  0  0  0
  6  5  1  0  0  0  0
  7  6  2  0  0  0  0
  8  9  1  0  0  0  0
  8  2  1  1  0  0  0
 10 19  1  0  0  0  0
 10  9  1  0  0  0  0
 11 10  1  0  0  0  0
 12 11  1  0  0  0  0
 12 13  1  0  0  0  0
 13  8  1  0  0  0  0
 14 15  1  0  0  0  0
 14 18  2  0  0  0  0
 15 16  1  0  0  0  0
 16 17  2  0  0  0  0
 18 17  1  0  0  0  0
 19 20  1  0  0  0  0
 20 25  2  0  0  0  0
 20 21  1  0  0  0  0
 21 22  2  0  0  0  0
 22 23  1  0  0  0  0
 23 26  1  0  0  0  0
 24 23  2  0  0  0  0
 25 24  1  0  0  0  0
 26 27  1  0  0  0  0
M  END
>  <CHROM.1>
-173.58931361,133.76881003,55.91832157,-101.37894594,-25.81497422,28.01536113
39.11310345,21.43507233,-1.66570802,1.17993105,0.55974199

>  <Name>
lig.pdb

>  <RI>
0

>  <Rbt.Current_Directory>
/home/itssahil/PROJECTS/Mol_Feturizer/New_Systems/rnas/5kx9

>  <Rbt.Executable>
rbdock ($Id: //depot/dev/client3/rdock/2013.1/src/exe/rbdock.cxx#4 $)

>  <Rbt.Library>
libRbt.so (2013.1, Build901 2013/11/27)

>  <Rbt.Parameter_File>
/export/apps/rDock/src/rDock_2013.1_src/data/scripts/dock_solv.prm

>  <Rbt.Receptor>
prm/pocket_docking_8.prm

>  <SCORE>
-37.3022

>  <SCORE.INTER>
-35.579

>  <SCORE.INTER.CONST>
1

>  <SCORE.INTER.POLAR>
0

>  <SCORE.INTER.ROT>
5

>  <SCORE.INTER.SOLV>
13.3647

>  <SCORE.INTER.VDW>
-35.1076

>  <SCORE.INTER.norm>
-1.31774

>  <SCORE.INTRA>
-1.72316

>  <SCORE.INTRA.DIHEDRAL>
-0.131507

>  <SCORE.INTRA.DIHEDRAL.0>
2.68224

>  <SCORE.INTRA.POLAR>
0

>  <SCORE.INTRA.POLAR.0>
0

>  <SCORE.INTRA.REPUL>
0

>  <SCORE.INTRA.REPUL.0>
0

>  <SCORE.INTRA.SOLV>
-0.522047

>  <SCORE.INTRA.SOLV.lig_0>
-19.4148

>  <SCORE.INTRA.VDW>
-1.39639

>  <SCORE.INTRA.VDW.0>
5.42093

>  <SCORE.INTRA.norm>
-0.0638209

>  <SCORE.RESTR>
0

>  <SCORE.RESTR.CAVITY>
0

>  <SCORE.RESTR.norm>
0

>  <SCORE.SYSTEM>
0

>  <SCORE.SYSTEM.CONST>
0

>  <SCORE.SYSTEM.DIHEDRAL>
0

>  <SCORE.SYSTEM.SOLV>
0

>  <SCORE.SYSTEM.norm>
0

>  <SCORE.heavy>
27

>  <SCORE.norm>
-1.38156

>  <RMSD>
1.418

$$$$
lig.pdb
 OpenBabel11021811523D
libRbt.so/2013.1/901 2013/11/27
 27 30  0  0  0  0  0  0  0  0999 V2000
   27.6961   34.8031   20.1734 N   0  0  0  0  0  0  0  0  0  0  0  0
   27.7084   36.1130   20.1891 C   0  0  0  0  0  0  0  0  0  0  0  0
   27.4302   36.8782   21.2745 N   0  0  0  0  0  0  0  0  0  0  0  0
   27.1613   36.2569   22.4615 C   0  0  0  0  0  0  0  0  0  0  0  0
   27.1548   34.8940   22.5440 C   0  0  0  0  0  0  0  0  0  0  0  0
   27.4153   34.1181   21.3549 C   0  0  0  0  0  0  0  0  0  0  0  0
   27.3749   32.8816   21.3390 O   0  0  0  0  0  0  0  0  0  0  0  0
   27.8651   36.9600   18.9071 C   0  0  2  0  0  0  0  0  0  0  0  0
   28.7377   38.1263   19.3988 C   0  0  0  0  0  0  0  0  0  0  0  0
   28.8188   39.1992   18.4060 N   0  0  0  0  0  0  0  0  0  0  0  0
   27.4721   39.7487   18.1810 C   0  0  0  0  0  0  0  0  0  0  0  0
   26.5502   38.6947   17.6002 C   0  0  0  0  0  0  0  0  0  0  0  0
   26.4717   37.4769   18.5105 C   0  0  0  0  0  0  0  0  0  0  0  0
   26.9249   37.2026   23.5441 C   0  0  0  0  0  0  0  0  0  0  0  0
   26.3157   36.6890   25.0739 S   0  0  0  0  0  0  0  0  0  0  0  0
   26.3099   38.2569   25.6675 C   0  0  0  0  0  0  0  0  0  0  0  0
   26.7912   39.1316   24.7752 C   0  0  0  0  0  0  0  0  0  0  0  0
   27.1432   38.5445   23.5442 C   0  0  0  0  0  0  0  0  0  0  0  0
   29.7450   40.2667   18.8230 C   0  0  0  0  0  0  0  0  0  0  0  0
   29.4263   40.9318   20.1434 C   0  0  0  0  0  0  0  0  0  0  0  0
   28.9398   42.2301   20.1924 C   0  0  0  0  0  0  0  0  0  0  0  0
   28.9671   43.0095   21.2886 N   0  0  0  0  0  0  0  0  0  0  0  0
   29.5433   42.4475   22.3406 C   0  0  0  0  0  0  0  0  0  0  0  0
   30.0860   41.2442   22.4360 N   0  0  0  0  0  0  0  0  0  0  0  0
   30.0340   40.5168   21.3104 C   0  0  0  0  0  0  0  0  0  0  0  0
   29.5765   43.2289   23.4261 O   0  0  0  0  0  0  0  0  0  0  0  0
   28.8542   42.7867   24.5813 C   0  0  0  0  0  0  0  0  0  0  0  0
  1  2  2  0  0  0  0
  1  6  1  0  0  0  0
  2  3  1  0  0  0  0
  3  4  2  0  0  0  0
  4 14  1  0  0  0  0
  5  4  1  0  0  0  0
  6  5  1  0  0  0  0
  7  6  2  0  0  0  0
  8  9  1  0  0  0  0
  8  2  1  1  0  0  0
 10 19  1  0  0  0  0
 10  9  1  0  0  0  0
 11 10  1  0  0  0  0
 12 11  1  0  0  0  0
 12 13  1  0  0  0  0
 13  8  1  0  0  0  0
 14 15  1  0  0  0  0
 14 18  2  0  0  0  0
 15 16  1  0  0  0  0
 16 17  2  0  0  0  0
 18 17  1  0  0  0  0
 19 20  1  0  0  0  0
 20 25  2  0  0  0  0
 20 21  1  0  0  0  0
 21 22  2  0  0  0  0
 22 23  1  0  0  0  0
 23 26  1  0  0  0  0
 24 23  2  0  0  0  0
 25 24  1  0  0  0  0
 26 27  1  0  0  0  0
M  END
>  <CHROM.1>
169.89129662,-142.73155378,-57.96600648,-108.41716075,116.70322012,27.94803197
38.54463136,21.55561417,-2.73528955,1.22916890,1.13039044

>  <Name>
lig.pdb

>  <RI>
0

>  <Rbt.Current_Directory>
/home/itssahil/PROJECTS/Mol_Feturizer/New_Systems/rnas/5kx9

>  <Rbt.Executable>
rbdock ($Id: //depot/dev/client3/rdock/2013.1/src/exe/rbdock.cxx#4 $)

>  <Rbt.Library>
libRbt.so (2013.1, Build901 2013/11/27)

>  <Rbt.Parameter_File>
/export/apps/rDock/src/rDock_2013.1_src/data/scripts/dock_solv.prm

>  <Rbt.Receptor>
prm/pocket_docking_4.prm

>  <SCORE>
-39.7007

>  <SCORE.INTER>
-35.668

>  <SCORE.INTER.CONST>
1

>  <SCORE.INTER.POLAR>
0

>  <SCORE.INTER.ROT>
5

>  <SCORE.INTER.SOLV>
17.6551

>  <SCORE.INTER.VDW>
-36.597

>  <SCORE.INTER.norm>
-1.32104

>  <SCORE.INTRA>
-4.0327

>  <SCORE.INTRA.DIHEDRAL>
2.80703

>  <SCORE.INTRA.DIHEDRAL.0>
2.68224

>  <SCORE.INTRA.POLAR>
0

>  <SCORE.INTRA.POLAR.0>
0

>  <SCORE.INTRA.REPUL>
0

>  <SCORE.INTRA.REPUL.0>
0

>  <SCORE.INTRA.SOLV>
-0.527095

>  <SCORE.INTRA.SOLV.lig_0>
-19.4148

>  <SCORE.INTRA.VDW>
-5.17267

>  <SCORE.INTRA.VDW.0>
5.42093

>  <SCORE.INTRA.norm>
-0.149359

>  <SCORE.RESTR>
0

>  <SCORE.RESTR.CAVITY>
0

>  <SCORE.RESTR.norm>
0

>  <SCORE.SYSTEM>
0

>  <SCORE.SYSTEM.CONST>
0

>  <SCORE.SYSTEM.DIHEDRAL>
0

>  <SCORE.SYSTEM.SOLV>
0

>  <SCORE.SYSTEM.norm>
0

>  <SCORE.heavy>
27

>  <SCORE.norm>
-1.47039

>  <RMSD>
1.419

$$$$
lig.pdb
 OpenBabel11021811523D
libRbt.so/2013.1/901 2013/11/27
 27 30  0  0  0  0  0  0  0  0999 V2000
   27.6371   34.8324   20.1588 N   0  0  0  0  0  0  0  0  0  0  0  0
   27.6638   36.1420   20.1809 C   0  0  0  0  0  0  0  0  0  0  0  0
   27.4116   36.9045   21.2746 N   0  0  0  0  0  0  0  0  0  0  0  0
   27.1554   36.2798   22.4626 C   0  0  0  0  0  0  0  0  0  0  0  0
   27.1354   34.9167   22.5383 C   0  0  0  0  0  0  0  0  0  0  0  0
   27.3681   34.1443   21.3412 C   0  0  0  0  0  0  0  0  0  0  0  0
   27.3142   32.9084   21.3196 O   0  0  0  0  0  0  0  0  0  0  0  0
   27.8088   36.9940   18.9009 C   0  0  2  0  0  0  0  0  0  0  0  0
   28.7028   38.1477   19.3839 C   0  0  0  0  0  0  0  0  0  0  0  0
   28.7797   39.2248   18.3955 N   0  0  0  0  0  0  0  0  0  0  0  0
   27.4359   39.7909   18.1959 C   0  0  0  0  0  0  0  0  0  0  0  0
   26.4923   38.7506   17.6252 C   0  0  0  0  0  0  0  0  0  0  0  0
   26.4151   37.5290   18.5303 C   0  0  0  0  0  0  0  0  0  0  0  0
   26.9468   37.2222   23.5537 C   0  0  0  0  0  0  0  0  0  0  0  0
   26.3385   36.7102   25.0844 S   0  0  0  0  0  0  0  0  0  0  0  0
   26.3698   38.2736   25.6893 C   0  0  0  0  0  0  0  0  0  0  0  0
   26.8625   39.1446   24.7996 C   0  0  0  0  0  0  0  0  0  0  0  0
   27.1929   38.5593   23.5618 C   0  0  0  0  0  0  0  0  0  0  0  0
   29.7249   40.2795   18.8024 C   0  0  0  0  0  0  0  0  0  0  0  0
   29.4264   40.9528   20.1233 C   0  0  0  0  0  0  0  0  0  0  0  0
   28.9895   42.2686   20.1740 C   0  0  0  0  0  0  0  0  0  0  0  0
   29.0420   43.0435   21.2725 N   0  0  0  0  0  0  0  0  0  0  0  0
   29.5920   42.4572   22.3252 C   0  0  0  0  0  0  0  0  0  0  0  0
   30.0879   41.2339   22.4194 N   0  0  0  0  0  0  0  0  0  0  0  0
   30.0129   40.5119   21.2916 C   0  0  0  0  0  0  0  0  0  0  0  0
   29.6505   43.2339   23.4130 O   0  0  0  0  0  0  0  0  0  0  0  0
   28.9410   42.7952   24.5774 C   0  0  0  0  0  0  0  0  0  0  0  0
  1  2  2  0  0  0  0
  1  6  1  0  0  0  0
  2  3  1  0  0  0  0
  3  4  2  0  0  0  0
  4 14  1  0  0  0  0
  5  4  1  0  0  0  0
  6  5  1  0  0  0  0
  7  6  2  0  0  0  0
  8  9  1  0  0  0  0
  8  2  1  1  0  0  0
 10 19  1  0  0  0  0
 10  9  1  0  0  0  0
 11 10  1  0  0  0  0
 12 11  1  0  0  0  0
 12 13  1  0  0  0  0
 13  8  1  0  0  0  0
 14 15  1  0  0  0  0
 14 18  2  0  0  0  0
 15 16  1  0  0  0  0
 16 17  2  0  0  0  0
 18 17  1  0  0  0  0
 19 20  1  0  0  0  0
 20 25  2  0  0  0  0
 20 21  1  0  0  0  0
 21 22  2  0  0  0  0
 22 23  1  0  0  0  0
 23 26  1  0  0  0  0
 24 23  2  0  0  0  0
 25 24  1  0  0  0  0
 26 27  1  0  0  0  0
M  END
>  <CHROM.1>
169.12457395,-142.68549782,-58.68705618,-109.93952690,118.61279083,27.94856641
38.56728751,21.55276993,-2.78951663,1.22634923,1.18292961

>  <Name>
lig.pdb

>  <RI>
0

>  <Rbt.Current_Directory>
/home/itssahil/PROJECTS/Mol_Feturizer/New_Systems/rnas/5kx9

>  <Rbt.Executable>
rbdock ($Id: //depot/dev/client3/rdock/2013.1/src/exe/rbdock.cxx#4 $)

>  <Rbt.Library>
libRbt.so (2013.1, Build901 2013/11/27)

>  <Rbt.Parameter_File>
/export/apps/rDock/src/rDock_2013.1_src/data/scripts/dock_solv.prm

>  <Rbt.Receptor>
prm/pocket_docking_3.prm

>  <SCORE>
-39.8308

>  <SCORE.INTER>
-35.7894

>  <SCORE.INTER.CONST>
1

>  <SCORE.INTER.POLAR>
0

>  <SCORE.INTER.ROT>
5

>  <SCORE.INTER.SOLV>
17.5329

>  <SCORE.INTER.VDW>
-36.6373

>  <SCORE.INTER.norm>
-1.32553

>  <SCORE.INTRA>
-4.04141

>  <SCORE.INTRA.DIHEDRAL>
2.74261

>  <SCORE.INTRA.DIHEDRAL.0>
2.68224

>  <SCORE.INTRA.POLAR>
0

>  <SCORE.INTRA.POLAR.0>
0

>  <SCORE.INTRA.REPUL>
0

>  <SCORE.INTRA.REPUL.0>
0

>  <SCORE.INTRA.SOLV>
-0.510626

>  <SCORE.INTRA.SOLV.lig_0>
-19.4148

>  <SCORE.INTRA.VDW>
-5.15741

>  <SCORE.INTRA.VDW.0>
5.42093

>  <SCORE.INTRA.norm>
-0.149682

>  <SCORE.RESTR>
0

>  <SCORE.RESTR.CAVITY>
0

>  <SCORE.RESTR.norm>
0

>  <SCORE.SYSTEM>
0

>  <SCORE.SYSTEM.CONST>
0

>  <SCORE.SYSTEM.DIHEDRAL>
0

>  <SCORE.SYSTEM.SOLV>
0

>  <SCORE.SYSTEM.norm>
0

>  <SCORE.heavy>
27

>  <SCORE.norm>
-1.47522

>  <RMSD>
1.428

$$$$
lig.pdb
 OpenBabel11021811523D
libRbt.so/2013.1/901 2013/11/27
 27 30  0  0  0  0  0  0  0  0999 V2000
   27.9337   36.6471   18.8806 N   0  0  0  0  0  0  0  0  0  0  0  0
   27.7430   37.7857   19.4998 C   0  0  0  0  0  0  0  0  0  0  0  0
   27.4471   37.9117   20.8180 N   0  0  0  0  0  0  0  0  0  0  0  0
   27.3856   36.7828   21.5854 C   0  0  0  0  0  0  0  0  0  0  0  0
   27.5991   35.5543   21.0288 C   0  0  0  0  0  0  0  0  0  0  0  0
   27.8699   35.4629   19.6139 C   0  0  0  0  0  0  0  0  0  0  0  0
   28.0216   34.3834   19.0286 O   0  0  0  0  0  0  0  0  0  0  0  0
   27.6504   39.1346   18.7532 C   0  0  2  0  0  0  0  0  0  0  0  0
   28.3790   40.0848   19.7175 C   0  0  0  0  0  0  0  0  0  0  0  0
   28.2049   41.4865   19.3327 N   0  0  0  0  0  0  0  0  0  0  0  0
   26.7757   41.8308   19.4046 C   0  0  0  0  0  0  0  0  0  0  0  0
   25.9734   41.0104   18.4139 C   0  0  0  0  0  0  0  0  0  0  0  0
   26.1643   39.5199   18.6585 C   0  0  0  0  0  0  0  0  0  0  0  0
   27.1024   37.0749   22.9842 C   0  0  0  0  0  0  0  0  0  0  0  0
   26.4442   35.8805   24.0402 S   0  0  0  0  0  0  0  0  0  0  0  0
   26.4031   36.9528   25.3283 C   0  0  0  0  0  0  0  0  0  0  0  0
   26.9077   38.1489   25.0000 C   0  0  0  0  0  0  0  0  0  0  0  0
   27.3082   38.2408   23.6528 C   0  0  0  0  0  0  0  0  0  0  0  0
   28.9941   42.3936   20.1844 C   0  0  0  0  0  0  0  0  0  0  0  0
   28.8150   42.2139   21.6754 C   0  0  0  0  0  0  0  0  0  0  0  0
   27.7228   42.7571   22.3363 C   0  0  0  0  0  0  0  0  0  0  0  0
   27.6622   42.9553   23.6656 N   0  0  0  0  0  0  0  0  0  0  0  0
   28.7667   42.6208   24.3157 C   0  0  0  0  0  0  0  0  0  0  0  0
   29.8946   42.1333   23.8241 N   0  0  0  0  0  0  0  0  0  0  0  0
   29.8972   41.9634   22.4937 C   0  0  0  0  0  0  0  0  0  0  0  0
   28.7058   42.8277   25.6361 O   0  0  0  0  0  0  0  0  0  0  0  0
   29.9121   43.2231   26.2996 C   0  0  0  0  0  0  0  0  0  0  0  0
  1  2  2  0  0  0  0
  1  6  1  0  0  0  0
  2  3  1  0  0  0  0
  3  4  2  0  0  0  0
  4 14  1  0  0  0  0
  5  4  1  0  0  0  0
  6  5  1  0  0  0  0
  7  6  2  0  0  0  0
  8  9  1  0  0  0  0
  8  2  1  1  0  0  0
 10 19  1  0  0  0  0
 10  9  1  0  0  0  0
 11 10  1  0  0  0  0
 12 11  1  0  0  0  0
 12 13  1  0  0  0  0
 13  8  1  0  0  0  0
 14 15  1  0  0  0  0
 14 18  2  0  0  0  0
 15 16  1  0  0  0  0
 16 17  2  0  0  0  0
 18 17  1  0  0  0  0
 19 20  1  0  0  0  0
 20 25  2  0  0  0  0
 20 21  1  0  0  0  0
 21 22  2  0  0  0  0
 22 23  1  0  0  0  0
 23 26  1  0  0  0  0
 24 23  2  0  0  0  0
 25 24  1  0  0  0  0
 26 27  1  0  0  0  0
M  END
>  <CHROM.1>
158.58472518,-142.37888037,-51.46588028,-80.38181906,-146.02822440,27.78488412
39.37385118,21.82209907,-2.90845713,1.35507373,1.79704638

>  <Name>
lig.pdb

>  <RI>
0

>  <Rbt.Current_Directory>
/home/itssahil/PROJECTS/Mol_Feturizer/New_Systems/rnas/5kx9

>  <Rbt.Executable>
rbdock ($Id: //depot/dev/client3/rdock/2013.1/src/exe/rbdock.cxx#4 $)

>  <Rbt.Library>
libRbt.so (2013.1, Build901 2013/11/27)

>  <Rbt.Parameter_File>
/export/apps/rDock/src/rDock_2013.1_src/data/scripts/dock_solv.prm

>  <Rbt.Receptor>
prm/pocket_docking_4.prm

>  <SCORE>
-37.9475

>  <SCORE.INTER>
-34.872

>  <SCORE.INTER.CONST>
1

>  <SCORE.INTER.POLAR>
0

>  <SCORE.INTER.ROT>
5

>  <SCORE.INTER.SOLV>
14.8969

>  <SCORE.INTER.VDW>
-35.147

>  <SCORE.INTER.norm>
-1.29155

>  <SCORE.INTRA>
-3.07556

>  <SCORE.INTRA.DIHEDRAL>
2.01003

>  <SCORE.INTRA.DIHEDRAL.0>
2.68224

>  <SCORE.INTRA.POLAR>
0

>  <SCORE.INTRA.POLAR.0>
0

>  <SCORE.INTRA.REPUL>
0

>  <SCORE.INTRA.REPUL.0>
0

>  <SCORE.INTRA.SOLV>
-0.579907

>  <SCORE.INTRA.SOLV.lig_0>
-19.4148

>  <SCORE.INTRA.VDW>
-3.79062

>  <SCORE.INTRA.VDW.0>
5.42093

>  <SCORE.INTRA.norm>
-0.11391

>  <SCORE.RESTR>
0

>  <SCORE.RESTR.CAVITY>
0

>  <SCORE.RESTR.norm>
0

>  <SCORE.SYSTEM>
0

>  <SCORE.SYSTEM.CONST>
0

>  <SCORE.SYSTEM.DIHEDRAL>
0

>  <SCORE.SYSTEM.SOLV>
0

>  <SCORE.SYSTEM.norm>
0

>  <SCORE.heavy>
27

>  <SCORE.norm>
-1.40546

>  <RMSD>
1.437

$$$$
lig.pdb
 OpenBabel11021811523D
libRbt.so/2013.1/901 2013/11/27
 27 30  0  0  0  0  0  0  0  0999 V2000
   27.6384   34.7223   20.1619 N   0  0  0  0  0  0  0  0  0  0  0  0
   27.6762   36.0318   20.1583 C   0  0  0  0  0  0  0  0  0  0  0  0
   27.4273   36.8178   21.2359 N   0  0  0  0  0  0  0  0  0  0  0  0
   27.1622   36.2190   22.4352 C   0  0  0  0  0  0  0  0  0  0  0  0
   27.1304   34.8578   22.5377 C   0  0  0  0  0  0  0  0  0  0  0  0
   27.3601   34.0600   21.3569 C   0  0  0  0  0  0  0  0  0  0  0  0
   27.2957   32.8244   21.3595 O   0  0  0  0  0  0  0  0  0  0  0  0
   27.8323   36.8571   18.8621 C   0  0  2  0  0  0  0  0  0  0  0  0
   28.7186   38.0229   19.3298 C   0  0  0  0  0  0  0  0  0  0  0  0
   28.8030   39.0792   18.3197 N   0  0  0  0  0  0  0  0  0  0  0  0
   27.4599   39.6375   18.0946 C   0  0  0  0  0  0  0  0  0  0  0  0
   26.5248   38.5830   17.5364 C   0  0  0  0  0  0  0  0  0  0  0  0
   26.4411   37.3805   18.4662 C   0  0  0  0  0  0  0  0  0  0  0  0
   26.9584   37.1845   23.5068 C   0  0  0  0  0  0  0  0  0  0  0  0
   26.3293   36.7102   25.0413 S   0  0  0  0  0  0  0  0  0  0  0  0
   26.3788   38.2839   25.6174 C   0  0  0  0  0  0  0  0  0  0  0  0
   26.8922   39.1308   24.7162 C   0  0  0  0  0  0  0  0  0  0  0  0
   27.2244   38.5178   23.4923 C   0  0  0  0  0  0  0  0  0  0  0  0
   29.7415   40.1446   18.7139 C   0  0  0  0  0  0  0  0  0  0  0  0
   29.4272   40.8457   20.0167 C   0  0  0  0  0  0  0  0  0  0  0  0
   28.8708   42.1164   20.0302 C   0  0  0  0  0  0  0  0  0  0  0  0
   28.8885   42.9410   21.0931 N   0  0  0  0  0  0  0  0  0  0  0  0
   29.5274   42.4554   22.1468 C   0  0  0  0  0  0  0  0  0  0  0  0
   30.1389   41.2884   22.2719 N   0  0  0  0  0  0  0  0  0  0  0  0
   30.0928   40.5131   21.1785 C   0  0  0  0  0  0  0  0  0  0  0  0
   29.5505   43.2818   23.1988 O   0  0  0  0  0  0  0  0  0  0  0  0
   29.2386   42.7272   24.4820 C   0  0  0  0  0  0  0  0  0  0  0  0
  1  2  2  0  0  0  0
  1  6  1  0  0  0  0
  2  3  1  0  0  0  0
  3  4  2  0  0  0  0
  4 14  1  0  0  0  0
  5  4  1  0  0  0  0
  6  5  1  0  0  0  0
  7  6  2  0  0  0  0
  8  9  1  0  0  0  0
  8  2  1  1  0  0  0
 10 19  1  0  0  0  0
 10  9  1  0  0  0  0
 11 10  1  0  0  0  0
 12 11  1  0  0  0  0
 12 13  1  0  0  0  0
 13  8  1  0  0  0  0
 14 15  1  0  0  0  0
 14 18  2  0  0  0  0
 15 16  1  0  0  0  0
 16 17  2  0  0  0  0
 18 17  1  0  0  0  0
 19 20  1  0  0  0  0
 20 25  2  0  0  0  0
 20 21  1  0  0  0  0
 21 22  2  0  0  0  0
 22 23  1  0  0  0  0
 23 26  1  0  0  0  0
 24 23  2  0  0  0  0
 25 24  1  0  0  0  0
 26 27  1  0  0  0  0
M  END
>  <CHROM.1>
168.62609427,-143.43795773,-58.73833521,-103.92755902,133.88933445,27.95684317
38.49613672,21.47847881,-2.79216364,1.22744475,1.17229110

>  <Name>
lig.pdb

>  <RI>
0

>  <Rbt.Current_Directory>
/home/itssahil/PROJECTS/Mol_Feturizer/New_Systems/rnas/5kx9

>  <Rbt.Executable>
rbdock ($Id: //depot/dev/client3/rdock/2013.1/src/exe/rbdock.cxx#4 $)

>  <Rbt.Library>
libRbt.so (2013.1, Build901 2013/11/27)

>  <Rbt.Parameter_File>
/export/apps/rDock/src/rDock_2013.1_src/data/scripts/dock_solv.prm

>  <Rbt.Receptor>
prm/pocket_docking_3.prm

>  <SCORE>
-39.8873

>  <SCORE.INTER>
-35.7994

>  <SCORE.INTER.CONST>
1

>  <SCORE.INTER.POLAR>
0

>  <SCORE.INTER.ROT>
5

>  <SCORE.INTER.SOLV>
17.6001

>  <SCORE.INTER.VDW>
-36.6663

>  <SCORE.INTER.norm>
-1.3259

>  <SCORE.INTRA>
-4.08786

>  <SCORE.INTRA.DIHEDRAL>
1.54374

>  <SCORE.INTRA.DIHEDRAL.0>
2.68224

>  <SCORE.INTRA.POLAR>
0

>  <SCORE.INTRA.POLAR.0>
0

>  <SCORE.INTRA.REPUL>
0

>  <SCORE.INTRA.REPUL.0>
0

>  <SCORE.INTRA.SOLV>
-0.545777

>  <SCORE.INTRA.SOLV.lig_0>
-19.4148

>  <SCORE.INTRA.VDW>
-4.58684

>  <SCORE.INTRA.VDW.0>
5.42093

>  <SCORE.INTRA.norm>
-0.151402

>  <SCORE.RESTR>
0

>  <SCORE.RESTR.CAVITY>
0

>  <SCORE.RESTR.norm>
0

>  <SCORE.SYSTEM>
0

>  <SCORE.SYSTEM.CONST>
0

>  <SCORE.SYSTEM.DIHEDRAL>
0

>  <SCORE.SYSTEM.SOLV>
0

>  <SCORE.SYSTEM.norm>
0

>  <SCORE.heavy>
27

>  <SCORE.norm>
-1.47731

>  <RMSD>
1.467

$$$$
lig.pdb
 OpenBabel11021811523D
libRbt.so/2013.1/901 2013/11/27
 27 30  0  0  0  0  0  0  0  0999 V2000
   28.4480   35.6821   18.6141 N   0  0  0  0  0  0  0  0  0  0  0  0
   28.7949   36.7174   19.3381 C   0  0  0  0  0  0  0  0  0  0  0  0
   28.3601   36.9620   20.5999 N   0  0  0  0  0  0  0  0  0  0  0  0
   27.5363   36.0495   21.1964 C   0  0  0  0  0  0  0  0  0  0  0  0
   27.1460   34.9261   20.5256 C   0  0  0  0  0  0  0  0  0  0  0  0
   27.5989   34.7260   19.1696 C   0  0  0  0  0  0  0  0  0  0  0  0
   27.2461   33.7609   18.4804 O   0  0  0  0  0  0  0  0  0  0  0  0
   29.6104   37.8980   18.7666 C   0  0  2  0  0  0  0  0  0  0  0  0
   28.9170   39.1084   19.4128 C   0  0  0  0  0  0  0  0  0  0  0  0
   29.3673   40.3703   18.8227 N   0  0  0  0  0  0  0  0  0  0  0  0
   29.0040   40.3908   17.3966 C   0  0  0  0  0  0  0  0  0  0  0  0
   29.7172   39.2854   16.6431 C   0  0  0  0  0  0  0  0  0  0  0  0
   29.3995   37.9229   17.2432 C   0  0  0  0  0  0  0  0  0  0  0  0
   27.1869   36.4226   22.5606 C   0  0  0  0  0  0  0  0  0  0  0  0
   26.2492   35.3832   23.5683 S   0  0  0  0  0  0  0  0  0  0  0  0
   26.2780   36.4821   24.8342 C   0  0  0  0  0  0  0  0  0  0  0  0
   27.0026   37.5684   24.5374 C   0  0  0  0  0  0  0  0  0  0  0  0
   27.5272   37.5558   23.2303 C   0  0  0  0  0  0  0  0  0  0  0  0
   28.7933   41.5377   19.5147 C   0  0  0  0  0  0  0  0  0  0  0  0
   29.3495   41.8218   20.8922 C   0  0  0  0  0  0  0  0  0  0  0  0
   29.3454   40.8486   21.8809 C   0  0  0  0  0  0  0  0  0  0  0  0
   29.4796   41.1022   23.1953 N   0  0  0  0  0  0  0  0  0  0  0  0
   29.5808   42.3889   23.4929 C   0  0  0  0  0  0  0  0  0  0  0  0
   29.5601   43.4269   22.6721 N   0  0  0  0  0  0  0  0  0  0  0  0
   29.4181   43.1119   21.3761 C   0  0  0  0  0  0  0  0  0  0  0  0
   29.7051   42.6376   24.8016 O   0  0  0  0  0  0  0  0  0  0  0  0
   28.6023   43.2694   25.4621 C   0  0  0  0  0  0  0  0  0  0  0  0
  1  2  2  0  0  0  0
  1  6  1  0  0  0  0
  2  3  1  0  0  0  0
  3  4  2  0  0  0  0
  4 14  1  0  0  0  0
  5  4  1  0  0  0  0
  6  5  1  0  0  0  0
  7  6  2  0  0  0  0
  8  9  1  0  0  0  0
  8  2  1  1  0  0  0
 10 19  1  0  0  0  0
 10  9  1  0  0  0  0
 11 10  1  0  0  0  0
 12 11  1  0  0  0  0
 12 13  1  0  0  0  0
 13  8  1  0  0  0  0
 14 15  1  0  0  0  0
 14 18  2  0  0  0  0
 15 16  1  0  0  0  0
 16 17  2  0  0  0  0
 18 17  1  0  0  0  0
 19 20  1  0  0  0  0
 20 25  2  0  0  0  0
 20 21  1  0  0  0  0
 21 22  2  0  0  0  0
 22 23  1  0  0  0  0
 23 26  1  0  0  0  0
 24 23  2  0  0  0  0
 25 24  1  0  0  0  0
 26 27  1  0  0  0  0
M  END
>  <CHROM.1>
-175.62015815,139.12221412,72.30891286,-54.92259018,-110.61607649,28.39371164
38.65863010,21.15798993,-2.17782810,1.16106408,0.94842672

>  <Name>
lig.pdb

>  <RI>
0

>  <Rbt.Current_Directory>
/home/itssahil/PROJECTS/Mol_Feturizer/New_Systems/rnas/5kx9

>  <Rbt.Executable>
rbdock ($Id: //depot/dev/client3/rdock/2013.1/src/exe/rbdock.cxx#4 $)

>  <Rbt.Library>
libRbt.so (2013.1, Build901 2013/11/27)

>  <Rbt.Parameter_File>
/export/apps/rDock/src/rDock_2013.1_src/data/scripts/dock_solv.prm

>  <Rbt.Receptor>
prm/blind_docking_100.prm

>  <SCORE>
-37.1446

>  <SCORE.INTER>
-35.7306

>  <SCORE.INTER.CONST>
1

>  <SCORE.INTER.POLAR>
0

>  <SCORE.INTER.ROT>
5

>  <SCORE.INTER.SOLV>
14.6531

>  <SCORE.INTER.VDW>
-35.6381

>  <SCORE.INTER.norm>
-1.32335

>  <SCORE.INTRA>
-1.41409

>  <SCORE.INTRA.DIHEDRAL>
4.10175

>  <SCORE.INTRA.DIHEDRAL.0>
2.68224

>  <SCORE.INTRA.POLAR>
0

>  <SCORE.INTRA.POLAR.0>
0

>  <SCORE.INTRA.REPUL>
0

>  <SCORE.INTRA.REPUL.0>
0

>  <SCORE.INTRA.SOLV>
-0.427715

>  <SCORE.INTRA.SOLV.lig_0>
-19.4148

>  <SCORE.INTRA.VDW>
-3.25111

>  <SCORE.INTRA.VDW.0>
5.42093

>  <SCORE.INTRA.norm>
-0.0523737

>  <SCORE.RESTR>
0

>  <SCORE.RESTR.CAVITY>
0

>  <SCORE.RESTR.norm>
0

>  <SCORE.SYSTEM>
0

>  <SCORE.SYSTEM.CONST>
0

>  <SCORE.SYSTEM.DIHEDRAL>
0

>  <SCORE.SYSTEM.SOLV>
0

>  <SCORE.SYSTEM.norm>
0

>  <SCORE.heavy>
27

>  <SCORE.norm>
-1.37573

>  <RMSD>
1.468

$$$$
lig.pdb
 OpenBabel11021811523D
libRbt.so/2013.1/901 2013/11/27
 27 30  0  0  0  0  0  0  0  0999 V2000
   27.9620   36.7311   18.9807 N   0  0  0  0  0  0  0  0  0  0  0  0
   27.7529   37.8704   19.5927 C   0  0  0  0  0  0  0  0  0  0  0  0
   27.4460   37.9993   20.9081 N   0  0  0  0  0  0  0  0  0  0  0  0
   27.3927   36.8736   21.6808 C   0  0  0  0  0  0  0  0  0  0  0  0
   27.6251   35.6451   21.1320 C   0  0  0  0  0  0  0  0  0  0  0  0
   27.9073   35.5499   19.7195 C   0  0  0  0  0  0  0  0  0  0  0  0
   28.0764   34.4694   19.1409 O   0  0  0  0  0  0  0  0  0  0  0  0
   27.6494   39.2143   18.8386 C   0  0  2  0  0  0  0  0  0  0  0  0
   28.3909   40.1711   19.7864 C   0  0  0  0  0  0  0  0  0  0  0  0
   28.2108   41.5702   19.3948 N   0  0  0  0  0  0  0  0  0  0  0  0
   26.7827   41.9144   19.4844 C   0  0  0  0  0  0  0  0  0  0  0  0
   25.9670   41.0872   18.5104 C   0  0  0  0  0  0  0  0  0  0  0  0
   26.1620   39.5985   18.7621 C   0  0  0  0  0  0  0  0  0  0  0  0
   27.0958   37.1693   23.0760 C   0  0  0  0  0  0  0  0  0  0  0  0
   26.4928   35.9587   24.1464 S   0  0  0  0  0  0  0  0  0  0  0  0
   26.4019   37.0435   25.4215 C   0  0  0  0  0  0  0  0  0  0  0  0
   26.8511   38.2574   25.0787 C   0  0  0  0  0  0  0  0  0  0  0  0
   27.2476   38.3514   23.7304 C   0  0  0  0  0  0  0  0  0  0  0  0
   29.0115   42.4832   20.2294 C   0  0  0  0  0  0  0  0  0  0  0  0
   28.8591   42.3080   21.7239 C   0  0  0  0  0  0  0  0  0  0  0  0
   27.7144   42.7337   22.3820 C   0  0  0  0  0  0  0  0  0  0  0  0
   27.6361   42.9449   23.7084 N   0  0  0  0  0  0  0  0  0  0  0  0
   28.7738   42.7490   24.3578 C   0  0  0  0  0  0  0  0  0  0  0  0
   29.9482   42.3854   23.8679 N   0  0  0  0  0  0  0  0  0  0  0  0
   29.9656   42.1957   22.5403 C   0  0  0  0  0  0  0  0  0  0  0  0
   28.6941   42.9686   25.6752 O   0  0  0  0  0  0  0  0  0  0  0  0
   29.5823   42.2311   26.5231 C   0  0  0  0  0  0  0  0  0  0  0  0
  1  2  2  0  0  0  0
  1  6  1  0  0  0  0
  2  3  1  0  0  0  0
  3  4  2  0  0  0  0
  4 14  1  0  0  0  0
  5  4  1  0  0  0  0
  6  5  1  0  0  0  0
  7  6  2  0  0  0  0
  8  9  1  0  0  0  0
  8  2  1  1  0  0  0
 10 19  1  0  0  0  0
 10  9  1  0  0  0  0
 11 10  1  0  0  0  0
 12 11  1  0  0  0  0
 12 13  1  0  0  0  0
 13  8  1  0  0  0  0
 14 15  1  0  0  0  0
 14 18  2  0  0  0  0
 15 16  1  0  0  0  0
 16 17  2  0  0  0  0
 18 17  1  0  0  0  0
 19 20  1  0  0  0  0
 20 25  2  0  0  0  0
 20 21  1  0  0  0  0
 21 22  2  0  0  0  0
 22 23  1  0  0  0  0
 23 26  1  0  0  0  0
 24 23  2  0  0  0  0
 25 24  1  0  0  0  0
 26 27  1  0  0  0  0
M  END
>  <CHROM.1>
160.60305671,-140.98805519,-51.13613360,-73.96248214,151.34631967,27.78306911
39.42607595,21.90604531,-2.89795386,1.36215741,1.77986269

>  <Name>
lig.pdb

>  <RI>
0

>  <Rbt.Current_Directory>
/home/itssahil/PROJECTS/Mol_Feturizer/New_Systems/rnas/5kx9

>  <Rbt.Executable>
rbdock ($Id: //depot/dev/client3/rdock/2013.1/src/exe/rbdock.cxx#4 $)

>  <Rbt.Library>
libRbt.so (2013.1, Build901 2013/11/27)

>  <Rbt.Parameter_File>
/export/apps/rDock/src/rDock_2013.1_src/data/scripts/dock_solv.prm

>  <Rbt.Receptor>
prm/blind_docking_60.prm

>  <SCORE>
-38.0115

>  <SCORE.INTER>
-34.8394

>  <SCORE.INTER.CONST>
1

>  <SCORE.INTER.POLAR>
0

>  <SCORE.INTER.ROT>
5

>  <SCORE.INTER.SOLV>
14.8547

>  <SCORE.INTER.VDW>
-35.1112

>  <SCORE.INTER.norm>
-1.29035

>  <SCORE.INTRA>
-3.17213

>  <SCORE.INTRA.DIHEDRAL>
1.54553

>  <SCORE.INTRA.DIHEDRAL.0>
2.68224

>  <SCORE.INTRA.POLAR>
0

>  <SCORE.INTRA.POLAR.0>
0

>  <SCORE.INTRA.REPUL>
0

>  <SCORE.INTRA.REPUL.0>
0

>  <SCORE.INTRA.SOLV>
-0.563405

>  <SCORE.INTRA.SOLV.lig_0>
-19.4148

>  <SCORE.INTRA.VDW>
-3.66319

>  <SCORE.INTRA.VDW.0>
5.42093

>  <SCORE.INTRA.norm>
-0.117486

>  <SCORE.RESTR>
0

>  <SCORE.RESTR.CAVITY>
0

>  <SCORE.RESTR.norm>
0

>  <SCORE.SYSTEM>
0

>  <SCORE.SYSTEM.CONST>
0

>  <SCORE.SYSTEM.DIHEDRAL>
0

>  <SCORE.SYSTEM.SOLV>
0

>  <SCORE.SYSTEM.norm>
0

>  <SCORE.heavy>
27

>  <SCORE.norm>
-1.40783

>  <RMSD>
1.495

$$$$
lig.pdb
 OpenBabel11021811523D
libRbt.so/2013.1/901 2013/11/27
 27 30  0  0  0  0  0  0  0  0999 V2000
   27.6524   34.7199   20.1522 N   0  0  0  0  0  0  0  0  0  0  0  0
   27.6823   36.0295   20.1418 C   0  0  0  0  0  0  0  0  0  0  0  0
   27.4336   36.8195   21.2166 N   0  0  0  0  0  0  0  0  0  0  0  0
   27.1776   36.2252   22.4201 C   0  0  0  0  0  0  0  0  0  0  0  0
   27.1545   34.8644   22.5296 C   0  0  0  0  0  0  0  0  0  0  0  0
   27.3835   34.0620   21.3518 C   0  0  0  0  0  0  0  0  0  0  0  0
   27.3266   32.8260   21.3610 O   0  0  0  0  0  0  0  0  0  0  0  0
   27.8274   36.8491   18.8407 C   0  0  2  0  0  0  0  0  0  0  0  0
   28.7079   38.0233   19.2988 C   0  0  0  0  0  0  0  0  0  0  0  0
   28.7810   39.0749   18.2829 N   0  0  0  0  0  0  0  0  0  0  0  0
   27.4333   39.6230   18.0605 C   0  0  0  0  0  0  0  0  0  0  0  0
   26.5029   38.5594   17.5117 C   0  0  0  0  0  0  0  0  0  0  0  0
   26.4312   37.3612   18.4481 C   0  0  0  0  0  0  0  0  0  0  0  0
   26.9729   37.1949   23.4877 C   0  0  0  0  0  0  0  0  0  0  0  0
   26.3733   36.7214   25.0341 S   0  0  0  0  0  0  0  0  0  0  0  0
   26.4049   38.2998   25.5986 C   0  0  0  0  0  0  0  0  0  0  0  0
   26.8916   39.1485   24.6844 C   0  0  0  0  0  0  0  0  0  0  0  0
   27.2167   38.5322   23.4602 C   0  0  0  0  0  0  0  0  0  0  0  0
   29.7140   40.1485   18.6677 C   0  0  0  0  0  0  0  0  0  0  0  0
   29.4052   40.8486   19.9723 C   0  0  0  0  0  0  0  0  0  0  0  0
   28.9403   42.1556   19.9912 C   0  0  0  0  0  0  0  0  0  0  0  0
   28.9794   42.9591   21.0696 N   0  0  0  0  0  0  0  0  0  0  0  0
   29.5453   42.4116   22.1347 C   0  0  0  0  0  0  0  0  0  0  0  0
   30.0677   41.2019   22.2581 N   0  0  0  0  0  0  0  0  0  0  0  0
   30.0048   40.4501   21.1492 C   0  0  0  0  0  0  0  0  0  0  0  0
   29.5904   43.2167   23.2023 O   0  0  0  0  0  0  0  0  0  0  0  0
   28.7349   42.8991   24.3064 C   0  0  0  0  0  0  0  0  0  0  0  0
  1  2  2  0  0  0  0
  1  6  1  0  0  0  0
  2  3  1  0  0  0  0
  3  4  2  0  0  0  0
  4 14  1  0  0  0  0
  5  4  1  0  0  0  0
  6  5  1  0  0  0  0
  7  6  2  0  0  0  0
  8  9  1  0  0  0  0
  8  2  1  1  0  0  0
 10 19  1  0  0  0  0
 10  9  1  0  0  0  0
 11 10  1  0  0  0  0
 12 11  1  0  0  0  0
 12 13  1  0  0  0  0
 13  8  1  0  0  0  0
 14 15  1  0  0  0  0
 14 18  2  0  0  0  0
 15 16  1  0  0  0  0
 16 17  2  0  0  0  0
 18 17  1  0  0  0  0
 19 20  1  0  0  0  0
 20 25  2  0  0  0  0
 20 21  1  0  0  0  0
 21 22  2  0  0  0  0
 22 23  1  0  0  0  0
 23 26  1  0  0  0  0
 24 23  2  0  0  0  0
 25 24  1  0  0  0  0
 26 27  1  0  0  0  0
M  END
>  <CHROM.1>
169.44009153,-143.48294804,-58.38647390,-109.22214417,109.34173159,27.94327369
38.49656460,21.45212496,-2.76289749,1.23729891,1.13734858

>  <Name>
lig.pdb

>  <RI>
0

>  <Rbt.Current_Directory>
/home/itssahil/PROJECTS/Mol_Feturizer/New_Systems/rnas/5kx9

>  <Rbt.Executable>
rbdock ($Id: //depot/dev/client3/rdock/2013.1/src/exe/rbdock.cxx#4 $)

>  <Rbt.Library>
libRbt.so (2013.1, Build901 2013/11/27)

>  <Rbt.Parameter_File>
/export/apps/rDock/src/rDock_2013.1_src/data/scripts/dock_solv.prm

>  <Rbt.Receptor>
prm/pocket_docking_3.prm

>  <SCORE>
-39.581

>  <SCORE.INTER>
-35.6888

>  <SCORE.INTER.CONST>
1

>  <SCORE.INTER.POLAR>
0

>  <SCORE.INTER.ROT>
5

>  <SCORE.INTER.SOLV>
17.5316

>  <SCORE.INTER.VDW>
-36.5697

>  <SCORE.INTER.norm>
-1.32181

>  <SCORE.INTRA>
-3.89219

>  <SCORE.INTRA.DIHEDRAL>
3.27823

>  <SCORE.INTRA.DIHEDRAL.0>
2.68224

>  <SCORE.INTRA.POLAR>
0

>  <SCORE.INTRA.POLAR.0>
0

>  <SCORE.INTRA.REPUL>
0

>  <SCORE.INTRA.REPUL.0>
0

>  <SCORE.INTRA.SOLV>
-0.504489

>  <SCORE.INTRA.SOLV.lig_0>
-19.4148

>  <SCORE.INTRA.VDW>
-5.27906

>  <SCORE.INTRA.VDW.0>
5.42093

>  <SCORE.INTRA.norm>
-0.144155

>  <SCORE.RESTR>
0

>  <SCORE.RESTR.CAVITY>
0

>  <SCORE.RESTR.norm>
0

>  <SCORE.SYSTEM>
0

>  <SCORE.SYSTEM.CONST>
0

>  <SCORE.SYSTEM.DIHEDRAL>
0

>  <SCORE.SYSTEM.SOLV>
0

>  <SCORE.SYSTEM.norm>
0

>  <SCORE.heavy>
27

>  <SCORE.norm>
-1.46596

>  <RMSD>
1.497

$$$$
lig.pdb
 OpenBabel11021811523D
libRbt.so/2013.1/901 2013/11/27
 27 30  0  0  0  0  0  0  0  0999 V2000
   27.9298   36.6688   18.5384 N   0  0  0  0  0  0  0  0  0  0  0  0
   27.6842   37.7652   19.2121 C   0  0  0  0  0  0  0  0  0  0  0  0
   27.3923   37.8128   20.5363 N   0  0  0  0  0  0  0  0  0  0  0  0
   27.3962   36.6472   21.2494 C   0  0  0  0  0  0  0  0  0  0  0  0
   27.6697   35.4595   20.6338 C   0  0  0  0  0  0  0  0  0  0  0  0
   27.9340   35.4495   19.2147 C   0  0  0  0  0  0  0  0  0  0  0  0
   28.1378   34.4085   18.5780 O   0  0  0  0  0  0  0  0  0  0  0  0
   27.5151   39.1411   18.5310 C   0  0  2  0  0  0  0  0  0  0  0  0
   28.3342   40.0578   19.4541 C   0  0  0  0  0  0  0  0  0  0  0  0
   28.1198   41.4722   19.1430 N   0  0  0  0  0  0  0  0  0  0  0  0
   26.7042   41.8052   19.3700 C   0  0  0  0  0  0  0  0  0  0  0  0
   25.8089   41.0186   18.4330 C   0  0  0  0  0  0  0  0  0  0  0  0
   26.0262   39.5211   18.5996 C   0  0  0  0  0  0  0  0  0  0  0  0
   27.1088   36.8575   22.6619 C   0  0  0  0  0  0  0  0  0  0  0  0
   26.5576   35.5723   23.6717 S   0  0  0  0  0  0  0  0  0  0  0  0
   26.4501   36.5831   25.0050 C   0  0  0  0  0  0  0  0  0  0  0  0
   26.8571   37.8274   24.7237 C   0  0  0  0  0  0  0  0  0  0  0  0
   27.2326   38.0066   23.3780 C   0  0  0  0  0  0  0  0  0  0  0  0
   28.9882   42.3507   19.9464 C   0  0  0  0  0  0  0  0  0  0  0  0
   28.8874   42.1783   21.4456 C   0  0  0  0  0  0  0  0  0  0  0  0
   27.8289   41.4876   22.0176 C   0  0  0  0  0  0  0  0  0  0  0  0
   27.4691   41.5859   23.3102 N   0  0  0  0  0  0  0  0  0  0  0  0
   28.1942   42.4437   24.0123 C   0  0  0  0  0  0  0  0  0  0  0  0
   29.2001   43.1994   23.6016 N   0  0  0  0  0  0  0  0  0  0  0  0
   29.5084   43.0624   22.3035 C   0  0  0  0  0  0  0  0  0  0  0  0
   27.8277   42.5453   25.2950 O   0  0  0  0  0  0  0  0  0  0  0  0
   28.8392   42.3452   26.2893 C   0  0  0  0  0  0  0  0  0  0  0  0
  1  2  2  0  0  0  0
  1  6  1  0  0  0  0
  2  3  1  0  0  0  0
  3  4  2  0  0  0  0
  4 14  1  0  0  0  0
  5  4  1  0  0  0  0
  6  5  1  0  0  0  0
  7  6  2  0  0  0  0
  8  9  1  0  0  0  0
  8  2  1  1  0  0  0
 10 19  1  0  0  0  0
 10  9  1  0  0  0  0
 11 10  1  0  0  0  0
 12 11  1  0  0  0  0
 12 13  1  0  0  0  0
 13  8  1  0  0  0  0
 14 15  1  0  0  0  0
 14 18  2  0  0  0  0
 15 16  1  0  0  0  0
 16 17  2  0  0  0  0
 18 17  1  0  0  0  0
 19 20  1  0  0  0  0
 20 25  2  0  0  0  0
 20 21  1  0  0  0  0
 21 22  2  0  0  0  0
 22 23  1  0  0  0  0
 23 26  1  0  0  0  0
 24 23  2  0  0  0  0
 25 24  1  0  0  0  0
 26 27  1  0  0  0  0
M  END
>  <CHROM.1>
160.03456597,-136.32363454,-55.54278868,-15.07151078,125.98457788,27.63803137
39.22612684,21.55818235,-2.68707265,1.40751611,1.53820202

>  <Name>
lig.pdb

>  <RI>
0

>  <Rbt.Current_Directory>
/home/itssahil/PROJECTS/Mol_Feturizer/New_Systems/rnas/5kx9

>  <Rbt.Executable>
rbdock ($Id: //depot/dev/client3/rdock/2013.1/src/exe/rbdock.cxx#4 $)

>  <Rbt.Library>
libRbt.so (2013.1, Build901 2013/11/27)

>  <Rbt.Parameter_File>
/export/apps/rDock/src/rDock_2013.1_src/data/scripts/dock_solv.prm

>  <Rbt.Receptor>
prm/pocket_docking_5.prm

>  <SCORE>
-34.6077

>  <SCORE.INTER>
-32.7506

>  <SCORE.INTER.CONST>
1

>  <SCORE.INTER.POLAR>
0

>  <SCORE.INTER.ROT>
5

>  <SCORE.INTER.SOLV>
12.1143

>  <SCORE.INTER.VDW>
-32.8051

>  <SCORE.INTER.norm>
-1.21298

>  <SCORE.INTRA>
-1.85714

>  <SCORE.INTRA.DIHEDRAL>
3.69854

>  <SCORE.INTRA.DIHEDRAL.0>
2.68224

>  <SCORE.INTRA.POLAR>
0

>  <SCORE.INTRA.POLAR.0>
0

>  <SCORE.INTRA.REPUL>
0

>  <SCORE.INTRA.REPUL.0>
0

>  <SCORE.INTRA.SOLV>
-0.0618257

>  <SCORE.INTRA.SOLV.lig_0>
-19.4148

>  <SCORE.INTRA.VDW>
-3.6755

>  <SCORE.INTRA.VDW.0>
5.42093

>  <SCORE.INTRA.norm>
-0.068783

>  <SCORE.RESTR>
0

>  <SCORE.RESTR.CAVITY>
0

>  <SCORE.RESTR.norm>
0

>  <SCORE.SYSTEM>
0

>  <SCORE.SYSTEM.CONST>
0

>  <SCORE.SYSTEM.DIHEDRAL>
0

>  <SCORE.SYSTEM.SOLV>
0

>  <SCORE.SYSTEM.norm>
0

>  <SCORE.heavy>
27

>  <SCORE.norm>
-1.28177

>  <RMSD>
1.557

$$$$
lig.pdb
 OpenBabel11021811523D
libRbt.so/2013.1/901 2013/11/27
 27 30  0  0  0  0  0  0  0  0999 V2000
   28.0261   36.5533   19.7229 N   0  0  0  0  0  0  0  0  0  0  0  0
   27.9147   37.7708   20.1936 C   0  0  0  0  0  0  0  0  0  0  0  0
   27.5351   38.0815   21.4587 N   0  0  0  0  0  0  0  0  0  0  0  0
   27.2921   37.0637   22.3374 C   0  0  0  0  0  0  0  0  0  0  0  0
   27.4114   35.7626   21.9406 C   0  0  0  0  0  0  0  0  0  0  0  0
   27.7774   35.4770   20.5737 C   0  0  0  0  0  0  0  0  0  0  0  0
   27.8539   34.3259   20.1267 O   0  0  0  0  0  0  0  0  0  0  0  0
   28.0276   39.0238   19.2977 C   0  0  2  0  0  0  0  0  0  0  0  0
   28.6315   40.0552   20.2646 C   0  0  0  0  0  0  0  0  0  0  0  0
   28.6049   41.4066   19.7022 N   0  0  0  0  0  0  0  0  0  0  0  0
   27.2062   41.8077   19.4811 C   0  0  0  0  0  0  0  0  0  0  0  0
   26.5415   40.9046   18.4609 C   0  0  0  0  0  0  0  0  0  0  0  0
   26.6038   39.4479   18.8990 C   0  0  0  0  0  0  0  0  0  0  0  0
   26.9371   37.5469   23.6651 C   0  0  0  0  0  0  0  0  0  0  0  0
   26.3271   36.4841   24.8789 S   0  0  0  0  0  0  0  0  0  0  0  0
   26.1618   37.7370   25.9806 C   0  0  0  0  0  0  0  0  0  0  0  0
   26.5916   38.9026   25.4809 C   0  0  0  0  0  0  0  0  0  0  0  0
   27.0343   38.8146   24.1467 C   0  0  0  0  0  0  0  0  0  0  0  0
   29.2855   42.3798   20.5745 C   0  0  0  0  0  0  0  0  0  0  0  0
   28.8356   42.3922   22.0184 C   0  0  0  0  0  0  0  0  0  0  0  0
   27.4952   42.5264   22.3499 C   0  0  0  0  0  0  0  0  0  0  0  0
   27.0473   42.8988   23.5626 N   0  0  0  0  0  0  0  0  0  0  0  0
   28.0055   43.1740   24.4347 C   0  0  0  0  0  0  0  0  0  0  0  0
   29.3163   43.1327   24.2566 N   0  0  0  0  0  0  0  0  0  0  0  0
   29.7018   42.7609   23.0270 C   0  0  0  0  0  0  0  0  0  0  0  0
   27.5563   43.5525   25.6368 O   0  0  0  0  0  0  0  0  0  0  0  0
   26.4702   42.8083   26.2009 C   0  0  0  0  0  0  0  0  0  0  0  0
  1  2  2  0  0  0  0
  1  6  1  0  0  0  0
  2  3  1  0  0  0  0
  3  4  2  0  0  0  0
  4 14  1  0  0  0  0
  5  4  1  0  0  0  0
  6  5  1  0  0  0  0
  7  6  2  0  0  0  0
  8  9  1  0  0  0  0
  8  2  1  1  0  0  0
 10 19  1  0  0  0  0
 10  9  1  0  0  0  0
 11 10  1  0  0  0  0
 12 11  1  0  0  0  0
 12 13  1  0  0  0  0
 13  8  1  0  0  0  0
 14 15  1  0  0  0  0
 14 18  2  0  0  0  0
 15 16  1  0  0  0  0
 16 17  2  0  0  0  0
 18 17  1  0  0  0  0
 19 20  1  0  0  0  0
 20 25  2  0  0  0  0
 20 21  1  0  0  0  0
 21 22  2  0  0  0  0
 22 23  1  0  0  0  0
 23 26  1  0  0  0  0
 24 23  2  0  0  0  0
 25 24  1  0  0  0  0
 26 27  1  0  0  0  0
M  END
>  <CHROM.1>
169.53981351,-148.70754828,-51.90655205,-52.99434084,43.75705948,27.56982587
39.60251959,22.29828555,-1.93403298,1.33463487,0.72449423

>  <Name>
lig.pdb

>  <RI>
0

>  <Rbt.Current_Directory>
/home/itssahil/PROJECTS/Mol_Feturizer/New_Systems/rnas/5kx9

>  <Rbt.Executable>
rbdock ($Id: //depot/dev/client3/rdock/2013.1/src/exe/rbdock.cxx#4 $)

>  <Rbt.Library>
libRbt.so (2013.1, Build901 2013/11/27)

>  <Rbt.Parameter_File>
/export/apps/rDock/src/rDock_2013.1_src/data/scripts/dock_solv.prm

>  <Rbt.Receptor>
prm/pocket_docking_3.prm

>  <SCORE>
-37.4747

>  <SCORE.INTER>
-35.4874

>  <SCORE.INTER.CONST>
1

>  <SCORE.INTER.POLAR>
0

>  <SCORE.INTER.ROT>
5

>  <SCORE.INTER.SOLV>
15.9146

>  <SCORE.INTER.VDW>
-35.8965

>  <SCORE.INTER.norm>
-1.31435

>  <SCORE.INTRA>
-1.99148

>  <SCORE.INTRA.DIHEDRAL>
2.09999

>  <SCORE.INTRA.DIHEDRAL.0>
2.68224

>  <SCORE.INTRA.POLAR>
0

>  <SCORE.INTRA.POLAR.0>
0

>  <SCORE.INTRA.REPUL>
0

>  <SCORE.INTRA.REPUL.0>
0

>  <SCORE.INTRA.SOLV>
-0.417579

>  <SCORE.INTRA.SOLV.lig_0>
-19.4148

>  <SCORE.INTRA.VDW>
-2.83269

>  <SCORE.INTRA.VDW.0>
5.42093

>  <SCORE.INTRA.norm>
-0.0737586

>  <SCORE.RESTR>
0.00414581

>  <SCORE.RESTR.CAVITY>
0.00414581

>  <SCORE.RESTR.norm>
0.000153549

>  <SCORE.SYSTEM>
0

>  <SCORE.SYSTEM.CONST>
0

>  <SCORE.SYSTEM.DIHEDRAL>
0

>  <SCORE.SYSTEM.SOLV>
0

>  <SCORE.SYSTEM.norm>
0

>  <SCORE.heavy>
27

>  <SCORE.norm>
-1.38795

>  <RMSD>
1.560

$$$$
lig.pdb
 OpenBabel11021811523D
libRbt.so/2013.1/901 2013/11/27
 27 30  0  0  0  0  0  0  0  0999 V2000
   28.7588   35.8246   18.1753 N   0  0  0  0  0  0  0  0  0  0  0  0
   29.0021   36.7902   19.0265 C   0  0  0  0  0  0  0  0  0  0  0  0
   28.4765   36.8747   20.2746 N   0  0  0  0  0  0  0  0  0  0  0  0
   27.6686   35.8640   20.7139 C   0  0  0  0  0  0  0  0  0  0  0  0
   27.3835   34.8029   19.9033 C   0  0  0  0  0  0  0  0  0  0  0  0
   27.9306   34.7738   18.5677 C   0  0  0  0  0  0  0  0  0  0  0  0
   27.6752   33.8738   17.7581 O   0  0  0  0  0  0  0  0  0  0  0  0
   29.7855   38.0639   18.6397 C   0  0  2  0  0  0  0  0  0  0  0  0
   28.9767   39.1639   19.3464 C   0  0  0  0  0  0  0  0  0  0  0  0
   29.3929   40.5014   18.9208 N   0  0  0  0  0  0  0  0  0  0  0  0
   29.1330   40.6499   17.4798 C   0  0  0  0  0  0  0  0  0  0  0  0
   29.9628   39.6664   16.6785 C   0  0  0  0  0  0  0  0  0  0  0  0
   29.6839   38.2347   17.1145 C   0  0  0  0  0  0  0  0  0  0  0  0
   27.2147   36.0690   22.0829 C   0  0  0  0  0  0  0  0  0  0  0  0
   27.5013   37.5518   22.9162 S   0  0  0  0  0  0  0  0  0  0  0  0
   26.7543   36.9865   24.3067 C   0  0  0  0  0  0  0  0  0  0  0  0
   26.2628   35.7516   24.1440 C   0  0  0  0  0  0  0  0  0  0  0  0
   26.5249   35.2039   22.8731 C   0  0  0  0  0  0  0  0  0  0  0  0
   28.7024   41.5602   19.6781 C   0  0  0  0  0  0  0  0  0  0  0  0
   29.1221   41.7123   21.1231 C   0  0  0  0  0  0  0  0  0  0  0  0
   28.9488   40.6786   22.0320 C   0  0  0  0  0  0  0  0  0  0  0  0
   28.9548   40.8344   23.3683 N   0  0  0  0  0  0  0  0  0  0  0  0
   29.1042   42.0882   23.7683 C   0  0  0  0  0  0  0  0  0  0  0  0
   29.2388   43.1771   23.0282 N   0  0  0  0  0  0  0  0  0  0  0  0
   29.2192   42.9595   21.7049 C   0  0  0  0  0  0  0  0  0  0  0  0
   29.1007   42.2403   25.0976 O   0  0  0  0  0  0  0  0  0  0  0  0
   28.2758   43.2770   25.6421 C   0  0  0  0  0  0  0  0  0  0  0  0
  1  2  2  0  0  0  0
  1  6  1  0  0  0  0
  2  3  1  0  0  0  0
  3  4  2  0  0  0  0
  4 14  1  0  0  0  0
  5  4  1  0  0  0  0
  6  5  1  0  0  0  0
  7  6  2  0  0  0  0
  8  9  1  0  0  0  0
  8  2  1  6  0  0  0
 10 19  1  0  0  0  0
 10  9  1  0  0  0  0
 11 10  1  0  0  0  0
 12 11  1  0  0  0  0
 12 13  1  0  0  0  0
 13  8  1  0  0  0  0
 14 15  1  0  0  0  0
 14 18  2  0  0  0  0
 15 16  1  0  0  0  0
 16 17  2  0  0  0  0
 18 17  1  0  0  0  0
 19 20  1  0  0  0  0
 20 25  2  0  0  0  0
 20 21  1  0  0  0  0
 21 22  2  0  0  0  0
 22 23  1  0  0  0  0
 23 26  1  0  0  0  0
 24 23  2  0  0  0  0
 25 24  1  0  0  0  0
 26 27  1  0  0  0  0
M  END
>  <CHROM.1>
8.54040883,138.42142482,71.23446302,-61.87755132,-132.46362405,28.43815870
38.69376344,20.99391579,-1.82373703,1.18059619,0.83303057

>  <Name>
lig.pdb

>  <RI>
0

>  <Rbt.Current_Directory>
/home/itssahil/PROJECTS/Mol_Feturizer/New_Systems/rnas/5kx9

>  <Rbt.Executable>
rbdock ($Id: //depot/dev/client3/rdock/2013.1/src/exe/rbdock.cxx#4 $)

>  <Rbt.Library>
libRbt.so (2013.1, Build901 2013/11/27)

>  <Rbt.Parameter_File>
/export/apps/rDock/src/rDock_2013.1_src/data/scripts/dock_solv.prm

>  <Rbt.Receptor>
prm/pocket_docking_5.prm

>  <SCORE>
-35.9149

>  <SCORE.INTER>
-33.8957

>  <SCORE.INTER.CONST>
1

>  <SCORE.INTER.POLAR>
0

>  <SCORE.INTER.ROT>
5

>  <SCORE.INTER.SOLV>
12.9382

>  <SCORE.INTER.VDW>
-33.8432

>  <SCORE.INTER.norm>
-1.2554

>  <SCORE.INTRA>
-2.0381

>  <SCORE.INTRA.DIHEDRAL>
2.49657

>  <SCORE.INTRA.DIHEDRAL.0>
2.68224

>  <SCORE.INTRA.POLAR>
0

>  <SCORE.INTRA.POLAR.0>
0

>  <SCORE.INTRA.REPUL>
0

>  <SCORE.INTRA.REPUL.0>
0

>  <SCORE.INTRA.SOLV>
-0.154541

>  <SCORE.INTRA.SOLV.lig_0>
-19.4148

>  <SCORE.INTRA.VDW>
-3.20912

>  <SCORE.INTRA.VDW.0>
5.42093

>  <SCORE.INTRA.norm>
-0.0754853

>  <SCORE.RESTR>
0.018845

>  <SCORE.RESTR.CAVITY>
0.018845

>  <SCORE.RESTR.norm>
0.000697965

>  <SCORE.SYSTEM>
0

>  <SCORE.SYSTEM.CONST>
0

>  <SCORE.SYSTEM.DIHEDRAL>
0

>  <SCORE.SYSTEM.SOLV>
0

>  <SCORE.SYSTEM.norm>
0

>  <SCORE.heavy>
27

>  <SCORE.norm>
-1.33018

>  <RMSD>
1.728

$$$$
lig.pdb
 OpenBabel11021811523D
libRbt.so/2013.1/901 2013/11/27
 27 30  0  0  0  0  0  0  0  0999 V2000
   28.2690   36.6466   19.6734 N   0  0  0  0  0  0  0  0  0  0  0  0
   28.1831   37.8186   20.2524 C   0  0  0  0  0  0  0  0  0  0  0  0
   27.7189   38.0303   21.5097 N   0  0  0  0  0  0  0  0  0  0  0  0
   27.3532   36.9502   22.2626 C   0  0  0  0  0  0  0  0  0  0  0  0
   27.4367   35.6878   21.7492 C   0  0  0  0  0  0  0  0  0  0  0  0
   27.8968   35.5114   20.3924 C   0  0  0  0  0  0  0  0  0  0  0  0
   27.9496   34.4052   19.8407 O   0  0  0  0  0  0  0  0  0  0  0  0
   28.4328   39.1418   19.4959 C   0  0  2  0  0  0  0  0  0  0  0  0
   28.8544   40.0861   20.6334 C   0  0  0  0  0  0  0  0  0  0  0  0
   28.9094   41.4799   20.1891 N   0  0  0  0  0  0  0  0  0  0  0  0
   27.5641   41.9039   19.7690 C   0  0  0  0  0  0  0  0  0  0  0  0
   27.0902   41.0921   18.5796 C   0  0  0  0  0  0  0  0  0  0  0  0
   27.0925   39.6037   18.8991 C   0  0  0  0  0  0  0  0  0  0  0  0
   26.9173   37.3260   23.6009 C   0  0  0  0  0  0  0  0  0  0  0  0
   27.0895   38.9394   24.1862 S   0  0  0  0  0  0  0  0  0  0  0  0
   26.4322   38.5354   25.6747 C   0  0  0  0  0  0  0  0  0  0  0  0
   26.0507   37.2528   25.7218 C   0  0  0  0  0  0  0  0  0  0  0  0
   26.3290   36.5385   24.5401 C   0  0  0  0  0  0  0  0  0  0  0  0
   29.4232   42.3738   21.2418 C   0  0  0  0  0  0  0  0  0  0  0  0
   28.8185   42.1843   22.6150 C   0  0  0  0  0  0  0  0  0  0  0  0
   27.4555   42.3356   22.8245 C   0  0  0  0  0  0  0  0  0  0  0  0
   26.8909   42.5371   24.0289 N   0  0  0  0  0  0  0  0  0  0  0  0
   27.7569   42.6218   25.0276 C   0  0  0  0  0  0  0  0  0  0  0  0
   29.0770   42.5397   24.9805 N   0  0  0  0  0  0  0  0  0  0  0  0
   29.5815   42.3447   23.7532 C   0  0  0  0  0  0  0  0  0  0  0  0
   27.1924   42.8311   26.2224 O   0  0  0  0  0  0  0  0  0  0  0  0
   25.8300   43.2731   26.2414 C   0  0  0  0  0  0  0  0  0  0  0  0
  1  2  2  0  0  0  0
  1  6  1  0  0  0  0
  2  3  1  0  0  0  0
  3  4  2  0  0  0  0
  4 14  1  0  0  0  0
  5  4  1  0  0  0  0
  6  5  1  0  0  0  0
  7  6  2  0  0  0  0
  8  9  1  0  0  0  0
  8  2  1  1  0  0  0
 10 19  1  0  0  0  0
 10  9  1  0  0  0  0
 11 10  1  0  0  0  0
 12 11  1  0  0  0  0
 12 13  1  0  0  0  0
 13  8  1  0  0  0  0
 14 15  1  0  0  0  0
 14 18  2  0  0  0  0
 15 16  1  0  0  0  0
 16 17  2  0  0  0  0
 18 17  1  0  0  0  0
 19 20  1  0  0  0  0
 20 25  2  0  0  0  0
 20 21  1  0  0  0  0
 21 22  2  0  0  0  0
 22 23  1  0  0  0  0
 23 26  1  0  0  0  0
 24 23  2  0  0  0  0
 25 24  1  0  0  0  0
 26 27  1  0  0  0  0
M  END
>  <CHROM.1>
-8.36564648,-154.97080578,-46.83357294,-59.46235354,-15.66669065,27.65500172
39.62833490,22.44926294,-1.48324141,1.28699992,0.54713543

>  <Name>
lig.pdb

>  <RI>
0

>  <Rbt.Current_Directory>
/home/itssahil/PROJECTS/Mol_Feturizer/New_Systems/rnas/5kx9

>  <Rbt.Executable>
rbdock ($Id: //depot/dev/client3/rdock/2013.1/src/exe/rbdock.cxx#4 $)

>  <Rbt.Library>
libRbt.so (2013.1, Build901 2013/11/27)

>  <Rbt.Parameter_File>
/export/apps/rDock/src/rDock_2013.1_src/data/scripts/dock_solv.prm

>  <Rbt.Receptor>
prm/pocket_docking_6.prm

>  <SCORE>
-36.1215

>  <SCORE.INTER>
-35.09

>  <SCORE.INTER.CONST>
1

>  <SCORE.INTER.POLAR>
0

>  <SCORE.INTER.ROT>
5

>  <SCORE.INTER.SOLV>
13.6774

>  <SCORE.INTER.VDW>
-34.8858

>  <SCORE.INTER.norm>
-1.29963

>  <SCORE.INTRA>
-1.03147

>  <SCORE.INTRA.DIHEDRAL>
0.12893

>  <SCORE.INTRA.DIHEDRAL.0>
2.68224

>  <SCORE.INTRA.POLAR>
0

>  <SCORE.INTRA.POLAR.0>
0

>  <SCORE.INTRA.REPUL>
0

>  <SCORE.INTRA.REPUL.0>
0

>  <SCORE.INTRA.SOLV>
0.0838758

>  <SCORE.INTRA.SOLV.lig_0>
-19.4148

>  <SCORE.INTRA.VDW>
-1.13787

>  <SCORE.INTRA.VDW.0>
5.42093

>  <SCORE.INTRA.norm>
-0.0382026

>  <SCORE.RESTR>
0

>  <SCORE.RESTR.CAVITY>
0

>  <SCORE.RESTR.norm>
0

>  <SCORE.SYSTEM>
0

>  <SCORE.SYSTEM.CONST>
0

>  <SCORE.SYSTEM.DIHEDRAL>
0

>  <SCORE.SYSTEM.SOLV>
0

>  <SCORE.SYSTEM.norm>
0

>  <SCORE.heavy>
27

>  <SCORE.norm>
-1.33783

>  <RMSD>
1.786

$$$$
lig.pdb
 OpenBabel11021811523D
libRbt.so/2013.1/901 2013/11/27
 27 30  0  0  0  0  0  0  0  0999 V2000
   28.1684   36.9618   19.3843 N   0  0  0  0  0  0  0  0  0  0  0  0
   28.0029   38.0961   20.0186 C   0  0  0  0  0  0  0  0  0  0  0  0
   27.5942   38.2115   21.3073 N   0  0  0  0  0  0  0  0  0  0  0  0
   27.3796   37.0720   22.0301 C   0  0  0  0  0  0  0  0  0  0  0  0
   27.5554   35.8450   21.4574 C   0  0  0  0  0  0  0  0  0  0  0  0
   27.9508   35.7682   20.0713 C   0  0  0  0  0  0  0  0  0  0  0  0
   28.0787   34.6950   19.4690 O   0  0  0  0  0  0  0  0  0  0  0  0
   28.0784   39.4659   19.3092 C   0  0  2  0  0  0  0  0  0  0  0  0
   28.7362   40.3469   20.3837 C   0  0  0  0  0  0  0  0  0  0  0  0
   28.6897   41.7655   20.0251 N   0  0  0  0  0  0  0  0  0  0  0  0
   27.2842   42.1928   19.9352 C   0  0  0  0  0  0  0  0  0  0  0  0
   26.5638   41.4463   18.8297 C   0  0  0  0  0  0  0  0  0  0  0  0
   26.6391   39.9416   19.0484 C   0  0  0  0  0  0  0  0  0  0  0  0
   26.9879   37.3503   23.4054 C   0  0  0  0  0  0  0  0  0  0  0  0
   26.2546   36.1439   24.3965 S   0  0  0  0  0  0  0  0  0  0  0  0
   26.1098   37.2042   25.6872 C   0  0  0  0  0  0  0  0  0  0  0  0
   26.6335   38.4048   25.4096 C   0  0  0  0  0  0  0  0  0  0  0  0
   27.1368   38.5105   24.0983 C   0  0  0  0  0  0  0  0  0  0  0  0
   29.4190   42.6028   20.9938 C   0  0  0  0  0  0  0  0  0  0  0  0
   29.0106   42.4376   22.4407 C   0  0  0  0  0  0  0  0  0  0  0  0
   27.8426   41.7723   22.7838 C   0  0  0  0  0  0  0  0  0  0  0  0
   27.2289   41.8828   23.9758 N   0  0  0  0  0  0  0  0  0  0  0  0
   27.8144   42.7267   24.8122 C   0  0  0  0  0  0  0  0  0  0  0  0
   28.8994   43.4587   24.6164 N   0  0  0  0  0  0  0  0  0  0  0  0
   29.4630   43.3107   23.4084 C   0  0  0  0  0  0  0  0  0  0  0  0
   27.1962   42.8406   25.9933 O   0  0  0  0  0  0  0  0  0  0  0  0
   25.7760   43.0266   25.9808 C   0  0  0  0  0  0  0  0  0  0  0  0
  1  2  2  0  0  0  0
  1  6  1  0  0  0  0
  2  3  1  0  0  0  0
  3  4  2  0  0  0  0
  4 14  1  0  0  0  0
  5  4  1  0  0  0  0
  6  5  1  0  0  0  0
  7  6  2  0  0  0  0
  8  9  1  0  0  0  0
  8  2  1  1  0  0  0
 10 19  1  0  0  0  0
 10  9  1  0  0  0  0
 11 10  1  0  0  0  0
 12 11  1  0  0  0  0
 12 13  1  0  0  0  0
 13  8  1  0  0  0  0
 14 15  1  0  0  0  0
 14 18  2  0  0  0  0
 15 16  1  0  0  0  0
 16 17  2  0  0  0  0
 18 17  1  0  0  0  0
 19 20  1  0  0  0  0
 20 25  2  0  0  0  0
 20 21  1  0  0  0  0
 21 22  2  0  0  0  0
 22 23  1  0  0  0  0
 23 26  1  0  0  0  0
 24 23  2  0  0  0  0
 25 24  1  0  0  0  0
 26 27  1  0  0  0  0
M  END
>  <CHROM.1>
163.22000186,-144.22285418,-53.81618884,-13.58595876,-47.34209115,27.57228423
39.61329814,22.29658983,-1.78715504,1.30002916,0.63448916

>  <Name>
lig.pdb

>  <RI>
0

>  <Rbt.Current_Directory>
/home/itssahil/PROJECTS/Mol_Feturizer/New_Systems/rnas/5kx9

>  <Rbt.Executable>
rbdock ($Id: //depot/dev/client3/rdock/2013.1/src/exe/rbdock.cxx#4 $)

>  <Rbt.Library>
libRbt.so (2013.1, Build901 2013/11/27)

>  <Rbt.Parameter_File>
/export/apps/rDock/src/rDock_2013.1_src/data/scripts/dock_solv.prm

>  <Rbt.Receptor>
prm/pocket_docking_4.prm

>  <SCORE>
-37.0978

>  <SCORE.INTER>
-35.9386

>  <SCORE.INTER.CONST>
1

>  <SCORE.INTER.POLAR>
0

>  <SCORE.INTER.ROT>
5

>  <SCORE.INTER.SOLV>
14.1093

>  <SCORE.INTER.VDW>
-35.5955

>  <SCORE.INTER.norm>
-1.33106

>  <SCORE.INTRA>
-1.15921

>  <SCORE.INTRA.DIHEDRAL>
2.71064

>  <SCORE.INTRA.DIHEDRAL.0>
2.68224

>  <SCORE.INTRA.POLAR>
0

>  <SCORE.INTRA.POLAR.0>
0

>  <SCORE.INTRA.REPUL>
0

>  <SCORE.INTRA.REPUL.0>
0

>  <SCORE.INTRA.SOLV>
0.0139934

>  <SCORE.INTRA.SOLV.lig_0>
-19.4148

>  <SCORE.INTRA.VDW>
-2.52153

>  <SCORE.INTRA.VDW.0>
5.42093

>  <SCORE.INTRA.norm>
-0.0429337

>  <SCORE.RESTR>
0

>  <SCORE.RESTR.CAVITY>
0

>  <SCORE.RESTR.norm>
0

>  <SCORE.SYSTEM>
0

>  <SCORE.SYSTEM.CONST>
0

>  <SCORE.SYSTEM.DIHEDRAL>
0

>  <SCORE.SYSTEM.SOLV>
0

>  <SCORE.SYSTEM.norm>
0

>  <SCORE.heavy>
27

>  <SCORE.norm>
-1.37399

>  <RMSD>
1.910

$$$$
lig.pdb
 OpenBabel11021811523D
libRbt.so/2013.1/901 2013/11/27
 27 30  0  0  0  0  0  0  0  0999 V2000
   28.3661   36.6741   19.7462 N   0  0  0  0  0  0  0  0  0  0  0  0
   28.3010   37.8278   20.3635 C   0  0  0  0  0  0  0  0  0  0  0  0
   27.7926   38.0142   21.6076 N   0  0  0  0  0  0  0  0  0  0  0  0
   27.3540   36.9241   22.3051 C   0  0  0  0  0  0  0  0  0  0  0  0
   27.4104   35.6779   21.7500 C   0  0  0  0  0  0  0  0  0  0  0  0
   27.9204   35.5305   20.4076 C   0  0  0  0  0  0  0  0  0  0  0  0
   27.9538   34.4429   19.8187 O   0  0  0  0  0  0  0  0  0  0  0  0
   28.6333   39.1654   19.6664 C   0  0  2  0  0  0  0  0  0  0  0  0
   29.0203   40.0588   20.8562 C   0  0  0  0  0  0  0  0  0  0  0  0
   29.1431   41.4635   20.4625 N   0  0  0  0  0  0  0  0  0  0  0  0
   27.8370   41.9446   19.9841 C   0  0  0  0  0  0  0  0  0  0  0  0
   27.4050   41.1869   18.7441 C   0  0  0  0  0  0  0  0  0  0  0  0
   27.3432   39.6898   19.0133 C   0  0  0  0  0  0  0  0  0  0  0  0
   26.8768   37.2703   23.6373 C   0  0  0  0  0  0  0  0  0  0  0  0
   27.0912   38.8525   24.2897 S   0  0  0  0  0  0  0  0  0  0  0  0
   26.3537   38.4246   25.7332 C   0  0  0  0  0  0  0  0  0  0  0  0
   25.9168   37.1590   25.7159 C   0  0  0  0  0  0  0  0  0  0  0  0
   26.2157   36.4761   24.5208 C   0  0  0  0  0  0  0  0  0  0  0  0
   29.6251   42.3062   21.5709 C   0  0  0  0  0  0  0  0  0  0  0  0
   28.9498   42.0825   22.9056 C   0  0  0  0  0  0  0  0  0  0  0  0
   27.5669   42.0697   23.0154 C   0  0  0  0  0  0  0  0  0  0  0  0
   26.8960   42.2340   24.1699 N   0  0  0  0  0  0  0  0  0  0  0  0
   27.6705   42.4539   25.2217 C   0  0  0  0  0  0  0  0  0  0  0  0
   28.9907   42.5348   25.2683 N   0  0  0  0  0  0  0  0  0  0  0  0
   29.6029   42.3688   24.0866 C   0  0  0  0  0  0  0  0  0  0  0  0
   26.9994   42.6257   26.3664 O   0  0  0  0  0  0  0  0  0  0  0  0
   25.7860   43.3849   26.3136 C   0  0  0  0  0  0  0  0  0  0  0  0
  1  2  2  0  0  0  0
  1  6  1  0  0  0  0
  2  3  1  0  0  0  0
  3  4  2  0  0  0  0
  4 14  1  0  0  0  0
  5  4  1  0  0  0  0
  6  5  1  0  0  0  0
  7  6  2  0  0  0  0
  8  9  1  0  0  0  0
  8  2  1  1  0  0  0
 10 19  1  0  0  0  0
 10  9  1  0  0  0  0
 11 10  1  0  0  0  0
 12 11  1  0  0  0  0
 12 13  1  0  0  0  0
 13  8  1  0  0  0  0
 14 15  1  0  0  0  0
 14 18  2  0  0  0  0
 15 16  1  0  0  0  0
 16 17  2  0  0  0  0
 18 17  1  0  0  0  0
 19 20  1  0  0  0  0
 20 25  2  0  0  0  0
 20 21  1  0  0  0  0
 21 22  2  0  0  0  0
 22 23  1  0  0  0  0
 23 26  1  0  0  0  0
 24 23  2  0  0  0  0
 25 24  1  0  0  0  0
 26 27  1  0  0  0  0
M  END
>  <CHROM.1>
-8.59117606,-155.86693292,-46.19146211,-50.06144620,-39.56742175,27.70536213
39.58469915,22.58233076,-1.46269129,1.22916344,0.55292202

>  <Name>
lig.pdb

>  <RI>
0

>  <Rbt.Current_Directory>
/home/itssahil/PROJECTS/Mol_Feturizer/New_Systems/rnas/5kx9

>  <Rbt.Executable>
rbdock ($Id: //depot/dev/client3/rdock/2013.1/src/exe/rbdock.cxx#4 $)

>  <Rbt.Library>
libRbt.so (2013.1, Build901 2013/11/27)

>  <Rbt.Parameter_File>
/export/apps/rDock/src/rDock_2013.1_src/data/scripts/dock_solv.prm

>  <Rbt.Receptor>
prm/pocket_docking_5.prm

>  <SCORE>
-36.3151

>  <SCORE.INTER>
-34.7911

>  <SCORE.INTER.CONST>
1

>  <SCORE.INTER.POLAR>
0

>  <SCORE.INTER.ROT>
5

>  <SCORE.INTER.SOLV>
13.7892

>  <SCORE.INTER.VDW>
-34.7238

>  <SCORE.INTER.norm>
-1.28856

>  <SCORE.INTRA>
-1.52404

>  <SCORE.INTRA.DIHEDRAL>
1.91019

>  <SCORE.INTRA.DIHEDRAL.0>
2.68224

>  <SCORE.INTRA.POLAR>
0

>  <SCORE.INTRA.POLAR.0>
0

>  <SCORE.INTRA.REPUL>
0

>  <SCORE.INTRA.REPUL.0>
0

>  <SCORE.INTRA.SOLV>
0.209426

>  <SCORE.INTRA.SOLV.lig_0>
-19.4148

>  <SCORE.INTRA.VDW>
-2.58385

>  <SCORE.INTRA.VDW.0>
5.42093

>  <SCORE.INTRA.norm>
-0.0564458

>  <SCORE.RESTR>
0

>  <SCORE.RESTR.CAVITY>
0

>  <SCORE.RESTR.norm>
0

>  <SCORE.SYSTEM>
0

>  <SCORE.SYSTEM.CONST>
0

>  <SCORE.SYSTEM.DIHEDRAL>
0

>  <SCORE.SYSTEM.SOLV>
0

>  <SCORE.SYSTEM.norm>
0

>  <SCORE.heavy>
27

>  <SCORE.norm>
-1.345

>  <RMSD>
1.927

$$$$
lig.pdb
 OpenBabel11021811523D
libRbt.so/2013.1/901 2013/11/27
 27 30  0  0  0  0  0  0  0  0999 V2000
   28.7244   36.9457   19.0778 N   0  0  0  0  0  0  0  0  0  0  0  0
   28.8327   37.9202   19.9466 C   0  0  0  0  0  0  0  0  0  0  0  0
   28.2876   37.9156   21.1891 N   0  0  0  0  0  0  0  0  0  0  0  0
   27.6120   36.8024   21.6030 C   0  0  0  0  0  0  0  0  0  0  0  0
   27.4742   35.7271   20.7727 C   0  0  0  0  0  0  0  0  0  0  0  0
   28.0343   35.7908   19.4438 C   0  0  0  0  0  0  0  0  0  0  0  0
   27.9053   34.8791   18.6175 O   0  0  0  0  0  0  0  0  0  0  0  0
   29.4496   39.2903   19.5890 C   0  0  2  0  0  0  0  0  0  0  0  0
   28.7744   40.2213   20.6092 C   0  0  0  0  0  0  0  0  0  0  0  0
   29.0225   41.6315   20.3039 N   0  0  0  0  0  0  0  0  0  0  0  0
   28.4351   41.9499   18.9924 C   0  0  0  0  0  0  0  0  0  0  0  0
   29.1041   41.1482   17.8935 C   0  0  0  0  0  0  0  0  0  0  0  0
   28.9961   39.6541   18.1649 C   0  0  0  0  0  0  0  0  0  0  0  0
   27.1212   36.9244   22.9692 C   0  0  0  0  0  0  0  0  0  0  0  0
   27.3233   38.3789   23.8740 S   0  0  0  0  0  0  0  0  0  0  0  0
   26.5743   37.7183   25.2207 C   0  0  0  0  0  0  0  0  0  0  0  0
   26.1427   36.4716   24.9921 C   0  0  0  0  0  0  0  0  0  0  0  0
   26.4553   35.9945   23.7042 C   0  0  0  0  0  0  0  0  0  0  0  0
   28.4756   42.5241   21.3409 C   0  0  0  0  0  0  0  0  0  0  0  0
   29.1638   42.4644   22.6863 C   0  0  0  0  0  0  0  0  0  0  0  0
   28.9296   41.4165   23.5648 C   0  0  0  0  0  0  0  0  0  0  0  0
   29.2025   41.4552   24.8816 N   0  0  0  0  0  0  0  0  0  0  0  0
   29.6902   42.6129   25.3015 C   0  0  0  0  0  0  0  0  0  0  0  0
   29.9288   43.7084   24.5983 N   0  0  0  0  0  0  0  0  0  0  0  0
   29.6315   43.6112   23.2941 C   0  0  0  0  0  0  0  0  0  0  0  0
   29.9520   42.6504   26.6131 O   0  0  0  0  0  0  0  0  0  0  0  0
   31.0133   41.8204   27.0993 C   0  0  0  0  0  0  0  0  0  0  0  0
  1  2  2  0  0  0  0
  1  6  1  0  0  0  0
  2  3  1  0  0  0  0
  3  4  2  0  0  0  0
  4 14  1  0  0  0  0
  5  4  1  0  0  0  0
  6  5  1  0  0  0  0
  7  6  2  0  0  0  0
  8  9  1  0  0  0  0
  8  2  1  1  0  0  0
 10 19  1  0  0  0  0
 10  9  1  0  0  0  0
 11 10  1  0  0  0  0
 12 11  1  0  0  0  0
 12 13  1  0  0  0  0
 13  8  1  0  0  0  0
 14 15  1  0  0  0  0
 14 18  2  0  0  0  0
 15 16  1  0  0  0  0
 16 17  2  0  0  0  0
 18 17  1  0  0  0  0
 19 20  1  0  0  0  0
 20 25  2  0  0  0  0
 20 21  1  0  0  0  0
 21 22  2  0  0  0  0
 22 23  1  0  0  0  0
 23 26  1  0  0  0  0
 24 23  2  0  0  0  0
 25 24  1  0  0  0  0
 26 27  1  0  0  0  0
M  END
>  <CHROM.1>
3.40746561,154.27875120,68.35145318,-77.05625756,67.20026606,28.49611343
39.51698138,22.17185158,-2.24657994,1.20549306,1.35194059

>  <Name>
lig.pdb

>  <RI>
0

>  <Rbt.Current_Directory>
/home/itssahil/PROJECTS/Mol_Feturizer/New_Systems/rnas/5kx9

>  <Rbt.Executable>
rbdock ($Id: //depot/dev/client3/rdock/2013.1/src/exe/rbdock.cxx#4 $)

>  <Rbt.Library>
libRbt.so (2013.1, Build901 2013/11/27)

>  <Rbt.Parameter_File>
/export/apps/rDock/src/rDock_2013.1_src/data/scripts/dock_solv.prm

>  <Rbt.Receptor>
prm/pocket_docking_3.prm

>  <SCORE>
-36.0436

>  <SCORE.INTER>
-35.7376

>  <SCORE.INTER.CONST>
1

>  <SCORE.INTER.POLAR>
0

>  <SCORE.INTER.ROT>
5

>  <SCORE.INTER.SOLV>
13.7816

>  <SCORE.INTER.VDW>
-35.3523

>  <SCORE.INTER.norm>
-1.32362

>  <SCORE.INTRA>
-0.31361

>  <SCORE.INTRA.DIHEDRAL>
3.38328

>  <SCORE.INTRA.DIHEDRAL.0>
2.68224

>  <SCORE.INTRA.POLAR>
0

>  <SCORE.INTRA.POLAR.0>
0

>  <SCORE.INTRA.REPUL>
0

>  <SCORE.INTRA.REPUL.0>
0

>  <SCORE.INTRA.SOLV>
-0.198555

>  <SCORE.INTRA.SOLV.lig_0>
-19.4148

>  <SCORE.INTRA.VDW>
-1.90597

>  <SCORE.INTRA.VDW.0>
5.42093

>  <SCORE.INTRA.norm>
-0.0116152

>  <SCORE.RESTR>
0.00765841

>  <SCORE.RESTR.CAVITY>
0.00765841

>  <SCORE.RESTR.norm>
0.000283645

>  <SCORE.SYSTEM>
0

>  <SCORE.SYSTEM.CONST>
0

>  <SCORE.SYSTEM.DIHEDRAL>
0

>  <SCORE.SYSTEM.SOLV>
0

>  <SCORE.SYSTEM.norm>
0

>  <SCORE.heavy>
27

>  <SCORE.norm>
-1.33495

>  <RMSD>
1.973

$$$$
lig.pdb
 OpenBabel11021811523D
libRbt.so/2013.1/901 2013/11/27
 27 30  0  0  0  0  0  0  0  0999 V2000
   28.2401   37.1149   18.9945 N   0  0  0  0  0  0  0  0  0  0  0  0
   28.0206   38.1753   19.7317 C   0  0  0  0  0  0  0  0  0  0  0  0
   27.6166   38.1495   21.0268 N   0  0  0  0  0  0  0  0  0  0  0  0
   27.4676   36.9383   21.6415 C   0  0  0  0  0  0  0  0  0  0  0  0
   27.7026   35.7805   20.9570 C   0  0  0  0  0  0  0  0  0  0  0  0
   28.0905   35.8531   19.5684 C   0  0  0  0  0  0  0  0  0  0  0  0
   28.2695   34.8483   18.8689 O   0  0  0  0  0  0  0  0  0  0  0  0
   28.0188   39.6070   19.1520 C   0  0  2  0  0  0  0  0  0  0  0  0
   28.7939   40.3879   20.2258 C   0  0  0  0  0  0  0  0  0  0  0  0
   28.7101   41.8336   20.0115 N   0  0  0  0  0  0  0  0  0  0  0  0
   27.3040   42.2549   20.1195 C   0  0  0  0  0  0  0  0  0  0  0  0
   26.4636   41.6103   19.0349 C   0  0  0  0  0  0  0  0  0  0  0  0
   26.5602   40.0924   19.0994 C   0  0  0  0  0  0  0  0  0  0  0  0
   27.0728   37.0673   23.0378 C   0  0  0  0  0  0  0  0  0  0  0  0
   26.3417   35.7600   23.8933 S   0  0  0  0  0  0  0  0  0  0  0  0
   26.1915   36.6762   25.2893 C   0  0  0  0  0  0  0  0  0  0  0  0
   26.7120   37.9011   25.1424 C   0  0  0  0  0  0  0  0  0  0  0  0
   27.2170   38.1474   23.8508 C   0  0  0  0  0  0  0  0  0  0  0  0
   29.5443   42.5816   20.9685 C   0  0  0  0  0  0  0  0  0  0  0  0
   29.1205   42.4912   22.4175 C   0  0  0  0  0  0  0  0  0  0  0  0
   29.2936   43.5618   23.2826 C   0  0  0  0  0  0  0  0  0  0  0  0
   29.2838   43.4623   24.6242 N   0  0  0  0  0  0  0  0  0  0  0  0
   29.1307   42.2266   25.0762 C   0  0  0  0  0  0  0  0  0  0  0  0
   28.9958   41.1079   24.3821 N   0  0  0  0  0  0  0  0  0  0  0  0
   29.0193   41.2697   23.0509 C   0  0  0  0  0  0  0  0  0  0  0  0
   29.1304   42.1305   26.4107 O   0  0  0  0  0  0  0  0  0  0  0  0
   30.3525   41.7363   27.0453 C   0  0  0  0  0  0  0  0  0  0  0  0
  1  2  2  0  0  0  0
  1  6  1  0  0  0  0
  2  3  1  0  0  0  0
  3  4  2  0  0  0  0
  4 14  1  0  0  0  0
  5  4  1  0  0  0  0
  6  5  1  0  0  0  0
  7  6  2  0  0  0  0
  8  9  1  0  0  0  0
  8  2  1  1  0  0  0
 10 19  1  0  0  0  0
 10  9  1  0  0  0  0
 11 10  1  0  0  0  0
 12 11  1  0  0  0  0
 12 13  1  0  0  0  0
 13  8  1  0  0  0  0
 14 15  1  0  0  0  0
 14 18  2  0  0  0  0
 15 16  1  0  0  0  0
 16 17  2  0  0  0  0
 18 17  1  0  0  0  0
 19 20  1  0  0  0  0
 20 25  2  0  0  0  0
 20 21  1  0  0  0  0
 21 22  2  0  0  0  0
 22 23  1  0  0  0  0
 23 26  1  0  0  0  0
 24 23  2  0  0  0  0
 25 24  1  0  0  0  0
 26 27  1  0  0  0  0
M  END
>  <CHROM.1>
160.23899996,-137.52296337,-65.60578169,-146.51110368,-98.61350407,28.03202324
39.42418843,22.19749115,-2.73927614,1.29456726,1.69034955

>  <Name>
lig.pdb

>  <RI>
0

>  <Rbt.Current_Directory>
/home/itssahil/PROJECTS/Mol_Feturizer/New_Systems/rnas/5kx9

>  <Rbt.Executable>
rbdock ($Id: //depot/dev/client3/rdock/2013.1/src/exe/rbdock.cxx#4 $)

>  <Rbt.Library>
libRbt.so (2013.1, Build901 2013/11/27)

>  <Rbt.Parameter_File>
/export/apps/rDock/src/rDock_2013.1_src/data/scripts/dock_solv.prm

>  <Rbt.Receptor>
prm/pocket_docking_7.prm

>  <SCORE>
-37.4928

>  <SCORE.INTER>
-34.8666

>  <SCORE.INTER.CONST>
1

>  <SCORE.INTER.POLAR>
0

>  <SCORE.INTER.ROT>
5

>  <SCORE.INTER.SOLV>
14.2985

>  <SCORE.INTER.VDW>
-34.9439

>  <SCORE.INTER.norm>
-1.29136

>  <SCORE.INTRA>
-2.6262

>  <SCORE.INTRA.DIHEDRAL>
5.39315

>  <SCORE.INTRA.DIHEDRAL.0>
2.68224

>  <SCORE.INTRA.POLAR>
0

>  <SCORE.INTRA.POLAR.0>
0

>  <SCORE.INTRA.REPUL>
0

>  <SCORE.INTRA.REPUL.0>
0

>  <SCORE.INTRA.SOLV>
-0.220198

>  <SCORE.INTRA.SOLV.lig_0>
-19.4148

>  <SCORE.INTRA.VDW>
-5.21267

>  <SCORE.INTRA.VDW.0>
5.42093

>  <SCORE.INTRA.norm>
-0.0972665

>  <SCORE.RESTR>
0

>  <SCORE.RESTR.CAVITY>
0

>  <SCORE.RESTR.norm>
0

>  <SCORE.SYSTEM>
0

>  <SCORE.SYSTEM.CONST>
0

>  <SCORE.SYSTEM.DIHEDRAL>
0

>  <SCORE.SYSTEM.SOLV>
0

>  <SCORE.SYSTEM.norm>
0

>  <SCORE.heavy>
27

>  <SCORE.norm>
-1.38862

>  <RMSD>
2.024

$$$$
lig.pdb
 OpenBabel11021811523D
libRbt.so/2013.1/901 2013/11/27
 27 30  0  0  0  0  0  0  0  0999 V2000
   28.1988   37.1154   18.9936 N   0  0  0  0  0  0  0  0  0  0  0  0
   28.0031   38.1767   19.7363 C   0  0  0  0  0  0  0  0  0  0  0  0
   27.6087   38.1529   21.0343 N   0  0  0  0  0  0  0  0  0  0  0  0
   27.4436   36.9422   21.6458 C   0  0  0  0  0  0  0  0  0  0  0  0
   27.6536   35.7831   20.9553 C   0  0  0  0  0  0  0  0  0  0  0  0
   28.0320   35.8542   19.5641 C   0  0  0  0  0  0  0  0  0  0  0  0
   28.1884   34.8492   18.8596 O   0  0  0  0  0  0  0  0  0  0  0  0
   28.0214   39.6103   19.1619 C   0  0  2  0  0  0  0  0  0  0  0  0
   28.7885   40.3808   20.2489 C   0  0  0  0  0  0  0  0  0  0  0  0
   28.7200   41.8279   20.0387 N   0  0  0  0  0  0  0  0  0  0  0  0
   27.3162   42.2609   20.1293 C   0  0  0  0  0  0  0  0  0  0  0  0
   26.4851   41.6274   19.0311 C   0  0  0  0  0  0  0  0  0  0  0  0
   26.5679   40.1085   19.0914 C   0  0  0  0  0  0  0  0  0  0  0  0
   27.0617   37.0726   23.0456 C   0  0  0  0  0  0  0  0  0  0  0  0
   26.3558   35.7603   23.9144 S   0  0  0  0  0  0  0  0  0  0  0  0
   26.2087   36.6809   25.3079 C   0  0  0  0  0  0  0  0  0  0  0  0
   26.7125   37.9115   25.1501 C   0  0  0  0  0  0  0  0  0  0  0  0
   27.2010   38.1581   23.8522 C   0  0  0  0  0  0  0  0  0  0  0  0
   29.5475   42.5654   21.0096 C   0  0  0  0  0  0  0  0  0  0  0  0
   29.0954   42.4848   22.4506 C   0  0  0  0  0  0  0  0  0  0  0  0
   29.1759   43.5869   23.2893 C   0  0  0  0  0  0  0  0  0  0  0  0
   29.1400   43.5222   24.6326 N   0  0  0  0  0  0  0  0  0  0  0  0
   29.0584   42.2914   25.1151 C   0  0  0  0  0  0  0  0  0  0  0  0
   29.0151   41.1483   24.4496 N   0  0  0  0  0  0  0  0  0  0  0  0
   29.0602   41.2763   23.1153 C   0  0  0  0  0  0  0  0  0  0  0  0
   29.0319   42.2305   26.4514 O   0  0  0  0  0  0  0  0  0  0  0  0
   30.0681   41.4837   27.0998 C   0  0  0  0  0  0  0  0  0  0  0  0
  1  2  2  0  0  0  0
  1  6  1  0  0  0  0
  2  3  1  0  0  0  0
  3  4  2  0  0  0  0
  4 14  1  0  0  0  0
  5  4  1  0  0  0  0
  6  5  1  0  0  0  0
  7  6  2  0  0  0  0
  8  9  1  0  0  0  0
  8  2  1  1  0  0  0
 10 19  1  0  0  0  0
 10  9  1  0  0  0  0
 11 10  1  0  0  0  0
 12 11  1  0  0  0  0
 12 13  1  0  0  0  0
 13  8  1  0  0  0  0
 14 15  1  0  0  0  0
 14 18  2  0  0  0  0
 15 16  1  0  0  0  0
 16 17  2  0  0  0  0
 18 17  1  0  0  0  0
 19 20  1  0  0  0  0
 20 25  2  0  0  0  0
 20 21  1  0  0  0  0
 21 22  2  0  0  0  0
 22 23  1  0  0  0  0
 23 26  1  0  0  0  0
 24 23  2  0  0  0  0
 25 24  1  0  0  0  0
 26 27  1  0  0  0  0
M  END
>  <CHROM.1>
161.99752083,-138.83062877,-66.19084877,-141.59105288,-120.95833505,27.99922123
39.42704746,22.21524755,-2.70293530,1.30414568,1.66223854

>  <Name>
lig.pdb

>  <RI>
0

>  <Rbt.Current_Directory>
/home/itssahil/PROJECTS/Mol_Feturizer/New_Systems/rnas/5kx9

>  <Rbt.Executable>
rbdock ($Id: //depot/dev/client3/rdock/2013.1/src/exe/rbdock.cxx#4 $)

>  <Rbt.Library>
libRbt.so (2013.1, Build901 2013/11/27)

>  <Rbt.Parameter_File>
/export/apps/rDock/src/rDock_2013.1_src/data/scripts/dock_solv.prm

>  <Rbt.Receptor>
prm/pocket_docking_5.prm

>  <SCORE>
-37.6621

>  <SCORE.INTER>
-34.5441

>  <SCORE.INTER.CONST>
1

>  <SCORE.INTER.POLAR>
0

>  <SCORE.INTER.ROT>
5

>  <SCORE.INTER.SOLV>
14.2881

>  <SCORE.INTER.VDW>
-34.7254

>  <SCORE.INTER.norm>
-1.27941

>  <SCORE.INTRA>
-3.11807

>  <SCORE.INTRA.DIHEDRAL>
3.90378

>  <SCORE.INTRA.DIHEDRAL.0>
2.68224

>  <SCORE.INTRA.POLAR>
0

>  <SCORE.INTRA.POLAR.0>
0

>  <SCORE.INTRA.REPUL>
0

>  <SCORE.INTRA.REPUL.0>
0

>  <SCORE.INTRA.SOLV>
-0.248433

>  <SCORE.INTRA.SOLV.lig_0>
-19.4148

>  <SCORE.INTRA.VDW>
-4.94574

>  <SCORE.INTRA.VDW.0>
5.42093

>  <SCORE.INTRA.norm>
-0.115484

>  <SCORE.RESTR>
0

>  <SCORE.RESTR.CAVITY>
0

>  <SCORE.RESTR.norm>
0

>  <SCORE.SYSTEM>
0

>  <SCORE.SYSTEM.CONST>
0

>  <SCORE.SYSTEM.DIHEDRAL>
0

>  <SCORE.SYSTEM.SOLV>
0

>  <SCORE.SYSTEM.norm>
0

>  <SCORE.heavy>
27

>  <SCORE.norm>
-1.39489

>  <RMSD>
2.036

$$$$
lig.pdb
 OpenBabel11021811523D
libRbt.so/2013.1/901 2013/11/27
 27 30  0  0  0  0  0  0  0  0999 V2000
   28.6550   37.0581   19.1741 N   0  0  0  0  0  0  0  0  0  0  0  0
   28.5680   38.1245   19.9300 C   0  0  0  0  0  0  0  0  0  0  0  0
   28.0428   38.1478   21.1809 N   0  0  0  0  0  0  0  0  0  0  0  0
   27.6102   36.9741   21.7307 C   0  0  0  0  0  0  0  0  0  0  0  0
   27.6890   35.8080   21.0248 C   0  0  0  0  0  0  0  0  0  0  0  0
   28.2164   35.8356   19.6813 C   0  0  0  0  0  0  0  0  0  0  0  0
   28.2706   34.8308   18.9615 O   0  0  0  0  0  0  0  0  0  0  0  0
   28.8913   39.5426   19.4102 C   0  0  2  0  0  0  0  0  0  0  0  0
   29.0803   40.3276   20.7185 C   0  0  0  0  0  0  0  0  0  0  0  0
   29.1567   41.7699   20.4794 N   0  0  0  0  0  0  0  0  0  0  0  0
   27.8859   42.2282   19.8952 C   0  0  0  0  0  0  0  0  0  0  0  0
   27.6492   41.5808   18.5450 C   0  0  0  0  0  0  0  0  0  0  0  0
   27.6537   40.0628   18.6593 C   0  0  0  0  0  0  0  0  0  0  0  0
   27.1132   37.1453   23.0893 C   0  0  0  0  0  0  0  0  0  0  0  0
   26.3850   35.8430   23.9546 S   0  0  0  0  0  0  0  0  0  0  0  0
   26.0954   36.8117   25.2920 C   0  0  0  0  0  0  0  0  0  0  0  0
   26.5679   38.0530   25.1224 C   0  0  0  0  0  0  0  0  0  0  0  0
   27.1502   38.2663   23.8577 C   0  0  0  0  0  0  0  0  0  0  0  0
   29.4526   42.5179   21.7139 C   0  0  0  0  0  0  0  0  0  0  0  0
   28.5996   42.1676   22.9127 C   0  0  0  0  0  0  0  0  0  0  0  0
   27.2489   42.4823   22.9474 C   0  0  0  0  0  0  0  0  0  0  0  0
   26.5113   42.5370   24.0711 N   0  0  0  0  0  0  0  0  0  0  0  0
   27.1940   42.2996   25.1811 C   0  0  0  0  0  0  0  0  0  0  0  0
   28.4826   42.0279   25.3118 N   0  0  0  0  0  0  0  0  0  0  0  0
   29.1663   41.9930   24.1585 C   0  0  0  0  0  0  0  0  0  0  0  0
   26.4590   42.3636   26.2973 O   0  0  0  0  0  0  0  0  0  0  0  0
   25.5782   43.4835   26.4453 C   0  0  0  0  0  0  0  0  0  0  0  0
  1  2  2  0  0  0  0
  1  6  1  0  0  0  0
  2  3  1  0  0  0  0
  3  4  2  0  0  0  0
  4 14  1  0  0  0  0
  5  4  1  0  0  0  0
  6  5  1  0  0  0  0
  7  6  2  0  0  0  0
  8  9  1  0  0  0  0
  8  2  1  1  0  0  0
 10 19  1  0  0  0  0
 10  9  1  0  0  0  0
 11 10  1  0  0  0  0
 12 11  1  0  0  0  0
 12 13  1  0  0  0  0
 13  8  1  0  0  0  0
 14 15  1  0  0  0  0
 14 18  2  0  0  0  0
 15 16  1  0  0  0  0
 16 17  2  0  0  0  0
 18 17  1  0  0  0  0
 19 20  1  0  0  0  0
 20 25  2  0  0  0  0
 20 21  1  0  0  0  0
 21 22  2  0  0  0  0
 22 23  1  0  0  0  0
 23 26  1  0  0  0  0
 24 23  2  0  0  0  0
 25 24  1  0  0  0  0
 26 27  1  0  0  0  0
M  END
>  <CHROM.1>
174.66765626,-162.66291399,-48.94711659,-68.48102256,-46.42828010,27.67995265
39.49037454,22.29437807,-1.29170781,1.22754745,0.37476892

>  <Name>
lig.pdb

>  <RI>
0

>  <Rbt.Current_Directory>
/home/itssahil/PROJECTS/Mol_Feturizer/New_Systems/rnas/5kx9

>  <Rbt.Executable>
rbdock ($Id: //depot/dev/client3/rdock/2013.1/src/exe/rbdock.cxx#4 $)

>  <Rbt.Library>
libRbt.so (2013.1, Build901 2013/11/27)

>  <Rbt.Parameter_File>
/export/apps/rDock/src/rDock_2013.1_src/data/scripts/dock_solv.prm

>  <Rbt.Receptor>
prm/pocket_docking_4.prm

>  <SCORE>
-36.5008

>  <SCORE.INTER>
-35.6055

>  <SCORE.INTER.CONST>
1

>  <SCORE.INTER.POLAR>
0

>  <SCORE.INTER.ROT>
5

>  <SCORE.INTER.SOLV>
14.126

>  <SCORE.INTER.VDW>
-35.379

>  <SCORE.INTER.norm>
-1.31872

>  <SCORE.INTRA>
-0.895309

>  <SCORE.INTRA.DIHEDRAL>
1.91039

>  <SCORE.INTRA.DIHEDRAL.0>
2.68224

>  <SCORE.INTRA.POLAR>
0

>  <SCORE.INTRA.POLAR.0>
0

>  <SCORE.INTRA.REPUL>
0

>  <SCORE.INTRA.REPUL.0>
0

>  <SCORE.INTRA.SOLV>
-0.424019

>  <SCORE.INTRA.SOLV.lig_0>
-19.4148

>  <SCORE.INTRA.VDW>
-1.63849

>  <SCORE.INTRA.VDW.0>
5.42093

>  <SCORE.INTRA.norm>
-0.0331596

>  <SCORE.RESTR>
0

>  <SCORE.RESTR.CAVITY>
0

>  <SCORE.RESTR.norm>
0

>  <SCORE.SYSTEM>
0

>  <SCORE.SYSTEM.CONST>
0

>  <SCORE.SYSTEM.DIHEDRAL>
0

>  <SCORE.SYSTEM.SOLV>
0

>  <SCORE.SYSTEM.norm>
0

>  <SCORE.heavy>
27

>  <SCORE.norm>
-1.35188

>  <RMSD>
2.118

$$$$
lig.pdb
 OpenBabel11021811523D
libRbt.so/2013.1/901 2013/11/27
 27 30  0  0  0  0  0  0  0  0999 V2000
   28.4813   37.1994   18.9200 N   0  0  0  0  0  0  0  0  0  0  0  0
   28.3208   38.2056   19.7435 C   0  0  0  0  0  0  0  0  0  0  0  0
   27.8333   38.1045   21.0057 N   0  0  0  0  0  0  0  0  0  0  0  0
   27.5254   36.8648   21.4908 C   0  0  0  0  0  0  0  0  0  0  0  0
   27.6883   35.7558   20.7111 C   0  0  0  0  0  0  0  0  0  0  0  0
   28.1705   35.9133   19.3596 C   0  0  0  0  0  0  0  0  0  0  0  0
   28.2939   34.9632   18.5767 O   0  0  0  0  0  0  0  0  0  0  0  0
   28.4985   39.6763   19.3065 C   0  0  2  0  0  0  0  0  0  0  0  0
   29.1334   40.3071   20.5565 C   0  0  0  0  0  0  0  0  0  0  0  0
   29.1718   41.7678   20.4670 N   0  0  0  0  0  0  0  0  0  0  0  0
   27.7944   42.2811   20.3918 C   0  0  0  0  0  0  0  0  0  0  0  0
   27.1050   41.7915   19.1335 C   0  0  0  0  0  0  0  0  0  0  0  0
   27.0994   40.2704   19.0710 C   0  0  0  0  0  0  0  0  0  0  0  0
   27.0558   36.9068   22.8692 C   0  0  0  0  0  0  0  0  0  0  0  0
   26.2835   35.5493   23.6012 S   0  0  0  0  0  0  0  0  0  0  0  0
   26.0559   36.3769   25.0413 C   0  0  0  0  0  0  0  0  0  0  0  0
   26.5800   37.6084   24.9990 C   0  0  0  0  0  0  0  0  0  0  0  0
   27.1530   37.9343   23.7542 C   0  0  0  0  0  0  0  0  0  0  0  0
   29.8820   42.3711   21.6084 C   0  0  0  0  0  0  0  0  0  0  0  0
   29.2190   42.2005   22.9570 C   0  0  0  0  0  0  0  0  0  0  0  0
   28.4438   41.0848   23.2380 C   0  0  0  0  0  0  0  0  0  0  0  0
   27.5499   41.0153   24.2410 N   0  0  0  0  0  0  0  0  0  0  0  0
   27.4297   42.1339   24.9401 C   0  0  0  0  0  0  0  0  0  0  0  0
   28.0640   43.2828   24.7690 N   0  0  0  0  0  0  0  0  0  0  0  0
   28.9372   43.2930   23.7510 C   0  0  0  0  0  0  0  0  0  0  0  0
   26.5334   42.0638   25.9310 O   0  0  0  0  0  0  0  0  0  0  0  0
   25.4876   43.0425   25.9468 C   0  0  0  0  0  0  0  0  0  0  0  0
  1  2  2  0  0  0  0
  1  6  1  0  0  0  0
  2  3  1  0  0  0  0
  3  4  2  0  0  0  0
  4 14  1  0  0  0  0
  5  4  1  0  0  0  0
  6  5  1  0  0  0  0
  7  6  2  0  0  0  0
  8  9  1  0  0  0  0
  8  2  1  1  0  0  0
 10 19  1  0  0  0  0
 10  9  1  0  0  0  0
 11 10  1  0  0  0  0
 12 11  1  0  0  0  0
 12 13  1  0  0  0  0
 13  8  1  0  0  0  0
 14 15  1  0  0  0  0
 14 18  2  0  0  0  0
 15 16  1  0  0  0  0
 16 17  2  0  0  0  0
 18 17  1  0  0  0  0
 19 20  1  0  0  0  0
 20 25  2  0  0  0  0
 20 21  1  0  0  0  0
 21 22  2  0  0  0  0
 22 23  1  0  0  0  0
 23 26  1  0  0  0  0
 24 23  2  0  0  0  0
 25 24  1  0  0  0  0
 26 27  1  0  0  0  0
M  END
>  <CHROM.1>
166.46448232,-143.64611682,-65.96261413,30.45040982,-124.69167841,27.68706052
39.39452904,22.15749943,-1.60000656,1.20633410,0.52838700

>  <Name>
lig.pdb

>  <RI>
0

>  <Rbt.Current_Directory>
/home/itssahil/PROJECTS/Mol_Feturizer/New_Systems/rnas/5kx9

>  <Rbt.Executable>
rbdock ($Id: //depot/dev/client3/rdock/2013.1/src/exe/rbdock.cxx#4 $)

>  <Rbt.Library>
libRbt.so (2013.1, Build901 2013/11/27)

>  <Rbt.Parameter_File>
/export/apps/rDock/src/rDock_2013.1_src/data/scripts/dock_solv.prm

>  <Rbt.Receptor>
prm/pocket_docking_6.prm

>  <SCORE>
-36.0389

>  <SCORE.INTER>
-33.7047

>  <SCORE.INTER.CONST>
1

>  <SCORE.INTER.POLAR>
0

>  <SCORE.INTER.ROT>
5

>  <SCORE.INTER.SOLV>
13.8795

>  <SCORE.INTER.VDW>
-34.0297

>  <SCORE.INTER.norm>
-1.24832

>  <SCORE.INTRA>
-2.3342

>  <SCORE.INTRA.DIHEDRAL>
2.55649

>  <SCORE.INTRA.DIHEDRAL.0>
2.68224

>  <SCORE.INTRA.POLAR>
0

>  <SCORE.INTRA.POLAR.0>
0

>  <SCORE.INTRA.REPUL>
0

>  <SCORE.INTRA.REPUL.0>
0

>  <SCORE.INTRA.SOLV>
0.202332

>  <SCORE.INTRA.SOLV.lig_0>
-19.4148

>  <SCORE.INTRA.VDW>
-3.71361

>  <SCORE.INTRA.VDW.0>
5.42093

>  <SCORE.INTRA.norm>
-0.0864518

>  <SCORE.RESTR>
0

>  <SCORE.RESTR.CAVITY>
0

>  <SCORE.RESTR.norm>
0

>  <SCORE.SYSTEM>
0

>  <SCORE.SYSTEM.CONST>
0

>  <SCORE.SYSTEM.DIHEDRAL>
0

>  <SCORE.SYSTEM.SOLV>
0

>  <SCORE.SYSTEM.norm>
0

>  <SCORE.heavy>
27

>  <SCORE.norm>
-1.33477

>  <RMSD>
2.283

$$$$
lig.pdb
 OpenBabel11021811523D
libRbt.so/2013.1/901 2013/11/27
 27 30  0  0  0  0  0  0  0  0999 V2000
   29.3344   37.5823   18.4766 N   0  0  0  0  0  0  0  0  0  0  0  0
   29.1662   38.3221   19.5447 C   0  0  0  0  0  0  0  0  0  0  0  0
   28.5058   37.9303   20.6634 N   0  0  0  0  0  0  0  0  0  0  0  0
   28.0129   36.6571   20.7199 C   0  0  0  0  0  0  0  0  0  0  0  0
   28.1672   35.8070   19.6627 C   0  0  0  0  0  0  0  0  0  0  0  0
   28.8400   36.2786   18.4758 C   0  0  0  0  0  0  0  0  0  0  0  0
   28.9717   35.5854   17.4595 O   0  0  0  0  0  0  0  0  0  0  0  0
   29.5475   39.8181   19.5903 C   0  0  2  0  0  0  0  0  0  0  0  0
   28.4853   40.3902   20.5431 C   0  0  0  0  0  0  0  0  0  0  0  0
   28.4953   41.8541   20.5505 N   0  0  0  0  0  0  0  0  0  0  0  0
   28.1584   42.3440   19.2041 C   0  0  0  0  0  0  0  0  0  0  0  0
   29.2052   41.9122   18.1962 C   0  0  0  0  0  0  0  0  0  0  0  0
   29.3536   40.3972   18.1786 C   0  0  0  0  0  0  0  0  0  0  0  0
   27.3688   36.3653   21.9936 C   0  0  0  0  0  0  0  0  0  0  0  0
   26.6339   34.8360   22.3037 S   0  0  0  0  0  0  0  0  0  0  0  0
   26.1506   35.3097   23.8376 C   0  0  0  0  0  0  0  0  0  0  0  0
   26.5634   36.5490   24.1319 C   0  0  0  0  0  0  0  0  0  0  0  0
   27.2595   37.1756   23.0799 C   0  0  0  0  0  0  0  0  0  0  0  0
   27.5596   42.4063   21.5459 C   0  0  0  0  0  0  0  0  0  0  0  0
   28.1963   43.0470   22.7590 C   0  0  0  0  0  0  0  0  0  0  0  0
   29.5656   43.2614   22.8200 C   0  0  0  0  0  0  0  0  0  0  0  0
   30.2487   43.4836   23.9576 N   0  0  0  0  0  0  0  0  0  0  0  0
   29.5060   43.4442   25.0537 C   0  0  0  0  0  0  0  0  0  0  0  0
   28.2073   43.2125   25.1592 N   0  0  0  0  0  0  0  0  0  0  0  0
   27.5822   42.9924   23.9932 C   0  0  0  0  0  0  0  0  0  0  0  0
   30.1903   43.6567   26.1836 O   0  0  0  0  0  0  0  0  0  0  0  0
   31.2749   42.7680   26.4766 C   0  0  0  0  0  0  0  0  0  0  0  0
  1  2  2  0  0  0  0
  1  6  1  0  0  0  0
  2  3  1  0  0  0  0
  3  4  2  0  0  0  0
  4 14  1  0  0  0  0
  5  4  1  0  0  0  0
  6  5  1  0  0  0  0
  7  6  2  0  0  0  0
  8  9  1  0  0  0  0
  8  2  1  6  0  0  0
 10 19  1  0  0  0  0
 10  9  1  0  0  0  0
 11 10  1  0  0  0  0
 12 11  1  0  0  0  0
 12 13  1  0  0  0  0
 13  8  1  0  0  0  0
 14 15  1  0  0  0  0
 14 18  2  0  0  0  0
 15 16  1  0  0  0  0
 16 17  2  0  0  0  0
 18 17  1  0  0  0  0
 19 20  1  0  0  0  0
 20 25  2  0  0  0  0
 20 21  1  0  0  0  0
 21 22  2  0  0  0  0
 22 23  1  0  0  0  0
 23 26  1  0  0  0  0
 24 23  2  0  0  0  0
 25 24  1  0  0  0  0
 26 27  1  0  0  0  0
M  END
>  <CHROM.1>
178.61580634,147.13721621,108.74083897,8.80716732,-58.38093330,28.47989202
39.56220171,21.68282628,-2.20615986,1.25287612,1.10341442

>  <Name>
lig.pdb

>  <RI>
0

>  <Rbt.Current_Directory>
/home/itssahil/PROJECTS/Mol_Feturizer/New_Systems/rnas/5kx9

>  <Rbt.Executable>
rbdock ($Id: //depot/dev/client3/rdock/2013.1/src/exe/rbdock.cxx#4 $)

>  <Rbt.Library>
libRbt.so (2013.1, Build901 2013/11/27)

>  <Rbt.Parameter_File>
/export/apps/rDock/src/rDock_2013.1_src/data/scripts/dock_solv.prm

>  <Rbt.Receptor>
prm/pocket_docking_7.prm

>  <SCORE>
-35.3238

>  <SCORE.INTER>
-35.4235

>  <SCORE.INTER.CONST>
1

>  <SCORE.INTER.POLAR>
0

>  <SCORE.INTER.ROT>
5

>  <SCORE.INTER.SOLV>
15.7066

>  <SCORE.INTER.VDW>
-35.7845

>  <SCORE.INTER.norm>
-1.31198

>  <SCORE.INTRA>
0.0996477

>  <SCORE.INTRA.DIHEDRAL>
4.66177

>  <SCORE.INTRA.DIHEDRAL.0>
2.68224

>  <SCORE.INTRA.POLAR>
0

>  <SCORE.INTRA.POLAR.0>
0

>  <SCORE.INTRA.REPUL>
0

>  <SCORE.INTRA.REPUL.0>
0

>  <SCORE.INTRA.SOLV>
-0.499603

>  <SCORE.INTRA.SOLV.lig_0>
-19.4148

>  <SCORE.INTRA.VDW>
-1.98144

>  <SCORE.INTRA.VDW.0>
5.42093

>  <SCORE.INTRA.norm>
0.00369066

>  <SCORE.RESTR>
0

>  <SCORE.RESTR.CAVITY>
0

>  <SCORE.RESTR.norm>
0

>  <SCORE.SYSTEM>
0

>  <SCORE.SYSTEM.CONST>
0

>  <SCORE.SYSTEM.DIHEDRAL>
0

>  <SCORE.SYSTEM.SOLV>
0

>  <SCORE.SYSTEM.norm>
0

>  <SCORE.heavy>
27

>  <SCORE.norm>
-1.30829

>  <RMSD>
2.466

$$$$
lig.pdb
 OpenBabel11021811523D
libRbt.so/2013.1/901 2013/11/27
 27 30  0  0  0  0  0  0  0  0999 V2000
   28.9213   37.3413   19.0673 N   0  0  0  0  0  0  0  0  0  0  0  0
   28.8558   38.2837   19.9750 C   0  0  0  0  0  0  0  0  0  0  0  0
   28.2598   38.1531   21.1869 N   0  0  0  0  0  0  0  0  0  0  0  0
   27.7236   36.9427   21.5252 C   0  0  0  0  0  0  0  0  0  0  0  0
   27.7717   35.8951   20.6509 C   0  0  0  0  0  0  0  0  0  0  0  0
   28.3785   36.0898   19.3556 C   0  0  0  0  0  0  0  0  0  0  0  0
   28.4130   35.2050   18.4915 O   0  0  0  0  0  0  0  0  0  0  0  0
   29.2965   39.7381   19.6990 C   0  0  2  0  0  0  0  0  0  0  0  0
   29.5102   40.2829   21.1207 C   0  0  0  0  0  0  0  0  0  0  0  0
   29.6994   41.7346   21.1225 N   0  0  0  0  0  0  0  0  0  0  0  0
   28.4814   42.3788   20.6052 C   0  0  0  0  0  0  0  0  0  0  0  0
   28.2314   41.9798   19.1642 C   0  0  0  0  0  0  0  0  0  0  0  0
   28.1203   40.4676   19.0280 C   0  0  0  0  0  0  0  0  0  0  0  0
   27.1584   36.9396   22.8679 C   0  0  0  0  0  0  0  0  0  0  0  0
   26.3786   35.5440   23.5155 S   0  0  0  0  0  0  0  0  0  0  0  0
   26.0267   36.3315   24.9531 C   0  0  0  0  0  0  0  0  0  0  0  0
   26.5150   37.5781   24.9734 C   0  0  0  0  0  0  0  0  0  0  0  0
   27.1628   37.9489   23.7789 C   0  0  0  0  0  0  0  0  0  0  0  0
   30.0188   42.2468   22.4667 C   0  0  0  0  0  0  0  0  0  0  0  0
   28.8810   42.2268   23.4629 C   0  0  0  0  0  0  0  0  0  0  0  0
   27.8033   41.3682   23.3022 C   0  0  0  0  0  0  0  0  0  0  0  0
   26.6135   41.5221   23.9110 N   0  0  0  0  0  0  0  0  0  0  0  0
   26.5268   42.6052   24.6684 C   0  0  0  0  0  0  0  0  0  0  0  0
   27.4461   43.5320   24.8864 N   0  0  0  0  0  0  0  0  0  0  0  0
   28.6080   43.3277   24.2484 C   0  0  0  0  0  0  0  0  0  0  0  0
   25.3393   42.7595   25.2651 O   0  0  0  0  0  0  0  0  0  0  0  0
   25.3350   43.2388   26.6149 C   0  0  0  0  0  0  0  0  0  0  0  0
  1  2  2  0  0  0  0
  1  6  1  0  0  0  0
  2  3  1  0  0  0  0
  3  4  2  0  0  0  0
  4 14  1  0  0  0  0
  5  4  1  0  0  0  0
  6  5  1  0  0  0  0
  7  6  2  0  0  0  0
  8  9  1  0  0  0  0
  8  2  1  1  0  0  0
 10 19  1  0  0  0  0
 10  9  1  0  0  0  0
 11 10  1  0  0  0  0
 12 11  1  0  0  0  0
 12 13  1  0  0  0  0
 13  8  1  0  0  0  0
 14 15  1  0  0  0  0
 14 18  2  0  0  0  0
 15 16  1  0  0  0  0
 16 17  2  0  0  0  0
 18 17  1  0  0  0  0
 19 20  1  0  0  0  0
 20 25  2  0  0  0  0
 20 21  1  0  0  0  0
 21 22  2  0  0  0  0
 22 23  1  0  0  0  0
 23 26  1  0  0  0  0
 24 23  2  0  0  0  0
 25 24  1  0  0  0  0
 26 27  1  0  0  0  0
M  END
>  <CHROM.1>
178.16828539,-160.49666539,-71.05181029,22.54704951,140.44991806,27.74896776
39.52946007,22.27541208,-1.35932172,1.06523786,0.35053359

>  <Name>
lig.pdb

>  <RI>
0

>  <Rbt.Current_Directory>
/home/itssahil/PROJECTS/Mol_Feturizer/New_Systems/rnas/5kx9

>  <Rbt.Executable>
rbdock ($Id: //depot/dev/client3/rdock/2013.1/src/exe/rbdock.cxx#4 $)

>  <Rbt.Library>
libRbt.so (2013.1, Build901 2013/11/27)

>  <Rbt.Parameter_File>
/export/apps/rDock/src/rDock_2013.1_src/data/scripts/dock_solv.prm

>  <Rbt.Receptor>
prm/blind_docking_80.prm

>  <SCORE>
-35.9641

>  <SCORE.INTER>
-35.5474

>  <SCORE.INTER.CONST>
1

>  <SCORE.INTER.POLAR>
0

>  <SCORE.INTER.ROT>
5

>  <SCORE.INTER.SOLV>
15.5865

>  <SCORE.INTER.VDW>
-35.8271

>  <SCORE.INTER.norm>
-1.31657

>  <SCORE.INTRA>
-0.41674

>  <SCORE.INTRA.DIHEDRAL>
0.668427

>  <SCORE.INTRA.DIHEDRAL.0>
2.68224

>  <SCORE.INTRA.POLAR>
0

>  <SCORE.INTRA.POLAR.0>
0

>  <SCORE.INTRA.REPUL>
0

>  <SCORE.INTRA.REPUL.0>
0

>  <SCORE.INTRA.SOLV>
0.0409938

>  <SCORE.INTRA.SOLV.lig_0>
-19.4148

>  <SCORE.INTRA.VDW>
-0.77145

>  <SCORE.INTRA.VDW.0>
5.42093

>  <SCORE.INTRA.norm>
-0.0154348

>  <SCORE.RESTR>
0

>  <SCORE.RESTR.CAVITY>
0

>  <SCORE.RESTR.norm>
0

>  <SCORE.SYSTEM>
0

>  <SCORE.SYSTEM.CONST>
0

>  <SCORE.SYSTEM.DIHEDRAL>
0

>  <SCORE.SYSTEM.SOLV>
0

>  <SCORE.SYSTEM.norm>
0

>  <SCORE.heavy>
27

>  <SCORE.norm>
-1.33201

>  <RMSD>
2.552

$$$$
lig.pdb
 OpenBabel11021811523D
libRbt.so/2013.1/901 2013/11/27
 27 30  0  0  0  0  0  0  0  0999 V2000
   29.1000   37.8161   18.8875 N   0  0  0  0  0  0  0  0  0  0  0  0
   28.8312   38.6135   19.8916 C   0  0  0  0  0  0  0  0  0  0  0  0
   28.1905   38.2408   21.0280 N   0  0  0  0  0  0  0  0  0  0  0  0
   27.8326   36.9305   21.1775 C   0  0  0  0  0  0  0  0  0  0  0  0
   28.0989   36.0230   20.1927 C   0  0  0  0  0  0  0  0  0  0  0  0
   28.7452   36.4711   18.9822 C   0  0  0  0  0  0  0  0  0  0  0  0
   28.9716   35.7198   18.0255 O   0  0  0  0  0  0  0  0  0  0  0  0
   29.0526   40.1407   19.8248 C   0  0  2  0  0  0  0  0  0  0  0  0
   29.4543   40.4693   21.2719 C   0  0  0  0  0  0  0  0  0  0  0  0
   29.4796   41.9130   21.5133 N   0  0  0  0  0  0  0  0  0  0  0  0
   28.1254   42.4564   21.3203 C   0  0  0  0  0  0  0  0  0  0  0  0
   27.6686   42.2683   19.8871 C   0  0  0  0  0  0  0  0  0  0  0  0
   27.7026   40.7985   19.4919 C   0  0  0  0  0  0  0  0  0  0  0  0
   27.1941   36.6705   22.4608 C   0  0  0  0  0  0  0  0  0  0  0  0
   27.1646   37.8583   23.7112 S   0  0  0  0  0  0  0  0  0  0  0  0
   26.3457   36.8311   24.7529 C   0  0  0  0  0  0  0  0  0  0  0  0
   26.0587   35.6576   24.1754 C   0  0  0  0  0  0  0  0  0  0  0  0
   26.5458   35.5436   22.8587 C   0  0  0  0  0  0  0  0  0  0  0  0
   29.9745   42.2373   22.8628 C   0  0  0  0  0  0  0  0  0  0  0  0
   28.9712   42.0812   23.9837 C   0  0  0  0  0  0  0  0  0  0  0  0
   28.2203   40.9222   24.1167 C   0  0  0  0  0  0  0  0  0  0  0  0
   27.0867   40.8311   24.8354 N   0  0  0  0  0  0  0  0  0  0  0  0
   26.7043   41.9698   25.3935 C   0  0  0  0  0  0  0  0  0  0  0  0
   27.2872   43.1559   25.3245 N   0  0  0  0  0  0  0  0  0  0  0  0
   28.4089   43.1856   24.5899 C   0  0  0  0  0  0  0  0  0  0  0  0
   25.5718   41.8772   26.0999 O   0  0  0  0  0  0  0  0  0  0  0  0
   24.5901   42.9033   25.9125 C   0  0  0  0  0  0  0  0  0  0  0  0
  1  2  2  0  0  0  0
  1  6  1  0  0  0  0
  2  3  1  0  0  0  0
  3  4  2  0  0  0  0
  4 14  1  0  0  0  0
  5  4  1  0  0  0  0
  6  5  1  0  0  0  0
  7  6  2  0  0  0  0
  8  9  1  0  0  0  0
  8  2  1  1  0  0  0
 10 19  1  0  0  0  0
 10  9  1  0  0  0  0
 11 10  1  0  0  0  0
 12 11  1  0  0  0  0
 12 13  1  0  0  0  0
 13  8  1  0  0  0  0
 14 15  1  0  0  0  0
 14 18  2  0  0  0  0
 15 16  1  0  0  0  0
 16 17  2  0  0  0  0
 18 17  1  0  0  0  0
 19 20  1  0  0  0  0
 20 25  2  0  0  0  0
 20 21  1  0  0  0  0
 21 22  2  0  0  0  0
 22 23  1  0  0  0  0
 23 26  1  0  0  0  0
 24 23  2  0  0  0  0
 25 24  1  0  0  0  0
 26 27  1  0  0  0  0
M  END
>  <CHROM.1>
-9.55201259,-146.35208574,-79.45654365,49.47880392,-134.76813399,27.78248621
39.57198674,22.38359621,-1.20438079,1.07601732,0.39411955

>  <Name>
lig.pdb

>  <RI>
0

>  <Rbt.Current_Directory>
/home/itssahil/PROJECTS/Mol_Feturizer/New_Systems/rnas/5kx9

>  <Rbt.Executable>
rbdock ($Id: //depot/dev/client3/rdock/2013.1/src/exe/rbdock.cxx#4 $)

>  <Rbt.Library>
libRbt.so (2013.1, Build901 2013/11/27)

>  <Rbt.Parameter_File>
/export/apps/rDock/src/rDock_2013.1_src/data/scripts/dock_solv.prm

>  <Rbt.Receptor>
prm/blind_docking_80.prm

>  <SCORE>
-36.6144

>  <SCORE.INTER>
-34.087

>  <SCORE.INTER.CONST>
1

>  <SCORE.INTER.POLAR>
0

>  <SCORE.INTER.ROT>
5

>  <SCORE.INTER.SOLV>
14.5142

>  <SCORE.INTER.VDW>
-34.4961

>  <SCORE.INTER.norm>
-1.26248

>  <SCORE.INTRA>
-2.52735

>  <SCORE.INTRA.DIHEDRAL>
2.23673

>  <SCORE.INTRA.DIHEDRAL.0>
2.68224

>  <SCORE.INTRA.POLAR>
0

>  <SCORE.INTRA.POLAR.0>
0

>  <SCORE.INTRA.REPUL>
0

>  <SCORE.INTRA.REPUL.0>
0

>  <SCORE.INTRA.SOLV>
0.371223

>  <SCORE.INTRA.SOLV.lig_0>
-19.4148

>  <SCORE.INTRA.VDW>
-3.83132

>  <SCORE.INTRA.VDW.0>
5.42093

>  <SCORE.INTRA.norm>
-0.0936054

>  <SCORE.RESTR>
0

>  <SCORE.RESTR.CAVITY>
0

>  <SCORE.RESTR.norm>
0

>  <SCORE.SYSTEM>
0

>  <SCORE.SYSTEM.CONST>
0

>  <SCORE.SYSTEM.DIHEDRAL>
0

>  <SCORE.SYSTEM.SOLV>
0

>  <SCORE.SYSTEM.norm>
0

>  <SCORE.heavy>
27

>  <SCORE.norm>
-1.35609

>  <RMSD>
3.002

$$$$
lig.pdb
 OpenBabel11021811523D
libRbt.so/2013.1/901 2013/11/27
 27 30  0  0  0  0  0  0  0  0999 V2000
   28.6018   39.1102   18.4130 N   0  0  0  0  0  0  0  0  0  0  0  0
   27.8756   39.4170   19.4593 C   0  0  0  0  0  0  0  0  0  0  0  0
   27.4805   38.5376   20.4141 N   0  0  0  0  0  0  0  0  0  0  0  0
   27.8997   37.2403   20.3223 C   0  0  0  0  0  0  0  0  0  0  0  0
   28.6837   36.8378   19.2793 C   0  0  0  0  0  0  0  0  0  0  0  0
   29.0462   37.7971   18.2634 C   0  0  0  0  0  0  0  0  0  0  0  0
   29.7088   37.4960   17.2628 O   0  0  0  0  0  0  0  0  0  0  0  0
   27.2177   40.8028   19.6393 C   0  0  2  0  0  0  0  0  0  0  0  0
   27.1737   40.9397   21.1700 C   0  0  0  0  0  0  0  0  0  0  0  0
   26.3604   42.0825   21.5892 N   0  0  0  0  0  0  0  0  0  0  0  0
   24.9724   41.8729   21.1467 C   0  0  0  0  0  0  0  0  0  0  0  0
   24.8914   41.8197   19.6338 C   0  0  0  0  0  0  0  0  0  0  0  0
   25.7881   40.7224   19.0776 C   0  0  0  0  0  0  0  0  0  0  0  0
   27.4351   36.4246   21.4363 C   0  0  0  0  0  0  0  0  0  0  0  0
   27.0470   37.1223   22.9653 S   0  0  0  0  0  0  0  0  0  0  0  0
   26.6661   35.6269   23.6206 C   0  0  0  0  0  0  0  0  0  0  0  0
   26.7762   34.6429   22.7192 C   0  0  0  0  0  0  0  0  0  0  0  0
   27.2252   35.0815   21.4583 C   0  0  0  0  0  0  0  0  0  0  0  0
   26.4082   42.2872   23.0476 C   0  0  0  0  0  0  0  0  0  0  0  0
   27.7758   42.5787   23.6239 C   0  0  0  0  0  0  0  0  0  0  0  0
   27.9309   42.9330   24.9562 C   0  0  0  0  0  0  0  0  0  0  0  0
   29.0211   43.5414   25.4573 N   0  0  0  0  0  0  0  0  0  0  0  0
   29.9495   43.8222   24.5552 C   0  0  0  0  0  0  0  0  0  0  0  0
   29.9289   43.5863   23.2532 N   0  0  0  0  0  0  0  0  0  0  0  0
   28.8149   42.9838   22.8118 C   0  0  0  0  0  0  0  0  0  0  0  0
   31.0282   44.4352   25.0558 O   0  0  0  0  0  0  0  0  0  0  0  0
   31.8939   43.6661   25.8989 C   0  0  0  0  0  0  0  0  0  0  0  0
  1  2  2  0  0  0  0
  1  6  1  0  0  0  0
  2  3  1  0  0  0  0
  3  4  2  0  0  0  0
  4 14  1  0  0  0  0
  5  4  1  0  0  0  0
  6  5  1  0  0  0  0
  7  6  2  0  0  0  0
  8  9  1  0  0  0  0
  8  2  1  1  0  0  0
 10 19  1  0  0  0  0
 10  9  1  0  0  0  0
 11 10  1  0  0  0  0
 12 11  1  0  0  0  0
 12 13  1  0  0  0  0
 13  8  1  0  0  0  0
 14 15  1  0  0  0  0
 14 18  2  0  0  0  0
 15 16  1  0  0  0  0
 16 17  2  0  0  0  0
 18 17  1  0  0  0  0
 19 20  1  0  0  0  0
 20 25  2  0  0  0  0
 20 21  1  0  0  0  0
 21 22  2  0  0  0  0
 22 23  1  0  0  0  0
 23 26  1  0  0  0  0
 24 23  2  0  0  0  0
 25 24  1  0  0  0  0
 26 27  1  0  0  0  0
M  END
>  <CHROM.1>
-25.18182075,-150.89355431,61.04777069,172.90288987,69.85156387,27.90039593
40.04369626,21.78819479,2.42472198,1.26438243,2.86761207

>  <Name>
lig.pdb

>  <RI>
0

>  <Rbt.Current_Directory>
/home/itssahil/PROJECTS/Mol_Feturizer/New_Systems/rnas/5kx9

>  <Rbt.Executable>
rbdock ($Id: //depot/dev/client3/rdock/2013.1/src/exe/rbdock.cxx#4 $)

>  <Rbt.Library>
libRbt.so (2013.1, Build901 2013/11/27)

>  <Rbt.Parameter_File>
/export/apps/rDock/src/rDock_2013.1_src/data/scripts/dock_solv.prm

>  <Rbt.Receptor>
prm/blind_docking_80.prm

>  <SCORE>
-37.2116

>  <SCORE.INTER>
-35.7908

>  <SCORE.INTER.CONST>
1

>  <SCORE.INTER.POLAR>
0

>  <SCORE.INTER.ROT>
5

>  <SCORE.INTER.SOLV>
14.2896

>  <SCORE.INTER.VDW>
-35.5571

>  <SCORE.INTER.norm>
-1.32559

>  <SCORE.INTRA>
-1.4208

>  <SCORE.INTRA.DIHEDRAL>
5.43575

>  <SCORE.INTRA.DIHEDRAL.0>
2.68224

>  <SCORE.INTRA.POLAR>
0

>  <SCORE.INTRA.POLAR.0>
0

>  <SCORE.INTRA.REPUL>
0

>  <SCORE.INTRA.REPUL.0>
0

>  <SCORE.INTRA.SOLV>
-0.414455

>  <SCORE.INTRA.SOLV.lig_0>
-19.4148

>  <SCORE.INTRA.VDW>
-3.93145

>  <SCORE.INTRA.VDW.0>
5.42093

>  <SCORE.INTRA.norm>
-0.0526222

>  <SCORE.RESTR>
0

>  <SCORE.RESTR.CAVITY>
0

>  <SCORE.RESTR.norm>
0

>  <SCORE.SYSTEM>
0

>  <SCORE.SYSTEM.CONST>
0

>  <SCORE.SYSTEM.DIHEDRAL>
0

>  <SCORE.SYSTEM.SOLV>
0

>  <SCORE.SYSTEM.norm>
0

>  <SCORE.heavy>
27

>  <SCORE.norm>
-1.37821

>  <RMSD>
3.349

$$$$
lig.pdb
 OpenBabel11021811523D
libRbt.so/2013.1/901 2013/11/27
 27 30  0  0  0  0  0  0  0  0999 V2000
   27.3959   34.3092   17.7387 N   0  0  0  0  0  0  0  0  0  0  0  0
   28.3330   35.0132   18.3238 C   0  0  0  0  0  0  0  0  0  0  0  0
   28.2334   35.5603   19.5615 N   0  0  0  0  0  0  0  0  0  0  0  0
   27.0988   35.3325   20.2881 C   0  0  0  0  0  0  0  0  0  0  0  0
   26.0813   34.5854   19.7675 C   0  0  0  0  0  0  0  0  0  0  0  0
   26.2120   34.0570   18.4306 C   0  0  0  0  0  0  0  0  0  0  0  0
   25.3129   33.4164   17.8720 O   0  0  0  0  0  0  0  0  0  0  0  0
   29.6146   35.4667   17.5907 C   0  0  2  0  0  0  0  0  0  0  0  0
   29.3775   36.9779   17.4369 C   0  0  0  0  0  0  0  0  0  0  0  0
   30.3613   37.5931   16.5442 N   0  0  0  0  0  0  0  0  0  0  0  0
   30.2234   37.0081   15.2007 C   0  0  0  0  0  0  0  0  0  0  0  0
   30.5338   35.5244   15.2248 C   0  0  0  0  0  0  0  0  0  0  0  0
   29.6296   34.7937   16.2077 C   0  0  0  0  0  0  0  0  0  0  0  0
   27.1514   35.9437   21.6094 C   0  0  0  0  0  0  0  0  0  0  0  0
   26.4415   35.1824   22.9847 S   0  0  0  0  0  0  0  0  0  0  0  0
   26.8843   36.4480   23.9912 C   0  0  0  0  0  0  0  0  0  0  0  0
   27.5811   37.3865   23.3381 C   0  0  0  0  0  0  0  0  0  0  0  0
   27.7382   37.1176   21.9644 C   0  0  0  0  0  0  0  0  0  0  0  0
   30.2101   39.0576   16.4836 C   0  0  0  0  0  0  0  0  0  0  0  0
   30.2199   39.7731   17.8160 C   0  0  0  0  0  0  0  0  0  0  0  0
   31.1466   39.4490   18.7962 C   0  0  0  0  0  0  0  0  0  0  0  0
   31.0148   39.7619   20.0980 N   0  0  0  0  0  0  0  0  0  0  0  0
   29.8854   40.3871   20.3948 C   0  0  0  0  0  0  0  0  0  0  0  0
   28.8954   40.7257   19.5843 N   0  0  0  0  0  0  0  0  0  0  0  0
   29.0812   40.3825   18.3012 C   0  0  0  0  0  0  0  0  0  0  0  0
   29.7539   40.6887   21.6916 O   0  0  0  0  0  0  0  0  0  0  0  0
   28.4375   40.6319   22.2533 C   0  0  0  0  0  0  0  0  0  0  0  0
  1  2  2  0  0  0  0
  1  6  1  0  0  0  0
  2  3  1  0  0  0  0
  3  4  2  0  0  0  0
  4 14  1  0  0  0  0
  5  4  1  0  0  0  0
  6  5  1  0  0  0  0
  7  6  2  0  0  0  0
  8  9  1  0  0  0  0
  8  2  1  1  0  0  0
 10 19  1  0  0  0  0
 10  9  1  0  0  0  0
 11 10  1  0  0  0  0
 12 11  1  0  0  0  0
 12 13  1  0  0  0  0
 13  8  1  0  0  0  0
 14 15  1  0  0  0  0
 14 18  2  0  0  0  0
 15 16  1  0  0  0  0
 16 17  2  0  0  0  0
 18 17  1  0  0  0  0
 19 20  1  0  0  0  0
 20 25  2  0  0  0  0
 20 21  1  0  0  0  0
 21 22  2  0  0  0  0
 22 23  1  0  0  0  0
 23 26  1  0  0  0  0
 24 23  2  0  0  0  0
 25 24  1  0  0  0  0
 26 27  1  0  0  0  0
M  END
>  <CHROM.1>
-144.27413012,108.47457245,53.60789669,44.18372845,-145.13750689,28.52369179
37.05186193,19.40031653,2.83989129,0.95386269,0.91802664

>  <Name>
lig.pdb

>  <RI>
0

>  <Rbt.Current_Directory>
/home/itssahil/PROJECTS/Mol_Feturizer/New_Systems/rnas/5kx9

>  <Rbt.Executable>
rbdock ($Id: //depot/dev/client3/rdock/2013.1/src/exe/rbdock.cxx#4 $)

>  <Rbt.Library>
libRbt.so (2013.1, Build901 2013/11/27)

>  <Rbt.Parameter_File>
/export/apps/rDock/src/rDock_2013.1_src/data/scripts/dock_solv.prm

>  <Rbt.Receptor>
prm/blind_docking_80.prm

>  <SCORE>
-28.5669

>  <SCORE.INTER>
-25.3681

>  <SCORE.INTER.CONST>
1

>  <SCORE.INTER.POLAR>
0

>  <SCORE.INTER.ROT>
5

>  <SCORE.INTER.SOLV>
12.4896

>  <SCORE.INTER.VDW>
-28.0086

>  <SCORE.INTER.norm>
-0.939561

>  <SCORE.INTRA>
-3.19872

>  <SCORE.INTRA.DIHEDRAL>
4.21213

>  <SCORE.INTRA.DIHEDRAL.0>
2.68224

>  <SCORE.INTRA.POLAR>
0

>  <SCORE.INTRA.POLAR.0>
0

>  <SCORE.INTRA.REPUL>
0

>  <SCORE.INTRA.REPUL.0>
0

>  <SCORE.INTRA.SOLV>
-0.369558

>  <SCORE.INTRA.SOLV.lig_0>
-19.4148

>  <SCORE.INTRA.VDW>
-5.12001

>  <SCORE.INTRA.VDW.0>
5.42093

>  <SCORE.INTRA.norm>
-0.118471

>  <SCORE.RESTR>
0

>  <SCORE.RESTR.CAVITY>
0

>  <SCORE.RESTR.norm>
0

>  <SCORE.SYSTEM>
0

>  <SCORE.SYSTEM.CONST>
0

>  <SCORE.SYSTEM.DIHEDRAL>
0

>  <SCORE.SYSTEM.SOLV>
0

>  <SCORE.SYSTEM.norm>
0

>  <SCORE.heavy>
27

>  <SCORE.norm>
-1.05803

>  <RMSD>
3.473

$$$$
lig.pdb
 OpenBabel11021811523D
libRbt.so/2013.1/901 2013/11/27
 27 30  0  0  0  0  0  0  0  0999 V2000
   28.6782   39.2173   18.5304 N   0  0  0  0  0  0  0  0  0  0  0  0
   27.9389   39.4928   19.5762 C   0  0  0  0  0  0  0  0  0  0  0  0
   27.5255   38.5839   20.4949 N   0  0  0  0  0  0  0  0  0  0  0  0
   27.9388   37.2880   20.3650 C   0  0  0  0  0  0  0  0  0  0  0  0
   28.7353   36.9164   19.3200 C   0  0  0  0  0  0  0  0  0  0  0  0
   29.1175   37.9074   18.3425 C   0  0  0  0  0  0  0  0  0  0  0  0
   29.7926   37.6365   17.3417 O   0  0  0  0  0  0  0  0  0  0  0  0
   27.2861   40.8756   19.7939 C   0  0  2  0  0  0  0  0  0  0  0  0
   27.1954   40.9488   21.3269 C   0  0  0  0  0  0  0  0  0  0  0  0
   26.3780   42.0802   21.7685 N   0  0  0  0  0  0  0  0  0  0  0  0
   25.0030   41.9015   21.2750 C   0  0  0  0  0  0  0  0  0  0  0  0
   24.9688   41.9123   19.7594 C   0  0  0  0  0  0  0  0  0  0  0  0
   25.8741   40.8313   19.1855 C   0  0  0  0  0  0  0  0  0  0  0  0
   27.4540   36.4379   21.4441 C   0  0  0  0  0  0  0  0  0  0  0  0
   27.0170   37.0902   22.9799 S   0  0  0  0  0  0  0  0  0  0  0  0
   26.6360   35.5737   23.5849 C   0  0  0  0  0  0  0  0  0  0  0  0
   26.7815   34.6154   22.6611 C   0  0  0  0  0  0  0  0  0  0  0  0
   27.2591   35.0924   21.4248 C   0  0  0  0  0  0  0  0  0  0  0  0
   26.3818   42.2233   23.2350 C   0  0  0  0  0  0  0  0  0  0  0  0
   27.7381   42.1352   23.8985 C   0  0  0  0  0  0  0  0  0  0  0  0
   28.1806   40.9509   24.4694 C   0  0  0  0  0  0  0  0  0  0  0  0
   29.1791   40.8682   25.3673 N   0  0  0  0  0  0  0  0  0  0  0  0
   29.7014   42.0368   25.7080 C   0  0  0  0  0  0  0  0  0  0  0  0
   29.3620   43.2440   25.2849 N   0  0  0  0  0  0  0  0  0  0  0  0
   28.3575   43.2630   24.3964 C   0  0  0  0  0  0  0  0  0  0  0  0
   30.6880   41.9514   26.6076 O   0  0  0  0  0  0  0  0  0  0  0  0
   30.5389   40.9948   27.6633 C   0  0  0  0  0  0  0  0  0  0  0  0
  1  2  2  0  0  0  0
  1  6  1  0  0  0  0
  2  3  1  0  0  0  0
  3  4  2  0  0  0  0
  4 14  1  0  0  0  0
  5  4  1  0  0  0  0
  6  5  1  0  0  0  0
  7  6  2  0  0  0  0
  8  9  1  0  0  0  0
  8  2  1  1  0  0  0
 10 19  1  0  0  0  0
 10  9  1  0  0  0  0
 11 10  1  0  0  0  0
 12 11  1  0  0  0  0
 12 13  1  0  0  0  0
 13  8  1  0  0  0  0
 14 15  1  0  0  0  0
 14 18  2  0  0  0  0
 15 16  1  0  0  0  0
 16 17  2  0  0  0  0
 18 17  1  0  0  0  0
 19 20  1  0  0  0  0
 20 25  2  0  0  0  0
 20 21  1  0  0  0  0
 21 22  2  0  0  0  0
 22 23  1  0  0  0  0
 23 26  1  0  0  0  0
 24 23  2  0  0  0  0
 25 24  1  0  0  0  0
 26 27  1  0  0  0  0
M  END
>  <CHROM.1>
-23.89630440,-151.97540721,46.51241485,-97.73287127,-39.10452487,27.82568758
39.62337158,22.12928362,2.18102380,1.25484659,-2.84395880

>  <Name>
lig.pdb

>  <RI>
0

>  <Rbt.Current_Directory>
/home/itssahil/PROJECTS/Mol_Feturizer/New_Systems/rnas/5kx9

>  <Rbt.Executable>
rbdock ($Id: //depot/dev/client3/rdock/2013.1/src/exe/rbdock.cxx#4 $)

>  <Rbt.Library>
libRbt.so (2013.1, Build901 2013/11/27)

>  <Rbt.Parameter_File>
/export/apps/rDock/src/rDock_2013.1_src/data/scripts/dock_solv.prm

>  <Rbt.Receptor>
prm/pocket_docking_5.prm

>  <SCORE>
-33.6362

>  <SCORE.INTER>
-32.1946

>  <SCORE.INTER.CONST>
1

>  <SCORE.INTER.POLAR>
0

>  <SCORE.INTER.ROT>
5

>  <SCORE.INTER.SOLV>
12.1032

>  <SCORE.INTER.VDW>
-32.4308

>  <SCORE.INTER.norm>
-1.19239

>  <SCORE.INTRA>
-1.44153

>  <SCORE.INTRA.DIHEDRAL>
2.68663

>  <SCORE.INTRA.DIHEDRAL.0>
2.68224

>  <SCORE.INTRA.POLAR>
0

>  <SCORE.INTRA.POLAR.0>
0

>  <SCORE.INTRA.REPUL>
0

>  <SCORE.INTRA.REPUL.0>
0

>  <SCORE.INTRA.SOLV>
-0.475344

>  <SCORE.INTRA.SOLV.lig_0>
-19.4148

>  <SCORE.INTRA.VDW>
-2.54718

>  <SCORE.INTRA.VDW.0>
5.42093

>  <SCORE.INTRA.norm>
-0.0533901

>  <SCORE.RESTR>
0

>  <SCORE.RESTR.CAVITY>
0

>  <SCORE.RESTR.norm>
0

>  <SCORE.SYSTEM>
0

>  <SCORE.SYSTEM.CONST>
0

>  <SCORE.SYSTEM.DIHEDRAL>
0

>  <SCORE.SYSTEM.SOLV>
0

>  <SCORE.SYSTEM.norm>
0

>  <SCORE.heavy>
27

>  <SCORE.norm>
-1.24578

>  <RMSD>
3.502

$$$$
lig.pdb
 OpenBabel11021811523D
libRbt.so/2013.1/901 2013/11/27
 27 30  0  0  0  0  0  0  0  0999 V2000
   28.6357   38.6685   17.8023 N   0  0  0  0  0  0  0  0  0  0  0  0
   28.0282   39.0901   18.8836 C   0  0  0  0  0  0  0  0  0  0  0  0
   27.6533   38.2997   19.9208 N   0  0  0  0  0  0  0  0  0  0  0  0
   27.9652   36.9701   19.8760 C   0  0  0  0  0  0  0  0  0  0  0  0
   28.6232   36.4488   18.7991 C   0  0  0  0  0  0  0  0  0  0  0  0
   28.9664   37.3179   17.6989 C   0  0  0  0  0  0  0  0  0  0  0  0
   29.5151   36.9096   16.6678 O   0  0  0  0  0  0  0  0  0  0  0  0
   27.4935   40.5317   19.0303 C   0  0  2  0  0  0  0  0  0  0  0  0
   28.0341   40.9344   20.4121 C   0  0  0  0  0  0  0  0  0  0  0  0
   27.4454   42.1906   20.8798 N   0  0  0  0  0  0  0  0  0  0  0  0
   25.9924   42.0127   21.0334 C   0  0  0  0  0  0  0  0  0  0  0  0
   25.3433   41.7048   19.6984 C   0  0  0  0  0  0  0  0  0  0  0  0
   25.9573   40.4633   19.0665 C   0  0  0  0  0  0  0  0  0  0  0  0
   27.5399   36.2576   21.0734 C   0  0  0  0  0  0  0  0  0  0  0  0
   27.3419   34.5442   21.0814 S   0  0  0  0  0  0  0  0  0  0  0  0
   26.8502   34.5463   22.6842 C   0  0  0  0  0  0  0  0  0  0  0  0
   26.8779   35.7756   23.2145 C   0  0  0  0  0  0  0  0  0  0  0  0
   27.2648   36.7749   22.3003 C   0  0  0  0  0  0  0  0  0  0  0  0
   28.0437   42.6404   22.1490 C   0  0  0  0  0  0  0  0  0  0  0  0
   27.8476   41.7158   23.3298 C   0  0  0  0  0  0  0  0  0  0  0  0
   28.6056   41.8564   24.4832 C   0  0  0  0  0  0  0  0  0  0  0  0
   28.7552   40.8968   25.4142 N   0  0  0  0  0  0  0  0  0  0  0  0
   28.1404   39.7595   25.1259 C   0  0  0  0  0  0  0  0  0  0  0  0
   27.4207   39.4621   24.0559 N   0  0  0  0  0  0  0  0  0  0  0  0
   27.3124   40.4554   23.1612 C   0  0  0  0  0  0  0  0  0  0  0  0
   28.2988   38.8049   26.0498 O   0  0  0  0  0  0  0  0  0  0  0  0
   27.4222   37.6738   25.9886 C   0  0  0  0  0  0  0  0  0  0  0  0
  1  2  2  0  0  0  0
  1  6  1  0  0  0  0
  2  3  1  0  0  0  0
  3  4  2  0  0  0  0
  4 14  1  0  0  0  0
  5  4  1  0  0  0  0
  6  5  1  0  0  0  0
  7  6  2  0  0  0  0
  8  9  1  0  0  0  0
  8  2  1  1  0  0  0
 10 19  1  0  0  0  0
 10  9  1  0  0  0  0
 11 10  1  0  0  0  0
 12 11  1  0  0  0  0
 12 13  1  0  0  0  0
 13  8  1  0  0  0  0
 14 15  1  0  0  0  0
 14 18  2  0  0  0  0
 15 16  1  0  0  0  0
 16 17  2  0  0  0  0
 18 17  1  0  0  0  0
 19 20  1  0  0  0  0
 20 25  2  0  0  0  0
 20 21  1  0  0  0  0
 21 22  2  0  0  0  0
 22 23  1  0  0  0  0
 23 26  1  0  0  0  0
 24 23  2  0  0  0  0
 25 24  1  0  0  0  0
 26 27  1  0  0  0  0
M  END
>  <CHROM.1>
160.05277909,-131.97934861,-62.58242757,164.90520289,165.21719201,27.66824382
38.79008023,21.46836927,0.43446287,1.52095217,-1.09193654

>  <Name>
lig.pdb

>  <RI>
0

>  <Rbt.Current_Directory>
/home/itssahil/PROJECTS/Mol_Feturizer/New_Systems/rnas/5kx9

>  <Rbt.Executable>
rbdock ($Id: //depot/dev/client3/rdock/2013.1/src/exe/rbdock.cxx#4 $)

>  <Rbt.Library>
libRbt.so (2013.1, Build901 2013/11/27)

>  <Rbt.Parameter_File>
/export/apps/rDock/src/rDock_2013.1_src/data/scripts/dock_solv.prm

>  <Rbt.Receptor>
prm/pocket_docking_5.prm

>  <SCORE>
-30.4359

>  <SCORE.INTER>
-28.6364

>  <SCORE.INTER.CONST>
1

>  <SCORE.INTER.POLAR>
0

>  <SCORE.INTER.ROT>
5

>  <SCORE.INTER.SOLV>
11.4052

>  <SCORE.INTER.VDW>
-29.826

>  <SCORE.INTER.norm>
-1.06061

>  <SCORE.INTRA>
-1.79949

>  <SCORE.INTRA.DIHEDRAL>
0.714217

>  <SCORE.INTRA.DIHEDRAL.0>
2.68224

>  <SCORE.INTRA.POLAR>
0

>  <SCORE.INTRA.POLAR.0>
0

>  <SCORE.INTRA.REPUL>
0

>  <SCORE.INTRA.REPUL.0>
0

>  <SCORE.INTRA.SOLV>
0.0643602

>  <SCORE.INTRA.SOLV.lig_0>
-19.4148

>  <SCORE.INTRA.VDW>
-2.18877

>  <SCORE.INTRA.VDW.0>
5.42093

>  <SCORE.INTRA.norm>
-0.0666476

>  <SCORE.RESTR>
0

>  <SCORE.RESTR.CAVITY>
0

>  <SCORE.RESTR.norm>
0

>  <SCORE.SYSTEM>
0

>  <SCORE.SYSTEM.CONST>
0

>  <SCORE.SYSTEM.DIHEDRAL>
0

>  <SCORE.SYSTEM.SOLV>
0

>  <SCORE.SYSTEM.norm>
0

>  <SCORE.heavy>
27

>  <SCORE.norm>
-1.12726

>  <RMSD>
3.516

$$$$
lig.pdb
 OpenBabel11021811523D
libRbt.so/2013.1/901 2013/11/27
 27 30  0  0  0  0  0  0  0  0999 V2000
   28.4705   36.0114   19.1003 N   0  0  0  0  0  0  0  0  0  0  0  0
   28.6374   37.1266   19.7672 C   0  0  0  0  0  0  0  0  0  0  0  0
   28.1667   37.3600   21.0182 N   0  0  0  0  0  0  0  0  0  0  0  0
   27.5080   36.3542   21.6676 C   0  0  0  0  0  0  0  0  0  0  0  0
   27.3131   35.1477   21.0587 C   0  0  0  0  0  0  0  0  0  0  0  0
   27.7942   34.9563   19.7112 C   0  0  0  0  0  0  0  0  0  0  0  0
   27.6096   33.9110   19.0756 O   0  0  0  0  0  0  0  0  0  0  0  0
   29.2428   38.3962   19.1291 C   0  0  2  0  0  0  0  0  0  0  0  0
   28.0494   38.9573   18.3389 C   0  0  0  0  0  0  0  0  0  0  0  0
   28.4538   40.0428   17.4437 N   0  0  0  0  0  0  0  0  0  0  0  0
   29.4049   39.5179   16.4506 C   0  0  0  0  0  0  0  0  0  0  0  0
   30.6694   39.0232   17.1247 C   0  0  0  0  0  0  0  0  0  0  0  0
   30.3529   37.9536   18.1608 C   0  0  0  0  0  0  0  0  0  0  0  0
   27.0997   36.7338   23.0134 C   0  0  0  0  0  0  0  0  0  0  0  0
   27.4024   38.3135   23.6365 S   0  0  0  0  0  0  0  0  0  0  0  0
   26.7085   37.9311   25.1140 C   0  0  0  0  0  0  0  0  0  0  0  0
   26.2220   36.6837   25.1305 C   0  0  0  0  0  0  0  0  0  0  0  0
   26.4447   35.9763   23.9330 C   0  0  0  0  0  0  0  0  0  0  0  0
   27.2981   40.6607   16.7700 C   0  0  0  0  0  0  0  0  0  0  0  0
   26.7026   41.8655   17.4635 C   0  0  0  0  0  0  0  0  0  0  0  0
   25.5814   41.7452   18.2717 C   0  0  0  0  0  0  0  0  0  0  0  0
   24.7899   42.7728   18.6288 N   0  0  0  0  0  0  0  0  0  0  0  0
   25.1442   43.9380   18.1079 C   0  0  0  0  0  0  0  0  0  0  0  0
   26.1544   44.2021   17.2948 N   0  0  0  0  0  0  0  0  0  0  0  0
   26.9034   43.1381   16.9698 C   0  0  0  0  0  0  0  0  0  0  0  0
   24.3495   44.9558   18.4581 O   0  0  0  0  0  0  0  0  0  0  0  0
   22.9753   44.6579   18.7308 C   0  0  0  0  0  0  0  0  0  0  0  0
  1  2  2  0  0  0  0
  1  6  1  0  0  0  0
  2  3  1  0  0  0  0
  3  4  2  0  0  0  0
  4 14  1  0  0  0  0
  5  4  1  0  0  0  0
  6  5  1  0  0  0  0
  7  6  2  0  0  0  0
  8  9  1  0  0  0  0
  8  2  1  6  0  0  0
 10 19  1  0  0  0  0
 10  9  1  0  0  0  0
 11 10  1  0  0  0  0
 12 11  1  0  0  0  0
 12 13  1  0  0  0  0
 13  8  1  0  0  0  0
 14 15  1  0  0  0  0
 14 18  2  0  0  0  0
 15 16  1  0  0  0  0
 16 17  2  0  0  0  0
 18 17  1  0  0  0  0
 19 20  1  0  0  0  0
 20 25  2  0  0  0  0
 20 21  1  0  0  0  0
 21 22  2  0  0  0  0
 22 23  1  0  0  0  0
 23 26  1  0  0  0  0
 24 23  2  0  0  0  0
 25 24  1  0  0  0  0
 26 27  1  0  0  0  0
M  END
>  <CHROM.1>
1.81279349,78.64741097,92.71183577,-98.00090300,-29.89367188,27.23137870
39.19808364,19.75272812,-1.18627555,0.92059591,-0.85935378

>  <Name>
lig.pdb

>  <RI>
0

>  <Rbt.Current_Directory>
/home/itssahil/PROJECTS/Mol_Feturizer/New_Systems/rnas/5kx9

>  <Rbt.Executable>
rbdock ($Id: //depot/dev/client3/rdock/2013.1/src/exe/rbdock.cxx#4 $)

>  <Rbt.Library>
libRbt.so (2013.1, Build901 2013/11/27)

>  <Rbt.Parameter_File>
/export/apps/rDock/src/rDock_2013.1_src/data/scripts/dock_solv.prm

>  <Rbt.Receptor>
prm/blind_docking_60.prm

>  <SCORE>
-34.8043

>  <SCORE.INTER>
-30.6359

>  <SCORE.INTER.CONST>
1

>  <SCORE.INTER.POLAR>
0

>  <SCORE.INTER.ROT>
5

>  <SCORE.INTER.SOLV>
14.9316

>  <SCORE.INTER.VDW>
-32.3344

>  <SCORE.INTER.norm>
-1.13466

>  <SCORE.INTRA>
-4.16842

>  <SCORE.INTRA.DIHEDRAL>
1.1407

>  <SCORE.INTRA.DIHEDRAL.0>
2.68224

>  <SCORE.INTRA.POLAR>
0

>  <SCORE.INTRA.POLAR.0>
0

>  <SCORE.INTRA.REPUL>
0

>  <SCORE.INTRA.REPUL.0>
0

>  <SCORE.INTRA.SOLV>
-0.623248

>  <SCORE.INTRA.SOLV.lig_0>
-19.4148

>  <SCORE.INTRA.VDW>
-4.42714

>  <SCORE.INTRA.VDW.0>
5.42093

>  <SCORE.INTRA.norm>
-0.154386

>  <SCORE.RESTR>
0

>  <SCORE.RESTR.CAVITY>
0

>  <SCORE.RESTR.norm>
0

>  <SCORE.SYSTEM>
0

>  <SCORE.SYSTEM.CONST>
0

>  <SCORE.SYSTEM.DIHEDRAL>
0

>  <SCORE.SYSTEM.SOLV>
0

>  <SCORE.SYSTEM.norm>
0

>  <SCORE.heavy>
27

>  <SCORE.norm>
-1.28905

>  <RMSD>
3.692

$$$$
lig.pdb
 OpenBabel11021811523D
libRbt.so/2013.1/901 2013/11/27
 27 30  0  0  0  0  0  0  0  0999 V2000
   27.7899   36.9218   22.2422 N   0  0  0  0  0  0  0  0  0  0  0  0
   27.8823   37.1657   20.9584 C   0  0  0  0  0  0  0  0  0  0  0  0
   27.4626   36.3275   19.9775 N   0  0  0  0  0  0  0  0  0  0  0  0
   26.8523   35.1578   20.3333 C   0  0  0  0  0  0  0  0  0  0  0  0
   26.6879   34.8348   21.6498 C   0  0  0  0  0  0  0  0  0  0  0  0
   27.1868   35.7364   22.6607 C   0  0  0  0  0  0  0  0  0  0  0  0
   27.1221   35.4884   23.8712 O   0  0  0  0  0  0  0  0  0  0  0  0
   28.6584   38.3761   20.3942 C   0  0  2  0  0  0  0  0  0  0  0  0
   27.7166   39.5442   20.7288 C   0  0  0  0  0  0  0  0  0  0  0  0
   28.1320   40.7824   20.0672 N   0  0  0  0  0  0  0  0  0  0  0  0
   28.0652   40.5941   18.6090 C   0  0  0  0  0  0  0  0  0  0  0  0
   29.0361   39.5201   18.1594 C   0  0  0  0  0  0  0  0  0  0  0  0
   28.7589   38.2022   18.8693 C   0  0  0  0  0  0  0  0  0  0  0  0
   26.4179   34.3826   19.1790 C   0  0  0  0  0  0  0  0  0  0  0  0
   26.8648   34.8273   17.5734 S   0  0  0  0  0  0  0  0  0  0  0  0
   26.0036   33.5492   16.9134 C   0  0  0  0  0  0  0  0  0  0  0  0
   25.4400   32.7850   17.8576 C   0  0  0  0  0  0  0  0  0  0  0  0
   25.6609   33.2533   19.1675 C   0  0  0  0  0  0  0  0  0  0  0  0
   27.3020   41.9298   20.4745 C   0  0  0  0  0  0  0  0  0  0  0  0
   27.7310   42.6309   21.7441 C   0  0  0  0  0  0  0  0  0  0  0  0
   29.0560   42.9837   21.9549 C   0  0  0  0  0  0  0  0  0  0  0  0
   29.5816   43.2732   23.1590 N   0  0  0  0  0  0  0  0  0  0  0  0
   28.7290   43.1573   24.1660 C   0  0  0  0  0  0  0  0  0  0  0  0
   27.4568   42.7945   24.1288 N   0  0  0  0  0  0  0  0  0  0  0  0
   26.9915   42.5129   22.9028 C   0  0  0  0  0  0  0  0  0  0  0  0
   29.2576   43.4374   25.3627 O   0  0  0  0  0  0  0  0  0  0  0  0
   29.4414   42.3488   26.2753 C   0  0  0  0  0  0  0  0  0  0  0  0
  1  2  2  0  0  0  0
  1  6  1  0  0  0  0
  2  3  1  0  0  0  0
  3  4  2  0  0  0  0
  4 14  1  0  0  0  0
  5  4  1  0  0  0  0
  6  5  1  0  0  0  0
  7  6  2  0  0  0  0
  8  9  1  0  0  0  0
  8  2  1  1  0  0  0
 10 19  1  0  0  0  0
 10  9  1  0  0  0  0
 11 10  1  0  0  0  0
 12 11  1  0  0  0  0
 12 13  1  0  0  0  0
 13  8  1  0  0  0  0
 14 15  1  0  0  0  0
 14 18  2  0  0  0  0
 15 16  1  0  0  0  0
 16 17  2  0  0  0  0
 18 17  1  0  0  0  0
 19 20  1  0  0  0  0
 20 25  2  0  0  0  0
 20 21  1  0  0  0  0
 21 22  2  0  0  0  0
 22 23  1  0  0  0  0
 23 26  1  0  0  0  0
 24 23  2  0  0  0  0
 25 24  1  0  0  0  0
 26 27  1  0  0  0  0
M  END
>  <CHROM.1>
8.51787526,-73.99047469,85.28292721,47.47895169,-110.23554770,27.66665715
38.49166654,20.97868869,2.69001281,-1.33255075,-1.51759688

>  <Name>
lig.pdb

>  <RI>
0

>  <Rbt.Current_Directory>
/home/itssahil/PROJECTS/Mol_Feturizer/New_Systems/rnas/5kx9

>  <Rbt.Executable>
rbdock ($Id: //depot/dev/client3/rdock/2013.1/src/exe/rbdock.cxx#4 $)

>  <Rbt.Library>
libRbt.so (2013.1, Build901 2013/11/27)

>  <Rbt.Parameter_File>
/export/apps/rDock/src/rDock_2013.1_src/data/scripts/dock_solv.prm

>  <Rbt.Receptor>
prm/blind_docking_60.prm

>  <SCORE>
-31.248

>  <SCORE.INTER>
-28.6451

>  <SCORE.INTER.CONST>
1

>  <SCORE.INTER.POLAR>
0

>  <SCORE.INTER.ROT>
5

>  <SCORE.INTER.SOLV>
13.6467

>  <SCORE.INTER.VDW>
-30.5789

>  <SCORE.INTER.norm>
-1.06093

>  <SCORE.INTRA>
-2.60294

>  <SCORE.INTRA.DIHEDRAL>
4.55444

>  <SCORE.INTRA.DIHEDRAL.0>
2.68224

>  <SCORE.INTRA.POLAR>
0

>  <SCORE.INTRA.POLAR.0>
0

>  <SCORE.INTRA.REPUL>
0

>  <SCORE.INTRA.REPUL.0>
0

>  <SCORE.INTRA.SOLV>
-0.53357

>  <SCORE.INTRA.SOLV.lig_0>
-19.4148

>  <SCORE.INTRA.VDW>
-4.61337

>  <SCORE.INTRA.VDW.0>
5.42093

>  <SCORE.INTRA.norm>
-0.0964052

>  <SCORE.RESTR>
0

>  <SCORE.RESTR.CAVITY>
0

>  <SCORE.RESTR.norm>
0

>  <SCORE.SYSTEM>
0

>  <SCORE.SYSTEM.CONST>
0

>  <SCORE.SYSTEM.DIHEDRAL>
0

>  <SCORE.SYSTEM.SOLV>
0

>  <SCORE.SYSTEM.norm>
0

>  <SCORE.heavy>
27

>  <SCORE.norm>
-1.15733

>  <RMSD>
3.695

$$$$
lig.pdb
 OpenBabel11021811523D
libRbt.so/2013.1/901 2013/11/27
 27 30  0  0  0  0  0  0  0  0999 V2000
   27.7657   36.9275   21.6268 N   0  0  0  0  0  0  0  0  0  0  0  0
   27.5977   37.1218   20.3422 C   0  0  0  0  0  0  0  0  0  0  0  0
   27.0126   36.2388   19.4943 N   0  0  0  0  0  0  0  0  0  0  0  0
   26.5116   35.0748   20.0054 C   0  0  0  0  0  0  0  0  0  0  0  0
   26.6173   34.8017   21.3390 C   0  0  0  0  0  0  0  0  0  0  0  0
   27.2844   35.7504   22.1985 C   0  0  0  0  0  0  0  0  0  0  0  0
   27.4652   35.5497   23.4059 O   0  0  0  0  0  0  0  0  0  0  0  0
   28.2192   38.3209   19.5928 C   0  0  2  0  0  0  0  0  0  0  0  0
   27.4892   39.5122   20.2340 C   0  0  0  0  0  0  0  0  0  0  0  0
   27.7395   40.7574   19.5060 N   0  0  0  0  0  0  0  0  0  0  0  0
   27.2115   40.6290   18.1382 C   0  0  0  0  0  0  0  0  0  0  0  0
   27.9379   39.5349   17.3808 C   0  0  0  0  0  0  0  0  0  0  0  0
   27.8298   38.2026   18.1094 C   0  0  0  0  0  0  0  0  0  0  0  0
   25.8765   34.2477   18.9881 C   0  0  0  0  0  0  0  0  0  0  0  0
   25.5116   34.8668   17.4201 S   0  0  0  0  0  0  0  0  0  0  0  0
   24.8321   33.4126   16.9361 C   0  0  0  0  0  0  0  0  0  0  0  0
   24.9160   32.4784   17.8918 C   0  0  0  0  0  0  0  0  0  0  0  0
   25.5071   32.9427   19.0830 C   0  0  0  0  0  0  0  0  0  0  0  0
   27.1372   41.9207   20.1808 C   0  0  0  0  0  0  0  0  0  0  0  0
   27.8809   42.4315   21.3946 C   0  0  0  0  0  0  0  0  0  0  0  0
   29.2634   42.5473   21.3914 C   0  0  0  0  0  0  0  0  0  0  0  0
   30.0191   42.6436   22.5003 N   0  0  0  0  0  0  0  0  0  0  0  0
   29.3338   42.5798   23.6320 C   0  0  0  0  0  0  0  0  0  0  0  0
   28.0291   42.4307   23.7960 N   0  0  0  0  0  0  0  0  0  0  0  0
   27.3297   42.3344   22.6557 C   0  0  0  0  0  0  0  0  0  0  0  0
   30.0897   42.6670   24.7325 O   0  0  0  0  0  0  0  0  0  0  0  0
   29.5017   43.2675   25.8924 C   0  0  0  0  0  0  0  0  0  0  0  0
  1  2  2  0  0  0  0
  1  6  1  0  0  0  0
  2  3  1  0  0  0  0
  3  4  2  0  0  0  0
  4 14  1  0  0  0  0
  5  4  1  0  0  0  0
  6  5  1  0  0  0  0
  7  6  2  0  0  0  0
  8  9  1  0  0  0  0
  8  2  1  1  0  0  0
 10 19  1  0  0  0  0
 10  9  1  0  0  0  0
 11 10  1  0  0  0  0
 12 11  1  0  0  0  0
 12 13  1  0  0  0  0
 13  8  1  0  0  0  0
 14 15  1  0  0  0  0
 14 18  2  0  0  0  0
 15 16  1  0  0  0  0
 16 17  2  0  0  0  0
 18 17  1  0  0  0  0
 19 20  1  0  0  0  0
 20 25  2  0  0  0  0
 20 21  1  0  0  0  0
 21 22  2  0  0  0  0
 22 23  1  0  0  0  0
 23 26  1  0  0  0  0
 24 23  2  0  0  0  0
 25 24  1  0  0  0  0
 26 27  1  0  0  0  0
M  END
>  <CHROM.1>
-12.67817580,-65.20045115,76.88140820,42.81713319,149.22113826,27.41881361
38.37985892,20.56122642,-2.95125233,-1.24443739,-0.86265811

>  <Name>
lig.pdb

>  <RI>
0

>  <Rbt.Current_Directory>
/home/itssahil/PROJECTS/Mol_Feturizer/New_Systems/rnas/5kx9

>  <Rbt.Executable>
rbdock ($Id: //depot/dev/client3/rdock/2013.1/src/exe/rbdock.cxx#4 $)

>  <Rbt.Library>
libRbt.so (2013.1, Build901 2013/11/27)

>  <Rbt.Parameter_File>
/export/apps/rDock/src/rDock_2013.1_src/data/scripts/dock_solv.prm

>  <Rbt.Receptor>
prm/pocket_docking_8.prm

>  <SCORE>
-29.9248

>  <SCORE.INTER>
-27.1685

>  <SCORE.INTER.CONST>
1

>  <SCORE.INTER.POLAR>
0

>  <SCORE.INTER.ROT>
5

>  <SCORE.INTER.SOLV>
13.3704

>  <SCORE.INTER.VDW>
-29.5024

>  <SCORE.INTER.norm>
-1.00624

>  <SCORE.INTRA>
-2.75633

>  <SCORE.INTRA.DIHEDRAL>
1.40341

>  <SCORE.INTRA.DIHEDRAL.0>
2.68224

>  <SCORE.INTRA.POLAR>
0

>  <SCORE.INTRA.POLAR.0>
0

>  <SCORE.INTRA.REPUL>
0

>  <SCORE.INTRA.REPUL.0>
0

>  <SCORE.INTRA.SOLV>
-0.512559

>  <SCORE.INTRA.SOLV.lig_0>
-19.4148

>  <SCORE.INTRA.VDW>
-3.20175

>  <SCORE.INTRA.VDW.0>
5.42093

>  <SCORE.INTRA.norm>
-0.102086

>  <SCORE.RESTR>
0

>  <SCORE.RESTR.CAVITY>
0

>  <SCORE.RESTR.norm>
0

>  <SCORE.SYSTEM>
0

>  <SCORE.SYSTEM.CONST>
0

>  <SCORE.SYSTEM.DIHEDRAL>
0

>  <SCORE.SYSTEM.SOLV>
0

>  <SCORE.SYSTEM.norm>
0

>  <SCORE.heavy>
27

>  <SCORE.norm>
-1.10833

>  <RMSD>
3.718

$$$$
lig.pdb
 OpenBabel11021811523D
libRbt.so/2013.1/901 2013/11/27
 27 30  0  0  0  0  0  0  0  0999 V2000
   29.7217   38.4149   17.9762 N   0  0  0  0  0  0  0  0  0  0  0  0
   29.1998   38.9217   19.0657 C   0  0  0  0  0  0  0  0  0  0  0  0
   28.5506   38.2076   20.0194 N   0  0  0  0  0  0  0  0  0  0  0  0
   28.4648   36.8514   19.8763 C   0  0  0  0  0  0  0  0  0  0  0  0
   29.0058   36.2345   18.7849 C   0  0  0  0  0  0  0  0  0  0  0  0
   29.6513   37.0372   17.7737 C   0  0  0  0  0  0  0  0  0  0  0  0
   30.1180   36.5570   16.7333 O   0  0  0  0  0  0  0  0  0  0  0  0
   29.0993   40.4433   19.3114 C   0  0  2  0  0  0  0  0  0  0  0  0
   29.4405   40.5492   20.8067 C   0  0  0  0  0  0  0  0  0  0  0  0
   29.1688   41.8886   21.3315 N   0  0  0  0  0  0  0  0  0  0  0  0
   27.7294   42.1701   21.2088 C   0  0  0  0  0  0  0  0  0  0  0  0
   27.3055   42.1848   19.7533 C   0  0  0  0  0  0  0  0  0  0  0  0
   27.6387   40.8635   19.0746 C   0  0  0  0  0  0  0  0  0  0  0  0
   27.7805   36.2156   20.9942 C   0  0  0  0  0  0  0  0  0  0  0  0
   27.3902   37.0901   22.4287 S   0  0  0  0  0  0  0  0  0  0  0  0
   26.7122   35.7344   23.1450 C   0  0  0  0  0  0  0  0  0  0  0  0
   26.7300   34.6745   22.3269 C   0  0  0  0  0  0  0  0  0  0  0  0
   27.3480   34.9299   21.0873 C   0  0  0  0  0  0  0  0  0  0  0  0
   29.6009   42.0291   22.7332 C   0  0  0  0  0  0  0  0  0  0  0  0
   28.8019   41.2412   23.7472 C   0  0  0  0  0  0  0  0  0  0  0  0
   29.1697   41.2145   25.0846 C   0  0  0  0  0  0  0  0  0  0  0  0
   28.7537   40.2885   25.9675 N   0  0  0  0  0  0  0  0  0  0  0  0
   27.9746   39.3525   25.4464 C   0  0  0  0  0  0  0  0  0  0  0  0
   27.5729   39.2213   24.1923 N   0  0  0  0  0  0  0  0  0  0  0  0
   28.0243   40.1699   23.3586 C   0  0  0  0  0  0  0  0  0  0  0  0
   27.5702   38.4285   26.3255 O   0  0  0  0  0  0  0  0  0  0  0  0
   26.3435   37.7434   26.0470 C   0  0  0  0  0  0  0  0  0  0  0  0
  1  2  2  0  0  0  0
  1  6  1  0  0  0  0
  2  3  1  0  0  0  0
  3  4  2  0  0  0  0
  4 14  1  0  0  0  0
  5  4  1  0  0  0  0
  6  5  1  0  0  0  0
  7  6  2  0  0  0  0
  8  9  1  0  0  0  0
  8  2  1  1  0  0  0
 10 19  1  0  0  0  0
 10  9  1  0  0  0  0
 11 10  1  0  0  0  0
 12 11  1  0  0  0  0
 12 13  1  0  0  0  0
 13  8  1  0  0  0  0
 14 15  1  0  0  0  0
 14 18  2  0  0  0  0
 15 16  1  0  0  0  0
 16 17  2  0  0  0  0
 18 17  1  0  0  0  0
 19 20  1  0  0  0  0
 20 25  2  0  0  0  0
 20 21  1  0  0  0  0
 21 22  2  0  0  0  0
 22 23  1  0  0  0  0
 23 26  1  0  0  0  0
 24 23  2  0  0  0  0
 25 24  1  0  0  0  0
 26 27  1  0  0  0  0
M  END
>  <CHROM.1>
-9.71561113,-140.42526038,-68.95671678,175.31146109,154.31830783,28.28184400
38.77335028,21.70285297,-0.97779581,1.27307393,0.69818001

>  <Name>
lig.pdb

>  <RI>
0

>  <Rbt.Current_Directory>
/home/itssahil/PROJECTS/Mol_Feturizer/New_Systems/rnas/5kx9

>  <Rbt.Executable>
rbdock ($Id: //depot/dev/client3/rdock/2013.1/src/exe/rbdock.cxx#4 $)

>  <Rbt.Library>
libRbt.so (2013.1, Build901 2013/11/27)

>  <Rbt.Parameter_File>
/export/apps/rDock/src/rDock_2013.1_src/data/scripts/dock_solv.prm

>  <Rbt.Receptor>
prm/blind_docking_100.prm

>  <SCORE>
-31.712

>  <SCORE.INTER>
-29.9816

>  <SCORE.INTER.CONST>
1

>  <SCORE.INTER.POLAR>
0

>  <SCORE.INTER.ROT>
5

>  <SCORE.INTER.SOLV>
12.8788

>  <SCORE.INTER.VDW>
-31.214

>  <SCORE.INTER.norm>
-1.11043

>  <SCORE.INTRA>
-1.73037

>  <SCORE.INTRA.DIHEDRAL>
0.513888

>  <SCORE.INTRA.DIHEDRAL.0>
2.68224

>  <SCORE.INTRA.POLAR>
0

>  <SCORE.INTRA.POLAR.0>
0

>  <SCORE.INTRA.REPUL>
0

>  <SCORE.INTRA.REPUL.0>
0

>  <SCORE.INTRA.SOLV>
0.514992

>  <SCORE.INTRA.SOLV.lig_0>
-19.4148

>  <SCORE.INTRA.VDW>
-2.24481

>  <SCORE.INTRA.VDW.0>
5.42093

>  <SCORE.INTRA.norm>
-0.0640879

>  <SCORE.RESTR>
0

>  <SCORE.RESTR.CAVITY>
0

>  <SCORE.RESTR.norm>
0

>  <SCORE.SYSTEM>
0

>  <SCORE.SYSTEM.CONST>
0

>  <SCORE.SYSTEM.DIHEDRAL>
0

>  <SCORE.SYSTEM.SOLV>
0

>  <SCORE.SYSTEM.norm>
0

>  <SCORE.heavy>
27

>  <SCORE.norm>
-1.17452

>  <RMSD>
3.724

$$$$
lig.pdb
 OpenBabel11021811523D
libRbt.so/2013.1/901 2013/11/27
 27 30  0  0  0  0  0  0  0  0999 V2000
   28.8083   38.9486   17.8904 N   0  0  0  0  0  0  0  0  0  0  0  0
   28.1228   39.2267   18.9716 C   0  0  0  0  0  0  0  0  0  0  0  0
   27.7480   38.3185   19.9073 N   0  0  0  0  0  0  0  0  0  0  0  0
   28.1451   37.0200   19.7546 C   0  0  0  0  0  0  0  0  0  0  0  0
   28.8870   36.6454   18.6712 C   0  0  0  0  0  0  0  0  0  0  0  0
   29.2284   37.6361   17.6784 C   0  0  0  0  0  0  0  0  0  0  0  0
   29.8519   37.3629   16.6453 O   0  0  0  0  0  0  0  0  0  0  0  0
   27.4916   40.6136   19.2239 C   0  0  2  0  0  0  0  0  0  0  0  0
   28.0411   40.9669   20.6155 C   0  0  0  0  0  0  0  0  0  0  0  0
   27.3783   42.1451   21.1774 N   0  0  0  0  0  0  0  0  0  0  0  0
   25.9466   41.8528   21.3537 C   0  0  0  0  0  0  0  0  0  0  0  0
   25.2833   41.5830   20.0175 C   0  0  0  0  0  0  0  0  0  0  0  0
   25.9658   40.4316   19.2921 C   0  0  0  0  0  0  0  0  0  0  0  0
   27.7072   36.1706   20.8541 C   0  0  0  0  0  0  0  0  0  0  0  0
   27.3275   36.8252   22.4041 S   0  0  0  0  0  0  0  0  0  0  0  0
   26.9781   35.3086   23.0276 C   0  0  0  0  0  0  0  0  0  0  0  0
   27.0922   34.3483   22.1015 C   0  0  0  0  0  0  0  0  0  0  0  0
   27.5185   34.8242   20.8462 C   0  0  0  0  0  0  0  0  0  0  0  0
   27.9790   42.5566   22.4585 C   0  0  0  0  0  0  0  0  0  0  0  0
   27.7494   41.6173   23.6214 C   0  0  0  0  0  0  0  0  0  0  0  0
   28.2434   40.3210   23.6035 C   0  0  0  0  0  0  0  0  0  0  0  0
   27.8017   39.3298   24.3986 N   0  0  0  0  0  0  0  0  0  0  0  0
   26.8049   39.6782   25.1984 C   0  0  0  0  0  0  0  0  0  0  0  0
   26.2048   40.8533   25.3004 N   0  0  0  0  0  0  0  0  0  0  0  0
   26.6842   41.7990   24.4791 C   0  0  0  0  0  0  0  0  0  0  0  0
   26.3624   38.6875   25.9812 O   0  0  0  0  0  0  0  0  0  0  0  0
   26.2101   37.3933   25.3868 C   0  0  0  0  0  0  0  0  0  0  0  0
  1  2  2  0  0  0  0
  1  6  1  0  0  0  0
  2  3  1  0  0  0  0
  3  4  2  0  0  0  0
  4 14  1  0  0  0  0
  5  4  1  0  0  0  0
  6  5  1  0  0  0  0
  7  6  2  0  0  0  0
  8  9  1  0  0  0  0
  8  2  1  1  0  0  0
 10 19  1  0  0  0  0
 10  9  1  0  0  0  0
 11 10  1  0  0  0  0
 12 11  1  0  0  0  0
 12 13  1  0  0  0  0
 13  8  1  0  0  0  0
 14 15  1  0  0  0  0
 14 18  2  0  0  0  0
 15 16  1  0  0  0  0
 16 17  2  0  0  0  0
 18 17  1  0  0  0  0
 19 20  1  0  0  0  0
 20 25  2  0  0  0  0
 20 21  1  0  0  0  0
 21 22  2  0  0  0  0
 22 23  1  0  0  0  0
 23 26  1  0  0  0  0
 24 23  2  0  0  0  0
 25 24  1  0  0  0  0
 26 27  1  0  0  0  0
M  END
>  <CHROM.1>
-22.95956071,-127.07797407,-69.12028946,62.97737206,-42.62201672,27.44850162
38.89540208,21.56803200,-0.09615337,1.31072192,-0.36487035

>  <Name>
lig.pdb

>  <RI>
0

>  <Rbt.Current_Directory>
/home/itssahil/PROJECTS/Mol_Feturizer/New_Systems/rnas/5kx9

>  <Rbt.Executable>
rbdock ($Id: //depot/dev/client3/rdock/2013.1/src/exe/rbdock.cxx#4 $)

>  <Rbt.Library>
libRbt.so (2013.1, Build901 2013/11/27)

>  <Rbt.Parameter_File>
/export/apps/rDock/src/rDock_2013.1_src/data/scripts/dock_solv.prm

>  <Rbt.Receptor>
prm/blind_docking_80.prm

>  <SCORE>
-31.6573

>  <SCORE.INTER>
-29.0086

>  <SCORE.INTER.CONST>
1

>  <SCORE.INTER.POLAR>
0

>  <SCORE.INTER.ROT>
5

>  <SCORE.INTER.SOLV>
12.2406

>  <SCORE.INTER.VDW>
-30.3526

>  <SCORE.INTER.norm>
-1.07439

>  <SCORE.INTRA>
-2.64865

>  <SCORE.INTRA.DIHEDRAL>
3.55914

>  <SCORE.INTRA.DIHEDRAL.0>
2.68224

>  <SCORE.INTRA.POLAR>
0

>  <SCORE.INTRA.POLAR.0>
0

>  <SCORE.INTRA.REPUL>
0

>  <SCORE.INTRA.REPUL.0>
0

>  <SCORE.INTRA.SOLV>
0.32421

>  <SCORE.INTRA.SOLV.lig_0>
-19.4148

>  <SCORE.INTRA.VDW>
-4.59033

>  <SCORE.INTRA.VDW.0>
5.42093

>  <SCORE.INTRA.norm>
-0.0980981

>  <SCORE.RESTR>
0

>  <SCORE.RESTR.CAVITY>
0

>  <SCORE.RESTR.norm>
0

>  <SCORE.SYSTEM>
0

>  <SCORE.SYSTEM.CONST>
0

>  <SCORE.SYSTEM.DIHEDRAL>
0

>  <SCORE.SYSTEM.SOLV>
0

>  <SCORE.SYSTEM.norm>
0

>  <SCORE.heavy>
27

>  <SCORE.norm>
-1.17249

>  <RMSD>
3.806

$$$$
lig.pdb
 OpenBabel11021811523D
libRbt.so/2013.1/901 2013/11/27
 27 30  0  0  0  0  0  0  0  0999 V2000
   27.7808   37.5200   22.5442 N   0  0  0  0  0  0  0  0  0  0  0  0
   27.5337   37.7334   21.2755 C   0  0  0  0  0  0  0  0  0  0  0  0
   27.0635   36.8007   20.4094 N   0  0  0  0  0  0  0  0  0  0  0  0
   26.7745   35.5529   20.8852 C   0  0  0  0  0  0  0  0  0  0  0  0
   26.9747   35.2499   22.2014 C   0  0  0  0  0  0  0  0  0  0  0  0
   27.5158   36.2600   23.0792 C   0  0  0  0  0  0  0  0  0  0  0  0
   27.7736   36.0452   24.2701 O   0  0  0  0  0  0  0  0  0  0  0  0
   27.9266   39.0442   20.5593 C   0  0  2  0  0  0  0  0  0  0  0  0
   27.4682   40.1099   21.5682 C   0  0  0  0  0  0  0  0  0  0  0  0
   27.5166   41.4560   20.9948 N   0  0  0  0  0  0  0  0  0  0  0  0
   26.5857   41.5276   19.8570 C   0  0  0  0  0  0  0  0  0  0  0  0
   27.0074   40.5758   18.7551 C   0  0  0  0  0  0  0  0  0  0  0  0
   27.0917   39.1461   19.2715 C   0  0  0  0  0  0  0  0  0  0  0  0
   26.2395   34.6737   19.8541 C   0  0  0  0  0  0  0  0  0  0  0  0
   25.2010   35.2677   18.6116 S   0  0  0  0  0  0  0  0  0  0  0  0
   25.0372   33.7429   17.9340 C   0  0  0  0  0  0  0  0  0  0  0  0
   25.7695   32.8269   18.5802 C   0  0  0  0  0  0  0  0  0  0  0  0
   26.4623   33.3422   19.6929 C   0  0  0  0  0  0  0  0  0  0  0  0
   27.1891   42.4912   21.9910 C   0  0  0  0  0  0  0  0  0  0  0  0
   28.1287   42.5839   23.1726 C   0  0  0  0  0  0  0  0  0  0  0  0
   27.6698   42.9686   24.4240 C   0  0  0  0  0  0  0  0  0  0  0  0
   28.4598   43.4152   25.4173 N   0  0  0  0  0  0  0  0  0  0  0  0
   29.7417   43.5010   25.0951 C   0  0  0  0  0  0  0  0  0  0  0  0
   30.3204   43.2126   23.9404 N   0  0  0  0  0  0  0  0  0  0  0  0
   29.4819   42.7785   22.9879 C   0  0  0  0  0  0  0  0  0  0  0  0
   30.5227   43.9539   26.0824 O   0  0  0  0  0  0  0  0  0  0  0  0
   31.6172   43.1256   26.4922 C   0  0  0  0  0  0  0  0  0  0  0  0
  1  2  2  0  0  0  0
  1  6  1  0  0  0  0
  2  3  1  0  0  0  0
  3  4  2  0  0  0  0
  4 14  1  0  0  0  0
  5  4  1  0  0  0  0
  6  5  1  0  0  0  0
  7  6  2  0  0  0  0
  8  9  1  0  0  0  0
  8  2  1  1  0  0  0
 10 19  1  0  0  0  0
 10  9  1  0  0  0  0
 11 10  1  0  0  0  0
 12 11  1  0  0  0  0
 12 13  1  0  0  0  0
 13  8  1  0  0  0  0
 14 15  1  0  0  0  0
 14 18  2  0  0  0  0
 15 16  1  0  0  0  0
 16 17  2  0  0  0  0
 18 17  1  0  0  0  0
 19 20  1  0  0  0  0
 20 25  2  0  0  0  0
 20 21  1  0  0  0  0
 21 22  2  0  0  0  0
 22 23  1  0  0  0  0
 23 26  1  0  0  0  0
 24 23  2  0  0  0  0
 25 24  1  0  0  0  0
 26 27  1  0  0  0  0
M  END
>  <CHROM.1>
-35.88939980,-45.37511585,62.10986552,-147.99043698,123.26412004,27.58079670
38.95879450,21.75011549,-2.42274017,-1.11365474,-0.25397929

>  <Name>
lig.pdb

>  <RI>
0

>  <Rbt.Current_Directory>
/home/itssahil/PROJECTS/Mol_Feturizer/New_Systems/rnas/5kx9

>  <Rbt.Executable>
rbdock ($Id: //depot/dev/client3/rdock/2013.1/src/exe/rbdock.cxx#4 $)

>  <Rbt.Library>
libRbt.so (2013.1, Build901 2013/11/27)

>  <Rbt.Parameter_File>
/export/apps/rDock/src/rDock_2013.1_src/data/scripts/dock_solv.prm

>  <Rbt.Receptor>
prm/pocket_docking_3.prm

>  <SCORE>
-32.5406

>  <SCORE.INTER>
-31.0046

>  <SCORE.INTER.CONST>
1

>  <SCORE.INTER.POLAR>
0

>  <SCORE.INTER.ROT>
5

>  <SCORE.INTER.SOLV>
15.5348

>  <SCORE.INTER.VDW>
-32.7813

>  <SCORE.INTER.norm>
-1.14832

>  <SCORE.INTRA>
-1.55314

>  <SCORE.INTRA.DIHEDRAL>
6.74738

>  <SCORE.INTRA.DIHEDRAL.0>
2.68224

>  <SCORE.INTRA.POLAR>
0

>  <SCORE.INTRA.POLAR.0>
0

>  <SCORE.INTRA.REPUL>
0

>  <SCORE.INTRA.REPUL.0>
0

>  <SCORE.INTRA.SOLV>
-0.632746

>  <SCORE.INTRA.SOLV.lig_0>
-19.4148

>  <SCORE.INTRA.VDW>
-4.61046

>  <SCORE.INTRA.VDW.0>
5.42093

>  <SCORE.INTRA.norm>
-0.0575239

>  <SCORE.RESTR>
0.0171521

>  <SCORE.RESTR.CAVITY>
0.0171521

>  <SCORE.RESTR.norm>
0.000635264

>  <SCORE.SYSTEM>
0

>  <SCORE.SYSTEM.CONST>
0

>  <SCORE.SYSTEM.DIHEDRAL>
0

>  <SCORE.SYSTEM.SOLV>
0

>  <SCORE.SYSTEM.norm>
0

>  <SCORE.heavy>
27

>  <SCORE.norm>
-1.20521

>  <RMSD>
3.806

$$$$
lig.pdb
 OpenBabel11021811523D
libRbt.so/2013.1/901 2013/11/27
 27 30  0  0  0  0  0  0  0  0999 V2000
   27.6839   37.4714   22.5078 N   0  0  0  0  0  0  0  0  0  0  0  0
   27.4946   37.7501   21.2418 C   0  0  0  0  0  0  0  0  0  0  0  0
   27.0870   36.8582   20.3039 N   0  0  0  0  0  0  0  0  0  0  0  0
   26.8013   35.5809   20.6963 C   0  0  0  0  0  0  0  0  0  0  0  0
   26.9431   35.2094   22.0025 C   0  0  0  0  0  0  0  0  0  0  0  0
   27.4194   36.1793   22.9598 C   0  0  0  0  0  0  0  0  0  0  0  0
   27.6231   35.9037   24.1486 O   0  0  0  0  0  0  0  0  0  0  0  0
   27.8946   39.1053   20.6182 C   0  0  2  0  0  0  0  0  0  0  0  0
   27.4573   40.0996   21.7062 C   0  0  0  0  0  0  0  0  0  0  0  0
   27.5145   41.4832   21.2312 N   0  0  0  0  0  0  0  0  0  0  0  0
   26.5735   41.6463   20.1114 C   0  0  0  0  0  0  0  0  0  0  0  0
   26.9745   40.7727   18.9391 C   0  0  0  0  0  0  0  0  0  0  0  0
   27.0486   39.3086   19.3499 C   0  0  0  0  0  0  0  0  0  0  0  0
   26.3358   34.7505   19.5936 C   0  0  0  0  0  0  0  0  0  0  0  0
   25.7792   35.4427   18.1150 S   0  0  0  0  0  0  0  0  0  0  0  0
   25.4351   33.9353   17.4668 C   0  0  0  0  0  0  0  0  0  0  0  0
   25.7680   32.9435   18.3025 C   0  0  0  0  0  0  0  0  0  0  0  0
   26.2808   33.3933   19.5348 C   0  0  0  0  0  0  0  0  0  0  0  0
   27.2077   42.4467   22.3031 C   0  0  0  0  0  0  0  0  0  0  0  0
   28.2640   42.5920   23.3756 C   0  0  0  0  0  0  0  0  0  0  0  0
   27.9170   42.8692   24.6899 C   0  0  0  0  0  0  0  0  0  0  0  0
   28.7663   43.3574   25.6120 N   0  0  0  0  0  0  0  0  0  0  0  0
   29.9855   43.5986   25.1538 C   0  0  0  0  0  0  0  0  0  0  0  0
   30.4522   43.4262   23.9275 N   0  0  0  0  0  0  0  0  0  0  0  0
   29.5584   42.9432   23.0520 C   0  0  0  0  0  0  0  0  0  0  0  0
   30.8248   44.0923   26.0714 O   0  0  0  0  0  0  0  0  0  0  0  0
   32.1651   43.5871   26.0811 C   0  0  0  0  0  0  0  0  0  0  0  0
  1  2  2  0  0  0  0
  1  6  1  0  0  0  0
  2  3  1  0  0  0  0
  3  4  2  0  0  0  0
  4 14  1  0  0  0  0
  5  4  1  0  0  0  0
  6  5  1  0  0  0  0
  7  6  2  0  0  0  0
  8  9  1  0  0  0  0
  8  2  1  1  0  0  0
 10 19  1  0  0  0  0
 10  9  1  0  0  0  0
 11 10  1  0  0  0  0
 12 11  1  0  0  0  0
 12 13  1  0  0  0  0
 13  8  1  0  0  0  0
 14 15  1  0  0  0  0
 14 18  2  0  0  0  0
 15 16  1  0  0  0  0
 16 17  2  0  0  0  0
 18 17  1  0  0  0  0
 19 20  1  0  0  0  0
 20 25  2  0  0  0  0
 20 21  1  0  0  0  0
 21 22  2  0  0  0  0
 22 23  1  0  0  0  0
 23 26  1  0  0  0  0
 24 23  2  0  0  0  0
 25 24  1  0  0  0  0
 26 27  1  0  0  0  0
M  END
>  <CHROM.1>
-16.80563176,-41.43178848,70.87195003,-147.11241820,138.48593616,27.69478060
39.03352413,21.69700561,-2.45644555,-1.12668851,-0.26888299

>  <Name>
lig.pdb

>  <RI>
0

>  <Rbt.Current_Directory>
/home/itssahil/PROJECTS/Mol_Feturizer/New_Systems/rnas/5kx9

>  <Rbt.Executable>
rbdock ($Id: //depot/dev/client3/rdock/2013.1/src/exe/rbdock.cxx#4 $)

>  <Rbt.Library>
libRbt.so (2013.1, Build901 2013/11/27)

>  <Rbt.Parameter_File>
/export/apps/rDock/src/rDock_2013.1_src/data/scripts/dock_solv.prm

>  <Rbt.Receptor>
prm/pocket_docking_7.prm

>  <SCORE>
-33.7339

>  <SCORE.INTER>
-30.6892

>  <SCORE.INTER.CONST>
1

>  <SCORE.INTER.POLAR>
0

>  <SCORE.INTER.ROT>
5

>  <SCORE.INTER.SOLV>
14.856

>  <SCORE.INTER.VDW>
-32.3448

>  <SCORE.INTER.norm>
-1.13664

>  <SCORE.INTRA>
-3.04472

>  <SCORE.INTRA.DIHEDRAL>
2.63422

>  <SCORE.INTRA.DIHEDRAL.0>
2.68224

>  <SCORE.INTRA.POLAR>
0

>  <SCORE.INTRA.POLAR.0>
0

>  <SCORE.INTRA.REPUL>
0

>  <SCORE.INTRA.REPUL.0>
0

>  <SCORE.INTRA.SOLV>
-0.602695

>  <SCORE.INTRA.SOLV.lig_0>
-19.4148

>  <SCORE.INTRA.VDW>
-4.06048

>  <SCORE.INTRA.VDW.0>
5.42093

>  <SCORE.INTRA.norm>
-0.112767

>  <SCORE.RESTR>
0

>  <SCORE.RESTR.CAVITY>
0

>  <SCORE.RESTR.norm>
0

>  <SCORE.SYSTEM>
0

>  <SCORE.SYSTEM.CONST>
0

>  <SCORE.SYSTEM.DIHEDRAL>
0

>  <SCORE.SYSTEM.SOLV>
0

>  <SCORE.SYSTEM.norm>
0

>  <SCORE.heavy>
27

>  <SCORE.norm>
-1.2494

>  <RMSD>
3.930

$$$$
lig.pdb
 OpenBabel11021811523D
libRbt.so/2013.1/901 2013/11/27
 27 30  0  0  0  0  0  0  0  0999 V2000
   27.7191   36.9456   22.1207 N   0  0  0  0  0  0  0  0  0  0  0  0
   27.8815   37.2381   20.8541 C   0  0  0  0  0  0  0  0  0  0  0  0
   27.5285   36.4327   19.8207 N   0  0  0  0  0  0  0  0  0  0  0  0
   26.9132   35.2446   20.0979 C   0  0  0  0  0  0  0  0  0  0  0  0
   26.6781   34.8712   21.3901 C   0  0  0  0  0  0  0  0  0  0  0  0
   27.1075   35.7395   22.4603 C   0  0  0  0  0  0  0  0  0  0  0  0
   26.9771   35.4460   23.6551 O   0  0  0  0  0  0  0  0  0  0  0  0
   28.6736   38.4763   20.3800 C   0  0  2  0  0  0  0  0  0  0  0  0
   27.7927   39.6316   20.8829 C   0  0  0  0  0  0  0  0  0  0  0  0
   28.2212   40.9192   20.3336 N   0  0  0  0  0  0  0  0  0  0  0  0
   28.0775   40.8889   18.8692 C   0  0  0  0  0  0  0  0  0  0  0  0
   28.9853   39.8386   18.2603 C   0  0  0  0  0  0  0  0  0  0  0  0
   28.6942   38.4622   18.8420 C   0  0  0  0  0  0  0  0  0  0  0  0
   26.5548   34.5085   18.8930 C   0  0  0  0  0  0  0  0  0  0  0  0
   25.5399   33.1152   18.9549 S   0  0  0  0  0  0  0  0  0  0  0  0
   25.6494   32.8853   17.2978 C   0  0  0  0  0  0  0  0  0  0  0  0
   26.3775   33.8412   16.7071 C   0  0  0  0  0  0  0  0  0  0  0  0
   26.9135   34.7801   17.6099 C   0  0  0  0  0  0  0  0  0  0  0  0
   27.4546   42.0425   20.9008 C   0  0  0  0  0  0  0  0  0  0  0  0
   27.4373   42.1278   22.4108 C   0  0  0  0  0  0  0  0  0  0  0  0
   26.2974   41.8066   23.1333 C   0  0  0  0  0  0  0  0  0  0  0  0
   26.0748   42.1824   24.4057 N   0  0  0  0  0  0  0  0  0  0  0  0
   27.0322   42.9364   24.9249 C   0  0  0  0  0  0  0  0  0  0  0  0
   28.1490   43.3570   24.3527 N   0  0  0  0  0  0  0  0  0  0  0  0
   28.3123   42.9555   23.0835 C   0  0  0  0  0  0  0  0  0  0  0  0
   26.8031   43.3156   26.1873 O   0  0  0  0  0  0  0  0  0  0  0  0
   25.4513   43.6185   26.5516 C   0  0  0  0  0  0  0  0  0  0  0  0
  1  2  2  0  0  0  0
  1  6  1  0  0  0  0
  2  3  1  0  0  0  0
  3  4  2  0  0  0  0
  4 14  1  0  0  0  0
  5  4  1  0  0  0  0
  6  5  1  0  0  0  0
  7  6  2  0  0  0  0
  8  9  1  0  0  0  0
  8  2  1  6  0  0  0
 10 19  1  0  0  0  0
 10  9  1  0  0  0  0
 11 10  1  0  0  0  0
 12 11  1  0  0  0  0
 12 13  1  0  0  0  0
 13  8  1  0  0  0  0
 14 15  1  0  0  0  0
 14 18  2  0  0  0  0
 15 16  1  0  0  0  0
 16 17  2  0  0  0  0
 18 17  1  0  0  0  0
 19 20  1  0  0  0  0
 20 25  2  0  0  0  0
 20 21  1  0  0  0  0
 21 22  2  0  0  0  0
 22 23  1  0  0  0  0
 23 26  1  0  0  0  0
 24 23  2  0  0  0  0
 25 24  1  0  0  0  0
 26 27  1  0  0  0  0
M  END
>  <CHROM.1>
-169.62300272,-66.24724279,54.09269126,-107.16216974,-36.64411143,27.15087101
38.45243087,21.19317133,1.72388595,-1.17875343,-2.43753974

>  <Name>
lig.pdb

>  <RI>
0

>  <Rbt.Current_Directory>
/home/itssahil/PROJECTS/Mol_Feturizer/New_Systems/rnas/5kx9

>  <Rbt.Executable>
rbdock ($Id: //depot/dev/client3/rdock/2013.1/src/exe/rbdock.cxx#4 $)

>  <Rbt.Library>
libRbt.so (2013.1, Build901 2013/11/27)

>  <Rbt.Parameter_File>
/export/apps/rDock/src/rDock_2013.1_src/data/scripts/dock_solv.prm

>  <Rbt.Receptor>
prm/pocket_docking_5.prm

>  <SCORE>
-28.8157

>  <SCORE.INTER>
-26.7791

>  <SCORE.INTER.CONST>
1

>  <SCORE.INTER.POLAR>
0

>  <SCORE.INTER.ROT>
5

>  <SCORE.INTER.SOLV>
13.2714

>  <SCORE.INTER.VDW>
-29.2099

>  <SCORE.INTER.norm>
-0.991818

>  <SCORE.INTRA>
-2.03659

>  <SCORE.INTRA.DIHEDRAL>
0.804667

>  <SCORE.INTRA.DIHEDRAL.0>
2.68224

>  <SCORE.INTRA.POLAR>
0

>  <SCORE.INTRA.POLAR.0>
0

>  <SCORE.INTRA.REPUL>
0

>  <SCORE.INTRA.REPUL.0>
0

>  <SCORE.INTRA.SOLV>
-0.697146

>  <SCORE.INTRA.SOLV.lig_0>
-19.4148

>  <SCORE.INTRA.VDW>
-2.09035

>  <SCORE.INTRA.VDW.0>
5.42093

>  <SCORE.INTRA.norm>
-0.0754293

>  <SCORE.RESTR>
0

>  <SCORE.RESTR.CAVITY>
0

>  <SCORE.RESTR.norm>
0

>  <SCORE.SYSTEM>
0

>  <SCORE.SYSTEM.CONST>
0

>  <SCORE.SYSTEM.DIHEDRAL>
0

>  <SCORE.SYSTEM.SOLV>
0

>  <SCORE.SYSTEM.norm>
0

>  <SCORE.heavy>
27

>  <SCORE.norm>
-1.06725

>  <RMSD>
3.940

$$$$
lig.pdb
 OpenBabel11021811523D
libRbt.so/2013.1/901 2013/11/27
 27 30  0  0  0  0  0  0  0  0999 V2000
   27.8029   37.5239   22.7148 N   0  0  0  0  0  0  0  0  0  0  0  0
   27.6986   37.7913   21.4366 C   0  0  0  0  0  0  0  0  0  0  0  0
   27.2603   36.9184   20.4948 N   0  0  0  0  0  0  0  0  0  0  0  0
   26.8471   35.6786   20.8938 C   0  0  0  0  0  0  0  0  0  0  0  0
   26.8943   35.3235   22.2114 C   0  0  0  0  0  0  0  0  0  0  0  0
   27.4066   36.2687   23.1746 C   0  0  0  0  0  0  0  0  0  0  0  0
   27.5292   36.0015   24.3765 O   0  0  0  0  0  0  0  0  0  0  0  0
   28.2432   39.0943   20.8110 C   0  0  2  0  0  0  0  0  0  0  0  0
   27.9637   40.1225   21.9192 C   0  0  0  0  0  0  0  0  0  0  0  0
   28.1761   41.4939   21.4528 N   0  0  0  0  0  0  0  0  0  0  0  0
   27.2295   41.7833   20.3636 C   0  0  0  0  0  0  0  0  0  0  0  0
   27.4854   40.8801   19.1733 C   0  0  0  0  0  0  0  0  0  0  0  0
   27.3913   39.4136   19.5708 C   0  0  0  0  0  0  0  0  0  0  0  0
   26.3645   34.8683   19.7836 C   0  0  0  0  0  0  0  0  0  0  0  0
   25.6543   35.5854   18.3848 S   0  0  0  0  0  0  0  0  0  0  0  0
   25.3739   34.0886   17.6836 C   0  0  0  0  0  0  0  0  0  0  0  0
   25.8368   33.0864   18.4415 C   0  0  0  0  0  0  0  0  0  0  0  0
   26.4033   33.5151   19.6577 C   0  0  0  0  0  0  0  0  0  0  0  0
   28.0217   42.4757   22.5406 C   0  0  0  0  0  0  0  0  0  0  0  0
   29.1118   42.4690   23.5890 C   0  0  0  0  0  0  0  0  0  0  0  0
   28.9862   41.7173   24.7482 C   0  0  0  0  0  0  0  0  0  0  0  0
   29.7088   41.9186   25.8649 N   0  0  0  0  0  0  0  0  0  0  0  0
   30.5481   42.9408   25.7920 C   0  0  0  0  0  0  0  0  0  0  0  0
   30.7498   43.7686   24.7793 N   0  0  0  0  0  0  0  0  0  0  0  0
   29.9970   43.5217   23.6971 C   0  0  0  0  0  0  0  0  0  0  0  0
   31.2585   43.1434   26.9075 O   0  0  0  0  0  0  0  0  0  0  0  0
   32.1068   42.0789   27.3534 C   0  0  0  0  0  0  0  0  0  0  0  0
  1  2  2  0  0  0  0
  1  6  1  0  0  0  0
  2  3  1  0  0  0  0
  3  4  2  0  0  0  0
  4 14  1  0  0  0  0
  5  4  1  0  0  0  0
  6  5  1  0  0  0  0
  7  6  2  0  0  0  0
  8  9  1  0  0  0  0
  8  2  1  1  0  0  0
 10 19  1  0  0  0  0
 10  9  1  0  0  0  0
 11 10  1  0  0  0  0
 12 11  1  0  0  0  0
 12 13  1  0  0  0  0
 13  8  1  0  0  0  0
 14 15  1  0  0  0  0
 14 18  2  0  0  0  0
 15 16  1  0  0  0  0
 16 17  2  0  0  0  0
 18 17  1  0  0  0  0
 19 20  1  0  0  0  0
 20 25  2  0  0  0  0
 20 21  1  0  0  0  0
 21 22  2  0  0  0  0
 22 23  1  0  0  0  0
 23 26  1  0  0  0  0
 24 23  2  0  0  0  0
 25 24  1  0  0  0  0
 26 27  1  0  0  0  0
M  END
>  <CHROM.1>
-28.87888972,-36.21188381,70.26209041,-93.08818889,60.14102214,27.99803289
38.91484028,22.02512460,-2.71260064,-1.12851474,-0.45769219

>  <Name>
lig.pdb

>  <RI>
0

>  <Rbt.Current_Directory>
/home/itssahil/PROJECTS/Mol_Feturizer/New_Systems/rnas/5kx9

>  <Rbt.Executable>
rbdock ($Id: //depot/dev/client3/rdock/2013.1/src/exe/rbdock.cxx#4 $)

>  <Rbt.Library>
libRbt.so (2013.1, Build901 2013/11/27)

>  <Rbt.Parameter_File>
/export/apps/rDock/src/rDock_2013.1_src/data/scripts/dock_solv.prm

>  <Rbt.Receptor>
prm/blind_docking_80.prm

>  <SCORE>
-33.1901

>  <SCORE.INTER>
-30.8101

>  <SCORE.INTER.CONST>
1

>  <SCORE.INTER.POLAR>
0

>  <SCORE.INTER.ROT>
5

>  <SCORE.INTER.SOLV>
13.5739

>  <SCORE.INTER.VDW>
-31.998

>  <SCORE.INTER.norm>
-1.14111

>  <SCORE.INTRA>
-2.40386

>  <SCORE.INTRA.DIHEDRAL>
5.12607

>  <SCORE.INTRA.DIHEDRAL.0>
2.68224

>  <SCORE.INTRA.POLAR>
0

>  <SCORE.INTRA.POLAR.0>
0

>  <SCORE.INTRA.REPUL>
0

>  <SCORE.INTRA.REPUL.0>
0

>  <SCORE.INTRA.SOLV>
-0.625053

>  <SCORE.INTRA.SOLV.lig_0>
-19.4148

>  <SCORE.INTRA.VDW>
-4.65437

>  <SCORE.INTRA.VDW.0>
5.42093

>  <SCORE.INTRA.norm>
-0.0890319

>  <SCORE.RESTR>
0.0238832

>  <SCORE.RESTR.CAVITY>
0.0238832

>  <SCORE.RESTR.norm>
0.000884563

>  <SCORE.SYSTEM>
0

>  <SCORE.SYSTEM.CONST>
0

>  <SCORE.SYSTEM.DIHEDRAL>
0

>  <SCORE.SYSTEM.SOLV>
0

>  <SCORE.SYSTEM.norm>
0

>  <SCORE.heavy>
27

>  <SCORE.norm>
-1.22926

>  <RMSD>
4.040

$$$$
lig.pdb
 OpenBabel11021811523D
libRbt.so/2013.1/901 2013/11/27
 27 30  0  0  0  0  0  0  0  0999 V2000
   27.6902   37.7730   23.4589 N   0  0  0  0  0  0  0  0  0  0  0  0
   27.7153   38.0204   22.1726 C   0  0  0  0  0  0  0  0  0  0  0  0
   27.4736   37.1038   21.2017 N   0  0  0  0  0  0  0  0  0  0  0  0
   27.1301   35.8341   21.5717 C   0  0  0  0  0  0  0  0  0  0  0  0
   27.0519   35.4945   22.8919 C   0  0  0  0  0  0  0  0  0  0  0  0
   27.3577   36.4900   23.8915 C   0  0  0  0  0  0  0  0  0  0  0  0
   27.3599   36.2440   25.1040 O   0  0  0  0  0  0  0  0  0  0  0  0
   28.2100   39.3635   21.5921 C   0  0  2  0  0  0  0  0  0  0  0  0
   27.5971   40.3796   22.5695 C   0  0  0  0  0  0  0  0  0  0  0  0
   27.7291   41.7524   22.0782 N   0  0  0  0  0  0  0  0  0  0  0  0
   26.9856   41.8845   20.8149 C   0  0  0  0  0  0  0  0  0  0  0  0
   27.5764   40.9868   19.7457 C   0  0  0  0  0  0  0  0  0  0  0  0
   27.5845   39.5329   20.1971 C   0  0  0  0  0  0  0  0  0  0  0  0
   26.8589   34.9746   20.4271 C   0  0  0  0  0  0  0  0  0  0  0  0
   26.3556   35.6237   18.9104 S   0  0  0  0  0  0  0  0  0  0  0  0
   26.2430   34.0979   18.2247 C   0  0  0  0  0  0  0  0  0  0  0  0
   26.6143   33.1365   19.0795 C   0  0  0  0  0  0  0  0  0  0  0  0
   26.9647   33.6211   20.3548 C   0  0  0  0  0  0  0  0  0  0  0  0
   27.2476   42.7382   23.0619 C   0  0  0  0  0  0  0  0  0  0  0  0
   28.2678   43.2031   24.0769 C   0  0  0  0  0  0  0  0  0  0  0  0
   29.5714   43.4931   23.7010 C   0  0  0  0  0  0  0  0  0  0  0  0
   30.6093   43.5625   24.5542 N   0  0  0  0  0  0  0  0  0  0  0  0
   30.2978   43.2885   25.8121 C   0  0  0  0  0  0  0  0  0  0  0  0
   29.1187   42.9578   26.3140 N   0  0  0  0  0  0  0  0  0  0  0  0
   28.1251   42.8991   25.4150 C   0  0  0  0  0  0  0  0  0  0  0  0
   31.3341   43.3498   26.6560 O   0  0  0  0  0  0  0  0  0  0  0  0
   31.7971   42.1194   27.2248 C   0  0  0  0  0  0  0  0  0  0  0  0
  1  2  2  0  0  0  0
  1  6  1  0  0  0  0
  2  3  1  0  0  0  0
  3  4  2  0  0  0  0
  4 14  1  0  0  0  0
  5  4  1  0  0  0  0
  6  5  1  0  0  0  0
  7  6  2  0  0  0  0
  8  9  1  0  0  0  0
  8  2  1  1  0  0  0
 10 19  1  0  0  0  0
 10  9  1  0  0  0  0
 11 10  1  0  0  0  0
 12 11  1  0  0  0  0
 12 13  1  0  0  0  0
 13  8  1  0  0  0  0
 14 15  1  0  0  0  0
 14 18  2  0  0  0  0
 15 16  1  0  0  0  0
 16 17  2  0  0  0  0
 18 17  1  0  0  0  0
 19 20  1  0  0  0  0
 20 25  2  0  0  0  0
 20 21  1  0  0  0  0
 21 22  2  0  0  0  0
 22 23  1  0  0  0  0
 23 26  1  0  0  0  0
 24 23  2  0  0  0  0
 25 24  1  0  0  0  0
 26 27  1  0  0  0  0
M  END
>  <CHROM.1>
-24.87800047,-41.25048840,87.39236346,42.20330165,-111.02977911,27.98600713
39.14142948,22.51180692,-2.49855668,-1.18024704,-0.31348012

>  <Name>
lig.pdb

>  <RI>
0

>  <Rbt.Current_Directory>
/home/itssahil/PROJECTS/Mol_Feturizer/New_Systems/rnas/5kx9

>  <Rbt.Executable>
rbdock ($Id: //depot/dev/client3/rdock/2013.1/src/exe/rbdock.cxx#4 $)

>  <Rbt.Library>
libRbt.so (2013.1, Build901 2013/11/27)

>  <Rbt.Parameter_File>
/export/apps/rDock/src/rDock_2013.1_src/data/scripts/dock_solv.prm

>  <Rbt.Receptor>
prm/pocket_docking_3.prm

>  <SCORE>
-36.0382

>  <SCORE.INTER>
-33.9984

>  <SCORE.INTER.CONST>
1

>  <SCORE.INTER.POLAR>
0

>  <SCORE.INTER.ROT>
5

>  <SCORE.INTER.SOLV>
15.832

>  <SCORE.INTER.VDW>
-34.8763

>  <SCORE.INTER.norm>
-1.2592

>  <SCORE.INTRA>
-2.38339

>  <SCORE.INTRA.DIHEDRAL>
6.20649

>  <SCORE.INTRA.DIHEDRAL.0>
2.68224

>  <SCORE.INTRA.POLAR>
0

>  <SCORE.INTRA.POLAR.0>
0

>  <SCORE.INTRA.REPUL>
0

>  <SCORE.INTRA.REPUL.0>
0

>  <SCORE.INTRA.SOLV>
-0.524507

>  <SCORE.INTRA.SOLV.lig_0>
-19.4148

>  <SCORE.INTRA.VDW>
-5.22438

>  <SCORE.INTRA.VDW.0>
5.42093

>  <SCORE.INTRA.norm>
-0.0882738

>  <SCORE.RESTR>
0.343595

>  <SCORE.RESTR.CAVITY>
0.343595

>  <SCORE.RESTR.norm>
0.0127257

>  <SCORE.SYSTEM>
0

>  <SCORE.SYSTEM.CONST>
0

>  <SCORE.SYSTEM.DIHEDRAL>
0

>  <SCORE.SYSTEM.SOLV>
0

>  <SCORE.SYSTEM.norm>
0

>  <SCORE.heavy>
27

>  <SCORE.norm>
-1.33475

>  <RMSD>
4.075

$$$$
lig.pdb
 OpenBabel11021811523D
libRbt.so/2013.1/901 2013/11/27
 27 30  0  0  0  0  0  0  0  0999 V2000
   27.6963   38.6558   23.5379 N   0  0  0  0  0  0  0  0  0  0  0  0
   28.2593   38.7134   22.3564 C   0  0  0  0  0  0  0  0  0  0  0  0
   28.2886   37.6946   21.4608 N   0  0  0  0  0  0  0  0  0  0  0  0
   27.6486   36.5289   21.7748 C   0  0  0  0  0  0  0  0  0  0  0  0
   27.0107   36.3902   22.9740 C   0  0  0  0  0  0  0  0  0  0  0  0
   27.0397   37.4849   23.9146 C   0  0  0  0  0  0  0  0  0  0  0  0
   26.5306   37.4155   25.0401 O   0  0  0  0  0  0  0  0  0  0  0  0
   29.1298   39.9070   21.9058 C   0  0  2  0  0  0  0  0  0  0  0  0
   28.9122   40.9114   23.0491 C   0  0  0  0  0  0  0  0  0  0  0  0
   29.4523   42.2320   22.7211 N   0  0  0  0  0  0  0  0  0  0  0  0
   28.7371   42.7668   21.5512 C   0  0  0  0  0  0  0  0  0  0  0  0
   28.9676   41.8938   20.3335 C   0  0  0  0  0  0  0  0  0  0  0  0
   28.5329   40.4594   20.6003 C   0  0  0  0  0  0  0  0  0  0  0  0
   27.7275   35.5442   20.7040 C   0  0  0  0  0  0  0  0  0  0  0  0
   27.2474   33.9056   20.9478 S   0  0  0  0  0  0  0  0  0  0  0  0
   27.6510   33.4884   19.3749 C   0  0  0  0  0  0  0  0  0  0  0  0
   28.0840   34.5432   18.6729 C   0  0  0  0  0  0  0  0  0  0  0  0
   28.1424   35.7338   19.4232 C   0  0  0  0  0  0  0  0  0  0  0  0
   29.3498   43.1664   23.8559 C   0  0  0  0  0  0  0  0  0  0  0  0
   28.0131   43.1943   24.5630 C   0  0  0  0  0  0  0  0  0  0  0  0
   27.9270   43.0348   25.9384 C   0  0  0  0  0  0  0  0  0  0  0  0
   26.8023   42.6947   26.5937 N   0  0  0  0  0  0  0  0  0  0  0  0
   25.7592   42.4784   25.8065 C   0  0  0  0  0  0  0  0  0  0  0  0
   25.6963   42.5499   24.4865 N   0  0  0  0  0  0  0  0  0  0  0  0
   26.8490   42.8871   23.8894 C   0  0  0  0  0  0  0  0  0  0  0  0
   24.6450   42.1318   26.4610 O   0  0  0  0  0  0  0  0  0  0  0  0
   23.4064   42.6782   25.9931 C   0  0  0  0  0  0  0  0  0  0  0  0
  1  2  2  0  0  0  0
  1  6  1  0  0  0  0
  2  3  1  0  0  0  0
  3  4  2  0  0  0  0
  4 14  1  0  0  0  0
  5  4  1  0  0  0  0
  6  5  1  0  0  0  0
  7  6  2  0  0  0  0
  8  9  1  0  0  0  0
  8  2  1  1  0  0  0
 10 19  1  0  0  0  0
 10  9  1  0  0  0  0
 11 10  1  0  0  0  0
 12 11  1  0  0  0  0
 12 13  1  0  0  0  0
 13  8  1  0  0  0  0
 14 15  1  0  0  0  0
 14 18  2  0  0  0  0
 15 16  1  0  0  0  0
 16 17  2  0  0  0  0
 18 17  1  0  0  0  0
 19 20  1  0  0  0  0
 20 25  2  0  0  0  0
 20 21  1  0  0  0  0
 21 22  2  0  0  0  0
 22 23  1  0  0  0  0
 23 26  1  0  0  0  0
 24 23  2  0  0  0  0
 25 24  1  0  0  0  0
 26 27  1  0  0  0  0
M  END
>  <CHROM.1>
169.11179726,-8.27384064,-46.43151540,127.62612155,140.46092510,27.49004924
39.37783267,22.84439815,1.40975735,-0.85341892,-2.74155383

>  <Name>
lig.pdb

>  <RI>
0

>  <Rbt.Current_Directory>
/home/itssahil/PROJECTS/Mol_Feturizer/New_Systems/rnas/5kx9

>  <Rbt.Executable>
rbdock ($Id: //depot/dev/client3/rdock/2013.1/src/exe/rbdock.cxx#4 $)

>  <Rbt.Library>
libRbt.so (2013.1, Build901 2013/11/27)

>  <Rbt.Parameter_File>
/export/apps/rDock/src/rDock_2013.1_src/data/scripts/dock_solv.prm

>  <Rbt.Receptor>
prm/pocket_docking_8.prm

>  <SCORE>
-38.1968

>  <SCORE.INTER>
-36.3904

>  <SCORE.INTER.CONST>
1

>  <SCORE.INTER.POLAR>
0

>  <SCORE.INTER.ROT>
5

>  <SCORE.INTER.SOLV>
17.045

>  <SCORE.INTER.VDW>
-36.8753

>  <SCORE.INTER.norm>
-1.34779

>  <SCORE.INTRA>
-1.80635

>  <SCORE.INTRA.DIHEDRAL>
1.44925

>  <SCORE.INTRA.DIHEDRAL.0>
2.68224

>  <SCORE.INTRA.POLAR>
0

>  <SCORE.INTRA.POLAR.0>
0

>  <SCORE.INTRA.REPUL>
0

>  <SCORE.INTRA.REPUL.0>
0

>  <SCORE.INTRA.SOLV>
-0.269339

>  <SCORE.INTRA.SOLV.lig_0>
-19.4148

>  <SCORE.INTRA.VDW>
-2.39631

>  <SCORE.INTRA.VDW.0>
5.42093

>  <SCORE.INTRA.norm>
-0.0669019

>  <SCORE.RESTR>
0

>  <SCORE.RESTR.CAVITY>
0

>  <SCORE.RESTR.norm>
0

>  <SCORE.SYSTEM>
0

>  <SCORE.SYSTEM.CONST>
0

>  <SCORE.SYSTEM.DIHEDRAL>
0

>  <SCORE.SYSTEM.SOLV>
0

>  <SCORE.SYSTEM.norm>
0

>  <SCORE.heavy>
27

>  <SCORE.norm>
-1.4147

>  <RMSD>
4.520

$$$$
lig.pdb
 OpenBabel11021811523D
libRbt.so/2013.1/901 2013/11/27
 27 30  0  0  0  0  0  0  0  0999 V2000
   27.0225   37.3172   23.3222 N   0  0  0  0  0  0  0  0  0  0  0  0
   27.6941   37.8103   22.3112 C   0  0  0  0  0  0  0  0  0  0  0  0
   28.0163   37.1243   21.1857 N   0  0  0  0  0  0  0  0  0  0  0  0
   27.5767   35.8371   21.0558 C   0  0  0  0  0  0  0  0  0  0  0  0
   26.8454   35.2513   22.0490 C   0  0  0  0  0  0  0  0  0  0  0  0
   26.5608   36.0038   23.2475 C   0  0  0  0  0  0  0  0  0  0  0  0
   25.9503   35.5245   24.2110 O   0  0  0  0  0  0  0  0  0  0  0  0
   28.3686   39.1990   22.3570 C   0  0  2  0  0  0  0  0  0  0  0  0
   27.1692   40.1294   22.6010 C   0  0  0  0  0  0  0  0  0  0  0  0
   27.5334   41.5379   22.4379 N   0  0  0  0  0  0  0  0  0  0  0  0
   27.9649   41.7652   21.0492 C   0  0  0  0  0  0  0  0  0  0  0  0
   29.2100   40.9601   20.7333 C   0  0  0  0  0  0  0  0  0  0  0  0
   28.9742   39.4749   20.9703 C   0  0  0  0  0  0  0  0  0  0  0  0
   27.9606   35.2433   19.7821 C   0  0  0  0  0  0  0  0  0  0  0  0
   27.6691   33.5784   19.4383 S   0  0  0  0  0  0  0  0  0  0  0  0
   28.3773   33.7032   17.9238 C   0  0  0  0  0  0  0  0  0  0  0  0
   28.7755   34.9540   17.6591 C   0  0  0  0  0  0  0  0  0  0  0  0
   28.5511   35.8530   18.7200 C   0  0  0  0  0  0  0  0  0  0  0  0
   26.4191   42.4384   22.7823 C   0  0  0  0  0  0  0  0  0  0  0  0
   26.0702   42.5168   24.2518 C   0  0  0  0  0  0  0  0  0  0  0  0
   24.7501   42.4865   24.6772 C   0  0  0  0  0  0  0  0  0  0  0  0
   24.3337   42.8989   25.8882 N   0  0  0  0  0  0  0  0  0  0  0  0
   25.2960   43.3868   26.6565 C   0  0  0  0  0  0  0  0  0  0  0  0
   26.5832   43.5182   26.3785 N   0  0  0  0  0  0  0  0  0  0  0  0
   26.9369   43.0959   25.1556 C   0  0  0  0  0  0  0  0  0  0  0  0
   24.8766   43.8041   27.8565 O   0  0  0  0  0  0  0  0  0  0  0  0
   24.9114   45.2123   28.1159 C   0  0  0  0  0  0  0  0  0  0  0  0
  1  2  2  0  0  0  0
  1  6  1  0  0  0  0
  2  3  1  0  0  0  0
  3  4  2  0  0  0  0
  4 14  1  0  0  0  0
  5  4  1  0  0  0  0
  6  5  1  0  0  0  0
  7  6  2  0  0  0  0
  8  9  1  0  0  0  0
  8  2  1  6  0  0  0
 10 19  1  0  0  0  0
 10  9  1  0  0  0  0
 11 10  1  0  0  0  0
 12 11  1  0  0  0  0
 12 13  1  0  0  0  0
 13  8  1  0  0  0  0
 14 15  1  0  0  0  0
 14 18  2  0  0  0  0
 15 16  1  0  0  0  0
 16 17  2  0  0  0  0
 18 17  1  0  0  0  0
 19 20  1  0  0  0  0
 20 25  2  0  0  0  0
 20 21  1  0  0  0  0
 21 22  2  0  0  0  0
 22 23  1  0  0  0  0
 23 26  1  0  0  0  0
 24 23  2  0  0  0  0
 25 24  1  0  0  0  0
 26 27  1  0  0  0  0
M  END
>  <CHROM.1>
173.62609433,-60.39930875,70.59539365,-135.89537543,-111.49612773,27.05537842
39.07593911,22.61152563,1.14325086,-1.02283673,-2.87651297

>  <Name>
lig.pdb

>  <RI>
0

>  <Rbt.Current_Directory>
/home/itssahil/PROJECTS/Mol_Feturizer/New_Systems/rnas/5kx9

>  <Rbt.Executable>
rbdock ($Id: //depot/dev/client3/rdock/2013.1/src/exe/rbdock.cxx#4 $)

>  <Rbt.Library>
libRbt.so (2013.1, Build901 2013/11/27)

>  <Rbt.Parameter_File>
/export/apps/rDock/src/rDock_2013.1_src/data/scripts/dock_solv.prm

>  <Rbt.Receptor>
prm/pocket_docking_8.prm

>  <SCORE>
-35.2847

>  <SCORE.INTER>
-32.5433

>  <SCORE.INTER.CONST>
1

>  <SCORE.INTER.POLAR>
0

>  <SCORE.INTER.ROT>
5

>  <SCORE.INTER.SOLV>
16.9735

>  <SCORE.INTER.VDW>
-34.2867

>  <SCORE.INTER.norm>
-1.20531

>  <SCORE.INTRA>
-2.74145

>  <SCORE.INTRA.DIHEDRAL>
3.68793

>  <SCORE.INTRA.DIHEDRAL.0>
2.68224

>  <SCORE.INTRA.POLAR>
0

>  <SCORE.INTRA.POLAR.0>
0

>  <SCORE.INTRA.REPUL>
0

>  <SCORE.INTRA.REPUL.0>
0

>  <SCORE.INTRA.SOLV>
-0.709421

>  <SCORE.INTRA.SOLV.lig_0>
-19.4148

>  <SCORE.INTRA.VDW>
-4.2307

>  <SCORE.INTRA.VDW.0>
5.42093

>  <SCORE.INTRA.norm>
-0.101535

>  <SCORE.RESTR>
0

>  <SCORE.RESTR.CAVITY>
0

>  <SCORE.RESTR.norm>
0

>  <SCORE.SYSTEM>
0

>  <SCORE.SYSTEM.CONST>
0

>  <SCORE.SYSTEM.DIHEDRAL>
0

>  <SCORE.SYSTEM.SOLV>
0

>  <SCORE.SYSTEM.norm>
0

>  <SCORE.heavy>
27

>  <SCORE.norm>
-1.30684

>  <RMSD>
4.576

$$$$
lig.pdb
 OpenBabel11021811523D
libRbt.so/2013.1/901 2013/11/27
 27 30  0  0  0  0  0  0  0  0999 V2000
   27.4388   38.6357   24.2300 N   0  0  0  0  0  0  0  0  0  0  0  0
   27.9193   38.6350   23.0112 C   0  0  0  0  0  0  0  0  0  0  0  0
   27.9260   37.5619   22.1809 N   0  0  0  0  0  0  0  0  0  0  0  0
   27.3512   36.3989   22.6103 C   0  0  0  0  0  0  0  0  0  0  0  0
   26.8001   36.3176   23.8569 C   0  0  0  0  0  0  0  0  0  0  0  0
   26.8519   37.4712   24.7232 C   0  0  0  0  0  0  0  0  0  0  0  0
   26.4217   37.4583   25.8832 O   0  0  0  0  0  0  0  0  0  0  0  0
   28.7138   39.8243   22.4283 C   0  0  2  0  0  0  0  0  0  0  0  0
   28.3488   40.9594   23.3988 C   0  0  0  0  0  0  0  0  0  0  0  0
   28.7971   42.2619   22.9032 N   0  0  0  0  0  0  0  0  0  0  0  0
   28.1094   42.5565   21.6357 C   0  0  0  0  0  0  0  0  0  0  0  0
   28.4807   41.5414   20.5727 C   0  0  0  0  0  0  0  0  0  0  0  0
   28.1502   40.1273   21.0296 C   0  0  0  0  0  0  0  0  0  0  0  0
   27.3944   35.3502   21.6001 C   0  0  0  0  0  0  0  0  0  0  0  0
   27.8291   35.6890   19.9656 S   0  0  0  0  0  0  0  0  0  0  0  0
   27.6148   34.0893   19.5119 C   0  0  0  0  0  0  0  0  0  0  0  0
   27.2777   33.3152   20.5512 C   0  0  0  0  0  0  0  0  0  0  0  0
   27.1383   34.0246   21.7601 C   0  0  0  0  0  0  0  0  0  0  0  0
   28.5528   43.3371   23.8808 C   0  0  0  0  0  0  0  0  0  0  0  0
   29.4333   43.3170   25.1104 C   0  0  0  0  0  0  0  0  0  0  0  0
   30.7921   43.5830   25.0228 C   0  0  0  0  0  0  0  0  0  0  0  0
   31.6929   43.2476   25.9640 N   0  0  0  0  0  0  0  0  0  0  0  0
   31.1825   42.5913   26.9951 C   0  0  0  0  0  0  0  0  0  0  0  0
   29.9256   42.2312   27.2002 N   0  0  0  0  0  0  0  0  0  0  0  0
   29.0759   42.5877   26.2256 C   0  0  0  0  0  0  0  0  0  0  0  0
   32.0827   42.2516   27.9248 O   0  0  0  0  0  0  0  0  0  0  0  0
   33.0738   41.2831   27.5624 C   0  0  0  0  0  0  0  0  0  0  0  0
  1  2  2  0  0  0  0
  1  6  1  0  0  0  0
  2  3  1  0  0  0  0
  3  4  2  0  0  0  0
  4 14  1  0  0  0  0
  5  4  1  0  0  0  0
  6  5  1  0  0  0  0
  7  6  2  0  0  0  0
  8  9  1  0  0  0  0
  8  2  1  1  0  0  0
 10 19  1  0  0  0  0
 10  9  1  0  0  0  0
 11 10  1  0  0  0  0
 12 11  1  0  0  0  0
 12 13  1  0  0  0  0
 13  8  1  0  0  0  0
 14 15  1  0  0  0  0
 14 18  2  0  0  0  0
 15 16  1  0  0  0  0
 16 17  2  0  0  0  0
 18 17  1  0  0  0  0
 19 20  1  0  0  0  0
 20 25  2  0  0  0  0
 20 21  1  0  0  0  0
 21 22  2  0  0  0  0
 22 23  1  0  0  0  0
 23 26  1  0  0  0  0
 24 23  2  0  0  0  0
 25 24  1  0  0  0  0
 26 27  1  0  0  0  0
M  END
>  <CHROM.1>
-11.76723538,-17.14208965,71.10474718,68.08875183,-67.00615067,28.67193012
39.37635980,23.49614111,-2.82168029,-1.19382881,-0.64140509

>  <Name>
lig.pdb

>  <RI>
0

>  <Rbt.Current_Directory>
/home/itssahil/PROJECTS/Mol_Feturizer/New_Systems/rnas/5kx9

>  <Rbt.Executable>
rbdock ($Id: //depot/dev/client3/rdock/2013.1/src/exe/rbdock.cxx#4 $)

>  <Rbt.Library>
libRbt.so (2013.1, Build901 2013/11/27)

>  <Rbt.Parameter_File>
/export/apps/rDock/src/rDock_2013.1_src/data/scripts/dock_solv.prm

>  <Rbt.Receptor>
prm/pocket_docking_5.prm

>  <SCORE>
-42.6367

>  <SCORE.INTER>
-39.459

>  <SCORE.INTER.CONST>
1

>  <SCORE.INTER.POLAR>
0

>  <SCORE.INTER.ROT>
5

>  <SCORE.INTER.SOLV>
17.6801

>  <SCORE.INTER.VDW>
-39.1327

>  <SCORE.INTER.norm>
-1.46145

>  <SCORE.INTRA>
-3.17765

>  <SCORE.INTRA.DIHEDRAL>
4.192

>  <SCORE.INTRA.DIHEDRAL.0>
2.68224

>  <SCORE.INTRA.POLAR>
0

>  <SCORE.INTRA.POLAR.0>
0

>  <SCORE.INTRA.REPUL>
0

>  <SCORE.INTRA.REPUL.0>
0

>  <SCORE.INTRA.SOLV>
-0.470877

>  <SCORE.INTRA.SOLV.lig_0>
-19.4148

>  <SCORE.INTRA.VDW>
-5.03821

>  <SCORE.INTRA.VDW.0>
5.42093

>  <SCORE.INTRA.norm>
-0.117691

>  <SCORE.RESTR>
0

>  <SCORE.RESTR.CAVITY>
0

>  <SCORE.RESTR.norm>
0

>  <SCORE.SYSTEM>
0

>  <SCORE.SYSTEM.CONST>
0

>  <SCORE.SYSTEM.DIHEDRAL>
0

>  <SCORE.SYSTEM.SOLV>
0

>  <SCORE.SYSTEM.norm>
0

>  <SCORE.heavy>
27

>  <SCORE.norm>
-1.57914

>  <RMSD>
4.592

$$$$
lig.pdb
 OpenBabel11021811523D
libRbt.so/2013.1/901 2013/11/27
 27 30  0  0  0  0  0  0  0  0999 V2000
   27.5603   38.3682   23.8032 N   0  0  0  0  0  0  0  0  0  0  0  0
   28.0303   38.5560   22.5949 C   0  0  0  0  0  0  0  0  0  0  0  0
   28.0943   37.6032   21.6309 N   0  0  0  0  0  0  0  0  0  0  0  0
   27.5932   36.3616   21.9040 C   0  0  0  0  0  0  0  0  0  0  0  0
   27.0579   36.0848   23.1292 C   0  0  0  0  0  0  0  0  0  0  0  0
   27.0477   37.1159   24.1393 C   0  0  0  0  0  0  0  0  0  0  0  0
   26.6283   36.9254   25.2877 O   0  0  0  0  0  0  0  0  0  0  0  0
   28.7479   39.8570   22.1730 C   0  0  2  0  0  0  0  0  0  0  0  0
   28.2876   40.8429   23.2591 C   0  0  0  0  0  0  0  0  0  0  0  0
   28.6504   42.2222   22.9286 N   0  0  0  0  0  0  0  0  0  0  0  0
   27.9643   42.6154   21.6873 C   0  0  0  0  0  0  0  0  0  0  0  0
   28.4238   41.7595   20.5234 C   0  0  0  0  0  0  0  0  0  0  0  0
   28.1870   40.2824   20.8054 C   0  0  0  0  0  0  0  0  0  0  0  0
   27.6908   35.4588   20.7649 C   0  0  0  0  0  0  0  0  0  0  0  0
   27.2948   33.7857   20.9030 S   0  0  0  0  0  0  0  0  0  0  0  0
   27.6770   33.4989   19.2960 C   0  0  0  0  0  0  0  0  0  0  0  0
   28.0416   34.6198   18.6607 C   0  0  0  0  0  0  0  0  0  0  0  0
   28.0632   35.7568   19.4917 C   0  0  0  0  0  0  0  0  0  0  0  0
   28.3148   43.1561   24.0178 C   0  0  0  0  0  0  0  0  0  0  0  0
   29.3049   43.2141   25.1596 C   0  0  0  0  0  0  0  0  0  0  0  0
   30.6205   43.6003   24.9479 C   0  0  0  0  0  0  0  0  0  0  0  0
   31.6318   43.3462   25.7980 N   0  0  0  0  0  0  0  0  0  0  0  0
   31.2806   42.6464   26.8664 C   0  0  0  0  0  0  0  0  0  0  0  0
   30.0854   42.1755   27.1846 N   0  0  0  0  0  0  0  0  0  0  0  0
   29.1198   42.4553   26.2968 C   0  0  0  0  0  0  0  0  0  0  0  0
   32.2906   42.3880   27.7049 O   0  0  0  0  0  0  0  0  0  0  0  0
   32.5003   41.0234   28.0864 C   0  0  0  0  0  0  0  0  0  0  0  0
  1  2  2  0  0  0  0
  1  6  1  0  0  0  0
  2  3  1  0  0  0  0
  3  4  2  0  0  0  0
  4 14  1  0  0  0  0
  5  4  1  0  0  0  0
  6  5  1  0  0  0  0
  7  6  2  0  0  0  0
  8  9  1  0  0  0  0
  8  2  1  1  0  0  0
 10 19  1  0  0  0  0
 10  9  1  0  0  0  0
 11 10  1  0  0  0  0
 12 11  1  0  0  0  0
 12 13  1  0  0  0  0
 13  8  1  0  0  0  0
 14 15  1  0  0  0  0
 14 18  2  0  0  0  0
 15 16  1  0  0  0  0
 16 17  2  0  0  0  0
 18 17  1  0  0  0  0
 19 20  1  0  0  0  0
 20 25  2  0  0  0  0
 20 21  1  0  0  0  0
 21 22  2  0  0  0  0
 22 23  1  0  0  0  0
 23 26  1  0  0  0  0
 24 23  2  0  0  0  0
 25 24  1  0  0  0  0
 26 27  1  0  0  0  0
M  END
>  <CHROM.1>
172.94654590,-18.86938985,80.77447165,60.84658144,-127.33278264,28.70514464
39.24616615,23.24539160,-2.60589762,-1.19817654,-0.39303017

>  <Name>
lig.pdb

>  <RI>
0

>  <Rbt.Current_Directory>
/home/itssahil/PROJECTS/Mol_Feturizer/New_Systems/rnas/5kx9

>  <Rbt.Executable>
rbdock ($Id: //depot/dev/client3/rdock/2013.1/src/exe/rbdock.cxx#4 $)

>  <Rbt.Library>
libRbt.so (2013.1, Build901 2013/11/27)

>  <Rbt.Parameter_File>
/export/apps/rDock/src/rDock_2013.1_src/data/scripts/dock_solv.prm

>  <Rbt.Receptor>
prm/pocket_docking_5.prm

>  <SCORE>
-42.9745

>  <SCORE.INTER>
-39.4837

>  <SCORE.INTER.CONST>
1

>  <SCORE.INTER.POLAR>
0

>  <SCORE.INTER.ROT>
5

>  <SCORE.INTER.SOLV>
17.217

>  <SCORE.INTER.VDW>
-38.9948

>  <SCORE.INTER.norm>
-1.46236

>  <SCORE.INTRA>
-3.49077

>  <SCORE.INTRA.DIHEDRAL>
3.12734

>  <SCORE.INTRA.DIHEDRAL.0>
2.68224

>  <SCORE.INTRA.POLAR>
0

>  <SCORE.INTRA.POLAR.0>
0

>  <SCORE.INTRA.REPUL>
0

>  <SCORE.INTRA.REPUL.0>
0

>  <SCORE.INTRA.SOLV>
-0.557177

>  <SCORE.INTRA.SOLV.lig_0>
-19.4148

>  <SCORE.INTRA.VDW>
-4.77585

>  <SCORE.INTRA.VDW.0>
5.42093

>  <SCORE.INTRA.norm>
-0.129288

>  <SCORE.RESTR>
0

>  <SCORE.RESTR.CAVITY>
0

>  <SCORE.RESTR.norm>
0

>  <SCORE.SYSTEM>
0

>  <SCORE.SYSTEM.CONST>
0

>  <SCORE.SYSTEM.DIHEDRAL>
0

>  <SCORE.SYSTEM.SOLV>
0

>  <SCORE.SYSTEM.norm>
0

>  <SCORE.heavy>
27

>  <SCORE.norm>
-1.59165

>  <RMSD>
4.607

$$$$
lig.pdb
 OpenBabel11021811523D
libRbt.so/2013.1/901 2013/11/27
 27 30  0  0  0  0  0  0  0  0999 V2000
   27.4515   38.2657   23.7916 N   0  0  0  0  0  0  0  0  0  0  0  0
   27.9488   38.4774   22.5982 C   0  0  0  0  0  0  0  0  0  0  0  0
   28.0469   37.5406   21.6215 N   0  0  0  0  0  0  0  0  0  0  0  0
   27.5529   36.2897   21.8629 C   0  0  0  0  0  0  0  0  0  0  0  0
   26.9908   35.9879   23.0701 C   0  0  0  0  0  0  0  0  0  0  0  0
   26.9446   37.0029   24.0955 C   0  0  0  0  0  0  0  0  0  0  0  0
   26.4994   36.7899   25.2301 O   0  0  0  0  0  0  0  0  0  0  0  0
   28.6622   39.7924   22.2143 C   0  0  2  0  0  0  0  0  0  0  0  0
   28.1807   40.7510   23.3156 C   0  0  0  0  0  0  0  0  0  0  0  0
   28.5376   42.1397   23.0200 N   0  0  0  0  0  0  0  0  0  0  0  0
   27.8648   42.5551   21.7787 C   0  0  0  0  0  0  0  0  0  0  0  0
   28.3457   41.7283   20.6026 C   0  0  0  0  0  0  0  0  0  0  0  0
   28.1161   40.2437   20.8490 C   0  0  0  0  0  0  0  0  0  0  0  0
   27.6882   35.4060   20.7127 C   0  0  0  0  0  0  0  0  0  0  0  0
   27.3147   33.7252   20.8172 S   0  0  0  0  0  0  0  0  0  0  0  0
   27.7351   33.4689   19.2146 C   0  0  0  0  0  0  0  0  0  0  0  0
   28.0960   34.6046   18.6041 C   0  0  0  0  0  0  0  0  0  0  0  0
   28.0828   35.7290   19.4524 C   0  0  0  0  0  0  0  0  0  0  0  0
   28.1809   43.0471   24.1248 C   0  0  0  0  0  0  0  0  0  0  0  0
   29.1803   43.1252   25.2572 C   0  0  0  0  0  0  0  0  0  0  0  0
   30.4332   43.6905   25.0691 C   0  0  0  0  0  0  0  0  0  0  0  0
   31.4861   43.4892   25.8821 N   0  0  0  0  0  0  0  0  0  0  0  0
   31.2470   42.6573   26.8847 C   0  0  0  0  0  0  0  0  0  0  0  0
   30.1263   42.0138   27.1700 N   0  0  0  0  0  0  0  0  0  0  0  0
   29.1149   42.2496   26.3214 C   0  0  0  0  0  0  0  0  0  0  0  0
   32.2989   42.4527   27.6858 O   0  0  0  0  0  0  0  0  0  0  0  0
   33.5199   42.0186   27.0755 C   0  0  0  0  0  0  0  0  0  0  0  0
  1  2  2  0  0  0  0
  1  6  1  0  0  0  0
  2  3  1  0  0  0  0
  3  4  2  0  0  0  0
  4 14  1  0  0  0  0
  5  4  1  0  0  0  0
  6  5  1  0  0  0  0
  7  6  2  0  0  0  0
  8  9  1  0  0  0  0
  8  2  1  1  0  0  0
 10 19  1  0  0  0  0
 10  9  1  0  0  0  0
 11 10  1  0  0  0  0
 12 11  1  0  0  0  0
 12 13  1  0  0  0  0
 13  8  1  0  0  0  0
 14 15  1  0  0  0  0
 14 18  2  0  0  0  0
 15 16  1  0  0  0  0
 16 17  2  0  0  0  0
 18 17  1  0  0  0  0
 19 20  1  0  0  0  0
 20 25  2  0  0  0  0
 20 21  1  0  0  0  0
 21 22  2  0  0  0  0
 22 23  1  0  0  0  0
 23 26  1  0  0  0  0
 24 23  2  0  0  0  0
 25 24  1  0  0  0  0
 26 27  1  0  0  0  0
M  END
>  <CHROM.1>
172.64004978,-18.09439753,82.91971690,67.69243803,-54.18935493,28.69072839
39.23084782,23.21192552,-2.53742776,-1.17005671,-0.33008237

>  <Name>
lig.pdb

>  <RI>
0

>  <Rbt.Current_Directory>
/home/itssahil/PROJECTS/Mol_Feturizer/New_Systems/rnas/5kx9

>  <Rbt.Executable>
rbdock ($Id: //depot/dev/client3/rdock/2013.1/src/exe/rbdock.cxx#4 $)

>  <Rbt.Library>
libRbt.so (2013.1, Build901 2013/11/27)

>  <Rbt.Parameter_File>
/export/apps/rDock/src/rDock_2013.1_src/data/scripts/dock_solv.prm

>  <Rbt.Receptor>
prm/pocket_docking_5.prm

>  <SCORE>
-42.0061

>  <SCORE.INTER>
-38.9532

>  <SCORE.INTER.CONST>
1

>  <SCORE.INTER.POLAR>
0

>  <SCORE.INTER.ROT>
5

>  <SCORE.INTER.SOLV>
17.4581

>  <SCORE.INTER.VDW>
-38.7215

>  <SCORE.INTER.norm>
-1.44271

>  <SCORE.INTRA>
-3.06209

>  <SCORE.INTRA.DIHEDRAL>
3.54862

>  <SCORE.INTRA.DIHEDRAL.0>
2.68224

>  <SCORE.INTRA.POLAR>
0

>  <SCORE.INTRA.POLAR.0>
0

>  <SCORE.INTRA.REPUL>
0

>  <SCORE.INTRA.REPUL.0>
0

>  <SCORE.INTRA.SOLV>
-0.557129

>  <SCORE.INTRA.SOLV.lig_0>
-19.4148

>  <SCORE.INTRA.VDW>
-4.55783

>  <SCORE.INTRA.VDW.0>
5.42093

>  <SCORE.INTRA.norm>
-0.113411

>  <SCORE.RESTR>
0.00915518

>  <SCORE.RESTR.CAVITY>
0.00915518

>  <SCORE.RESTR.norm>
0.000339081

>  <SCORE.SYSTEM>
0

>  <SCORE.SYSTEM.CONST>
0

>  <SCORE.SYSTEM.DIHEDRAL>
0

>  <SCORE.SYSTEM.SOLV>
0

>  <SCORE.SYSTEM.norm>
0

>  <SCORE.heavy>
27

>  <SCORE.norm>
-1.55578

>  <RMSD>
4.614

$$$$
lig.pdb
 OpenBabel11021811523D
libRbt.so/2013.1/901 2013/11/27
 27 30  0  0  0  0  0  0  0  0999 V2000
   27.4854   38.3352   23.5839 N   0  0  0  0  0  0  0  0  0  0  0  0
   27.8095   38.5158   22.3275 C   0  0  0  0  0  0  0  0  0  0  0  0
   27.8927   37.5302   21.3987 N   0  0  0  0  0  0  0  0  0  0  0  0
   27.5726   36.2542   21.7683 C   0  0  0  0  0  0  0  0  0  0  0  0
   27.1962   35.9786   23.0516 C   0  0  0  0  0  0  0  0  0  0  0  0
   27.1614   37.0504   24.0178 C   0  0  0  0  0  0  0  0  0  0  0  0
   26.8817   36.8700   25.2095 O   0  0  0  0  0  0  0  0  0  0  0  0
   28.3220   39.8682   21.7855 C   0  0  2  0  0  0  0  0  0  0  0  0
   28.2882   40.7508   23.0438 C   0  0  0  0  0  0  0  0  0  0  0  0
   28.5035   42.1626   22.7221 N   0  0  0  0  0  0  0  0  0  0  0  0
   27.4113   42.6296   21.8529 C   0  0  0  0  0  0  0  0  0  0  0  0
   27.4159   41.8827   20.5337 C   0  0  0  0  0  0  0  0  0  0  0  0
   27.3003   40.3811   20.7563 C   0  0  0  0  0  0  0  0  0  0  0  0
   27.6658   35.3133   20.6601 C   0  0  0  0  0  0  0  0  0  0  0  0
   27.3462   33.6319   20.8745 S   0  0  0  0  0  0  0  0  0  0  0  0
   27.6802   33.2999   19.2655 C   0  0  0  0  0  0  0  0  0  0  0  0
   27.9734   34.4097   18.5759 C   0  0  0  0  0  0  0  0  0  0  0  0
   27.9778   35.5775   19.3634 C   0  0  0  0  0  0  0  0  0  0  0  0
   28.5869   42.9972   23.9336 C   0  0  0  0  0  0  0  0  0  0  0  0
   29.7780   42.7362   24.8283 C   0  0  0  0  0  0  0  0  0  0  0  0
   29.7024   41.8289   25.8751 C   0  0  0  0  0  0  0  0  0  0  0  0
   30.5591   41.7937   26.9118 N   0  0  0  0  0  0  0  0  0  0  0  0
   31.4863   42.7392   26.8827 C   0  0  0  0  0  0  0  0  0  0  0  0
   31.6609   43.6923   25.9813 N   0  0  0  0  0  0  0  0  0  0  0  0
   30.7734   43.6800   24.9758 C   0  0  0  0  0  0  0  0  0  0  0  0
   32.3308   42.7064   27.9199 O   0  0  0  0  0  0  0  0  0  0  0  0
   33.0773   41.5016   28.1267 C   0  0  0  0  0  0  0  0  0  0  0  0
  1  2  2  0  0  0  0
  1  6  1  0  0  0  0
  2  3  1  0  0  0  0
  3  4  2  0  0  0  0
  4 14  1  0  0  0  0
  5  4  1  0  0  0  0
  6  5  1  0  0  0  0
  7  6  2  0  0  0  0
  8  9  1  0  0  0  0
  8  2  1  1  0  0  0
 10 19  1  0  0  0  0
 10  9  1  0  0  0  0
 11 10  1  0  0  0  0
 12 11  1  0  0  0  0
 12 13  1  0  0  0  0
 13  8  1  0  0  0  0
 14 15  1  0  0  0  0
 14 18  2  0  0  0  0
 15 16  1  0  0  0  0
 16 17  2  0  0  0  0
 18 17  1  0  0  0  0
 19 20  1  0  0  0  0
 20 25  2  0  0  0  0
 20 21  1  0  0  0  0
 21 22  2  0  0  0  0
 22 23  1  0  0  0  0
 23 26  1  0  0  0  0
 24 23  2  0  0  0  0
 25 24  1  0  0  0  0
 26 27  1  0  0  0  0
M  END
>  <CHROM.1>
178.61224010,-0.71433066,65.80497957,-91.72603445,58.21136465,28.69459461
39.18980350,23.14947211,-2.35019290,-1.06637350,-0.09706225

>  <Name>
lig.pdb

>  <RI>
0

>  <Rbt.Current_Directory>
/home/itssahil/PROJECTS/Mol_Feturizer/New_Systems/rnas/5kx9

>  <Rbt.Executable>
rbdock ($Id: //depot/dev/client3/rdock/2013.1/src/exe/rbdock.cxx#4 $)

>  <Rbt.Library>
libRbt.so (2013.1, Build901 2013/11/27)

>  <Rbt.Parameter_File>
/export/apps/rDock/src/rDock_2013.1_src/data/scripts/dock_solv.prm

>  <Rbt.Receptor>
prm/pocket_docking_5.prm

>  <SCORE>
-38.975

>  <SCORE.INTER>
-35.5232

>  <SCORE.INTER.CONST>
1

>  <SCORE.INTER.POLAR>
0

>  <SCORE.INTER.ROT>
5

>  <SCORE.INTER.SOLV>
16.8857

>  <SCORE.INTER.VDW>
-36.2441

>  <SCORE.INTER.norm>
-1.31567

>  <SCORE.INTRA>
-3.54424

>  <SCORE.INTRA.DIHEDRAL>
2.28138

>  <SCORE.INTRA.DIHEDRAL.0>
2.68224

>  <SCORE.INTRA.POLAR>
0

>  <SCORE.INTRA.POLAR.0>
0

>  <SCORE.INTRA.REPUL>
0

>  <SCORE.INTRA.REPUL.0>
0

>  <SCORE.INTRA.SOLV>
-0.643292

>  <SCORE.INTRA.SOLV.lig_0>
-19.4148

>  <SCORE.INTRA.VDW>
-4.36328

>  <SCORE.INTRA.VDW.0>
5.42093

>  <SCORE.INTRA.norm>
-0.131268

>  <SCORE.RESTR>
0.0924973

>  <SCORE.RESTR.CAVITY>
0.0924973

>  <SCORE.RESTR.norm>
0.00342583

>  <SCORE.SYSTEM>
0

>  <SCORE.SYSTEM.CONST>
0

>  <SCORE.SYSTEM.DIHEDRAL>
0

>  <SCORE.SYSTEM.SOLV>
0

>  <SCORE.SYSTEM.norm>
0

>  <SCORE.heavy>
27

>  <SCORE.norm>
-1.44352

>  <RMSD>
4.619

$$$$
lig.pdb
 OpenBabel11021811523D
libRbt.so/2013.1/901 2013/11/27
 27 30  0  0  0  0  0  0  0  0999 V2000
   29.2729   39.3289   19.5782 N   0  0  0  0  0  0  0  0  0  0  0  0
   29.2144   39.5024   20.8754 C   0  0  0  0  0  0  0  0  0  0  0  0
   28.5405   38.6982   21.7358 N   0  0  0  0  0  0  0  0  0  0  0  0
   27.9085   37.5930   21.2395 C   0  0  0  0  0  0  0  0  0  0  0  0
   27.9410   37.3185   19.9024 C   0  0  0  0  0  0  0  0  0  0  0  0
   28.6347   38.2234   19.0172 C   0  0  0  0  0  0  0  0  0  0  0  0
   28.6634   38.0704   17.7898 O   0  0  0  0  0  0  0  0  0  0  0  0
   29.7631   40.7668   21.5723 C   0  0  2  0  0  0  0  0  0  0  0  0
   29.0285   40.7323   22.9224 C   0  0  0  0  0  0  0  0  0  0  0  0
   29.2062   41.9792   23.6686 N   0  0  0  0  0  0  0  0  0  0  0  0
   28.6182   43.0877   22.8994 C   0  0  0  0  0  0  0  0  0  0  0  0
   29.3408   43.2703   21.5793 C   0  0  0  0  0  0  0  0  0  0  0  0
   29.3077   41.9893   20.7574 C   0  0  0  0  0  0  0  0  0  0  0  0
   27.2658   36.8039   22.2818 C   0  0  0  0  0  0  0  0  0  0  0  0
   26.7067   35.1996   21.9837 S   0  0  0  0  0  0  0  0  0  0  0  0
   26.1259   35.0449   23.5488 C   0  0  0  0  0  0  0  0  0  0  0  0
   26.3814   36.1323   24.2872 C   0  0  0  0  0  0  0  0  0  0  0  0
   27.0299   37.1586   23.5730 C   0  0  0  0  0  0  0  0  0  0  0  0
   28.6016   41.9091   25.0106 C   0  0  0  0  0  0  0  0  0  0  0  0
   29.3711   41.1051   26.0347 C   0  0  0  0  0  0  0  0  0  0  0  0
   28.9394   39.8470   26.4292 C   0  0  0  0  0  0  0  0  0  0  0  0
   29.3366   39.2274   27.5554 N   0  0  0  0  0  0  0  0  0  0  0  0
   30.1649   39.9399   28.3043 C   0  0  0  0  0  0  0  0  0  0  0  0
   30.6306   41.1589   28.0839 N   0  0  0  0  0  0  0  0  0  0  0  0
   30.1951   41.7272   26.9498 C   0  0  0  0  0  0  0  0  0  0  0  0
   30.5507   39.3240   29.4276 O   0  0  0  0  0  0  0  0  0  0  0  0
   31.9263   39.4438   29.8082 C   0  0  0  0  0  0  0  0  0  0  0  0
  1  2  2  0  0  0  0
  1  6  1  0  0  0  0
  2  3  1  0  0  0  0
  3  4  2  0  0  0  0
  4 14  1  0  0  0  0
  5  4  1  0  0  0  0
  6  5  1  0  0  0  0
  7  6  2  0  0  0  0
  8  9  1  0  0  0  0
  8  2  1  6  0  0  0
 10 19  1  0  0  0  0
 10  9  1  0  0  0  0
 11 10  1  0  0  0  0
 12 11  1  0  0  0  0
 12 13  1  0  0  0  0
 13  8  1  0  0  0  0
 14 15  1  0  0  0  0
 14 18  2  0  0  0  0
 15 16  1  0  0  0  0
 16 17  2  0  0  0  0
 18 17  1  0  0  0  0
 19 20  1  0  0  0  0
 20 25  2  0  0  0  0
 20 21  1  0  0  0  0
 21 22  2  0  0  0  0
 22 23  1  0  0  0  0
 23 26  1  0  0  0  0
 24 23  2  0  0  0  0
 25 24  1  0  0  0  0
 26 27  1  0  0  0  0
M  END
>  <CHROM.1>
-166.25207009,160.34521800,75.60735064,-105.49079709,138.60763656,28.76966635
39.25582697,23.53394167,-2.35993392,1.16173080,1.95136543

>  <Name>
lig.pdb

>  <RI>
0

>  <Rbt.Current_Directory>
/home/itssahil/PROJECTS/Mol_Feturizer/New_Systems/rnas/5kx9

>  <Rbt.Executable>
rbdock ($Id: //depot/dev/client3/rdock/2013.1/src/exe/rbdock.cxx#4 $)

>  <Rbt.Library>
libRbt.so (2013.1, Build901 2013/11/27)

>  <Rbt.Parameter_File>
/export/apps/rDock/src/rDock_2013.1_src/data/scripts/dock_solv.prm

>  <Rbt.Receptor>
prm/pocket_docking_7.prm

>  <SCORE>
-34.838

>  <SCORE.INTER>
-35.1303

>  <SCORE.INTER.CONST>
1

>  <SCORE.INTER.POLAR>
0

>  <SCORE.INTER.ROT>
5

>  <SCORE.INTER.SOLV>
14.5562

>  <SCORE.INTER.VDW>
-35.2056

>  <SCORE.INTER.norm>
-1.30112

>  <SCORE.INTRA>
0.292282

>  <SCORE.INTRA.DIHEDRAL>
1.93023

>  <SCORE.INTRA.DIHEDRAL.0>
2.68224

>  <SCORE.INTRA.POLAR>
0

>  <SCORE.INTRA.POLAR.0>
0

>  <SCORE.INTRA.REPUL>
0

>  <SCORE.INTRA.REPUL.0>
0

>  <SCORE.INTRA.SOLV>
-0.603736

>  <SCORE.INTRA.SOLV.lig_0>
-19.4148

>  <SCORE.INTRA.VDW>
-0.370964

>  <SCORE.INTRA.VDW.0>
5.42093

>  <SCORE.INTRA.norm>
0.0108252

>  <SCORE.RESTR>
0

>  <SCORE.RESTR.CAVITY>
0

>  <SCORE.RESTR.norm>
0

>  <SCORE.SYSTEM>
0

>  <SCORE.SYSTEM.CONST>
0

>  <SCORE.SYSTEM.DIHEDRAL>
0

>  <SCORE.SYSTEM.SOLV>
0

>  <SCORE.SYSTEM.norm>
0

>  <SCORE.heavy>
27

>  <SCORE.norm>
-1.2903

>  <RMSD>
4.632

$$$$
lig.pdb
 OpenBabel11021811523D
libRbt.so/2013.1/901 2013/11/27
 27 30  0  0  0  0  0  0  0  0999 V2000
   27.3378   38.2505   23.7165 N   0  0  0  0  0  0  0  0  0  0  0  0
   27.6317   38.4496   22.4554 C   0  0  0  0  0  0  0  0  0  0  0  0
   27.7401   37.4721   21.5206 N   0  0  0  0  0  0  0  0  0  0  0  0
   27.4810   36.1822   21.8898 C   0  0  0  0  0  0  0  0  0  0  0  0
   27.1395   35.8858   23.1782 C   0  0  0  0  0  0  0  0  0  0  0  0
   27.0764   36.9513   24.1499 C   0  0  0  0  0  0  0  0  0  0  0  0
   26.8259   36.7545   25.3455 O   0  0  0  0  0  0  0  0  0  0  0  0
   28.0765   39.8248   21.9108 C   0  0  2  0  0  0  0  0  0  0  0  0
   28.0880   40.6850   23.1849 C   0  0  0  0  0  0  0  0  0  0  0  0
   28.2467   42.1075   22.8775 N   0  0  0  0  0  0  0  0  0  0  0  0
   27.0961   42.5578   22.0778 C   0  0  0  0  0  0  0  0  0  0  0  0
   27.0484   41.8334   20.7470 C   0  0  0  0  0  0  0  0  0  0  0  0
   26.9862   40.3256   20.9484 C   0  0  0  0  0  0  0  0  0  0  0  0
   27.5945   35.2505   20.7757 C   0  0  0  0  0  0  0  0  0  0  0  0
   28.1912   35.7521   19.2371 S   0  0  0  0  0  0  0  0  0  0  0  0
   27.9818   34.2208   18.5874 C   0  0  0  0  0  0  0  0  0  0  0  0
   27.5281   33.3491   19.4970 C   0  0  0  0  0  0  0  0  0  0  0  0
   27.2917   33.9252   20.7605 C   0  0  0  0  0  0  0  0  0  0  0  0
   28.3739   42.9239   24.0977 C   0  0  0  0  0  0  0  0  0  0  0  0
   29.6157   42.6768   24.9248 C   0  0  0  0  0  0  0  0  0  0  0  0
   29.5997   41.7939   25.9948 C   0  0  0  0  0  0  0  0  0  0  0  0
   30.5171   41.7776   26.9787 N   0  0  0  0  0  0  0  0  0  0  0  0
   31.4446   42.7172   26.8722 C   0  0  0  0  0  0  0  0  0  0  0  0
   31.5684   43.6487   25.9403 N   0  0  0  0  0  0  0  0  0  0  0  0
   30.6219   43.6184   24.9905 C   0  0  0  0  0  0  0  0  0  0  0  0
   32.3500   42.7034   27.8571 O   0  0  0  0  0  0  0  0  0  0  0  0
   33.1326   41.5147   28.0190 C   0  0  0  0  0  0  0  0  0  0  0  0
  1  2  2  0  0  0  0
  1  6  1  0  0  0  0
  2  3  1  0  0  0  0
  3  4  2  0  0  0  0
  4 14  1  0  0  0  0
  5  4  1  0  0  0  0
  6  5  1  0  0  0  0
  7  6  2  0  0  0  0
  8  9  1  0  0  0  0
  8  2  1  1  0  0  0
 10 19  1  0  0  0  0
 10  9  1  0  0  0  0
 11 10  1  0  0  0  0
 12 11  1  0  0  0  0
 12 13  1  0  0  0  0
 13  8  1  0  0  0  0
 14 15  1  0  0  0  0
 14 18  2  0  0  0  0
 15 16  1  0  0  0  0
 16 17  2  0  0  0  0
 18 17  1  0  0  0  0
 19 20  1  0  0  0  0
 20 25  2  0  0  0  0
 20 21  1  0  0  0  0
 21 22  2  0  0  0  0
 22 23  1  0  0  0  0
 23 26  1  0  0  0  0
 24 23  2  0  0  0  0
 25 24  1  0  0  0  0
 26 27  1  0  0  0  0
M  END
>  <CHROM.1>
7.28018232,1.69357293,65.51181605,-94.56009716,60.15333236,28.62212025,39.26073051
23.14893648,-2.30585966,-1.04770927,0.00443640

>  <Name>
lig.pdb

>  <RI>
0

>  <Rbt.Current_Directory>
/home/itssahil/PROJECTS/Mol_Feturizer/New_Systems/rnas/5kx9

>  <Rbt.Executable>
rbdock ($Id: //depot/dev/client3/rdock/2013.1/src/exe/rbdock.cxx#4 $)

>  <Rbt.Library>
libRbt.so (2013.1, Build901 2013/11/27)

>  <Rbt.Parameter_File>
/export/apps/rDock/src/rDock_2013.1_src/data/scripts/dock_solv.prm

>  <Rbt.Receptor>
prm/pocket_docking_5.prm

>  <SCORE>
-39.2969

>  <SCORE.INTER>
-35.7706

>  <SCORE.INTER.CONST>
1

>  <SCORE.INTER.POLAR>
0

>  <SCORE.INTER.ROT>
5

>  <SCORE.INTER.SOLV>
16.8204

>  <SCORE.INTER.VDW>
-36.3872

>  <SCORE.INTER.norm>
-1.32484

>  <SCORE.INTRA>
-3.57501

>  <SCORE.INTRA.DIHEDRAL>
2.53357

>  <SCORE.INTRA.DIHEDRAL.0>
2.68224

>  <SCORE.INTRA.POLAR>
0

>  <SCORE.INTRA.POLAR.0>
0

>  <SCORE.INTRA.REPUL>
0

>  <SCORE.INTRA.REPUL.0>
0

>  <SCORE.INTRA.SOLV>
-0.615623

>  <SCORE.INTRA.SOLV.lig_0>
-19.4148

>  <SCORE.INTRA.VDW>
-4.53399

>  <SCORE.INTRA.VDW.0>
5.42093

>  <SCORE.INTRA.norm>
-0.132408

>  <SCORE.RESTR>
0.0486534

>  <SCORE.RESTR.CAVITY>
0.0486534

>  <SCORE.RESTR.norm>
0.00180198

>  <SCORE.SYSTEM>
0

>  <SCORE.SYSTEM.CONST>
0

>  <SCORE.SYSTEM.DIHEDRAL>
0

>  <SCORE.SYSTEM.SOLV>
0

>  <SCORE.SYSTEM.norm>
0

>  <SCORE.heavy>
27

>  <SCORE.norm>
-1.45544

>  <RMSD>
4.641

$$$$
lig.pdb
 OpenBabel11021811523D
libRbt.so/2013.1/901 2013/11/27
 27 30  0  0  0  0  0  0  0  0999 V2000
   29.1848   39.7216   19.2596 N   0  0  0  0  0  0  0  0  0  0  0  0
   29.1690   39.5800   20.5619 C   0  0  0  0  0  0  0  0  0  0  0  0
   28.6260   38.5255   21.2209 N   0  0  0  0  0  0  0  0  0  0  0  0
   28.0930   37.5014   20.4899 C   0  0  0  0  0  0  0  0  0  0  0  0
   28.0919   37.5517   19.1254 C   0  0  0  0  0  0  0  0  0  0  0  0
   28.6427   38.7116   18.4659 C   0  0  0  0  0  0  0  0  0  0  0  0
   28.6299   38.8532   17.2368 O   0  0  0  0  0  0  0  0  0  0  0  0
   29.6117   40.7015   21.5272 C   0  0  2  0  0  0  0  0  0  0  0  0
   28.6148   40.5382   22.6861 C   0  0  0  0  0  0  0  0  0  0  0  0
   28.6839   41.6608   23.6232 N   0  0  0  0  0  0  0  0  0  0  0  0
   28.3098   42.8981   22.9195 C   0  0  0  0  0  0  0  0  0  0  0  0
   29.2945   43.2048   21.8085 C   0  0  0  0  0  0  0  0  0  0  0  0
   29.3812   42.0488   20.8217 C   0  0  0  0  0  0  0  0  0  0  0  0
   27.5878   36.4226   21.3285 C   0  0  0  0  0  0  0  0  0  0  0  0
   27.1744   36.6835   22.9826 S   0  0  0  0  0  0  0  0  0  0  0  0
   26.7526   35.0748   23.1953 C   0  0  0  0  0  0  0  0  0  0  0  0
   26.8682   34.3731   22.0607 C   0  0  0  0  0  0  0  0  0  0  0  0
   27.3550   35.1300   20.9772 C   0  0  0  0  0  0  0  0  0  0  0  0
   27.8144   41.4545   24.7949 C   0  0  0  0  0  0  0  0  0  0  0  0
   28.5256   41.1314   26.0899 C   0  0  0  0  0  0  0  0  0  0  0  0
   29.3371   42.0675   26.7143 C   0  0  0  0  0  0  0  0  0  0  0  0
   30.2652   41.7689   27.6413 N   0  0  0  0  0  0  0  0  0  0  0  0
   30.3808   40.4743   27.8970 C   0  0  0  0  0  0  0  0  0  0  0  0
   29.7129   39.4668   27.3581 N   0  0  0  0  0  0  0  0  0  0  0  0
   28.8065   39.8260   26.4371 C   0  0  0  0  0  0  0  0  0  0  0  0
   31.3108   40.1805   28.8128 O   0  0  0  0  0  0  0  0  0  0  0  0
   32.5961   40.7966   28.6708 C   0  0  0  0  0  0  0  0  0  0  0  0
  1  2  2  0  0  0  0
  1  6  1  0  0  0  0
  2  3  1  0  0  0  0
  3  4  2  0  0  0  0
  4 14  1  0  0  0  0
  5  4  1  0  0  0  0
  6  5  1  0  0  0  0
  7  6  2  0  0  0  0
  8  9  1  0  0  0  0
  8  2  1  6  0  0  0
 10 19  1  0  0  0  0
 10  9  1  0  0  0  0
 11 10  1  0  0  0  0
 12 11  1  0  0  0  0
 12 13  1  0  0  0  0
 13  8  1  0  0  0  0
 14 15  1  0  0  0  0
 14 18  2  0  0  0  0
 15 16  1  0  0  0  0
 16 17  2  0  0  0  0
 18 17  1  0  0  0  0
 19 20  1  0  0  0  0
 20 25  2  0  0  0  0
 20 21  1  0  0  0  0
 21 22  2  0  0  0  0
 22 23  1  0  0  0  0
 23 26  1  0  0  0  0
 24 23  2  0  0  0  0
 25 24  1  0  0  0  0
 26 27  1  0  0  0  0
M  END
>  <CHROM.1>
21.46139824,142.83553226,107.00891508,66.69326065,-47.32700743,28.80289792
39.40792154,23.15873090,-2.51267281,1.23190154,2.03681928

>  <Name>
lig.pdb

>  <RI>
0

>  <Rbt.Current_Directory>
/home/itssahil/PROJECTS/Mol_Feturizer/New_Systems/rnas/5kx9

>  <Rbt.Executable>
rbdock ($Id: //depot/dev/client3/rdock/2013.1/src/exe/rbdock.cxx#4 $)

>  <Rbt.Library>
libRbt.so (2013.1, Build901 2013/11/27)

>  <Rbt.Parameter_File>
/export/apps/rDock/src/rDock_2013.1_src/data/scripts/dock_solv.prm

>  <Rbt.Receptor>
prm/blind_docking_100.prm

>  <SCORE>
-34.4569

>  <SCORE.INTER>
-34.6193

>  <SCORE.INTER.CONST>
1

>  <SCORE.INTER.POLAR>
0

>  <SCORE.INTER.ROT>
5

>  <SCORE.INTER.SOLV>
14.1391

>  <SCORE.INTER.VDW>
-34.7259

>  <SCORE.INTER.norm>
-1.2822

>  <SCORE.INTRA>
0.162407

>  <SCORE.INTRA.DIHEDRAL>
5.81612

>  <SCORE.INTRA.DIHEDRAL.0>
2.68224

>  <SCORE.INTRA.POLAR>
0

>  <SCORE.INTRA.POLAR.0>
0

>  <SCORE.INTRA.REPUL>
0

>  <SCORE.INTRA.REPUL.0>
0

>  <SCORE.INTRA.SOLV>
-0.459326

>  <SCORE.INTRA.SOLV.lig_0>
-19.4148

>  <SCORE.INTRA.VDW>
-2.51599

>  <SCORE.INTRA.VDW.0>
5.42093

>  <SCORE.INTRA.norm>
0.00601508

>  <SCORE.RESTR>
0

>  <SCORE.RESTR.CAVITY>
0

>  <SCORE.RESTR.norm>
0

>  <SCORE.SYSTEM>
0

>  <SCORE.SYSTEM.CONST>
0

>  <SCORE.SYSTEM.DIHEDRAL>
0

>  <SCORE.SYSTEM.SOLV>
0

>  <SCORE.SYSTEM.norm>
0

>  <SCORE.heavy>
27

>  <SCORE.norm>
-1.27618

>  <RMSD>
4.686

$$$$
lig.pdb
 OpenBabel11021811523D
libRbt.so/2013.1/901 2013/11/27
 27 30  0  0  0  0  0  0  0  0999 V2000
   27.3996   38.3712   23.8228 N   0  0  0  0  0  0  0  0  0  0  0  0
   27.9688   38.5566   22.6575 C   0  0  0  0  0  0  0  0  0  0  0  0
   28.0768   37.6133   21.6883 N   0  0  0  0  0  0  0  0  0  0  0  0
   27.5152   36.3864   21.9040 C   0  0  0  0  0  0  0  0  0  0  0  0
   26.8766   36.1140   23.0798 C   0  0  0  0  0  0  0  0  0  0  0  0
   26.8213   37.1333   24.1004 C   0  0  0  0  0  0  0  0  0  0  0  0
   26.3071   36.9441   25.2097 O   0  0  0  0  0  0  0  0  0  0  0  0
   28.7598   39.8372   22.3111 C   0  0  2  0  0  0  0  0  0  0  0  0
   28.2994   40.8055   23.4129 C   0  0  0  0  0  0  0  0  0  0  0  0
   28.7359   42.1773   23.1465 N   0  0  0  0  0  0  0  0  0  0  0  0
   28.1192   42.6434   21.8941 C   0  0  0  0  0  0  0  0  0  0  0  0
   28.5878   41.8076   20.7193 C   0  0  0  0  0  0  0  0  0  0  0  0
   28.2747   40.3340   20.9386 C   0  0  0  0  0  0  0  0  0  0  0  0
   27.6720   35.4937   20.7635 C   0  0  0  0  0  0  0  0  0  0  0  0
   27.3094   33.8113   20.8778 S   0  0  0  0  0  0  0  0  0  0  0  0
   27.7526   33.5441   19.2831 C   0  0  0  0  0  0  0  0  0  0  0  0
   28.1132   34.6772   18.6675 C   0  0  0  0  0  0  0  0  0  0  0  0
   28.0807   35.8087   19.5056 C   0  0  0  0  0  0  0  0  0  0  0  0
   28.3974   43.0880   24.2544 C   0  0  0  0  0  0  0  0  0  0  0  0
   29.3734   43.1056   25.4096 C   0  0  0  0  0  0  0  0  0  0  0  0
   30.6368   43.6619   25.2715 C   0  0  0  0  0  0  0  0  0  0  0  0
   31.6696   43.4131   26.0969 N   0  0  0  0  0  0  0  0  0  0  0  0
   31.3992   42.5431   27.0584 C   0  0  0  0  0  0  0  0  0  0  0  0
   30.2650   41.9028   27.2930 N   0  0  0  0  0  0  0  0  0  0  0  0
   29.2747   42.1871   26.4343 C   0  0  0  0  0  0  0  0  0  0  0  0
   32.4313   42.2915   27.8718 O   0  0  0  0  0  0  0  0  0  0  0  0
   33.6230   41.7586   27.2821 C   0  0  0  0  0  0  0  0  0  0  0  0
  1  2  2  0  0  0  0
  1  6  1  0  0  0  0
  2  3  1  0  0  0  0
  3  4  2  0  0  0  0
  4 14  1  0  0  0  0
  5  4  1  0  0  0  0
  6  5  1  0  0  0  0
  7  6  2  0  0  0  0
  8  9  1  0  0  0  0
  8  2  1  1  0  0  0
 10 19  1  0  0  0  0
 10  9  1  0  0  0  0
 11 10  1  0  0  0  0
 12 11  1  0  0  0  0
 12 13  1  0  0  0  0
 13  8  1  0  0  0  0
 14 15  1  0  0  0  0
 14 18  2  0  0  0  0
 15 16  1  0  0  0  0
 16 17  2  0  0  0  0
 18 17  1  0  0  0  0
 19 20  1  0  0  0  0
 20 25  2  0  0  0  0
 20 21  1  0  0  0  0
 21 22  2  0  0  0  0
 22 23  1  0  0  0  0
 23 26  1  0  0  0  0
 24 23  2  0  0  0  0
 25 24  1  0  0  0  0
 26 27  1  0  0  0  0
M  END
>  <CHROM.1>
168.84876497,-16.26086220,83.29510790,70.32766169,-59.40353195,28.76472897
39.26045305,23.30833488,-2.61546150,-1.16640892,-0.39013379

>  <Name>
lig.pdb

>  <RI>
0

>  <Rbt.Current_Directory>
/home/itssahil/PROJECTS/Mol_Feturizer/New_Systems/rnas/5kx9

>  <Rbt.Executable>
rbdock ($Id: //depot/dev/client3/rdock/2013.1/src/exe/rbdock.cxx#4 $)

>  <Rbt.Library>
libRbt.so (2013.1, Build901 2013/11/27)

>  <Rbt.Parameter_File>
/export/apps/rDock/src/rDock_2013.1_src/data/scripts/dock_solv.prm

>  <Rbt.Receptor>
prm/pocket_docking_6.prm

>  <SCORE>
-42.5987

>  <SCORE.INTER>
-39.6454

>  <SCORE.INTER.CONST>
1

>  <SCORE.INTER.POLAR>
0

>  <SCORE.INTER.ROT>
5

>  <SCORE.INTER.SOLV>
17.7107

>  <SCORE.INTER.VDW>
-39.2672

>  <SCORE.INTER.norm>
-1.46835

>  <SCORE.INTRA>
-2.95324

>  <SCORE.INTRA.DIHEDRAL>
4.27201

>  <SCORE.INTRA.DIHEDRAL.0>
2.68224

>  <SCORE.INTRA.POLAR>
0

>  <SCORE.INTRA.POLAR.0>
0

>  <SCORE.INTRA.REPUL>
0

>  <SCORE.INTRA.REPUL.0>
0

>  <SCORE.INTRA.SOLV>
-0.561712

>  <SCORE.INTRA.SOLV.lig_0>
-19.4148

>  <SCORE.INTRA.VDW>
-4.80839

>  <SCORE.INTRA.VDW.0>
5.42093

>  <SCORE.INTRA.norm>
-0.109379

>  <SCORE.RESTR>
0

>  <SCORE.RESTR.CAVITY>
0

>  <SCORE.RESTR.norm>
0

>  <SCORE.SYSTEM>
0

>  <SCORE.SYSTEM.CONST>
0

>  <SCORE.SYSTEM.DIHEDRAL>
0

>  <SCORE.SYSTEM.SOLV>
0

>  <SCORE.SYSTEM.norm>
0

>  <SCORE.heavy>
27

>  <SCORE.norm>
-1.57773

>  <RMSD>
4.707

$$$$
lig.pdb
 OpenBabel11021811523D
libRbt.so/2013.1/901 2013/11/27
 27 30  0  0  0  0  0  0  0  0999 V2000
   27.3933   38.3737   23.8244 N   0  0  0  0  0  0  0  0  0  0  0  0
   27.9609   38.5573   22.6581 C   0  0  0  0  0  0  0  0  0  0  0  0
   28.0627   37.6140   21.6880 N   0  0  0  0  0  0  0  0  0  0  0  0
   27.4961   36.3896   21.9042 C   0  0  0  0  0  0  0  0  0  0  0  0
   26.8588   36.1192   23.0811 C   0  0  0  0  0  0  0  0  0  0  0  0
   26.8101   37.1382   24.1024 C   0  0  0  0  0  0  0  0  0  0  0  0
   26.2974   36.9506   25.2127 O   0  0  0  0  0  0  0  0  0  0  0  0
   28.7569   39.8346   22.3108 C   0  0  2  0  0  0  0  0  0  0  0  0
   28.3045   40.8036   23.4152 C   0  0  0  0  0  0  0  0  0  0  0  0
   28.7467   42.1737   23.1492 N   0  0  0  0  0  0  0  0  0  0  0  0
   28.1283   42.6442   21.8992 C   0  0  0  0  0  0  0  0  0  0  0  0
   28.5893   41.8077   20.7220 C   0  0  0  0  0  0  0  0  0  0  0  0
   28.2699   40.3353   20.9404 C   0  0  0  0  0  0  0  0  0  0  0  0
   27.6465   35.4969   20.7628 C   0  0  0  0  0  0  0  0  0  0  0  0
   27.2724   33.8169   20.8756 S   0  0  0  0  0  0  0  0  0  0  0  0
   27.7134   33.5482   19.2806 C   0  0  0  0  0  0  0  0  0  0  0  0
   28.0818   34.6793   18.6659 C   0  0  0  0  0  0  0  0  0  0  0  0
   28.0573   35.8103   19.5052 C   0  0  0  0  0  0  0  0  0  0  0  0
   28.4159   43.0845   24.2593 C   0  0  0  0  0  0  0  0  0  0  0  0
   29.3934   43.0929   25.4133 C   0  0  0  0  0  0  0  0  0  0  0  0
   30.6556   43.6529   25.2790 C   0  0  0  0  0  0  0  0  0  0  0  0
   31.6899   43.3981   26.1006 N   0  0  0  0  0  0  0  0  0  0  0  0
   31.4223   42.5185   27.0542 C   0  0  0  0  0  0  0  0  0  0  0  0
   30.2896   41.8739   27.2841 N   0  0  0  0  0  0  0  0  0  0  0  0
   29.2977   42.1645   26.4293 C   0  0  0  0  0  0  0  0  0  0  0  0
   32.4559   42.2610   27.8638 O   0  0  0  0  0  0  0  0  0  0  0  0
   33.6429   41.7228   27.2696 C   0  0  0  0  0  0  0  0  0  0  0  0
  1  2  2  0  0  0  0
  1  6  1  0  0  0  0
  2  3  1  0  0  0  0
  3  4  2  0  0  0  0
  4 14  1  0  0  0  0
  5  4  1  0  0  0  0
  6  5  1  0  0  0  0
  7  6  2  0  0  0  0
  8  9  1  0  0  0  0
  8  2  1  1  0  0  0
 10 19  1  0  0  0  0
 10  9  1  0  0  0  0
 11 10  1  0  0  0  0
 12 11  1  0  0  0  0
 12 13  1  0  0  0  0
 13  8  1  0  0  0  0
 14 15  1  0  0  0  0
 14 18  2  0  0  0  0
 15 16  1  0  0  0  0
 16 17  2  0  0  0  0
 18 17  1  0  0  0  0
 19 20  1  0  0  0  0
 20 25  2  0  0  0  0
 20 21  1  0  0  0  0
 21 22  2  0  0  0  0
 22 23  1  0  0  0  0
 23 26  1  0  0  0  0
 24 23  2  0  0  0  0
 25 24  1  0  0  0  0
 26 27  1  0  0  0  0
M  END
>  <CHROM.1>
169.02841911,-16.18959557,83.11542921,70.99786837,-60.04800056,28.76222107
39.25528189,23.30804314,-2.62138037,-1.16152995,-0.39410634

>  <Name>
lig.pdb

>  <RI>
0

>  <Rbt.Current_Directory>
/home/itssahil/PROJECTS/Mol_Feturizer/New_Systems/rnas/5kx9

>  <Rbt.Executable>
rbdock ($Id: //depot/dev/client3/rdock/2013.1/src/exe/rbdock.cxx#4 $)

>  <Rbt.Library>
libRbt.so (2013.1, Build901 2013/11/27)

>  <Rbt.Parameter_File>
/export/apps/rDock/src/rDock_2013.1_src/data/scripts/dock_solv.prm

>  <Rbt.Receptor>
prm/pocket_docking_8.prm

>  <SCORE>
-42.553

>  <SCORE.INTER>
-39.5927

>  <SCORE.INTER.CONST>
1

>  <SCORE.INTER.POLAR>
0

>  <SCORE.INTER.ROT>
5

>  <SCORE.INTER.SOLV>
17.5867

>  <SCORE.INTER.VDW>
-39.1907

>  <SCORE.INTER.norm>
-1.46639

>  <SCORE.INTRA>
-2.9603

>  <SCORE.INTRA.DIHEDRAL>
4.29953

>  <SCORE.INTRA.DIHEDRAL.0>
2.68224

>  <SCORE.INTRA.POLAR>
0

>  <SCORE.INTRA.POLAR.0>
0

>  <SCORE.INTRA.REPUL>
0

>  <SCORE.INTRA.REPUL.0>
0

>  <SCORE.INTRA.SOLV>
-0.561592

>  <SCORE.INTRA.SOLV.lig_0>
-19.4148

>  <SCORE.INTRA.VDW>
-4.82927

>  <SCORE.INTRA.VDW.0>
5.42093

>  <SCORE.INTRA.norm>
-0.109641

>  <SCORE.RESTR>
0

>  <SCORE.RESTR.CAVITY>
0

>  <SCORE.RESTR.norm>
0

>  <SCORE.SYSTEM>
0

>  <SCORE.SYSTEM.CONST>
0

>  <SCORE.SYSTEM.DIHEDRAL>
0

>  <SCORE.SYSTEM.SOLV>
0

>  <SCORE.SYSTEM.norm>
0

>  <SCORE.heavy>
27

>  <SCORE.norm>
-1.57604

>  <RMSD>
4.711

$$$$
lig.pdb
 OpenBabel11021811523D
libRbt.so/2013.1/901 2013/11/27
 27 30  0  0  0  0  0  0  0  0999 V2000
   27.3317   38.5523   24.1559 N   0  0  0  0  0  0  0  0  0  0  0  0
   27.8198   38.6476   22.9439 C   0  0  0  0  0  0  0  0  0  0  0  0
   27.8750   37.6303   22.0478 N   0  0  0  0  0  0  0  0  0  0  0  0
   27.3446   36.4206   22.3979 C   0  0  0  0  0  0  0  0  0  0  0  0
   26.7892   36.2389   23.6319 C   0  0  0  0  0  0  0  0  0  0  0  0
   26.7889   37.3364   24.5695 C   0  0  0  0  0  0  0  0  0  0  0  0
   26.3520   37.2332   25.7224 O   0  0  0  0  0  0  0  0  0  0  0  0
   28.5697   39.9021   22.4442 C   0  0  2  0  0  0  0  0  0  0  0  0
   28.3491   40.8891   23.6020 C   0  0  0  0  0  0  0  0  0  0  0  0
   28.7683   42.2458   23.2455 N   0  0  0  0  0  0  0  0  0  0  0  0
   27.9443   42.7243   22.1238 C   0  0  0  0  0  0  0  0  0  0  0  0
   28.1632   41.8691   20.8913 C   0  0  0  0  0  0  0  0  0  0  0  0
   27.8536   40.4067   21.1798 C   0  0  0  0  0  0  0  0  0  0  0  0
   27.4366   35.4405   21.3241 C   0  0  0  0  0  0  0  0  0  0  0  0
   28.0106   35.8713   19.7557 S   0  0  0  0  0  0  0  0  0  0  0  0
   27.7848   34.3139   19.1773 C   0  0  0  0  0  0  0  0  0  0  0  0
   27.3423   33.4851   20.1314 C   0  0  0  0  0  0  0  0  0  0  0  0
   27.1284   34.1171   21.3719 C   0  0  0  0  0  0  0  0  0  0  0  0
   28.6670   43.1715   24.3874 C   0  0  0  0  0  0  0  0  0  0  0  0
   29.3725   42.7328   25.6512 C   0  0  0  0  0  0  0  0  0  0  0  0
   30.7289   42.9619   25.8307 C   0  0  0  0  0  0  0  0  0  0  0  0
   31.4957   42.3140   26.7264 N   0  0  0  0  0  0  0  0  0  0  0  0
   30.8540   41.3861   27.4204 C   0  0  0  0  0  0  0  0  0  0  0  0
   29.5831   41.0269   27.3347 N   0  0  0  0  0  0  0  0  0  0  0  0
   28.8715   41.7034   26.4211 C   0  0  0  0  0  0  0  0  0  0  0  0
   31.6218   40.7378   28.3038 O   0  0  0  0  0  0  0  0  0  0  0  0
   32.6085   41.5013   29.0076 C   0  0  0  0  0  0  0  0  0  0  0  0
  1  2  2  0  0  0  0
  1  6  1  0  0  0  0
  2  3  1  0  0  0  0
  3  4  2  0  0  0  0
  4 14  1  0  0  0  0
  5  4  1  0  0  0  0
  6  5  1  0  0  0  0
  7  6  2  0  0  0  0
  8  9  1  0  0  0  0
  8  2  1  1  0  0  0
 10 19  1  0  0  0  0
 10  9  1  0  0  0  0
 11 10  1  0  0  0  0
 12 11  1  0  0  0  0
 12 13  1  0  0  0  0
 13  8  1  0  0  0  0
 14 15  1  0  0  0  0
 14 18  2  0  0  0  0
 15 16  1  0  0  0  0
 16 17  2  0  0  0  0
 18 17  1  0  0  0  0
 19 20  1  0  0  0  0
 20 25  2  0  0  0  0
 20 21  1  0  0  0  0
 21 22  2  0  0  0  0
 22 23  1  0  0  0  0
 23 26  1  0  0  0  0
 24 23  2  0  0  0  0
 25 24  1  0  0  0  0
 26 27  1  0  0  0  0
M  END
>  <CHROM.1>
-5.91577695,-7.96357569,53.20265988,83.54004766,38.09652924,28.57295838,39.17691455
23.63864542,-2.75673786,-1.21058611,-0.43267149

>  <Name>
lig.pdb

>  <RI>
0

>  <Rbt.Current_Directory>
/home/itssahil/PROJECTS/Mol_Feturizer/New_Systems/rnas/5kx9

>  <Rbt.Executable>
rbdock ($Id: //depot/dev/client3/rdock/2013.1/src/exe/rbdock.cxx#4 $)

>  <Rbt.Library>
libRbt.so (2013.1, Build901 2013/11/27)

>  <Rbt.Parameter_File>
/export/apps/rDock/src/rDock_2013.1_src/data/scripts/dock_solv.prm

>  <Rbt.Receptor>
prm/blind_docking_80.prm

>  <SCORE>
-41.6737

>  <SCORE.INTER>
-39.6425

>  <SCORE.INTER.CONST>
1

>  <SCORE.INTER.POLAR>
0

>  <SCORE.INTER.ROT>
5

>  <SCORE.INTER.SOLV>
16.1436

>  <SCORE.INTER.VDW>
-38.7429

>  <SCORE.INTER.norm>
-1.46824

>  <SCORE.INTRA>
-2.04833

>  <SCORE.INTRA.DIHEDRAL>
1.46523

>  <SCORE.INTRA.DIHEDRAL.0>
2.68224

>  <SCORE.INTRA.POLAR>
0

>  <SCORE.INTRA.POLAR.0>
0

>  <SCORE.INTRA.REPUL>
0

>  <SCORE.INTRA.REPUL.0>
0

>  <SCORE.INTRA.SOLV>
-0.384012

>  <SCORE.INTRA.SOLV.lig_0>
-19.4148

>  <SCORE.INTRA.VDW>
-2.58894

>  <SCORE.INTRA.VDW.0>
5.42093

>  <SCORE.INTRA.norm>
-0.0758642

>  <SCORE.RESTR>
0.0171101

>  <SCORE.RESTR.CAVITY>
0.0171101

>  <SCORE.RESTR.norm>
0.000633706

>  <SCORE.SYSTEM>
0

>  <SCORE.SYSTEM.CONST>
0

>  <SCORE.SYSTEM.DIHEDRAL>
0

>  <SCORE.SYSTEM.SOLV>
0

>  <SCORE.SYSTEM.norm>
0

>  <SCORE.heavy>
27

>  <SCORE.norm>
-1.54347

>  <RMSD>
4.765

$$$$
lig.pdb
 OpenBabel11021811523D
libRbt.so/2013.1/901 2013/11/27
 27 30  0  0  0  0  0  0  0  0999 V2000
   27.1973   38.6714   24.3621 N   0  0  0  0  0  0  0  0  0  0  0  0
   27.7420   38.6911   23.1708 C   0  0  0  0  0  0  0  0  0  0  0  0
   27.8036   37.6290   22.3286 N   0  0  0  0  0  0  0  0  0  0  0  0
   27.2182   36.4553   22.7119 C   0  0  0  0  0  0  0  0  0  0  0  0
   26.6024   36.3526   23.9262 C   0  0  0  0  0  0  0  0  0  0  0  0
   26.5965   37.4951   24.8085 C   0  0  0  0  0  0  0  0  0  0  0  0
   26.1053   37.4630   25.9436 O   0  0  0  0  0  0  0  0  0  0  0  0
   28.5547   39.8952   22.6462 C   0  0  2  0  0  0  0  0  0  0  0  0
   28.2497   40.9711   23.7012 C   0  0  0  0  0  0  0  0  0  0  0  0
   28.7220   42.2917   23.2814 N   0  0  0  0  0  0  0  0  0  0  0  0
   28.0088   42.6905   22.0572 C   0  0  0  0  0  0  0  0  0  0  0  0
   28.3211   41.7404   20.9180 C   0  0  0  0  0  0  0  0  0  0  0  0
   27.9621   40.3079   21.2881 C   0  0  0  0  0  0  0  0  0  0  0  0
   27.3255   35.4204   21.6922 C   0  0  0  0  0  0  0  0  0  0  0  0
   27.8388   35.7854   20.0865 S   0  0  0  0  0  0  0  0  0  0  0  0
   27.6673   34.1894   19.6026 C   0  0  0  0  0  0  0  0  0  0  0  0
   27.2871   33.3981   20.6136 C   0  0  0  0  0  0  0  0  0  0  0  0
   27.0778   34.0899   21.8225 C   0  0  0  0  0  0  0  0  0  0  0  0
   28.5361   43.3040   24.3358 C   0  0  0  0  0  0  0  0  0  0  0  0
   29.5208   43.2444   25.4822 C   0  0  0  0  0  0  0  0  0  0  0  0
   30.8026   43.7590   25.3529 C   0  0  0  0  0  0  0  0  0  0  0  0
   31.8318   43.4431   26.1597 N   0  0  0  0  0  0  0  0  0  0  0  0
   31.5369   42.5496   27.0919 C   0  0  0  0  0  0  0  0  0  0  0  0
   30.3818   41.9429   27.3135 N   0  0  0  0  0  0  0  0  0  0  0  0
   29.3962   42.2938   26.4743 C   0  0  0  0  0  0  0  0  0  0  0  0
   32.5652   42.2314   27.8866 O   0  0  0  0  0  0  0  0  0  0  0  0
   33.7837   41.8179   27.2573 C   0  0  0  0  0  0  0  0  0  0  0  0
  1  2  2  0  0  0  0
  1  6  1  0  0  0  0
  2  3  1  0  0  0  0
  3  4  2  0  0  0  0
  4 14  1  0  0  0  0
  5  4  1  0  0  0  0
  6  5  1  0  0  0  0
  7  6  2  0  0  0  0
  8  9  1  0  0  0  0
  8  2  1  1  0  0  0
 10 19  1  0  0  0  0
 10  9  1  0  0  0  0
 11 10  1  0  0  0  0
 12 11  1  0  0  0  0
 12 13  1  0  0  0  0
 13  8  1  0  0  0  0
 14 15  1  0  0  0  0
 14 18  2  0  0  0  0
 15 16  1  0  0  0  0
 16 17  2  0  0  0  0
 18 17  1  0  0  0  0
 19 20  1  0  0  0  0
 20 25  2  0  0  0  0
 20 21  1  0  0  0  0
 21 22  2  0  0  0  0
 22 23  1  0  0  0  0
 23 26  1  0  0  0  0
 24 23  2  0  0  0  0
 25 24  1  0  0  0  0
 26 27  1  0  0  0  0
M  END
>  <CHROM.1>
-11.95406974,-11.10212441,75.82080108,78.63445616,-52.62009688,28.68519088
39.43521316,23.66106112,-2.69649291,-1.12572838,-0.49638081

>  <Name>
lig.pdb

>  <RI>
0

>  <Rbt.Current_Directory>
/home/itssahil/PROJECTS/Mol_Feturizer/New_Systems/rnas/5kx9

>  <Rbt.Executable>
rbdock ($Id: //depot/dev/client3/rdock/2013.1/src/exe/rbdock.cxx#4 $)

>  <Rbt.Library>
libRbt.so (2013.1, Build901 2013/11/27)

>  <Rbt.Parameter_File>
/export/apps/rDock/src/rDock_2013.1_src/data/scripts/dock_solv.prm

>  <Rbt.Receptor>
prm/pocket_docking_8.prm

>  <SCORE>
-43.9639

>  <SCORE.INTER>
-41.0126

>  <SCORE.INTER.CONST>
1

>  <SCORE.INTER.POLAR>
0

>  <SCORE.INTER.ROT>
5

>  <SCORE.INTER.SOLV>
18.1554

>  <SCORE.INTER.VDW>
-40.3269

>  <SCORE.INTER.norm>
-1.51899

>  <SCORE.INTRA>
-2.95122

>  <SCORE.INTRA.DIHEDRAL>
3.48554

>  <SCORE.INTRA.DIHEDRAL.0>
2.68224

>  <SCORE.INTRA.POLAR>
0

>  <SCORE.INTRA.POLAR.0>
0

>  <SCORE.INTRA.REPUL>
0

>  <SCORE.INTRA.REPUL.0>
0

>  <SCORE.INTRA.SOLV>
-0.473953

>  <SCORE.INTRA.SOLV.lig_0>
-19.4148

>  <SCORE.INTRA.VDW>
-4.45701

>  <SCORE.INTRA.VDW.0>
5.42093

>  <SCORE.INTRA.norm>
-0.109304

>  <SCORE.RESTR>
0

>  <SCORE.RESTR.CAVITY>
0

>  <SCORE.RESTR.norm>
0

>  <SCORE.SYSTEM>
0

>  <SCORE.SYSTEM.CONST>
0

>  <SCORE.SYSTEM.DIHEDRAL>
0

>  <SCORE.SYSTEM.SOLV>
0

>  <SCORE.SYSTEM.norm>
0

>  <SCORE.heavy>
27

>  <SCORE.norm>
-1.62829

>  <RMSD>
4.771

$$$$
lig.pdb
 OpenBabel11021811523D
libRbt.so/2013.1/901 2013/11/27
 27 30  0  0  0  0  0  0  0  0999 V2000
   27.1696   38.1699   23.6917 N   0  0  0  0  0  0  0  0  0  0  0  0
   27.5593   38.4454   22.4717 C   0  0  0  0  0  0  0  0  0  0  0  0
   27.7483   37.5262   21.4917 N   0  0  0  0  0  0  0  0  0  0  0  0
   27.4718   36.2156   21.7619 C   0  0  0  0  0  0  0  0  0  0  0  0
   27.0332   35.8411   22.9996 C   0  0  0  0  0  0  0  0  0  0  0  0
   26.8857   36.8462   24.0252 C   0  0  0  0  0  0  0  0  0  0  0  0
   26.5443   36.5770   25.1835 O   0  0  0  0  0  0  0  0  0  0  0  0
   28.0340   39.8523   22.0466 C   0  0  2  0  0  0  0  0  0  0  0  0
   28.0338   40.6082   23.3853 C   0  0  0  0  0  0  0  0  0  0  0  0
   28.2187   42.0480   23.1953 N   0  0  0  0  0  0  0  0  0  0  0  0
   27.0900   42.5786   22.4138 C   0  0  0  0  0  0  0  0  0  0  0  0
   27.0570   41.9632   21.0288 C   0  0  0  0  0  0  0  0  0  0  0  0
   26.9694   40.4454   21.1080 C   0  0  0  0  0  0  0  0  0  0  0  0
   27.6794   35.3529   20.6066 C   0  0  0  0  0  0  0  0  0  0  0  0
   27.3514   33.6608   20.6733 S   0  0  0  0  0  0  0  0  0  0  0  0
   27.8437   33.4398   19.0860 C   0  0  0  0  0  0  0  0  0  0  0  0
   28.1957   34.5942   18.5060 C   0  0  0  0  0  0  0  0  0  0  0  0
   28.1152   35.7053   19.3679 C   0  0  0  0  0  0  0  0  0  0  0  0
   28.3345   42.7626   24.4787 C   0  0  0  0  0  0  0  0  0  0  0  0
   29.4862   42.3391   25.3629 C   0  0  0  0  0  0  0  0  0  0  0  0
   29.3052   41.4139   26.3807 C   0  0  0  0  0  0  0  0  0  0  0  0
   30.1502   41.2484   27.4144 N   0  0  0  0  0  0  0  0  0  0  0  0
   31.1794   42.0821   27.4136 C   0  0  0  0  0  0  0  0  0  0  0  0
   31.4636   43.0369   26.5424 N   0  0  0  0  0  0  0  0  0  0  0  0
   30.5826   43.1578   25.5384 C   0  0  0  0  0  0  0  0  0  0  0  0
   32.0126   41.9204   28.4479 O   0  0  0  0  0  0  0  0  0  0  0  0
   33.4135   42.0878   28.2006 C   0  0  0  0  0  0  0  0  0  0  0  0
  1  2  2  0  0  0  0
  1  6  1  0  0  0  0
  2  3  1  0  0  0  0
  3  4  2  0  0  0  0
  4 14  1  0  0  0  0
  5  4  1  0  0  0  0
  6  5  1  0  0  0  0
  7  6  2  0  0  0  0
  8  9  1  0  0  0  0
  8  2  1  1  0  0  0
 10 19  1  0  0  0  0
 10  9  1  0  0  0  0
 11 10  1  0  0  0  0
 12 11  1  0  0  0  0
 12 13  1  0  0  0  0
 13  8  1  0  0  0  0
 14 15  1  0  0  0  0
 14 18  2  0  0  0  0
 15 16  1  0  0  0  0
 16 17  2  0  0  0  0
 18 17  1  0  0  0  0
 19 20  1  0  0  0  0
 20 25  2  0  0  0  0
 20 21  1  0  0  0  0
 21 22  2  0  0  0  0
 22 23  1  0  0  0  0
 23 26  1  0  0  0  0
 24 23  2  0  0  0  0
 25 24  1  0  0  0  0
 26 27  1  0  0  0  0
M  END
>  <CHROM.1>
-178.01962015,5.50893941,60.07527165,-96.07412668,142.83013813,28.52008072
39.04195771,23.37504526,-2.24034082,-1.02174301,0.09607109

>  <Name>
lig.pdb

>  <RI>
0

>  <Rbt.Current_Directory>
/home/itssahil/PROJECTS/Mol_Feturizer/New_Systems/rnas/5kx9

>  <Rbt.Executable>
rbdock ($Id: //depot/dev/client3/rdock/2013.1/src/exe/rbdock.cxx#4 $)

>  <Rbt.Library>
libRbt.so (2013.1, Build901 2013/11/27)

>  <Rbt.Parameter_File>
/export/apps/rDock/src/rDock_2013.1_src/data/scripts/dock_solv.prm

>  <Rbt.Receptor>
prm/pocket_docking_5.prm

>  <SCORE>
-39.8685

>  <SCORE.INTER>
-36.4381

>  <SCORE.INTER.CONST>
1

>  <SCORE.INTER.POLAR>
0

>  <SCORE.INTER.ROT>
5

>  <SCORE.INTER.SOLV>
17.1889

>  <SCORE.INTER.VDW>
-36.955

>  <SCORE.INTER.norm>
-1.34956

>  <SCORE.INTRA>
-3.84727

>  <SCORE.INTRA.DIHEDRAL>
0.552667

>  <SCORE.INTRA.DIHEDRAL.0>
2.68224

>  <SCORE.INTRA.POLAR>
0

>  <SCORE.INTRA.POLAR.0>
0

>  <SCORE.INTRA.REPUL>
0

>  <SCORE.INTRA.REPUL.0>
0

>  <SCORE.INTRA.SOLV>
-0.637269

>  <SCORE.INTRA.SOLV.lig_0>
-19.4148

>  <SCORE.INTRA.VDW>
-3.80497

>  <SCORE.INTRA.VDW.0>
5.42093

>  <SCORE.INTRA.norm>
-0.142491

>  <SCORE.RESTR>
0.416911

>  <SCORE.RESTR.CAVITY>
0.416911

>  <SCORE.RESTR.norm>
0.0154411

>  <SCORE.SYSTEM>
0

>  <SCORE.SYSTEM.CONST>
0

>  <SCORE.SYSTEM.DIHEDRAL>
0

>  <SCORE.SYSTEM.SOLV>
0

>  <SCORE.SYSTEM.norm>
0

>  <SCORE.heavy>
27

>  <SCORE.norm>
-1.47661

>  <RMSD>
4.774

$$$$
lig.pdb
 OpenBabel11021811523D
libRbt.so/2013.1/901 2013/11/27
 27 30  0  0  0  0  0  0  0  0999 V2000
   27.2835   38.7079   24.4170 N   0  0  0  0  0  0  0  0  0  0  0  0
   27.7695   38.7353   23.2007 C   0  0  0  0  0  0  0  0  0  0  0  0
   27.8131   37.6721   22.3589 N   0  0  0  0  0  0  0  0  0  0  0  0
   27.2724   36.4874   22.7726 C   0  0  0  0  0  0  0  0  0  0  0  0
   26.7183   36.3755   24.0156 C   0  0  0  0  0  0  0  0  0  0  0  0
   26.7305   37.5204   24.8946 C   0  0  0  0  0  0  0  0  0  0  0  0
   26.2955   37.4816   26.0522 O   0  0  0  0  0  0  0  0  0  0  0  0
   28.5297   39.9549   22.6347 C   0  0  2  0  0  0  0  0  0  0  0  0
   28.2679   41.0222   23.7098 C   0  0  0  0  0  0  0  0  0  0  0  0
   28.6924   42.3520   23.2685 N   0  0  0  0  0  0  0  0  0  0  0  0
   27.9029   42.7420   22.0892 C   0  0  0  0  0  0  0  0  0  0  0  0
   28.1650   41.8007   20.9301 C   0  0  0  0  0  0  0  0  0  0  0  0
   27.8526   40.3612   21.3148 C   0  0  0  0  0  0  0  0  0  0  0  0
   27.3527   35.4517   21.7514 C   0  0  0  0  0  0  0  0  0  0  0  0
   27.8632   35.8081   20.1428 S   0  0  0  0  0  0  0  0  0  0  0  0
   27.6568   34.2164   19.6584 C   0  0  0  0  0  0  0  0  0  0  0  0
   27.2670   33.4317   20.6710 C   0  0  0  0  0  0  0  0  0  0  0  0
   27.0791   34.1263   21.8818 C   0  0  0  0  0  0  0  0  0  0  0  0
   28.5505   43.3579   24.3359 C   0  0  0  0  0  0  0  0  0  0  0  0
   29.5937   43.3042   25.4297 C   0  0  0  0  0  0  0  0  0  0  0  0
   30.9030   43.6954   25.1906 C   0  0  0  0  0  0  0  0  0  0  0  0
   31.9494   43.3567   25.9654 N   0  0  0  0  0  0  0  0  0  0  0  0
   31.6391   42.5675   26.9829 C   0  0  0  0  0  0  0  0  0  0  0  0
   30.4538   42.0812   27.3147 N   0  0  0  0  0  0  0  0  0  0  0  0
   29.4517   42.4483   26.5025 C   0  0  0  0  0  0  0  0  0  0  0  0
   32.6836   42.2256   27.7458 O   0  0  0  0  0  0  0  0  0  0  0  0
   32.6846   40.9109   28.3144 C   0  0  0  0  0  0  0  0  0  0  0  0
  1  2  2  0  0  0  0
  1  6  1  0  0  0  0
  2  3  1  0  0  0  0
  3  4  2  0  0  0  0
  4 14  1  0  0  0  0
  5  4  1  0  0  0  0
  6  5  1  0  0  0  0
  7  6  2  0  0  0  0
  8  9  1  0  0  0  0
  8  2  1  1  0  0  0
 10 19  1  0  0  0  0
 10  9  1  0  0  0  0
 11 10  1  0  0  0  0
 12 11  1  0  0  0  0
 12 13  1  0  0  0  0
 13  8  1  0  0  0  0
 14 15  1  0  0  0  0
 14 18  2  0  0  0  0
 15 16  1  0  0  0  0
 16 17  2  0  0  0  0
 18 17  1  0  0  0  0
 19 20  1  0  0  0  0
 20 25  2  0  0  0  0
 20 21  1  0  0  0  0
 21 22  2  0  0  0  0
 22 23  1  0  0  0  0
 23 26  1  0  0  0  0
 24 23  2  0  0  0  0
 25 24  1  0  0  0  0
 26 27  1  0  0  0  0
M  END
>  <CHROM.1>
-8.55230439,-10.40890499,75.29835320,71.34679182,-144.99951117,28.67474052
39.43480064,23.71088171,-2.65508583,-1.13059990,-0.44530896

>  <Name>
lig.pdb

>  <RI>
0

>  <Rbt.Current_Directory>
/home/itssahil/PROJECTS/Mol_Feturizer/New_Systems/rnas/5kx9

>  <Rbt.Executable>
rbdock ($Id: //depot/dev/client3/rdock/2013.1/src/exe/rbdock.cxx#4 $)

>  <Rbt.Library>
libRbt.so (2013.1, Build901 2013/11/27)

>  <Rbt.Parameter_File>
/export/apps/rDock/src/rDock_2013.1_src/data/scripts/dock_solv.prm

>  <Rbt.Receptor>
prm/pocket_docking_6.prm

>  <SCORE>
-44.792

>  <SCORE.INTER>
-41.3557

>  <SCORE.INTER.CONST>
1

>  <SCORE.INTER.POLAR>
0

>  <SCORE.INTER.ROT>
5

>  <SCORE.INTER.SOLV>
17.806

>  <SCORE.INTER.VDW>
-40.4391

>  <SCORE.INTER.norm>
-1.53169

>  <SCORE.INTRA>
-3.43632

>  <SCORE.INTRA.DIHEDRAL>
1.68028

>  <SCORE.INTRA.DIHEDRAL.0>
2.68224

>  <SCORE.INTRA.POLAR>
0

>  <SCORE.INTRA.POLAR.0>
0

>  <SCORE.INTRA.REPUL>
0

>  <SCORE.INTRA.REPUL.0>
0

>  <SCORE.INTRA.SOLV>
-0.48458

>  <SCORE.INTRA.SOLV.lig_0>
-19.4148

>  <SCORE.INTRA.VDW>
-4.03417

>  <SCORE.INTRA.VDW.0>
5.42093

>  <SCORE.INTRA.norm>
-0.127271

>  <SCORE.RESTR>
0

>  <SCORE.RESTR.CAVITY>
0

>  <SCORE.RESTR.norm>
0

>  <SCORE.SYSTEM>
0

>  <SCORE.SYSTEM.CONST>
0

>  <SCORE.SYSTEM.DIHEDRAL>
0

>  <SCORE.SYSTEM.SOLV>
0

>  <SCORE.SYSTEM.norm>
0

>  <SCORE.heavy>
27

>  <SCORE.norm>
-1.65896

>  <RMSD>
4.782

$$$$
lig.pdb
 OpenBabel11021811523D
libRbt.so/2013.1/901 2013/11/27
 27 30  0  0  0  0  0  0  0  0999 V2000
   27.2368   38.6859   24.3746 N   0  0  0  0  0  0  0  0  0  0  0  0
   27.7557   38.7126   23.1720 C   0  0  0  0  0  0  0  0  0  0  0  0
   27.8108   37.6521   22.3274 N   0  0  0  0  0  0  0  0  0  0  0  0
   27.2467   36.4717   22.7218 C   0  0  0  0  0  0  0  0  0  0  0  0
   26.6582   36.3611   23.9489 C   0  0  0  0  0  0  0  0  0  0  0  0
   26.6587   37.5026   24.8324 C   0  0  0  0  0  0  0  0  0  0  0  0
   26.1923   37.4641   25.9778 O   0  0  0  0  0  0  0  0  0  0  0  0
   28.5436   39.9261   22.6314 C   0  0  2  0  0  0  0  0  0  0  0  0
   28.2690   40.9904   23.7062 C   0  0  0  0  0  0  0  0  0  0  0  0
   28.7198   42.3175   23.2831 N   0  0  0  0  0  0  0  0  0  0  0  0
   27.9633   42.7236   22.0877 C   0  0  0  0  0  0  0  0  0  0  0  0
   28.2417   41.7858   20.9296 C   0  0  0  0  0  0  0  0  0  0  0  0
   27.9031   40.3480   21.2982 C   0  0  0  0  0  0  0  0  0  0  0  0
   27.3435   35.4389   21.6989 C   0  0  0  0  0  0  0  0  0  0  0  0
   27.8521   35.8052   20.0919 S   0  0  0  0  0  0  0  0  0  0  0  0
   27.6691   34.2116   19.6045 C   0  0  0  0  0  0  0  0  0  0  0  0
   27.2885   33.4198   20.6150 C   0  0  0  0  0  0  0  0  0  0  0  0
   27.0885   34.1096   21.8267 C   0  0  0  0  0  0  0  0  0  0  0  0
   28.5645   43.3190   24.3528 C   0  0  0  0  0  0  0  0  0  0  0  0
   29.5452   43.2109   25.4990 C   0  0  0  0  0  0  0  0  0  0  0  0
   30.8607   43.6283   25.3579 C   0  0  0  0  0  0  0  0  0  0  0  0
   31.8664   43.2547   26.1697 N   0  0  0  0  0  0  0  0  0  0  0  0
   31.5098   42.4036   27.1200 C   0  0  0  0  0  0  0  0  0  0  0  0
   30.3143   41.8870   27.3550 N   0  0  0  0  0  0  0  0  0  0  0  0
   29.3545   42.2917   26.5100 C   0  0  0  0  0  0  0  0  0  0  0  0
   32.5143   42.0274   27.9196 O   0  0  0  0  0  0  0  0  0  0  0  0
   32.4799   40.6940   28.4415 C   0  0  0  0  0  0  0  0  0  0  0  0
  1  2  2  0  0  0  0
  1  6  1  0  0  0  0
  2  3  1  0  0  0  0
  3  4  2  0  0  0  0
  4 14  1  0  0  0  0
  5  4  1  0  0  0  0
  6  5  1  0  0  0  0
  7  6  2  0  0  0  0
  8  9  1  0  0  0  0
  8  2  1  1  0  0  0
 10 19  1  0  0  0  0
 10  9  1  0  0  0  0
 11 10  1  0  0  0  0
 12 11  1  0  0  0  0
 12 13  1  0  0  0  0
 13  8  1  0  0  0  0
 14 15  1  0  0  0  0
 14 18  2  0  0  0  0
 15 16  1  0  0  0  0
 16 17  2  0  0  0  0
 18 17  1  0  0  0  0
 19 20  1  0  0  0  0
 20 25  2  0  0  0  0
 20 21  1  0  0  0  0
 21 22  2  0  0  0  0
 22 23  1  0  0  0  0
 23 26  1  0  0  0  0
 24 23  2  0  0  0  0
 25 24  1  0  0  0  0
 26 27  1  0  0  0  0
M  END
>  <CHROM.1>
-10.57208629,-10.18222787,72.87948921,75.52599014,-146.81122016,28.63857198
39.37869580,23.72049439,-2.70290369,-1.15234875,-0.47728425

>  <Name>
lig.pdb

>  <RI>
0

>  <Rbt.Current_Directory>
/home/itssahil/PROJECTS/Mol_Feturizer/New_Systems/rnas/5kx9

>  <Rbt.Executable>
rbdock ($Id: //depot/dev/client3/rdock/2013.1/src/exe/rbdock.cxx#4 $)

>  <Rbt.Library>
libRbt.so (2013.1, Build901 2013/11/27)

>  <Rbt.Parameter_File>
/export/apps/rDock/src/rDock_2013.1_src/data/scripts/dock_solv.prm

>  <Rbt.Receptor>
prm/blind_docking_80.prm

>  <SCORE>
-44.7674

>  <SCORE.INTER>
-41.4435

>  <SCORE.INTER.CONST>
1

>  <SCORE.INTER.POLAR>
0

>  <SCORE.INTER.ROT>
5

>  <SCORE.INTER.SOLV>
17.7824

>  <SCORE.INTER.VDW>
-40.4898

>  <SCORE.INTER.norm>
-1.53494

>  <SCORE.INTRA>
-3.32389

>  <SCORE.INTRA.DIHEDRAL>
1.60145

>  <SCORE.INTRA.DIHEDRAL.0>
2.68224

>  <SCORE.INTRA.POLAR>
0

>  <SCORE.INTRA.POLAR.0>
0

>  <SCORE.INTRA.REPUL>
0

>  <SCORE.INTRA.REPUL.0>
0

>  <SCORE.INTRA.SOLV>
-0.472

>  <SCORE.INTRA.SOLV.lig_0>
-19.4148

>  <SCORE.INTRA.VDW>
-3.88861

>  <SCORE.INTRA.VDW.0>
5.42093

>  <SCORE.INTRA.norm>
-0.123107

>  <SCORE.RESTR>
0

>  <SCORE.RESTR.CAVITY>
0

>  <SCORE.RESTR.norm>
0

>  <SCORE.SYSTEM>
0

>  <SCORE.SYSTEM.CONST>
0

>  <SCORE.SYSTEM.DIHEDRAL>
0

>  <SCORE.SYSTEM.SOLV>
0

>  <SCORE.SYSTEM.norm>
0

>  <SCORE.heavy>
27

>  <SCORE.norm>
-1.65805

>  <RMSD>
4.784

$$$$
lig.pdb
 OpenBabel11021811523D
libRbt.so/2013.1/901 2013/11/27
 27 30  0  0  0  0  0  0  0  0999 V2000
   27.1541   38.6444   24.4118 N   0  0  0  0  0  0  0  0  0  0  0  0
   27.6777   38.6809   23.2115 C   0  0  0  0  0  0  0  0  0  0  0  0
   27.7575   37.6215   22.3676 N   0  0  0  0  0  0  0  0  0  0  0  0
   27.2150   36.4303   22.7599 C   0  0  0  0  0  0  0  0  0  0  0  0
   26.6232   36.3085   23.9844 C   0  0  0  0  0  0  0  0  0  0  0  0
   26.5973   37.4501   24.8675 C   0  0  0  0  0  0  0  0  0  0  0  0
   26.1266   37.4028   26.0108 O   0  0  0  0  0  0  0  0  0  0  0  0
   28.4441   39.9095   22.6740 C   0  0  2  0  0  0  0  0  0  0  0  0
   28.1711   40.9588   23.7640 C   0  0  0  0  0  0  0  0  0  0  0  0
   28.6006   42.2957   23.3496 N   0  0  0  0  0  0  0  0  0  0  0  0
   27.8236   42.7056   22.1687 C   0  0  0  0  0  0  0  0  0  0  0  0
   28.0977   41.7838   20.9968 C   0  0  0  0  0  0  0  0  0  0  0  0
   27.7810   40.3382   21.3540 C   0  0  0  0  0  0  0  0  0  0  0  0
   27.3367   35.3993   21.7379 C   0  0  0  0  0  0  0  0  0  0  0  0
   27.8487   35.7745   20.1341 S   0  0  0  0  0  0  0  0  0  0  0  0
   27.6973   34.1778   19.6458 C   0  0  0  0  0  0  0  0  0  0  0  0
   27.3246   33.3794   20.6541 C   0  0  0  0  0  0  0  0  0  0  0  0
   27.1046   34.0657   21.8643 C   0  0  0  0  0  0  0  0  0  0  0  0
   28.4476   43.2836   24.4321 C   0  0  0  0  0  0  0  0  0  0  0  0
   29.4723   43.2038   25.5416 C   0  0  0  0  0  0  0  0  0  0  0  0
   30.7594   43.6902   25.3643 C   0  0  0  0  0  0  0  0  0  0  0  0
   31.8105   43.3528   26.1333 N   0  0  0  0  0  0  0  0  0  0  0  0
   31.5308   42.4668   27.0773 C   0  0  0  0  0  0  0  0  0  0  0  0
   30.3716   41.8857   27.3423 N   0  0  0  0  0  0  0  0  0  0  0  0
   29.3637   42.2571   26.5393 C   0  0  0  0  0  0  0  0  0  0  0  0
   32.5804   42.1271   27.8342 O   0  0  0  0  0  0  0  0  0  0  0  0
   32.6268   40.7865   28.3365 C   0  0  0  0  0  0  0  0  0  0  0  0
  1  2  2  0  0  0  0
  1  6  1  0  0  0  0
  2  3  1  0  0  0  0
  3  4  2  0  0  0  0
  4 14  1  0  0  0  0
  5  4  1  0  0  0  0
  6  5  1  0  0  0  0
  7  6  2  0  0  0  0
  8  9  1  0  0  0  0
  8  2  1  1  0  0  0
 10 19  1  0  0  0  0
 10  9  1  0  0  0  0
 11 10  1  0  0  0  0
 12 11  1  0  0  0  0
 12 13  1  0  0  0  0
 13  8  1  0  0  0  0
 14 15  1  0  0  0  0
 14 18  2  0  0  0  0
 15 16  1  0  0  0  0
 16 17  2  0  0  0  0
 18 17  1  0  0  0  0
 19 20  1  0  0  0  0
 20 25  2  0  0  0  0
 20 21  1  0  0  0  0
 21 22  2  0  0  0  0
 22 23  1  0  0  0  0
 23 26  1  0  0  0  0
 24 23  2  0  0  0  0
 25 24  1  0  0  0  0
 26 27  1  0  0  0  0
M  END
>  <CHROM.1>
-10.42589187,-8.90287095,74.80836992,76.60832110,-147.21380301,28.59984161
39.36894850,23.74636593,-2.61401570,-1.13073647,-0.39164140

>  <Name>
lig.pdb

>  <RI>
0

>  <Rbt.Current_Directory>
/home/itssahil/PROJECTS/Mol_Feturizer/New_Systems/rnas/5kx9

>  <Rbt.Executable>
rbdock ($Id: //depot/dev/client3/rdock/2013.1/src/exe/rbdock.cxx#4 $)

>  <Rbt.Library>
libRbt.so (2013.1, Build901 2013/11/27)

>  <Rbt.Parameter_File>
/export/apps/rDock/src/rDock_2013.1_src/data/scripts/dock_solv.prm

>  <Rbt.Receptor>
prm/pocket_docking_7.prm

>  <SCORE>
-44.8056

>  <SCORE.INTER>
-41.5032

>  <SCORE.INTER.CONST>
1

>  <SCORE.INTER.POLAR>
0

>  <SCORE.INTER.ROT>
5

>  <SCORE.INTER.SOLV>
18.1595

>  <SCORE.INTER.VDW>
-40.6553

>  <SCORE.INTER.norm>
-1.53716

>  <SCORE.INTRA>
-3.30241

>  <SCORE.INTRA.DIHEDRAL>
1.65834

>  <SCORE.INTRA.DIHEDRAL.0>
2.68224

>  <SCORE.INTRA.POLAR>
0

>  <SCORE.INTRA.POLAR.0>
0

>  <SCORE.INTRA.REPUL>
0

>  <SCORE.INTRA.REPUL.0>
0

>  <SCORE.INTRA.SOLV>
-0.477529

>  <SCORE.INTRA.SOLV.lig_0>
-19.4148

>  <SCORE.INTRA.VDW>
-3.89281

>  <SCORE.INTRA.VDW.0>
5.42093

>  <SCORE.INTRA.norm>
-0.122311

>  <SCORE.RESTR>
0

>  <SCORE.RESTR.CAVITY>
0

>  <SCORE.RESTR.norm>
0

>  <SCORE.SYSTEM>
0

>  <SCORE.SYSTEM.CONST>
0

>  <SCORE.SYSTEM.DIHEDRAL>
0

>  <SCORE.SYSTEM.SOLV>
0

>  <SCORE.SYSTEM.norm>
0

>  <SCORE.heavy>
27

>  <SCORE.norm>
-1.65947

>  <RMSD>
4.794

$$$$
lig.pdb
 OpenBabel11021811523D
libRbt.so/2013.1/901 2013/11/27
 27 30  0  0  0  0  0  0  0  0999 V2000
   27.2421   38.6999   24.3983 N   0  0  0  0  0  0  0  0  0  0  0  0
   27.7704   38.7218   23.1997 C   0  0  0  0  0  0  0  0  0  0  0  0
   27.8230   37.6605   22.3559 N   0  0  0  0  0  0  0  0  0  0  0  0
   27.2459   36.4851   22.7463 C   0  0  0  0  0  0  0  0  0  0  0  0
   26.6470   36.3800   23.9689 C   0  0  0  0  0  0  0  0  0  0  0  0
   26.6504   37.5218   24.8520 C   0  0  0  0  0  0  0  0  0  0  0  0
   26.1749   37.4878   25.9938 O   0  0  0  0  0  0  0  0  0  0  0  0
   28.5728   39.9283   22.6649 C   0  0  2  0  0  0  0  0  0  0  0  0
   28.2971   40.9961   23.7361 C   0  0  0  0  0  0  0  0  0  0  0  0
   28.7622   42.3190   23.3155 N   0  0  0  0  0  0  0  0  0  0  0  0
   28.0196   42.7298   22.1130 C   0  0  0  0  0  0  0  0  0  0  0  0
   28.3008   41.7884   20.9585 C   0  0  0  0  0  0  0  0  0  0  0  0
   27.9474   40.3538   21.3256 C   0  0  0  0  0  0  0  0  0  0  0  0
   27.3418   35.4512   21.7246 C   0  0  0  0  0  0  0  0  0  0  0  0
   27.8452   35.8163   20.1157 S   0  0  0  0  0  0  0  0  0  0  0  0
   27.6638   34.2217   19.6309 C   0  0  0  0  0  0  0  0  0  0  0  0
   27.2875   33.4305   20.6435 C   0  0  0  0  0  0  0  0  0  0  0  0
   27.0896   34.1215   21.8548 C   0  0  0  0  0  0  0  0  0  0  0  0
   28.6054   43.3229   24.3827 C   0  0  0  0  0  0  0  0  0  0  0  0
   29.5145   43.1544   25.5795 C   0  0  0  0  0  0  0  0  0  0  0  0
   30.8205   43.6221   25.5586 C   0  0  0  0  0  0  0  0  0  0  0  0
   31.7852   43.2163   26.4039 N   0  0  0  0  0  0  0  0  0  0  0  0
   31.3998   42.2818   27.2598 C   0  0  0  0  0  0  0  0  0  0  0  0
   30.2111   41.7115   27.3744 N   0  0  0  0  0  0  0  0  0  0  0  0
   29.2931   42.1523   26.5016 C   0  0  0  0  0  0  0  0  0  0  0  0
   32.3643   41.8744   28.0928 O   0  0  0  0  0  0  0  0  0  0  0  0
   33.6110   41.4714   27.5139 C   0  0  0  0  0  0  0  0  0  0  0  0
  1  2  2  0  0  0  0
  1  6  1  0  0  0  0
  2  3  1  0  0  0  0
  3  4  2  0  0  0  0
  4 14  1  0  0  0  0
  5  4  1  0  0  0  0
  6  5  1  0  0  0  0
  7  6  2  0  0  0  0
  8  9  1  0  0  0  0
  8  2  1  1  0  0  0
 10 19  1  0  0  0  0
 10  9  1  0  0  0  0
 11 10  1  0  0  0  0
 12 11  1  0  0  0  0
 12 13  1  0  0  0  0
 13  8  1  0  0  0  0
 14 15  1  0  0  0  0
 14 18  2  0  0  0  0
 15 16  1  0  0  0  0
 16 17  2  0  0  0  0
 18 17  1  0  0  0  0
 19 20  1  0  0  0  0
 20 25  2  0  0  0  0
 20 21  1  0  0  0  0
 21 22  2  0  0  0  0
 22 23  1  0  0  0  0
 23 26  1  0  0  0  0
 24 23  2  0  0  0  0
 25 24  1  0  0  0  0
 26 27  1  0  0  0  0
M  END
>  <CHROM.1>
-11.41762218,-10.26794506,69.04180888,82.17868574,-51.54253065,28.67184786
39.39172125,23.73269491,-2.67301842,-1.13068376,-0.44584968

>  <Name>
lig.pdb

>  <RI>
0

>  <Rbt.Current_Directory>
/home/itssahil/PROJECTS/Mol_Feturizer/New_Systems/rnas/5kx9

>  <Rbt.Executable>
rbdock ($Id: //depot/dev/client3/rdock/2013.1/src/exe/rbdock.cxx#4 $)

>  <Rbt.Library>
libRbt.so (2013.1, Build901 2013/11/27)

>  <Rbt.Parameter_File>
/export/apps/rDock/src/rDock_2013.1_src/data/scripts/dock_solv.prm

>  <Rbt.Receptor>
prm/pocket_docking_6.prm

>  <SCORE>
-44.0325

>  <SCORE.INTER>
-41.1766

>  <SCORE.INTER.CONST>
1

>  <SCORE.INTER.POLAR>
0

>  <SCORE.INTER.ROT>
5

>  <SCORE.INTER.SOLV>
18.0288

>  <SCORE.INTER.VDW>
-40.394

>  <SCORE.INTER.norm>
-1.52506

>  <SCORE.INTRA>
-2.85587

>  <SCORE.INTRA.DIHEDRAL>
3.07951

>  <SCORE.INTRA.DIHEDRAL.0>
2.68224

>  <SCORE.INTRA.POLAR>
0

>  <SCORE.INTRA.POLAR.0>
0

>  <SCORE.INTRA.REPUL>
0

>  <SCORE.INTRA.REPUL.0>
0

>  <SCORE.INTRA.SOLV>
-0.445609

>  <SCORE.INTRA.SOLV.lig_0>
-19.4148

>  <SCORE.INTRA.VDW>
-4.17283

>  <SCORE.INTRA.VDW.0>
5.42093

>  <SCORE.INTRA.norm>
-0.105773

>  <SCORE.RESTR>
0

>  <SCORE.RESTR.CAVITY>
0

>  <SCORE.RESTR.norm>
0

>  <SCORE.SYSTEM>
0

>  <SCORE.SYSTEM.CONST>
0

>  <SCORE.SYSTEM.DIHEDRAL>
0

>  <SCORE.SYSTEM.SOLV>
0

>  <SCORE.SYSTEM.norm>
0

>  <SCORE.heavy>
27

>  <SCORE.norm>
-1.63083

>  <RMSD>
4.799

$$$$
lig.pdb
 OpenBabel11021811523D
libRbt.so/2013.1/901 2013/11/27
 27 30  0  0  0  0  0  0  0  0999 V2000
   26.8909   38.9116   17.0256 N   0  0  0  0  0  0  0  0  0  0  0  0
   27.7430   39.7759   17.5186 C   0  0  0  0  0  0  0  0  0  0  0  0
   29.0366   39.5023   17.8235 N   0  0  0  0  0  0  0  0  0  0  0  0
   29.5202   38.2517   17.5603 C   0  0  0  0  0  0  0  0  0  0  0  0
   28.7096   37.2951   17.0198 C   0  0  0  0  0  0  0  0  0  0  0  0
   27.3286   37.6169   16.7497 C   0  0  0  0  0  0  0  0  0  0  0  0
   26.5208   36.7891   16.3103 O   0  0  0  0  0  0  0  0  0  0  0  0
   27.3215   41.1849   17.9907 C   0  0  2  0  0  0  0  0  0  0  0  0
   26.7733   40.9000   19.3985 C   0  0  0  0  0  0  0  0  0  0  0  0
   26.0823   42.0634   19.9572 N   0  0  0  0  0  0  0  0  0  0  0  0
   24.9210   42.3845   19.1119 C   0  0  0  0  0  0  0  0  0  0  0  0
   25.3628   42.7767   17.7158 C   0  0  0  0  0  0  0  0  0  0  0  0
   26.1863   41.6694   17.0728 C   0  0  0  0  0  0  0  0  0  0  0  0
   30.9309   38.1176   17.8983 C   0  0  0  0  0  0  0  0  0  0  0  0
   31.7730   36.6279   17.6821 S   0  0  0  0  0  0  0  0  0  0  0  0
   33.1970   37.2735   18.2873 C   0  0  0  0  0  0  0  0  0  0  0  0
   33.0671   38.5699   18.5962 C   0  0  0  0  0  0  0  0  0  0  0  0
   31.7677   39.0716   18.3864 C   0  0  0  0  0  0  0  0  0  0  0  0
   25.6558   41.8348   21.3490 C   0  0  0  0  0  0  0  0  0  0  0  0
   26.7062   42.0907   22.4066 C   0  0  0  0  0  0  0  0  0  0  0  0
   26.3498   42.4567   23.6964 C   0  0  0  0  0  0  0  0  0  0  0  0
   27.1838   43.0370   24.5781 N   0  0  0  0  0  0  0  0  0  0  0  0
   28.3964   43.2771   24.1021 C   0  0  0  0  0  0  0  0  0  0  0  0
   28.8694   43.0254   22.8919 N   0  0  0  0  0  0  0  0  0  0  0  0
   27.9906   42.4526   22.0562 C   0  0  0  0  0  0  0  0  0  0  0  0
   29.2202   43.8623   24.9789 O   0  0  0  0  0  0  0  0  0  0  0  0
   29.9546   43.0105   25.8659 C   0  0  0  0  0  0  0  0  0  0  0  0
  1  2  2  0  0  0  0
  1  6  1  0  0  0  0
  2  3  1  0  0  0  0
  3  4  2  0  0  0  0
  4 14  1  0  0  0  0
  5  4  1  0  0  0  0
  6  5  1  0  0  0  0
  7  6  2  0  0  0  0
  8  9  1  0  0  0  0
  8  2  1  6  0  0  0
 10 19  1  0  0  0  0
 10  9  1  0  0  0  0
 11 10  1  0  0  0  0
 12 11  1  0  0  0  0
 12 13  1  0  0  0  0
 13  8  1  0  0  0  0
 14 15  1  0  0  0  0
 14 18  2  0  0  0  0
 15 16  1  0  0  0  0
 16 17  2  0  0  0  0
 18 17  1  0  0  0  0
 19 20  1  0  0  0  0
 20 25  2  0  0  0  0
 20 21  1  0  0  0  0
 21 22  2  0  0  0  0
 22 23  1  0  0  0  0
 23 26  1  0  0  0  0
 24 23  2  0  0  0  0
 25 24  1  0  0  0  0
 26 27  1  0  0  0  0
M  END
>  <CHROM.1>
179.07726664,81.49214634,83.92650337,153.02754402,86.53437026,28.40965930
40.36011680,19.71695460,1.26114317,0.42177700,-2.15555298

>  <Name>
lig.pdb

>  <RI>
0

>  <Rbt.Current_Directory>
/home/itssahil/PROJECTS/Mol_Feturizer/New_Systems/rnas/5kx9

>  <Rbt.Executable>
rbdock ($Id: //depot/dev/client3/rdock/2013.1/src/exe/rbdock.cxx#4 $)

>  <Rbt.Library>
libRbt.so (2013.1, Build901 2013/11/27)

>  <Rbt.Parameter_File>
/export/apps/rDock/src/rDock_2013.1_src/data/scripts/dock_solv.prm

>  <Rbt.Receptor>
prm/blind_docking_60.prm

>  <SCORE>
-28.6503

>  <SCORE.INTER>
-24.0389

>  <SCORE.INTER.CONST>
1

>  <SCORE.INTER.POLAR>
0

>  <SCORE.INTER.ROT>
5

>  <SCORE.INTER.SOLV>
13.6662

>  <SCORE.INTER.VDW>
-27.5147

>  <SCORE.INTER.norm>
-0.890329

>  <SCORE.INTRA>
-4.61143

>  <SCORE.INTRA.DIHEDRAL>
4.2718

>  <SCORE.INTRA.DIHEDRAL.0>
2.68224

>  <SCORE.INTRA.POLAR>
0

>  <SCORE.INTRA.POLAR.0>
0

>  <SCORE.INTRA.REPUL>
0

>  <SCORE.INTRA.REPUL.0>
0

>  <SCORE.INTRA.SOLV>
-0.563529

>  <SCORE.INTRA.SOLV.lig_0>
-19.4148

>  <SCORE.INTRA.VDW>
-6.46556

>  <SCORE.INTRA.VDW.0>
5.42093

>  <SCORE.INTRA.norm>
-0.170794

>  <SCORE.RESTR>
0

>  <SCORE.RESTR.CAVITY>
0

>  <SCORE.RESTR.norm>
0

>  <SCORE.SYSTEM>
0

>  <SCORE.SYSTEM.CONST>
0

>  <SCORE.SYSTEM.DIHEDRAL>
0

>  <SCORE.SYSTEM.SOLV>
0

>  <SCORE.SYSTEM.norm>
0

>  <SCORE.heavy>
27

>  <SCORE.norm>
-1.06112

>  <RMSD>
4.804

$$$$
lig.pdb
 OpenBabel11021811523D
libRbt.so/2013.1/901 2013/11/27
 27 30  0  0  0  0  0  0  0  0999 V2000
   27.1321   38.6982   17.0357 N   0  0  0  0  0  0  0  0  0  0  0  0
   28.0039   39.5652   17.4879 C   0  0  0  0  0  0  0  0  0  0  0  0
   29.3029   39.2868   17.7640 N   0  0  0  0  0  0  0  0  0  0  0  0
   29.7694   38.0270   17.5141 C   0  0  0  0  0  0  0  0  0  0  0  0
   28.9370   37.0665   17.0152 C   0  0  0  0  0  0  0  0  0  0  0  0
   27.5519   37.3944   16.7751 C   0  0  0  0  0  0  0  0  0  0  0  0
   26.7262   36.5647   16.3744 O   0  0  0  0  0  0  0  0  0  0  0  0
   27.6064   40.9870   17.9417 C   0  0  2  0  0  0  0  0  0  0  0  0
   27.1912   40.7521   19.4032 C   0  0  0  0  0  0  0  0  0  0  0  0
   26.5367   41.9292   19.9770 N   0  0  0  0  0  0  0  0  0  0  0  0
   25.2995   42.2040   19.2285 C   0  0  0  0  0  0  0  0  0  0  0  0
   25.6083   42.5454   17.7841 C   0  0  0  0  0  0  0  0  0  0  0  0
   26.3864   41.4226   17.1123 C   0  0  0  0  0  0  0  0  0  0  0  0
   31.1874   37.8878   17.8174 C   0  0  0  0  0  0  0  0  0  0  0  0
   32.0437   36.4293   17.4789 S   0  0  0  0  0  0  0  0  0  0  0  0
   33.4703   37.0484   18.1052 C   0  0  0  0  0  0  0  0  0  0  0  0
   33.3301   38.3171   18.5099 C   0  0  0  0  0  0  0  0  0  0  0  0
   32.0211   38.8150   18.3595 C   0  0  0  0  0  0  0  0  0  0  0  0
   26.2404   41.7513   21.4094 C   0  0  0  0  0  0  0  0  0  0  0  0
   27.4428   41.6926   22.3248 C   0  0  0  0  0  0  0  0  0  0  0  0
   27.6011   40.6566   23.2339 C   0  0  0  0  0  0  0  0  0  0  0  0
   28.4179   40.7027   24.3019 N   0  0  0  0  0  0  0  0  0  0  0  0
   29.0517   41.8561   24.4517 C   0  0  0  0  0  0  0  0  0  0  0  0
   28.9737   42.9412   23.6982 N   0  0  0  0  0  0  0  0  0  0  0  0
   28.1398   42.8371   22.6529 C   0  0  0  0  0  0  0  0  0  0  0  0
   29.8561   41.9012   25.5199 O   0  0  0  0  0  0  0  0  0  0  0  0
   29.9857   43.1566   26.1972 C   0  0  0  0  0  0  0  0  0  0  0  0
  1  2  2  0  0  0  0
  1  6  1  0  0  0  0
  2  3  1  0  0  0  0
  3  4  2  0  0  0  0
  4 14  1  0  0  0  0
  5  4  1  0  0  0  0
  6  5  1  0  0  0  0
  7  6  2  0  0  0  0
  8  9  1  0  0  0  0
  8  2  1  6  0  0  0
 10 19  1  0  0  0  0
 10  9  1  0  0  0  0
 11 10  1  0  0  0  0
 12 11  1  0  0  0  0
 12 13  1  0  0  0  0
 13  8  1  0  0  0  0
 14 15  1  0  0  0  0
 14 18  2  0  0  0  0
 15 16  1  0  0  0  0
 16 17  2  0  0  0  0
 18 17  1  0  0  0  0
 19 20  1  0  0  0  0
 20 25  2  0  0  0  0
 20 21  1  0  0  0  0
 21 22  2  0  0  0  0
 22 23  1  0  0  0  0
 23 26  1  0  0  0  0
 24 23  2  0  0  0  0
 25 24  1  0  0  0  0
 26 27  1  0  0  0  0
M  END
>  <CHROM.1>
-175.40680379,85.48070671,68.13060283,-128.50158719,-146.03971131,28.78640075
39.94374869,19.76400733,1.32407528,0.47678957,-2.08170508

>  <Name>
lig.pdb

>  <RI>
0

>  <Rbt.Current_Directory>
/home/itssahil/PROJECTS/Mol_Feturizer/New_Systems/rnas/5kx9

>  <Rbt.Executable>
rbdock ($Id: //depot/dev/client3/rdock/2013.1/src/exe/rbdock.cxx#4 $)

>  <Rbt.Library>
libRbt.so (2013.1, Build901 2013/11/27)

>  <Rbt.Parameter_File>
/export/apps/rDock/src/rDock_2013.1_src/data/scripts/dock_solv.prm

>  <Rbt.Receptor>
prm/blind_docking_60.prm

>  <SCORE>
-25.7942

>  <SCORE.INTER>
-20.5336

>  <SCORE.INTER.CONST>
1

>  <SCORE.INTER.POLAR>
0

>  <SCORE.INTER.ROT>
5

>  <SCORE.INTER.SOLV>
11.5286

>  <SCORE.INTER.VDW>
-24.4653

>  <SCORE.INTER.norm>
-0.760502

>  <SCORE.INTRA>
-5.26068

>  <SCORE.INTRA.DIHEDRAL>
0.466346

>  <SCORE.INTRA.DIHEDRAL.0>
2.68224

>  <SCORE.INTRA.POLAR>
0

>  <SCORE.INTRA.POLAR.0>
0

>  <SCORE.INTRA.REPUL>
0

>  <SCORE.INTRA.REPUL.0>
0

>  <SCORE.INTRA.SOLV>
-0.663317

>  <SCORE.INTRA.SOLV.lig_0>
-19.4148

>  <SCORE.INTRA.VDW>
-5.16219

>  <SCORE.INTRA.VDW.0>
5.42093

>  <SCORE.INTRA.norm>
-0.19484

>  <SCORE.RESTR>
0

>  <SCORE.RESTR.CAVITY>
0

>  <SCORE.RESTR.norm>
0

>  <SCORE.SYSTEM>
0

>  <SCORE.SYSTEM.CONST>
0

>  <SCORE.SYSTEM.DIHEDRAL>
0

>  <SCORE.SYSTEM.SOLV>
0

>  <SCORE.SYSTEM.norm>
0

>  <SCORE.heavy>
27

>  <SCORE.norm>
-0.955342

>  <RMSD>
4.831

$$$$
lig.pdb
 OpenBabel11021811523D
libRbt.so/2013.1/901 2013/11/27
 27 30  0  0  0  0  0  0  0  0999 V2000
   27.1845   38.2790   24.1237 N   0  0  0  0  0  0  0  0  0  0  0  0
   27.7358   38.4857   22.9534 C   0  0  0  0  0  0  0  0  0  0  0  0
   27.8643   37.5489   21.9803 N   0  0  0  0  0  0  0  0  0  0  0  0
   27.3447   36.3040   22.1980 C   0  0  0  0  0  0  0  0  0  0  0  0
   26.7270   36.0081   23.3792 C   0  0  0  0  0  0  0  0  0  0  0  0
   26.6491   37.0224   24.4033 C   0  0  0  0  0  0  0  0  0  0  0  0
   26.1523   36.8138   25.5171 O   0  0  0  0  0  0  0  0  0  0  0  0
   28.4816   39.7920   22.6030 C   0  0  2  0  0  0  0  0  0  0  0  0
   27.9541   40.7592   23.6754 C   0  0  0  0  0  0  0  0  0  0  0  0
   28.3402   42.1432   23.3947 N   0  0  0  0  0  0  0  0  0  0  0  0
   27.7364   42.5614   22.1192 C   0  0  0  0  0  0  0  0  0  0  0  0
   28.2684   41.7257   20.9717 C   0  0  0  0  0  0  0  0  0  0  0  0
   28.0111   40.2444   21.2102 C   0  0  0  0  0  0  0  0  0  0  0  0
   27.5187   35.4199   21.0533 C   0  0  0  0  0  0  0  0  0  0  0  0
   28.1675   35.9925   19.5612 S   0  0  0  0  0  0  0  0  0  0  0  0
   28.0109   34.4855   18.8434 C   0  0  0  0  0  0  0  0  0  0  0  0
   27.5365   33.5708   19.6986 C   0  0  0  0  0  0  0  0  0  0  0  0
   27.2399   34.0916   20.9733 C   0  0  0  0  0  0  0  0  0  0  0  0
   27.9367   43.0579   24.4771 C   0  0  0  0  0  0  0  0  0  0  0  0
   26.5728   42.8007   25.0780 C   0  0  0  0  0  0  0  0  0  0  0  0
   25.4407   42.7266   24.2795 C   0  0  0  0  0  0  0  0  0  0  0  0
   24.1815   42.8577   24.7346 N   0  0  0  0  0  0  0  0  0  0  0  0
   24.0963   43.1085   26.0324 C   0  0  0  0  0  0  0  0  0  0  0  0
   25.0777   43.2474   26.9094 N   0  0  0  0  0  0  0  0  0  0  0  0
   26.3093   43.1120   26.3960 C   0  0  0  0  0  0  0  0  0  0  0  0
   22.8429   43.2472   26.4796 O   0  0  0  0  0  0  0  0  0  0  0  0
   21.9865   44.1543   25.7757 C   0  0  0  0  0  0  0  0  0  0  0  0
  1  2  2  0  0  0  0
  1  6  1  0  0  0  0
  2  3  1  0  0  0  0
  3  4  2  0  0  0  0
  4 14  1  0  0  0  0
  5  4  1  0  0  0  0
  6  5  1  0  0  0  0
  7  6  2  0  0  0  0
  8  9  1  0  0  0  0
  8  2  1  1  0  0  0
 10 19  1  0  0  0  0
 10  9  1  0  0  0  0
 11 10  1  0  0  0  0
 12 11  1  0  0  0  0
 12 13  1  0  0  0  0
 13  8  1  0  0  0  0
 14 15  1  0  0  0  0
 14 18  2  0  0  0  0
 15 16  1  0  0  0  0
 16 17  2  0  0  0  0
 18 17  1  0  0  0  0
 19 20  1  0  0  0  0
 20 25  2  0  0  0  0
 20 21  1  0  0  0  0
 21 22  2  0  0  0  0
 22 23  1  0  0  0  0
 23 26  1  0  0  0  0
 24 23  2  0  0  0  0
 25 24  1  0  0  0  0
 26 27  1  0  0  0  0
M  END
>  <CHROM.1>
-5.90543948,-18.63402429,-40.39309745,-53.76760570,-50.88972340,26.74516888
39.50887679,23.15635486,1.11385543,-0.82388358,-2.92819059

>  <Name>
lig.pdb

>  <RI>
0

>  <Rbt.Current_Directory>
/home/itssahil/PROJECTS/Mol_Feturizer/New_Systems/rnas/5kx9

>  <Rbt.Executable>
rbdock ($Id: //depot/dev/client3/rdock/2013.1/src/exe/rbdock.cxx#4 $)

>  <Rbt.Library>
libRbt.so (2013.1, Build901 2013/11/27)

>  <Rbt.Parameter_File>
/export/apps/rDock/src/rDock_2013.1_src/data/scripts/dock_solv.prm

>  <Rbt.Receptor>
prm/blind_docking_60.prm

>  <SCORE>
-37.6975

>  <SCORE.INTER>
-35.8006

>  <SCORE.INTER.CONST>
1

>  <SCORE.INTER.POLAR>
0

>  <SCORE.INTER.ROT>
5

>  <SCORE.INTER.SOLV>
16.0144

>  <SCORE.INTER.VDW>
-36.1385

>  <SCORE.INTER.norm>
-1.32595

>  <SCORE.INTRA>
-1.89689

>  <SCORE.INTRA.DIHEDRAL>
2.99523

>  <SCORE.INTRA.DIHEDRAL.0>
2.68224

>  <SCORE.INTRA.POLAR>
0

>  <SCORE.INTRA.POLAR.0>
0

>  <SCORE.INTRA.REPUL>
0

>  <SCORE.INTRA.REPUL.0>
0

>  <SCORE.INTRA.SOLV>
-0.4878

>  <SCORE.INTRA.SOLV.lig_0>
-19.4148

>  <SCORE.INTRA.VDW>
-3.15061

>  <SCORE.INTRA.VDW.0>
5.42093

>  <SCORE.INTRA.norm>
-0.0702553

>  <SCORE.RESTR>
0

>  <SCORE.RESTR.CAVITY>
0

>  <SCORE.RESTR.norm>
0

>  <SCORE.SYSTEM>
0

>  <SCORE.SYSTEM.CONST>
0

>  <SCORE.SYSTEM.DIHEDRAL>
0

>  <SCORE.SYSTEM.SOLV>
0

>  <SCORE.SYSTEM.norm>
0

>  <SCORE.heavy>
27

>  <SCORE.norm>
-1.3962

>  <RMSD>
4.941

$$$$
lig.pdb
 OpenBabel11021811523D
libRbt.so/2013.1/901 2013/11/27
 27 30  0  0  0  0  0  0  0  0999 V2000
   27.3729   38.8473   24.3661 N   0  0  0  0  0  0  0  0  0  0  0  0
   27.9174   38.9176   23.1766 C   0  0  0  0  0  0  0  0  0  0  0  0
   27.9540   37.9005   22.2792 N   0  0  0  0  0  0  0  0  0  0  0  0
   27.3419   36.7219   22.6007 C   0  0  0  0  0  0  0  0  0  0  0  0
   26.7244   36.5692   23.8089 C   0  0  0  0  0  0  0  0  0  0  0  0
   26.7453   37.6632   24.7505 C   0  0  0  0  0  0  0  0  0  0  0  0
   26.2540   37.5823   25.8832 O   0  0  0  0  0  0  0  0  0  0  0  0
   28.7574   40.1288   22.7151 C   0  0  2  0  0  0  0  0  0  0  0  0
   28.4992   41.1444   23.8400 C   0  0  0  0  0  0  0  0  0  0  0  0
   29.0039   42.4749   23.4959 N   0  0  0  0  0  0  0  0  0  0  0  0
   28.2853   42.9700   22.3108 C   0  0  0  0  0  0  0  0  0  0  0  0
   28.5532   42.0848   21.1095 C   0  0  0  0  0  0  0  0  0  0  0  0
   28.1577   40.6428   21.3952 C   0  0  0  0  0  0  0  0  0  0  0  0
   27.4249   35.7403   21.5276 C   0  0  0  0  0  0  0  0  0  0  0  0
   27.1017   34.0691   21.8063 S   0  0  0  0  0  0  0  0  0  0  0  0
   27.4239   33.6766   20.2085 C   0  0  0  0  0  0  0  0  0  0  0  0
   27.7157   34.7591   19.4764 C   0  0  0  0  0  0  0  0  0  0  0  0
   27.7290   35.9553   20.2199 C   0  0  0  0  0  0  0  0  0  0  0  0
   28.8629   43.4237   24.6144 C   0  0  0  0  0  0  0  0  0  0  0  0
   29.7835   43.1905   25.7915 C   0  0  0  0  0  0  0  0  0  0  0  0
   31.1184   43.5650   25.7421 C   0  0  0  0  0  0  0  0  0  0  0  0
   32.0701   43.0914   26.5667 N   0  0  0  0  0  0  0  0  0  0  0  0
   31.6382   42.1857   27.4314 C   0  0  0  0  0  0  0  0  0  0  0  0
   30.4149   41.7006   27.5720 N   0  0  0  0  0  0  0  0  0  0  0  0
   29.5118   42.2058   26.7189 C   0  0  0  0  0  0  0  0  0  0  0  0
   32.5893   41.7107   28.2437 O   0  0  0  0  0  0  0  0  0  0  0  0
   32.5304   40.3218   28.5891 C   0  0  0  0  0  0  0  0  0  0  0  0
  1  2  2  0  0  0  0
  1  6  1  0  0  0  0
  2  3  1  0  0  0  0
  3  4  2  0  0  0  0
  4 14  1  0  0  0  0
  5  4  1  0  0  0  0
  6  5  1  0  0  0  0
  7  6  2  0  0  0  0
  8  9  1  0  0  0  0
  8  2  1  1  0  0  0
 10 19  1  0  0  0  0
 10  9  1  0  0  0  0
 11 10  1  0  0  0  0
 12 11  1  0  0  0  0
 12 13  1  0  0  0  0
 13  8  1  0  0  0  0
 14 15  1  0  0  0  0
 14 18  2  0  0  0  0
 15 16  1  0  0  0  0
 16 17  2  0  0  0  0
 18 17  1  0  0  0  0
 19 20  1  0  0  0  0
 20 25  2  0  0  0  0
 20 21  1  0  0  0  0
 21 22  2  0  0  0  0
 22 23  1  0  0  0  0
 23 26  1  0  0  0  0
 24 23  2  0  0  0  0
 25 24  1  0  0  0  0
 26 27  1  0  0  0  0
M  END
>  <CHROM.1>
164.18239034,-10.06094429,70.78086460,77.35561217,-142.85135887,28.74352122
39.37948874,23.89255408,-2.65253738,-1.12001777,-0.42106526

>  <Name>
lig.pdb

>  <RI>
0

>  <Rbt.Current_Directory>
/home/itssahil/PROJECTS/Mol_Feturizer/New_Systems/rnas/5kx9

>  <Rbt.Executable>
rbdock ($Id: //depot/dev/client3/rdock/2013.1/src/exe/rbdock.cxx#4 $)

>  <Rbt.Library>
libRbt.so (2013.1, Build901 2013/11/27)

>  <Rbt.Parameter_File>
/export/apps/rDock/src/rDock_2013.1_src/data/scripts/dock_solv.prm

>  <Rbt.Receptor>
prm/pocket_docking_6.prm

>  <SCORE>
-43.8676

>  <SCORE.INTER>
-40.7823

>  <SCORE.INTER.CONST>
1

>  <SCORE.INTER.POLAR>
0

>  <SCORE.INTER.ROT>
5

>  <SCORE.INTER.SOLV>
17.9651

>  <SCORE.INTER.VDW>
-40.1099

>  <SCORE.INTER.norm>
-1.51045

>  <SCORE.INTRA>
-3.08532

>  <SCORE.INTRA.DIHEDRAL>
2.32989

>  <SCORE.INTRA.DIHEDRAL.0>
2.68224

>  <SCORE.INTRA.POLAR>
0

>  <SCORE.INTRA.POLAR.0>
0

>  <SCORE.INTRA.REPUL>
0

>  <SCORE.INTRA.REPUL.0>
0

>  <SCORE.INTRA.SOLV>
-0.51244

>  <SCORE.INTRA.SOLV.lig_0>
-19.4148

>  <SCORE.INTRA.VDW>
-3.99404

>  <SCORE.INTRA.VDW.0>
5.42093

>  <SCORE.INTRA.norm>
-0.114271

>  <SCORE.RESTR>
0

>  <SCORE.RESTR.CAVITY>
0

>  <SCORE.RESTR.norm>
0

>  <SCORE.SYSTEM>
0

>  <SCORE.SYSTEM.CONST>
0

>  <SCORE.SYSTEM.DIHEDRAL>
0

>  <SCORE.SYSTEM.SOLV>
0

>  <SCORE.SYSTEM.norm>
0

>  <SCORE.heavy>
27

>  <SCORE.norm>
-1.62473

>  <RMSD>
4.959

$$$$
lig.pdb
 OpenBabel11021811523D
libRbt.so/2013.1/901 2013/11/27
 27 30  0  0  0  0  0  0  0  0999 V2000
   29.2148   37.8256   19.2821 N   0  0  0  0  0  0  0  0  0  0  0  0
   28.2936   38.1047   20.1708 C   0  0  0  0  0  0  0  0  0  0  0  0
   28.2795   39.2149   20.9507 N   0  0  0  0  0  0  0  0  0  0  0  0
   29.2636   40.1473   20.7795 C   0  0  0  0  0  0  0  0  0  0  0  0
   30.2494   39.9521   19.8552 C   0  0  0  0  0  0  0  0  0  0  0  0
   30.2495   38.7371   19.0757 C   0  0  0  0  0  0  0  0  0  0  0  0
   31.1370   38.4654   18.2576 O   0  0  0  0  0  0  0  0  0  0  0  0
   27.1927   37.0990   20.5734 C   0  0  2  0  0  0  0  0  0  0  0  0
   27.4765   36.8962   22.0707 C   0  0  0  0  0  0  0  0  0  0  0  0
   26.7017   35.7841   22.6239 N   0  0  0  0  0  0  0  0  0  0  0  0
   27.0998   34.5382   21.9490 C   0  0  0  0  0  0  0  0  0  0  0  0
   26.7708   34.5976   20.4704 C   0  0  0  0  0  0  0  0  0  0  0  0
   27.4479   35.7894   19.8080 C   0  0  0  0  0  0  0  0  0  0  0  0
   29.0955   41.3013   21.6525 C   0  0  0  0  0  0  0  0  0  0  0  0
   27.7411   41.4423   22.7112 S   0  0  0  0  0  0  0  0  0  0  0  0
   28.2578   42.9346   23.2741 C   0  0  0  0  0  0  0  0  0  0  0  0
   29.4260   43.2976   22.7297 C   0  0  0  0  0  0  0  0  0  0  0  0
   29.9200   42.3739   21.7880 C   0  0  0  0  0  0  0  0  0  0  0  0
   26.8820   35.6581   24.0809 C   0  0  0  0  0  0  0  0  0  0  0  0
   27.0019   36.9599   24.8413 C   0  0  0  0  0  0  0  0  0  0  0  0
   26.5057   38.1444   24.3164 C   0  0  0  0  0  0  0  0  0  0  0  0
   26.8698   39.3704   24.7338 N   0  0  0  0  0  0  0  0  0  0  0  0
   27.7922   39.3690   25.6844 C   0  0  0  0  0  0  0  0  0  0  0  0
   28.3861   38.3316   26.2524 N   0  0  0  0  0  0  0  0  0  0  0  0
   27.9866   37.1372   25.7912 C   0  0  0  0  0  0  0  0  0  0  0  0
   28.1581   40.5901   26.0906 O   0  0  0  0  0  0  0  0  0  0  0  0
   29.4281   40.7175   26.7407 C   0  0  0  0  0  0  0  0  0  0  0  0
  1  2  2  0  0  0  0
  1  6  1  0  0  0  0
  2  3  1  0  0  0  0
  3  4  2  0  0  0  0
  4 14  1  0  0  0  0
  5  4  1  0  0  0  0
  6  5  1  0  0  0  0
  7  6  2  0  0  0  0
  8  9  1  0  0  0  0
  8  2  1  6  0  0  0
 10 19  1  0  0  0  0
 10  9  1  0  0  0  0
 11 10  1  0  0  0  0
 12 11  1  0  0  0  0
 12 13  1  0  0  0  0
 13  8  1  0  0  0  0
 14 15  1  0  0  0  0
 14 18  2  0  0  0  0
 15 16  1  0  0  0  0
 16 17  2  0  0  0  0
 18 17  1  0  0  0  0
 19 20  1  0  0  0  0
 20 25  2  0  0  0  0
 20 21  1  0  0  0  0
 21 22  2  0  0  0  0
 22 23  1  0  0  0  0
 23 26  1  0  0  0  0
 24 23  2  0  0  0  0
 25 24  1  0  0  0  0
 26 27  1  0  0  0  0
M  END
>  <CHROM.1>
-2.51080120,118.30324686,36.97787044,22.20955571,-158.74346215,28.23548638
38.80271553,22.48862452,-1.75111009,1.14354092,0.87716870

>  <Name>
lig.pdb

>  <RI>
0

>  <Rbt.Current_Directory>
/home/itssahil/PROJECTS/Mol_Feturizer/New_Systems/rnas/5kx9

>  <Rbt.Executable>
rbdock ($Id: //depot/dev/client3/rdock/2013.1/src/exe/rbdock.cxx#4 $)

>  <Rbt.Library>
libRbt.so (2013.1, Build901 2013/11/27)

>  <Rbt.Parameter_File>
/export/apps/rDock/src/rDock_2013.1_src/data/scripts/dock_solv.prm

>  <Rbt.Receptor>
prm/pocket_docking_7.prm

>  <SCORE>
-33.2911

>  <SCORE.INTER>
-32.0664

>  <SCORE.INTER.CONST>
1

>  <SCORE.INTER.POLAR>
0

>  <SCORE.INTER.ROT>
5

>  <SCORE.INTER.SOLV>
15.0983

>  <SCORE.INTER.VDW>
-33.3437

>  <SCORE.INTER.norm>
-1.18764

>  <SCORE.INTRA>
-1.22471

>  <SCORE.INTRA.DIHEDRAL>
0.0634743

>  <SCORE.INTRA.DIHEDRAL.0>
2.68224

>  <SCORE.INTRA.POLAR>
0

>  <SCORE.INTRA.POLAR.0>
0

>  <SCORE.INTRA.REPUL>
0

>  <SCORE.INTRA.REPUL.0>
0

>  <SCORE.INTRA.SOLV>
0.585736

>  <SCORE.INTRA.SOLV.lig_0>
-19.4148

>  <SCORE.INTRA.VDW>
-1.54931

>  <SCORE.INTRA.VDW.0>
5.42093

>  <SCORE.INTRA.norm>
-0.0453595

>  <SCORE.RESTR>
0

>  <SCORE.RESTR.CAVITY>
0

>  <SCORE.RESTR.norm>
0

>  <SCORE.SYSTEM>
0

>  <SCORE.SYSTEM.CONST>
0

>  <SCORE.SYSTEM.DIHEDRAL>
0

>  <SCORE.SYSTEM.SOLV>
0

>  <SCORE.SYSTEM.norm>
0

>  <SCORE.heavy>
27

>  <SCORE.norm>
-1.233

>  <RMSD>
4.970

$$$$
lig.pdb
 OpenBabel11021811523D
libRbt.so/2013.1/901 2013/11/27
 27 30  0  0  0  0  0  0  0  0999 V2000
   26.8819   36.4472   23.5239 N   0  0  0  0  0  0  0  0  0  0  0  0
   27.5885   36.8168   22.4845 C   0  0  0  0  0  0  0  0  0  0  0  0
   28.0557   38.0728   22.2713 N   0  0  0  0  0  0  0  0  0  0  0  0
   27.8240   39.0270   23.2215 C   0  0  0  0  0  0  0  0  0  0  0  0
   27.1200   38.7230   24.3513 C   0  0  0  0  0  0  0  0  0  0  0  0
   26.6055   37.3847   24.5182 C   0  0  0  0  0  0  0  0  0  0  0  0
   25.9150   37.0479   25.4881 O   0  0  0  0  0  0  0  0  0  0  0  0
   27.8239   35.8960   21.2670 C   0  0  2  0  0  0  0  0  0  0  0  0
   27.5627   36.8494   20.0896 C   0  0  0  0  0  0  0  0  0  0  0  0
   27.4877   36.1309   18.8163 N   0  0  0  0  0  0  0  0  0  0  0  0
   26.3522   35.1954   18.8583 C   0  0  0  0  0  0  0  0  0  0  0  0
   26.5584   34.1458   19.9325 C   0  0  0  0  0  0  0  0  0  0  0  0
   26.7531   34.7922   21.2970 C   0  0  0  0  0  0  0  0  0  0  0  0
   28.4195   40.3113   22.8779 C   0  0  0  0  0  0  0  0  0  0  0  0
   28.0032   41.7547   23.7255 S   0  0  0  0  0  0  0  0  0  0  0  0
   29.0176   42.6839   22.7671 C   0  0  0  0  0  0  0  0  0  0  0  0
   29.6836   41.9397   21.8752 C   0  0  0  0  0  0  0  0  0  0  0  0
   29.3467   40.5727   21.9185 C   0  0  0  0  0  0  0  0  0  0  0  0
   27.3527   37.0499   17.6724 C   0  0  0  0  0  0  0  0  0  0  0  0
   27.5454   38.5171   17.9844 C   0  0  0  0  0  0  0  0  0  0  0  0
   26.4962   39.4175   17.8700 C   0  0  0  0  0  0  0  0  0  0  0  0
   26.6477   40.7511   17.7778 N   0  0  0  0  0  0  0  0  0  0  0  0
   27.9091   41.1550   17.7647 C   0  0  0  0  0  0  0  0  0  0  0  0
   29.0084   40.4205   17.8243 N   0  0  0  0  0  0  0  0  0  0  0  0
   28.7939   39.0993   17.9090 C   0  0  0  0  0  0  0  0  0  0  0  0
   28.0558   42.4810   17.6639 O   0  0  0  0  0  0  0  0  0  0  0  0
   28.3837   43.0137   16.3753 C   0  0  0  0  0  0  0  0  0  0  0  0
  1  2  2  0  0  0  0
  1  6  1  0  0  0  0
  2  3  1  0  0  0  0
  3  4  2  0  0  0  0
  4 14  1  0  0  0  0
  5  4  1  0  0  0  0
  6  5  1  0  0  0  0
  7  6  2  0  0  0  0
  8  9  1  0  0  0  0
  8  2  1  1  0  0  0
 10 19  1  0  0  0  0
 10  9  1  0  0  0  0
 11 10  1  0  0  0  0
 12 11  1  0  0  0  0
 12 13  1  0  0  0  0
 13  8  1  0  0  0  0
 14 15  1  0  0  0  0
 14 18  2  0  0  0  0
 15 16  1  0  0  0  0
 16 17  2  0  0  0  0
 18 17  1  0  0  0  0
 19 20  1  0  0  0  0
 20 25  2  0  0  0  0
 20 21  1  0  0  0  0
 21 22  2  0  0  0  0
 22 23  1  0  0  0  0
 23 26  1  0  0  0  0
 24 23  2  0  0  0  0
 25 24  1  0  0  0  0
 26 27  1  0  0  0  0
M  END
>  <CHROM.1>
166.90576137,134.63887515,9.67699378,-114.03351709,-100.82934482,27.67139915
38.87036816,20.78886617,-2.36561826,-1.32172865,-1.61730467

>  <Name>
lig.pdb

>  <RI>
0

>  <Rbt.Current_Directory>
/home/itssahil/PROJECTS/Mol_Feturizer/New_Systems/rnas/5kx9

>  <Rbt.Executable>
rbdock ($Id: //depot/dev/client3/rdock/2013.1/src/exe/rbdock.cxx#4 $)

>  <Rbt.Library>
libRbt.so (2013.1, Build901 2013/11/27)

>  <Rbt.Parameter_File>
/export/apps/rDock/src/rDock_2013.1_src/data/scripts/dock_solv.prm

>  <Rbt.Receptor>
prm/blind_docking_80.prm

>  <SCORE>
-28.7752

>  <SCORE.INTER>
-29.3521

>  <SCORE.INTER.CONST>
1

>  <SCORE.INTER.POLAR>
0

>  <SCORE.INTER.ROT>
5

>  <SCORE.INTER.SOLV>
12.1952

>  <SCORE.INTER.VDW>
-30.5665

>  <SCORE.INTER.norm>
-1.08712

>  <SCORE.INTRA>
0.576928

>  <SCORE.INTRA.DIHEDRAL>
6.41745

>  <SCORE.INTRA.DIHEDRAL.0>
2.68224

>  <SCORE.INTRA.POLAR>
0

>  <SCORE.INTRA.POLAR.0>
0

>  <SCORE.INTRA.REPUL>
0

>  <SCORE.INTRA.REPUL.0>
0

>  <SCORE.INTRA.SOLV>
-0.476544

>  <SCORE.INTRA.SOLV.lig_0>
-19.4148

>  <SCORE.INTRA.VDW>
-2.39353

>  <SCORE.INTRA.VDW.0>
5.42093

>  <SCORE.INTRA.norm>
0.0213677

>  <SCORE.RESTR>
0

>  <SCORE.RESTR.CAVITY>
0

>  <SCORE.RESTR.norm>
0

>  <SCORE.SYSTEM>
0

>  <SCORE.SYSTEM.CONST>
0

>  <SCORE.SYSTEM.DIHEDRAL>
0

>  <SCORE.SYSTEM.SOLV>
0

>  <SCORE.SYSTEM.norm>
0

>  <SCORE.heavy>
27

>  <SCORE.norm>
-1.06575

>  <RMSD>
4.997

$$$$
lig.pdb
 OpenBabel11021811523D
libRbt.so/2013.1/901 2013/11/27
 27 30  0  0  0  0  0  0  0  0999 V2000
   27.2211   38.7123   24.3641 N   0  0  0  0  0  0  0  0  0  0  0  0
   27.6727   38.7627   23.1353 C   0  0  0  0  0  0  0  0  0  0  0  0
   27.7451   37.7026   22.2916 N   0  0  0  0  0  0  0  0  0  0  0  0
   27.2733   36.4933   22.7185 C   0  0  0  0  0  0  0  0  0  0  0  0
   26.7585   36.3552   23.9756 C   0  0  0  0  0  0  0  0  0  0  0  0
   26.7388   37.4998   24.8551 C   0  0  0  0  0  0  0  0  0  0  0  0
   26.3372   37.4404   26.0238 O   0  0  0  0  0  0  0  0  0  0  0  0
   28.3579   40.0173   22.5505 C   0  0  2  0  0  0  0  0  0  0  0  0
   28.5114   40.9073   23.7945 C   0  0  0  0  0  0  0  0  0  0  0  0
   28.9216   42.2675   23.4411 N   0  0  0  0  0  0  0  0  0  0  0  0
   27.8750   42.8847   22.6104 C   0  0  0  0  0  0  0  0  0  0  0  0
   27.7103   42.1325   21.3046 C   0  0  0  0  0  0  0  0  0  0  0  0
   27.3808   40.6677   21.5563 C   0  0  0  0  0  0  0  0  0  0  0  0
   27.3762   35.4623   21.6945 C   0  0  0  0  0  0  0  0  0  0  0  0
   27.8693   35.8357   20.0844 S   0  0  0  0  0  0  0  0  0  0  0  0
   27.7030   34.2401   19.5973 C   0  0  0  0  0  0  0  0  0  0  0  0
   27.3391   33.4431   20.6099 C   0  0  0  0  0  0  0  0  0  0  0  0
   27.1385   34.1298   21.8232 C   0  0  0  0  0  0  0  0  0  0  0  0
   29.1816   43.0921   24.6343 C   0  0  0  0  0  0  0  0  0  0  0  0
   30.3540   42.6600   25.4865 C   0  0  0  0  0  0  0  0  0  0  0  0
   30.1816   41.7919   26.5548 C   0  0  0  0  0  0  0  0  0  0  0  0
   31.0654   41.6377   27.5573 N   0  0  0  0  0  0  0  0  0  0  0  0
   32.1274   42.4246   27.4710 C   0  0  0  0  0  0  0  0  0  0  0  0
   32.4109   43.3245   26.5430 N   0  0  0  0  0  0  0  0  0  0  0  0
   31.4905   43.4372   25.5739 C   0  0  0  0  0  0  0  0  0  0  0  0
   32.9998   42.2747   28.4743 O   0  0  0  0  0  0  0  0  0  0  0  0
   34.3497   41.9396   28.1320 C   0  0  0  0  0  0  0  0  0  0  0  0
  1  2  2  0  0  0  0
  1  6  1  0  0  0  0
  2  3  1  0  0  0  0
  3  4  2  0  0  0  0
  4 14  1  0  0  0  0
  5  4  1  0  0  0  0
  6  5  1  0  0  0  0
  7  6  2  0  0  0  0
  8  9  1  0  0  0  0
  8  2  1  1  0  0  0
 10 19  1  0  0  0  0
 10  9  1  0  0  0  0
 11 10  1  0  0  0  0
 12 11  1  0  0  0  0
 12 13  1  0  0  0  0
 13  8  1  0  0  0  0
 14 15  1  0  0  0  0
 14 18  2  0  0  0  0
 15 16  1  0  0  0  0
 16 17  2  0  0  0  0
 18 17  1  0  0  0  0
 19 20  1  0  0  0  0
 20 25  2  0  0  0  0
 20 21  1  0  0  0  0
 21 22  2  0  0  0  0
 22 23  1  0  0  0  0
 23 26  1  0  0  0  0
 24 23  2  0  0  0  0
 25 24  1  0  0  0  0
 26 27  1  0  0  0  0
M  END
>  <CHROM.1>
-6.78918152,8.52171064,65.53227289,-92.06665155,123.24423223,28.87884608
39.42093637,23.83017082,-2.50400008,-0.98410019,-0.19146707

>  <Name>
lig.pdb

>  <RI>
0

>  <Rbt.Current_Directory>
/home/itssahil/PROJECTS/Mol_Feturizer/New_Systems/rnas/5kx9

>  <Rbt.Executable>
rbdock ($Id: //depot/dev/client3/rdock/2013.1/src/exe/rbdock.cxx#4 $)

>  <Rbt.Library>
libRbt.so (2013.1, Build901 2013/11/27)

>  <Rbt.Parameter_File>
/export/apps/rDock/src/rDock_2013.1_src/data/scripts/dock_solv.prm

>  <Rbt.Receptor>
prm/pocket_docking_6.prm

>  <SCORE>
-43.0423

>  <SCORE.INTER>
-39.1636

>  <SCORE.INTER.CONST>
1

>  <SCORE.INTER.POLAR>
0

>  <SCORE.INTER.ROT>
5

>  <SCORE.INTER.SOLV>
16.8783

>  <SCORE.INTER.VDW>
-38.6685

>  <SCORE.INTER.norm>
-1.4505

>  <SCORE.INTRA>
-3.87876

>  <SCORE.INTRA.DIHEDRAL>
2.48884

>  <SCORE.INTRA.DIHEDRAL.0>
2.68224

>  <SCORE.INTRA.POLAR>
0

>  <SCORE.INTRA.POLAR.0>
0

>  <SCORE.INTRA.REPUL>
0

>  <SCORE.INTRA.REPUL.0>
0

>  <SCORE.INTRA.SOLV>
-0.611314

>  <SCORE.INTRA.SOLV.lig_0>
-19.4148

>  <SCORE.INTRA.VDW>
-4.81752

>  <SCORE.INTRA.VDW.0>
5.42093

>  <SCORE.INTRA.norm>
-0.143658

>  <SCORE.RESTR>
0

>  <SCORE.RESTR.CAVITY>
0

>  <SCORE.RESTR.norm>
0

>  <SCORE.SYSTEM>
0

>  <SCORE.SYSTEM.CONST>
0

>  <SCORE.SYSTEM.DIHEDRAL>
0

>  <SCORE.SYSTEM.SOLV>
0

>  <SCORE.SYSTEM.norm>
0

>  <SCORE.heavy>
27

>  <SCORE.norm>
-1.59416

>  <RMSD>
5.029

$$$$
lig.pdb
 OpenBabel11021811523D
libRbt.so/2013.1/901 2013/11/27
 27 30  0  0  0  0  0  0  0  0999 V2000
   26.8392   35.1038   22.8240 N   0  0  0  0  0  0  0  0  0  0  0  0
   26.7966   36.3912   22.5852 C   0  0  0  0  0  0  0  0  0  0  0  0
   27.1571   36.9752   21.4147 N   0  0  0  0  0  0  0  0  0  0  0  0
   27.5518   36.1759   20.3791 C   0  0  0  0  0  0  0  0  0  0  0  0
   27.5993   34.8197   20.5300 C   0  0  0  0  0  0  0  0  0  0  0  0
   27.2468   34.2431   21.8056 C   0  0  0  0  0  0  0  0  0  0  0  0
   27.3155   33.0292   22.0346 O   0  0  0  0  0  0  0  0  0  0  0  0
   26.4991   37.4332   23.6858 C   0  0  2  0  0  0  0  0  0  0  0  0
   27.5320   38.5290   23.3765 C   0  0  0  0  0  0  0  0  0  0  0  0
   27.6050   39.5236   24.4483 N   0  0  0  0  0  0  0  0  0  0  0  0
   28.0509   38.8643   25.6863 C   0  0  0  0  0  0  0  0  0  0  0  0
   27.0447   37.8227   26.1345 C   0  0  0  0  0  0  0  0  0  0  0  0
   26.8115   36.7850   25.0452 C   0  0  0  0  0  0  0  0  0  0  0  0
   27.8663   36.9364   19.1771 C   0  0  0  0  0  0  0  0  0  0  0  0
   27.5788   38.6345   19.0826 S   0  0  0  0  0  0  0  0  0  0  0  0
   28.1364   38.7038   17.5030 C   0  0  0  0  0  0  0  0  0  0  0  0
   28.5692   37.5120   17.0724 C   0  0  0  0  0  0  0  0  0  0  0  0
   28.4145   36.4808   18.0193 C   0  0  0  0  0  0  0  0  0  0  0  0
   28.5081   40.6366   24.1064 C   0  0  0  0  0  0  0  0  0  0  0  0
   28.2890   41.2645   22.7480 C   0  0  0  0  0  0  0  0  0  0  0  0
   27.0099   41.5140   22.2721 C   0  0  0  0  0  0  0  0  0  0  0  0
   26.7101   41.7268   20.9780 N   0  0  0  0  0  0  0  0  0  0  0  0
   27.7475   41.6409   20.1588 C   0  0  0  0  0  0  0  0  0  0  0  0
   29.0090   41.3720   20.4548 N   0  0  0  0  0  0  0  0  0  0  0  0
   29.2451   41.1636   21.7585 C   0  0  0  0  0  0  0  0  0  0  0  0
   27.4439   41.8442   18.8717 O   0  0  0  0  0  0  0  0  0  0  0  0
   28.4739   42.3661   18.0241 C   0  0  0  0  0  0  0  0  0  0  0  0
  1  2  2  0  0  0  0
  1  6  1  0  0  0  0
  2  3  1  0  0  0  0
  3  4  2  0  0  0  0
  4 14  1  0  0  0  0
  5  4  1  0  0  0  0
  6  5  1  0  0  0  0
  7  6  2  0  0  0  0
  8  9  1  0  0  0  0
  8  2  1  6  0  0  0
 10 19  1  0  0  0  0
 10  9  1  0  0  0  0
 11 10  1  0  0  0  0
 12 11  1  0  0  0  0
 12 13  1  0  0  0  0
 13  8  1  0  0  0  0
 14 15  1  0  0  0  0
 14 18  2  0  0  0  0
 15 16  1  0  0  0  0
 16 17  2  0  0  0  0
 18 17  1  0  0  0  0
 19 20  1  0  0  0  0
 20 25  2  0  0  0  0
 20 21  1  0  0  0  0
 21 22  2  0  0  0  0
 22 23  1  0  0  0  0
 23 26  1  0  0  0  0
 24 23  2  0  0  0  0
 25 24  1  0  0  0  0
 26 27  1  0  0  0  0
M  END
>  <CHROM.1>
-6.41308250,137.06695777,49.34152491,42.03895901,152.32570818,27.66133742
38.45009528,21.38857947,-3.01693817,1.43309021,0.79167221

>  <Name>
lig.pdb

>  <RI>
0

>  <Rbt.Current_Directory>
/home/itssahil/PROJECTS/Mol_Feturizer/New_Systems/rnas/5kx9

>  <Rbt.Executable>
rbdock ($Id: //depot/dev/client3/rdock/2013.1/src/exe/rbdock.cxx#4 $)

>  <Rbt.Library>
libRbt.so (2013.1, Build901 2013/11/27)

>  <Rbt.Parameter_File>
/export/apps/rDock/src/rDock_2013.1_src/data/scripts/dock_solv.prm

>  <Rbt.Receptor>
prm/pocket_docking_4.prm

>  <SCORE>
-29.3435

>  <SCORE.INTER>
-26.4523

>  <SCORE.INTER.CONST>
1

>  <SCORE.INTER.POLAR>
0

>  <SCORE.INTER.ROT>
5

>  <SCORE.INTER.SOLV>
13.7287

>  <SCORE.INTER.VDW>
-29.1444

>  <SCORE.INTER.norm>
-0.979714

>  <SCORE.INTRA>
-2.89121

>  <SCORE.INTRA.DIHEDRAL>
0.532837

>  <SCORE.INTRA.DIHEDRAL.0>
2.68224

>  <SCORE.INTRA.POLAR>
0

>  <SCORE.INTRA.POLAR.0>
0

>  <SCORE.INTRA.REPUL>
0

>  <SCORE.INTRA.REPUL.0>
0

>  <SCORE.INTRA.SOLV>
0.650705

>  <SCORE.INTRA.SOLV.lig_0>
-19.4148

>  <SCORE.INTRA.VDW>
-3.48298

>  <SCORE.INTRA.VDW.0>
5.42093

>  <SCORE.INTRA.norm>
-0.107082

>  <SCORE.RESTR>
0

>  <SCORE.RESTR.CAVITY>
0

>  <SCORE.RESTR.norm>
0

>  <SCORE.SYSTEM>
0

>  <SCORE.SYSTEM.CONST>
0

>  <SCORE.SYSTEM.DIHEDRAL>
0

>  <SCORE.SYSTEM.SOLV>
0

>  <SCORE.SYSTEM.norm>
0

>  <SCORE.heavy>
27

>  <SCORE.norm>
-1.0868

>  <RMSD>
5.035

$$$$
lig.pdb
 OpenBabel11021811523D
libRbt.so/2013.1/901 2013/11/27
 27 30  0  0  0  0  0  0  0  0999 V2000
   26.8333   34.8969   22.8496 N   0  0  0  0  0  0  0  0  0  0  0  0
   26.7658   36.1770   22.5793 C   0  0  0  0  0  0  0  0  0  0  0  0
   27.1163   36.7392   21.3951 N   0  0  0  0  0  0  0  0  0  0  0  0
   27.5277   35.9226   20.3797 C   0  0  0  0  0  0  0  0  0  0  0  0
   27.6015   34.5717   20.5638 C   0  0  0  0  0  0  0  0  0  0  0  0
   27.2588   34.0198   21.8529 C   0  0  0  0  0  0  0  0  0  0  0  0
   27.3509   32.8134   22.1116 O   0  0  0  0  0  0  0  0  0  0  0  0
   26.4467   37.2396   23.6538 C   0  0  2  0  0  0  0  0  0  0  0  0
   27.4452   38.3558   23.3065 C   0  0  0  0  0  0  0  0  0  0  0  0
   27.4976   39.3808   24.3504 N   0  0  0  0  0  0  0  0  0  0  0  0
   27.9717   38.7685   25.6020 C   0  0  0  0  0  0  0  0  0  0  0  0
   26.9994   37.7111   26.0865 C   0  0  0  0  0  0  0  0  0  0  0  0
   26.7880   36.6379   25.0276 C   0  0  0  0  0  0  0  0  0  0  0  0
   27.8286   36.6595   19.1596 C   0  0  0  0  0  0  0  0  0  0  0  0
   27.5124   38.3498   19.0250 S   0  0  0  0  0  0  0  0  0  0  0  0
   28.0680   38.3908   17.4437 C   0  0  0  0  0  0  0  0  0  0  0  0
   28.5207   37.1966   17.0413 C   0  0  0  0  0  0  0  0  0  0  0  0
   28.3839   36.1857   18.0126 C   0  0  0  0  0  0  0  0  0  0  0  0
   28.3656   40.5095   23.9711 C   0  0  0  0  0  0  0  0  0  0  0  0
   28.3626   40.8739   22.5032 C   0  0  0  0  0  0  0  0  0  0  0  0
   29.4217   40.5273   21.6769 C   0  0  0  0  0  0  0  0  0  0  0  0
   29.6721   41.0983   20.4848 N   0  0  0  0  0  0  0  0  0  0  0  0
   28.8335   42.0713   20.1616 C   0  0  0  0  0  0  0  0  0  0  0  0
   27.8095   42.5393   20.8572 N   0  0  0  0  0  0  0  0  0  0  0  0
   27.6135   41.9352   22.0385 C   0  0  0  0  0  0  0  0  0  0  0  0
   29.0912   42.6427   18.9796 O   0  0  0  0  0  0  0  0  0  0  0  0
   28.9949   41.8185   17.8120 C   0  0  0  0  0  0  0  0  0  0  0  0
  1  2  2  0  0  0  0
  1  6  1  0  0  0  0
  2  3  1  0  0  0  0
  3  4  2  0  0  0  0
  4 14  1  0  0  0  0
  5  4  1  0  0  0  0
  6  5  1  0  0  0  0
  7  6  2  0  0  0  0
  8  9  1  0  0  0  0
  8  2  1  6  0  0  0
 10 19  1  0  0  0  0
 10  9  1  0  0  0  0
 11 10  1  0  0  0  0
 12 11  1  0  0  0  0
 12 13  1  0  0  0  0
 13  8  1  0  0  0  0
 14 15  1  0  0  0  0
 14 18  2  0  0  0  0
 15 16  1  0  0  0  0
 16 17  2  0  0  0  0
 18 17  1  0  0  0  0
 19 20  1  0  0  0  0
 20 25  2  0  0  0  0
 20 21  1  0  0  0  0
 21 22  2  0  0  0  0
 22 23  1  0  0  0  0
 23 26  1  0  0  0  0
 24 23  2  0  0  0  0
 25 24  1  0  0  0  0
 26 27  1  0  0  0  0
M  END
>  <CHROM.1>
-6.23305638,137.81529465,34.92606262,-104.09552148,62.88695192,27.84495848
38.32010494,21.34283356,-2.98581246,1.34485743,0.91447641

>  <Name>
lig.pdb

>  <RI>
0

>  <Rbt.Current_Directory>
/home/itssahil/PROJECTS/Mol_Feturizer/New_Systems/rnas/5kx9

>  <Rbt.Executable>
rbdock ($Id: //depot/dev/client3/rdock/2013.1/src/exe/rbdock.cxx#4 $)

>  <Rbt.Library>
libRbt.so (2013.1, Build901 2013/11/27)

>  <Rbt.Parameter_File>
/export/apps/rDock/src/rDock_2013.1_src/data/scripts/dock_solv.prm

>  <Rbt.Receptor>
prm/pocket_docking_3.prm

>  <SCORE>
-28.9371

>  <SCORE.INTER>
-27.1493

>  <SCORE.INTER.CONST>
1

>  <SCORE.INTER.POLAR>
0

>  <SCORE.INTER.ROT>
5

>  <SCORE.INTER.SOLV>
16.0876

>  <SCORE.INTER.VDW>
-30.3954

>  <SCORE.INTER.norm>
-1.00553

>  <SCORE.INTRA>
-1.78785

>  <SCORE.INTRA.DIHEDRAL>
3.64575

>  <SCORE.INTRA.DIHEDRAL.0>
2.68224

>  <SCORE.INTRA.POLAR>
0

>  <SCORE.INTRA.POLAR.0>
0

>  <SCORE.INTRA.REPUL>
0

>  <SCORE.INTRA.REPUL.0>
0

>  <SCORE.INTRA.SOLV>
-0.168854

>  <SCORE.INTRA.SOLV.lig_0>
-19.4148

>  <SCORE.INTRA.VDW>
-3.5263

>  <SCORE.INTRA.VDW.0>
5.42093

>  <SCORE.INTRA.norm>
-0.0662168

>  <SCORE.RESTR>
0

>  <SCORE.RESTR.CAVITY>
0

>  <SCORE.RESTR.norm>
0

>  <SCORE.SYSTEM>
0

>  <SCORE.SYSTEM.CONST>
0

>  <SCORE.SYSTEM.DIHEDRAL>
0

>  <SCORE.SYSTEM.SOLV>
0

>  <SCORE.SYSTEM.norm>
0

>  <SCORE.heavy>
27

>  <SCORE.norm>
-1.07175

>  <RMSD>
5.043

$$$$
lig.pdb
 OpenBabel11021811523D
libRbt.so/2013.1/901 2013/11/27
 27 30  0  0  0  0  0  0  0  0999 V2000
   28.4958   38.5959   20.8086 N   0  0  0  0  0  0  0  0  0  0  0  0
   29.0496   39.7820   20.7565 C   0  0  0  0  0  0  0  0  0  0  0  0
   29.0693   40.6743   21.7785 N   0  0  0  0  0  0  0  0  0  0  0  0
   28.5182   40.3109   22.9749 C   0  0  0  0  0  0  0  0  0  0  0  0
   27.9437   39.0817   23.1280 C   0  0  0  0  0  0  0  0  0  0  0  0
   27.9078   38.1791   22.0021 C   0  0  0  0  0  0  0  0  0  0  0  0
   27.3590   37.0712   22.0482 O   0  0  0  0  0  0  0  0  0  0  0  0
   29.5962   40.3893   19.4457 C   0  0  2  0  0  0  0  0  0  0  0  0
   28.3222   40.5118   18.5941 C   0  0  0  0  0  0  0  0  0  0  0  0
   28.6302   40.8420   17.2015 N   0  0  0  0  0  0  0  0  0  0  0  0
   29.4247   39.7515   16.6133 C   0  0  0  0  0  0  0  0  0  0  0  0
   30.7553   39.6095   17.3258 C   0  0  0  0  0  0  0  0  0  0  0  0
   30.5536   39.3641   18.8146 C   0  0  0  0  0  0  0  0  0  0  0  0
   28.6507   41.3497   23.9876 C   0  0  0  0  0  0  0  0  0  0  0  0
   29.3140   42.8969   23.6117 S   0  0  0  0  0  0  0  0  0  0  0  0
   29.1486   43.4213   25.1956 C   0  0  0  0  0  0  0  0  0  0  0  0
   28.5736   42.4943   25.9721 C   0  0  0  0  0  0  0  0  0  0  0  0
   28.2869   41.2922   25.2963 C   0  0  0  0  0  0  0  0  0  0  0  0
   27.4107   41.0737   16.4076 C   0  0  0  0  0  0  0  0  0  0  0  0
   26.4844   42.1498   16.9284 C   0  0  0  0  0  0  0  0  0  0  0  0
   25.3674   41.8285   17.6858 C   0  0  0  0  0  0  0  0  0  0  0  0
   24.3219   42.6519   17.8827 N   0  0  0  0  0  0  0  0  0  0  0  0
   24.4184   43.8128   17.2522 C   0  0  0  0  0  0  0  0  0  0  0  0
   25.3932   44.2441   16.4679 N   0  0  0  0  0  0  0  0  0  0  0  0
   26.4041   43.3779   16.3048 C   0  0  0  0  0  0  0  0  0  0  0  0
   23.3727   44.6253   17.4432 O   0  0  0  0  0  0  0  0  0  0  0  0
   22.9286   44.8256   18.7902 C   0  0  0  0  0  0  0  0  0  0  0  0
  1  2  2  0  0  0  0
  1  6  1  0  0  0  0
  2  3  1  0  0  0  0
  3  4  2  0  0  0  0
  4 14  1  0  0  0  0
  5  4  1  0  0  0  0
  6  5  1  0  0  0  0
  7  6  2  0  0  0  0
  8  9  1  0  0  0  0
  8  2  1  1  0  0  0
 10 19  1  0  0  0  0
 10  9  1  0  0  0  0
 11 10  1  0  0  0  0
 12 11  1  0  0  0  0
 12 13  1  0  0  0  0
 13  8  1  0  0  0  0
 14 15  1  0  0  0  0
 14 18  2  0  0  0  0
 15 16  1  0  0  0  0
 16 17  2  0  0  0  0
 18 17  1  0  0  0  0
 19 20  1  0  0  0  0
 20 25  2  0  0  0  0
 20 21  1  0  0  0  0
 21 22  2  0  0  0  0
 22 23  1  0  0  0  0
 23 26  1  0  0  0  0
 24 23  2  0  0  0  0
 25 24  1  0  0  0  0
 26 27  1  0  0  0  0
M  END
>  <CHROM.1>
5.03949358,63.43251020,56.78627216,-98.35125879,48.61251691,27.66209397,41.34553239
20.14406796,-0.87033528,0.82887477,-1.81256756

>  <Name>
lig.pdb

>  <RI>
0

>  <Rbt.Current_Directory>
/home/itssahil/PROJECTS/Mol_Feturizer/New_Systems/rnas/5kx9

>  <Rbt.Executable>
rbdock ($Id: //depot/dev/client3/rdock/2013.1/src/exe/rbdock.cxx#4 $)

>  <Rbt.Library>
libRbt.so (2013.1, Build901 2013/11/27)

>  <Rbt.Parameter_File>
/export/apps/rDock/src/rDock_2013.1_src/data/scripts/dock_solv.prm

>  <Rbt.Receptor>
prm/blind_docking_100.prm

>  <SCORE>
-28.8632

>  <SCORE.INTER>
-23.8723

>  <SCORE.INTER.CONST>
1

>  <SCORE.INTER.POLAR>
0

>  <SCORE.INTER.ROT>
5

>  <SCORE.INTER.SOLV>
12.7311

>  <SCORE.INTER.VDW>
-27.0919

>  <SCORE.INTER.norm>
-0.88416

>  <SCORE.INTRA>
-4.99085

>  <SCORE.INTRA.DIHEDRAL>
1.3574

>  <SCORE.INTRA.DIHEDRAL.0>
2.68224

>  <SCORE.INTRA.POLAR>
0

>  <SCORE.INTRA.POLAR.0>
0

>  <SCORE.INTRA.REPUL>
0

>  <SCORE.INTRA.REPUL.0>
0

>  <SCORE.INTRA.SOLV>
-0.609999

>  <SCORE.INTRA.SOLV.lig_0>
-19.4148

>  <SCORE.INTRA.VDW>
-5.36455

>  <SCORE.INTRA.VDW.0>
5.42093

>  <SCORE.INTRA.norm>
-0.184846

>  <SCORE.RESTR>
0

>  <SCORE.RESTR.CAVITY>
0

>  <SCORE.RESTR.norm>
0

>  <SCORE.SYSTEM>
0

>  <SCORE.SYSTEM.CONST>
0

>  <SCORE.SYSTEM.DIHEDRAL>
0

>  <SCORE.SYSTEM.SOLV>
0

>  <SCORE.SYSTEM.norm>
0

>  <SCORE.heavy>
27

>  <SCORE.norm>
-1.06901

>  <RMSD>
5.062

$$$$
lig.pdb
 OpenBabel11021811523D
libRbt.so/2013.1/901 2013/11/27
 27 30  0  0  0  0  0  0  0  0999 V2000
   26.8652   36.8572   23.8121 N   0  0  0  0  0  0  0  0  0  0  0  0
   27.5783   37.1841   22.7629 C   0  0  0  0  0  0  0  0  0  0  0  0
   28.0505   38.4294   22.5036 N   0  0  0  0  0  0  0  0  0  0  0  0
   27.8172   39.4205   23.4149 C   0  0  0  0  0  0  0  0  0  0  0  0
   27.1064   39.1627   24.5519 C   0  0  0  0  0  0  0  0  0  0  0  0
   26.5868   37.8334   24.7679 C   0  0  0  0  0  0  0  0  0  0  0  0
   25.8903   37.5366   25.7465 O   0  0  0  0  0  0  0  0  0  0  0  0
   27.8168   36.2160   21.5833 C   0  0  2  0  0  0  0  0  0  0  0  0
   27.5607   37.1227   20.3685 C   0  0  0  0  0  0  0  0  0  0  0  0
   27.4893   36.3549   19.1240 N   0  0  0  0  0  0  0  0  0  0  0  0
   26.3527   35.4229   19.1988 C   0  0  0  0  0  0  0  0  0  0  0  0
   26.5542   34.4159   20.3140 C   0  0  0  0  0  0  0  0  0  0  0  0
   26.7448   35.1152   21.6528 C   0  0  0  0  0  0  0  0  0  0  0  0
   28.4185   40.6887   23.0247 C   0  0  0  0  0  0  0  0  0  0  0  0
   27.9676   42.1717   23.7813 S   0  0  0  0  0  0  0  0  0  0  0  0
   29.0100   43.0558   22.8103 C   0  0  0  0  0  0  0  0  0  0  0  0
   29.7089   42.2701   21.9814 C   0  0  0  0  0  0  0  0  0  0  0  0
   29.3766   40.9053   22.0847 C   0  0  0  0  0  0  0  0  0  0  0  0
   27.3592   37.2284   17.9445 C   0  0  0  0  0  0  0  0  0  0  0  0
   27.6137   38.6994   18.1873 C   0  0  0  0  0  0  0  0  0  0  0  0
   26.5637   39.5868   18.3732 C   0  0  0  0  0  0  0  0  0  0  0  0
   26.6660   40.9217   18.2400 N   0  0  0  0  0  0  0  0  0  0  0  0
   27.8670   41.3402   17.8701 C   0  0  0  0  0  0  0  0  0  0  0  0
   28.9475   40.6190   17.6173 N   0  0  0  0  0  0  0  0  0  0  0  0
   28.7825   39.2958   17.7611 C   0  0  0  0  0  0  0  0  0  0  0  0
   27.9625   42.6674   17.7301 O   0  0  0  0  0  0  0  0  0  0  0  0
   28.3177   43.1718   16.4374 C   0  0  0  0  0  0  0  0  0  0  0  0
  1  2  2  0  0  0  0
  1  6  1  0  0  0  0
  2  3  1  0  0  0  0
  3  4  2  0  0  0  0
  4 14  1  0  0  0  0
  5  4  1  0  0  0  0
  6  5  1  0  0  0  0
  7  6  2  0  0  0  0
  8  9  1  0  0  0  0
  8  2  1  1  0  0  0
 10 19  1  0  0  0  0
 10  9  1  0  0  0  0
 11 10  1  0  0  0  0
 12 11  1  0  0  0  0
 12 13  1  0  0  0  0
 13  8  1  0  0  0  0
 14 15  1  0  0  0  0
 14 18  2  0  0  0  0
 15 16  1  0  0  0  0
 16 17  2  0  0  0  0
 18 17  1  0  0  0  0
 19 20  1  0  0  0  0
 20 25  2  0  0  0  0
 20 21  1  0  0  0  0
 21 22  2  0  0  0  0
 22 23  1  0  0  0  0
 23 26  1  0  0  0  0
 24 23  2  0  0  0  0
 25 24  1  0  0  0  0
 26 27  1  0  0  0  0
M  END
>  <CHROM.1>
165.03515527,134.48086457,12.32232730,-98.57797309,-119.59637819,27.66079157
39.17152273,20.98637992,-2.39689274,-1.32630192,-1.68926060

>  <Name>
lig.pdb

>  <RI>
0

>  <Rbt.Current_Directory>
/home/itssahil/PROJECTS/Mol_Feturizer/New_Systems/rnas/5kx9

>  <Rbt.Executable>
rbdock ($Id: //depot/dev/client3/rdock/2013.1/src/exe/rbdock.cxx#4 $)

>  <Rbt.Library>
libRbt.so (2013.1, Build901 2013/11/27)

>  <Rbt.Parameter_File>
/export/apps/rDock/src/rDock_2013.1_src/data/scripts/dock_solv.prm

>  <Rbt.Receptor>
prm/pocket_docking_6.prm

>  <SCORE>
-29.2414

>  <SCORE.INTER>
-29.4544

>  <SCORE.INTER.CONST>
1

>  <SCORE.INTER.POLAR>
0

>  <SCORE.INTER.ROT>
5

>  <SCORE.INTER.SOLV>
12.0767

>  <SCORE.INTER.VDW>
-30.5952

>  <SCORE.INTER.norm>
-1.0909

>  <SCORE.INTRA>
0.212985

>  <SCORE.INTRA.DIHEDRAL>
5.41707

>  <SCORE.INTRA.DIHEDRAL.0>
2.68224

>  <SCORE.INTRA.POLAR>
0

>  <SCORE.INTRA.POLAR.0>
0

>  <SCORE.INTRA.REPUL>
0

>  <SCORE.INTRA.REPUL.0>
0

>  <SCORE.INTRA.SOLV>
-0.576599

>  <SCORE.INTRA.SOLV.lig_0>
-19.4148

>  <SCORE.INTRA.VDW>
-2.20725

>  <SCORE.INTRA.VDW.0>
5.42093

>  <SCORE.INTRA.norm>
0.00788832

>  <SCORE.RESTR>
0

>  <SCORE.RESTR.CAVITY>
0

>  <SCORE.RESTR.norm>
0

>  <SCORE.SYSTEM>
0

>  <SCORE.SYSTEM.CONST>
0

>  <SCORE.SYSTEM.DIHEDRAL>
0

>  <SCORE.SYSTEM.SOLV>
0

>  <SCORE.SYSTEM.norm>
0

>  <SCORE.heavy>
27

>  <SCORE.norm>
-1.08302

>  <RMSD>
5.063

$$$$
lig.pdb
 OpenBabel11021811523D
libRbt.so/2013.1/901 2013/11/27
 27 30  0  0  0  0  0  0  0  0999 V2000
   27.1387   38.7449   24.6893 N   0  0  0  0  0  0  0  0  0  0  0  0
   27.6579   38.8169   23.4887 C   0  0  0  0  0  0  0  0  0  0  0  0
   27.7260   37.7852   22.6101 N   0  0  0  0  0  0  0  0  0  0  0  0
   27.1755   36.5860   22.9653 C   0  0  0  0  0  0  0  0  0  0  0  0
   26.5876   36.4286   24.1875 C   0  0  0  0  0  0  0  0  0  0  0  0
   26.5742   37.5407   25.1078 C   0  0  0  0  0  0  0  0  0  0  0  0
   26.1076   37.4595   26.2508 O   0  0  0  0  0  0  0  0  0  0  0  0
   28.4319   40.0564   22.9887 C   0  0  2  0  0  0  0  0  0  0  0  0
   28.2755   41.0289   24.1691 C   0  0  0  0  0  0  0  0  0  0  0  0
   28.7263   42.3782   23.8237 N   0  0  0  0  0  0  0  0  0  0  0  0
   27.8859   42.9018   22.7347 C   0  0  0  0  0  0  0  0  0  0  0  0
   28.0428   42.0625   21.4820 C   0  0  0  0  0  0  0  0  0  0  0  0
   27.6962   40.6053   21.7545 C   0  0  0  0  0  0  0  0  0  0  0  0
   27.2850   35.5883   21.9094 C   0  0  0  0  0  0  0  0  0  0  0  0
   27.7514   36.0191   20.3056 S   0  0  0  0  0  0  0  0  0  0  0  0
   27.6089   34.4360   19.7726 C   0  0  0  0  0  0  0  0  0  0  0  0
   27.2723   33.6022   20.7648 C   0  0  0  0  0  0  0  0  0  0  0  0
   27.0739   34.2483   22.0006 C   0  0  0  0  0  0  0  0  0  0  0  0
   28.6866   43.2861   24.9836 C   0  0  0  0  0  0  0  0  0  0  0  0
   29.9520   43.3498   25.8094 C   0  0  0  0  0  0  0  0  0  0  0  0
   31.0611   44.0562   25.3673 C   0  0  0  0  0  0  0  0  0  0  0  0
   32.3091   43.8814   25.8384 N   0  0  0  0  0  0  0  0  0  0  0  0
   32.4156   42.9316   26.7554 C   0  0  0  0  0  0  0  0  0  0  0  0
   31.4655   42.1513   27.2452 N   0  0  0  0  0  0  0  0  0  0  0  0
   30.2449   42.3680   26.7334 C   0  0  0  0  0  0  0  0  0  0  0  0
   33.6596   42.7546   27.2150 O   0  0  0  0  0  0  0  0  0  0  0  0
   34.1226   41.4077   27.3673 C   0  0  0  0  0  0  0  0  0  0  0  0
  1  2  2  0  0  0  0
  1  6  1  0  0  0  0
  2  3  1  0  0  0  0
  3  4  2  0  0  0  0
  4 14  1  0  0  0  0
  5  4  1  0  0  0  0
  6  5  1  0  0  0  0
  7  6  2  0  0  0  0
  8  9  1  0  0  0  0
  8  2  1  1  0  0  0
 10 19  1  0  0  0  0
 10  9  1  0  0  0  0
 11 10  1  0  0  0  0
 12 11  1  0  0  0  0
 12 13  1  0  0  0  0
 13  8  1  0  0  0  0
 14 15  1  0  0  0  0
 14 18  2  0  0  0  0
 15 16  1  0  0  0  0
 16 17  2  0  0  0  0
 18 17  1  0  0  0  0
 19 20  1  0  0  0  0
 20 25  2  0  0  0  0
 20 21  1  0  0  0  0
 21 22  2  0  0  0  0
 22 23  1  0  0  0  0
 23 26  1  0  0  0  0
 24 23  2  0  0  0  0
 25 24  1  0  0  0  0
 26 27  1  0  0  0  0
M  END
>  <CHROM.1>
-12.15411436,-4.13164839,90.38784342,76.33497732,-136.32129937,28.83652906
39.59891333,23.88077897,-2.39759062,-0.90687310,-0.15202680

>  <Name>
lig.pdb

>  <RI>
0

>  <Rbt.Current_Directory>
/home/itssahil/PROJECTS/Mol_Feturizer/New_Systems/rnas/5kx9

>  <Rbt.Executable>
rbdock ($Id: //depot/dev/client3/rdock/2013.1/src/exe/rbdock.cxx#4 $)

>  <Rbt.Library>
libRbt.so (2013.1, Build901 2013/11/27)

>  <Rbt.Parameter_File>
/export/apps/rDock/src/rDock_2013.1_src/data/scripts/dock_solv.prm

>  <Rbt.Receptor>
prm/pocket_docking_7.prm

>  <SCORE>
-44.2846

>  <SCORE.INTER>
-41.2699

>  <SCORE.INTER.CONST>
1

>  <SCORE.INTER.POLAR>
0

>  <SCORE.INTER.ROT>
5

>  <SCORE.INTER.SOLV>
18.1442

>  <SCORE.INTER.VDW>
-40.4947

>  <SCORE.INTER.norm>
-1.52851

>  <SCORE.INTRA>
-3.01474

>  <SCORE.INTRA.DIHEDRAL>
3.62328

>  <SCORE.INTRA.DIHEDRAL.0>
2.68224

>  <SCORE.INTRA.POLAR>
0

>  <SCORE.INTRA.POLAR.0>
0

>  <SCORE.INTRA.REPUL>
0

>  <SCORE.INTRA.REPUL.0>
0

>  <SCORE.INTRA.SOLV>
-0.538262

>  <SCORE.INTRA.SOLV.lig_0>
-19.4148

>  <SCORE.INTRA.VDW>
-4.55725

>  <SCORE.INTRA.VDW.0>
5.42093

>  <SCORE.INTRA.norm>
-0.111657

>  <SCORE.RESTR>
0

>  <SCORE.RESTR.CAVITY>
0

>  <SCORE.RESTR.norm>
0

>  <SCORE.SYSTEM>
0

>  <SCORE.SYSTEM.CONST>
0

>  <SCORE.SYSTEM.DIHEDRAL>
0

>  <SCORE.SYSTEM.SOLV>
0

>  <SCORE.SYSTEM.norm>
0

>  <SCORE.heavy>
27

>  <SCORE.norm>
-1.64017

>  <RMSD>
5.072

$$$$
lig.pdb
 OpenBabel11021811523D
libRbt.so/2013.1/901 2013/11/27
 27 30  0  0  0  0  0  0  0  0999 V2000
   26.8169   36.8570   23.9209 N   0  0  0  0  0  0  0  0  0  0  0  0
   27.5431   37.1662   22.8753 C   0  0  0  0  0  0  0  0  0  0  0  0
   28.0203   38.4065   22.6018 N   0  0  0  0  0  0  0  0  0  0  0  0
   27.7773   39.4124   23.4942 C   0  0  0  0  0  0  0  0  0  0  0  0
   27.0525   39.1738   24.6265 C   0  0  0  0  0  0  0  0  0  0  0  0
   26.5284   37.8488   24.8575 C   0  0  0  0  0  0  0  0  0  0  0  0
   25.8197   37.5686   25.8322 O   0  0  0  0  0  0  0  0  0  0  0  0
   27.7946   36.1790   21.7144 C   0  0  2  0  0  0  0  0  0  0  0  0
   27.6150   37.0813   20.4826 C   0  0  0  0  0  0  0  0  0  0  0  0
   27.5660   36.3037   19.2432 N   0  0  0  0  0  0  0  0  0  0  0  0
   26.3972   35.4099   19.2824 C   0  0  0  0  0  0  0  0  0  0  0  0
   26.5227   34.4083   20.4134 C   0  0  0  0  0  0  0  0  0  0  0  0
   26.6850   35.1144   21.7522 C   0  0  0  0  0  0  0  0  0  0  0  0
   28.3851   40.6735   23.0911 C   0  0  0  0  0  0  0  0  0  0  0  0
   27.9104   42.1718   23.8016 S   0  0  0  0  0  0  0  0  0  0  0  0
   28.9755   43.0371   22.8382 C   0  0  0  0  0  0  0  0  0  0  0  0
   29.6981   42.2351   22.0460 C   0  0  0  0  0  0  0  0  0  0  0  0
   29.3669   40.8718   22.1717 C   0  0  0  0  0  0  0  0  0  0  0  0
   27.5098   37.1690   18.0519 C   0  0  0  0  0  0  0  0  0  0  0  0
   27.9528   38.6001   18.2601 C   0  0  0  0  0  0  0  0  0  0  0  0
   27.0280   39.6132   18.4674 C   0  0  0  0  0  0  0  0  0  0  0  0
   27.2893   40.9232   18.3077 N   0  0  0  0  0  0  0  0  0  0  0  0
   28.5182   41.1848   17.8886 C   0  0  0  0  0  0  0  0  0  0  0  0
   29.4913   40.3320   17.6104 N   0  0  0  0  0  0  0  0  0  0  0  0
   29.1696   39.0414   17.7827 C   0  0  0  0  0  0  0  0  0  0  0  0
   28.7715   42.4880   17.7224 O   0  0  0  0  0  0  0  0  0  0  0  0
   28.0474   43.1764   16.6960 C   0  0  0  0  0  0  0  0  0  0  0  0
  1  2  2  0  0  0  0
  1  6  1  0  0  0  0
  2  3  1  0  0  0  0
  3  4  2  0  0  0  0
  4 14  1  0  0  0  0
  5  4  1  0  0  0  0
  6  5  1  0  0  0  0
  7  6  2  0  0  0  0
  8  9  1  0  0  0  0
  8  2  1  1  0  0  0
 10 19  1  0  0  0  0
 10  9  1  0  0  0  0
 11 10  1  0  0  0  0
 12 11  1  0  0  0  0
 12 13  1  0  0  0  0
 13  8  1  0  0  0  0
 14 15  1  0  0  0  0
 14 18  2  0  0  0  0
 15 16  1  0  0  0  0
 16 17  2  0  0  0  0
 18 17  1  0  0  0  0
 19 20  1  0  0  0  0
 20 25  2  0  0  0  0
 20 21  1  0  0  0  0
 21 22  2  0  0  0  0
 22 23  1  0  0  0  0
 23 26  1  0  0  0  0
 24 23  2  0  0  0  0
 25 24  1  0  0  0  0
 26 27  1  0  0  0  0
M  END
>  <CHROM.1>
164.10411991,136.85740317,18.89994271,-98.17251900,-65.54667769,27.77467825
39.12761183,21.06499030,-2.63074256,-1.29697167,-1.93947879

>  <Name>
lig.pdb

>  <RI>
0

>  <Rbt.Current_Directory>
/home/itssahil/PROJECTS/Mol_Feturizer/New_Systems/rnas/5kx9

>  <Rbt.Executable>
rbdock ($Id: //depot/dev/client3/rdock/2013.1/src/exe/rbdock.cxx#4 $)

>  <Rbt.Library>
libRbt.so (2013.1, Build901 2013/11/27)

>  <Rbt.Parameter_File>
/export/apps/rDock/src/rDock_2013.1_src/data/scripts/dock_solv.prm

>  <Rbt.Receptor>
prm/pocket_docking_4.prm

>  <SCORE>
-29.0601

>  <SCORE.INTER>
-29.3806

>  <SCORE.INTER.CONST>
1

>  <SCORE.INTER.POLAR>
0

>  <SCORE.INTER.ROT>
5

>  <SCORE.INTER.SOLV>
12.0382

>  <SCORE.INTER.VDW>
-30.5331

>  <SCORE.INTER.norm>
-1.08817

>  <SCORE.INTRA>
0.320492

>  <SCORE.INTRA.DIHEDRAL>
5.61415

>  <SCORE.INTRA.DIHEDRAL.0>
2.68224

>  <SCORE.INTRA.POLAR>
0

>  <SCORE.INTRA.POLAR.0>
0

>  <SCORE.INTRA.REPUL>
0

>  <SCORE.INTRA.REPUL.0>
0

>  <SCORE.INTRA.SOLV>
-0.548013

>  <SCORE.INTRA.SOLV.lig_0>
-19.4148

>  <SCORE.INTRA.VDW>
-2.21258

>  <SCORE.INTRA.VDW.0>
5.42093

>  <SCORE.INTRA.norm>
0.0118701

>  <SCORE.RESTR>
0

>  <SCORE.RESTR.CAVITY>
0

>  <SCORE.RESTR.norm>
0

>  <SCORE.SYSTEM>
0

>  <SCORE.SYSTEM.CONST>
0

>  <SCORE.SYSTEM.DIHEDRAL>
0

>  <SCORE.SYSTEM.SOLV>
0

>  <SCORE.SYSTEM.norm>
0

>  <SCORE.heavy>
27

>  <SCORE.norm>
-1.0763

>  <RMSD>
5.073

$$$$
lig.pdb
 OpenBabel11021811523D
libRbt.so/2013.1/901 2013/11/27
 27 30  0  0  0  0  0  0  0  0999 V2000
   26.9035   36.3365   23.2923 N   0  0  0  0  0  0  0  0  0  0  0  0
   27.5819   36.7345   22.2446 C   0  0  0  0  0  0  0  0  0  0  0  0
   28.0797   37.9849   22.0721 N   0  0  0  0  0  0  0  0  0  0  0  0
   27.9138   38.8990   23.0741 C   0  0  0  0  0  0  0  0  0  0  0  0
   27.2435   38.5622   24.2150 C   0  0  0  0  0  0  0  0  0  0  0  0
   26.6941   37.2331   24.3393 C   0  0  0  0  0  0  0  0  0  0  0  0
   26.0303   36.8709   25.3186 O   0  0  0  0  0  0  0  0  0  0  0  0
   27.7425   35.8664   20.9772 C   0  0  2  0  0  0  0  0  0  0  0  0
   27.2370   36.8120   19.8755 C   0  0  0  0  0  0  0  0  0  0  0  0
   27.0645   36.1151   18.5996 N   0  0  0  0  0  0  0  0  0  0  0  0
   26.0405   35.0698   18.7575 C   0  0  0  0  0  0  0  0  0  0  0  0
   26.4874   34.0249   19.7608 C   0  0  0  0  0  0  0  0  0  0  0  0
   26.7970   34.6603   21.1091 C   0  0  0  0  0  0  0  0  0  0  0  0
   28.5358   40.1802   22.7677 C   0  0  0  0  0  0  0  0  0  0  0  0
   29.3571   40.4507   21.2752 S   0  0  0  0  0  0  0  0  0  0  0  0
   29.7617   42.0183   21.7107 C   0  0  0  0  0  0  0  0  0  0  0  0
   29.2617   42.3501   22.9077 C   0  0  0  0  0  0  0  0  0  0  0  0
   28.5596   41.3024   23.5350 C   0  0  0  0  0  0  0  0  0  0  0  0
   26.6912   37.0385   17.5137 C   0  0  0  0  0  0  0  0  0  0  0  0
   27.0507   38.4907   17.7359 C   0  0  0  0  0  0  0  0  0  0  0  0
   26.1560   39.3667   18.3331 C   0  0  0  0  0  0  0  0  0  0  0  0
   26.2370   40.7071   18.2504 N   0  0  0  0  0  0  0  0  0  0  0  0
   27.2396   41.1457   17.5041 C   0  0  0  0  0  0  0  0  0  0  0  0
   28.1431   40.4397   16.8433 N   0  0  0  0  0  0  0  0  0  0  0  0
   28.0075   39.1104   16.9588 C   0  0  0  0  0  0  0  0  0  0  0  0
   27.3115   42.4789   17.4170 O   0  0  0  0  0  0  0  0  0  0  0  0
   27.5679   43.0441   16.1260 C   0  0  0  0  0  0  0  0  0  0  0  0
  1  2  2  0  0  0  0
  1  6  1  0  0  0  0
  2  3  1  0  0  0  0
  3  4  2  0  0  0  0
  4 14  1  0  0  0  0
  5  4  1  0  0  0  0
  6  5  1  0  0  0  0
  7  6  2  0  0  0  0
  8  9  1  0  0  0  0
  8  2  1  1  0  0  0
 10 19  1  0  0  0  0
 10  9  1  0  0  0  0
 11 10  1  0  0  0  0
 12 11  1  0  0  0  0
 12 13  1  0  0  0  0
 13  8  1  0  0  0  0
 14 15  1  0  0  0  0
 14 18  2  0  0  0  0
 15 16  1  0  0  0  0
 16 17  2  0  0  0  0
 18 17  1  0  0  0  0
 19 20  1  0  0  0  0
 20 25  2  0  0  0  0
 20 21  1  0  0  0  0
 21 22  2  0  0  0  0
 22 23  1  0  0  0  0
 23 26  1  0  0  0  0
 24 23  2  0  0  0  0
 25 24  1  0  0  0  0
 26 27  1  0  0  0  0
M  END
>  <CHROM.1>
0.76591355,125.43126584,22.00301413,-91.34656030,-136.31585248,27.53774648
38.72200923,20.46973509,-1.87400526,-1.25614619,-1.13060754

>  <Name>
lig.pdb

>  <RI>
0

>  <Rbt.Current_Directory>
/home/itssahil/PROJECTS/Mol_Feturizer/New_Systems/rnas/5kx9

>  <Rbt.Executable>
rbdock ($Id: //depot/dev/client3/rdock/2013.1/src/exe/rbdock.cxx#4 $)

>  <Rbt.Library>
libRbt.so (2013.1, Build901 2013/11/27)

>  <Rbt.Parameter_File>
/export/apps/rDock/src/rDock_2013.1_src/data/scripts/dock_solv.prm

>  <Rbt.Receptor>
prm/pocket_docking_7.prm

>  <SCORE>
-32.0042

>  <SCORE.INTER>
-30.363

>  <SCORE.INTER.CONST>
1

>  <SCORE.INTER.POLAR>
0

>  <SCORE.INTER.ROT>
5

>  <SCORE.INTER.SOLV>
13.0306

>  <SCORE.INTER.VDW>
-31.5189

>  <SCORE.INTER.norm>
-1.12456

>  <SCORE.INTRA>
-1.64123

>  <SCORE.INTRA.DIHEDRAL>
2.71278

>  <SCORE.INTRA.DIHEDRAL.0>
2.68224

>  <SCORE.INTRA.POLAR>
0

>  <SCORE.INTRA.POLAR.0>
0

>  <SCORE.INTRA.REPUL>
0

>  <SCORE.INTRA.REPUL.0>
0

>  <SCORE.INTRA.SOLV>
-0.407035

>  <SCORE.INTRA.SOLV.lig_0>
-19.4148

>  <SCORE.INTRA.VDW>
-2.7941

>  <SCORE.INTRA.VDW.0>
5.42093

>  <SCORE.INTRA.norm>
-0.0607862

>  <SCORE.RESTR>
0

>  <SCORE.RESTR.CAVITY>
0

>  <SCORE.RESTR.norm>
0

>  <SCORE.SYSTEM>
0

>  <SCORE.SYSTEM.CONST>
0

>  <SCORE.SYSTEM.DIHEDRAL>
0

>  <SCORE.SYSTEM.SOLV>
0

>  <SCORE.SYSTEM.norm>
0

>  <SCORE.heavy>
27

>  <SCORE.norm>
-1.18534

>  <RMSD>
5.083

$$$$
lig.pdb
 OpenBabel11021811523D
libRbt.so/2013.1/901 2013/11/27
 27 30  0  0  0  0  0  0  0  0999 V2000
   26.8391   36.2221   23.2099 N   0  0  0  0  0  0  0  0  0  0  0  0
   27.5909   36.6418   22.2226 C   0  0  0  0  0  0  0  0  0  0  0  0
   28.0971   37.8959   22.1120 N   0  0  0  0  0  0  0  0  0  0  0  0
   27.8567   38.7893   23.1175 C   0  0  0  0  0  0  0  0  0  0  0  0
   27.1059   38.4290   24.1996 C   0  0  0  0  0  0  0  0  0  0  0  0
   26.5520   37.0972   24.2567 C   0  0  0  0  0  0  0  0  0  0  0  0
   25.8196   36.7146   25.1776 O   0  0  0  0  0  0  0  0  0  0  0  0
   27.8453   35.7997   20.9530 C   0  0  2  0  0  0  0  0  0  0  0  0
   27.0733   36.5907   19.8844 C   0  0  0  0  0  0  0  0  0  0  0  0
   26.9659   35.8445   18.6294 N   0  0  0  0  0  0  0  0  0  0  0  0
   26.2034   34.6086   18.8688 C   0  0  0  0  0  0  0  0  0  0  0  0
   26.9328   33.7060   19.8442 C   0  0  0  0  0  0  0  0  0  0  0  0
   27.1921   34.4229   21.1619 C   0  0  0  0  0  0  0  0  0  0  0  0
   28.4963   40.0770   22.8831 C   0  0  0  0  0  0  0  0  0  0  0  0
   29.4036   40.3862   21.4491 S   0  0  0  0  0  0  0  0  0  0  0  0
   29.7831   41.9405   21.9501 C   0  0  0  0  0  0  0  0  0  0  0  0
   29.2141   42.2407   23.1245 C   0  0  0  0  0  0  0  0  0  0  0  0
   28.4759   41.1778   23.6808 C   0  0  0  0  0  0  0  0  0  0  0  0
   26.3286   36.6423   17.5671 C   0  0  0  0  0  0  0  0  0  0  0  0
   26.9772   37.9761   17.2708 C   0  0  0  0  0  0  0  0  0  0  0  0
   28.3440   38.0757   17.0551 C   0  0  0  0  0  0  0  0  0  0  0  0
   29.0438   39.2215   17.1397 N   0  0  0  0  0  0  0  0  0  0  0  0
   28.3215   40.2745   17.4917 C   0  0  0  0  0  0  0  0  0  0  0  0
   27.0284   40.3295   17.7682 N   0  0  0  0  0  0  0  0  0  0  0  0
   26.3860   39.1560   17.6727 C   0  0  0  0  0  0  0  0  0  0  0  0
   29.0225   41.4104   17.5835 O   0  0  0  0  0  0  0  0  0  0  0  0
   28.3125   42.6416   17.4053 C   0  0  0  0  0  0  0  0  0  0  0  0
  1  2  2  0  0  0  0
  1  6  1  0  0  0  0
  2  3  1  0  0  0  0
  3  4  2  0  0  0  0
  4 14  1  0  0  0  0
  5  4  1  0  0  0  0
  6  5  1  0  0  0  0
  7  6  2  0  0  0  0
  8  9  1  0  0  0  0
  8  2  1  1  0  0  0
 10 19  1  0  0  0  0
 10  9  1  0  0  0  0
 11 10  1  0  0  0  0
 12 11  1  0  0  0  0
 12 13  1  0  0  0  0
 13  8  1  0  0  0  0
 14 15  1  0  0  0  0
 14 18  2  0  0  0  0
 15 16  1  0  0  0  0
 16 17  2  0  0  0  0
 18 17  1  0  0  0  0
 19 20  1  0  0  0  0
 20 25  2  0  0  0  0
 20 21  1  0  0  0  0
 21 22  2  0  0  0  0
 22 23  1  0  0  0  0
 23 26  1  0  0  0  0
 24 23  2  0  0  0  0
 25 24  1  0  0  0  0
 26 27  1  0  0  0  0
M  END
>  <CHROM.1>
1.69861354,110.48635375,55.37815728,49.73684305,154.71486501,27.74571734
38.39709329,20.52622262,-2.34432057,-1.22909712,-1.53940256

>  <Name>
lig.pdb

>  <RI>
0

>  <Rbt.Current_Directory>
/home/itssahil/PROJECTS/Mol_Feturizer/New_Systems/rnas/5kx9

>  <Rbt.Executable>
rbdock ($Id: //depot/dev/client3/rdock/2013.1/src/exe/rbdock.cxx#4 $)

>  <Rbt.Library>
libRbt.so (2013.1, Build901 2013/11/27)

>  <Rbt.Parameter_File>
/export/apps/rDock/src/rDock_2013.1_src/data/scripts/dock_solv.prm

>  <Rbt.Receptor>
prm/pocket_docking_3.prm

>  <SCORE>
-34.7248

>  <SCORE.INTER>
-30.0776

>  <SCORE.INTER.CONST>
1

>  <SCORE.INTER.POLAR>
0

>  <SCORE.INTER.ROT>
5

>  <SCORE.INTER.SOLV>
12.8824

>  <SCORE.INTER.VDW>
-31.2792

>  <SCORE.INTER.norm>
-1.11398

>  <SCORE.INTRA>
-4.64722

>  <SCORE.INTRA.DIHEDRAL>
-0.0171222

>  <SCORE.INTRA.DIHEDRAL.0>
2.68224

>  <SCORE.INTRA.POLAR>
0

>  <SCORE.INTRA.POLAR.0>
0

>  <SCORE.INTRA.REPUL>
0

>  <SCORE.INTRA.REPUL.0>
0

>  <SCORE.INTRA.SOLV>
-0.202448

>  <SCORE.INTRA.SOLV.lig_0>
-19.4148

>  <SCORE.INTRA.VDW>
-4.53743

>  <SCORE.INTRA.VDW.0>
5.42093

>  <SCORE.INTRA.norm>
-0.172119

>  <SCORE.RESTR>
0

>  <SCORE.RESTR.CAVITY>
0

>  <SCORE.RESTR.norm>
0

>  <SCORE.SYSTEM>
0

>  <SCORE.SYSTEM.CONST>
0

>  <SCORE.SYSTEM.DIHEDRAL>
0

>  <SCORE.SYSTEM.SOLV>
0

>  <SCORE.SYSTEM.norm>
0

>  <SCORE.heavy>
27

>  <SCORE.norm>
-1.2861

>  <RMSD>
5.097

$$$$
lig.pdb
 OpenBabel11021811523D
libRbt.so/2013.1/901 2013/11/27
 27 30  0  0  0  0  0  0  0  0999 V2000
   28.4962   38.6353   20.6478 N   0  0  0  0  0  0  0  0  0  0  0  0
   29.0630   39.8141   20.5737 C   0  0  0  0  0  0  0  0  0  0  0  0
   29.1176   40.7135   21.5882 N   0  0  0  0  0  0  0  0  0  0  0  0
   28.5905   40.3656   22.7999 C   0  0  0  0  0  0  0  0  0  0  0  0
   28.0048   39.1448   22.9758 C   0  0  0  0  0  0  0  0  0  0  0  0
   27.9314   38.2345   21.8579 C   0  0  0  0  0  0  0  0  0  0  0  0
   27.3705   37.1338   21.9252 O   0  0  0  0  0  0  0  0  0  0  0  0
   29.5859   40.4051   19.2459 C   0  0  2  0  0  0  0  0  0  0  0  0
   28.2916   40.5521   18.4294 C   0  0  0  0  0  0  0  0  0  0  0  0
   28.5679   40.8709   17.0276 N   0  0  0  0  0  0  0  0  0  0  0  0
   29.3221   39.7616   16.4219 C   0  0  0  0  0  0  0  0  0  0  0  0
   30.6686   39.5933   17.0978 C   0  0  0  0  0  0  0  0  0  0  0  0
   30.5032   39.3574   18.5927 C   0  0  0  0  0  0  0  0  0  0  0  0
   28.7594   41.4101   23.8013 C   0  0  0  0  0  0  0  0  0  0  0  0
   29.4475   42.9405   23.4018 S   0  0  0  0  0  0  0  0  0  0  0  0
   29.3173   43.4814   24.9834 C   0  0  0  0  0  0  0  0  0  0  0  0
   28.7360   42.5728   25.7767 C   0  0  0  0  0  0  0  0  0  0  0  0
   28.4149   41.3710   25.1159 C   0  0  0  0  0  0  0  0  0  0  0  0
   27.3321   41.1261   16.2667 C   0  0  0  0  0  0  0  0  0  0  0  0
   26.4304   42.2047   16.8243 C   0  0  0  0  0  0  0  0  0  0  0  0
   25.3511   41.8872   17.6360 C   0  0  0  0  0  0  0  0  0  0  0  0
   24.3152   42.7110   17.8773 N   0  0  0  0  0  0  0  0  0  0  0  0
   24.3802   43.8679   17.2357 C   0  0  0  0  0  0  0  0  0  0  0  0
   25.3160   44.2951   16.4031 N   0  0  0  0  0  0  0  0  0  0  0  0
   26.3190   43.4287   16.1975 C   0  0  0  0  0  0  0  0  0  0  0  0
   23.3439   44.6808   17.4711 O   0  0  0  0  0  0  0  0  0  0  0  0
   22.9279   44.8443   18.8320 C   0  0  0  0  0  0  0  0  0  0  0  0
  1  2  2  0  0  0  0
  1  6  1  0  0  0  0
  2  3  1  0  0  0  0
  3  4  2  0  0  0  0
  4 14  1  0  0  0  0
  5  4  1  0  0  0  0
  6  5  1  0  0  0  0
  7  6  2  0  0  0  0
  8  9  1  0  0  0  0
  8  2  1  1  0  0  0
 10 19  1  0  0  0  0
 10  9  1  0  0  0  0
 11 10  1  0  0  0  0
 12 11  1  0  0  0  0
 12 13  1  0  0  0  0
 13  8  1  0  0  0  0
 14 15  1  0  0  0  0
 14 18  2  0  0  0  0
 15 16  1  0  0  0  0
 16 17  2  0  0  0  0
 18 17  1  0  0  0  0
 19 20  1  0  0  0  0
 20 25  2  0  0  0  0
 20 21  1  0  0  0  0
 21 22  2  0  0  0  0
 22 23  1  0  0  0  0
 23 26  1  0  0  0  0
 24 23  2  0  0  0  0
 25 24  1  0  0  0  0
 26 27  1  0  0  0  0
M  END
>  <CHROM.1>
4.39280586,64.05431525,55.60808628,-96.47565413,46.00388439,27.67414761,41.38943538
20.00483619,-0.83239891,0.82716209,-1.84504099

>  <Name>
lig.pdb

>  <RI>
0

>  <Rbt.Current_Directory>
/home/itssahil/PROJECTS/Mol_Feturizer/New_Systems/rnas/5kx9

>  <Rbt.Executable>
rbdock ($Id: //depot/dev/client3/rdock/2013.1/src/exe/rbdock.cxx#4 $)

>  <Rbt.Library>
libRbt.so (2013.1, Build901 2013/11/27)

>  <Rbt.Parameter_File>
/export/apps/rDock/src/rDock_2013.1_src/data/scripts/dock_solv.prm

>  <Rbt.Receptor>
prm/blind_docking_60.prm

>  <SCORE>
-28.8926

>  <SCORE.INTER>
-24.0009

>  <SCORE.INTER.CONST>
1

>  <SCORE.INTER.POLAR>
0

>  <SCORE.INTER.ROT>
5

>  <SCORE.INTER.SOLV>
12.8497

>  <SCORE.INTER.VDW>
-27.2172

>  <SCORE.INTER.norm>
-0.888922

>  <SCORE.INTRA>
-4.89173

>  <SCORE.INTRA.DIHEDRAL>
1.13803

>  <SCORE.INTRA.DIHEDRAL.0>
2.68224

>  <SCORE.INTRA.POLAR>
0

>  <SCORE.INTRA.POLAR.0>
0

>  <SCORE.INTRA.REPUL>
0

>  <SCORE.INTRA.REPUL.0>
0

>  <SCORE.INTRA.SOLV>
-0.602053

>  <SCORE.INTRA.SOLV.lig_0>
-19.4148

>  <SCORE.INTRA.VDW>
-5.15972

>  <SCORE.INTRA.VDW.0>
5.42093

>  <SCORE.INTRA.norm>
-0.181175

>  <SCORE.RESTR>
0

>  <SCORE.RESTR.CAVITY>
0

>  <SCORE.RESTR.norm>
0

>  <SCORE.SYSTEM>
0

>  <SCORE.SYSTEM.CONST>
0

>  <SCORE.SYSTEM.DIHEDRAL>
0

>  <SCORE.SYSTEM.SOLV>
0

>  <SCORE.SYSTEM.norm>
0

>  <SCORE.heavy>
27

>  <SCORE.norm>
-1.0701

>  <RMSD>
5.107

$$$$
lig.pdb
 OpenBabel11021811523D
libRbt.so/2013.1/901 2013/11/27
 27 30  0  0  0  0  0  0  0  0999 V2000
   26.8743   36.2214   23.1496 N   0  0  0  0  0  0  0  0  0  0  0  0
   27.6112   36.6566   22.1577 C   0  0  0  0  0  0  0  0  0  0  0  0
   28.0984   37.9183   22.0489 N   0  0  0  0  0  0  0  0  0  0  0  0
   27.8541   38.8034   23.0609 C   0  0  0  0  0  0  0  0  0  0  0  0
   27.1183   38.4270   24.1477 C   0  0  0  0  0  0  0  0  0  0  0  0
   26.5840   37.0871   24.2032 C   0  0  0  0  0  0  0  0  0  0  0  0
   25.8654   36.6896   25.1286 O   0  0  0  0  0  0  0  0  0  0  0  0
   27.8663   35.8243   20.8818 C   0  0  2  0  0  0  0  0  0  0  0  0
   27.1094   36.6330   19.8157 C   0  0  0  0  0  0  0  0  0  0  0  0
   27.0035   35.9000   18.5528 N   0  0  0  0  0  0  0  0  0  0  0  0
   26.2276   34.6692   18.7749 C   0  0  0  0  0  0  0  0  0  0  0  0
   26.9416   33.7503   19.7465 C   0  0  0  0  0  0  0  0  0  0  0  0
   27.1985   34.4520   21.0729 C   0  0  0  0  0  0  0  0  0  0  0  0
   28.4731   40.1012   22.8272 C   0  0  0  0  0  0  0  0  0  0  0  0
   29.5093   40.3767   21.4761 S   0  0  0  0  0  0  0  0  0  0  0  0
   29.7876   41.9651   21.9345 C   0  0  0  0  0  0  0  0  0  0  0  0
   29.0946   42.2983   23.0308 C   0  0  0  0  0  0  0  0  0  0  0  0
   28.3382   41.2362   23.5635 C   0  0  0  0  0  0  0  0  0  0  0  0
   26.3812   36.7142   17.4939 C   0  0  0  0  0  0  0  0  0  0  0  0
   27.0739   38.0216   17.1803 C   0  0  0  0  0  0  0  0  0  0  0  0
   28.4503   38.0820   17.0179 C   0  0  0  0  0  0  0  0  0  0  0  0
   29.1741   39.2136   17.0930 N   0  0  0  0  0  0  0  0  0  0  0  0
   28.4642   40.2945   17.3798 C   0  0  0  0  0  0  0  0  0  0  0  0
   27.1628   40.3888   17.6009 N   0  0  0  0  0  0  0  0  0  0  0  0
   26.4961   39.2280   17.5181 C   0  0  0  0  0  0  0  0  0  0  0  0
   29.1886   41.4163   17.4625 O   0  0  0  0  0  0  0  0  0  0  0  0
   28.5542   42.6424   17.0807 C   0  0  0  0  0  0  0  0  0  0  0  0
  1  2  2  0  0  0  0
  1  6  1  0  0  0  0
  2  3  1  0  0  0  0
  3  4  2  0  0  0  0
  4 14  1  0  0  0  0
  5  4  1  0  0  0  0
  6  5  1  0  0  0  0
  7  6  2  0  0  0  0
  8  9  1  0  0  0  0
  8  2  1  1  0  0  0
 10 19  1  0  0  0  0
 10  9  1  0  0  0  0
 11 10  1  0  0  0  0
 12 11  1  0  0  0  0
 12 13  1  0  0  0  0
 13  8  1  0  0  0  0
 14 15  1  0  0  0  0
 14 18  2  0  0  0  0
 15 16  1  0  0  0  0
 16 17  2  0  0  0  0
 18 17  1  0  0  0  0
 19 20  1  0  0  0  0
 20 25  2  0  0  0  0
 20 21  1  0  0  0  0
 21 22  2  0  0  0  0
 22 23  1  0  0  0  0
 23 26  1  0  0  0  0
 24 23  2  0  0  0  0
 25 24  1  0  0  0  0
 26 27  1  0  0  0  0
M  END
>  <CHROM.1>
-5.30465860,112.15196698,57.51155700,46.17927129,148.42275726,27.79819506
38.42089824,20.44600382,-2.31547468,-1.22375157,-1.58371586

>  <Name>
lig.pdb

>  <RI>
0

>  <Rbt.Current_Directory>
/home/itssahil/PROJECTS/Mol_Feturizer/New_Systems/rnas/5kx9

>  <Rbt.Executable>
rbdock ($Id: //depot/dev/client3/rdock/2013.1/src/exe/rbdock.cxx#4 $)

>  <Rbt.Library>
libRbt.so (2013.1, Build901 2013/11/27)

>  <Rbt.Parameter_File>
/export/apps/rDock/src/rDock_2013.1_src/data/scripts/dock_solv.prm

>  <Rbt.Receptor>
prm/pocket_docking_4.prm

>  <SCORE>
-35.2683

>  <SCORE.INTER>
-30.6247

>  <SCORE.INTER.CONST>
1

>  <SCORE.INTER.POLAR>
0

>  <SCORE.INTER.ROT>
5

>  <SCORE.INTER.SOLV>
13.0275

>  <SCORE.INTER.VDW>
-31.6923

>  <SCORE.INTER.norm>
-1.13425

>  <SCORE.INTRA>
-4.64361

>  <SCORE.INTRA.DIHEDRAL>
0.47956

>  <SCORE.INTRA.DIHEDRAL.0>
2.68224

>  <SCORE.INTRA.POLAR>
0

>  <SCORE.INTRA.POLAR.0>
0

>  <SCORE.INTRA.REPUL>
0

>  <SCORE.INTRA.REPUL.0>
0

>  <SCORE.INTRA.SOLV>
-0.302172

>  <SCORE.INTRA.SOLV.lig_0>
-19.4148

>  <SCORE.INTRA.VDW>
-4.7323

>  <SCORE.INTRA.VDW.0>
5.42093

>  <SCORE.INTRA.norm>
-0.171985

>  <SCORE.RESTR>
0

>  <SCORE.RESTR.CAVITY>
0

>  <SCORE.RESTR.norm>
0

>  <SCORE.SYSTEM>
0

>  <SCORE.SYSTEM.CONST>
0

>  <SCORE.SYSTEM.DIHEDRAL>
0

>  <SCORE.SYSTEM.SOLV>
0

>  <SCORE.SYSTEM.norm>
0

>  <SCORE.heavy>
27

>  <SCORE.norm>
-1.30623

>  <RMSD>
5.117

$$$$
lig.pdb
 OpenBabel11021811523D
libRbt.so/2013.1/901 2013/11/27
 27 30  0  0  0  0  0  0  0  0999 V2000
   26.9069   36.2160   23.1547 N   0  0  0  0  0  0  0  0  0  0  0  0
   27.5903   36.7515   22.1736 C   0  0  0  0  0  0  0  0  0  0  0  0
   28.0627   38.0234   22.1613 N   0  0  0  0  0  0  0  0  0  0  0  0
   27.8633   38.8060   23.2635 C   0  0  0  0  0  0  0  0  0  0  0  0
   27.1854   38.3201   24.3446 C   0  0  0  0  0  0  0  0  0  0  0  0
   26.6638   36.9749   24.2988 C   0  0  0  0  0  0  0  0  0  0  0  0
   25.9951   36.4834   25.2164 O   0  0  0  0  0  0  0  0  0  0  0  0
   27.7870   36.0466   20.8135 C   0  0  2  0  0  0  0  0  0  0  0  0
   26.9349   36.9172   19.8757 C   0  0  0  0  0  0  0  0  0  0  0  0
   26.7692   36.2961   18.5604 N   0  0  0  0  0  0  0  0  0  0  0  0
   26.0502   35.0215   18.7178 C   0  0  0  0  0  0  0  0  0  0  0  0
   26.8567   34.0478   19.5543 C   0  0  0  0  0  0  0  0  0  0  0  0
   27.1783   34.6380   20.9203 C   0  0  0  0  0  0  0  0  0  0  0  0
   28.4609   40.1272   23.1240 C   0  0  0  0  0  0  0  0  0  0  0  0
   29.2932   40.5940   21.6872 S   0  0  0  0  0  0  0  0  0  0  0  0
   29.6589   42.1047   22.3157 C   0  0  0  0  0  0  0  0  0  0  0  0
   29.1381   42.2779   23.5371 C   0  0  0  0  0  0  0  0  0  0  0  0
   28.4517   41.1477   24.0223 C   0  0  0  0  0  0  0  0  0  0  0  0
   26.0518   37.1768   17.6218 C   0  0  0  0  0  0  0  0  0  0  0  0
   26.5009   38.6209   17.6049 C   0  0  0  0  0  0  0  0  0  0  0  0
   26.0289   39.5288   18.5416 C   0  0  0  0  0  0  0  0  0  0  0  0
   26.0840   40.8653   18.3974 N   0  0  0  0  0  0  0  0  0  0  0  0
   26.6017   41.2666   17.2461 C   0  0  0  0  0  0  0  0  0  0  0  0
   27.0534   40.5276   16.2455 N   0  0  0  0  0  0  0  0  0  0  0  0
   26.9669   39.2041   16.4447 C   0  0  0  0  0  0  0  0  0  0  0  0
   26.6466   42.5961   17.1027 O   0  0  0  0  0  0  0  0  0  0  0  0
   25.7606   43.1880   16.1454 C   0  0  0  0  0  0  0  0  0  0  0  0
  1  2  2  0  0  0  0
  1  6  1  0  0  0  0
  2  3  1  0  0  0  0
  3  4  2  0  0  0  0
  4 14  1  0  0  0  0
  5  4  1  0  0  0  0
  6  5  1  0  0  0  0
  7  6  2  0  0  0  0
  8  9  1  0  0  0  0
  8  2  1  1  0  0  0
 10 19  1  0  0  0  0
 10  9  1  0  0  0  0
 11 10  1  0  0  0  0
 12 11  1  0  0  0  0
 12 13  1  0  0  0  0
 13  8  1  0  0  0  0
 14 15  1  0  0  0  0
 14 18  2  0  0  0  0
 15 16  1  0  0  0  0
 16 17  2  0  0  0  0
 18 17  1  0  0  0  0
 19 20  1  0  0  0  0
 20 25  2  0  0  0  0
 20 21  1  0  0  0  0
 21 22  2  0  0  0  0
 22 23  1  0  0  0  0
 23 26  1  0  0  0  0
 24 23  2  0  0  0  0
 25 24  1  0  0  0  0
 26 27  1  0  0  0  0
M  END
>  <CHROM.1>
0.89263776,110.38872610,45.04883801,-82.78231843,-109.94419302,27.27559756
38.74505853,20.50463452,1.18888008,1.24984272,2.45495265

>  <Name>
lig.pdb

>  <RI>
0

>  <Rbt.Current_Directory>
/home/itssahil/PROJECTS/Mol_Feturizer/New_Systems/rnas/5kx9

>  <Rbt.Executable>
rbdock ($Id: //depot/dev/client3/rdock/2013.1/src/exe/rbdock.cxx#4 $)

>  <Rbt.Library>
libRbt.so (2013.1, Build901 2013/11/27)

>  <Rbt.Parameter_File>
/export/apps/rDock/src/rDock_2013.1_src/data/scripts/dock_solv.prm

>  <Rbt.Receptor>
prm/blind_docking_80.prm

>  <SCORE>
-34.57

>  <SCORE.INTER>
-31.0307

>  <SCORE.INTER.CONST>
1

>  <SCORE.INTER.POLAR>
0

>  <SCORE.INTER.ROT>
5

>  <SCORE.INTER.SOLV>
14.5087

>  <SCORE.INTER.VDW>
-32.4567

>  <SCORE.INTER.norm>
-1.14928

>  <SCORE.INTRA>
-3.53937

>  <SCORE.INTRA.DIHEDRAL>
3.33052

>  <SCORE.INTRA.DIHEDRAL.0>
2.68224

>  <SCORE.INTRA.POLAR>
0

>  <SCORE.INTRA.POLAR.0>
0

>  <SCORE.INTRA.REPUL>
0

>  <SCORE.INTRA.REPUL.0>
0

>  <SCORE.INTRA.SOLV>
-0.520751

>  <SCORE.INTRA.SOLV.lig_0>
-19.4148

>  <SCORE.INTRA.VDW>
-4.94425

>  <SCORE.INTRA.VDW.0>
5.42093

>  <SCORE.INTRA.norm>
-0.131088

>  <SCORE.RESTR>
0

>  <SCORE.RESTR.CAVITY>
0

>  <SCORE.RESTR.norm>
0

>  <SCORE.SYSTEM>
0

>  <SCORE.SYSTEM.CONST>
0

>  <SCORE.SYSTEM.DIHEDRAL>
0

>  <SCORE.SYSTEM.SOLV>
0

>  <SCORE.SYSTEM.norm>
0

>  <SCORE.heavy>
27

>  <SCORE.norm>
-1.28037

>  <RMSD>
5.129

$$$$
lig.pdb
 OpenBabel11021811523D
libRbt.so/2013.1/901 2013/11/27
 27 30  0  0  0  0  0  0  0  0999 V2000
   29.0719   40.9607   20.9780 N   0  0  0  0  0  0  0  0  0  0  0  0
   29.2077   39.7970   20.3917 C   0  0  0  0  0  0  0  0  0  0  0  0
   28.7131   38.6265   20.8676 N   0  0  0  0  0  0  0  0  0  0  0  0
   27.9751   38.6474   22.0174 C   0  0  0  0  0  0  0  0  0  0  0  0
   27.7588   39.8213   22.6804 C   0  0  0  0  0  0  0  0  0  0  0  0
   28.3384   41.0371   22.1612 C   0  0  0  0  0  0  0  0  0  0  0  0
   28.2309   42.1288   22.7335 O   0  0  0  0  0  0  0  0  0  0  0  0
   30.1178   39.5849   19.1620 C   0  0  2  0  0  0  0  0  0  0  0  0
   29.7022   40.7517   18.2513 C   0  0  0  0  0  0  0  0  0  0  0  0
   30.2643   40.6168   16.9063 N   0  0  0  0  0  0  0  0  0  0  0  0
   29.7361   39.3914   16.2853 C   0  0  0  0  0  0  0  0  0  0  0  0
   30.1739   38.1634   17.0591 C   0  0  0  0  0  0  0  0  0  0  0  0
   29.7276   38.2464   18.5122 C   0  0  0  0  0  0  0  0  0  0  0  0
   27.4753   37.3287   22.3824 C   0  0  0  0  0  0  0  0  0  0  0  0
   26.7402   37.0346   23.9149 S   0  0  0  0  0  0  0  0  0  0  0  0
   26.5047   35.4130   23.5602 C   0  0  0  0  0  0  0  0  0  0  0  0
   26.9145   35.1068   22.3227 C   0  0  0  0  0  0  0  0  0  0  0  0
   27.4832   36.1948   21.6322 C   0  0  0  0  0  0  0  0  0  0  0  0
   29.9649   41.7882   16.0641 C   0  0  0  0  0  0  0  0  0  0  0  0
   28.5030   42.1597   15.9541 C   0  0  0  0  0  0  0  0  0  0  0  0
   28.0884   43.4786   16.0700 C   0  0  0  0  0  0  0  0  0  0  0  0
   26.8253   43.8558   16.3387 N   0  0  0  0  0  0  0  0  0  0  0  0
   25.9863   42.8486   16.5287 C   0  0  0  0  0  0  0  0  0  0  0  0
   26.2386   41.5500   16.4921 N   0  0  0  0  0  0  0  0  0  0  0  0
   27.5151   41.2359   16.2260 C   0  0  0  0  0  0  0  0  0  0  0  0
   24.7331   43.2277   16.8045 O   0  0  0  0  0  0  0  0  0  0  0  0
   24.5152   43.9577   18.0175 C   0  0  0  0  0  0  0  0  0  0  0  0
  1  2  2  0  0  0  0
  1  6  1  0  0  0  0
  2  3  1  0  0  0  0
  3  4  2  0  0  0  0
  4 14  1  0  0  0  0
  5  4  1  0  0  0  0
  6  5  1  0  0  0  0
  7  6  2  0  0  0  0
  8  9  1  0  0  0  0
  8  2  1  1  0  0  0
 10 19  1  0  0  0  0
 10  9  1  0  0  0  0
 11 10  1  0  0  0  0
 12 11  1  0  0  0  0
 12 13  1  0  0  0  0
 13  8  1  0  0  0  0
 14 15  1  0  0  0  0
 14 18  2  0  0  0  0
 15 16  1  0  0  0  0
 16 17  2  0  0  0  0
 18 17  1  0  0  0  0
 19 20  1  0  0  0  0
 20 25  2  0  0  0  0
 20 21  1  0  0  0  0
 21 22  2  0  0  0  0
 22 23  1  0  0  0  0
 23 26  1  0  0  0  0
 24 23  2  0  0  0  0
 25 24  1  0  0  0  0
 26 27  1  0  0  0  0
M  END
>  <CHROM.1>
169.83418291,-48.16781834,-54.20836475,134.92150499,-63.80701184,27.94073032
40.02030807,19.46253118,1.58536999,-0.73216904,2.26893587

>  <Name>
lig.pdb

>  <RI>
0

>  <Rbt.Current_Directory>
/home/itssahil/PROJECTS/Mol_Feturizer/New_Systems/rnas/5kx9

>  <Rbt.Executable>
rbdock ($Id: //depot/dev/client3/rdock/2013.1/src/exe/rbdock.cxx#4 $)

>  <Rbt.Library>
libRbt.so (2013.1, Build901 2013/11/27)

>  <Rbt.Parameter_File>
/export/apps/rDock/src/rDock_2013.1_src/data/scripts/dock_solv.prm

>  <Rbt.Receptor>
prm/pocket_docking_7.prm

>  <SCORE>
-33.0203

>  <SCORE.INTER>
-32.1601

>  <SCORE.INTER.CONST>
1

>  <SCORE.INTER.POLAR>
0

>  <SCORE.INTER.ROT>
5

>  <SCORE.INTER.SOLV>
14.8746

>  <SCORE.INTER.VDW>
-33.3316

>  <SCORE.INTER.norm>
-1.19111

>  <SCORE.INTRA>
-0.860288

>  <SCORE.INTRA.DIHEDRAL>
2.92281

>  <SCORE.INTRA.DIHEDRAL.0>
2.68224

>  <SCORE.INTRA.POLAR>
0

>  <SCORE.INTRA.POLAR.0>
0

>  <SCORE.INTRA.REPUL>
0

>  <SCORE.INTRA.REPUL.0>
0

>  <SCORE.INTRA.SOLV>
-0.325325

>  <SCORE.INTRA.SOLV.lig_0>
-19.4148

>  <SCORE.INTRA.VDW>
-2.15903

>  <SCORE.INTRA.VDW.0>
5.42093

>  <SCORE.INTRA.norm>
-0.0318625

>  <SCORE.RESTR>
0

>  <SCORE.RESTR.CAVITY>
0

>  <SCORE.RESTR.norm>
0

>  <SCORE.SYSTEM>
0

>  <SCORE.SYSTEM.CONST>
0

>  <SCORE.SYSTEM.DIHEDRAL>
0

>  <SCORE.SYSTEM.SOLV>
0

>  <SCORE.SYSTEM.norm>
0

>  <SCORE.heavy>
27

>  <SCORE.norm>
-1.22298

>  <RMSD>
5.138

$$$$
lig.pdb
 OpenBabel11021811523D
libRbt.so/2013.1/901 2013/11/27
 27 30  0  0  0  0  0  0  0  0999 V2000
   26.8661   35.8920   22.8874 N   0  0  0  0  0  0  0  0  0  0  0  0
   27.6049   36.2584   21.8695 C   0  0  0  0  0  0  0  0  0  0  0  0
   28.1184   37.5017   21.6916 N   0  0  0  0  0  0  0  0  0  0  0  0
   27.9009   38.4436   22.6573 C   0  0  0  0  0  0  0  0  0  0  0  0
   27.1652   38.1409   23.7670 C   0  0  0  0  0  0  0  0  0  0  0  0
   26.6025   36.8179   23.8960 C   0  0  0  0  0  0  0  0  0  0  0  0
   25.8823   36.4853   24.8455 O   0  0  0  0  0  0  0  0  0  0  0  0
   27.8324   35.3552   20.6375 C   0  0  2  0  0  0  0  0  0  0  0  0
   27.4806   36.3012   19.4778 C   0  0  0  0  0  0  0  0  0  0  0  0
   27.3868   35.5861   18.2038 N   0  0  0  0  0  0  0  0  0  0  0  0
   26.2977   34.5995   18.2853 C   0  0  0  0  0  0  0  0  0  0  0  0
   26.5949   33.5552   19.3433 C   0  0  0  0  0  0  0  0  0  0  0  0
   26.8151   34.2034   20.7031 C   0  0  0  0  0  0  0  0  0  0  0  0
   28.5462   39.7135   22.3520 C   0  0  0  0  0  0  0  0  0  0  0  0
   28.3019   41.1093   23.3355 S   0  0  0  0  0  0  0  0  0  0  0  0
   29.2858   42.0485   22.3553 C   0  0  0  0  0  0  0  0  0  0  0  0
   29.8200   41.3374   21.3543 C   0  0  0  0  0  0  0  0  0  0  0  0
   29.3997   39.9932   21.3313 C   0  0  0  0  0  0  0  0  0  0  0  0
   27.1638   36.5034   17.0724 C   0  0  0  0  0  0  0  0  0  0  0  0
   27.4903   37.9570   17.3332 C   0  0  0  0  0  0  0  0  0  0  0  0
   26.6530   38.9700   16.8890 C   0  0  0  0  0  0  0  0  0  0  0  0
   27.0226   40.2570   16.7581 N   0  0  0  0  0  0  0  0  0  0  0  0
   28.2920   40.4906   17.0556 C   0  0  0  0  0  0  0  0  0  0  0  0
   29.2161   39.6293   17.4502 N   0  0  0  0  0  0  0  0  0  0  0  0
   28.7902   38.3619   17.5563 C   0  0  0  0  0  0  0  0  0  0  0  0
   28.6581   41.7698   16.9157 O   0  0  0  0  0  0  0  0  0  0  0  0
   30.0528   42.0423   16.7362 C   0  0  0  0  0  0  0  0  0  0  0  0
  1  2  2  0  0  0  0
  1  6  1  0  0  0  0
  2  3  1  0  0  0  0
  3  4  2  0  0  0  0
  4 14  1  0  0  0  0
  5  4  1  0  0  0  0
  6  5  1  0  0  0  0
  7  6  2  0  0  0  0
  8  9  1  0  0  0  0
  8  2  1  1  0  0  0
 10 19  1  0  0  0  0
 10  9  1  0  0  0  0
 11 10  1  0  0  0  0
 12 11  1  0  0  0  0
 12 13  1  0  0  0  0
 13  8  1  0  0  0  0
 14 15  1  0  0  0  0
 14 18  2  0  0  0  0
 15 16  1  0  0  0  0
 16 17  2  0  0  0  0
 18 17  1  0  0  0  0
 19 20  1  0  0  0  0
 20 25  2  0  0  0  0
 20 21  1  0  0  0  0
 21 22  2  0  0  0  0
 22 23  1  0  0  0  0
 23 26  1  0  0  0  0
 24 23  2  0  0  0  0
 25 24  1  0  0  0  0
 26 27  1  0  0  0  0
M  END
>  <CHROM.1>
174.11159461,128.87064610,17.94811125,-137.38890457,-157.88026041,27.83632904
38.26003850,20.23100175,-2.45132649,-1.23429153,-1.68832460

>  <Name>
lig.pdb

>  <RI>
0

>  <Rbt.Current_Directory>
/home/itssahil/PROJECTS/Mol_Feturizer/New_Systems/rnas/5kx9

>  <Rbt.Executable>
rbdock ($Id: //depot/dev/client3/rdock/2013.1/src/exe/rbdock.cxx#4 $)

>  <Rbt.Library>
libRbt.so (2013.1, Build901 2013/11/27)

>  <Rbt.Parameter_File>
/export/apps/rDock/src/rDock_2013.1_src/data/scripts/dock_solv.prm

>  <Rbt.Receptor>
prm/blind_docking_100.prm

>  <SCORE>
-29.1978

>  <SCORE.INTER>
-28.9358

>  <SCORE.INTER.CONST>
1

>  <SCORE.INTER.POLAR>
0

>  <SCORE.INTER.ROT>
5

>  <SCORE.INTER.SOLV>
13.6767

>  <SCORE.INTER.VDW>
-30.7828

>  <SCORE.INTER.norm>
-1.0717

>  <SCORE.INTRA>
-0.261979

>  <SCORE.INTRA.DIHEDRAL>
2.00776

>  <SCORE.INTRA.DIHEDRAL.0>
2.68224

>  <SCORE.INTRA.POLAR>
0

>  <SCORE.INTRA.POLAR.0>
0

>  <SCORE.INTRA.REPUL>
0

>  <SCORE.INTRA.REPUL.0>
0

>  <SCORE.INTRA.SOLV>
-0.370723

>  <SCORE.INTRA.SOLV.lig_0>
-19.4148

>  <SCORE.INTRA.VDW>
-1.0805

>  <SCORE.INTRA.VDW.0>
5.42093

>  <SCORE.INTRA.norm>
-0.00970292

>  <SCORE.RESTR>
0

>  <SCORE.RESTR.CAVITY>
0

>  <SCORE.RESTR.norm>
0

>  <SCORE.SYSTEM>
0

>  <SCORE.SYSTEM.CONST>
0

>  <SCORE.SYSTEM.DIHEDRAL>
0

>  <SCORE.SYSTEM.SOLV>
0

>  <SCORE.SYSTEM.norm>
0

>  <SCORE.heavy>
27

>  <SCORE.norm>
-1.0814

>  <RMSD>
5.155

$$$$
lig.pdb
 OpenBabel11021811523D
libRbt.so/2013.1/901 2013/11/27
 27 30  0  0  0  0  0  0  0  0999 V2000
   27.2468   38.8211   24.5768 N   0  0  0  0  0  0  0  0  0  0  0  0
   27.7755   38.9430   23.3843 C   0  0  0  0  0  0  0  0  0  0  0  0
   27.8502   37.9489   22.4638 N   0  0  0  0  0  0  0  0  0  0  0  0
   27.2966   36.7363   22.7641 C   0  0  0  0  0  0  0  0  0  0  0  0
   26.6990   36.5282   23.9740 C   0  0  0  0  0  0  0  0  0  0  0  0
   26.6786   37.6008   24.9399 C   0  0  0  0  0  0  0  0  0  0  0  0
   26.2030   37.4720   26.0749 O   0  0  0  0  0  0  0  0  0  0  0  0
   28.5538   40.2019   22.9429 C   0  0  2  0  0  0  0  0  0  0  0  0
   28.4224   41.1086   24.1774 C   0  0  0  0  0  0  0  0  0  0  0  0
   28.8807   42.4712   23.9009 N   0  0  0  0  0  0  0  0  0  0  0  0
   28.0303   43.0614   22.8546 C   0  0  0  0  0  0  0  0  0  0  0  0
   28.1623   42.2917   21.5553 C   0  0  0  0  0  0  0  0  0  0  0  0
   27.8062   40.8246   21.7516 C   0  0  0  0  0  0  0  0  0  0  0  0
   27.4142   35.7836   21.6683 C   0  0  0  0  0  0  0  0  0  0  0  0
   27.0808   34.1061   21.8913 S   0  0  0  0  0  0  0  0  0  0  0  0
   27.4551   33.7560   20.2949 C   0  0  0  0  0  0  0  0  0  0  0  0
   27.7716   34.8573   19.6021 C   0  0  0  0  0  0  0  0  0  0  0  0
   27.7612   36.0331   20.3776 C   0  0  0  0  0  0  0  0  0  0  0  0
   28.8652   43.3136   25.1098 C   0  0  0  0  0  0  0  0  0  0  0  0
   29.9065   42.9796   26.1546 C   0  0  0  0  0  0  0  0  0  0  0  0
   31.2156   43.4208   26.0277 C   0  0  0  0  0  0  0  0  0  0  0  0
   32.2612   42.8942   26.6905 N   0  0  0  0  0  0  0  0  0  0  0  0
   31.9503   41.8681   27.4682 C   0  0  0  0  0  0  0  0  0  0  0  0
   30.7652   41.3112   27.6604 N   0  0  0  0  0  0  0  0  0  0  0  0
   29.7639   41.8751   26.9688 C   0  0  0  0  0  0  0  0  0  0  0  0
   32.9941   41.3414   28.1188 O   0  0  0  0  0  0  0  0  0  0  0  0
   32.7601   40.8220   29.4331 C   0  0  0  0  0  0  0  0  0  0  0  0
  1  2  2  0  0  0  0
  1  6  1  0  0  0  0
  2  3  1  0  0  0  0
  3  4  2  0  0  0  0
  4 14  1  0  0  0  0
  5  4  1  0  0  0  0
  6  5  1  0  0  0  0
  7  6  2  0  0  0  0
  8  9  1  0  0  0  0
  8  2  1  1  0  0  0
 10 19  1  0  0  0  0
 10  9  1  0  0  0  0
 11 10  1  0  0  0  0
 12 11  1  0  0  0  0
 12 13  1  0  0  0  0
 13  8  1  0  0  0  0
 14 15  1  0  0  0  0
 14 18  2  0  0  0  0
 15 16  1  0  0  0  0
 16 17  2  0  0  0  0
 18 17  1  0  0  0  0
 19 20  1  0  0  0  0
 20 25  2  0  0  0  0
 20 21  1  0  0  0  0
 21 22  2  0  0  0  0
 22 23  1  0  0  0  0
 23 26  1  0  0  0  0
 24 23  2  0  0  0  0
 25 24  1  0  0  0  0
 26 27  1  0  0  0  0
M  END
>  <CHROM.1>
167.84074424,-2.58389714,70.25355933,80.53881399,145.78613789,28.74663045
39.35128133,24.13121694,-2.51777848,-1.04112594,-0.22777823

>  <Name>
lig.pdb

>  <RI>
0

>  <Rbt.Current_Directory>
/home/itssahil/PROJECTS/Mol_Feturizer/New_Systems/rnas/5kx9

>  <Rbt.Executable>
rbdock ($Id: //depot/dev/client3/rdock/2013.1/src/exe/rbdock.cxx#4 $)

>  <Rbt.Library>
libRbt.so (2013.1, Build901 2013/11/27)

>  <Rbt.Parameter_File>
/export/apps/rDock/src/rDock_2013.1_src/data/scripts/dock_solv.prm

>  <Rbt.Receptor>
prm/pocket_docking_8.prm

>  <SCORE>
-44.3342

>  <SCORE.INTER>
-41.1437

>  <SCORE.INTER.CONST>
1

>  <SCORE.INTER.POLAR>
0

>  <SCORE.INTER.ROT>
5

>  <SCORE.INTER.SOLV>
16.9848

>  <SCORE.INTER.VDW>
-40.0241

>  <SCORE.INTER.norm>
-1.52384

>  <SCORE.INTRA>
-3.19043

>  <SCORE.INTRA.DIHEDRAL>
1.83951

>  <SCORE.INTRA.DIHEDRAL.0>
2.68224

>  <SCORE.INTRA.POLAR>
0

>  <SCORE.INTRA.POLAR.0>
0

>  <SCORE.INTRA.REPUL>
0

>  <SCORE.INTRA.REPUL.0>
0

>  <SCORE.INTRA.SOLV>
-0.503476

>  <SCORE.INTRA.SOLV.lig_0>
-19.4148

>  <SCORE.INTRA.VDW>
-3.85845

>  <SCORE.INTRA.VDW.0>
5.42093

>  <SCORE.INTRA.norm>
-0.118164

>  <SCORE.RESTR>
0

>  <SCORE.RESTR.CAVITY>
0

>  <SCORE.RESTR.norm>
0

>  <SCORE.SYSTEM>
0

>  <SCORE.SYSTEM.CONST>
0

>  <SCORE.SYSTEM.DIHEDRAL>
0

>  <SCORE.SYSTEM.SOLV>
0

>  <SCORE.SYSTEM.norm>
0

>  <SCORE.heavy>
27

>  <SCORE.norm>
-1.64201

>  <RMSD>
5.159

$$$$
lig.pdb
 OpenBabel11021811523D
libRbt.so/2013.1/901 2013/11/27
 27 30  0  0  0  0  0  0  0  0999 V2000
   26.8222   36.0997   23.2540 N   0  0  0  0  0  0  0  0  0  0  0  0
   27.5392   36.5600   22.2589 C   0  0  0  0  0  0  0  0  0  0  0  0
   28.0302   37.8222   22.1756 N   0  0  0  0  0  0  0  0  0  0  0  0
   27.8131   38.6787   23.2178 C   0  0  0  0  0  0  0  0  0  0  0  0
   27.0996   38.2744   24.3096 C   0  0  0  0  0  0  0  0  0  0  0  0
   26.5599   36.9359   24.3384 C   0  0  0  0  0  0  0  0  0  0  0  0
   25.8600   36.5151   25.2678 O   0  0  0  0  0  0  0  0  0  0  0  0
   27.7616   35.7639   20.9542 C   0  0  2  0  0  0  0  0  0  0  0  0
   26.9351   36.5725   19.9410 C   0  0  0  0  0  0  0  0  0  0  0  0
   26.7947   35.8645   18.6674 N   0  0  0  0  0  0  0  0  0  0  0  0
   26.0654   34.6064   18.8946 C   0  0  0  0  0  0  0  0  0  0  0  0
   26.8480   33.6883   19.8126 C   0  0  0  0  0  0  0  0  0  0  0  0
   27.1429   34.3683   21.1424 C   0  0  0  0  0  0  0  0  0  0  0  0
   28.4333   39.9800   23.0078 C   0  0  0  0  0  0  0  0  0  0  0  0
   28.3348   41.2286   24.1937 S   0  0  0  0  0  0  0  0  0  0  0  0
   29.2016   42.2947   23.2330 C   0  0  0  0  0  0  0  0  0  0  0  0
   29.5955   41.7276   22.0858 C   0  0  0  0  0  0  0  0  0  0  0  0
   29.1561   40.3979   21.9347 C   0  0  0  0  0  0  0  0  0  0  0  0
   26.1029   36.6825   17.6557 C   0  0  0  0  0  0  0  0  0  0  0  0
   26.4603   38.1521   17.6453 C   0  0  0  0  0  0  0  0  0  0  0  0
   25.9380   39.0230   18.5904 C   0  0  0  0  0  0  0  0  0  0  0  0
   25.9081   40.3611   18.4544 N   0  0  0  0  0  0  0  0  0  0  0  0
   26.3924   40.8010   17.3026 C   0  0  0  0  0  0  0  0  0  0  0  0
   26.8836   40.0978   16.2948 N   0  0  0  0  0  0  0  0  0  0  0  0
   26.8816   38.7703   16.4861 C   0  0  0  0  0  0  0  0  0  0  0  0
   26.3529   42.1315   17.1673 O   0  0  0  0  0  0  0  0  0  0  0  0
   25.0885   42.7777   17.3556 C   0  0  0  0  0  0  0  0  0  0  0  0
  1  2  2  0  0  0  0
  1  6  1  0  0  0  0
  2  3  1  0  0  0  0
  3  4  2  0  0  0  0
  4 14  1  0  0  0  0
  5  4  1  0  0  0  0
  6  5  1  0  0  0  0
  7  6  2  0  0  0  0
  8  9  1  0  0  0  0
  8  2  1  1  0  0  0
 10 19  1  0  0  0  0
 10  9  1  0  0  0  0
 11 10  1  0  0  0  0
 12 11  1  0  0  0  0
 12 13  1  0  0  0  0
 13  8  1  0  0  0  0
 14 15  1  0  0  0  0
 14 18  2  0  0  0  0
 15 16  1  0  0  0  0
 16 17  2  0  0  0  0
 18 17  1  0  0  0  0
 19 20  1  0  0  0  0
 20 25  2  0  0  0  0
 20 21  1  0  0  0  0
 21 22  2  0  0  0  0
 22 23  1  0  0  0  0
 23 26  1  0  0  0  0
 24 23  2  0  0  0  0
 25 24  1  0  0  0  0
 26 27  1  0  0  0  0
M  END
>  <CHROM.1>
-178.65059991,109.79993518,39.12170400,-77.57011296,-54.09140882,27.13490212
38.50764191,20.72550630,0.73507889,1.29816314,2.59811307

>  <Name>
lig.pdb

>  <RI>
0

>  <Rbt.Current_Directory>
/home/itssahil/PROJECTS/Mol_Feturizer/New_Systems/rnas/5kx9

>  <Rbt.Executable>
rbdock ($Id: //depot/dev/client3/rdock/2013.1/src/exe/rbdock.cxx#4 $)

>  <Rbt.Library>
libRbt.so (2013.1, Build901 2013/11/27)

>  <Rbt.Parameter_File>
/export/apps/rDock/src/rDock_2013.1_src/data/scripts/dock_solv.prm

>  <Rbt.Receptor>
prm/pocket_docking_4.prm

>  <SCORE>
-34.094

>  <SCORE.INTER>
-31.5635

>  <SCORE.INTER.CONST>
1

>  <SCORE.INTER.POLAR>
0

>  <SCORE.INTER.ROT>
5

>  <SCORE.INTER.SOLV>
14.954

>  <SCORE.INTER.VDW>
-32.9603

>  <SCORE.INTER.norm>
-1.16902

>  <SCORE.INTRA>
-2.53045

>  <SCORE.INTRA.DIHEDRAL>
2.67048

>  <SCORE.INTRA.DIHEDRAL.0>
2.68224

>  <SCORE.INTRA.POLAR>
0

>  <SCORE.INTRA.POLAR.0>
0

>  <SCORE.INTRA.REPUL>
0

>  <SCORE.INTRA.REPUL.0>
0

>  <SCORE.INTRA.SOLV>
-0.540764

>  <SCORE.INTRA.SOLV.lig_0>
-19.4148

>  <SCORE.INTRA.VDW>
-3.59531

>  <SCORE.INTRA.VDW.0>
5.42093

>  <SCORE.INTRA.norm>
-0.0937205

>  <SCORE.RESTR>
0

>  <SCORE.RESTR.CAVITY>
0

>  <SCORE.RESTR.norm>
0

>  <SCORE.SYSTEM>
0

>  <SCORE.SYSTEM.CONST>
0

>  <SCORE.SYSTEM.DIHEDRAL>
0

>  <SCORE.SYSTEM.SOLV>
0

>  <SCORE.SYSTEM.norm>
0

>  <SCORE.heavy>
27

>  <SCORE.norm>
-1.26274

>  <RMSD>
5.205

$$$$
lig.pdb
 OpenBabel11021811523D
libRbt.so/2013.1/901 2013/11/27
 27 30  0  0  0  0  0  0  0  0999 V2000
   26.9770   38.1250   24.1680 N   0  0  0  0  0  0  0  0  0  0  0  0
   27.5341   38.4839   23.0379 C   0  0  0  0  0  0  0  0  0  0  0  0
   27.7691   37.6534   21.9910 N   0  0  0  0  0  0  0  0  0  0  0  0
   27.3592   36.3531   22.0826 C   0  0  0  0  0  0  0  0  0  0  0  0
   26.7438   35.8989   23.2136 C   0  0  0  0  0  0  0  0  0  0  0  0
   26.5510   36.8061   24.3198 C   0  0  0  0  0  0  0  0  0  0  0  0
   26.0498   36.4553   25.3951 O   0  0  0  0  0  0  0  0  0  0  0  0
   28.1667   39.8770   22.8265 C   0  0  2  0  0  0  0  0  0  0  0  0
   27.9173   40.5512   24.1854 C   0  0  0  0  0  0  0  0  0  0  0  0
   28.2181   41.9834   24.1437 N   0  0  0  0  0  0  0  0  0  0  0  0
   27.3172   42.6360   23.1800 C   0  0  0  0  0  0  0  0  0  0  0  0
   27.5521   42.1066   21.7791 C   0  0  0  0  0  0  0  0  0  0  0  0
   27.3658   40.5965   21.7280 C   0  0  0  0  0  0  0  0  0  0  0  0
   27.6387   35.5944   20.8708 C   0  0  0  0  0  0  0  0  0  0  0  0
   27.3238   33.9013   20.7735 S   0  0  0  0  0  0  0  0  0  0  0  0
   27.9052   33.8205   19.2030 C   0  0  0  0  0  0  0  0  0  0  0  0
   28.2775   35.0224   18.7449 C   0  0  0  0  0  0  0  0  0  0  0  0
   28.1388   36.0545   19.6933 C   0  0  0  0  0  0  0  0  0  0  0  0
   28.0915   42.6117   25.4705 C   0  0  0  0  0  0  0  0  0  0  0  0
   26.7009   42.6125   26.0651 C   0  0  0  0  0  0  0  0  0  0  0  0
   25.8128   41.5773   25.8114 C   0  0  0  0  0  0  0  0  0  0  0  0
   24.4819   41.6587   25.9901 N   0  0  0  0  0  0  0  0  0  0  0  0
   24.0606   42.8451   26.4016 C   0  0  0  0  0  0  0  0  0  0  0  0
   24.7748   43.9323   26.6455 N   0  0  0  0  0  0  0  0  0  0  0  0
   26.0933   43.7918   26.4440 C   0  0  0  0  0  0  0  0  0  0  0  0
   22.7356   42.9248   26.5696 O   0  0  0  0  0  0  0  0  0  0  0  0
   21.9050   42.5215   25.4746 C   0  0  0  0  0  0  0  0  0  0  0  0
  1  2  2  0  0  0  0
  1  6  1  0  0  0  0
  2  3  1  0  0  0  0
  3  4  2  0  0  0  0
  4 14  1  0  0  0  0
  5  4  1  0  0  0  0
  6  5  1  0  0  0  0
  7  6  2  0  0  0  0
  8  9  1  0  0  0  0
  8  2  1  1  0  0  0
 10 19  1  0  0  0  0
 10  9  1  0  0  0  0
 11 10  1  0  0  0  0
 12 11  1  0  0  0  0
 12 13  1  0  0  0  0
 13  8  1  0  0  0  0
 14 15  1  0  0  0  0
 14 18  2  0  0  0  0
 15 16  1  0  0  0  0
 16 17  2  0  0  0  0
 18 17  1  0  0  0  0
 19 20  1  0  0  0  0
 20 25  2  0  0  0  0
 20 21  1  0  0  0  0
 21 22  2  0  0  0  0
 22 23  1  0  0  0  0
 23 26  1  0  0  0  0
 24 23  2  0  0  0  0
 25 24  1  0  0  0  0
 26 27  1  0  0  0  0
M  END
>  <CHROM.1>
175.46069482,-0.67583235,-64.36854925,32.42349951,-52.49368342,26.63128421
39.28313185,23.47713479,1.21272056,-0.71349660,-2.80103486

>  <Name>
lig.pdb

>  <RI>
0

>  <Rbt.Current_Directory>
/home/itssahil/PROJECTS/Mol_Feturizer/New_Systems/rnas/5kx9

>  <Rbt.Executable>
rbdock ($Id: //depot/dev/client3/rdock/2013.1/src/exe/rbdock.cxx#4 $)

>  <Rbt.Library>
libRbt.so (2013.1, Build901 2013/11/27)

>  <Rbt.Parameter_File>
/export/apps/rDock/src/rDock_2013.1_src/data/scripts/dock_solv.prm

>  <Rbt.Receptor>
prm/blind_docking_60.prm

>  <SCORE>
-36.867

>  <SCORE.INTER>
-35.3507

>  <SCORE.INTER.CONST>
1

>  <SCORE.INTER.POLAR>
0

>  <SCORE.INTER.ROT>
5

>  <SCORE.INTER.SOLV>
16.7156

>  <SCORE.INTER.VDW>
-36.0723

>  <SCORE.INTER.norm>
-1.30928

>  <SCORE.INTRA>
-1.51637

>  <SCORE.INTRA.DIHEDRAL>
1.9755

>  <SCORE.INTRA.DIHEDRAL.0>
2.68224

>  <SCORE.INTRA.POLAR>
0

>  <SCORE.INTRA.POLAR.0>
0

>  <SCORE.INTRA.REPUL>
0

>  <SCORE.INTRA.REPUL.0>
0

>  <SCORE.INTRA.SOLV>
-0.245614

>  <SCORE.INTRA.SOLV.lig_0>
-19.4148

>  <SCORE.INTRA.VDW>
-2.38131

>  <SCORE.INTRA.VDW.0>
5.42093

>  <SCORE.INTRA.norm>
-0.0561617

>  <SCORE.RESTR>
0

>  <SCORE.RESTR.CAVITY>
0

>  <SCORE.RESTR.norm>
0

>  <SCORE.SYSTEM>
0

>  <SCORE.SYSTEM.CONST>
0

>  <SCORE.SYSTEM.DIHEDRAL>
0

>  <SCORE.SYSTEM.SOLV>
0

>  <SCORE.SYSTEM.norm>
0

>  <SCORE.heavy>
27

>  <SCORE.norm>
-1.36545

>  <RMSD>
5.223

$$$$
lig.pdb
 OpenBabel11021811523D
libRbt.so/2013.1/901 2013/11/27
 27 30  0  0  0  0  0  0  0  0999 V2000
   26.8459   36.2803   23.3449 N   0  0  0  0  0  0  0  0  0  0  0  0
   27.5587   36.7594   22.3557 C   0  0  0  0  0  0  0  0  0  0  0  0
   28.0202   38.0331   22.2780 N   0  0  0  0  0  0  0  0  0  0  0  0
   27.7752   38.8823   23.3200 C   0  0  0  0  0  0  0  0  0  0  0  0
   27.0639   38.4591   24.4060 C   0  0  0  0  0  0  0  0  0  0  0  0
   26.5560   37.1081   24.4287 C   0  0  0  0  0  0  0  0  0  0  0  0
   25.8597   36.6690   25.3524 O   0  0  0  0  0  0  0  0  0  0  0  0
   27.8093   35.9712   21.0513 C   0  0  2  0  0  0  0  0  0  0  0  0
   26.9854   36.7723   20.0300 C   0  0  0  0  0  0  0  0  0  0  0  0
   26.8716   36.0671   18.7521 N   0  0  0  0  0  0  0  0  0  0  0  0
   26.1567   34.7984   18.9652 C   0  0  0  0  0  0  0  0  0  0  0  0
   26.9394   33.8876   19.8903 C   0  0  0  0  0  0  0  0  0  0  0  0
   27.2073   34.5666   21.2263 C   0  0  0  0  0  0  0  0  0  0  0  0
   28.3658   40.1984   23.1167 C   0  0  0  0  0  0  0  0  0  0  0  0
   28.1421   41.4737   24.2562 S   0  0  0  0  0  0  0  0  0  0  0  0
   29.0396   42.5436   23.3284 C   0  0  0  0  0  0  0  0  0  0  0  0
   29.5326   41.9604   22.2286 C   0  0  0  0  0  0  0  0  0  0  0  0
   29.1490   40.6126   22.0854 C   0  0  0  0  0  0  0  0  0  0  0  0
   26.1822   36.8793   17.7342 C   0  0  0  0  0  0  0  0  0  0  0  0
   26.5376   38.3493   17.7180 C   0  0  0  0  0  0  0  0  0  0  0  0
   25.9430   39.2398   18.6000 C   0  0  0  0  0  0  0  0  0  0  0  0
   25.9221   40.5744   18.4318 N   0  0  0  0  0  0  0  0  0  0  0  0
   26.4933   40.9896   17.3111 C   0  0  0  0  0  0  0  0  0  0  0  0
   27.0615   40.2653   16.3603 N   0  0  0  0  0  0  0  0  0  0  0  0
   27.0464   38.9425   16.5810 C   0  0  0  0  0  0  0  0  0  0  0  0
   26.4628   42.3166   17.1430 O   0  0  0  0  0  0  0  0  0  0  0  0
   26.3978   42.8115   15.8004 C   0  0  0  0  0  0  0  0  0  0  0  0
  1  2  2  0  0  0  0
  1  6  1  0  0  0  0
  2  3  1  0  0  0  0
  3  4  2  0  0  0  0
  4 14  1  0  0  0  0
  5  4  1  0  0  0  0
  6  5  1  0  0  0  0
  7  6  2  0  0  0  0
  8  9  1  0  0  0  0
  8  2  1  1  0  0  0
 10 19  1  0  0  0  0
 10  9  1  0  0  0  0
 11 10  1  0  0  0  0
 12 11  1  0  0  0  0
 12 13  1  0  0  0  0
 13  8  1  0  0  0  0
 14 15  1  0  0  0  0
 14 18  2  0  0  0  0
 15 16  1  0  0  0  0
 16 17  2  0  0  0  0
 18 17  1  0  0  0  0
 19 20  1  0  0  0  0
 20 25  2  0  0  0  0
 20 21  1  0  0  0  0
 21 22  2  0  0  0  0
 22 23  1  0  0  0  0
 23 26  1  0  0  0  0
 24 23  2  0  0  0  0
 25 24  1  0  0  0  0
 26 27  1  0  0  0  0
M  END
>  <CHROM.1>
177.28611663,110.48963035,40.14421648,-81.91851373,-148.90180150,27.19976140
38.70287861,20.73720508,1.00038498,1.32701988,2.40727722

>  <Name>
lig.pdb

>  <RI>
0

>  <Rbt.Current_Directory>
/home/itssahil/PROJECTS/Mol_Feturizer/New_Systems/rnas/5kx9

>  <Rbt.Executable>
rbdock ($Id: //depot/dev/client3/rdock/2013.1/src/exe/rbdock.cxx#4 $)

>  <Rbt.Library>
libRbt.so (2013.1, Build901 2013/11/27)

>  <Rbt.Parameter_File>
/export/apps/rDock/src/rDock_2013.1_src/data/scripts/dock_solv.prm

>  <Rbt.Receptor>
prm/pocket_docking_6.prm

>  <SCORE>
-34.5378

>  <SCORE.INTER>
-31.4836

>  <SCORE.INTER.CONST>
1

>  <SCORE.INTER.POLAR>
0

>  <SCORE.INTER.ROT>
5

>  <SCORE.INTER.SOLV>
14.6267

>  <SCORE.INTER.VDW>
-32.798

>  <SCORE.INTER.norm>
-1.16606

>  <SCORE.INTRA>
-3.05423

>  <SCORE.INTRA.DIHEDRAL>
0.66194

>  <SCORE.INTRA.DIHEDRAL.0>
2.68224

>  <SCORE.INTRA.POLAR>
0

>  <SCORE.INTRA.POLAR.0>
0

>  <SCORE.INTRA.REPUL>
0

>  <SCORE.INTRA.REPUL.0>
0

>  <SCORE.INTRA.SOLV>
-0.551682

>  <SCORE.INTRA.SOLV.lig_0>
-19.4148

>  <SCORE.INTRA.VDW>
-3.10936

>  <SCORE.INTRA.VDW.0>
5.42093

>  <SCORE.INTRA.norm>
-0.11312

>  <SCORE.RESTR>
0

>  <SCORE.RESTR.CAVITY>
0

>  <SCORE.RESTR.norm>
0

>  <SCORE.SYSTEM>
0

>  <SCORE.SYSTEM.CONST>
0

>  <SCORE.SYSTEM.DIHEDRAL>
0

>  <SCORE.SYSTEM.SOLV>
0

>  <SCORE.SYSTEM.norm>
0

>  <SCORE.heavy>
27

>  <SCORE.norm>
-1.27918

>  <RMSD>
5.232

$$$$
lig.pdb
 OpenBabel11021811523D
libRbt.so/2013.1/901 2013/11/27
 27 30  0  0  0  0  0  0  0  0999 V2000
   26.8273   36.1767   23.3321 N   0  0  0  0  0  0  0  0  0  0  0  0
   27.5596   36.5657   22.3179 C   0  0  0  0  0  0  0  0  0  0  0  0
   28.0127   37.8305   22.1283 N   0  0  0  0  0  0  0  0  0  0  0  0
   27.7364   38.7735   23.0778 C   0  0  0  0  0  0  0  0  0  0  0  0
   27.0028   38.4496   24.1829 C   0  0  0  0  0  0  0  0  0  0  0  0
   26.5052   37.1019   24.3241 C   0  0  0  0  0  0  0  0  0  0  0  0
   25.7906   36.7467   25.2697 O   0  0  0  0  0  0  0  0  0  0  0  0
   27.8473   35.6582   21.1016 C   0  0  2  0  0  0  0  0  0  0  0  0
   27.1540   36.4218   19.9615 C   0  0  0  0  0  0  0  0  0  0  0  0
   27.0830   35.6219   18.7375 N   0  0  0  0  0  0  0  0  0  0  0  0
   26.2699   34.4221   18.9939 C   0  0  0  0  0  0  0  0  0  0  0  0
   26.9215   33.5440   20.0439 C   0  0  0  0  0  0  0  0  0  0  0  0
   27.1401   34.3131   21.3393 C   0  0  0  0  0  0  0  0  0  0  0  0
   28.3212   40.0699   22.7621 C   0  0  0  0  0  0  0  0  0  0  0  0
   27.9834   41.4682   23.7139 S   0  0  0  0  0  0  0  0  0  0  0  0
   28.9383   42.4400   22.7368 C   0  0  0  0  0  0  0  0  0  0  0  0
   29.5303   41.7402   21.7607 C   0  0  0  0  0  0  0  0  0  0  0  0
   29.1811   40.3757   21.7543 C   0  0  0  0  0  0  0  0  0  0  0  0
   26.5240   36.3885   17.6101 C   0  0  0  0  0  0  0  0  0  0  0  0
   27.2835   37.6393   17.2277 C   0  0  0  0  0  0  0  0  0  0  0  0
   28.5623   37.8765   17.7105 C   0  0  0  0  0  0  0  0  0  0  0  0
   29.1577   39.0829   17.7207 N   0  0  0  0  0  0  0  0  0  0  0  0
   28.4003   40.0664   17.2586 C   0  0  0  0  0  0  0  0  0  0  0  0
   27.1583   40.0046   16.8057 N   0  0  0  0  0  0  0  0  0  0  0  0
   26.6163   38.7780   16.8257 C   0  0  0  0  0  0  0  0  0  0  0  0
   28.9925   41.2659   17.2786 O   0  0  0  0  0  0  0  0  0  0  0  0
   28.1484   42.4181   17.3861 C   0  0  0  0  0  0  0  0  0  0  0  0
  1  2  2  0  0  0  0
  1  6  1  0  0  0  0
  2  3  1  0  0  0  0
  3  4  2  0  0  0  0
  4 14  1  0  0  0  0
  5  4  1  0  0  0  0
  6  5  1  0  0  0  0
  7  6  2  0  0  0  0
  8  9  1  0  0  0  0
  8  2  1  1  0  0  0
 10 19  1  0  0  0  0
 10  9  1  0  0  0  0
 11 10  1  0  0  0  0
 12 11  1  0  0  0  0
 12 13  1  0  0  0  0
 13  8  1  0  0  0  0
 14 15  1  0  0  0  0
 14 18  2  0  0  0  0
 15 16  1  0  0  0  0
 16 17  2  0  0  0  0
 18 17  1  0  0  0  0
 19 20  1  0  0  0  0
 20 25  2  0  0  0  0
 20 21  1  0  0  0  0
 21 22  2  0  0  0  0
 22 23  1  0  0  0  0
 23 26  1  0  0  0  0
 24 23  2  0  0  0  0
 25 24  1  0  0  0  0
 26 27  1  0  0  0  0
M  END
>  <CHROM.1>
173.52267447,115.70546430,59.29338797,13.47473766,-152.72079801,27.65585603
38.34182794,20.62811506,1.98646805,1.29506006,1.39296075

>  <Name>
lig.pdb

>  <RI>
0

>  <Rbt.Current_Directory>
/home/itssahil/PROJECTS/Mol_Feturizer/New_Systems/rnas/5kx9

>  <Rbt.Executable>
rbdock ($Id: //depot/dev/client3/rdock/2013.1/src/exe/rbdock.cxx#4 $)

>  <Rbt.Library>
libRbt.so (2013.1, Build901 2013/11/27)

>  <Rbt.Parameter_File>
/export/apps/rDock/src/rDock_2013.1_src/data/scripts/dock_solv.prm

>  <Rbt.Receptor>
prm/pocket_docking_3.prm

>  <SCORE>
-32.8831

>  <SCORE.INTER>
-29.2161

>  <SCORE.INTER.CONST>
1

>  <SCORE.INTER.POLAR>
0

>  <SCORE.INTER.ROT>
5

>  <SCORE.INTER.SOLV>
13.0488

>  <SCORE.INTER.VDW>
-30.7604

>  <SCORE.INTER.norm>
-1.08208

>  <SCORE.INTRA>
-3.68381

>  <SCORE.INTRA.DIHEDRAL>
-0.160664

>  <SCORE.INTRA.DIHEDRAL.0>
2.68224

>  <SCORE.INTRA.POLAR>
0

>  <SCORE.INTRA.POLAR.0>
0

>  <SCORE.INTRA.REPUL>
0

>  <SCORE.INTRA.REPUL.0>
0

>  <SCORE.INTRA.SOLV>
-0.335877

>  <SCORE.INTRA.SOLV.lig_0>
-19.4148

>  <SCORE.INTRA.VDW>
-3.43554

>  <SCORE.INTRA.VDW.0>
5.42093

>  <SCORE.INTRA.norm>
-0.136437

>  <SCORE.RESTR>
0.016794

>  <SCORE.RESTR.CAVITY>
0.016794

>  <SCORE.RESTR.norm>
0.000622

>  <SCORE.SYSTEM>
0

>  <SCORE.SYSTEM.CONST>
0

>  <SCORE.SYSTEM.DIHEDRAL>
0

>  <SCORE.SYSTEM.SOLV>
0

>  <SCORE.SYSTEM.norm>
0

>  <SCORE.heavy>
27

>  <SCORE.norm>
-1.21789

>  <RMSD>
5.243

$$$$
lig.pdb
 OpenBabel11021811523D
libRbt.so/2013.1/901 2013/11/27
 27 30  0  0  0  0  0  0  0  0999 V2000
   26.7222   36.2199   23.2345 N   0  0  0  0  0  0  0  0  0  0  0  0
   27.5242   36.5952   22.2689 C   0  0  0  0  0  0  0  0  0  0  0  0
   28.0907   37.8237   22.1647 N   0  0  0  0  0  0  0  0  0  0  0  0
   27.8590   38.7371   23.1542 C   0  0  0  0  0  0  0  0  0  0  0  0
   27.0578   38.4219   24.2139 C   0  0  0  0  0  0  0  0  0  0  0  0
   26.4417   37.1174   24.2639 C   0  0  0  0  0  0  0  0  0  0  0  0
   25.6630   36.7777   25.1634 O   0  0  0  0  0  0  0  0  0  0  0  0
   27.7808   35.7299   21.0155 C   0  0  2  0  0  0  0  0  0  0  0  0
   26.8103   36.3480   19.9959 C   0  0  0  0  0  0  0  0  0  0  0  0
   26.6978   35.5282   18.7882 N   0  0  0  0  0  0  0  0  0  0  0  0
   26.1448   34.2130   19.1497 C   0  0  0  0  0  0  0  0  0  0  0  0
   27.0809   33.4737   20.0853 C   0  0  0  0  0  0  0  0  0  0  0  0
   27.3528   34.2890   21.3418 C   0  0  0  0  0  0  0  0  0  0  0  0
   28.5644   39.9919   22.9302 C   0  0  0  0  0  0  0  0  0  0  0  0
   29.5173   40.2515   21.5161 S   0  0  0  0  0  0  0  0  0  0  0  0
   29.9591   41.7880   22.0207 C   0  0  0  0  0  0  0  0  0  0  0  0
   29.3789   42.1199   23.1809 C   0  0  0  0  0  0  0  0  0  0  0  0
   28.5786   41.0958   23.7238 C   0  0  0  0  0  0  0  0  0  0  0  0
   25.8597   36.1720   17.7615 C   0  0  0  0  0  0  0  0  0  0  0  0
   26.1623   37.6283   17.4873 C   0  0  0  0  0  0  0  0  0  0  0  0
   27.2872   38.0028   16.7670 C   0  0  0  0  0  0  0  0  0  0  0  0
   27.8189   39.2386   16.7790 N   0  0  0  0  0  0  0  0  0  0  0  0
   27.1972   40.0898   17.5810 C   0  0  0  0  0  0  0  0  0  0  0  0
   26.1464   39.8721   18.3556 N   0  0  0  0  0  0  0  0  0  0  0  0
   25.6648   38.6213   18.3058 C   0  0  0  0  0  0  0  0  0  0  0  0
   27.7342   41.3151   17.5971 O   0  0  0  0  0  0  0  0  0  0  0  0
   26.8481   42.4275   17.4266 C   0  0  0  0  0  0  0  0  0  0  0  0
  1  2  2  0  0  0  0
  1  6  1  0  0  0  0
  2  3  1  0  0  0  0
  3  4  2  0  0  0  0
  4 14  1  0  0  0  0
  5  4  1  0  0  0  0
  6  5  1  0  0  0  0
  7  6  2  0  0  0  0
  8  9  1  0  0  0  0
  8  2  1  1  0  0  0
 10 19  1  0  0  0  0
 10  9  1  0  0  0  0
 11 10  1  0  0  0  0
 12 11  1  0  0  0  0
 12 13  1  0  0  0  0
 13  8  1  0  0  0  0
 14 15  1  0  0  0  0
 14 18  2  0  0  0  0
 15 16  1  0  0  0  0
 16 17  2  0  0  0  0
 18 17  1  0  0  0  0
 19 20  1  0  0  0  0
 20 25  2  0  0  0  0
 20 21  1  0  0  0  0
 21 22  2  0  0  0  0
 22 23  1  0  0  0  0
 23 26  1  0  0  0  0
 24 23  2  0  0  0  0
 25 24  1  0  0  0  0
 26 27  1  0  0  0  0
M  END
>  <CHROM.1>
2.36764806,97.34199266,47.29399212,74.58659622,130.79904393,27.41531595,38.23466472
20.62041688,0.90230870,1.23532493,2.05427297

>  <Name>
lig.pdb

>  <RI>
0

>  <Rbt.Current_Directory>
/home/itssahil/PROJECTS/Mol_Feturizer/New_Systems/rnas/5kx9

>  <Rbt.Executable>
rbdock ($Id: //depot/dev/client3/rdock/2013.1/src/exe/rbdock.cxx#4 $)

>  <Rbt.Library>
libRbt.so (2013.1, Build901 2013/11/27)

>  <Rbt.Parameter_File>
/export/apps/rDock/src/rDock_2013.1_src/data/scripts/dock_solv.prm

>  <Rbt.Receptor>
prm/pocket_docking_6.prm

>  <SCORE>
-33.454

>  <SCORE.INTER>
-29.2219

>  <SCORE.INTER.CONST>
1

>  <SCORE.INTER.POLAR>
0

>  <SCORE.INTER.ROT>
5

>  <SCORE.INTER.SOLV>
14.522

>  <SCORE.INTER.VDW>
-31.2553

>  <SCORE.INTER.norm>
-1.08229

>  <SCORE.INTRA>
-4.23211

>  <SCORE.INTRA.DIHEDRAL>
2.34665

>  <SCORE.INTRA.DIHEDRAL.0>
2.68224

>  <SCORE.INTRA.POLAR>
0

>  <SCORE.INTRA.POLAR.0>
0

>  <SCORE.INTRA.REPUL>
0

>  <SCORE.INTRA.REPUL.0>
0

>  <SCORE.INTRA.SOLV>
-0.379984

>  <SCORE.INTRA.SOLV.lig_0>
-19.4148

>  <SCORE.INTRA.VDW>
-5.21544

>  <SCORE.INTRA.VDW.0>
5.42093

>  <SCORE.INTRA.norm>
-0.156745

>  <SCORE.RESTR>
0

>  <SCORE.RESTR.CAVITY>
0

>  <SCORE.RESTR.norm>
0

>  <SCORE.SYSTEM>
0

>  <SCORE.SYSTEM.CONST>
0

>  <SCORE.SYSTEM.DIHEDRAL>
0

>  <SCORE.SYSTEM.SOLV>
0

>  <SCORE.SYSTEM.norm>
0

>  <SCORE.heavy>
27

>  <SCORE.norm>
-1.23904

>  <RMSD>
5.248

$$$$
lig.pdb
 OpenBabel11021811523D
libRbt.so/2013.1/901 2013/11/27
 27 30  0  0  0  0  0  0  0  0999 V2000
   31.3413   39.5708   17.5293 N   0  0  0  0  0  0  0  0  0  0  0  0
   30.0621   39.8511   17.5667 C   0  0  0  0  0  0  0  0  0  0  0  0
   29.0740   39.0223   17.1450 N   0  0  0  0  0  0  0  0  0  0  0  0
   29.4126   37.7798   16.6882 C   0  0  0  0  0  0  0  0  0  0  0  0
   30.7210   37.3922   16.6407 C   0  0  0  0  0  0  0  0  0  0  0  0
   31.7434   38.3209   17.0601 C   0  0  0  0  0  0  0  0  0  0  0  0
   32.9515   38.0617   16.9967 O   0  0  0  0  0  0  0  0  0  0  0  0
   29.5268   41.2531   17.9316 C   0  0  2  0  0  0  0  0  0  0  0  0
   28.7183   40.9649   19.2070 C   0  0  0  0  0  0  0  0  0  0  0  0
   27.9069   42.1161   19.6066 N   0  0  0  0  0  0  0  0  0  0  0  0
   26.9283   42.4058   18.5461 C   0  0  0  0  0  0  0  0  0  0  0  0
   27.6281   42.7990   17.2601 C   0  0  0  0  0  0  0  0  0  0  0  0
   28.5848   41.7064   16.8034 C   0  0  0  0  0  0  0  0  0  0  0  0
   28.2489   36.9884   16.3120 C   0  0  0  0  0  0  0  0  0  0  0  0
   26.6438   37.5546   16.5915 S   0  0  0  0  0  0  0  0  0  0  0  0
   25.9732   36.1563   15.9544 C   0  0  0  0  0  0  0  0  0  0  0  0
   26.9100   35.3131   15.5023 C   0  0  0  0  0  0  0  0  0  0  0  0
   28.2262   35.7713   15.7065 C   0  0  0  0  0  0  0  0  0  0  0  0
   27.2195   41.8868   20.8897 C   0  0  0  0  0  0  0  0  0  0  0  0
   27.7424   42.6828   22.0645 C   0  0  0  0  0  0  0  0  0  0  0  0
   29.0879   43.0044   22.1699 C   0  0  0  0  0  0  0  0  0  0  0  0
   29.6905   43.3814   23.3121 N   0  0  0  0  0  0  0  0  0  0  0  0
   28.8938   43.3876   24.3703 C   0  0  0  0  0  0  0  0  0  0  0  0
   27.6108   43.0697   24.4356 N   0  0  0  0  0  0  0  0  0  0  0  0
   27.0673   42.6964   23.2676 C   0  0  0  0  0  0  0  0  0  0  0  0
   29.4987   43.7544   25.5059 O   0  0  0  0  0  0  0  0  0  0  0  0
   30.5245   42.8946   26.0159 C   0  0  0  0  0  0  0  0  0  0  0  0
  1  2  2  0  0  0  0
  1  6  1  0  0  0  0
  2  3  1  0  0  0  0
  3  4  2  0  0  0  0
  4 14  1  0  0  0  0
  5  4  1  0  0  0  0
  6  5  1  0  0  0  0
  7  6  2  0  0  0  0
  8  9  1  0  0  0  0
  8  2  1  6  0  0  0
 10 19  1  0  0  0  0
 10  9  1  0  0  0  0
 11 10  1  0  0  0  0
 12 11  1  0  0  0  0
 12 13  1  0  0  0  0
 13  8  1  0  0  0  0
 14 15  1  0  0  0  0
 14 18  2  0  0  0  0
 15 16  1  0  0  0  0
 16 17  2  0  0  0  0
 18 17  1  0  0  0  0
 19 20  1  0  0  0  0
 20 25  2  0  0  0  0
 20 21  1  0  0  0  0
 21 22  2  0  0  0  0
 22 23  1  0  0  0  0
 23 26  1  0  0  0  0
 24 23  2  0  0  0  0
 25 24  1  0  0  0  0
 26 27  1  0  0  0  0
M  END
>  <CHROM.1>
-5.85655042,-117.85545606,109.01230006,-33.18432958,-65.40813150,28.73874896
40.28000724,19.23231734,-1.59727716,-0.09278974,0.91060202

>  <Name>
lig.pdb

>  <RI>
0

>  <Rbt.Current_Directory>
/home/itssahil/PROJECTS/Mol_Feturizer/New_Systems/rnas/5kx9

>  <Rbt.Executable>
rbdock ($Id: //depot/dev/client3/rdock/2013.1/src/exe/rbdock.cxx#4 $)

>  <Rbt.Library>
libRbt.so (2013.1, Build901 2013/11/27)

>  <Rbt.Parameter_File>
/export/apps/rDock/src/rDock_2013.1_src/data/scripts/dock_solv.prm

>  <Rbt.Receptor>
prm/blind_docking_100.prm

>  <SCORE>
-23.7727

>  <SCORE.INTER>
-20.4151

>  <SCORE.INTER.CONST>
1

>  <SCORE.INTER.POLAR>
0

>  <SCORE.INTER.ROT>
5

>  <SCORE.INTER.SOLV>
13.7218

>  <SCORE.INTER.VDW>
-25.1174

>  <SCORE.INTER.norm>
-0.756116

>  <SCORE.INTRA>
-3.35751

>  <SCORE.INTRA.DIHEDRAL>
5.90201

>  <SCORE.INTRA.DIHEDRAL.0>
2.68224

>  <SCORE.INTRA.POLAR>
0

>  <SCORE.INTRA.POLAR.0>
0

>  <SCORE.INTRA.REPUL>
0

>  <SCORE.INTRA.REPUL.0>
0

>  <SCORE.INTRA.SOLV>
-0.557098

>  <SCORE.INTRA.SOLV.lig_0>
-19.4148

>  <SCORE.INTRA.VDW>
-6.02997

>  <SCORE.INTRA.VDW.0>
5.42093

>  <SCORE.INTRA.norm>
-0.124352

>  <SCORE.RESTR>
0

>  <SCORE.RESTR.CAVITY>
0

>  <SCORE.RESTR.norm>
0

>  <SCORE.SYSTEM>
0

>  <SCORE.SYSTEM.CONST>
0

>  <SCORE.SYSTEM.DIHEDRAL>
0

>  <SCORE.SYSTEM.SOLV>
0

>  <SCORE.SYSTEM.norm>
0

>  <SCORE.heavy>
27

>  <SCORE.norm>
-0.880469

>  <RMSD>
5.270

$$$$
lig.pdb
 OpenBabel11021811523D
libRbt.so/2013.1/901 2013/11/27
 27 30  0  0  0  0  0  0  0  0999 V2000
   26.8489   36.3143   23.3397 N   0  0  0  0  0  0  0  0  0  0  0  0
   27.5676   36.7672   22.3424 C   0  0  0  0  0  0  0  0  0  0  0  0
   28.0507   38.0314   22.2458 N   0  0  0  0  0  0  0  0  0  0  0  0
   27.8226   38.8994   23.2763 C   0  0  0  0  0  0  0  0  0  0  0  0
   27.1066   38.5038   24.3695 C   0  0  0  0  0  0  0  0  0  0  0  0
   26.5757   37.1621   24.4123 C   0  0  0  0  0  0  0  0  0  0  0  0
   25.8740   36.7481   25.3435 O   0  0  0  0  0  0  0  0  0  0  0  0
   27.8018   35.9564   21.0488 C   0  0  2  0  0  0  0  0  0  0  0  0
   26.9445   36.7249   20.0300 C   0  0  0  0  0  0  0  0  0  0  0  0
   26.8137   35.9926   18.7691 N   0  0  0  0  0  0  0  0  0  0  0  0
   26.1222   34.7183   19.0228 C   0  0  0  0  0  0  0  0  0  0  0  0
   26.9380   33.8377   19.9486 C   0  0  0  0  0  0  0  0  0  0  0  0
   27.2244   34.5472   21.2647 C   0  0  0  0  0  0  0  0  0  0  0  0
   28.4352   40.2021   23.0532 C   0  0  0  0  0  0  0  0  0  0  0  0
   29.4682   40.4942   21.7031 S   0  0  0  0  0  0  0  0  0  0  0  0
   29.7397   42.0799   22.1751 C   0  0  0  0  0  0  0  0  0  0  0  0
   29.0468   42.4002   23.2752 C   0  0  0  0  0  0  0  0  0  0  0  0
   28.2962   41.3299   23.7996 C   0  0  0  0  0  0  0  0  0  0  0  0
   26.0907   36.7742   17.7505 C   0  0  0  0  0  0  0  0  0  0  0  0
   26.4629   38.2374   17.6613 C   0  0  0  0  0  0  0  0  0  0  0  0
   25.9518   39.1626   18.5599 C   0  0  0  0  0  0  0  0  0  0  0  0
   25.9351   40.4918   18.3531 N   0  0  0  0  0  0  0  0  0  0  0  0
   26.4209   40.8650   17.1787 C   0  0  0  0  0  0  0  0  0  0  0  0
   26.9024   40.1043   16.2086 N   0  0  0  0  0  0  0  0  0  0  0  0
   26.8875   38.7889   16.4701 C   0  0  0  0  0  0  0  0  0  0  0  0
   26.3944   42.1867   16.9730 O   0  0  0  0  0  0  0  0  0  0  0  0
   25.1287   42.8479   17.0849 C   0  0  0  0  0  0  0  0  0  0  0  0
  1  2  2  0  0  0  0
  1  6  1  0  0  0  0
  2  3  1  0  0  0  0
  3  4  2  0  0  0  0
  4 14  1  0  0  0  0
  5  4  1  0  0  0  0
  6  5  1  0  0  0  0
  7  6  2  0  0  0  0
  8  9  1  0  0  0  0
  8  2  1  1  0  0  0
 10 19  1  0  0  0  0
 10  9  1  0  0  0  0
 11 10  1  0  0  0  0
 12 11  1  0  0  0  0
 12 13  1  0  0  0  0
 13  8  1  0  0  0  0
 14 15  1  0  0  0  0
 14 18  2  0  0  0  0
 15 16  1  0  0  0  0
 16 17  2  0  0  0  0
 18 17  1  0  0  0  0
 19 20  1  0  0  0  0
 20 25  2  0  0  0  0
 20 21  1  0  0  0  0
 21 22  2  0  0  0  0
 22 23  1  0  0  0  0
 23 26  1  0  0  0  0
 24 23  2  0  0  0  0
 25 24  1  0  0  0  0
 26 27  1  0  0  0  0
M  END
>  <CHROM.1>
-6.33585225,108.33436602,42.41923266,-79.78176716,-56.14980981,27.22133944
38.61082437,20.60154589,1.05740852,1.25517790,2.50724920

>  <Name>
lig.pdb

>  <RI>
0

>  <Rbt.Current_Directory>
/home/itssahil/PROJECTS/Mol_Feturizer/New_Systems/rnas/5kx9

>  <Rbt.Executable>
rbdock ($Id: //depot/dev/client3/rdock/2013.1/src/exe/rbdock.cxx#4 $)

>  <Rbt.Library>
libRbt.so (2013.1, Build901 2013/11/27)

>  <Rbt.Parameter_File>
/export/apps/rDock/src/rDock_2013.1_src/data/scripts/dock_solv.prm

>  <Rbt.Receptor>
prm/pocket_docking_7.prm

>  <SCORE>
-35.2732

>  <SCORE.INTER>
-32.2609

>  <SCORE.INTER.CONST>
1

>  <SCORE.INTER.POLAR>
0

>  <SCORE.INTER.ROT>
5

>  <SCORE.INTER.SOLV>
15.4365

>  <SCORE.INTER.VDW>
-33.5861

>  <SCORE.INTER.norm>
-1.19485

>  <SCORE.INTRA>
-3.01235

>  <SCORE.INTRA.DIHEDRAL>
2.78601

>  <SCORE.INTRA.DIHEDRAL.0>
2.68224

>  <SCORE.INTRA.POLAR>
0

>  <SCORE.INTRA.POLAR.0>
0

>  <SCORE.INTRA.REPUL>
0

>  <SCORE.INTRA.REPUL.0>
0

>  <SCORE.INTRA.SOLV>
-0.518872

>  <SCORE.INTRA.SOLV.lig_0>
-19.4148

>  <SCORE.INTRA.VDW>
-4.14592

>  <SCORE.INTRA.VDW.0>
5.42093

>  <SCORE.INTRA.norm>
-0.111569

>  <SCORE.RESTR>
0

>  <SCORE.RESTR.CAVITY>
0

>  <SCORE.RESTR.norm>
0

>  <SCORE.SYSTEM>
0

>  <SCORE.SYSTEM.CONST>
0

>  <SCORE.SYSTEM.DIHEDRAL>
0

>  <SCORE.SYSTEM.SOLV>
0

>  <SCORE.SYSTEM.norm>
0

>  <SCORE.heavy>
27

>  <SCORE.norm>
-1.30642

>  <RMSD>
5.270

$$$$
lig.pdb
 OpenBabel11021811523D
libRbt.so/2013.1/901 2013/11/27
 27 30  0  0  0  0  0  0  0  0999 V2000
   26.8251   36.1912   23.1788 N   0  0  0  0  0  0  0  0  0  0  0  0
   27.5804   36.5952   22.1876 C   0  0  0  0  0  0  0  0  0  0  0  0
   28.1093   37.8394   22.0727 N   0  0  0  0  0  0  0  0  0  0  0  0
   27.8897   38.7389   23.0776 C   0  0  0  0  0  0  0  0  0  0  0  0
   27.1370   38.3943   24.1635 C   0  0  0  0  0  0  0  0  0  0  0  0
   26.5587   37.0732   24.2253 C   0  0  0  0  0  0  0  0  0  0  0  0
   25.8232   36.7058   25.1499 O   0  0  0  0  0  0  0  0  0  0  0  0
   27.8137   35.7464   20.9185 C   0  0  2  0  0  0  0  0  0  0  0  0
   27.0698   36.5608   19.8476 C   0  0  0  0  0  0  0  0  0  0  0  0
   26.9442   35.8188   18.5918 N   0  0  0  0  0  0  0  0  0  0  0  0
   26.1440   34.6063   18.8278 C   0  0  0  0  0  0  0  0  0  0  0  0
   26.8423   33.6816   19.8053 C   0  0  0  0  0  0  0  0  0  0  0  0
   27.1184   34.3898   21.1243 C   0  0  0  0  0  0  0  0  0  0  0  0
   28.5522   40.0141   22.8383 C   0  0  0  0  0  0  0  0  0  0  0  0
   28.5068   41.2869   24.0015 S   0  0  0  0  0  0  0  0  0  0  0  0
   29.4008   42.3049   23.0140 C   0  0  0  0  0  0  0  0  0  0  0  0
   29.7650   41.7036   21.8743 C   0  0  0  0  0  0  0  0  0  0  0  0
   29.2792   40.3872   21.7517 C   0  0  0  0  0  0  0  0  0  0  0  0
   26.3351   36.6360   17.5277 C   0  0  0  0  0  0  0  0  0  0  0  0
   27.1305   37.8476   17.0956 C   0  0  0  0  0  0  0  0  0  0  0  0
   28.5147   37.8042   17.0148 C   0  0  0  0  0  0  0  0  0  0  0  0
   29.3077   38.8908   16.9918 N   0  0  0  0  0  0  0  0  0  0  0  0
   28.6573   40.0402   17.0934 C   0  0  0  0  0  0  0  0  0  0  0  0
   27.3549   40.2400   17.2173 N   0  0  0  0  0  0  0  0  0  0  0  0
   26.6173   39.1201   17.2402 C   0  0  0  0  0  0  0  0  0  0  0  0
   29.4499   41.1180   17.0791 O   0  0  0  0  0  0  0  0  0  0  0  0
   29.7922   41.6700   15.8024 C   0  0  0  0  0  0  0  0  0  0  0  0
  1  2  2  0  0  0  0
  1  6  1  0  0  0  0
  2  3  1  0  0  0  0
  3  4  2  0  0  0  0
  4 14  1  0  0  0  0
  5  4  1  0  0  0  0
  6  5  1  0  0  0  0
  7  6  2  0  0  0  0
  8  9  1  0  0  0  0
  8  2  1  1  0  0  0
 10 19  1  0  0  0  0
 10  9  1  0  0  0  0
 11 10  1  0  0  0  0
 12 11  1  0  0  0  0
 12 13  1  0  0  0  0
 13  8  1  0  0  0  0
 14 15  1  0  0  0  0
 14 18  2  0  0  0  0
 15 16  1  0  0  0  0
 16 17  2  0  0  0  0
 18 17  1  0  0  0  0
 19 20  1  0  0  0  0
 20 25  2  0  0  0  0
 20 21  1  0  0  0  0
 21 22  2  0  0  0  0
 22 23  1  0  0  0  0
 23 26  1  0  0  0  0
 24 23  2  0  0  0  0
 25 24  1  0  0  0  0
 26 27  1  0  0  0  0
M  END
>  <CHROM.1>
-176.38688504,111.29659792,63.88145863,37.60834461,87.22229878,27.82406849
38.33539789,20.50496824,1.85337933,1.18493203,1.41211341

>  <Name>
lig.pdb

>  <RI>
0

>  <Rbt.Current_Directory>
/home/itssahil/PROJECTS/Mol_Feturizer/New_Systems/rnas/5kx9

>  <Rbt.Executable>
rbdock ($Id: //depot/dev/client3/rdock/2013.1/src/exe/rbdock.cxx#4 $)

>  <Rbt.Library>
libRbt.so (2013.1, Build901 2013/11/27)

>  <Rbt.Parameter_File>
/export/apps/rDock/src/rDock_2013.1_src/data/scripts/dock_solv.prm

>  <Rbt.Receptor>
prm/pocket_docking_6.prm

>  <SCORE>
-35.2736

>  <SCORE.INTER>
-30.9916

>  <SCORE.INTER.CONST>
1

>  <SCORE.INTER.POLAR>
0

>  <SCORE.INTER.ROT>
5

>  <SCORE.INTER.SOLV>
13.6212

>  <SCORE.INTER.VDW>
-32.1348

>  <SCORE.INTER.norm>
-1.14784

>  <SCORE.INTRA>
-4.28196

>  <SCORE.INTRA.DIHEDRAL>
3.65668

>  <SCORE.INTRA.DIHEDRAL.0>
2.68224

>  <SCORE.INTRA.POLAR>
0

>  <SCORE.INTRA.POLAR.0>
0

>  <SCORE.INTRA.REPUL>
0

>  <SCORE.INTRA.REPUL.0>
0

>  <SCORE.INTRA.SOLV>
-0.458092

>  <SCORE.INTRA.SOLV.lig_0>
-19.4148

>  <SCORE.INTRA.VDW>
-5.88125

>  <SCORE.INTRA.VDW.0>
5.42093

>  <SCORE.INTRA.norm>
-0.158591

>  <SCORE.RESTR>
0

>  <SCORE.RESTR.CAVITY>
0

>  <SCORE.RESTR.norm>
0

>  <SCORE.SYSTEM>
0

>  <SCORE.SYSTEM.CONST>
0

>  <SCORE.SYSTEM.DIHEDRAL>
0

>  <SCORE.SYSTEM.SOLV>
0

>  <SCORE.SYSTEM.norm>
0

>  <SCORE.heavy>
27

>  <SCORE.norm>
-1.30643

>  <RMSD>
5.311

$$$$
lig.pdb
 OpenBabel11021811523D
libRbt.so/2013.1/901 2013/11/27
 27 30  0  0  0  0  0  0  0  0999 V2000
   26.7557   36.4321   23.5809 N   0  0  0  0  0  0  0  0  0  0  0  0
   27.5188   36.8697   22.6101 C   0  0  0  0  0  0  0  0  0  0  0  0
   27.9928   38.1368   22.5072 N   0  0  0  0  0  0  0  0  0  0  0  0
   27.7045   39.0261   23.5038 C   0  0  0  0  0  0  0  0  0  0  0  0
   26.9386   38.6481   24.5692 C   0  0  0  0  0  0  0  0  0  0  0  0
   26.4202   37.3018   24.6178 C   0  0  0  0  0  0  0  0  0  0  0  0
   25.6771   36.9017   25.5226 O   0  0  0  0  0  0  0  0  0  0  0  0
   27.8259   36.0314   21.3496 C   0  0  2  0  0  0  0  0  0  0  0  0
   27.1092   36.8323   20.2503 C   0  0  0  0  0  0  0  0  0  0  0  0
   27.0548   36.0924   18.9882 N   0  0  0  0  0  0  0  0  0  0  0  0
   26.2740   34.8606   19.1864 C   0  0  0  0  0  0  0  0  0  0  0  0
   26.9518   33.9488   20.1901 C   0  0  0  0  0  0  0  0  0  0  0  0
   27.1546   34.6582   21.5218 C   0  0  0  0  0  0  0  0  0  0  0  0
   28.3139   40.3302   23.2801 C   0  0  0  0  0  0  0  0  0  0  0  0
   28.1115   41.6251   24.4015 S   0  0  0  0  0  0  0  0  0  0  0  0
   29.0226   42.6681   23.4565 C   0  0  0  0  0  0  0  0  0  0  0  0
   29.5045   42.0618   22.3642 C   0  0  0  0  0  0  0  0  0  0  0  0
   29.1008   40.7179   22.2414 C   0  0  0  0  0  0  0  0  0  0  0  0
   26.4724   36.8992   17.9014 C   0  0  0  0  0  0  0  0  0  0  0  0
   27.0138   38.3050   17.7665 C   0  0  0  0  0  0  0  0  0  0  0  0
   26.2608   39.4030   18.1562 C   0  0  0  0  0  0  0  0  0  0  0  0
   26.4979   40.6657   17.7569 N   0  0  0  0  0  0  0  0  0  0  0  0
   27.5083   40.7867   16.9089 C   0  0  0  0  0  0  0  0  0  0  0  0
   28.2873   39.8366   16.4171 N   0  0  0  0  0  0  0  0  0  0  0  0
   27.9991   38.5992   16.8466 C   0  0  0  0  0  0  0  0  0  0  0  0
   27.7352   42.0425   16.5072 O   0  0  0  0  0  0  0  0  0  0  0  0
   26.6680   42.7261   15.8399 C   0  0  0  0  0  0  0  0  0  0  0  0
  1  2  2  0  0  0  0
  1  6  1  0  0  0  0
  2  3  1  0  0  0  0
  3  4  2  0  0  0  0
  4 14  1  0  0  0  0
  5  4  1  0  0  0  0
  6  5  1  0  0  0  0
  7  6  2  0  0  0  0
  8  9  1  0  0  0  0
  8  2  1  1  0  0  0
 10 19  1  0  0  0  0
 10  9  1  0  0  0  0
 11 10  1  0  0  0  0
 12 11  1  0  0  0  0
 12 13  1  0  0  0  0
 13  8  1  0  0  0  0
 14 15  1  0  0  0  0
 14 18  2  0  0  0  0
 15 16  1  0  0  0  0
 16 17  2  0  0  0  0
 18 17  1  0  0  0  0
 19 20  1  0  0  0  0
 20 25  2  0  0  0  0
 20 21  1  0  0  0  0
 21 22  2  0  0  0  0
 22 23  1  0  0  0  0
 23 26  1  0  0  0  0
 24 23  2  0  0  0  0
 25 24  1  0  0  0  0
 26 27  1  0  0  0  0
M  END
>  <CHROM.1>
-179.50701914,112.87141106,47.19197659,-106.33055784,-59.22855548,27.41274615
38.74368443,20.81654369,1.51726873,1.34942609,1.85914343

>  <Name>
lig.pdb

>  <RI>
0

>  <Rbt.Current_Directory>
/home/itssahil/PROJECTS/Mol_Feturizer/New_Systems/rnas/5kx9

>  <Rbt.Executable>
rbdock ($Id: //depot/dev/client3/rdock/2013.1/src/exe/rbdock.cxx#4 $)

>  <Rbt.Library>
libRbt.so (2013.1, Build901 2013/11/27)

>  <Rbt.Parameter_File>
/export/apps/rDock/src/rDock_2013.1_src/data/scripts/dock_solv.prm

>  <Rbt.Receptor>
prm/blind_docking_100.prm

>  <SCORE>
-33.7377

>  <SCORE.INTER>
-30.0593

>  <SCORE.INTER.CONST>
1

>  <SCORE.INTER.POLAR>
0

>  <SCORE.INTER.ROT>
5

>  <SCORE.INTER.SOLV>
13.6533

>  <SCORE.INTER.VDW>
-31.524

>  <SCORE.INTER.norm>
-1.11331

>  <SCORE.INTRA>
-3.67837

>  <SCORE.INTRA.DIHEDRAL>
2.42795

>  <SCORE.INTRA.DIHEDRAL.0>
2.68224

>  <SCORE.INTRA.POLAR>
0

>  <SCORE.INTRA.POLAR.0>
0

>  <SCORE.INTRA.REPUL>
0

>  <SCORE.INTRA.REPUL.0>
0

>  <SCORE.INTRA.SOLV>
-0.633219

>  <SCORE.INTRA.SOLV.lig_0>
-19.4148

>  <SCORE.INTRA.VDW>
-4.57574

>  <SCORE.INTRA.VDW.0>
5.42093

>  <SCORE.INTRA.norm>
-0.136236

>  <SCORE.RESTR>
0

>  <SCORE.RESTR.CAVITY>
0

>  <SCORE.RESTR.norm>
0

>  <SCORE.SYSTEM>
0

>  <SCORE.SYSTEM.CONST>
0

>  <SCORE.SYSTEM.DIHEDRAL>
0

>  <SCORE.SYSTEM.SOLV>
0

>  <SCORE.SYSTEM.norm>
0

>  <SCORE.heavy>
27

>  <SCORE.norm>
-1.24954

>  <RMSD>
5.317

$$$$
lig.pdb
 OpenBabel11021811523D
libRbt.so/2013.1/901 2013/11/27
 27 30  0  0  0  0  0  0  0  0999 V2000
   28.0354   41.3361   23.5633 N   0  0  0  0  0  0  0  0  0  0  0  0
   27.9436   40.6792   22.4336 C   0  0  0  0  0  0  0  0  0  0  0  0
   27.6712   39.3543   22.3266 N   0  0  0  0  0  0  0  0  0  0  0  0
   27.4239   38.6432   23.4669 C   0  0  0  0  0  0  0  0  0  0  0  0
   27.4702   39.2534   24.6876 C   0  0  0  0  0  0  0  0  0  0  0  0
   27.8048   40.6558   24.7584 C   0  0  0  0  0  0  0  0  0  0  0  0
   27.9176   41.2650   25.8294 O   0  0  0  0  0  0  0  0  0  0  0  0
   28.3206   41.3055   21.0729 C   0  0  2  0  0  0  0  0  0  0  0  0
   26.9849   41.2492   20.3137 C   0  0  0  0  0  0  0  0  0  0  0  0
   27.1534   41.5696   18.8952 N   0  0  0  0  0  0  0  0  0  0  0  0
   28.0305   40.5630   18.2759 C   0  0  0  0  0  0  0  0  0  0  0  0
   29.4149   40.6021   18.8926 C   0  0  0  0  0  0  0  0  0  0  0  0
   29.3483   40.3816   20.3975 C   0  0  0  0  0  0  0  0  0  0  0  0
   27.1052   37.2480   23.1951 C   0  0  0  0  0  0  0  0  0  0  0  0
   27.4627   36.5207   21.6725 S   0  0  0  0  0  0  0  0  0  0  0  0
   26.8052   35.0539   22.1488 C   0  0  0  0  0  0  0  0  0  0  0  0
   26.3761   35.0860   23.4168 C   0  0  0  0  0  0  0  0  0  0  0  0
   26.5332   36.3428   24.0330 C   0  0  0  0  0  0  0  0  0  0  0  0
   25.8626   41.6300   18.1871 C   0  0  0  0  0  0  0  0  0  0  0  0
   24.9918   42.8229   18.5128 C   0  0  0  0  0  0  0  0  0  0  0  0
   23.8908   42.6993   19.3478 C   0  0  0  0  0  0  0  0  0  0  0  0
   22.8813   43.5865   19.4083 N   0  0  0  0  0  0  0  0  0  0  0  0
   22.9959   44.5985   18.5614 C   0  0  0  0  0  0  0  0  0  0  0  0
   23.9576   44.8303   17.6823 N   0  0  0  0  0  0  0  0  0  0  0  0
   24.9323   43.9091   17.6642 C   0  0  0  0  0  0  0  0  0  0  0  0
   21.9856   45.4739   18.6182 O   0  0  0  0  0  0  0  0  0  0  0  0
   21.8482   46.2477   19.8157 C   0  0  0  0  0  0  0  0  0  0  0  0
  1  2  2  0  0  0  0
  1  6  1  0  0  0  0
  2  3  1  0  0  0  0
  3  4  2  0  0  0  0
  4 14  1  0  0  0  0
  5  4  1  0  0  0  0
  6  5  1  0  0  0  0
  7  6  2  0  0  0  0
  8  9  1  0  0  0  0
  8  2  1  1  0  0  0
 10 19  1  0  0  0  0
 10  9  1  0  0  0  0
 11 10  1  0  0  0  0
 12 11  1  0  0  0  0
 12 13  1  0  0  0  0
 13  8  1  0  0  0  0
 14 15  1  0  0  0  0
 14 18  2  0  0  0  0
 15 16  1  0  0  0  0
 16 17  2  0  0  0  0
 18 17  1  0  0  0  0
 19 20  1  0  0  0  0
 20 25  2  0  0  0  0
 20 21  1  0  0  0  0
 21 22  2  0  0  0  0
 22 23  1  0  0  0  0
 23 26  1  0  0  0  0
 24 23  2  0  0  0  0
 25 24  1  0  0  0  0
 26 27  1  0  0  0  0
M  END
>  <CHROM.1>
16.56688851,-118.48603529,71.57272293,-103.37833901,66.88446401,26.36754986
40.71515064,21.01743685,0.58346758,-1.02515127,1.64242158

>  <Name>
lig.pdb

>  <RI>
0

>  <Rbt.Current_Directory>
/home/itssahil/PROJECTS/Mol_Feturizer/New_Systems/rnas/5kx9

>  <Rbt.Executable>
rbdock ($Id: //depot/dev/client3/rdock/2013.1/src/exe/rbdock.cxx#4 $)

>  <Rbt.Library>
libRbt.so (2013.1, Build901 2013/11/27)

>  <Rbt.Parameter_File>
/export/apps/rDock/src/rDock_2013.1_src/data/scripts/dock_solv.prm

>  <Rbt.Receptor>
prm/blind_docking_100.prm

>  <SCORE>
-35.8863

>  <SCORE.INTER>
-31.4655

>  <SCORE.INTER.CONST>
1

>  <SCORE.INTER.POLAR>
0

>  <SCORE.INTER.ROT>
5

>  <SCORE.INTER.SOLV>
15.0806

>  <SCORE.INTER.VDW>
-32.9372

>  <SCORE.INTER.norm>
-1.16539

>  <SCORE.INTRA>
-4.42075

>  <SCORE.INTRA.DIHEDRAL>
3.81784

>  <SCORE.INTRA.DIHEDRAL.0>
2.68224

>  <SCORE.INTRA.POLAR>
0

>  <SCORE.INTRA.POLAR.0>
0

>  <SCORE.INTRA.REPUL>
0

>  <SCORE.INTRA.REPUL.0>
0

>  <SCORE.INTRA.SOLV>
-0.609319

>  <SCORE.INTRA.SOLV.lig_0>
-19.4148

>  <SCORE.INTRA.VDW>
-6.02501

>  <SCORE.INTRA.VDW.0>
5.42093

>  <SCORE.INTRA.norm>
-0.163732

>  <SCORE.RESTR>
0

>  <SCORE.RESTR.CAVITY>
0

>  <SCORE.RESTR.norm>
0

>  <SCORE.SYSTEM>
0

>  <SCORE.SYSTEM.CONST>
0

>  <SCORE.SYSTEM.DIHEDRAL>
0

>  <SCORE.SYSTEM.SOLV>
0

>  <SCORE.SYSTEM.norm>
0

>  <SCORE.heavy>
27

>  <SCORE.norm>
-1.32912

>  <RMSD>
5.354

$$$$
lig.pdb
 OpenBabel11021811523D
libRbt.so/2013.1/901 2013/11/27
 27 30  0  0  0  0  0  0  0  0999 V2000
   27.0329   38.7703   24.6984 N   0  0  0  0  0  0  0  0  0  0  0  0
   27.5508   38.8689   23.4991 C   0  0  0  0  0  0  0  0  0  0  0  0
   27.6564   37.8464   22.6135 N   0  0  0  0  0  0  0  0  0  0  0  0
   27.1480   36.6261   22.9594 C   0  0  0  0  0  0  0  0  0  0  0  0
   26.5643   36.4396   24.1796 C   0  0  0  0  0  0  0  0  0  0  0  0
   26.5105   37.5440   25.1075 C   0  0  0  0  0  0  0  0  0  0  0  0
   26.0455   37.4384   26.2492 O   0  0  0  0  0  0  0  0  0  0  0  0
   28.2814   40.1384   23.0091 C   0  0  2  0  0  0  0  0  0  0  0  0
   28.4835   40.9171   24.3192 C   0  0  0  0  0  0  0  0  0  0  0  0
   28.9459   42.2839   24.0719 N   0  0  0  0  0  0  0  0  0  0  0  0
   27.9176   43.0084   23.3077 C   0  0  0  0  0  0  0  0  0  0  0  0
   27.7095   42.3725   21.9474 C   0  0  0  0  0  0  0  0  0  0  0  0
   27.3225   40.9065   22.0837 C   0  0  0  0  0  0  0  0  0  0  0  0
   27.2939   35.6404   21.8968 C   0  0  0  0  0  0  0  0  0  0  0  0
   27.8238   36.0877   20.3175 S   0  0  0  0  0  0  0  0  0  0  0  0
   27.6952   34.5116   19.7605 C   0  0  0  0  0  0  0  0  0  0  0  0
   27.3170   33.6679   20.7291 C   0  0  0  0  0  0  0  0  0  0  0  0
   27.0737   34.3004   21.9639 C   0  0  0  0  0  0  0  0  0  0  0  0
   29.2512   42.9973   25.3246 C   0  0  0  0  0  0  0  0  0  0  0  0
   30.4844   42.5266   26.0628 C   0  0  0  0  0  0  0  0  0  0  0  0
   30.3906   41.6204   27.1091 C   0  0  0  0  0  0  0  0  0  0  0  0
   31.3510   41.4236   28.0305 N   0  0  0  0  0  0  0  0  0  0  0  0
   32.4098   42.2065   27.8874 C   0  0  0  0  0  0  0  0  0  0  0  0
   32.6258   43.1386   26.9731 N   0  0  0  0  0  0  0  0  0  0  0  0
   31.6314   43.2929   26.0864 C   0  0  0  0  0  0  0  0  0  0  0  0
   33.3587   42.0140   28.8108 O   0  0  0  0  0  0  0  0  0  0  0  0
   34.2779   40.9361   28.5991 C   0  0  0  0  0  0  0  0  0  0  0  0
  1  2  2  0  0  0  0
  1  6  1  0  0  0  0
  2  3  1  0  0  0  0
  3  4  2  0  0  0  0
  4 14  1  0  0  0  0
  5  4  1  0  0  0  0
  6  5  1  0  0  0  0
  7  6  2  0  0  0  0
  8  9  1  0  0  0  0
  8  2  1  1  0  0  0
 10 19  1  0  0  0  0
 10  9  1  0  0  0  0
 11 10  1  0  0  0  0
 12 11  1  0  0  0  0
 12 13  1  0  0  0  0
 13  8  1  0  0  0  0
 14 15  1  0  0  0  0
 14 18  2  0  0  0  0
 15 16  1  0  0  0  0
 16 17  2  0  0  0  0
 18 17  1  0  0  0  0
 19 20  1  0  0  0  0
 20 25  2  0  0  0  0
 20 21  1  0  0  0  0
 21 22  2  0  0  0  0
 22 23  1  0  0  0  0
 23 26  1  0  0  0  0
 24 23  2  0  0  0  0
 25 24  1  0  0  0  0
 26 27  1  0  0  0  0
M  END
>  <CHROM.1>
-9.02457773,13.09138871,70.61580700,-96.49411482,82.63214120,28.87943073
39.42654898,24.22206027,-2.44270230,-0.90372428,-0.04482886

>  <Name>
lig.pdb

>  <RI>
0

>  <Rbt.Current_Directory>
/home/itssahil/PROJECTS/Mol_Feturizer/New_Systems/rnas/5kx9

>  <Rbt.Executable>
rbdock ($Id: //depot/dev/client3/rdock/2013.1/src/exe/rbdock.cxx#4 $)

>  <Rbt.Library>
libRbt.so (2013.1, Build901 2013/11/27)

>  <Rbt.Parameter_File>
/export/apps/rDock/src/rDock_2013.1_src/data/scripts/dock_solv.prm

>  <Rbt.Receptor>
prm/pocket_docking_7.prm

>  <SCORE>
-43.3649

>  <SCORE.INTER>
-39.7

>  <SCORE.INTER.CONST>
1

>  <SCORE.INTER.POLAR>
0

>  <SCORE.INTER.ROT>
5

>  <SCORE.INTER.SOLV>
17.634

>  <SCORE.INTER.VDW>
-39.278

>  <SCORE.INTER.norm>
-1.47037

>  <SCORE.INTRA>
-3.66486

>  <SCORE.INTRA.DIHEDRAL>
4.09629

>  <SCORE.INTRA.DIHEDRAL.0>
2.68224

>  <SCORE.INTRA.POLAR>
0

>  <SCORE.INTRA.POLAR.0>
0

>  <SCORE.INTRA.REPUL>
0

>  <SCORE.INTRA.REPUL.0>
0

>  <SCORE.INTRA.SOLV>
-0.623721

>  <SCORE.INTRA.SOLV.lig_0>
-19.4148

>  <SCORE.INTRA.VDW>
-5.40115

>  <SCORE.INTRA.VDW.0>
5.42093

>  <SCORE.INTRA.norm>
-0.135736

>  <SCORE.RESTR>
0

>  <SCORE.RESTR.CAVITY>
0

>  <SCORE.RESTR.norm>
0

>  <SCORE.SYSTEM>
0

>  <SCORE.SYSTEM.CONST>
0

>  <SCORE.SYSTEM.DIHEDRAL>
0

>  <SCORE.SYSTEM.SOLV>
0

>  <SCORE.SYSTEM.norm>
0

>  <SCORE.heavy>
27

>  <SCORE.norm>
-1.60611

>  <RMSD>
5.358

$$$$
lig.pdb
 OpenBabel11021811523D
libRbt.so/2013.1/901 2013/11/27
 27 30  0  0  0  0  0  0  0  0999 V2000
   26.8282   36.2187   23.2265 N   0  0  0  0  0  0  0  0  0  0  0  0
   27.5758   36.6287   22.2320 C   0  0  0  0  0  0  0  0  0  0  0  0
   28.0853   37.8803   22.1094 N   0  0  0  0  0  0  0  0  0  0  0  0
   27.8531   38.7820   23.1095 C   0  0  0  0  0  0  0  0  0  0  0  0
   27.1072   38.4319   24.1983 C   0  0  0  0  0  0  0  0  0  0  0  0
   26.5495   37.1023   24.2684 C   0  0  0  0  0  0  0  0  0  0  0  0
   25.8210   36.7289   25.1961 O   0  0  0  0  0  0  0  0  0  0  0  0
   27.8207   35.7764   20.9674 C   0  0  2  0  0  0  0  0  0  0  0  0
   27.1409   36.6199   19.8766 C   0  0  0  0  0  0  0  0  0  0  0  0
   27.0305   35.8869   18.6141 N   0  0  0  0  0  0  0  0  0  0  0  0
   26.1812   34.7024   18.8186 C   0  0  0  0  0  0  0  0  0  0  0  0
   26.8147   33.7506   19.8141 C   0  0  0  0  0  0  0  0  0  0  0  0
   27.0722   34.4444   21.1446 C   0  0  0  0  0  0  0  0  0  0  0  0
   28.4954   40.0659   22.8621 C   0  0  0  0  0  0  0  0  0  0  0  0
   29.4067   40.3572   21.4269 S   0  0  0  0  0  0  0  0  0  0  0  0
   29.7875   41.9165   21.9112 C   0  0  0  0  0  0  0  0  0  0  0  0
   29.2161   42.2309   23.0806 C   0  0  0  0  0  0  0  0  0  0  0  0
   28.4748   41.1757   23.6471 C   0  0  0  0  0  0  0  0  0  0  0  0
   26.4852   36.7284   17.5344 C   0  0  0  0  0  0  0  0  0  0  0  0
   27.3938   37.8327   17.0421 C   0  0  0  0  0  0  0  0  0  0  0  0
   28.7727   37.7293   17.1542 C   0  0  0  0  0  0  0  0  0  0  0  0
   29.6201   38.7716   17.0807 N   0  0  0  0  0  0  0  0  0  0  0  0
   29.0256   39.9453   16.9272 C   0  0  0  0  0  0  0  0  0  0  0  0
   27.7308   40.2069   16.8457 N   0  0  0  0  0  0  0  0  0  0  0  0
   26.9364   39.1296   16.9313 C   0  0  0  0  0  0  0  0  0  0  0  0
   29.8710   40.9803   16.8635 O   0  0  0  0  0  0  0  0  0  0  0  0
   29.7375   41.8754   15.7533 C   0  0  0  0  0  0  0  0  0  0  0  0
  1  2  2  0  0  0  0
  1  6  1  0  0  0  0
  2  3  1  0  0  0  0
  3  4  2  0  0  0  0
  4 14  1  0  0  0  0
  5  4  1  0  0  0  0
  6  5  1  0  0  0  0
  7  6  2  0  0  0  0
  8  9  1  0  0  0  0
  8  2  1  1  0  0  0
 10 19  1  0  0  0  0
 10  9  1  0  0  0  0
 11 10  1  0  0  0  0
 12 11  1  0  0  0  0
 12 13  1  0  0  0  0
 13  8  1  0  0  0  0
 14 15  1  0  0  0  0
 14 18  2  0  0  0  0
 15 16  1  0  0  0  0
 16 17  2  0  0  0  0
 18 17  1  0  0  0  0
 19 20  1  0  0  0  0
 20 25  2  0  0  0  0
 20 21  1  0  0  0  0
 21 22  2  0  0  0  0
 22 23  1  0  0  0  0
 23 26  1  0  0  0  0
 24 23  2  0  0  0  0
 25 24  1  0  0  0  0
 26 27  1  0  0  0  0
M  END
>  <CHROM.1>
1.18035976,114.81981327,69.54894517,26.07111551,127.87403297,27.95126462
38.30710642,20.33897850,2.20499433,1.15348062,1.37427314

>  <Name>
lig.pdb

>  <RI>
0

>  <Rbt.Current_Directory>
/home/itssahil/PROJECTS/Mol_Feturizer/New_Systems/rnas/5kx9

>  <Rbt.Executable>
rbdock ($Id: //depot/dev/client3/rdock/2013.1/src/exe/rbdock.cxx#4 $)

>  <Rbt.Library>
libRbt.so (2013.1, Build901 2013/11/27)

>  <Rbt.Parameter_File>
/export/apps/rDock/src/rDock_2013.1_src/data/scripts/dock_solv.prm

>  <Rbt.Receptor>
prm/pocket_docking_8.prm

>  <SCORE>
-36.5192

>  <SCORE.INTER>
-31.9116

>  <SCORE.INTER.CONST>
1

>  <SCORE.INTER.POLAR>
0

>  <SCORE.INTER.ROT>
5

>  <SCORE.INTER.SOLV>
14.0276

>  <SCORE.INTER.VDW>
-32.8836

>  <SCORE.INTER.norm>
-1.18191

>  <SCORE.INTRA>
-4.60761

>  <SCORE.INTRA.DIHEDRAL>
1.86881

>  <SCORE.INTRA.DIHEDRAL.0>
2.68224

>  <SCORE.INTRA.POLAR>
0

>  <SCORE.INTRA.POLAR.0>
0

>  <SCORE.INTRA.REPUL>
0

>  <SCORE.INTRA.REPUL.0>
0

>  <SCORE.INTRA.SOLV>
-0.405398

>  <SCORE.INTRA.SOLV.lig_0>
-19.4148

>  <SCORE.INTRA.VDW>
-5.33932

>  <SCORE.INTRA.VDW.0>
5.42093

>  <SCORE.INTRA.norm>
-0.170652

>  <SCORE.RESTR>
0

>  <SCORE.RESTR.CAVITY>
0

>  <SCORE.RESTR.norm>
0

>  <SCORE.SYSTEM>
0

>  <SCORE.SYSTEM.CONST>
0

>  <SCORE.SYSTEM.DIHEDRAL>
0

>  <SCORE.SYSTEM.SOLV>
0

>  <SCORE.SYSTEM.norm>
0

>  <SCORE.heavy>
27

>  <SCORE.norm>
-1.35256

>  <RMSD>
5.358

$$$$
lig.pdb
 OpenBabel11021811523D
libRbt.so/2013.1/901 2013/11/27
 27 30  0  0  0  0  0  0  0  0999 V2000
   26.8306   36.1962   23.1155 N   0  0  0  0  0  0  0  0  0  0  0  0
   27.5864   36.6141   22.1305 C   0  0  0  0  0  0  0  0  0  0  0  0
   28.1164   37.8594   22.0340 N   0  0  0  0  0  0  0  0  0  0  0  0
   27.8975   38.7442   23.0521 C   0  0  0  0  0  0  0  0  0  0  0  0
   27.1443   38.3843   24.1326 C   0  0  0  0  0  0  0  0  0  0  0  0
   26.5649   37.0629   24.1749 C   0  0  0  0  0  0  0  0  0  0  0  0
   25.8289   36.6826   25.0939 O   0  0  0  0  0  0  0  0  0  0  0  0
   27.8191   35.7839   20.8490 C   0  0  2  0  0  0  0  0  0  0  0  0
   27.2036   36.6861   19.7670 C   0  0  0  0  0  0  0  0  0  0  0  0
   27.0872   35.9917   18.4835 N   0  0  0  0  0  0  0  0  0  0  0  0
   26.1793   34.8437   18.6387 C   0  0  0  0  0  0  0  0  0  0  0  0
   26.7456   33.8380   19.6215 C   0  0  0  0  0  0  0  0  0  0  0  0
   27.0057   34.4845   20.9750 C   0  0  0  0  0  0  0  0  0  0  0  0
   28.5611   40.0222   22.8316 C   0  0  0  0  0  0  0  0  0  0  0  0
   28.5139   41.2789   24.0121 S   0  0  0  0  0  0  0  0  0  0  0  0
   29.4106   42.3099   23.0405 C   0  0  0  0  0  0  0  0  0  0  0  0
   29.7769   41.7241   21.8935 C   0  0  0  0  0  0  0  0  0  0  0  0
   29.2906   40.4098   21.7518 C   0  0  0  0  0  0  0  0  0  0  0  0
   26.6056   36.8853   17.4154 C   0  0  0  0  0  0  0  0  0  0  0  0
   27.3590   38.1877   17.2615 C   0  0  0  0  0  0  0  0  0  0  0  0
   26.7293   39.3271   16.7819 C   0  0  0  0  0  0  0  0  0  0  0  0
   27.3743   40.3980   16.2849 N   0  0  0  0  0  0  0  0  0  0  0  0
   28.6921   40.2699   16.2487 C   0  0  0  0  0  0  0  0  0  0  0  0
   29.4288   39.2380   16.6282 N   0  0  0  0  0  0  0  0  0  0  0  0
   28.7301   38.1991   17.1089 C   0  0  0  0  0  0  0  0  0  0  0  0
   29.3295   41.3333   15.7456 O   0  0  0  0  0  0  0  0  0  0  0  0
   30.4384   41.8521   16.4892 C   0  0  0  0  0  0  0  0  0  0  0  0
  1  2  2  0  0  0  0
  1  6  1  0  0  0  0
  2  3  1  0  0  0  0
  3  4  2  0  0  0  0
  4 14  1  0  0  0  0
  5  4  1  0  0  0  0
  6  5  1  0  0  0  0
  7  6  2  0  0  0  0
  8  9  1  0  0  0  0
  8  2  1  1  0  0  0
 10 19  1  0  0  0  0
 10  9  1  0  0  0  0
 11 10  1  0  0  0  0
 12 11  1  0  0  0  0
 12 13  1  0  0  0  0
 13  8  1  0  0  0  0
 14 15  1  0  0  0  0
 14 18  2  0  0  0  0
 15 16  1  0  0  0  0
 16 17  2  0  0  0  0
 18 17  1  0  0  0  0
 19 20  1  0  0  0  0
 20 25  2  0  0  0  0
 20 21  1  0  0  0  0
 21 22  2  0  0  0  0
 22 23  1  0  0  0  0
 23 26  1  0  0  0  0
 24 23  2  0  0  0  0
 25 24  1  0  0  0  0
 26 27  1  0  0  0  0
M  END
>  <CHROM.1>
-176.51685669,116.93803316,51.46278204,-150.72873523,131.14193202,27.88628041
38.44865056,20.35368928,1.96115324,1.17297455,1.42540302

>  <Name>
lig.pdb

>  <RI>
0

>  <Rbt.Current_Directory>
/home/itssahil/PROJECTS/Mol_Feturizer/New_Systems/rnas/5kx9

>  <Rbt.Executable>
rbdock ($Id: //depot/dev/client3/rdock/2013.1/src/exe/rbdock.cxx#4 $)

>  <Rbt.Library>
libRbt.so (2013.1, Build901 2013/11/27)

>  <Rbt.Parameter_File>
/export/apps/rDock/src/rDock_2013.1_src/data/scripts/dock_solv.prm

>  <Rbt.Receptor>
prm/blind_docking_60.prm

>  <SCORE>
-35.4025

>  <SCORE.INTER>
-31.8255

>  <SCORE.INTER.CONST>
1

>  <SCORE.INTER.POLAR>
0

>  <SCORE.INTER.ROT>
5

>  <SCORE.INTER.SOLV>
15.152

>  <SCORE.INTER.VDW>
-33.201

>  <SCORE.INTER.norm>
-1.17872

>  <SCORE.INTRA>
-3.57696

>  <SCORE.INTRA.DIHEDRAL>
2.30571

>  <SCORE.INTRA.DIHEDRAL.0>
2.68224

>  <SCORE.INTRA.POLAR>
0

>  <SCORE.INTRA.POLAR.0>
0

>  <SCORE.INTRA.REPUL>
0

>  <SCORE.INTRA.REPUL.0>
0

>  <SCORE.INTRA.SOLV>
-0.618393

>  <SCORE.INTRA.SOLV.lig_0>
-19.4148

>  <SCORE.INTRA.VDW>
-4.42062

>  <SCORE.INTRA.VDW.0>
5.42093

>  <SCORE.INTRA.norm>
-0.13248

>  <SCORE.RESTR>
0

>  <SCORE.RESTR.CAVITY>
0

>  <SCORE.RESTR.norm>
0

>  <SCORE.SYSTEM>
0

>  <SCORE.SYSTEM.CONST>
0

>  <SCORE.SYSTEM.DIHEDRAL>
0

>  <SCORE.SYSTEM.SOLV>
0

>  <SCORE.SYSTEM.norm>
0

>  <SCORE.heavy>
27

>  <SCORE.norm>
-1.3112

>  <RMSD>
5.359

$$$$
lig.pdb
 OpenBabel11021811523D
libRbt.so/2013.1/901 2013/11/27
 27 30  0  0  0  0  0  0  0  0999 V2000
   26.8182   36.2579   23.3604 N   0  0  0  0  0  0  0  0  0  0  0  0
   27.5706   36.7078   22.3868 C   0  0  0  0  0  0  0  0  0  0  0  0
   28.0370   37.9783   22.2908 N   0  0  0  0  0  0  0  0  0  0  0  0
   27.7525   38.8575   23.2974 C   0  0  0  0  0  0  0  0  0  0  0  0
   26.9979   38.4664   24.3660 C   0  0  0  0  0  0  0  0  0  0  0  0
   26.4870   37.1169   24.4075 C   0  0  0  0  0  0  0  0  0  0  0  0
   25.7539   36.7052   25.3151 O   0  0  0  0  0  0  0  0  0  0  0  0
   27.8713   35.8820   21.1167 C   0  0  2  0  0  0  0  0  0  0  0  0
   27.2101   36.7312   20.0189 C   0  0  0  0  0  0  0  0  0  0  0  0
   27.1536   36.0180   18.7417 N   0  0  0  0  0  0  0  0  0  0  0  0
   26.3210   34.8146   18.8995 C   0  0  0  0  0  0  0  0  0  0  0  0
   26.9410   33.8579   19.8988 C   0  0  0  0  0  0  0  0  0  0  0  0
   27.1432   34.5334   21.2480 C   0  0  0  0  0  0  0  0  0  0  0  0
   28.3530   40.1667   23.0797 C   0  0  0  0  0  0  0  0  0  0  0  0
   28.1387   41.4563   24.2050 S   0  0  0  0  0  0  0  0  0  0  0  0
   29.0444   42.5090   23.2657 C   0  0  0  0  0  0  0  0  0  0  0  0
   29.5333   41.9100   22.1725 C   0  0  0  0  0  0  0  0  0  0  0  0
   29.1396   40.5637   22.0442 C   0  0  0  0  0  0  0  0  0  0  0  0
   26.6265   36.8676   17.6592 C   0  0  0  0  0  0  0  0  0  0  0  0
   27.3609   38.1700   17.4320 C   0  0  0  0  0  0  0  0  0  0  0  0
   26.7389   39.2445   16.8128 C   0  0  0  0  0  0  0  0  0  0  0  0
   27.3913   40.2827   16.2593 N   0  0  0  0  0  0  0  0  0  0  0  0
   28.7112   40.1865   16.3142 C   0  0  0  0  0  0  0  0  0  0  0  0
   29.4440   39.2128   16.8303 N   0  0  0  0  0  0  0  0  0  0  0  0
   28.7383   38.2035   17.3616 C   0  0  0  0  0  0  0  0  0  0  0  0
   29.3565   41.2164   15.7548 O   0  0  0  0  0  0  0  0  0  0  0  0
   30.3597   41.8725   16.5390 C   0  0  0  0  0  0  0  0  0  0  0  0
  1  2  2  0  0  0  0
  1  6  1  0  0  0  0
  2  3  1  0  0  0  0
  3  4  2  0  0  0  0
  4 14  1  0  0  0  0
  5  4  1  0  0  0  0
  6  5  1  0  0  0  0
  7  6  2  0  0  0  0
  8  9  1  0  0  0  0
  8  2  1  1  0  0  0
 10 19  1  0  0  0  0
 10  9  1  0  0  0  0
 11 10  1  0  0  0  0
 12 11  1  0  0  0  0
 12 13  1  0  0  0  0
 13  8  1  0  0  0  0
 14 15  1  0  0  0  0
 14 18  2  0  0  0  0
 15 16  1  0  0  0  0
 16 17  2  0  0  0  0
 18 17  1  0  0  0  0
 19 20  1  0  0  0  0
 20 25  2  0  0  0  0
 20 21  1  0  0  0  0
 21 22  2  0  0  0  0
 22 23  1  0  0  0  0
 23 26  1  0  0  0  0
 24 23  2  0  0  0  0
 25 24  1  0  0  0  0
 26 27  1  0  0  0  0
M  END
>  <CHROM.1>
179.79174094,116.00327707,55.86160241,-157.10696872,128.04303788,27.82629214
38.49672888,20.55583891,2.03101958,1.21015771,1.30704710

>  <Name>
lig.pdb

>  <RI>
0

>  <Rbt.Current_Directory>
/home/itssahil/PROJECTS/Mol_Feturizer/New_Systems/rnas/5kx9

>  <Rbt.Executable>
rbdock ($Id: //depot/dev/client3/rdock/2013.1/src/exe/rbdock.cxx#4 $)

>  <Rbt.Library>
libRbt.so (2013.1, Build901 2013/11/27)

>  <Rbt.Parameter_File>
/export/apps/rDock/src/rDock_2013.1_src/data/scripts/dock_solv.prm

>  <Rbt.Receptor>
prm/blind_docking_80.prm

>  <SCORE>
-35.2576

>  <SCORE.INTER>
-31.5872

>  <SCORE.INTER.CONST>
1

>  <SCORE.INTER.POLAR>
0

>  <SCORE.INTER.ROT>
5

>  <SCORE.INTER.SOLV>
14.8507

>  <SCORE.INTER.VDW>
-32.9417

>  <SCORE.INTER.norm>
-1.1699

>  <SCORE.INTRA>
-3.67046

>  <SCORE.INTRA.DIHEDRAL>
2.51323

>  <SCORE.INTRA.DIHEDRAL.0>
2.68224

>  <SCORE.INTRA.POLAR>
0

>  <SCORE.INTRA.POLAR.0>
0

>  <SCORE.INTRA.REPUL>
0

>  <SCORE.INTRA.REPUL.0>
0

>  <SCORE.INTRA.SOLV>
-0.617104

>  <SCORE.INTRA.SOLV.lig_0>
-19.4148

>  <SCORE.INTRA.VDW>
-4.61852

>  <SCORE.INTRA.VDW.0>
5.42093

>  <SCORE.INTRA.norm>
-0.135943

>  <SCORE.RESTR>
0

>  <SCORE.RESTR.CAVITY>
0

>  <SCORE.RESTR.norm>
0

>  <SCORE.SYSTEM>
0

>  <SCORE.SYSTEM.CONST>
0

>  <SCORE.SYSTEM.DIHEDRAL>
0

>  <SCORE.SYSTEM.SOLV>
0

>  <SCORE.SYSTEM.norm>
0

>  <SCORE.heavy>
27

>  <SCORE.norm>
-1.30584

>  <RMSD>
5.368

$$$$
lig.pdb
 OpenBabel11021811523D
libRbt.so/2013.1/901 2013/11/27
 27 30  0  0  0  0  0  0  0  0999 V2000
   27.0975   38.4104   24.3126 N   0  0  0  0  0  0  0  0  0  0  0  0
   27.6113   38.7262   23.1497 C   0  0  0  0  0  0  0  0  0  0  0  0
   27.7904   37.8607   22.1201 N   0  0  0  0  0  0  0  0  0  0  0  0
   27.3666   36.5703   22.2690 C   0  0  0  0  0  0  0  0  0  0  0  0
   26.7932   36.1600   23.4384 C   0  0  0  0  0  0  0  0  0  0  0  0
   26.6600   37.1033   24.5229 C   0  0  0  0  0  0  0  0  0  0  0  0
   26.1996   36.7930   25.6286 O   0  0  0  0  0  0  0  0  0  0  0  0
   28.2538   40.1024   22.8689 C   0  0  2  0  0  0  0  0  0  0  0  0
   28.3753   40.6933   24.2830 C   0  0  0  0  0  0  0  0  0  0  0  0
   28.7390   42.1110   24.2490 N   0  0  0  0  0  0  0  0  0  0  0  0
   27.6728   42.8646   23.5697 C   0  0  0  0  0  0  0  0  0  0  0  0
   27.5355   42.4216   22.1265 C   0  0  0  0  0  0  0  0  0  0  0  0
   27.2562   40.9276   22.0384 C   0  0  0  0  0  0  0  0  0  0  0  0
   27.5841   35.7708   21.0708 C   0  0  0  0  0  0  0  0  0  0  0  0
   27.2221   34.0848   21.0329 S   0  0  0  0  0  0  0  0  0  0  0  0
   27.7464   33.9448   19.4466 C   0  0  0  0  0  0  0  0  0  0  0  0
   28.1338   35.1229   18.9418 C   0  0  0  0  0  0  0  0  0  0  0  0
   28.0550   36.1844   19.8642 C   0  0  0  0  0  0  0  0  0  0  0  0
   28.9693   42.6531   25.5997 C   0  0  0  0  0  0  0  0  0  0  0  0
   30.2443   42.2034   26.2776 C   0  0  0  0  0  0  0  0  0  0  0  0
   30.2174   41.2851   27.3171 C   0  0  0  0  0  0  0  0  0  0  0  0
   31.2218   41.1011   28.1930 N   0  0  0  0  0  0  0  0  0  0  0  0
   32.2554   41.9095   28.0120 C   0  0  0  0  0  0  0  0  0  0  0  0
   32.4096   42.8553   27.0992 N   0  0  0  0  0  0  0  0  0  0  0  0
   31.3737   42.9956   26.2590 C   0  0  0  0  0  0  0  0  0  0  0  0
   33.2484   41.7297   28.8904 O   0  0  0  0  0  0  0  0  0  0  0  0
   33.7901   42.8949   29.5234 C   0  0  0  0  0  0  0  0  0  0  0  0
  1  2  2  0  0  0  0
  1  6  1  0  0  0  0
  2  3  1  0  0  0  0
  3  4  2  0  0  0  0
  4 14  1  0  0  0  0
  5  4  1  0  0  0  0
  6  5  1  0  0  0  0
  7  6  2  0  0  0  0
  8  9  1  0  0  0  0
  8  2  1  1  0  0  0
 10 19  1  0  0  0  0
 10  9  1  0  0  0  0
 11 10  1  0  0  0  0
 12 11  1  0  0  0  0
 12 13  1  0  0  0  0
 13  8  1  0  0  0  0
 14 15  1  0  0  0  0
 14 18  2  0  0  0  0
 15 16  1  0  0  0  0
 16 17  2  0  0  0  0
 18 17  1  0  0  0  0
 19 20  1  0  0  0  0
 20 25  2  0  0  0  0
 20 21  1  0  0  0  0
 21 22  2  0  0  0  0
 22 23  1  0  0  0  0
 23 26  1  0  0  0  0
 24 23  2  0  0  0  0
 25 24  1  0  0  0  0
 26 27  1  0  0  0  0
M  END
>  <CHROM.1>
176.28680531,12.17864573,72.54188587,-106.29593016,-132.09488768,28.83265397
39.25839572,24.07596588,-2.34951475,-0.93651685,0.07823428

>  <Name>
lig.pdb

>  <RI>
0

>  <Rbt.Current_Directory>
/home/itssahil/PROJECTS/Mol_Feturizer/New_Systems/rnas/5kx9

>  <Rbt.Executable>
rbdock ($Id: //depot/dev/client3/rdock/2013.1/src/exe/rbdock.cxx#4 $)

>  <Rbt.Library>
libRbt.so (2013.1, Build901 2013/11/27)

>  <Rbt.Parameter_File>
/export/apps/rDock/src/rDock_2013.1_src/data/scripts/dock_solv.prm

>  <Rbt.Receptor>
prm/pocket_docking_7.prm

>  <SCORE>
-42.4213

>  <SCORE.INTER>
-38.3916

>  <SCORE.INTER.CONST>
1

>  <SCORE.INTER.POLAR>
0

>  <SCORE.INTER.ROT>
5

>  <SCORE.INTER.SOLV>
16.6748

>  <SCORE.INTER.VDW>
-38.086

>  <SCORE.INTER.norm>
-1.42191

>  <SCORE.INTRA>
-4.0297

>  <SCORE.INTRA.DIHEDRAL>
1.79025

>  <SCORE.INTRA.DIHEDRAL.0>
2.68224

>  <SCORE.INTRA.POLAR>
0

>  <SCORE.INTRA.POLAR.0>
0

>  <SCORE.INTRA.REPUL>
0

>  <SCORE.INTRA.REPUL.0>
0

>  <SCORE.INTRA.SOLV>
-0.649863

>  <SCORE.INTRA.SOLV.lig_0>
-19.4148

>  <SCORE.INTRA.VDW>
-4.59989

>  <SCORE.INTRA.VDW.0>
5.42093

>  <SCORE.INTRA.norm>
-0.149248

>  <SCORE.RESTR>
0

>  <SCORE.RESTR.CAVITY>
0

>  <SCORE.RESTR.norm>
0

>  <SCORE.SYSTEM>
0

>  <SCORE.SYSTEM.CONST>
0

>  <SCORE.SYSTEM.DIHEDRAL>
0

>  <SCORE.SYSTEM.SOLV>
0

>  <SCORE.SYSTEM.norm>
0

>  <SCORE.heavy>
27

>  <SCORE.norm>
-1.57116

>  <RMSD>
5.369

$$$$
lig.pdb
 OpenBabel11021811523D
libRbt.so/2013.1/901 2013/11/27
 27 30  0  0  0  0  0  0  0  0999 V2000
   26.5866   39.4314   25.0448 N   0  0  0  0  0  0  0  0  0  0  0  0
   26.9769   39.6694   23.8171 C   0  0  0  0  0  0  0  0  0  0  0  0
   27.2262   38.7164   22.8840 N   0  0  0  0  0  0  0  0  0  0  0  0
   27.0150   37.4072   23.2135 C   0  0  0  0  0  0  0  0  0  0  0  0
   26.5808   37.0687   24.4630 C   0  0  0  0  0  0  0  0  0  0  0  0
   26.3680   38.1117   25.4380 C   0  0  0  0  0  0  0  0  0  0  0  0
   26.0263   37.8797   26.6043 O   0  0  0  0  0  0  0  0  0  0  0  0
   27.3829   41.0779   23.3304 C   0  0  2  0  0  0  0  0  0  0  0  0
   27.0731   40.9984   21.8266 C   0  0  0  0  0  0  0  0  0  0  0  0
   27.6105   42.1504   21.1005 N   0  0  0  0  0  0  0  0  0  0  0  0
   29.0769   42.1569   21.2268 C   0  0  0  0  0  0  0  0  0  0  0  0
   29.4921   42.3297   22.6746 C   0  0  0  0  0  0  0  0  0  0  0  0
   28.8977   41.2331   23.5474 C   0  0  0  0  0  0  0  0  0  0  0  0
   27.2822   36.5033   22.1028 C   0  0  0  0  0  0  0  0  0  0  0  0
   26.9393   34.8162   22.2097 S   0  0  0  0  0  0  0  0  0  0  0  0
   27.5197   34.5370   20.6618 C   0  0  0  0  0  0  0  0  0  0  0  0
   27.9120   35.6685   20.0629 C   0  0  0  0  0  0  0  0  0  0  0  0
   27.7902   36.8097   20.8795 C   0  0  0  0  0  0  0  0  0  0  0  0
   27.2185   42.1381   19.6801 C   0  0  0  0  0  0  0  0  0  0  0  0
   27.9084   41.1038   18.8190 C   0  0  0  0  0  0  0  0  0  0  0  0
   28.0376   39.7893   19.2433 C   0  0  0  0  0  0  0  0  0  0  0  0
   28.9185   38.9102   18.7321 N   0  0  0  0  0  0  0  0  0  0  0  0
   29.7048   39.4133   17.7923 C   0  0  0  0  0  0  0  0  0  0  0  0
   29.7292   40.6470   17.3140 N   0  0  0  0  0  0  0  0  0  0  0  0
   28.8331   41.4783   17.8661 C   0  0  0  0  0  0  0  0  0  0  0  0
   30.5853   38.5386   17.2926 O   0  0  0  0  0  0  0  0  0  0  0  0
   30.5852   38.3375   15.8745 C   0  0  0  0  0  0  0  0  0  0  0  0
  1  2  2  0  0  0  0
  1  6  1  0  0  0  0
  2  3  1  0  0  0  0
  3  4  2  0  0  0  0
  4 14  1  0  0  0  0
  5  4  1  0  0  0  0
  6  5  1  0  0  0  0
  7  6  2  0  0  0  0
  8  9  1  0  0  0  0
  8  2  1  1  0  0  0
 10 19  1  0  0  0  0
 10  9  1  0  0  0  0
 11 10  1  0  0  0  0
 12 11  1  0  0  0  0
 12 13  1  0  0  0  0
 13  8  1  0  0  0  0
 14 15  1  0  0  0  0
 14 18  2  0  0  0  0
 15 16  1  0  0  0  0
 16 17  2  0  0  0  0
 18 17  1  0  0  0  0
 19 20  1  0  0  0  0
 20 25  2  0  0  0  0
 20 21  1  0  0  0  0
 21 22  2  0  0  0  0
 22 23  1  0  0  0  0
 23 26  1  0  0  0  0
 24 23  2  0  0  0  0
 25 24  1  0  0  0  0
 26 27  1  0  0  0  0
M  END
>  <CHROM.1>
-173.71964669,-153.16295859,-72.58515935,46.09098464,124.69050346,27.94942050
38.95819250,21.28146082,3.06388841,-1.19396234,-2.83464567

>  <Name>
lig.pdb

>  <RI>
0

>  <Rbt.Current_Directory>
/home/itssahil/PROJECTS/Mol_Feturizer/New_Systems/rnas/5kx9

>  <Rbt.Executable>
rbdock ($Id: //depot/dev/client3/rdock/2013.1/src/exe/rbdock.cxx#4 $)

>  <Rbt.Library>
libRbt.so (2013.1, Build901 2013/11/27)

>  <Rbt.Parameter_File>
/export/apps/rDock/src/rDock_2013.1_src/data/scripts/dock_solv.prm

>  <Rbt.Receptor>
prm/pocket_docking_4.prm

>  <SCORE>
-33.5621

>  <SCORE.INTER>
-31.4716

>  <SCORE.INTER.CONST>
1

>  <SCORE.INTER.POLAR>
0

>  <SCORE.INTER.ROT>
5

>  <SCORE.INTER.SOLV>
14.0912

>  <SCORE.INTER.VDW>
-32.6114

>  <SCORE.INTER.norm>
-1.16561

>  <SCORE.INTRA>
-2.09051

>  <SCORE.INTRA.DIHEDRAL>
2.44141

>  <SCORE.INTRA.DIHEDRAL.0>
2.68224

>  <SCORE.INTRA.POLAR>
0

>  <SCORE.INTRA.POLAR.0>
0

>  <SCORE.INTRA.REPUL>
0

>  <SCORE.INTRA.REPUL.0>
0

>  <SCORE.INTRA.SOLV>
0.18799

>  <SCORE.INTRA.SOLV.lig_0>
-19.4148

>  <SCORE.INTRA.VDW>
-3.40521

>  <SCORE.INTRA.VDW.0>
5.42093

>  <SCORE.INTRA.norm>
-0.0774263

>  <SCORE.RESTR>
0

>  <SCORE.RESTR.CAVITY>
0

>  <SCORE.RESTR.norm>
0

>  <SCORE.SYSTEM>
0

>  <SCORE.SYSTEM.CONST>
0

>  <SCORE.SYSTEM.DIHEDRAL>
0

>  <SCORE.SYSTEM.SOLV>
0

>  <SCORE.SYSTEM.norm>
0

>  <SCORE.heavy>
27

>  <SCORE.norm>
-1.24304

>  <RMSD>
5.372

$$$$
lig.pdb
 OpenBabel11021811523D
libRbt.so/2013.1/901 2013/11/27
 27 30  0  0  0  0  0  0  0  0999 V2000
   26.8728   36.2321   23.1560 N   0  0  0  0  0  0  0  0  0  0  0  0
   27.6137   36.6706   22.1685 C   0  0  0  0  0  0  0  0  0  0  0  0
   28.1099   37.9297   22.0710 N   0  0  0  0  0  0  0  0  0  0  0  0
   27.8710   38.8078   23.0903 C   0  0  0  0  0  0  0  0  0  0  0  0
   27.1316   38.4273   24.1733 C   0  0  0  0  0  0  0  0  0  0  0  0
   26.5878   37.0909   24.2168 C   0  0  0  0  0  0  0  0  0  0  0  0
   25.8655   36.6905   25.1381 O   0  0  0  0  0  0  0  0  0  0  0  0
   27.8641   35.8476   20.8857 C   0  0  2  0  0  0  0  0  0  0  0  0
   27.0917   36.6564   19.8308 C   0  0  0  0  0  0  0  0  0  0  0  0
   26.9804   35.9298   18.5648 N   0  0  0  0  0  0  0  0  0  0  0  0
   26.2159   34.6918   18.7866 C   0  0  0  0  0  0  0  0  0  0  0  0
   26.9453   33.7729   19.7467 C   0  0  0  0  0  0  0  0  0  0  0  0
   27.2084   34.4691   21.0747 C   0  0  0  0  0  0  0  0  0  0  0  0
   28.4994   40.1032   22.8683 C   0  0  0  0  0  0  0  0  0  0  0  0
   29.5077   40.3943   21.4994 S   0  0  0  0  0  0  0  0  0  0  0  0
   29.8146   41.9701   21.9828 C   0  0  0  0  0  0  0  0  0  0  0  0
   29.1507   42.2887   23.1012 C   0  0  0  0  0  0  0  0  0  0  0  0
   28.3945   41.2245   23.6300 C   0  0  0  0  0  0  0  0  0  0  0  0
   26.3427   36.7451   17.5160 C   0  0  0  0  0  0  0  0  0  0  0  0
   27.2228   37.7963   16.8775 C   0  0  0  0  0  0  0  0  0  0  0  0
   28.6045   37.7367   16.9872 C   0  0  0  0  0  0  0  0  0  0  0  0
   29.4282   38.7785   16.7727 N   0  0  0  0  0  0  0  0  0  0  0  0
   28.8069   39.9105   16.4775 C   0  0  0  0  0  0  0  0  0  0  0  0
   27.5061   40.1326   16.3773 N   0  0  0  0  0  0  0  0  0  0  0  0
   26.7363   39.0588   16.6077 C   0  0  0  0  0  0  0  0  0  0  0  0
   29.6288   40.9463   16.2737 O   0  0  0  0  0  0  0  0  0  0  0  0
   29.3914   42.1378   17.0324 C   0  0  0  0  0  0  0  0  0  0  0  0
  1  2  2  0  0  0  0
  1  6  1  0  0  0  0
  2  3  1  0  0  0  0
  3  4  2  0  0  0  0
  4 14  1  0  0  0  0
  5  4  1  0  0  0  0
  6  5  1  0  0  0  0
  7  6  2  0  0  0  0
  8  9  1  0  0  0  0
  8  2  1  1  0  0  0
 10 19  1  0  0  0  0
 10  9  1  0  0  0  0
 11 10  1  0  0  0  0
 12 11  1  0  0  0  0
 12 13  1  0  0  0  0
 13  8  1  0  0  0  0
 14 15  1  0  0  0  0
 14 18  2  0  0  0  0
 15 16  1  0  0  0  0
 16 17  2  0  0  0  0
 18 17  1  0  0  0  0
 19 20  1  0  0  0  0
 20 25  2  0  0  0  0
 20 21  1  0  0  0  0
 21 22  2  0  0  0  0
 22 23  1  0  0  0  0
 23 26  1  0  0  0  0
 24 23  2  0  0  0  0
 25 24  1  0  0  0  0
 26 27  1  0  0  0  0
M  END
>  <CHROM.1>
-3.77371871,111.13035313,77.13707656,17.84543690,-126.56001574,27.90408737
38.32836920,20.28442347,2.01129427,1.17409384,1.44935541

>  <Name>
lig.pdb

>  <RI>
0

>  <Rbt.Current_Directory>
/home/itssahil/PROJECTS/Mol_Feturizer/New_Systems/rnas/5kx9

>  <Rbt.Executable>
rbdock ($Id: //depot/dev/client3/rdock/2013.1/src/exe/rbdock.cxx#4 $)

>  <Rbt.Library>
libRbt.so (2013.1, Build901 2013/11/27)

>  <Rbt.Parameter_File>
/export/apps/rDock/src/rDock_2013.1_src/data/scripts/dock_solv.prm

>  <Rbt.Receptor>
prm/blind_docking_80.prm

>  <SCORE>
-36.5094

>  <SCORE.INTER>
-31.9425

>  <SCORE.INTER.CONST>
1

>  <SCORE.INTER.POLAR>
0

>  <SCORE.INTER.ROT>
5

>  <SCORE.INTER.SOLV>
14.6826

>  <SCORE.INTER.VDW>
-33.1225

>  <SCORE.INTER.norm>
-1.18305

>  <SCORE.INTRA>
-4.56693

>  <SCORE.INTRA.DIHEDRAL>
2.24537

>  <SCORE.INTRA.DIHEDRAL.0>
2.68224

>  <SCORE.INTRA.POLAR>
0

>  <SCORE.INTRA.POLAR.0>
0

>  <SCORE.INTRA.REPUL>
0

>  <SCORE.INTRA.REPUL.0>
0

>  <SCORE.INTRA.SOLV>
-0.426287

>  <SCORE.INTRA.SOLV.lig_0>
-19.4148

>  <SCORE.INTRA.VDW>
-5.47648

>  <SCORE.INTRA.VDW.0>
5.42093

>  <SCORE.INTRA.norm>
-0.169146

>  <SCORE.RESTR>
0

>  <SCORE.RESTR.CAVITY>
0

>  <SCORE.RESTR.norm>
0

>  <SCORE.SYSTEM>
0

>  <SCORE.SYSTEM.CONST>
0

>  <SCORE.SYSTEM.DIHEDRAL>
0

>  <SCORE.SYSTEM.SOLV>
0

>  <SCORE.SYSTEM.norm>
0

>  <SCORE.heavy>
27

>  <SCORE.norm>
-1.3522

>  <RMSD>
5.377

$$$$
lig.pdb
 OpenBabel11021811523D
libRbt.so/2013.1/901 2013/11/27
 27 30  0  0  0  0  0  0  0  0999 V2000
   26.8596   36.2209   23.1976 N   0  0  0  0  0  0  0  0  0  0  0  0
   27.5966   36.6438   22.2006 C   0  0  0  0  0  0  0  0  0  0  0  0
   28.0708   37.9082   22.0685 N   0  0  0  0  0  0  0  0  0  0  0  0
   27.8122   38.8109   23.0612 C   0  0  0  0  0  0  0  0  0  0  0  0
   27.0752   38.4487   24.1520 C   0  0  0  0  0  0  0  0  0  0  0  0
   26.5550   37.1046   24.2321 C   0  0  0  0  0  0  0  0  0  0  0  0
   25.8361   36.7182   25.1621 O   0  0  0  0  0  0  0  0  0  0  0  0
   27.8667   35.7888   20.9430 C   0  0  2  0  0  0  0  0  0  0  0  0
   27.2569   36.6558   19.8295 C   0  0  0  0  0  0  0  0  0  0  0  0
   27.1758   35.9306   18.5604 N   0  0  0  0  0  0  0  0  0  0  0  0
   26.2840   34.7714   18.7252 C   0  0  0  0  0  0  0  0  0  0  0  0
   26.8482   33.7978   19.7411 C   0  0  0  0  0  0  0  0  0  0  0  0
   27.0724   34.4792   21.0839 C   0  0  0  0  0  0  0  0  0  0  0  0
   28.4185   40.1104   22.8041 C   0  0  0  0  0  0  0  0  0  0  0  0
   28.0913   41.4735   23.8091 S   0  0  0  0  0  0  0  0  0  0  0  0
   29.0694   42.4703   22.8814 C   0  0  0  0  0  0  0  0  0  0  0  0
   29.6609   41.8023   21.8830 C   0  0  0  0  0  0  0  0  0  0  0  0
   29.2924   40.4444   21.8176 C   0  0  0  0  0  0  0  0  0  0  0  0
   26.6998   36.7916   17.4634 C   0  0  0  0  0  0  0  0  0  0  0  0
   27.4287   38.1065   17.2990 C   0  0  0  0  0  0  0  0  0  0  0  0
   26.7736   39.2344   16.8265 C   0  0  0  0  0  0  0  0  0  0  0  0
   27.3939   40.3158   16.3206 N   0  0  0  0  0  0  0  0  0  0  0  0
   28.7132   40.2102   16.2679 C   0  0  0  0  0  0  0  0  0  0  0  0
   29.4722   39.1915   16.6389 N   0  0  0  0  0  0  0  0  0  0  0  0
   28.7974   38.1412   17.1292 C   0  0  0  0  0  0  0  0  0  0  0  0
   29.3259   41.2839   15.7561 O   0  0  0  0  0  0  0  0  0  0  0  0
   30.4035   41.8519   16.5096 C   0  0  0  0  0  0  0  0  0  0  0  0
  1  2  2  0  0  0  0
  1  6  1  0  0  0  0
  2  3  1  0  0  0  0
  3  4  2  0  0  0  0
  4 14  1  0  0  0  0
  5  4  1  0  0  0  0
  6  5  1  0  0  0  0
  7  6  2  0  0  0  0
  8  9  1  0  0  0  0
  8  2  1  1  0  0  0
 10 19  1  0  0  0  0
 10  9  1  0  0  0  0
 11 10  1  0  0  0  0
 12 11  1  0  0  0  0
 12 13  1  0  0  0  0
 13  8  1  0  0  0  0
 14 15  1  0  0  0  0
 14 18  2  0  0  0  0
 15 16  1  0  0  0  0
 16 17  2  0  0  0  0
 18 17  1  0  0  0  0
 19 20  1  0  0  0  0
 20 25  2  0  0  0  0
 20 21  1  0  0  0  0
 21 22  2  0  0  0  0
 22 23  1  0  0  0  0
 23 26  1  0  0  0  0
 24 23  2  0  0  0  0
 25 24  1  0  0  0  0
 26 27  1  0  0  0  0
M  END
>  <CHROM.1>
172.77539850,118.88575125,51.08335196,-148.41287397,128.90598634,27.85321729
38.46059797,20.37288856,2.09556934,1.21026598,1.30351853

>  <Name>
lig.pdb

>  <RI>
0

>  <Rbt.Current_Directory>
/home/itssahil/PROJECTS/Mol_Feturizer/New_Systems/rnas/5kx9

>  <Rbt.Executable>
rbdock ($Id: //depot/dev/client3/rdock/2013.1/src/exe/rbdock.cxx#4 $)

>  <Rbt.Library>
libRbt.so (2013.1, Build901 2013/11/27)

>  <Rbt.Parameter_File>
/export/apps/rDock/src/rDock_2013.1_src/data/scripts/dock_solv.prm

>  <Rbt.Receptor>
prm/pocket_docking_8.prm

>  <SCORE>
-35.1813

>  <SCORE.INTER>
-31.8314

>  <SCORE.INTER.CONST>
1

>  <SCORE.INTER.POLAR>
0

>  <SCORE.INTER.ROT>
5

>  <SCORE.INTER.SOLV>
14.8872

>  <SCORE.INTER.VDW>
-33.1166

>  <SCORE.INTER.norm>
-1.17894

>  <SCORE.INTRA>
-3.34993

>  <SCORE.INTRA.DIHEDRAL>
2.69815

>  <SCORE.INTRA.DIHEDRAL.0>
2.68224

>  <SCORE.INTRA.POLAR>
0

>  <SCORE.INTRA.POLAR.0>
0

>  <SCORE.INTRA.REPUL>
0

>  <SCORE.INTRA.REPUL.0>
0

>  <SCORE.INTRA.SOLV>
-0.623586

>  <SCORE.INTRA.SOLV.lig_0>
-19.4148

>  <SCORE.INTRA.VDW>
-4.38721

>  <SCORE.INTRA.VDW.0>
5.42093

>  <SCORE.INTRA.norm>
-0.124071

>  <SCORE.RESTR>
0

>  <SCORE.RESTR.CAVITY>
0

>  <SCORE.RESTR.norm>
0

>  <SCORE.SYSTEM>
0

>  <SCORE.SYSTEM.CONST>
0

>  <SCORE.SYSTEM.DIHEDRAL>
0

>  <SCORE.SYSTEM.SOLV>
0

>  <SCORE.SYSTEM.norm>
0

>  <SCORE.heavy>
27

>  <SCORE.norm>
-1.30301

>  <RMSD>
5.386

$$$$
lig.pdb
 OpenBabel11021811523D
libRbt.so/2013.1/901 2013/11/27
 27 30  0  0  0  0  0  0  0  0999 V2000
   26.8061   36.3167   23.3323 N   0  0  0  0  0  0  0  0  0  0  0  0
   27.5800   36.7355   22.3618 C   0  0  0  0  0  0  0  0  0  0  0  0
   28.0834   37.9913   22.2582 N   0  0  0  0  0  0  0  0  0  0  0  0
   27.8146   38.8880   23.2536 C   0  0  0  0  0  0  0  0  0  0  0  0
   27.0392   38.5289   24.3186 C   0  0  0  0  0  0  0  0  0  0  0  0
   26.4898   37.1950   24.3680 C   0  0  0  0  0  0  0  0  0  0  0  0
   25.7367   36.8131   25.2724 O   0  0  0  0  0  0  0  0  0  0  0  0
   27.8690   35.8892   21.1025 C   0  0  2  0  0  0  0  0  0  0  0  0
   27.2110   36.7283   19.9951 C   0  0  0  0  0  0  0  0  0  0  0  0
   27.1436   35.9975   18.7284 N   0  0  0  0  0  0  0  0  0  0  0  0
   26.3014   34.8036   18.9064 C   0  0  0  0  0  0  0  0  0  0  0  0
   26.9169   33.8560   19.9169 C   0  0  0  0  0  0  0  0  0  0  0  0
   27.1299   34.5489   21.2556 C   0  0  0  0  0  0  0  0  0  0  0  0
   28.4542   40.1775   23.0292 C   0  0  0  0  0  0  0  0  0  0  0  0
   29.3483   40.5032   21.5906 S   0  0  0  0  0  0  0  0  0  0  0  0
   29.7353   42.0504   22.1075 C   0  0  0  0  0  0  0  0  0  0  0  0
   29.1782   42.3367   23.2909 C   0  0  0  0  0  0  0  0  0  0  0  0
   28.4434   41.2682   23.8409 C   0  0  0  0  0  0  0  0  0  0  0  0
   26.6198   36.8361   17.6358 C   0  0  0  0  0  0  0  0  0  0  0  0
   27.3438   38.1444   17.4092 C   0  0  0  0  0  0  0  0  0  0  0  0
   26.7392   39.1883   16.7240 C   0  0  0  0  0  0  0  0  0  0  0  0
   27.4039   40.2213   16.1754 N   0  0  0  0  0  0  0  0  0  0  0  0
   28.7202   40.1510   16.3056 C   0  0  0  0  0  0  0  0  0  0  0  0
   29.4394   39.2068   16.8909 N   0  0  0  0  0  0  0  0  0  0  0  0
   28.7223   38.2011   17.4135 C   0  0  0  0  0  0  0  0  0  0  0  0
   29.3782   41.1755   15.7510 O   0  0  0  0  0  0  0  0  0  0  0  0
   30.3780   41.8259   16.5442 C   0  0  0  0  0  0  0  0  0  0  0  0
  1  2  2  0  0  0  0
  1  6  1  0  0  0  0
  2  3  1  0  0  0  0
  3  4  2  0  0  0  0
  4 14  1  0  0  0  0
  5  4  1  0  0  0  0
  6  5  1  0  0  0  0
  7  6  2  0  0  0  0
  8  9  1  0  0  0  0
  8  2  1  1  0  0  0
 10 19  1  0  0  0  0
 10  9  1  0  0  0  0
 11 10  1  0  0  0  0
 12 11  1  0  0  0  0
 12 13  1  0  0  0  0
 13  8  1  0  0  0  0
 14 15  1  0  0  0  0
 14 18  2  0  0  0  0
 15 16  1  0  0  0  0
 16 17  2  0  0  0  0
 18 17  1  0  0  0  0
 19 20  1  0  0  0  0
 20 25  2  0  0  0  0
 20 21  1  0  0  0  0
 21 22  2  0  0  0  0
 22 23  1  0  0  0  0
 23 26  1  0  0  0  0
 24 23  2  0  0  0  0
 25 24  1  0  0  0  0
 26 27  1  0  0  0  0
M  END
>  <CHROM.1>
3.90235938,114.61197673,54.43896606,-160.06925392,131.41526193,27.92112110
38.44234681,20.38166073,2.10838826,1.16438286,1.40918669

>  <Name>
lig.pdb

>  <RI>
0

>  <Rbt.Current_Directory>
/home/itssahil/PROJECTS/Mol_Feturizer/New_Systems/rnas/5kx9

>  <Rbt.Executable>
rbdock ($Id: //depot/dev/client3/rdock/2013.1/src/exe/rbdock.cxx#4 $)

>  <Rbt.Library>
libRbt.so (2013.1, Build901 2013/11/27)

>  <Rbt.Parameter_File>
/export/apps/rDock/src/rDock_2013.1_src/data/scripts/dock_solv.prm

>  <Rbt.Receptor>
prm/pocket_docking_5.prm

>  <SCORE>
-36.2964

>  <SCORE.INTER>
-32.4194

>  <SCORE.INTER.CONST>
1

>  <SCORE.INTER.POLAR>
0

>  <SCORE.INTER.ROT>
5

>  <SCORE.INTER.SOLV>
15.3424

>  <SCORE.INTER.VDW>
-33.6604

>  <SCORE.INTER.norm>
-1.20072

>  <SCORE.INTRA>
-3.87694

>  <SCORE.INTRA.DIHEDRAL>
2.2772

>  <SCORE.INTRA.DIHEDRAL.0>
2.68224

>  <SCORE.INTRA.POLAR>
0

>  <SCORE.INTRA.POLAR.0>
0

>  <SCORE.INTRA.REPUL>
0

>  <SCORE.INTRA.REPUL.0>
0

>  <SCORE.INTRA.SOLV>
-0.551347

>  <SCORE.INTRA.SOLV.lig_0>
-19.4148

>  <SCORE.INTRA.VDW>
-4.73987

>  <SCORE.INTRA.VDW.0>
5.42093

>  <SCORE.INTRA.norm>
-0.143591

>  <SCORE.RESTR>
0

>  <SCORE.RESTR.CAVITY>
0

>  <SCORE.RESTR.norm>
0

>  <SCORE.SYSTEM>
0

>  <SCORE.SYSTEM.CONST>
0

>  <SCORE.SYSTEM.DIHEDRAL>
0

>  <SCORE.SYSTEM.SOLV>
0

>  <SCORE.SYSTEM.norm>
0

>  <SCORE.heavy>
27

>  <SCORE.norm>
-1.34431

>  <RMSD>
5.394

$$$$
lig.pdb
 OpenBabel11021811523D
libRbt.so/2013.1/901 2013/11/27
 27 30  0  0  0  0  0  0  0  0999 V2000
   26.8645   36.2900   23.2029 N   0  0  0  0  0  0  0  0  0  0  0  0
   27.6032   36.7384   22.2182 C   0  0  0  0  0  0  0  0  0  0  0  0
   28.0913   38.0012   22.1275 N   0  0  0  0  0  0  0  0  0  0  0  0
   27.8460   38.8724   23.1512 C   0  0  0  0  0  0  0  0  0  0  0  0
   27.1083   38.4816   24.2317 C   0  0  0  0  0  0  0  0  0  0  0  0
   26.5732   37.1414   24.2679 C   0  0  0  0  0  0  0  0  0  0  0  0
   25.8529   36.7316   25.1866 O   0  0  0  0  0  0  0  0  0  0  0  0
   27.8598   35.9237   20.9314 C   0  0  2  0  0  0  0  0  0  0  0  0
   27.0913   36.7384   19.8783 C   0  0  0  0  0  0  0  0  0  0  0  0
   26.9860   36.0197   18.6072 N   0  0  0  0  0  0  0  0  0  0  0  0
   26.2217   34.7798   18.8179 C   0  0  0  0  0  0  0  0  0  0  0  0
   26.9477   33.8554   19.7754 C   0  0  0  0  0  0  0  0  0  0  0  0
   27.2045   34.5435   21.1089 C   0  0  0  0  0  0  0  0  0  0  0  0
   28.4661   40.1730   22.9364 C   0  0  0  0  0  0  0  0  0  0  0  0
   29.5489   40.4505   21.6228 S   0  0  0  0  0  0  0  0  0  0  0  0
   29.8020   42.0416   22.0865 C   0  0  0  0  0  0  0  0  0  0  0  0
   29.0682   42.3739   23.1561 C   0  0  0  0  0  0  0  0  0  0  0  0
   28.2988   41.3091   23.6642 C   0  0  0  0  0  0  0  0  0  0  0  0
   26.3522   36.8411   17.5608 C   0  0  0  0  0  0  0  0  0  0  0  0
   27.2520   37.8534   16.8877 C   0  0  0  0  0  0  0  0  0  0  0  0
   28.6319   37.7127   16.9114 C   0  0  0  0  0  0  0  0  0  0  0  0
   29.5004   38.7101   16.6646 N   0  0  0  0  0  0  0  0  0  0  0  0
   28.9294   39.8815   16.4276 C   0  0  0  0  0  0  0  0  0  0  0  0
   27.6400   40.1795   16.4112 N   0  0  0  0  0  0  0  0  0  0  0  0
   26.8243   39.1468   16.6699 C   0  0  0  0  0  0  0  0  0  0  0  0
   29.7965   40.8727   16.1915 O   0  0  0  0  0  0  0  0  0  0  0  0
   29.5721   42.1201   16.8589 C   0  0  0  0  0  0  0  0  0  0  0  0
  1  2  2  0  0  0  0
  1  6  1  0  0  0  0
  2  3  1  0  0  0  0
  3  4  2  0  0  0  0
  4 14  1  0  0  0  0
  5  4  1  0  0  0  0
  6  5  1  0  0  0  0
  7  6  2  0  0  0  0
  8  9  1  0  0  0  0
  8  2  1  1  0  0  0
 10 19  1  0  0  0  0
 10  9  1  0  0  0  0
 11 10  1  0  0  0  0
 12 11  1  0  0  0  0
 12 13  1  0  0  0  0
 13  8  1  0  0  0  0
 14 15  1  0  0  0  0
 14 18  2  0  0  0  0
 15 16  1  0  0  0  0
 16 17  2  0  0  0  0
 18 17  1  0  0  0  0
 19 20  1  0  0  0  0
 20 25  2  0  0  0  0
 20 21  1  0  0  0  0
 21 22  2  0  0  0  0
 22 23  1  0  0  0  0
 23 26  1  0  0  0  0
 24 23  2  0  0  0  0
 25 24  1  0  0  0  0
 26 27  1  0  0  0  0
M  END
>  <CHROM.1>
-7.52418957,111.51879705,79.87981182,21.08632252,-134.34655849,27.92691869
38.37745699,20.31170024,2.02440294,1.16426625,1.40254588

>  <Name>
lig.pdb

>  <RI>
0

>  <Rbt.Current_Directory>
/home/itssahil/PROJECTS/Mol_Feturizer/New_Systems/rnas/5kx9

>  <Rbt.Executable>
rbdock ($Id: //depot/dev/client3/rdock/2013.1/src/exe/rbdock.cxx#4 $)

>  <Rbt.Library>
libRbt.so (2013.1, Build901 2013/11/27)

>  <Rbt.Parameter_File>
/export/apps/rDock/src/rDock_2013.1_src/data/scripts/dock_solv.prm

>  <Rbt.Receptor>
prm/blind_docking_80.prm

>  <SCORE>
-36.5499

>  <SCORE.INTER>
-32.1825

>  <SCORE.INTER.CONST>
1

>  <SCORE.INTER.POLAR>
0

>  <SCORE.INTER.ROT>
5

>  <SCORE.INTER.SOLV>
14.7655

>  <SCORE.INTER.VDW>
-33.3102

>  <SCORE.INTER.norm>
-1.19194

>  <SCORE.INTRA>
-4.36745

>  <SCORE.INTRA.DIHEDRAL>
1.92822

>  <SCORE.INTRA.DIHEDRAL.0>
2.68224

>  <SCORE.INTRA.POLAR>
0

>  <SCORE.INTRA.POLAR.0>
0

>  <SCORE.INTRA.REPUL>
0

>  <SCORE.INTRA.REPUL.0>
0

>  <SCORE.INTRA.SOLV>
-0.452478

>  <SCORE.INTRA.SOLV.lig_0>
-19.4148

>  <SCORE.INTRA.VDW>
-5.10532

>  <SCORE.INTRA.VDW.0>
5.42093

>  <SCORE.INTRA.norm>
-0.161757

>  <SCORE.RESTR>
0

>  <SCORE.RESTR.CAVITY>
0

>  <SCORE.RESTR.norm>
0

>  <SCORE.SYSTEM>
0

>  <SCORE.SYSTEM.CONST>
0

>  <SCORE.SYSTEM.DIHEDRAL>
0

>  <SCORE.SYSTEM.SOLV>
0

>  <SCORE.SYSTEM.norm>
0

>  <SCORE.heavy>
27

>  <SCORE.norm>
-1.3537

>  <RMSD>
5.397

$$$$
lig.pdb
 OpenBabel11021811523D
libRbt.so/2013.1/901 2013/11/27
 27 30  0  0  0  0  0  0  0  0999 V2000
   27.0303   38.8379   24.7104 N   0  0  0  0  0  0  0  0  0  0  0  0
   27.5668   38.9190   23.5180 C   0  0  0  0  0  0  0  0  0  0  0  0
   27.6656   37.8890   22.6403 N   0  0  0  0  0  0  0  0  0  0  0  0
   27.1296   36.6807   22.9867 C   0  0  0  0  0  0  0  0  0  0  0  0
   26.5255   36.5130   24.1996 C   0  0  0  0  0  0  0  0  0  0  0  0
   26.4793   37.6243   25.1198 C   0  0  0  0  0  0  0  0  0  0  0  0
   25.9965   37.5348   26.2554 O   0  0  0  0  0  0  0  0  0  0  0  0
   28.3278   40.1715   23.0304 C   0  0  2  0  0  0  0  0  0  0  0  0
   28.5624   40.9349   24.3440 C   0  0  0  0  0  0  0  0  0  0  0  0
   29.0601   42.2903   24.1022 N   0  0  0  0  0  0  0  0  0  0  0  0
   28.0457   43.0482   23.3521 C   0  0  0  0  0  0  0  0  0  0  0  0
   27.8085   42.4280   21.9893 C   0  0  0  0  0  0  0  0  0  0  0  0
   27.3825   40.9722   22.1188 C   0  0  0  0  0  0  0  0  0  0  0  0
   27.2720   35.6855   21.9324 C   0  0  0  0  0  0  0  0  0  0  0  0
   27.7790   36.1214   20.3424 S   0  0  0  0  0  0  0  0  0  0  0  0
   27.6583   34.5386   19.8030 C   0  0  0  0  0  0  0  0  0  0  0  0
   27.2993   33.7014   20.7845 C   0  0  0  0  0  0  0  0  0  0  0  0
   27.0649   34.3443   22.0157 C   0  0  0  0  0  0  0  0  0  0  0  0
   29.3956   42.9860   25.3571 C   0  0  0  0  0  0  0  0  0  0  0  0
   30.4203   42.3000   26.2328 C   0  0  0  0  0  0  0  0  0  0  0  0
   30.0417   41.3428   27.1630 C   0  0  0  0  0  0  0  0  0  0  0  0
   30.8024   40.9515   28.2013 N   0  0  0  0  0  0  0  0  0  0  0  0
   31.9583   41.5910   28.2994 C   0  0  0  0  0  0  0  0  0  0  0  0
   32.4375   42.5477   27.5206 N   0  0  0  0  0  0  0  0  0  0  0  0
   31.6324   42.8990   26.5070 C   0  0  0  0  0  0  0  0  0  0  0  0
   32.7080   41.2054   29.3383 O   0  0  0  0  0  0  0  0  0  0  0  0
   34.0637   40.8281   29.0711 C   0  0  0  0  0  0  0  0  0  0  0  0
  1  2  2  0  0  0  0
  1  6  1  0  0  0  0
  2  3  1  0  0  0  0
  3  4  2  0  0  0  0
  4 14  1  0  0  0  0
  5  4  1  0  0  0  0
  6  5  1  0  0  0  0
  7  6  2  0  0  0  0
  8  9  1  0  0  0  0
  8  2  1  1  0  0  0
 10 19  1  0  0  0  0
 10  9  1  0  0  0  0
 11 10  1  0  0  0  0
 12 11  1  0  0  0  0
 12 13  1  0  0  0  0
 13  8  1  0  0  0  0
 14 15  1  0  0  0  0
 14 18  2  0  0  0  0
 15 16  1  0  0  0  0
 16 17  2  0  0  0  0
 18 17  1  0  0  0  0
 19 20  1  0  0  0  0
 20 25  2  0  0  0  0
 20 21  1  0  0  0  0
 21 22  2  0  0  0  0
 22 23  1  0  0  0  0
 23 26  1  0  0  0  0
 24 23  2  0  0  0  0
 25 24  1  0  0  0  0
 26 27  1  0  0  0  0
M  END
>  <CHROM.1>
-11.21662098,14.68722103,57.65745209,-86.98692992,127.83281398,28.80256966
39.33236073,24.34405114,-2.55346455,-0.99073159,-0.12648866

>  <Name>
lig.pdb

>  <RI>
0

>  <Rbt.Current_Directory>
/home/itssahil/PROJECTS/Mol_Feturizer/New_Systems/rnas/5kx9

>  <Rbt.Executable>
rbdock ($Id: //depot/dev/client3/rdock/2013.1/src/exe/rbdock.cxx#4 $)

>  <Rbt.Library>
libRbt.so (2013.1, Build901 2013/11/27)

>  <Rbt.Parameter_File>
/export/apps/rDock/src/rDock_2013.1_src/data/scripts/dock_solv.prm

>  <Rbt.Receptor>
prm/pocket_docking_8.prm

>  <SCORE>
-44.0991

>  <SCORE.INTER>
-40.4402

>  <SCORE.INTER.CONST>
1

>  <SCORE.INTER.POLAR>
0

>  <SCORE.INTER.ROT>
5

>  <SCORE.INTER.SOLV>
17.159

>  <SCORE.INTER.VDW>
-39.6132

>  <SCORE.INTER.norm>
-1.49779

>  <SCORE.INTRA>
-3.6589

>  <SCORE.INTRA.DIHEDRAL>
2.48013

>  <SCORE.INTRA.DIHEDRAL.0>
2.68224

>  <SCORE.INTRA.POLAR>
0

>  <SCORE.INTRA.POLAR.0>
0

>  <SCORE.INTRA.REPUL>
0

>  <SCORE.INTRA.REPUL.0>
0

>  <SCORE.INTRA.SOLV>
-0.577898

>  <SCORE.INTRA.SOLV.lig_0>
-19.4148

>  <SCORE.INTRA.VDW>
-4.61002

>  <SCORE.INTRA.VDW.0>
5.42093

>  <SCORE.INTRA.norm>
-0.135515

>  <SCORE.RESTR>
0

>  <SCORE.RESTR.CAVITY>
0

>  <SCORE.RESTR.norm>
0

>  <SCORE.SYSTEM>
0

>  <SCORE.SYSTEM.CONST>
0

>  <SCORE.SYSTEM.DIHEDRAL>
0

>  <SCORE.SYSTEM.SOLV>
0

>  <SCORE.SYSTEM.norm>
0

>  <SCORE.heavy>
27

>  <SCORE.norm>
-1.6333

>  <RMSD>
5.401

$$$$
lig.pdb
 OpenBabel11021811523D
libRbt.so/2013.1/901 2013/11/27
 27 30  0  0  0  0  0  0  0  0999 V2000
   27.0639   39.3043   24.6756 N   0  0  0  0  0  0  0  0  0  0  0  0
   27.3269   39.4489   23.4004 C   0  0  0  0  0  0  0  0  0  0  0  0
   27.4394   38.4300   22.5113 N   0  0  0  0  0  0  0  0  0  0  0  0
   27.2190   37.1539   22.9474 C   0  0  0  0  0  0  0  0  0  0  0  0
   26.9112   36.9124   24.2556 C   0  0  0  0  0  0  0  0  0  0  0  0
   26.8426   38.0221   25.1763 C   0  0  0  0  0  0  0  0  0  0  0  0
   26.6214   37.8776   26.3851 O   0  0  0  0  0  0  0  0  0  0  0  0
   27.7274   40.8059   22.7810 C   0  0  2  0  0  0  0  0  0  0  0  0
   26.7749   40.9022   21.5781 C   0  0  0  0  0  0  0  0  0  0  0  0
   27.1374   42.0050   20.6861 N   0  0  0  0  0  0  0  0  0  0  0  0
   28.4811   41.7586   20.1385 C   0  0  0  0  0  0  0  0  0  0  0  0
   29.5185   41.7412   21.2438 C   0  0  0  0  0  0  0  0  0  0  0  0
   29.1812   40.6902   22.2922 C   0  0  0  0  0  0  0  0  0  0  0  0
   27.3318   36.1723   21.8770 C   0  0  0  0  0  0  0  0  0  0  0  0
   27.0138   34.4991   22.1499 S   0  0  0  0  0  0  0  0  0  0  0  0
   27.3731   34.1078   20.5598 C   0  0  0  0  0  0  0  0  0  0  0  0
   27.6735   35.1918   19.8333 C   0  0  0  0  0  0  0  0  0  0  0  0
   27.6626   36.3885   20.5761 C   0  0  0  0  0  0  0  0  0  0  0  0
   26.1620   42.1740   19.5946 C   0  0  0  0  0  0  0  0  0  0  0  0
   26.1198   41.0578   18.5750 C   0  0  0  0  0  0  0  0  0  0  0  0
   25.8581   39.7496   18.9556 C   0  0  0  0  0  0  0  0  0  0  0  0
   26.1453   38.6697   18.2064 N   0  0  0  0  0  0  0  0  0  0  0  0
   26.7491   38.9483   17.0608 C   0  0  0  0  0  0  0  0  0  0  0  0
   27.0989   40.1315   16.5820 N   0  0  0  0  0  0  0  0  0  0  0  0
   26.7922   41.1684   17.3754 C   0  0  0  0  0  0  0  0  0  0  0  0
   27.0411   37.8713   16.3226 O   0  0  0  0  0  0  0  0  0  0  0  0
   28.0208   36.9624   16.8383 C   0  0  0  0  0  0  0  0  0  0  0  0
  1  2  2  0  0  0  0
  1  6  1  0  0  0  0
  2  3  1  0  0  0  0
  3  4  2  0  0  0  0
  4 14  1  0  0  0  0
  5  4  1  0  0  0  0
  6  5  1  0  0  0  0
  7  6  2  0  0  0  0
  8  9  1  0  0  0  0
  8  2  1  6  0  0  0
 10 19  1  0  0  0  0
 10  9  1  0  0  0  0
 11 10  1  0  0  0  0
 12 11  1  0  0  0  0
 12 13  1  0  0  0  0
 13  8  1  0  0  0  0
 14 15  1  0  0  0  0
 14 18  2  0  0  0  0
 15 16  1  0  0  0  0
 16 17  2  0  0  0  0
 18 17  1  0  0  0  0
 19 20  1  0  0  0  0
 20 25  2  0  0  0  0
 20 21  1  0  0  0  0
 21 22  2  0  0  0  0
 22 23  1  0  0  0  0
 23 26  1  0  0  0  0
 24 23  2  0  0  0  0
 25 24  1  0  0  0  0
 26 27  1  0  0  0  0
M  END
>  <CHROM.1>
-176.61547391,-130.22601597,-67.92732462,57.90253290,-66.65582158,27.23087465
38.62774389,20.88474759,-1.30817540,-1.51547553,-0.81813208

>  <Name>
lig.pdb

>  <RI>
0

>  <Rbt.Current_Directory>
/home/itssahil/PROJECTS/Mol_Feturizer/New_Systems/rnas/5kx9

>  <Rbt.Executable>
rbdock ($Id: //depot/dev/client3/rdock/2013.1/src/exe/rbdock.cxx#4 $)

>  <Rbt.Library>
libRbt.so (2013.1, Build901 2013/11/27)

>  <Rbt.Parameter_File>
/export/apps/rDock/src/rDock_2013.1_src/data/scripts/dock_solv.prm

>  <Rbt.Receptor>
prm/pocket_docking_3.prm

>  <SCORE>
-36.4258

>  <SCORE.INTER>
-32.5296

>  <SCORE.INTER.CONST>
1

>  <SCORE.INTER.POLAR>
0

>  <SCORE.INTER.ROT>
5

>  <SCORE.INTER.SOLV>
14.95

>  <SCORE.INTER.VDW>
-33.6031

>  <SCORE.INTER.norm>
-1.2048

>  <SCORE.INTRA>
-3.89621

>  <SCORE.INTRA.DIHEDRAL>
3.39308

>  <SCORE.INTRA.DIHEDRAL.0>
2.68224

>  <SCORE.INTRA.POLAR>
0

>  <SCORE.INTRA.POLAR.0>
0

>  <SCORE.INTRA.REPUL>
0

>  <SCORE.INTRA.REPUL.0>
0

>  <SCORE.INTRA.SOLV>
-0.0369273

>  <SCORE.INTRA.SOLV.lig_0>
-19.4148

>  <SCORE.INTRA.VDW>
-5.57429

>  <SCORE.INTRA.VDW.0>
5.42093

>  <SCORE.INTRA.norm>
-0.144304

>  <SCORE.RESTR>
0

>  <SCORE.RESTR.CAVITY>
0

>  <SCORE.RESTR.norm>
0

>  <SCORE.SYSTEM>
0

>  <SCORE.SYSTEM.CONST>
0

>  <SCORE.SYSTEM.DIHEDRAL>
0

>  <SCORE.SYSTEM.SOLV>
0

>  <SCORE.SYSTEM.norm>
0

>  <SCORE.heavy>
27

>  <SCORE.norm>
-1.3491

>  <RMSD>
5.409

$$$$
lig.pdb
 OpenBabel11021811523D
libRbt.so/2013.1/901 2013/11/27
 27 30  0  0  0  0  0  0  0  0999 V2000
   26.8462   36.3119   23.2487 N   0  0  0  0  0  0  0  0  0  0  0  0
   27.5879   36.7547   22.2638 C   0  0  0  0  0  0  0  0  0  0  0  0
   28.0757   38.0171   22.1671 N   0  0  0  0  0  0  0  0  0  0  0  0
   27.8267   38.8944   23.1848 C   0  0  0  0  0  0  0  0  0  0  0  0
   27.0856   38.5097   24.2651 C   0  0  0  0  0  0  0  0  0  0  0  0
   26.5509   37.1695   24.3076 C   0  0  0  0  0  0  0  0  0  0  0  0
   25.8278   36.7649   25.2265 O   0  0  0  0  0  0  0  0  0  0  0  0
   27.8491   35.9323   20.9828 C   0  0  2  0  0  0  0  0  0  0  0  0
   27.1030   36.7530   19.9181 C   0  0  0  0  0  0  0  0  0  0  0  0
   27.0035   36.0312   18.6483 N   0  0  0  0  0  0  0  0  0  0  0  0
   26.2212   34.8016   18.8543 C   0  0  0  0  0  0  0  0  0  0  0  0
   26.9246   33.8716   19.8232 C   0  0  0  0  0  0  0  0  0  0  0  0
   27.1745   34.5610   21.1573 C   0  0  0  0  0  0  0  0  0  0  0  0
   28.4469   40.1939   22.9641 C   0  0  0  0  0  0  0  0  0  0  0  0
   29.5220   40.4682   21.6435 S   0  0  0  0  0  0  0  0  0  0  0  0
   29.7797   42.0598   22.1032 C   0  0  0  0  0  0  0  0  0  0  0  0
   29.0527   42.3945   23.1767 C   0  0  0  0  0  0  0  0  0  0  0  0
   28.2852   41.3314   23.6912 C   0  0  0  0  0  0  0  0  0  0  0  0
   26.3921   36.8567   17.5919 C   0  0  0  0  0  0  0  0  0  0  0  0
   27.3191   37.8356   16.9065 C   0  0  0  0  0  0  0  0  0  0  0  0
   28.6916   37.6340   16.8943 C   0  0  0  0  0  0  0  0  0  0  0  0
   29.5972   38.5947   16.6357 N   0  0  0  0  0  0  0  0  0  0  0  0
   29.0731   39.7927   16.4245 C   0  0  0  0  0  0  0  0  0  0  0  0
   27.7982   40.1475   16.4432 N   0  0  0  0  0  0  0  0  0  0  0  0
   26.9440   39.1490   16.7121 C   0  0  0  0  0  0  0  0  0  0  0  0
   29.9772   40.7472   16.1765 O   0  0  0  0  0  0  0  0  0  0  0  0
   29.7838   42.0200   16.8043 C   0  0  0  0  0  0  0  0  0  0  0  0
  1  2  2  0  0  0  0
  1  6  1  0  0  0  0
  2  3  1  0  0  0  0
  3  4  2  0  0  0  0
  4 14  1  0  0  0  0
  5  4  1  0  0  0  0
  6  5  1  0  0  0  0
  7  6  2  0  0  0  0
  8  9  1  0  0  0  0
  8  2  1  1  0  0  0
 10 19  1  0  0  0  0
 10  9  1  0  0  0  0
 11 10  1  0  0  0  0
 12 11  1  0  0  0  0
 12 13  1  0  0  0  0
 13  8  1  0  0  0  0
 14 15  1  0  0  0  0
 14 18  2  0  0  0  0
 15 16  1  0  0  0  0
 16 17  2  0  0  0  0
 18 17  1  0  0  0  0
 19 20  1  0  0  0  0
 20 25  2  0  0  0  0
 20 21  1  0  0  0  0
 21 22  2  0  0  0  0
 22 23  1  0  0  0  0
 23 26  1  0  0  0  0
 24 23  2  0  0  0  0
 25 24  1  0  0  0  0
 26 27  1  0  0  0  0
M  END
>  <CHROM.1>
-6.92196486,112.41351830,81.08055025,23.22883859,-137.69895775,27.95547560
38.37090734,20.33558496,2.06552422,1.15106848,1.34702681

>  <Name>
lig.pdb

>  <RI>
0

>  <Rbt.Current_Directory>
/home/itssahil/PROJECTS/Mol_Feturizer/New_Systems/rnas/5kx9

>  <Rbt.Executable>
rbdock ($Id: //depot/dev/client3/rdock/2013.1/src/exe/rbdock.cxx#4 $)

>  <Rbt.Library>
libRbt.so (2013.1, Build901 2013/11/27)

>  <Rbt.Parameter_File>
/export/apps/rDock/src/rDock_2013.1_src/data/scripts/dock_solv.prm

>  <Rbt.Receptor>
prm/blind_docking_100.prm

>  <SCORE>
-36.5443

>  <SCORE.INTER>
-32.2315

>  <SCORE.INTER.CONST>
1

>  <SCORE.INTER.POLAR>
0

>  <SCORE.INTER.ROT>
5

>  <SCORE.INTER.SOLV>
14.6146

>  <SCORE.INTER.VDW>
-33.2925

>  <SCORE.INTER.norm>
-1.19376

>  <SCORE.INTRA>
-4.31281

>  <SCORE.INTRA.DIHEDRAL>
1.70096

>  <SCORE.INTRA.DIHEDRAL.0>
2.68224

>  <SCORE.INTRA.POLAR>
0

>  <SCORE.INTRA.POLAR.0>
0

>  <SCORE.INTRA.REPUL>
0

>  <SCORE.INTRA.REPUL.0>
0

>  <SCORE.INTRA.SOLV>
-0.45683

>  <SCORE.INTRA.SOLV.lig_0>
-19.4148

>  <SCORE.INTRA.VDW>
-4.93487

>  <SCORE.INTRA.VDW.0>
5.42093

>  <SCORE.INTRA.norm>
-0.159734

>  <SCORE.RESTR>
0

>  <SCORE.RESTR.CAVITY>
0

>  <SCORE.RESTR.norm>
0

>  <SCORE.SYSTEM>
0

>  <SCORE.SYSTEM.CONST>
0

>  <SCORE.SYSTEM.DIHEDRAL>
0

>  <SCORE.SYSTEM.SOLV>
0

>  <SCORE.SYSTEM.norm>
0

>  <SCORE.heavy>
27

>  <SCORE.norm>
-1.35349

>  <RMSD>
5.419

$$$$
lig.pdb
 OpenBabel11021811523D
libRbt.so/2013.1/901 2013/11/27
 27 30  0  0  0  0  0  0  0  0999 V2000
   26.7890   39.3257   24.7086 N   0  0  0  0  0  0  0  0  0  0  0  0
   27.1442   39.4324   23.4522 C   0  0  0  0  0  0  0  0  0  0  0  0
   27.3149   38.3879   22.6031 N   0  0  0  0  0  0  0  0  0  0  0  0
   27.0564   37.1257   23.0584 C   0  0  0  0  0  0  0  0  0  0  0  0
   26.6535   36.9232   24.3472 C   0  0  0  0  0  0  0  0  0  0  0  0
   26.5248   38.0592   25.2285 C   0  0  0  0  0  0  0  0  0  0  0  0
   26.2162   37.9505   26.4217 O   0  0  0  0  0  0  0  0  0  0  0  0
   27.5961   40.7695   22.8249 C   0  0  2  0  0  0  0  0  0  0  0  0
   26.6707   40.8782   21.6021 C   0  0  0  0  0  0  0  0  0  0  0  0
   27.0826   41.9590   20.7045 N   0  0  0  0  0  0  0  0  0  0  0  0
   28.4291   41.6672   20.1869 C   0  0  0  0  0  0  0  0  0  0  0  0
   29.4435   41.6337   21.3130 C   0  0  0  0  0  0  0  0  0  0  0  0
   29.0553   40.6060   22.3668 C   0  0  0  0  0  0  0  0  0  0  0  0
   27.2406   36.1131   22.0274 C   0  0  0  0  0  0  0  0  0  0  0  0
   27.7980   36.5246   20.4478 S   0  0  0  0  0  0  0  0  0  0  0  0
   27.7058   34.9317   19.9329 C   0  0  0  0  0  0  0  0  0  0  0  0
   27.3194   34.1095   20.9166 C   0  0  0  0  0  0  0  0  0  0  0  0
   27.0396   34.7722   22.1276 C   0  0  0  0  0  0  0  0  0  0  0  0
   26.1343   42.1424   19.5917 C   0  0  0  0  0  0  0  0  0  0  0  0
   26.1009   41.0287   18.5690 C   0  0  0  0  0  0  0  0  0  0  0  0
   25.8597   39.7159   18.9472 C   0  0  0  0  0  0  0  0  0  0  0  0
   26.1570   38.6423   18.1929 N   0  0  0  0  0  0  0  0  0  0  0  0
   26.7496   38.9326   17.0444 C   0  0  0  0  0  0  0  0  0  0  0  0
   27.0800   40.1219   16.5671 N   0  0  0  0  0  0  0  0  0  0  0  0
   26.7641   41.1521   17.3655 C   0  0  0  0  0  0  0  0  0  0  0  0
   27.0518   37.8619   16.3011 O   0  0  0  0  0  0  0  0  0  0  0  0
   27.9729   36.9134   16.8521 C   0  0  0  0  0  0  0  0  0  0  0  0
  1  2  2  0  0  0  0
  1  6  1  0  0  0  0
  2  3  1  0  0  0  0
  3  4  2  0  0  0  0
  4 14  1  0  0  0  0
  5  4  1  0  0  0  0
  6  5  1  0  0  0  0
  7  6  2  0  0  0  0
  8  9  1  0  0  0  0
  8  2  1  6  0  0  0
 10 19  1  0  0  0  0
 10  9  1  0  0  0  0
 11 10  1  0  0  0  0
 12 11  1  0  0  0  0
 12 13  1  0  0  0  0
 13  8  1  0  0  0  0
 14 15  1  0  0  0  0
 14 18  2  0  0  0  0
 15 16  1  0  0  0  0
 16 17  2  0  0  0  0
 18 17  1  0  0  0  0
 19 20  1  0  0  0  0
 20 25  2  0  0  0  0
 20 21  1  0  0  0  0
 21 22  2  0  0  0  0
 22 23  1  0  0  0  0
 23 26  1  0  0  0  0
 24 23  2  0  0  0  0
 25 24  1  0  0  0  0
 26 27  1  0  0  0  0
M  END
>  <CHROM.1>
2.67115854,-126.78103677,-69.17296223,55.66165572,-62.11561293,27.18630764
38.71195454,20.83874495,-2.52978810,-1.56497858,-2.22801957

>  <Name>
lig.pdb

>  <RI>
0

>  <Rbt.Current_Directory>
/home/itssahil/PROJECTS/Mol_Feturizer/New_Systems/rnas/5kx9

>  <Rbt.Executable>
rbdock ($Id: //depot/dev/client3/rdock/2013.1/src/exe/rbdock.cxx#4 $)

>  <Rbt.Library>
libRbt.so (2013.1, Build901 2013/11/27)

>  <Rbt.Parameter_File>
/export/apps/rDock/src/rDock_2013.1_src/data/scripts/dock_solv.prm

>  <Rbt.Receptor>
prm/pocket_docking_6.prm

>  <SCORE>
-35.9531

>  <SCORE.INTER>
-31.6471

>  <SCORE.INTER.CONST>
1

>  <SCORE.INTER.POLAR>
0

>  <SCORE.INTER.ROT>
5

>  <SCORE.INTER.SOLV>
15.2211

>  <SCORE.INTER.VDW>
-33.1051

>  <SCORE.INTER.norm>
-1.17211

>  <SCORE.INTRA>
-4.30603

>  <SCORE.INTRA.DIHEDRAL>
3.10942

>  <SCORE.INTRA.DIHEDRAL.0>
2.68224

>  <SCORE.INTRA.POLAR>
0

>  <SCORE.INTRA.POLAR.0>
0

>  <SCORE.INTRA.REPUL>
0

>  <SCORE.INTRA.REPUL.0>
0

>  <SCORE.INTRA.SOLV>
0.209375

>  <SCORE.INTRA.SOLV.lig_0>
-19.4148

>  <SCORE.INTRA.VDW>
-5.96543

>  <SCORE.INTRA.VDW.0>
5.42093

>  <SCORE.INTRA.norm>
-0.159483

>  <SCORE.RESTR>
0

>  <SCORE.RESTR.CAVITY>
0

>  <SCORE.RESTR.norm>
0

>  <SCORE.SYSTEM>
0

>  <SCORE.SYSTEM.CONST>
0

>  <SCORE.SYSTEM.DIHEDRAL>
0

>  <SCORE.SYSTEM.SOLV>
0

>  <SCORE.SYSTEM.norm>
0

>  <SCORE.heavy>
27

>  <SCORE.norm>
-1.3316

>  <RMSD>
5.422

$$$$
lig.pdb
 OpenBabel11021811523D
libRbt.so/2013.1/901 2013/11/27
 27 30  0  0  0  0  0  0  0  0999 V2000
   27.4898   38.8980   25.6865 N   0  0  0  0  0  0  0  0  0  0  0  0
   27.0330   39.1598   24.4869 C   0  0  0  0  0  0  0  0  0  0  0  0
   26.9738   38.2663   23.4675 N   0  0  0  0  0  0  0  0  0  0  0  0
   27.3705   36.9798   23.7013 C   0  0  0  0  0  0  0  0  0  0  0  0
   27.8344   36.6107   24.9313 C   0  0  0  0  0  0  0  0  0  0  0  0
   27.9197   37.6036   25.9757 C   0  0  0  0  0  0  0  0  0  0  0  0
   28.3779   37.3580   27.0984 O   0  0  0  0  0  0  0  0  0  0  0  0
   26.6704   40.5891   24.0272 C   0  0  2  0  0  0  0  0  0  0  0  0
   27.9956   41.0753   23.4184 C   0  0  0  0  0  0  0  0  0  0  0  0
   27.9660   42.5104   23.1303 N   0  0  0  0  0  0  0  0  0  0  0  0
   27.7868   43.2500   24.3901 C   0  0  0  0  0  0  0  0  0  0  0  0
   26.4538   42.9122   25.0283 C   0  0  0  0  0  0  0  0  0  0  0  0
   26.3329   41.4156   25.2798 C   0  0  0  0  0  0  0  0  0  0  0  0
   27.2111   36.1265   22.5314 C   0  0  0  0  0  0  0  0  0  0  0  0
   27.4128   36.7406   20.9323 S   0  0  0  0  0  0  0  0  0  0  0  0
   27.0554   35.2519   20.2489 C   0  0  0  0  0  0  0  0  0  0  0  0
   26.8398   34.3132   21.1791 C   0  0  0  0  0  0  0  0  0  0  0  0
   26.9174   34.7994   22.4988 C   0  0  0  0  0  0  0  0  0  0  0  0
   29.1889   42.9594   22.4418 C   0  0  0  0  0  0  0  0  0  0  0  0
   29.5629   42.1841   21.1982 C   0  0  0  0  0  0  0  0  0  0  0  0
   28.9507   42.4443   19.9808 C   0  0  0  0  0  0  0  0  0  0  0  0
   28.9519   41.5981   18.9349 N   0  0  0  0  0  0  0  0  0  0  0  0
   29.5646   40.4471   19.1680 C   0  0  0  0  0  0  0  0  0  0  0  0
   30.1547   40.0402   20.2805 N   0  0  0  0  0  0  0  0  0  0  0  0
   30.1159   40.9234   21.2891 C   0  0  0  0  0  0  0  0  0  0  0  0
   29.5560   39.6048   18.1285 O   0  0  0  0  0  0  0  0  0  0  0  0
   30.7116   39.5873   17.2823 C   0  0  0  0  0  0  0  0  0  0  0  0
  1  2  2  0  0  0  0
  1  6  1  0  0  0  0
  2  3  1  0  0  0  0
  3  4  2  0  0  0  0
  4 14  1  0  0  0  0
  5  4  1  0  0  0  0
  6  5  1  0  0  0  0
  7  6  2  0  0  0  0
  8  9  1  0  0  0  0
  8  2  1  1  0  0  0
 10 19  1  0  0  0  0
 10  9  1  0  0  0  0
 11 10  1  0  0  0  0
 12 11  1  0  0  0  0
 12 13  1  0  0  0  0
 13  8  1  0  0  0  0
 14 15  1  0  0  0  0
 14 18  2  0  0  0  0
 15 16  1  0  0  0  0
 16 17  2  0  0  0  0
 18 17  1  0  0  0  0
 19 20  1  0  0  0  0
 20 25  2  0  0  0  0
 20 21  1  0  0  0  0
 21 22  2  0  0  0  0
 22 23  1  0  0  0  0
 23 26  1  0  0  0  0
 24 23  2  0  0  0  0
 25 24  1  0  0  0  0
 26 27  1  0  0  0  0
M  END
>  <CHROM.1>
33.07122173,90.90380763,52.60815031,80.85255022,96.50752501,28.07745196,39.30195401
22.38945136,2.82666613,-1.22193393,-2.64358509

>  <Name>
lig.pdb

>  <RI>
0

>  <Rbt.Current_Directory>
/home/itssahil/PROJECTS/Mol_Feturizer/New_Systems/rnas/5kx9

>  <Rbt.Executable>
rbdock ($Id: //depot/dev/client3/rdock/2013.1/src/exe/rbdock.cxx#4 $)

>  <Rbt.Library>
libRbt.so (2013.1, Build901 2013/11/27)

>  <Rbt.Parameter_File>
/export/apps/rDock/src/rDock_2013.1_src/data/scripts/dock_solv.prm

>  <Rbt.Receptor>
prm/pocket_docking_4.prm

>  <SCORE>
-35.8904

>  <SCORE.INTER>
-33.0295

>  <SCORE.INTER.CONST>
1

>  <SCORE.INTER.POLAR>
0

>  <SCORE.INTER.ROT>
5

>  <SCORE.INTER.SOLV>
16.2849

>  <SCORE.INTER.VDW>
-34.3813

>  <SCORE.INTER.norm>
-1.22332

>  <SCORE.INTRA>
-2.86088

>  <SCORE.INTRA.DIHEDRAL>
7.34682

>  <SCORE.INTRA.DIHEDRAL.0>
2.68224

>  <SCORE.INTRA.POLAR>
0

>  <SCORE.INTRA.POLAR.0>
0

>  <SCORE.INTRA.REPUL>
0

>  <SCORE.INTRA.REPUL.0>
0

>  <SCORE.INTRA.SOLV>
-0.404378

>  <SCORE.INTRA.SOLV.lig_0>
-19.4148

>  <SCORE.INTRA.VDW>
-6.3321

>  <SCORE.INTRA.VDW.0>
5.42093

>  <SCORE.INTRA.norm>
-0.105959

>  <SCORE.RESTR>
0

>  <SCORE.RESTR.CAVITY>
0

>  <SCORE.RESTR.norm>
0

>  <SCORE.SYSTEM>
0

>  <SCORE.SYSTEM.CONST>
0

>  <SCORE.SYSTEM.DIHEDRAL>
0

>  <SCORE.SYSTEM.SOLV>
0

>  <SCORE.SYSTEM.norm>
0

>  <SCORE.heavy>
27

>  <SCORE.norm>
-1.32927

>  <RMSD>
5.433

$$$$
lig.pdb
 OpenBabel11021811523D
libRbt.so/2013.1/901 2013/11/27
 27 30  0  0  0  0  0  0  0  0999 V2000
   26.9242   39.3996   24.7590 N   0  0  0  0  0  0  0  0  0  0  0  0
   27.2123   39.5158   23.4863 C   0  0  0  0  0  0  0  0  0  0  0  0
   27.3433   38.4774   22.6228 N   0  0  0  0  0  0  0  0  0  0  0  0
   27.1153   37.2111   23.0830 C   0  0  0  0  0  0  0  0  0  0  0  0
   26.7818   36.9987   24.3900 C   0  0  0  0  0  0  0  0  0  0  0  0
   26.6940   38.1286   25.2840 C   0  0  0  0  0  0  0  0  0  0  0  0
   26.4490   38.0111   26.4910 O   0  0  0  0  0  0  0  0  0  0  0  0
   27.6239   40.8591   22.8446 C   0  0  2  0  0  0  0  0  0  0  0  0
   26.7923   40.8641   21.5516 C   0  0  0  0  0  0  0  0  0  0  0  0
   27.2021   41.9401   20.6474 N   0  0  0  0  0  0  0  0  0  0  0  0
   28.6013   41.7236   20.2454 C   0  0  0  0  0  0  0  0  0  0  0  0
   29.5241   41.7963   21.4459 C   0  0  0  0  0  0  0  0  0  0  0  0
   29.1221   40.7800   22.5056 C   0  0  0  0  0  0  0  0  0  0  0  0
   27.2501   36.2058   22.0374 C   0  0  0  0  0  0  0  0  0  0  0  0
   26.8884   34.5449   22.3304 S   0  0  0  0  0  0  0  0  0  0  0  0
   27.3016   34.1144   20.7637 C   0  0  0  0  0  0  0  0  0  0  0  0
   27.6516   35.1774   20.0285 C   0  0  0  0  0  0  0  0  0  0  0  0
   27.6356   36.3890   20.7466 C   0  0  0  0  0  0  0  0  0  0  0  0
   26.3342   42.0218   19.4594 C   0  0  0  0  0  0  0  0  0  0  0  0
   26.3184   40.7958   18.5739 C   0  0  0  0  0  0  0  0  0  0  0  0
   26.4466   39.5229   19.1107 C   0  0  0  0  0  0  0  0  0  0  0  0
   26.7952   38.4330   18.4033 N   0  0  0  0  0  0  0  0  0  0  0  0
   27.0530   38.6735   17.1265 C   0  0  0  0  0  0  0  0  0  0  0  0
   27.0147   39.8295   16.4834 N   0  0  0  0  0  0  0  0  0  0  0  0
   26.6670   40.8797   17.2417 C   0  0  0  0  0  0  0  0  0  0  0  0
   27.4080   37.5887   16.4284 O   0  0  0  0  0  0  0  0  0  0  0  0
   28.5363   36.8411   16.8971 C   0  0  0  0  0  0  0  0  0  0  0  0
  1  2  2  0  0  0  0
  1  6  1  0  0  0  0
  2  3  1  0  0  0  0
  3  4  2  0  0  0  0
  4 14  1  0  0  0  0
  5  4  1  0  0  0  0
  6  5  1  0  0  0  0
  7  6  2  0  0  0  0
  8  9  1  0  0  0  0
  8  2  1  1  0  0  0
 10 19  1  0  0  0  0
 10  9  1  0  0  0  0
 11 10  1  0  0  0  0
 12 11  1  0  0  0  0
 12 13  1  0  0  0  0
 13  8  1  0  0  0  0
 14 15  1  0  0  0  0
 14 18  2  0  0  0  0
 15 16  1  0  0  0  0
 16 17  2  0  0  0  0
 18 17  1  0  0  0  0
 19 20  1  0  0  0  0
 20 25  2  0  0  0  0
 20 21  1  0  0  0  0
 21 22  2  0  0  0  0
 22 23  1  0  0  0  0
 23 26  1  0  0  0  0
 24 23  2  0  0  0  0
 25 24  1  0  0  0  0
 26 27  1  0  0  0  0
M  END
>  <CHROM.1>
-174.98971901,-135.37046955,-61.48285642,33.87746211,-56.69646038,27.27760112
38.57950154,20.97796339,-2.32293510,-1.51327657,-1.93562209

>  <Name>
lig.pdb

>  <RI>
0

>  <Rbt.Current_Directory>
/home/itssahil/PROJECTS/Mol_Feturizer/New_Systems/rnas/5kx9

>  <Rbt.Executable>
rbdock ($Id: //depot/dev/client3/rdock/2013.1/src/exe/rbdock.cxx#4 $)

>  <Rbt.Library>
libRbt.so (2013.1, Build901 2013/11/27)

>  <Rbt.Parameter_File>
/export/apps/rDock/src/rDock_2013.1_src/data/scripts/dock_solv.prm

>  <Rbt.Receptor>
prm/pocket_docking_2.prm

>  <SCORE>
-34.3238

>  <SCORE.INTER>
-31.9326

>  <SCORE.INTER.CONST>
1

>  <SCORE.INTER.POLAR>
0

>  <SCORE.INTER.ROT>
5

>  <SCORE.INTER.SOLV>
14.6456

>  <SCORE.INTER.VDW>
-33.1036

>  <SCORE.INTER.norm>
-1.18269

>  <SCORE.INTRA>
-2.77687

>  <SCORE.INTRA.DIHEDRAL>
2.11897

>  <SCORE.INTRA.DIHEDRAL.0>
2.68224

>  <SCORE.INTRA.POLAR>
0

>  <SCORE.INTRA.POLAR.0>
0

>  <SCORE.INTRA.REPUL>
0

>  <SCORE.INTRA.REPUL.0>
0

>  <SCORE.INTRA.SOLV>
0.166612

>  <SCORE.INTRA.SOLV.lig_0>
-19.4148

>  <SCORE.INTRA.VDW>
-3.91966

>  <SCORE.INTRA.VDW.0>
5.42093

>  <SCORE.INTRA.norm>
-0.102847

>  <SCORE.RESTR>
0.385704

>  <SCORE.RESTR.CAVITY>
0.385704

>  <SCORE.RESTR.norm>
0.0142853

>  <SCORE.SYSTEM>
0

>  <SCORE.SYSTEM.CONST>
0

>  <SCORE.SYSTEM.DIHEDRAL>
0

>  <SCORE.SYSTEM.SOLV>
0

>  <SCORE.SYSTEM.norm>
0

>  <SCORE.heavy>
27

>  <SCORE.norm>
-1.27125

>  <RMSD>
5.441

$$$$
lig.pdb
 OpenBabel11021811523D
libRbt.so/2013.1/901 2013/11/27
 27 30  0  0  0  0  0  0  0  0999 V2000
   26.5941   39.4447   25.0113 N   0  0  0  0  0  0  0  0  0  0  0  0
   27.0076   39.6444   23.7844 C   0  0  0  0  0  0  0  0  0  0  0  0
   27.2488   38.6640   22.8780 N   0  0  0  0  0  0  0  0  0  0  0  0
   27.0031   37.3681   23.2351 C   0  0  0  0  0  0  0  0  0  0  0  0
   26.5431   37.0695   24.4856 C   0  0  0  0  0  0  0  0  0  0  0  0
   26.3398   38.1401   25.4323 C   0  0  0  0  0  0  0  0  0  0  0  0
   25.9759   37.9438   26.5984 O   0  0  0  0  0  0  0  0  0  0  0  0
   27.4526   41.0314   23.2707 C   0  0  2  0  0  0  0  0  0  0  0  0
   27.0133   40.9833   21.7982 C   0  0  0  0  0  0  0  0  0  0  0  0
   27.5539   42.1088   21.0339 N   0  0  0  0  0  0  0  0  0  0  0  0
   29.0236   42.0294   21.0358 C   0  0  0  0  0  0  0  0  0  0  0  0
   29.5685   42.1651   22.4439 C   0  0  0  0  0  0  0  0  0  0  0  0
   28.9868   41.0969   23.3595 C   0  0  0  0  0  0  0  0  0  0  0  0
   27.2659   36.4320   22.1503 C   0  0  0  0  0  0  0  0  0  0  0  0
   26.8630   34.7602   22.2835 S   0  0  0  0  0  0  0  0  0  0  0  0
   27.4706   34.4284   20.7565 C   0  0  0  0  0  0  0  0  0  0  0  0
   27.9158   35.5329   20.1443 C   0  0  0  0  0  0  0  0  0  0  0  0
   27.8135   36.6948   20.9339 C   0  0  0  0  0  0  0  0  0  0  0  0
   27.0436   42.1317   19.6517 C   0  0  0  0  0  0  0  0  0  0  0  0
   27.2646   40.8680   18.8506 C   0  0  0  0  0  0  0  0  0  0  0  0
   26.2801   40.3727   18.0080 C   0  0  0  0  0  0  0  0  0  0  0  0
   26.2413   39.1095   17.5469 N   0  0  0  0  0  0  0  0  0  0  0  0
   27.2178   38.3364   17.9978 C   0  0  0  0  0  0  0  0  0  0  0  0
   28.1973   38.6503   18.8306 N   0  0  0  0  0  0  0  0  0  0  0  0
   28.1799   39.9206   19.2605 C   0  0  0  0  0  0  0  0  0  0  0  0
   27.1708   37.0786   17.5441 O   0  0  0  0  0  0  0  0  0  0  0  0
   25.8860   36.4496   17.4716 C   0  0  0  0  0  0  0  0  0  0  0  0
  1  2  2  0  0  0  0
  1  6  1  0  0  0  0
  2  3  1  0  0  0  0
  3  4  2  0  0  0  0
  4 14  1  0  0  0  0
  5  4  1  0  0  0  0
  6  5  1  0  0  0  0
  7  6  2  0  0  0  0
  8  9  1  0  0  0  0
  8  2  1  1  0  0  0
 10 19  1  0  0  0  0
 10  9  1  0  0  0  0
 11 10  1  0  0  0  0
 12 11  1  0  0  0  0
 12 13  1  0  0  0  0
 13  8  1  0  0  0  0
 14 15  1  0  0  0  0
 14 18  2  0  0  0  0
 15 16  1  0  0  0  0
 16 17  2  0  0  0  0
 18 17  1  0  0  0  0
 19 20  1  0  0  0  0
 20 25  2  0  0  0  0
 20 21  1  0  0  0  0
 21 22  2  0  0  0  0
 22 23  1  0  0  0  0
 23 26  1  0  0  0  0
 24 23  2  0  0  0  0
 25 24  1  0  0  0  0
 26 27  1  0  0  0  0
M  END
>  <CHROM.1>
-172.85076750,-146.87018496,-55.47456839,139.42092295,-41.13602851,27.27456039
38.64489597,21.36476863,-1.84993643,-1.40701021,-1.68883532

>  <Name>
lig.pdb

>  <RI>
0

>  <Rbt.Current_Directory>
/home/itssahil/PROJECTS/Mol_Feturizer/New_Systems/rnas/5kx9

>  <Rbt.Executable>
rbdock ($Id: //depot/dev/client3/rdock/2013.1/src/exe/rbdock.cxx#4 $)

>  <Rbt.Library>
libRbt.so (2013.1, Build901 2013/11/27)

>  <Rbt.Parameter_File>
/export/apps/rDock/src/rDock_2013.1_src/data/scripts/dock_solv.prm

>  <Rbt.Receptor>
prm/blind_docking_100.prm

>  <SCORE>
-33.3094

>  <SCORE.INTER>
-31.4827

>  <SCORE.INTER.CONST>
1

>  <SCORE.INTER.POLAR>
0

>  <SCORE.INTER.ROT>
5

>  <SCORE.INTER.SOLV>
14.3714

>  <SCORE.INTER.VDW>
-32.7123

>  <SCORE.INTER.norm>
-1.16603

>  <SCORE.INTRA>
-1.82663

>  <SCORE.INTRA.DIHEDRAL>
0.764189

>  <SCORE.INTRA.DIHEDRAL.0>
2.68224

>  <SCORE.INTRA.POLAR>
0

>  <SCORE.INTRA.POLAR.0>
0

>  <SCORE.INTRA.REPUL>
0

>  <SCORE.INTRA.REPUL.0>
0

>  <SCORE.INTRA.SOLV>
0.490895

>  <SCORE.INTRA.SOLV.lig_0>
-19.4148

>  <SCORE.INTRA.VDW>
-2.45417

>  <SCORE.INTRA.VDW.0>
5.42093

>  <SCORE.INTRA.norm>
-0.067653

>  <SCORE.RESTR>
0

>  <SCORE.RESTR.CAVITY>
0

>  <SCORE.RESTR.norm>
0

>  <SCORE.SYSTEM>
0

>  <SCORE.SYSTEM.CONST>
0

>  <SCORE.SYSTEM.DIHEDRAL>
0

>  <SCORE.SYSTEM.SOLV>
0

>  <SCORE.SYSTEM.norm>
0

>  <SCORE.heavy>
27

>  <SCORE.norm>
-1.23368

>  <RMSD>
5.445

$$$$
lig.pdb
 OpenBabel11021811523D
libRbt.so/2013.1/901 2013/11/27
 27 30  0  0  0  0  0  0  0  0999 V2000
   26.8281   36.6090   23.7764 N   0  0  0  0  0  0  0  0  0  0  0  0
   27.5923   36.9125   22.7566 C   0  0  0  0  0  0  0  0  0  0  0  0
   28.0710   38.1535   22.4884 N   0  0  0  0  0  0  0  0  0  0  0  0
   27.7863   39.1669   23.3597 C   0  0  0  0  0  0  0  0  0  0  0  0
   27.0196   38.9348   24.4654 C   0  0  0  0  0  0  0  0  0  0  0  0
   26.4962   37.6084   24.6902 C   0  0  0  0  0  0  0  0  0  0  0  0
   25.7520   37.3333   25.6396 O   0  0  0  0  0  0  0  0  0  0  0  0
   27.8958   35.9150   21.6171 C   0  0  2  0  0  0  0  0  0  0  0  0
   27.2566   36.6106   20.4043 C   0  0  0  0  0  0  0  0  0  0  0  0
   27.2043   35.7275   19.2378 N   0  0  0  0  0  0  0  0  0  0  0  0
   26.3554   34.5668   19.5512 C   0  0  0  0  0  0  0  0  0  0  0  0
   26.9531   33.7515   20.6809 C   0  0  0  0  0  0  0  0  0  0  0  0
   27.1498   34.6058   21.9256 C   0  0  0  0  0  0  0  0  0  0  0  0
   28.4005   40.4281   22.9669 C   0  0  0  0  0  0  0  0  0  0  0  0
   29.4877   40.5251   21.6313 S   0  0  0  0  0  0  0  0  0  0  0  0
   29.7302   42.1670   21.8682 C   0  0  0  0  0  0  0  0  0  0  0  0
   28.9899   42.6416   22.8780 C   0  0  0  0  0  0  0  0  0  0  0  0
   28.2239   41.6540   23.5276 C   0  0  0  0  0  0  0  0  0  0  0  0
   26.6990   36.4241   18.0417 C   0  0  0  0  0  0  0  0  0  0  0  0
   27.1323   37.8652   17.8907 C   0  0  0  0  0  0  0  0  0  0  0  0
   26.4186   38.8941   18.4879 C   0  0  0  0  0  0  0  0  0  0  0  0
   26.5085   40.1876   18.1291 N   0  0  0  0  0  0  0  0  0  0  0  0
   27.3224   40.4130   17.1087 C   0  0  0  0  0  0  0  0  0  0  0  0
   28.0339   39.5384   16.4156 N   0  0  0  0  0  0  0  0  0  0  0  0
   27.8987   38.2655   16.8156 C   0  0  0  0  0  0  0  0  0  0  0  0
   27.4023   41.6992   16.7490 O   0  0  0  0  0  0  0  0  0  0  0  0
   26.1781   42.4374   16.6583 C   0  0  0  0  0  0  0  0  0  0  0  0
  1  2  2  0  0  0  0
  1  6  1  0  0  0  0
  2  3  1  0  0  0  0
  3  4  2  0  0  0  0
  4 14  1  0  0  0  0
  5  4  1  0  0  0  0
  6  5  1  0  0  0  0
  7  6  2  0  0  0  0
  8  9  1  0  0  0  0
  8  2  1  1  0  0  0
 10 19  1  0  0  0  0
 10  9  1  0  0  0  0
 11 10  1  0  0  0  0
 12 11  1  0  0  0  0
 12 13  1  0  0  0  0
 13  8  1  0  0  0  0
 14 15  1  0  0  0  0
 14 18  2  0  0  0  0
 15 16  1  0  0  0  0
 16 17  2  0  0  0  0
 18 17  1  0  0  0  0
 19 20  1  0  0  0  0
 20 25  2  0  0  0  0
 20 21  1  0  0  0  0
 21 22  2  0  0  0  0
 22 23  1  0  0  0  0
 23 26  1  0  0  0  0
 24 23  2  0  0  0  0
 25 24  1  0  0  0  0
 26 27  1  0  0  0  0
M  END
>  <CHROM.1>
-5.85010376,116.23636830,37.02113423,-86.57953484,-44.62177757,27.50835946
38.56939785,20.74330585,1.69218072,1.32504497,1.92343968

>  <Name>
lig.pdb

>  <RI>
0

>  <Rbt.Current_Directory>
/home/itssahil/PROJECTS/Mol_Feturizer/New_Systems/rnas/5kx9

>  <Rbt.Executable>
rbdock ($Id: //depot/dev/client3/rdock/2013.1/src/exe/rbdock.cxx#4 $)

>  <Rbt.Library>
libRbt.so (2013.1, Build901 2013/11/27)

>  <Rbt.Parameter_File>
/export/apps/rDock/src/rDock_2013.1_src/data/scripts/dock_solv.prm

>  <Rbt.Receptor>
prm/pocket_docking_2.prm

>  <SCORE>
-28.8365

>  <SCORE.INTER>
-28.8619

>  <SCORE.INTER.CONST>
1

>  <SCORE.INTER.POLAR>
0

>  <SCORE.INTER.ROT>
5

>  <SCORE.INTER.SOLV>
13.8706

>  <SCORE.INTER.VDW>
-30.7981

>  <SCORE.INTER.norm>
-1.06896

>  <SCORE.INTRA>
-2.46911

>  <SCORE.INTRA.DIHEDRAL>
2.06244

>  <SCORE.INTRA.DIHEDRAL.0>
2.68224

>  <SCORE.INTRA.POLAR>
0

>  <SCORE.INTRA.POLAR.0>
0

>  <SCORE.INTRA.REPUL>
0

>  <SCORE.INTRA.REPUL.0>
0

>  <SCORE.INTRA.SOLV>
-0.4991

>  <SCORE.INTRA.SOLV.lig_0>
-19.4148

>  <SCORE.INTRA.VDW>
-3.25078

>  <SCORE.INTRA.VDW.0>
5.42093

>  <SCORE.INTRA.norm>
-0.0914486

>  <SCORE.RESTR>
2.49446

>  <SCORE.RESTR.CAVITY>
2.49446

>  <SCORE.RESTR.norm>
0.0923875

>  <SCORE.SYSTEM>
0

>  <SCORE.SYSTEM.CONST>
0

>  <SCORE.SYSTEM.DIHEDRAL>
0

>  <SCORE.SYSTEM.SOLV>
0

>  <SCORE.SYSTEM.norm>
0

>  <SCORE.heavy>
27

>  <SCORE.norm>
-1.06802

>  <RMSD>
5.447

$$$$
lig.pdb
 OpenBabel11021811523D
libRbt.so/2013.1/901 2013/11/27
 27 30  0  0  0  0  0  0  0  0999 V2000
   26.7797   39.3705   24.7598 N   0  0  0  0  0  0  0  0  0  0  0  0
   27.1283   39.5184   23.5057 C   0  0  0  0  0  0  0  0  0  0  0  0
   27.3120   38.5012   22.6267 N   0  0  0  0  0  0  0  0  0  0  0  0
   27.0749   37.2227   23.0468 C   0  0  0  0  0  0  0  0  0  0  0  0
   26.6804   36.9774   24.3307 C   0  0  0  0  0  0  0  0  0  0  0  0
   26.5374   38.0858   25.2444 C   0  0  0  0  0  0  0  0  0  0  0  0
   26.2352   37.9385   26.4351 O   0  0  0  0  0  0  0  0  0  0  0  0
   27.5568   40.8797   22.9152 C   0  0  2  0  0  0  0  0  0  0  0  0
   26.8255   40.8863   21.5629 C   0  0  0  0  0  0  0  0  0  0  0  0
   27.2779   41.9844   20.7069 N   0  0  0  0  0  0  0  0  0  0  0  0
   28.7080   41.8041   20.4094 C   0  0  0  0  0  0  0  0  0  0  0  0
   29.5356   41.8786   21.6774 C   0  0  0  0  0  0  0  0  0  0  0  0
   29.0777   40.8380   22.6899 C   0  0  0  0  0  0  0  0  0  0  0  0
   27.2709   36.2428   21.9868 C   0  0  0  0  0  0  0  0  0  0  0  0
   27.9095   36.6925   20.4489 S   0  0  0  0  0  0  0  0  0  0  0  0
   27.7882   35.1236   19.8705 C   0  0  0  0  0  0  0  0  0  0  0  0
   27.3329   34.2796   20.8050 C   0  0  0  0  0  0  0  0  0  0  0  0
   27.0222   34.9068   22.0274 C   0  0  0  0  0  0  0  0  0  0  0  0
   26.5007   42.0652   19.4576 C   0  0  0  0  0  0  0  0  0  0  0  0
   26.6254   40.8768   18.5304 C   0  0  0  0  0  0  0  0  0  0  0  0
   26.3810   39.5878   18.9813 C   0  0  0  0  0  0  0  0  0  0  0  0
   26.8001   38.4730   18.3555 N   0  0  0  0  0  0  0  0  0  0  0  0
   27.5176   38.6992   17.2653 C   0  0  0  0  0  0  0  0  0  0  0  0
   27.8662   39.8613   16.7366 N   0  0  0  0  0  0  0  0  0  0  0  0
   27.4246   40.9354   17.4074 C   0  0  0  0  0  0  0  0  0  0  0  0
   27.9401   37.5884   16.6507 O   0  0  0  0  0  0  0  0  0  0  0  0
   26.9768   36.5540   16.4190 C   0  0  0  0  0  0  0  0  0  0  0  0
  1  2  2  0  0  0  0
  1  6  1  0  0  0  0
  2  3  1  0  0  0  0
  3  4  2  0  0  0  0
  4 14  1  0  0  0  0
  5  4  1  0  0  0  0
  6  5  1  0  0  0  0
  7  6  2  0  0  0  0
  8  9  1  0  0  0  0
  8  2  1  1  0  0  0
 10 19  1  0  0  0  0
 10  9  1  0  0  0  0
 11 10  1  0  0  0  0
 12 11  1  0  0  0  0
 12 13  1  0  0  0  0
 13  8  1  0  0  0  0
 14 15  1  0  0  0  0
 14 18  2  0  0  0  0
 15 16  1  0  0  0  0
 16 17  2  0  0  0  0
 18 17  1  0  0  0  0
 19 20  1  0  0  0  0
 20 25  2  0  0  0  0
 20 21  1  0  0  0  0
 21 22  2  0  0  0  0
 22 23  1  0  0  0  0
 23 26  1  0  0  0  0
 24 23  2  0  0  0  0
 25 24  1  0  0  0  0
 26 27  1  0  0  0  0
M  END
>  <CHROM.1>
6.57950165,-137.13669306,-63.93189971,53.67308147,47.97320671,27.37113308
38.72034674,20.88087584,-2.35838258,-1.47789641,-2.21100182

>  <Name>
lig.pdb

>  <RI>
0

>  <Rbt.Current_Directory>
/home/itssahil/PROJECTS/Mol_Feturizer/New_Systems/rnas/5kx9

>  <Rbt.Executable>
rbdock ($Id: //depot/dev/client3/rdock/2013.1/src/exe/rbdock.cxx#4 $)

>  <Rbt.Library>
libRbt.so (2013.1, Build901 2013/11/27)

>  <Rbt.Parameter_File>
/export/apps/rDock/src/rDock_2013.1_src/data/scripts/dock_solv.prm

>  <Rbt.Receptor>
prm/pocket_docking_2.prm

>  <SCORE>
-34.0244

>  <SCORE.INTER>
-30.6424

>  <SCORE.INTER.CONST>
1

>  <SCORE.INTER.POLAR>
0

>  <SCORE.INTER.ROT>
5

>  <SCORE.INTER.SOLV>
13.6957

>  <SCORE.INTER.VDW>
-31.9268

>  <SCORE.INTER.norm>
-1.1349

>  <SCORE.INTRA>
-3.64301

>  <SCORE.INTRA.DIHEDRAL>
1.82576

>  <SCORE.INTRA.DIHEDRAL.0>
2.68224

>  <SCORE.INTRA.POLAR>
0

>  <SCORE.INTRA.POLAR.0>
0

>  <SCORE.INTRA.REPUL>
0

>  <SCORE.INTRA.REPUL.0>
0

>  <SCORE.INTRA.SOLV>
0.562058

>  <SCORE.INTRA.SOLV.lig_0>
-19.4148

>  <SCORE.INTRA.VDW>
-4.83692

>  <SCORE.INTRA.VDW.0>
5.42093

>  <SCORE.INTRA.norm>
-0.134926

>  <SCORE.RESTR>
0.260937

>  <SCORE.RESTR.CAVITY>
0.260937

>  <SCORE.RESTR.norm>
0.00966432

>  <SCORE.SYSTEM>
0

>  <SCORE.SYSTEM.CONST>
0

>  <SCORE.SYSTEM.DIHEDRAL>
0

>  <SCORE.SYSTEM.SOLV>
0

>  <SCORE.SYSTEM.norm>
0

>  <SCORE.heavy>
27

>  <SCORE.norm>
-1.26016

>  <RMSD>
5.464

$$$$
lig.pdb
 OpenBabel11021811523D
libRbt.so/2013.1/901 2013/11/27
 27 30  0  0  0  0  0  0  0  0999 V2000
   26.7651   39.1287   24.5682 N   0  0  0  0  0  0  0  0  0  0  0  0
   27.0497   39.1813   23.2905 C   0  0  0  0  0  0  0  0  0  0  0  0
   27.2314   38.1000   22.4913 N   0  0  0  0  0  0  0  0  0  0  0  0
   27.0629   36.8545   23.0274 C   0  0  0  0  0  0  0  0  0  0  0  0
   26.7375   36.7058   24.3451 C   0  0  0  0  0  0  0  0  0  0  0  0
   26.5945   37.8822   25.1693 C   0  0  0  0  0  0  0  0  0  0  0  0
   26.3532   37.8263   26.3815 O   0  0  0  0  0  0  0  0  0  0  0  0
   27.3983   40.5014   22.5685 C   0  0  2  0  0  0  0  0  0  0  0  0
   27.2477   40.1070   21.0902 C   0  0  0  0  0  0  0  0  0  0  0  0
   27.7695   41.1426   20.1966 N   0  0  0  0  0  0  0  0  0  0  0  0
   29.2114   41.3074   20.4420 C   0  0  0  0  0  0  0  0  0  0  0  0
   29.4653   41.7919   21.8558 C   0  0  0  0  0  0  0  0  0  0  0  0
   28.8682   40.8334   22.8767 C   0  0  0  0  0  0  0  0  0  0  0  0
   27.2472   35.7954   22.0443 C   0  0  0  0  0  0  0  0  0  0  0  0
   27.7779   36.1366   20.4389 S   0  0  0  0  0  0  0  0  0  0  0  0
   27.7005   34.5195   20.0033 C   0  0  0  0  0  0  0  0  0  0  0  0
   27.3385   33.7412   21.0310 C   0  0  0  0  0  0  0  0  0  0  0  0
   27.0657   34.4585   22.2122 C   0  0  0  0  0  0  0  0  0  0  0  0
   27.5241   40.8222   18.7795 C   0  0  0  0  0  0  0  0  0  0  0  0
   26.4557   41.6468   18.0968 C   0  0  0  0  0  0  0  0  0  0  0  0
   26.5841   42.0275   16.7689 C   0  0  0  0  0  0  0  0  0  0  0  0
   25.8901   43.0275   16.1961 N   0  0  0  0  0  0  0  0  0  0  0  0
   25.0781   43.6687   17.0231 C   0  0  0  0  0  0  0  0  0  0  0  0
   24.8788   43.4510   18.3133 N   0  0  0  0  0  0  0  0  0  0  0  0
   25.6024   42.4463   18.8289 C   0  0  0  0  0  0  0  0  0  0  0  0
   24.3964   44.6682   16.4519 O   0  0  0  0  0  0  0  0  0  0  0  0
   23.7238   44.3894   15.2184 C   0  0  0  0  0  0  0  0  0  0  0  0
  1  2  2  0  0  0  0
  1  6  1  0  0  0  0
  2  3  1  0  0  0  0
  3  4  2  0  0  0  0
  4 14  1  0  0  0  0
  5  4  1  0  0  0  0
  6  5  1  0  0  0  0
  7  6  2  0  0  0  0
  8  9  1  0  0  0  0
  8  2  1  1  0  0  0
 10 19  1  0  0  0  0
 10  9  1  0  0  0  0
 11 10  1  0  0  0  0
 12 11  1  0  0  0  0
 12 13  1  0  0  0  0
 13  8  1  0  0  0  0
 14 15  1  0  0  0  0
 14 18  2  0  0  0  0
 15 16  1  0  0  0  0
 16 17  2  0  0  0  0
 18 17  1  0  0  0  0
 19 20  1  0  0  0  0
 20 25  2  0  0  0  0
 20 21  1  0  0  0  0
 21 22  2  0  0  0  0
 22 23  1  0  0  0  0
 23 26  1  0  0  0  0
 24 23  2  0  0  0  0
 25 24  1  0  0  0  0
 26 27  1  0  0  0  0
M  END
>  <CHROM.1>
5.80100077,-164.56501151,107.22026923,143.66411374,48.94398251,26.87974330
39.61419265,20.69432289,-0.33125941,-1.36284452,0.51266460

>  <Name>
lig.pdb

>  <RI>
0

>  <Rbt.Current_Directory>
/home/itssahil/PROJECTS/Mol_Feturizer/New_Systems/rnas/5kx9

>  <Rbt.Executable>
rbdock ($Id: //depot/dev/client3/rdock/2013.1/src/exe/rbdock.cxx#4 $)

>  <Rbt.Library>
libRbt.so (2013.1, Build901 2013/11/27)

>  <Rbt.Parameter_File>
/export/apps/rDock/src/rDock_2013.1_src/data/scripts/dock_solv.prm

>  <Rbt.Receptor>
prm/blind_docking_100.prm

>  <SCORE>
-34.9783

>  <SCORE.INTER>
-34.6769

>  <SCORE.INTER.CONST>
1

>  <SCORE.INTER.POLAR>
0

>  <SCORE.INTER.ROT>
5

>  <SCORE.INTER.SOLV>
16.0513

>  <SCORE.INTER.VDW>
-35.4017

>  <SCORE.INTER.norm>
-1.28433

>  <SCORE.INTRA>
-0.301321

>  <SCORE.INTRA.DIHEDRAL>
3.48187

>  <SCORE.INTRA.DIHEDRAL.0>
2.68224

>  <SCORE.INTRA.POLAR>
0

>  <SCORE.INTRA.POLAR.0>
0

>  <SCORE.INTRA.REPUL>
0

>  <SCORE.INTRA.REPUL.0>
0

>  <SCORE.INTRA.SOLV>
-0.401602

>  <SCORE.INTRA.SOLV.lig_0>
-19.4148

>  <SCORE.INTRA.VDW>
-1.84145

>  <SCORE.INTRA.VDW.0>
5.42093

>  <SCORE.INTRA.norm>
-0.01116

>  <SCORE.RESTR>
0

>  <SCORE.RESTR.CAVITY>
0

>  <SCORE.RESTR.norm>
0

>  <SCORE.SYSTEM>
0

>  <SCORE.SYSTEM.CONST>
0

>  <SCORE.SYSTEM.DIHEDRAL>
0

>  <SCORE.SYSTEM.SOLV>
0

>  <SCORE.SYSTEM.norm>
0

>  <SCORE.heavy>
27

>  <SCORE.norm>
-1.29549

>  <RMSD>
5.475

$$$$
lig.pdb
 OpenBabel11021811523D
libRbt.so/2013.1/901 2013/11/27
 27 30  0  0  0  0  0  0  0  0999 V2000
   25.0179   40.4960   18.8051 N   0  0  0  0  0  0  0  0  0  0  0  0
   26.1653   39.9705   19.1569 C   0  0  0  0  0  0  0  0  0  0  0  0
   26.9197   40.3862   20.2053 N   0  0  0  0  0  0  0  0  0  0  0  0
   26.4436   41.3949   20.9946 C   0  0  0  0  0  0  0  0  0  0  0  0
   25.2423   41.9822   20.7186 C   0  0  0  0  0  0  0  0  0  0  0  0
   24.4916   41.5370   19.5688 C   0  0  0  0  0  0  0  0  0  0  0  0
   23.4221   42.0552   19.2246 O   0  0  0  0  0  0  0  0  0  0  0  0
   26.8974   38.9168   18.2972 C   0  0  2  0  0  0  0  0  0  0  0  0
   26.7802   37.6555   19.1684 C   0  0  0  0  0  0  0  0  0  0  0  0
   27.6221   36.5686   18.6654 N   0  0  0  0  0  0  0  0  0  0  0  0
   29.0320   36.9873   18.7213 C   0  0  0  0  0  0  0  0  0  0  0  0
   29.2772   38.1763   17.8133 C   0  0  0  0  0  0  0  0  0  0  0  0
   28.3713   39.3422   18.1842 C   0  0  0  0  0  0  0  0  0  0  0  0
   27.3374   41.7042   22.1025 C   0  0  0  0  0  0  0  0  0  0  0  0
   26.7852   42.5573   23.4963 S   0  0  0  0  0  0  0  0  0  0  0  0
   28.3079   42.5228   24.1971 C   0  0  0  0  0  0  0  0  0  0  0  0
   29.1908   41.8559   23.4429 C   0  0  0  0  0  0  0  0  0  0  0  0
   28.6526   41.3841   22.2298 C   0  0  0  0  0  0  0  0  0  0  0  0
   27.4268   35.3227   19.4275 C   0  0  0  0  0  0  0  0  0  0  0  0
   27.4912   35.4583   20.9325 C   0  0  0  0  0  0  0  0  0  0  0  0
   26.7081   34.6640   21.7574 C   0  0  0  0  0  0  0  0  0  0  0  0
   26.4345   34.9452   23.0442 N   0  0  0  0  0  0  0  0  0  0  0  0
   26.9492   36.0884   23.4718 C   0  0  0  0  0  0  0  0  0  0  0  0
   27.6763   36.9656   22.7986 N   0  0  0  0  0  0  0  0  0  0  0  0
   27.9107   36.6337   21.5204 C   0  0  0  0  0  0  0  0  0  0  0  0
   26.6675   36.3689   24.7493 O   0  0  0  0  0  0  0  0  0  0  0  0
   26.7234   37.7423   25.1522 C   0  0  0  0  0  0  0  0  0  0  0  0
  1  2  2  0  0  0  0
  1  6  1  0  0  0  0
  2  3  1  0  0  0  0
  3  4  2  0  0  0  0
  4 14  1  0  0  0  0
  5  4  1  0  0  0  0
  6  5  1  0  0  0  0
  7  6  2  0  0  0  0
  8  9  1  0  0  0  0
  8  2  1  1  0  0  0
 10 19  1  0  0  0  0
 10  9  1  0  0  0  0
 11 10  1  0  0  0  0
 12 11  1  0  0  0  0
 12 13  1  0  0  0  0
 13  8  1  0  0  0  0
 14 15  1  0  0  0  0
 14 18  2  0  0  0  0
 15 16  1  0  0  0  0
 16 17  2  0  0  0  0
 18 17  1  0  0  0  0
 19 20  1  0  0  0  0
 20 25  2  0  0  0  0
 20 21  1  0  0  0  0
 21 22  2  0  0  0  0
 22 23  1  0  0  0  0
 23 26  1  0  0  0  0
 24 23  2  0  0  0  0
 25 24  1  0  0  0  0
 26 27  1  0  0  0  0
M  END
>  <CHROM.1>
-160.73117601,-111.52010170,-49.22817700,146.38380451,-156.93645413,27.00518072
39.02857297,21.15398080,2.54493299,-1.38385473,1.07438676

>  <Name>
lig.pdb

>  <RI>
0

>  <Rbt.Current_Directory>
/home/itssahil/PROJECTS/Mol_Feturizer/New_Systems/rnas/5kx9

>  <Rbt.Executable>
rbdock ($Id: //depot/dev/client3/rdock/2013.1/src/exe/rbdock.cxx#4 $)

>  <Rbt.Library>
libRbt.so (2013.1, Build901 2013/11/27)

>  <Rbt.Parameter_File>
/export/apps/rDock/src/rDock_2013.1_src/data/scripts/dock_solv.prm

>  <Rbt.Receptor>
prm/blind_docking_80.prm

>  <SCORE>
-31.8269

>  <SCORE.INTER>
-30.4705

>  <SCORE.INTER.CONST>
1

>  <SCORE.INTER.POLAR>
0

>  <SCORE.INTER.ROT>
5

>  <SCORE.INTER.SOLV>
14.81

>  <SCORE.INTER.VDW>
-32.1837

>  <SCORE.INTER.norm>
-1.12854

>  <SCORE.INTRA>
-1.36657

>  <SCORE.INTRA.DIHEDRAL>
0.870017

>  <SCORE.INTRA.DIHEDRAL.0>
2.68224

>  <SCORE.INTRA.POLAR>
0

>  <SCORE.INTRA.POLAR.0>
0

>  <SCORE.INTRA.REPUL>
0

>  <SCORE.INTRA.REPUL.0>
0

>  <SCORE.INTRA.SOLV>
-0.293

>  <SCORE.INTRA.SOLV.lig_0>
-19.4148

>  <SCORE.INTRA.VDW>
-1.65507

>  <SCORE.INTRA.VDW.0>
5.42093

>  <SCORE.INTRA.norm>
-0.0506135

>  <SCORE.RESTR>
0.0102002

>  <SCORE.RESTR.CAVITY>
0.0102002

>  <SCORE.RESTR.norm>
0.000377786

>  <SCORE.SYSTEM>
0

>  <SCORE.SYSTEM.CONST>
0

>  <SCORE.SYSTEM.DIHEDRAL>
0

>  <SCORE.SYSTEM.SOLV>
0

>  <SCORE.SYSTEM.norm>
0

>  <SCORE.heavy>
27

>  <SCORE.norm>
-1.17877

>  <RMSD>
5.504

$$$$
lig.pdb
 OpenBabel11021811523D
libRbt.so/2013.1/901 2013/11/27
 27 30  0  0  0  0  0  0  0  0999 V2000
   27.6107   39.2559   25.5749 N   0  0  0  0  0  0  0  0  0  0  0  0
   27.3154   39.5484   24.3326 C   0  0  0  0  0  0  0  0  0  0  0  0
   27.2069   38.6434   23.3275 N   0  0  0  0  0  0  0  0  0  0  0  0
   27.3667   37.3183   23.6202 C   0  0  0  0  0  0  0  0  0  0  0  0
   27.6487   36.9198   24.8954 C   0  0  0  0  0  0  0  0  0  0  0  0
   27.7966   37.9195   25.9261 C   0  0  0  0  0  0  0  0  0  0  0  0
   28.1030   37.6403   27.0919 O   0  0  0  0  0  0  0  0  0  0  0  0
   27.2332   41.0017   23.8159 C   0  0  2  0  0  0  0  0  0  0  0  0
   28.2335   40.9833   22.6486 C   0  0  0  0  0  0  0  0  0  0  0  0
   28.5104   42.3317   22.1504 N   0  0  0  0  0  0  0  0  0  0  0  0
   29.1335   43.1224   23.2241 C   0  0  0  0  0  0  0  0  0  0  0  0
   28.1840   43.2835   24.3949 C   0  0  0  0  0  0  0  0  0  0  0  0
   27.7449   41.9283   24.9319 C   0  0  0  0  0  0  0  0  0  0  0  0
   27.1802   36.4641   22.4551 C   0  0  0  0  0  0  0  0  0  0  0  0
   26.7089   34.8124   22.6132 S   0  0  0  0  0  0  0  0  0  0  0  0
   26.7504   34.5772   20.9537 C   0  0  0  0  0  0  0  0  0  0  0  0
   27.0574   35.7026   20.2964 C   0  0  0  0  0  0  0  0  0  0  0  0
   27.3159   36.7975   21.1440 C   0  0  0  0  0  0  0  0  0  0  0  0
   29.3778   42.3116   20.9593 C   0  0  0  0  0  0  0  0  0  0  0  0
   29.0802   41.2248   19.9504 C   0  0  0  0  0  0  0  0  0  0  0  0
   27.8251   41.1098   19.3708 C   0  0  0  0  0  0  0  0  0  0  0  0
   27.3707   40.0010   18.7592 N   0  0  0  0  0  0  0  0  0  0  0  0
   28.2166   38.9820   18.7831 C   0  0  0  0  0  0  0  0  0  0  0  0
   29.4213   38.9259   19.3280 N   0  0  0  0  0  0  0  0  0  0  0  0
   29.8169   40.0585   19.9277 C   0  0  0  0  0  0  0  0  0  0  0  0
   27.7576   37.8784   18.1818 O   0  0  0  0  0  0  0  0  0  0  0  0
   27.1590   38.0302   16.8894 C   0  0  0  0  0  0  0  0  0  0  0  0
  1  2  2  0  0  0  0
  1  6  1  0  0  0  0
  2  3  1  0  0  0  0
  3  4  2  0  0  0  0
  4 14  1  0  0  0  0
  5  4  1  0  0  0  0
  6  5  1  0  0  0  0
  7  6  2  0  0  0  0
  8  9  1  0  0  0  0
  8  2  1  1  0  0  0
 10 19  1  0  0  0  0
 10  9  1  0  0  0  0
 11 10  1  0  0  0  0
 12 11  1  0  0  0  0
 12 13  1  0  0  0  0
 13  8  1  0  0  0  0
 14 15  1  0  0  0  0
 14 18  2  0  0  0  0
 15 16  1  0  0  0  0
 16 17  2  0  0  0  0
 18 17  1  0  0  0  0
 19 20  1  0  0  0  0
 20 25  2  0  0  0  0
 20 21  1  0  0  0  0
 21 22  2  0  0  0  0
 22 23  1  0  0  0  0
 23 26  1  0  0  0  0
 24 23  2  0  0  0  0
 25 24  1  0  0  0  0
 26 27  1  0  0  0  0
M  END
>  <CHROM.1>
-155.44799915,123.82593070,40.67639060,57.26595049,46.99277086,27.84195735
38.95140407,22.07950602,0.98403263,1.33171602,1.34958512

>  <Name>
lig.pdb

>  <RI>
0

>  <Rbt.Current_Directory>
/home/itssahil/PROJECTS/Mol_Feturizer/New_Systems/rnas/5kx9

>  <Rbt.Executable>
rbdock ($Id: //depot/dev/client3/rdock/2013.1/src/exe/rbdock.cxx#4 $)

>  <Rbt.Library>
libRbt.so (2013.1, Build901 2013/11/27)

>  <Rbt.Parameter_File>
/export/apps/rDock/src/rDock_2013.1_src/data/scripts/dock_solv.prm

>  <Rbt.Receptor>
prm/pocket_docking_3.prm

>  <SCORE>
-34.0234

>  <SCORE.INTER>
-31.8087

>  <SCORE.INTER.CONST>
1

>  <SCORE.INTER.POLAR>
0

>  <SCORE.INTER.ROT>
5

>  <SCORE.INTER.SOLV>
12.6633

>  <SCORE.INTER.VDW>
-32.3603

>  <SCORE.INTER.norm>
-1.1781

>  <SCORE.INTRA>
-2.21469

>  <SCORE.INTRA.DIHEDRAL>
4.23502

>  <SCORE.INTRA.DIHEDRAL.0>
2.68224

>  <SCORE.INTRA.POLAR>
0

>  <SCORE.INTRA.POLAR.0>
0

>  <SCORE.INTRA.REPUL>
0

>  <SCORE.INTRA.REPUL.0>
0

>  <SCORE.INTRA.SOLV>
0.192592

>  <SCORE.INTRA.SOLV.lig_0>
-19.4148

>  <SCORE.INTRA.VDW>
-4.4285

>  <SCORE.INTRA.VDW.0>
5.42093

>  <SCORE.INTRA.norm>
-0.0820256

>  <SCORE.RESTR>
0

>  <SCORE.RESTR.CAVITY>
0

>  <SCORE.RESTR.norm>
0

>  <SCORE.SYSTEM>
0

>  <SCORE.SYSTEM.CONST>
0

>  <SCORE.SYSTEM.DIHEDRAL>
0

>  <SCORE.SYSTEM.SOLV>
0

>  <SCORE.SYSTEM.norm>
0

>  <SCORE.heavy>
27

>  <SCORE.norm>
-1.26013

>  <RMSD>
5.506

$$$$
lig.pdb
 OpenBabel11021811523D
libRbt.so/2013.1/901 2013/11/27
 27 30  0  0  0  0  0  0  0  0999 V2000
   27.0037   38.8269   24.8431 N   0  0  0  0  0  0  0  0  0  0  0  0
   27.5387   38.9350   23.6521 C   0  0  0  0  0  0  0  0  0  0  0  0
   27.6430   37.9232   22.7541 N   0  0  0  0  0  0  0  0  0  0  0  0
   27.1147   36.7050   23.0767 C   0  0  0  0  0  0  0  0  0  0  0  0
   26.5127   36.5096   24.2866 C   0  0  0  0  0  0  0  0  0  0  0  0
   26.4606   37.6020   25.2287 C   0  0  0  0  0  0  0  0  0  0  0  0
   25.9793   37.4871   26.3627 O   0  0  0  0  0  0  0  0  0  0  0  0
   28.2916   40.2015   23.1890 C   0  0  2  0  0  0  0  0  0  0  0  0
   28.5450   40.9279   24.5200 C   0  0  0  0  0  0  0  0  0  0  0  0
   29.0381   42.2901   24.3092 N   0  0  0  0  0  0  0  0  0  0  0  0
   28.0122   43.0677   23.5957 C   0  0  0  0  0  0  0  0  0  0  0  0
   27.7555   42.4859   22.2196 C   0  0  0  0  0  0  0  0  0  0  0  0
   27.3324   41.0266   22.3143 C   0  0  0  0  0  0  0  0  0  0  0  0
   27.2623   35.7318   22.0028 C   0  0  0  0  0  0  0  0  0  0  0  0
   27.7921   36.1981   20.4290 S   0  0  0  0  0  0  0  0  0  0  0  0
   27.6657   34.6284   19.8537 C   0  0  0  0  0  0  0  0  0  0  0  0
   27.2881   33.7731   20.8123 C   0  0  0  0  0  0  0  0  0  0  0  0
   27.0437   34.3909   22.0542 C   0  0  0  0  0  0  0  0  0  0  0  0
   29.3915   42.9505   25.5782 C   0  0  0  0  0  0  0  0  0  0  0  0
   30.5909   42.3801   26.3018 C   0  0  0  0  0  0  0  0  0  0  0  0
   30.4373   41.4565   27.3255 C   0  0  0  0  0  0  0  0  0  0  0  0
   31.3828   41.1731   28.2396 N   0  0  0  0  0  0  0  0  0  0  0  0
   32.4915   41.8868   28.1137 C   0  0  0  0  0  0  0  0  0  0  0  0
   32.7689   42.8248   27.2223 N   0  0  0  0  0  0  0  0  0  0  0  0
   31.7866   43.0673   26.3419 C   0  0  0  0  0  0  0  0  0  0  0  0
   33.4260   41.6084   29.0299 O   0  0  0  0  0  0  0  0  0  0  0  0
   33.4393   42.4016   30.2226 C   0  0  0  0  0  0  0  0  0  0  0  0
  1  2  2  0  0  0  0
  1  6  1  0  0  0  0
  2  3  1  0  0  0  0
  3  4  2  0  0  0  0
  4 14  1  0  0  0  0
  5  4  1  0  0  0  0
  6  5  1  0  0  0  0
  7  6  2  0  0  0  0
  8  9  1  0  0  0  0
  8  2  1  1  0  0  0
 10 19  1  0  0  0  0
 10  9  1  0  0  0  0
 11 10  1  0  0  0  0
 12 11  1  0  0  0  0
 12 13  1  0  0  0  0
 13  8  1  0  0  0  0
 14 15  1  0  0  0  0
 14 18  2  0  0  0  0
 15 16  1  0  0  0  0
 16 17  2  0  0  0  0
 18 17  1  0  0  0  0
 19 20  1  0  0  0  0
 20 25  2  0  0  0  0
 20 21  1  0  0  0  0
 21 22  2  0  0  0  0
 22 23  1  0  0  0  0
 23 26  1  0  0  0  0
 24 23  2  0  0  0  0
 25 24  1  0  0  0  0
 26 27  1  0  0  0  0
M  END
>  <CHROM.1>
-10.11250201,15.66048877,67.89449845,-96.46289615,-92.76342368,28.86926528
39.46893260,24.45555670,-2.58572644,-0.98586984,-0.17927731

>  <Name>
lig.pdb

>  <RI>
0

>  <Rbt.Current_Directory>
/home/itssahil/PROJECTS/Mol_Feturizer/New_Systems/rnas/5kx9

>  <Rbt.Executable>
rbdock ($Id: //depot/dev/client3/rdock/2013.1/src/exe/rbdock.cxx#4 $)

>  <Rbt.Library>
libRbt.so (2013.1, Build901 2013/11/27)

>  <Rbt.Parameter_File>
/export/apps/rDock/src/rDock_2013.1_src/data/scripts/dock_solv.prm

>  <Rbt.Receptor>
prm/pocket_docking_8.prm

>  <SCORE>
-44.253

>  <SCORE.INTER>
-40.5446

>  <SCORE.INTER.CONST>
1

>  <SCORE.INTER.POLAR>
0

>  <SCORE.INTER.ROT>
5

>  <SCORE.INTER.SOLV>
16.9354

>  <SCORE.INTER.VDW>
-39.6082

>  <SCORE.INTER.norm>
-1.50165

>  <SCORE.INTRA>
-3.70844

>  <SCORE.INTRA.DIHEDRAL>
4.17718

>  <SCORE.INTRA.DIHEDRAL.0>
2.68224

>  <SCORE.INTRA.POLAR>
0

>  <SCORE.INTRA.POLAR.0>
0

>  <SCORE.INTRA.REPUL>
0

>  <SCORE.INTRA.REPUL.0>
0

>  <SCORE.INTRA.SOLV>
-0.622147

>  <SCORE.INTRA.SOLV.lig_0>
-19.4148

>  <SCORE.INTRA.VDW>
-5.48596

>  <SCORE.INTRA.VDW.0>
5.42093

>  <SCORE.INTRA.norm>
-0.13735

>  <SCORE.RESTR>
0

>  <SCORE.RESTR.CAVITY>
0

>  <SCORE.RESTR.norm>
0

>  <SCORE.SYSTEM>
0

>  <SCORE.SYSTEM.CONST>
0

>  <SCORE.SYSTEM.DIHEDRAL>
0

>  <SCORE.SYSTEM.SOLV>
0

>  <SCORE.SYSTEM.norm>
0

>  <SCORE.heavy>
27

>  <SCORE.norm>
-1.639

>  <RMSD>
5.509

$$$$
lig.pdb
 OpenBabel11021811523D
libRbt.so/2013.1/901 2013/11/27
 27 30  0  0  0  0  0  0  0  0999 V2000
   26.8106   36.3071   23.3377 N   0  0  0  0  0  0  0  0  0  0  0  0
   27.5606   36.6990   22.3376 C   0  0  0  0  0  0  0  0  0  0  0  0
   28.0726   37.9473   22.1949 N   0  0  0  0  0  0  0  0  0  0  0  0
   27.8408   38.8660   23.1794 C   0  0  0  0  0  0  0  0  0  0  0  0
   27.0925   38.5357   24.2728 C   0  0  0  0  0  0  0  0  0  0  0  0
   26.5321   37.2086   24.3642 C   0  0  0  0  0  0  0  0  0  0  0  0
   25.8015   36.8521   25.2969 O   0  0  0  0  0  0  0  0  0  0  0  0
   27.8056   35.8252   21.0878 C   0  0  2  0  0  0  0  0  0  0  0  0
   26.9938   36.5678   20.0140 C   0  0  0  0  0  0  0  0  0  0  0  0
   26.8753   35.7828   18.7840 N   0  0  0  0  0  0  0  0  0  0  0  0
   26.1451   34.5387   19.0762 C   0  0  0  0  0  0  0  0  0  0  0  0
   26.9148   33.6809   20.0610 C   0  0  0  0  0  0  0  0  0  0  0  0
   27.1869   34.4418   21.3512 C   0  0  0  0  0  0  0  0  0  0  0  0
   28.4859   40.1444   22.9115 C   0  0  0  0  0  0  0  0  0  0  0  0
   29.5244   40.3637   21.5518 S   0  0  0  0  0  0  0  0  0  0  0  0
   29.8366   41.9572   21.9691 C   0  0  0  0  0  0  0  0  0  0  0  0
   29.1534   42.3325   23.0578 C   0  0  0  0  0  0  0  0  0  0  0  0
   28.3765   41.3003   23.6189 C   0  0  0  0  0  0  0  0  0  0  0  0
   26.1981   36.5353   17.7133 C   0  0  0  0  0  0  0  0  0  0  0  0
   27.0505   37.5518   16.9869 C   0  0  0  0  0  0  0  0  0  0  0  0
   28.4313   37.4263   16.9402 C   0  0  0  0  0  0  0  0  0  0  0  0
   29.2746   38.4310   16.6413 N   0  0  0  0  0  0  0  0  0  0  0  0
   28.6789   39.5941   16.4252 C   0  0  0  0  0  0  0  0  0  0  0  0
   27.3872   39.8780   16.4732 N   0  0  0  0  0  0  0  0  0  0  0  0
   26.5976   38.8387   16.7816 C   0  0  0  0  0  0  0  0  0  0  0  0
   29.5215   40.5927   16.1370 O   0  0  0  0  0  0  0  0  0  0  0  0
   30.5673   40.8671   17.0766 C   0  0  0  0  0  0  0  0  0  0  0  0
  1  2  2  0  0  0  0
  1  6  1  0  0  0  0
  2  3  1  0  0  0  0
  3  4  2  0  0  0  0
  4 14  1  0  0  0  0
  5  4  1  0  0  0  0
  6  5  1  0  0  0  0
  7  6  2  0  0  0  0
  8  9  1  0  0  0  0
  8  2  1  1  0  0  0
 10 19  1  0  0  0  0
 10  9  1  0  0  0  0
 11 10  1  0  0  0  0
 12 11  1  0  0  0  0
 12 13  1  0  0  0  0
 13  8  1  0  0  0  0
 14 15  1  0  0  0  0
 14 18  2  0  0  0  0
 15 16  1  0  0  0  0
 16 17  2  0  0  0  0
 18 17  1  0  0  0  0
 19 20  1  0  0  0  0
 20 25  2  0  0  0  0
 20 21  1  0  0  0  0
 21 22  2  0  0  0  0
 22 23  1  0  0  0  0
 23 26  1  0  0  0  0
 24 23  2  0  0  0  0
 25 24  1  0  0  0  0
 26 27  1  0  0  0  0
M  END
>  <CHROM.1>
-4.83336049,108.63030640,78.66072854,24.40877870,-55.82461776,27.88569358
38.20207555,20.38379124,1.92828100,1.12839168,1.38392420

>  <Name>
lig.pdb

>  <RI>
0

>  <Rbt.Current_Directory>
/home/itssahil/PROJECTS/Mol_Feturizer/New_Systems/rnas/5kx9

>  <Rbt.Executable>
rbdock ($Id: //depot/dev/client3/rdock/2013.1/src/exe/rbdock.cxx#4 $)

>  <Rbt.Library>
libRbt.so (2013.1, Build901 2013/11/27)

>  <Rbt.Parameter_File>
/export/apps/rDock/src/rDock_2013.1_src/data/scripts/dock_solv.prm

>  <Rbt.Receptor>
prm/pocket_docking_4.prm

>  <SCORE>
-35.0532

>  <SCORE.INTER>
-30.7325

>  <SCORE.INTER.CONST>
1

>  <SCORE.INTER.POLAR>
0

>  <SCORE.INTER.ROT>
5

>  <SCORE.INTER.SOLV>
14.8548

>  <SCORE.INTER.VDW>
-32.3733

>  <SCORE.INTER.norm>
-1.13824

>  <SCORE.INTRA>
-4.32072

>  <SCORE.INTRA.DIHEDRAL>
2.60377

>  <SCORE.INTRA.DIHEDRAL.0>
2.68224

>  <SCORE.INTRA.POLAR>
0

>  <SCORE.INTRA.POLAR.0>
0

>  <SCORE.INTRA.REPUL>
0

>  <SCORE.INTRA.REPUL.0>
0

>  <SCORE.INTRA.SOLV>
-0.437294

>  <SCORE.INTRA.SOLV.lig_0>
-19.4148

>  <SCORE.INTRA.VDW>
-5.40396

>  <SCORE.INTRA.VDW.0>
5.42093

>  <SCORE.INTRA.norm>
-0.160027

>  <SCORE.RESTR>
0

>  <SCORE.RESTR.CAVITY>
0

>  <SCORE.RESTR.norm>
0

>  <SCORE.SYSTEM>
0

>  <SCORE.SYSTEM.CONST>
0

>  <SCORE.SYSTEM.DIHEDRAL>
0

>  <SCORE.SYSTEM.SOLV>
0

>  <SCORE.SYSTEM.norm>
0

>  <SCORE.heavy>
27

>  <SCORE.norm>
-1.29827

>  <RMSD>
5.514

$$$$
lig.pdb
 OpenBabel11021811523D
libRbt.so/2013.1/901 2013/11/27
 27 30  0  0  0  0  0  0  0  0999 V2000
   27.0963   39.3429   24.6421 N   0  0  0  0  0  0  0  0  0  0  0  0
   27.3153   39.4780   23.3576 C   0  0  0  0  0  0  0  0  0  0  0  0
   27.4250   38.4513   22.4773 N   0  0  0  0  0  0  0  0  0  0  0  0
   27.2499   37.1758   22.9350 C   0  0  0  0  0  0  0  0  0  0  0  0
   26.9895   36.9430   24.2550 C   0  0  0  0  0  0  0  0  0  0  0  0
   26.9225   38.0620   25.1645 C   0  0  0  0  0  0  0  0  0  0  0  0
   26.7432   37.9271   26.3813 O   0  0  0  0  0  0  0  0  0  0  0  0
   27.6625   40.8367   22.7101 C   0  0  2  0  0  0  0  0  0  0  0  0
   26.7337   40.8540   21.4852 C   0  0  0  0  0  0  0  0  0  0  0  0
   27.0615   41.9498   20.5714 N   0  0  0  0  0  0  0  0  0  0  0  0
   28.4277   41.7562   20.0592 C   0  0  0  0  0  0  0  0  0  0  0  0
   29.4396   41.8193   21.1862 C   0  0  0  0  0  0  0  0  0  0  0  0
   29.1309   40.7806   22.2555 C   0  0  0  0  0  0  0  0  0  0  0  0
   27.3531   36.1839   21.8730 C   0  0  0  0  0  0  0  0  0  0  0  0
   27.0122   34.5174   22.1584 S   0  0  0  0  0  0  0  0  0  0  0  0
   27.3715   34.1084   20.5727 C   0  0  0  0  0  0  0  0  0  0  0  0
   27.6884   35.1823   19.8385 C   0  0  0  0  0  0  0  0  0  0  0  0
   27.6909   36.3851   20.5715 C   0  0  0  0  0  0  0  0  0  0  0  0
   26.1038   42.0416   19.4553 C   0  0  0  0  0  0  0  0  0  0  0  0
   26.1255   40.8885   18.4769 C   0  0  0  0  0  0  0  0  0  0  0  0
   25.9855   39.5782   18.9107 C   0  0  0  0  0  0  0  0  0  0  0  0
   26.3402   38.4986   18.1905 N   0  0  0  0  0  0  0  0  0  0  0  0
   26.8849   38.7834   17.0172 C   0  0  0  0  0  0  0  0  0  0  0  0
   27.1203   39.9728   16.4867 N   0  0  0  0  0  0  0  0  0  0  0  0
   26.7510   41.0096   17.2532 C   0  0  0  0  0  0  0  0  0  0  0  0
   27.2445   37.7075   16.3078 O   0  0  0  0  0  0  0  0  0  0  0  0
   26.2882   36.6484   16.1826 C   0  0  0  0  0  0  0  0  0  0  0  0
  1  2  2  0  0  0  0
  1  6  1  0  0  0  0
  2  3  1  0  0  0  0
  3  4  2  0  0  0  0
  4 14  1  0  0  0  0
  5  4  1  0  0  0  0
  6  5  1  0  0  0  0
  7  6  2  0  0  0  0
  8  9  1  0  0  0  0
  8  2  1  1  0  0  0
 10 19  1  0  0  0  0
 10  9  1  0  0  0  0
 11 10  1  0  0  0  0
 12 11  1  0  0  0  0
 12 13  1  0  0  0  0
 13  8  1  0  0  0  0
 14 15  1  0  0  0  0
 14 18  2  0  0  0  0
 15 16  1  0  0  0  0
 16 17  2  0  0  0  0
 18 17  1  0  0  0  0
 19 20  1  0  0  0  0
 20 25  2  0  0  0  0
 20 21  1  0  0  0  0
 21 22  2  0  0  0  0
 22 23  1  0  0  0  0
 23 26  1  0  0  0  0
 24 23  2  0  0  0  0
 25 24  1  0  0  0  0
 26 27  1  0  0  0  0
M  END
>  <CHROM.1>
-173.66541343,-133.70882952,-67.07560911,53.99688657,47.81917118,27.18506812
38.58306675,20.81909999,-1.08828643,-1.47134256,-0.70719981

>  <Name>
lig.pdb

>  <RI>
0

>  <Rbt.Current_Directory>
/home/itssahil/PROJECTS/Mol_Feturizer/New_Systems/rnas/5kx9

>  <Rbt.Executable>
rbdock ($Id: //depot/dev/client3/rdock/2013.1/src/exe/rbdock.cxx#4 $)

>  <Rbt.Library>
libRbt.so (2013.1, Build901 2013/11/27)

>  <Rbt.Parameter_File>
/export/apps/rDock/src/rDock_2013.1_src/data/scripts/dock_solv.prm

>  <Rbt.Receptor>
prm/pocket_docking_8.prm

>  <SCORE>
-36.7611

>  <SCORE.INTER>
-33.2

>  <SCORE.INTER.CONST>
1

>  <SCORE.INTER.POLAR>
0

>  <SCORE.INTER.ROT>
5

>  <SCORE.INTER.SOLV>
14.8414

>  <SCORE.INTER.VDW>
-34.0138

>  <SCORE.INTER.norm>
-1.22963

>  <SCORE.INTRA>
-3.56116

>  <SCORE.INTRA.DIHEDRAL>
1.88571

>  <SCORE.INTRA.DIHEDRAL.0>
2.68224

>  <SCORE.INTRA.POLAR>
0

>  <SCORE.INTRA.POLAR.0>
0

>  <SCORE.INTRA.REPUL>
0

>  <SCORE.INTRA.REPUL.0>
0

>  <SCORE.INTRA.SOLV>
0.0531948

>  <SCORE.INTRA.SOLV.lig_0>
-19.4148

>  <SCORE.INTRA.VDW>
-4.53061

>  <SCORE.INTRA.VDW.0>
5.42093

>  <SCORE.INTRA.norm>
-0.131895

>  <SCORE.RESTR>
0

>  <SCORE.RESTR.CAVITY>
0

>  <SCORE.RESTR.norm>
0

>  <SCORE.SYSTEM>
0

>  <SCORE.SYSTEM.CONST>
0

>  <SCORE.SYSTEM.DIHEDRAL>
0

>  <SCORE.SYSTEM.SOLV>
0

>  <SCORE.SYSTEM.norm>
0

>  <SCORE.heavy>
27

>  <SCORE.norm>
-1.36152

>  <RMSD>
5.517

$$$$
lig.pdb
 OpenBabel11021811523D
libRbt.so/2013.1/901 2013/11/27
 27 30  0  0  0  0  0  0  0  0999 V2000
   26.6988   39.3795   24.9565 N   0  0  0  0  0  0  0  0  0  0  0  0
   27.0303   39.5730   23.7039 C   0  0  0  0  0  0  0  0  0  0  0  0
   27.2506   38.5866   22.7987 N   0  0  0  0  0  0  0  0  0  0  0  0
   27.0729   37.2892   23.1887 C   0  0  0  0  0  0  0  0  0  0  0  0
   26.7000   36.9955   24.4690 C   0  0  0  0  0  0  0  0  0  0  0  0
   26.5166   38.0740   25.4108 C   0  0  0  0  0  0  0  0  0  0  0  0
   26.2309   37.8845   26.5997 O   0  0  0  0  0  0  0  0  0  0  0  0
   27.3942   40.9658   23.1442 C   0  0  2  0  0  0  0  0  0  0  0  0
   27.6179   40.6632   21.6536 C   0  0  0  0  0  0  0  0  0  0  0  0
   28.2171   41.8005   20.9532 N   0  0  0  0  0  0  0  0  0  0  0  0
   29.5434   42.0751   21.5290 C   0  0  0  0  0  0  0  0  0  0  0  0
   29.4252   42.4809   22.9849 C   0  0  0  0  0  0  0  0  0  0  0  0
   28.7168   41.4046   23.7956 C   0  0  0  0  0  0  0  0  0  0  0  0
   27.3025   36.3449   22.1034 C   0  0  0  0  0  0  0  0  0  0  0  0
   26.9906   34.6591   22.2928 S   0  0  0  0  0  0  0  0  0  0  0  0
   27.5035   34.3257   20.7318 C   0  0  0  0  0  0  0  0  0  0  0  0
   27.8506   35.4373   20.0710 C   0  0  0  0  0  0  0  0  0  0  0  0
   27.7490   36.6087   20.8466 C   0  0  0  0  0  0  0  0  0  0  0  0
   28.3276   41.5588   19.5038 C   0  0  0  0  0  0  0  0  0  0  0  0
   27.0525   41.7387   18.7105 C   0  0  0  0  0  0  0  0  0  0  0  0
   27.0827   41.8994   17.3329 C   0  0  0  0  0  0  0  0  0  0  0  0
   26.0718   42.4092   16.6063 N   0  0  0  0  0  0  0  0  0  0  0  0
   25.0274   42.7947   17.3240 C   0  0  0  0  0  0  0  0  0  0  0  0
   24.8680   42.7441   18.6369 N   0  0  0  0  0  0  0  0  0  0  0  0
   25.9107   42.2323   19.3072 C   0  0  0  0  0  0  0  0  0  0  0  0
   24.0277   43.3093   16.5989 O   0  0  0  0  0  0  0  0  0  0  0  0
   24.3601   44.3154   15.6350 C   0  0  0  0  0  0  0  0  0  0  0  0
  1  2  2  0  0  0  0
  1  6  1  0  0  0  0
  2  3  1  0  0  0  0
  3  4  2  0  0  0  0
  4 14  1  0  0  0  0
  5  4  1  0  0  0  0
  6  5  1  0  0  0  0
  7  6  2  0  0  0  0
  8  9  1  0  0  0  0
  8  2  1  1  0  0  0
 10 19  1  0  0  0  0
 10  9  1  0  0  0  0
 11 10  1  0  0  0  0
 12 11  1  0  0  0  0
 12 13  1  0  0  0  0
 13  8  1  0  0  0  0
 14 15  1  0  0  0  0
 14 18  2  0  0  0  0
 15 16  1  0  0  0  0
 16 17  2  0  0  0  0
 18 17  1  0  0  0  0
 19 20  1  0  0  0  0
 20 25  2  0  0  0  0
 20 21  1  0  0  0  0
 21 22  2  0  0  0  0
 22 23  1  0  0  0  0
 23 26  1  0  0  0  0
 24 23  2  0  0  0  0
 25 24  1  0  0  0  0
 26 27  1  0  0  0  0
M  END
>  <CHROM.1>
-173.81378013,-176.97408485,78.71252070,162.38830855,-49.03012791,26.96320767
39.72087183,21.18382453,-0.94674795,-1.29214036,-0.15784710

>  <Name>
lig.pdb

>  <RI>
0

>  <Rbt.Current_Directory>
/home/itssahil/PROJECTS/Mol_Feturizer/New_Systems/rnas/5kx9

>  <Rbt.Executable>
rbdock ($Id: //depot/dev/client3/rdock/2013.1/src/exe/rbdock.cxx#4 $)

>  <Rbt.Library>
libRbt.so (2013.1, Build901 2013/11/27)

>  <Rbt.Parameter_File>
/export/apps/rDock/src/rDock_2013.1_src/data/scripts/dock_solv.prm

>  <Rbt.Receptor>
prm/blind_docking_60.prm

>  <SCORE>
-35.5979

>  <SCORE.INTER>
-36.643

>  <SCORE.INTER.CONST>
1

>  <SCORE.INTER.POLAR>
0

>  <SCORE.INTER.ROT>
5

>  <SCORE.INTER.SOLV>
16.4699

>  <SCORE.INTER.VDW>
-36.8519

>  <SCORE.INTER.norm>
-1.35715

>  <SCORE.INTRA>
1.04501

>  <SCORE.INTRA.DIHEDRAL>
2.34707

>  <SCORE.INTRA.DIHEDRAL.0>
2.68224

>  <SCORE.INTRA.POLAR>
0

>  <SCORE.INTRA.POLAR.0>
0

>  <SCORE.INTRA.REPUL>
0

>  <SCORE.INTRA.REPUL.0>
0

>  <SCORE.INTRA.SOLV>
-0.48281

>  <SCORE.INTRA.SOLV.lig_0>
-19.4148

>  <SCORE.INTRA.VDW>
0.112886

>  <SCORE.INTRA.VDW.0>
5.42093

>  <SCORE.INTRA.norm>
0.0387042

>  <SCORE.RESTR>
0

>  <SCORE.RESTR.CAVITY>
0

>  <SCORE.RESTR.norm>
0

>  <SCORE.SYSTEM>
0

>  <SCORE.SYSTEM.CONST>
0

>  <SCORE.SYSTEM.DIHEDRAL>
0

>  <SCORE.SYSTEM.SOLV>
0

>  <SCORE.SYSTEM.norm>
0

>  <SCORE.heavy>
27

>  <SCORE.norm>
-1.31844

>  <RMSD>
5.518

$$$$
lig.pdb
 OpenBabel11021811523D
libRbt.so/2013.1/901 2013/11/27
 27 30  0  0  0  0  0  0  0  0999 V2000
   26.5908   39.4048   25.0643 N   0  0  0  0  0  0  0  0  0  0  0  0
   26.9730   39.6541   23.8363 C   0  0  0  0  0  0  0  0  0  0  0  0
   27.2259   38.7093   22.8959 N   0  0  0  0  0  0  0  0  0  0  0  0
   27.0277   37.3962   23.2178 C   0  0  0  0  0  0  0  0  0  0  0  0
   26.6025   37.0459   24.4672 C   0  0  0  0  0  0  0  0  0  0  0  0
   26.3855   38.0807   25.4500 C   0  0  0  0  0  0  0  0  0  0  0  0
   26.0515   37.8382   26.6164 O   0  0  0  0  0  0  0  0  0  0  0  0
   27.3645   41.0691   23.3568 C   0  0  2  0  0  0  0  0  0  0  0  0
   27.1280   40.9701   21.8409 C   0  0  0  0  0  0  0  0  0  0  0  0
   27.6687   42.1304   21.1307 N   0  0  0  0  0  0  0  0  0  0  0  0
   29.1269   42.1768   21.3255 C   0  0  0  0  0  0  0  0  0  0  0  0
   29.4688   42.3714   22.7895 C   0  0  0  0  0  0  0  0  0  0  0  0
   28.8629   41.2660   23.6431 C   0  0  0  0  0  0  0  0  0  0  0  0
   27.2972   36.5018   22.1000 C   0  0  0  0  0  0  0  0  0  0  0  0
   27.9408   37.0873   20.6107 S   0  0  0  0  0  0  0  0  0  0  0  0
   27.9157   35.5568   19.9267 C   0  0  0  0  0  0  0  0  0  0  0  0
   27.4884   34.6288   20.7922 C   0  0  0  0  0  0  0  0  0  0  0  0
   27.1203   35.1548   22.0459 C   0  0  0  0  0  0  0  0  0  0  0  0
   27.3444   42.0969   19.6937 C   0  0  0  0  0  0  0  0  0  0  0  0
   28.2881   41.2926   18.8276 C   0  0  0  0  0  0  0  0  0  0  0  0
   29.1797   41.9176   17.9678 C   0  0  0  0  0  0  0  0  0  0  0  0
   29.7849   41.3112   16.9306 N   0  0  0  0  0  0  0  0  0  0  0  0
   29.4303   40.0466   16.7584 C   0  0  0  0  0  0  0  0  0  0  0  0
   28.5696   39.3305   17.4640 N   0  0  0  0  0  0  0  0  0  0  0  0
   27.9944   39.9902   18.4802 C   0  0  0  0  0  0  0  0  0  0  0  0
   30.0274   39.4496   15.7206 O   0  0  0  0  0  0  0  0  0  0  0  0
   30.6501   38.1814   15.9563 C   0  0  0  0  0  0  0  0  0  0  0  0
  1  2  2  0  0  0  0
  1  6  1  0  0  0  0
  2  3  1  0  0  0  0
  3  4  2  0  0  0  0
  4 14  1  0  0  0  0
  5  4  1  0  0  0  0
  6  5  1  0  0  0  0
  7  6  2  0  0  0  0
  8  9  1  0  0  0  0
  8  2  1  1  0  0  0
 10 19  1  0  0  0  0
 10  9  1  0  0  0  0
 11 10  1  0  0  0  0
 12 11  1  0  0  0  0
 12 13  1  0  0  0  0
 13  8  1  0  0  0  0
 14 15  1  0  0  0  0
 14 18  2  0  0  0  0
 15 16  1  0  0  0  0
 16 17  2  0  0  0  0
 18 17  1  0  0  0  0
 19 20  1  0  0  0  0
 20 25  2  0  0  0  0
 20 21  1  0  0  0  0
 21 22  2  0  0  0  0
 22 23  1  0  0  0  0
 23 26  1  0  0  0  0
 24 23  2  0  0  0  0
 25 24  1  0  0  0  0
 26 27  1  0  0  0  0
M  END
>  <CHROM.1>
5.51785184,-156.41323804,-84.84032063,-107.25824664,129.88107855,28.00272130
39.20443328,21.02706803,-3.03222124,-1.23722453,-2.74424997

>  <Name>
lig.pdb

>  <RI>
0

>  <Rbt.Current_Directory>
/home/itssahil/PROJECTS/Mol_Feturizer/New_Systems/rnas/5kx9

>  <Rbt.Executable>
rbdock ($Id: //depot/dev/client3/rdock/2013.1/src/exe/rbdock.cxx#4 $)

>  <Rbt.Library>
libRbt.so (2013.1, Build901 2013/11/27)

>  <Rbt.Parameter_File>
/export/apps/rDock/src/rDock_2013.1_src/data/scripts/dock_solv.prm

>  <Rbt.Receptor>
prm/pocket_docking_8.prm

>  <SCORE>
-33.3695

>  <SCORE.INTER>
-31.552

>  <SCORE.INTER.CONST>
1

>  <SCORE.INTER.POLAR>
0

>  <SCORE.INTER.ROT>
5

>  <SCORE.INTER.SOLV>
14.8131

>  <SCORE.INTER.VDW>
-32.9057

>  <SCORE.INTER.norm>
-1.16859

>  <SCORE.INTRA>
-1.82184

>  <SCORE.INTRA.DIHEDRAL>
2.24472

>  <SCORE.INTRA.DIHEDRAL.0>
2.68224

>  <SCORE.INTRA.POLAR>
0

>  <SCORE.INTRA.POLAR.0>
0

>  <SCORE.INTRA.REPUL>
0

>  <SCORE.INTRA.REPUL.0>
0

>  <SCORE.INTRA.SOLV>
-0.267864

>  <SCORE.INTRA.SOLV.lig_0>
-19.4148

>  <SCORE.INTRA.VDW>
-2.81027

>  <SCORE.INTRA.VDW.0>
5.42093

>  <SCORE.INTRA.norm>
-0.0674755

>  <SCORE.RESTR>
0.00439671

>  <SCORE.RESTR.CAVITY>
0.00439671

>  <SCORE.RESTR.norm>
0.000162841

>  <SCORE.SYSTEM>
0

>  <SCORE.SYSTEM.CONST>
0

>  <SCORE.SYSTEM.DIHEDRAL>
0

>  <SCORE.SYSTEM.SOLV>
0

>  <SCORE.SYSTEM.norm>
0

>  <SCORE.heavy>
27

>  <SCORE.norm>
-1.23591

>  <RMSD>
5.525

$$$$
lig.pdb
 OpenBabel11021811523D
libRbt.so/2013.1/901 2013/11/27
 27 30  0  0  0  0  0  0  0  0999 V2000
   27.4202   42.3603   21.8676 N   0  0  0  0  0  0  0  0  0  0  0  0
   26.8060   41.2610   21.5064 C   0  0  0  0  0  0  0  0  0  0  0  0
   26.8571   40.0859   22.1829 N   0  0  0  0  0  0  0  0  0  0  0  0
   27.5564   40.0362   23.3557 C   0  0  0  0  0  0  0  0  0  0  0  0
   28.2047   41.1433   23.8231 C   0  0  0  0  0  0  0  0  0  0  0  0
   28.1586   42.3616   23.0503 C   0  0  0  0  0  0  0  0  0  0  0  0
   28.7633   43.3890   23.3815 O   0  0  0  0  0  0  0  0  0  0  0  0
   26.0862   41.1170   20.1474 C   0  0  2  0  0  0  0  0  0  0  0  0
   27.0843   41.7807   19.1847 C   0  0  0  0  0  0  0  0  0  0  0  0
   26.5037   41.9832   17.8562 N   0  0  0  0  0  0  0  0  0  0  0  0
   25.3564   42.8984   17.9674 C   0  0  0  0  0  0  0  0  0  0  0  0
   24.2642   42.2913   18.8257 C   0  0  0  0  0  0  0  0  0  0  0  0
   24.7896   41.9420   20.2111 C   0  0  0  0  0  0  0  0  0  0  0  0
   27.4872   38.7267   23.9904 C   0  0  0  0  0  0  0  0  0  0  0  0
   27.1943   37.2946   23.0748 S   0  0  0  0  0  0  0  0  0  0  0  0
   27.2354   36.3339   24.4482 C   0  0  0  0  0  0  0  0  0  0  0  0
   27.5067   37.0461   25.5492 C   0  0  0  0  0  0  0  0  0  0  0  0
   27.6471   38.4265   25.3067 C   0  0  0  0  0  0  0  0  0  0  0  0
   27.4906   42.5124   16.8985 C   0  0  0  0  0  0  0  0  0  0  0  0
   28.7045   41.6422   16.6604 C   0  0  0  0  0  0  0  0  0  0  0  0
   28.6368   40.2639   16.8030 C   0  0  0  0  0  0  0  0  0  0  0  0
   29.7070   39.4643   16.9616 N   0  0  0  0  0  0  0  0  0  0  0  0
   30.8635   40.1081   17.0122 C   0  0  0  0  0  0  0  0  0  0  0  0
   31.0837   41.4106   16.9331 N   0  0  0  0  0  0  0  0  0  0  0  0
   29.9791   42.1561   16.7817 C   0  0  0  0  0  0  0  0  0  0  0  0
   31.9246   39.3103   17.1790 O   0  0  0  0  0  0  0  0  0  0  0  0
   32.1812   38.8192   18.4999 C   0  0  0  0  0  0  0  0  0  0  0  0
  1  2  2  0  0  0  0
  1  6  1  0  0  0  0
  2  3  1  0  0  0  0
  3  4  2  0  0  0  0
  4 14  1  0  0  0  0
  5  4  1  0  0  0  0
  6  5  1  0  0  0  0
  7  6  2  0  0  0  0
  8  9  1  0  0  0  0
  8  2  1  1  0  0  0
 10 19  1  0  0  0  0
 10  9  1  0  0  0  0
 11 10  1  0  0  0  0
 12 11  1  0  0  0  0
 12 13  1  0  0  0  0
 13  8  1  0  0  0  0
 14 15  1  0  0  0  0
 14 18  2  0  0  0  0
 15 16  1  0  0  0  0
 16 17  2  0  0  0  0
 18 17  1  0  0  0  0
 19 20  1  0  0  0  0
 20 25  2  0  0  0  0
 20 21  1  0  0  0  0
 21 22  2  0  0  0  0
 22 23  1  0  0  0  0
 23 26  1  0  0  0  0
 24 23  2  0  0  0  0
 25 24  1  0  0  0  0
 26 27  1  0  0  0  0
M  END
>  <CHROM.1>
25.23438740,42.60844467,60.07547784,28.24309116,-78.39302271,27.97267682
40.46506669,20.43668132,1.87370766,-0.64633221,2.10077735

>  <Name>
lig.pdb

>  <RI>
0

>  <Rbt.Current_Directory>
/home/itssahil/PROJECTS/Mol_Feturizer/New_Systems/rnas/5kx9

>  <Rbt.Executable>
rbdock ($Id: //depot/dev/client3/rdock/2013.1/src/exe/rbdock.cxx#4 $)

>  <Rbt.Library>
libRbt.so (2013.1, Build901 2013/11/27)

>  <Rbt.Parameter_File>
/export/apps/rDock/src/rDock_2013.1_src/data/scripts/dock_solv.prm

>  <Rbt.Receptor>
prm/pocket_docking_6.prm

>  <SCORE>
-34.4662

>  <SCORE.INTER>
-30.7007

>  <SCORE.INTER.CONST>
1

>  <SCORE.INTER.POLAR>
0

>  <SCORE.INTER.ROT>
5

>  <SCORE.INTER.SOLV>
14.945

>  <SCORE.INTER.VDW>
-32.3822

>  <SCORE.INTER.norm>
-1.13706

>  <SCORE.INTRA>
-3.76543

>  <SCORE.INTRA.DIHEDRAL>
5.40738

>  <SCORE.INTRA.DIHEDRAL.0>
2.68224

>  <SCORE.INTRA.POLAR>
0

>  <SCORE.INTRA.POLAR.0>
0

>  <SCORE.INTRA.REPUL>
0

>  <SCORE.INTRA.REPUL.0>
0

>  <SCORE.INTRA.SOLV>
-0.411323

>  <SCORE.INTRA.SOLV.lig_0>
-19.4148

>  <SCORE.INTRA.VDW>
-6.26345

>  <SCORE.INTRA.VDW.0>
5.42093

>  <SCORE.INTRA.norm>
-0.13946

>  <SCORE.RESTR>
0

>  <SCORE.RESTR.CAVITY>
0

>  <SCORE.RESTR.norm>
0

>  <SCORE.SYSTEM>
0

>  <SCORE.SYSTEM.CONST>
0

>  <SCORE.SYSTEM.DIHEDRAL>
0

>  <SCORE.SYSTEM.SOLV>
0

>  <SCORE.SYSTEM.norm>
0

>  <SCORE.heavy>
27

>  <SCORE.norm>
-1.27652

>  <RMSD>
5.527

$$$$
lig.pdb
 OpenBabel11021811523D
libRbt.so/2013.1/901 2013/11/27
 27 30  0  0  0  0  0  0  0  0999 V2000
   26.5555   39.4237   25.0360 N   0  0  0  0  0  0  0  0  0  0  0  0
   26.9446   39.6653   23.8086 C   0  0  0  0  0  0  0  0  0  0  0  0
   27.2088   38.7145   22.8774 N   0  0  0  0  0  0  0  0  0  0  0  0
   27.0154   37.4029   23.2085 C   0  0  0  0  0  0  0  0  0  0  0  0
   26.5838   37.0603   24.4578 C   0  0  0  0  0  0  0  0  0  0  0  0
   26.3547   38.1017   25.4308 C   0  0  0  0  0  0  0  0  0  0  0  0
   26.0142   37.8666   26.5969 O   0  0  0  0  0  0  0  0  0  0  0  0
   27.3317   41.0786   23.3205 C   0  0  2  0  0  0  0  0  0  0  0  0
   27.1135   40.9639   21.8030 C   0  0  0  0  0  0  0  0  0  0  0  0
   27.6542   42.1214   21.0882 N   0  0  0  0  0  0  0  0  0  0  0  0
   29.1097   42.1799   21.2994 C   0  0  0  0  0  0  0  0  0  0  0  0
   29.4333   42.3905   22.7654 C   0  0  0  0  0  0  0  0  0  0  0  0
   28.8253   41.2888   23.6222 C   0  0  0  0  0  0  0  0  0  0  0  0
   27.2972   36.5012   22.0996 C   0  0  0  0  0  0  0  0  0  0  0  0
   27.9301   37.0809   20.6035 S   0  0  0  0  0  0  0  0  0  0  0  0
   27.9275   35.5432   19.9354 C   0  0  0  0  0  0  0  0  0  0  0  0
   27.5152   34.6179   20.8110 C   0  0  0  0  0  0  0  0  0  0  0  0
   27.1406   35.1512   22.0597 C   0  0  0  0  0  0  0  0  0  0  0  0
   27.3468   42.0724   19.6480 C   0  0  0  0  0  0  0  0  0  0  0  0
   28.3007   41.2591   18.8017 C   0  0  0  0  0  0  0  0  0  0  0  0
   29.2167   41.8754   17.9617 C   0  0  0  0  0  0  0  0  0  0  0  0
   29.8378   41.2634   16.9372 N   0  0  0  0  0  0  0  0  0  0  0  0
   29.4743   40.0026   16.7566 C   0  0  0  0  0  0  0  0  0  0  0  0
   28.5915   39.2948   17.4431 N   0  0  0  0  0  0  0  0  0  0  0  0
   28.0013   39.9598   18.4473 C   0  0  0  0  0  0  0  0  0  0  0  0
   30.0875   39.4000   15.7314 O   0  0  0  0  0  0  0  0  0  0  0  0
   30.6589   38.1084   15.9697 C   0  0  0  0  0  0  0  0  0  0  0  0
  1  2  2  0  0  0  0
  1  6  1  0  0  0  0
  2  3  1  0  0  0  0
  3  4  2  0  0  0  0
  4 14  1  0  0  0  0
  5  4  1  0  0  0  0
  6  5  1  0  0  0  0
  7  6  2  0  0  0  0
  8  9  1  0  0  0  0
  8  2  1  1  0  0  0
 10 19  1  0  0  0  0
 10  9  1  0  0  0  0
 11 10  1  0  0  0  0
 12 11  1  0  0  0  0
 12 13  1  0  0  0  0
 13  8  1  0  0  0  0
 14 15  1  0  0  0  0
 14 18  2  0  0  0  0
 15 16  1  0  0  0  0
 16 17  2  0  0  0  0
 18 17  1  0  0  0  0
 19 20  1  0  0  0  0
 20 25  2  0  0  0  0
 20 21  1  0  0  0  0
 21 22  2  0  0  0  0
 22 23  1  0  0  0  0
 23 26  1  0  0  0  0
 24 23  2  0  0  0  0
 25 24  1  0  0  0  0
 26 27  1  0  0  0  0
M  END
>  <CHROM.1>
4.78682513,-156.71777791,-84.43874251,-106.22154477,131.62661722,28.00089782
39.19438057,21.01304911,-3.04619017,-1.23027125,-2.76772179

>  <Name>
lig.pdb

>  <RI>
0

>  <Rbt.Current_Directory>
/home/itssahil/PROJECTS/Mol_Feturizer/New_Systems/rnas/5kx9

>  <Rbt.Executable>
rbdock ($Id: //depot/dev/client3/rdock/2013.1/src/exe/rbdock.cxx#4 $)

>  <Rbt.Library>
libRbt.so (2013.1, Build901 2013/11/27)

>  <Rbt.Parameter_File>
/export/apps/rDock/src/rDock_2013.1_src/data/scripts/dock_solv.prm

>  <Rbt.Receptor>
prm/pocket_docking_5.prm

>  <SCORE>
-33.4238

>  <SCORE.INTER>
-31.5987

>  <SCORE.INTER.CONST>
1

>  <SCORE.INTER.POLAR>
0

>  <SCORE.INTER.ROT>
5

>  <SCORE.INTER.SOLV>
14.791

>  <SCORE.INTER.VDW>
-32.9295

>  <SCORE.INTER.norm>
-1.17032

>  <SCORE.INTRA>
-1.82511

>  <SCORE.INTRA.DIHEDRAL>
2.05042

>  <SCORE.INTRA.DIHEDRAL.0>
2.68224

>  <SCORE.INTRA.POLAR>
0

>  <SCORE.INTRA.POLAR.0>
0

>  <SCORE.INTRA.REPUL>
0

>  <SCORE.INTRA.REPUL.0>
0

>  <SCORE.INTRA.SOLV>
-0.263269

>  <SCORE.INTRA.SOLV.lig_0>
-19.4148

>  <SCORE.INTRA.VDW>
-2.71869

>  <SCORE.INTRA.VDW.0>
5.42093

>  <SCORE.INTRA.norm>
-0.0675968

>  <SCORE.RESTR>
0

>  <SCORE.RESTR.CAVITY>
0

>  <SCORE.RESTR.norm>
0

>  <SCORE.SYSTEM>
0

>  <SCORE.SYSTEM.CONST>
0

>  <SCORE.SYSTEM.DIHEDRAL>
0

>  <SCORE.SYSTEM.SOLV>
0

>  <SCORE.SYSTEM.norm>
0

>  <SCORE.heavy>
27

>  <SCORE.norm>
-1.23792

>  <RMSD>
5.528

$$$$
lig.pdb
 OpenBabel11021811523D
libRbt.so/2013.1/901 2013/11/27
 27 30  0  0  0  0  0  0  0  0999 V2000
   26.7480   36.7916   23.9149 N   0  0  0  0  0  0  0  0  0  0  0  0
   27.5431   37.1164   22.9256 C   0  0  0  0  0  0  0  0  0  0  0  0
   28.0421   38.3592   22.7078 N   0  0  0  0  0  0  0  0  0  0  0  0
   27.7445   39.3496   23.6010 C   0  0  0  0  0  0  0  0  0  0  0  0
   26.9453   39.0936   24.6781 C   0  0  0  0  0  0  0  0  0  0  0  0
   26.4019   37.7672   24.8489 C   0  0  0  0  0  0  0  0  0  0  0  0
   25.6291   37.4726   25.7691 O   0  0  0  0  0  0  0  0  0  0  0  0
   27.8670   36.1498   21.7654 C   0  0  2  0  0  0  0  0  0  0  0  0
   27.3378   36.9236   20.5469 C   0  0  0  0  0  0  0  0  0  0  0  0
   27.3143   36.0903   19.3435 N   0  0  0  0  0  0  0  0  0  0  0  0
   26.3923   34.9631   19.5573 C   0  0  0  0  0  0  0  0  0  0  0  0
   26.8794   34.0752   20.6853 C   0  0  0  0  0  0  0  0  0  0  0  0
   27.0407   34.8693   21.9741 C   0  0  0  0  0  0  0  0  0  0  0  0
   28.3825   40.6148   23.2629 C   0  0  0  0  0  0  0  0  0  0  0  0
   29.4796   40.7466   21.9384 S   0  0  0  0  0  0  0  0  0  0  0  0
   29.7487   42.3732   22.2428 C   0  0  0  0  0  0  0  0  0  0  0  0
   29.0102   42.8195   23.2668 C   0  0  0  0  0  0  0  0  0  0  0  0
   28.2234   41.8200   23.8716 C   0  0  0  0  0  0  0  0  0  0  0  0
   26.9176   36.8577   18.1498 C   0  0  0  0  0  0  0  0  0  0  0  0
   27.7805   38.0566   17.8249 C   0  0  0  0  0  0  0  0  0  0  0  0
   27.2491   39.1716   17.1933 C   0  0  0  0  0  0  0  0  0  0  0  0
   27.9813   40.1053   16.5593 N   0  0  0  0  0  0  0  0  0  0  0  0
   29.2827   39.8587   16.5464 C   0  0  0  0  0  0  0  0  0  0  0  0
   29.9293   38.8269   17.0648 N   0  0  0  0  0  0  0  0  0  0  0  0
   29.1462   37.9273   17.6782 C   0  0  0  0  0  0  0  0  0  0  0  0
   30.0065   40.7848   15.9073 O   0  0  0  0  0  0  0  0  0  0  0  0
   30.3143   41.9897   16.6181 C   0  0  0  0  0  0  0  0  0  0  0  0
  1  2  2  0  0  0  0
  1  6  1  0  0  0  0
  2  3  1  0  0  0  0
  3  4  2  0  0  0  0
  4 14  1  0  0  0  0
  5  4  1  0  0  0  0
  6  5  1  0  0  0  0
  7  6  2  0  0  0  0
  8  9  1  0  0  0  0
  8  2  1  1  0  0  0
 10 19  1  0  0  0  0
 10  9  1  0  0  0  0
 11 10  1  0  0  0  0
 12 11  1  0  0  0  0
 12 13  1  0  0  0  0
 13  8  1  0  0  0  0
 14 15  1  0  0  0  0
 14 18  2  0  0  0  0
 15 16  1  0  0  0  0
 16 17  2  0  0  0  0
 18 17  1  0  0  0  0
 19 20  1  0  0  0  0
 20 25  2  0  0  0  0
 20 21  1  0  0  0  0
 21 22  2  0  0  0  0
 22 23  1  0  0  0  0
 23 26  1  0  0  0  0
 24 23  2  0  0  0  0
 25 24  1  0  0  0  0
 26 27  1  0  0  0  0
M  END
>  <CHROM.1>
-4.44652922,119.22182846,57.77462605,-149.76323518,80.17081177,28.04556400
38.64172531,20.77548727,2.29514532,1.14666174,1.14823937

>  <Name>
lig.pdb

>  <RI>
0

>  <Rbt.Current_Directory>
/home/itssahil/PROJECTS/Mol_Feturizer/New_Systems/rnas/5kx9

>  <Rbt.Executable>
rbdock ($Id: //depot/dev/client3/rdock/2013.1/src/exe/rbdock.cxx#4 $)

>  <Rbt.Library>
libRbt.so (2013.1, Build901 2013/11/27)

>  <Rbt.Parameter_File>
/export/apps/rDock/src/rDock_2013.1_src/data/scripts/dock_solv.prm

>  <Rbt.Receptor>
prm/pocket_docking_4.prm

>  <SCORE>
-34.3964

>  <SCORE.INTER>
-31.0324

>  <SCORE.INTER.CONST>
1

>  <SCORE.INTER.POLAR>
0

>  <SCORE.INTER.ROT>
5

>  <SCORE.INTER.SOLV>
14.2694

>  <SCORE.INTER.VDW>
-32.3781

>  <SCORE.INTER.norm>
-1.14935

>  <SCORE.INTRA>
-3.36398

>  <SCORE.INTRA.DIHEDRAL>
4.20505

>  <SCORE.INTRA.DIHEDRAL.0>
2.68224

>  <SCORE.INTRA.POLAR>
0

>  <SCORE.INTRA.POLAR.0>
0

>  <SCORE.INTRA.REPUL>
0

>  <SCORE.INTRA.REPUL.0>
0

>  <SCORE.INTRA.SOLV>
-0.575393

>  <SCORE.INTRA.SOLV.lig_0>
-19.4148

>  <SCORE.INTRA.VDW>
-5.17881

>  <SCORE.INTRA.VDW.0>
5.42093

>  <SCORE.INTRA.norm>
-0.124592

>  <SCORE.RESTR>
0

>  <SCORE.RESTR.CAVITY>
0

>  <SCORE.RESTR.norm>
0

>  <SCORE.SYSTEM>
0

>  <SCORE.SYSTEM.CONST>
0

>  <SCORE.SYSTEM.DIHEDRAL>
0

>  <SCORE.SYSTEM.SOLV>
0

>  <SCORE.SYSTEM.norm>
0

>  <SCORE.heavy>
27

>  <SCORE.norm>
-1.27394

>  <RMSD>
5.540

$$$$
lig.pdb
 OpenBabel11021811523D
libRbt.so/2013.1/901 2013/11/27
 27 30  0  0  0  0  0  0  0  0999 V2000
   26.5864   37.0130   24.3274 N   0  0  0  0  0  0  0  0  0  0  0  0
   27.4365   37.3050   23.3743 C   0  0  0  0  0  0  0  0  0  0  0  0
   27.9549   38.5384   23.1485 N   0  0  0  0  0  0  0  0  0  0  0  0
   27.6155   39.5557   23.9952 C   0  0  0  0  0  0  0  0  0  0  0  0
   26.7570   39.3352   25.0339 C   0  0  0  0  0  0  0  0  0  0  0  0
   26.1963   38.0171   25.2127 C   0  0  0  0  0  0  0  0  0  0  0  0
   25.3725   37.7532   26.0973 O   0  0  0  0  0  0  0  0  0  0  0  0
   27.8169   36.3034   22.2618 C   0  0  2  0  0  0  0  0  0  0  0  0
   27.5213   37.1123   20.9883 C   0  0  0  0  0  0  0  0  0  0  0  0
   27.5763   36.2748   19.7888 N   0  0  0  0  0  0  0  0  0  0  0  0
   26.5354   35.2381   19.8782 C   0  0  0  0  0  0  0  0  0  0  0  0
   26.7905   34.3187   21.0562 C   0  0  0  0  0  0  0  0  0  0  0  0
   26.8571   35.1053   22.3579 C   0  0  0  0  0  0  0  0  0  0  0  0
   28.2794   40.8074   23.6564 C   0  0  0  0  0  0  0  0  0  0  0  0
   28.0365   42.2387   24.5878 S   0  0  0  0  0  0  0  0  0  0  0  0
   29.0452   43.1329   23.5909 C   0  0  0  0  0  0  0  0  0  0  0  0
   29.5859   42.3821   22.6230 C   0  0  0  0  0  0  0  0  0  0  0  0
   29.1509   41.0426   22.6397 C   0  0  0  0  0  0  0  0  0  0  0  0
   27.4079   37.0654   18.5568 C   0  0  0  0  0  0  0  0  0  0  0  0
   28.5234   38.0379   18.2447 C   0  0  0  0  0  0  0  0  0  0  0  0
   28.5265   39.3191   18.7768 C   0  0  0  0  0  0  0  0  0  0  0  0
   29.2544   40.3407   18.2905 N   0  0  0  0  0  0  0  0  0  0  0  0
   29.9608   40.0391   17.2114 C   0  0  0  0  0  0  0  0  0  0  0  0
   30.0286   38.8839   16.5692 N   0  0  0  0  0  0  0  0  0  0  0  0
   29.2774   37.9061   17.0968 C   0  0  0  0  0  0  0  0  0  0  0  0
   30.6764   41.0599   16.7255 O   0  0  0  0  0  0  0  0  0  0  0  0
   30.0394   41.9194   15.7731 C   0  0  0  0  0  0  0  0  0  0  0  0
  1  2  2  0  0  0  0
  1  6  1  0  0  0  0
  2  3  1  0  0  0  0
  3  4  2  0  0  0  0
  4 14  1  0  0  0  0
  5  4  1  0  0  0  0
  6  5  1  0  0  0  0
  7  6  2  0  0  0  0
  8  9  1  0  0  0  0
  8  2  1  1  0  0  0
 10 19  1  0  0  0  0
 10  9  1  0  0  0  0
 11 10  1  0  0  0  0
 12 11  1  0  0  0  0
 12 13  1  0  0  0  0
 13  8  1  0  0  0  0
 14 15  1  0  0  0  0
 14 18  2  0  0  0  0
 15 16  1  0  0  0  0
 16 17  2  0  0  0  0
 18 17  1  0  0  0  0
 19 20  1  0  0  0  0
 20 25  2  0  0  0  0
 20 21  1  0  0  0  0
 21 22  2  0  0  0  0
 22 23  1  0  0  0  0
 23 26  1  0  0  0  0
 24 23  2  0  0  0  0
 25 24  1  0  0  0  0
 26 27  1  0  0  0  0
M  END
>  <CHROM.1>
-179.07573743,125.89902193,66.52619635,-86.35081220,-88.57922235,28.09574767
38.89521424,21.30470605,2.40510263,1.12443055,0.87770136

>  <Name>
lig.pdb

>  <RI>
0

>  <Rbt.Current_Directory>
/home/itssahil/PROJECTS/Mol_Feturizer/New_Systems/rnas/5kx9

>  <Rbt.Executable>
rbdock ($Id: //depot/dev/client3/rdock/2013.1/src/exe/rbdock.cxx#4 $)

>  <Rbt.Library>
libRbt.so (2013.1, Build901 2013/11/27)

>  <Rbt.Parameter_File>
/export/apps/rDock/src/rDock_2013.1_src/data/scripts/dock_solv.prm

>  <Rbt.Receptor>
prm/pocket_docking_5.prm

>  <SCORE>
-33.0214

>  <SCORE.INTER>
-29.8379

>  <SCORE.INTER.CONST>
1

>  <SCORE.INTER.POLAR>
0

>  <SCORE.INTER.ROT>
5

>  <SCORE.INTER.SOLV>
13.8044

>  <SCORE.INTER.VDW>
-31.4268

>  <SCORE.INTER.norm>
-1.10511

>  <SCORE.INTRA>
-3.24932

>  <SCORE.INTRA.DIHEDRAL>
3.77346

>  <SCORE.INTRA.DIHEDRAL.0>
2.68224

>  <SCORE.INTRA.POLAR>
0

>  <SCORE.INTRA.POLAR.0>
0

>  <SCORE.INTRA.REPUL>
0

>  <SCORE.INTRA.REPUL.0>
0

>  <SCORE.INTRA.SOLV>
-0.58376

>  <SCORE.INTRA.SOLV.lig_0>
-19.4148

>  <SCORE.INTRA.VDW>
-4.84417

>  <SCORE.INTRA.VDW.0>
5.42093

>  <SCORE.INTRA.norm>
-0.120345

>  <SCORE.RESTR>
0.0659031

>  <SCORE.RESTR.CAVITY>
0.0659031

>  <SCORE.RESTR.norm>
0.00244086

>  <SCORE.SYSTEM>
0

>  <SCORE.SYSTEM.CONST>
0

>  <SCORE.SYSTEM.DIHEDRAL>
0

>  <SCORE.SYSTEM.SOLV>
0

>  <SCORE.SYSTEM.norm>
0

>  <SCORE.heavy>
27

>  <SCORE.norm>
-1.22301

>  <RMSD>
5.554

$$$$
lig.pdb
 OpenBabel11021811523D
libRbt.so/2013.1/901 2013/11/27
 27 30  0  0  0  0  0  0  0  0999 V2000
   26.5773   39.4220   25.0911 N   0  0  0  0  0  0  0  0  0  0  0  0
   26.9187   39.6590   23.8487 C   0  0  0  0  0  0  0  0  0  0  0  0
   27.1744   38.7043   22.9191 N   0  0  0  0  0  0  0  0  0  0  0  0
   27.0246   37.3923   23.2704 C   0  0  0  0  0  0  0  0  0  0  0  0
   26.6440   37.0536   24.5372 C   0  0  0  0  0  0  0  0  0  0  0  0
   26.4225   38.1001   25.5065 C   0  0  0  0  0  0  0  0  0  0  0  0
   26.1275   37.8702   26.6859 O   0  0  0  0  0  0  0  0  0  0  0  0
   27.2543   41.0756   23.3327 C   0  0  2  0  0  0  0  0  0  0  0  0
   26.9782   40.9411   21.8263 C   0  0  0  0  0  0  0  0  0  0  0  0
   27.4639   42.1032   21.0800 N   0  0  0  0  0  0  0  0  0  0  0  0
   28.9249   42.1957   21.2320 C   0  0  0  0  0  0  0  0  0  0  0  0
   29.3021   42.4278   22.6818 C   0  0  0  0  0  0  0  0  0  0  0  0
   28.7536   41.3215   23.5722 C   0  0  0  0  0  0  0  0  0  0  0  0
   27.2907   36.4850   22.1622 C   0  0  0  0  0  0  0  0  0  0  0  0
   26.9864   34.7920   22.2890 S   0  0  0  0  0  0  0  0  0  0  0  0
   27.5440   34.5123   20.7327 C   0  0  0  0  0  0  0  0  0  0  0  0
   27.9006   35.6469   20.1176 C   0  0  0  0  0  0  0  0  0  0  0  0
   27.7692   36.7920   20.9271 C   0  0  0  0  0  0  0  0  0  0  0  0
   27.1003   42.0331   19.6537 C   0  0  0  0  0  0  0  0  0  0  0  0
   27.2754   40.6813   18.9986 C   0  0  0  0  0  0  0  0  0  0  0  0
   28.4933   40.0181   19.0388 C   0  0  0  0  0  0  0  0  0  0  0  0
   28.8398   39.0173   18.2093 N   0  0  0  0  0  0  0  0  0  0  0  0
   27.9240   38.7252   17.2980 C   0  0  0  0  0  0  0  0  0  0  0  0
   26.7425   39.2906   17.1089 N   0  0  0  0  0  0  0  0  0  0  0  0
   26.4558   40.2852   17.9618 C   0  0  0  0  0  0  0  0  0  0  0  0
   28.2758   37.7354   16.4694 O   0  0  0  0  0  0  0  0  0  0  0  0
   27.4706   36.5508   16.4751 C   0  0  0  0  0  0  0  0  0  0  0  0
  1  2  2  0  0  0  0
  1  6  1  0  0  0  0
  2  3  1  0  0  0  0
  3  4  2  0  0  0  0
  4 14  1  0  0  0  0
  5  4  1  0  0  0  0
  6  5  1  0  0  0  0
  7  6  2  0  0  0  0
  8  9  1  0  0  0  0
  8  2  1  1  0  0  0
 10 19  1  0  0  0  0
 10  9  1  0  0  0  0
 11 10  1  0  0  0  0
 12 11  1  0  0  0  0
 12 13  1  0  0  0  0
 13  8  1  0  0  0  0
 14 15  1  0  0  0  0
 14 18  2  0  0  0  0
 15 16  1  0  0  0  0
 16 17  2  0  0  0  0
 18 17  1  0  0  0  0
 19 20  1  0  0  0  0
 20 25  2  0  0  0  0
 20 21  1  0  0  0  0
 21 22  2  0  0  0  0
 22 23  1  0  0  0  0
 23 26  1  0  0  0  0
 24 23  2  0  0  0  0
 25 24  1  0  0  0  0
 26 27  1  0  0  0  0
M  END
>  <CHROM.1>
-172.45580572,-156.33685172,-42.91556093,-54.73600931,117.99847268,27.45124843
38.73431022,21.25860932,-2.42485586,-1.41187627,-2.34839215

>  <Name>
lig.pdb

>  <RI>
0

>  <Rbt.Current_Directory>
/home/itssahil/PROJECTS/Mol_Feturizer/New_Systems/rnas/5kx9

>  <Rbt.Executable>
rbdock ($Id: //depot/dev/client3/rdock/2013.1/src/exe/rbdock.cxx#4 $)

>  <Rbt.Library>
libRbt.so (2013.1, Build901 2013/11/27)

>  <Rbt.Parameter_File>
/export/apps/rDock/src/rDock_2013.1_src/data/scripts/dock_solv.prm

>  <Rbt.Receptor>
prm/pocket_docking_7.prm

>  <SCORE>
-33.4558

>  <SCORE.INTER>
-31.6249

>  <SCORE.INTER.CONST>
1

>  <SCORE.INTER.POLAR>
0

>  <SCORE.INTER.ROT>
5

>  <SCORE.INTER.SOLV>
14.1857

>  <SCORE.INTER.VDW>
-32.7452

>  <SCORE.INTER.norm>
-1.17129

>  <SCORE.INTRA>
-1.86941

>  <SCORE.INTRA.DIHEDRAL>
3.63686

>  <SCORE.INTRA.DIHEDRAL.0>
2.68224

>  <SCORE.INTRA.POLAR>
0

>  <SCORE.INTRA.POLAR.0>
0

>  <SCORE.INTRA.REPUL>
0

>  <SCORE.INTRA.REPUL.0>
0

>  <SCORE.INTRA.SOLV>
-0.247242

>  <SCORE.INTRA.SOLV.lig_0>
-19.4148

>  <SCORE.INTRA.VDW>
-3.56422

>  <SCORE.INTRA.VDW.0>
5.42093

>  <SCORE.INTRA.norm>
-0.0692376

>  <SCORE.RESTR>
0.0384539

>  <SCORE.RESTR.CAVITY>
0.0384539

>  <SCORE.RESTR.norm>
0.00142422

>  <SCORE.SYSTEM>
0

>  <SCORE.SYSTEM.CONST>
0

>  <SCORE.SYSTEM.DIHEDRAL>
0

>  <SCORE.SYSTEM.SOLV>
0

>  <SCORE.SYSTEM.norm>
0

>  <SCORE.heavy>
27

>  <SCORE.norm>
-1.23911

>  <RMSD>
5.560

$$$$
lig.pdb
 OpenBabel11021811523D
libRbt.so/2013.1/901 2013/11/27
 27 30  0  0  0  0  0  0  0  0999 V2000
   27.5658   39.3207   25.4949 N   0  0  0  0  0  0  0  0  0  0  0  0
   27.3033   39.6022   24.2426 C   0  0  0  0  0  0  0  0  0  0  0  0
   27.2258   38.6889   23.2422 N   0  0  0  0  0  0  0  0  0  0  0  0
   27.3828   37.3668   23.5498 C   0  0  0  0  0  0  0  0  0  0  0  0
   27.6315   36.9795   24.8353 C   0  0  0  0  0  0  0  0  0  0  0  0
   27.7473   37.9879   25.8617 C   0  0  0  0  0  0  0  0  0  0  0  0
   28.0229   37.7192   27.0376 O   0  0  0  0  0  0  0  0  0  0  0  0
   27.2295   41.0510   23.7123 C   0  0  2  0  0  0  0  0  0  0  0  0
   28.1950   41.0037   22.5169 C   0  0  0  0  0  0  0  0  0  0  0  0
   28.4791   42.3420   21.9958 N   0  0  0  0  0  0  0  0  0  0  0  0
   29.1456   43.1338   23.0422 C   0  0  0  0  0  0  0  0  0  0  0  0
   28.2332   43.3230   24.2380 C   0  0  0  0  0  0  0  0  0  0  0  0
   27.7882   41.9810   24.8026 C   0  0  0  0  0  0  0  0  0  0  0  0
   27.2315   36.5026   22.3869 C   0  0  0  0  0  0  0  0  0  0  0  0
   26.8270   34.8337   22.5493 S   0  0  0  0  0  0  0  0  0  0  0  0
   26.8788   34.5959   20.8905 C   0  0  0  0  0  0  0  0  0  0  0  0
   27.1406   35.7310   20.2302 C   0  0  0  0  0  0  0  0  0  0  0  0
   27.3544   36.8377   21.0750 C   0  0  0  0  0  0  0  0  0  0  0  0
   29.3111   42.2948   20.7805 C   0  0  0  0  0  0  0  0  0  0  0  0
   28.5567   42.1968   19.4734 C   0  0  0  0  0  0  0  0  0  0  0  0
   29.1407   42.5903   18.2781 C   0  0  0  0  0  0  0  0  0  0  0  0
   28.4550   42.8721   17.1554 N   0  0  0  0  0  0  0  0  0  0  0  0
   27.1398   42.7819   17.2850 C   0  0  0  0  0  0  0  0  0  0  0  0
   26.4396   42.4617   18.3614 N   0  0  0  0  0  0  0  0  0  0  0  0
   27.1772   42.1976   19.4500 C   0  0  0  0  0  0  0  0  0  0  0  0
   26.4611   43.0715   16.1690 O   0  0  0  0  0  0  0  0  0  0  0  0
   25.5951   44.2121   16.1992 C   0  0  0  0  0  0  0  0  0  0  0  0
  1  2  2  0  0  0  0
  1  6  1  0  0  0  0
  2  3  1  0  0  0  0
  3  4  2  0  0  0  0
  4 14  1  0  0  0  0
  5  4  1  0  0  0  0
  6  5  1  0  0  0  0
  7  6  2  0  0  0  0
  8  9  1  0  0  0  0
  8  2  1  1  0  0  0
 10 19  1  0  0  0  0
 10  9  1  0  0  0  0
 11 10  1  0  0  0  0
 12 11  1  0  0  0  0
 12 13  1  0  0  0  0
 13  8  1  0  0  0  0
 14 15  1  0  0  0  0
 14 18  2  0  0  0  0
 15 16  1  0  0  0  0
 16 17  2  0  0  0  0
 18 17  1  0  0  0  0
 19 20  1  0  0  0  0
 20 25  2  0  0  0  0
 20 21  1  0  0  0  0
 21 22  2  0  0  0  0
 22 23  1  0  0  0  0
 23 26  1  0  0  0  0
 24 23  2  0  0  0  0
 25 24  1  0  0  0  0
 26 27  1  0  0  0  0
M  END
>  <CHROM.1>
-158.04537337,127.25269475,89.28985123,157.96679709,-116.39102017,27.57448735
39.94360333,21.68998367,-1.58632752,-1.35217446,-0.78175483

>  <Name>
lig.pdb

>  <RI>
0

>  <Rbt.Current_Directory>
/home/itssahil/PROJECTS/Mol_Feturizer/New_Systems/rnas/5kx9

>  <Rbt.Executable>
rbdock ($Id: //depot/dev/client3/rdock/2013.1/src/exe/rbdock.cxx#4 $)

>  <Rbt.Library>
libRbt.so (2013.1, Build901 2013/11/27)

>  <Rbt.Parameter_File>
/export/apps/rDock/src/rDock_2013.1_src/data/scripts/dock_solv.prm

>  <Rbt.Receptor>
prm/blind_docking_100.prm

>  <SCORE>
-37.3963

>  <SCORE.INTER>
-35.3627

>  <SCORE.INTER.CONST>
1

>  <SCORE.INTER.POLAR>
0

>  <SCORE.INTER.ROT>
5

>  <SCORE.INTER.SOLV>
15.7359

>  <SCORE.INTER.VDW>
-35.7538

>  <SCORE.INTER.norm>
-1.30973

>  <SCORE.INTRA>
-2.03357

>  <SCORE.INTRA.DIHEDRAL>
5.47299

>  <SCORE.INTRA.DIHEDRAL.0>
2.68224

>  <SCORE.INTRA.POLAR>
0

>  <SCORE.INTRA.POLAR.0>
0

>  <SCORE.INTRA.REPUL>
0

>  <SCORE.INTRA.REPUL.0>
0

>  <SCORE.INTRA.SOLV>
-0.534688

>  <SCORE.INTRA.SOLV.lig_0>
-19.4148

>  <SCORE.INTRA.VDW>
-4.50272

>  <SCORE.INTRA.VDW.0>
5.42093

>  <SCORE.INTRA.norm>
-0.0753174

>  <SCORE.RESTR>
0

>  <SCORE.RESTR.CAVITY>
0

>  <SCORE.RESTR.norm>
0

>  <SCORE.SYSTEM>
0

>  <SCORE.SYSTEM.CONST>
0

>  <SCORE.SYSTEM.DIHEDRAL>
0

>  <SCORE.SYSTEM.SOLV>
0

>  <SCORE.SYSTEM.norm>
0

>  <SCORE.heavy>
27

>  <SCORE.norm>
-1.38505

>  <RMSD>
5.564

$$$$
lig.pdb
 OpenBabel11021811523D
libRbt.so/2013.1/901 2013/11/27
 27 30  0  0  0  0  0  0  0  0999 V2000
   27.5802   39.2862   25.5278 N   0  0  0  0  0  0  0  0  0  0  0  0
   27.3078   39.5693   24.2780 C   0  0  0  0  0  0  0  0  0  0  0  0
   27.2333   38.6586   23.2750 N   0  0  0  0  0  0  0  0  0  0  0  0
   27.4047   37.3371   23.5772 C   0  0  0  0  0  0  0  0  0  0  0  0
   27.6645   36.9479   24.8600 C   0  0  0  0  0  0  0  0  0  0  0  0
   27.7766   37.9540   25.8891 C   0  0  0  0  0  0  0  0  0  0  0  0
   28.0616   37.6841   27.0624 O   0  0  0  0  0  0  0  0  0  0  0  0
   27.2170   41.0190   23.7530 C   0  0  2  0  0  0  0  0  0  0  0  0
   28.1454   40.9746   22.5284 C   0  0  0  0  0  0  0  0  0  0  0  0
   28.4126   42.3140   22.0014 N   0  0  0  0  0  0  0  0  0  0  0  0
   29.1106   43.1042   23.0284 C   0  0  0  0  0  0  0  0  0  0  0  0
   28.2352   43.2906   24.2520 C   0  0  0  0  0  0  0  0  0  0  0  0
   27.8084   41.9473   24.8274 C   0  0  0  0  0  0  0  0  0  0  0  0
   27.2549   36.4753   22.4123 C   0  0  0  0  0  0  0  0  0  0  0  0
   26.8335   34.8102   22.5698 S   0  0  0  0  0  0  0  0  0  0  0  0
   26.8968   34.5733   20.9113 C   0  0  0  0  0  0  0  0  0  0  0  0
   27.1747   35.7065   20.2542 C   0  0  0  0  0  0  0  0  0  0  0  0
   27.3918   36.8103   21.1017 C   0  0  0  0  0  0  0  0  0  0  0  0
   29.2069   42.2696   20.7611 C   0  0  0  0  0  0  0  0  0  0  0  0
   28.4172   42.0933   19.4833 C   0  0  0  0  0  0  0  0  0  0  0  0
   28.8968   42.5727   18.2730 C   0  0  0  0  0  0  0  0  0  0  0  0
   28.1350   42.7794   17.1835 N   0  0  0  0  0  0  0  0  0  0  0  0
   26.8482   42.5217   17.3635 C   0  0  0  0  0  0  0  0  0  0  0  0
   26.2393   42.1018   18.4609 N   0  0  0  0  0  0  0  0  0  0  0  0
   27.0489   41.9196   19.5145 C   0  0  0  0  0  0  0  0  0  0  0  0
   26.0926   42.7370   16.2806 O   0  0  0  0  0  0  0  0  0  0  0  0
   25.8823   44.0963   15.8809 C   0  0  0  0  0  0  0  0  0  0  0  0
  1  2  2  0  0  0  0
  1  6  1  0  0  0  0
  2  3  1  0  0  0  0
  3  4  2  0  0  0  0
  4 14  1  0  0  0  0
  5  4  1  0  0  0  0
  6  5  1  0  0  0  0
  7  6  2  0  0  0  0
  8  9  1  0  0  0  0
  8  2  1  1  0  0  0
 10 19  1  0  0  0  0
 10  9  1  0  0  0  0
 11 10  1  0  0  0  0
 12 11  1  0  0  0  0
 12 13  1  0  0  0  0
 13  8  1  0  0  0  0
 14 15  1  0  0  0  0
 14 18  2  0  0  0  0
 15 16  1  0  0  0  0
 16 17  2  0  0  0  0
 18 17  1  0  0  0  0
 19 20  1  0  0  0  0
 20 25  2  0  0  0  0
 20 21  1  0  0  0  0
 21 22  2  0  0  0  0
 22 23  1  0  0  0  0
 23 26  1  0  0  0  0
 24 23  2  0  0  0  0
 25 24  1  0  0  0  0
 26 27  1  0  0  0  0
M  END
>  <CHROM.1>
-156.68463165,128.77595826,85.89599097,152.81180078,-70.69151390,27.52597280
39.86619500,21.70592309,-1.49171030,-1.34443918,-0.71367151

>  <Name>
lig.pdb

>  <RI>
0

>  <Rbt.Current_Directory>
/home/itssahil/PROJECTS/Mol_Feturizer/New_Systems/rnas/5kx9

>  <Rbt.Executable>
rbdock ($Id: //depot/dev/client3/rdock/2013.1/src/exe/rbdock.cxx#4 $)

>  <Rbt.Library>
libRbt.so (2013.1, Build901 2013/11/27)

>  <Rbt.Parameter_File>
/export/apps/rDock/src/rDock_2013.1_src/data/scripts/dock_solv.prm

>  <Rbt.Receptor>
prm/pocket_docking_8.prm

>  <SCORE>
-36.8765

>  <SCORE.INTER>
-35.1363

>  <SCORE.INTER.CONST>
1

>  <SCORE.INTER.POLAR>
0

>  <SCORE.INTER.ROT>
5

>  <SCORE.INTER.SOLV>
15.1674

>  <SCORE.INTER.VDW>
-35.4133

>  <SCORE.INTER.norm>
-1.30134

>  <SCORE.INTRA>
-1.74025

>  <SCORE.INTRA.DIHEDRAL>
5.83221

>  <SCORE.INTRA.DIHEDRAL.0>
2.68224

>  <SCORE.INTRA.POLAR>
0

>  <SCORE.INTRA.POLAR.0>
0

>  <SCORE.INTRA.REPUL>
0

>  <SCORE.INTRA.REPUL.0>
0

>  <SCORE.INTRA.SOLV>
-0.521671

>  <SCORE.INTRA.SOLV.lig_0>
-19.4148

>  <SCORE.INTRA.VDW>
-4.39552

>  <SCORE.INTRA.VDW.0>
5.42093

>  <SCORE.INTRA.norm>
-0.0644537

>  <SCORE.RESTR>
0

>  <SCORE.RESTR.CAVITY>
0

>  <SCORE.RESTR.norm>
0

>  <SCORE.SYSTEM>
0

>  <SCORE.SYSTEM.CONST>
0

>  <SCORE.SYSTEM.DIHEDRAL>
0

>  <SCORE.SYSTEM.SOLV>
0

>  <SCORE.SYSTEM.norm>
0

>  <SCORE.heavy>
27

>  <SCORE.norm>
-1.3658

>  <RMSD>
5.567

$$$$
lig.pdb
 OpenBabel11021811523D
libRbt.so/2013.1/901 2013/11/27
 27 30  0  0  0  0  0  0  0  0999 V2000
   26.6990   39.4626   24.9783 N   0  0  0  0  0  0  0  0  0  0  0  0
   26.9998   39.6981   23.7252 C   0  0  0  0  0  0  0  0  0  0  0  0
   27.2348   38.7424   22.7912 N   0  0  0  0  0  0  0  0  0  0  0  0
   27.1070   37.4304   23.1512 C   0  0  0  0  0  0  0  0  0  0  0  0
   26.7686   37.0929   24.4302 C   0  0  0  0  0  0  0  0  0  0  0  0
   26.5683   38.1408   25.4025 C   0  0  0  0  0  0  0  0  0  0  0  0
   26.3118   37.9125   26.5912 O   0  0  0  0  0  0  0  0  0  0  0  0
   27.3073   41.1157   23.1946 C   0  0  2  0  0  0  0  0  0  0  0  0
   27.0120   40.9664   21.6933 C   0  0  0  0  0  0  0  0  0  0  0  0
   27.4701   42.1299   20.9320 N   0  0  0  0  0  0  0  0  0  0  0  0
   28.9316   42.2448   21.0626 C   0  0  0  0  0  0  0  0  0  0  0  0
   29.3257   42.4928   22.5053 C   0  0  0  0  0  0  0  0  0  0  0  0
   28.8061   41.3851   23.4111 C   0  0  0  0  0  0  0  0  0  0  0  0
   27.3464   36.5216   22.0381 C   0  0  0  0  0  0  0  0  0  0  0  0
   27.0323   34.8307   22.1701 S   0  0  0  0  0  0  0  0  0  0  0  0
   27.5595   34.5476   20.6040 C   0  0  0  0  0  0  0  0  0  0  0  0
   27.9132   35.6797   19.9827 C   0  0  0  0  0  0  0  0  0  0  0  0
   27.8047   36.8255   20.7947 C   0  0  0  0  0  0  0  0  0  0  0  0
   27.0875   42.0443   19.5116 C   0  0  0  0  0  0  0  0  0  0  0  0
   27.1325   40.6604   18.9032 C   0  0  0  0  0  0  0  0  0  0  0  0
   28.2153   39.8195   19.1155 C   0  0  0  0  0  0  0  0  0  0  0  0
   28.5061   38.7500   18.3529 N   0  0  0  0  0  0  0  0  0  0  0  0
   27.6831   38.5719   17.3304 C   0  0  0  0  0  0  0  0  0  0  0  0
   26.6401   39.3057   16.9768 N   0  0  0  0  0  0  0  0  0  0  0  0
   26.4039   40.3606   17.7707 C   0  0  0  0  0  0  0  0  0  0  0  0
   27.9808   37.5126   16.5693 O   0  0  0  0  0  0  0  0  0  0  0  0
   26.9790   36.4988   16.4266 C   0  0  0  0  0  0  0  0  0  0  0  0
  1  2  2  0  0  0  0
  1  6  1  0  0  0  0
  2  3  1  0  0  0  0
  3  4  2  0  0  0  0
  4 14  1  0  0  0  0
  5  4  1  0  0  0  0
  6  5  1  0  0  0  0
  7  6  2  0  0  0  0
  8  9  1  0  0  0  0
  8  2  1  1  0  0  0
 10 19  1  0  0  0  0
 10  9  1  0  0  0  0
 11 10  1  0  0  0  0
 12 11  1  0  0  0  0
 12 13  1  0  0  0  0
 13  8  1  0  0  0  0
 14 15  1  0  0  0  0
 14 18  2  0  0  0  0
 15 16  1  0  0  0  0
 16 17  2  0  0  0  0
 18 17  1  0  0  0  0
 19 20  1  0  0  0  0
 20 25  2  0  0  0  0
 20 21  1  0  0  0  0
 21 22  2  0  0  0  0
 22 23  1  0  0  0  0
 23 26  1  0  0  0  0
 24 23  2  0  0  0  0
 25 24  1  0  0  0  0
 26 27  1  0  0  0  0
M  END
>  <CHROM.1>
-171.28146987,-157.38210216,-36.64410667,-45.75066317,121.10839118,27.42267370
38.73189640,21.16196772,-2.07624537,-1.44454057,-2.06688466

>  <Name>
lig.pdb

>  <RI>
0

>  <Rbt.Current_Directory>
/home/itssahil/PROJECTS/Mol_Feturizer/New_Systems/rnas/5kx9

>  <Rbt.Executable>
rbdock ($Id: //depot/dev/client3/rdock/2013.1/src/exe/rbdock.cxx#4 $)

>  <Rbt.Library>
libRbt.so (2013.1, Build901 2013/11/27)

>  <Rbt.Parameter_File>
/export/apps/rDock/src/rDock_2013.1_src/data/scripts/dock_solv.prm

>  <Rbt.Receptor>
prm/pocket_docking_2.prm

>  <SCORE>
-32.7333

>  <SCORE.INTER>
-31.8141

>  <SCORE.INTER.CONST>
1

>  <SCORE.INTER.POLAR>
0

>  <SCORE.INTER.ROT>
5

>  <SCORE.INTER.SOLV>
14.026

>  <SCORE.INTER.VDW>
-32.8181

>  <SCORE.INTER.norm>
-1.1783

>  <SCORE.INTRA>
-1.19728

>  <SCORE.INTRA.DIHEDRAL>
3.90729

>  <SCORE.INTRA.DIHEDRAL.0>
2.68224

>  <SCORE.INTRA.POLAR>
0

>  <SCORE.INTRA.POLAR.0>
0

>  <SCORE.INTRA.REPUL>
0

>  <SCORE.INTRA.REPUL.0>
0

>  <SCORE.INTRA.SOLV>
0.000838023

>  <SCORE.INTRA.SOLV.lig_0>
-19.4148

>  <SCORE.INTRA.VDW>
-3.15135

>  <SCORE.INTRA.VDW.0>
5.42093

>  <SCORE.INTRA.norm>
-0.0443438

>  <SCORE.RESTR>
0.278131

>  <SCORE.RESTR.CAVITY>
0.278131

>  <SCORE.RESTR.norm>
0.0103012

>  <SCORE.SYSTEM>
0

>  <SCORE.SYSTEM.CONST>
0

>  <SCORE.SYSTEM.DIHEDRAL>
0

>  <SCORE.SYSTEM.SOLV>
0

>  <SCORE.SYSTEM.norm>
0

>  <SCORE.heavy>
27

>  <SCORE.norm>
-1.21234

>  <RMSD>
5.576

$$$$
lig.pdb
 OpenBabel11021811523D
libRbt.so/2013.1/901 2013/11/27
 27 30  0  0  0  0  0  0  0  0999 V2000
   27.4548   39.2629   25.5285 N   0  0  0  0  0  0  0  0  0  0  0  0
   27.2113   39.5145   24.2661 C   0  0  0  0  0  0  0  0  0  0  0  0
   27.1958   38.5838   23.2788 N   0  0  0  0  0  0  0  0  0  0  0  0
   27.3998   37.2742   23.6111 C   0  0  0  0  0  0  0  0  0  0  0  0
   27.6332   36.9169   24.9081 C   0  0  0  0  0  0  0  0  0  0  0  0
   27.6823   37.9444   25.9207 C   0  0  0  0  0  0  0  0  0  0  0  0
   27.9403   37.7051   27.1069 O   0  0  0  0  0  0  0  0  0  0  0  0
   27.0904   40.9508   23.7112 C   0  0  2  0  0  0  0  0  0  0  0  0
   28.1134   40.9375   22.5636 C   0  0  0  0  0  0  0  0  0  0  0  0
   28.3547   42.2819   22.0365 N   0  0  0  0  0  0  0  0  0  0  0  0
   28.9297   43.1197   23.1013 C   0  0  0  0  0  0  0  0  0  0  0  0
   27.9525   43.2773   24.2496 C   0  0  0  0  0  0  0  0  0  0  0  0
   27.5488   41.9217   24.8126 C   0  0  0  0  0  0  0  0  0  0  0  0
   27.3125   36.3872   22.4588 C   0  0  0  0  0  0  0  0  0  0  0  0
   27.6657   36.9418   20.8642 S   0  0  0  0  0  0  0  0  0  0  0  0
   27.3210   35.4418   20.1994 C   0  0  0  0  0  0  0  0  0  0  0  0
   26.9999   34.5409   21.1365 C   0  0  0  0  0  0  0  0  0  0  0  0
   26.9820   35.0684   22.4424 C   0  0  0  0  0  0  0  0  0  0  0  0
   29.2454   42.2617   20.8629 C   0  0  0  0  0  0  0  0  0  0  0  0
   29.2084   40.9973   20.0339 C   0  0  0  0  0  0  0  0  0  0  0  0
   30.1441   39.9902   20.2212 C   0  0  0  0  0  0  0  0  0  0  0  0
   30.4073   39.0228   19.3241 N   0  0  0  0  0  0  0  0  0  0  0  0
   29.7169   39.1236   18.1982 C   0  0  0  0  0  0  0  0  0  0  0  0
   28.8270   40.0424   17.8587 N   0  0  0  0  0  0  0  0  0  0  0  0
   28.6114   40.9830   18.7902 C   0  0  0  0  0  0  0  0  0  0  0  0
   29.9878   38.1650   17.3051 O   0  0  0  0  0  0  0  0  0  0  0  0
   31.3614   37.9543   16.9577 C   0  0  0  0  0  0  0  0  0  0  0  0
  1  2  2  0  0  0  0
  1  6  1  0  0  0  0
  2  3  1  0  0  0  0
  3  4  2  0  0  0  0
  4 14  1  0  0  0  0
  5  4  1  0  0  0  0
  6  5  1  0  0  0  0
  7  6  2  0  0  0  0
  8  9  1  0  0  0  0
  8  2  1  1  0  0  0
 10 19  1  0  0  0  0
 10  9  1  0  0  0  0
 11 10  1  0  0  0  0
 12 11  1  0  0  0  0
 12 13  1  0  0  0  0
 13  8  1  0  0  0  0
 14 15  1  0  0  0  0
 14 18  2  0  0  0  0
 15 16  1  0  0  0  0
 16 17  2  0  0  0  0
 18 17  1  0  0  0  0
 19 20  1  0  0  0  0
 20 25  2  0  0  0  0
 20 21  1  0  0  0  0
 21 22  2  0  0  0  0
 22 23  1  0  0  0  0
 23 26  1  0  0  0  0
 24 23  2  0  0  0  0
 25 24  1  0  0  0  0
 26 27  1  0  0  0  0
M  END
>  <CHROM.1>
26.87756432,125.78868527,28.25556435,-96.42603413,-52.53180609,28.30588872
39.05434534,21.85456256,2.59258740,1.21341722,0.50399378

>  <Name>
lig.pdb

>  <RI>
0

>  <Rbt.Current_Directory>
/home/itssahil/PROJECTS/Mol_Feturizer/New_Systems/rnas/5kx9

>  <Rbt.Executable>
rbdock ($Id: //depot/dev/client3/rdock/2013.1/src/exe/rbdock.cxx#4 $)

>  <Rbt.Library>
libRbt.so (2013.1, Build901 2013/11/27)

>  <Rbt.Parameter_File>
/export/apps/rDock/src/rDock_2013.1_src/data/scripts/dock_solv.prm

>  <Rbt.Receptor>
prm/pocket_docking_6.prm

>  <SCORE>
-32.4696

>  <SCORE.INTER>
-31.3051

>  <SCORE.INTER.CONST>
1

>  <SCORE.INTER.POLAR>
0

>  <SCORE.INTER.ROT>
5

>  <SCORE.INTER.SOLV>
13.3037

>  <SCORE.INTER.VDW>
-32.238

>  <SCORE.INTER.norm>
-1.15945

>  <SCORE.INTRA>
-1.1645

>  <SCORE.INTRA.DIHEDRAL>
5.24845

>  <SCORE.INTRA.DIHEDRAL.0>
2.68224

>  <SCORE.INTRA.POLAR>
0

>  <SCORE.INTRA.POLAR.0>
0

>  <SCORE.INTRA.REPUL>
0

>  <SCORE.INTRA.REPUL.0>
0

>  <SCORE.INTRA.SOLV>
-0.206471

>  <SCORE.INTRA.SOLV.lig_0>
-19.4148

>  <SCORE.INTRA.VDW>
-3.68549

>  <SCORE.INTRA.VDW.0>
5.42093

>  <SCORE.INTRA.norm>
-0.0431296

>  <SCORE.RESTR>
0

>  <SCORE.RESTR.CAVITY>
0

>  <SCORE.RESTR.norm>
0

>  <SCORE.SYSTEM>
0

>  <SCORE.SYSTEM.CONST>
0

>  <SCORE.SYSTEM.DIHEDRAL>
0

>  <SCORE.SYSTEM.SOLV>
0

>  <SCORE.SYSTEM.norm>
0

>  <SCORE.heavy>
27

>  <SCORE.norm>
-1.20258

>  <RMSD>
5.580

$$$$
lig.pdb
 OpenBabel11021811523D
libRbt.so/2013.1/901 2013/11/27
 27 30  0  0  0  0  0  0  0  0999 V2000
   26.8910   39.1853   24.6485 N   0  0  0  0  0  0  0  0  0  0  0  0
   27.1491   39.2481   23.3657 C   0  0  0  0  0  0  0  0  0  0  0  0
   27.2926   38.1734   22.5499 N   0  0  0  0  0  0  0  0  0  0  0  0
   27.1115   36.9249   23.0748 C   0  0  0  0  0  0  0  0  0  0  0  0
   26.8115   36.7663   24.3974 C   0  0  0  0  0  0  0  0  0  0  0  0
   26.7092   37.9351   25.2384 C   0  0  0  0  0  0  0  0  0  0  0  0
   26.4928   37.8690   26.4548 O   0  0  0  0  0  0  0  0  0  0  0  0
   27.5077   40.5700   22.6518 C   0  0  2  0  0  0  0  0  0  0  0  0
   27.0194   40.3025   21.2188 C   0  0  0  0  0  0  0  0  0  0  0  0
   27.4773   41.3356   20.2881 N   0  0  0  0  0  0  0  0  0  0  0  0
   28.9482   41.3210   20.2395 C   0  0  0  0  0  0  0  0  0  0  0  0
   29.5355   41.6710   21.5926 C   0  0  0  0  0  0  0  0  0  0  0  0
   29.0391   40.7134   22.6670 C   0  0  0  0  0  0  0  0  0  0  0  0
   27.2540   35.8745   22.0756 C   0  0  0  0  0  0  0  0  0  0  0  0
   27.7449   36.2266   20.4599 S   0  0  0  0  0  0  0  0  0  0  0  0
   27.6333   34.6156   20.0091 C   0  0  0  0  0  0  0  0  0  0  0  0
   27.2891   33.8308   21.0379 C   0  0  0  0  0  0  0  0  0  0  0  0
   27.0589   34.5383   22.2338 C   0  0  0  0  0  0  0  0  0  0  0  0
   26.9179   41.1476   18.9379 C   0  0  0  0  0  0  0  0  0  0  0  0
   26.4944   42.4110   18.2224 C   0  0  0  0  0  0  0  0  0  0  0  0
   25.1602   42.7862   18.1605 C   0  0  0  0  0  0  0  0  0  0  0  0
   24.6597   43.6652   17.2736 N   0  0  0  0  0  0  0  0  0  0  0  0
   25.5497   44.1337   16.4117 C   0  0  0  0  0  0  0  0  0  0  0  0
   26.8374   43.8423   16.3191 N   0  0  0  0  0  0  0  0  0  0  0  0
   27.2765   42.9565   17.2254 C   0  0  0  0  0  0  0  0  0  0  0  0
   25.0465   45.0008   15.5257 O   0  0  0  0  0  0  0  0  0  0  0  0
   23.9822   44.5426   14.6836 C   0  0  0  0  0  0  0  0  0  0  0  0
  1  2  2  0  0  0  0
  1  6  1  0  0  0  0
  2  3  1  0  0  0  0
  3  4  2  0  0  0  0
  4 14  1  0  0  0  0
  5  4  1  0  0  0  0
  6  5  1  0  0  0  0
  7  6  2  0  0  0  0
  8  9  1  0  0  0  0
  8  2  1  1  0  0  0
 10 19  1  0  0  0  0
 10  9  1  0  0  0  0
 11 10  1  0  0  0  0
 12 11  1  0  0  0  0
 12 13  1  0  0  0  0
 13  8  1  0  0  0  0
 14 15  1  0  0  0  0
 14 18  2  0  0  0  0
 15 16  1  0  0  0  0
 16 17  2  0  0  0  0
 18 17  1  0  0  0  0
 19 20  1  0  0  0  0
 20 25  2  0  0  0  0
 20 21  1  0  0  0  0
 21 22  2  0  0  0  0
 22 23  1  0  0  0  0
 23 26  1  0  0  0  0
 24 23  2  0  0  0  0
 25 24  1  0  0  0  0
 26 27  1  0  0  0  0
M  END
>  <CHROM.1>
5.31912665,-152.34449498,140.03302921,-101.03748451,-58.95445378,26.94664450
39.80707028,20.59073063,-0.54365406,-1.38140614,0.28134394

>  <Name>
lig.pdb

>  <RI>
0

>  <Rbt.Current_Directory>
/home/itssahil/PROJECTS/Mol_Feturizer/New_Systems/rnas/5kx9

>  <Rbt.Executable>
rbdock ($Id: //depot/dev/client3/rdock/2013.1/src/exe/rbdock.cxx#4 $)

>  <Rbt.Library>
libRbt.so (2013.1, Build901 2013/11/27)

>  <Rbt.Parameter_File>
/export/apps/rDock/src/rDock_2013.1_src/data/scripts/dock_solv.prm

>  <Rbt.Receptor>
prm/pocket_docking_8.prm

>  <SCORE>
-37.6622

>  <SCORE.INTER>
-35.2889

>  <SCORE.INTER.CONST>
1

>  <SCORE.INTER.POLAR>
0

>  <SCORE.INTER.ROT>
5

>  <SCORE.INTER.SOLV>
16.8962

>  <SCORE.INTER.VDW>
-36.0913

>  <SCORE.INTER.norm>
-1.307

>  <SCORE.INTRA>
-2.37464

>  <SCORE.INTRA.DIHEDRAL>
3.83493

>  <SCORE.INTRA.DIHEDRAL.0>
2.68224

>  <SCORE.INTRA.POLAR>
0

>  <SCORE.INTRA.POLAR.0>
0

>  <SCORE.INTRA.REPUL>
0

>  <SCORE.INTRA.REPUL.0>
0

>  <SCORE.INTRA.SOLV>
-0.539751

>  <SCORE.INTRA.SOLV.lig_0>
-19.4148

>  <SCORE.INTRA.VDW>
-4.02223

>  <SCORE.INTRA.VDW.0>
5.42093

>  <SCORE.INTRA.norm>
-0.0879497

>  <SCORE.RESTR>
0.00129078

>  <SCORE.RESTR.CAVITY>
0.00129078

>  <SCORE.RESTR.norm>
4.78068e-05

>  <SCORE.SYSTEM>
0

>  <SCORE.SYSTEM.CONST>
0

>  <SCORE.SYSTEM.DIHEDRAL>
0

>  <SCORE.SYSTEM.SOLV>
0

>  <SCORE.SYSTEM.norm>
0

>  <SCORE.heavy>
27

>  <SCORE.norm>
-1.3949

>  <RMSD>
5.582

$$$$
lig.pdb
 OpenBabel11021811523D
libRbt.so/2013.1/901 2013/11/27
 27 30  0  0  0  0  0  0  0  0999 V2000
   26.7567   39.2277   24.6943 N   0  0  0  0  0  0  0  0  0  0  0  0
   27.0602   39.2838   23.4212 C   0  0  0  0  0  0  0  0  0  0  0  0
   27.2409   38.2047   22.6187 N   0  0  0  0  0  0  0  0  0  0  0  0
   27.0504   36.9584   23.1456 C   0  0  0  0  0  0  0  0  0  0  0  0
   26.7045   36.8066   24.4577 C   0  0  0  0  0  0  0  0  0  0  0  0
   26.5633   37.9802   25.2862 C   0  0  0  0  0  0  0  0  0  0  0  0
   26.3041   37.9208   26.4945 O   0  0  0  0  0  0  0  0  0  0  0  0
   27.4342   40.6036   22.7113 C   0  0  2  0  0  0  0  0  0  0  0  0
   26.9609   40.3384   21.2728 C   0  0  0  0  0  0  0  0  0  0  0  0
   27.4351   41.3687   20.3472 N   0  0  0  0  0  0  0  0  0  0  0  0
   28.9064   41.3462   20.3155 C   0  0  0  0  0  0  0  0  0  0  0  0
   29.4799   41.6932   21.6752 C   0  0  0  0  0  0  0  0  0  0  0  0
   28.9660   40.7387   22.7440 C   0  0  0  0  0  0  0  0  0  0  0  0
   27.2366   35.9024   22.1595 C   0  0  0  0  0  0  0  0  0  0  0  0
   27.7762   36.2480   20.5581 S   0  0  0  0  0  0  0  0  0  0  0  0
   27.6964   34.6327   20.1161 C   0  0  0  0  0  0  0  0  0  0  0  0
   27.3270   33.8517   21.1391 C   0  0  0  0  0  0  0  0  0  0  0  0
   27.0505   34.5654   22.3216 C   0  0  0  0  0  0  0  0  0  0  0  0
   26.8903   41.1835   18.9906 C   0  0  0  0  0  0  0  0  0  0  0  0
   26.5107   42.4511   18.2583 C   0  0  0  0  0  0  0  0  0  0  0  0
   25.1934   42.8836   18.2105 C   0  0  0  0  0  0  0  0  0  0  0  0
   24.7172   43.7677   17.3152 N   0  0  0  0  0  0  0  0  0  0  0  0
   25.6124   44.1807   16.4306 C   0  0  0  0  0  0  0  0  0  0  0  0
   26.8842   43.8310   16.3231 N   0  0  0  0  0  0  0  0  0  0  0  0
   27.2992   42.9433   17.2388 C   0  0  0  0  0  0  0  0  0  0  0  0
   25.1329   45.0529   15.5365 O   0  0  0  0  0  0  0  0  0  0  0  0
   24.1064   44.5932   14.6495 C   0  0  0  0  0  0  0  0  0  0  0  0
  1  2  2  0  0  0  0
  1  6  1  0  0  0  0
  2  3  1  0  0  0  0
  3  4  2  0  0  0  0
  4 14  1  0  0  0  0
  5  4  1  0  0  0  0
  6  5  1  0  0  0  0
  7  6  2  0  0  0  0
  8  9  1  0  0  0  0
  8  2  1  1  0  0  0
 10 19  1  0  0  0  0
 10  9  1  0  0  0  0
 11 10  1  0  0  0  0
 12 11  1  0  0  0  0
 12 13  1  0  0  0  0
 13  8  1  0  0  0  0
 14 15  1  0  0  0  0
 14 18  2  0  0  0  0
 15 16  1  0  0  0  0
 16 17  2  0  0  0  0
 18 17  1  0  0  0  0
 19 20  1  0  0  0  0
 20 25  2  0  0  0  0
 20 21  1  0  0  0  0
 21 22  2  0  0  0  0
 22 23  1  0  0  0  0
 23 26  1  0  0  0  0
 24 23  2  0  0  0  0
 25 24  1  0  0  0  0
 26 27  1  0  0  0  0
M  END
>  <CHROM.1>
5.06651937,-150.71854006,141.34404336,-98.93302967,-63.71446247,26.92724192
39.84256455,20.64646811,-0.34812638,-1.41158734,0.47902469

>  <Name>
lig.pdb

>  <RI>
0

>  <Rbt.Current_Directory>
/home/itssahil/PROJECTS/Mol_Feturizer/New_Systems/rnas/5kx9

>  <Rbt.Executable>
rbdock ($Id: //depot/dev/client3/rdock/2013.1/src/exe/rbdock.cxx#4 $)

>  <Rbt.Library>
libRbt.so (2013.1, Build901 2013/11/27)

>  <Rbt.Parameter_File>
/export/apps/rDock/src/rDock_2013.1_src/data/scripts/dock_solv.prm

>  <Rbt.Receptor>
prm/blind_docking_80.prm

>  <SCORE>
-37.6461

>  <SCORE.INTER>
-35.0351

>  <SCORE.INTER.CONST>
1

>  <SCORE.INTER.POLAR>
0

>  <SCORE.INTER.ROT>
5

>  <SCORE.INTER.SOLV>
17.3275

>  <SCORE.INTER.VDW>
-36.0659

>  <SCORE.INTER.norm>
-1.2976

>  <SCORE.INTRA>
-2.61095

>  <SCORE.INTRA.DIHEDRAL>
4.09186

>  <SCORE.INTRA.DIHEDRAL.0>
2.68224

>  <SCORE.INTRA.POLAR>
0

>  <SCORE.INTRA.POLAR.0>
0

>  <SCORE.INTRA.REPUL>
0

>  <SCORE.INTRA.REPUL.0>
0

>  <SCORE.INTRA.SOLV>
-0.544626

>  <SCORE.INTRA.SOLV.lig_0>
-19.4148

>  <SCORE.INTRA.VDW>
-4.38457

>  <SCORE.INTRA.VDW.0>
5.42093

>  <SCORE.INTRA.norm>
-0.0967019

>  <SCORE.RESTR>
0

>  <SCORE.RESTR.CAVITY>
0

>  <SCORE.RESTR.norm>
0

>  <SCORE.SYSTEM>
0

>  <SCORE.SYSTEM.CONST>
0

>  <SCORE.SYSTEM.DIHEDRAL>
0

>  <SCORE.SYSTEM.SOLV>
0

>  <SCORE.SYSTEM.norm>
0

>  <SCORE.heavy>
27

>  <SCORE.norm>
-1.3943

>  <RMSD>
5.585

$$$$
lig.pdb
 OpenBabel11021811523D
libRbt.so/2013.1/901 2013/11/27
 27 30  0  0  0  0  0  0  0  0999 V2000
   26.7479   36.7877   23.8371 N   0  0  0  0  0  0  0  0  0  0  0  0
   27.5485   37.1311   22.8586 C   0  0  0  0  0  0  0  0  0  0  0  0
   28.0588   38.3748   22.6743 N   0  0  0  0  0  0  0  0  0  0  0  0
   27.7672   39.3442   23.5920 C   0  0  0  0  0  0  0  0  0  0  0  0
   26.9629   39.0674   24.6601 C   0  0  0  0  0  0  0  0  0  0  0  0
   26.4077   37.7418   24.7951 C   0  0  0  0  0  0  0  0  0  0  0  0
   25.6298   37.4302   25.7055 O   0  0  0  0  0  0  0  0  0  0  0  0
   27.8673   36.1920   21.6746 C   0  0  2  0  0  0  0  0  0  0  0  0
   27.2888   36.9720   20.4828 C   0  0  0  0  0  0  0  0  0  0  0  0
   27.2560   36.1581   19.2663 N   0  0  0  0  0  0  0  0  0  0  0  0
   26.3680   35.0046   19.4835 C   0  0  0  0  0  0  0  0  0  0  0  0
   26.9051   34.1110   20.5841 C   0  0  0  0  0  0  0  0  0  0  0  0
   27.0787   34.8878   21.8818 C   0  0  0  0  0  0  0  0  0  0  0  0
   28.4170   40.6122   23.2884 C   0  0  0  0  0  0  0  0  0  0  0  0
   28.1837   42.0055   24.2780 S   0  0  0  0  0  0  0  0  0  0  0  0
   29.1676   42.9436   23.2968 C   0  0  0  0  0  0  0  0  0  0  0  0
   29.6940   42.2336   22.2909 C   0  0  0  0  0  0  0  0  0  0  0  0
   29.2674   40.8915   22.2650 C   0  0  0  0  0  0  0  0  0  0  0  0
   26.8106   36.9345   18.0958 C   0  0  0  0  0  0  0  0  0  0  0  0
   27.7014   38.0906   17.6990 C   0  0  0  0  0  0  0  0  0  0  0  0
   27.1631   39.2959   17.2721 C   0  0  0  0  0  0  0  0  0  0  0  0
   27.8429   40.2270   16.5787 N   0  0  0  0  0  0  0  0  0  0  0  0
   29.0898   39.8863   16.2896 C   0  0  0  0  0  0  0  0  0  0  0  0
   29.7267   38.7656   16.5894 N   0  0  0  0  0  0  0  0  0  0  0  0
   28.9963   37.8740   17.2753 C   0  0  0  0  0  0  0  0  0  0  0  0
   29.7598   40.8110   15.5924 O   0  0  0  0  0  0  0  0  0  0  0  0
   30.3187   41.9111   16.3200 C   0  0  0  0  0  0  0  0  0  0  0  0
  1  2  2  0  0  0  0
  1  6  1  0  0  0  0
  2  3  1  0  0  0  0
  3  4  2  0  0  0  0
  4 14  1  0  0  0  0
  5  4  1  0  0  0  0
  6  5  1  0  0  0  0
  7  6  2  0  0  0  0
  8  9  1  0  0  0  0
  8  2  1  1  0  0  0
 10 19  1  0  0  0  0
 10  9  1  0  0  0  0
 11 10  1  0  0  0  0
 12 11  1  0  0  0  0
 12 13  1  0  0  0  0
 13  8  1  0  0  0  0
 14 15  1  0  0  0  0
 14 18  2  0  0  0  0
 15 16  1  0  0  0  0
 16 17  2  0  0  0  0
 18 17  1  0  0  0  0
 19 20  1  0  0  0  0
 20 25  2  0  0  0  0
 20 21  1  0  0  0  0
 21 22  2  0  0  0  0
 22 23  1  0  0  0  0
 23 26  1  0  0  0  0
 24 23  2  0  0  0  0
 25 24  1  0  0  0  0
 26 27  1  0  0  0  0
M  END
>  <CHROM.1>
178.75917113,116.67492107,62.80102295,-140.52792620,80.83513673,27.93408267
38.72859531,20.82409005,2.10801121,1.17980417,1.12747260

>  <Name>
lig.pdb

>  <RI>
0

>  <Rbt.Current_Directory>
/home/itssahil/PROJECTS/Mol_Feturizer/New_Systems/rnas/5kx9

>  <Rbt.Executable>
rbdock ($Id: //depot/dev/client3/rdock/2013.1/src/exe/rbdock.cxx#4 $)

>  <Rbt.Library>
libRbt.so (2013.1, Build901 2013/11/27)

>  <Rbt.Parameter_File>
/export/apps/rDock/src/rDock_2013.1_src/data/scripts/dock_solv.prm

>  <Rbt.Receptor>
prm/pocket_docking_7.prm

>  <SCORE>
-34.31

>  <SCORE.INTER>
-30.7103

>  <SCORE.INTER.CONST>
1

>  <SCORE.INTER.POLAR>
0

>  <SCORE.INTER.ROT>
5

>  <SCORE.INTER.SOLV>
14.375

>  <SCORE.INTER.VDW>
-32.1986

>  <SCORE.INTER.norm>
-1.13742

>  <SCORE.INTRA>
-3.59963

>  <SCORE.INTRA.DIHEDRAL>
3.97442

>  <SCORE.INTRA.DIHEDRAL.0>
2.68224

>  <SCORE.INTRA.POLAR>
0

>  <SCORE.INTRA.POLAR.0>
0

>  <SCORE.INTRA.REPUL>
0

>  <SCORE.INTRA.REPUL.0>
0

>  <SCORE.INTRA.SOLV>
-0.637336

>  <SCORE.INTRA.SOLV.lig_0>
-19.4148

>  <SCORE.INTRA.VDW>
-5.26818

>  <SCORE.INTRA.VDW.0>
5.42093

>  <SCORE.INTRA.norm>
-0.13332

>  <SCORE.RESTR>
0

>  <SCORE.RESTR.CAVITY>
0

>  <SCORE.RESTR.norm>
0

>  <SCORE.SYSTEM>
0

>  <SCORE.SYSTEM.CONST>
0

>  <SCORE.SYSTEM.DIHEDRAL>
0

>  <SCORE.SYSTEM.SOLV>
0

>  <SCORE.SYSTEM.norm>
0

>  <SCORE.heavy>
27

>  <SCORE.norm>
-1.27074

>  <RMSD>
5.588

$$$$
lig.pdb
 OpenBabel11021811523D
libRbt.so/2013.1/901 2013/11/27
 27 30  0  0  0  0  0  0  0  0999 V2000
   27.0837   39.1220   25.1753 N   0  0  0  0  0  0  0  0  0  0  0  0
   26.9823   39.3344   23.8866 C   0  0  0  0  0  0  0  0  0  0  0  0
   27.0745   38.3738   22.9327 N   0  0  0  0  0  0  0  0  0  0  0  0
   27.2377   37.0753   23.3255 C   0  0  0  0  0  0  0  0  0  0  0  0
   27.3250   36.7583   24.6507 C   0  0  0  0  0  0  0  0  0  0  0  0
   27.2636   37.8165   25.6306 C   0  0  0  0  0  0  0  0  0  0  0  0
   27.3879   37.6141   26.8448 O   0  0  0  0  0  0  0  0  0  0  0  0
   26.9267   40.7528   23.2778 C   0  0  2  0  0  0  0  0  0  0  0  0
   28.0495   40.6952   22.2293 C   0  0  0  0  0  0  0  0  0  0  0  0
   28.3511   42.0200   21.6842 N   0  0  0  0  0  0  0  0  0  0  0  0
   28.8353   42.8877   22.7699 C   0  0  0  0  0  0  0  0  0  0  0  0
   27.7595   43.0894   23.8188 C   0  0  0  0  0  0  0  0  0  0  0  0
   27.2927   41.7556   24.3852 C   0  0  0  0  0  0  0  0  0  0  0  0
   27.2769   36.1532   22.1984 C   0  0  0  0  0  0  0  0  0  0  0  0
   27.6298   36.6965   20.5998 S   0  0  0  0  0  0  0  0  0  0  0  0
   27.4557   35.1525   19.9701 C   0  0  0  0  0  0  0  0  0  0  0  0
   27.1912   34.2501   20.9233 C   0  0  0  0  0  0  0  0  0  0  0  0
   27.0768   34.8084   22.2114 C   0  0  0  0  0  0  0  0  0  0  0  0
   29.3445   41.9556   20.5978 C   0  0  0  0  0  0  0  0  0  0  0  0
   29.2246   40.7673   19.6699 C   0  0  0  0  0  0  0  0  0  0  0  0
   30.0678   39.6728   19.7951 C   0  0  0  0  0  0  0  0  0  0  0  0
   30.2735   38.7593   18.8291 N   0  0  0  0  0  0  0  0  0  0  0  0
   29.6243   39.0058   17.7011 C   0  0  0  0  0  0  0  0  0  0  0  0
   28.8234   40.0207   17.4182 N   0  0  0  0  0  0  0  0  0  0  0  0
   28.6620   40.9008   18.4172 C   0  0  0  0  0  0  0  0  0  0  0  0
   29.8384   38.1001   16.7399 O   0  0  0  0  0  0  0  0  0  0  0  0
   29.4968   36.7389   17.0264 C   0  0  0  0  0  0  0  0  0  0  0  0
  1  2  2  0  0  0  0
  1  6  1  0  0  0  0
  2  3  1  0  0  0  0
  3  4  2  0  0  0  0
  4 14  1  0  0  0  0
  5  4  1  0  0  0  0
  6  5  1  0  0  0  0
  7  6  2  0  0  0  0
  8  9  1  0  0  0  0
  8  2  1  1  0  0  0
 10 19  1  0  0  0  0
 10  9  1  0  0  0  0
 11 10  1  0  0  0  0
 12 11  1  0  0  0  0
 12 13  1  0  0  0  0
 13  8  1  0  0  0  0
 14 15  1  0  0  0  0
 14 18  2  0  0  0  0
 15 16  1  0  0  0  0
 16 17  2  0  0  0  0
 18 17  1  0  0  0  0
 19 20  1  0  0  0  0
 20 25  2  0  0  0  0
 20 21  1  0  0  0  0
 21 22  2  0  0  0  0
 22 23  1  0  0  0  0
 23 26  1  0  0  0  0
 24 23  2  0  0  0  0
 25 24  1  0  0  0  0
 26 27  1  0  0  0  0
M  END
>  <CHROM.1>
19.70398743,127.03376253,37.76265350,-101.51349842,58.91794137,28.12647702
38.81667052,21.52344249,2.56991711,1.22836631,0.48925588

>  <Name>
lig.pdb

>  <RI>
0

>  <Rbt.Current_Directory>
/home/itssahil/PROJECTS/Mol_Feturizer/New_Systems/rnas/5kx9

>  <Rbt.Executable>
rbdock ($Id: //depot/dev/client3/rdock/2013.1/src/exe/rbdock.cxx#4 $)

>  <Rbt.Library>
libRbt.so (2013.1, Build901 2013/11/27)

>  <Rbt.Parameter_File>
/export/apps/rDock/src/rDock_2013.1_src/data/scripts/dock_solv.prm

>  <Rbt.Receptor>
prm/blind_docking_100.prm

>  <SCORE>
-31.6296

>  <SCORE.INTER>
-29.088

>  <SCORE.INTER.CONST>
1

>  <SCORE.INTER.POLAR>
0

>  <SCORE.INTER.ROT>
5

>  <SCORE.INTER.SOLV>
13.0341

>  <SCORE.INTER.VDW>
-30.67

>  <SCORE.INTER.norm>
-1.07733

>  <SCORE.INTRA>
-2.54165

>  <SCORE.INTRA.DIHEDRAL>
4.11029

>  <SCORE.INTRA.DIHEDRAL.0>
2.68224

>  <SCORE.INTRA.POLAR>
0

>  <SCORE.INTRA.POLAR.0>
0

>  <SCORE.INTRA.REPUL>
0

>  <SCORE.INTRA.REPUL.0>
0

>  <SCORE.INTRA.SOLV>
-0.227328

>  <SCORE.INTRA.SOLV.lig_0>
-19.4148

>  <SCORE.INTRA.VDW>
-4.48313

>  <SCORE.INTRA.VDW.0>
5.42093

>  <SCORE.INTRA.norm>
-0.0941352

>  <SCORE.RESTR>
0

>  <SCORE.RESTR.CAVITY>
0

>  <SCORE.RESTR.norm>
0

>  <SCORE.SYSTEM>
0

>  <SCORE.SYSTEM.CONST>
0

>  <SCORE.SYSTEM.DIHEDRAL>
0

>  <SCORE.SYSTEM.SOLV>
0

>  <SCORE.SYSTEM.norm>
0

>  <SCORE.heavy>
27

>  <SCORE.norm>
-1.17147

>  <RMSD>
5.590

$$$$
lig.pdb
 OpenBabel11021811523D
libRbt.so/2013.1/901 2013/11/27
 27 30  0  0  0  0  0  0  0  0999 V2000
   27.8985   39.3671   26.0087 N   0  0  0  0  0  0  0  0  0  0  0  0
   27.5248   39.7019   24.7985 C   0  0  0  0  0  0  0  0  0  0  0  0
   27.3406   38.8305   23.7748 N   0  0  0  0  0  0  0  0  0  0  0  0
   27.5056   37.4955   24.0144 C   0  0  0  0  0  0  0  0  0  0  0  0
   27.8673   37.0538   25.2548 C   0  0  0  0  0  0  0  0  0  0  0  0
   28.0934   38.0186   26.3045 C   0  0  0  0  0  0  0  0  0  0  0  0
   28.4733   37.6996   27.4379 O   0  0  0  0  0  0  0  0  0  0  0  0
   27.4236   41.1716   24.3345 C   0  0  2  0  0  0  0  0  0  0  0  0
   28.4466   41.2162   23.1878 C   0  0  0  0  0  0  0  0  0  0  0  0
   28.7063   42.5874   22.7456 N   0  0  0  0  0  0  0  0  0  0  0  0
   29.2923   43.3491   23.8603 C   0  0  0  0  0  0  0  0  0  0  0  0
   28.3171   43.4480   25.0168 C   0  0  0  0  0  0  0  0  0  0  0  0
   27.8948   42.0655   25.4942 C   0  0  0  0  0  0  0  0  0  0  0  0
   27.2336   36.6806   22.8379 C   0  0  0  0  0  0  0  0  0  0  0  0
   26.5967   35.0835   22.9739 S   0  0  0  0  0  0  0  0  0  0  0  0
   26.6146   34.8681   21.3114 C   0  0  0  0  0  0  0  0  0  0  0  0
   27.0348   35.9653   20.6691 C   0  0  0  0  0  0  0  0  0  0  0  0
   27.4030   37.0164   21.5313 C   0  0  0  0  0  0  0  0  0  0  0  0
   29.5970   42.6286   21.5725 C   0  0  0  0  0  0  0  0  0  0  0  0
   29.1272   41.8476   20.3655 C   0  0  0  0  0  0  0  0  0  0  0  0
   27.9766   42.2106   19.6808 C   0  0  0  0  0  0  0  0  0  0  0  0
   27.3014   41.3982   18.8477 N   0  0  0  0  0  0  0  0  0  0  0  0
   27.8054   40.1770   18.7529 C   0  0  0  0  0  0  0  0  0  0  0  0
   28.8630   39.6737   19.3690 N   0  0  0  0  0  0  0  0  0  0  0  0
   29.4907   40.5283   20.1902 C   0  0  0  0  0  0  0  0  0  0  0  0
   27.1261   39.3694   17.9304 O   0  0  0  0  0  0  0  0  0  0  0  0
   27.0527   39.7424   16.5494 C   0  0  0  0  0  0  0  0  0  0  0  0
  1  2  2  0  0  0  0
  1  6  1  0  0  0  0
  2  3  1  0  0  0  0
  3  4  2  0  0  0  0
  4 14  1  0  0  0  0
  5  4  1  0  0  0  0
  6  5  1  0  0  0  0
  7  6  2  0  0  0  0
  8  9  1  0  0  0  0
  8  2  1  1  0  0  0
 10 19  1  0  0  0  0
 10  9  1  0  0  0  0
 11 10  1  0  0  0  0
 12 11  1  0  0  0  0
 12 13  1  0  0  0  0
 13  8  1  0  0  0  0
 14 15  1  0  0  0  0
 14 18  2  0  0  0  0
 15 16  1  0  0  0  0
 16 17  2  0  0  0  0
 18 17  1  0  0  0  0
 19 20  1  0  0  0  0
 20 25  2  0  0  0  0
 20 21  1  0  0  0  0
 21 22  2  0  0  0  0
 22 23  1  0  0  0  0
 23 26  1  0  0  0  0
 24 23  2  0  0  0  0
 25 24  1  0  0  0  0
 26 27  1  0  0  0  0
M  END
>  <CHROM.1>
-148.84989999,118.60369342,56.64061153,65.11372162,62.14481657,27.86567776
39.41130369,22.41865025,-1.86773516,-1.32118281,-1.33537360

>  <Name>
lig.pdb

>  <RI>
0

>  <Rbt.Current_Directory>
/home/itssahil/PROJECTS/Mol_Feturizer/New_Systems/rnas/5kx9

>  <Rbt.Executable>
rbdock ($Id: //depot/dev/client3/rdock/2013.1/src/exe/rbdock.cxx#4 $)

>  <Rbt.Library>
libRbt.so (2013.1, Build901 2013/11/27)

>  <Rbt.Parameter_File>
/export/apps/rDock/src/rDock_2013.1_src/data/scripts/dock_solv.prm

>  <Rbt.Receptor>
prm/pocket_docking_5.prm

>  <SCORE>
-35.5105

>  <SCORE.INTER>
-33.0352

>  <SCORE.INTER.CONST>
1

>  <SCORE.INTER.POLAR>
0

>  <SCORE.INTER.ROT>
5

>  <SCORE.INTER.SOLV>
13.3988

>  <SCORE.INTER.VDW>
-33.4231

>  <SCORE.INTER.norm>
-1.22352

>  <SCORE.INTRA>
-2.47529

>  <SCORE.INTRA.DIHEDRAL>
6.05204

>  <SCORE.INTRA.DIHEDRAL.0>
2.68224

>  <SCORE.INTRA.POLAR>
0

>  <SCORE.INTRA.POLAR.0>
0

>  <SCORE.INTRA.REPUL>
0

>  <SCORE.INTRA.REPUL.0>
0

>  <SCORE.INTRA.SOLV>
-0.2314

>  <SCORE.INTRA.SOLV.lig_0>
-19.4148

>  <SCORE.INTRA.VDW>
-5.38561

>  <SCORE.INTRA.VDW.0>
5.42093

>  <SCORE.INTRA.norm>
-0.0916775

>  <SCORE.RESTR>
0

>  <SCORE.RESTR.CAVITY>
0

>  <SCORE.RESTR.norm>
0

>  <SCORE.SYSTEM>
0

>  <SCORE.SYSTEM.CONST>
0

>  <SCORE.SYSTEM.DIHEDRAL>
0

>  <SCORE.SYSTEM.SOLV>
0

>  <SCORE.SYSTEM.norm>
0

>  <SCORE.heavy>
27

>  <SCORE.norm>
-1.3152

>  <RMSD>
5.599

$$$$
lig.pdb
 OpenBabel11021811523D
libRbt.so/2013.1/901 2013/11/27
 27 30  0  0  0  0  0  0  0  0999 V2000
   26.5277   37.1951   24.8608 N   0  0  0  0  0  0  0  0  0  0  0  0
   27.3410   37.3594   23.8470 C   0  0  0  0  0  0  0  0  0  0  0  0
   27.7862   38.5594   23.3965 N   0  0  0  0  0  0  0  0  0  0  0  0
   27.4085   39.6900   24.0645 C   0  0  0  0  0  0  0  0  0  0  0  0
   26.5846   39.6104   25.1504 C   0  0  0  0  0  0  0  0  0  0  0  0
   26.1009   38.3168   25.5705 C   0  0  0  0  0  0  0  0  0  0  0  0
   25.3109   38.1695   26.5112 O   0  0  0  0  0  0  0  0  0  0  0  0
   27.7534   36.2001   22.9135 C   0  0  2  0  0  0  0  0  0  0  0  0
   28.0288   36.9360   21.5920 C   0  0  0  0  0  0  0  0  0  0  0  0
   28.2033   36.0027   20.4777 N   0  0  0  0  0  0  0  0  0  0  0  0
   26.9556   35.2462   20.2844 C   0  0  0  0  0  0  0  0  0  0  0  0
   26.6416   34.4039   21.5051 C   0  0  0  0  0  0  0  0  0  0  0  0
   26.5394   35.2692   22.7535 C   0  0  0  0  0  0  0  0  0  0  0  0
   27.9957   40.8956   23.4952 C   0  0  0  0  0  0  0  0  0  0  0  0
   29.0333   40.8308   22.1189 S   0  0  0  0  0  0  0  0  0  0  0  0
   29.2679   42.4907   22.1403 C   0  0  0  0  0  0  0  0  0  0  0  0
   28.5596   43.0838   23.1096 C   0  0  0  0  0  0  0  0  0  0  0  0
   27.8271   42.1810   23.9049 C   0  0  0  0  0  0  0  0  0  0  0  0
   28.5809   36.6952   19.2331 C   0  0  0  0  0  0  0  0  0  0  0  0
   27.6578   37.8118   18.7986 C   0  0  0  0  0  0  0  0  0  0  0  0
   27.0841   37.8162   17.5355 C   0  0  0  0  0  0  0  0  0  0  0  0
   26.5583   38.9047   16.9450 N   0  0  0  0  0  0  0  0  0  0  0  0
   26.6640   40.0149   17.6596 C   0  0  0  0  0  0  0  0  0  0  0  0
   27.2162   40.1763   18.8515 N   0  0  0  0  0  0  0  0  0  0  0  0
   27.7280   39.0579   19.3864 C   0  0  0  0  0  0  0  0  0  0  0  0
   26.1481   41.0969   17.0653 O   0  0  0  0  0  0  0  0  0  0  0  0
   26.9588   42.2770   17.0219 C   0  0  0  0  0  0  0  0  0  0  0  0
  1  2  2  0  0  0  0
  1  6  1  0  0  0  0
  2  3  1  0  0  0  0
  3  4  2  0  0  0  0
  4 14  1  0  0  0  0
  5  4  1  0  0  0  0
  6  5  1  0  0  0  0
  7  6  2  0  0  0  0
  8  9  1  0  0  0  0
  8  2  1  1  0  0  0
 10 19  1  0  0  0  0
 10  9  1  0  0  0  0
 11 10  1  0  0  0  0
 12 11  1  0  0  0  0
 12 13  1  0  0  0  0
 13  8  1  0  0  0  0
 14 15  1  0  0  0  0
 14 18  2  0  0  0  0
 15 16  1  0  0  0  0
 16 17  2  0  0  0  0
 18 17  1  0  0  0  0
 19 20  1  0  0  0  0
 20 25  2  0  0  0  0
 20 21  1  0  0  0  0
 21 22  2  0  0  0  0
 22 23  1  0  0  0  0
 23 26  1  0  0  0  0
 24 23  2  0  0  0  0
 25 24  1  0  0  0  0
 26 27  1  0  0  0  0
M  END
>  <CHROM.1>
0.53892193,151.54865061,-54.39697579,-124.83201098,-130.98380737,27.40597304
38.83763523,21.48591782,1.81824801,1.42159797,1.53650395

>  <Name>
lig.pdb

>  <RI>
0

>  <Rbt.Current_Directory>
/home/itssahil/PROJECTS/Mol_Feturizer/New_Systems/rnas/5kx9

>  <Rbt.Executable>
rbdock ($Id: //depot/dev/client3/rdock/2013.1/src/exe/rbdock.cxx#4 $)

>  <Rbt.Library>
libRbt.so (2013.1, Build901 2013/11/27)

>  <Rbt.Parameter_File>
/export/apps/rDock/src/rDock_2013.1_src/data/scripts/dock_solv.prm

>  <Rbt.Receptor>
prm/pocket_docking_2.prm

>  <SCORE>
-27.5367

>  <SCORE.INTER>
-28.5273

>  <SCORE.INTER.CONST>
1

>  <SCORE.INTER.POLAR>
0

>  <SCORE.INTER.ROT>
5

>  <SCORE.INTER.SOLV>
15.1046

>  <SCORE.INTER.VDW>
-30.9864

>  <SCORE.INTER.norm>
-1.05657

>  <SCORE.INTRA>
-0.531953

>  <SCORE.INTRA.DIHEDRAL>
1.90594

>  <SCORE.INTRA.DIHEDRAL.0>
2.68224

>  <SCORE.INTRA.POLAR>
0

>  <SCORE.INTRA.POLAR.0>
0

>  <SCORE.INTRA.REPUL>
0

>  <SCORE.INTRA.REPUL.0>
0

>  <SCORE.INTRA.SOLV>
-0.171186

>  <SCORE.INTRA.SOLV.lig_0>
-19.4148

>  <SCORE.INTRA.VDW>
-1.39933

>  <SCORE.INTRA.VDW.0>
5.42093

>  <SCORE.INTRA.norm>
-0.019702

>  <SCORE.RESTR>
1.5226

>  <SCORE.RESTR.CAVITY>
1.5226

>  <SCORE.RESTR.norm>
0.0563928

>  <SCORE.SYSTEM>
0

>  <SCORE.SYSTEM.CONST>
0

>  <SCORE.SYSTEM.DIHEDRAL>
0

>  <SCORE.SYSTEM.SOLV>
0

>  <SCORE.SYSTEM.norm>
0

>  <SCORE.heavy>
27

>  <SCORE.norm>
-1.01988

>  <RMSD>
5.608

$$$$
lig.pdb
 OpenBabel11021811523D
libRbt.so/2013.1/901 2013/11/27
 27 30  0  0  0  0  0  0  0  0999 V2000
   27.5613   39.2487   25.3459 N   0  0  0  0  0  0  0  0  0  0  0  0
   27.3105   39.4949   24.0839 C   0  0  0  0  0  0  0  0  0  0  0  0
   27.2317   38.5527   23.1107 N   0  0  0  0  0  0  0  0  0  0  0  0
   27.3742   37.2391   23.4589 C   0  0  0  0  0  0  0  0  0  0  0  0
   27.6101   36.8882   24.7572 C   0  0  0  0  0  0  0  0  0  0  0  0
   27.7278   37.9258   25.7538 C   0  0  0  0  0  0  0  0  0  0  0  0
   27.9925   37.6900   26.9392 O   0  0  0  0  0  0  0  0  0  0  0  0
   27.2538   40.9277   23.5100 C   0  0  2  0  0  0  0  0  0  0  0  0
   28.1185   40.8002   22.2452 C   0  0  0  0  0  0  0  0  0  0  0  0
   28.4146   42.1074   21.6565 N   0  0  0  0  0  0  0  0  0  0  0  0
   29.1940   42.9027   22.6190 C   0  0  0  0  0  0  0  0  0  0  0  0
   28.3880   43.1697   23.8749 C   0  0  0  0  0  0  0  0  0  0  0  0
   27.9349   41.8671   24.5197 C   0  0  0  0  0  0  0  0  0  0  0  0
   27.2232   36.3418   22.3212 C   0  0  0  0  0  0  0  0  0  0  0  0
   26.8711   34.6667   22.5335 S   0  0  0  0  0  0  0  0  0  0  0  0
   26.8943   34.3887   20.8803 C   0  0  0  0  0  0  0  0  0  0  0  0
   27.1086   35.5138   20.1867 C   0  0  0  0  0  0  0  0  0  0  0  0
   27.3081   36.6471   20.9990 C   0  0  0  0  0  0  0  0  0  0  0  0
   29.1447   41.9852   20.3824 C   0  0  0  0  0  0  0  0  0  0  0  0
   28.4049   42.4669   19.1544 C   0  0  0  0  0  0  0  0  0  0  0  0
   27.0376   42.2738   19.0203 C   0  0  0  0  0  0  0  0  0  0  0  0
   26.3734   42.3387   17.8522 N   0  0  0  0  0  0  0  0  0  0  0  0
   27.1450   42.5692   16.8005 C   0  0  0  0  0  0  0  0  0  0  0  0
   28.4578   42.7329   16.7638 N   0  0  0  0  0  0  0  0  0  0  0  0
   29.0648   42.6516   17.9570 C   0  0  0  0  0  0  0  0  0  0  0  0
   26.4821   42.6242   15.6397 O   0  0  0  0  0  0  0  0  0  0  0  0
   25.9211   43.8857   15.2580 C   0  0  0  0  0  0  0  0  0  0  0  0
  1  2  2  0  0  0  0
  1  6  1  0  0  0  0
  2  3  1  0  0  0  0
  3  4  2  0  0  0  0
  4 14  1  0  0  0  0
  5  4  1  0  0  0  0
  6  5  1  0  0  0  0
  7  6  2  0  0  0  0
  8  9  1  0  0  0  0
  8  2  1  1  0  0  0
 10 19  1  0  0  0  0
 10  9  1  0  0  0  0
 11 10  1  0  0  0  0
 12 11  1  0  0  0  0
 12 13  1  0  0  0  0
 13  8  1  0  0  0  0
 14 15  1  0  0  0  0
 14 18  2  0  0  0  0
 15 16  1  0  0  0  0
 16 17  2  0  0  0  0
 18 17  1  0  0  0  0
 19 20  1  0  0  0  0
 20 25  2  0  0  0  0
 20 21  1  0  0  0  0
 21 22  2  0  0  0  0
 22 23  1  0  0  0  0
 23 26  1  0  0  0  0
 24 23  2  0  0  0  0
 25 24  1  0  0  0  0
 26 27  1  0  0  0  0
M  END
>  <CHROM.1>
-160.80664070,132.54758645,114.75622263,-36.95084119,86.36609685,27.57495933
39.79792990,21.42838795,-1.58052064,-1.34407194,-0.82840972

>  <Name>
lig.pdb

>  <RI>
0

>  <Rbt.Current_Directory>
/home/itssahil/PROJECTS/Mol_Feturizer/New_Systems/rnas/5kx9

>  <Rbt.Executable>
rbdock ($Id: //depot/dev/client3/rdock/2013.1/src/exe/rbdock.cxx#4 $)

>  <Rbt.Library>
libRbt.so (2013.1, Build901 2013/11/27)

>  <Rbt.Parameter_File>
/export/apps/rDock/src/rDock_2013.1_src/data/scripts/dock_solv.prm

>  <Rbt.Receptor>
prm/blind_docking_100.prm

>  <SCORE>
-35.8938

>  <SCORE.INTER>
-35.1369

>  <SCORE.INTER.CONST>
1

>  <SCORE.INTER.POLAR>
0

>  <SCORE.INTER.ROT>
5

>  <SCORE.INTER.SOLV>
16.0995

>  <SCORE.INTER.VDW>
-35.7245

>  <SCORE.INTER.norm>
-1.30137

>  <SCORE.INTRA>
-0.756813

>  <SCORE.INTRA.DIHEDRAL>
7.89729

>  <SCORE.INTRA.DIHEDRAL.0>
2.68224

>  <SCORE.INTRA.POLAR>
0

>  <SCORE.INTRA.POLAR.0>
0

>  <SCORE.INTRA.REPUL>
0

>  <SCORE.INTRA.REPUL.0>
0

>  <SCORE.INTRA.SOLV>
-0.600183

>  <SCORE.INTRA.SOLV.lig_0>
-19.4148

>  <SCORE.INTRA.VDW>
-4.40537

>  <SCORE.INTRA.VDW.0>
5.42093

>  <SCORE.INTRA.norm>
-0.0280301

>  <SCORE.RESTR>
0

>  <SCORE.RESTR.CAVITY>
0

>  <SCORE.RESTR.norm>
0

>  <SCORE.SYSTEM>
0

>  <SCORE.SYSTEM.CONST>
0

>  <SCORE.SYSTEM.DIHEDRAL>
0

>  <SCORE.SYSTEM.SOLV>
0

>  <SCORE.SYSTEM.norm>
0

>  <SCORE.heavy>
27

>  <SCORE.norm>
-1.3294

>  <RMSD>
5.614

$$$$
lig.pdb
 OpenBabel11021811523D
libRbt.so/2013.1/901 2013/11/27
 27 30  0  0  0  0  0  0  0  0999 V2000
   26.6013   39.4779   24.9741 N   0  0  0  0  0  0  0  0  0  0  0  0
   26.9769   39.6757   23.7347 C   0  0  0  0  0  0  0  0  0  0  0  0
   27.2220   38.6925   22.8324 N   0  0  0  0  0  0  0  0  0  0  0  0
   27.0226   37.3943   23.2091 C   0  0  0  0  0  0  0  0  0  0  0  0
   26.6040   37.0966   24.4742 C   0  0  0  0  0  0  0  0  0  0  0  0
   26.3952   38.1714   25.4149 C   0  0  0  0  0  0  0  0  0  0  0  0
   26.0675   37.9777   26.5922 O   0  0  0  0  0  0  0  0  0  0  0  0
   27.3688   41.0689   23.1953 C   0  0  2  0  0  0  0  0  0  0  0  0
   27.4579   40.8127   21.6821 C   0  0  0  0  0  0  0  0  0  0  0  0
   28.0594   41.9446   20.9748 N   0  0  0  0  0  0  0  0  0  0  0  0
   29.4397   42.1303   21.4507 C   0  0  0  0  0  0  0  0  0  0  0  0
   29.4582   42.4855   22.9244 C   0  0  0  0  0  0  0  0  0  0  0  0
   28.7599   41.4158   23.7524 C   0  0  0  0  0  0  0  0  0  0  0  0
   27.2835   36.4541   22.1273 C   0  0  0  0  0  0  0  0  0  0  0  0
   26.9327   34.7730   22.2885 S   0  0  0  0  0  0  0  0  0  0  0  0
   27.5089   34.4418   20.7493 C   0  0  0  0  0  0  0  0  0  0  0  0
   27.9056   35.5517   20.1140 C   0  0  0  0  0  0  0  0  0  0  0  0
   27.7907   36.7189   20.8940 C   0  0  0  0  0  0  0  0  0  0  0  0
   28.0423   41.7532   19.5138 C   0  0  0  0  0  0  0  0  0  0  0  0
   26.9560   42.4959   18.7684 C   0  0  0  0  0  0  0  0  0  0  0  0
   25.6154   42.2745   19.0482 C   0  0  0  0  0  0  0  0  0  0  0  0
   24.6041   42.6034   18.2241 N   0  0  0  0  0  0  0  0  0  0  0  0
   24.9912   43.1353   17.0744 C   0  0  0  0  0  0  0  0  0  0  0  0
   26.2226   43.3695   16.6500 N   0  0  0  0  0  0  0  0  0  0  0  0
   27.1877   43.0154   17.5115 C   0  0  0  0  0  0  0  0  0  0  0  0
   23.9832   43.4528   16.2540 O   0  0  0  0  0  0  0  0  0  0  0  0
   24.2553   44.3881   15.2037 C   0  0  0  0  0  0  0  0  0  0  0  0
  1  2  2  0  0  0  0
  1  6  1  0  0  0  0
  2  3  1  0  0  0  0
  3  4  2  0  0  0  0
  4 14  1  0  0  0  0
  5  4  1  0  0  0  0
  6  5  1  0  0  0  0
  7  6  2  0  0  0  0
  8  9  1  0  0  0  0
  8  2  1  1  0  0  0
 10 19  1  0  0  0  0
 10  9  1  0  0  0  0
 11 10  1  0  0  0  0
 12 11  1  0  0  0  0
 12 13  1  0  0  0  0
 13  8  1  0  0  0  0
 14 15  1  0  0  0  0
 14 18  2  0  0  0  0
 15 16  1  0  0  0  0
 16 17  2  0  0  0  0
 18 17  1  0  0  0  0
 19 20  1  0  0  0  0
 20 25  2  0  0  0  0
 20 21  1  0  0  0  0
 21 22  2  0  0  0  0
 22 23  1  0  0  0  0
 23 26  1  0  0  0  0
 24 23  2  0  0  0  0
 25 24  1  0  0  0  0
 26 27  1  0  0  0  0
M  END
>  <CHROM.1>
-172.89144123,-169.71173555,101.08947663,-59.50522887,161.01021307,26.89462318
39.90641664,21.13511913,-0.99377560,-1.27510258,-0.21003099

>  <Name>
lig.pdb

>  <RI>
0

>  <Rbt.Current_Directory>
/home/itssahil/PROJECTS/Mol_Feturizer/New_Systems/rnas/5kx9

>  <Rbt.Executable>
rbdock ($Id: //depot/dev/client3/rdock/2013.1/src/exe/rbdock.cxx#4 $)

>  <Rbt.Library>
libRbt.so (2013.1, Build901 2013/11/27)

>  <Rbt.Parameter_File>
/export/apps/rDock/src/rDock_2013.1_src/data/scripts/dock_solv.prm

>  <Rbt.Receptor>
prm/blind_docking_60.prm

>  <SCORE>
-36.7611

>  <SCORE.INTER>
-37.2985

>  <SCORE.INTER.CONST>
1

>  <SCORE.INTER.POLAR>
0

>  <SCORE.INTER.ROT>
5

>  <SCORE.INTER.SOLV>
17.4109

>  <SCORE.INTER.VDW>
-37.6026

>  <SCORE.INTER.norm>
-1.38142

>  <SCORE.INTRA>
0.537345

>  <SCORE.INTRA.DIHEDRAL>
1.78401

>  <SCORE.INTRA.DIHEDRAL.0>
2.68224

>  <SCORE.INTRA.POLAR>
0

>  <SCORE.INTRA.POLAR.0>
0

>  <SCORE.INTRA.REPUL>
0

>  <SCORE.INTRA.REPUL.0>
0

>  <SCORE.INTRA.SOLV>
-0.584226

>  <SCORE.INTRA.SOLV.lig_0>
-19.4148

>  <SCORE.INTRA.VDW>
-0.0625463

>  <SCORE.INTRA.VDW.0>
5.42093

>  <SCORE.INTRA.norm>
0.0199016

>  <SCORE.RESTR>
0

>  <SCORE.RESTR.CAVITY>
0

>  <SCORE.RESTR.norm>
0

>  <SCORE.SYSTEM>
0

>  <SCORE.SYSTEM.CONST>
0

>  <SCORE.SYSTEM.DIHEDRAL>
0

>  <SCORE.SYSTEM.SOLV>
0

>  <SCORE.SYSTEM.norm>
0

>  <SCORE.heavy>
27

>  <SCORE.norm>
-1.36152

>  <RMSD>
5.615

$$$$
lig.pdb
 OpenBabel11021811523D
libRbt.so/2013.1/901 2013/11/27
 27 30  0  0  0  0  0  0  0  0999 V2000
   26.8584   39.3331   24.8158 N   0  0  0  0  0  0  0  0  0  0  0  0
   27.0942   39.4406   23.5317 C   0  0  0  0  0  0  0  0  0  0  0  0
   27.2493   38.3946   22.6814 N   0  0  0  0  0  0  0  0  0  0  0  0
   27.1057   37.1269   23.1708 C   0  0  0  0  0  0  0  0  0  0  0  0
   26.8310   36.9216   24.4924 C   0  0  0  0  0  0  0  0  0  0  0  0
   26.7152   38.0618   25.3701 C   0  0  0  0  0  0  0  0  0  0  0  0
   26.5202   37.9540   26.5871 O   0  0  0  0  0  0  0  0  0  0  0  0
   27.4104   40.7915   22.8530 C   0  0  2  0  0  0  0  0  0  0  0  0
   27.0045   40.5200   21.3952 C   0  0  0  0  0  0  0  0  0  0  0  0
   27.4460   41.5915   20.5007 N   0  0  0  0  0  0  0  0  0  0  0  0
   28.9161   41.6595   20.5209 C   0  0  0  0  0  0  0  0  0  0  0  0
   29.4197   42.0200   21.9046 C   0  0  0  0  0  0  0  0  0  0  0  0
   28.9290   41.0195   22.9418 C   0  0  0  0  0  0  0  0  0  0  0  0
   27.2564   36.1108   22.1379 C   0  0  0  0  0  0  0  0  0  0  0  0
   27.8140   36.5088   20.5549 S   0  0  0  0  0  0  0  0  0  0  0  0
   27.6764   34.9194   20.0395 C   0  0  0  0  0  0  0  0  0  0  0  0
   27.2749   34.1067   21.0251 C   0  0  0  0  0  0  0  0  0  0  0  0
   27.0206   34.7755   22.2383 C   0  0  0  0  0  0  0  0  0  0  0  0
   26.9609   41.3941   19.1234 C   0  0  0  0  0  0  0  0  0  0  0  0
   26.3420   42.6078   18.4665 C   0  0  0  0  0  0  0  0  0  0  0  0
   24.9777   42.8470   18.5447 C   0  0  0  0  0  0  0  0  0  0  0  0
   24.3035   43.6704   17.7216 N   0  0  0  0  0  0  0  0  0  0  0  0
   25.0491   44.2248   16.7775 C   0  0  0  0  0  0  0  0  0  0  0  0
   26.3430   44.0639   16.5512 N   0  0  0  0  0  0  0  0  0  0  0  0
   26.9592   43.2278   17.3997 C   0  0  0  0  0  0  0  0  0  0  0  0
   24.3734   45.0359   15.9555 O   0  0  0  0  0  0  0  0  0  0  0  0
   23.6526   44.4312   14.8755 C   0  0  0  0  0  0  0  0  0  0  0  0
  1  2  2  0  0  0  0
  1  6  1  0  0  0  0
  2  3  1  0  0  0  0
  3  4  2  0  0  0  0
  4 14  1  0  0  0  0
  5  4  1  0  0  0  0
  6  5  1  0  0  0  0
  7  6  2  0  0  0  0
  8  9  1  0  0  0  0
  8  2  1  1  0  0  0
 10 19  1  0  0  0  0
 10  9  1  0  0  0  0
 11 10  1  0  0  0  0
 12 11  1  0  0  0  0
 12 13  1  0  0  0  0
 13  8  1  0  0  0  0
 14 15  1  0  0  0  0
 14 18  2  0  0  0  0
 15 16  1  0  0  0  0
 16 17  2  0  0  0  0
 18 17  1  0  0  0  0
 19 20  1  0  0  0  0
 20 25  2  0  0  0  0
 20 21  1  0  0  0  0
 21 22  2  0  0  0  0
 22 23  1  0  0  0  0
 23 26  1  0  0  0  0
 24 23  2  0  0  0  0
 25 24  1  0  0  0  0
 26 27  1  0  0  0  0
M  END
>  <CHROM.1>
9.45981543,-156.47469017,132.74158485,-91.80128439,-82.15586667,26.82718521
40.00069165,20.78157504,-0.52042123,-1.33382694,0.30401965

>  <Name>
lig.pdb

>  <RI>
0

>  <Rbt.Current_Directory>
/home/itssahil/PROJECTS/Mol_Feturizer/New_Systems/rnas/5kx9

>  <Rbt.Executable>
rbdock ($Id: //depot/dev/client3/rdock/2013.1/src/exe/rbdock.cxx#4 $)

>  <Rbt.Library>
libRbt.so (2013.1, Build901 2013/11/27)

>  <Rbt.Parameter_File>
/export/apps/rDock/src/rDock_2013.1_src/data/scripts/dock_solv.prm

>  <Rbt.Receptor>
prm/blind_docking_80.prm

>  <SCORE>
-37.9635

>  <SCORE.INTER>
-36.4219

>  <SCORE.INTER.CONST>
1

>  <SCORE.INTER.POLAR>
0

>  <SCORE.INTER.ROT>
5

>  <SCORE.INTER.SOLV>
17.0897

>  <SCORE.INTER.VDW>
-36.9112

>  <SCORE.INTER.norm>
-1.34896

>  <SCORE.INTRA>
-1.54164

>  <SCORE.INTRA.DIHEDRAL>
5.6077

>  <SCORE.INTRA.DIHEDRAL.0>
2.68224

>  <SCORE.INTRA.POLAR>
0

>  <SCORE.INTRA.POLAR.0>
0

>  <SCORE.INTRA.REPUL>
0

>  <SCORE.INTRA.REPUL.0>
0

>  <SCORE.INTRA.SOLV>
-0.543527

>  <SCORE.INTRA.SOLV.lig_0>
-19.4148

>  <SCORE.INTRA.VDW>
-4.07373

>  <SCORE.INTRA.VDW.0>
5.42093

>  <SCORE.INTRA.norm>
-0.0570978

>  <SCORE.RESTR>
0

>  <SCORE.RESTR.CAVITY>
0

>  <SCORE.RESTR.norm>
0

>  <SCORE.SYSTEM>
0

>  <SCORE.SYSTEM.CONST>
0

>  <SCORE.SYSTEM.DIHEDRAL>
0

>  <SCORE.SYSTEM.SOLV>
0

>  <SCORE.SYSTEM.norm>
0

>  <SCORE.heavy>
27

>  <SCORE.norm>
-1.40606

>  <RMSD>
5.621

$$$$
lig.pdb
 OpenBabel11021811523D
libRbt.so/2013.1/901 2013/11/27
 27 30  0  0  0  0  0  0  0  0999 V2000
   28.0550   39.4074   26.1711 N   0  0  0  0  0  0  0  0  0  0  0  0
   27.6344   39.6745   24.9595 C   0  0  0  0  0  0  0  0  0  0  0  0
   27.4017   38.7467   23.9971 N   0  0  0  0  0  0  0  0  0  0  0  0
   27.5664   37.4263   24.3079 C   0  0  0  0  0  0  0  0  0  0  0  0
   27.9753   37.0544   25.5565 C   0  0  0  0  0  0  0  0  0  0  0  0
   28.2516   38.0766   26.5375 C   0  0  0  0  0  0  0  0  0  0  0  0
   28.6754   37.8206   27.6714 O   0  0  0  0  0  0  0  0  0  0  0  0
   27.5253   41.1155   24.4143 C   0  0  2  0  0  0  0  0  0  0  0  0
   28.5184   41.0897   23.2410 C   0  0  0  0  0  0  0  0  0  0  0  0
   28.7704   42.4321   22.7141 N   0  0  0  0  0  0  0  0  0  0  0  0
   29.3872   43.2542   23.7677 C   0  0  0  0  0  0  0  0  0  0  0  0
   28.4425   43.4235   24.9412 C   0  0  0  0  0  0  0  0  0  0  0  0
   28.0289   42.0726   25.5081 C   0  0  0  0  0  0  0  0  0  0  0  0
   27.2401   36.5469   23.1934 C   0  0  0  0  0  0  0  0  0  0  0  0
   27.5528   37.0057   21.5603 S   0  0  0  0  0  0  0  0  0  0  0  0
   26.9099   35.5743   20.9698 C   0  0  0  0  0  0  0  0  0  0  0  0
   26.5183   34.7574   21.9558 C   0  0  0  0  0  0  0  0  0  0  0  0
   26.6932   35.3031   23.2425 C   0  0  0  0  0  0  0  0  0  0  0  0
   29.6305   42.4019   21.5180 C   0  0  0  0  0  0  0  0  0  0  0  0
   29.1306   41.5498   20.3729 C   0  0  0  0  0  0  0  0  0  0  0  0
   27.8796   41.7648   19.8130 C   0  0  0  0  0  0  0  0  0  0  0  0
   27.2199   40.8646   19.0617 N   0  0  0  0  0  0  0  0  0  0  0  0
   27.8504   39.7082   18.9208 C   0  0  0  0  0  0  0  0  0  0  0  0
   29.0187   39.3420   19.4233 N   0  0  0  0  0  0  0  0  0  0  0  0
   29.6253   40.2784   20.1676 C   0  0  0  0  0  0  0  0  0  0  0  0
   27.1872   38.8126   18.1805 O   0  0  0  0  0  0  0  0  0  0  0  0
   26.9719   39.1260   16.7996 C   0  0  0  0  0  0  0  0  0  0  0  0
  1  2  2  0  0  0  0
  1  6  1  0  0  0  0
  2  3  1  0  0  0  0
  3  4  2  0  0  0  0
  4 14  1  0  0  0  0
  5  4  1  0  0  0  0
  6  5  1  0  0  0  0
  7  6  2  0  0  0  0
  8  9  1  0  0  0  0
  8  2  1  1  0  0  0
 10 19  1  0  0  0  0
 10  9  1  0  0  0  0
 11 10  1  0  0  0  0
 12 11  1  0  0  0  0
 12 13  1  0  0  0  0
 13  8  1  0  0  0  0
 14 15  1  0  0  0  0
 14 18  2  0  0  0  0
 15 16  1  0  0  0  0
 16 17  2  0  0  0  0
 18 17  1  0  0  0  0
 19 20  1  0  0  0  0
 20 25  2  0  0  0  0
 20 21  1  0  0  0  0
 21 22  2  0  0  0  0
 22 23  1  0  0  0  0
 23 26  1  0  0  0  0
 24 23  2  0  0  0  0
 25 24  1  0  0  0  0
 26 27  1  0  0  0  0
M  END
>  <CHROM.1>
34.29559329,117.68834764,56.37467711,56.53217334,64.56253138,27.97234097
39.34365393,22.49327288,-1.38332835,-1.32045478,-1.33874971

>  <Name>
lig.pdb

>  <RI>
0

>  <Rbt.Current_Directory>
/home/itssahil/PROJECTS/Mol_Feturizer/New_Systems/rnas/5kx9

>  <Rbt.Executable>
rbdock ($Id: //depot/dev/client3/rdock/2013.1/src/exe/rbdock.cxx#4 $)

>  <Rbt.Library>
libRbt.so (2013.1, Build901 2013/11/27)

>  <Rbt.Parameter_File>
/export/apps/rDock/src/rDock_2013.1_src/data/scripts/dock_solv.prm

>  <Rbt.Receptor>
prm/blind_docking_60.prm

>  <SCORE>
-35.3278

>  <SCORE.INTER>
-32.5073

>  <SCORE.INTER.CONST>
1

>  <SCORE.INTER.POLAR>
0

>  <SCORE.INTER.ROT>
5

>  <SCORE.INTER.SOLV>
12.6561

>  <SCORE.INTER.VDW>
-32.8236

>  <SCORE.INTER.norm>
-1.20398

>  <SCORE.INTRA>
-2.82044

>  <SCORE.INTRA.DIHEDRAL>
6.62009

>  <SCORE.INTRA.DIHEDRAL.0>
2.68224

>  <SCORE.INTRA.POLAR>
0

>  <SCORE.INTRA.POLAR.0>
0

>  <SCORE.INTRA.REPUL>
0

>  <SCORE.INTRA.REPUL.0>
0

>  <SCORE.INTRA.SOLV>
0.0457647

>  <SCORE.INTRA.SOLV.lig_0>
-19.4148

>  <SCORE.INTRA.VDW>
-6.15336

>  <SCORE.INTRA.VDW.0>
5.42093

>  <SCORE.INTRA.norm>
-0.104461

>  <SCORE.RESTR>
0

>  <SCORE.RESTR.CAVITY>
0

>  <SCORE.RESTR.norm>
0

>  <SCORE.SYSTEM>
0

>  <SCORE.SYSTEM.CONST>
0

>  <SCORE.SYSTEM.DIHEDRAL>
0

>  <SCORE.SYSTEM.SOLV>
0

>  <SCORE.SYSTEM.norm>
0

>  <SCORE.heavy>
27

>  <SCORE.norm>
-1.30844

>  <RMSD>
5.628

$$$$
lig.pdb
 OpenBabel11021811523D
libRbt.so/2013.1/901 2013/11/27
 27 30  0  0  0  0  0  0  0  0999 V2000
   26.8591   39.4220   24.8736 N   0  0  0  0  0  0  0  0  0  0  0  0
   27.1372   39.5991   23.6058 C   0  0  0  0  0  0  0  0  0  0  0  0
   27.3093   38.6010   22.7028 N   0  0  0  0  0  0  0  0  0  0  0  0
   27.1374   37.3095   23.1146 C   0  0  0  0  0  0  0  0  0  0  0  0
   26.8182   37.0331   24.4131 C   0  0  0  0  0  0  0  0  0  0  0  0
   26.6855   38.1232   25.3500 C   0  0  0  0  0  0  0  0  0  0  0  0
   26.4502   37.9492   26.5522 O   0  0  0  0  0  0  0  0  0  0  0  0
   27.4886   40.9823   23.0152 C   0  0  2  0  0  0  0  0  0  0  0  0
   26.8528   40.9044   21.6176 C   0  0  0  0  0  0  0  0  0  0  0  0
   27.2683   42.0232   20.7697 N   0  0  0  0  0  0  0  0  0  0  0  0
   28.7254   41.9610   20.5717 C   0  0  0  0  0  0  0  0  0  0  0  0
   29.4557   42.1266   21.8898 C   0  0  0  0  0  0  0  0  0  0  0  0
   29.0194   41.0672   22.8922 C   0  0  0  0  0  0  0  0  0  0  0  0
   27.3112   36.3515   22.0309 C   0  0  0  0  0  0  0  0  0  0  0  0
   27.0001   34.6698   22.2546 S   0  0  0  0  0  0  0  0  0  0  0  0
   27.4376   34.3155   20.6753 C   0  0  0  0  0  0  0  0  0  0  0  0
   27.7589   35.4175   19.9859 C   0  0  0  0  0  0  0  0  0  0  0  0
   27.6997   36.5983   20.7516 C   0  0  0  0  0  0  0  0  0  0  0  0
   26.5737   42.0170   19.4701 C   0  0  0  0  0  0  0  0  0  0  0  0
   26.8179   40.8025   18.6025 C   0  0  0  0  0  0  0  0  0  0  0  0
   27.1616   40.9352   17.2650 C   0  0  0  0  0  0  0  0  0  0  0  0
   27.0497   39.9534   16.3520 N   0  0  0  0  0  0  0  0  0  0  0  0
   26.5366   38.8275   16.8251 C   0  0  0  0  0  0  0  0  0  0  0  0
   26.1268   38.5638   18.0555 N   0  0  0  0  0  0  0  0  0  0  0  0
   26.2577   39.5820   18.9186 C   0  0  0  0  0  0  0  0  0  0  0  0
   26.4186   37.8565   15.9122 O   0  0  0  0  0  0  0  0  0  0  0  0
   26.5649   36.5047   16.3626 C   0  0  0  0  0  0  0  0  0  0  0  0
  1  2  2  0  0  0  0
  1  6  1  0  0  0  0
  2  3  1  0  0  0  0
  3  4  2  0  0  0  0
  4 14  1  0  0  0  0
  5  4  1  0  0  0  0
  6  5  1  0  0  0  0
  7  6  2  0  0  0  0
  8  9  1  0  0  0  0
  8  2  1  1  0  0  0
 10 19  1  0  0  0  0
 10  9  1  0  0  0  0
 11 10  1  0  0  0  0
 12 11  1  0  0  0  0
 12 13  1  0  0  0  0
 13  8  1  0  0  0  0
 14 15  1  0  0  0  0
 14 18  2  0  0  0  0
 15 16  1  0  0  0  0
 16 17  2  0  0  0  0
 18 17  1  0  0  0  0
 19 20  1  0  0  0  0
 20 25  2  0  0  0  0
 20 21  1  0  0  0  0
 21 22  2  0  0  0  0
 22 23  1  0  0  0  0
 23 26  1  0  0  0  0
 24 23  2  0  0  0  0
 25 24  1  0  0  0  0
 26 27  1  0  0  0  0
M  END
>  <CHROM.1>
-174.09732357,-144.78645993,-61.60987082,-131.29514393,147.97723026,27.17032676
38.68211435,20.96555398,-1.25410190,-1.44122134,-1.03787512

>  <Name>
lig.pdb

>  <RI>
0

>  <Rbt.Current_Directory>
/home/itssahil/PROJECTS/Mol_Feturizer/New_Systems/rnas/5kx9

>  <Rbt.Executable>
rbdock ($Id: //depot/dev/client3/rdock/2013.1/src/exe/rbdock.cxx#4 $)

>  <Rbt.Library>
libRbt.so (2013.1, Build901 2013/11/27)

>  <Rbt.Parameter_File>
/export/apps/rDock/src/rDock_2013.1_src/data/scripts/dock_solv.prm

>  <Rbt.Receptor>
prm/pocket_docking_5.prm

>  <SCORE>
-37.8381

>  <SCORE.INTER>
-34.1782

>  <SCORE.INTER.CONST>
1

>  <SCORE.INTER.POLAR>
0

>  <SCORE.INTER.ROT>
5

>  <SCORE.INTER.SOLV>
16.1411

>  <SCORE.INTER.VDW>
-35.0992

>  <SCORE.INTER.norm>
-1.26586

>  <SCORE.INTRA>
-3.65987

>  <SCORE.INTRA.DIHEDRAL>
0.354296

>  <SCORE.INTRA.DIHEDRAL.0>
2.68224

>  <SCORE.INTRA.POLAR>
0

>  <SCORE.INTRA.POLAR.0>
0

>  <SCORE.INTRA.REPUL>
0

>  <SCORE.INTRA.REPUL.0>
0

>  <SCORE.INTRA.SOLV>
-0.284212

>  <SCORE.INTRA.SOLV.lig_0>
-19.4148

>  <SCORE.INTRA.VDW>
-3.69491

>  <SCORE.INTRA.VDW.0>
5.42093

>  <SCORE.INTRA.norm>
-0.135551

>  <SCORE.RESTR>
0

>  <SCORE.RESTR.CAVITY>
0

>  <SCORE.RESTR.norm>
0

>  <SCORE.SYSTEM>
0

>  <SCORE.SYSTEM.CONST>
0

>  <SCORE.SYSTEM.DIHEDRAL>
0

>  <SCORE.SYSTEM.SOLV>
0

>  <SCORE.SYSTEM.norm>
0

>  <SCORE.heavy>
27

>  <SCORE.norm>
-1.40141

>  <RMSD>
5.633

$$$$
lig.pdb
 OpenBabel11021811523D
libRbt.so/2013.1/901 2013/11/27
 27 30  0  0  0  0  0  0  0  0999 V2000
   26.7611   39.4026   24.8337 N   0  0  0  0  0  0  0  0  0  0  0  0
   27.0452   39.5513   23.5635 C   0  0  0  0  0  0  0  0  0  0  0  0
   27.2330   38.5332   22.6865 N   0  0  0  0  0  0  0  0  0  0  0  0
   27.0717   37.2505   23.1289 C   0  0  0  0  0  0  0  0  0  0  0  0
   26.7474   37.0028   24.4319 C   0  0  0  0  0  0  0  0  0  0  0  0
   26.5978   38.1141   25.3409 C   0  0  0  0  0  0  0  0  0  0  0  0
   26.3570   37.9673   26.5456 O   0  0  0  0  0  0  0  0  0  0  0  0
   27.3861   40.9232   22.9412 C   0  0  2  0  0  0  0  0  0  0  0  0
   27.1183   40.6727   21.4482 C   0  0  0  0  0  0  0  0  0  0  0  0
   27.6101   41.7728   20.6169 N   0  0  0  0  0  0  0  0  0  0  0  0
   29.0704   41.8751   20.7697 C   0  0  0  0  0  0  0  0  0  0  0  0
   29.4398   42.2184   22.1993 C   0  0  0  0  0  0  0  0  0  0  0  0
   28.8844   41.1851   23.1696 C   0  0  0  0  0  0  0  0  0  0  0  0
   27.2619   36.2681   22.0702 C   0  0  0  0  0  0  0  0  0  0  0  0
   26.8691   34.6045   22.3015 S   0  0  0  0  0  0  0  0  0  0  0  0
   27.3739   34.2060   20.7532 C   0  0  0  0  0  0  0  0  0  0  0  0
   27.7772   35.2821   20.0659 C   0  0  0  0  0  0  0  0  0  0  0  0
   27.7274   36.4770   20.8099 C   0  0  0  0  0  0  0  0  0  0  0  0
   27.2545   41.5929   19.1983 C   0  0  0  0  0  0  0  0  0  0  0  0
   26.3176   42.6304   18.6210 C   0  0  0  0  0  0  0  0  0  0  0  0
   24.9443   42.5274   18.7883 C   0  0  0  0  0  0  0  0  0  0  0  0
   24.0376   43.1761   18.0352 N   0  0  0  0  0  0  0  0  0  0  0  0
   24.5624   43.9133   17.0679 C   0  0  0  0  0  0  0  0  0  0  0  0
   25.8389   44.0778   16.7597 N   0  0  0  0  0  0  0  0  0  0  0  0
   26.6942   43.4021   17.5412 C   0  0  0  0  0  0  0  0  0  0  0  0
   23.6574   44.5497   16.3155 O   0  0  0  0  0  0  0  0  0  0  0  0
   23.7731   44.4227   14.8935 C   0  0  0  0  0  0  0  0  0  0  0  0
  1  2  2  0  0  0  0
  1  6  1  0  0  0  0
  2  3  1  0  0  0  0
  3  4  2  0  0  0  0
  4 14  1  0  0  0  0
  5  4  1  0  0  0  0
  6  5  1  0  0  0  0
  7  6  2  0  0  0  0
  8  9  1  0  0  0  0
  8  2  1  1  0  0  0
 10 19  1  0  0  0  0
 10  9  1  0  0  0  0
 11 10  1  0  0  0  0
 12 11  1  0  0  0  0
 12 13  1  0  0  0  0
 13  8  1  0  0  0  0
 14 15  1  0  0  0  0
 14 18  2  0  0  0  0
 15 16  1  0  0  0  0
 16 17  2  0  0  0  0
 18 17  1  0  0  0  0
 19 20  1  0  0  0  0
 20 25  2  0  0  0  0
 20 21  1  0  0  0  0
 21 22  2  0  0  0  0
 22 23  1  0  0  0  0
 23 26  1  0  0  0  0
 24 23  2  0  0  0  0
 25 24  1  0  0  0  0
 26 27  1  0  0  0  0
M  END
>  <CHROM.1>
-170.05134912,-159.81638369,115.67110262,-83.17190422,-129.89306819,26.70425363
39.93296583,20.96625063,-0.86273518,-1.24268832,-0.02896921

>  <Name>
lig.pdb

>  <RI>
0

>  <Rbt.Current_Directory>
/home/itssahil/PROJECTS/Mol_Feturizer/New_Systems/rnas/5kx9

>  <Rbt.Executable>
rbdock ($Id: //depot/dev/client3/rdock/2013.1/src/exe/rbdock.cxx#4 $)

>  <Rbt.Library>
libRbt.so (2013.1, Build901 2013/11/27)

>  <Rbt.Parameter_File>
/export/apps/rDock/src/rDock_2013.1_src/data/scripts/dock_solv.prm

>  <Rbt.Receptor>
prm/blind_docking_60.prm

>  <SCORE>
-38.6705

>  <SCORE.INTER>
-37.5979

>  <SCORE.INTER.CONST>
1

>  <SCORE.INTER.POLAR>
0

>  <SCORE.INTER.ROT>
5

>  <SCORE.INTER.SOLV>
17.7384

>  <SCORE.INTER.VDW>
-37.9114

>  <SCORE.INTER.norm>
-1.39251

>  <SCORE.INTRA>
-1.07269

>  <SCORE.INTRA.DIHEDRAL>
4.12933

>  <SCORE.INTRA.DIHEDRAL.0>
2.68224

>  <SCORE.INTRA.POLAR>
0

>  <SCORE.INTRA.POLAR.0>
0

>  <SCORE.INTRA.REPUL>
0

>  <SCORE.INTRA.REPUL.0>
0

>  <SCORE.INTRA.SOLV>
-0.611799

>  <SCORE.INTRA.SOLV.lig_0>
-19.4148

>  <SCORE.INTRA.VDW>
-2.83145

>  <SCORE.INTRA.VDW.0>
5.42093

>  <SCORE.INTRA.norm>
-0.0397291

>  <SCORE.RESTR>
0

>  <SCORE.RESTR.CAVITY>
0

>  <SCORE.RESTR.norm>
0

>  <SCORE.SYSTEM>
0

>  <SCORE.SYSTEM.CONST>
0

>  <SCORE.SYSTEM.DIHEDRAL>
0

>  <SCORE.SYSTEM.SOLV>
0

>  <SCORE.SYSTEM.norm>
0

>  <SCORE.heavy>
27

>  <SCORE.norm>
-1.43224

>  <RMSD>
5.634

$$$$
lig.pdb
 OpenBabel11021811523D
libRbt.so/2013.1/901 2013/11/27
 27 30  0  0  0  0  0  0  0  0999 V2000
   26.7515   36.9381   23.9778 N   0  0  0  0  0  0  0  0  0  0  0  0
   27.5427   37.2444   22.9796 C   0  0  0  0  0  0  0  0  0  0  0  0
   28.0569   38.4786   22.7481 N   0  0  0  0  0  0  0  0  0  0  0  0
   27.7804   39.4796   23.6361 C   0  0  0  0  0  0  0  0  0  0  0  0
   26.9868   39.2429   24.7217 C   0  0  0  0  0  0  0  0  0  0  0  0
   26.4267   37.9255   24.9071 C   0  0  0  0  0  0  0  0  0  0  0  0
   25.6577   37.6485   25.8359 O   0  0  0  0  0  0  0  0  0  0  0  0
   27.8436   36.2646   21.8242 C   0  0  2  0  0  0  0  0  0  0  0  0
   27.2990   37.0289   20.6065 C   0  0  0  0  0  0  0  0  0  0  0  0
   27.2525   36.1837   19.4120 N   0  0  0  0  0  0  0  0  0  0  0  0
   26.3286   35.0633   19.6516 C   0  0  0  0  0  0  0  0  0  0  0  0
   26.8291   34.1843   20.7807 C   0  0  0  0  0  0  0  0  0  0  0  0
   27.0146   34.9904   22.0588 C   0  0  0  0  0  0  0  0  0  0  0  0
   28.4329   40.7333   23.2830 C   0  0  0  0  0  0  0  0  0  0  0  0
   28.1421   42.1833   24.1708 S   0  0  0  0  0  0  0  0  0  0  0  0
   29.1626   43.0690   23.1784 C   0  0  0  0  0  0  0  0  0  0  0  0
   29.7411   42.3033   22.2446 C   0  0  0  0  0  0  0  0  0  0  0  0
   29.3275   40.9575   22.2840 C   0  0  0  0  0  0  0  0  0  0  0  0
   26.8407   36.9411   18.2170 C   0  0  0  0  0  0  0  0  0  0  0  0
   27.7739   38.0529   17.7921 C   0  0  0  0  0  0  0  0  0  0  0  0
   27.2903   39.3172   17.4885 C   0  0  0  0  0  0  0  0  0  0  0  0
   27.9674   40.2382   16.7791 N   0  0  0  0  0  0  0  0  0  0  0  0
   29.1493   39.8278   16.3442 C   0  0  0  0  0  0  0  0  0  0  0  0
   29.7245   38.6484   16.5158 N   0  0  0  0  0  0  0  0  0  0  0  0
   28.9996   37.7708   17.2252 C   0  0  0  0  0  0  0  0  0  0  0  0
   29.8158   40.7433   15.6315 O   0  0  0  0  0  0  0  0  0  0  0  0
   30.2881   41.9047   16.3242 C   0  0  0  0  0  0  0  0  0  0  0  0
  1  2  2  0  0  0  0
  1  6  1  0  0  0  0
  2  3  1  0  0  0  0
  3  4  2  0  0  0  0
  4 14  1  0  0  0  0
  5  4  1  0  0  0  0
  6  5  1  0  0  0  0
  7  6  2  0  0  0  0
  8  9  1  0  0  0  0
  8  2  1  1  0  0  0
 10 19  1  0  0  0  0
 10  9  1  0  0  0  0
 11 10  1  0  0  0  0
 12 11  1  0  0  0  0
 12 13  1  0  0  0  0
 13  8  1  0  0  0  0
 14 15  1  0  0  0  0
 14 18  2  0  0  0  0
 15 16  1  0  0  0  0
 16 17  2  0  0  0  0
 18 17  1  0  0  0  0
 19 20  1  0  0  0  0
 20 25  2  0  0  0  0
 20 21  1  0  0  0  0
 21 22  2  0  0  0  0
 22 23  1  0  0  0  0
 23 26  1  0  0  0  0
 24 23  2  0  0  0  0
 25 24  1  0  0  0  0
 26 27  1  0  0  0  0
M  END
>  <CHROM.1>
174.96257377,118.54333708,63.21480839,-132.31916974,67.98181856,27.94564940
38.79603239,20.89009446,2.13960682,1.17570497,1.08364068

>  <Name>
lig.pdb

>  <RI>
0

>  <Rbt.Current_Directory>
/home/itssahil/PROJECTS/Mol_Feturizer/New_Systems/rnas/5kx9

>  <Rbt.Executable>
rbdock ($Id: //depot/dev/client3/rdock/2013.1/src/exe/rbdock.cxx#4 $)

>  <Rbt.Library>
libRbt.so (2013.1, Build901 2013/11/27)

>  <Rbt.Parameter_File>
/export/apps/rDock/src/rDock_2013.1_src/data/scripts/dock_solv.prm

>  <Rbt.Receptor>
prm/blind_docking_100.prm

>  <SCORE>
-34.0061

>  <SCORE.INTER>
-30.4352

>  <SCORE.INTER.CONST>
1

>  <SCORE.INTER.POLAR>
0

>  <SCORE.INTER.ROT>
5

>  <SCORE.INTER.SOLV>
14.0978

>  <SCORE.INTER.VDW>
-31.9227

>  <SCORE.INTER.norm>
-1.12723

>  <SCORE.INTRA>
-3.57092

>  <SCORE.INTRA.DIHEDRAL>
3.36756

>  <SCORE.INTRA.DIHEDRAL.0>
2.68224

>  <SCORE.INTRA.POLAR>
0

>  <SCORE.INTRA.POLAR.0>
0

>  <SCORE.INTRA.REPUL>
0

>  <SCORE.INTRA.REPUL.0>
0

>  <SCORE.INTRA.SOLV>
-0.635316

>  <SCORE.INTRA.SOLV.lig_0>
-19.4148

>  <SCORE.INTRA.VDW>
-4.93704

>  <SCORE.INTRA.VDW.0>
5.42093

>  <SCORE.INTRA.norm>
-0.132256

>  <SCORE.RESTR>
0

>  <SCORE.RESTR.CAVITY>
0

>  <SCORE.RESTR.norm>
0

>  <SCORE.SYSTEM>
0

>  <SCORE.SYSTEM.CONST>
0

>  <SCORE.SYSTEM.DIHEDRAL>
0

>  <SCORE.SYSTEM.SOLV>
0

>  <SCORE.SYSTEM.norm>
0

>  <SCORE.heavy>
27

>  <SCORE.norm>
-1.25948

>  <RMSD>
5.641

$$$$
lig.pdb
 OpenBabel11021811523D
libRbt.so/2013.1/901 2013/11/27
 27 30  0  0  0  0  0  0  0  0999 V2000
   27.7913   39.3562   25.7790 N   0  0  0  0  0  0  0  0  0  0  0  0
   27.4467   39.5655   24.5326 C   0  0  0  0  0  0  0  0  0  0  0  0
   27.3006   38.5957   23.5950 N   0  0  0  0  0  0  0  0  0  0  0  0
   27.4745   37.2929   23.9687 C   0  0  0  0  0  0  0  0  0  0  0  0
   27.8074   36.9800   25.2555 C   0  0  0  0  0  0  0  0  0  0  0  0
   27.9936   38.0460   26.2108 C   0  0  0  0  0  0  0  0  0  0  0  0
   28.3463   37.8449   27.3796 O   0  0  0  0  0  0  0  0  0  0  0  0
   27.3412   40.9812   23.9240 C   0  0  2  0  0  0  0  0  0  0  0  0
   28.2508   40.8675   22.6898 C   0  0  0  0  0  0  0  0  0  0  0  0
   28.5037   42.1743   22.0802 N   0  0  0  0  0  0  0  0  0  0  0  0
   29.2138   43.0266   23.0475 C   0  0  0  0  0  0  0  0  0  0  0  0
   28.3565   43.2821   24.2714 C   0  0  0  0  0  0  0  0  0  0  0  0
   27.9448   41.9738   24.9321 C   0  0  0  0  0  0  0  0  0  0  0  0
   27.2441   36.3631   22.8712 C   0  0  0  0  0  0  0  0  0  0  0  0
   27.5389   36.8111   21.2319 S   0  0  0  0  0  0  0  0  0  0  0  0
   27.0344   35.3153   20.6674 C   0  0  0  0  0  0  0  0  0  0  0  0
   26.7024   34.4890   21.6674 C   0  0  0  0  0  0  0  0  0  0  0  0
   26.8091   35.0769   22.9429 C   0  0  0  0  0  0  0  0  0  0  0  0
   29.2790   42.0592   20.8324 C   0  0  0  0  0  0  0  0  0  0  0  0
   28.5456   42.4453   19.5674 C   0  0  0  0  0  0  0  0  0  0  0  0
   27.1917   42.1833   19.4160 C   0  0  0  0  0  0  0  0  0  0  0  0
   26.5512   42.1600   18.2332 N   0  0  0  0  0  0  0  0  0  0  0  0
   27.3347   42.3735   17.1868 C   0  0  0  0  0  0  0  0  0  0  0  0
   28.6393   42.5953   17.1679 N   0  0  0  0  0  0  0  0  0  0  0  0
   29.2228   42.6009   18.3755 C   0  0  0  0  0  0  0  0  0  0  0  0
   26.6957   42.3407   16.0117 O   0  0  0  0  0  0  0  0  0  0  0  0
   26.2052   43.5817   15.4912 C   0  0  0  0  0  0  0  0  0  0  0  0
  1  2  2  0  0  0  0
  1  6  1  0  0  0  0
  2  3  1  0  0  0  0
  3  4  2  0  0  0  0
  4 14  1  0  0  0  0
  5  4  1  0  0  0  0
  6  5  1  0  0  0  0
  7  6  2  0  0  0  0
  8  9  1  0  0  0  0
  8  2  1  1  0  0  0
 10 19  1  0  0  0  0
 10  9  1  0  0  0  0
 11 10  1  0  0  0  0
 12 11  1  0  0  0  0
 12 13  1  0  0  0  0
 13  8  1  0  0  0  0
 14 15  1  0  0  0  0
 14 18  2  0  0  0  0
 15 16  1  0  0  0  0
 16 17  2  0  0  0  0
 18 17  1  0  0  0  0
 19 20  1  0  0  0  0
 20 25  2  0  0  0  0
 20 21  1  0  0  0  0
 21 22  2  0  0  0  0
 22 23  1  0  0  0  0
 23 26  1  0  0  0  0
 24 23  2  0  0  0  0
 25 24  1  0  0  0  0
 26 27  1  0  0  0  0
M  END
>  <CHROM.1>
29.42138936,126.00088167,113.28286064,-35.28992293,92.55946650,27.72412164
39.91928023,21.77380968,-1.53941348,-1.34307396,-0.88266405

>  <Name>
lig.pdb

>  <RI>
0

>  <Rbt.Current_Directory>
/home/itssahil/PROJECTS/Mol_Feturizer/New_Systems/rnas/5kx9

>  <Rbt.Executable>
rbdock ($Id: //depot/dev/client3/rdock/2013.1/src/exe/rbdock.cxx#4 $)

>  <Rbt.Library>
libRbt.so (2013.1, Build901 2013/11/27)

>  <Rbt.Parameter_File>
/export/apps/rDock/src/rDock_2013.1_src/data/scripts/dock_solv.prm

>  <Rbt.Receptor>
prm/pocket_docking_5.prm

>  <SCORE>
-35.2676

>  <SCORE.INTER>
-34.39

>  <SCORE.INTER.CONST>
1

>  <SCORE.INTER.POLAR>
0

>  <SCORE.INTER.ROT>
5

>  <SCORE.INTER.SOLV>
15.4955

>  <SCORE.INTER.VDW>
-35.0252

>  <SCORE.INTER.norm>
-1.2737

>  <SCORE.INTRA>
-0.877594

>  <SCORE.INTRA.DIHEDRAL>
9.29301

>  <SCORE.INTRA.DIHEDRAL.0>
2.68224

>  <SCORE.INTRA.POLAR>
0

>  <SCORE.INTRA.POLAR.0>
0

>  <SCORE.INTRA.REPUL>
0

>  <SCORE.INTRA.REPUL.0>
0

>  <SCORE.INTRA.SOLV>
-0.545462

>  <SCORE.INTRA.SOLV.lig_0>
-19.4148

>  <SCORE.INTRA.VDW>
-5.25137

>  <SCORE.INTRA.VDW.0>
5.42093

>  <SCORE.INTRA.norm>
-0.0325035

>  <SCORE.RESTR>
0

>  <SCORE.RESTR.CAVITY>
0

>  <SCORE.RESTR.norm>
0

>  <SCORE.SYSTEM>
0

>  <SCORE.SYSTEM.CONST>
0

>  <SCORE.SYSTEM.DIHEDRAL>
0

>  <SCORE.SYSTEM.SOLV>
0

>  <SCORE.SYSTEM.norm>
0

>  <SCORE.heavy>
27

>  <SCORE.norm>
-1.30621

>  <RMSD>
5.643

$$$$
lig.pdb
 OpenBabel11021811523D
libRbt.so/2013.1/901 2013/11/27
 27 30  0  0  0  0  0  0  0  0999 V2000
   27.8465   40.4619   17.0301 N   0  0  0  0  0  0  0  0  0  0  0  0
   27.1929   39.9717   18.0543 C   0  0  0  0  0  0  0  0  0  0  0  0
   27.2487   40.4638   19.3175 N   0  0  0  0  0  0  0  0  0  0  0  0
   27.9987   41.5818   19.5515 C   0  0  0  0  0  0  0  0  0  0  0  0
   28.6912   42.1764   18.5360 C   0  0  0  0  0  0  0  0  0  0  0  0
   28.6370   41.5953   17.2157 C   0  0  0  0  0  0  0  0  0  0  0  0
   29.2781   42.0456   16.2581 O   0  0  0  0  0  0  0  0  0  0  0  0
   26.4099   38.6422   17.9839 C   0  0  2  0  0  0  0  0  0  0  0  0
   27.1598   37.7746   19.0078 C   0  0  0  0  0  0  0  0  0  0  0  0
   26.7444   36.3725   18.9385 N   0  0  0  0  0  0  0  0  0  0  0  0
   27.0799   35.8369   17.6093 C   0  0  0  0  0  0  0  0  0  0  0  0
   26.3121   36.5667   16.5248 C   0  0  0  0  0  0  0  0  0  0  0  0
   26.5915   38.0625   16.5707 C   0  0  0  0  0  0  0  0  0  0  0  0
   27.9295   42.0184   20.9396 C   0  0  0  0  0  0  0  0  0  0  0  0
   29.2318   42.8702   21.6836 S   0  0  0  0  0  0  0  0  0  0  0  0
   28.4207   42.9558   23.1484 C   0  0  0  0  0  0  0  0  0  0  0  0
   27.1993   42.4118   23.0766 C   0  0  0  0  0  0  0  0  0  0  0  0
   26.9016   41.8601   21.8153 C   0  0  0  0  0  0  0  0  0  0  0  0
   27.3742   35.5585   19.9930 C   0  0  0  0  0  0  0  0  0  0  0  0
   27.0588   35.9693   21.4140 C   0  0  0  0  0  0  0  0  0  0  0  0
   27.6915   37.0543   22.0032 C   0  0  0  0  0  0  0  0  0  0  0  0
   27.7461   37.2721   23.3296 N   0  0  0  0  0  0  0  0  0  0  0  0
   27.1686   36.3294   24.0592 C   0  0  0  0  0  0  0  0  0  0  0  0
   26.5657   35.2252   23.6482 N   0  0  0  0  0  0  0  0  0  0  0  0
   26.5483   35.0601   22.3174 C   0  0  0  0  0  0  0  0  0  0  0  0
   27.2327   36.5450   25.3781 O   0  0  0  0  0  0  0  0  0  0  0  0
   26.7036   37.7810   25.8722 C   0  0  0  0  0  0  0  0  0  0  0  0
  1  2  2  0  0  0  0
  1  6  1  0  0  0  0
  2  3  1  0  0  0  0
  3  4  2  0  0  0  0
  4 14  1  0  0  0  0
  5  4  1  0  0  0  0
  6  5  1  0  0  0  0
  7  6  2  0  0  0  0
  8  9  1  0  0  0  0
  8  2  1  6  0  0  0
 10 19  1  0  0  0  0
 10  9  1  0  0  0  0
 11 10  1  0  0  0  0
 12 11  1  0  0  0  0
 12 13  1  0  0  0  0
 13  8  1  0  0  0  0
 14 15  1  0  0  0  0
 14 18  2  0  0  0  0
 15 16  1  0  0  0  0
 16 17  2  0  0  0  0
 18 17  1  0  0  0  0
 19 20  1  0  0  0  0
 20 25  2  0  0  0  0
 20 21  1  0  0  0  0
 21 22  2  0  0  0  0
 22 23  1  0  0  0  0
 23 26  1  0  0  0  0
 24 23  2  0  0  0  0
 25 24  1  0  0  0  0
 26 27  1  0  0  0  0
M  END
>  <CHROM.1>
151.53219859,117.18304765,60.83325381,-78.27941883,56.16560593,27.53060373
39.06061122,20.48170341,0.77925107,-1.32623089,-1.53612116

>  <Name>
lig.pdb

>  <RI>
0

>  <Rbt.Current_Directory>
/home/itssahil/PROJECTS/Mol_Feturizer/New_Systems/rnas/5kx9

>  <Rbt.Executable>
rbdock ($Id: //depot/dev/client3/rdock/2013.1/src/exe/rbdock.cxx#4 $)

>  <Rbt.Library>
libRbt.so (2013.1, Build901 2013/11/27)

>  <Rbt.Parameter_File>
/export/apps/rDock/src/rDock_2013.1_src/data/scripts/dock_solv.prm

>  <Rbt.Receptor>
prm/pocket_docking_5.prm

>  <SCORE>
-35.0028

>  <SCORE.INTER>
-32.6098

>  <SCORE.INTER.CONST>
1

>  <SCORE.INTER.POLAR>
0

>  <SCORE.INTER.ROT>
5

>  <SCORE.INTER.SOLV>
13.9702

>  <SCORE.INTER.VDW>
-33.3299

>  <SCORE.INTER.norm>
-1.20777

>  <SCORE.INTRA>
-2.40159

>  <SCORE.INTRA.DIHEDRAL>
4.99556

>  <SCORE.INTRA.DIHEDRAL.0>
2.68224

>  <SCORE.INTRA.POLAR>
0

>  <SCORE.INTRA.POLAR.0>
0

>  <SCORE.INTRA.REPUL>
0

>  <SCORE.INTRA.REPUL.0>
0

>  <SCORE.INTRA.SOLV>
-0.588382

>  <SCORE.INTRA.SOLV.lig_0>
-19.4148

>  <SCORE.INTRA.VDW>
-4.60518

>  <SCORE.INTRA.VDW.0>
5.42093

>  <SCORE.INTRA.norm>
-0.0889477

>  <SCORE.RESTR>
0.00862353

>  <SCORE.RESTR.CAVITY>
0.00862353

>  <SCORE.RESTR.norm>
0.00031939

>  <SCORE.SYSTEM>
0

>  <SCORE.SYSTEM.CONST>
0

>  <SCORE.SYSTEM.DIHEDRAL>
0

>  <SCORE.SYSTEM.SOLV>
0

>  <SCORE.SYSTEM.norm>
0

>  <SCORE.heavy>
27

>  <SCORE.norm>
-1.2964

>  <RMSD>
5.657

$$$$
lig.pdb
 OpenBabel11021811523D
libRbt.so/2013.1/901 2013/11/27
 27 30  0  0  0  0  0  0  0  0999 V2000
   27.9733   42.1509   21.2421 N   0  0  0  0  0  0  0  0  0  0  0  0
   27.1008   41.1905   21.0613 C   0  0  0  0  0  0  0  0  0  0  0  0
   26.9543   40.1129   21.8728 N   0  0  0  0  0  0  0  0  0  0  0  0
   27.7317   40.0272   22.9932 C   0  0  0  0  0  0  0  0  0  0  0  0
   28.6490   40.9984   23.2759 C   0  0  0  0  0  0  0  0  0  0  0  0
   28.8008   42.1066   22.3634 C   0  0  0  0  0  0  0  0  0  0  0  0
   29.6454   42.9964   22.5239 O   0  0  0  0  0  0  0  0  0  0  0  0
   26.2434   41.0739   19.7819 C   0  0  2  0  0  0  0  0  0  0  0  0
   26.9449   39.9314   19.0296 C   0  0  0  0  0  0  0  0  0  0  0  0
   26.4504   39.8011   17.6579 N   0  0  0  0  0  0  0  0  0  0  0  0
   26.7522   41.0375   16.9186 C   0  0  0  0  0  0  0  0  0  0  0  0
   26.0248   42.2202   17.5271 C   0  0  0  0  0  0  0  0  0  0  0  0
   26.3889   42.3880   18.9958 C   0  0  0  0  0  0  0  0  0  0  0  0
   27.4349   38.8429   23.7878 C   0  0  0  0  0  0  0  0  0  0  0  0
   27.7355   38.7967   25.4857 S   0  0  0  0  0  0  0  0  0  0  0  0
   27.1943   37.2141   25.6011 C   0  0  0  0  0  0  0  0  0  0  0  0
   26.7573   36.7476   24.4246 C   0  0  0  0  0  0  0  0  0  0  0  0
   26.8951   37.6680   23.3673 C   0  0  0  0  0  0  0  0  0  0  0  0
   27.0351   38.6367   16.9698 C   0  0  0  0  0  0  0  0  0  0  0  0
   26.9684   37.3279   17.7247 C   0  0  0  0  0  0  0  0  0  0  0  0
   25.7583   36.6827   17.9343 C   0  0  0  0  0  0  0  0  0  0  0  0
   25.5547   35.7370   18.8692 N   0  0  0  0  0  0  0  0  0  0  0  0
   26.6126   35.4837   19.6251 C   0  0  0  0  0  0  0  0  0  0  0  0
   27.8121   36.0406   19.5740 N   0  0  0  0  0  0  0  0  0  0  0  0
   27.9525   36.9796   18.6267 C   0  0  0  0  0  0  0  0  0  0  0  0
   26.4036   34.5492   20.5595 O   0  0  0  0  0  0  0  0  0  0  0  0
   26.9950   34.7582   21.8472 C   0  0  0  0  0  0  0  0  0  0  0  0
  1  2  2  0  0  0  0
  1  6  1  0  0  0  0
  2  3  1  0  0  0  0
  3  4  2  0  0  0  0
  4 14  1  0  0  0  0
  5  4  1  0  0  0  0
  6  5  1  0  0  0  0
  7  6  2  0  0  0  0
  8  9  1  0  0  0  0
  8  2  1  1  0  0  0
 10 19  1  0  0  0  0
 10  9  1  0  0  0  0
 11 10  1  0  0  0  0
 12 11  1  0  0  0  0
 12 13  1  0  0  0  0
 13  8  1  0  0  0  0
 14 15  1  0  0  0  0
 14 18  2  0  0  0  0
 15 16  1  0  0  0  0
 16 17  2  0  0  0  0
 18 17  1  0  0  0  0
 19 20  1  0  0  0  0
 20 25  2  0  0  0  0
 20 21  1  0  0  0  0
 21 22  2  0  0  0  0
 22 23  1  0  0  0  0
 23 26  1  0  0  0  0
 24 23  2  0  0  0  0
 25 24  1  0  0  0  0
 26 27  1  0  0  0  0
M  END
>  <CHROM.1>
-154.02799239,103.78091676,49.96163750,69.29565700,-140.68601133,27.17223093
38.93705432,20.93184406,-0.68422707,-1.33538643,-0.71442578

>  <Name>
lig.pdb

>  <RI>
0

>  <Rbt.Current_Directory>
/home/itssahil/PROJECTS/Mol_Feturizer/New_Systems/rnas/5kx9

>  <Rbt.Executable>
rbdock ($Id: //depot/dev/client3/rdock/2013.1/src/exe/rbdock.cxx#4 $)

>  <Rbt.Library>
libRbt.so (2013.1, Build901 2013/11/27)

>  <Rbt.Parameter_File>
/export/apps/rDock/src/rDock_2013.1_src/data/scripts/dock_solv.prm

>  <Rbt.Receptor>
prm/pocket_docking_3.prm

>  <SCORE>
-30.4357

>  <SCORE.INTER>
-27.1373

>  <SCORE.INTER.CONST>
1

>  <SCORE.INTER.POLAR>
0

>  <SCORE.INTER.ROT>
5

>  <SCORE.INTER.SOLV>
11.9761

>  <SCORE.INTER.VDW>
-29.0169

>  <SCORE.INTER.norm>
-1.00508

>  <SCORE.INTRA>
-3.29846

>  <SCORE.INTRA.DIHEDRAL>
3.41333

>  <SCORE.INTRA.DIHEDRAL.0>
2.68224

>  <SCORE.INTRA.POLAR>
0

>  <SCORE.INTRA.POLAR.0>
0

>  <SCORE.INTRA.REPUL>
0

>  <SCORE.INTRA.REPUL.0>
0

>  <SCORE.INTRA.SOLV>
-0.378511

>  <SCORE.INTRA.SOLV.lig_0>
-19.4148

>  <SCORE.INTRA.VDW>
-4.81586

>  <SCORE.INTRA.VDW.0>
5.42093

>  <SCORE.INTRA.norm>
-0.122165

>  <SCORE.RESTR>
0

>  <SCORE.RESTR.CAVITY>
0

>  <SCORE.RESTR.norm>
0

>  <SCORE.SYSTEM>
0

>  <SCORE.SYSTEM.CONST>
0

>  <SCORE.SYSTEM.DIHEDRAL>
0

>  <SCORE.SYSTEM.SOLV>
0

>  <SCORE.SYSTEM.norm>
0

>  <SCORE.heavy>
27

>  <SCORE.norm>
-1.12725

>  <RMSD>
5.661

$$$$
lig.pdb
 OpenBabel11021811523D
libRbt.so/2013.1/901 2013/11/27
 27 30  0  0  0  0  0  0  0  0999 V2000
   27.5170   42.2558   21.4697 N   0  0  0  0  0  0  0  0  0  0  0  0
   26.8078   41.1741   21.2618 C   0  0  0  0  0  0  0  0  0  0  0  0
   26.8232   40.0725   22.0538 N   0  0  0  0  0  0  0  0  0  0  0  0
   27.5923   40.0895   23.1831 C   0  0  0  0  0  0  0  0  0  0  0  0
   28.3429   41.1870   23.4936 C   0  0  0  0  0  0  0  0  0  0  0  0
   28.3291   42.3215   22.6011 C   0  0  0  0  0  0  0  0  0  0  0  0
   29.0220   43.3295   22.7873 O   0  0  0  0  0  0  0  0  0  0  0  0
   25.9932   40.9478   19.9692 C   0  0  2  0  0  0  0  0  0  0  0  0
   26.8962   39.9799   19.1873 C   0  0  0  0  0  0  0  0  0  0  0  0
   26.4412   39.8097   17.8062 N   0  0  0  0  0  0  0  0  0  0  0  0
   26.5153   41.1056   17.1125 C   0  0  0  0  0  0  0  0  0  0  0  0
   25.5804   42.1132   17.7518 C   0  0  0  0  0  0  0  0  0  0  0  0
   25.8997   42.2930   19.2294 C   0  0  0  0  0  0  0  0  0  0  0  0
   27.4761   38.8592   23.9546 C   0  0  0  0  0  0  0  0  0  0  0  0
   27.8885   38.8014   25.6284 S   0  0  0  0  0  0  0  0  0  0  0  0
   27.5290   37.1666   25.7241 C   0  0  0  0  0  0  0  0  0  0  0  0
   27.0700   36.6863   24.5615 C   0  0  0  0  0  0  0  0  0  0  0  0
   27.0398   37.6439   23.5290 C   0  0  0  0  0  0  0  0  0  0  0  0
   27.2330   38.7968   17.0863 C   0  0  0  0  0  0  0  0  0  0  0  0
   27.3348   37.4456   17.7581 C   0  0  0  0  0  0  0  0  0  0  0  0
   26.2286   36.8564   18.3529 C   0  0  0  0  0  0  0  0  0  0  0  0
   26.2930   35.8623   19.2572 N   0  0  0  0  0  0  0  0  0  0  0  0
   27.5256   35.4997   19.5790 C   0  0  0  0  0  0  0  0  0  0  0  0
   28.6705   35.9908   19.1322 N   0  0  0  0  0  0  0  0  0  0  0  0
   28.5423   36.9825   18.2384 C   0  0  0  0  0  0  0  0  0  0  0  0
   27.5857   34.5171   20.4851 O   0  0  0  0  0  0  0  0  0  0  0  0
   27.0133   34.7702   21.7735 C   0  0  0  0  0  0  0  0  0  0  0  0
  1  2  2  0  0  0  0
  1  6  1  0  0  0  0
  2  3  1  0  0  0  0
  3  4  2  0  0  0  0
  4 14  1  0  0  0  0
  5  4  1  0  0  0  0
  6  5  1  0  0  0  0
  7  6  2  0  0  0  0
  8  9  1  0  0  0  0
  8  2  1  1  0  0  0
 10 19  1  0  0  0  0
 10  9  1  0  0  0  0
 11 10  1  0  0  0  0
 12 11  1  0  0  0  0
 12 13  1  0  0  0  0
 13  8  1  0  0  0  0
 14 15  1  0  0  0  0
 14 18  2  0  0  0  0
 15 16  1  0  0  0  0
 16 17  2  0  0  0  0
 18 17  1  0  0  0  0
 19 20  1  0  0  0  0
 20 25  2  0  0  0  0
 20 21  1  0  0  0  0
 21 22  2  0  0  0  0
 22 23  1  0  0  0  0
 23 26  1  0  0  0  0
 24 23  2  0  0  0  0
 25 24  1  0  0  0  0
 26 27  1  0  0  0  0
M  END
>  <CHROM.1>
-159.19959680,101.93242816,53.43523613,42.43533058,-61.25252916,27.26446357
38.97561530,21.05519789,0.22338696,-1.41984308,0.17044174

>  <Name>
lig.pdb

>  <RI>
0

>  <Rbt.Current_Directory>
/home/itssahil/PROJECTS/Mol_Feturizer/New_Systems/rnas/5kx9

>  <Rbt.Executable>
rbdock ($Id: //depot/dev/client3/rdock/2013.1/src/exe/rbdock.cxx#4 $)

>  <Rbt.Library>
libRbt.so (2013.1, Build901 2013/11/27)

>  <Rbt.Parameter_File>
/export/apps/rDock/src/rDock_2013.1_src/data/scripts/dock_solv.prm

>  <Rbt.Receptor>
prm/pocket_docking_3.prm

>  <SCORE>
-31.1638

>  <SCORE.INTER>
-27.0644

>  <SCORE.INTER.CONST>
1

>  <SCORE.INTER.POLAR>
0

>  <SCORE.INTER.ROT>
5

>  <SCORE.INTER.SOLV>
12.6036

>  <SCORE.INTER.VDW>
-29.1775

>  <SCORE.INTER.norm>
-1.00238

>  <SCORE.INTRA>
-4.09948

>  <SCORE.INTRA.DIHEDRAL>
3.90361

>  <SCORE.INTRA.DIHEDRAL.0>
2.68224

>  <SCORE.INTRA.POLAR>
0

>  <SCORE.INTRA.POLAR.0>
0

>  <SCORE.INTRA.REPUL>
0

>  <SCORE.INTRA.REPUL.0>
0

>  <SCORE.INTRA.SOLV>
-0.425462

>  <SCORE.INTRA.SOLV.lig_0>
-19.4148

>  <SCORE.INTRA.VDW>
-5.83855

>  <SCORE.INTRA.VDW.0>
5.42093

>  <SCORE.INTRA.norm>
-0.151832

>  <SCORE.RESTR>
0

>  <SCORE.RESTR.CAVITY>
0

>  <SCORE.RESTR.norm>
0

>  <SCORE.SYSTEM>
0

>  <SCORE.SYSTEM.CONST>
0

>  <SCORE.SYSTEM.DIHEDRAL>
0

>  <SCORE.SYSTEM.SOLV>
0

>  <SCORE.SYSTEM.norm>
0

>  <SCORE.heavy>
27

>  <SCORE.norm>
-1.15422

>  <RMSD>
5.663

$$$$
lig.pdb
 OpenBabel11021811523D
libRbt.so/2013.1/901 2013/11/27
 27 30  0  0  0  0  0  0  0  0999 V2000
   27.6268   39.4448   25.4934 N   0  0  0  0  0  0  0  0  0  0  0  0
   27.3945   39.6890   24.2274 C   0  0  0  0  0  0  0  0  0  0  0  0
   27.3035   38.7429   23.2591 N   0  0  0  0  0  0  0  0  0  0  0  0
   27.4117   37.4285   23.6165 C   0  0  0  0  0  0  0  0  0  0  0  0
   27.6262   37.0803   24.9193 C   0  0  0  0  0  0  0  0  0  0  0  0
   27.7581   38.1210   25.9108 C   0  0  0  0  0  0  0  0  0  0  0  0
   28.0052   37.8865   27.1003 O   0  0  0  0  0  0  0  0  0  0  0  0
   27.3772   41.1191   23.6444 C   0  0  2  0  0  0  0  0  0  0  0  0
   28.0072   40.9071   22.2581 C   0  0  0  0  0  0  0  0  0  0  0  0
   28.3222   42.1790   21.6052 N   0  0  0  0  0  0  0  0  0  0  0  0
   29.3191   42.9001   22.4131 C   0  0  0  0  0  0  0  0  0  0  0  0
   28.7583   43.2453   23.7785 C   0  0  0  0  0  0  0  0  0  0  0  0
   28.2987   41.9931   24.5122 C   0  0  0  0  0  0  0  0  0  0  0  0
   27.2513   36.5279   22.4828 C   0  0  0  0  0  0  0  0  0  0  0  0
   26.7642   34.8870   22.6955 S   0  0  0  0  0  0  0  0  0  0  0  0
   26.8496   34.5833   21.0489 C   0  0  0  0  0  0  0  0  0  0  0  0
   27.1826   35.6787   20.3546 C   0  0  0  0  0  0  0  0  0  0  0  0
   27.4254   36.8061   21.1633 C   0  0  0  0  0  0  0  0  0  0  0  0
   28.8189   41.9849   20.2316 C   0  0  0  0  0  0  0  0  0  0  0  0
   28.0587   40.9794   19.3959 C   0  0  0  0  0  0  0  0  0  0  0  0
   28.5754   39.7156   19.1503 C   0  0  0  0  0  0  0  0  0  0  0  0
   28.1616   38.9065   18.1583 N   0  0  0  0  0  0  0  0  0  0  0  0
   27.2236   39.4318   17.3844 C   0  0  0  0  0  0  0  0  0  0  0  0
   26.6650   40.6287   17.4664 N   0  0  0  0  0  0  0  0  0  0  0  0
   27.1221   41.3913   18.4705 C   0  0  0  0  0  0  0  0  0  0  0  0
   26.8210   38.6277   16.3937 O   0  0  0  0  0  0  0  0  0  0  0  0
   26.3683   37.3161   16.7495 C   0  0  0  0  0  0  0  0  0  0  0  0
  1  2  2  0  0  0  0
  1  6  1  0  0  0  0
  2  3  1  0  0  0  0
  3  4  2  0  0  0  0
  4 14  1  0  0  0  0
  5  4  1  0  0  0  0
  6  5  1  0  0  0  0
  7  6  2  0  0  0  0
  8  9  1  0  0  0  0
  8  2  1  1  0  0  0
 10 19  1  0  0  0  0
 10  9  1  0  0  0  0
 11 10  1  0  0  0  0
 12 11  1  0  0  0  0
 12 13  1  0  0  0  0
 13  8  1  0  0  0  0
 14 15  1  0  0  0  0
 14 18  2  0  0  0  0
 15 16  1  0  0  0  0
 16 17  2  0  0  0  0
 18 17  1  0  0  0  0
 19 20  1  0  0  0  0
 20 25  2  0  0  0  0
 20 21  1  0  0  0  0
 21 22  2  0  0  0  0
 22 23  1  0  0  0  0
 23 26  1  0  0  0  0
 24 23  2  0  0  0  0
 25 24  1  0  0  0  0
 26 27  1  0  0  0  0
M  END
>  <CHROM.1>
-157.02030555,143.34749323,43.99830602,-104.01615755,54.32997064,27.60840188
39.00648643,21.66260456,-1.28363123,-1.34576926,-1.19253485

>  <Name>
lig.pdb

>  <RI>
0

>  <Rbt.Current_Directory>
/home/itssahil/PROJECTS/Mol_Feturizer/New_Systems/rnas/5kx9

>  <Rbt.Executable>
rbdock ($Id: //depot/dev/client3/rdock/2013.1/src/exe/rbdock.cxx#4 $)

>  <Rbt.Library>
libRbt.so (2013.1, Build901 2013/11/27)

>  <Rbt.Parameter_File>
/export/apps/rDock/src/rDock_2013.1_src/data/scripts/dock_solv.prm

>  <Rbt.Receptor>
prm/pocket_docking_4.prm

>  <SCORE>
-33.1692

>  <SCORE.INTER>
-32.5244

>  <SCORE.INTER.CONST>
1

>  <SCORE.INTER.POLAR>
0

>  <SCORE.INTER.ROT>
5

>  <SCORE.INTER.SOLV>
12.9681

>  <SCORE.INTER.VDW>
-32.939

>  <SCORE.INTER.norm>
-1.20461

>  <SCORE.INTRA>
-0.645026

>  <SCORE.INTRA.DIHEDRAL>
3.9624

>  <SCORE.INTRA.DIHEDRAL.0>
2.68224

>  <SCORE.INTRA.POLAR>
0

>  <SCORE.INTRA.POLAR.0>
0

>  <SCORE.INTRA.REPUL>
0

>  <SCORE.INTRA.REPUL.0>
0

>  <SCORE.INTRA.SOLV>
-0.352307

>  <SCORE.INTRA.SOLV.lig_0>
-19.4148

>  <SCORE.INTRA.VDW>
-2.45007

>  <SCORE.INTRA.VDW.0>
5.42093

>  <SCORE.INTRA.norm>
-0.0238899

>  <SCORE.RESTR>
0.000271198

>  <SCORE.RESTR.CAVITY>
0.000271198

>  <SCORE.RESTR.norm>
1.00444e-05

>  <SCORE.SYSTEM>
0

>  <SCORE.SYSTEM.CONST>
0

>  <SCORE.SYSTEM.DIHEDRAL>
0

>  <SCORE.SYSTEM.SOLV>
0

>  <SCORE.SYSTEM.norm>
0

>  <SCORE.heavy>
27

>  <SCORE.norm>
-1.22849

>  <RMSD>
5.675

$$$$
lig.pdb
 OpenBabel11021811523D
libRbt.so/2013.1/901 2013/11/27
 27 30  0  0  0  0  0  0  0  0999 V2000
   28.0395   39.6163   26.0458 N   0  0  0  0  0  0  0  0  0  0  0  0
   27.6917   39.8890   24.8125 C   0  0  0  0  0  0  0  0  0  0  0  0
   27.4652   38.9624   23.8476 N   0  0  0  0  0  0  0  0  0  0  0  0
   27.5547   37.6393   24.1773 C   0  0  0  0  0  0  0  0  0  0  0  0
   27.8844   37.2628   25.4477 C   0  0  0  0  0  0  0  0  0  0  0  0
   28.1577   38.2820   26.4327 C   0  0  0  0  0  0  0  0  0  0  0  0
   28.5130   38.0194   27.5884 O   0  0  0  0  0  0  0  0  0  0  0  0
   27.6747   41.3276   24.2506 C   0  0  2  0  0  0  0  0  0  0  0  0
   28.2697   41.1298   22.8469 C   0  0  0  0  0  0  0  0  0  0  0  0
   28.5818   42.4080   22.2050 N   0  0  0  0  0  0  0  0  0  0  0  0
   29.6044   43.1078   22.9992 C   0  0  0  0  0  0  0  0  0  0  0  0
   29.0793   43.4384   24.3824 C   0  0  0  0  0  0  0  0  0  0  0  0
   28.6248   42.1801   25.1087 C   0  0  0  0  0  0  0  0  0  0  0  0
   27.2445   36.7635   23.0553 C   0  0  0  0  0  0  0  0  0  0  0  0
   26.5025   35.2243   23.2902 S   0  0  0  0  0  0  0  0  0  0  0  0
   26.5271   34.8924   21.6470 C   0  0  0  0  0  0  0  0  0  0  0  0
   27.0263   35.9127   20.9379 C   0  0  0  0  0  0  0  0  0  0  0  0
   27.4519   36.9955   21.7317 C   0  0  0  0  0  0  0  0  0  0  0  0
   29.0441   42.2292   20.8173 C   0  0  0  0  0  0  0  0  0  0  0  0
   28.7114   40.8975   20.1824 C   0  0  0  0  0  0  0  0  0  0  0  0
   29.6956   40.1224   19.5862 C   0  0  0  0  0  0  0  0  0  0  0  0
   29.4533   39.1315   18.7091 N   0  0  0  0  0  0  0  0  0  0  0  0
   28.1721   38.9671   18.4155 C   0  0  0  0  0  0  0  0  0  0  0  0
   27.1311   39.6483   18.8668 N   0  0  0  0  0  0  0  0  0  0  0  0
   27.4357   40.6262   19.7326 C   0  0  0  0  0  0  0  0  0  0  0  0
   27.9359   37.9868   17.5362 O   0  0  0  0  0  0  0  0  0  0  0  0
   26.6526   37.9643   16.9002 C   0  0  0  0  0  0  0  0  0  0  0  0
  1  2  2  0  0  0  0
  1  6  1  0  0  0  0
  2  3  1  0  0  0  0
  3  4  2  0  0  0  0
  4 14  1  0  0  0  0
  5  4  1  0  0  0  0
  6  5  1  0  0  0  0
  7  6  2  0  0  0  0
  8  9  1  0  0  0  0
  8  2  1  1  0  0  0
 10 19  1  0  0  0  0
 10  9  1  0  0  0  0
 11 10  1  0  0  0  0
 12 11  1  0  0  0  0
 12 13  1  0  0  0  0
 13  8  1  0  0  0  0
 14 15  1  0  0  0  0
 14 18  2  0  0  0  0
 15 16  1  0  0  0  0
 16 17  2  0  0  0  0
 18 17  1  0  0  0  0
 19 20  1  0  0  0  0
 20 25  2  0  0  0  0
 20 21  1  0  0  0  0
 21 22  2  0  0  0  0
 22 23  1  0  0  0  0
 23 26  1  0  0  0  0
 24 23  2  0  0  0  0
 25 24  1  0  0  0  0
 26 27  1  0  0  0  0
M  END
>  <CHROM.1>
-148.12709096,138.58415181,18.32488594,-127.63745510,-164.01294903,27.94109569
39.10716689,22.31349026,1.38962596,1.27560566,1.60742103

>  <Name>
lig.pdb

>  <RI>
0

>  <Rbt.Current_Directory>
/home/itssahil/PROJECTS/Mol_Feturizer/New_Systems/rnas/5kx9

>  <Rbt.Executable>
rbdock ($Id: //depot/dev/client3/rdock/2013.1/src/exe/rbdock.cxx#4 $)

>  <Rbt.Library>
libRbt.so (2013.1, Build901 2013/11/27)

>  <Rbt.Parameter_File>
/export/apps/rDock/src/rDock_2013.1_src/data/scripts/dock_solv.prm

>  <Rbt.Receptor>
prm/pocket_docking_6.prm

>  <SCORE>
-30.7265

>  <SCORE.INTER>
-32.126

>  <SCORE.INTER.CONST>
1

>  <SCORE.INTER.POLAR>
0

>  <SCORE.INTER.ROT>
5

>  <SCORE.INTER.SOLV>
12.2347

>  <SCORE.INTER.VDW>
-32.4289

>  <SCORE.INTER.norm>
-1.18985

>  <SCORE.INTRA>
1.39955

>  <SCORE.INTRA.DIHEDRAL>
4.36806

>  <SCORE.INTRA.DIHEDRAL.0>
2.68224

>  <SCORE.INTRA.POLAR>
0

>  <SCORE.INTRA.POLAR.0>
0

>  <SCORE.INTRA.REPUL>
0

>  <SCORE.INTRA.REPUL.0>
0

>  <SCORE.INTRA.SOLV>
-0.314296

>  <SCORE.INTRA.SOLV.lig_0>
-19.4148

>  <SCORE.INTRA.VDW>
-0.62733

>  <SCORE.INTRA.VDW.0>
5.42093

>  <SCORE.INTRA.norm>
0.0518352

>  <SCORE.RESTR>
0

>  <SCORE.RESTR.CAVITY>
0

>  <SCORE.RESTR.norm>
0

>  <SCORE.SYSTEM>
0

>  <SCORE.SYSTEM.CONST>
0

>  <SCORE.SYSTEM.DIHEDRAL>
0

>  <SCORE.SYSTEM.SOLV>
0

>  <SCORE.SYSTEM.norm>
0

>  <SCORE.heavy>
27

>  <SCORE.norm>
-1.13802

>  <RMSD>
5.687

$$$$
lig.pdb
 OpenBabel11021811523D
libRbt.so/2013.1/901 2013/11/27
 27 30  0  0  0  0  0  0  0  0999 V2000
   27.9437   39.5048   25.9728 N   0  0  0  0  0  0  0  0  0  0  0  0
   27.6104   39.8156   24.7446 C   0  0  0  0  0  0  0  0  0  0  0  0
   27.4137   38.9203   23.7442 N   0  0  0  0  0  0  0  0  0  0  0  0
   27.5194   37.5880   24.0285 C   0  0  0  0  0  0  0  0  0  0  0  0
   27.8355   37.1718   25.2900 C   0  0  0  0  0  0  0  0  0  0  0  0
   28.0774   38.1597   26.3144 C   0  0  0  0  0  0  0  0  0  0  0  0
   28.4191   37.8619   27.4657 O   0  0  0  0  0  0  0  0  0  0  0  0
   27.5790   41.2727   24.2333 C   0  0  2  0  0  0  0  0  0  0  0  0
   28.3605   41.1658   22.9138 C   0  0  0  0  0  0  0  0  0  0  0  0
   28.6747   42.4845   22.3610 N   0  0  0  0  0  0  0  0  0  0  0  0
   29.5425   43.2071   23.3050 C   0  0  0  0  0  0  0  0  0  0  0  0
   28.8247   43.4513   24.6178 C   0  0  0  0  0  0  0  0  0  0  0  0
   28.3575   42.1410   25.2363 C   0  0  0  0  0  0  0  0  0  0  0  0
   27.2405   36.7477   22.8716 C   0  0  0  0  0  0  0  0  0  0  0  0
   26.5685   35.1686   23.0442 S   0  0  0  0  0  0  0  0  0  0  0  0
   26.5966   34.9082   21.3883 C   0  0  0  0  0  0  0  0  0  0  0  0
   27.0458   35.9787   20.7210 C   0  0  0  0  0  0  0  0  0  0  0  0
   27.4286   37.0447   21.5583 C   0  0  0  0  0  0  0  0  0  0  0  0
   29.3217   42.3884   21.0406 C   0  0  0  0  0  0  0  0  0  0  0  0
   28.7545   41.3419   20.1076 C   0  0  0  0  0  0  0  0  0  0  0  0
   29.4263   40.1509   19.8739 C   0  0  0  0  0  0  0  0  0  0  0  0
   29.1945   39.3426   18.8237 N   0  0  0  0  0  0  0  0  0  0  0  0
   28.2783   39.7958   17.9812 C   0  0  0  0  0  0  0  0  0  0  0  0
   27.5870   40.9224   18.0461 N   0  0  0  0  0  0  0  0  0  0  0  0
   27.8656   41.6887   19.1110 C   0  0  0  0  0  0  0  0  0  0  0  0
   28.0570   38.9936   16.9336 O   0  0  0  0  0  0  0  0  0  0  0  0
   26.8075   38.2948   16.8885 C   0  0  0  0  0  0  0  0  0  0  0  0
  1  2  2  0  0  0  0
  1  6  1  0  0  0  0
  2  3  1  0  0  0  0
  3  4  2  0  0  0  0
  4 14  1  0  0  0  0
  5  4  1  0  0  0  0
  6  5  1  0  0  0  0
  7  6  2  0  0  0  0
  8  9  1  0  0  0  0
  8  2  1  1  0  0  0
 10 19  1  0  0  0  0
 10  9  1  0  0  0  0
 11 10  1  0  0  0  0
 12 11  1  0  0  0  0
 12 13  1  0  0  0  0
 13  8  1  0  0  0  0
 14 15  1  0  0  0  0
 14 18  2  0  0  0  0
 15 16  1  0  0  0  0
 16 17  2  0  0  0  0
 18 17  1  0  0  0  0
 19 20  1  0  0  0  0
 20 25  2  0  0  0  0
 20 21  1  0  0  0  0
 21 22  2  0  0  0  0
 22 23  1  0  0  0  0
 23 26  1  0  0  0  0
 24 23  2  0  0  0  0
 25 24  1  0  0  0  0
 26 27  1  0  0  0  0
M  END
>  <CHROM.1>
-150.20369855,131.58046253,40.80165573,-104.70151007,109.35221621,27.95219858
39.28008578,22.19882755,-1.68503468,-1.29866473,-1.51349036

>  <Name>
lig.pdb

>  <RI>
0

>  <Rbt.Current_Directory>
/home/itssahil/PROJECTS/Mol_Feturizer/New_Systems/rnas/5kx9

>  <Rbt.Executable>
rbdock ($Id: //depot/dev/client3/rdock/2013.1/src/exe/rbdock.cxx#4 $)

>  <Rbt.Library>
libRbt.so (2013.1, Build901 2013/11/27)

>  <Rbt.Parameter_File>
/export/apps/rDock/src/rDock_2013.1_src/data/scripts/dock_solv.prm

>  <Rbt.Receptor>
prm/pocket_docking_8.prm

>  <SCORE>
-34.1203

>  <SCORE.INTER>
-32.7815

>  <SCORE.INTER.CONST>
1

>  <SCORE.INTER.POLAR>
0

>  <SCORE.INTER.ROT>
5

>  <SCORE.INTER.SOLV>
12.5081

>  <SCORE.INTER.VDW>
-32.957

>  <SCORE.INTER.norm>
-1.21413

>  <SCORE.INTRA>
-1.33881

>  <SCORE.INTRA.DIHEDRAL>
6.25422

>  <SCORE.INTRA.DIHEDRAL.0>
2.68224

>  <SCORE.INTRA.POLAR>
0

>  <SCORE.INTRA.POLAR.0>
0

>  <SCORE.INTRA.REPUL>
0

>  <SCORE.INTRA.REPUL.0>
0

>  <SCORE.INTRA.SOLV>
-0.489098

>  <SCORE.INTRA.SOLV.lig_0>
-19.4148

>  <SCORE.INTRA.VDW>
-4.22137

>  <SCORE.INTRA.VDW.0>
5.42093

>  <SCORE.INTRA.norm>
-0.0495855

>  <SCORE.RESTR>
0

>  <SCORE.RESTR.CAVITY>
0

>  <SCORE.RESTR.norm>
0

>  <SCORE.SYSTEM>
0

>  <SCORE.SYSTEM.CONST>
0

>  <SCORE.SYSTEM.DIHEDRAL>
0

>  <SCORE.SYSTEM.SOLV>
0

>  <SCORE.SYSTEM.norm>
0

>  <SCORE.heavy>
27

>  <SCORE.norm>
-1.26372

>  <RMSD>
5.696

$$$$
lig.pdb
 OpenBabel11021811523D
libRbt.so/2013.1/901 2013/11/27
 27 30  0  0  0  0  0  0  0  0999 V2000
   28.0446   40.2229   16.7832 N   0  0  0  0  0  0  0  0  0  0  0  0
   27.4019   39.8472   17.8612 C   0  0  0  0  0  0  0  0  0  0  0  0
   27.5371   40.4197   19.0838 N   0  0  0  0  0  0  0  0  0  0  0  0
   28.3638   41.5001   19.2125 C   0  0  0  0  0  0  0  0  0  0  0  0
   29.0522   41.9778   18.1344 C   0  0  0  0  0  0  0  0  0  0  0  0
   28.9108   41.3127   16.8611 C   0  0  0  0  0  0  0  0  0  0  0  0
   29.5411   41.6541   15.8526 O   0  0  0  0  0  0  0  0  0  0  0  0
   26.5355   38.5695   17.9116 C   0  0  2  0  0  0  0  0  0  0  0  0
   27.2687   37.7272   18.9682 C   0  0  0  0  0  0  0  0  0  0  0  0
   26.7644   36.3536   19.0124 N   0  0  0  0  0  0  0  0  0  0  0  0
   27.0144   35.7077   17.7137 C   0  0  0  0  0  0  0  0  0  0  0  0
   26.2524   36.4099   16.6072 C   0  0  0  0  0  0  0  0  0  0  0  0
   26.6261   37.8840   16.5377 C   0  0  0  0  0  0  0  0  0  0  0  0
   28.3758   42.0340   20.5678 C   0  0  0  0  0  0  0  0  0  0  0  0
   27.0473   41.7982   21.6424 S   0  0  0  0  0  0  0  0  0  0  0  0
   27.7954   42.6762   22.8591 C   0  0  0  0  0  0  0  0  0  0  0  0
   29.0159   43.0921   22.4980 C   0  0  0  0  0  0  0  0  0  0  0  0
   29.3644   42.7387   21.1798 C   0  0  0  0  0  0  0  0  0  0  0  0
   27.3824   35.5745   20.0998 C   0  0  0  0  0  0  0  0  0  0  0  0
   27.0282   36.0131   21.5032 C   0  0  0  0  0  0  0  0  0  0  0  0
   27.5812   37.1587   22.0567 C   0  0  0  0  0  0  0  0  0  0  0  0
   27.6099   37.4267   23.3747 N   0  0  0  0  0  0  0  0  0  0  0  0
   27.0915   36.4734   24.1343 C   0  0  0  0  0  0  0  0  0  0  0  0
   26.5681   35.3170   23.7598 N   0  0  0  0  0  0  0  0  0  0  0  0
   26.5729   35.1039   22.4357 C   0  0  0  0  0  0  0  0  0  0  0  0
   27.1299   36.7395   25.4450 O   0  0  0  0  0  0  0  0  0  0  0  0
   26.3792   37.8661   25.9130 C   0  0  0  0  0  0  0  0  0  0  0  0
  1  2  2  0  0  0  0
  1  6  1  0  0  0  0
  2  3  1  0  0  0  0
  3  4  2  0  0  0  0
  4 14  1  0  0  0  0
  5  4  1  0  0  0  0
  6  5  1  0  0  0  0
  7  6  2  0  0  0  0
  8  9  1  0  0  0  0
  8  2  1  6  0  0  0
 10 19  1  0  0  0  0
 10  9  1  0  0  0  0
 11 10  1  0  0  0  0
 12 11  1  0  0  0  0
 12 13  1  0  0  0  0
 13  8  1  0  0  0  0
 14 15  1  0  0  0  0
 14 18  2  0  0  0  0
 15 16  1  0  0  0  0
 16 17  2  0  0  0  0
 18 17  1  0  0  0  0
 19 20  1  0  0  0  0
 20 25  2  0  0  0  0
 20 21  1  0  0  0  0
 21 22  2  0  0  0  0
 22 23  1  0  0  0  0
 23 26  1  0  0  0  0
 24 23  2  0  0  0  0
 25 24  1  0  0  0  0
 26 27  1  0  0  0  0
M  END
>  <CHROM.1>
-24.70236967,117.19841705,67.09367497,-75.08492427,63.49870156,27.53228646
38.97572889,20.36806480,0.73554147,-1.31339166,-1.73720525

>  <Name>
lig.pdb

>  <RI>
0

>  <Rbt.Current_Directory>
/home/itssahil/PROJECTS/Mol_Feturizer/New_Systems/rnas/5kx9

>  <Rbt.Executable>
rbdock ($Id: //depot/dev/client3/rdock/2013.1/src/exe/rbdock.cxx#4 $)

>  <Rbt.Library>
libRbt.so (2013.1, Build901 2013/11/27)

>  <Rbt.Parameter_File>
/export/apps/rDock/src/rDock_2013.1_src/data/scripts/dock_solv.prm

>  <Rbt.Receptor>
prm/blind_docking_80.prm

>  <SCORE>
-35.023

>  <SCORE.INTER>
-32.182

>  <SCORE.INTER.CONST>
1

>  <SCORE.INTER.POLAR>
0

>  <SCORE.INTER.ROT>
5

>  <SCORE.INTER.SOLV>
14.337

>  <SCORE.INTER.VDW>
-33.167

>  <SCORE.INTER.norm>
-1.19193

>  <SCORE.INTRA>
-2.84098

>  <SCORE.INTRA.DIHEDRAL>
5.08399

>  <SCORE.INTRA.DIHEDRAL.0>
2.68224

>  <SCORE.INTRA.POLAR>
0

>  <SCORE.INTRA.POLAR.0>
0

>  <SCORE.INTRA.REPUL>
0

>  <SCORE.INTRA.REPUL.0>
0

>  <SCORE.INTRA.SOLV>
-0.555344

>  <SCORE.INTRA.SOLV.lig_0>
-19.4148

>  <SCORE.INTRA.VDW>
-5.10531

>  <SCORE.INTRA.VDW.0>
5.42093

>  <SCORE.INTRA.norm>
-0.105222

>  <SCORE.RESTR>
0

>  <SCORE.RESTR.CAVITY>
0

>  <SCORE.RESTR.norm>
0

>  <SCORE.SYSTEM>
0

>  <SCORE.SYSTEM.CONST>
0

>  <SCORE.SYSTEM.DIHEDRAL>
0

>  <SCORE.SYSTEM.SOLV>
0

>  <SCORE.SYSTEM.norm>
0

>  <SCORE.heavy>
27

>  <SCORE.norm>
-1.29715

>  <RMSD>
5.699

$$$$
lig.pdb
 OpenBabel11021811523D
libRbt.so/2013.1/901 2013/11/27
 27 30  0  0  0  0  0  0  0  0999 V2000
   27.8839   39.6140   25.8054 N   0  0  0  0  0  0  0  0  0  0  0  0
   27.5716   39.7855   24.5447 C   0  0  0  0  0  0  0  0  0  0  0  0
   27.4011   38.7843   23.6449 N   0  0  0  0  0  0  0  0  0  0  0  0
   27.5120   37.4921   24.0751 C   0  0  0  0  0  0  0  0  0  0  0  0
   27.8074   37.2194   25.3800 C   0  0  0  0  0  0  0  0  0  0  0  0
   28.0218   38.3156   26.2944 C   0  0  0  0  0  0  0  0  0  0  0  0
   28.3440   38.1488   27.4773 O   0  0  0  0  0  0  0  0  0  0  0  0
   27.5382   41.1776   23.8767 C   0  0  2  0  0  0  0  0  0  0  0  0
   28.1175   40.8784   22.4844 C   0  0  0  0  0  0  0  0  0  0  0  0
   28.4132   42.1066   21.7446 N   0  0  0  0  0  0  0  0  0  0  0  0
   29.4406   42.8700   22.4712 C   0  0  0  0  0  0  0  0  0  0  0  0
   28.9300   43.3005   23.8321 C   0  0  0  0  0  0  0  0  0  0  0  0
   28.4928   42.0976   24.6565 C   0  0  0  0  0  0  0  0  0  0  0  0
   27.2620   36.5278   23.0122 C   0  0  0  0  0  0  0  0  0  0  0  0
   27.5246   36.9241   21.3541 S   0  0  0  0  0  0  0  0  0  0  0  0
   27.0116   35.4107   20.8470 C   0  0  0  0  0  0  0  0  0  0  0  0
   26.7002   34.6161   21.8788 C   0  0  0  0  0  0  0  0  0  0  0  0
   26.8305   35.2442   23.1328 C   0  0  0  0  0  0  0  0  0  0  0  0
   28.8599   41.8268   20.3686 C   0  0  0  0  0  0  0  0  0  0  0  0
   28.1352   40.7042   19.6600 C   0  0  0  0  0  0  0  0  0  0  0  0
   28.8103   39.5657   19.2445 C   0  0  0  0  0  0  0  0  0  0  0  0
   28.3475   38.7041   18.3207 N   0  0  0  0  0  0  0  0  0  0  0  0
   27.1836   39.0492   17.7908 C   0  0  0  0  0  0  0  0  0  0  0  0
   26.4452   40.1159   18.0518 N   0  0  0  0  0  0  0  0  0  0  0  0
   26.9606   40.9401   18.9758 C   0  0  0  0  0  0  0  0  0  0  0  0
   26.7310   38.1946   16.8661 O   0  0  0  0  0  0  0  0  0  0  0  0
   25.8812   37.1302   17.3094 C   0  0  0  0  0  0  0  0  0  0  0  0
  1  2  2  0  0  0  0
  1  6  1  0  0  0  0
  2  3  1  0  0  0  0
  3  4  2  0  0  0  0
  4 14  1  0  0  0  0
  5  4  1  0  0  0  0
  6  5  1  0  0  0  0
  7  6  2  0  0  0  0
  8  9  1  0  0  0  0
  8  2  1  1  0  0  0
 10 19  1  0  0  0  0
 10  9  1  0  0  0  0
 11 10  1  0  0  0  0
 12 11  1  0  0  0  0
 12 13  1  0  0  0  0
 13  8  1  0  0  0  0
 14 15  1  0  0  0  0
 14 18  2  0  0  0  0
 15 16  1  0  0  0  0
 16 17  2  0  0  0  0
 18 17  1  0  0  0  0
 19 20  1  0  0  0  0
 20 25  2  0  0  0  0
 20 21  1  0  0  0  0
 21 22  2  0  0  0  0
 22 23  1  0  0  0  0
 23 26  1  0  0  0  0
 24 23  2  0  0  0  0
 25 24  1  0  0  0  0
 26 27  1  0  0  0  0
M  END
>  <CHROM.1>
26.03191223,141.42419775,39.54203718,-117.74640588,91.12377056,27.70358773
39.05537137,21.91913519,0.99718405,1.31289269,2.00237251

>  <Name>
lig.pdb

>  <RI>
0

>  <Rbt.Current_Directory>
/home/itssahil/PROJECTS/Mol_Feturizer/New_Systems/rnas/5kx9

>  <Rbt.Executable>
rbdock ($Id: //depot/dev/client3/rdock/2013.1/src/exe/rbdock.cxx#4 $)

>  <Rbt.Library>
libRbt.so (2013.1, Build901 2013/11/27)

>  <Rbt.Parameter_File>
/export/apps/rDock/src/rDock_2013.1_src/data/scripts/dock_solv.prm

>  <Rbt.Receptor>
prm/pocket_docking_5.prm

>  <SCORE>
-32.4984

>  <SCORE.INTER>
-31.6769

>  <SCORE.INTER.CONST>
1

>  <SCORE.INTER.POLAR>
0

>  <SCORE.INTER.ROT>
5

>  <SCORE.INTER.SOLV>
11.9669

>  <SCORE.INTER.VDW>
-32.0402

>  <SCORE.INTER.norm>
-1.17322

>  <SCORE.INTRA>
-0.821496

>  <SCORE.INTRA.DIHEDRAL>
6.41204

>  <SCORE.INTRA.DIHEDRAL.0>
2.68224

>  <SCORE.INTRA.POLAR>
0

>  <SCORE.INTRA.POLAR.0>
0

>  <SCORE.INTRA.REPUL>
0

>  <SCORE.INTRA.REPUL.0>
0

>  <SCORE.INTRA.SOLV>
-0.145719

>  <SCORE.INTRA.SOLV.lig_0>
-19.4148

>  <SCORE.INTRA.VDW>
-3.95466

>  <SCORE.INTRA.VDW.0>
5.42093

>  <SCORE.INTRA.norm>
-0.0304258

>  <SCORE.RESTR>
0

>  <SCORE.RESTR.CAVITY>
0

>  <SCORE.RESTR.norm>
0

>  <SCORE.SYSTEM>
0

>  <SCORE.SYSTEM.CONST>
0

>  <SCORE.SYSTEM.DIHEDRAL>
0

>  <SCORE.SYSTEM.SOLV>
0

>  <SCORE.SYSTEM.norm>
0

>  <SCORE.heavy>
27

>  <SCORE.norm>
-1.20364

>  <RMSD>
5.700

$$$$
lig.pdb
 OpenBabel11021811523D
libRbt.so/2013.1/901 2013/11/27
 27 30  0  0  0  0  0  0  0  0999 V2000
   27.9423   39.4872   25.9670 N   0  0  0  0  0  0  0  0  0  0  0  0
   27.5867   39.7172   24.7273 C   0  0  0  0  0  0  0  0  0  0  0  0
   27.3850   38.7591   23.7878 N   0  0  0  0  0  0  0  0  0  0  0  0
   27.5103   37.4483   24.1528 C   0  0  0  0  0  0  0  0  0  0  0  0
   27.8505   37.1151   25.4325 C   0  0  0  0  0  0  0  0  0  0  0  0
   28.0966   38.1674   26.3895 C   0  0  0  0  0  0  0  0  0  0  0  0
   28.4593   37.9457   27.5514 O   0  0  0  0  0  0  0  0  0  0  0  0
   27.5307   41.1391   24.1268 C   0  0  2  0  0  0  0  0  0  0  0  0
   28.3021   40.9606   22.8090 C   0  0  0  0  0  0  0  0  0  0  0  0
   28.5933   42.2464   22.1725 N   0  0  0  0  0  0  0  0  0  0  0  0
   29.4592   43.0377   23.0615 C   0  0  0  0  0  0  0  0  0  0  0  0
   28.7496   43.3537   24.3634 C   0  0  0  0  0  0  0  0  0  0  0  0
   28.3059   42.0783   25.0665 C   0  0  0  0  0  0  0  0  0  0  0  0
   27.2234   36.5346   23.0551 C   0  0  0  0  0  0  0  0  0  0  0  0
   27.5422   36.9655   21.4156 S   0  0  0  0  0  0  0  0  0  0  0  0
   26.9488   35.5027   20.8508 C   0  0  0  0  0  0  0  0  0  0  0  0
   26.5695   34.6970   21.8508 C   0  0  0  0  0  0  0  0  0  0  0  0
   26.7128   35.2766   23.1265 C   0  0  0  0  0  0  0  0  0  0  0  0
   29.2300   42.0770   20.8545 C   0  0  0  0  0  0  0  0  0  0  0  0
   28.7502   40.8949   20.0422 C   0  0  0  0  0  0  0  0  0  0  0  0
   29.5952   39.8328   19.7551 C   0  0  0  0  0  0  0  0  0  0  0  0
   29.3826   38.9383   18.7729 N   0  0  0  0  0  0  0  0  0  0  0  0
   28.2964   39.1714   18.0516 C   0  0  0  0  0  0  0  0  0  0  0  0
   27.4223   40.1573   18.1763 N   0  0  0  0  0  0  0  0  0  0  0  0
   27.6902   41.0197   19.1679 C   0  0  0  0  0  0  0  0  0  0  0  0
   28.0931   38.2850   17.0702 O   0  0  0  0  0  0  0  0  0  0  0  0
   26.7573   37.8046   16.8797 C   0  0  0  0  0  0  0  0  0  0  0  0
  1  2  2  0  0  0  0
  1  6  1  0  0  0  0
  2  3  1  0  0  0  0
  3  4  2  0  0  0  0
  4 14  1  0  0  0  0
  5  4  1  0  0  0  0
  6  5  1  0  0  0  0
  7  6  2  0  0  0  0
  8  9  1  0  0  0  0
  8  2  1  1  0  0  0
 10 19  1  0  0  0  0
 10  9  1  0  0  0  0
 11 10  1  0  0  0  0
 12 11  1  0  0  0  0
 12 13  1  0  0  0  0
 13  8  1  0  0  0  0
 14 15  1  0  0  0  0
 14 18  2  0  0  0  0
 15 16  1  0  0  0  0
 16 17  2  0  0  0  0
 18 17  1  0  0  0  0
 19 20  1  0  0  0  0
 20 25  2  0  0  0  0
 20 21  1  0  0  0  0
 21 22  2  0  0  0  0
 22 23  1  0  0  0  0
 23 26  1  0  0  0  0
 24 23  2  0  0  0  0
 25 24  1  0  0  0  0
 26 27  1  0  0  0  0
M  END
>  <CHROM.1>
30.77128333,131.18070284,35.80185499,-113.89830959,136.76302733,27.98805974
39.12521573,22.11838594,1.48702186,1.31839428,1.55726035

>  <Name>
lig.pdb

>  <RI>
0

>  <Rbt.Current_Directory>
/home/itssahil/PROJECTS/Mol_Feturizer/New_Systems/rnas/5kx9

>  <Rbt.Executable>
rbdock ($Id: //depot/dev/client3/rdock/2013.1/src/exe/rbdock.cxx#4 $)

>  <Rbt.Library>
libRbt.so (2013.1, Build901 2013/11/27)

>  <Rbt.Parameter_File>
/export/apps/rDock/src/rDock_2013.1_src/data/scripts/dock_solv.prm

>  <Rbt.Receptor>
prm/pocket_docking_7.prm

>  <SCORE>
-33.4252

>  <SCORE.INTER>
-31.8513

>  <SCORE.INTER.CONST>
1

>  <SCORE.INTER.POLAR>
0

>  <SCORE.INTER.ROT>
5

>  <SCORE.INTER.SOLV>
11.7614

>  <SCORE.INTER.VDW>
-32.088

>  <SCORE.INTER.norm>
-1.17968

>  <SCORE.INTRA>
-1.57382

>  <SCORE.INTRA.DIHEDRAL>
4.75949

>  <SCORE.INTRA.DIHEDRAL.0>
2.68224

>  <SCORE.INTRA.POLAR>
0

>  <SCORE.INTRA.POLAR.0>
0

>  <SCORE.INTRA.REPUL>
0

>  <SCORE.INTRA.REPUL.0>
0

>  <SCORE.INTRA.SOLV>
-0.256677

>  <SCORE.INTRA.SOLV.lig_0>
-19.4148

>  <SCORE.INTRA.VDW>
-3.82523

>  <SCORE.INTRA.VDW.0>
5.42093

>  <SCORE.INTRA.norm>
-0.0582897

>  <SCORE.RESTR>
0

>  <SCORE.RESTR.CAVITY>
0

>  <SCORE.RESTR.norm>
0

>  <SCORE.SYSTEM>
0

>  <SCORE.SYSTEM.CONST>
0

>  <SCORE.SYSTEM.DIHEDRAL>
0

>  <SCORE.SYSTEM.SOLV>
0

>  <SCORE.SYSTEM.norm>
0

>  <SCORE.heavy>
27

>  <SCORE.norm>
-1.23797

>  <RMSD>
5.700

$$$$
lig.pdb
 OpenBabel11021811523D
libRbt.so/2013.1/901 2013/11/27
 27 30  0  0  0  0  0  0  0  0999 V2000
   27.2416   42.3024   21.7912 N   0  0  0  0  0  0  0  0  0  0  0  0
   26.8654   41.1375   21.3244 C   0  0  0  0  0  0  0  0  0  0  0  0
   26.9130   39.9721   22.0177 N   0  0  0  0  0  0  0  0  0  0  0  0
   27.3367   40.0004   23.3165 C   0  0  0  0  0  0  0  0  0  0  0  0
   27.7215   41.1762   23.8941 C   0  0  0  0  0  0  0  0  0  0  0  0
   27.6945   42.3861   23.1072 C   0  0  0  0  0  0  0  0  0  0  0  0
   28.0772   43.4786   23.5439 O   0  0  0  0  0  0  0  0  0  0  0  0
   26.4872   40.9163   19.8433 C   0  0  2  0  0  0  0  0  0  0  0  0
   27.4843   39.8261   19.4180 C   0  0  0  0  0  0  0  0  0  0  0  0
   27.4791   39.6221   17.9683 N   0  0  0  0  0  0  0  0  0  0  0  0
   27.9085   40.8646   17.3064 C   0  0  0  0  0  0  0  0  0  0  0  0
   26.9311   41.9893   17.5856 C   0  0  0  0  0  0  0  0  0  0  0  0
   26.7788   42.2209   19.0825 C   0  0  0  0  0  0  0  0  0  0  0  0
   27.2941   38.6868   23.9449 C   0  0  0  0  0  0  0  0  0  0  0  0
   27.6704   38.4726   25.6145 S   0  0  0  0  0  0  0  0  0  0  0  0
   27.4310   36.8159   25.5197 C   0  0  0  0  0  0  0  0  0  0  0  0
   27.0362   36.4365   24.2978 C   0  0  0  0  0  0  0  0  0  0  0  0
   26.9592   37.4984   23.3756 C   0  0  0  0  0  0  0  0  0  0  0  0
   28.3469   38.5011   17.5666 C   0  0  0  0  0  0  0  0  0  0  0  0
   28.0564   37.1757   18.2347 C   0  0  0  0  0  0  0  0  0  0  0  0
   26.9091   36.4570   17.9316 C   0  0  0  0  0  0  0  0  0  0  0  0
   26.3978   35.4825   18.7055 N   0  0  0  0  0  0  0  0  0  0  0  0
   27.0652   35.2761   19.8309 C   0  0  0  0  0  0  0  0  0  0  0  0
   28.1431   35.9027   20.2745 N   0  0  0  0  0  0  0  0  0  0  0  0
   28.6024   36.8672   19.4635 C   0  0  0  0  0  0  0  0  0  0  0  0
   26.5486   34.3123   20.6019 O   0  0  0  0  0  0  0  0  0  0  0  0
   27.0596   34.1867   21.9342 C   0  0  0  0  0  0  0  0  0  0  0  0
  1  2  2  0  0  0  0
  1  6  1  0  0  0  0
  2  3  1  0  0  0  0
  3  4  2  0  0  0  0
  4 14  1  0  0  0  0
  5  4  1  0  0  0  0
  6  5  1  0  0  0  0
  7  6  2  0  0  0  0
  8  9  1  0  0  0  0
  8  2  1  1  0  0  0
 10 19  1  0  0  0  0
 10  9  1  0  0  0  0
 11 10  1  0  0  0  0
 12 11  1  0  0  0  0
 12 13  1  0  0  0  0
 13  8  1  0  0  0  0
 14 15  1  0  0  0  0
 14 18  2  0  0  0  0
 15 16  1  0  0  0  0
 16 17  2  0  0  0  0
 18 17  1  0  0  0  0
 19 20  1  0  0  0  0
 20 25  2  0  0  0  0
 20 21  1  0  0  0  0
 21 22  2  0  0  0  0
 22 23  1  0  0  0  0
 23 26  1  0  0  0  0
 24 23  2  0  0  0  0
 25 24  1  0  0  0  0
 26 27  1  0  0  0  0
M  END
>  <CHROM.1>
-175.54907381,121.51904672,55.24298199,70.54569284,-169.11805241,27.36419606
38.79755806,21.21742290,-0.65724547,-1.53770704,-1.28266714

>  <Name>
lig.pdb

>  <RI>
0

>  <Rbt.Current_Directory>
/home/itssahil/PROJECTS/Mol_Feturizer/New_Systems/rnas/5kx9

>  <Rbt.Executable>
rbdock ($Id: //depot/dev/client3/rdock/2013.1/src/exe/rbdock.cxx#4 $)

>  <Rbt.Library>
libRbt.so (2013.1, Build901 2013/11/27)

>  <Rbt.Parameter_File>
/export/apps/rDock/src/rDock_2013.1_src/data/scripts/dock_solv.prm

>  <Rbt.Receptor>
prm/pocket_docking_2.prm

>  <SCORE>
-25.0351

>  <SCORE.INTER>
-23.3901

>  <SCORE.INTER.CONST>
1

>  <SCORE.INTER.POLAR>
0

>  <SCORE.INTER.ROT>
5

>  <SCORE.INTER.SOLV>
11.7945

>  <SCORE.INTER.VDW>
-26.4582

>  <SCORE.INTER.norm>
-0.866298

>  <SCORE.INTRA>
-3.30253

>  <SCORE.INTRA.DIHEDRAL>
-0.24602

>  <SCORE.INTRA.DIHEDRAL.0>
2.68224

>  <SCORE.INTRA.POLAR>
0

>  <SCORE.INTRA.POLAR.0>
0

>  <SCORE.INTRA.REPUL>
0

>  <SCORE.INTRA.REPUL.0>
0

>  <SCORE.INTRA.SOLV>
-0.197685

>  <SCORE.INTRA.SOLV.lig_0>
-19.4148

>  <SCORE.INTRA.VDW>
-3.08067

>  <SCORE.INTRA.VDW.0>
5.42093

>  <SCORE.INTRA.norm>
-0.122316

>  <SCORE.RESTR>
1.65751

>  <SCORE.RESTR.CAVITY>
1.65751

>  <SCORE.RESTR.norm>
0.0613892

>  <SCORE.SYSTEM>
0

>  <SCORE.SYSTEM.CONST>
0

>  <SCORE.SYSTEM.DIHEDRAL>
0

>  <SCORE.SYSTEM.SOLV>
0

>  <SCORE.SYSTEM.norm>
0

>  <SCORE.heavy>
27

>  <SCORE.norm>
-0.927225

>  <RMSD>
5.706

$$$$
lig.pdb
 OpenBabel11021811523D
libRbt.so/2013.1/901 2013/11/27
 27 30  0  0  0  0  0  0  0  0999 V2000
   28.1359   34.3578   18.8367 N   0  0  0  0  0  0  0  0  0  0  0  0
   26.8803   34.6297   19.0931 C   0  0  0  0  0  0  0  0  0  0  0  0
   25.8567   34.4650   18.2178 N   0  0  0  0  0  0  0  0  0  0  0  0
   26.1264   33.9327   16.9885 C   0  0  0  0  0  0  0  0  0  0  0  0
   27.4038   33.5934   16.6457 C   0  0  0  0  0  0  0  0  0  0  0  0
   28.4689   33.8242   17.5924 C   0  0  0  0  0  0  0  0  0  0  0  0
   29.6566   33.5918   17.3351 O   0  0  0  0  0  0  0  0  0  0  0  0
   26.4310   35.3539   20.3812 C   0  0  2  0  0  0  0  0  0  0  0  0
   27.3172   36.6101   20.3677 C   0  0  0  0  0  0  0  0  0  0  0  0
   27.2418   37.3406   21.6342 N   0  0  0  0  0  0  0  0  0  0  0  0
   27.7492   36.4811   22.7159 C   0  0  0  0  0  0  0  0  0  0  0  0
   26.8801   35.2496   22.8779 C   0  0  0  0  0  0  0  0  0  0  0  0
   26.8026   34.4615   21.5777 C   0  0  0  0  0  0  0  0  0  0  0  0
   24.9284   33.7750   16.1748 C   0  0  0  0  0  0  0  0  0  0  0  0
   23.3879   34.3269   16.7204 S   0  0  0  0  0  0  0  0  0  0  0  0
   22.6296   33.7779   15.3295 C   0  0  0  0  0  0  0  0  0  0  0  0
   23.4995   33.2440   14.4628 C   0  0  0  0  0  0  0  0  0  0  0  0
   24.8264   33.2263   14.9351 C   0  0  0  0  0  0  0  0  0  0  0  0
   27.9976   38.6047   21.5867 C   0  0  0  0  0  0  0  0  0  0  0  0
   27.4755   39.7139   22.4725 C   0  0  0  0  0  0  0  0  0  0  0  0
   27.0158   40.9059   21.9319 C   0  0  0  0  0  0  0  0  0  0  0  0
   26.8749   42.0494   22.6266 N   0  0  0  0  0  0  0  0  0  0  0  0
   27.2536   41.9658   23.8931 C   0  0  0  0  0  0  0  0  0  0  0  0
   27.7463   40.9197   24.5368 N   0  0  0  0  0  0  0  0  0  0  0  0
   27.8690   39.8116   23.7912 C   0  0  0  0  0  0  0  0  0  0  0  0
   27.1203   43.1073   24.5783 O   0  0  0  0  0  0  0  0  0  0  0  0
   26.6656   43.0155   25.9334 C   0  0  0  0  0  0  0  0  0  0  0  0
  1  2  2  0  0  0  0
  1  6  1  0  0  0  0
  2  3  1  0  0  0  0
  3  4  2  0  0  0  0
  4 14  1  0  0  0  0
  5  4  1  0  0  0  0
  6  5  1  0  0  0  0
  7  6  2  0  0  0  0
  8  9  1  0  0  0  0
  8  2  1  6  0  0  0
 10 19  1  0  0  0  0
 10  9  1  0  0  0  0
 11 10  1  0  0  0  0
 12 11  1  0  0  0  0
 12 13  1  0  0  0  0
 13  8  1  0  0  0  0
 14 15  1  0  0  0  0
 14 18  2  0  0  0  0
 15 16  1  0  0  0  0
 16 17  2  0  0  0  0
 18 17  1  0  0  0  0
 19 20  1  0  0  0  0
 20 25  2  0  0  0  0
 20 21  1  0  0  0  0
 21 22  2  0  0  0  0
 22 23  1  0  0  0  0
 23 26  1  0  0  0  0
 24 23  2  0  0  0  0
 25 24  1  0  0  0  0
 26 27  1  0  0  0  0
M  END
>  <CHROM.1>
4.12176961,52.89688295,150.62100674,-117.46980942,141.03358416,26.55324270
36.69678298,20.03331533,-1.79092886,-0.54974621,0.66715972

>  <Name>
lig.pdb

>  <RI>
0

>  <Rbt.Current_Directory>
/home/itssahil/PROJECTS/Mol_Feturizer/New_Systems/rnas/5kx9

>  <Rbt.Executable>
rbdock ($Id: //depot/dev/client3/rdock/2013.1/src/exe/rbdock.cxx#4 $)

>  <Rbt.Library>
libRbt.so (2013.1, Build901 2013/11/27)

>  <Rbt.Parameter_File>
/export/apps/rDock/src/rDock_2013.1_src/data/scripts/dock_solv.prm

>  <Rbt.Receptor>
prm/pocket_docking_7.prm

>  <SCORE>
-29.8306

>  <SCORE.INTER>
-24.8437

>  <SCORE.INTER.CONST>
1

>  <SCORE.INTER.POLAR>
0

>  <SCORE.INTER.ROT>
5

>  <SCORE.INTER.SOLV>
13.3304

>  <SCORE.INTER.VDW>
-27.9392

>  <SCORE.INTER.norm>
-0.920136

>  <SCORE.INTRA>
-5.01323

>  <SCORE.INTRA.DIHEDRAL>
1.91394

>  <SCORE.INTRA.DIHEDRAL.0>
2.68224

>  <SCORE.INTRA.POLAR>
0

>  <SCORE.INTRA.POLAR.0>
0

>  <SCORE.INTRA.REPUL>
0

>  <SCORE.INTRA.REPUL.0>
0

>  <SCORE.INTRA.SOLV>
-0.61853

>  <SCORE.INTRA.SOLV.lig_0>
-19.4148

>  <SCORE.INTRA.VDW>
-5.66094

>  <SCORE.INTRA.VDW.0>
5.42093

>  <SCORE.INTRA.norm>
-0.185675

>  <SCORE.RESTR>
0.0262973

>  <SCORE.RESTR.CAVITY>
0.0262973

>  <SCORE.RESTR.norm>
0.000973972

>  <SCORE.SYSTEM>
0

>  <SCORE.SYSTEM.CONST>
0

>  <SCORE.SYSTEM.DIHEDRAL>
0

>  <SCORE.SYSTEM.SOLV>
0

>  <SCORE.SYSTEM.norm>
0

>  <SCORE.heavy>
27

>  <SCORE.norm>
-1.10484

>  <RMSD>
5.711

$$$$
lig.pdb
 OpenBabel11021811523D
libRbt.so/2013.1/901 2013/11/27
 27 30  0  0  0  0  0  0  0  0999 V2000
   26.5692   37.1995   24.5710 N   0  0  0  0  0  0  0  0  0  0  0  0
   27.4205   37.4619   23.6105 C   0  0  0  0  0  0  0  0  0  0  0  0
   27.9425   38.6870   23.3500 N   0  0  0  0  0  0  0  0  0  0  0  0
   27.6055   39.7289   24.1673 C   0  0  0  0  0  0  0  0  0  0  0  0
   26.7460   39.5404   25.2114 C   0  0  0  0  0  0  0  0  0  0  0  0
   26.1815   38.2294   25.4272 C   0  0  0  0  0  0  0  0  0  0  0  0
   25.3565   37.9931   26.3185 O   0  0  0  0  0  0  0  0  0  0  0  0
   27.7986   36.4281   22.5270 C   0  0  2  0  0  0  0  0  0  0  0  0
   27.7019   37.2635   21.2400 C   0  0  0  0  0  0  0  0  0  0  0  0
   27.7819   36.4255   20.0422 N   0  0  0  0  0  0  0  0  0  0  0  0
   26.6391   35.4982   20.0272 C   0  0  0  0  0  0  0  0  0  0  0  0
   26.6933   34.5570   21.2144 C   0  0  0  0  0  0  0  0  0  0  0  0
   26.7195   35.3320   22.5244 C   0  0  0  0  0  0  0  0  0  0  0  0
   28.2731   40.9685   23.7934 C   0  0  0  0  0  0  0  0  0  0  0  0
   28.0253   42.4290   24.6771 S   0  0  0  0  0  0  0  0  0  0  0  0
   29.0419   43.2902   23.6593 C   0  0  0  0  0  0  0  0  0  0  0  0
   29.5885   42.5085   22.7196 C   0  0  0  0  0  0  0  0  0  0  0  0
   29.1519   41.1705   22.7759 C   0  0  0  0  0  0  0  0  0  0  0  0
   27.8056   37.2299   18.8079 C   0  0  0  0  0  0  0  0  0  0  0  0
   29.1496   37.8122   18.4310 C   0  0  0  0  0  0  0  0  0  0  0  0
   30.1157   37.0378   17.8053 C   0  0  0  0  0  0  0  0  0  0  0  0
   31.4237   37.3492   17.7576 N   0  0  0  0  0  0  0  0  0  0  0  0
   31.7411   38.4619   18.4024 C   0  0  0  0  0  0  0  0  0  0  0  0
   30.9455   39.2781   19.0749 N   0  0  0  0  0  0  0  0  0  0  0  0
   29.6552   38.9126   19.0921 C   0  0  0  0  0  0  0  0  0  0  0  0
   33.0439   38.7635   18.3602 O   0  0  0  0  0  0  0  0  0  0  0  0
   33.9622   37.8041   18.8969 C   0  0  0  0  0  0  0  0  0  0  0  0
  1  2  2  0  0  0  0
  1  6  1  0  0  0  0
  2  3  1  0  0  0  0
  3  4  2  0  0  0  0
  4 14  1  0  0  0  0
  5  4  1  0  0  0  0
  6  5  1  0  0  0  0
  7  6  2  0  0  0  0
  8  9  1  0  0  0  0
  8  2  1  1  0  0  0
 10 19  1  0  0  0  0
 10  9  1  0  0  0  0
 11 10  1  0  0  0  0
 12 11  1  0  0  0  0
 12 13  1  0  0  0  0
 13  8  1  0  0  0  0
 14 15  1  0  0  0  0
 14 18  2  0  0  0  0
 15 16  1  0  0  0  0
 16 17  2  0  0  0  0
 18 17  1  0  0  0  0
 19 20  1  0  0  0  0
 20 25  2  0  0  0  0
 20 21  1  0  0  0  0
 21 22  2  0  0  0  0
 22 23  1  0  0  0  0
 23 26  1  0  0  0  0
 24 23  2  0  0  0  0
 25 24  1  0  0  0  0
 26 27  1  0  0  0  0
M  END
>  <CHROM.1>
-179.50788347,133.74760429,81.05794600,79.59866959,-59.22241592,28.62191333
38.57292423,21.77279273,2.33883364,0.76523456,0.64538729

>  <Name>
lig.pdb

>  <RI>
0

>  <Rbt.Current_Directory>
/home/itssahil/PROJECTS/Mol_Feturizer/New_Systems/rnas/5kx9

>  <Rbt.Executable>
rbdock ($Id: //depot/dev/client3/rdock/2013.1/src/exe/rbdock.cxx#4 $)

>  <Rbt.Library>
libRbt.so (2013.1, Build901 2013/11/27)

>  <Rbt.Parameter_File>
/export/apps/rDock/src/rDock_2013.1_src/data/scripts/dock_solv.prm

>  <Rbt.Receptor>
prm/blind_docking_100.prm

>  <SCORE>
-35.6472

>  <SCORE.INTER>
-33.5154

>  <SCORE.INTER.CONST>
1

>  <SCORE.INTER.POLAR>
0

>  <SCORE.INTER.ROT>
5

>  <SCORE.INTER.SOLV>
15.3053

>  <SCORE.INTER.VDW>
-34.3787

>  <SCORE.INTER.norm>
-1.24131

>  <SCORE.INTRA>
-2.13187

>  <SCORE.INTRA.DIHEDRAL>
3.93642

>  <SCORE.INTRA.DIHEDRAL.0>
2.68224

>  <SCORE.INTRA.POLAR>
0

>  <SCORE.INTRA.POLAR.0>
0

>  <SCORE.INTRA.REPUL>
0

>  <SCORE.INTRA.REPUL.0>
0

>  <SCORE.INTRA.SOLV>
-0.498373

>  <SCORE.INTRA.SOLV.lig_0>
-19.4148

>  <SCORE.INTRA.VDW>
-3.85089

>  <SCORE.INTRA.VDW.0>
5.42093

>  <SCORE.INTRA.norm>
-0.0789581

>  <SCORE.RESTR>
0

>  <SCORE.RESTR.CAVITY>
0

>  <SCORE.RESTR.norm>
0

>  <SCORE.SYSTEM>
0

>  <SCORE.SYSTEM.CONST>
0

>  <SCORE.SYSTEM.DIHEDRAL>
0

>  <SCORE.SYSTEM.SOLV>
0

>  <SCORE.SYSTEM.norm>
0

>  <SCORE.heavy>
27

>  <SCORE.norm>
-1.32027

>  <RMSD>
5.712

$$$$
lig.pdb
 OpenBabel11021811523D
libRbt.so/2013.1/901 2013/11/27
 27 30  0  0  0  0  0  0  0  0999 V2000
   27.6454   42.2207   21.4713 N   0  0  0  0  0  0  0  0  0  0  0  0
   26.8828   41.1652   21.3284 C   0  0  0  0  0  0  0  0  0  0  0  0
   26.8575   40.1061   22.1762 N   0  0  0  0  0  0  0  0  0  0  0  0
   27.6429   40.1438   23.2937 C   0  0  0  0  0  0  0  0  0  0  0  0
   28.4492   41.2184   23.5378 C   0  0  0  0  0  0  0  0  0  0  0  0
   28.4761   42.3051   22.5879 C   0  0  0  0  0  0  0  0  0  0  0  0
   29.2187   43.2868   22.7132 O   0  0  0  0  0  0  0  0  0  0  0  0
   26.0396   40.9124   20.0593 C   0  0  2  0  0  0  0  0  0  0  0  0
   26.9188   39.9180   19.2837 C   0  0  0  0  0  0  0  0  0  0  0  0
   26.4338   39.7163   17.9172 N   0  0  0  0  0  0  0  0  0  0  0  0
   26.5027   40.9936   17.1892 C   0  0  0  0  0  0  0  0  0  0  0  0
   25.5887   42.0244   17.8218 C   0  0  0  0  0  0  0  0  0  0  0  0
   25.9403   42.2392   19.2874 C   0  0  0  0  0  0  0  0  0  0  0  0
   27.4799   38.9617   24.1292 C   0  0  0  0  0  0  0  0  0  0  0  0
   26.8946   37.4735   23.4828 S   0  0  0  0  0  0  0  0  0  0  0  0
   26.9743   36.7208   24.9788 C   0  0  0  0  0  0  0  0  0  0  0  0
   27.4665   37.5335   25.9223 C   0  0  0  0  0  0  0  0  0  0  0  0
   27.7560   38.8300   25.4540 C   0  0  0  0  0  0  0  0  0  0  0  0
   27.2029   38.6793   17.2071 C   0  0  0  0  0  0  0  0  0  0  0  0
   27.2263   37.3166   17.8627 C   0  0  0  0  0  0  0  0  0  0  0  0
   26.0632   36.5766   18.0184 C   0  0  0  0  0  0  0  0  0  0  0  0
   25.9253   35.5525   18.8799 N   0  0  0  0  0  0  0  0  0  0  0  0
   26.9984   35.3166   19.6197 C   0  0  0  0  0  0  0  0  0  0  0  0
   28.1570   35.9563   19.6154 N   0  0  0  0  0  0  0  0  0  0  0  0
   28.2324   36.9703   18.7409 C   0  0  0  0  0  0  0  0  0  0  0  0
   26.8544   34.3033   20.4813 O   0  0  0  0  0  0  0  0  0  0  0  0
   27.0361   34.5883   21.8733 C   0  0  0  0  0  0  0  0  0  0  0  0
  1  2  2  0  0  0  0
  1  6  1  0  0  0  0
  2  3  1  0  0  0  0
  3  4  2  0  0  0  0
  4 14  1  0  0  0  0
  5  4  1  0  0  0  0
  6  5  1  0  0  0  0
  7  6  2  0  0  0  0
  8  9  1  0  0  0  0
  8  2  1  1  0  0  0
 10 19  1  0  0  0  0
 10  9  1  0  0  0  0
 11 10  1  0  0  0  0
 12 11  1  0  0  0  0
 12 13  1  0  0  0  0
 13  8  1  0  0  0  0
 14 15  1  0  0  0  0
 14 18  2  0  0  0  0
 15 16  1  0  0  0  0
 16 17  2  0  0  0  0
 18 17  1  0  0  0  0
 19 20  1  0  0  0  0
 20 25  2  0  0  0  0
 20 21  1  0  0  0  0
 21 22  2  0  0  0  0
 22 23  1  0  0  0  0
 23 26  1  0  0  0  0
 24 23  2  0  0  0  0
 25 24  1  0  0  0  0
 26 27  1  0  0  0  0
M  END
>  <CHROM.1>
22.90413503,99.15169599,57.62872964,63.86455182,-121.40039853,27.13150503
38.85311246,21.01614802,0.25569784,-1.39866517,-0.33752363

>  <Name>
lig.pdb

>  <RI>
0

>  <Rbt.Current_Directory>
/home/itssahil/PROJECTS/Mol_Feturizer/New_Systems/rnas/5kx9

>  <Rbt.Executable>
rbdock ($Id: //depot/dev/client3/rdock/2013.1/src/exe/rbdock.cxx#4 $)

>  <Rbt.Library>
libRbt.so (2013.1, Build901 2013/11/27)

>  <Rbt.Parameter_File>
/export/apps/rDock/src/rDock_2013.1_src/data/scripts/dock_solv.prm

>  <Rbt.Receptor>
prm/pocket_docking_7.prm

>  <SCORE>
-31.5583

>  <SCORE.INTER>
-27.3267

>  <SCORE.INTER.CONST>
1

>  <SCORE.INTER.POLAR>
0

>  <SCORE.INTER.ROT>
5

>  <SCORE.INTER.SOLV>
12.1359

>  <SCORE.INTER.VDW>
-29.1964

>  <SCORE.INTER.norm>
-1.0121

>  <SCORE.INTRA>
-4.23161

>  <SCORE.INTRA.DIHEDRAL>
4.30876

>  <SCORE.INTRA.DIHEDRAL.0>
2.68224

>  <SCORE.INTRA.POLAR>
0

>  <SCORE.INTRA.POLAR.0>
0

>  <SCORE.INTRA.REPUL>
0

>  <SCORE.INTRA.REPUL.0>
0

>  <SCORE.INTRA.SOLV>
-0.267107

>  <SCORE.INTRA.SOLV.lig_0>
-19.4148

>  <SCORE.INTRA.VDW>
-6.25243

>  <SCORE.INTRA.VDW.0>
5.42093

>  <SCORE.INTRA.norm>
-0.156726

>  <SCORE.RESTR>
0

>  <SCORE.RESTR.CAVITY>
0

>  <SCORE.RESTR.norm>
0

>  <SCORE.SYSTEM>
0

>  <SCORE.SYSTEM.CONST>
0

>  <SCORE.SYSTEM.DIHEDRAL>
0

>  <SCORE.SYSTEM.SOLV>
0

>  <SCORE.SYSTEM.norm>
0

>  <SCORE.heavy>
27

>  <SCORE.norm>
-1.16883

>  <RMSD>
5.722

$$$$
lig.pdb
 OpenBabel11021811523D
libRbt.so/2013.1/901 2013/11/27
 27 30  0  0  0  0  0  0  0  0999 V2000
   29.4461   36.4484   18.2667 N   0  0  0  0  0  0  0  0  0  0  0  0
   28.2966   37.0665   18.3801 C   0  0  0  0  0  0  0  0  0  0  0  0
   28.0353   38.3111   17.9071 N   0  0  0  0  0  0  0  0  0  0  0  0
   29.0148   38.9674   17.2164 C   0  0  0  0  0  0  0  0  0  0  0  0
   30.2357   38.3867   17.0256 C   0  0  0  0  0  0  0  0  0  0  0  0
   30.4846   37.0781   17.5819 C   0  0  0  0  0  0  0  0  0  0  0  0
   31.5806   36.5104   17.4961 O   0  0  0  0  0  0  0  0  0  0  0  0
   27.1368   36.5174   19.2397 C   0  0  2  0  0  0  0  0  0  0  0  0
   27.7057   36.6429   20.6624 C   0  0  0  0  0  0  0  0  0  0  0  0
   26.8694   35.9498   21.6440 N   0  0  0  0  0  0  0  0  0  0  0  0
   26.8465   34.5128   21.3268 C   0  0  0  0  0  0  0  0  0  0  0  0
   26.2100   34.2702   19.9724 C   0  0  0  0  0  0  0  0  0  0  0  0
   26.9443   35.0344   18.8796 C   0  0  0  0  0  0  0  0  0  0  0  0
   28.5782   40.2707   16.7338 C   0  0  0  0  0  0  0  0  0  0  0  0
   29.7099   41.4829   16.2596 S   0  0  0  0  0  0  0  0  0  0  0  0
   28.4870   42.5727   15.9023 C   0  0  0  0  0  0  0  0  0  0  0  0
   27.2724   42.0387   16.0826 C   0  0  0  0  0  0  0  0  0  0  0  0
   27.3046   40.7170   16.5684 C   0  0  0  0  0  0  0  0  0  0  0  0
   27.3460   36.1630   23.0220 C   0  0  0  0  0  0  0  0  0  0  0  0
   27.0813   37.5345   23.6020 C   0  0  0  0  0  0  0  0  0  0  0  0
   27.7495   38.6539   23.1277 C   0  0  0  0  0  0  0  0  0  0  0  0
   27.8485   39.8178   23.7952 N   0  0  0  0  0  0  0  0  0  0  0  0
   27.2785   39.8084   24.9908 C   0  0  0  0  0  0  0  0  0  0  0  0
   26.6454   38.8141   25.5923 N   0  0  0  0  0  0  0  0  0  0  0  0
   26.5842   37.6787   24.8809 C   0  0  0  0  0  0  0  0  0  0  0  0
   27.3868   40.9647   25.6552 O   0  0  0  0  0  0  0  0  0  0  0  0
   26.9085   42.1480   25.0050 C   0  0  0  0  0  0  0  0  0  0  0  0
  1  2  2  0  0  0  0
  1  6  1  0  0  0  0
  2  3  1  0  0  0  0
  3  4  2  0  0  0  0
  4 14  1  0  0  0  0
  5  4  1  0  0  0  0
  6  5  1  0  0  0  0
  7  6  2  0  0  0  0
  8  9  1  0  0  0  0
  8  2  1  6  0  0  0
 10 19  1  0  0  0  0
 10  9  1  0  0  0  0
 11 10  1  0  0  0  0
 12 11  1  0  0  0  0
 12 13  1  0  0  0  0
 13  8  1  0  0  0  0
 14 15  1  0  0  0  0
 14 18  2  0  0  0  0
 15 16  1  0  0  0  0
 16 17  2  0  0  0  0
 18 17  1  0  0  0  0
 19 20  1  0  0  0  0
 20 25  2  0  0  0  0
 20 21  1  0  0  0  0
 21 22  2  0  0  0  0
 22 23  1  0  0  0  0
 23 26  1  0  0  0  0
 24 23  2  0  0  0  0
 25 24  1  0  0  0  0
 26 27  1  0  0  0  0
M  END
>  <CHROM.1>
161.50795631,67.26608712,73.73294185,-69.45104854,55.41387348,28.05055451
38.44707103,20.12134444,0.04796977,-1.30386462,-2.94141257

>  <Name>
lig.pdb

>  <RI>
0

>  <Rbt.Current_Directory>
/home/itssahil/PROJECTS/Mol_Feturizer/New_Systems/rnas/5kx9

>  <Rbt.Executable>
rbdock ($Id: //depot/dev/client3/rdock/2013.1/src/exe/rbdock.cxx#4 $)

>  <Rbt.Library>
libRbt.so (2013.1, Build901 2013/11/27)

>  <Rbt.Parameter_File>
/export/apps/rDock/src/rDock_2013.1_src/data/scripts/dock_solv.prm

>  <Rbt.Receptor>
prm/pocket_docking_4.prm

>  <SCORE>
-32.2903

>  <SCORE.INTER>
-28.0113

>  <SCORE.INTER.CONST>
1

>  <SCORE.INTER.POLAR>
0

>  <SCORE.INTER.ROT>
5

>  <SCORE.INTER.SOLV>
13.4241

>  <SCORE.INTER.VDW>
-30.0822

>  <SCORE.INTER.norm>
-1.03745

>  <SCORE.INTRA>
-4.28125

>  <SCORE.INTRA.DIHEDRAL>
3.87811

>  <SCORE.INTRA.DIHEDRAL.0>
2.68224

>  <SCORE.INTRA.POLAR>
0

>  <SCORE.INTRA.POLAR.0>
0

>  <SCORE.INTRA.REPUL>
0

>  <SCORE.INTRA.REPUL.0>
0

>  <SCORE.INTRA.SOLV>
-0.623385

>  <SCORE.INTRA.SOLV.lig_0>
-19.4148

>  <SCORE.INTRA.VDW>
-5.90861

>  <SCORE.INTRA.VDW.0>
5.42093

>  <SCORE.INTRA.norm>
-0.158565

>  <SCORE.RESTR>
0.00223523

>  <SCORE.RESTR.CAVITY>
0.00223523

>  <SCORE.RESTR.norm>
8.27864e-05

>  <SCORE.SYSTEM>
0

>  <SCORE.SYSTEM.CONST>
0

>  <SCORE.SYSTEM.DIHEDRAL>
0

>  <SCORE.SYSTEM.SOLV>
0

>  <SCORE.SYSTEM.norm>
0

>  <SCORE.heavy>
27

>  <SCORE.norm>
-1.19594

>  <RMSD>
5.724

$$$$
lig.pdb
 OpenBabel11021811523D
libRbt.so/2013.1/901 2013/11/27
 27 30  0  0  0  0  0  0  0  0999 V2000
   29.0295   40.8891   20.8955 N   0  0  0  0  0  0  0  0  0  0  0  0
   28.5541   40.8898   22.1163 C   0  0  0  0  0  0  0  0  0  0  0  0
   27.9875   39.8196   22.7285 N   0  0  0  0  0  0  0  0  0  0  0  0
   27.9421   38.6302   22.0573 C   0  0  0  0  0  0  0  0  0  0  0  0
   28.4403   38.5306   20.7899 C   0  0  0  0  0  0  0  0  0  0  0  0
   28.9968   39.7046   20.1608 C   0  0  0  0  0  0  0  0  0  0  0  0
   29.4189   39.7057   18.9977 O   0  0  0  0  0  0  0  0  0  0  0  0
   28.4137   42.1792   22.9549 C   0  0  2  0  0  0  0  0  0  0  0  0
   29.4417   41.9464   24.0742 C   0  0  0  0  0  0  0  0  0  0  0  0
   29.3151   42.9399   25.1420 N   0  0  0  0  0  0  0  0  0  0  0  0
   27.9856   42.8138   25.7607 C   0  0  0  0  0  0  0  0  0  0  0  0
   26.8925   43.1211   24.7562 C   0  0  0  0  0  0  0  0  0  0  0  0
   26.9929   42.2062   23.5436 C   0  0  0  0  0  0  0  0  0  0  0  0
   27.3473   37.5643   22.8524 C   0  0  0  0  0  0  0  0  0  0  0  0
   27.1089   35.9826   22.2070 S   0  0  0  0  0  0  0  0  0  0  0  0
   26.4126   35.4389   23.6319 C   0  0  0  0  0  0  0  0  0  0  0  0
   26.4004   36.3876   24.5768 C   0  0  0  0  0  0  0  0  0  0  0  0
   26.9271   37.6203   24.1443 C   0  0  0  0  0  0  0  0  0  0  0  0
   30.3702   42.7920   26.1599 C   0  0  0  0  0  0  0  0  0  0  0  0
   30.1763   41.6610   27.1451 C   0  0  0  0  0  0  0  0  0  0  0  0
   31.1199   41.3969   28.1272 C   0  0  0  0  0  0  0  0  0  0  0  0
   31.2128   40.2337   28.7967 N   0  0  0  0  0  0  0  0  0  0  0  0
   30.3379   39.3155   28.4145 C   0  0  0  0  0  0  0  0  0  0  0  0
   29.4120   39.4033   27.4731 N   0  0  0  0  0  0  0  0  0  0  0  0
   29.3717   40.5834   26.8370 C   0  0  0  0  0  0  0  0  0  0  0  0
   30.4393   38.1572   29.0764 O   0  0  0  0  0  0  0  0  0  0  0  0
   29.8199   38.0759   30.3653 C   0  0  0  0  0  0  0  0  0  0  0  0
  1  2  2  0  0  0  0
  1  6  1  0  0  0  0
  2  3  1  0  0  0  0
  3  4  2  0  0  0  0
  4 14  1  0  0  0  0
  5  4  1  0  0  0  0
  6  5  1  0  0  0  0
  7  6  2  0  0  0  0
  8  9  1  0  0  0  0
  8  2  1  6  0  0  0
 10 19  1  0  0  0  0
 10  9  1  0  0  0  0
 11 10  1  0  0  0  0
 12 11  1  0  0  0  0
 12 13  1  0  0  0  0
 13  8  1  0  0  0  0
 14 15  1  0  0  0  0
 14 18  2  0  0  0  0
 15 16  1  0  0  0  0
 16 17  2  0  0  0  0
 18 17  1  0  0  0  0
 19 20  1  0  0  0  0
 20 25  2  0  0  0  0
 20 21  1  0  0  0  0
 21 22  2  0  0  0  0
 22 23  1  0  0  0  0
 23 26  1  0  0  0  0
 24 23  2  0  0  0  0
 25 24  1  0  0  0  0
 26 27  1  0  0  0  0
M  END
>  <CHROM.1>
177.18290293,-113.12587866,-77.34444483,178.19571392,81.28981227,28.67923846
39.74984555,24.50005751,-2.69543134,1.22479549,2.38267716

>  <Name>
lig.pdb

>  <RI>
0

>  <Rbt.Current_Directory>
/home/itssahil/PROJECTS/Mol_Feturizer/New_Systems/rnas/5kx9

>  <Rbt.Executable>
rbdock ($Id: //depot/dev/client3/rdock/2013.1/src/exe/rbdock.cxx#4 $)

>  <Rbt.Library>
libRbt.so (2013.1, Build901 2013/11/27)

>  <Rbt.Parameter_File>
/export/apps/rDock/src/rDock_2013.1_src/data/scripts/dock_solv.prm

>  <Rbt.Receptor>
prm/pocket_docking_7.prm

>  <SCORE>
-39.9102

>  <SCORE.INTER>
-38.6669

>  <SCORE.INTER.CONST>
1

>  <SCORE.INTER.POLAR>
0

>  <SCORE.INTER.ROT>
5

>  <SCORE.INTER.SOLV>
13.196

>  <SCORE.INTER.VDW>
-37.1099

>  <SCORE.INTER.norm>
-1.43211

>  <SCORE.INTRA>
-1.24334

>  <SCORE.INTRA.DIHEDRAL>
4.55328

>  <SCORE.INTRA.DIHEDRAL.0>
2.68224

>  <SCORE.INTRA.POLAR>
0

>  <SCORE.INTRA.POLAR.0>
0

>  <SCORE.INTRA.REPUL>
0

>  <SCORE.INTRA.REPUL.0>
0

>  <SCORE.INTRA.SOLV>
-0.389152

>  <SCORE.INTRA.SOLV.lig_0>
-19.4148

>  <SCORE.INTRA.VDW>
-3.32541

>  <SCORE.INTRA.VDW.0>
5.42093

>  <SCORE.INTRA.norm>
-0.0460498

>  <SCORE.RESTR>
0

>  <SCORE.RESTR.CAVITY>
0

>  <SCORE.RESTR.norm>
0

>  <SCORE.SYSTEM>
0

>  <SCORE.SYSTEM.CONST>
0

>  <SCORE.SYSTEM.DIHEDRAL>
0

>  <SCORE.SYSTEM.SOLV>
0

>  <SCORE.SYSTEM.norm>
0

>  <SCORE.heavy>
27

>  <SCORE.norm>
-1.47816

>  <RMSD>
5.728

$$$$
lig.pdb
 OpenBabel11021811523D
libRbt.so/2013.1/901 2013/11/27
 27 30  0  0  0  0  0  0  0  0999 V2000
   29.7232   36.5807   18.5289 N   0  0  0  0  0  0  0  0  0  0  0  0
   28.5256   37.1114   18.5104 C   0  0  0  0  0  0  0  0  0  0  0  0
   28.2176   38.3116   17.9576 N   0  0  0  0  0  0  0  0  0  0  0  0
   29.2052   39.0138   17.3263 C   0  0  0  0  0  0  0  0  0  0  0  0
   30.4782   38.5229   17.2724 C   0  0  0  0  0  0  0  0  0  0  0  0
   30.7709   37.2613   17.9099 C   0  0  0  0  0  0  0  0  0  0  0  0
   31.9092   36.7779   17.9488 O   0  0  0  0  0  0  0  0  0  0  0  0
   27.3354   36.5087   19.2887 C   0  0  2  0  0  0  0  0  0  0  0  0
   27.8148   36.6223   20.7449 C   0  0  0  0  0  0  0  0  0  0  0  0
   26.9449   35.8833   21.6616 N   0  0  0  0  0  0  0  0  0  0  0  0
   26.9872   34.4532   21.3165 C   0  0  0  0  0  0  0  0  0  0  0  0
   26.4400   34.2190   19.9223 C   0  0  0  0  0  0  0  0  0  0  0  0
   27.2125   35.0283   18.8898 C   0  0  0  0  0  0  0  0  0  0  0  0
   28.7196   40.2585   16.7455 C   0  0  0  0  0  0  0  0  0  0  0  0
   27.0333   40.6008   16.6257 S   0  0  0  0  0  0  0  0  0  0  0  0
   27.3224   42.0754   15.8821 C   0  0  0  0  0  0  0  0  0  0  0  0
   28.6320   42.3304   15.7688 C   0  0  0  0  0  0  0  0  0  0  0  0
   29.4520   41.2927   16.2532 C   0  0  0  0  0  0  0  0  0  0  0  0
   27.3320   36.0826   23.0694 C   0  0  0  0  0  0  0  0  0  0  0  0
   27.0698   37.4617   23.6321 C   0  0  0  0  0  0  0  0  0  0  0  0
   27.7467   38.5726   23.1501 C   0  0  0  0  0  0  0  0  0  0  0  0
   27.8465   39.7434   23.8053 N   0  0  0  0  0  0  0  0  0  0  0  0
   27.2680   39.7502   24.9968 C   0  0  0  0  0  0  0  0  0  0  0  0
   26.6258   38.7656   25.6048 N   0  0  0  0  0  0  0  0  0  0  0  0
   26.5643   37.6227   24.9056 C   0  0  0  0  0  0  0  0  0  0  0  0
   27.3770   40.9133   25.6490 O   0  0  0  0  0  0  0  0  0  0  0  0
   28.6936   41.3500   26.0061 C   0  0  0  0  0  0  0  0  0  0  0  0
  1  2  2  0  0  0  0
  1  6  1  0  0  0  0
  2  3  1  0  0  0  0
  3  4  2  0  0  0  0
  4 14  1  0  0  0  0
  5  4  1  0  0  0  0
  6  5  1  0  0  0  0
  7  6  2  0  0  0  0
  8  9  1  0  0  0  0
  8  2  1  6  0  0  0
 10 19  1  0  0  0  0
 10  9  1  0  0  0  0
 11 10  1  0  0  0  0
 12 11  1  0  0  0  0
 12 13  1  0  0  0  0
 13  8  1  0  0  0  0
 14 15  1  0  0  0  0
 14 18  2  0  0  0  0
 15 16  1  0  0  0  0
 16 17  2  0  0  0  0
 18 17  1  0  0  0  0
 19 20  1  0  0  0  0
 20 25  2  0  0  0  0
 20 21  1  0  0  0  0
 21 22  2  0  0  0  0
 22 23  1  0  0  0  0
 23 26  1  0  0  0  0
 24 23  2  0  0  0  0
 25 24  1  0  0  0  0
 26 27  1  0  0  0  0
M  END
>  <CHROM.1>
-11.17908067,62.46059848,69.97547547,-65.58157580,-63.32949675,28.07588593
38.35771753,20.23517794,-0.00166704,-1.37946681,-3.00938780

>  <Name>
lig.pdb

>  <RI>
0

>  <Rbt.Current_Directory>
/home/itssahil/PROJECTS/Mol_Feturizer/New_Systems/rnas/5kx9

>  <Rbt.Executable>
rbdock ($Id: //depot/dev/client3/rdock/2013.1/src/exe/rbdock.cxx#4 $)

>  <Rbt.Library>
libRbt.so (2013.1, Build901 2013/11/27)

>  <Rbt.Parameter_File>
/export/apps/rDock/src/rDock_2013.1_src/data/scripts/dock_solv.prm

>  <Rbt.Receptor>
prm/blind_docking_100.prm

>  <SCORE>
-33.525

>  <SCORE.INTER>
-29.1021

>  <SCORE.INTER.CONST>
1

>  <SCORE.INTER.POLAR>
0

>  <SCORE.INTER.ROT>
5

>  <SCORE.INTER.SOLV>
14.1493

>  <SCORE.INTER.VDW>
-31.0512

>  <SCORE.INTER.norm>
-1.07786

>  <SCORE.INTRA>
-4.42289

>  <SCORE.INTRA.DIHEDRAL>
3.72924

>  <SCORE.INTRA.DIHEDRAL.0>
2.68224

>  <SCORE.INTRA.POLAR>
0

>  <SCORE.INTRA.POLAR.0>
0

>  <SCORE.INTRA.REPUL>
0

>  <SCORE.INTRA.REPUL.0>
0

>  <SCORE.INTRA.SOLV>
-0.56346

>  <SCORE.INTRA.SOLV.lig_0>
-19.4148

>  <SCORE.INTRA.VDW>
-6.00577

>  <SCORE.INTRA.VDW.0>
5.42093

>  <SCORE.INTRA.norm>
-0.163811

>  <SCORE.RESTR>
0

>  <SCORE.RESTR.CAVITY>
0

>  <SCORE.RESTR.norm>
0

>  <SCORE.SYSTEM>
0

>  <SCORE.SYSTEM.CONST>
0

>  <SCORE.SYSTEM.DIHEDRAL>
0

>  <SCORE.SYSTEM.SOLV>
0

>  <SCORE.SYSTEM.norm>
0

>  <SCORE.heavy>
27

>  <SCORE.norm>
-1.24167

>  <RMSD>
5.742

$$$$
lig.pdb
 OpenBabel11021811523D
libRbt.so/2013.1/901 2013/11/27
 27 30  0  0  0  0  0  0  0  0999 V2000
   27.9147   37.1245   17.2992 N   0  0  0  0  0  0  0  0  0  0  0  0
   26.7753   37.2753   17.9278 C   0  0  0  0  0  0  0  0  0  0  0  0
   26.1816   38.4687   18.1815 N   0  0  0  0  0  0  0  0  0  0  0  0
   26.7751   39.6072   17.7140 C   0  0  0  0  0  0  0  0  0  0  0  0
   27.9511   39.5418   17.0232 C   0  0  0  0  0  0  0  0  0  0  0  0
   28.5696   38.2547   16.8117 C   0  0  0  0  0  0  0  0  0  0  0  0
   29.6596   38.1202   16.2419 O   0  0  0  0  0  0  0  0  0  0  0  0
   26.0488   36.1056   18.6276 C   0  0  2  0  0  0  0  0  0  0  0  0
   26.7763   36.0405   19.9803 C   0  0  0  0  0  0  0  0  0  0  0  0
   26.4193   34.8353   20.7308 N   0  0  0  0  0  0  0  0  0  0  0  0
   26.8449   33.6505   19.9682 C   0  0  0  0  0  0  0  0  0  0  0  0
   26.1079   33.5675   18.6460 C   0  0  0  0  0  0  0  0  0  0  0  0
   26.3269   34.8269   17.8192 C   0  0  0  0  0  0  0  0  0  0  0  0
   26.0049   40.8043   18.0234 C   0  0  0  0  0  0  0  0  0  0  0  0
   24.7441   40.7870   19.2005 S   0  0  0  0  0  0  0  0  0  0  0  0
   24.3915   42.4047   18.9370 C   0  0  0  0  0  0  0  0  0  0  0  0
   25.2156   42.9565   18.0374 C   0  0  0  0  0  0  0  0  0  0  0  0
   26.1461   42.0489   17.4947 C   0  0  0  0  0  0  0  0  0  0  0  0
   27.0234   34.8241   22.0747 C   0  0  0  0  0  0  0  0  0  0  0  0
   26.7672   36.0529   22.9185 C   0  0  0  0  0  0  0  0  0  0  0  0
   27.5175   37.2074   22.7487 C   0  0  0  0  0  0  0  0  0  0  0  0
   27.6078   38.1941   23.6588 N   0  0  0  0  0  0  0  0  0  0  0  0
   26.9404   37.9624   24.7793 C   0  0  0  0  0  0  0  0  0  0  0  0
   26.2196   36.9006   25.1025 N   0  0  0  0  0  0  0  0  0  0  0  0
   26.1718   35.9490   24.1586 C   0  0  0  0  0  0  0  0  0  0  0  0
   27.0399   38.9418   25.6853 O   0  0  0  0  0  0  0  0  0  0  0  0
   26.7975   40.2814   25.2400 C   0  0  0  0  0  0  0  0  0  0  0  0
  1  2  2  0  0  0  0
  1  6  1  0  0  0  0
  2  3  1  0  0  0  0
  3  4  2  0  0  0  0
  4 14  1  0  0  0  0
  5  4  1  0  0  0  0
  6  5  1  0  0  0  0
  7  6  2  0  0  0  0
  8  9  1  0  0  0  0
  8  2  1  6  0  0  0
 10 19  1  0  0  0  0
 10  9  1  0  0  0  0
 11 10  1  0  0  0  0
 12 11  1  0  0  0  0
 12 13  1  0  0  0  0
 13  8  1  0  0  0  0
 14 15  1  0  0  0  0
 14 18  2  0  0  0  0
 15 16  1  0  0  0  0
 16 17  2  0  0  0  0
 18 17  1  0  0  0  0
 19 20  1  0  0  0  0
 20 25  2  0  0  0  0
 20 21  1  0  0  0  0
 21 22  2  0  0  0  0
 22 23  1  0  0  0  0
 23 26  1  0  0  0  0
 24 23  2  0  0  0  0
 25 24  1  0  0  0  0
 26 27  1  0  0  0  0
M  END
>  <CHROM.1>
15.34702482,82.57188676,52.95798266,-81.06016041,49.20299853,26.63041659
37.99019218,20.17943344,-1.72232275,-1.38064491,1.85763686

>  <Name>
lig.pdb

>  <RI>
0

>  <Rbt.Current_Directory>
/home/itssahil/PROJECTS/Mol_Feturizer/New_Systems/rnas/5kx9

>  <Rbt.Executable>
rbdock ($Id: //depot/dev/client3/rdock/2013.1/src/exe/rbdock.cxx#4 $)

>  <Rbt.Library>
libRbt.so (2013.1, Build901 2013/11/27)

>  <Rbt.Parameter_File>
/export/apps/rDock/src/rDock_2013.1_src/data/scripts/dock_solv.prm

>  <Rbt.Receptor>
prm/pocket_docking_4.prm

>  <SCORE>
-32.4847

>  <SCORE.INTER>
-28.3565

>  <SCORE.INTER.CONST>
1

>  <SCORE.INTER.POLAR>
0

>  <SCORE.INTER.ROT>
5

>  <SCORE.INTER.SOLV>
14.6784

>  <SCORE.INTER.VDW>
-30.7304

>  <SCORE.INTER.norm>
-1.05024

>  <SCORE.INTRA>
-4.12826

>  <SCORE.INTRA.DIHEDRAL>
2.19665

>  <SCORE.INTRA.DIHEDRAL.0>
2.68224

>  <SCORE.INTRA.POLAR>
0

>  <SCORE.INTRA.POLAR.0>
0

>  <SCORE.INTRA.REPUL>
0

>  <SCORE.INTRA.REPUL.0>
0

>  <SCORE.INTRA.SOLV>
-0.572137

>  <SCORE.INTRA.SOLV.lig_0>
-19.4148

>  <SCORE.INTRA.VDW>
-4.94052

>  <SCORE.INTRA.VDW.0>
5.42093

>  <SCORE.INTRA.norm>
-0.152898

>  <SCORE.RESTR>
0

>  <SCORE.RESTR.CAVITY>
0

>  <SCORE.RESTR.norm>
0

>  <SCORE.SYSTEM>
0

>  <SCORE.SYSTEM.CONST>
0

>  <SCORE.SYSTEM.DIHEDRAL>
0

>  <SCORE.SYSTEM.SOLV>
0

>  <SCORE.SYSTEM.norm>
0

>  <SCORE.heavy>
27

>  <SCORE.norm>
-1.20314

>  <RMSD>
5.750

$$$$
lig.pdb
 OpenBabel11021811523D
libRbt.so/2013.1/901 2013/11/27
 27 30  0  0  0  0  0  0  0  0999 V2000
   29.5755   36.7440   18.6631 N   0  0  0  0  0  0  0  0  0  0  0  0
   28.4110   37.3440   18.6539 C   0  0  0  0  0  0  0  0  0  0  0  0
   28.1548   38.5306   18.0477 N   0  0  0  0  0  0  0  0  0  0  0  0
   29.1594   39.1387   17.3491 C   0  0  0  0  0  0  0  0  0  0  0  0
   30.3989   38.5699   17.2816 C   0  0  0  0  0  0  0  0  0  0  0  0
   30.6392   37.3275   17.9761 C   0  0  0  0  0  0  0  0  0  0  0  0
   31.7479   36.7791   18.0051 O   0  0  0  0  0  0  0  0  0  0  0  0
   27.2151   36.8550   19.5001 C   0  0  2  0  0  0  0  0  0  0  0  0
   27.8222   36.8022   20.9115 C   0  0  0  0  0  0  0  0  0  0  0  0
   26.9344   36.1256   21.8589 N   0  0  0  0  0  0  0  0  0  0  0  0
   26.7478   34.7300   21.4301 C   0  0  0  0  0  0  0  0  0  0  0  0
   26.0620   34.6685   20.0796 C   0  0  0  0  0  0  0  0  0  0  0  0
   26.8541   35.4356   19.0299 C   0  0  0  0  0  0  0  0  0  0  0  0
   28.7277   40.3788   16.7183 C   0  0  0  0  0  0  0  0  0  0  0  0
   27.0564   40.7609   16.5293 S   0  0  0  0  0  0  0  0  0  0  0  0
   27.4104   42.2063   15.7571 C   0  0  0  0  0  0  0  0  0  0  0  0
   28.7295   42.4245   15.6838 C   0  0  0  0  0  0  0  0  0  0  0  0
   29.5042   41.3799   16.2247 C   0  0  0  0  0  0  0  0  0  0  0  0
   27.4585   36.1733   23.2352 C   0  0  0  0  0  0  0  0  0  0  0  0
   27.4098   37.5267   23.9084 C   0  0  0  0  0  0  0  0  0  0  0  0
   26.6647   37.7269   25.0614 C   0  0  0  0  0  0  0  0  0  0  0  0
   26.2793   38.9331   25.5157 N   0  0  0  0  0  0  0  0  0  0  0  0
   26.6389   39.9456   24.7411 C   0  0  0  0  0  0  0  0  0  0  0  0
   27.3096   39.9109   23.6008 N   0  0  0  0  0  0  0  0  0  0  0  0
   27.6611   38.6814   23.1963 C   0  0  0  0  0  0  0  0  0  0  0  0
   26.2461   41.1427   25.1915 O   0  0  0  0  0  0  0  0  0  0  0  0
   25.7272   42.0719   24.2328 C   0  0  0  0  0  0  0  0  0  0  0  0
  1  2  2  0  0  0  0
  1  6  1  0  0  0  0
  2  3  1  0  0  0  0
  3  4  2  0  0  0  0
  4 14  1  0  0  0  0
  5  4  1  0  0  0  0
  6  5  1  0  0  0  0
  7  6  2  0  0  0  0
  8  9  1  0  0  0  0
  8  2  1  6  0  0  0
 10 19  1  0  0  0  0
 10  9  1  0  0  0  0
 11 10  1  0  0  0  0
 12 11  1  0  0  0  0
 12 13  1  0  0  0  0
 13  8  1  0  0  0  0
 14 15  1  0  0  0  0
 14 18  2  0  0  0  0
 15 16  1  0  0  0  0
 16 17  2  0  0  0  0
 18 17  1  0  0  0  0
 19 20  1  0  0  0  0
 20 25  2  0  0  0  0
 20 21  1  0  0  0  0
 21 22  2  0  0  0  0
 22 23  1  0  0  0  0
 23 26  1  0  0  0  0
 24 23  2  0  0  0  0
 25 24  1  0  0  0  0
 26 27  1  0  0  0  0
M  END
>  <CHROM.1>
-15.76039833,53.88220539,71.30044055,118.33508943,-137.87935506,27.82007817
38.55194242,20.18606959,-0.60267087,-1.22564535,2.68274368

>  <Name>
lig.pdb

>  <RI>
0

>  <Rbt.Current_Directory>
/home/itssahil/PROJECTS/Mol_Feturizer/New_Systems/rnas/5kx9

>  <Rbt.Executable>
rbdock ($Id: //depot/dev/client3/rdock/2013.1/src/exe/rbdock.cxx#4 $)

>  <Rbt.Library>
libRbt.so (2013.1, Build901 2013/11/27)

>  <Rbt.Parameter_File>
/export/apps/rDock/src/rDock_2013.1_src/data/scripts/dock_solv.prm

>  <Rbt.Receptor>
prm/blind_docking_100.prm

>  <SCORE>
-32.0812

>  <SCORE.INTER>
-27.9942

>  <SCORE.INTER.CONST>
1

>  <SCORE.INTER.POLAR>
0

>  <SCORE.INTER.ROT>
5

>  <SCORE.INTER.SOLV>
14.9873

>  <SCORE.INTER.VDW>
-30.5919

>  <SCORE.INTER.norm>
-1.03682

>  <SCORE.INTRA>
-4.08696

>  <SCORE.INTRA.DIHEDRAL>
2.22154

>  <SCORE.INTRA.DIHEDRAL.0>
2.68224

>  <SCORE.INTRA.POLAR>
0

>  <SCORE.INTRA.POLAR.0>
0

>  <SCORE.INTRA.REPUL>
0

>  <SCORE.INTRA.REPUL.0>
0

>  <SCORE.INTRA.SOLV>
-0.413514

>  <SCORE.INTRA.SOLV.lig_0>
-19.4148

>  <SCORE.INTRA.VDW>
-4.99097

>  <SCORE.INTRA.VDW.0>
5.42093

>  <SCORE.INTRA.norm>
-0.151369

>  <SCORE.RESTR>
0

>  <SCORE.RESTR.CAVITY>
0

>  <SCORE.RESTR.norm>
0

>  <SCORE.SYSTEM>
0

>  <SCORE.SYSTEM.CONST>
0

>  <SCORE.SYSTEM.DIHEDRAL>
0

>  <SCORE.SYSTEM.SOLV>
0

>  <SCORE.SYSTEM.norm>
0

>  <SCORE.heavy>
27

>  <SCORE.norm>
-1.18819

>  <RMSD>
5.800

$$$$
lig.pdb
 OpenBabel11021811523D
libRbt.so/2013.1/901 2013/11/27
 27 30  0  0  0  0  0  0  0  0999 V2000
   26.9958   38.8866   24.1374 N   0  0  0  0  0  0  0  0  0  0  0  0
   27.7582   39.9296   24.3543 C   0  0  0  0  0  0  0  0  0  0  0  0
   28.5512   40.0978   25.4424 N   0  0  0  0  0  0  0  0  0  0  0  0
   28.6104   39.0961   26.3699 C   0  0  0  0  0  0  0  0  0  0  0  0
   27.8704   37.9598   26.2103 C   0  0  0  0  0  0  0  0  0  0  0  0
   27.0083   37.8401   25.0587 C   0  0  0  0  0  0  0  0  0  0  0  0
   26.2693   36.8654   24.8728 O   0  0  0  0  0  0  0  0  0  0  0  0
   27.7069   41.1967   23.4726 C   0  0  2  0  0  0  0  0  0  0  0  0
   27.8725   40.6110   22.0608 C   0  0  0  0  0  0  0  0  0  0  0  0
   28.1008   41.6575   21.0628 N   0  0  0  0  0  0  0  0  0  0  0  0
   29.3577   42.3557   21.3773 C   0  0  0  0  0  0  0  0  0  0  0  0
   29.2645   43.0547   22.7192 C   0  0  0  0  0  0  0  0  0  0  0  0
   28.9248   42.0669   23.8267 C   0  0  0  0  0  0  0  0  0  0  0  0
   29.5321   39.3974   27.4570 C   0  0  0  0  0  0  0  0  0  0  0  0
   29.5872   38.4338   28.8866 S   0  0  0  0  0  0  0  0  0  0  0  0
   30.7792   39.3981   29.5650 C   0  0  0  0  0  0  0  0  0  0  0  0
   31.1613   40.3785   28.7369 C   0  0  0  0  0  0  0  0  0  0  0  0
   30.4492   40.3990   27.5218 C   0  0  0  0  0  0  0  0  0  0  0  0
   28.1453   41.1132   19.6942 C   0  0  0  0  0  0  0  0  0  0  0  0
   26.9235   41.3790   18.8433 C   0  0  0  0  0  0  0  0  0  0  0  0
   27.0125   41.4351   17.4600 C   0  0  0  0  0  0  0  0  0  0  0  0
   26.0892   42.0026   16.6629 N   0  0  0  0  0  0  0  0  0  0  0  0
   25.0760   42.5552   17.3130 C   0  0  0  0  0  0  0  0  0  0  0  0
   24.8734   42.6181   18.6193 N   0  0  0  0  0  0  0  0  0  0  0  0
   25.8297   42.0410   19.3617 C   0  0  0  0  0  0  0  0  0  0  0  0
   24.1644   43.1263   16.5174 O   0  0  0  0  0  0  0  0  0  0  0  0
   24.5888   44.2342   15.7149 C   0  0  0  0  0  0  0  0  0  0  0  0
  1  2  2  0  0  0  0
  1  6  1  0  0  0  0
  2  3  1  0  0  0  0
  3  4  2  0  0  0  0
  4 14  1  0  0  0  0
  5  4  1  0  0  0  0
  6  5  1  0  0  0  0
  7  6  2  0  0  0  0
  8  9  1  0  0  0  0
  8  2  1  1  0  0  0
 10 19  1  0  0  0  0
 10  9  1  0  0  0  0
 11 10  1  0  0  0  0
 12 11  1  0  0  0  0
 12 13  1  0  0  0  0
 13  8  1  0  0  0  0
 14 15  1  0  0  0  0
 14 18  2  0  0  0  0
 15 16  1  0  0  0  0
 16 17  2  0  0  0  0
 18 17  1  0  0  0  0
 19 20  1  0  0  0  0
 20 25  2  0  0  0  0
 20 21  1  0  0  0  0
 21 22  2  0  0  0  0
 22 23  1  0  0  0  0
 23 26  1  0  0  0  0
 24 23  2  0  0  0  0
 25 24  1  0  0  0  0
 26 27  1  0  0  0  0
M  END
>  <CHROM.1>
169.16318631,-52.18918650,105.34636631,153.27418714,-63.07032888,27.76633712
40.65969602,22.92479958,1.10640763,0.75236343,2.23444922

>  <Name>
lig.pdb

>  <RI>
0

>  <Rbt.Current_Directory>
/home/itssahil/PROJECTS/Mol_Feturizer/New_Systems/rnas/5kx9

>  <Rbt.Executable>
rbdock ($Id: //depot/dev/client3/rdock/2013.1/src/exe/rbdock.cxx#4 $)

>  <Rbt.Library>
libRbt.so (2013.1, Build901 2013/11/27)

>  <Rbt.Parameter_File>
/export/apps/rDock/src/rDock_2013.1_src/data/scripts/dock_solv.prm

>  <Rbt.Receptor>
prm/blind_docking_60.prm

>  <SCORE>
-31.8629

>  <SCORE.INTER>
-30.0029

>  <SCORE.INTER.CONST>
1

>  <SCORE.INTER.POLAR>
0

>  <SCORE.INTER.ROT>
5

>  <SCORE.INTER.SOLV>
13.9425

>  <SCORE.INTER.VDW>
-31.5828

>  <SCORE.INTER.norm>
-1.11122

>  <SCORE.INTRA>
-1.85998

>  <SCORE.INTRA.DIHEDRAL>
5.10851

>  <SCORE.INTRA.DIHEDRAL.0>
2.68224

>  <SCORE.INTRA.POLAR>
0

>  <SCORE.INTRA.POLAR.0>
0

>  <SCORE.INTRA.REPUL>
0

>  <SCORE.INTRA.REPUL.0>
0

>  <SCORE.INTRA.SOLV>
-0.591818

>  <SCORE.INTRA.SOLV.lig_0>
-19.4148

>  <SCORE.INTRA.VDW>
-4.11832

>  <SCORE.INTRA.VDW.0>
5.42093

>  <SCORE.INTRA.norm>
-0.0688881

>  <SCORE.RESTR>
0

>  <SCORE.RESTR.CAVITY>
0

>  <SCORE.RESTR.norm>
0

>  <SCORE.SYSTEM>
0

>  <SCORE.SYSTEM.CONST>
0

>  <SCORE.SYSTEM.DIHEDRAL>
0

>  <SCORE.SYSTEM.SOLV>
0

>  <SCORE.SYSTEM.norm>
0

>  <SCORE.heavy>
27

>  <SCORE.norm>
-1.18011

>  <RMSD>
5.801

$$$$
lig.pdb
 OpenBabel11021811523D
libRbt.so/2013.1/901 2013/11/27
 27 30  0  0  0  0  0  0  0  0999 V2000
   26.6465   42.3270   24.1660 N   0  0  0  0  0  0  0  0  0  0  0  0
   26.8815   41.6726   23.0556 C   0  0  0  0  0  0  0  0  0  0  0  0
   27.0075   40.3249   22.9614 N   0  0  0  0  0  0  0  0  0  0  0  0
   26.8328   39.5713   24.0878 C   0  0  0  0  0  0  0  0  0  0  0  0
   26.5566   40.1679   25.2845 C   0  0  0  0  0  0  0  0  0  0  0  0
   26.4724   41.6076   25.3475 C   0  0  0  0  0  0  0  0  0  0  0  0
   26.2780   42.2222   26.4036 O   0  0  0  0  0  0  0  0  0  0  0  0
   27.2303   42.3819   21.7286 C   0  0  2  0  0  0  0  0  0  0  0  0
   26.4609   41.5354   20.7015 C   0  0  0  0  0  0  0  0  0  0  0  0
   26.8381   41.8740   19.3281 N   0  0  0  0  0  0  0  0  0  0  0  0
   28.2658   41.5738   19.1338 C   0  0  0  0  0  0  0  0  0  0  0  0
   29.1252   42.4333   20.0397 C   0  0  0  0  0  0  0  0  0  0  0  0
   28.7445   42.2368   21.5005 C   0  0  0  0  0  0  0  0  0  0  0  0
   26.9546   38.1433   23.8268 C   0  0  0  0  0  0  0  0  0  0  0  0
   27.5365   37.5484   22.3160 S   0  0  0  0  0  0  0  0  0  0  0  0
   27.3466   35.9545   22.7999 C   0  0  0  0  0  0  0  0  0  0  0  0
   26.9102   35.8635   24.0625 C   0  0  0  0  0  0  0  0  0  0  0  0
   26.6714   37.1129   24.6675 C   0  0  0  0  0  0  0  0  0  0  0  0
   26.0224   41.1487   18.3381 C   0  0  0  0  0  0  0  0  0  0  0  0
   26.3552   39.6839   18.1618 C   0  0  0  0  0  0  0  0  0  0  0  0
   26.7095   38.8943   19.2461 C   0  0  0  0  0  0  0  0  0  0  0  0
   27.3505   37.7155   19.1488 N   0  0  0  0  0  0  0  0  0  0  0  0
   27.6637   37.3681   17.9095 C   0  0  0  0  0  0  0  0  0  0  0  0
   27.4318   38.0291   16.7867 N   0  0  0  0  0  0  0  0  0  0  0  0
   26.7958   39.1989   16.9478 C   0  0  0  0  0  0  0  0  0  0  0  0
   28.3088   36.1996   17.8176 O   0  0  0  0  0  0  0  0  0  0  0  0
   27.6888   35.0536   18.4125 C   0  0  0  0  0  0  0  0  0  0  0  0
  1  2  2  0  0  0  0
  1  6  1  0  0  0  0
  2  3  1  0  0  0  0
  3  4  2  0  0  0  0
  4 14  1  0  0  0  0
  5  4  1  0  0  0  0
  6  5  1  0  0  0  0
  7  6  2  0  0  0  0
  8  9  1  0  0  0  0
  8  2  1  1  0  0  0
 10 19  1  0  0  0  0
 10  9  1  0  0  0  0
 11 10  1  0  0  0  0
 12 11  1  0  0  0  0
 12 13  1  0  0  0  0
 13  8  1  0  0  0  0
 14 15  1  0  0  0  0
 14 18  2  0  0  0  0
 15 16  1  0  0  0  0
 16 17  2  0  0  0  0
 18 17  1  0  0  0  0
 19 20  1  0  0  0  0
 20 25  2  0  0  0  0
 20 21  1  0  0  0  0
 21 22  2  0  0  0  0
 22 23  1  0  0  0  0
 23 26  1  0  0  0  0
 24 23  2  0  0  0  0
 25 24  1  0  0  0  0
 26 27  1  0  0  0  0
M  END
>  <CHROM.1>
10.23331937,-140.90723075,-74.74973122,37.78829366,54.62150611,27.18479582
39.45700325,21.28662035,-2.94757540,-1.47700511,2.91158097

>  <Name>
lig.pdb

>  <RI>
0

>  <Rbt.Current_Directory>
/home/itssahil/PROJECTS/Mol_Feturizer/New_Systems/rnas/5kx9

>  <Rbt.Executable>
rbdock ($Id: //depot/dev/client3/rdock/2013.1/src/exe/rbdock.cxx#4 $)

>  <Rbt.Library>
libRbt.so (2013.1, Build901 2013/11/27)

>  <Rbt.Parameter_File>
/export/apps/rDock/src/rDock_2013.1_src/data/scripts/dock_solv.prm

>  <Rbt.Receptor>
prm/blind_docking_100.prm

>  <SCORE>
-28.8135

>  <SCORE.INTER>
-25.852

>  <SCORE.INTER.CONST>
1

>  <SCORE.INTER.POLAR>
0

>  <SCORE.INTER.ROT>
5

>  <SCORE.INTER.SOLV>
12.3714

>  <SCORE.INTER.VDW>
-28.2918

>  <SCORE.INTER.norm>
-0.957481

>  <SCORE.INTRA>
-2.96148

>  <SCORE.INTRA.DIHEDRAL>
2.47871

>  <SCORE.INTRA.DIHEDRAL.0>
2.68224

>  <SCORE.INTRA.POLAR>
0

>  <SCORE.INTRA.POLAR.0>
0

>  <SCORE.INTRA.REPUL>
0

>  <SCORE.INTRA.REPUL.0>
0

>  <SCORE.INTRA.SOLV>
0.335614

>  <SCORE.INTRA.SOLV.lig_0>
-19.4148

>  <SCORE.INTRA.VDW>
-4.36864

>  <SCORE.INTRA.VDW.0>
5.42093

>  <SCORE.INTRA.norm>
-0.109684

>  <SCORE.RESTR>
0

>  <SCORE.RESTR.CAVITY>
0

>  <SCORE.RESTR.norm>
0

>  <SCORE.SYSTEM>
0

>  <SCORE.SYSTEM.CONST>
0

>  <SCORE.SYSTEM.DIHEDRAL>
0

>  <SCORE.SYSTEM.SOLV>
0

>  <SCORE.SYSTEM.norm>
0

>  <SCORE.heavy>
27

>  <SCORE.norm>
-1.06717

>  <RMSD>
5.839

$$$$
lig.pdb
 OpenBabel11021811523D
libRbt.so/2013.1/901 2013/11/27
 27 30  0  0  0  0  0  0  0  0999 V2000
   29.0014   41.4742   21.8633 N   0  0  0  0  0  0  0  0  0  0  0  0
   28.8325   40.4672   21.0426 C   0  0  0  0  0  0  0  0  0  0  0  0
   28.3583   39.2469   21.3994 N   0  0  0  0  0  0  0  0  0  0  0  0
   27.9780   39.0466   22.6965 C   0  0  0  0  0  0  0  0  0  0  0  0
   28.0927   40.0504   23.6149 C   0  0  0  0  0  0  0  0  0  0  0  0
   28.6411   41.3201   23.2014 C   0  0  0  0  0  0  0  0  0  0  0  0
   28.8246   42.2588   23.9863 O   0  0  0  0  0  0  0  0  0  0  0  0
   29.3323   40.4905   19.5814 C   0  0  2  0  0  0  0  0  0  0  0  0
   28.0591   40.1237   18.8017 C   0  0  0  0  0  0  0  0  0  0  0  0
   28.3470   39.8428   17.3941 N   0  0  0  0  0  0  0  0  0  0  0  0
   29.2411   38.6767   17.3097 C   0  0  0  0  0  0  0  0  0  0  0  0
   30.5734   38.9704   17.9705 C   0  0  0  0  0  0  0  0  0  0  0  0
   30.3831   39.3782   19.4249 C   0  0  0  0  0  0  0  0  0  0  0  0
   27.4508   37.7074   22.9218 C   0  0  0  0  0  0  0  0  0  0  0  0
   26.7339   37.2610   24.4258 S   0  0  0  0  0  0  0  0  0  0  0  0
   26.4512   35.6953   23.8971 C   0  0  0  0  0  0  0  0  0  0  0  0
   26.8325   35.5200   22.6256 C   0  0  0  0  0  0  0  0  0  0  0  0
   27.4173   36.6647   22.0499 C   0  0  0  0  0  0  0  0  0  0  0  0
   27.1178   39.6036   16.6175 C   0  0  0  0  0  0  0  0  0  0  0  0
   26.3776   38.3247   16.9400 C   0  0  0  0  0  0  0  0  0  0  0  0
   25.8720   38.0907   18.2105 C   0  0  0  0  0  0  0  0  0  0  0  0
   25.5286   36.8770   18.6786 N   0  0  0  0  0  0  0  0  0  0  0  0
   25.7494   35.8848   17.8293 C   0  0  0  0  0  0  0  0  0  0  0  0
   26.2597   35.9445   16.6097 N   0  0  0  0  0  0  0  0  0  0  0  0
   26.5879   37.1790   16.2008 C   0  0  0  0  0  0  0  0  0  0  0  0
   25.4151   34.6785   18.3017 O   0  0  0  0  0  0  0  0  0  0  0  0
   26.2354   34.1232   19.3362 C   0  0  0  0  0  0  0  0  0  0  0  0
  1  2  2  0  0  0  0
  1  6  1  0  0  0  0
  2  3  1  0  0  0  0
  3  4  2  0  0  0  0
  4 14  1  0  0  0  0
  5  4  1  0  0  0  0
  6  5  1  0  0  0  0
  7  6  2  0  0  0  0
  8  9  1  0  0  0  0
  8  2  1  1  0  0  0
 10 19  1  0  0  0  0
 10  9  1  0  0  0  0
 11 10  1  0  0  0  0
 12 11  1  0  0  0  0
 12 13  1  0  0  0  0
 13  8  1  0  0  0  0
 14 15  1  0  0  0  0
 14 18  2  0  0  0  0
 15 16  1  0  0  0  0
 16 17  2  0  0  0  0
 18 17  1  0  0  0  0
 19 20  1  0  0  0  0
 20 25  2  0  0  0  0
 20 21  1  0  0  0  0
 21 22  2  0  0  0  0
 22 23  1  0  0  0  0
 23 26  1  0  0  0  0
 24 23  2  0  0  0  0
 25 24  1  0  0  0  0
 26 27  1  0  0  0  0
M  END
>  <CHROM.1>
-172.80440149,-126.99573719,-68.89633880,60.93856574,-70.89510963,27.58000680
38.27177842,20.29448546,-1.13426250,-1.04028570,-1.59941607

>  <Name>
lig.pdb

>  <RI>
0

>  <Rbt.Current_Directory>
/home/itssahil/PROJECTS/Mol_Feturizer/New_Systems/rnas/5kx9

>  <Rbt.Executable>
rbdock ($Id: //depot/dev/client3/rdock/2013.1/src/exe/rbdock.cxx#4 $)

>  <Rbt.Library>
libRbt.so (2013.1, Build901 2013/11/27)

>  <Rbt.Parameter_File>
/export/apps/rDock/src/rDock_2013.1_src/data/scripts/dock_solv.prm

>  <Rbt.Receptor>
prm/pocket_docking_3.prm

>  <SCORE>
-32.072

>  <SCORE.INTER>
-28.143

>  <SCORE.INTER.CONST>
1

>  <SCORE.INTER.POLAR>
0

>  <SCORE.INTER.ROT>
5

>  <SCORE.INTER.SOLV>
10.0277

>  <SCORE.INTER.VDW>
-29.0379

>  <SCORE.INTER.norm>
-1.04233

>  <SCORE.INTRA>
-3.929

>  <SCORE.INTRA.DIHEDRAL>
3.85381

>  <SCORE.INTRA.DIHEDRAL.0>
2.68224

>  <SCORE.INTRA.POLAR>
0

>  <SCORE.INTRA.POLAR.0>
0

>  <SCORE.INTRA.REPUL>
0

>  <SCORE.INTRA.REPUL.0>
0

>  <SCORE.INTRA.SOLV>
-0.135421

>  <SCORE.INTRA.SOLV.lig_0>
-19.4148

>  <SCORE.INTRA.VDW>
-5.78819

>  <SCORE.INTRA.VDW.0>
5.42093

>  <SCORE.INTRA.norm>
-0.145518

>  <SCORE.RESTR>
0

>  <SCORE.RESTR.CAVITY>
0

>  <SCORE.RESTR.norm>
0

>  <SCORE.SYSTEM>
0

>  <SCORE.SYSTEM.CONST>
0

>  <SCORE.SYSTEM.DIHEDRAL>
0

>  <SCORE.SYSTEM.SOLV>
0

>  <SCORE.SYSTEM.norm>
0

>  <SCORE.heavy>
27

>  <SCORE.norm>
-1.18785

>  <RMSD>
5.839

$$$$
lig.pdb
 OpenBabel11021811523D
libRbt.so/2013.1/901 2013/11/27
 27 30  0  0  0  0  0  0  0  0999 V2000
   31.5976   37.7017   16.6574 N   0  0  0  0  0  0  0  0  0  0  0  0
   32.0592   38.5587   17.5342 C   0  0  0  0  0  0  0  0  0  0  0  0
   33.1487   38.3563   18.3173 N   0  0  0  0  0  0  0  0  0  0  0  0
   33.8598   37.1998   18.1626 C   0  0  0  0  0  0  0  0  0  0  0  0
   33.4671   36.2618   17.2513 C   0  0  0  0  0  0  0  0  0  0  0  0
   32.2780   36.4995   16.4681 C   0  0  0  0  0  0  0  0  0  0  0  0
   31.8305   35.6749   15.6615 O   0  0  0  0  0  0  0  0  0  0  0  0
   31.3002   39.8478   17.9184 C   0  0  2  0  0  0  0  0  0  0  0  0
   30.3775   39.3524   19.0440 C   0  0  0  0  0  0  0  0  0  0  0  0
   29.3759   40.3569   19.4059 N   0  0  0  0  0  0  0  0  0  0  0  0
   28.5143   40.6178   18.2415 C   0  0  0  0  0  0  0  0  0  0  0  0
   29.3176   41.2047   17.0976 C   0  0  0  0  0  0  0  0  0  0  0  0
   30.4617   40.2808   16.7038 C   0  0  0  0  0  0  0  0  0  0  0  0
   35.0236   37.1404   19.0367 C   0  0  0  0  0  0  0  0  0  0  0  0
   36.3797   36.1406   18.6671 S   0  0  0  0  0  0  0  0  0  0  0  0
   37.1775   36.5980   20.0689 C   0  0  0  0  0  0  0  0  0  0  0  0
   36.4813   37.5032   20.7682 C   0  0  0  0  0  0  0  0  0  0  0  0
   35.2354   37.8220   20.1939 C   0  0  0  0  0  0  0  0  0  0  0  0
   28.5636   39.9339   20.5601 C   0  0  0  0  0  0  0  0  0  0  0  0
   28.8220   40.6780   21.8512 C   0  0  0  0  0  0  0  0  0  0  0  0
   27.7795   41.0300   22.6961 C   0  0  0  0  0  0  0  0  0  0  0  0
   27.8629   41.9735   23.6516 N   0  0  0  0  0  0  0  0  0  0  0  0
   29.0344   42.5892   23.7062 C   0  0  0  0  0  0  0  0  0  0  0  0
   30.1017   42.3949   22.9482 N   0  0  0  0  0  0  0  0  0  0  0  0
   29.9564   41.4470   22.0106 C   0  0  0  0  0  0  0  0  0  0  0  0
   29.1106   43.5329   24.6516 O   0  0  0  0  0  0  0  0  0  0  0  0
   30.2438   43.5014   25.5272 C   0  0  0  0  0  0  0  0  0  0  0  0
  1  2  2  0  0  0  0
  1  6  1  0  0  0  0
  2  3  1  0  0  0  0
  3  4  2  0  0  0  0
  4 14  1  0  0  0  0
  5  4  1  0  0  0  0
  6  5  1  0  0  0  0
  7  6  2  0  0  0  0
  8  9  1  0  0  0  0
  8  2  1  6  0  0  0
 10 19  1  0  0  0  0
 10  9  1  0  0  0  0
 11 10  1  0  0  0  0
 12 11  1  0  0  0  0
 12 13  1  0  0  0  0
 13  8  1  0  0  0  0
 14 15  1  0  0  0  0
 14 18  2  0  0  0  0
 15 16  1  0  0  0  0
 16 17  2  0  0  0  0
 18 17  1  0  0  0  0
 19 20  1  0  0  0  0
 20 25  2  0  0  0  0
 20 21  1  0  0  0  0
 21 22  2  0  0  0  0
 22 23  1  0  0  0  0
 23 26  1  0  0  0  0
 24 23  2  0  0  0  0
 25 24  1  0  0  0  0
 26 27  1  0  0  0  0
M  END
>  <CHROM.1>
-156.83349970,86.90305960,108.82552080,140.41358761,130.54741669,31.63978538
39.29925691,19.77067105,0.82637123,0.45098679,-2.02768055

>  <Name>
lig.pdb

>  <RI>
0

>  <Rbt.Current_Directory>
/home/itssahil/PROJECTS/Mol_Feturizer/New_Systems/rnas/5kx9

>  <Rbt.Executable>
rbdock ($Id: //depot/dev/client3/rdock/2013.1/src/exe/rbdock.cxx#4 $)

>  <Rbt.Library>
libRbt.so (2013.1, Build901 2013/11/27)

>  <Rbt.Parameter_File>
/export/apps/rDock/src/rDock_2013.1_src/data/scripts/dock_solv.prm

>  <Rbt.Receptor>
prm/blind_docking_100.prm

>  <SCORE>
-30.8887

>  <SCORE.INTER>
-27.0884

>  <SCORE.INTER.CONST>
1

>  <SCORE.INTER.POLAR>
0

>  <SCORE.INTER.ROT>
5

>  <SCORE.INTER.SOLV>
14.5549

>  <SCORE.INTER.VDW>
-29.8439

>  <SCORE.INTER.norm>
-1.00328

>  <SCORE.INTRA>
-3.80204

>  <SCORE.INTRA.DIHEDRAL>
5.12448

>  <SCORE.INTRA.DIHEDRAL.0>
2.68224

>  <SCORE.INTRA.POLAR>
0

>  <SCORE.INTRA.POLAR.0>
0

>  <SCORE.INTRA.REPUL>
0

>  <SCORE.INTRA.REPUL.0>
0

>  <SCORE.INTRA.SOLV>
-0.564928

>  <SCORE.INTRA.SOLV.lig_0>
-19.4148

>  <SCORE.INTRA.VDW>
-6.08182

>  <SCORE.INTRA.VDW.0>
5.42093

>  <SCORE.INTRA.norm>
-0.140816

>  <SCORE.RESTR>
0.00174962

>  <SCORE.RESTR.CAVITY>
0.00174962

>  <SCORE.RESTR.norm>
6.48009e-05

>  <SCORE.SYSTEM>
0

>  <SCORE.SYSTEM.CONST>
0

>  <SCORE.SYSTEM.DIHEDRAL>
0

>  <SCORE.SYSTEM.SOLV>
0

>  <SCORE.SYSTEM.norm>
0

>  <SCORE.heavy>
27

>  <SCORE.norm>
-1.14403

>  <RMSD>
5.845

$$$$
lig.pdb
 OpenBabel11021811523D
libRbt.so/2013.1/901 2013/11/27
 27 30  0  0  0  0  0  0  0  0999 V2000
   28.3059   42.4733   23.2717 N   0  0  0  0  0  0  0  0  0  0  0  0
   28.4180   41.4313   22.4856 C   0  0  0  0  0  0  0  0  0  0  0  0
   28.0299   40.1716   22.8075 N   0  0  0  0  0  0  0  0  0  0  0  0
   27.4319   39.9605   24.0179 C   0  0  0  0  0  0  0  0  0  0  0  0
   27.2485   40.9953   24.8897 C   0  0  0  0  0  0  0  0  0  0  0  0
   27.7142   42.3117   24.5237 C   0  0  0  0  0  0  0  0  0  0  0  0
   27.6313   43.2867   25.2809 O   0  0  0  0  0  0  0  0  0  0  0  0
   29.1849   41.4773   21.1457 C   0  0  2  0  0  0  0  0  0  0  0  0
   28.0387   41.4934   20.1213 C   0  0  0  0  0  0  0  0  0  0  0  0
   28.5278   41.2891   18.7567 N   0  0  0  0  0  0  0  0  0  0  0  0
   29.1541   39.9604   18.6644 C   0  0  0  0  0  0  0  0  0  0  0  0
   30.3646   39.8712   19.5726 C   0  0  0  0  0  0  0  0  0  0  0  0
   29.9868   40.1710   21.0165 C   0  0  0  0  0  0  0  0  0  0  0  0
   27.0314   38.5727   24.2068 C   0  0  0  0  0  0  0  0  0  0  0  0
   27.3306   37.3752   23.0020 S   0  0  0  0  0  0  0  0  0  0  0  0
   26.5958   36.1797   23.9195 C   0  0  0  0  0  0  0  0  0  0  0  0
   26.1829   36.6425   25.1062 C   0  0  0  0  0  0  0  0  0  0  0  0
   26.4179   38.0195   25.2867 C   0  0  0  0  0  0  0  0  0  0  0  0
   27.4501   41.4182   17.7601 C   0  0  0  0  0  0  0  0  0  0  0  0
   26.6372   40.1679   17.5086 C   0  0  0  0  0  0  0  0  0  0  0  0
   25.9755   39.5234   18.5437 C   0  0  0  0  0  0  0  0  0  0  0  0
   25.5410   38.2512   18.4905 N   0  0  0  0  0  0  0  0  0  0  0  0
   25.8314   37.6247   17.3602 C   0  0  0  0  0  0  0  0  0  0  0  0
   26.4862   38.0885   16.3077 N   0  0  0  0  0  0  0  0  0  0  0  0
   26.8993   39.3594   16.4218 C   0  0  0  0  0  0  0  0  0  0  0  0
   25.4055   36.3572   17.3146 O   0  0  0  0  0  0  0  0  0  0  0  0
   25.6477   35.5368   18.4635 C   0  0  0  0  0  0  0  0  0  0  0  0
  1  2  2  0  0  0  0
  1  6  1  0  0  0  0
  2  3  1  0  0  0  0
  3  4  2  0  0  0  0
  4 14  1  0  0  0  0
  5  4  1  0  0  0  0
  6  5  1  0  0  0  0
  7  6  2  0  0  0  0
  8  9  1  0  0  0  0
  8  2  1  1  0  0  0
 10 19  1  0  0  0  0
 10  9  1  0  0  0  0
 11 10  1  0  0  0  0
 12 11  1  0  0  0  0
 12 13  1  0  0  0  0
 13  8  1  0  0  0  0
 14 15  1  0  0  0  0
 14 18  2  0  0  0  0
 15 16  1  0  0  0  0
 16 17  2  0  0  0  0
 18 17  1  0  0  0  0
 19 20  1  0  0  0  0
 20 25  2  0  0  0  0
 20 21  1  0  0  0  0
 21 22  2  0  0  0  0
 22 23  1  0  0  0  0
 23 26  1  0  0  0  0
 24 23  2  0  0  0  0
 25 24  1  0  0  0  0
 26 27  1  0  0  0  0
M  END
>  <CHROM.1>
0.80303183,-105.16196587,-85.11594415,57.01952191,-45.83610185,27.38625675
39.44715511,21.03005296,-1.24681841,-1.13455522,-1.54346484

>  <Name>
lig.pdb

>  <RI>
0

>  <Rbt.Current_Directory>
/home/itssahil/PROJECTS/Mol_Feturizer/New_Systems/rnas/5kx9

>  <Rbt.Executable>
rbdock ($Id: //depot/dev/client3/rdock/2013.1/src/exe/rbdock.cxx#4 $)

>  <Rbt.Library>
libRbt.so (2013.1, Build901 2013/11/27)

>  <Rbt.Parameter_File>
/export/apps/rDock/src/rDock_2013.1_src/data/scripts/dock_solv.prm

>  <Rbt.Receptor>
prm/pocket_docking_6.prm

>  <SCORE>
-28.7067

>  <SCORE.INTER>
-26.4617

>  <SCORE.INTER.CONST>
1

>  <SCORE.INTER.POLAR>
0

>  <SCORE.INTER.ROT>
5

>  <SCORE.INTER.SOLV>
13.3195

>  <SCORE.INTER.VDW>
-29.0143

>  <SCORE.INTER.norm>
-0.980062

>  <SCORE.INTRA>
-2.24502

>  <SCORE.INTRA.DIHEDRAL>
2.78375

>  <SCORE.INTRA.DIHEDRAL.0>
2.68224

>  <SCORE.INTRA.POLAR>
0

>  <SCORE.INTRA.POLAR.0>
0

>  <SCORE.INTRA.REPUL>
0

>  <SCORE.INTRA.REPUL.0>
0

>  <SCORE.INTRA.SOLV>
-0.214881

>  <SCORE.INTRA.SOLV.lig_0>
-19.4148

>  <SCORE.INTRA.VDW>
-3.52946

>  <SCORE.INTRA.VDW.0>
5.42093

>  <SCORE.INTRA.norm>
-0.0831489

>  <SCORE.RESTR>
0

>  <SCORE.RESTR.CAVITY>
0

>  <SCORE.RESTR.norm>
0

>  <SCORE.SYSTEM>
0

>  <SCORE.SYSTEM.CONST>
0

>  <SCORE.SYSTEM.DIHEDRAL>
0

>  <SCORE.SYSTEM.SOLV>
0

>  <SCORE.SYSTEM.norm>
0

>  <SCORE.heavy>
27

>  <SCORE.norm>
-1.06321

>  <RMSD>
5.854

$$$$
lig.pdb
 OpenBabel11021811523D
libRbt.so/2013.1/901 2013/11/27
 27 30  0  0  0  0  0  0  0  0999 V2000
   28.5923   41.2222   22.1994 N   0  0  0  0  0  0  0  0  0  0  0  0
   28.5128   40.3302   21.2433 C   0  0  0  0  0  0  0  0  0  0  0  0
   28.1198   39.0428   21.4144 N   0  0  0  0  0  0  0  0  0  0  0  0
   27.7281   38.6384   22.6594 C   0  0  0  0  0  0  0  0  0  0  0  0
   27.7519   39.5100   23.7102 C   0  0  0  0  0  0  0  0  0  0  0  0
   28.2166   40.8591   23.4921 C   0  0  0  0  0  0  0  0  0  0  0  0
   28.3163   41.6896   24.4038 O   0  0  0  0  0  0  0  0  0  0  0  0
   29.0397   40.5908   19.8150 C   0  0  2  0  0  0  0  0  0  0  0  0
   27.8738   40.0892   18.9474 C   0  0  0  0  0  0  0  0  0  0  0  0
   28.2451   40.0093   17.5335 N   0  0  0  0  0  0  0  0  0  0  0  0
   29.3348   39.0324   17.3772 C   0  0  0  0  0  0  0  0  0  0  0  0
   30.5751   39.4850   18.1222 C   0  0  0  0  0  0  0  0  0  0  0  0
   30.2759   39.7014   19.5991 C   0  0  0  0  0  0  0  0  0  0  0  0
   27.2934   37.2482   22.6824 C   0  0  0  0  0  0  0  0  0  0  0  0
   26.5618   36.5544   24.0819 S   0  0  0  0  0  0  0  0  0  0  0  0
   26.4123   35.0591   23.3386 C   0  0  0  0  0  0  0  0  0  0  0  0
   26.8474   35.0840   22.0724 C   0  0  0  0  0  0  0  0  0  0  0  0
   27.3654   36.3333   21.6792 C   0  0  0  0  0  0  0  0  0  0  0  0
   27.0998   39.6400   16.6832 C   0  0  0  0  0  0  0  0  0  0  0  0
   26.4953   38.2800   16.9526 C   0  0  0  0  0  0  0  0  0  0  0  0
   25.8309   38.0143   18.1412 C   0  0  0  0  0  0  0  0  0  0  0  0
   25.5830   36.7785   18.6117 N   0  0  0  0  0  0  0  0  0  0  0  0
   26.0659   35.8029   17.8571 C   0  0  0  0  0  0  0  0  0  0  0  0
   26.7501   35.8982   16.7282 N   0  0  0  0  0  0  0  0  0  0  0  0
   26.9710   37.1541   16.3129 C   0  0  0  0  0  0  0  0  0  0  0  0
   25.8251   34.5758   18.3328 O   0  0  0  0  0  0  0  0  0  0  0  0
   24.4563   34.1751   18.4656 C   0  0  0  0  0  0  0  0  0  0  0  0
  1  2  2  0  0  0  0
  1  6  1  0  0  0  0
  2  3  1  0  0  0  0
  3  4  2  0  0  0  0
  4 14  1  0  0  0  0
  5  4  1  0  0  0  0
  6  5  1  0  0  0  0
  7  6  2  0  0  0  0
  8  9  1  0  0  0  0
  8  2  1  1  0  0  0
 10 19  1  0  0  0  0
 10  9  1  0  0  0  0
 11 10  1  0  0  0  0
 12 11  1  0  0  0  0
 12 13  1  0  0  0  0
 13  8  1  0  0  0  0
 14 15  1  0  0  0  0
 14 18  2  0  0  0  0
 15 16  1  0  0  0  0
 16 17  2  0  0  0  0
 18 17  1  0  0  0  0
 19 20  1  0  0  0  0
 20 25  2  0  0  0  0
 20 21  1  0  0  0  0
 21 22  2  0  0  0  0
 22 23  1  0  0  0  0
 23 26  1  0  0  0  0
 24 23  2  0  0  0  0
 25 24  1  0  0  0  0
 26 27  1  0  0  0  0
M  END
>  <CHROM.1>
-172.04501382,-133.58588638,-62.47765904,67.30823463,61.77554993,27.44058059
38.09723534,20.26278032,-1.11736065,-1.05168696,-1.59837916

>  <Name>
lig.pdb

>  <RI>
0

>  <Rbt.Current_Directory>
/home/itssahil/PROJECTS/Mol_Feturizer/New_Systems/rnas/5kx9

>  <Rbt.Executable>
rbdock ($Id: //depot/dev/client3/rdock/2013.1/src/exe/rbdock.cxx#4 $)

>  <Rbt.Library>
libRbt.so (2013.1, Build901 2013/11/27)

>  <Rbt.Parameter_File>
/export/apps/rDock/src/rDock_2013.1_src/data/scripts/dock_solv.prm

>  <Rbt.Receptor>
prm/pocket_docking_5.prm

>  <SCORE>
-32.3323

>  <SCORE.INTER>
-28.5254

>  <SCORE.INTER.CONST>
1

>  <SCORE.INTER.POLAR>
0

>  <SCORE.INTER.ROT>
5

>  <SCORE.INTER.SOLV>
9.54005

>  <SCORE.INTER.VDW>
-29.1303

>  <SCORE.INTER.norm>
-1.0565

>  <SCORE.INTRA>
-3.80689

>  <SCORE.INTRA.DIHEDRAL>
3.21964

>  <SCORE.INTRA.DIHEDRAL.0>
2.68224

>  <SCORE.INTRA.POLAR>
0

>  <SCORE.INTRA.POLAR.0>
0

>  <SCORE.INTRA.REPUL>
0

>  <SCORE.INTRA.REPUL.0>
0

>  <SCORE.INTRA.SOLV>
0.0165099

>  <SCORE.INTRA.SOLV.lig_0>
-19.4148

>  <SCORE.INTRA.VDW>
-5.42497

>  <SCORE.INTRA.VDW.0>
5.42093

>  <SCORE.INTRA.norm>
-0.140996

>  <SCORE.RESTR>
0

>  <SCORE.RESTR.CAVITY>
0

>  <SCORE.RESTR.norm>
0

>  <SCORE.SYSTEM>
0

>  <SCORE.SYSTEM.CONST>
0

>  <SCORE.SYSTEM.DIHEDRAL>
0

>  <SCORE.SYSTEM.SOLV>
0

>  <SCORE.SYSTEM.norm>
0

>  <SCORE.heavy>
27

>  <SCORE.norm>
-1.19749

>  <RMSD>
5.866

$$$$
lig.pdb
 OpenBabel11021811523D
libRbt.so/2013.1/901 2013/11/27
 27 30  0  0  0  0  0  0  0  0999 V2000
   28.9104   41.5410   21.8820 N   0  0  0  0  0  0  0  0  0  0  0  0
   28.7761   40.5211   21.0707 C   0  0  0  0  0  0  0  0  0  0  0  0
   28.3254   39.2943   21.4353 N   0  0  0  0  0  0  0  0  0  0  0  0
   27.9320   39.0998   22.7293 C   0  0  0  0  0  0  0  0  0  0  0  0
   28.0110   40.1163   23.6376 C   0  0  0  0  0  0  0  0  0  0  0  0
   28.5356   41.3936   23.2168 C   0  0  0  0  0  0  0  0  0  0  0  0
   28.6866   42.3451   23.9932 O   0  0  0  0  0  0  0  0  0  0  0  0
   29.2952   40.5397   19.6162 C   0  0  2  0  0  0  0  0  0  0  0  0
   28.0342   40.1629   18.8216 C   0  0  0  0  0  0  0  0  0  0  0  0
   28.3422   39.8764   17.4193 N   0  0  0  0  0  0  0  0  0  0  0  0
   29.2428   38.7142   17.3527 C   0  0  0  0  0  0  0  0  0  0  0  0
   30.5648   39.0176   18.0296 C   0  0  0  0  0  0  0  0  0  0  0  0
   30.3533   39.4317   19.4793 C   0  0  0  0  0  0  0  0  0  0  0  0
   27.4328   37.7514   22.9630 C   0  0  0  0  0  0  0  0  0  0  0  0
   27.5012   36.5389   21.7381 S   0  0  0  0  0  0  0  0  0  0  0  0
   26.7620   35.4073   22.7300 C   0  0  0  0  0  0  0  0  0  0  0  0
   26.5146   35.8979   23.9511 C   0  0  0  0  0  0  0  0  0  0  0  0
   26.8866   37.2480   24.1018 C   0  0  0  0  0  0  0  0  0  0  0  0
   27.1246   39.6275   16.6277 C   0  0  0  0  0  0  0  0  0  0  0  0
   26.3916   38.3419   16.9398 C   0  0  0  0  0  0  0  0  0  0  0  0
   25.9568   38.0595   18.2266 C   0  0  0  0  0  0  0  0  0  0  0  0
   25.6290   36.8302   18.6639 N   0  0  0  0  0  0  0  0  0  0  0  0
   25.7917   35.8721   17.7639 C   0  0  0  0  0  0  0  0  0  0  0  0
   26.2324   35.9781   16.5205 N   0  0  0  0  0  0  0  0  0  0  0  0
   26.5487   37.2259   16.1440 C   0  0  0  0  0  0  0  0  0  0  0  0
   25.4732   34.6499   18.2052 O   0  0  0  0  0  0  0  0  0  0  0  0
   26.3527   34.0412   19.1580 C   0  0  0  0  0  0  0  0  0  0  0  0
  1  2  2  0  0  0  0
  1  6  1  0  0  0  0
  2  3  1  0  0  0  0
  3  4  2  0  0  0  0
  4 14  1  0  0  0  0
  5  4  1  0  0  0  0
  6  5  1  0  0  0  0
  7  6  2  0  0  0  0
  8  9  1  0  0  0  0
  8  2  1  1  0  0  0
 10 19  1  0  0  0  0
 10  9  1  0  0  0  0
 11 10  1  0  0  0  0
 12 11  1  0  0  0  0
 12 13  1  0  0  0  0
 13  8  1  0  0  0  0
 14 15  1  0  0  0  0
 14 18  2  0  0  0  0
 15 16  1  0  0  0  0
 16 17  2  0  0  0  0
 18 17  1  0  0  0  0
 19 20  1  0  0  0  0
 20 25  2  0  0  0  0
 20 21  1  0  0  0  0
 21 22  2  0  0  0  0
 22 23  1  0  0  0  0
 23 26  1  0  0  0  0
 24 23  2  0  0  0  0
 25 24  1  0  0  0  0
 26 27  1  0  0  0  0
M  END
>  <CHROM.1>
5.46524531,-125.88086836,-69.31844914,56.26741424,-71.49127577,27.61511806
38.25751287,20.14229665,-0.91781458,-1.08699777,-1.56228433

>  <Name>
lig.pdb

>  <RI>
0

>  <Rbt.Current_Directory>
/home/itssahil/PROJECTS/Mol_Feturizer/New_Systems/rnas/5kx9

>  <Rbt.Executable>
rbdock ($Id: //depot/dev/client3/rdock/2013.1/src/exe/rbdock.cxx#4 $)

>  <Rbt.Library>
libRbt.so (2013.1, Build901 2013/11/27)

>  <Rbt.Parameter_File>
/export/apps/rDock/src/rDock_2013.1_src/data/scripts/dock_solv.prm

>  <Rbt.Receptor>
prm/pocket_docking_4.prm

>  <SCORE>
-32.3611

>  <SCORE.INTER>
-28.0736

>  <SCORE.INTER.CONST>
1

>  <SCORE.INTER.POLAR>
0

>  <SCORE.INTER.ROT>
5

>  <SCORE.INTER.SOLV>
9.75359

>  <SCORE.INTER.VDW>
-28.9003

>  <SCORE.INTER.norm>
-1.03976

>  <SCORE.INTRA>
-4.28743

>  <SCORE.INTRA.DIHEDRAL>
3.75448

>  <SCORE.INTRA.DIHEDRAL.0>
2.68224

>  <SCORE.INTRA.POLAR>
0

>  <SCORE.INTRA.POLAR.0>
0

>  <SCORE.INTRA.REPUL>
0

>  <SCORE.INTRA.REPUL.0>
0

>  <SCORE.INTRA.SOLV>
0.143046

>  <SCORE.INTRA.SOLV.lig_0>
-19.4148

>  <SCORE.INTRA.VDW>
-6.23619

>  <SCORE.INTRA.VDW.0>
5.42093

>  <SCORE.INTRA.norm>
-0.158794

>  <SCORE.RESTR>
0

>  <SCORE.RESTR.CAVITY>
0

>  <SCORE.RESTR.norm>
0

>  <SCORE.SYSTEM>
0

>  <SCORE.SYSTEM.CONST>
0

>  <SCORE.SYSTEM.DIHEDRAL>
0

>  <SCORE.SYSTEM.SOLV>
0

>  <SCORE.SYSTEM.norm>
0

>  <SCORE.heavy>
27

>  <SCORE.norm>
-1.19856

>  <RMSD>
5.875

$$$$
lig.pdb
 OpenBabel11021811523D
libRbt.so/2013.1/901 2013/11/27
 27 30  0  0  0  0  0  0  0  0999 V2000
   28.9196   42.3550   23.2733 N   0  0  0  0  0  0  0  0  0  0  0  0
   28.7169   41.3479   22.4604 C   0  0  0  0  0  0  0  0  0  0  0  0
   28.2117   40.1436   22.8284 N   0  0  0  0  0  0  0  0  0  0  0  0
   27.8353   39.9621   24.1294 C   0  0  0  0  0  0  0  0  0  0  0  0
   27.9844   40.9681   25.0405 C   0  0  0  0  0  0  0  0  0  0  0  0
   28.5649   42.2194   24.6149 C   0  0  0  0  0  0  0  0  0  0  0  0
   28.7799   43.1576   25.3923 O   0  0  0  0  0  0  0  0  0  0  0  0
   29.2067   41.3482   20.9955 C   0  0  2  0  0  0  0  0  0  0  0  0
   27.9150   41.0271   20.2262 C   0  0  0  0  0  0  0  0  0  0  0  0
   28.1820   40.7315   18.8174 N   0  0  0  0  0  0  0  0  0  0  0  0
   29.0310   39.5324   18.7305 C   0  0  0  0  0  0  0  0  0  0  0  0
   30.3782   39.7778   19.3808 C   0  0  0  0  0  0  0  0  0  0  0  0
   30.2139   40.1968   20.8352 C   0  0  0  0  0  0  0  0  0  0  0  0
   27.2728   38.6395   24.3671 C   0  0  0  0  0  0  0  0  0  0  0  0
   27.4191   37.3743   23.2040 S   0  0  0  0  0  0  0  0  0  0  0  0
   26.5522   36.3075   24.1638 C   0  0  0  0  0  0  0  0  0  0  0  0
   26.2049   36.8567   25.3346 C   0  0  0  0  0  0  0  0  0  0  0  0
   26.6041   38.2010   25.4667 C   0  0  0  0  0  0  0  0  0  0  0  0
   26.9391   40.5363   18.0504 C   0  0  0  0  0  0  0  0  0  0  0  0
   26.1855   41.7976   17.6919 C   0  0  0  0  0  0  0  0  0  0  0  0
   24.9130   42.0376   18.1896 C   0  0  0  0  0  0  0  0  0  0  0  0
   24.0467   42.9220   17.6629 N   0  0  0  0  0  0  0  0  0  0  0  0
   24.4925   43.5396   16.5793 C   0  0  0  0  0  0  0  0  0  0  0  0
   25.6560   43.3889   15.9668 N   0  0  0  0  0  0  0  0  0  0  0  0
   26.4741   42.4902   16.5342 C   0  0  0  0  0  0  0  0  0  0  0  0
   23.6249   44.4118   16.0532 O   0  0  0  0  0  0  0  0  0  0  0  0
   23.5881   44.5283   14.6261 C   0  0  0  0  0  0  0  0  0  0  0  0
  1  2  2  0  0  0  0
  1  6  1  0  0  0  0
  2  3  1  0  0  0  0
  3  4  2  0  0  0  0
  4 14  1  0  0  0  0
  5  4  1  0  0  0  0
  6  5  1  0  0  0  0
  7  6  2  0  0  0  0
  8  9  1  0  0  0  0
  8  2  1  1  0  0  0
 10 19  1  0  0  0  0
 10  9  1  0  0  0  0
 11 10  1  0  0  0  0
 12 11  1  0  0  0  0
 12 13  1  0  0  0  0
 13  8  1  0  0  0  0
 14 15  1  0  0  0  0
 14 18  2  0  0  0  0
 15 16  1  0  0  0  0
 16 17  2  0  0  0  0
 18 17  1  0  0  0  0
 19 20  1  0  0  0  0
 20 25  2  0  0  0  0
 20 21  1  0  0  0  0
 21 22  2  0  0  0  0
 22 23  1  0  0  0  0
 23 26  1  0  0  0  0
 24 23  2  0  0  0  0
 25 24  1  0  0  0  0
 26 27  1  0  0  0  0
M  END
>  <CHROM.1>
12.77851188,-126.40443328,76.64008915,-116.16276447,-144.11525309,27.18199251
40.83836338,20.81830911,-0.95456648,-1.02689851,-0.54496908

>  <Name>
lig.pdb

>  <RI>
0

>  <Rbt.Current_Directory>
/home/itssahil/PROJECTS/Mol_Feturizer/New_Systems/rnas/5kx9

>  <Rbt.Executable>
rbdock ($Id: //depot/dev/client3/rdock/2013.1/src/exe/rbdock.cxx#4 $)

>  <Rbt.Library>
libRbt.so (2013.1, Build901 2013/11/27)

>  <Rbt.Parameter_File>
/export/apps/rDock/src/rDock_2013.1_src/data/scripts/dock_solv.prm

>  <Rbt.Receptor>
prm/blind_docking_80.prm

>  <SCORE>
-34.2382

>  <SCORE.INTER>
-29.4818

>  <SCORE.INTER.CONST>
1

>  <SCORE.INTER.POLAR>
0

>  <SCORE.INTER.ROT>
5

>  <SCORE.INTER.SOLV>
14.0888

>  <SCORE.INTER.VDW>
-31.2841

>  <SCORE.INTER.norm>
-1.09192

>  <SCORE.INTRA>
-4.75645

>  <SCORE.INTRA.DIHEDRAL>
1.30697

>  <SCORE.INTRA.DIHEDRAL.0>
2.68224

>  <SCORE.INTRA.POLAR>
0

>  <SCORE.INTRA.POLAR.0>
0

>  <SCORE.INTRA.REPUL>
0

>  <SCORE.INTRA.REPUL.0>
0

>  <SCORE.INTRA.SOLV>
-0.583889

>  <SCORE.INTRA.SOLV.lig_0>
-19.4148

>  <SCORE.INTRA.VDW>
-5.11799

>  <SCORE.INTRA.VDW.0>
5.42093

>  <SCORE.INTRA.norm>
-0.176165

>  <SCORE.RESTR>
0

>  <SCORE.RESTR.CAVITY>
0

>  <SCORE.RESTR.norm>
0

>  <SCORE.SYSTEM>
0

>  <SCORE.SYSTEM.CONST>
0

>  <SCORE.SYSTEM.DIHEDRAL>
0

>  <SCORE.SYSTEM.SOLV>
0

>  <SCORE.SYSTEM.norm>
0

>  <SCORE.heavy>
27

>  <SCORE.norm>
-1.26808

>  <RMSD>
5.883

$$$$
lig.pdb
 OpenBabel11021811523D
libRbt.so/2013.1/901 2013/11/27
 27 30  0  0  0  0  0  0  0  0999 V2000
   28.4186   42.5365   22.9437 N   0  0  0  0  0  0  0  0  0  0  0  0
   28.3814   41.4261   22.2496 C   0  0  0  0  0  0  0  0  0  0  0  0
   27.9580   40.2280   22.7253 N   0  0  0  0  0  0  0  0  0  0  0  0
   27.4865   40.1623   24.0061 C   0  0  0  0  0  0  0  0  0  0  0  0
   27.4620   41.2777   24.7933 C   0  0  0  0  0  0  0  0  0  0  0  0
   27.9608   42.5232   24.2606 C   0  0  0  0  0  0  0  0  0  0  0  0
   28.0198   43.5626   24.9291 O   0  0  0  0  0  0  0  0  0  0  0  0
   28.9965   41.3050   20.8380 C   0  0  2  0  0  0  0  0  0  0  0  0
   27.8273   40.7208   20.0286 C   0  0  0  0  0  0  0  0  0  0  0  0
   28.2530   40.2865   18.6969 N   0  0  0  0  0  0  0  0  0  0  0  0
   29.2458   39.2090   18.8372 C   0  0  0  0  0  0  0  0  0  0  0  0
   30.4897   39.7111   19.5435 C   0  0  0  0  0  0  0  0  0  0  0  0
   30.1464   40.2860   20.9107 C   0  0  0  0  0  0  0  0  0  0  0  0
   27.0284   38.8263   24.3632 C   0  0  0  0  0  0  0  0  0  0  0  0
   27.2259   37.4885   23.2925 S   0  0  0  0  0  0  0  0  0  0  0  0
   26.4703   36.4415   24.3620 C   0  0  0  0  0  0  0  0  0  0  0  0
   26.1241   37.0538   25.5014 C   0  0  0  0  0  0  0  0  0  0  0  0
   26.4302   38.4286   25.5176 C   0  0  0  0  0  0  0  0  0  0  0  0
   27.1166   39.8327   17.8760 C   0  0  0  0  0  0  0  0  0  0  0  0
   26.4291   40.9041   17.0594 C   0  0  0  0  0  0  0  0  0  0  0  0
   27.0228   41.4280   15.9203 C   0  0  0  0  0  0  0  0  0  0  0  0
   26.6717   42.5948   15.3501 N   0  0  0  0  0  0  0  0  0  0  0  0
   25.7158   43.2480   15.9936 C   0  0  0  0  0  0  0  0  0  0  0  0
   25.0865   42.9001   17.1047 N   0  0  0  0  0  0  0  0  0  0  0  0
   25.4834   41.7314   17.6293 C   0  0  0  0  0  0  0  0  0  0  0  0
   25.3756   44.4121   15.4286 O   0  0  0  0  0  0  0  0  0  0  0  0
   24.0464   44.5307   14.9081 C   0  0  0  0  0  0  0  0  0  0  0  0
  1  2  2  0  0  0  0
  1  6  1  0  0  0  0
  2  3  1  0  0  0  0
  3  4  2  0  0  0  0
  4 14  1  0  0  0  0
  5  4  1  0  0  0  0
  6  5  1  0  0  0  0
  7  6  2  0  0  0  0
  8  9  1  0  0  0  0
  8  2  1  1  0  0  0
 10 19  1  0  0  0  0
 10  9  1  0  0  0  0
 11 10  1  0  0  0  0
 12 11  1  0  0  0  0
 12 13  1  0  0  0  0
 13  8  1  0  0  0  0
 14 15  1  0  0  0  0
 14 18  2  0  0  0  0
 15 16  1  0  0  0  0
 16 17  2  0  0  0  0
 18 17  1  0  0  0  0
 19 20  1  0  0  0  0
 20 25  2  0  0  0  0
 20 21  1  0  0  0  0
 21 22  2  0  0  0  0
 22 23  1  0  0  0  0
 23 26  1  0  0  0  0
 24 23  2  0  0  0  0
 25 24  1  0  0  0  0
 26 27  1  0  0  0  0
M  END
>  <CHROM.1>
5.31717993,-128.29522185,89.09613873,74.01505485,115.27671524,27.28624364
40.74995975,20.62730208,0.37517303,-1.39920229,0.79914472

>  <Name>
lig.pdb

>  <RI>
0

>  <Rbt.Current_Directory>
/home/itssahil/PROJECTS/Mol_Feturizer/New_Systems/rnas/5kx9

>  <Rbt.Executable>
rbdock ($Id: //depot/dev/client3/rdock/2013.1/src/exe/rbdock.cxx#4 $)

>  <Rbt.Library>
libRbt.so (2013.1, Build901 2013/11/27)

>  <Rbt.Parameter_File>
/export/apps/rDock/src/rDock_2013.1_src/data/scripts/dock_solv.prm

>  <Rbt.Receptor>
prm/blind_docking_80.prm

>  <SCORE>
-33.7223

>  <SCORE.INTER>
-29.4382

>  <SCORE.INTER.CONST>
1

>  <SCORE.INTER.POLAR>
0

>  <SCORE.INTER.ROT>
5

>  <SCORE.INTER.SOLV>
15.5767

>  <SCORE.INTER.VDW>
-31.751

>  <SCORE.INTER.norm>
-1.0903

>  <SCORE.INTRA>
-4.28411

>  <SCORE.INTRA.DIHEDRAL>
4.65415

>  <SCORE.INTRA.DIHEDRAL.0>
2.68224

>  <SCORE.INTRA.POLAR>
0

>  <SCORE.INTRA.POLAR.0>
0

>  <SCORE.INTRA.REPUL>
0

>  <SCORE.INTRA.REPUL.0>
0

>  <SCORE.INTRA.SOLV>
-0.509861

>  <SCORE.INTRA.SOLV.lig_0>
-19.4148

>  <SCORE.INTRA.VDW>
-6.35626

>  <SCORE.INTRA.VDW.0>
5.42093

>  <SCORE.INTRA.norm>
-0.158671

>  <SCORE.RESTR>
0

>  <SCORE.RESTR.CAVITY>
0

>  <SCORE.RESTR.norm>
0

>  <SCORE.SYSTEM>
0

>  <SCORE.SYSTEM.CONST>
0

>  <SCORE.SYSTEM.DIHEDRAL>
0

>  <SCORE.SYSTEM.SOLV>
0

>  <SCORE.SYSTEM.norm>
0

>  <SCORE.heavy>
27

>  <SCORE.norm>
-1.24897

>  <RMSD>
5.896

$$$$
lig.pdb
 OpenBabel11021811523D
libRbt.so/2013.1/901 2013/11/27
 27 30  0  0  0  0  0  0  0  0999 V2000
   29.8674   36.5825   18.3927 N   0  0  0  0  0  0  0  0  0  0  0  0
   28.6326   37.0115   18.3063 C   0  0  0  0  0  0  0  0  0  0  0  0
   28.2622   38.2093   17.7876 N   0  0  0  0  0  0  0  0  0  0  0  0
   29.2282   39.0240   17.2679 C   0  0  0  0  0  0  0  0  0  0  0  0
   30.5397   38.6447   17.2898 C   0  0  0  0  0  0  0  0  0  0  0  0
   30.8941   37.3800   17.8888 C   0  0  0  0  0  0  0  0  0  0  0  0
   32.0643   36.9921   17.9931 O   0  0  0  0  0  0  0  0  0  0  0  0
   27.4458   36.2712   18.9614 C   0  0  2  0  0  0  0  0  0  0  0  0
   27.8318   36.3014   20.4492 C   0  0  0  0  0  0  0  0  0  0  0  0
   26.9659   35.4359   21.2519 N   0  0  0  0  0  0  0  0  0  0  0  0
   27.1299   34.0435   20.8043 C   0  0  0  0  0  0  0  0  0  0  0  0
   26.6815   33.8839   19.3649 C   0  0  0  0  0  0  0  0  0  0  0  0
   27.4521   34.8219   18.4462 C   0  0  0  0  0  0  0  0  0  0  0  0
   28.6795   40.2527   16.7097 C   0  0  0  0  0  0  0  0  0  0  0  0
   26.9788   40.4883   16.5451 S   0  0  0  0  0  0  0  0  0  0  0  0
   27.1925   42.0020   15.8567 C   0  0  0  0  0  0  0  0  0  0  0  0
   28.4853   42.3453   15.7943 C   0  0  0  0  0  0  0  0  0  0  0  0
   29.3568   41.3479   16.2735 C   0  0  0  0  0  0  0  0  0  0  0  0
   27.2566   35.5490   22.6920 C   0  0  0  0  0  0  0  0  0  0  0  0
   26.9441   36.8888   23.3203 C   0  0  0  0  0  0  0  0  0  0  0  0
   27.5773   38.0462   22.8913 C   0  0  0  0  0  0  0  0  0  0  0  0
   27.6347   39.1873   23.6015 N   0  0  0  0  0  0  0  0  0  0  0  0
   27.0598   39.1154   24.7927 C   0  0  0  0  0  0  0  0  0  0  0  0
   26.4569   38.0793   25.3535 N   0  0  0  0  0  0  0  0  0  0  0  0
   26.4366   36.9696   24.6007 C   0  0  0  0  0  0  0  0  0  0  0  0
   27.1267   40.2493   25.4996 O   0  0  0  0  0  0  0  0  0  0  0  0
   26.5289   41.4197   24.9299 C   0  0  0  0  0  0  0  0  0  0  0  0
  1  2  2  0  0  0  0
  1  6  1  0  0  0  0
  2  3  1  0  0  0  0
  3  4  2  0  0  0  0
  4 14  1  0  0  0  0
  5  4  1  0  0  0  0
  6  5  1  0  0  0  0
  7  6  2  0  0  0  0
  8  9  1  0  0  0  0
  8  2  1  6  0  0  0
 10 19  1  0  0  0  0
 10  9  1  0  0  0  0
 11 10  1  0  0  0  0
 12 11  1  0  0  0  0
 12 13  1  0  0  0  0
 13  8  1  0  0  0  0
 14 15  1  0  0  0  0
 14 18  2  0  0  0  0
 15 16  1  0  0  0  0
 16 17  2  0  0  0  0
 18 17  1  0  0  0  0
 19 20  1  0  0  0  0
 20 25  2  0  0  0  0
 20 21  1  0  0  0  0
 21 22  2  0  0  0  0
 22 23  1  0  0  0  0
 23 26  1  0  0  0  0
 24 23  2  0  0  0  0
 25 24  1  0  0  0  0
 26 27  1  0  0  0  0
M  END
>  <CHROM.1>
-8.24254514,60.44302359,66.32596331,-61.19744141,59.69335891,27.97642170
38.11996563,20.00402473,-0.49312827,-1.28979298,2.86482067

>  <Name>
lig.pdb

>  <RI>
0

>  <Rbt.Current_Directory>
/home/itssahil/PROJECTS/Mol_Feturizer/New_Systems/rnas/5kx9

>  <Rbt.Executable>
rbdock ($Id: //depot/dev/client3/rdock/2013.1/src/exe/rbdock.cxx#4 $)

>  <Rbt.Library>
libRbt.so (2013.1, Build901 2013/11/27)

>  <Rbt.Parameter_File>
/export/apps/rDock/src/rDock_2013.1_src/data/scripts/dock_solv.prm

>  <Rbt.Receptor>
prm/pocket_docking_5.prm

>  <SCORE>
-33.4049

>  <SCORE.INTER>
-29.1596

>  <SCORE.INTER.CONST>
1

>  <SCORE.INTER.POLAR>
0

>  <SCORE.INTER.ROT>
5

>  <SCORE.INTER.SOLV>
15.3432

>  <SCORE.INTER.VDW>
-31.4875

>  <SCORE.INTER.norm>
-1.07999

>  <SCORE.INTRA>
-4.24528

>  <SCORE.INTRA.DIHEDRAL>
3.21948

>  <SCORE.INTRA.DIHEDRAL.0>
2.68224

>  <SCORE.INTRA.POLAR>
0

>  <SCORE.INTRA.POLAR.0>
0

>  <SCORE.INTRA.REPUL>
0

>  <SCORE.INTRA.REPUL.0>
0

>  <SCORE.INTRA.SOLV>
-0.540736

>  <SCORE.INTRA.SOLV.lig_0>
-19.4148

>  <SCORE.INTRA.VDW>
-5.58466

>  <SCORE.INTRA.VDW.0>
5.42093

>  <SCORE.INTRA.norm>
-0.157233

>  <SCORE.RESTR>
0

>  <SCORE.RESTR.CAVITY>
0

>  <SCORE.RESTR.norm>
0

>  <SCORE.SYSTEM>
0

>  <SCORE.SYSTEM.CONST>
0

>  <SCORE.SYSTEM.DIHEDRAL>
0

>  <SCORE.SYSTEM.SOLV>
0

>  <SCORE.SYSTEM.norm>
0

>  <SCORE.heavy>
27

>  <SCORE.norm>
-1.23722

>  <RMSD>
5.905

$$$$
lig.pdb
 OpenBabel11021811523D
libRbt.so/2013.1/901 2013/11/27
 27 30  0  0  0  0  0  0  0  0999 V2000
   28.5336   39.7360   21.1358 N   0  0  0  0  0  0  0  0  0  0  0  0
   27.8540   38.7952   21.7436 C   0  0  0  0  0  0  0  0  0  0  0  0
   27.6803   37.5353   21.2709 N   0  0  0  0  0  0  0  0  0  0  0  0
   28.2903   37.1863   20.0991 C   0  0  0  0  0  0  0  0  0  0  0  0
   29.0421   38.0957   19.4119 C   0  0  0  0  0  0  0  0  0  0  0  0
   29.1663   39.4374   19.9298 C   0  0  0  0  0  0  0  0  0  0  0  0
   29.7860   40.3299   19.3379 O   0  0  0  0  0  0  0  0  0  0  0  0
   27.0022   39.0645   23.0035 C   0  0  2  0  0  0  0  0  0  0  0  0
   26.9779   40.6010   23.0510 C   0  0  0  0  0  0  0  0  0  0  0  0
   26.4251   41.0960   24.3129 N   0  0  0  0  0  0  0  0  0  0  0  0
   27.2877   40.6558   25.4212 C   0  0  0  0  0  0  0  0  0  0  0  0
   27.3040   39.1433   25.5232 C   0  0  0  0  0  0  0  0  0  0  0  0
   27.7690   38.5133   24.2176 C   0  0  0  0  0  0  0  0  0  0  0  0
   28.0508   35.7952   19.7392 C   0  0  0  0  0  0  0  0  0  0  0  0
   27.2725   34.7035   20.8244 S   0  0  0  0  0  0  0  0  0  0  0  0
   27.4123   33.4306   19.7422 C   0  0  0  0  0  0  0  0  0  0  0  0
   27.9760   33.8134   18.5895 C   0  0  0  0  0  0  0  0  0  0  0  0
   28.3574   35.1692   18.5719 C   0  0  0  0  0  0  0  0  0  0  0  0
   26.2927   42.5636   24.3182 C   0  0  0  0  0  0  0  0  0  0  0  0
   25.1636   43.1165   25.1590 C   0  0  0  0  0  0  0  0  0  0  0  0
   25.3086   43.2907   26.5277 C   0  0  0  0  0  0  0  0  0  0  0  0
   24.2832   43.4290   27.3876 N   0  0  0  0  0  0  0  0  0  0  0  0
   23.0871   43.3467   26.8245 C   0  0  0  0  0  0  0  0  0  0  0  0
   22.7899   43.1439   25.5509 N   0  0  0  0  0  0  0  0  0  0  0  0
   23.8524   43.0077   24.7439 C   0  0  0  0  0  0  0  0  0  0  0  0
   22.0700   43.4758   27.6841 O   0  0  0  0  0  0  0  0  0  0  0  0
   20.8037   43.8836   27.1533 C   0  0  0  0  0  0  0  0  0  0  0  0
  1  2  2  0  0  0  0
  1  6  1  0  0  0  0
  2  3  1  0  0  0  0
  3  4  2  0  0  0  0
  4 14  1  0  0  0  0
  5  4  1  0  0  0  0
  6  5  1  0  0  0  0
  7  6  2  0  0  0  0
  8  9  1  0  0  0  0
  8  2  1  6  0  0  0
 10 19  1  0  0  0  0
 10  9  1  0  0  0  0
 11 10  1  0  0  0  0
 12 11  1  0  0  0  0
 12 13  1  0  0  0  0
 13  8  1  0  0  0  0
 14 15  1  0  0  0  0
 14 18  2  0  0  0  0
 15 16  1  0  0  0  0
 16 17  2  0  0  0  0
 18 17  1  0  0  0  0
 19 20  1  0  0  0  0
 20 25  2  0  0  0  0
 20 21  1  0  0  0  0
 21 22  2  0  0  0  0
 22 23  1  0  0  0  0
 23 26  1  0  0  0  0
 24 23  2  0  0  0  0
 25 24  1  0  0  0  0
 26 27  1  0  0  0  0
M  END
>  <CHROM.1>
-8.22096499,11.39018823,149.83965938,82.21966795,157.80463810,26.51187352
39.54530552,22.96527769,-0.99562445,0.66961941,0.35897690

>  <Name>
lig.pdb

>  <RI>
0

>  <Rbt.Current_Directory>
/home/itssahil/PROJECTS/Mol_Feturizer/New_Systems/rnas/5kx9

>  <Rbt.Executable>
rbdock ($Id: //depot/dev/client3/rdock/2013.1/src/exe/rbdock.cxx#4 $)

>  <Rbt.Library>
libRbt.so (2013.1, Build901 2013/11/27)

>  <Rbt.Parameter_File>
/export/apps/rDock/src/rDock_2013.1_src/data/scripts/dock_solv.prm

>  <Rbt.Receptor>
prm/blind_docking_60.prm

>  <SCORE>
-24.6251

>  <SCORE.INTER>
-21.4423

>  <SCORE.INTER.CONST>
1

>  <SCORE.INTER.POLAR>
0

>  <SCORE.INTER.ROT>
5

>  <SCORE.INTER.SOLV>
13.3572

>  <SCORE.INTER.VDW>
-25.6806

>  <SCORE.INTER.norm>
-0.79416

>  <SCORE.INTRA>
-3.1828

>  <SCORE.INTRA.DIHEDRAL>
1.78863

>  <SCORE.INTRA.DIHEDRAL.0>
2.68224

>  <SCORE.INTRA.POLAR>
0

>  <SCORE.INTRA.POLAR.0>
0

>  <SCORE.INTRA.REPUL>
0

>  <SCORE.INTRA.REPUL.0>
0

>  <SCORE.INTRA.SOLV>
-0.52225

>  <SCORE.INTRA.SOLV.lig_0>
-19.4148

>  <SCORE.INTRA.VDW>
-3.81599

>  <SCORE.INTRA.VDW.0>
5.42093

>  <SCORE.INTRA.norm>
-0.117881

>  <SCORE.RESTR>
0

>  <SCORE.RESTR.CAVITY>
0

>  <SCORE.RESTR.norm>
0

>  <SCORE.SYSTEM>
0

>  <SCORE.SYSTEM.CONST>
0

>  <SCORE.SYSTEM.DIHEDRAL>
0

>  <SCORE.SYSTEM.SOLV>
0

>  <SCORE.SYSTEM.norm>
0

>  <SCORE.heavy>
27

>  <SCORE.norm>
-0.912041

>  <RMSD>
5.907

$$$$
lig.pdb
 OpenBabel11021811523D
libRbt.so/2013.1/901 2013/11/27
 27 30  0  0  0  0  0  0  0  0999 V2000
   29.9708   36.4937   18.4059 N   0  0  0  0  0  0  0  0  0  0  0  0
   28.7447   36.9441   18.3057 C   0  0  0  0  0  0  0  0  0  0  0  0
   28.4015   38.1505   17.7882 N   0  0  0  0  0  0  0  0  0  0  0  0
   29.3880   38.9511   17.2850 C   0  0  0  0  0  0  0  0  0  0  0  0
   30.6924   38.5493   17.3221 C   0  0  0  0  0  0  0  0  0  0  0  0
   31.0174   37.2760   17.9193 C   0  0  0  0  0  0  0  0  0  0  0  0
   32.1794   36.8676   18.0368 O   0  0  0  0  0  0  0  0  0  0  0  0
   27.5371   36.2210   18.9416 C   0  0  2  0  0  0  0  0  0  0  0  0
   27.9017   36.2421   20.4350 C   0  0  0  0  0  0  0  0  0  0  0  0
   27.0107   35.3886   21.2230 N   0  0  0  0  0  0  0  0  0  0  0  0
   27.1595   33.9947   20.7745 C   0  0  0  0  0  0  0  0  0  0  0  0
   26.7298   33.8452   19.3284 C   0  0  0  0  0  0  0  0  0  0  0  0
   27.5283   34.7729   18.4232 C   0  0  0  0  0  0  0  0  0  0  0  0
   28.8676   40.1916   16.7260 C   0  0  0  0  0  0  0  0  0  0  0  0
   29.9147   41.3941   16.0681 S   0  0  0  0  0  0  0  0  0  0  0  0
   28.6277   42.4070   15.7095 C   0  0  0  0  0  0  0  0  0  0  0  0
   27.4507   41.8510   16.0234 C   0  0  0  0  0  0  0  0  0  0  0  0
   27.5689   40.5791   16.6168 C   0  0  0  0  0  0  0  0  0  0  0  0
   27.2821   35.4941   22.6675 C   0  0  0  0  0  0  0  0  0  0  0  0
   26.9703   36.8336   23.2966 C   0  0  0  0  0  0  0  0  0  0  0  0
   27.6232   37.9869   22.8865 C   0  0  0  0  0  0  0  0  0  0  0  0
   27.6776   39.1237   23.6039 N   0  0  0  0  0  0  0  0  0  0  0  0
   27.0783   39.0513   24.7829 C   0  0  0  0  0  0  0  0  0  0  0  0
   26.4541   38.0183   25.3261 N   0  0  0  0  0  0  0  0  0  0  0  0
   26.4380   36.9128   24.5669 C   0  0  0  0  0  0  0  0  0  0  0  0
   27.1421   40.1808   25.4972 O   0  0  0  0  0  0  0  0  0  0  0  0
   26.5216   41.3478   24.9453 C   0  0  0  0  0  0  0  0  0  0  0  0
  1  2  2  0  0  0  0
  1  6  1  0  0  0  0
  2  3  1  0  0  0  0
  3  4  2  0  0  0  0
  4 14  1  0  0  0  0
  5  4  1  0  0  0  0
  6  5  1  0  0  0  0
  7  6  2  0  0  0  0
  8  9  1  0  0  0  0
  8  2  1  6  0  0  0
 10 19  1  0  0  0  0
 10  9  1  0  0  0  0
 11 10  1  0  0  0  0
 12 11  1  0  0  0  0
 12 13  1  0  0  0  0
 13  8  1  0  0  0  0
 14 15  1  0  0  0  0
 14 18  2  0  0  0  0
 15 16  1  0  0  0  0
 16 17  2  0  0  0  0
 18 17  1  0  0  0  0
 19 20  1  0  0  0  0
 20 25  2  0  0  0  0
 20 21  1  0  0  0  0
 21 22  2  0  0  0  0
 22 23  1  0  0  0  0
 23 26  1  0  0  0  0
 24 23  2  0  0  0  0
 25 24  1  0  0  0  0
 26 27  1  0  0  0  0
M  END
>  <CHROM.1>
178.22220033,60.63811035,66.82871437,-61.58755636,62.06982769,28.23099871
38.11241541,19.97490343,-0.24011848,-1.24292686,-3.11155300

>  <Name>
lig.pdb

>  <RI>
0

>  <Rbt.Current_Directory>
/home/itssahil/PROJECTS/Mol_Feturizer/New_Systems/rnas/5kx9

>  <Rbt.Executable>
rbdock ($Id: //depot/dev/client3/rdock/2013.1/src/exe/rbdock.cxx#4 $)

>  <Rbt.Library>
libRbt.so (2013.1, Build901 2013/11/27)

>  <Rbt.Parameter_File>
/export/apps/rDock/src/rDock_2013.1_src/data/scripts/dock_solv.prm

>  <Rbt.Receptor>
prm/blind_docking_80.prm

>  <SCORE>
-33.8022

>  <SCORE.INTER>
-29.4149

>  <SCORE.INTER.CONST>
1

>  <SCORE.INTER.POLAR>
0

>  <SCORE.INTER.ROT>
5

>  <SCORE.INTER.SOLV>
15.8538

>  <SCORE.INTER.VDW>
-31.8278

>  <SCORE.INTER.norm>
-1.08944

>  <SCORE.INTRA>
-4.38732

>  <SCORE.INTRA.DIHEDRAL>
3.12651

>  <SCORE.INTRA.DIHEDRAL.0>
2.68224

>  <SCORE.INTRA.POLAR>
0

>  <SCORE.INTRA.POLAR.0>
0

>  <SCORE.INTRA.REPUL>
0

>  <SCORE.INTRA.REPUL.0>
0

>  <SCORE.INTRA.SOLV>
-0.578447

>  <SCORE.INTRA.SOLV.lig_0>
-19.4148

>  <SCORE.INTRA.VDW>
-5.66136

>  <SCORE.INTRA.VDW.0>
5.42093

>  <SCORE.INTRA.norm>
-0.162493

>  <SCORE.RESTR>
0

>  <SCORE.RESTR.CAVITY>
0

>  <SCORE.RESTR.norm>
0

>  <SCORE.SYSTEM>
0

>  <SCORE.SYSTEM.CONST>
0

>  <SCORE.SYSTEM.DIHEDRAL>
0

>  <SCORE.SYSTEM.SOLV>
0

>  <SCORE.SYSTEM.norm>
0

>  <SCORE.heavy>
27

>  <SCORE.norm>
-1.25193

>  <RMSD>
5.937

$$$$
lig.pdb
 OpenBabel11021811523D
libRbt.so/2013.1/901 2013/11/27
 27 30  0  0  0  0  0  0  0  0999 V2000
   28.9487   41.4572   21.9246 N   0  0  0  0  0  0  0  0  0  0  0  0
   28.7970   40.4746   21.0715 C   0  0  0  0  0  0  0  0  0  0  0  0
   28.3414   39.2363   21.3879 N   0  0  0  0  0  0  0  0  0  0  0  0
   27.9619   38.9884   22.6769 C   0  0  0  0  0  0  0  0  0  0  0  0
   28.0593   39.9639   23.6274 C   0  0  0  0  0  0  0  0  0  0  0  0
   28.5885   41.2545   23.2562 C   0  0  0  0  0  0  0  0  0  0  0  0
   28.7559   42.1702   24.0712 O   0  0  0  0  0  0  0  0  0  0  0  0
   29.2991   40.5527   19.6130 C   0  0  2  0  0  0  0  0  0  0  0  0
   28.0477   40.1397   18.8212 C   0  0  0  0  0  0  0  0  0  0  0  0
   28.3530   39.9024   17.4092 N   0  0  0  0  0  0  0  0  0  0  0  0
   29.3038   38.7838   17.3043 C   0  0  0  0  0  0  0  0  0  0  0  0
   30.6182   39.1292   17.9760 C   0  0  0  0  0  0  0  0  0  0  0  0
   30.4040   39.4970   19.4377 C   0  0  0  0  0  0  0  0  0  0  0  0
   27.4553   37.6346   22.8579 C   0  0  0  0  0  0  0  0  0  0  0  0
   26.7468   37.1277   24.3466 S   0  0  0  0  0  0  0  0  0  0  0  0
   26.4873   35.5763   23.7663 C   0  0  0  0  0  0  0  0  0  0  0  0
   26.8699   35.4491   22.4895 C   0  0  0  0  0  0  0  0  0  0  0  0
   27.4368   36.6211   21.9518 C   0  0  0  0  0  0  0  0  0  0  0  0
   27.1393   39.6189   16.6233 C   0  0  0  0  0  0  0  0  0  0  0  0
   26.4425   38.3147   16.9413 C   0  0  0  0  0  0  0  0  0  0  0  0
   26.0395   38.0147   18.2344 C   0  0  0  0  0  0  0  0  0  0  0  0
   25.7489   36.7755   18.6701 N   0  0  0  0  0  0  0  0  0  0  0  0
   25.9163   35.8268   17.7610 C   0  0  0  0  0  0  0  0  0  0  0  0
   26.3302   35.9504   16.5101 N   0  0  0  0  0  0  0  0  0  0  0  0
   26.6100   37.2074   16.1355 C   0  0  0  0  0  0  0  0  0  0  0  0
   25.6349   34.5949   18.2007 O   0  0  0  0  0  0  0  0  0  0  0  0
   24.2681   34.1699   18.1464 C   0  0  0  0  0  0  0  0  0  0  0  0
  1  2  2  0  0  0  0
  1  6  1  0  0  0  0
  2  3  1  0  0  0  0
  3  4  2  0  0  0  0
  4 14  1  0  0  0  0
  5  4  1  0  0  0  0
  6  5  1  0  0  0  0
  7  6  2  0  0  0  0
  8  9  1  0  0  0  0
  8  2  1  1  0  0  0
 10 19  1  0  0  0  0
 10  9  1  0  0  0  0
 11 10  1  0  0  0  0
 12 11  1  0  0  0  0
 12 13  1  0  0  0  0
 13  8  1  0  0  0  0
 14 15  1  0  0  0  0
 14 18  2  0  0  0  0
 15 16  1  0  0  0  0
 16 17  2  0  0  0  0
 18 17  1  0  0  0  0
 19 20  1  0  0  0  0
 20 25  2  0  0  0  0
 20 21  1  0  0  0  0
 21 22  2  0  0  0  0
 22 23  1  0  0  0  0
 23 26  1  0  0  0  0
 24 23  2  0  0  0  0
 25 24  1  0  0  0  0
 26 27  1  0  0  0  0
M  END
>  <CHROM.1>
-172.97821591,-129.04243035,-67.41488481,55.25597179,85.04122729,27.53499069
38.24951744,20.22600706,-1.04697342,-1.00389299,-1.59214053

>  <Name>
lig.pdb

>  <RI>
0

>  <Rbt.Current_Directory>
/home/itssahil/PROJECTS/Mol_Feturizer/New_Systems/rnas/5kx9

>  <Rbt.Executable>
rbdock ($Id: //depot/dev/client3/rdock/2013.1/src/exe/rbdock.cxx#4 $)

>  <Rbt.Library>
libRbt.so (2013.1, Build901 2013/11/27)

>  <Rbt.Parameter_File>
/export/apps/rDock/src/rDock_2013.1_src/data/scripts/dock_solv.prm

>  <Rbt.Receptor>
prm/blind_docking_80.prm

>  <SCORE>
-32.2329

>  <SCORE.INTER>
-28.6432

>  <SCORE.INTER.CONST>
1

>  <SCORE.INTER.POLAR>
0

>  <SCORE.INTER.ROT>
5

>  <SCORE.INTER.SOLV>
9.64665

>  <SCORE.INTER.VDW>
-29.2443

>  <SCORE.INTER.norm>
-1.06086

>  <SCORE.INTRA>
-3.58965

>  <SCORE.INTRA.DIHEDRAL>
4.1396

>  <SCORE.INTRA.DIHEDRAL.0>
2.68224

>  <SCORE.INTRA.POLAR>
0

>  <SCORE.INTRA.POLAR.0>
0

>  <SCORE.INTRA.REPUL>
0

>  <SCORE.INTRA.REPUL.0>
0

>  <SCORE.INTRA.SOLV>
-0.0527411

>  <SCORE.INTRA.SOLV.lig_0>
-19.4148

>  <SCORE.INTRA.VDW>
-5.63308

>  <SCORE.INTRA.VDW.0>
5.42093

>  <SCORE.INTRA.norm>
-0.13295

>  <SCORE.RESTR>
0

>  <SCORE.RESTR.CAVITY>
0

>  <SCORE.RESTR.norm>
0

>  <SCORE.SYSTEM>
0

>  <SCORE.SYSTEM.CONST>
0

>  <SCORE.SYSTEM.DIHEDRAL>
0

>  <SCORE.SYSTEM.SOLV>
0

>  <SCORE.SYSTEM.norm>
0

>  <SCORE.heavy>
27

>  <SCORE.norm>
-1.19381

>  <RMSD>
5.953

$$$$
lig.pdb
 OpenBabel11021811523D
libRbt.so/2013.1/901 2013/11/27
 27 30  0  0  0  0  0  0  0  0999 V2000
   29.9717   36.5927   18.2732 N   0  0  0  0  0  0  0  0  0  0  0  0
   28.7330   37.0040   18.1600 C   0  0  0  0  0  0  0  0  0  0  0  0
   28.3588   38.2123   17.6689 N   0  0  0  0  0  0  0  0  0  0  0  0
   29.3269   39.0596   17.2086 C   0  0  0  0  0  0  0  0  0  0  0  0
   30.6434   38.7013   17.2617 C   0  0  0  0  0  0  0  0  0  0  0  0
   31.0001   37.4233   17.8303 C   0  0  0  0  0  0  0  0  0  0  0  0
   32.1730   37.0514   17.9606 O   0  0  0  0  0  0  0  0  0  0  0  0
   27.5386   36.2228   18.7506 C   0  0  2  0  0  0  0  0  0  0  0  0
   27.8821   36.1976   20.2488 C   0  0  0  0  0  0  0  0  0  0  0  0
   27.0060   35.2895   20.9910 N   0  0  0  0  0  0  0  0  0  0  0  0
   27.2017   33.9185   20.4928 C   0  0  0  0  0  0  0  0  0  0  0  0
   26.7962   33.8118   19.0359 C   0  0  0  0  0  0  0  0  0  0  0  0
   27.5793   34.7958   18.1780 C   0  0  0  0  0  0  0  0  0  0  0  0
   28.7754   40.2971   16.6733 C   0  0  0  0  0  0  0  0  0  0  0  0
   27.0746   40.5270   16.5014 S   0  0  0  0  0  0  0  0  0  0  0  0
   27.2848   42.0564   15.8475 C   0  0  0  0  0  0  0  0  0  0  0  0
   28.5760   42.4080   15.8020 C   0  0  0  0  0  0  0  0  0  0  0  0
   29.4496   41.4052   16.2657 C   0  0  0  0  0  0  0  0  0  0  0  0
   27.2544   35.3479   22.4423 C   0  0  0  0  0  0  0  0  0  0  0  0
   26.8946   36.6529   23.1167 C   0  0  0  0  0  0  0  0  0  0  0  0
   27.5613   37.8286   22.8037 C   0  0  0  0  0  0  0  0  0  0  0  0
   27.5634   38.9286   23.5782 N   0  0  0  0  0  0  0  0  0  0  0  0
   26.8954   38.7946   24.7141 C   0  0  0  0  0  0  0  0  0  0  0  0
   26.2486   37.7327   25.1674 N   0  0  0  0  0  0  0  0  0  0  0  0
   26.2869   36.6661   24.3552 C   0  0  0  0  0  0  0  0  0  0  0  0
   26.9073   39.8877   25.4856 O   0  0  0  0  0  0  0  0  0  0  0  0
   26.4347   41.1100   24.9074 C   0  0  0  0  0  0  0  0  0  0  0  0
  1  2  2  0  0  0  0
  1  6  1  0  0  0  0
  2  3  1  0  0  0  0
  3  4  2  0  0  0  0
  4 14  1  0  0  0  0
  5  4  1  0  0  0  0
  6  5  1  0  0  0  0
  7  6  2  0  0  0  0
  8  9  1  0  0  0  0
  8  2  1  6  0  0  0
 10 19  1  0  0  0  0
 10  9  1  0  0  0  0
 11 10  1  0  0  0  0
 12 11  1  0  0  0  0
 12 13  1  0  0  0  0
 13  8  1  0  0  0  0
 14 15  1  0  0  0  0
 14 18  2  0  0  0  0
 15 16  1  0  0  0  0
 16 17  2  0  0  0  0
 18 17  1  0  0  0  0
 19 20  1  0  0  0  0
 20 25  2  0  0  0  0
 20 21  1  0  0  0  0
 21 22  2  0  0  0  0
 22 23  1  0  0  0  0
 23 26  1  0  0  0  0
 24 23  2  0  0  0  0
 25 24  1  0  0  0  0
 26 27  1  0  0  0  0
M  END
>  <CHROM.1>
-6.49638398,59.91100512,66.84439223,-64.58324831,55.90860651,28.00448438
38.02699930,19.88391734,-0.51339796,-1.25639217,2.88333346

>  <Name>
lig.pdb

>  <RI>
0

>  <Rbt.Current_Directory>
/home/itssahil/PROJECTS/Mol_Feturizer/New_Systems/rnas/5kx9

>  <Rbt.Executable>
rbdock ($Id: //depot/dev/client3/rdock/2013.1/src/exe/rbdock.cxx#4 $)

>  <Rbt.Library>
libRbt.so (2013.1, Build901 2013/11/27)

>  <Rbt.Parameter_File>
/export/apps/rDock/src/rDock_2013.1_src/data/scripts/dock_solv.prm

>  <Rbt.Receptor>
prm/blind_docking_100.prm

>  <SCORE>
-33.5031

>  <SCORE.INTER>
-29.1055

>  <SCORE.INTER.CONST>
1

>  <SCORE.INTER.POLAR>
0

>  <SCORE.INTER.ROT>
5

>  <SCORE.INTER.SOLV>
15.9922

>  <SCORE.INTER.VDW>
-31.6678

>  <SCORE.INTER.norm>
-1.07798

>  <SCORE.INTRA>
-4.39752

>  <SCORE.INTRA.DIHEDRAL>
2.78369

>  <SCORE.INTRA.DIHEDRAL.0>
2.68224

>  <SCORE.INTRA.POLAR>
0

>  <SCORE.INTRA.POLAR.0>
0

>  <SCORE.INTRA.REPUL>
0

>  <SCORE.INTRA.REPUL.0>
0

>  <SCORE.INTRA.SOLV>
-0.547917

>  <SCORE.INTRA.SOLV.lig_0>
-19.4148

>  <SCORE.INTRA.VDW>
-5.51541

>  <SCORE.INTRA.VDW.0>
5.42093

>  <SCORE.INTRA.norm>
-0.162871

>  <SCORE.RESTR>
0

>  <SCORE.RESTR.CAVITY>
0

>  <SCORE.RESTR.norm>
0

>  <SCORE.SYSTEM>
0

>  <SCORE.SYSTEM.CONST>
0

>  <SCORE.SYSTEM.DIHEDRAL>
0

>  <SCORE.SYSTEM.SOLV>
0

>  <SCORE.SYSTEM.norm>
0

>  <SCORE.heavy>
27

>  <SCORE.norm>
-1.24085

>  <RMSD>
5.995

$$$$
lig.pdb
 OpenBabel11021811523D
libRbt.so/2013.1/901 2013/11/27
 27 30  0  0  0  0  0  0  0  0999 V2000
   29.9901   36.5088   18.2914 N   0  0  0  0  0  0  0  0  0  0  0  0
   28.7574   36.9364   18.1732 C   0  0  0  0  0  0  0  0  0  0  0  0
   28.4011   38.1493   17.6804 N   0  0  0  0  0  0  0  0  0  0  0  0
   29.3822   38.9837   17.2238 C   0  0  0  0  0  0  0  0  0  0  0  0
   30.6936   38.6081   17.2821 C   0  0  0  0  0  0  0  0  0  0  0  0
   31.0312   37.3257   17.8524 C   0  0  0  0  0  0  0  0  0  0  0  0
   32.1984   36.9383   17.9875 O   0  0  0  0  0  0  0  0  0  0  0  0
   27.5505   36.1712   18.7592 C   0  0  2  0  0  0  0  0  0  0  0  0
   27.8960   36.1271   20.2565 C   0  0  0  0  0  0  0  0  0  0  0  0
   27.0052   35.2281   20.9925 N   0  0  0  0  0  0  0  0  0  0  0  0
   27.1760   33.8582   20.4821 C   0  0  0  0  0  0  0  0  0  0  0  0
   26.7663   33.7711   19.0251 C   0  0  0  0  0  0  0  0  0  0  0  0
   27.5652   34.7487   18.1743 C   0  0  0  0  0  0  0  0  0  0  0  0
   28.8491   40.2282   16.6859 C   0  0  0  0  0  0  0  0  0  0  0  0
   27.1509   40.5023   16.5589 S   0  0  0  0  0  0  0  0  0  0  0  0
   27.3835   42.0160   15.8767 C   0  0  0  0  0  0  0  0  0  0  0  0
   28.6819   42.3313   15.7894 C   0  0  0  0  0  0  0  0  0  0  0  0
   29.5411   41.3115   16.2430 C   0  0  0  0  0  0  0  0  0  0  0  0
   27.2571   35.2695   22.4437 C   0  0  0  0  0  0  0  0  0  0  0  0
   26.9291   36.5775   23.1286 C   0  0  0  0  0  0  0  0  0  0  0  0
   27.5588   37.7571   22.7589 C   0  0  0  0  0  0  0  0  0  0  0  0
   27.6012   38.8653   23.5206 N   0  0  0  0  0  0  0  0  0  0  0  0
   27.0146   38.7359   24.7011 C   0  0  0  0  0  0  0  0  0  0  0  0
   26.4131   37.6717   25.2082 N   0  0  0  0  0  0  0  0  0  0  0  0
   26.4079   36.5970   24.4058 C   0  0  0  0  0  0  0  0  0  0  0  0
   27.0666   39.8371   25.4592 O   0  0  0  0  0  0  0  0  0  0  0  0
   26.5330   41.0459   24.9065 C   0  0  0  0  0  0  0  0  0  0  0  0
  1  2  2  0  0  0  0
  1  6  1  0  0  0  0
  2  3  1  0  0  0  0
  3  4  2  0  0  0  0
  4 14  1  0  0  0  0
  5  4  1  0  0  0  0
  6  5  1  0  0  0  0
  7  6  2  0  0  0  0
  8  9  1  0  0  0  0
  8  2  1  6  0  0  0
 10 19  1  0  0  0  0
 10  9  1  0  0  0  0
 11 10  1  0  0  0  0
 12 11  1  0  0  0  0
 12 13  1  0  0  0  0
 13  8  1  0  0  0  0
 14 15  1  0  0  0  0
 14 18  2  0  0  0  0
 15 16  1  0  0  0  0
 16 17  2  0  0  0  0
 18 17  1  0  0  0  0
 19 20  1  0  0  0  0
 20 25  2  0  0  0  0
 20 21  1  0  0  0  0
 21 22  2  0  0  0  0
 22 23  1  0  0  0  0
 23 26  1  0  0  0  0
 24 23  2  0  0  0  0
 25 24  1  0  0  0  0
 26 27  1  0  0  0  0
M  END
>  <CHROM.1>
-4.30925035,59.25793656,66.49003001,-60.11455696,56.31179396,28.05697172
37.96158682,19.89161394,-0.46798385,-1.26667855,2.93686670

>  <Name>
lig.pdb

>  <RI>
0

>  <Rbt.Current_Directory>
/home/itssahil/PROJECTS/Mol_Feturizer/New_Systems/rnas/5kx9

>  <Rbt.Executable>
rbdock ($Id: //depot/dev/client3/rdock/2013.1/src/exe/rbdock.cxx#4 $)

>  <Rbt.Library>
libRbt.so (2013.1, Build901 2013/11/27)

>  <Rbt.Parameter_File>
/export/apps/rDock/src/rDock_2013.1_src/data/scripts/dock_solv.prm

>  <Rbt.Receptor>
prm/pocket_docking_6.prm

>  <SCORE>
-33.605

>  <SCORE.INTER>
-29.3475

>  <SCORE.INTER.CONST>
1

>  <SCORE.INTER.POLAR>
0

>  <SCORE.INTER.ROT>
5

>  <SCORE.INTER.SOLV>
15.9163

>  <SCORE.INTER.VDW>
-31.8038

>  <SCORE.INTER.norm>
-1.08695

>  <SCORE.INTRA>
-4.25745

>  <SCORE.INTRA.DIHEDRAL>
2.80386

>  <SCORE.INTRA.DIHEDRAL.0>
2.68224

>  <SCORE.INTRA.POLAR>
0

>  <SCORE.INTRA.POLAR.0>
0

>  <SCORE.INTRA.REPUL>
0

>  <SCORE.INTRA.REPUL.0>
0

>  <SCORE.INTRA.SOLV>
-0.535548

>  <SCORE.INTRA.SOLV.lig_0>
-19.4148

>  <SCORE.INTRA.VDW>
-5.39161

>  <SCORE.INTRA.VDW.0>
5.42093

>  <SCORE.INTRA.norm>
-0.157683

>  <SCORE.RESTR>
0

>  <SCORE.RESTR.CAVITY>
0

>  <SCORE.RESTR.norm>
0

>  <SCORE.SYSTEM>
0

>  <SCORE.SYSTEM.CONST>
0

>  <SCORE.SYSTEM.DIHEDRAL>
0

>  <SCORE.SYSTEM.SOLV>
0

>  <SCORE.SYSTEM.norm>
0

>  <SCORE.heavy>
27

>  <SCORE.norm>
-1.24463

>  <RMSD>
6.000

$$$$
lig.pdb
 OpenBabel11021811523D
libRbt.so/2013.1/901 2013/11/27
 27 30  0  0  0  0  0  0  0  0999 V2000
   28.5202   41.2820   25.0064 N   0  0  0  0  0  0  0  0  0  0  0  0
   28.0701   40.9568   23.8199 C   0  0  0  0  0  0  0  0  0  0  0  0
   27.6734   39.7115   23.4554 N   0  0  0  0  0  0  0  0  0  0  0  0
   27.6918   38.7183   24.3936 C   0  0  0  0  0  0  0  0  0  0  0  0
   28.1195   38.9741   25.6649 C   0  0  0  0  0  0  0  0  0  0  0  0
   28.5720   40.3036   25.9984 C   0  0  0  0  0  0  0  0  0  0  0  0
   29.0224   40.5988   27.1123 O   0  0  0  0  0  0  0  0  0  0  0  0
   28.1088   41.9278   22.6193 C   0  0  2  0  0  0  0  0  0  0  0  0
   26.7626   41.6429   21.9338 C   0  0  0  0  0  0  0  0  0  0  0  0
   26.6786   42.2791   20.6180 N   0  0  0  0  0  0  0  0  0  0  0  0
   27.7213   41.7168   19.7446 C   0  0  0  0  0  0  0  0  0  0  0  0
   29.1028   42.0287   20.2853 C   0  0  0  0  0  0  0  0  0  0  0  0
   29.2667   41.4978   21.7027 C   0  0  0  0  0  0  0  0  0  0  0  0
   27.2000   37.4501   23.8720 C   0  0  0  0  0  0  0  0  0  0  0  0
   26.1899   36.4174   24.8146 S   0  0  0  0  0  0  0  0  0  0  0  0
   26.1168   35.2711   23.5933 C   0  0  0  0  0  0  0  0  0  0  0  0
   26.7816   35.6628   22.4990 C   0  0  0  0  0  0  0  0  0  0  0  0
   27.4182   36.9109   22.6431 C   0  0  0  0  0  0  0  0  0  0  0  0
   25.3493   42.1060   20.0063 C   0  0  0  0  0  0  0  0  0  0  0  0
   24.9808   43.1162   18.9427 C   0  0  0  0  0  0  0  0  0  0  0  0
   23.7367   43.7301   18.9383 C   0  0  0  0  0  0  0  0  0  0  0  0
   23.1992   44.3474   17.8706 N   0  0  0  0  0  0  0  0  0  0  0  0
   23.9470   44.2936   16.7785 C   0  0  0  0  0  0  0  0  0  0  0  0
   25.1261   43.7147   16.6169 N   0  0  0  0  0  0  0  0  0  0  0  0
   25.6075   43.1111   17.7136 C   0  0  0  0  0  0  0  0  0  0  0  0
   23.4052   44.9008   15.7165 O   0  0  0  0  0  0  0  0  0  0  0  0
   23.9491   44.5897   14.4285 C   0  0  0  0  0  0  0  0  0  0  0  0
  1  2  2  0  0  0  0
  1  6  1  0  0  0  0
  2  3  1  0  0  0  0
  3  4  2  0  0  0  0
  4 14  1  0  0  0  0
  5  4  1  0  0  0  0
  6  5  1  0  0  0  0
  7  6  2  0  0  0  0
  8  9  1  0  0  0  0
  8  2  1  1  0  0  0
 10 19  1  0  0  0  0
 10  9  1  0  0  0  0
 11 10  1  0  0  0  0
 12 11  1  0  0  0  0
 12 13  1  0  0  0  0
 13  8  1  0  0  0  0
 14 15  1  0  0  0  0
 14 18  2  0  0  0  0
 15 16  1  0  0  0  0
 16 17  2  0  0  0  0
 18 17  1  0  0  0  0
 19 20  1  0  0  0  0
 20 25  2  0  0  0  0
 20 21  1  0  0  0  0
 21 22  2  0  0  0  0
 22 23  1  0  0  0  0
 23 26  1  0  0  0  0
 24 23  2  0  0  0  0
 25 24  1  0  0  0  0
 26 27  1  0  0  0  0
M  END
>  <CHROM.1>
-139.92010732,-140.82508296,157.87074554,-133.84035526,-163.43186341,26.57444482
40.85190236,21.47819616,-1.05369833,-0.89832833,-0.50601930

>  <Name>
lig.pdb

>  <RI>
0

>  <Rbt.Current_Directory>
/home/itssahil/PROJECTS/Mol_Feturizer/New_Systems/rnas/5kx9

>  <Rbt.Executable>
rbdock ($Id: //depot/dev/client3/rdock/2013.1/src/exe/rbdock.cxx#4 $)

>  <Rbt.Library>
libRbt.so (2013.1, Build901 2013/11/27)

>  <Rbt.Parameter_File>
/export/apps/rDock/src/rDock_2013.1_src/data/scripts/dock_solv.prm

>  <Rbt.Receptor>
prm/blind_docking_60.prm

>  <SCORE>
-35.6919

>  <SCORE.INTER>
-34.1715

>  <SCORE.INTER.CONST>
1

>  <SCORE.INTER.POLAR>
0

>  <SCORE.INTER.ROT>
5

>  <SCORE.INTER.SOLV>
17.7926

>  <SCORE.INTER.VDW>
-35.6452

>  <SCORE.INTER.norm>
-1.26561

>  <SCORE.INTRA>
-1.52767

>  <SCORE.INTRA.DIHEDRAL>
4.54825

>  <SCORE.INTRA.DIHEDRAL.0>
2.68224

>  <SCORE.INTRA.POLAR>
0

>  <SCORE.INTRA.POLAR.0>
0

>  <SCORE.INTRA.REPUL>
0

>  <SCORE.INTRA.REPUL.0>
0

>  <SCORE.INTRA.SOLV>
-0.606934

>  <SCORE.INTRA.SOLV.lig_0>
-19.4148

>  <SCORE.INTRA.VDW>
-3.49833

>  <SCORE.INTRA.VDW.0>
5.42093

>  <SCORE.INTRA.norm>
-0.0565803

>  <SCORE.RESTR>
0.00732144

>  <SCORE.RESTR.CAVITY>
0.00732144

>  <SCORE.RESTR.norm>
0.000271164

>  <SCORE.SYSTEM>
0

>  <SCORE.SYSTEM.CONST>
0

>  <SCORE.SYSTEM.DIHEDRAL>
0

>  <SCORE.SYSTEM.SOLV>
0

>  <SCORE.SYSTEM.norm>
0

>  <SCORE.heavy>
27

>  <SCORE.norm>
-1.32192

>  <RMSD>
6.012

$$$$
lig.pdb
 OpenBabel11021811523D
libRbt.so/2013.1/901 2013/11/27
 27 30  0  0  0  0  0  0  0  0999 V2000
   28.7701   42.1990   21.3318 N   0  0  0  0  0  0  0  0  0  0  0  0
   28.2123   41.1696   20.7440 C   0  0  0  0  0  0  0  0  0  0  0  0
   27.8829   40.0078   21.3626 N   0  0  0  0  0  0  0  0  0  0  0  0
   28.0966   39.8995   22.7078 C   0  0  0  0  0  0  0  0  0  0  0  0
   28.6481   40.9345   23.4071 C   0  0  0  0  0  0  0  0  0  0  0  0
   29.0219   42.1371   22.7017 C   0  0  0  0  0  0  0  0  0  0  0  0
   29.5740   43.0955   23.2563 O   0  0  0  0  0  0  0  0  0  0  0  0
   28.0260   41.0846   19.2131 C   0  0  2  0  0  0  0  0  0  0  0  0
   28.6585   39.7214   18.8890 C   0  0  0  0  0  0  0  0  0  0  0  0
   28.8195   39.5273   17.4469 N   0  0  0  0  0  0  0  0  0  0  0  0
   29.7384   40.5510   16.9236 C   0  0  0  0  0  0  0  0  0  0  0  0
   29.1591   41.9398   17.1082 C   0  0  0  0  0  0  0  0  0  0  0  0
   28.8533   42.2131   18.5743 C   0  0  0  0  0  0  0  0  0  0  0  0
   27.6565   38.6169   23.2402 C   0  0  0  0  0  0  0  0  0  0  0  0
   27.3930   38.3832   24.9288 S   0  0  0  0  0  0  0  0  0  0  0  0
   26.9755   36.7751   24.7042 C   0  0  0  0  0  0  0  0  0  0  0  0
   26.9835   36.4321   23.4098 C   0  0  0  0  0  0  0  0  0  0  0  0
   27.3806   37.4769   22.5526 C   0  0  0  0  0  0  0  0  0  0  0  0
   29.3178   38.1785   17.1249 C   0  0  0  0  0  0  0  0  0  0  0  0
   28.4274   37.0322   17.5499 C   0  0  0  0  0  0  0  0  0  0  0  0
   27.0792   37.0133   17.2232 C   0  0  0  0  0  0  0  0  0  0  0  0
   26.1600   36.2486   17.8396 N   0  0  0  0  0  0  0  0  0  0  0  0
   26.6394   35.5203   18.8367 C   0  0  0  0  0  0  0  0  0  0  0  0
   27.8817   35.4624   19.2895 N   0  0  0  0  0  0  0  0  0  0  0  0
   28.7508   36.2506   18.6397 C   0  0  0  0  0  0  0  0  0  0  0  0
   25.7207   34.7679   19.4530 O   0  0  0  0  0  0  0  0  0  0  0  0
   25.1458   33.6862   18.7105 C   0  0  0  0  0  0  0  0  0  0  0  0
  1  2  2  0  0  0  0
  1  6  1  0  0  0  0
  2  3  1  0  0  0  0
  3  4  2  0  0  0  0
  4 14  1  0  0  0  0
  5  4  1  0  0  0  0
  6  5  1  0  0  0  0
  7  6  2  0  0  0  0
  8  9  1  0  0  0  0
  8  2  1  1  0  0  0
 10 19  1  0  0  0  0
 10  9  1  0  0  0  0
 11 10  1  0  0  0  0
 12 11  1  0  0  0  0
 12 13  1  0  0  0  0
 13  8  1  0  0  0  0
 14 15  1  0  0  0  0
 14 18  2  0  0  0  0
 15 16  1  0  0  0  0
 16 17  2  0  0  0  0
 18 17  1  0  0  0  0
 19 20  1  0  0  0  0
 20 25  2  0  0  0  0
 20 21  1  0  0  0  0
 21 22  2  0  0  0  0
 22 23  1  0  0  0  0
 23 26  1  0  0  0  0
 24 23  2  0  0  0  0
 25 24  1  0  0  0  0
 26 27  1  0  0  0  0
M  END
>  <CHROM.1>
-162.39861688,127.71405396,61.18182418,50.74458592,67.63391182,27.92985896
38.73381827,20.45922428,-0.94407573,-1.18070574,-1.84422592

>  <Name>
lig.pdb

>  <RI>
0

>  <Rbt.Current_Directory>
/home/itssahil/PROJECTS/Mol_Feturizer/New_Systems/rnas/5kx9

>  <Rbt.Executable>
rbdock ($Id: //depot/dev/client3/rdock/2013.1/src/exe/rbdock.cxx#4 $)

>  <Rbt.Library>
libRbt.so (2013.1, Build901 2013/11/27)

>  <Rbt.Parameter_File>
/export/apps/rDock/src/rDock_2013.1_src/data/scripts/dock_solv.prm

>  <Rbt.Receptor>
prm/pocket_docking_5.prm

>  <SCORE>
-27.5878

>  <SCORE.INTER>
-24.7259

>  <SCORE.INTER.CONST>
1

>  <SCORE.INTER.POLAR>
0

>  <SCORE.INTER.ROT>
5

>  <SCORE.INTER.SOLV>
9.67236

>  <SCORE.INTER.VDW>
-26.6414

>  <SCORE.INTER.norm>
-0.915774

>  <SCORE.INTRA>
-2.8619

>  <SCORE.INTRA.DIHEDRAL>
4.27862

>  <SCORE.INTRA.DIHEDRAL.0>
2.68224

>  <SCORE.INTRA.POLAR>
0

>  <SCORE.INTRA.POLAR.0>
0

>  <SCORE.INTRA.REPUL>
0

>  <SCORE.INTRA.REPUL.0>
0

>  <SCORE.INTRA.SOLV>
-0.262397

>  <SCORE.INTRA.SOLV.lig_0>
-19.4148

>  <SCORE.INTRA.VDW>
-4.87001

>  <SCORE.INTRA.VDW.0>
5.42093

>  <SCORE.INTRA.norm>
-0.105996

>  <SCORE.RESTR>
0

>  <SCORE.RESTR.CAVITY>
0

>  <SCORE.RESTR.norm>
0

>  <SCORE.SYSTEM>
0

>  <SCORE.SYSTEM.CONST>
0

>  <SCORE.SYSTEM.DIHEDRAL>
0

>  <SCORE.SYSTEM.SOLV>
0

>  <SCORE.SYSTEM.norm>
0

>  <SCORE.heavy>
27

>  <SCORE.norm>
-1.02177

>  <RMSD>
6.013

$$$$
lig.pdb
 OpenBabel11021811523D
libRbt.so/2013.1/901 2013/11/27
 27 30  0  0  0  0  0  0  0  0999 V2000
   27.4725   35.8177   17.9899 N   0  0  0  0  0  0  0  0  0  0  0  0
   28.0307   36.7347   18.7407 C   0  0  0  0  0  0  0  0  0  0  0  0
   29.3522   37.0424   18.7355 N   0  0  0  0  0  0  0  0  0  0  0  0
   30.1717   36.3930   17.8559 C   0  0  0  0  0  0  0  0  0  0  0  0
   29.6699   35.4413   17.0151 C   0  0  0  0  0  0  0  0  0  0  0  0
   28.2653   35.1156   17.0830 C   0  0  0  0  0  0  0  0  0  0  0  0
   27.7483   34.2293   16.3915 O   0  0  0  0  0  0  0  0  0  0  0  0
   27.2703   37.4619   19.8714 C   0  0  2  0  0  0  0  0  0  0  0  0
   27.3866   38.9331   19.4405 C   0  0  0  0  0  0  0  0  0  0  0  0
   26.9439   39.8444   20.4973 N   0  0  0  0  0  0  0  0  0  0  0  0
   27.8176   39.6806   21.6704 C   0  0  0  0  0  0  0  0  0  0  0  0
   27.7030   38.2788   22.2360 C   0  0  0  0  0  0  0  0  0  0  0  0
   28.0440   37.2352   21.1813 C   0  0  0  0  0  0  0  0  0  0  0  0
   31.5507   36.8559   17.9337 C   0  0  0  0  0  0  0  0  0  0  0  0
   31.9420   38.4327   18.5131 S   0  0  0  0  0  0  0  0  0  0  0  0
   33.5815   38.1844   18.2653 C   0  0  0  0  0  0  0  0  0  0  0  0
   33.8378   36.9510   17.8116 C   0  0  0  0  0  0  0  0  0  0  0  0
   32.6808   36.1742   17.6071 C   0  0  0  0  0  0  0  0  0  0  0  0
   26.9444   41.2484   20.0499 C   0  0  0  0  0  0  0  0  0  0  0  0
   26.0966   41.5488   18.8340 C   0  0  0  0  0  0  0  0  0  0  0  0
   26.6550   41.5939   17.5648 C   0  0  0  0  0  0  0  0  0  0  0  0
   26.0790   42.1865   16.5032 N   0  0  0  0  0  0  0  0  0  0  0  0
   24.9232   42.7756   16.7707 C   0  0  0  0  0  0  0  0  0  0  0  0
   24.2883   42.8528   17.9294 N   0  0  0  0  0  0  0  0  0  0  0  0
   24.9137   42.2491   18.9508 C   0  0  0  0  0  0  0  0  0  0  0  0
   24.3578   43.3713   15.7146 O   0  0  0  0  0  0  0  0  0  0  0  0
   23.8044   44.6779   15.9106 C   0  0  0  0  0  0  0  0  0  0  0  0
  1  2  2  0  0  0  0
  1  6  1  0  0  0  0
  2  3  1  0  0  0  0
  3  4  2  0  0  0  0
  4 14  1  0  0  0  0
  5  4  1  0  0  0  0
  6  5  1  0  0  0  0
  7  6  2  0  0  0  0
  8  9  1  0  0  0  0
  8  2  1  6  0  0  0
 10 19  1  0  0  0  0
 10  9  1  0  0  0  0
 11 10  1  0  0  0  0
 12 11  1  0  0  0  0
 12 13  1  0  0  0  0
 13  8  1  0  0  0  0
 14 15  1  0  0  0  0
 14 18  2  0  0  0  0
 15 16  1  0  0  0  0
 16 17  2  0  0  0  0
 18 17  1  0  0  0  0
 19 20  1  0  0  0  0
 20 25  2  0  0  0  0
 20 21  1  0  0  0  0
 21 22  2  0  0  0  0
 22 23  1  0  0  0  0
 23 26  1  0  0  0  0
 24 23  2  0  0  0  0
 25 24  1  0  0  0  0
 26 27  1  0  0  0  0
M  END
>  <CHROM.1>
-24.82252126,-121.40828917,57.49800559,-96.33615798,-135.96269925,28.17640413
38.95194344,18.40200963,0.61795735,-0.54960539,2.40021047

>  <Name>
lig.pdb

>  <RI>
0

>  <Rbt.Current_Directory>
/home/itssahil/PROJECTS/Mol_Feturizer/New_Systems/rnas/5kx9

>  <Rbt.Executable>
rbdock ($Id: //depot/dev/client3/rdock/2013.1/src/exe/rbdock.cxx#4 $)

>  <Rbt.Library>
libRbt.so (2013.1, Build901 2013/11/27)

>  <Rbt.Parameter_File>
/export/apps/rDock/src/rDock_2013.1_src/data/scripts/dock_solv.prm

>  <Rbt.Receptor>
prm/blind_docking_100.prm

>  <SCORE>
-23.9105

>  <SCORE.INTER>
-19.9528

>  <SCORE.INTER.CONST>
1

>  <SCORE.INTER.POLAR>
0

>  <SCORE.INTER.ROT>
5

>  <SCORE.INTER.SOLV>
13.4151

>  <SCORE.INTER.VDW>
-24.7069

>  <SCORE.INTER.norm>
-0.738993

>  <SCORE.INTRA>
-3.95773

>  <SCORE.INTRA.DIHEDRAL>
3.1518

>  <SCORE.INTRA.DIHEDRAL.0>
2.68224

>  <SCORE.INTRA.POLAR>
0

>  <SCORE.INTRA.POLAR.0>
0

>  <SCORE.INTRA.REPUL>
0

>  <SCORE.INTRA.REPUL.0>
0

>  <SCORE.INTRA.SOLV>
-0.594035

>  <SCORE.INTRA.SOLV.lig_0>
-19.4148

>  <SCORE.INTRA.VDW>
-5.23662

>  <SCORE.INTRA.VDW.0>
5.42093

>  <SCORE.INTRA.norm>
-0.146583

>  <SCORE.RESTR>
0

>  <SCORE.RESTR.CAVITY>
0

>  <SCORE.RESTR.norm>
0

>  <SCORE.SYSTEM>
0

>  <SCORE.SYSTEM.CONST>
0

>  <SCORE.SYSTEM.DIHEDRAL>
0

>  <SCORE.SYSTEM.SOLV>
0

>  <SCORE.SYSTEM.norm>
0

>  <SCORE.heavy>
27

>  <SCORE.norm>
-0.885575

>  <RMSD>
6.017

$$$$
lig.pdb
 OpenBabel11021811523D
libRbt.so/2013.1/901 2013/11/27
 27 30  0  0  0  0  0  0  0  0999 V2000
   27.8783   42.0159   21.4961 N   0  0  0  0  0  0  0  0  0  0  0  0
   27.5842   40.9471   20.7980 C   0  0  0  0  0  0  0  0  0  0  0  0
   27.4286   39.7020   21.3144 N   0  0  0  0  0  0  0  0  0  0  0  0
   27.5352   39.5366   22.6665 C   0  0  0  0  0  0  0  0  0  0  0  0
   27.8119   40.6016   23.4750 C   0  0  0  0  0  0  0  0  0  0  0  0
   28.0111   41.9013   22.8793 C   0  0  0  0  0  0  0  0  0  0  0  0
   28.3162   42.9019   23.5399 O   0  0  0  0  0  0  0  0  0  0  0  0
   27.5584   40.9419   19.2537 C   0  0  2  0  0  0  0  0  0  0  0  0
   29.0503   40.8038   18.9092 C   0  0  0  0  0  0  0  0  0  0  0  0
   29.3003   41.0227   17.4834 N   0  0  0  0  0  0  0  0  0  0  0  0
   28.9148   42.3994   17.1336 C   0  0  0  0  0  0  0  0  0  0  0  0
   27.4293   42.6137   17.3473 C   0  0  0  0  0  0  0  0  0  0  0  0
   27.0357   42.3110   18.7864 C   0  0  0  0  0  0  0  0  0  0  0  0
   27.3023   38.1590   23.0792 C   0  0  0  0  0  0  0  0  0  0  0  0
   26.9142   37.7593   24.7116 S   0  0  0  0  0  0  0  0  0  0  0  0
   26.8468   36.1215   24.3598 C   0  0  0  0  0  0  0  0  0  0  0  0
   27.0578   35.8799   23.0598 C   0  0  0  0  0  0  0  0  0  0  0  0
   27.3295   37.0396   22.3080 C   0  0  0  0  0  0  0  0  0  0  0  0
   30.7092   40.7787   17.1274 C   0  0  0  0  0  0  0  0  0  0  0  0
   31.2398   39.4018   17.4589 C   0  0  0  0  0  0  0  0  0  0  0  0
   32.2511   39.2297   18.3928 C   0  0  0  0  0  0  0  0  0  0  0  0
   33.0137   38.1256   18.4904 N   0  0  0  0  0  0  0  0  0  0  0  0
   32.7493   37.2006   17.5799 C   0  0  0  0  0  0  0  0  0  0  0  0
   31.8516   37.2360   16.6082 N   0  0  0  0  0  0  0  0  0  0  0  0
   31.1266   38.3632   16.5578 C   0  0  0  0  0  0  0  0  0  0  0  0
   33.5157   36.1080   17.6746 O   0  0  0  0  0  0  0  0  0  0  0  0
   33.4039   35.1300   16.6340 C   0  0  0  0  0  0  0  0  0  0  0  0
  1  2  2  0  0  0  0
  1  6  1  0  0  0  0
  2  3  1  0  0  0  0
  3  4  2  0  0  0  0
  4 14  1  0  0  0  0
  5  4  1  0  0  0  0
  6  5  1  0  0  0  0
  7  6  2  0  0  0  0
  8  9  1  0  0  0  0
  8  2  1  1  0  0  0
 10 19  1  0  0  0  0
 10  9  1  0  0  0  0
 11 10  1  0  0  0  0
 12 11  1  0  0  0  0
 12 13  1  0  0  0  0
 13  8  1  0  0  0  0
 14 15  1  0  0  0  0
 14 18  2  0  0  0  0
 15 16  1  0  0  0  0
 16 17  2  0  0  0  0
 18 17  1  0  0  0  0
 19 20  1  0  0  0  0
 20 25  2  0  0  0  0
 20 21  1  0  0  0  0
 21 22  2  0  0  0  0
 22 23  1  0  0  0  0
 23 26  1  0  0  0  0
 24 23  2  0  0  0  0
 25 24  1  0  0  0  0
 26 27  1  0  0  0  0
M  END
>  <CHROM.1>
-161.55287306,80.39779094,57.29365265,-115.41233143,-172.75757435,29.16110419
39.34770694,20.15340710,2.78114076,-0.86598630,2.49883145

>  <Name>
lig.pdb

>  <RI>
0

>  <Rbt.Current_Directory>
/home/itssahil/PROJECTS/Mol_Feturizer/New_Systems/rnas/5kx9

>  <Rbt.Executable>
rbdock ($Id: //depot/dev/client3/rdock/2013.1/src/exe/rbdock.cxx#4 $)

>  <Rbt.Library>
libRbt.so (2013.1, Build901 2013/11/27)

>  <Rbt.Parameter_File>
/export/apps/rDock/src/rDock_2013.1_src/data/scripts/dock_solv.prm

>  <Rbt.Receptor>
prm/pocket_docking_8.prm

>  <SCORE>
-34.1031

>  <SCORE.INTER>
-29.5527

>  <SCORE.INTER.CONST>
1

>  <SCORE.INTER.POLAR>
0

>  <SCORE.INTER.ROT>
5

>  <SCORE.INTER.SOLV>
12.9582

>  <SCORE.INTER.VDW>
-30.9545

>  <SCORE.INTER.norm>
-1.09454

>  <SCORE.INTRA>
-4.55037

>  <SCORE.INTRA.DIHEDRAL>
-0.313109

>  <SCORE.INTRA.DIHEDRAL.0>
2.68224

>  <SCORE.INTRA.POLAR>
0

>  <SCORE.INTRA.POLAR.0>
0

>  <SCORE.INTRA.REPUL>
0

>  <SCORE.INTRA.REPUL.0>
0

>  <SCORE.INTRA.SOLV>
-0.66417

>  <SCORE.INTRA.SOLV.lig_0>
-19.4148

>  <SCORE.INTRA.VDW>
-4.06173

>  <SCORE.INTRA.VDW.0>
5.42093

>  <SCORE.INTRA.norm>
-0.168532

>  <SCORE.RESTR>
0

>  <SCORE.RESTR.CAVITY>
0

>  <SCORE.RESTR.norm>
0

>  <SCORE.SYSTEM>
0

>  <SCORE.SYSTEM.CONST>
0

>  <SCORE.SYSTEM.DIHEDRAL>
0

>  <SCORE.SYSTEM.SOLV>
0

>  <SCORE.SYSTEM.norm>
0

>  <SCORE.heavy>
27

>  <SCORE.norm>
-1.26308

>  <RMSD>
6.056

$$$$
lig.pdb
 OpenBabel11021811523D
libRbt.so/2013.1/901 2013/11/27
 27 30  0  0  0  0  0  0  0  0999 V2000
   27.5633   42.1345   21.5204 N   0  0  0  0  0  0  0  0  0  0  0  0
   27.2418   41.0252   20.9021 C   0  0  0  0  0  0  0  0  0  0  0  0
   27.1943   39.7996   21.4825 N   0  0  0  0  0  0  0  0  0  0  0  0
   27.4507   39.6992   22.8209 C   0  0  0  0  0  0  0  0  0  0  0  0
   27.7667   40.8090   23.5508 C   0  0  0  0  0  0  0  0  0  0  0  0
   27.8468   42.0872   22.8847 C   0  0  0  0  0  0  0  0  0  0  0  0
   28.1780   43.1272   23.4673 O   0  0  0  0  0  0  0  0  0  0  0  0
   27.0525   40.9496   19.3711 C   0  0  2  0  0  0  0  0  0  0  0  0
   28.5019   41.0308   18.8650 C   0  0  0  0  0  0  0  0  0  0  0  0
   28.5601   41.2244   17.4151 N   0  0  0  0  0  0  0  0  0  0  0  0
   27.9248   42.5080   17.0757 C   0  0  0  0  0  0  0  0  0  0  0  0
   26.4556   42.4973   17.4491 C   0  0  0  0  0  0  0  0  0  0  0  0
   26.2713   42.1992   18.9306 C   0  0  0  0  0  0  0  0  0  0  0  0
   27.3209   38.3338   23.3119 C   0  0  0  0  0  0  0  0  0  0  0  0
   27.4128   36.9795   22.2477 S   0  0  0  0  0  0  0  0  0  0  0  0
   27.1564   35.8975   23.5025 C   0  0  0  0  0  0  0  0  0  0  0  0
   27.0538   36.5176   24.6848 C   0  0  0  0  0  0  0  0  0  0  0  0
   27.1381   37.9207   24.5943 C   0  0  0  0  0  0  0  0  0  0  0  0
   29.9437   41.1877   16.9096 C   0  0  0  0  0  0  0  0  0  0  0  0
   30.6176   39.8342   16.9425 C   0  0  0  0  0  0  0  0  0  0  0  0
   31.7598   39.6210   17.7006 C   0  0  0  0  0  0  0  0  0  0  0  0
   32.6094   38.5937   17.5198 N   0  0  0  0  0  0  0  0  0  0  0  0
   32.2906   37.7961   16.5115 C   0  0  0  0  0  0  0  0  0  0  0  0
   31.2657   37.8915   15.6798 N   0  0  0  0  0  0  0  0  0  0  0  0
   30.4579   38.9380   15.9058 C   0  0  0  0  0  0  0  0  0  0  0  0
   33.1428   36.7808   16.3293 O   0  0  0  0  0  0  0  0  0  0  0  0
   33.0426   35.6654   17.2223 C   0  0  0  0  0  0  0  0  0  0  0  0
  1  2  2  0  0  0  0
  1  6  1  0  0  0  0
  2  3  1  0  0  0  0
  3  4  2  0  0  0  0
  4 14  1  0  0  0  0
  5  4  1  0  0  0  0
  6  5  1  0  0  0  0
  7  6  2  0  0  0  0
  8  9  1  0  0  0  0
  8  2  1  1  0  0  0
 10 19  1  0  0  0  0
 10  9  1  0  0  0  0
 11 10  1  0  0  0  0
 12 11  1  0  0  0  0
 12 13  1  0  0  0  0
 13  8  1  0  0  0  0
 14 15  1  0  0  0  0
 14 18  2  0  0  0  0
 15 16  1  0  0  0  0
 16 17  2  0  0  0  0
 18 17  1  0  0  0  0
 19 20  1  0  0  0  0
 20 25  2  0  0  0  0
 20 21  1  0  0  0  0
 21 22  2  0  0  0  0
 22 23  1  0  0  0  0
 23 26  1  0  0  0  0
 24 23  2  0  0  0  0
 25 24  1  0  0  0  0
 26 27  1  0  0  0  0
M  END
>  <CHROM.1>
20.69467854,73.57310485,70.12243570,-118.28192247,77.39472175,28.83004403
39.55181270,19.87452561,2.64458807,-0.89885756,2.40152291

>  <Name>
lig.pdb

>  <RI>
0

>  <Rbt.Current_Directory>
/home/itssahil/PROJECTS/Mol_Feturizer/New_Systems/rnas/5kx9

>  <Rbt.Executable>
rbdock ($Id: //depot/dev/client3/rdock/2013.1/src/exe/rbdock.cxx#4 $)

>  <Rbt.Library>
libRbt.so (2013.1, Build901 2013/11/27)

>  <Rbt.Parameter_File>
/export/apps/rDock/src/rDock_2013.1_src/data/scripts/dock_solv.prm

>  <Rbt.Receptor>
prm/pocket_docking_7.prm

>  <SCORE>
-33.8736

>  <SCORE.INTER>
-29.1078

>  <SCORE.INTER.CONST>
1

>  <SCORE.INTER.POLAR>
0

>  <SCORE.INTER.ROT>
5

>  <SCORE.INTER.SOLV>
14.1385

>  <SCORE.INTER.VDW>
-31.0514

>  <SCORE.INTER.norm>
-1.07807

>  <SCORE.INTRA>
-4.76577

>  <SCORE.INTRA.DIHEDRAL>
4.71428

>  <SCORE.INTRA.DIHEDRAL.0>
2.68224

>  <SCORE.INTRA.POLAR>
0

>  <SCORE.INTRA.POLAR.0>
0

>  <SCORE.INTRA.REPUL>
0

>  <SCORE.INTRA.REPUL.0>
0

>  <SCORE.INTRA.SOLV>
-0.648783

>  <SCORE.INTRA.SOLV.lig_0>
-19.4148

>  <SCORE.INTRA.VDW>
-6.79852

>  <SCORE.INTRA.VDW.0>
5.42093

>  <SCORE.INTRA.norm>
-0.17651

>  <SCORE.RESTR>
0

>  <SCORE.RESTR.CAVITY>
0

>  <SCORE.RESTR.norm>
0

>  <SCORE.SYSTEM>
0

>  <SCORE.SYSTEM.CONST>
0

>  <SCORE.SYSTEM.DIHEDRAL>
0

>  <SCORE.SYSTEM.SOLV>
0

>  <SCORE.SYSTEM.norm>
0

>  <SCORE.heavy>
27

>  <SCORE.norm>
-1.25458

>  <RMSD>
6.066

$$$$
lig.pdb
 OpenBabel11021811523D
libRbt.so/2013.1/901 2013/11/27
 27 30  0  0  0  0  0  0  0  0999 V2000
   28.6061   41.3001   25.3600 N   0  0  0  0  0  0  0  0  0  0  0  0
   28.1700   41.0729   24.1457 C   0  0  0  0  0  0  0  0  0  0  0  0
   27.7841   39.8605   23.6744 N   0  0  0  0  0  0  0  0  0  0  0  0
   27.7984   38.7925   24.5267 C   0  0  0  0  0  0  0  0  0  0  0  0
   28.2117   38.9433   25.8193 C   0  0  0  0  0  0  0  0  0  0  0  0
   28.6533   40.2426   26.2674 C   0  0  0  0  0  0  0  0  0  0  0  0
   29.0906   40.4459   27.4068 O   0  0  0  0  0  0  0  0  0  0  0  0
   28.2156   42.1408   23.0308 C   0  0  2  0  0  0  0  0  0  0  0  0
   27.1074   41.6588   22.0805 C   0  0  0  0  0  0  0  0  0  0  0  0
   27.1274   42.3867   20.8104 N   0  0  0  0  0  0  0  0  0  0  0  0
   28.4061   42.1288   20.1287 C   0  0  0  0  0  0  0  0  0  0  0  0
   29.5684   42.6578   20.9455 C   0  0  0  0  0  0  0  0  0  0  0  0
   29.5843   42.0392   22.3364 C   0  0  0  0  0  0  0  0  0  0  0  0
   27.3191   37.5700   23.8958 C   0  0  0  0  0  0  0  0  0  0  0  0
   26.3856   36.4109   24.7676 S   0  0  0  0  0  0  0  0  0  0  0  0
   26.2873   35.3968   23.4361 C   0  0  0  0  0  0  0  0  0  0  0  0
   26.8875   35.9230   22.3610 C   0  0  0  0  0  0  0  0  0  0  0  0
   27.4940   37.1700   22.6082 C   0  0  0  0  0  0  0  0  0  0  0  0
   25.9983   42.0100   19.9418 C   0  0  0  0  0  0  0  0  0  0  0  0
   25.8804   42.7842   18.6479 C   0  0  0  0  0  0  0  0  0  0  0  0
   24.7904   43.6065   18.4020 C   0  0  0  0  0  0  0  0  0  0  0  0
   24.4263   44.0386   17.1811 N   0  0  0  0  0  0  0  0  0  0  0  0
   25.1815   43.5791   16.1947 C   0  0  0  0  0  0  0  0  0  0  0  0
   26.2205   42.7625   16.2662 N   0  0  0  0  0  0  0  0  0  0  0  0
   26.5317   42.3613   17.5076 C   0  0  0  0  0  0  0  0  0  0  0  0
   24.8109   44.0038   14.9813 O   0  0  0  0  0  0  0  0  0  0  0  0
   23.4409   44.3822   14.8033 C   0  0  0  0  0  0  0  0  0  0  0  0
  1  2  2  0  0  0  0
  1  6  1  0  0  0  0
  2  3  1  0  0  0  0
  3  4  2  0  0  0  0
  4 14  1  0  0  0  0
  5  4  1  0  0  0  0
  6  5  1  0  0  0  0
  7  6  2  0  0  0  0
  8  9  1  0  0  0  0
  8  2  1  1  0  0  0
 10 19  1  0  0  0  0
 10  9  1  0  0  0  0
 11 10  1  0  0  0  0
 12 11  1  0  0  0  0
 12 13  1  0  0  0  0
 13  8  1  0  0  0  0
 14 15  1  0  0  0  0
 14 18  2  0  0  0  0
 15 16  1  0  0  0  0
 16 17  2  0  0  0  0
 18 17  1  0  0  0  0
 19 20  1  0  0  0  0
 20 25  2  0  0  0  0
 20 21  1  0  0  0  0
 21 22  2  0  0  0  0
 22 23  1  0  0  0  0
 23 26  1  0  0  0  0
 24 23  2  0  0  0  0
 25 24  1  0  0  0  0
 26 27  1  0  0  0  0
M  END
>  <CHROM.1>
-143.71324443,-156.44831065,175.77084242,-115.42085305,-25.30968144,26.99649142
40.79172108,21.50412995,-1.10602130,-0.97981831,-0.61572097

>  <Name>
lig.pdb

>  <RI>
0

>  <Rbt.Current_Directory>
/home/itssahil/PROJECTS/Mol_Feturizer/New_Systems/rnas/5kx9

>  <Rbt.Executable>
rbdock ($Id: //depot/dev/client3/rdock/2013.1/src/exe/rbdock.cxx#4 $)

>  <Rbt.Library>
libRbt.so (2013.1, Build901 2013/11/27)

>  <Rbt.Parameter_File>
/export/apps/rDock/src/rDock_2013.1_src/data/scripts/dock_solv.prm

>  <Rbt.Receptor>
prm/blind_docking_100.prm

>  <SCORE>
-34.1815

>  <SCORE.INTER>
-34.569

>  <SCORE.INTER.CONST>
1

>  <SCORE.INTER.POLAR>
0

>  <SCORE.INTER.ROT>
5

>  <SCORE.INTER.SOLV>
17.5755

>  <SCORE.INTER.VDW>
-35.8378

>  <SCORE.INTER.norm>
-1.28033

>  <SCORE.INTRA>
0.387511

>  <SCORE.INTRA.DIHEDRAL>
3.29819

>  <SCORE.INTRA.DIHEDRAL.0>
2.68224

>  <SCORE.INTRA.POLAR>
0

>  <SCORE.INTRA.POLAR.0>
0

>  <SCORE.INTRA.REPUL>
0

>  <SCORE.INTRA.REPUL.0>
0

>  <SCORE.INTRA.SOLV>
-0.573114

>  <SCORE.INTRA.SOLV.lig_0>
-19.4148

>  <SCORE.INTRA.VDW>
-0.975027

>  <SCORE.INTRA.VDW.0>
5.42093

>  <SCORE.INTRA.norm>
0.0143523

>  <SCORE.RESTR>
0

>  <SCORE.RESTR.CAVITY>
0

>  <SCORE.RESTR.norm>
0

>  <SCORE.SYSTEM>
0

>  <SCORE.SYSTEM.CONST>
0

>  <SCORE.SYSTEM.DIHEDRAL>
0

>  <SCORE.SYSTEM.SOLV>
0

>  <SCORE.SYSTEM.norm>
0

>  <SCORE.heavy>
27

>  <SCORE.norm>
-1.26598

>  <RMSD>
6.067

$$$$
lig.pdb
 OpenBabel11021811523D
libRbt.so/2013.1/901 2013/11/27
 27 30  0  0  0  0  0  0  0  0999 V2000
   27.8529   38.4310   16.9109 N   0  0  0  0  0  0  0  0  0  0  0  0
   26.6871   38.2851   17.4904 C   0  0  0  0  0  0  0  0  0  0  0  0
   25.9031   39.3044   17.9233 N   0  0  0  0  0  0  0  0  0  0  0  0
   26.3194   40.5876   17.7059 C   0  0  0  0  0  0  0  0  0  0  0  0
   27.5092   40.8338   17.0830 C   0  0  0  0  0  0  0  0  0  0  0  0
   28.3315   39.7193   16.6760 C   0  0  0  0  0  0  0  0  0  0  0  0
   29.4443   39.8624   16.1544 O   0  0  0  0  0  0  0  0  0  0  0  0
   26.1382   36.9075   17.9225 C   0  0  2  0  0  0  0  0  0  0  0  0
   26.9619   36.6174   19.1878 C   0  0  0  0  0  0  0  0  0  0  0  0
   26.7869   35.2375   19.6444 N   0  0  0  0  0  0  0  0  0  0  0  0
   27.2796   34.3207   18.6038 C   0  0  0  0  0  0  0  0  0  0  0  0
   26.4643   34.4596   17.3333 C   0  0  0  0  0  0  0  0  0  0  0  0
   26.4913   35.8931   16.8215 C   0  0  0  0  0  0  0  0  0  0  0  0
   25.3591   41.5732   18.1840 C   0  0  0  0  0  0  0  0  0  0  0  0
   25.4471   43.2269   17.7015 S   0  0  0  0  0  0  0  0  0  0  0  0
   24.1199   43.6359   18.6407 C   0  0  0  0  0  0  0  0  0  0  0  0
   23.5953   42.5693   19.2573 C   0  0  0  0  0  0  0  0  0  0  0  0
   24.2997   41.3743   19.0128 C   0  0  0  0  0  0  0  0  0  0  0  0
   27.4818   34.9869   20.9193 C   0  0  0  0  0  0  0  0  0  0  0  0
   27.0145   35.8164   22.0944 C   0  0  0  0  0  0  0  0  0  0  0  0
   27.6119   37.0315   22.3962 C   0  0  0  0  0  0  0  0  0  0  0  0
   27.5157   37.6490   23.5876 N   0  0  0  0  0  0  0  0  0  0  0  0
   26.8210   36.9770   24.4933 C   0  0  0  0  0  0  0  0  0  0  0  0
   26.2311   35.7988   24.3693 N   0  0  0  0  0  0  0  0  0  0  0  0
   26.3666   35.2301   23.1622 C   0  0  0  0  0  0  0  0  0  0  0  0
   26.7350   37.5900   25.6794 O   0  0  0  0  0  0  0  0  0  0  0  0
   27.9555   38.0326   26.2846 C   0  0  0  0  0  0  0  0  0  0  0  0
  1  2  2  0  0  0  0
  1  6  1  0  0  0  0
  2  3  1  0  0  0  0
  3  4  2  0  0  0  0
  4 14  1  0  0  0  0
  5  4  1  0  0  0  0
  6  5  1  0  0  0  0
  7  6  2  0  0  0  0
  8  9  1  0  0  0  0
  8  2  1  6  0  0  0
 10 19  1  0  0  0  0
 10  9  1  0  0  0  0
 11 10  1  0  0  0  0
 12 11  1  0  0  0  0
 12 13  1  0  0  0  0
 13  8  1  0  0  0  0
 14 15  1  0  0  0  0
 14 18  2  0  0  0  0
 15 16  1  0  0  0  0
 16 17  2  0  0  0  0
 18 17  1  0  0  0  0
 19 20  1  0  0  0  0
 20 25  2  0  0  0  0
 20 21  1  0  0  0  0
 21 22  2  0  0  0  0
 22 23  1  0  0  0  0
 23 26  1  0  0  0  0
 24 23  2  0  0  0  0
 25 24  1  0  0  0  0
 26 27  1  0  0  0  0
M  END
>  <CHROM.1>
-164.91569527,75.66377889,61.44255257,-91.38435111,-51.64276097,26.59850571
38.42217293,19.76022586,-2.08156251,-1.29492654,1.80102942

>  <Name>
lig.pdb

>  <RI>
0

>  <Rbt.Current_Directory>
/home/itssahil/PROJECTS/Mol_Feturizer/New_Systems/rnas/5kx9

>  <Rbt.Executable>
rbdock ($Id: //depot/dev/client3/rdock/2013.1/src/exe/rbdock.cxx#4 $)

>  <Rbt.Library>
libRbt.so (2013.1, Build901 2013/11/27)

>  <Rbt.Parameter_File>
/export/apps/rDock/src/rDock_2013.1_src/data/scripts/dock_solv.prm

>  <Rbt.Receptor>
prm/blind_docking_100.prm

>  <SCORE>
-35.4375

>  <SCORE.INTER>
-30.6534

>  <SCORE.INTER.CONST>
1

>  <SCORE.INTER.POLAR>
0

>  <SCORE.INTER.ROT>
5

>  <SCORE.INTER.SOLV>
15.2312

>  <SCORE.INTER.VDW>
-32.446

>  <SCORE.INTER.norm>
-1.13531

>  <SCORE.INTRA>
-4.78408

>  <SCORE.INTRA.DIHEDRAL>
2.23571

>  <SCORE.INTRA.DIHEDRAL.0>
2.68224

>  <SCORE.INTRA.POLAR>
0

>  <SCORE.INTRA.POLAR.0>
0

>  <SCORE.INTRA.REPUL>
0

>  <SCORE.INTRA.REPUL.0>
0

>  <SCORE.INTRA.SOLV>
-0.648644

>  <SCORE.INTRA.SOLV.lig_0>
-19.4148

>  <SCORE.INTRA.VDW>
-5.57761

>  <SCORE.INTRA.VDW.0>
5.42093

>  <SCORE.INTRA.norm>
-0.177188

>  <SCORE.RESTR>
0

>  <SCORE.RESTR.CAVITY>
0

>  <SCORE.RESTR.norm>
0

>  <SCORE.SYSTEM>
0

>  <SCORE.SYSTEM.CONST>
0

>  <SCORE.SYSTEM.DIHEDRAL>
0

>  <SCORE.SYSTEM.SOLV>
0

>  <SCORE.SYSTEM.norm>
0

>  <SCORE.heavy>
27

>  <SCORE.norm>
-1.3125

>  <RMSD>
6.085

$$$$
lig.pdb
 OpenBabel11021811523D
libRbt.so/2013.1/901 2013/11/27
 27 30  0  0  0  0  0  0  0  0999 V2000
   28.5829   41.2065   22.2143 N   0  0  0  0  0  0  0  0  0  0  0  0
   28.4950   40.2988   21.2738 C   0  0  0  0  0  0  0  0  0  0  0  0
   28.0932   39.0174   21.4678 N   0  0  0  0  0  0  0  0  0  0  0  0
   27.7012   38.6373   22.7204 C   0  0  0  0  0  0  0  0  0  0  0  0
   27.7333   39.5266   23.7560 C   0  0  0  0  0  0  0  0  0  0  0  0
   28.2072   40.8684   23.5137 C   0  0  0  0  0  0  0  0  0  0  0  0
   28.3147   41.7137   24.4108 O   0  0  0  0  0  0  0  0  0  0  0  0
   29.0209   40.5310   19.8402 C   0  0  2  0  0  0  0  0  0  0  0  0
   27.8780   39.9615   18.9840 C   0  0  0  0  0  0  0  0  0  0  0  0
   28.2600   39.8486   17.5753 N   0  0  0  0  0  0  0  0  0  0  0  0
   29.3836   38.9055   17.4560 C   0  0  0  0  0  0  0  0  0  0  0  0
   30.6033   39.4247   18.1916 C   0  0  0  0  0  0  0  0  0  0  0  0
   30.2883   39.6784   19.6593 C   0  0  0  0  0  0  0  0  0  0  0  0
   27.2566   37.2508   22.7681 C   0  0  0  0  0  0  0  0  0  0  0  0
   26.4896   36.5968   24.1678 S   0  0  0  0  0  0  0  0  0  0  0  0
   26.3464   35.0843   23.4586 C   0  0  0  0  0  0  0  0  0  0  0  0
   26.8094   35.0749   22.2022 C   0  0  0  0  0  0  0  0  0  0  0  0
   27.3445   36.3108   21.7897 C   0  0  0  0  0  0  0  0  0  0  0  0
   27.1330   39.4125   16.7322 C   0  0  0  0  0  0  0  0  0  0  0  0
   26.5954   38.0287   17.0215 C   0  0  0  0  0  0  0  0  0  0  0  0
   26.5537   37.0555   16.0337 C   0  0  0  0  0  0  0  0  0  0  0  0
   25.7894   35.9498   16.0899 N   0  0  0  0  0  0  0  0  0  0  0  0
   25.0267   35.8710   17.1700 C   0  0  0  0  0  0  0  0  0  0  0  0
   24.9264   36.7315   18.1705 N   0  0  0  0  0  0  0  0  0  0  0  0
   25.7073   37.8158   18.0555 C   0  0  0  0  0  0  0  0  0  0  0  0
   24.2616   34.7745   17.2181 O   0  0  0  0  0  0  0  0  0  0  0  0
   24.2682   34.0166   18.4335 C   0  0  0  0  0  0  0  0  0  0  0  0
  1  2  2  0  0  0  0
  1  6  1  0  0  0  0
  2  3  1  0  0  0  0
  3  4  2  0  0  0  0
  4 14  1  0  0  0  0
  5  4  1  0  0  0  0
  6  5  1  0  0  0  0
  7  6  2  0  0  0  0
  8  9  1  0  0  0  0
  8  2  1  1  0  0  0
 10 19  1  0  0  0  0
 10  9  1  0  0  0  0
 11 10  1  0  0  0  0
 12 11  1  0  0  0  0
 12 13  1  0  0  0  0
 13  8  1  0  0  0  0
 14 15  1  0  0  0  0
 14 18  2  0  0  0  0
 15 16  1  0  0  0  0
 16 17  2  0  0  0  0
 18 17  1  0  0  0  0
 19 20  1  0  0  0  0
 20 25  2  0  0  0  0
 20 21  1  0  0  0  0
 21 22  2  0  0  0  0
 22 23  1  0  0  0  0
 23 26  1  0  0  0  0
 24 23  2  0  0  0  0
 25 24  1  0  0  0  0
 26 27  1  0  0  0  0
M  END
>  <CHROM.1>
-170.59454819,-136.16532499,-63.86467039,-122.46644391,131.11296677,27.25048925
38.05787516,20.18707117,-0.96918453,-0.95946422,-1.53284768

>  <Name>
lig.pdb

>  <RI>
0

>  <Rbt.Current_Directory>
/home/itssahil/PROJECTS/Mol_Feturizer/New_Systems/rnas/5kx9

>  <Rbt.Executable>
rbdock ($Id: //depot/dev/client3/rdock/2013.1/src/exe/rbdock.cxx#4 $)

>  <Rbt.Library>
libRbt.so (2013.1, Build901 2013/11/27)

>  <Rbt.Parameter_File>
/export/apps/rDock/src/rDock_2013.1_src/data/scripts/dock_solv.prm

>  <Rbt.Receptor>
prm/pocket_docking_5.prm

>  <SCORE>
-34.3418

>  <SCORE.INTER>
-29.9933

>  <SCORE.INTER.CONST>
1

>  <SCORE.INTER.POLAR>
0

>  <SCORE.INTER.ROT>
5

>  <SCORE.INTER.SOLV>
11.4922

>  <SCORE.INTER.VDW>
-30.7596

>  <SCORE.INTER.norm>
-1.11086

>  <SCORE.INTRA>
-4.34852

>  <SCORE.INTRA.DIHEDRAL>
1.77109

>  <SCORE.INTRA.DIHEDRAL.0>
2.68224

>  <SCORE.INTRA.POLAR>
0

>  <SCORE.INTRA.POLAR.0>
0

>  <SCORE.INTRA.REPUL>
0

>  <SCORE.INTRA.REPUL.0>
0

>  <SCORE.INTRA.SOLV>
-0.544455

>  <SCORE.INTRA.SOLV.lig_0>
-19.4148

>  <SCORE.INTRA.VDW>
-4.96184

>  <SCORE.INTRA.VDW.0>
5.42093

>  <SCORE.INTRA.norm>
-0.161056

>  <SCORE.RESTR>
0

>  <SCORE.RESTR.CAVITY>
0

>  <SCORE.RESTR.norm>
0

>  <SCORE.SYSTEM>
0

>  <SCORE.SYSTEM.CONST>
0

>  <SCORE.SYSTEM.DIHEDRAL>
0

>  <SCORE.SYSTEM.SOLV>
0

>  <SCORE.SYSTEM.norm>
0

>  <SCORE.heavy>
27

>  <SCORE.norm>
-1.27192

>  <RMSD>
6.088

$$$$
lig.pdb
 OpenBabel11021811523D
libRbt.so/2013.1/901 2013/11/27
 27 30  0  0  0  0  0  0  0  0999 V2000
   26.5738   42.3709   24.2942 N   0  0  0  0  0  0  0  0  0  0  0  0
   26.8977   41.7846   23.1683 C   0  0  0  0  0  0  0  0  0  0  0  0
   27.0511   40.4462   23.0070 N   0  0  0  0  0  0  0  0  0  0  0  0
   26.8082   39.6266   24.0730 C   0  0  0  0  0  0  0  0  0  0  0  0
   26.4379   40.1498   25.2787 C   0  0  0  0  0  0  0  0  0  0  0  0
   26.3269   41.5824   25.4173 C   0  0  0  0  0  0  0  0  0  0  0  0
   26.0481   42.1326   26.4898 O   0  0  0  0  0  0  0  0  0  0  0  0
   27.3294   42.5734   21.9125 C   0  0  2  0  0  0  0  0  0  0  0  0
   26.5098   41.8882   20.8069 C   0  0  0  0  0  0  0  0  0  0  0  0
   26.9392   42.3107   19.4726 N   0  0  0  0  0  0  0  0  0  0  0  0
   28.3396   41.9068   19.2679 C   0  0  0  0  0  0  0  0  0  0  0  0
   29.2522   42.6077   20.2549 C   0  0  0  0  0  0  0  0  0  0  0  0
   28.8297   42.3190   21.6887 C   0  0  0  0  0  0  0  0  0  0  0  0
   26.9705   38.2176   23.7408 C   0  0  0  0  0  0  0  0  0  0  0  0
   26.5323   36.9723   24.8509 S   0  0  0  0  0  0  0  0  0  0  0  0
   27.0249   35.7695   23.7920 C   0  0  0  0  0  0  0  0  0  0  0  0
   27.4570   36.2729   22.6289 C   0  0  0  0  0  0  0  0  0  0  0  0
   27.4406   37.6806   22.5835 C   0  0  0  0  0  0  0  0  0  0  0  0
   26.0831   41.7466   18.4141 C   0  0  0  0  0  0  0  0  0  0  0  0
   26.3721   40.3118   18.0329 C   0  0  0  0  0  0  0  0  0  0  0  0
   26.7693   39.9787   16.7460 C   0  0  0  0  0  0  0  0  0  0  0  0
   26.7026   38.7387   16.2286 N   0  0  0  0  0  0  0  0  0  0  0  0
   26.1794   37.8366   17.0454 C   0  0  0  0  0  0  0  0  0  0  0  0
   25.7215   38.0082   18.2752 N   0  0  0  0  0  0  0  0  0  0  0  0
   25.8089   39.2655   18.7339 C   0  0  0  0  0  0  0  0  0  0  0  0
   26.1064   36.6066   16.5241 O   0  0  0  0  0  0  0  0  0  0  0  0
   27.3205   36.0211   16.0394 C   0  0  0  0  0  0  0  0  0  0  0  0
  1  2  2  0  0  0  0
  1  6  1  0  0  0  0
  2  3  1  0  0  0  0
  3  4  2  0  0  0  0
  4 14  1  0  0  0  0
  5  4  1  0  0  0  0
  6  5  1  0  0  0  0
  7  6  2  0  0  0  0
  8  9  1  0  0  0  0
  8  2  1  1  0  0  0
 10 19  1  0  0  0  0
 10  9  1  0  0  0  0
 11 10  1  0  0  0  0
 12 11  1  0  0  0  0
 12 13  1  0  0  0  0
 13  8  1  0  0  0  0
 14 15  1  0  0  0  0
 14 18  2  0  0  0  0
 15 16  1  0  0  0  0
 16 17  2  0  0  0  0
 18 17  1  0  0  0  0
 19 20  1  0  0  0  0
 20 25  2  0  0  0  0
 20 21  1  0  0  0  0
 21 22  2  0  0  0  0
 22 23  1  0  0  0  0
 23 26  1  0  0  0  0
 24 23  2  0  0  0  0
 25 24  1  0  0  0  0
 26 27  1  0  0  0  0
M  END
>  <CHROM.1>
-172.24403923,-134.12744206,-79.66967519,-118.48982978,55.99810143,26.86690515
39.68787890,21.20826657,-1.45004601,-1.46653631,-1.65824394

>  <Name>
lig.pdb

>  <RI>
0

>  <Rbt.Current_Directory>
/home/itssahil/PROJECTS/Mol_Feturizer/New_Systems/rnas/5kx9

>  <Rbt.Executable>
rbdock ($Id: //depot/dev/client3/rdock/2013.1/src/exe/rbdock.cxx#4 $)

>  <Rbt.Library>
libRbt.so (2013.1, Build901 2013/11/27)

>  <Rbt.Parameter_File>
/export/apps/rDock/src/rDock_2013.1_src/data/scripts/dock_solv.prm

>  <Rbt.Receptor>
prm/pocket_docking_7.prm

>  <SCORE>
-30.8607

>  <SCORE.INTER>
-27.4109

>  <SCORE.INTER.CONST>
1

>  <SCORE.INTER.POLAR>
0

>  <SCORE.INTER.ROT>
5

>  <SCORE.INTER.SOLV>
16.3695

>  <SCORE.INTER.VDW>
-30.6638

>  <SCORE.INTER.norm>
-1.01522

>  <SCORE.INTRA>
-3.44983

>  <SCORE.INTRA.DIHEDRAL>
2.67271

>  <SCORE.INTRA.DIHEDRAL.0>
2.68224

>  <SCORE.INTRA.POLAR>
0

>  <SCORE.INTRA.POLAR.0>
0

>  <SCORE.INTRA.REPUL>
0

>  <SCORE.INTRA.REPUL.0>
0

>  <SCORE.INTRA.SOLV>
-0.618119

>  <SCORE.INTRA.SOLV.lig_0>
-19.4148

>  <SCORE.INTRA.VDW>
-4.47712

>  <SCORE.INTRA.VDW.0>
5.42093

>  <SCORE.INTRA.norm>
-0.127771

>  <SCORE.RESTR>
0

>  <SCORE.RESTR.CAVITY>
0

>  <SCORE.RESTR.norm>
0

>  <SCORE.SYSTEM>
0

>  <SCORE.SYSTEM.CONST>
0

>  <SCORE.SYSTEM.DIHEDRAL>
0

>  <SCORE.SYSTEM.SOLV>
0

>  <SCORE.SYSTEM.norm>
0

>  <SCORE.heavy>
27

>  <SCORE.norm>
-1.14299

>  <RMSD>
6.101

$$$$
lig.pdb
 OpenBabel11021811523D
libRbt.so/2013.1/901 2013/11/27
 27 30  0  0  0  0  0  0  0  0999 V2000
   28.5175   41.3422   22.2372 N   0  0  0  0  0  0  0  0  0  0  0  0
   28.4430   40.3980   21.3321 C   0  0  0  0  0  0  0  0  0  0  0  0
   28.0578   39.1198   21.5748 N   0  0  0  0  0  0  0  0  0  0  0  0
   27.6690   38.7828   22.8406 C   0  0  0  0  0  0  0  0  0  0  0  0
   27.6878   39.7116   23.8414 C   0  0  0  0  0  0  0  0  0  0  0  0
   28.1443   41.0493   23.5482 C   0  0  0  0  0  0  0  0  0  0  0  0
   28.2393   41.9297   24.4123 O   0  0  0  0  0  0  0  0  0  0  0  0
   28.9679   40.5819   19.8912 C   0  0  2  0  0  0  0  0  0  0  0  0
   27.8141   40.0056   19.0544 C   0  0  0  0  0  0  0  0  0  0  0  0
   28.1901   39.8476   17.6484 N   0  0  0  0  0  0  0  0  0  0  0  0
   29.2993   38.8848   17.5527 C   0  0  0  0  0  0  0  0  0  0  0  0
   30.5287   39.4062   18.2703 C   0  0  0  0  0  0  0  0  0  0  0  0
   30.2219   39.7058   19.7310 C   0  0  0  0  0  0  0  0  0  0  0  0
   27.2426   37.3935   22.9411 C   0  0  0  0  0  0  0  0  0  0  0  0
   27.4638   36.2852   21.6380 S   0  0  0  0  0  0  0  0  0  0  0  0
   26.7375   35.0391   22.4928 C   0  0  0  0  0  0  0  0  0  0  0  0
   26.3841   35.4187   23.7273 C   0  0  0  0  0  0  0  0  0  0  0  0
   26.6597   36.7727   24.0010 C   0  0  0  0  0  0  0  0  0  0  0  0
   27.0542   39.4048   16.8208 C   0  0  0  0  0  0  0  0  0  0  0  0
   26.5367   38.0132   17.1091 C   0  0  0  0  0  0  0  0  0  0  0  0
   26.5523   37.0268   16.1337 C   0  0  0  0  0  0  0  0  0  0  0  0
   25.8107   35.9052   16.1772 N   0  0  0  0  0  0  0  0  0  0  0  0
   25.0109   35.8232   17.2299 C   0  0  0  0  0  0  0  0  0  0  0  0
   24.8554   36.6939   18.2143 N   0  0  0  0  0  0  0  0  0  0  0  0
   25.6162   37.7938   18.1131 C   0  0  0  0  0  0  0  0  0  0  0  0
   24.2686   34.7106   17.2650 O   0  0  0  0  0  0  0  0  0  0  0  0
   24.2267   33.9826   18.4979 C   0  0  0  0  0  0  0  0  0  0  0  0
  1  2  2  0  0  0  0
  1  6  1  0  0  0  0
  2  3  1  0  0  0  0
  3  4  2  0  0  0  0
  4 14  1  0  0  0  0
  5  4  1  0  0  0  0
  6  5  1  0  0  0  0
  7  6  2  0  0  0  0
  8  9  1  0  0  0  0
  8  2  1  1  0  0  0
 10 19  1  0  0  0  0
 10  9  1  0  0  0  0
 11 10  1  0  0  0  0
 12 11  1  0  0  0  0
 12 13  1  0  0  0  0
 13  8  1  0  0  0  0
 14 15  1  0  0  0  0
 14 18  2  0  0  0  0
 15 16  1  0  0  0  0
 16 17  2  0  0  0  0
 18 17  1  0  0  0  0
 19 20  1  0  0  0  0
 20 25  2  0  0  0  0
 20 21  1  0  0  0  0
 21 22  2  0  0  0  0
 22 23  1  0  0  0  0
 23 26  1  0  0  0  0
 24 23  2  0  0  0  0
 25 24  1  0  0  0  0
 26 27  1  0  0  0  0
M  END
>  <CHROM.1>
8.92777529,-134.43557672,-66.48166272,-119.16459636,132.28888866,27.26753439
38.09179742,20.12815383,-0.81887482,-0.99344383,-1.51589985

>  <Name>
lig.pdb

>  <RI>
0

>  <Rbt.Current_Directory>
/home/itssahil/PROJECTS/Mol_Feturizer/New_Systems/rnas/5kx9

>  <Rbt.Executable>
rbdock ($Id: //depot/dev/client3/rdock/2013.1/src/exe/rbdock.cxx#4 $)

>  <Rbt.Library>
libRbt.so (2013.1, Build901 2013/11/27)

>  <Rbt.Parameter_File>
/export/apps/rDock/src/rDock_2013.1_src/data/scripts/dock_solv.prm

>  <Rbt.Receptor>
prm/blind_docking_80.prm

>  <SCORE>
-34.3916

>  <SCORE.INTER>
-29.6779

>  <SCORE.INTER.CONST>
1

>  <SCORE.INTER.POLAR>
0

>  <SCORE.INTER.ROT>
5

>  <SCORE.INTER.SOLV>
10.9522

>  <SCORE.INTER.VDW>
-30.3693

>  <SCORE.INTER.norm>
-1.09918

>  <SCORE.INTRA>
-4.71371

>  <SCORE.INTRA.DIHEDRAL>
1.63655

>  <SCORE.INTRA.DIHEDRAL.0>
2.68224

>  <SCORE.INTRA.POLAR>
0

>  <SCORE.INTRA.POLAR.0>
0

>  <SCORE.INTRA.REPUL>
0

>  <SCORE.INTRA.REPUL.0>
0

>  <SCORE.INTRA.SOLV>
-0.446621

>  <SCORE.INTRA.SOLV.lig_0>
-19.4148

>  <SCORE.INTRA.VDW>
-5.30868

>  <SCORE.INTRA.VDW.0>
5.42093

>  <SCORE.INTRA.norm>
-0.174582

>  <SCORE.RESTR>
0

>  <SCORE.RESTR.CAVITY>
0

>  <SCORE.RESTR.norm>
0

>  <SCORE.SYSTEM>
0

>  <SCORE.SYSTEM.CONST>
0

>  <SCORE.SYSTEM.DIHEDRAL>
0

>  <SCORE.SYSTEM.SOLV>
0

>  <SCORE.SYSTEM.norm>
0

>  <SCORE.heavy>
27

>  <SCORE.norm>
-1.27376

>  <RMSD>
6.107

$$$$
lig.pdb
 OpenBabel11021811523D
libRbt.so/2013.1/901 2013/11/27
 27 30  0  0  0  0  0  0  0  0999 V2000
   27.3422   37.9385   22.8666 N   0  0  0  0  0  0  0  0  0  0  0  0
   27.7387   39.0121   22.2292 C   0  0  0  0  0  0  0  0  0  0  0  0
   28.1621   40.1555   22.8245 N   0  0  0  0  0  0  0  0  0  0  0  0
   28.2332   40.1953   24.1885 C   0  0  0  0  0  0  0  0  0  0  0  0
   27.8664   39.1112   24.9332 C   0  0  0  0  0  0  0  0  0  0  0  0
   27.3823   37.9294   24.2603 C   0  0  0  0  0  0  0  0  0  0  0  0
   26.9827   36.9283   24.8677 O   0  0  0  0  0  0  0  0  0  0  0  0
   27.5971   39.1727   20.6996 C   0  0  2  0  0  0  0  0  0  0  0  0
   29.0560   39.3853   20.2637 C   0  0  0  0  0  0  0  0  0  0  0  0
   29.1482   39.8077   18.8651 N   0  0  0  0  0  0  0  0  0  0  0  0
   28.4706   41.1049   18.7090 C   0  0  0  0  0  0  0  0  0  0  0  0
   26.9928   40.9821   19.0243 C   0  0  0  0  0  0  0  0  0  0  0  0
   26.7781   40.4471   20.4333 C   0  0  0  0  0  0  0  0  0  0  0  0
   28.7438   41.4670   24.6827 C   0  0  0  0  0  0  0  0  0  0  0  0
   28.9881   41.7481   26.3669 S   0  0  0  0  0  0  0  0  0  0  0  0
   29.5120   43.3169   26.0922 C   0  0  0  0  0  0  0  0  0  0  0  0
   29.5516   43.6098   24.7863 C   0  0  0  0  0  0  0  0  0  0  0  0
   29.1057   42.5601   23.9597 C   0  0  0  0  0  0  0  0  0  0  0  0
   30.5462   39.9016   18.4090 C   0  0  0  0  0  0  0  0  0  0  0  0
   31.2764   38.5855   18.2595 C   0  0  0  0  0  0  0  0  0  0  0  0
   32.5907   38.4438   18.6804 C   0  0  0  0  0  0  0  0  0  0  0  0
   33.4143   37.4593   18.2772 N   0  0  0  0  0  0  0  0  0  0  0  0
   32.8787   36.6307   17.3935 C   0  0  0  0  0  0  0  0  0  0  0  0
   31.6635   36.6598   16.8701 N   0  0  0  0  0  0  0  0  0  0  0  0
   30.8914   37.6664   17.3054 C   0  0  0  0  0  0  0  0  0  0  0  0
   33.7037   35.6584   16.9883 O   0  0  0  0  0  0  0  0  0  0  0  0
   33.1696   34.6626   16.1081 C   0  0  0  0  0  0  0  0  0  0  0  0
  1  2  2  0  0  0  0
  1  6  1  0  0  0  0
  2  3  1  0  0  0  0
  3  4  2  0  0  0  0
  4 14  1  0  0  0  0
  5  4  1  0  0  0  0
  6  5  1  0  0  0  0
  7  6  2  0  0  0  0
  8  9  1  0  0  0  0
  8  2  1  1  0  0  0
 10 19  1  0  0  0  0
 10  9  1  0  0  0  0
 11 10  1  0  0  0  0
 12 11  1  0  0  0  0
 12 13  1  0  0  0  0
 13  8  1  0  0  0  0
 14 15  1  0  0  0  0
 14 18  2  0  0  0  0
 15 16  1  0  0  0  0
 16 17  2  0  0  0  0
 18 17  1  0  0  0  0
 19 20  1  0  0  0  0
 20 25  2  0  0  0  0
 20 21  1  0  0  0  0
 21 22  2  0  0  0  0
 22 23  1  0  0  0  0
 23 26  1  0  0  0  0
 24 23  2  0  0  0  0
 25 24  1  0  0  0  0
 26 27  1  0  0  0  0
M  END
>  <CHROM.1>
-177.56381543,-121.16777031,69.83398581,-138.12486261,175.49237432,29.53919581
39.33857868,21.24734662,2.78345699,1.12658049,-0.10414742

>  <Name>
lig.pdb

>  <RI>
0

>  <Rbt.Current_Directory>
/home/itssahil/PROJECTS/Mol_Feturizer/New_Systems/rnas/5kx9

>  <Rbt.Executable>
rbdock ($Id: //depot/dev/client3/rdock/2013.1/src/exe/rbdock.cxx#4 $)

>  <Rbt.Library>
libRbt.so (2013.1, Build901 2013/11/27)

>  <Rbt.Parameter_File>
/export/apps/rDock/src/rDock_2013.1_src/data/scripts/dock_solv.prm

>  <Rbt.Receptor>
prm/pocket_docking_8.prm

>  <SCORE>
-28.0445

>  <SCORE.INTER>
-23.7842

>  <SCORE.INTER.CONST>
1

>  <SCORE.INTER.POLAR>
0

>  <SCORE.INTER.ROT>
5

>  <SCORE.INTER.SOLV>
12.5175

>  <SCORE.INTER.VDW>
-26.962

>  <SCORE.INTER.norm>
-0.880898

>  <SCORE.INTRA>
-4.26027

>  <SCORE.INTRA.DIHEDRAL>
-0.536772

>  <SCORE.INTRA.DIHEDRAL.0>
2.68224

>  <SCORE.INTRA.POLAR>
0

>  <SCORE.INTRA.POLAR.0>
0

>  <SCORE.INTRA.REPUL>
0

>  <SCORE.INTRA.REPUL.0>
0

>  <SCORE.INTRA.SOLV>
-0.635395

>  <SCORE.INTRA.SOLV.lig_0>
-19.4148

>  <SCORE.INTRA.VDW>
-3.67418

>  <SCORE.INTRA.VDW.0>
5.42093

>  <SCORE.INTRA.norm>
-0.157788

>  <SCORE.RESTR>
0

>  <SCORE.RESTR.CAVITY>
0

>  <SCORE.RESTR.norm>
0

>  <SCORE.SYSTEM>
0

>  <SCORE.SYSTEM.CONST>
0

>  <SCORE.SYSTEM.DIHEDRAL>
0

>  <SCORE.SYSTEM.SOLV>
0

>  <SCORE.SYSTEM.norm>
0

>  <SCORE.heavy>
27

>  <SCORE.norm>
-1.03869

>  <RMSD>
6.123

$$$$
lig.pdb
 OpenBabel11021811523D
libRbt.so/2013.1/901 2013/11/27
 27 30  0  0  0  0  0  0  0  0999 V2000
   27.8774   38.6546   16.9110 N   0  0  0  0  0  0  0  0  0  0  0  0
   26.7061   38.4743   17.4694 C   0  0  0  0  0  0  0  0  0  0  0  0
   25.8946   39.4694   17.9080 N   0  0  0  0  0  0  0  0  0  0  0  0
   26.2875   40.7645   17.7202 C   0  0  0  0  0  0  0  0  0  0  0  0
   27.4815   41.0462   17.1206 C   0  0  0  0  0  0  0  0  0  0  0  0
   28.3328   39.9564   16.7068 C   0  0  0  0  0  0  0  0  0  0  0  0
   29.4503   40.1317   16.2054 O   0  0  0  0  0  0  0  0  0  0  0  0
   26.1793   37.0782   17.8680 C   0  0  2  0  0  0  0  0  0  0  0  0
   27.0062   36.7717   19.1273 C   0  0  0  0  0  0  0  0  0  0  0  0
   26.8532   35.3787   19.5509 N   0  0  0  0  0  0  0  0  0  0  0  0
   27.3620   34.4949   18.4897 C   0  0  0  0  0  0  0  0  0  0  0  0
   26.5459   34.6504   17.2217 C   0  0  0  0  0  0  0  0  0  0  0  0
   26.5501   36.0959   16.7439 C   0  0  0  0  0  0  0  0  0  0  0  0
   25.2997   41.7214   18.2007 C   0  0  0  0  0  0  0  0  0  0  0  0
   25.3640   43.3861   17.7537 S   0  0  0  0  0  0  0  0  0  0  0  0
   24.0125   43.7501   18.6766 C   0  0  0  0  0  0  0  0  0  0  0  0
   23.4979   42.6611   19.2615 C   0  0  0  0  0  0  0  0  0  0  0  0
   24.2298   41.4851   19.0056 C   0  0  0  0  0  0  0  0  0  0  0  0
   27.5508   35.1093   20.8206 C   0  0  0  0  0  0  0  0  0  0  0  0
   27.0358   35.8662   22.0245 C   0  0  0  0  0  0  0  0  0  0  0  0
   27.5782   37.0908   22.3864 C   0  0  0  0  0  0  0  0  0  0  0  0
   27.4428   37.6508   23.6022 N   0  0  0  0  0  0  0  0  0  0  0  0
   26.7670   36.9113   24.4687 C   0  0  0  0  0  0  0  0  0  0  0  0
   26.2288   35.7162   24.2861 N   0  0  0  0  0  0  0  0  0  0  0  0
   26.4015   35.2072   23.0573 C   0  0  0  0  0  0  0  0  0  0  0  0
   26.6422   37.4676   25.6791 O   0  0  0  0  0  0  0  0  0  0  0  0
   27.8316   37.9631   26.3047 C   0  0  0  0  0  0  0  0  0  0  0  0
  1  2  2  0  0  0  0
  1  6  1  0  0  0  0
  2  3  1  0  0  0  0
  3  4  2  0  0  0  0
  4 14  1  0  0  0  0
  5  4  1  0  0  0  0
  6  5  1  0  0  0  0
  7  6  2  0  0  0  0
  8  9  1  0  0  0  0
  8  2  1  6  0  0  0
 10 19  1  0  0  0  0
 10  9  1  0  0  0  0
 11 10  1  0  0  0  0
 12 11  1  0  0  0  0
 12 13  1  0  0  0  0
 13  8  1  0  0  0  0
 14 15  1  0  0  0  0
 14 18  2  0  0  0  0
 15 16  1  0  0  0  0
 16 17  2  0  0  0  0
 18 17  1  0  0  0  0
 19 20  1  0  0  0  0
 20 25  2  0  0  0  0
 20 21  1  0  0  0  0
 21 22  2  0  0  0  0
 22 23  1  0  0  0  0
 23 26  1  0  0  0  0
 24 23  2  0  0  0  0
 25 24  1  0  0  0  0
 26 27  1  0  0  0  0
M  END
>  <CHROM.1>
-165.13159173,74.75034103,63.56132406,-91.84305670,-50.15750261,26.58347816
38.53477377,19.73916502,-2.04495991,-1.26913067,1.86163510

>  <Name>
lig.pdb

>  <RI>
0

>  <Rbt.Current_Directory>
/home/itssahil/PROJECTS/Mol_Feturizer/New_Systems/rnas/5kx9

>  <Rbt.Executable>
rbdock ($Id: //depot/dev/client3/rdock/2013.1/src/exe/rbdock.cxx#4 $)

>  <Rbt.Library>
libRbt.so (2013.1, Build901 2013/11/27)

>  <Rbt.Parameter_File>
/export/apps/rDock/src/rDock_2013.1_src/data/scripts/dock_solv.prm

>  <Rbt.Receptor>
prm/blind_docking_60.prm

>  <SCORE>
-35.4421

>  <SCORE.INTER>
-30.613

>  <SCORE.INTER.CONST>
1

>  <SCORE.INTER.POLAR>
0

>  <SCORE.INTER.ROT>
5

>  <SCORE.INTER.SOLV>
15.2386

>  <SCORE.INTER.VDW>
-32.4215

>  <SCORE.INTER.norm>
-1.13381

>  <SCORE.INTRA>
-4.82906

>  <SCORE.INTRA.DIHEDRAL>
2.11762

>  <SCORE.INTRA.DIHEDRAL.0>
2.68224

>  <SCORE.INTRA.POLAR>
0

>  <SCORE.INTRA.POLAR.0>
0

>  <SCORE.INTRA.REPUL>
0

>  <SCORE.INTRA.REPUL.0>
0

>  <SCORE.INTRA.SOLV>
-0.652763

>  <SCORE.INTRA.SOLV.lig_0>
-19.4148

>  <SCORE.INTRA.VDW>
-5.56148

>  <SCORE.INTRA.VDW.0>
5.42093

>  <SCORE.INTRA.norm>
-0.178854

>  <SCORE.RESTR>
0

>  <SCORE.RESTR.CAVITY>
0

>  <SCORE.RESTR.norm>
0

>  <SCORE.SYSTEM>
0

>  <SCORE.SYSTEM.CONST>
0

>  <SCORE.SYSTEM.DIHEDRAL>
0

>  <SCORE.SYSTEM.SOLV>
0

>  <SCORE.SYSTEM.norm>
0

>  <SCORE.heavy>
27

>  <SCORE.norm>
-1.31267

>  <RMSD>
6.124

$$$$
lig.pdb
 OpenBabel11021811523D
libRbt.so/2013.1/901 2013/11/27
 27 30  0  0  0  0  0  0  0  0999 V2000
   29.3207   41.1816   20.8908 N   0  0  0  0  0  0  0  0  0  0  0  0
   29.2574   40.0166   20.2950 C   0  0  0  0  0  0  0  0  0  0  0  0
   28.7515   38.8873   20.8516 N   0  0  0  0  0  0  0  0  0  0  0  0
   28.2200   38.9588   22.1084 C   0  0  0  0  0  0  0  0  0  0  0  0
   28.2179   40.1400   22.7934 C   0  0  0  0  0  0  0  0  0  0  0  0
   28.8040   41.3077   22.1797 C   0  0  0  0  0  0  0  0  0  0  0  0
   28.8865   42.3987   22.7573 O   0  0  0  0  0  0  0  0  0  0  0  0
   29.9283   39.7408   18.9314 C   0  0  2  0  0  0  0  0  0  0  0  0
   29.0736   38.5871   18.3818 C   0  0  0  0  0  0  0  0  0  0  0  0
   29.6757   37.9858   17.1905 N   0  0  0  0  0  0  0  0  0  0  0  0
   30.9798   37.4067   17.5511 C   0  0  0  0  0  0  0  0  0  0  0  0
   31.9373   38.4851   18.0187 C   0  0  0  0  0  0  0  0  0  0  0  0
   31.3611   39.2509   19.2016 C   0  0  0  0  0  0  0  0  0  0  0  0
   27.6779   37.6834   22.5573 C   0  0  0  0  0  0  0  0  0  0  0  0
   27.0083   37.4927   24.1354 S   0  0  0  0  0  0  0  0  0  0  0  0
   26.6791   35.8708   23.8672 C   0  0  0  0  0  0  0  0  0  0  0  0
   27.0109   35.4913   22.6267 C   0  0  0  0  0  0  0  0  0  0  0  0
   27.5945   36.5189   21.8604 C   0  0  0  0  0  0  0  0  0  0  0  0
   28.8058   36.9574   16.5930 C   0  0  0  0  0  0  0  0  0  0  0  0
   27.5509   36.6284   17.3705 C   0  0  0  0  0  0  0  0  0  0  0  0
   27.5489   35.6372   18.3412 C   0  0  0  0  0  0  0  0  0  0  0  0
   26.4394   35.0429   18.8162 N   0  0  0  0  0  0  0  0  0  0  0  0
   25.3164   35.4553   18.2477 C   0  0  0  0  0  0  0  0  0  0  0  0
   25.1619   36.3547   17.2892 N   0  0  0  0  0  0  0  0  0  0  0  0
   26.3031   36.9078   16.8525 C   0  0  0  0  0  0  0  0  0  0  0  0
   24.2160   34.8556   18.7163 O   0  0  0  0  0  0  0  0  0  0  0  0
   22.9711   35.5479   18.5662 C   0  0  0  0  0  0  0  0  0  0  0  0
  1  2  2  0  0  0  0
  1  6  1  0  0  0  0
  2  3  1  0  0  0  0
  3  4  2  0  0  0  0
  4 14  1  0  0  0  0
  5  4  1  0  0  0  0
  6  5  1  0  0  0  0
  7  6  2  0  0  0  0
  8  9  1  0  0  0  0
  8  2  1  1  0  0  0
 10 19  1  0  0  0  0
 10  9  1  0  0  0  0
 11 10  1  0  0  0  0
 12 11  1  0  0  0  0
 12 13  1  0  0  0  0
 13  8  1  0  0  0  0
 14 15  1  0  0  0  0
 14 18  2  0  0  0  0
 15 16  1  0  0  0  0
 16 17  2  0  0  0  0
 18 17  1  0  0  0  0
 19 20  1  0  0  0  0
 20 25  2  0  0  0  0
 20 21  1  0  0  0  0
 21 22  2  0  0  0  0
 22 23  1  0  0  0  0
 23 26  1  0  0  0  0
 24 23  2  0  0  0  0
 25 24  1  0  0  0  0
 26 27  1  0  0  0  0
M  END
>  <CHROM.1>
177.44235553,-154.68365997,-5.48655298,-89.41091610,156.74393866,27.89153752
37.79545916,20.06745628,-0.83937749,-0.69671956,-1.91415088

>  <Name>
lig.pdb

>  <RI>
0

>  <Rbt.Current_Directory>
/home/itssahil/PROJECTS/Mol_Feturizer/New_Systems/rnas/5kx9

>  <Rbt.Executable>
rbdock ($Id: //depot/dev/client3/rdock/2013.1/src/exe/rbdock.cxx#4 $)

>  <Rbt.Library>
libRbt.so (2013.1, Build901 2013/11/27)

>  <Rbt.Parameter_File>
/export/apps/rDock/src/rDock_2013.1_src/data/scripts/dock_solv.prm

>  <Rbt.Receptor>
prm/pocket_docking_6.prm

>  <SCORE>
-28.7307

>  <SCORE.INTER>
-28.8094

>  <SCORE.INTER.CONST>
1

>  <SCORE.INTER.POLAR>
0

>  <SCORE.INTER.ROT>
5

>  <SCORE.INTER.SOLV>
10.4968

>  <SCORE.INTER.VDW>
-29.6385

>  <SCORE.INTER.norm>
-1.06701

>  <SCORE.INTRA>
0.0786818

>  <SCORE.INTRA.DIHEDRAL>
1.73587

>  <SCORE.INTRA.DIHEDRAL.0>
2.68224

>  <SCORE.INTRA.POLAR>
0

>  <SCORE.INTRA.POLAR.0>
0

>  <SCORE.INTRA.REPUL>
0

>  <SCORE.INTRA.REPUL.0>
0

>  <SCORE.INTRA.SOLV>
-0.232049

>  <SCORE.INTRA.SOLV.lig_0>
-19.4148

>  <SCORE.INTRA.VDW>
-0.673227

>  <SCORE.INTRA.VDW.0>
5.42093

>  <SCORE.INTRA.norm>
0.00291414

>  <SCORE.RESTR>
0

>  <SCORE.RESTR.CAVITY>
0

>  <SCORE.RESTR.norm>
0

>  <SCORE.SYSTEM>
0

>  <SCORE.SYSTEM.CONST>
0

>  <SCORE.SYSTEM.DIHEDRAL>
0

>  <SCORE.SYSTEM.SOLV>
0

>  <SCORE.SYSTEM.norm>
0

>  <SCORE.heavy>
27

>  <SCORE.norm>
-1.0641

>  <RMSD>
6.139

$$$$
lig.pdb
 OpenBabel11021811523D
libRbt.so/2013.1/901 2013/11/27
 27 30  0  0  0  0  0  0  0  0999 V2000
   28.5502   41.4452   21.9836 N   0  0  0  0  0  0  0  0  0  0  0  0
   28.4418   40.4482   21.1406 C   0  0  0  0  0  0  0  0  0  0  0  0
   28.0522   39.1914   21.4719 N   0  0  0  0  0  0  0  0  0  0  0  0
   27.6963   38.9366   22.7663 C   0  0  0  0  0  0  0  0  0  0  0  0
   27.7516   39.9246   23.7072 C   0  0  0  0  0  0  0  0  0  0  0  0
   28.2116   41.2369   23.3200 C   0  0  0  0  0  0  0  0  0  0  0  0
   28.3388   42.1675   24.1254 O   0  0  0  0  0  0  0  0  0  0  0  0
   28.9274   40.5381   19.6772 C   0  0  2  0  0  0  0  0  0  0  0  0
   27.7620   39.8890   18.9129 C   0  0  0  0  0  0  0  0  0  0  0  0
   28.1050   39.6382   17.5120 N   0  0  0  0  0  0  0  0  0  0  0  0
   29.2261   38.6863   17.4545 C   0  0  0  0  0  0  0  0  0  0  0  0
   30.4650   39.2734   18.1017 C   0  0  0  0  0  0  0  0  0  0  0  0
   30.1904   39.6701   19.5456 C   0  0  0  0  0  0  0  0  0  0  0  0
   27.2605   37.5606   22.9636 C   0  0  0  0  0  0  0  0  0  0  0  0
   27.4263   36.3747   21.7221 S   0  0  0  0  0  0  0  0  0  0  0  0
   26.7181   35.1899   22.6737 C   0  0  0  0  0  0  0  0  0  0  0  0
   26.4110   35.6459   23.8946 C   0  0  0  0  0  0  0  0  0  0  0  0
   26.7086   37.0104   24.0777 C   0  0  0  0  0  0  0  0  0  0  0  0
   26.9556   39.1231   16.7472 C   0  0  0  0  0  0  0  0  0  0  0  0
   26.5021   37.7260   17.1072 C   0  0  0  0  0  0  0  0  0  0  0  0
   26.4855   36.7120   16.1605 C   0  0  0  0  0  0  0  0  0  0  0  0
   25.7841   35.5706   16.2837 N   0  0  0  0  0  0  0  0  0  0  0  0
   25.0574   35.4961   17.3886 C   0  0  0  0  0  0  0  0  0  0  0  0
   24.9388   36.3905   18.3568 N   0  0  0  0  0  0  0  0  0  0  0  0
   25.6562   37.5091   18.1753 C   0  0  0  0  0  0  0  0  0  0  0  0
   24.3544   34.3635   17.5033 O   0  0  0  0  0  0  0  0  0  0  0  0
   24.7478   33.4421   18.5270 C   0  0  0  0  0  0  0  0  0  0  0  0
  1  2  2  0  0  0  0
  1  6  1  0  0  0  0
  2  3  1  0  0  0  0
  3  4  2  0  0  0  0
  4 14  1  0  0  0  0
  5  4  1  0  0  0  0
  6  5  1  0  0  0  0
  7  6  2  0  0  0  0
  8  9  1  0  0  0  0
  8  2  1  1  0  0  0
 10 19  1  0  0  0  0
 10  9  1  0  0  0  0
 11 10  1  0  0  0  0
 12 11  1  0  0  0  0
 12 13  1  0  0  0  0
 13  8  1  0  0  0  0
 14 15  1  0  0  0  0
 14 18  2  0  0  0  0
 15 16  1  0  0  0  0
 16 17  2  0  0  0  0
 18 17  1  0  0  0  0
 19 20  1  0  0  0  0
 20 25  2  0  0  0  0
 20 21  1  0  0  0  0
 21 22  2  0  0  0  0
 22 23  1  0  0  0  0
 23 26  1  0  0  0  0
 24 23  2  0  0  0  0
 25 24  1  0  0  0  0
 26 27  1  0  0  0  0
M  END
>  <CHROM.1>
8.55477647,-135.91900976,-68.84089584,-120.80828007,111.25872545,27.28667531
38.02607805,20.09640221,-0.79932803,-1.02473488,-1.57275895

>  <Name>
lig.pdb

>  <RI>
0

>  <Rbt.Current_Directory>
/home/itssahil/PROJECTS/Mol_Feturizer/New_Systems/rnas/5kx9

>  <Rbt.Executable>
rbdock ($Id: //depot/dev/client3/rdock/2013.1/src/exe/rbdock.cxx#4 $)

>  <Rbt.Library>
libRbt.so (2013.1, Build901 2013/11/27)

>  <Rbt.Parameter_File>
/export/apps/rDock/src/rDock_2013.1_src/data/scripts/dock_solv.prm

>  <Rbt.Receptor>
prm/pocket_docking_4.prm

>  <SCORE>
-33.5218

>  <SCORE.INTER>
-29.1168

>  <SCORE.INTER.CONST>
1

>  <SCORE.INTER.POLAR>
0

>  <SCORE.INTER.ROT>
5

>  <SCORE.INTER.SOLV>
10.2016

>  <SCORE.INTER.VDW>
-29.7451

>  <SCORE.INTER.norm>
-1.0784

>  <SCORE.INTRA>
-4.41019

>  <SCORE.INTRA.DIHEDRAL>
3.21907

>  <SCORE.INTRA.DIHEDRAL.0>
2.68224

>  <SCORE.INTRA.POLAR>
0

>  <SCORE.INTRA.POLAR.0>
0

>  <SCORE.INTRA.REPUL>
0

>  <SCORE.INTRA.REPUL.0>
0

>  <SCORE.INTRA.SOLV>
-0.409513

>  <SCORE.INTRA.SOLV.lig_0>
-19.4148

>  <SCORE.INTRA.VDW>
-5.81497

>  <SCORE.INTRA.VDW.0>
5.42093

>  <SCORE.INTRA.norm>
-0.16334

>  <SCORE.RESTR>
0.00513062

>  <SCORE.RESTR.CAVITY>
0.00513062

>  <SCORE.RESTR.norm>
0.000190023

>  <SCORE.SYSTEM>
0

>  <SCORE.SYSTEM.CONST>
0

>  <SCORE.SYSTEM.DIHEDRAL>
0

>  <SCORE.SYSTEM.SOLV>
0

>  <SCORE.SYSTEM.norm>
0

>  <SCORE.heavy>
27

>  <SCORE.norm>
-1.24155

>  <RMSD>
6.173

$$$$
lig.pdb
 OpenBabel11021811523D
libRbt.so/2013.1/901 2013/11/27
 27 30  0  0  0  0  0  0  0  0999 V2000
   27.3937   42.3894   21.4278 N   0  0  0  0  0  0  0  0  0  0  0  0
   26.6762   41.3173   21.1993 C   0  0  0  0  0  0  0  0  0  0  0  0
   26.7182   40.1831   21.9428 N   0  0  0  0  0  0  0  0  0  0  0  0
   27.5265   40.1522   23.0440 C   0  0  0  0  0  0  0  0  0  0  0  0
   28.2889   41.2358   23.3743 C   0  0  0  0  0  0  0  0  0  0  0  0
   28.2451   42.4072   22.5318 C   0  0  0  0  0  0  0  0  0  0  0  0
   28.9454   43.4065   22.7361 O   0  0  0  0  0  0  0  0  0  0  0  0
   25.8163   41.1459   19.9278 C   0  0  2  0  0  0  0  0  0  0  0  0
   26.7488   40.3288   19.0187 C   0  0  0  0  0  0  0  0  0  0  0  0
   26.2383   40.2499   17.6488 N   0  0  0  0  0  0  0  0  0  0  0  0
   26.1792   41.6056   17.0790 C   0  0  0  0  0  0  0  0  0  0  0  0
   25.2046   42.4726   17.8514 C   0  0  0  0  0  0  0  0  0  0  0  0
   25.5842   42.5414   19.3241 C   0  0  0  0  0  0  0  0  0  0  0  0
   27.4361   38.8903   23.7662 C   0  0  0  0  0  0  0  0  0  0  0  0
   27.7536   38.7944   25.4588 S   0  0  0  0  0  0  0  0  0  0  0  0
   27.4827   37.1400   25.4788 C   0  0  0  0  0  0  0  0  0  0  0  0
   27.1197   36.6778   24.2757 C   0  0  0  0  0  0  0  0  0  0  0  0
   27.0948   37.6691   23.2754 C   0  0  0  0  0  0  0  0  0  0  0  0
   27.0667   39.3736   16.8020 C   0  0  0  0  0  0  0  0  0  0  0  0
   27.1827   37.9373   17.2616 C   0  0  0  0  0  0  0  0  0  0  0  0
   28.1579   37.5526   18.1701 C   0  0  0  0  0  0  0  0  0  0  0  0
   28.5602   36.2827   18.3589 N   0  0  0  0  0  0  0  0  0  0  0  0
   27.9694   35.4021   17.5652 C   0  0  0  0  0  0  0  0  0  0  0  0
   27.0588   35.6191   16.6297 N   0  0  0  0  0  0  0  0  0  0  0  0
   26.7024   36.9039   16.4839 C   0  0  0  0  0  0  0  0  0  0  0  0
   28.3785   34.1416   17.7497 O   0  0  0  0  0  0  0  0  0  0  0  0
   27.9634   33.4811   18.9509 C   0  0  0  0  0  0  0  0  0  0  0  0
  1  2  2  0  0  0  0
  1  6  1  0  0  0  0
  2  3  1  0  0  0  0
  3  4  2  0  0  0  0
  4 14  1  0  0  0  0
  5  4  1  0  0  0  0
  6  5  1  0  0  0  0
  7  6  2  0  0  0  0
  8  9  1  0  0  0  0
  8  2  1  1  0  0  0
 10 19  1  0  0  0  0
 10  9  1  0  0  0  0
 11 10  1  0  0  0  0
 12 11  1  0  0  0  0
 12 13  1  0  0  0  0
 13  8  1  0  0  0  0
 14 15  1  0  0  0  0
 14 18  2  0  0  0  0
 15 16  1  0  0  0  0
 16 17  2  0  0  0  0
 18 17  1  0  0  0  0
 19 20  1  0  0  0  0
 20 25  2  0  0  0  0
 20 21  1  0  0  0  0
 21 22  2  0  0  0  0
 22 23  1  0  0  0  0
 23 26  1  0  0  0  0
 24 23  2  0  0  0  0
 25 24  1  0  0  0  0
 26 27  1  0  0  0  0
M  END
>  <CHROM.1>
-152.90032763,96.53138466,59.69481574,-87.03286941,71.68574446,27.27555448
39.06479266,20.47665322,1.42882680,-1.36587614,0.88743912

>  <Name>
lig.pdb

>  <RI>
0

>  <Rbt.Current_Directory>
/home/itssahil/PROJECTS/Mol_Feturizer/New_Systems/rnas/5kx9

>  <Rbt.Executable>
rbdock ($Id: //depot/dev/client3/rdock/2013.1/src/exe/rbdock.cxx#4 $)

>  <Rbt.Library>
libRbt.so (2013.1, Build901 2013/11/27)

>  <Rbt.Parameter_File>
/export/apps/rDock/src/rDock_2013.1_src/data/scripts/dock_solv.prm

>  <Rbt.Receptor>
prm/blind_docking_80.prm

>  <SCORE>
-26.6683

>  <SCORE.INTER>
-22.9559

>  <SCORE.INTER.CONST>
1

>  <SCORE.INTER.POLAR>
0

>  <SCORE.INTER.ROT>
5

>  <SCORE.INTER.SOLV>
12.2763

>  <SCORE.INTER.VDW>
-26.3294

>  <SCORE.INTER.norm>
-0.850218

>  <SCORE.INTRA>
-3.71241

>  <SCORE.INTRA.DIHEDRAL>
5.13482

>  <SCORE.INTRA.DIHEDRAL.0>
2.68224

>  <SCORE.INTRA.POLAR>
0

>  <SCORE.INTRA.POLAR.0>
0

>  <SCORE.INTRA.REPUL>
0

>  <SCORE.INTRA.REPUL.0>
0

>  <SCORE.INTRA.SOLV>
-0.64469

>  <SCORE.INTRA.SOLV.lig_0>
-19.4148

>  <SCORE.INTRA.VDW>
-5.95748

>  <SCORE.INTRA.VDW.0>
5.42093

>  <SCORE.INTRA.norm>
-0.137497

>  <SCORE.RESTR>
0

>  <SCORE.RESTR.CAVITY>
0

>  <SCORE.RESTR.norm>
0

>  <SCORE.SYSTEM>
0

>  <SCORE.SYSTEM.CONST>
0

>  <SCORE.SYSTEM.DIHEDRAL>
0

>  <SCORE.SYSTEM.SOLV>
0

>  <SCORE.SYSTEM.norm>
0

>  <SCORE.heavy>
27

>  <SCORE.norm>
-0.987714

>  <RMSD>
6.190

$$$$
lig.pdb
 OpenBabel11021811523D
libRbt.so/2013.1/901 2013/11/27
 27 30  0  0  0  0  0  0  0  0999 V2000
   26.7472   36.2823   23.4600 N   0  0  0  0  0  0  0  0  0  0  0  0
   27.5375   36.6522   22.4828 C   0  0  0  0  0  0  0  0  0  0  0  0
   28.0514   37.8987   22.3305 N   0  0  0  0  0  0  0  0  0  0  0  0
   27.7755   38.8407   23.2811 C   0  0  0  0  0  0  0  0  0  0  0  0
   26.9829   38.5347   24.3500 C   0  0  0  0  0  0  0  0  0  0  0  0
   26.4231   37.2080   24.4510 C   0  0  0  0  0  0  0  0  0  0  0  0
   25.6548   36.8719   25.3608 O   0  0  0  0  0  0  0  0  0  0  0  0
   27.8375   35.7486   21.2667 C   0  0  2  0  0  0  0  0  0  0  0  0
   27.2231   36.5540   20.1103 C   0  0  0  0  0  0  0  0  0  0  0  0
   27.1696   35.7726   18.8734 N   0  0  0  0  0  0  0  0  0  0  0  0
   26.2986   34.6043   19.0801 C   0  0  0  0  0  0  0  0  0  0  0  0
   26.8706   33.6873   20.1432 C   0  0  0  0  0  0  0  0  0  0  0  0
   27.0671   34.4310   21.4570 C   0  0  0  0  0  0  0  0  0  0  0  0
   28.4275   40.1146   23.0086 C   0  0  0  0  0  0  0  0  0  0  0  0
   29.4158   40.3423   21.6134 S   0  0  0  0  0  0  0  0  0  0  0  0
   29.7659   41.9245   22.0433 C   0  0  0  0  0  0  0  0  0  0  0  0
   29.1304   42.2910   23.1634 C   0  0  0  0  0  0  0  0  0  0  0  0
   28.3614   41.2601   23.7379 C   0  0  0  0  0  0  0  0  0  0  0  0
   26.6889   36.5753   17.7351 C   0  0  0  0  0  0  0  0  0  0  0  0
   27.7589   37.0915   16.7990 C   0  0  0  0  0  0  0  0  0  0  0  0
   28.4679   36.2284   15.9763 C   0  0  0  0  0  0  0  0  0  0  0  0
   29.6431   36.5291   15.3945 N   0  0  0  0  0  0  0  0  0  0  0  0
   30.1099   37.7299   15.7019 C   0  0  0  0  0  0  0  0  0  0  0  0
   29.5738   38.6419   16.4971 N   0  0  0  0  0  0  0  0  0  0  0  0
   28.4068   38.2829   17.0522 C   0  0  0  0  0  0  0  0  0  0  0  0
   31.2831   38.0219   15.1287 O   0  0  0  0  0  0  0  0  0  0  0  0
   32.3702   37.1157   15.3492 C   0  0  0  0  0  0  0  0  0  0  0  0
  1  2  2  0  0  0  0
  1  6  1  0  0  0  0
  2  3  1  0  0  0  0
  3  4  2  0  0  0  0
  4 14  1  0  0  0  0
  5  4  1  0  0  0  0
  6  5  1  0  0  0  0
  7  6  2  0  0  0  0
  8  9  1  0  0  0  0
  8  2  1  1  0  0  0
 10 19  1  0  0  0  0
 10  9  1  0  0  0  0
 11 10  1  0  0  0  0
 12 11  1  0  0  0  0
 12 13  1  0  0  0  0
 13  8  1  0  0  0  0
 14 15  1  0  0  0  0
 14 18  2  0  0  0  0
 15 16  1  0  0  0  0
 16 17  2  0  0  0  0
 18 17  1  0  0  0  0
 19 20  1  0  0  0  0
 20 25  2  0  0  0  0
 20 21  1  0  0  0  0
 21 22  2  0  0  0  0
 22 23  1  0  0  0  0
 23 26  1  0  0  0  0
 24 23  2  0  0  0  0
 25 24  1  0  0  0  0
 26 27  1  0  0  0  0
M  END
>  <CHROM.1>
0.44705782,115.57954086,100.54296463,69.43085827,-55.54972441,28.25666525
37.69019595,20.24162490,2.05765211,0.97113151,0.94858619

>  <Name>
lig.pdb

>  <RI>
0

>  <Rbt.Current_Directory>
/home/itssahil/PROJECTS/Mol_Feturizer/New_Systems/rnas/5kx9

>  <Rbt.Executable>
rbdock ($Id: //depot/dev/client3/rdock/2013.1/src/exe/rbdock.cxx#4 $)

>  <Rbt.Library>
libRbt.so (2013.1, Build901 2013/11/27)

>  <Rbt.Parameter_File>
/export/apps/rDock/src/rDock_2013.1_src/data/scripts/dock_solv.prm

>  <Rbt.Receptor>
prm/blind_docking_80.prm

>  <SCORE>
-32.5405

>  <SCORE.INTER>
-29.4254

>  <SCORE.INTER.CONST>
1

>  <SCORE.INTER.POLAR>
0

>  <SCORE.INTER.ROT>
5

>  <SCORE.INTER.SOLV>
14.5253

>  <SCORE.INTER.VDW>
-31.392

>  <SCORE.INTER.norm>
-1.08983

>  <SCORE.INTRA>
-3.11514

>  <SCORE.INTRA.DIHEDRAL>
4.61694

>  <SCORE.INTRA.DIHEDRAL.0>
2.68224

>  <SCORE.INTRA.POLAR>
0

>  <SCORE.INTRA.POLAR.0>
0

>  <SCORE.INTRA.REPUL>
0

>  <SCORE.INTRA.REPUL.0>
0

>  <SCORE.INTRA.SOLV>
-0.518369

>  <SCORE.INTRA.SOLV.lig_0>
-19.4148

>  <SCORE.INTRA.VDW>
-5.16442

>  <SCORE.INTRA.VDW.0>
5.42093

>  <SCORE.INTRA.norm>
-0.115375

>  <SCORE.RESTR>
0

>  <SCORE.RESTR.CAVITY>
0

>  <SCORE.RESTR.norm>
0

>  <SCORE.SYSTEM>
0

>  <SCORE.SYSTEM.CONST>
0

>  <SCORE.SYSTEM.DIHEDRAL>
0

>  <SCORE.SYSTEM.SOLV>
0

>  <SCORE.SYSTEM.norm>
0

>  <SCORE.heavy>
27

>  <SCORE.norm>
-1.2052

>  <RMSD>
6.198

$$$$
lig.pdb
 OpenBabel11021811523D
libRbt.so/2013.1/901 2013/11/27
 27 30  0  0  0  0  0  0  0  0999 V2000
   29.4354   38.1370   18.9502 N   0  0  0  0  0  0  0  0  0  0  0  0
   28.9820   36.9112   18.8599 C   0  0  0  0  0  0  0  0  0  0  0  0
   29.5352   35.9339   18.0985 N   0  0  0  0  0  0  0  0  0  0  0  0
   30.6779   36.2139   17.4035 C   0  0  0  0  0  0  0  0  0  0  0  0
   31.2368   37.4583   17.4619 C   0  0  0  0  0  0  0  0  0  0  0  0
   30.5919   38.4804   18.2514 C   0  0  0  0  0  0  0  0  0  0  0  0
   31.0085   39.6439   18.3112 O   0  0  0  0  0  0  0  0  0  0  0  0
   27.6353   36.4736   19.4767 C   0  0  2  0  0  0  0  0  0  0  0  0
   27.9382   36.5347   20.9827 C   0  0  0  0  0  0  0  0  0  0  0  0
   26.8715   35.9213   21.7758 N   0  0  0  0  0  0  0  0  0  0  0  0
   26.7714   34.4953   21.4256 C   0  0  0  0  0  0  0  0  0  0  0  0
   26.3784   34.3239   19.9715 C   0  0  0  0  0  0  0  0  0  0  0  0
   27.3730   35.0187   19.0520 C   0  0  0  0  0  0  0  0  0  0  0  0
   31.1792   35.0607   16.6680 C   0  0  0  0  0  0  0  0  0  0  0  0
   30.2676   33.6014   16.5474 S   0  0  0  0  0  0  0  0  0  0  0  0
   31.4680   32.8529   15.6476 C   0  0  0  0  0  0  0  0  0  0  0  0
   32.4952   33.6757   15.4012 C   0  0  0  0  0  0  0  0  0  0  0  0
   32.3506   34.9484   15.9871 C   0  0  0  0  0  0  0  0  0  0  0  0
   27.1008   36.0789   23.2228 C   0  0  0  0  0  0  0  0  0  0  0  0
   26.9080   37.4763   23.7684 C   0  0  0  0  0  0  0  0  0  0  0  0
   27.5900   38.5567   23.2278 C   0  0  0  0  0  0  0  0  0  0  0  0
   27.7575   39.7370   23.8513 N   0  0  0  0  0  0  0  0  0  0  0  0
   27.2430   39.7849   25.0710 C   0  0  0  0  0  0  0  0  0  0  0  0
   26.6058   38.8323   25.7327 N   0  0  0  0  0  0  0  0  0  0  0  0
   26.4750   37.6778   25.0627 C   0  0  0  0  0  0  0  0  0  0  0  0
   27.4193   40.9572   25.6912 O   0  0  0  0  0  0  0  0  0  0  0  0
   28.7619   41.3403   26.0114 C   0  0  0  0  0  0  0  0  0  0  0  0
  1  2  2  0  0  0  0
  1  6  1  0  0  0  0
  2  3  1  0  0  0  0
  3  4  2  0  0  0  0
  4 14  1  0  0  0  0
  5  4  1  0  0  0  0
  6  5  1  0  0  0  0
  7  6  2  0  0  0  0
  8  9  1  0  0  0  0
  8  2  1  6  0  0  0
 10 19  1  0  0  0  0
 10  9  1  0  0  0  0
 11 10  1  0  0  0  0
 12 11  1  0  0  0  0
 12 13  1  0  0  0  0
 13  8  1  0  0  0  0
 14 15  1  0  0  0  0
 14 18  2  0  0  0  0
 15 16  1  0  0  0  0
 16 17  2  0  0  0  0
 18 17  1  0  0  0  0
 19 20  1  0  0  0  0
 20 25  2  0  0  0  0
 20 21  1  0  0  0  0
 21 22  2  0  0  0  0
 22 23  1  0  0  0  0
 23 26  1  0  0  0  0
 24 23  2  0  0  0  0
 25 24  1  0  0  0  0
 26 27  1  0  0  0  0
M  END
>  <CHROM.1>
7.99486108,-69.74074531,71.82667035,-54.65716865,-65.45475222,28.86176175
36.79066582,20.32285173,-1.03019207,0.79296736,0.66768521

>  <Name>
lig.pdb

>  <RI>
0

>  <Rbt.Current_Directory>
/home/itssahil/PROJECTS/Mol_Feturizer/New_Systems/rnas/5kx9

>  <Rbt.Executable>
rbdock ($Id: //depot/dev/client3/rdock/2013.1/src/exe/rbdock.cxx#4 $)

>  <Rbt.Library>
libRbt.so (2013.1, Build901 2013/11/27)

>  <Rbt.Parameter_File>
/export/apps/rDock/src/rDock_2013.1_src/data/scripts/dock_solv.prm

>  <Rbt.Receptor>
prm/pocket_docking_7.prm

>  <SCORE>
-28.221

>  <SCORE.INTER>
-26.274

>  <SCORE.INTER.CONST>
1

>  <SCORE.INTER.POLAR>
0

>  <SCORE.INTER.ROT>
5

>  <SCORE.INTER.SOLV>
13.2223

>  <SCORE.INTER.VDW>
-28.8568

>  <SCORE.INTER.norm>
-0.973113

>  <SCORE.INTRA>
-1.94695

>  <SCORE.INTRA.DIHEDRAL>
3.91678

>  <SCORE.INTRA.DIHEDRAL.0>
2.68224

>  <SCORE.INTRA.POLAR>
0

>  <SCORE.INTRA.POLAR.0>
0

>  <SCORE.INTRA.REPUL>
0

>  <SCORE.INTRA.REPUL.0>
0

>  <SCORE.INTRA.SOLV>
-0.544502

>  <SCORE.INTRA.SOLV.lig_0>
-19.4148

>  <SCORE.INTRA.VDW>
-3.63309

>  <SCORE.INTRA.VDW.0>
5.42093

>  <SCORE.INTRA.norm>
-0.0721094

>  <SCORE.RESTR>
0

>  <SCORE.RESTR.CAVITY>
0

>  <SCORE.RESTR.norm>
0

>  <SCORE.SYSTEM>
0

>  <SCORE.SYSTEM.CONST>
0

>  <SCORE.SYSTEM.DIHEDRAL>
0

>  <SCORE.SYSTEM.SOLV>
0

>  <SCORE.SYSTEM.norm>
0

>  <SCORE.heavy>
27

>  <SCORE.norm>
-1.04522

>  <RMSD>
6.200

$$$$
lig.pdb
 OpenBabel11021811523D
libRbt.so/2013.1/901 2013/11/27
 27 30  0  0  0  0  0  0  0  0999 V2000
   26.7573   36.2774   23.4692 N   0  0  0  0  0  0  0  0  0  0  0  0
   27.5378   36.6449   22.4833 C   0  0  0  0  0  0  0  0  0  0  0  0
   28.0467   37.8921   22.3205 N   0  0  0  0  0  0  0  0  0  0  0  0
   27.7766   38.8378   23.2690 C   0  0  0  0  0  0  0  0  0  0  0  0
   26.9944   38.5347   24.3464 C   0  0  0  0  0  0  0  0  0  0  0  0
   26.4393   37.2069   24.4586 C   0  0  0  0  0  0  0  0  0  0  0  0
   25.6802   36.8729   25.3768 O   0  0  0  0  0  0  0  0  0  0  0  0
   27.8296   35.7363   21.2688 C   0  0  2  0  0  0  0  0  0  0  0  0
   27.2188   36.5432   20.1115 C   0  0  0  0  0  0  0  0  0  0  0  0
   27.1579   35.7593   18.8765 N   0  0  0  0  0  0  0  0  0  0  0  0
   26.2793   34.5976   19.0874 C   0  0  0  0  0  0  0  0  0  0  0  0
   26.8466   33.6792   20.1518 C   0  0  0  0  0  0  0  0  0  0  0  0
   27.0504   34.4245   21.4635 C   0  0  0  0  0  0  0  0  0  0  0  0
   28.4226   40.1122   22.9848 C   0  0  0  0  0  0  0  0  0  0  0  0
   29.4205   40.3278   21.5945 S   0  0  0  0  0  0  0  0  0  0  0  0
   29.7569   41.9179   22.0060 C   0  0  0  0  0  0  0  0  0  0  0  0
   29.1101   42.2951   23.1160 C   0  0  0  0  0  0  0  0  0  0  0  0
   28.3432   41.2669   23.6981 C   0  0  0  0  0  0  0  0  0  0  0  0
   26.6809   36.5627   17.7371 C   0  0  0  0  0  0  0  0  0  0  0  0
   27.7550   37.0916   16.8130 C   0  0  0  0  0  0  0  0  0  0  0  0
   28.3961   36.2575   15.9086 C   0  0  0  0  0  0  0  0  0  0  0  0
   29.5719   36.5393   15.3186 N   0  0  0  0  0  0  0  0  0  0  0  0
   30.1108   37.6870   15.7019 C   0  0  0  0  0  0  0  0  0  0  0  0
   29.6443   38.5626   16.5777 N   0  0  0  0  0  0  0  0  0  0  0  0
   28.4729   38.2244   17.1366 C   0  0  0  0  0  0  0  0  0  0  0  0
   31.2842   37.9595   15.1197 O   0  0  0  0  0  0  0  0  0  0  0  0
   32.3884   37.0990   15.4233 C   0  0  0  0  0  0  0  0  0  0  0  0
  1  2  2  0  0  0  0
  1  6  1  0  0  0  0
  2  3  1  0  0  0  0
  3  4  2  0  0  0  0
  4 14  1  0  0  0  0
  5  4  1  0  0  0  0
  6  5  1  0  0  0  0
  7  6  2  0  0  0  0
  8  9  1  0  0  0  0
  8  2  1  1  0  0  0
 10 19  1  0  0  0  0
 10  9  1  0  0  0  0
 11 10  1  0  0  0  0
 12 11  1  0  0  0  0
 12 13  1  0  0  0  0
 13  8  1  0  0  0  0
 14 15  1  0  0  0  0
 14 18  2  0  0  0  0
 15 16  1  0  0  0  0
 16 17  2  0  0  0  0
 18 17  1  0  0  0  0
 19 20  1  0  0  0  0
 20 25  2  0  0  0  0
 20 21  1  0  0  0  0
 21 22  2  0  0  0  0
 22 23  1  0  0  0  0
 23 26  1  0  0  0  0
 24 23  2  0  0  0  0
 25 24  1  0  0  0  0
 26 27  1  0  0  0  0
M  END
>  <CHROM.1>
-0.66199186,116.28990549,99.41089677,75.21890244,-65.69229791,28.25464288
37.67767875,20.24028767,2.05512993,0.96896800,0.94842250

>  <Name>
lig.pdb

>  <RI>
0

>  <Rbt.Current_Directory>
/home/itssahil/PROJECTS/Mol_Feturizer/New_Systems/rnas/5kx9

>  <Rbt.Executable>
rbdock ($Id: //depot/dev/client3/rdock/2013.1/src/exe/rbdock.cxx#4 $)

>  <Rbt.Library>
libRbt.so (2013.1, Build901 2013/11/27)

>  <Rbt.Parameter_File>
/export/apps/rDock/src/rDock_2013.1_src/data/scripts/dock_solv.prm

>  <Rbt.Receptor>
prm/pocket_docking_8.prm

>  <SCORE>
-32.4819

>  <SCORE.INTER>
-29.3861

>  <SCORE.INTER.CONST>
1

>  <SCORE.INTER.POLAR>
0

>  <SCORE.INTER.ROT>
5

>  <SCORE.INTER.SOLV>
14.4025

>  <SCORE.INTER.VDW>
-31.3249

>  <SCORE.INTER.norm>
-1.08838

>  <SCORE.INTRA>
-3.09577

>  <SCORE.INTRA.DIHEDRAL>
5.32753

>  <SCORE.INTRA.DIHEDRAL.0>
2.68224

>  <SCORE.INTRA.POLAR>
0

>  <SCORE.INTRA.POLAR.0>
0

>  <SCORE.INTRA.REPUL>
0

>  <SCORE.INTRA.REPUL.0>
0

>  <SCORE.INTRA.SOLV>
-0.526477

>  <SCORE.INTRA.SOLV.lig_0>
-19.4148

>  <SCORE.INTRA.VDW>
-5.49629

>  <SCORE.INTRA.VDW.0>
5.42093

>  <SCORE.INTRA.norm>
-0.114658

>  <SCORE.RESTR>
0

>  <SCORE.RESTR.CAVITY>
0

>  <SCORE.RESTR.norm>
0

>  <SCORE.SYSTEM>
0

>  <SCORE.SYSTEM.CONST>
0

>  <SCORE.SYSTEM.DIHEDRAL>
0

>  <SCORE.SYSTEM.SOLV>
0

>  <SCORE.SYSTEM.norm>
0

>  <SCORE.heavy>
27

>  <SCORE.norm>
-1.20303

>  <RMSD>
6.206

$$$$
lig.pdb
 OpenBabel11021811523D
libRbt.so/2013.1/901 2013/11/27
 27 30  0  0  0  0  0  0  0  0999 V2000
   27.1935   39.5044   21.4336 N   0  0  0  0  0  0  0  0  0  0  0  0
   27.6824   39.0282   22.5519 C   0  0  0  0  0  0  0  0  0  0  0  0
   28.2199   39.7798   23.5455 N   0  0  0  0  0  0  0  0  0  0  0  0
   28.2181   41.1396   23.4112 C   0  0  0  0  0  0  0  0  0  0  0  0
   27.7026   41.7243   22.2902 C   0  0  0  0  0  0  0  0  0  0  0  0
   27.1785   40.8850   21.2392 C   0  0  0  0  0  0  0  0  0  0  0  0
   26.7435   41.3382   20.1732 O   0  0  0  0  0  0  0  0  0  0  0  0
   27.8750   37.5159   22.7996 C   0  0  2  0  0  0  0  0  0  0  0  0
   27.8167   36.9479   21.3722 C   0  0  0  0  0  0  0  0  0  0  0  0
   27.7322   35.4864   21.3730 N   0  0  0  0  0  0  0  0  0  0  0  0
   26.4847   35.0774   22.0384 C   0  0  0  0  0  0  0  0  0  0  0  0
   26.4829   35.5088   23.4917 C   0  0  0  0  0  0  0  0  0  0  0  0
   26.6706   37.0145   23.6143 C   0  0  0  0  0  0  0  0  0  0  0  0
   28.7861   41.8145   24.5706 C   0  0  0  0  0  0  0  0  0  0  0  0
   29.0686   43.5161   24.5755 S   0  0  0  0  0  0  0  0  0  0  0  0
   29.7044   43.4686   26.1262 C   0  0  0  0  0  0  0  0  0  0  0  0
   29.6645   42.2351   26.6457 C   0  0  0  0  0  0  0  0  0  0  0  0
   29.1464   41.2681   25.7623 C   0  0  0  0  0  0  0  0  0  0  0  0
   27.7921   34.9304   20.0097 C   0  0  0  0  0  0  0  0  0  0  0  0
   27.3596   35.8644   18.9016 C   0  0  0  0  0  0  0  0  0  0  0  0
   28.2861   36.6260   18.2043 C   0  0  0  0  0  0  0  0  0  0  0  0
   27.9788   37.7140   17.4752 N   0  0  0  0  0  0  0  0  0  0  0  0
   26.6954   38.0405   17.5008 C   0  0  0  0  0  0  0  0  0  0  0  0
   25.7073   37.4420   18.1466 N   0  0  0  0  0  0  0  0  0  0  0  0
   26.0758   36.3680   18.8604 C   0  0  0  0  0  0  0  0  0  0  0  0
   26.3951   39.1282   16.7818 O   0  0  0  0  0  0  0  0  0  0  0  0
   27.1925   40.2996   16.9909 C   0  0  0  0  0  0  0  0  0  0  0  0
  1  2  2  0  0  0  0
  1  6  1  0  0  0  0
  2  3  1  0  0  0  0
  3  4  2  0  0  0  0
  4 14  1  0  0  0  0
  5  4  1  0  0  0  0
  6  5  1  0  0  0  0
  7  6  2  0  0  0  0
  8  9  1  0  0  0  0
  8  2  1  6  0  0  0
 10 19  1  0  0  0  0
 10  9  1  0  0  0  0
 11 10  1  0  0  0  0
 12 11  1  0  0  0  0
 12 13  1  0  0  0  0
 13  8  1  0  0  0  0
 14 15  1  0  0  0  0
 14 18  2  0  0  0  0
 15 16  1  0  0  0  0
 16 17  2  0  0  0  0
 18 17  1  0  0  0  0
 19 20  1  0  0  0  0
 20 25  2  0  0  0  0
 20 21  1  0  0  0  0
 21 22  2  0  0  0  0
 22 23  1  0  0  0  0
 23 26  1  0  0  0  0
 24 23  2  0  0  0  0
 25 24  1  0  0  0  0
 26 27  1  0  0  0  0
M  END
>  <CHROM.1>
172.75670855,17.69944542,-24.21240709,94.55559855,-49.79651316,27.66612604
39.08306040,21.55912408,0.05599359,-1.33373185,-0.66981480

>  <Name>
lig.pdb

>  <RI>
0

>  <Rbt.Current_Directory>
/home/itssahil/PROJECTS/Mol_Feturizer/New_Systems/rnas/5kx9

>  <Rbt.Executable>
rbdock ($Id: //depot/dev/client3/rdock/2013.1/src/exe/rbdock.cxx#4 $)

>  <Rbt.Library>
libRbt.so (2013.1, Build901 2013/11/27)

>  <Rbt.Parameter_File>
/export/apps/rDock/src/rDock_2013.1_src/data/scripts/dock_solv.prm

>  <Rbt.Receptor>
prm/pocket_docking_4.prm

>  <SCORE>
-32.6408

>  <SCORE.INTER>
-31.2841

>  <SCORE.INTER.CONST>
1

>  <SCORE.INTER.POLAR>
0

>  <SCORE.INTER.ROT>
5

>  <SCORE.INTER.SOLV>
12.9044

>  <SCORE.INTER.VDW>
-32.0909

>  <SCORE.INTER.norm>
-1.15867

>  <SCORE.INTRA>
-1.35668

>  <SCORE.INTRA.DIHEDRAL>
4.20452

>  <SCORE.INTRA.DIHEDRAL.0>
2.68224

>  <SCORE.INTRA.POLAR>
0

>  <SCORE.INTRA.POLAR.0>
0

>  <SCORE.INTRA.REPUL>
0

>  <SCORE.INTRA.REPUL.0>
0

>  <SCORE.INTRA.SOLV>
0.0263513

>  <SCORE.INTRA.SOLV.lig_0>
-19.4148

>  <SCORE.INTRA.VDW>
-3.47211

>  <SCORE.INTRA.VDW.0>
5.42093

>  <SCORE.INTRA.norm>
-0.0502473

>  <SCORE.RESTR>
0

>  <SCORE.RESTR.CAVITY>
0

>  <SCORE.RESTR.norm>
0

>  <SCORE.SYSTEM>
0

>  <SCORE.SYSTEM.CONST>
0

>  <SCORE.SYSTEM.DIHEDRAL>
0

>  <SCORE.SYSTEM.SOLV>
0

>  <SCORE.SYSTEM.norm>
0

>  <SCORE.heavy>
27

>  <SCORE.norm>
-1.20892

>  <RMSD>
6.213

$$$$
lig.pdb
 OpenBabel11021811523D
libRbt.so/2013.1/901 2013/11/27
 27 30  0  0  0  0  0  0  0  0999 V2000
   27.7684   42.1006   21.4255 N   0  0  0  0  0  0  0  0  0  0  0  0
   26.9608   41.0898   21.2200 C   0  0  0  0  0  0  0  0  0  0  0  0
   26.9094   39.9702   21.9849 N   0  0  0  0  0  0  0  0  0  0  0  0
   27.7179   39.8908   23.0836 C   0  0  0  0  0  0  0  0  0  0  0  0
   28.5719   40.9111   23.3903 C   0  0  0  0  0  0  0  0  0  0  0  0
   28.6240   42.0660   22.5259 C   0  0  0  0  0  0  0  0  0  0  0  0
   29.4083   43.0053   22.7085 O   0  0  0  0  0  0  0  0  0  0  0  0
   26.0827   40.9689   19.9552 C   0  0  2  0  0  0  0  0  0  0  0  0
   26.8320   39.8972   19.1467 C   0  0  0  0  0  0  0  0  0  0  0  0
   26.3148   39.7872   17.7816 N   0  0  0  0  0  0  0  0  0  0  0  0
   26.5275   41.0648   17.0826 C   0  0  0  0  0  0  0  0  0  0  0  0
   25.7467   42.1802   17.7493 C   0  0  0  0  0  0  0  0  0  0  0  0
   26.1338   42.3165   19.2154 C   0  0  0  0  0  0  0  0  0  0  0  0
   27.5237   38.6549   23.8299 C   0  0  0  0  0  0  0  0  0  0  0  0
   27.0877   37.1839   23.0419 S   0  0  0  0  0  0  0  0  0  0  0  0
   27.0407   36.3474   24.4941 C   0  0  0  0  0  0  0  0  0  0  0  0
   27.3854   37.1231   25.5297 C   0  0  0  0  0  0  0  0  0  0  0  0
   27.6593   38.4566   25.1681 C   0  0  0  0  0  0  0  0  0  0  0  0
   26.9503   38.6846   17.0389 C   0  0  0  0  0  0  0  0  0  0  0  0
   26.4440   37.2973   17.3654 C   0  0  0  0  0  0  0  0  0  0  0  0
   25.1196   37.0828   17.7184 C   0  0  0  0  0  0  0  0  0  0  0  0
   24.6723   35.9849   18.3544 N   0  0  0  0  0  0  0  0  0  0  0  0
   25.6198   35.1125   18.6640 C   0  0  0  0  0  0  0  0  0  0  0  0
   26.9203   35.1943   18.4328 N   0  0  0  0  0  0  0  0  0  0  0  0
   27.3066   36.3130   17.8019 C   0  0  0  0  0  0  0  0  0  0  0  0
   25.1724   34.0262   19.3042 O   0  0  0  0  0  0  0  0  0  0  0  0
   24.9196   32.8543   18.5204 C   0  0  0  0  0  0  0  0  0  0  0  0
  1  2  2  0  0  0  0
  1  6  1  0  0  0  0
  2  3  1  0  0  0  0
  3  4  2  0  0  0  0
  4 14  1  0  0  0  0
  5  4  1  0  0  0  0
  6  5  1  0  0  0  0
  7  6  2  0  0  0  0
  8  9  1  0  0  0  0
  8  2  1  1  0  0  0
 10 19  1  0  0  0  0
 10  9  1  0  0  0  0
 11 10  1  0  0  0  0
 12 11  1  0  0  0  0
 12 13  1  0  0  0  0
 13  8  1  0  0  0  0
 14 15  1  0  0  0  0
 14 18  2  0  0  0  0
 15 16  1  0  0  0  0
 16 17  2  0  0  0  0
 18 17  1  0  0  0  0
 19 20  1  0  0  0  0
 20 25  2  0  0  0  0
 20 21  1  0  0  0  0
 21 22  2  0  0  0  0
 22 23  1  0  0  0  0
 23 26  1  0  0  0  0
 24 23  2  0  0  0  0
 25 24  1  0  0  0  0
 26 27  1  0  0  0  0
M  END
>  <CHROM.1>
32.05797140,104.59976611,77.84183440,32.91684640,96.85413320,26.79667573
38.64124633,20.54487564,0.18937565,-1.25806090,-0.66966370

>  <Name>
lig.pdb

>  <RI>
0

>  <Rbt.Current_Directory>
/home/itssahil/PROJECTS/Mol_Feturizer/New_Systems/rnas/5kx9

>  <Rbt.Executable>
rbdock ($Id: //depot/dev/client3/rdock/2013.1/src/exe/rbdock.cxx#4 $)

>  <Rbt.Library>
libRbt.so (2013.1, Build901 2013/11/27)

>  <Rbt.Parameter_File>
/export/apps/rDock/src/rDock_2013.1_src/data/scripts/dock_solv.prm

>  <Rbt.Receptor>
prm/pocket_docking_6.prm

>  <SCORE>
-30.7951

>  <SCORE.INTER>
-27.4077

>  <SCORE.INTER.CONST>
1

>  <SCORE.INTER.POLAR>
0

>  <SCORE.INTER.ROT>
5

>  <SCORE.INTER.SOLV>
11.8376

>  <SCORE.INTER.VDW>
-29.151

>  <SCORE.INTER.norm>
-1.0151

>  <SCORE.INTRA>
-3.38748

>  <SCORE.INTRA.DIHEDRAL>
6.97084

>  <SCORE.INTRA.DIHEDRAL.0>
2.68224

>  <SCORE.INTRA.POLAR>
0

>  <SCORE.INTRA.POLAR.0>
0

>  <SCORE.INTRA.REPUL>
0

>  <SCORE.INTRA.REPUL.0>
0

>  <SCORE.INTRA.SOLV>
-0.502818

>  <SCORE.INTRA.SOLV.lig_0>
-19.4148

>  <SCORE.INTRA.VDW>
-6.62149

>  <SCORE.INTRA.VDW.0>
5.42093

>  <SCORE.INTRA.norm>
-0.125462

>  <SCORE.RESTR>
0

>  <SCORE.RESTR.CAVITY>
0

>  <SCORE.RESTR.norm>
0

>  <SCORE.SYSTEM>
0

>  <SCORE.SYSTEM.CONST>
0

>  <SCORE.SYSTEM.DIHEDRAL>
0

>  <SCORE.SYSTEM.SOLV>
0

>  <SCORE.SYSTEM.norm>
0

>  <SCORE.heavy>
27

>  <SCORE.norm>
-1.14056

>  <RMSD>
6.213

$$$$
lig.pdb
 OpenBabel11021811523D
libRbt.so/2013.1/901 2013/11/27
 27 30  0  0  0  0  0  0  0  0999 V2000
   28.1552   41.7932   21.5140 N   0  0  0  0  0  0  0  0  0  0  0  0
   27.8330   40.7140   20.8450 C   0  0  0  0  0  0  0  0  0  0  0  0
   27.6053   39.4968   21.3996 N   0  0  0  0  0  0  0  0  0  0  0  0
   27.6644   39.3761   22.7594 C   0  0  0  0  0  0  0  0  0  0  0  0
   27.9657   40.4563   23.5383 C   0  0  0  0  0  0  0  0  0  0  0  0
   28.2418   41.7232   22.9038 C   0  0  0  0  0  0  0  0  0  0  0  0
   28.5728   42.7327   23.5381 O   0  0  0  0  0  0  0  0  0  0  0  0
   27.8525   40.6537   19.3017 C   0  0  2  0  0  0  0  0  0  0  0  0
   29.3534   40.5007   19.0064 C   0  0  0  0  0  0  0  0  0  0  0  0
   29.6457   40.6681   17.5817 N   0  0  0  0  0  0  0  0  0  0  0  0
   29.2745   42.0321   17.1719 C   0  0  0  0  0  0  0  0  0  0  0  0
   27.7840   42.2565   17.3340 C   0  0  0  0  0  0  0  0  0  0  0  0
   27.3476   42.0061   18.7708 C   0  0  0  0  0  0  0  0  0  0  0  0
   27.3565   38.0263   23.2127 C   0  0  0  0  0  0  0  0  0  0  0  0
   27.3923   36.6816   22.1329 S   0  0  0  0  0  0  0  0  0  0  0  0
   26.9277   35.6184   23.3431 C   0  0  0  0  0  0  0  0  0  0  0  0
   26.7964   36.2326   24.5256 C   0  0  0  0  0  0  0  0  0  0  0  0
   27.0315   37.6202   24.4689 C   0  0  0  0  0  0  0  0  0  0  0  0
   31.0638   40.4091   17.2761 C   0  0  0  0  0  0  0  0  0  0  0  0
   31.5236   38.9803   17.4618 C   0  0  0  0  0  0  0  0  0  0  0  0
   32.5781   38.6716   18.3088 C   0  0  0  0  0  0  0  0  0  0  0  0
   33.2721   37.5198   18.2676 N   0  0  0  0  0  0  0  0  0  0  0  0
   32.8918   36.6906   17.3072 C   0  0  0  0  0  0  0  0  0  0  0  0
   31.9393   36.8597   16.4041 N   0  0  0  0  0  0  0  0  0  0  0  0
   31.2872   38.0284   16.4916 C   0  0  0  0  0  0  0  0  0  0  0  0
   33.5901   35.5501   17.2637 O   0  0  0  0  0  0  0  0  0  0  0  0
   33.5011   34.7658   16.0684 C   0  0  0  0  0  0  0  0  0  0  0  0
  1  2  2  0  0  0  0
  1  6  1  0  0  0  0
  2  3  1  0  0  0  0
  3  4  2  0  0  0  0
  4 14  1  0  0  0  0
  5  4  1  0  0  0  0
  6  5  1  0  0  0  0
  7  6  2  0  0  0  0
  8  9  1  0  0  0  0
  8  2  1  1  0  0  0
 10 19  1  0  0  0  0
 10  9  1  0  0  0  0
 11 10  1  0  0  0  0
 12 11  1  0  0  0  0
 12 13  1  0  0  0  0
 13  8  1  0  0  0  0
 14 15  1  0  0  0  0
 14 18  2  0  0  0  0
 15 16  1  0  0  0  0
 16 17  2  0  0  0  0
 18 17  1  0  0  0  0
 19 20  1  0  0  0  0
 20 25  2  0  0  0  0
 20 21  1  0  0  0  0
 21 22  2  0  0  0  0
 22 23  1  0  0  0  0
 23 26  1  0  0  0  0
 24 23  2  0  0  0  0
 25 24  1  0  0  0  0
 26 27  1  0  0  0  0
M  END
>  <CHROM.1>
16.96322956,77.93027777,66.84026940,-122.99211031,-163.70325179,29.37216223
39.00422760,19.98787354,2.98488979,-0.89481747,2.64369311

>  <Name>
lig.pdb

>  <RI>
0

>  <Rbt.Current_Directory>
/home/itssahil/PROJECTS/Mol_Feturizer/New_Systems/rnas/5kx9

>  <Rbt.Executable>
rbdock ($Id: //depot/dev/client3/rdock/2013.1/src/exe/rbdock.cxx#4 $)

>  <Rbt.Library>
libRbt.so (2013.1, Build901 2013/11/27)

>  <Rbt.Parameter_File>
/export/apps/rDock/src/rDock_2013.1_src/data/scripts/dock_solv.prm

>  <Rbt.Receptor>
prm/blind_docking_60.prm

>  <SCORE>
-33.8813

>  <SCORE.INTER>
-29.0137

>  <SCORE.INTER.CONST>
1

>  <SCORE.INTER.POLAR>
0

>  <SCORE.INTER.ROT>
5

>  <SCORE.INTER.SOLV>
12.208

>  <SCORE.INTER.VDW>
-30.3451

>  <SCORE.INTER.norm>
-1.07458

>  <SCORE.INTRA>
-4.86762

>  <SCORE.INTRA.DIHEDRAL>
0.0495767

>  <SCORE.INTRA.DIHEDRAL.0>
2.68224

>  <SCORE.INTRA.POLAR>
0

>  <SCORE.INTRA.POLAR.0>
0

>  <SCORE.INTRA.REPUL>
0

>  <SCORE.INTRA.REPUL.0>
0

>  <SCORE.INTRA.SOLV>
-0.631116

>  <SCORE.INTRA.SOLV.lig_0>
-19.4148

>  <SCORE.INTRA.VDW>
-4.57685

>  <SCORE.INTRA.VDW.0>
5.42093

>  <SCORE.INTRA.norm>
-0.180282

>  <SCORE.RESTR>
0

>  <SCORE.RESTR.CAVITY>
0

>  <SCORE.RESTR.norm>
0

>  <SCORE.SYSTEM>
0

>  <SCORE.SYSTEM.CONST>
0

>  <SCORE.SYSTEM.DIHEDRAL>
0

>  <SCORE.SYSTEM.SOLV>
0

>  <SCORE.SYSTEM.norm>
0

>  <SCORE.heavy>
27

>  <SCORE.norm>
-1.25486

>  <RMSD>
6.223

$$$$
lig.pdb
 OpenBabel11021811523D
libRbt.so/2013.1/901 2013/11/27
 27 30  0  0  0  0  0  0  0  0999 V2000
   29.2998   39.7106   16.8943 N   0  0  0  0  0  0  0  0  0  0  0  0
   28.1124   39.1774   17.0433 C   0  0  0  0  0  0  0  0  0  0  0  0
   27.0174   39.8374   17.4977 N   0  0  0  0  0  0  0  0  0  0  0  0
   27.1275   41.1694   17.7817 C   0  0  0  0  0  0  0  0  0  0  0  0
   28.3214   41.8141   17.6283 C   0  0  0  0  0  0  0  0  0  0  0  0
   29.4711   41.0640   17.1820 C   0  0  0  0  0  0  0  0  0  0  0  0
   30.5966   41.5657   17.0696 O   0  0  0  0  0  0  0  0  0  0  0  0
   27.8544   37.6623   16.8903 C   0  0  2  0  0  0  0  0  0  0  0  0
   27.1665   37.3188   18.2216 C   0  0  0  0  0  0  0  0  0  0  0  0
   27.0435   35.8724   18.4112 N   0  0  0  0  0  0  0  0  0  0  0  0
   28.3892   35.2791   18.4692 C   0  0  0  0  0  0  0  0  0  0  0  0
   29.1233   35.4796   17.1581 C   0  0  0  0  0  0  0  0  0  0  0  0
   29.2192   36.9579   16.8070 C   0  0  0  0  0  0  0  0  0  0  0  0
   25.8653   41.7524   18.2166 C   0  0  0  0  0  0  0  0  0  0  0  0
   24.7017   40.8317   19.0961 S   0  0  0  0  0  0  0  0  0  0  0  0
   23.6378   42.1257   19.1642 C   0  0  0  0  0  0  0  0  0  0  0  0
   24.1489   43.2242   18.5941 C   0  0  0  0  0  0  0  0  0  0  0  0
   25.4270   43.0267   18.0362 C   0  0  0  0  0  0  0  0  0  0  0  0
   26.2835   35.5392   19.6288 C   0  0  0  0  0  0  0  0  0  0  0  0
   27.0141   35.7517   20.9360 C   0  0  0  0  0  0  0  0  0  0  0  0
   26.8711   34.8605   21.9895 C   0  0  0  0  0  0  0  0  0  0  0  0
   27.1804   35.1418   23.2683 N   0  0  0  0  0  0  0  0  0  0  0  0
   27.6083   36.3800   23.4640 C   0  0  0  0  0  0  0  0  0  0  0  0
   27.7578   37.3486   22.5747 N   0  0  0  0  0  0  0  0  0  0  0  0
   27.4283   37.0106   21.3193 C   0  0  0  0  0  0  0  0  0  0  0  0
   27.9064   36.6586   24.7382 O   0  0  0  0  0  0  0  0  0  0  0  0
   27.0068   37.5113   25.4562 C   0  0  0  0  0  0  0  0  0  0  0  0
  1  2  2  0  0  0  0
  1  6  1  0  0  0  0
  2  3  1  0  0  0  0
  3  4  2  0  0  0  0
  4 14  1  0  0  0  0
  5  4  1  0  0  0  0
  6  5  1  0  0  0  0
  7  6  2  0  0  0  0
  8  9  1  0  0  0  0
  8  2  1  1  0  0  0
 10 19  1  0  0  0  0
 10  9  1  0  0  0  0
 11 10  1  0  0  0  0
 12 11  1  0  0  0  0
 12 13  1  0  0  0  0
 13  8  1  0  0  0  0
 14 15  1  0  0  0  0
 14 18  2  0  0  0  0
 15 16  1  0  0  0  0
 16 17  2  0  0  0  0
 18 17  1  0  0  0  0
 19 20  1  0  0  0  0
 20 25  2  0  0  0  0
 20 21  1  0  0  0  0
 21 22  2  0  0  0  0
 22 23  1  0  0  0  0
 23 26  1  0  0  0  0
 24 23  2  0  0  0  0
 25 24  1  0  0  0  0
 26 27  1  0  0  0  0
M  END
>  <CHROM.1>
31.87391638,125.87698993,-74.07311684,-141.29078329,-107.20140162,27.22938312
38.59374991,19.41779073,-1.70613822,-0.95200966,2.30833468

>  <Name>
lig.pdb

>  <RI>
0

>  <Rbt.Current_Directory>
/home/itssahil/PROJECTS/Mol_Feturizer/New_Systems/rnas/5kx9

>  <Rbt.Executable>
rbdock ($Id: //depot/dev/client3/rdock/2013.1/src/exe/rbdock.cxx#4 $)

>  <Rbt.Library>
libRbt.so (2013.1, Build901 2013/11/27)

>  <Rbt.Parameter_File>
/export/apps/rDock/src/rDock_2013.1_src/data/scripts/dock_solv.prm

>  <Rbt.Receptor>
prm/pocket_docking_5.prm

>  <SCORE>
-27.0518

>  <SCORE.INTER>
-26.0353

>  <SCORE.INTER.CONST>
1

>  <SCORE.INTER.POLAR>
0

>  <SCORE.INTER.ROT>
5

>  <SCORE.INTER.SOLV>
14.0943

>  <SCORE.INTER.VDW>
-28.9883

>  <SCORE.INTER.norm>
-0.964271

>  <SCORE.INTRA>
-1.01651

>  <SCORE.INTRA.DIHEDRAL>
7.01794

>  <SCORE.INTRA.DIHEDRAL.0>
2.68224

>  <SCORE.INTRA.POLAR>
0

>  <SCORE.INTRA.POLAR.0>
0

>  <SCORE.INTRA.REPUL>
0

>  <SCORE.INTRA.REPUL.0>
0

>  <SCORE.INTRA.SOLV>
-0.505452

>  <SCORE.INTRA.SOLV.lig_0>
-19.4148

>  <SCORE.INTRA.VDW>
-4.27275

>  <SCORE.INTRA.VDW.0>
5.42093

>  <SCORE.INTRA.norm>
-0.0376486

>  <SCORE.RESTR>
0

>  <SCORE.RESTR.CAVITY>
0

>  <SCORE.RESTR.norm>
0

>  <SCORE.SYSTEM>
0

>  <SCORE.SYSTEM.CONST>
0

>  <SCORE.SYSTEM.DIHEDRAL>
0

>  <SCORE.SYSTEM.SOLV>
0

>  <SCORE.SYSTEM.norm>
0

>  <SCORE.heavy>
27

>  <SCORE.norm>
-1.00192

>  <RMSD>
6.224

$$$$
lig.pdb
 OpenBabel11021811523D
libRbt.so/2013.1/901 2013/11/27
 27 30  0  0  0  0  0  0  0  0999 V2000
   27.0468   39.8678   20.7330 N   0  0  0  0  0  0  0  0  0  0  0  0
   27.2434   39.3899   21.9369 C   0  0  0  0  0  0  0  0  0  0  0  0
   27.0923   40.0958   23.0857 N   0  0  0  0  0  0  0  0  0  0  0  0
   26.6575   41.3888   23.0067 C   0  0  0  0  0  0  0  0  0  0  0  0
   26.4004   41.9602   21.7936 C   0  0  0  0  0  0  0  0  0  0  0  0
   26.6144   41.1861   20.5942 C   0  0  0  0  0  0  0  0  0  0  0  0
   26.4540   41.6507   19.4587 O   0  0  0  0  0  0  0  0  0  0  0  0
   27.8575   37.9954   22.1895 C   0  0  2  0  0  0  0  0  0  0  0  0
   27.6124   37.2897   20.8458 C   0  0  0  0  0  0  0  0  0  0  0  0
   27.8958   35.8557   20.9267 N   0  0  0  0  0  0  0  0  0  0  0  0
   26.9784   35.2384   21.8981 C   0  0  0  0  0  0  0  0  0  0  0  0
   27.2069   35.8006   23.2874 C   0  0  0  0  0  0  0  0  0  0  0  0
   27.0381   37.3135   23.2984 C   0  0  0  0  0  0  0  0  0  0  0  0
   26.5013   42.0050   24.3175 C   0  0  0  0  0  0  0  0  0  0  0  0
   25.0966   42.9203   24.7227 S   0  0  0  0  0  0  0  0  0  0  0  0
   25.6863   43.2638   26.2541 C   0  0  0  0  0  0  0  0  0  0  0  0
   26.8690   42.6772   26.4780 C   0  0  0  0  0  0  0  0  0  0  0  0
   27.3579   41.9547   25.3721 C   0  0  0  0  0  0  0  0  0  0  0  0
   27.7737   35.1952   19.6152 C   0  0  0  0  0  0  0  0  0  0  0  0
   28.3196   35.9713   18.4374 C   0  0  0  0  0  0  0  0  0  0  0  0
   29.6493   36.3646   18.3931 C   0  0  0  0  0  0  0  0  0  0  0  0
   30.1276   37.3333   17.5913 N   0  0  0  0  0  0  0  0  0  0  0  0
   29.2054   37.9306   16.8514 C   0  0  0  0  0  0  0  0  0  0  0  0
   27.9034   37.6970   16.8134 N   0  0  0  0  0  0  0  0  0  0  0  0
   27.4855   36.7254   17.6381 C   0  0  0  0  0  0  0  0  0  0  0  0
   29.6835   38.8993   16.0620 O   0  0  0  0  0  0  0  0  0  0  0  0
   29.9927   40.1574   16.6729 C   0  0  0  0  0  0  0  0  0  0  0  0
  1  2  2  0  0  0  0
  1  6  1  0  0  0  0
  2  3  1  0  0  0  0
  3  4  2  0  0  0  0
  4 14  1  0  0  0  0
  5  4  1  0  0  0  0
  6  5  1  0  0  0  0
  7  6  2  0  0  0  0
  8  9  1  0  0  0  0
  8  2  1  6  0  0  0
 10 19  1  0  0  0  0
 10  9  1  0  0  0  0
 11 10  1  0  0  0  0
 12 11  1  0  0  0  0
 12 13  1  0  0  0  0
 13  8  1  0  0  0  0
 14 15  1  0  0  0  0
 14 18  2  0  0  0  0
 15 16  1  0  0  0  0
 16 17  2  0  0  0  0
 18 17  1  0  0  0  0
 19 20  1  0  0  0  0
 20 25  2  0  0  0  0
 20 21  1  0  0  0  0
 21 22  2  0  0  0  0
 22 23  1  0  0  0  0
 23 26  1  0  0  0  0
 24 23  2  0  0  0  0
 25 24  1  0  0  0  0
 26 27  1  0  0  0  0
M  END
>  <CHROM.1>
-134.06578530,-20.42620347,40.28064862,58.64314930,-77.13473084,27.44761948
39.20853394,21.15461031,-2.83052023,-1.25027849,2.82780132

>  <Name>
lig.pdb

>  <RI>
0

>  <Rbt.Current_Directory>
/home/itssahil/PROJECTS/Mol_Feturizer/New_Systems/rnas/5kx9

>  <Rbt.Executable>
rbdock ($Id: //depot/dev/client3/rdock/2013.1/src/exe/rbdock.cxx#4 $)

>  <Rbt.Library>
libRbt.so (2013.1, Build901 2013/11/27)

>  <Rbt.Parameter_File>
/export/apps/rDock/src/rDock_2013.1_src/data/scripts/dock_solv.prm

>  <Rbt.Receptor>
prm/pocket_docking_8.prm

>  <SCORE>
-26.7324

>  <SCORE.INTER>
-26.6718

>  <SCORE.INTER.CONST>
1

>  <SCORE.INTER.POLAR>
0

>  <SCORE.INTER.ROT>
5

>  <SCORE.INTER.SOLV>
12.4272

>  <SCORE.INTER.VDW>
-28.8569

>  <SCORE.INTER.norm>
-0.987843

>  <SCORE.INTRA>
-0.0606178

>  <SCORE.INTRA.DIHEDRAL>
9.95733

>  <SCORE.INTRA.DIHEDRAL.0>
2.68224

>  <SCORE.INTRA.POLAR>
0

>  <SCORE.INTRA.POLAR.0>
0

>  <SCORE.INTRA.REPUL>
0

>  <SCORE.INTRA.REPUL.0>
0

>  <SCORE.INTRA.SOLV>
-0.383245

>  <SCORE.INTRA.SOLV.lig_0>
-19.4148

>  <SCORE.INTRA.VDW>
-4.84766

>  <SCORE.INTRA.VDW.0>
5.42093

>  <SCORE.INTRA.norm>
-0.0022451

>  <SCORE.RESTR>
0

>  <SCORE.RESTR.CAVITY>
0

>  <SCORE.RESTR.norm>
0

>  <SCORE.SYSTEM>
0

>  <SCORE.SYSTEM.CONST>
0

>  <SCORE.SYSTEM.DIHEDRAL>
0

>  <SCORE.SYSTEM.SOLV>
0

>  <SCORE.SYSTEM.norm>
0

>  <SCORE.heavy>
27

>  <SCORE.norm>
-0.990088

>  <RMSD>
6.226

$$$$
lig.pdb
 OpenBabel11021811523D
libRbt.so/2013.1/901 2013/11/27
 27 30  0  0  0  0  0  0  0  0999 V2000
   28.1993   41.9575   22.1040 N   0  0  0  0  0  0  0  0  0  0  0  0
   28.2544   40.8076   21.4786 C   0  0  0  0  0  0  0  0  0  0  0  0
   27.9193   39.6113   22.0240 N   0  0  0  0  0  0  0  0  0  0  0  0
   27.4412   39.5868   23.3038 C   0  0  0  0  0  0  0  0  0  0  0  0
   27.3233   40.7424   24.0215 C   0  0  0  0  0  0  0  0  0  0  0  0
   27.7305   41.9882   23.4167 C   0  0  0  0  0  0  0  0  0  0  0  0
   27.7029   43.0675   24.0210 O   0  0  0  0  0  0  0  0  0  0  0  0
   28.8912   40.6496   20.0804 C   0  0  2  0  0  0  0  0  0  0  0  0
   27.9640   39.6153   19.4215 C   0  0  0  0  0  0  0  0  0  0  0  0
   28.5152   39.1188   18.1594 N   0  0  0  0  0  0  0  0  0  0  0  0
   29.7877   38.4300   18.4286 C   0  0  0  0  0  0  0  0  0  0  0  0
   30.8122   39.3929   18.9956 C   0  0  0  0  0  0  0  0  0  0  0  0
   30.2962   40.0521   20.2672 C   0  0  0  0  0  0  0  0  0  0  0  0
   27.0833   38.2434   23.7391 C   0  0  0  0  0  0  0  0  0  0  0  0
   27.3126   36.8727   22.7174 S   0  0  0  0  0  0  0  0  0  0  0  0
   26.6735   35.8320   23.8660 C   0  0  0  0  0  0  0  0  0  0  0  0
   26.3439   36.4734   24.9942 C   0  0  0  0  0  0  0  0  0  0  0  0
   26.5652   37.8633   24.9373 C   0  0  0  0  0  0  0  0  0  0  0  0
   27.5795   38.2151   17.4673 C   0  0  0  0  0  0  0  0  0  0  0  0
   27.4264   36.8391   18.0761 C   0  0  0  0  0  0  0  0  0  0  0  0
   27.4116   35.7019   17.2816 C   0  0  0  0  0  0  0  0  0  0  0  0
   26.9356   34.5070   17.6761 N   0  0  0  0  0  0  0  0  0  0  0  0
   26.4311   34.5007   18.9008 C   0  0  0  0  0  0  0  0  0  0  0  0
   26.3374   35.5057   19.7568 N   0  0  0  0  0  0  0  0  0  0  0  0
   26.8228   36.6716   19.3053 C   0  0  0  0  0  0  0  0  0  0  0  0
   25.9506   33.3130   19.2862 O   0  0  0  0  0  0  0  0  0  0  0  0
   24.9100   32.7317   18.4920 C   0  0  0  0  0  0  0  0  0  0  0  0
  1  2  2  0  0  0  0
  1  6  1  0  0  0  0
  2  3  1  0  0  0  0
  3  4  2  0  0  0  0
  4 14  1  0  0  0  0
  5  4  1  0  0  0  0
  6  5  1  0  0  0  0
  7  6  2  0  0  0  0
  8  9  1  0  0  0  0
  8  2  1  1  0  0  0
 10 19  1  0  0  0  0
 10  9  1  0  0  0  0
 11 10  1  0  0  0  0
 12 11  1  0  0  0  0
 12 13  1  0  0  0  0
 13  8  1  0  0  0  0
 14 15  1  0  0  0  0
 14 18  2  0  0  0  0
 15 16  1  0  0  0  0
 16 17  2  0  0  0  0
 18 17  1  0  0  0  0
 19 20  1  0  0  0  0
 20 25  2  0  0  0  0
 20 21  1  0  0  0  0
 21 22  2  0  0  0  0
 22 23  1  0  0  0  0
 23 26  1  0  0  0  0
 24 23  2  0  0  0  0
 25 24  1  0  0  0  0
 26 27  1  0  0  0  0
M  END
>  <CHROM.1>
1.84221781,-142.95731502,-73.41965640,-135.95724323,-58.60685595,27.56436707
38.01063407,20.87920356,-1.16387986,-1.08362758,-2.15249298

>  <Name>
lig.pdb

>  <RI>
0

>  <Rbt.Current_Directory>
/home/itssahil/PROJECTS/Mol_Feturizer/New_Systems/rnas/5kx9

>  <Rbt.Executable>
rbdock ($Id: //depot/dev/client3/rdock/2013.1/src/exe/rbdock.cxx#4 $)

>  <Rbt.Library>
libRbt.so (2013.1, Build901 2013/11/27)

>  <Rbt.Parameter_File>
/export/apps/rDock/src/rDock_2013.1_src/data/scripts/dock_solv.prm

>  <Rbt.Receptor>
prm/pocket_docking_3.prm

>  <SCORE>
-28.5201

>  <SCORE.INTER>
-25.1501

>  <SCORE.INTER.CONST>
1

>  <SCORE.INTER.POLAR>
0

>  <SCORE.INTER.ROT>
5

>  <SCORE.INTER.SOLV>
10.798

>  <SCORE.INTER.VDW>
-27.2994

>  <SCORE.INTER.norm>
-0.931484

>  <SCORE.INTRA>
-3.37001

>  <SCORE.INTRA.DIHEDRAL>
2.7812

>  <SCORE.INTRA.DIHEDRAL.0>
2.68224

>  <SCORE.INTRA.POLAR>
0

>  <SCORE.INTRA.POLAR.0>
0

>  <SCORE.INTRA.REPUL>
0

>  <SCORE.INTRA.REPUL.0>
0

>  <SCORE.INTRA.SOLV>
-0.0350374

>  <SCORE.INTRA.SOLV.lig_0>
-19.4148

>  <SCORE.INTRA.VDW>
-4.74309

>  <SCORE.INTRA.VDW.0>
5.42093

>  <SCORE.INTRA.norm>
-0.124815

>  <SCORE.RESTR>
0

>  <SCORE.RESTR.CAVITY>
0

>  <SCORE.RESTR.norm>
0

>  <SCORE.SYSTEM>
0

>  <SCORE.SYSTEM.CONST>
0

>  <SCORE.SYSTEM.DIHEDRAL>
0

>  <SCORE.SYSTEM.SOLV>
0

>  <SCORE.SYSTEM.norm>
0

>  <SCORE.heavy>
27

>  <SCORE.norm>
-1.0563

>  <RMSD>
6.237

$$$$
lig.pdb
 OpenBabel11021811523D
libRbt.so/2013.1/901 2013/11/27
 27 30  0  0  0  0  0  0  0  0999 V2000
   27.5260   42.2538   21.4908 N   0  0  0  0  0  0  0  0  0  0  0  0
   26.8211   41.1734   21.2628 C   0  0  0  0  0  0  0  0  0  0  0  0
   26.8392   40.0581   22.0354 N   0  0  0  0  0  0  0  0  0  0  0  0
   27.6064   40.0580   23.1661 C   0  0  0  0  0  0  0  0  0  0  0  0
   28.3524   41.1526   23.4971 C   0  0  0  0  0  0  0  0  0  0  0  0
   28.3359   42.3025   22.6247 C   0  0  0  0  0  0  0  0  0  0  0  0
   29.0248   43.3096   22.8296 O   0  0  0  0  0  0  0  0  0  0  0  0
   26.0093   40.9668   19.9651 C   0  0  2  0  0  0  0  0  0  0  0  0
   26.8536   39.9179   19.2231 C   0  0  0  0  0  0  0  0  0  0  0  0
   26.4056   39.7402   17.8407 N   0  0  0  0  0  0  0  0  0  0  0  0
   26.5775   41.0080   17.1131 C   0  0  0  0  0  0  0  0  0  0  0  0
   25.7058   42.0947   17.7109 C   0  0  0  0  0  0  0  0  0  0  0  0
   26.0178   42.2939   19.1876 C   0  0  0  0  0  0  0  0  0  0  0  0
   27.4935   38.8139   23.9156 C   0  0  0  0  0  0  0  0  0  0  0  0
   27.0971   37.3255   23.1394 S   0  0  0  0  0  0  0  0  0  0  0  0
   27.1376   36.4865   24.5904 C   0  0  0  0  0  0  0  0  0  0  0  0
   27.4827   37.2759   25.6154 C   0  0  0  0  0  0  0  0  0  0  0  0
   27.6839   38.6207   25.2479 C   0  0  0  0  0  0  0  0  0  0  0  0
   27.1352   38.6557   17.1604 C   0  0  0  0  0  0  0  0  0  0  0  0
   26.6637   37.2529   17.4720 C   0  0  0  0  0  0  0  0  0  0  0  0
   25.3135   36.9341   17.4705 C   0  0  0  0  0  0  0  0  0  0  0  0
   24.7901   35.8471   18.0659 N   0  0  0  0  0  0  0  0  0  0  0  0
   25.6759   35.0989   18.7062 C   0  0  0  0  0  0  0  0  0  0  0  0
   26.9792   35.2926   18.8309 N   0  0  0  0  0  0  0  0  0  0  0  0
   27.4413   36.3945   18.2217 C   0  0  0  0  0  0  0  0  0  0  0  0
   25.1503   34.0238   19.3045 O   0  0  0  0  0  0  0  0  0  0  0  0
   24.7639   32.9257   18.4698 C   0  0  0  0  0  0  0  0  0  0  0  0
  1  2  2  0  0  0  0
  1  6  1  0  0  0  0
  2  3  1  0  0  0  0
  3  4  2  0  0  0  0
  4 14  1  0  0  0  0
  5  4  1  0  0  0  0
  6  5  1  0  0  0  0
  7  6  2  0  0  0  0
  8  9  1  0  0  0  0
  8  2  1  1  0  0  0
 10 19  1  0  0  0  0
 10  9  1  0  0  0  0
 11 10  1  0  0  0  0
 12 11  1  0  0  0  0
 12 13  1  0  0  0  0
 13  8  1  0  0  0  0
 14 15  1  0  0  0  0
 14 18  2  0  0  0  0
 15 16  1  0  0  0  0
 16 17  2  0  0  0  0
 18 17  1  0  0  0  0
 19 20  1  0  0  0  0
 20 25  2  0  0  0  0
 20 21  1  0  0  0  0
 21 22  2  0  0  0  0
 22 23  1  0  0  0  0
 23 26  1  0  0  0  0
 24 23  2  0  0  0  0
 25 24  1  0  0  0  0
 26 27  1  0  0  0  0
M  END
>  <CHROM.1>
27.03766546,106.86601088,79.76339592,46.02559113,74.45785604,26.77529138
38.70819425,20.60576455,0.21491893,-1.28560178,-0.63800132

>  <Name>
lig.pdb

>  <RI>
0

>  <Rbt.Current_Directory>
/home/itssahil/PROJECTS/Mol_Feturizer/New_Systems/rnas/5kx9

>  <Rbt.Executable>
rbdock ($Id: //depot/dev/client3/rdock/2013.1/src/exe/rbdock.cxx#4 $)

>  <Rbt.Library>
libRbt.so (2013.1, Build901 2013/11/27)

>  <Rbt.Parameter_File>
/export/apps/rDock/src/rDock_2013.1_src/data/scripts/dock_solv.prm

>  <Rbt.Receptor>
prm/blind_docking_100.prm

>  <SCORE>
-30.6781

>  <SCORE.INTER>
-27.1252

>  <SCORE.INTER.CONST>
1

>  <SCORE.INTER.POLAR>
0

>  <SCORE.INTER.ROT>
5

>  <SCORE.INTER.SOLV>
11.7081

>  <SCORE.INTER.VDW>
-28.9195

>  <SCORE.INTER.norm>
-1.00464

>  <SCORE.INTRA>
-3.55296

>  <SCORE.INTRA.DIHEDRAL>
6.21658

>  <SCORE.INTRA.DIHEDRAL.0>
2.68224

>  <SCORE.INTRA.POLAR>
0

>  <SCORE.INTRA.POLAR.0>
0

>  <SCORE.INTRA.REPUL>
0

>  <SCORE.INTRA.REPUL.0>
0

>  <SCORE.INTRA.SOLV>
-0.520012

>  <SCORE.INTRA.SOLV.lig_0>
-19.4148

>  <SCORE.INTRA.VDW>
-6.40124

>  <SCORE.INTRA.VDW.0>
5.42093

>  <SCORE.INTRA.norm>
-0.131591

>  <SCORE.RESTR>
0

>  <SCORE.RESTR.CAVITY>
0

>  <SCORE.RESTR.norm>
0

>  <SCORE.SYSTEM>
0

>  <SCORE.SYSTEM.CONST>
0

>  <SCORE.SYSTEM.DIHEDRAL>
0

>  <SCORE.SYSTEM.SOLV>
0

>  <SCORE.SYSTEM.norm>
0

>  <SCORE.heavy>
27

>  <SCORE.norm>
-1.13623

>  <RMSD>
6.248

$$$$
lig.pdb
 OpenBabel11021811523D
libRbt.so/2013.1/901 2013/11/27
 27 30  0  0  0  0  0  0  0  0999 V2000
   26.9585   39.8099   21.5378 N   0  0  0  0  0  0  0  0  0  0  0  0
   27.6568   39.2537   22.4966 C   0  0  0  0  0  0  0  0  0  0  0  0
   28.2819   39.9297   23.4932 N   0  0  0  0  0  0  0  0  0  0  0  0
   28.1467   41.2884   23.5470 C   0  0  0  0  0  0  0  0  0  0  0  0
   27.4129   41.9494   22.6041 C   0  0  0  0  0  0  0  0  0  0  0  0
   26.7991   41.1950   21.5374 C   0  0  0  0  0  0  0  0  0  0  0  0
   26.1641   41.7277   20.6188 O   0  0  0  0  0  0  0  0  0  0  0  0
   28.0104   37.7502   22.5052 C   0  0  2  0  0  0  0  0  0  0  0  0
   27.5481   37.3049   21.1082 C   0  0  0  0  0  0  0  0  0  0  0  0
   27.5591   35.8473   20.9723 N   0  0  0  0  0  0  0  0  0  0  0  0
   26.6072   35.2677   21.9336 C   0  0  0  0  0  0  0  0  0  0  0  0
   27.0289   35.5696   23.3581 C   0  0  0  0  0  0  0  0  0  0  0  0
   27.1512   37.0701   23.5846 C   0  0  0  0  0  0  0  0  0  0  0  0
   28.8345   41.8717   24.6911 C   0  0  0  0  0  0  0  0  0  0  0  0
   29.1956   43.5568   24.7639 S   0  0  0  0  0  0  0  0  0  0  0  0
   29.9477   43.3944   26.2535 C   0  0  0  0  0  0  0  0  0  0  0  0
   29.8911   42.1362   26.7081 C   0  0  0  0  0  0  0  0  0  0  0  0
   29.2610   41.2437   25.8191 C   0  0  0  0  0  0  0  0  0  0  0  0
   27.2281   35.4193   19.6017 C   0  0  0  0  0  0  0  0  0  0  0  0
   27.9491   36.1541   18.4937 C   0  0  0  0  0  0  0  0  0  0  0  0
   29.3154   36.3857   18.5587 C   0  0  0  0  0  0  0  0  0  0  0  0
   29.9638   37.3102   17.8273 N   0  0  0  0  0  0  0  0  0  0  0  0
   29.1771   38.0327   17.0440 C   0  0  0  0  0  0  0  0  0  0  0  0
   27.8631   37.9583   16.9044 N   0  0  0  0  0  0  0  0  0  0  0  0
   27.2725   37.0232   17.6629 C   0  0  0  0  0  0  0  0  0  0  0  0
   29.8242   38.9569   16.3249 O   0  0  0  0  0  0  0  0  0  0  0  0
   30.2262   40.1559   16.9976 C   0  0  0  0  0  0  0  0  0  0  0  0
  1  2  2  0  0  0  0
  1  6  1  0  0  0  0
  2  3  1  0  0  0  0
  3  4  2  0  0  0  0
  4 14  1  0  0  0  0
  5  4  1  0  0  0  0
  6  5  1  0  0  0  0
  7  6  2  0  0  0  0
  8  9  1  0  0  0  0
  8  2  1  6  0  0  0
 10 19  1  0  0  0  0
 10  9  1  0  0  0  0
 11 10  1  0  0  0  0
 12 11  1  0  0  0  0
 12 13  1  0  0  0  0
 13  8  1  0  0  0  0
 14 15  1  0  0  0  0
 14 18  2  0  0  0  0
 15 16  1  0  0  0  0
 16 17  2  0  0  0  0
 18 17  1  0  0  0  0
 19 20  1  0  0  0  0
 20 25  2  0  0  0  0
 20 21  1  0  0  0  0
 21 22  2  0  0  0  0
 22 23  1  0  0  0  0
 23 26  1  0  0  0  0
 24 23  2  0  0  0  0
 25 24  1  0  0  0  0
 26 27  1  0  0  0  0
M  END
>  <CHROM.1>
162.80766300,8.51109410,46.62330892,45.91961939,-77.47051127,28.23697055
39.22163292,21.46480582,1.38126456,1.23487958,1.08459339

>  <Name>
lig.pdb

>  <RI>
0

>  <Rbt.Current_Directory>
/home/itssahil/PROJECTS/Mol_Feturizer/New_Systems/rnas/5kx9

>  <Rbt.Executable>
rbdock ($Id: //depot/dev/client3/rdock/2013.1/src/exe/rbdock.cxx#4 $)

>  <Rbt.Library>
libRbt.so (2013.1, Build901 2013/11/27)

>  <Rbt.Parameter_File>
/export/apps/rDock/src/rDock_2013.1_src/data/scripts/dock_solv.prm

>  <Rbt.Receptor>
prm/pocket_docking_4.prm

>  <SCORE>
-32.6193

>  <SCORE.INTER>
-30.1588

>  <SCORE.INTER.CONST>
1

>  <SCORE.INTER.POLAR>
0

>  <SCORE.INTER.ROT>
5

>  <SCORE.INTER.SOLV>
12.0922

>  <SCORE.INTER.VDW>
-31.0699

>  <SCORE.INTER.norm>
-1.11699

>  <SCORE.INTRA>
-2.46051

>  <SCORE.INTRA.DIHEDRAL>
5.09618

>  <SCORE.INTRA.DIHEDRAL.0>
2.68224

>  <SCORE.INTRA.POLAR>
0

>  <SCORE.INTRA.POLAR.0>
0

>  <SCORE.INTRA.REPUL>
0

>  <SCORE.INTRA.REPUL.0>
0

>  <SCORE.INTRA.SOLV>
-0.373099

>  <SCORE.INTRA.SOLV.lig_0>
-19.4148

>  <SCORE.INTRA.VDW>
-4.82205

>  <SCORE.INTRA.VDW.0>
5.42093

>  <SCORE.INTRA.norm>
-0.0911299

>  <SCORE.RESTR>
0

>  <SCORE.RESTR.CAVITY>
0

>  <SCORE.RESTR.norm>
0

>  <SCORE.SYSTEM>
0

>  <SCORE.SYSTEM.CONST>
0

>  <SCORE.SYSTEM.DIHEDRAL>
0

>  <SCORE.SYSTEM.SOLV>
0

>  <SCORE.SYSTEM.norm>
0

>  <SCORE.heavy>
27

>  <SCORE.norm>
-1.20812

>  <RMSD>
6.248

$$$$
lig.pdb
 OpenBabel11021811523D
libRbt.so/2013.1/901 2013/11/27
 27 30  0  0  0  0  0  0  0  0999 V2000
   28.3047   39.4678   21.3573 N   0  0  0  0  0  0  0  0  0  0  0  0
   27.8329   39.0081   22.4897 C   0  0  0  0  0  0  0  0  0  0  0  0
   27.3592   39.7775   23.5019 N   0  0  0  0  0  0  0  0  0  0  0  0
   27.3178   41.1324   23.3296 C   0  0  0  0  0  0  0  0  0  0  0  0
   27.7630   41.6969   22.1688 C   0  0  0  0  0  0  0  0  0  0  0  0
   28.2977   40.8441   21.1341 C   0  0  0  0  0  0  0  0  0  0  0  0
   28.7677   41.2851   20.0780 O   0  0  0  0  0  0  0  0  0  0  0  0
   27.9294   37.5192   22.8892 C   0  0  2  0  0  0  0  0  0  0  0  0
   27.7995   36.8140   21.5293 C   0  0  0  0  0  0  0  0  0  0  0  0
   27.6171   35.3695   21.6826 N   0  0  0  0  0  0  0  0  0  0  0  0
   26.3609   35.1179   22.4072 C   0  0  0  0  0  0  0  0  0  0  0  0
   26.4223   35.6943   23.8080 C   0  0  0  0  0  0  0  0  0  0  0  0
   26.7134   37.1881   23.7711 C   0  0  0  0  0  0  0  0  0  0  0  0
   26.7474   41.8229   24.4785 C   0  0  0  0  0  0  0  0  0  0  0  0
   27.4326   43.2854   25.0840 S   0  0  0  0  0  0  0  0  0  0  0  0
   26.2966   43.3815   26.3133 C   0  0  0  0  0  0  0  0  0  0  0  0
   25.4045   42.3850   26.2493 C   0  0  0  0  0  0  0  0  0  0  0  0
   25.6522   41.4734   25.2045 C   0  0  0  0  0  0  0  0  0  0  0  0
   27.6074   34.6746   20.3833 C   0  0  0  0  0  0  0  0  0  0  0  0
   27.2688   35.5319   19.1842 C   0  0  0  0  0  0  0  0  0  0  0  0
   28.2485   36.2595   18.5244 C   0  0  0  0  0  0  0  0  0  0  0  0
   27.9999   37.2958   17.7033 N   0  0  0  0  0  0  0  0  0  0  0  0
   26.7171   37.6075   17.5948 C   0  0  0  0  0  0  0  0  0  0  0  0
   25.6797   37.0385   18.1877 N   0  0  0  0  0  0  0  0  0  0  0  0
   25.9904   36.0160   18.9980 C   0  0  0  0  0  0  0  0  0  0  0  0
   26.4747   38.6441   16.7844 O   0  0  0  0  0  0  0  0  0  0  0  0
   27.1300   39.8827   17.0815 C   0  0  0  0  0  0  0  0  0  0  0  0
  1  2  2  0  0  0  0
  1  6  1  0  0  0  0
  2  3  1  0  0  0  0
  3  4  2  0  0  0  0
  4 14  1  0  0  0  0
  5  4  1  0  0  0  0
  6  5  1  0  0  0  0
  7  6  2  0  0  0  0
  8  9  1  0  0  0  0
  8  2  1  6  0  0  0
 10 19  1  0  0  0  0
 10  9  1  0  0  0  0
 11 10  1  0  0  0  0
 12 11  1  0  0  0  0
 12 13  1  0  0  0  0
 13  8  1  0  0  0  0
 14 15  1  0  0  0  0
 14 18  2  0  0  0  0
 15 16  1  0  0  0  0
 16 17  2  0  0  0  0
 18 17  1  0  0  0  0
 19 20  1  0  0  0  0
 20 25  2  0  0  0  0
 20 21  1  0  0  0  0
 21 22  2  0  0  0  0
 22 23  1  0  0  0  0
 23 26  1  0  0  0  0
 24 23  2  0  0  0  0
 25 24  1  0  0  0  0
 26 27  1  0  0  0  0
M  END
>  <CHROM.1>
137.91255480,-33.67106175,-21.76516999,85.81640955,-56.72068462,27.17328705
38.94763852,21.65750981,-1.83255602,-1.45003074,-2.58533615

>  <Name>
lig.pdb

>  <RI>
0

>  <Rbt.Current_Directory>
/home/itssahil/PROJECTS/Mol_Feturizer/New_Systems/rnas/5kx9

>  <Rbt.Executable>
rbdock ($Id: //depot/dev/client3/rdock/2013.1/src/exe/rbdock.cxx#4 $)

>  <Rbt.Library>
libRbt.so (2013.1, Build901 2013/11/27)

>  <Rbt.Parameter_File>
/export/apps/rDock/src/rDock_2013.1_src/data/scripts/dock_solv.prm

>  <Rbt.Receptor>
prm/blind_docking_60.prm

>  <SCORE>
-26.8241

>  <SCORE.INTER>
-28.2703

>  <SCORE.INTER.CONST>
1

>  <SCORE.INTER.POLAR>
0

>  <SCORE.INTER.ROT>
5

>  <SCORE.INTER.SOLV>
12.9462

>  <SCORE.INTER.VDW>
-30.0956

>  <SCORE.INTER.norm>
-1.04705

>  <SCORE.INTRA>
1.44627

>  <SCORE.INTRA.DIHEDRAL>
9.72107

>  <SCORE.INTRA.DIHEDRAL.0>
2.68224

>  <SCORE.INTRA.POLAR>
0

>  <SCORE.INTRA.POLAR.0>
0

>  <SCORE.INTRA.REPUL>
0

>  <SCORE.INTRA.REPUL.0>
0

>  <SCORE.INTRA.SOLV>
-0.141726

>  <SCORE.INTRA.SOLV.lig_0>
-19.4148

>  <SCORE.INTRA.VDW>
-3.3434

>  <SCORE.INTRA.VDW.0>
5.42093

>  <SCORE.INTRA.norm>
0.0535656

>  <SCORE.RESTR>
0

>  <SCORE.RESTR.CAVITY>
0

>  <SCORE.RESTR.norm>
0

>  <SCORE.SYSTEM>
0

>  <SCORE.SYSTEM.CONST>
0

>  <SCORE.SYSTEM.DIHEDRAL>
0

>  <SCORE.SYSTEM.SOLV>
0

>  <SCORE.SYSTEM.norm>
0

>  <SCORE.heavy>
27

>  <SCORE.norm>
-0.993484

>  <RMSD>
6.249

$$$$
lig.pdb
 OpenBabel11021811523D
libRbt.so/2013.1/901 2013/11/27
 27 30  0  0  0  0  0  0  0  0999 V2000
   27.9269   42.0494   21.2102 N   0  0  0  0  0  0  0  0  0  0  0  0
   27.0804   41.0681   21.0189 C   0  0  0  0  0  0  0  0  0  0  0  0
   26.9687   39.9741   21.8138 N   0  0  0  0  0  0  0  0  0  0  0  0
   27.7548   39.8924   22.9284 C   0  0  0  0  0  0  0  0  0  0  0  0
   28.6464   40.8841   23.2215 C   0  0  0  0  0  0  0  0  0  0  0  0
   28.7620   42.0104   22.3260 C   0  0  0  0  0  0  0  0  0  0  0  0
   29.5826   42.9207   22.4961 O   0  0  0  0  0  0  0  0  0  0  0  0
   26.2189   40.9480   19.7426 C   0  0  2  0  0  0  0  0  0  0  0  0
   26.9179   39.8032   18.9913 C   0  0  0  0  0  0  0  0  0  0  0  0
   26.4189   39.6691   17.6215 N   0  0  0  0  0  0  0  0  0  0  0  0
   26.7185   40.9033   16.8778 C   0  0  0  0  0  0  0  0  0  0  0  0
   25.9932   42.0878   17.4852 C   0  0  0  0  0  0  0  0  0  0  0  0
   26.3620   42.2598   18.9522 C   0  0  0  0  0  0  0  0  0  0  0  0
   27.4958   38.6878   23.7056 C   0  0  0  0  0  0  0  0  0  0  0  0
   27.7673   38.6366   25.4082 S   0  0  0  0  0  0  0  0  0  0  0  0
   27.2938   37.0307   25.4979 C   0  0  0  0  0  0  0  0  0  0  0  0
   26.8991   36.5583   24.3089 C   0  0  0  0  0  0  0  0  0  0  0  0
   27.0156   37.4951   23.2635 C   0  0  0  0  0  0  0  0  0  0  0  0
   27.0014   38.5027   16.9349 C   0  0  0  0  0  0  0  0  0  0  0  0
   26.3761   37.1665   17.2681 C   0  0  0  0  0  0  0  0  0  0  0  0
   25.0851   37.0850   17.7696 C   0  0  0  0  0  0  0  0  0  0  0  0
   24.5877   36.0136   18.4135 N   0  0  0  0  0  0  0  0  0  0  0  0
   25.4550   35.0255   18.5744 C   0  0  0  0  0  0  0  0  0  0  0  0
   26.7208   34.9718   18.1918 N   0  0  0  0  0  0  0  0  0  0  0  0
   27.1611   36.0704   17.5609 C   0  0  0  0  0  0  0  0  0  0  0  0
   24.9593   33.9654   19.2230 O   0  0  0  0  0  0  0  0  0  0  0  0
   24.9531   32.7110   18.5315 C   0  0  0  0  0  0  0  0  0  0  0  0
  1  2  2  0  0  0  0
  1  6  1  0  0  0  0
  2  3  1  0  0  0  0
  3  4  2  0  0  0  0
  4 14  1  0  0  0  0
  5  4  1  0  0  0  0
  6  5  1  0  0  0  0
  7  6  2  0  0  0  0
  8  9  1  0  0  0  0
  8  2  1  1  0  0  0
 10 19  1  0  0  0  0
 10  9  1  0  0  0  0
 11 10  1  0  0  0  0
 12 11  1  0  0  0  0
 12 13  1  0  0  0  0
 13  8  1  0  0  0  0
 14 15  1  0  0  0  0
 14 18  2  0  0  0  0
 15 16  1  0  0  0  0
 16 17  2  0  0  0  0
 18 17  1  0  0  0  0
 19 20  1  0  0  0  0
 20 25  2  0  0  0  0
 20 21  1  0  0  0  0
 21 22  2  0  0  0  0
 22 23  1  0  0  0  0
 23 26  1  0  0  0  0
 24 23  2  0  0  0  0
 25 24  1  0  0  0  0
 26 27  1  0  0  0  0
M  END
>  <CHROM.1>
-152.34322949,105.71394047,79.92421820,22.44329942,119.89653611,26.85645156
38.66980433,20.54900213,-0.12585972,-1.24786499,-0.83641318

>  <Name>
lig.pdb

>  <RI>
0

>  <Rbt.Current_Directory>
/home/itssahil/PROJECTS/Mol_Feturizer/New_Systems/rnas/5kx9

>  <Rbt.Executable>
rbdock ($Id: //depot/dev/client3/rdock/2013.1/src/exe/rbdock.cxx#4 $)

>  <Rbt.Library>
libRbt.so (2013.1, Build901 2013/11/27)

>  <Rbt.Parameter_File>
/export/apps/rDock/src/rDock_2013.1_src/data/scripts/dock_solv.prm

>  <Rbt.Receptor>
prm/blind_docking_100.prm

>  <SCORE>
-30.1457

>  <SCORE.INTER>
-26.5122

>  <SCORE.INTER.CONST>
1

>  <SCORE.INTER.POLAR>
0

>  <SCORE.INTER.ROT>
5

>  <SCORE.INTER.SOLV>
12.0857

>  <SCORE.INTER.VDW>
-28.6367

>  <SCORE.INTER.norm>
-0.981933

>  <SCORE.INTRA>
-3.63349

>  <SCORE.INTRA.DIHEDRAL>
5.13447

>  <SCORE.INTRA.DIHEDRAL.0>
2.68224

>  <SCORE.INTRA.POLAR>
0

>  <SCORE.INTRA.POLAR.0>
0

>  <SCORE.INTRA.REPUL>
0

>  <SCORE.INTRA.REPUL.0>
0

>  <SCORE.INTRA.SOLV>
-0.520238

>  <SCORE.INTRA.SOLV.lig_0>
-19.4148

>  <SCORE.INTRA.VDW>
-5.9406

>  <SCORE.INTRA.VDW.0>
5.42093

>  <SCORE.INTRA.norm>
-0.134574

>  <SCORE.RESTR>
0

>  <SCORE.RESTR.CAVITY>
0

>  <SCORE.RESTR.norm>
0

>  <SCORE.SYSTEM>
0

>  <SCORE.SYSTEM.CONST>
0

>  <SCORE.SYSTEM.DIHEDRAL>
0

>  <SCORE.SYSTEM.SOLV>
0

>  <SCORE.SYSTEM.norm>
0

>  <SCORE.heavy>
27

>  <SCORE.norm>
-1.11651

>  <RMSD>
6.251

$$$$
lig.pdb
 OpenBabel11021811523D
libRbt.so/2013.1/901 2013/11/27
 27 30  0  0  0  0  0  0  0  0999 V2000
   28.9533   41.9554   21.5210 N   0  0  0  0  0  0  0  0  0  0  0  0
   28.4113   40.8651   21.0377 C   0  0  0  0  0  0  0  0  0  0  0  0
   27.9842   39.8150   21.7833 N   0  0  0  0  0  0  0  0  0  0  0  0
   28.0729   39.9001   23.1442 C   0  0  0  0  0  0  0  0  0  0  0  0
   28.5989   41.0125   23.7359 C   0  0  0  0  0  0  0  0  0  0  0  0
   29.0796   42.0891   22.9031 C   0  0  0  0  0  0  0  0  0  0  0  0
   29.6161   43.1046   23.3632 O   0  0  0  0  0  0  0  0  0  0  0  0
   28.3591   40.5610   19.5242 C   0  0  2  0  0  0  0  0  0  0  0  0
   29.3342   39.3788   19.4016 C   0  0  0  0  0  0  0  0  0  0  0  0
   29.6385   39.0694   18.0034 N   0  0  0  0  0  0  0  0  0  0  0  0
   30.3053   40.2286   17.3887 C   0  0  0  0  0  0  0  0  0  0  0  0
   29.3850   41.4332   17.3719 C   0  0  0  0  0  0  0  0  0  0  0  0
   28.9194   41.7839   18.7782 C   0  0  0  0  0  0  0  0  0  0  0  0
   27.5386   38.7208   23.8120 C   0  0  0  0  0  0  0  0  0  0  0  0
   27.2563   37.2497   22.9567 S   0  0  0  0  0  0  0  0  0  0  0  0
   26.6655   36.4919   24.3306 C   0  0  0  0  0  0  0  0  0  0  0  0
   26.7204   37.2895   25.4048 C   0  0  0  0  0  0  0  0  0  0  0  0
   27.2128   38.5791   25.1243 C   0  0  0  0  0  0  0  0  0  0  0  0
   30.4802   37.8667   17.8759 C   0  0  0  0  0  0  0  0  0  0  0  0
   29.7854   36.5497   18.1404 C   0  0  0  0  0  0  0  0  0  0  0  0
   29.7186   35.5663   17.1641 C   0  0  0  0  0  0  0  0  0  0  0  0
   28.8442   34.5439   17.1758 N   0  0  0  0  0  0  0  0  0  0  0  0
   27.9997   34.5630   18.1961 C   0  0  0  0  0  0  0  0  0  0  0  0
   27.9133   35.4486   19.1756 N   0  0  0  0  0  0  0  0  0  0  0  0
   28.8063   36.4470   19.1069 C   0  0  0  0  0  0  0  0  0  0  0  0
   27.1260   33.5497   18.1994 O   0  0  0  0  0  0  0  0  0  0  0  0
   25.7867   33.8331   18.6207 C   0  0  0  0  0  0  0  0  0  0  0  0
  1  2  2  0  0  0  0
  1  6  1  0  0  0  0
  2  3  1  0  0  0  0
  3  4  2  0  0  0  0
  4 14  1  0  0  0  0
  5  4  1  0  0  0  0
  6  5  1  0  0  0  0
  7  6  2  0  0  0  0
  8  9  1  0  0  0  0
  8  2  1  1  0  0  0
 10 19  1  0  0  0  0
 10  9  1  0  0  0  0
 11 10  1  0  0  0  0
 12 11  1  0  0  0  0
 12 13  1  0  0  0  0
 13  8  1  0  0  0  0
 14 15  1  0  0  0  0
 14 18  2  0  0  0  0
 15 16  1  0  0  0  0
 16 17  2  0  0  0  0
 18 17  1  0  0  0  0
 19 20  1  0  0  0  0
 20 25  2  0  0  0  0
 20 21  1  0  0  0  0
 21 22  2  0  0  0  0
 22 23  1  0  0  0  0
 23 26  1  0  0  0  0
 24 23  2  0  0  0  0
 25 24  1  0  0  0  0
 26 27  1  0  0  0  0
M  END
>  <CHROM.1>
15.84579730,110.97284908,73.28257636,120.19784494,-141.89867092,28.40670876
38.37563544,20.56184377,-1.54700326,-1.13932044,-2.37224309

>  <Name>
lig.pdb

>  <RI>
0

>  <Rbt.Current_Directory>
/home/itssahil/PROJECTS/Mol_Feturizer/New_Systems/rnas/5kx9

>  <Rbt.Executable>
rbdock ($Id: //depot/dev/client3/rdock/2013.1/src/exe/rbdock.cxx#4 $)

>  <Rbt.Library>
libRbt.so (2013.1, Build901 2013/11/27)

>  <Rbt.Parameter_File>
/export/apps/rDock/src/rDock_2013.1_src/data/scripts/dock_solv.prm

>  <Rbt.Receptor>
prm/pocket_docking_5.prm

>  <SCORE>
-29.58

>  <SCORE.INTER>
-25.9483

>  <SCORE.INTER.CONST>
1

>  <SCORE.INTER.POLAR>
0

>  <SCORE.INTER.ROT>
5

>  <SCORE.INTER.SOLV>
10.748

>  <SCORE.INTER.VDW>
-27.8149

>  <SCORE.INTER.norm>
-0.961048

>  <SCORE.INTRA>
-3.6317

>  <SCORE.INTRA.DIHEDRAL>
1.63719

>  <SCORE.INTRA.DIHEDRAL.0>
2.68224

>  <SCORE.INTRA.POLAR>
0

>  <SCORE.INTRA.POLAR.0>
0

>  <SCORE.INTRA.REPUL>
0

>  <SCORE.INTRA.REPUL.0>
0

>  <SCORE.INTRA.SOLV>
-0.283271

>  <SCORE.INTRA.SOLV.lig_0>
-19.4148

>  <SCORE.INTRA.VDW>
-4.30866

>  <SCORE.INTRA.VDW.0>
5.42093

>  <SCORE.INTRA.norm>
-0.134507

>  <SCORE.RESTR>
0

>  <SCORE.RESTR.CAVITY>
0

>  <SCORE.RESTR.norm>
0

>  <SCORE.SYSTEM>
0

>  <SCORE.SYSTEM.CONST>
0

>  <SCORE.SYSTEM.DIHEDRAL>
0

>  <SCORE.SYSTEM.SOLV>
0

>  <SCORE.SYSTEM.norm>
0

>  <SCORE.heavy>
27

>  <SCORE.norm>
-1.09556

>  <RMSD>
6.252

$$$$
lig.pdb
 OpenBabel11021811523D
libRbt.so/2013.1/901 2013/11/27
 27 30  0  0  0  0  0  0  0  0999 V2000
   27.0034   39.8315   21.4815 N   0  0  0  0  0  0  0  0  0  0  0  0
   27.6863   39.2770   22.4522 C   0  0  0  0  0  0  0  0  0  0  0  0
   28.2899   39.9544   23.4611 N   0  0  0  0  0  0  0  0  0  0  0  0
   28.1478   41.3123   23.5142 C   0  0  0  0  0  0  0  0  0  0  0  0
   27.4285   41.9714   22.5589 C   0  0  0  0  0  0  0  0  0  0  0  0
   26.8378   41.2159   21.4800 C   0  0  0  0  0  0  0  0  0  0  0  0
   26.2176   41.7472   20.5505 O   0  0  0  0  0  0  0  0  0  0  0  0
   28.0463   37.7751   22.4652 C   0  0  2  0  0  0  0  0  0  0  0  0
   27.6064   37.3285   21.0615 C   0  0  0  0  0  0  0  0  0  0  0  0
   27.6257   35.8710   20.9251 N   0  0  0  0  0  0  0  0  0  0  0  0
   26.6624   35.2867   21.8721 C   0  0  0  0  0  0  0  0  0  0  0  0
   27.0620   35.5898   23.3028 C   0  0  0  0  0  0  0  0  0  0  0  0
   27.1745   37.0906   23.5317 C   0  0  0  0  0  0  0  0  0  0  0  0
   28.8117   41.8970   24.6716 C   0  0  0  0  0  0  0  0  0  0  0  0
   29.1456   43.5868   24.7623 S   0  0  0  0  0  0  0  0  0  0  0  0
   29.8811   43.4241   26.2601 C   0  0  0  0  0  0  0  0  0  0  0  0
   29.8384   42.1616   26.7041 C   0  0  0  0  0  0  0  0  0  0  0  0
   29.2336   41.2667   25.8000 C   0  0  0  0  0  0  0  0  0  0  0  0
   27.3166   35.4423   19.5496 C   0  0  0  0  0  0  0  0  0  0  0  0
   28.0291   36.1999   18.4515 C   0  0  0  0  0  0  0  0  0  0  0  0
   29.4069   36.3609   18.4699 C   0  0  0  0  0  0  0  0  0  0  0  0
   30.0715   37.2908   17.7604 N   0  0  0  0  0  0  0  0  0  0  0  0
   29.2918   38.0921   17.0501 C   0  0  0  0  0  0  0  0  0  0  0  0
   27.9712   38.0893   16.9631 N   0  0  0  0  0  0  0  0  0  0  0  0
   27.3647   37.1444   17.6966 C   0  0  0  0  0  0  0  0  0  0  0  0
   29.9557   39.0211   16.3529 O   0  0  0  0  0  0  0  0  0  0  0  0
   29.5251   40.3807   16.4861 C   0  0  0  0  0  0  0  0  0  0  0  0
  1  2  2  0  0  0  0
  1  6  1  0  0  0  0
  2  3  1  0  0  0  0
  3  4  2  0  0  0  0
  4 14  1  0  0  0  0
  5  4  1  0  0  0  0
  6  5  1  0  0  0  0
  7  6  2  0  0  0  0
  8  9  1  0  0  0  0
  8  2  1  6  0  0  0
 10 19  1  0  0  0  0
 10  9  1  0  0  0  0
 11 10  1  0  0  0  0
 12 11  1  0  0  0  0
 12 13  1  0  0  0  0
 13  8  1  0  0  0  0
 14 15  1  0  0  0  0
 14 18  2  0  0  0  0
 15 16  1  0  0  0  0
 16 17  2  0  0  0  0
 18 17  1  0  0  0  0
 19 20  1  0  0  0  0
 20 25  2  0  0  0  0
 20 21  1  0  0  0  0
 21 22  2  0  0  0  0
 22 23  1  0  0  0  0
 23 26  1  0  0  0  0
 24 23  2  0  0  0  0
 25 24  1  0  0  0  0
 26 27  1  0  0  0  0
M  END
>  <CHROM.1>
163.61658927,8.28310063,45.41665768,51.71789760,-129.30706387,28.24532502
39.26078175,21.41645721,-1.39075763,-1.27893623,-2.05229238

>  <Name>
lig.pdb

>  <RI>
0

>  <Rbt.Current_Directory>
/home/itssahil/PROJECTS/Mol_Feturizer/New_Systems/rnas/5kx9

>  <Rbt.Executable>
rbdock ($Id: //depot/dev/client3/rdock/2013.1/src/exe/rbdock.cxx#4 $)

>  <Rbt.Library>
libRbt.so (2013.1, Build901 2013/11/27)

>  <Rbt.Parameter_File>
/export/apps/rDock/src/rDock_2013.1_src/data/scripts/dock_solv.prm

>  <Rbt.Receptor>
prm/pocket_docking_6.prm

>  <SCORE>
-33.0515

>  <SCORE.INTER>
-30.3197

>  <SCORE.INTER.CONST>
1

>  <SCORE.INTER.POLAR>
0

>  <SCORE.INTER.ROT>
5

>  <SCORE.INTER.SOLV>
12.1943

>  <SCORE.INTER.VDW>
-31.2112

>  <SCORE.INTER.norm>
-1.12295

>  <SCORE.INTRA>
-2.73186

>  <SCORE.INTRA.DIHEDRAL>
3.43835

>  <SCORE.INTRA.DIHEDRAL.0>
2.68224

>  <SCORE.INTRA.POLAR>
0

>  <SCORE.INTRA.POLAR.0>
0

>  <SCORE.INTRA.REPUL>
0

>  <SCORE.INTRA.REPUL.0>
0

>  <SCORE.INTRA.SOLV>
-0.367562

>  <SCORE.INTRA.SOLV.lig_0>
-19.4148

>  <SCORE.INTRA.VDW>
-4.26725

>  <SCORE.INTRA.VDW.0>
5.42093

>  <SCORE.INTRA.norm>
-0.10118

>  <SCORE.RESTR>
0

>  <SCORE.RESTR.CAVITY>
0

>  <SCORE.RESTR.norm>
0

>  <SCORE.SYSTEM>
0

>  <SCORE.SYSTEM.CONST>
0

>  <SCORE.SYSTEM.DIHEDRAL>
0

>  <SCORE.SYSTEM.SOLV>
0

>  <SCORE.SYSTEM.norm>
0

>  <SCORE.heavy>
27

>  <SCORE.norm>
-1.22413

>  <RMSD>
6.253

$$$$
lig.pdb
 OpenBabel11021811523D
libRbt.so/2013.1/901 2013/11/27
 27 30  0  0  0  0  0  0  0  0999 V2000
   29.2421   36.4715   17.7504 N   0  0  0  0  0  0  0  0  0  0  0  0
   28.1082   37.1269   17.7816 C   0  0  0  0  0  0  0  0  0  0  0  0
   27.9417   38.4086   17.3686 N   0  0  0  0  0  0  0  0  0  0  0  0
   29.0121   39.0676   16.8328 C   0  0  0  0  0  0  0  0  0  0  0  0
   30.2267   38.4515   16.7350 C   0  0  0  0  0  0  0  0  0  0  0  0
   30.3696   37.1012   17.2249 C   0  0  0  0  0  0  0  0  0  0  0  0
   31.4490   36.4964   17.2188 O   0  0  0  0  0  0  0  0  0  0  0  0
   26.8437   36.5714   18.4729 C   0  0  2  0  0  0  0  0  0  0  0  0
   27.4251   35.9538   19.7551 C   0  0  0  0  0  0  0  0  0  0  0  0
   26.4339   35.1427   20.4642 N   0  0  0  0  0  0  0  0  0  0  0  0
   26.0279   34.0193   19.6043 C   0  0  0  0  0  0  0  0  0  0  0  0
   25.3500   34.5224   18.3451 C   0  0  0  0  0  0  0  0  0  0  0  0
   26.2621   35.4668   17.5744 C   0  0  0  0  0  0  0  0  0  0  0  0
   28.6744   40.4155   16.3954 C   0  0  0  0  0  0  0  0  0  0  0  0
   27.0405   40.9664   16.3492 S   0  0  0  0  0  0  0  0  0  0  0  0
   27.4980   42.4666   15.7566 C   0  0  0  0  0  0  0  0  0  0  0  0
   28.8277   42.5748   15.6414 C   0  0  0  0  0  0  0  0  0  0  0  0
   29.5213   41.4017   15.9971 C   0  0  0  0  0  0  0  0  0  0  0  0
   26.9497   34.6430   21.7509 C   0  0  0  0  0  0  0  0  0  0  0  0
   27.0672   35.6714   22.8536 C   0  0  0  0  0  0  0  0  0  0  0  0
   26.2306   35.6343   23.9596 C   0  0  0  0  0  0  0  0  0  0  0  0
   26.0207   36.6741   24.7872 N   0  0  0  0  0  0  0  0  0  0  0  0
   26.6585   37.7819   24.4401 C   0  0  0  0  0  0  0  0  0  0  0  0
   27.4518   37.9827   23.4000 N   0  0  0  0  0  0  0  0  0  0  0  0
   27.6178   36.9125   22.6089 C   0  0  0  0  0  0  0  0  0  0  0  0
   26.4403   38.8162   25.2604 O   0  0  0  0  0  0  0  0  0  0  0  0
   27.0636   40.0633   24.9320 C   0  0  0  0  0  0  0  0  0  0  0  0
  1  2  2  0  0  0  0
  1  6  1  0  0  0  0
  2  3  1  0  0  0  0
  3  4  2  0  0  0  0
  4 14  1  0  0  0  0
  5  4  1  0  0  0  0
  6  5  1  0  0  0  0
  7  6  2  0  0  0  0
  8  9  1  0  0  0  0
  8  2  1  6  0  0  0
 10 19  1  0  0  0  0
 10  9  1  0  0  0  0
 11 10  1  0  0  0  0
 12 11  1  0  0  0  0
 12 13  1  0  0  0  0
 13  8  1  0  0  0  0
 14 15  1  0  0  0  0
 14 18  2  0  0  0  0
 15 16  1  0  0  0  0
 16 17  2  0  0  0  0
 18 17  1  0  0  0  0
 19 20  1  0  0  0  0
 20 25  2  0  0  0  0
 20 21  1  0  0  0  0
 21 22  2  0  0  0  0
 22 23  1  0  0  0  0
 23 26  1  0  0  0  0
 24 23  2  0  0  0  0
 25 24  1  0  0  0  0
 26 27  1  0  0  0  0
M  END
>  <CHROM.1>
-9.11889787,41.09371393,73.45234555,110.50759017,-178.22292084,27.65457245
37.78981247,19.50439799,-0.09913634,-1.31502820,-2.80822243

>  <Name>
lig.pdb

>  <RI>
0

>  <Rbt.Current_Directory>
/home/itssahil/PROJECTS/Mol_Feturizer/New_Systems/rnas/5kx9

>  <Rbt.Executable>
rbdock ($Id: //depot/dev/client3/rdock/2013.1/src/exe/rbdock.cxx#4 $)

>  <Rbt.Library>
libRbt.so (2013.1, Build901 2013/11/27)

>  <Rbt.Parameter_File>
/export/apps/rDock/src/rDock_2013.1_src/data/scripts/dock_solv.prm

>  <Rbt.Receptor>
prm/pocket_docking_5.prm

>  <SCORE>
-32.5452

>  <SCORE.INTER>
-28.8365

>  <SCORE.INTER.CONST>
1

>  <SCORE.INTER.POLAR>
0

>  <SCORE.INTER.ROT>
5

>  <SCORE.INTER.SOLV>
15.5861

>  <SCORE.INTER.VDW>
-31.353

>  <SCORE.INTER.norm>
-1.06802

>  <SCORE.INTRA>
-3.7087

>  <SCORE.INTRA.DIHEDRAL>
-0.140549

>  <SCORE.INTRA.DIHEDRAL.0>
2.68224

>  <SCORE.INTRA.POLAR>
0

>  <SCORE.INTRA.POLAR.0>
0

>  <SCORE.INTRA.REPUL>
0

>  <SCORE.INTRA.REPUL.0>
0

>  <SCORE.INTRA.SOLV>
-0.409887

>  <SCORE.INTRA.SOLV.lig_0>
-19.4148

>  <SCORE.INTRA.VDW>
-3.43348

>  <SCORE.INTRA.VDW.0>
5.42093

>  <SCORE.INTRA.norm>
-0.137359

>  <SCORE.RESTR>
0

>  <SCORE.RESTR.CAVITY>
0

>  <SCORE.RESTR.norm>
0

>  <SCORE.SYSTEM>
0

>  <SCORE.SYSTEM.CONST>
0

>  <SCORE.SYSTEM.DIHEDRAL>
0

>  <SCORE.SYSTEM.SOLV>
0

>  <SCORE.SYSTEM.norm>
0

>  <SCORE.heavy>
27

>  <SCORE.norm>
-1.20538

>  <RMSD>
6.255

$$$$
lig.pdb
 OpenBabel11021811523D
libRbt.so/2013.1/901 2013/11/27
 27 30  0  0  0  0  0  0  0  0999 V2000
   27.6192   42.2043   21.5156 N   0  0  0  0  0  0  0  0  0  0  0  0
   26.8759   41.1512   21.2816 C   0  0  0  0  0  0  0  0  0  0  0  0
   26.8771   40.0193   22.0298 N   0  0  0  0  0  0  0  0  0  0  0  0
   27.6698   39.9710   23.1418 C   0  0  0  0  0  0  0  0  0  0  0  0
   28.4571   41.0347   23.4779 C   0  0  0  0  0  0  0  0  0  0  0  0
   28.4563   42.2034   22.6306 C   0  0  0  0  0  0  0  0  0  0  0  0
   29.1809   43.1841   22.8404 O   0  0  0  0  0  0  0  0  0  0  0  0
   26.0283   40.9980   19.9995 C   0  0  2  0  0  0  0  0  0  0  0  0
   26.8097   39.9236   19.2259 C   0  0  0  0  0  0  0  0  0  0  0  0
   26.3250   39.7847   17.8515 N   0  0  0  0  0  0  0  0  0  0  0  0
   26.5366   41.0536   17.1365 C   0  0  0  0  0  0  0  0  0  0  0  0
   25.7264   42.1690   17.7671 C   0  0  0  0  0  0  0  0  0  0  0  0
   26.0784   42.3341   19.2390 C   0  0  0  0  0  0  0  0  0  0  0  0
   27.5355   38.7149   23.8673 C   0  0  0  0  0  0  0  0  0  0  0  0
   27.1642   37.2390   23.0555 S   0  0  0  0  0  0  0  0  0  0  0  0
   27.1617   36.3767   24.4933 C   0  0  0  0  0  0  0  0  0  0  0  0
   27.4747   37.1496   25.5409 C   0  0  0  0  0  0  0  0  0  0  0  0
   27.6857   38.5002   25.2015 C   0  0  0  0  0  0  0  0  0  0  0  0
   26.9915   38.6788   17.1414 C   0  0  0  0  0  0  0  0  0  0  0  0
   26.4374   37.2979   17.4122 C   0  0  0  0  0  0  0  0  0  0  0  0
   25.1094   37.1165   17.7703 C   0  0  0  0  0  0  0  0  0  0  0  0
   24.6279   36.0085   18.3623 N   0  0  0  0  0  0  0  0  0  0  0  0
   25.5454   35.0893   18.6226 C   0  0  0  0  0  0  0  0  0  0  0  0
   26.8457   35.1336   18.3807 N   0  0  0  0  0  0  0  0  0  0  0  0
   27.2671   36.2644   17.7953 C   0  0  0  0  0  0  0  0  0  0  0  0
   25.0642   33.9927   19.2194 O   0  0  0  0  0  0  0  0  0  0  0  0
   25.0915   32.7692   18.4751 C   0  0  0  0  0  0  0  0  0  0  0  0
  1  2  2  0  0  0  0
  1  6  1  0  0  0  0
  2  3  1  0  0  0  0
  3  4  2  0  0  0  0
  4 14  1  0  0  0  0
  5  4  1  0  0  0  0
  6  5  1  0  0  0  0
  7  6  2  0  0  0  0
  8  9  1  0  0  0  0
  8  2  1  1  0  0  0
 10 19  1  0  0  0  0
 10  9  1  0  0  0  0
 11 10  1  0  0  0  0
 12 11  1  0  0  0  0
 12 13  1  0  0  0  0
 13  8  1  0  0  0  0
 14 15  1  0  0  0  0
 14 18  2  0  0  0  0
 15 16  1  0  0  0  0
 16 17  2  0  0  0  0
 18 17  1  0  0  0  0
 19 20  1  0  0  0  0
 20 25  2  0  0  0  0
 20 21  1  0  0  0  0
 21 22  2  0  0  0  0
 22 23  1  0  0  0  0
 23 26  1  0  0  0  0
 24 23  2  0  0  0  0
 25 24  1  0  0  0  0
 26 27  1  0  0  0  0
M  END
>  <CHROM.1>
30.62480932,107.74225172,81.60615850,27.77532480,112.95160819,26.77216814
38.67158173,20.57831362,0.26469160,-1.27027316,-0.60123760

>  <Name>
lig.pdb

>  <RI>
0

>  <Rbt.Current_Directory>
/home/itssahil/PROJECTS/Mol_Feturizer/New_Systems/rnas/5kx9

>  <Rbt.Executable>
rbdock ($Id: //depot/dev/client3/rdock/2013.1/src/exe/rbdock.cxx#4 $)

>  <Rbt.Library>
libRbt.so (2013.1, Build901 2013/11/27)

>  <Rbt.Parameter_File>
/export/apps/rDock/src/rDock_2013.1_src/data/scripts/dock_solv.prm

>  <Rbt.Receptor>
prm/pocket_docking_4.prm

>  <SCORE>
-30.779

>  <SCORE.INTER>
-27.3868

>  <SCORE.INTER.CONST>
1

>  <SCORE.INTER.POLAR>
0

>  <SCORE.INTER.ROT>
5

>  <SCORE.INTER.SOLV>
11.9481

>  <SCORE.INTER.VDW>
-29.1739

>  <SCORE.INTER.norm>
-1.01433

>  <SCORE.INTRA>
-3.39217

>  <SCORE.INTRA.DIHEDRAL>
6.24001

>  <SCORE.INTRA.DIHEDRAL.0>
2.68224

>  <SCORE.INTRA.POLAR>
0

>  <SCORE.INTRA.POLAR.0>
0

>  <SCORE.INTRA.REPUL>
0

>  <SCORE.INTRA.REPUL.0>
0

>  <SCORE.INTRA.SOLV>
-0.494135

>  <SCORE.INTRA.SOLV.lig_0>
-19.4148

>  <SCORE.INTRA.VDW>
-6.26511

>  <SCORE.INTRA.VDW.0>
5.42093

>  <SCORE.INTRA.norm>
-0.125636

>  <SCORE.RESTR>
0

>  <SCORE.RESTR.CAVITY>
0

>  <SCORE.RESTR.norm>
0

>  <SCORE.SYSTEM>
0

>  <SCORE.SYSTEM.CONST>
0

>  <SCORE.SYSTEM.DIHEDRAL>
0

>  <SCORE.SYSTEM.SOLV>
0

>  <SCORE.SYSTEM.norm>
0

>  <SCORE.heavy>
27

>  <SCORE.norm>
-1.13996

>  <RMSD>
6.261

$$$$
lig.pdb
 OpenBabel11021811523D
libRbt.so/2013.1/901 2013/11/27
 27 30  0  0  0  0  0  0  0  0999 V2000
   28.5905   42.3961   21.9158 N   0  0  0  0  0  0  0  0  0  0  0  0
   28.1346   41.2725   21.4199 C   0  0  0  0  0  0  0  0  0  0  0  0
   27.8380   40.1670   22.1485 N   0  0  0  0  0  0  0  0  0  0  0  0
   27.9723   40.2235   23.5071 C   0  0  0  0  0  0  0  0  0  0  0  0
   28.4145   41.3646   24.1126 C   0  0  0  0  0  0  0  0  0  0  0  0
   28.7584   42.5040   23.2957 C   0  0  0  0  0  0  0  0  0  0  0  0
   29.2149   43.5532   23.7665 O   0  0  0  0  0  0  0  0  0  0  0  0
   28.0512   41.0056   19.9009 C   0  0  2  0  0  0  0  0  0  0  0  0
   28.8320   39.6884   19.7641 C   0  0  0  0  0  0  0  0  0  0  0  0
   29.0987   39.3589   18.3628 N   0  0  0  0  0  0  0  0  0  0  0  0
   29.9437   40.4104   17.7742 C   0  0  0  0  0  0  0  0  0  0  0  0
   29.2219   41.7435   17.7723 C   0  0  0  0  0  0  0  0  0  0  0  0
   28.8022   42.1388   19.1813 C   0  0  0  0  0  0  0  0  0  0  0  0
   27.5781   38.9812   24.1579 C   0  0  0  0  0  0  0  0  0  0  0  0
   27.2032   37.5650   23.2474 S   0  0  0  0  0  0  0  0  0  0  0  0
   26.8525   36.6909   24.6345 C   0  0  0  0  0  0  0  0  0  0  0  0
   27.0537   37.4121   25.7446 C   0  0  0  0  0  0  0  0  0  0  0  0
   27.4640   38.7353   25.4902 C   0  0  0  0  0  0  0  0  0  0  0  0
   29.7446   38.0422   18.2198 C   0  0  0  0  0  0  0  0  0  0  0  0
   28.8269   36.8459   18.3385 C   0  0  0  0  0  0  0  0  0  0  0  0
   28.0907   36.6195   19.4924 C   0  0  0  0  0  0  0  0  0  0  0  0
   27.5442   35.4357   19.8235 N   0  0  0  0  0  0  0  0  0  0  0  0
   27.7979   34.4607   18.9635 C   0  0  0  0  0  0  0  0  0  0  0  0
   28.5112   34.5113   17.8500 N   0  0  0  0  0  0  0  0  0  0  0  0
   29.0351   35.7152   17.5760 C   0  0  0  0  0  0  0  0  0  0  0  0
   27.2602   33.2829   19.3008 O   0  0  0  0  0  0  0  0  0  0  0  0
   25.9034   33.0398   18.9113 C   0  0  0  0  0  0  0  0  0  0  0  0
  1  2  2  0  0  0  0
  1  6  1  0  0  0  0
  2  3  1  0  0  0  0
  3  4  2  0  0  0  0
  4 14  1  0  0  0  0
  5  4  1  0  0  0  0
  6  5  1  0  0  0  0
  7  6  2  0  0  0  0
  8  9  1  0  0  0  0
  8  2  1  1  0  0  0
 10 19  1  0  0  0  0
 10  9  1  0  0  0  0
 11 10  1  0  0  0  0
 12 11  1  0  0  0  0
 12 13  1  0  0  0  0
 13  8  1  0  0  0  0
 14 15  1  0  0  0  0
 14 18  2  0  0  0  0
 15 16  1  0  0  0  0
 16 17  2  0  0  0  0
 18 17  1  0  0  0  0
 19 20  1  0  0  0  0
 20 25  2  0  0  0  0
 20 21  1  0  0  0  0
 21 22  2  0  0  0  0
 22 23  1  0  0  0  0
 23 26  1  0  0  0  0
 24 23  2  0  0  0  0
 25 24  1  0  0  0  0
 26 27  1  0  0  0  0
M  END
>  <CHROM.1>
7.80616755,125.60819851,78.29523885,-59.54514448,85.19070315,28.16750059
38.57028399,20.98345085,-1.33836998,-1.23288420,-2.35188736

>  <Name>
lig.pdb

>  <RI>
0

>  <Rbt.Current_Directory>
/home/itssahil/PROJECTS/Mol_Feturizer/New_Systems/rnas/5kx9

>  <Rbt.Executable>
rbdock ($Id: //depot/dev/client3/rdock/2013.1/src/exe/rbdock.cxx#4 $)

>  <Rbt.Library>
libRbt.so (2013.1, Build901 2013/11/27)

>  <Rbt.Parameter_File>
/export/apps/rDock/src/rDock_2013.1_src/data/scripts/dock_solv.prm

>  <Rbt.Receptor>
prm/pocket_docking_4.prm

>  <SCORE>
-28.7213

>  <SCORE.INTER>
-25.8851

>  <SCORE.INTER.CONST>
1

>  <SCORE.INTER.POLAR>
0

>  <SCORE.INTER.ROT>
5

>  <SCORE.INTER.SOLV>
11.5656

>  <SCORE.INTER.VDW>
-28.0452

>  <SCORE.INTER.norm>
-0.958707

>  <SCORE.INTRA>
-2.83623

>  <SCORE.INTRA.DIHEDRAL>
4.90678

>  <SCORE.INTRA.DIHEDRAL.0>
2.68224

>  <SCORE.INTRA.POLAR>
0

>  <SCORE.INTRA.POLAR.0>
0

>  <SCORE.INTRA.REPUL>
0

>  <SCORE.INTRA.REPUL.0>
0

>  <SCORE.INTRA.SOLV>
-0.345865

>  <SCORE.INTRA.SOLV.lig_0>
-19.4148

>  <SCORE.INTRA.VDW>
-5.11669

>  <SCORE.INTRA.VDW.0>
5.42093

>  <SCORE.INTRA.norm>
-0.105045

>  <SCORE.RESTR>
0

>  <SCORE.RESTR.CAVITY>
0

>  <SCORE.RESTR.norm>
0

>  <SCORE.SYSTEM>
0

>  <SCORE.SYSTEM.CONST>
0

>  <SCORE.SYSTEM.DIHEDRAL>
0

>  <SCORE.SYSTEM.SOLV>
0

>  <SCORE.SYSTEM.norm>
0

>  <SCORE.heavy>
27

>  <SCORE.norm>
-1.06375

>  <RMSD>
6.263

$$$$
lig.pdb
 OpenBabel11021811523D
libRbt.so/2013.1/901 2013/11/27
 27 30  0  0  0  0  0  0  0  0999 V2000
   28.9147   42.3683   21.3263 N   0  0  0  0  0  0  0  0  0  0  0  0
   28.3739   41.3232   20.7506 C   0  0  0  0  0  0  0  0  0  0  0  0
   28.0253   40.1788   21.3909 N   0  0  0  0  0  0  0  0  0  0  0  0
   28.1986   40.1076   22.7444 C   0  0  0  0  0  0  0  0  0  0  0  0
   28.7298   41.1615   23.4311 C   0  0  0  0  0  0  0  0  0  0  0  0
   29.1254   42.3443   22.7043 C   0  0  0  0  0  0  0  0  0  0  0  0
   29.6614   43.3177   23.2485 O   0  0  0  0  0  0  0  0  0  0  0  0
   28.2334   41.1960   19.2177 C   0  0  2  0  0  0  0  0  0  0  0  0
   28.9602   39.8703   18.9387 C   0  0  0  0  0  0  0  0  0  0  0  0
   29.1708   39.6584   17.5055 N   0  0  0  0  0  0  0  0  0  0  0  0
   30.0355   40.7289   16.9833 C   0  0  0  0  0  0  0  0  0  0  0  0
   29.3639   42.0807   17.1236 C   0  0  0  0  0  0  0  0  0  0  0  0
   29.0031   42.3626   18.5755 C   0  0  0  0  0  0  0  0  0  0  0  0
   27.7417   38.8402   23.2985 C   0  0  0  0  0  0  0  0  0  0  0  0
   27.5880   37.4296   22.3178 S   0  0  0  0  0  0  0  0  0  0  0  0
   27.0292   36.5175   23.6088 C   0  0  0  0  0  0  0  0  0  0  0  0
   27.0027   37.2237   24.7461 C   0  0  0  0  0  0  0  0  0  0  0  0
   27.4019   38.5649   24.5858 C   0  0  0  0  0  0  0  0  0  0  0  0
   29.7628   38.3386   17.2250 C   0  0  0  0  0  0  0  0  0  0  0  0
   28.9138   37.1457   17.6042 C   0  0  0  0  0  0  0  0  0  0  0  0
   28.7506   36.7757   18.9313 C   0  0  0  0  0  0  0  0  0  0  0  0
   28.3283   35.5636   19.3344 N   0  0  0  0  0  0  0  0  0  0  0  0
   28.1088   34.7086   18.3467 C   0  0  0  0  0  0  0  0  0  0  0  0
   28.2576   34.8994   17.0456 N   0  0  0  0  0  0  0  0  0  0  0  0
   28.6863   36.1239   16.7056 C   0  0  0  0  0  0  0  0  0  0  0  0
   27.6976   33.5016   18.7520 O   0  0  0  0  0  0  0  0  0  0  0  0
   26.3181   33.3592   19.1101 C   0  0  0  0  0  0  0  0  0  0  0  0
  1  2  2  0  0  0  0
  1  6  1  0  0  0  0
  2  3  1  0  0  0  0
  3  4  2  0  0  0  0
  4 14  1  0  0  0  0
  5  4  1  0  0  0  0
  6  5  1  0  0  0  0
  7  6  2  0  0  0  0
  8  9  1  0  0  0  0
  8  2  1  1  0  0  0
 10 19  1  0  0  0  0
 10  9  1  0  0  0  0
 11 10  1  0  0  0  0
 12 11  1  0  0  0  0
 12 13  1  0  0  0  0
 13  8  1  0  0  0  0
 14 15  1  0  0  0  0
 14 18  2  0  0  0  0
 15 16  1  0  0  0  0
 16 17  2  0  0  0  0
 18 17  1  0  0  0  0
 19 20  1  0  0  0  0
 20 25  2  0  0  0  0
 20 21  1  0  0  0  0
 21 22  2  0  0  0  0
 22 23  1  0  0  0  0
 23 26  1  0  0  0  0
 24 23  2  0  0  0  0
 25 24  1  0  0  0  0
 26 27  1  0  0  0  0
M  END
>  <CHROM.1>
21.64407438,123.97446131,63.42059996,-73.89310254,79.28722524,28.38885551
38.65549281,20.27108487,-1.22229579,-1.25533141,-2.30653812

>  <Name>
lig.pdb

>  <RI>
0

>  <Rbt.Current_Directory>
/home/itssahil/PROJECTS/Mol_Feturizer/New_Systems/rnas/5kx9

>  <Rbt.Executable>
rbdock ($Id: //depot/dev/client3/rdock/2013.1/src/exe/rbdock.cxx#4 $)

>  <Rbt.Library>
libRbt.so (2013.1, Build901 2013/11/27)

>  <Rbt.Parameter_File>
/export/apps/rDock/src/rDock_2013.1_src/data/scripts/dock_solv.prm

>  <Rbt.Receptor>
prm/pocket_docking_4.prm

>  <SCORE>
-28.013

>  <SCORE.INTER>
-25.2162

>  <SCORE.INTER.CONST>
1

>  <SCORE.INTER.POLAR>
0

>  <SCORE.INTER.ROT>
5

>  <SCORE.INTER.SOLV>
11.7003

>  <SCORE.INTER.VDW>
-27.6443

>  <SCORE.INTER.norm>
-0.933934

>  <SCORE.INTRA>
-2.79675

>  <SCORE.INTRA.DIHEDRAL>
5.18886

>  <SCORE.INTRA.DIHEDRAL.0>
2.68224

>  <SCORE.INTRA.POLAR>
0

>  <SCORE.INTRA.POLAR.0>
0

>  <SCORE.INTRA.REPUL>
0

>  <SCORE.INTRA.REPUL.0>
0

>  <SCORE.INTRA.SOLV>
-0.212198

>  <SCORE.INTRA.SOLV.lig_0>
-19.4148

>  <SCORE.INTRA.VDW>
-5.28507

>  <SCORE.INTRA.VDW.0>
5.42093

>  <SCORE.INTRA.norm>
-0.103583

>  <SCORE.RESTR>
0

>  <SCORE.RESTR.CAVITY>
0

>  <SCORE.RESTR.norm>
0

>  <SCORE.SYSTEM>
0

>  <SCORE.SYSTEM.CONST>
0

>  <SCORE.SYSTEM.DIHEDRAL>
0

>  <SCORE.SYSTEM.SOLV>
0

>  <SCORE.SYSTEM.norm>
0

>  <SCORE.heavy>
27

>  <SCORE.norm>
-1.03752

>  <RMSD>
6.265

$$$$
lig.pdb
 OpenBabel11021811523D
libRbt.so/2013.1/901 2013/11/27
 27 30  0  0  0  0  0  0  0  0999 V2000
   28.3901   42.2080   21.5025 N   0  0  0  0  0  0  0  0  0  0  0  0
   27.7016   41.1763   21.0810 C   0  0  0  0  0  0  0  0  0  0  0  0
   27.4613   40.0553   21.8068 N   0  0  0  0  0  0  0  0  0  0  0  0
   27.9219   39.9969   23.0919 C   0  0  0  0  0  0  0  0  0  0  0  0
   28.6254   41.0393   23.6237 C   0  0  0  0  0  0  0  0  0  0  0  0
   28.8941   42.1956   22.8024 C   0  0  0  0  0  0  0  0  0  0  0  0
   29.5686   43.1554   23.1958 O   0  0  0  0  0  0  0  0  0  0  0  0
   27.2272   41.0327   19.6181 C   0  0  2  0  0  0  0  0  0  0  0  0
   27.8920   39.7129   19.1942 C   0  0  0  0  0  0  0  0  0  0  0  0
   27.7832   39.4896   17.7515 N   0  0  0  0  0  0  0  0  0  0  0  0
   28.4966   40.5648   17.0435 C   0  0  0  0  0  0  0  0  0  0  0  0
   27.8546   41.9101   17.3197 C   0  0  0  0  0  0  0  0  0  0  0  0
   27.8202   42.2019   18.8135 C   0  0  0  0  0  0  0  0  0  0  0  0
   27.5531   38.7560   23.7599 C   0  0  0  0  0  0  0  0  0  0  0  0
   27.6259   38.5987   25.4760 S   0  0  0  0  0  0  0  0  0  0  0  0
   27.1159   37.0028   25.4135 C   0  0  0  0  0  0  0  0  0  0  0  0
   26.8521   36.6105   24.1607 C   0  0  0  0  0  0  0  0  0  0  0  0
   27.1052   37.6035   23.1943 C   0  0  0  0  0  0  0  0  0  0  0  0
   28.3160   38.1740   17.3559 C   0  0  0  0  0  0  0  0  0  0  0  0
   27.5844   36.9751   17.9171 C   0  0  0  0  0  0  0  0  0  0  0  0
   27.9863   36.3825   19.1054 C   0  0  0  0  0  0  0  0  0  0  0  0
   27.6410   35.1398   19.4880 N   0  0  0  0  0  0  0  0  0  0  0  0
   26.8988   34.4865   18.6067 C   0  0  0  0  0  0  0  0  0  0  0  0
   26.4733   34.8990   17.4233 N   0  0  0  0  0  0  0  0  0  0  0  0
   26.8540   36.1423   17.0947 C   0  0  0  0  0  0  0  0  0  0  0  0
   26.5649   33.2479   18.9868 O   0  0  0  0  0  0  0  0  0  0  0  0
   25.2816   32.7560   18.5832 C   0  0  0  0  0  0  0  0  0  0  0  0
  1  2  2  0  0  0  0
  1  6  1  0  0  0  0
  2  3  1  0  0  0  0
  3  4  2  0  0  0  0
  4 14  1  0  0  0  0
  5  4  1  0  0  0  0
  6  5  1  0  0  0  0
  7  6  2  0  0  0  0
  8  9  1  0  0  0  0
  8  2  1  1  0  0  0
 10 19  1  0  0  0  0
 10  9  1  0  0  0  0
 11 10  1  0  0  0  0
 12 11  1  0  0  0  0
 12 13  1  0  0  0  0
 13  8  1  0  0  0  0
 14 15  1  0  0  0  0
 14 18  2  0  0  0  0
 15 16  1  0  0  0  0
 16 17  2  0  0  0  0
 18 17  1  0  0  0  0
 19 20  1  0  0  0  0
 20 25  2  0  0  0  0
 20 21  1  0  0  0  0
 21 22  2  0  0  0  0
 22 23  1  0  0  0  0
 23 26  1  0  0  0  0
 24 23  2  0  0  0  0
 25 24  1  0  0  0  0
 26 27  1  0  0  0  0
M  END
>  <CHROM.1>
-163.19715607,121.09260754,63.66942746,-92.41825030,145.89635179,27.61196457
38.56292662,20.69492853,-0.68158626,-1.33361834,-1.55779718

>  <Name>
lig.pdb

>  <RI>
0

>  <Rbt.Current_Directory>
/home/itssahil/PROJECTS/Mol_Feturizer/New_Systems/rnas/5kx9

>  <Rbt.Executable>
rbdock ($Id: //depot/dev/client3/rdock/2013.1/src/exe/rbdock.cxx#4 $)

>  <Rbt.Library>
libRbt.so (2013.1, Build901 2013/11/27)

>  <Rbt.Parameter_File>
/export/apps/rDock/src/rDock_2013.1_src/data/scripts/dock_solv.prm

>  <Rbt.Receptor>
prm/pocket_docking_3.prm

>  <SCORE>
-26.9359

>  <SCORE.INTER>
-23.3203

>  <SCORE.INTER.CONST>
1

>  <SCORE.INTER.POLAR>
0

>  <SCORE.INTER.ROT>
5

>  <SCORE.INTER.SOLV>
9.55994

>  <SCORE.INTER.VDW>
-25.6669

>  <SCORE.INTER.norm>
-0.863716

>  <SCORE.INTRA>
-3.61648

>  <SCORE.INTRA.DIHEDRAL>
1.17277

>  <SCORE.INTRA.DIHEDRAL.0>
2.68224

>  <SCORE.INTRA.POLAR>
0

>  <SCORE.INTRA.POLAR.0>
0

>  <SCORE.INTRA.REPUL>
0

>  <SCORE.INTRA.REPUL.0>
0

>  <SCORE.INTRA.SOLV>
-0.605843

>  <SCORE.INTRA.SOLV.lig_0>
-19.4148

>  <SCORE.INTRA.VDW>
-3.89994

>  <SCORE.INTRA.VDW.0>
5.42093

>  <SCORE.INTRA.norm>
-0.133944

>  <SCORE.RESTR>
0.000951552

>  <SCORE.RESTR.CAVITY>
0.000951552

>  <SCORE.RESTR.norm>
3.52426e-05

>  <SCORE.SYSTEM>
0

>  <SCORE.SYSTEM.CONST>
0

>  <SCORE.SYSTEM.DIHEDRAL>
0

>  <SCORE.SYSTEM.SOLV>
0

>  <SCORE.SYSTEM.norm>
0

>  <SCORE.heavy>
27

>  <SCORE.norm>
-0.997625

>  <RMSD>
6.269

$$$$
lig.pdb
 OpenBabel11021811523D
libRbt.so/2013.1/901 2013/11/27
 27 30  0  0  0  0  0  0  0  0999 V2000
   27.9825   38.8417   21.5872 N   0  0  0  0  0  0  0  0  0  0  0  0
   28.7064   39.8913   21.2862 C   0  0  0  0  0  0  0  0  0  0  0  0
   29.0568   40.8682   22.1602 N   0  0  0  0  0  0  0  0  0  0  0  0
   28.6773   40.7438   23.4670 C   0  0  0  0  0  0  0  0  0  0  0  0
   27.9443   39.6668   23.8759 C   0  0  0  0  0  0  0  0  0  0  0  0
   27.5578   38.6718   22.9042 C   0  0  0  0  0  0  0  0  0  0  0  0
   26.8506   37.6969   23.1878 O   0  0  0  0  0  0  0  0  0  0  0  0
   29.1014   40.2424   19.8349 C   0  0  2  0  0  0  0  0  0  0  0  0
   27.9027   39.7031   19.0376 C   0  0  0  0  0  0  0  0  0  0  0  0
   28.1646   39.7043   17.5973 N   0  0  0  0  0  0  0  0  0  0  0  0
   29.2954   38.8059   17.3135 C   0  0  0  0  0  0  0  0  0  0  0  0
   30.5614   39.3061   17.9808 C   0  0  0  0  0  0  0  0  0  0  0  0
   30.3680   39.4431   19.4847 C   0  0  0  0  0  0  0  0  0  0  0  0
   29.1597   41.8418   24.2940 C   0  0  0  0  0  0  0  0  0  0  0  0
   28.8526   41.8963   25.9904 S   0  0  0  0  0  0  0  0  0  0  0  0
   29.6500   43.3623   26.1504 C   0  0  0  0  0  0  0  0  0  0  0  0
   30.1718   43.7775   24.9893 C   0  0  0  0  0  0  0  0  0  0  0  0
   29.8933   42.9193   23.9076 C   0  0  0  0  0  0  0  0  0  0  0  0
   26.9796   39.2975   16.8216 C   0  0  0  0  0  0  0  0  0  0  0  0
   26.4691   37.8994   17.0901 C   0  0  0  0  0  0  0  0  0  0  0  0
   26.4793   36.9302   16.0975 C   0  0  0  0  0  0  0  0  0  0  0  0
   25.7417   35.8055   16.1278 N   0  0  0  0  0  0  0  0  0  0  0  0
   24.9515   35.7024   17.1859 C   0  0  0  0  0  0  0  0  0  0  0  0
   24.8019   36.5553   18.1867 N   0  0  0  0  0  0  0  0  0  0  0  0
   25.5582   37.6594   18.0981 C   0  0  0  0  0  0  0  0  0  0  0  0
   24.2131   34.5869   17.2081 O   0  0  0  0  0  0  0  0  0  0  0  0
   24.3054   33.7561   18.3712 C   0  0  0  0  0  0  0  0  0  0  0  0
  1  2  2  0  0  0  0
  1  6  1  0  0  0  0
  2  3  1  0  0  0  0
  3  4  2  0  0  0  0
  4 14  1  0  0  0  0
  5  4  1  0  0  0  0
  6  5  1  0  0  0  0
  7  6  2  0  0  0  0
  8  9  1  0  0  0  0
  8  2  1  1  0  0  0
 10 19  1  0  0  0  0
 10  9  1  0  0  0  0
 11 10  1  0  0  0  0
 12 11  1  0  0  0  0
 12 13  1  0  0  0  0
 13  8  1  0  0  0  0
 14 15  1  0  0  0  0
 14 18  2  0  0  0  0
 15 16  1  0  0  0  0
 16 17  2  0  0  0  0
 18 17  1  0  0  0  0
 19 20  1  0  0  0  0
 20 25  2  0  0  0  0
 20 21  1  0  0  0  0
 21 22  2  0  0  0  0
 22 23  1  0  0  0  0
 23 26  1  0  0  0  0
 24 23  2  0  0  0  0
 25 24  1  0  0  0  0
 26 27  1  0  0  0  0
M  END
>  <CHROM.1>
-178.27502074,31.13204995,-61.59134549,-116.12593581,125.22557596,27.76918584
39.15479563,20.59750681,1.04945381,0.79764697,1.31954355

>  <Name>
lig.pdb

>  <RI>
0

>  <Rbt.Current_Directory>
/home/itssahil/PROJECTS/Mol_Feturizer/New_Systems/rnas/5kx9

>  <Rbt.Executable>
rbdock ($Id: //depot/dev/client3/rdock/2013.1/src/exe/rbdock.cxx#4 $)

>  <Rbt.Library>
libRbt.so (2013.1, Build901 2013/11/27)

>  <Rbt.Parameter_File>
/export/apps/rDock/src/rDock_2013.1_src/data/scripts/dock_solv.prm

>  <Rbt.Receptor>
prm/pocket_docking_8.prm

>  <SCORE>
-27.9191

>  <SCORE.INTER>
-23.5879

>  <SCORE.INTER.CONST>
1

>  <SCORE.INTER.POLAR>
0

>  <SCORE.INTER.ROT>
5

>  <SCORE.INTER.SOLV>
11.7941

>  <SCORE.INTER.VDW>
-26.5899

>  <SCORE.INTER.norm>
-0.873624

>  <SCORE.INTRA>
-4.33126

>  <SCORE.INTRA.DIHEDRAL>
2.2045

>  <SCORE.INTRA.DIHEDRAL.0>
2.68224

>  <SCORE.INTRA.POLAR>
0

>  <SCORE.INTRA.POLAR.0>
0

>  <SCORE.INTRA.REPUL>
0

>  <SCORE.INTRA.REPUL.0>
0

>  <SCORE.INTRA.SOLV>
-0.603921

>  <SCORE.INTRA.SOLV.lig_0>
-19.4148

>  <SCORE.INTRA.VDW>
-5.13155

>  <SCORE.INTRA.VDW.0>
5.42093

>  <SCORE.INTRA.norm>
-0.160417

>  <SCORE.RESTR>
0

>  <SCORE.RESTR.CAVITY>
0

>  <SCORE.RESTR.norm>
0

>  <SCORE.SYSTEM>
0

>  <SCORE.SYSTEM.CONST>
0

>  <SCORE.SYSTEM.DIHEDRAL>
0

>  <SCORE.SYSTEM.SOLV>
0

>  <SCORE.SYSTEM.norm>
0

>  <SCORE.heavy>
27

>  <SCORE.norm>
-1.03404

>  <RMSD>
6.270

$$$$
lig.pdb
 OpenBabel11021811523D
libRbt.so/2013.1/901 2013/11/27
 27 30  0  0  0  0  0  0  0  0999 V2000
   26.2010   41.5311   21.8777 N   0  0  0  0  0  0  0  0  0  0  0  0
   27.4908   41.4255   21.6737 C   0  0  0  0  0  0  0  0  0  0  0  0
   28.4493   41.9144   22.5003 N   0  0  0  0  0  0  0  0  0  0  0  0
   28.0637   42.5236   23.6610 C   0  0  0  0  0  0  0  0  0  0  0  0
   26.7397   42.6527   23.9688 C   0  0  0  0  0  0  0  0  0  0  0  0
   25.7521   42.1552   23.0409 C   0  0  0  0  0  0  0  0  0  0  0  0
   24.5352   42.2822   23.2248 O   0  0  0  0  0  0  0  0  0  0  0  0
   28.0839   40.8832   20.3547 C   0  0  2  0  0  0  0  0  0  0  0  0
   27.5467   41.8900   19.3245 C   0  0  0  0  0  0  0  0  0  0  0  0
   27.7803   41.4382   17.9517 N   0  0  0  0  0  0  0  0  0  0  0  0
   27.0498   40.1800   17.7289 C   0  0  0  0  0  0  0  0  0  0  0  0
   27.5737   39.0848   18.6367 C   0  0  0  0  0  0  0  0  0  0  0  0
   27.4740   39.4944   20.0996 C   0  0  0  0  0  0  0  0  0  0  0  0
   29.1978   42.9581   24.4655 C   0  0  0  0  0  0  0  0  0  0  0  0
   29.0605   43.1868   26.1696 S   0  0  0  0  0  0  0  0  0  0  0  0
   30.6599   43.6736   26.2956 C   0  0  0  0  0  0  0  0  0  0  0  0
   31.2929   43.6222   25.1168 C   0  0  0  0  0  0  0  0  0  0  0  0
   30.4656   43.2201   24.0501 C   0  0  0  0  0  0  0  0  0  0  0  0
   27.3719   42.4502   16.9617 C   0  0  0  0  0  0  0  0  0  0  0  0
   26.1827   43.3015   17.3472 C   0  0  0  0  0  0  0  0  0  0  0  0
   25.0480   42.7346   17.9091 C   0  0  0  0  0  0  0  0  0  0  0  0
   23.8431   43.3315   17.9510 N   0  0  0  0  0  0  0  0  0  0  0  0
   23.8047   44.5195   17.3665 C   0  0  0  0  0  0  0  0  0  0  0  0
   24.7842   45.1683   16.7573 N   0  0  0  0  0  0  0  0  0  0  0  0
   25.9588   44.5211   16.7423 C   0  0  0  0  0  0  0  0  0  0  0  0
   22.6027   45.1060   17.4024 O   0  0  0  0  0  0  0  0  0  0  0  0
   22.0777   45.4590   18.6875 C   0  0  0  0  0  0  0  0  0  0  0  0
  1  2  2  0  0  0  0
  1  6  1  0  0  0  0
  2  3  1  0  0  0  0
  3  4  2  0  0  0  0
  4 14  1  0  0  0  0
  5  4  1  0  0  0  0
  6  5  1  0  0  0  0
  7  6  2  0  0  0  0
  8  9  1  0  0  0  0
  8  2  1  1  0  0  0
 10 19  1  0  0  0  0
 10  9  1  0  0  0  0
 11 10  1  0  0  0  0
 12 11  1  0  0  0  0
 12 13  1  0  0  0  0
 13  8  1  0  0  0  0
 14 15  1  0  0  0  0
 14 18  2  0  0  0  0
 15 16  1  0  0  0  0
 16 17  2  0  0  0  0
 18 17  1  0  0  0  0
 19 20  1  0  0  0  0
 20 25  2  0  0  0  0
 20 21  1  0  0  0  0
 21 22  2  0  0  0  0
 22 23  1  0  0  0  0
 23 26  1  0  0  0  0
 24 23  2  0  0  0  0
 25 24  1  0  0  0  0
 26 27  1  0  0  0  0
M  END
>  <CHROM.1>
-156.24773320,60.57651941,-33.11514058,-44.58093616,64.23011715,26.88879470
42.65014587,20.85438568,0.83674279,-0.69097776,1.14189747

>  <Name>
lig.pdb

>  <RI>
0

>  <Rbt.Current_Directory>
/home/itssahil/PROJECTS/Mol_Feturizer/New_Systems/rnas/5kx9

>  <Rbt.Executable>
rbdock ($Id: //depot/dev/client3/rdock/2013.1/src/exe/rbdock.cxx#4 $)

>  <Rbt.Library>
libRbt.so (2013.1, Build901 2013/11/27)

>  <Rbt.Parameter_File>
/export/apps/rDock/src/rDock_2013.1_src/data/scripts/dock_solv.prm

>  <Rbt.Receptor>
prm/blind_docking_100.prm

>  <SCORE>
-24.7865

>  <SCORE.INTER>
-22.8468

>  <SCORE.INTER.CONST>
1

>  <SCORE.INTER.POLAR>
0

>  <SCORE.INTER.ROT>
5

>  <SCORE.INTER.SOLV>
15.4253

>  <SCORE.INTER.VDW>
-27.3063

>  <SCORE.INTER.norm>
-0.846177

>  <SCORE.INTRA>
-1.93974

>  <SCORE.INTRA.DIHEDRAL>
6.11562

>  <SCORE.INTRA.DIHEDRAL.0>
2.68224

>  <SCORE.INTRA.POLAR>
0

>  <SCORE.INTRA.POLAR.0>
0

>  <SCORE.INTRA.REPUL>
0

>  <SCORE.INTRA.REPUL.0>
0

>  <SCORE.INTRA.SOLV>
-0.508567

>  <SCORE.INTRA.SOLV.lig_0>
-19.4148

>  <SCORE.INTRA.VDW>
-4.74327

>  <SCORE.INTRA.VDW.0>
5.42093

>  <SCORE.INTRA.norm>
-0.0718423

>  <SCORE.RESTR>
0

>  <SCORE.RESTR.CAVITY>
0

>  <SCORE.RESTR.norm>
0

>  <SCORE.SYSTEM>
0

>  <SCORE.SYSTEM.CONST>
0

>  <SCORE.SYSTEM.DIHEDRAL>
0

>  <SCORE.SYSTEM.SOLV>
0

>  <SCORE.SYSTEM.norm>
0

>  <SCORE.heavy>
27

>  <SCORE.norm>
-0.918019

>  <RMSD>
6.306

$$$$
lig.pdb
 OpenBabel11021811523D
libRbt.so/2013.1/901 2013/11/27
 27 30  0  0  0  0  0  0  0  0999 V2000
   26.7548   36.2684   23.4489 N   0  0  0  0  0  0  0  0  0  0  0  0
   27.5356   36.6338   22.4625 C   0  0  0  0  0  0  0  0  0  0  0  0
   28.0424   37.8813   22.2957 N   0  0  0  0  0  0  0  0  0  0  0  0
   27.7695   38.8299   23.2406 C   0  0  0  0  0  0  0  0  0  0  0  0
   26.9868   38.5292   24.3182 C   0  0  0  0  0  0  0  0  0  0  0  0
   26.4341   37.2008   24.4347 C   0  0  0  0  0  0  0  0  0  0  0  0
   25.6747   36.8687   25.3533 O   0  0  0  0  0  0  0  0  0  0  0  0
   27.8304   35.7214   21.2516 C   0  0  2  0  0  0  0  0  0  0  0  0
   27.2305   36.5289   20.0890 C   0  0  0  0  0  0  0  0  0  0  0  0
   27.1732   35.7428   18.8553 N   0  0  0  0  0  0  0  0  0  0  0  0
   26.2877   34.5858   19.0631 C   0  0  0  0  0  0  0  0  0  0  0  0
   26.8441   33.6668   20.1327 C   0  0  0  0  0  0  0  0  0  0  0  0
   27.0437   34.4137   21.4442 C   0  0  0  0  0  0  0  0  0  0  0  0
   28.4134   40.1045   22.9523 C   0  0  0  0  0  0  0  0  0  0  0  0
   29.4261   40.3121   21.5716 S   0  0  0  0  0  0  0  0  0  0  0  0
   29.7512   41.9072   21.9728 C   0  0  0  0  0  0  0  0  0  0  0  0
   29.0903   42.2914   23.0721 C   0  0  0  0  0  0  0  0  0  0  0  0
   28.3211   41.2651   23.6545 C   0  0  0  0  0  0  0  0  0  0  0  0
   26.7070   36.5462   17.7114 C   0  0  0  0  0  0  0  0  0  0  0  0
   27.7772   36.9761   16.7330 C   0  0  0  0  0  0  0  0  0  0  0  0
   28.2446   36.1091   15.7560 C   0  0  0  0  0  0  0  0  0  0  0  0
   29.4055   36.2663   15.0947 N   0  0  0  0  0  0  0  0  0  0  0  0
   30.1119   37.3185   15.4798 C   0  0  0  0  0  0  0  0  0  0  0  0
   29.8208   38.2061   16.4173 N   0  0  0  0  0  0  0  0  0  0  0  0
   28.6549   37.9937   17.0453 C   0  0  0  0  0  0  0  0  0  0  0  0
   31.2699   37.4666   14.8260 O   0  0  0  0  0  0  0  0  0  0  0  0
   32.4687   37.0837   15.5100 C   0  0  0  0  0  0  0  0  0  0  0  0
  1  2  2  0  0  0  0
  1  6  1  0  0  0  0
  2  3  1  0  0  0  0
  3  4  2  0  0  0  0
  4 14  1  0  0  0  0
  5  4  1  0  0  0  0
  6  5  1  0  0  0  0
  7  6  2  0  0  0  0
  8  9  1  0  0  0  0
  8  2  1  1  0  0  0
 10 19  1  0  0  0  0
 10  9  1  0  0  0  0
 11 10  1  0  0  0  0
 12 11  1  0  0  0  0
 12 13  1  0  0  0  0
 13  8  1  0  0  0  0
 14 15  1  0  0  0  0
 14 18  2  0  0  0  0
 15 16  1  0  0  0  0
 16 17  2  0  0  0  0
 18 17  1  0  0  0  0
 19 20  1  0  0  0  0
 20 25  2  0  0  0  0
 20 21  1  0  0  0  0
 21 22  2  0  0  0  0
 22 23  1  0  0  0  0
 23 26  1  0  0  0  0
 24 23  2  0  0  0  0
 25 24  1  0  0  0  0
 26 27  1  0  0  0  0
M  END
>  <CHROM.1>
-1.33581084,116.77886993,104.04875119,80.73047995,-103.19391132,28.25860992
37.59797617,20.18125517,2.02795397,0.95748318,0.94073890

>  <Name>
lig.pdb

>  <RI>
0

>  <Rbt.Current_Directory>
/home/itssahil/PROJECTS/Mol_Feturizer/New_Systems/rnas/5kx9

>  <Rbt.Executable>
rbdock ($Id: //depot/dev/client3/rdock/2013.1/src/exe/rbdock.cxx#4 $)

>  <Rbt.Library>
libRbt.so (2013.1, Build901 2013/11/27)

>  <Rbt.Parameter_File>
/export/apps/rDock/src/rDock_2013.1_src/data/scripts/dock_solv.prm

>  <Rbt.Receptor>
prm/pocket_docking_6.prm

>  <SCORE>
-32.2926

>  <SCORE.INTER>
-29.2988

>  <SCORE.INTER.CONST>
1

>  <SCORE.INTER.POLAR>
0

>  <SCORE.INTER.ROT>
5

>  <SCORE.INTER.SOLV>
14.3414

>  <SCORE.INTER.VDW>
-31.2463

>  <SCORE.INTER.norm>
-1.08514

>  <SCORE.INTRA>
-2.99384

>  <SCORE.INTRA.DIHEDRAL>
6.10196

>  <SCORE.INTRA.DIHEDRAL.0>
2.68224

>  <SCORE.INTRA.POLAR>
0

>  <SCORE.INTRA.POLAR.0>
0

>  <SCORE.INTRA.REPUL>
0

>  <SCORE.INTRA.REPUL.0>
0

>  <SCORE.INTRA.SOLV>
-0.532173

>  <SCORE.INTRA.SOLV.lig_0>
-19.4148

>  <SCORE.INTRA.VDW>
-5.77873

>  <SCORE.INTRA.VDW.0>
5.42093

>  <SCORE.INTRA.norm>
-0.110883

>  <SCORE.RESTR>
0

>  <SCORE.RESTR.CAVITY>
0

>  <SCORE.RESTR.norm>
0

>  <SCORE.SYSTEM>
0

>  <SCORE.SYSTEM.CONST>
0

>  <SCORE.SYSTEM.DIHEDRAL>
0

>  <SCORE.SYSTEM.SOLV>
0

>  <SCORE.SYSTEM.norm>
0

>  <SCORE.heavy>
27

>  <SCORE.norm>
-1.19602

>  <RMSD>
6.308

$$$$
lig.pdb
 OpenBabel11021811523D
libRbt.so/2013.1/901 2013/11/27
 27 30  0  0  0  0  0  0  0  0999 V2000
   27.8557   42.0371   21.0810 N   0  0  0  0  0  0  0  0  0  0  0  0
   27.0568   41.0365   20.8040 C   0  0  0  0  0  0  0  0  0  0  0  0
   26.9585   39.8973   21.5346 N   0  0  0  0  0  0  0  0  0  0  0  0
   27.7042   39.7846   22.6740 C   0  0  0  0  0  0  0  0  0  0  0  0
   28.5438   40.7917   23.0549 C   0  0  0  0  0  0  0  0  0  0  0  0
   28.6485   41.9687   22.2258 C   0  0  0  0  0  0  0  0  0  0  0  0
   29.4251   42.8987   22.4768 O   0  0  0  0  0  0  0  0  0  0  0  0
   26.2501   40.9538   19.4895 C   0  0  2  0  0  0  0  0  0  0  0  0
   26.8764   39.7272   18.8063 C   0  0  0  0  0  0  0  0  0  0  0  0
   26.4334   39.5949   17.4172 N   0  0  0  0  0  0  0  0  0  0  0  0
   26.8802   40.7727   16.6559 C   0  0  0  0  0  0  0  0  0  0  0  0
   26.2382   42.0366   17.1931 C   0  0  0  0  0  0  0  0  0  0  0  0
   26.5505   42.2214   18.6716 C   0  0  0  0  0  0  0  0  0  0  0  0
   27.4638   38.5304   23.3752 C   0  0  0  0  0  0  0  0  0  0  0  0
   27.5375   38.4299   25.0955 S   0  0  0  0  0  0  0  0  0  0  0  0
   27.2011   36.7875   25.0758 C   0  0  0  0  0  0  0  0  0  0  0  0
   26.9919   36.3345   23.8333 C   0  0  0  0  0  0  0  0  0  0  0  0
   27.1464   37.3214   22.8403 C   0  0  0  0  0  0  0  0  0  0  0  0
   26.9388   38.3594   16.7932 C   0  0  0  0  0  0  0  0  0  0  0  0
   26.1768   37.0968   17.1289 C   0  0  0  0  0  0  0  0  0  0  0  0
   24.9681   37.1487   17.8079 C   0  0  0  0  0  0  0  0  0  0  0  0
   24.4123   36.1043   18.4484 N   0  0  0  0  0  0  0  0  0  0  0  0
   25.1402   34.9981   18.4173 C   0  0  0  0  0  0  0  0  0  0  0  0
   26.3207   34.8061   17.8506 N   0  0  0  0  0  0  0  0  0  0  0  0
   26.8263   35.8841   17.2332 C   0  0  0  0  0  0  0  0  0  0  0  0
   24.5884   33.9642   19.0628 O   0  0  0  0  0  0  0  0  0  0  0  0
   24.7790   32.6588   18.5049 C   0  0  0  0  0  0  0  0  0  0  0  0
  1  2  2  0  0  0  0
  1  6  1  0  0  0  0
  2  3  1  0  0  0  0
  3  4  2  0  0  0  0
  4 14  1  0  0  0  0
  5  4  1  0  0  0  0
  6  5  1  0  0  0  0
  7  6  2  0  0  0  0
  8  9  1  0  0  0  0
  8  2  1  1  0  0  0
 10 19  1  0  0  0  0
 10  9  1  0  0  0  0
 11 10  1  0  0  0  0
 12 11  1  0  0  0  0
 12 13  1  0  0  0  0
 13  8  1  0  0  0  0
 14 15  1  0  0  0  0
 14 18  2  0  0  0  0
 15 16  1  0  0  0  0
 16 17  2  0  0  0  0
 18 17  1  0  0  0  0
 19 20  1  0  0  0  0
 20 25  2  0  0  0  0
 20 21  1  0  0  0  0
 21 22  2  0  0  0  0
 22 23  1  0  0  0  0
 23 26  1  0  0  0  0
 24 23  2  0  0  0  0
 25 24  1  0  0  0  0
 26 27  1  0  0  0  0
M  END
>  <CHROM.1>
-146.91673520,114.58300863,80.03457641,9.57199119,143.99334530,26.76628972
38.58198803,20.33290561,-0.11243909,-1.22704156,-0.89414724

>  <Name>
lig.pdb

>  <RI>
0

>  <Rbt.Current_Directory>
/home/itssahil/PROJECTS/Mol_Feturizer/New_Systems/rnas/5kx9

>  <Rbt.Executable>
rbdock ($Id: //depot/dev/client3/rdock/2013.1/src/exe/rbdock.cxx#4 $)

>  <Rbt.Library>
libRbt.so (2013.1, Build901 2013/11/27)

>  <Rbt.Parameter_File>
/export/apps/rDock/src/rDock_2013.1_src/data/scripts/dock_solv.prm

>  <Rbt.Receptor>
prm/blind_docking_100.prm

>  <SCORE>
-30.0104

>  <SCORE.INTER>
-27.3248

>  <SCORE.INTER.CONST>
1

>  <SCORE.INTER.POLAR>
0

>  <SCORE.INTER.ROT>
5

>  <SCORE.INTER.SOLV>
12.2796

>  <SCORE.INTER.VDW>
-29.2431

>  <SCORE.INTER.norm>
-1.01203

>  <SCORE.INTRA>
-2.6856

>  <SCORE.INTRA.DIHEDRAL>
4.22871

>  <SCORE.INTRA.DIHEDRAL.0>
2.68224

>  <SCORE.INTRA.POLAR>
0

>  <SCORE.INTRA.POLAR.0>
0

>  <SCORE.INTRA.REPUL>
0

>  <SCORE.INTRA.REPUL.0>
0

>  <SCORE.INTRA.SOLV>
-0.487179

>  <SCORE.INTRA.SOLV.lig_0>
-19.4148

>  <SCORE.INTRA.VDW>
-4.55636

>  <SCORE.INTRA.VDW.0>
5.42093

>  <SCORE.INTRA.norm>
-0.0994665

>  <SCORE.RESTR>
0

>  <SCORE.RESTR.CAVITY>
0

>  <SCORE.RESTR.norm>
0

>  <SCORE.SYSTEM>
0

>  <SCORE.SYSTEM.CONST>
0

>  <SCORE.SYSTEM.DIHEDRAL>
0

>  <SCORE.SYSTEM.SOLV>
0

>  <SCORE.SYSTEM.norm>
0

>  <SCORE.heavy>
27

>  <SCORE.norm>
-1.1115

>  <RMSD>
6.316

$$$$
lig.pdb
 OpenBabel11021811523D
libRbt.so/2013.1/901 2013/11/27
 27 30  0  0  0  0  0  0  0  0999 V2000
   28.4013   42.0457   22.2940 N   0  0  0  0  0  0  0  0  0  0  0  0
   27.8027   41.1455   21.5541 C   0  0  0  0  0  0  0  0  0  0  0  0
   27.4629   39.8999   21.9714 N   0  0  0  0  0  0  0  0  0  0  0  0
   27.7114   39.5545   23.2699 C   0  0  0  0  0  0  0  0  0  0  0  0
   28.3069   40.4411   24.1207 C   0  0  0  0  0  0  0  0  0  0  0  0
   28.6897   41.7411   23.6236 C   0  0  0  0  0  0  0  0  0  0  0  0
   29.2798   42.5775   24.3186 O   0  0  0  0  0  0  0  0  0  0  0  0
   27.5719   41.3324   20.0384 C   0  0  2  0  0  0  0  0  0  0  0  0
   27.8494   39.9209   19.4960 C   0  0  0  0  0  0  0  0  0  0  0  0
   27.9307   39.9078   18.0343 N   0  0  0  0  0  0  0  0  0  0  0  0
   29.0597   40.7504   17.6081 C   0  0  0  0  0  0  0  0  0  0  0  0
   28.8374   42.1942   18.0131 C   0  0  0  0  0  0  0  0  0  0  0  0
   28.6352   42.3141   19.5173 C   0  0  0  0  0  0  0  0  0  0  0  0
   27.2555   38.2072   23.5849 C   0  0  0  0  0  0  0  0  0  0  0  0
   27.2653   36.9517   22.4022 S   0  0  0  0  0  0  0  0  0  0  0  0
   26.6168   35.8450   23.4817 C   0  0  0  0  0  0  0  0  0  0  0  0
   26.4425   36.3760   24.6985 C   0  0  0  0  0  0  0  0  0  0  0  0
   26.7972   37.7370   24.7754 C   0  0  0  0  0  0  0  0  0  0  0  0
   28.0815   38.5416   17.5032 C   0  0  0  0  0  0  0  0  0  0  0  0
   26.7952   37.7737   17.2954 C   0  0  0  0  0  0  0  0  0  0  0  0
   25.9325   37.5221   18.3523 C   0  0  0  0  0  0  0  0  0  0  0  0
   24.9788   36.5732   18.3436 N   0  0  0  0  0  0  0  0  0  0  0  0
   24.9444   35.8476   17.2359 C   0  0  0  0  0  0  0  0  0  0  0  0
   25.7207   35.9398   16.1680 N   0  0  0  0  0  0  0  0  0  0  0  0
   26.6555   36.8990   16.2377 C   0  0  0  0  0  0  0  0  0  0  0  0
   24.0006   34.8993   17.2346 O   0  0  0  0  0  0  0  0  0  0  0  0
   22.6543   35.3062   17.5060 C   0  0  0  0  0  0  0  0  0  0  0  0
  1  2  2  0  0  0  0
  1  6  1  0  0  0  0
  2  3  1  0  0  0  0
  3  4  2  0  0  0  0
  4 14  1  0  0  0  0
  5  4  1  0  0  0  0
  6  5  1  0  0  0  0
  7  6  2  0  0  0  0
  8  9  1  0  0  0  0
  8  2  1  1  0  0  0
 10 19  1  0  0  0  0
 10  9  1  0  0  0  0
 11 10  1  0  0  0  0
 12 11  1  0  0  0  0
 12 13  1  0  0  0  0
 13  8  1  0  0  0  0
 14 15  1  0  0  0  0
 14 18  2  0  0  0  0
 15 16  1  0  0  0  0
 16 17  2  0  0  0  0
 18 17  1  0  0  0  0
 19 20  1  0  0  0  0
 20 25  2  0  0  0  0
 20 21  1  0  0  0  0
 21 22  2  0  0  0  0
 22 23  1  0  0  0  0
 23 26  1  0  0  0  0
 24 23  2  0  0  0  0
 25 24  1  0  0  0  0
 26 27  1  0  0  0  0
M  END
>  <CHROM.1>
32.16329293,140.49345917,85.37384263,-59.33171985,53.87498744,27.09431131
38.73773423,20.37758067,-0.69812615,-1.04350280,-1.41757776

>  <Name>
lig.pdb

>  <RI>
0

>  <Rbt.Current_Directory>
/home/itssahil/PROJECTS/Mol_Feturizer/New_Systems/rnas/5kx9

>  <Rbt.Executable>
rbdock ($Id: //depot/dev/client3/rdock/2013.1/src/exe/rbdock.cxx#4 $)

>  <Rbt.Library>
libRbt.so (2013.1, Build901 2013/11/27)

>  <Rbt.Parameter_File>
/export/apps/rDock/src/rDock_2013.1_src/data/scripts/dock_solv.prm

>  <Rbt.Receptor>
prm/blind_docking_60.prm

>  <SCORE>
-26.6335

>  <SCORE.INTER>
-26.5693

>  <SCORE.INTER.CONST>
1

>  <SCORE.INTER.POLAR>
0

>  <SCORE.INTER.ROT>
5

>  <SCORE.INTER.SOLV>
10.8003

>  <SCORE.INTER.VDW>
-28.2463

>  <SCORE.INTER.norm>
-0.984047

>  <SCORE.INTRA>
-0.0642193

>  <SCORE.INTRA.DIHEDRAL>
6.66024

>  <SCORE.INTRA.DIHEDRAL.0>
2.68224

>  <SCORE.INTRA.POLAR>
0

>  <SCORE.INTRA.POLAR.0>
0

>  <SCORE.INTRA.REPUL>
0

>  <SCORE.INTRA.REPUL.0>
0

>  <SCORE.INTRA.SOLV>
-0.490466

>  <SCORE.INTRA.SOLV.lig_0>
-19.4148

>  <SCORE.INTRA.VDW>
-3.14911

>  <SCORE.INTRA.VDW.0>
5.42093

>  <SCORE.INTRA.norm>
-0.00237849

>  <SCORE.RESTR>
0

>  <SCORE.RESTR.CAVITY>
0

>  <SCORE.RESTR.norm>
0

>  <SCORE.SYSTEM>
0

>  <SCORE.SYSTEM.CONST>
0

>  <SCORE.SYSTEM.DIHEDRAL>
0

>  <SCORE.SYSTEM.SOLV>
0

>  <SCORE.SYSTEM.norm>
0

>  <SCORE.heavy>
27

>  <SCORE.norm>
-0.986426

>  <RMSD>
6.318

$$$$
lig.pdb
 OpenBabel11021811523D
libRbt.so/2013.1/901 2013/11/27
 27 30  0  0  0  0  0  0  0  0999 V2000
   28.0988   42.2545   21.3681 N   0  0  0  0  0  0  0  0  0  0  0  0
   27.2500   41.2935   21.0993 C   0  0  0  0  0  0  0  0  0  0  0  0
   27.1033   40.1609   21.8320 N   0  0  0  0  0  0  0  0  0  0  0  0
   27.8527   40.0131   22.9650 C   0  0  0  0  0  0  0  0  0  0  0  0
   28.7432   40.9788   23.3373 C   0  0  0  0  0  0  0  0  0  0  0  0
   28.8974   42.1488   22.5061 C   0  0  0  0  0  0  0  0  0  0  0  0
   29.7201   43.0404   22.7492 O   0  0  0  0  0  0  0  0  0  0  0  0
   26.4287   41.2489   19.7919 C   0  0  2  0  0  0  0  0  0  0  0  0
   26.8117   39.8742   19.2202 C   0  0  0  0  0  0  0  0  0  0  0  0
   26.3381   39.7077   17.8450 N   0  0  0  0  0  0  0  0  0  0  0  0
   26.9863   40.7136   16.9881 C   0  0  0  0  0  0  0  0  0  0  0  0
   26.5933   42.1153   17.4112 C   0  0  0  0  0  0  0  0  0  0  0  0
   26.9491   42.3649   18.8702 C   0  0  0  0  0  0  0  0  0  0  0  0
   27.5582   38.7725   23.6696 C   0  0  0  0  0  0  0  0  0  0  0  0
   27.1926   37.3169   22.8196 S   0  0  0  0  0  0  0  0  0  0  0  0
   26.9708   36.4659   24.2471 C   0  0  0  0  0  0  0  0  0  0  0  0
   27.2080   37.2252   25.3242 C   0  0  0  0  0  0  0  0  0  0  0  0
   27.5398   38.5580   25.0120 C   0  0  0  0  0  0  0  0  0  0  0  0
   26.6010   38.3515   17.3322 C   0  0  0  0  0  0  0  0  0  0  0  0
   25.9286   37.2248   18.0844 C   0  0  0  0  0  0  0  0  0  0  0  0
   26.6621   36.3567   18.8801 C   0  0  0  0  0  0  0  0  0  0  0  0
   26.2280   35.1498   19.2862 N   0  0  0  0  0  0  0  0  0  0  0  0
   25.0295   34.8211   18.8279 C   0  0  0  0  0  0  0  0  0  0  0  0
   24.2328   35.5188   18.0343 N   0  0  0  0  0  0  0  0  0  0  0  0
   24.7218   36.7097   17.6582 C   0  0  0  0  0  0  0  0  0  0  0  0
   24.6051   33.6166   19.2267 O   0  0  0  0  0  0  0  0  0  0  0  0
   24.8589   32.5057   18.3588 C   0  0  0  0  0  0  0  0  0  0  0  0
  1  2  2  0  0  0  0
  1  6  1  0  0  0  0
  2  3  1  0  0  0  0
  3  4  2  0  0  0  0
  4 14  1  0  0  0  0
  5  4  1  0  0  0  0
  6  5  1  0  0  0  0
  7  6  2  0  0  0  0
  8  9  1  0  0  0  0
  8  2  1  1  0  0  0
 10 19  1  0  0  0  0
 10  9  1  0  0  0  0
 11 10  1  0  0  0  0
 12 11  1  0  0  0  0
 12 13  1  0  0  0  0
 13  8  1  0  0  0  0
 14 15  1  0  0  0  0
 14 18  2  0  0  0  0
 15 16  1  0  0  0  0
 16 17  2  0  0  0  0
 18 17  1  0  0  0  0
 19 20  1  0  0  0  0
 20 25  2  0  0  0  0
 20 21  1  0  0  0  0
 21 22  2  0  0  0  0
 22 23  1  0  0  0  0
 23 26  1  0  0  0  0
 24 23  2  0  0  0  0
 25 24  1  0  0  0  0
 26 27  1  0  0  0  0
M  END
>  <CHROM.1>
36.43495022,123.84261526,61.36815107,-108.66443996,-93.80104852,26.79357833
38.60445763,20.53843461,0.19441306,-1.17880600,-0.83765533

>  <Name>
lig.pdb

>  <RI>
0

>  <Rbt.Current_Directory>
/home/itssahil/PROJECTS/Mol_Feturizer/New_Systems/rnas/5kx9

>  <Rbt.Executable>
rbdock ($Id: //depot/dev/client3/rdock/2013.1/src/exe/rbdock.cxx#4 $)

>  <Rbt.Library>
libRbt.so (2013.1, Build901 2013/11/27)

>  <Rbt.Parameter_File>
/export/apps/rDock/src/rDock_2013.1_src/data/scripts/dock_solv.prm

>  <Rbt.Receptor>
prm/blind_docking_100.prm

>  <SCORE>
-29.9907

>  <SCORE.INTER>
-27.9036

>  <SCORE.INTER.CONST>
1

>  <SCORE.INTER.POLAR>
0

>  <SCORE.INTER.ROT>
5

>  <SCORE.INTER.SOLV>
12.637

>  <SCORE.INTER.VDW>
-29.7481

>  <SCORE.INTER.norm>
-1.03347

>  <SCORE.INTRA>
-2.08705

>  <SCORE.INTRA.DIHEDRAL>
7.37382

>  <SCORE.INTRA.DIHEDRAL.0>
2.68224

>  <SCORE.INTRA.POLAR>
0

>  <SCORE.INTRA.POLAR.0>
0

>  <SCORE.INTRA.REPUL>
0

>  <SCORE.INTRA.REPUL.0>
0

>  <SCORE.INTRA.SOLV>
-0.479359

>  <SCORE.INTRA.SOLV.lig_0>
-19.4148

>  <SCORE.INTRA.VDW>
-5.53429

>  <SCORE.INTRA.VDW.0>
5.42093

>  <SCORE.INTRA.norm>
-0.0772983

>  <SCORE.RESTR>
0

>  <SCORE.RESTR.CAVITY>
0

>  <SCORE.RESTR.norm>
0

>  <SCORE.SYSTEM>
0

>  <SCORE.SYSTEM.CONST>
0

>  <SCORE.SYSTEM.DIHEDRAL>
0

>  <SCORE.SYSTEM.SOLV>
0

>  <SCORE.SYSTEM.norm>
0

>  <SCORE.heavy>
27

>  <SCORE.norm>
-1.11077

>  <RMSD>
6.338

$$$$
lig.pdb
 OpenBabel11021811523D
libRbt.so/2013.1/901 2013/11/27
 27 30  0  0  0  0  0  0  0  0999 V2000
   27.7428   35.2012   18.9808 N   0  0  0  0  0  0  0  0  0  0  0  0
   27.9567   36.4398   19.3499 C   0  0  0  0  0  0  0  0  0  0  0  0
   27.7186   36.9311   20.5921 N   0  0  0  0  0  0  0  0  0  0  0  0
   27.2669   36.0766   21.5579 C   0  0  0  0  0  0  0  0  0  0  0  0
   27.0429   34.7610   21.2692 C   0  0  0  0  0  0  0  0  0  0  0  0
   27.2698   34.2897   19.9238 C   0  0  0  0  0  0  0  0  0  0  0  0
   27.0397   33.1256   19.5734 O   0  0  0  0  0  0  0  0  0  0  0  0
   28.3402   37.5527   18.3498 C   0  0  2  0  0  0  0  0  0  0  0  0
   29.8761   37.5222   18.4106 C   0  0  0  0  0  0  0  0  0  0  0  0
   30.4691   38.6683   17.7193 N   0  0  0  0  0  0  0  0  0  0  0  0
   30.0472   39.9070   18.3930 C   0  0  0  0  0  0  0  0  0  0  0  0
   28.5441   40.0829   18.3051 C   0  0  0  0  0  0  0  0  0  0  0  0
   27.8186   38.8878   18.9076 C   0  0  0  0  0  0  0  0  0  0  0  0
   27.0980   36.7329   22.8475 C   0  0  0  0  0  0  0  0  0  0  0  0
   26.3535   35.9280   24.1790 S   0  0  0  0  0  0  0  0  0  0  0  0
   26.5159   37.2749   25.1640 C   0  0  0  0  0  0  0  0  0  0  0  0
   27.1475   38.2776   24.5405 C   0  0  0  0  0  0  0  0  0  0  0  0
   27.4834   37.9871   23.2038 C   0  0  0  0  0  0  0  0  0  0  0  0
   31.9396   38.5842   17.6749 C   0  0  0  0  0  0  0  0  0  0  0  0
   32.5108   37.6369   16.6436 C   0  0  0  0  0  0  0  0  0  0  0  0
   31.9809   37.5675   15.3633 C   0  0  0  0  0  0  0  0  0  0  0  0
   32.1748   36.5400   14.5168 N   0  0  0  0  0  0  0  0  0  0  0  0
   32.8977   35.5506   15.0198 C   0  0  0  0  0  0  0  0  0  0  0  0
   33.4324   35.4539   16.2265 N   0  0  0  0  0  0  0  0  0  0  0  0
   33.2003   36.5049   17.0266 C   0  0  0  0  0  0  0  0  0  0  0  0
   33.0807   34.5268   14.1781 O   0  0  0  0  0  0  0  0  0  0  0  0
   34.4197   34.0515   13.9968 C   0  0  0  0  0  0  0  0  0  0  0  0
  1  2  2  0  0  0  0
  1  6  1  0  0  0  0
  2  3  1  0  0  0  0
  3  4  2  0  0  0  0
  4 14  1  0  0  0  0
  5  4  1  0  0  0  0
  6  5  1  0  0  0  0
  7  6  2  0  0  0  0
  8  9  1  0  0  0  0
  8  2  1  1  0  0  0
 10 19  1  0  0  0  0
 10  9  1  0  0  0  0
 11 10  1  0  0  0  0
 12 11  1  0  0  0  0
 12 13  1  0  0  0  0
 13  8  1  0  0  0  0
 14 15  1  0  0  0  0
 14 18  2  0  0  0  0
 15 16  1  0  0  0  0
 16 17  2  0  0  0  0
 18 17  1  0  0  0  0
 19 20  1  0  0  0  0
 20 25  2  0  0  0  0
 20 21  1  0  0  0  0
 21 22  2  0  0  0  0
 22 23  1  0  0  0  0
 23 26  1  0  0  0  0
 24 23  2  0  0  0  0
 25 24  1  0  0  0  0
 26 27  1  0  0  0  0
M  END
>  <CHROM.1>
172.18244620,-93.01422218,77.75279900,41.93872721,130.11180318,29.41890351
36.67493725,19.13675262,2.96604873,0.89769254,0.16376990

>  <Name>
lig.pdb

>  <RI>
0

>  <Rbt.Current_Directory>
/home/itssahil/PROJECTS/Mol_Feturizer/New_Systems/rnas/5kx9

>  <Rbt.Executable>
rbdock ($Id: //depot/dev/client3/rdock/2013.1/src/exe/rbdock.cxx#4 $)

>  <Rbt.Library>
libRbt.so (2013.1, Build901 2013/11/27)

>  <Rbt.Parameter_File>
/export/apps/rDock/src/rDock_2013.1_src/data/scripts/dock_solv.prm

>  <Rbt.Receptor>
prm/blind_docking_80.prm

>  <SCORE>
-36.7143

>  <SCORE.INTER>
-33.0946

>  <SCORE.INTER.CONST>
1

>  <SCORE.INTER.POLAR>
0

>  <SCORE.INTER.ROT>
5

>  <SCORE.INTER.SOLV>
15.263

>  <SCORE.INTER.VDW>
-34.084

>  <SCORE.INTER.norm>
-1.22572

>  <SCORE.INTRA>
-3.61968

>  <SCORE.INTRA.DIHEDRAL>
2.78323

>  <SCORE.INTRA.DIHEDRAL.0>
2.68224

>  <SCORE.INTRA.POLAR>
0

>  <SCORE.INTRA.POLAR.0>
0

>  <SCORE.INTRA.REPUL>
0

>  <SCORE.INTRA.REPUL.0>
0

>  <SCORE.INTRA.SOLV>
-0.596353

>  <SCORE.INTRA.SOLV.lig_0>
-19.4148

>  <SCORE.INTRA.VDW>
-4.71312

>  <SCORE.INTRA.VDW.0>
5.42093

>  <SCORE.INTRA.norm>
-0.134062

>  <SCORE.RESTR>
0

>  <SCORE.RESTR.CAVITY>
0

>  <SCORE.RESTR.norm>
0

>  <SCORE.SYSTEM>
0

>  <SCORE.SYSTEM.CONST>
0

>  <SCORE.SYSTEM.DIHEDRAL>
0

>  <SCORE.SYSTEM.SOLV>
0

>  <SCORE.SYSTEM.norm>
0

>  <SCORE.heavy>
27

>  <SCORE.norm>
-1.35979

>  <RMSD>
6.359

$$$$
lig.pdb
 OpenBabel11021811523D
libRbt.so/2013.1/901 2013/11/27
 27 30  0  0  0  0  0  0  0  0999 V2000
   26.6746   37.9145   23.8226 N   0  0  0  0  0  0  0  0  0  0  0  0
   27.5080   38.8971   23.5854 C   0  0  0  0  0  0  0  0  0  0  0  0
   28.2733   39.5087   24.5242 N   0  0  0  0  0  0  0  0  0  0  0  0
   28.2219   39.0500   25.8103 C   0  0  0  0  0  0  0  0  0  0  0  0
   27.4016   38.0104   26.1427 C   0  0  0  0  0  0  0  0  0  0  0  0
   26.5734   37.4160   25.1207 C   0  0  0  0  0  0  0  0  0  0  0  0
   25.7675   36.5069   25.3554 O   0  0  0  0  0  0  0  0  0  0  0  0
   27.5864   39.6112   22.2180 C   0  0  2  0  0  0  0  0  0  0  0  0
   27.7584   38.4297   21.2495 C   0  0  0  0  0  0  0  0  0  0  0  0
   28.1028   38.8805   19.8999 N   0  0  0  0  0  0  0  0  0  0  0  0
   29.3970   39.5800   19.9423 C   0  0  0  0  0  0  0  0  0  0  0  0
   29.3083   40.8256   20.8018 C   0  0  0  0  0  0  0  0  0  0  0  0
   28.8535   40.4831   22.2137 C   0  0  0  0  0  0  0  0  0  0  0  0
   29.1259   39.7720   26.6956 C   0  0  0  0  0  0  0  0  0  0  0  0
   29.6419   41.3796   26.3426 S   0  0  0  0  0  0  0  0  0  0  0  0
   30.5961   41.4419   27.7197 C   0  0  0  0  0  0  0  0  0  0  0  0
   30.4984   40.3221   28.4473 C   0  0  0  0  0  0  0  0  0  0  0  0
   29.6629   39.3462   27.8698 C   0  0  0  0  0  0  0  0  0  0  0  0
   28.1558   37.7619   18.9422 C   0  0  0  0  0  0  0  0  0  0  0  0
   27.0922   36.7006   19.1148 C   0  0  0  0  0  0  0  0  0  0  0  0
   27.3873   35.4799   19.7043 C   0  0  0  0  0  0  0  0  0  0  0  0
   26.6296   34.3751   19.5811 N   0  0  0  0  0  0  0  0  0  0  0  0
   25.5691   34.5278   18.8023 C   0  0  0  0  0  0  0  0  0  0  0  0
   25.1808   35.6083   18.1442 N   0  0  0  0  0  0  0  0  0  0  0  0
   25.9785   36.6750   18.3009 C   0  0  0  0  0  0  0  0  0  0  0  0
   24.8230   33.4245   18.6750 O   0  0  0  0  0  0  0  0  0  0  0  0
   24.6846   32.8679   17.3625 C   0  0  0  0  0  0  0  0  0  0  0  0
  1  2  2  0  0  0  0
  1  6  1  0  0  0  0
  2  3  1  0  0  0  0
  3  4  2  0  0  0  0
  4 14  1  0  0  0  0
  5  4  1  0  0  0  0
  6  5  1  0  0  0  0
  7  6  2  0  0  0  0
  8  9  1  0  0  0  0
  8  2  1  1  0  0  0
 10 19  1  0  0  0  0
 10  9  1  0  0  0  0
 11 10  1  0  0  0  0
 12 11  1  0  0  0  0
 12 13  1  0  0  0  0
 13  8  1  0  0  0  0
 14 15  1  0  0  0  0
 14 18  2  0  0  0  0
 15 16  1  0  0  0  0
 16 17  2  0  0  0  0
 18 17  1  0  0  0  0
 19 20  1  0  0  0  0
 20 25  2  0  0  0  0
 20 21  1  0  0  0  0
 21 22  2  0  0  0  0
 22 23  1  0  0  0  0
 23 26  1  0  0  0  0
 24 23  2  0  0  0  0
 25 24  1  0  0  0  0
 26 27  1  0  0  0  0
M  END
>  <CHROM.1>
24.47356615,-52.32789875,39.10968710,-103.16621462,-118.24208261,27.70249792
38.06617323,22.57584886,0.92396189,0.97919069,1.55523729

>  <Name>
lig.pdb

>  <RI>
0

>  <Rbt.Current_Directory>
/home/itssahil/PROJECTS/Mol_Feturizer/New_Systems/rnas/5kx9

>  <Rbt.Executable>
rbdock ($Id: //depot/dev/client3/rdock/2013.1/src/exe/rbdock.cxx#4 $)

>  <Rbt.Library>
libRbt.so (2013.1, Build901 2013/11/27)

>  <Rbt.Parameter_File>
/export/apps/rDock/src/rDock_2013.1_src/data/scripts/dock_solv.prm

>  <Rbt.Receptor>
prm/blind_docking_80.prm

>  <SCORE>
-30.9312

>  <SCORE.INTER>
-29.3256

>  <SCORE.INTER.CONST>
1

>  <SCORE.INTER.POLAR>
0

>  <SCORE.INTER.ROT>
5

>  <SCORE.INTER.SOLV>
13.3238

>  <SCORE.INTER.VDW>
-30.925

>  <SCORE.INTER.norm>
-1.08613

>  <SCORE.INTRA>
-1.60561

>  <SCORE.INTRA.DIHEDRAL>
4.68428

>  <SCORE.INTRA.DIHEDRAL.0>
2.68224

>  <SCORE.INTRA.POLAR>
0

>  <SCORE.INTRA.POLAR.0>
0

>  <SCORE.INTRA.REPUL>
0

>  <SCORE.INTRA.REPUL.0>
0

>  <SCORE.INTRA.SOLV>
-0.615375

>  <SCORE.INTRA.SOLV.lig_0>
-19.4148

>  <SCORE.INTRA.VDW>
-3.64007

>  <SCORE.INTRA.VDW.0>
5.42093

>  <SCORE.INTRA.norm>
-0.0594672

>  <SCORE.RESTR>
0

>  <SCORE.RESTR.CAVITY>
0

>  <SCORE.RESTR.norm>
0

>  <SCORE.SYSTEM>
0

>  <SCORE.SYSTEM.CONST>
0

>  <SCORE.SYSTEM.DIHEDRAL>
0

>  <SCORE.SYSTEM.SOLV>
0

>  <SCORE.SYSTEM.norm>
0

>  <SCORE.heavy>
27

>  <SCORE.norm>
-1.1456

>  <RMSD>
6.366

$$$$
lig.pdb
 OpenBabel11021811523D
libRbt.so/2013.1/901 2013/11/27
 27 30  0  0  0  0  0  0  0  0999 V2000
   27.7040   42.2112   21.4852 N   0  0  0  0  0  0  0  0  0  0  0  0
   26.9564   41.1670   21.2261 C   0  0  0  0  0  0  0  0  0  0  0  0
   26.9271   40.0311   21.9676 N   0  0  0  0  0  0  0  0  0  0  0  0
   27.6904   39.9686   23.0993 C   0  0  0  0  0  0  0  0  0  0  0  0
   28.4793   41.0225   23.4617 C   0  0  0  0  0  0  0  0  0  0  0  0
   28.5120   42.1957   22.6213 C   0  0  0  0  0  0  0  0  0  0  0  0
   29.2406   43.1679   22.8552 O   0  0  0  0  0  0  0  0  0  0  0  0
   26.1407   41.0294   19.9218 C   0  0  2  0  0  0  0  0  0  0  0  0
   26.8198   39.8277   19.2450 C   0  0  0  0  0  0  0  0  0  0  0  0
   26.3690   39.6577   17.8625 N   0  0  0  0  0  0  0  0  0  0  0  0
   26.7484   40.8474   17.0835 C   0  0  0  0  0  0  0  0  0  0  0  0
   26.0502   42.0840   17.6141 C   0  0  0  0  0  0  0  0  0  0  0  0
   26.3689   42.3009   19.0869 C   0  0  0  0  0  0  0  0  0  0  0  0
   27.5249   38.7101   23.8140 C   0  0  0  0  0  0  0  0  0  0  0  0
   27.1589   37.2427   22.9846 S   0  0  0  0  0  0  0  0  0  0  0  0
   27.1113   36.3724   24.4168 C   0  0  0  0  0  0  0  0  0  0  0  0
   27.4059   37.1362   25.4764 C   0  0  0  0  0  0  0  0  0  0  0  0
   27.6393   38.4864   25.1502 C   0  0  0  0  0  0  0  0  0  0  0  0
   26.9284   38.4417   17.2463 C   0  0  0  0  0  0  0  0  0  0  0  0
   26.4318   37.1312   17.8149 C   0  0  0  0  0  0  0  0  0  0  0  0
   27.0719   36.5274   18.8875 C   0  0  0  0  0  0  0  0  0  0  0  0
   26.9331   35.2317   19.2221 N   0  0  0  0  0  0  0  0  0  0  0  0
   26.1482   34.5415   18.4084 C   0  0  0  0  0  0  0  0  0  0  0  0
   25.5065   34.9637   17.3307 N   0  0  0  0  0  0  0  0  0  0  0  0
   25.6880   36.2614   17.0445 C   0  0  0  0  0  0  0  0  0  0  0  0
   26.0198   33.2515   18.7392 O   0  0  0  0  0  0  0  0  0  0  0  0
   24.7279   32.6537   18.5798 C   0  0  0  0  0  0  0  0  0  0  0  0
  1  2  2  0  0  0  0
  1  6  1  0  0  0  0
  2  3  1  0  0  0  0
  3  4  2  0  0  0  0
  4 14  1  0  0  0  0
  5  4  1  0  0  0  0
  6  5  1  0  0  0  0
  7  6  2  0  0  0  0
  8  9  1  0  0  0  0
  8  2  1  1  0  0  0
 10 19  1  0  0  0  0
 10  9  1  0  0  0  0
 11 10  1  0  0  0  0
 12 11  1  0  0  0  0
 12 13  1  0  0  0  0
 13  8  1  0  0  0  0
 14 15  1  0  0  0  0
 14 18  2  0  0  0  0
 15 16  1  0  0  0  0
 16 17  2  0  0  0  0
 18 17  1  0  0  0  0
 19 20  1  0  0  0  0
 20 25  2  0  0  0  0
 20 21  1  0  0  0  0
 21 22  2  0  0  0  0
 22 23  1  0  0  0  0
 23 26  1  0  0  0  0
 24 23  2  0  0  0  0
 25 24  1  0  0  0  0
 26 27  1  0  0  0  0
M  END
>  <CHROM.1>
30.58205934,114.82414018,67.84306179,-89.05967358,141.29512072,26.90522822
38.53028286,20.54212550,0.33567783,-1.30636191,-0.60988635

>  <Name>
lig.pdb

>  <RI>
0

>  <Rbt.Current_Directory>
/home/itssahil/PROJECTS/Mol_Feturizer/New_Systems/rnas/5kx9

>  <Rbt.Executable>
rbdock ($Id: //depot/dev/client3/rdock/2013.1/src/exe/rbdock.cxx#4 $)

>  <Rbt.Library>
libRbt.so (2013.1, Build901 2013/11/27)

>  <Rbt.Parameter_File>
/export/apps/rDock/src/rDock_2013.1_src/data/scripts/dock_solv.prm

>  <Rbt.Receptor>
prm/blind_docking_80.prm

>  <SCORE>
-29.9365

>  <SCORE.INTER>
-26.5634

>  <SCORE.INTER.CONST>
1

>  <SCORE.INTER.POLAR>
0

>  <SCORE.INTER.ROT>
5

>  <SCORE.INTER.SOLV>
11.1933

>  <SCORE.INTER.VDW>
-28.3734

>  <SCORE.INTER.norm>
-0.98383

>  <SCORE.INTRA>
-3.37309

>  <SCORE.INTRA.DIHEDRAL>
3.53997

>  <SCORE.INTRA.DIHEDRAL.0>
2.68224

>  <SCORE.INTRA.POLAR>
0

>  <SCORE.INTRA.POLAR.0>
0

>  <SCORE.INTRA.REPUL>
0

>  <SCORE.INTRA.REPUL.0>
0

>  <SCORE.INTRA.SOLV>
-0.478458

>  <SCORE.INTRA.SOLV.lig_0>
-19.4148

>  <SCORE.INTRA.VDW>
-4.90384

>  <SCORE.INTRA.VDW.0>
5.42093

>  <SCORE.INTRA.norm>
-0.124929

>  <SCORE.RESTR>
0

>  <SCORE.RESTR.CAVITY>
0

>  <SCORE.RESTR.norm>
0

>  <SCORE.SYSTEM>
0

>  <SCORE.SYSTEM.CONST>
0

>  <SCORE.SYSTEM.DIHEDRAL>
0

>  <SCORE.SYSTEM.SOLV>
0

>  <SCORE.SYSTEM.norm>
0

>  <SCORE.heavy>
27

>  <SCORE.norm>
-1.10876

>  <RMSD>
6.371

$$$$
lig.pdb
 OpenBabel11021811523D
libRbt.so/2013.1/901 2013/11/27
 27 30  0  0  0  0  0  0  0  0999 V2000
   26.2321   40.5741   18.4828 N   0  0  0  0  0  0  0  0  0  0  0  0
   27.2412   40.0341   19.1204 C   0  0  0  0  0  0  0  0  0  0  0  0
   27.8291   38.8576   18.7871 N   0  0  0  0  0  0  0  0  0  0  0  0
   27.3824   38.1937   17.6795 C   0  0  0  0  0  0  0  0  0  0  0  0
   26.3528   38.6980   16.9380 C   0  0  0  0  0  0  0  0  0  0  0  0
   25.7285   39.9318   17.3524 C   0  0  0  0  0  0  0  0  0  0  0  0
   24.7579   40.4231   16.7630 O   0  0  0  0  0  0  0  0  0  0  0  0
   27.7741   40.5901   20.4592 C   0  0  2  0  0  0  0  0  0  0  0  0
   26.8879   39.8624   21.4833 C   0  0  0  0  0  0  0  0  0  0  0  0
   27.0462   40.4172   22.8288 N   0  0  0  0  0  0  0  0  0  0  0  0
   26.6124   41.8236   22.8231 C   0  0  0  0  0  0  0  0  0  0  0  0
   27.4914   42.6547   21.9094 C   0  0  0  0  0  0  0  0  0  0  0  0
   27.4834   42.1001   20.4917 C   0  0  0  0  0  0  0  0  0  0  0  0
   28.1335   36.9725   17.4214 C   0  0  0  0  0  0  0  0  0  0  0  0
   29.2527   36.3412   18.5722 S   0  0  0  0  0  0  0  0  0  0  0  0
   29.6611   35.0634   17.5665 C   0  0  0  0  0  0  0  0  0  0  0  0
   28.9536   35.0754   16.4297 C   0  0  0  0  0  0  0  0  0  0  0  0
   28.0748   36.1711   16.3247 C   0  0  0  0  0  0  0  0  0  0  0  0
   26.2879   39.6509   23.8333 C   0  0  0  0  0  0  0  0  0  0  0  0
   26.5574   38.1630   23.8629 C   0  0  0  0  0  0  0  0  0  0  0  0
   26.1649   37.3430   22.8150 C   0  0  0  0  0  0  0  0  0  0  0  0
   26.0387   36.0065   22.9039 N   0  0  0  0  0  0  0  0  0  0  0  0
   26.2859   35.5165   24.1093 C   0  0  0  0  0  0  0  0  0  0  0  0
   26.6275   36.1697   25.2085 N   0  0  0  0  0  0  0  0  0  0  0  0
   26.7317   37.4985   25.0594 C   0  0  0  0  0  0  0  0  0  0  0  0
   26.1507   34.1882   24.1960 O   0  0  0  0  0  0  0  0  0  0  0  0
   26.9596   33.3836   23.3299 C   0  0  0  0  0  0  0  0  0  0  0  0
  1  2  2  0  0  0  0
  1  6  1  0  0  0  0
  2  3  1  0  0  0  0
  3  4  2  0  0  0  0
  4 14  1  0  0  0  0
  5  4  1  0  0  0  0
  6  5  1  0  0  0  0
  7  6  2  0  0  0  0
  8  9  1  0  0  0  0
  8  2  1  6  0  0  0
 10 19  1  0  0  0  0
 10  9  1  0  0  0  0
 11 10  1  0  0  0  0
 12 11  1  0  0  0  0
 12 13  1  0  0  0  0
 13  8  1  0  0  0  0
 14 15  1  0  0  0  0
 14 18  2  0  0  0  0
 15 16  1  0  0  0  0
 16 17  2  0  0  0  0
 18 17  1  0  0  0  0
 19 20  1  0  0  0  0
 20 25  2  0  0  0  0
 20 21  1  0  0  0  0
 21 22  2  0  0  0  0
 22 23  1  0  0  0  0
 23 26  1  0  0  0  0
 24 23  2  0  0  0  0
 25 24  1  0  0  0  0
 26 27  1  0  0  0  0
M  END
>  <CHROM.1>
10.17330787,87.42688082,53.48262991,-68.28070124,58.35648847,27.14158408
38.12343874,20.56477858,0.95000093,1.32169366,-0.75831444

>  <Name>
lig.pdb

>  <RI>
0

>  <Rbt.Current_Directory>
/home/itssahil/PROJECTS/Mol_Feturizer/New_Systems/rnas/5kx9

>  <Rbt.Executable>
rbdock ($Id: //depot/dev/client3/rdock/2013.1/src/exe/rbdock.cxx#4 $)

>  <Rbt.Library>
libRbt.so (2013.1, Build901 2013/11/27)

>  <Rbt.Parameter_File>
/export/apps/rDock/src/rDock_2013.1_src/data/scripts/dock_solv.prm

>  <Rbt.Receptor>
prm/pocket_docking_3.prm

>  <SCORE>
213

>  <SCORE.INTER>
213.873

>  <SCORE.INTER.CONST>
1

>  <SCORE.INTER.POLAR>
0

>  <SCORE.INTER.ROT>
5

>  <SCORE.INTER.SOLV>
18.3703

>  <SCORE.INTER.VDW>
129.525

>  <SCORE.INTER.norm>
7.92121

>  <SCORE.INTRA>
-3.70981

>  <SCORE.INTRA.DIHEDRAL>
2.77563

>  <SCORE.INTRA.DIHEDRAL.0>
2.68224

>  <SCORE.INTRA.POLAR>
0

>  <SCORE.INTRA.POLAR.0>
0

>  <SCORE.INTRA.REPUL>
0

>  <SCORE.INTRA.REPUL.0>
0

>  <SCORE.INTRA.SOLV>
-0.538124

>  <SCORE.INTRA.SOLV.lig_0>
-19.4148

>  <SCORE.INTRA.VDW>
-4.82856

>  <SCORE.INTRA.VDW.0>
5.42093

>  <SCORE.INTRA.norm>
-0.1374

>  <SCORE.RESTR>
2.83755

>  <SCORE.RESTR.CAVITY>
2.83755

>  <SCORE.RESTR.norm>
0.105095

>  <SCORE.SYSTEM>
0

>  <SCORE.SYSTEM.CONST>
0

>  <SCORE.SYSTEM.DIHEDRAL>
0

>  <SCORE.SYSTEM.SOLV>
0

>  <SCORE.SYSTEM.norm>
0

>  <SCORE.heavy>
27

>  <SCORE.norm>
7.8889

>  <RMSD>
6.397

$$$$
lig.pdb
 OpenBabel11021811523D
libRbt.so/2013.1/901 2013/11/27
 27 30  0  0  0  0  0  0  0  0999 V2000
   26.9112   40.0397   21.8369 N   0  0  0  0  0  0  0  0  0  0  0  0
   27.7220   39.5939   22.7643 C   0  0  0  0  0  0  0  0  0  0  0  0
   28.4983   40.3753   23.5567 N   0  0  0  0  0  0  0  0  0  0  0  0
   28.4079   41.7326   23.4271 C   0  0  0  0  0  0  0  0  0  0  0  0
   27.5668   42.2858   22.5046 C   0  0  0  0  0  0  0  0  0  0  0  0
   26.7899   41.4165   21.6535 C   0  0  0  0  0  0  0  0  0  0  0  0
   26.0467   41.8418   20.7604 O   0  0  0  0  0  0  0  0  0  0  0  0
   28.0335   38.0922   22.9469 C   0  0  2  0  0  0  0  0  0  0  0  0
   27.5058   37.4939   21.6327 C   0  0  0  0  0  0  0  0  0  0  0  0
   27.4708   36.0310   21.6783 N   0  0  0  0  0  0  0  0  0  0  0  0
   26.5406   35.6051   22.7364 C   0  0  0  0  0  0  0  0  0  0  0  0
   27.0248   36.0659   24.0970 C   0  0  0  0  0  0  0  0  0  0  0  0
   27.1977   37.5781   24.1314 C   0  0  0  0  0  0  0  0  0  0  0  0
   29.2644   42.4404   24.3692 C   0  0  0  0  0  0  0  0  0  0  0  0
   29.6037   41.8023   25.9354 S   0  0  0  0  0  0  0  0  0  0  0  0
   30.5451   43.1293   26.3400 C   0  0  0  0  0  0  0  0  0  0  0  0
   30.6460   43.9989   25.3268 C   0  0  0  0  0  0  0  0  0  0  0  0
   29.9091   43.6233   24.1866 C   0  0  0  0  0  0  0  0  0  0  0  0
   27.0758   35.4489   20.3836 C   0  0  0  0  0  0  0  0  0  0  0  0
   27.5999   36.1622   19.1572 C   0  0  0  0  0  0  0  0  0  0  0  0
   28.9619   36.3305   18.9539 C   0  0  0  0  0  0  0  0  0  0  0  0
   29.4973   37.2324   18.1113 N   0  0  0  0  0  0  0  0  0  0  0  0
   28.6074   37.9987   17.4986 C   0  0  0  0  0  0  0  0  0  0  0  0
   27.2895   37.9858   17.6189 N   0  0  0  0  0  0  0  0  0  0  0  0
   26.8154   37.0703   18.4767 C   0  0  0  0  0  0  0  0  0  0  0  0
   29.1441   38.9002   16.6684 O   0  0  0  0  0  0  0  0  0  0  0  0
   30.0028   39.8948   17.2384 C   0  0  0  0  0  0  0  0  0  0  0  0
  1  2  2  0  0  0  0
  1  6  1  0  0  0  0
  2  3  1  0  0  0  0
  3  4  2  0  0  0  0
  4 14  1  0  0  0  0
  5  4  1  0  0  0  0
  6  5  1  0  0  0  0
  7  6  2  0  0  0  0
  8  9  1  0  0  0  0
  8  2  1  6  0  0  0
 10 19  1  0  0  0  0
 10  9  1  0  0  0  0
 11 10  1  0  0  0  0
 12 11  1  0  0  0  0
 12 13  1  0  0  0  0
 13  8  1  0  0  0  0
 14 15  1  0  0  0  0
 14 18  2  0  0  0  0
 15 16  1  0  0  0  0
 16 17  2  0  0  0  0
 18 17  1  0  0  0  0
 19 20  1  0  0  0  0
 20 25  2  0  0  0  0
 20 21  1  0  0  0  0
 21 22  2  0  0  0  0
 22 23  1  0  0  0  0
 23 26  1  0  0  0  0
 24 23  2  0  0  0  0
 25 24  1  0  0  0  0
 26 27  1  0  0  0  0
M  END
>  <CHROM.1>
-32.16047108,14.49796640,37.10061480,58.26333465,-62.57729902,28.22743673
39.36090101,21.77833764,-1.04972479,-1.22771222,-1.78596797

>  <Name>
lig.pdb

>  <RI>
0

>  <Rbt.Current_Directory>
/home/itssahil/PROJECTS/Mol_Feturizer/New_Systems/rnas/5kx9

>  <Rbt.Executable>
rbdock ($Id: //depot/dev/client3/rdock/2013.1/src/exe/rbdock.cxx#4 $)

>  <Rbt.Library>
libRbt.so (2013.1, Build901 2013/11/27)

>  <Rbt.Parameter_File>
/export/apps/rDock/src/rDock_2013.1_src/data/scripts/dock_solv.prm

>  <Rbt.Receptor>
prm/pocket_docking_6.prm

>  <SCORE>
-31.6382

>  <SCORE.INTER>
-30.7073

>  <SCORE.INTER.CONST>
1

>  <SCORE.INTER.POLAR>
0

>  <SCORE.INTER.ROT>
5

>  <SCORE.INTER.SOLV>
12.1376

>  <SCORE.INTER.VDW>
-31.4507

>  <SCORE.INTER.norm>
-1.13731

>  <SCORE.INTRA>
-0.930876

>  <SCORE.INTRA.DIHEDRAL>
7.38501

>  <SCORE.INTRA.DIHEDRAL.0>
2.68224

>  <SCORE.INTRA.POLAR>
0

>  <SCORE.INTRA.POLAR.0>
0

>  <SCORE.INTRA.REPUL>
0

>  <SCORE.INTRA.REPUL.0>
0

>  <SCORE.INTRA.SOLV>
-0.309681

>  <SCORE.INTRA.SOLV.lig_0>
-19.4148

>  <SCORE.INTRA.VDW>
-4.46854

>  <SCORE.INTRA.VDW.0>
5.42093

>  <SCORE.INTRA.norm>
-0.0344769

>  <SCORE.RESTR>
0

>  <SCORE.RESTR.CAVITY>
0

>  <SCORE.RESTR.norm>
0

>  <SCORE.SYSTEM>
0

>  <SCORE.SYSTEM.CONST>
0

>  <SCORE.SYSTEM.DIHEDRAL>
0

>  <SCORE.SYSTEM.SOLV>
0

>  <SCORE.SYSTEM.norm>
0

>  <SCORE.heavy>
27

>  <SCORE.norm>
-1.17178

>  <RMSD>
6.406

$$$$
lig.pdb
 OpenBabel11021811523D
libRbt.so/2013.1/901 2013/11/27
 27 30  0  0  0  0  0  0  0  0999 V2000
   28.7674   41.1257   20.6904 N   0  0  0  0  0  0  0  0  0  0  0  0
   28.2494   39.9895   20.2942 C   0  0  0  0  0  0  0  0  0  0  0  0
   27.8309   38.9979   21.1205 N   0  0  0  0  0  0  0  0  0  0  0  0
   27.9019   39.1977   22.4704 C   0  0  0  0  0  0  0  0  0  0  0  0
   28.4022   40.3647   22.9726 C   0  0  0  0  0  0  0  0  0  0  0  0
   28.8748   41.3763   22.0577 C   0  0  0  0  0  0  0  0  0  0  0  0
   29.3889   42.4359   22.4371 O   0  0  0  0  0  0  0  0  0  0  0  0
   28.2204   39.5594   18.8110 C   0  0  2  0  0  0  0  0  0  0  0  0
   28.9800   38.2234   18.8504 C   0  0  0  0  0  0  0  0  0  0  0  0
   29.2950   37.7387   17.5053 N   0  0  0  0  0  0  0  0  0  0  0  0
   30.1829   38.7066   16.8412 C   0  0  0  0  0  0  0  0  0  0  0  0
   29.4880   40.0423   16.6649 C   0  0  0  0  0  0  0  0  0  0  0  0
   29.0211   40.5956   18.0041 C   0  0  0  0  0  0  0  0  0  0  0  0
   27.3793   38.0689   23.2287 C   0  0  0  0  0  0  0  0  0  0  0  0
   27.1709   36.5161   22.5072 S   0  0  0  0  0  0  0  0  0  0  0  0
   26.5545   35.8709   23.9266 C   0  0  0  0  0  0  0  0  0  0  0  0
   26.5478   36.7665   24.9219 C   0  0  0  0  0  0  0  0  0  0  0  0
   27.0115   38.0397   24.5373 C   0  0  0  0  0  0  0  0  0  0  0  0
   29.9201   36.4047   17.5329 C   0  0  0  0  0  0  0  0  0  0  0  0
   29.0004   35.2572   17.8863 C   0  0  0  0  0  0  0  0  0  0  0  0
   28.5038   34.4095   16.9068 C   0  0  0  0  0  0  0  0  0  0  0  0
   27.4323   33.6117   17.0660 N   0  0  0  0  0  0  0  0  0  0  0  0
   26.8426   33.7234   18.2468 C   0  0  0  0  0  0  0  0  0  0  0  0
   27.1710   34.5103   19.2589 N   0  0  0  0  0  0  0  0  0  0  0  0
   28.2429   35.2859   19.0390 C   0  0  0  0  0  0  0  0  0  0  0  0
   25.7721   32.9351   18.3982 O   0  0  0  0  0  0  0  0  0  0  0  0
   24.5109   33.5714   18.6351 C   0  0  0  0  0  0  0  0  0  0  0  0
  1  2  2  0  0  0  0
  1  6  1  0  0  0  0
  2  3  1  0  0  0  0
  3  4  2  0  0  0  0
  4 14  1  0  0  0  0
  5  4  1  0  0  0  0
  6  5  1  0  0  0  0
  7  6  2  0  0  0  0
  8  9  1  0  0  0  0
  8  2  1  1  0  0  0
 10 19  1  0  0  0  0
 10  9  1  0  0  0  0
 11 10  1  0  0  0  0
 12 11  1  0  0  0  0
 12 13  1  0  0  0  0
 13  8  1  0  0  0  0
 14 15  1  0  0  0  0
 14 18  2  0  0  0  0
 15 16  1  0  0  0  0
 16 17  2  0  0  0  0
 18 17  1  0  0  0  0
 19 20  1  0  0  0  0
 20 25  2  0  0  0  0
 20 21  1  0  0  0  0
 21 22  2  0  0  0  0
 22 23  1  0  0  0  0
 23 26  1  0  0  0  0
 24 23  2  0  0  0  0
 25 24  1  0  0  0  0
 26 27  1  0  0  0  0
M  END
>  <CHROM.1>
17.48462774,122.15506217,72.14787721,102.30741922,-118.68722873,27.97811379
37.47515968,20.10511995,-1.23374398,-1.08434215,-2.22515711

>  <Name>
lig.pdb

>  <RI>
0

>  <Rbt.Current_Directory>
/home/itssahil/PROJECTS/Mol_Feturizer/New_Systems/rnas/5kx9

>  <Rbt.Executable>
rbdock ($Id: //depot/dev/client3/rdock/2013.1/src/exe/rbdock.cxx#4 $)

>  <Rbt.Library>
libRbt.so (2013.1, Build901 2013/11/27)

>  <Rbt.Parameter_File>
/export/apps/rDock/src/rDock_2013.1_src/data/scripts/dock_solv.prm

>  <Rbt.Receptor>
prm/blind_docking_60.prm

>  <SCORE>
-30.2672

>  <SCORE.INTER>
-27.1798

>  <SCORE.INTER.CONST>
1

>  <SCORE.INTER.POLAR>
0

>  <SCORE.INTER.ROT>
5

>  <SCORE.INTER.SOLV>
10.5146

>  <SCORE.INTER.VDW>
-28.558

>  <SCORE.INTER.norm>
-1.00666

>  <SCORE.INTRA>
-3.08739

>  <SCORE.INTRA.DIHEDRAL>
4.12088

>  <SCORE.INTRA.DIHEDRAL.0>
2.68224

>  <SCORE.INTRA.POLAR>
0

>  <SCORE.INTRA.POLAR.0>
0

>  <SCORE.INTRA.REPUL>
0

>  <SCORE.INTRA.REPUL.0>
0

>  <SCORE.INTRA.SOLV>
-0.149328

>  <SCORE.INTRA.SOLV.lig_0>
-19.4148

>  <SCORE.INTRA.VDW>
-5.07317

>  <SCORE.INTRA.VDW.0>
5.42093

>  <SCORE.INTRA.norm>
-0.114348

>  <SCORE.RESTR>
0

>  <SCORE.RESTR.CAVITY>
0

>  <SCORE.RESTR.norm>
0

>  <SCORE.SYSTEM>
0

>  <SCORE.SYSTEM.CONST>
0

>  <SCORE.SYSTEM.DIHEDRAL>
0

>  <SCORE.SYSTEM.SOLV>
0

>  <SCORE.SYSTEM.norm>
0

>  <SCORE.heavy>
27

>  <SCORE.norm>
-1.12101

>  <RMSD>
6.411

$$$$
lig.pdb
 OpenBabel11021811523D
libRbt.so/2013.1/901 2013/11/27
 27 30  0  0  0  0  0  0  0  0999 V2000
   27.7160   42.3861   21.7149 N   0  0  0  0  0  0  0  0  0  0  0  0
   26.9607   41.3529   21.4350 C   0  0  0  0  0  0  0  0  0  0  0  0
   26.9258   40.2010   22.1513 N   0  0  0  0  0  0  0  0  0  0  0  0
   27.6917   40.1085   23.2790 C   0  0  0  0  0  0  0  0  0  0  0  0
   28.4887   41.1488   23.6624 C   0  0  0  0  0  0  0  0  0  0  0  0
   28.5270   42.3401   22.8481 C   0  0  0  0  0  0  0  0  0  0  0  0
   29.2628   43.3020   23.1014 O   0  0  0  0  0  0  0  0  0  0  0  0
   26.1406   41.2497   20.1303 C   0  0  2  0  0  0  0  0  0  0  0  0
   26.6109   39.9006   19.5626 C   0  0  0  0  0  0  0  0  0  0  0  0
   26.1454   39.6980   18.1894 N   0  0  0  0  0  0  0  0  0  0  0  0
   26.7242   40.7407   17.3269 C   0  0  0  0  0  0  0  0  0  0  0  0
   26.2418   42.1155   17.7458 C   0  0  0  0  0  0  0  0  0  0  0  0
   26.5845   42.3936   19.2028 C   0  0  0  0  0  0  0  0  0  0  0  0
   27.5198   38.8355   23.9662 C   0  0  0  0  0  0  0  0  0  0  0  0
   27.0804   37.4019   23.1136 S   0  0  0  0  0  0  0  0  0  0  0  0
   27.0655   36.4940   24.5229 C   0  0  0  0  0  0  0  0  0  0  0  0
   27.4231   37.2200   25.5897 C   0  0  0  0  0  0  0  0  0  0  0  0
   27.6809   38.5720   25.2902 C   0  0  0  0  0  0  0  0  0  0  0  0
   26.4950   38.3599   17.6810 C   0  0  0  0  0  0  0  0  0  0  0  0
   25.7652   37.2028   18.3259 C   0  0  0  0  0  0  0  0  0  0  0  0
   26.4580   36.1922   18.9765 C   0  0  0  0  0  0  0  0  0  0  0  0
   25.9458   34.9802   19.2571 N   0  0  0  0  0  0  0  0  0  0  0  0
   24.7079   34.7996   18.8216 C   0  0  0  0  0  0  0  0  0  0  0  0
   23.9387   35.6460   18.1558 N   0  0  0  0  0  0  0  0  0  0  0  0
   24.5056   36.8343   17.9005 C   0  0  0  0  0  0  0  0  0  0  0  0
   24.2051   33.5901   19.0946 O   0  0  0  0  0  0  0  0  0  0  0  0
   24.9299   32.4501   18.6184 C   0  0  0  0  0  0  0  0  0  0  0  0
  1  2  2  0  0  0  0
  1  6  1  0  0  0  0
  2  3  1  0  0  0  0
  3  4  2  0  0  0  0
  4 14  1  0  0  0  0
  5  4  1  0  0  0  0
  6  5  1  0  0  0  0
  7  6  2  0  0  0  0
  8  9  1  0  0  0  0
  8  2  1  1  0  0  0
 10 19  1  0  0  0  0
 10  9  1  0  0  0  0
 11 10  1  0  0  0  0
 12 11  1  0  0  0  0
 12 13  1  0  0  0  0
 13  8  1  0  0  0  0
 14 15  1  0  0  0  0
 14 18  2  0  0  0  0
 15 16  1  0  0  0  0
 16 17  2  0  0  0  0
 18 17  1  0  0  0  0
 19 20  1  0  0  0  0
 20 25  2  0  0  0  0
 20 21  1  0  0  0  0
 21 22  2  0  0  0  0
 22 23  1  0  0  0  0
 23 26  1  0  0  0  0
 24 23  2  0  0  0  0
 25 24  1  0  0  0  0
 26 27  1  0  0  0  0
M  END
>  <CHROM.1>
28.12356309,125.84960202,68.77829512,-120.73890169,-56.85906276,26.59549885
38.64447841,20.79516883,0.27557903,-1.18666868,-0.70438203

>  <Name>
lig.pdb

>  <RI>
0

>  <Rbt.Current_Directory>
/home/itssahil/PROJECTS/Mol_Feturizer/New_Systems/rnas/5kx9

>  <Rbt.Executable>
rbdock ($Id: //depot/dev/client3/rdock/2013.1/src/exe/rbdock.cxx#4 $)

>  <Rbt.Library>
libRbt.so (2013.1, Build901 2013/11/27)

>  <Rbt.Parameter_File>
/export/apps/rDock/src/rDock_2013.1_src/data/scripts/dock_solv.prm

>  <Rbt.Receptor>
prm/pocket_docking_6.prm

>  <SCORE>
-30.058

>  <SCORE.INTER>
-27.6144

>  <SCORE.INTER.CONST>
1

>  <SCORE.INTER.POLAR>
0

>  <SCORE.INTER.ROT>
5

>  <SCORE.INTER.SOLV>
13.5512

>  <SCORE.INTER.VDW>
-29.86

>  <SCORE.INTER.norm>
-1.02275

>  <SCORE.INTRA>
-2.44364

>  <SCORE.INTRA.DIHEDRAL>
4.84999

>  <SCORE.INTRA.DIHEDRAL.0>
2.68224

>  <SCORE.INTRA.POLAR>
0

>  <SCORE.INTRA.POLAR.0>
0

>  <SCORE.INTRA.REPUL>
0

>  <SCORE.INTRA.REPUL.0>
0

>  <SCORE.INTRA.SOLV>
-0.541211

>  <SCORE.INTRA.SOLV.lig_0>
-19.4148

>  <SCORE.INTRA.VDW>
-4.59803

>  <SCORE.INTRA.VDW.0>
5.42093

>  <SCORE.INTRA.norm>
-0.0905051

>  <SCORE.RESTR>
0

>  <SCORE.RESTR.CAVITY>
0

>  <SCORE.RESTR.norm>
0

>  <SCORE.SYSTEM>
0

>  <SCORE.SYSTEM.CONST>
0

>  <SCORE.SYSTEM.DIHEDRAL>
0

>  <SCORE.SYSTEM.SOLV>
0

>  <SCORE.SYSTEM.norm>
0

>  <SCORE.heavy>
27

>  <SCORE.norm>
-1.11326

>  <RMSD>
6.422

$$$$
lig.pdb
 OpenBabel11021811523D
libRbt.so/2013.1/901 2013/11/27
 27 30  0  0  0  0  0  0  0  0999 V2000
   27.6528   37.7778   21.6802 N   0  0  0  0  0  0  0  0  0  0  0  0
   28.1629   38.8079   21.0518 C   0  0  0  0  0  0  0  0  0  0  0  0
   28.4652   39.9975   21.6304 N   0  0  0  0  0  0  0  0  0  0  0  0
   28.2759   40.1371   22.9764 C   0  0  0  0  0  0  0  0  0  0  0  0
   27.7746   39.1048   23.7162 C   0  0  0  0  0  0  0  0  0  0  0  0
   27.4275   37.8705   23.0530 C   0  0  0  0  0  0  0  0  0  0  0  0
   26.9201   36.9105   23.6461 O   0  0  0  0  0  0  0  0  0  0  0  0
   28.3144   38.8551   19.5155 C   0  0  2  0  0  0  0  0  0  0  0  0
   29.8063   39.1878   19.3511 C   0  0  0  0  0  0  0  0  0  0  0  0
   30.1369   39.5272   17.9659 N   0  0  0  0  0  0  0  0  0  0  0  0
   29.3923   40.7355   17.5762 C   0  0  0  0  0  0  0  0  0  0  0  0
   27.8980   40.4824   17.6116 C   0  0  0  0  0  0  0  0  0  0  0  0
   27.4556   40.0192   18.9927 C   0  0  0  0  0  0  0  0  0  0  0  0
   28.6830   41.4485   23.4630 C   0  0  0  0  0  0  0  0  0  0  0  0
   28.5310   41.8812   25.1257 S   0  0  0  0  0  0  0  0  0  0  0  0
   29.1378   43.4187   24.8452 C   0  0  0  0  0  0  0  0  0  0  0  0
   29.4890   43.5921   23.5647 C   0  0  0  0  0  0  0  0  0  0  0  0
   29.2275   42.4717   22.7521 C   0  0  0  0  0  0  0  0  0  0  0  0
   31.5838   39.7345   17.7798 C   0  0  0  0  0  0  0  0  0  0  0  0
   32.3491   38.5533   17.2262 C   0  0  0  0  0  0  0  0  0  0  0  0
   31.9768   37.9551   16.0312 C   0  0  0  0  0  0  0  0  0  0  0  0
   32.3544   36.7212   15.6506 N   0  0  0  0  0  0  0  0  0  0  0  0
   33.0983   36.0819   16.5408 C   0  0  0  0  0  0  0  0  0  0  0  0
   33.4983   36.5006   17.7308 N   0  0  0  0  0  0  0  0  0  0  0  0
   33.0860   37.7346   18.0569 C   0  0  0  0  0  0  0  0  0  0  0  0
   33.4644   34.8519   16.1626 O   0  0  0  0  0  0  0  0  0  0  0  0
   32.4546   34.0049   15.6016 C   0  0  0  0  0  0  0  0  0  0  0  0
  1  2  2  0  0  0  0
  1  6  1  0  0  0  0
  2  3  1  0  0  0  0
  3  4  2  0  0  0  0
  4 14  1  0  0  0  0
  5  4  1  0  0  0  0
  6  5  1  0  0  0  0
  7  6  2  0  0  0  0
  8  9  1  0  0  0  0
  8  2  1  1  0  0  0
 10 19  1  0  0  0  0
 10  9  1  0  0  0  0
 11 10  1  0  0  0  0
 12 11  1  0  0  0  0
 12 13  1  0  0  0  0
 13  8  1  0  0  0  0
 14 15  1  0  0  0  0
 14 18  2  0  0  0  0
 15 16  1  0  0  0  0
 16 17  2  0  0  0  0
 18 17  1  0  0  0  0
 19 20  1  0  0  0  0
 20 25  2  0  0  0  0
 20 21  1  0  0  0  0
 21 22  2  0  0  0  0
 22 23  1  0  0  0  0
 23 26  1  0  0  0  0
 24 23  2  0  0  0  0
 25 24  1  0  0  0  0
 26 27  1  0  0  0  0
M  END
>  <CHROM.1>
179.41444690,-126.25360884,98.08629564,55.32584207,-46.10449799,29.82277973
39.11980193,20.16791726,2.46562607,0.98509569,0.20591446

>  <Name>
lig.pdb

>  <RI>
0

>  <Rbt.Current_Directory>
/home/itssahil/PROJECTS/Mol_Feturizer/New_Systems/rnas/5kx9

>  <Rbt.Executable>
rbdock ($Id: //depot/dev/client3/rdock/2013.1/src/exe/rbdock.cxx#4 $)

>  <Rbt.Library>
libRbt.so (2013.1, Build901 2013/11/27)

>  <Rbt.Parameter_File>
/export/apps/rDock/src/rDock_2013.1_src/data/scripts/dock_solv.prm

>  <Rbt.Receptor>
prm/pocket_docking_7.prm

>  <SCORE>
-28.5416

>  <SCORE.INTER>
-24.8503

>  <SCORE.INTER.CONST>
1

>  <SCORE.INTER.POLAR>
0

>  <SCORE.INTER.ROT>
5

>  <SCORE.INTER.SOLV>
12.4607

>  <SCORE.INTER.VDW>
-27.6538

>  <SCORE.INTER.norm>
-0.920383

>  <SCORE.INTRA>
-3.69127

>  <SCORE.INTRA.DIHEDRAL>
3.48027

>  <SCORE.INTRA.DIHEDRAL.0>
2.68224

>  <SCORE.INTRA.POLAR>
0

>  <SCORE.INTRA.POLAR.0>
0

>  <SCORE.INTRA.REPUL>
0

>  <SCORE.INTRA.REPUL.0>
0

>  <SCORE.INTRA.SOLV>
-0.549302

>  <SCORE.INTRA.SOLV.lig_0>
-19.4148

>  <SCORE.INTRA.VDW>
-5.15675

>  <SCORE.INTRA.VDW.0>
5.42093

>  <SCORE.INTRA.norm>
-0.136714

>  <SCORE.RESTR>
0

>  <SCORE.RESTR.CAVITY>
0

>  <SCORE.RESTR.norm>
0

>  <SCORE.SYSTEM>
0

>  <SCORE.SYSTEM.CONST>
0

>  <SCORE.SYSTEM.DIHEDRAL>
0

>  <SCORE.SYSTEM.SOLV>
0

>  <SCORE.SYSTEM.norm>
0

>  <SCORE.heavy>
27

>  <SCORE.norm>
-1.0571

>  <RMSD>
6.423

$$$$
lig.pdb
 OpenBabel11021811523D
libRbt.so/2013.1/901 2013/11/27
 27 30  0  0  0  0  0  0  0  0999 V2000
   29.7893   40.6643   28.0234 N   0  0  0  0  0  0  0  0  0  0  0  0
   29.0751   40.8705   26.9447 C   0  0  0  0  0  0  0  0  0  0  0  0
   28.4012   39.9086   26.2652 N   0  0  0  0  0  0  0  0  0  0  0  0
   28.4162   38.6318   26.7514 C   0  0  0  0  0  0  0  0  0  0  0  0
   29.1121   38.3311   27.8870 C   0  0  0  0  0  0  0  0  0  0  0  0
   29.8493   39.3769   28.5554 C   0  0  0  0  0  0  0  0  0  0  0  0
   30.5449   39.1714   29.5578 O   0  0  0  0  0  0  0  0  0  0  0  0
   29.0624   42.2236   26.2001 C   0  0  2  0  0  0  0  0  0  0  0  0
   28.5872   41.8123   24.7971 C   0  0  0  0  0  0  0  0  0  0  0  0
   28.7314   42.9050   23.8336 N   0  0  0  0  0  0  0  0  0  0  0  0
   30.1565   43.2512   23.7090 C   0  0  0  0  0  0  0  0  0  0  0  0
   30.7033   43.7649   25.0263 C   0  0  0  0  0  0  0  0  0  0  0  0
   30.5101   42.7391   26.1346 C   0  0  0  0  0  0  0  0  0  0  0  0
   27.6169   37.7192   25.9448 C   0  0  0  0  0  0  0  0  0  0  0  0
   25.9024   37.8746   25.8381 S   0  0  0  0  0  0  0  0  0  0  0  0
   25.7817   36.5379   24.8333 C   0  0  0  0  0  0  0  0  0  0  0  0
   26.9818   36.0188   24.5448 C   0  0  0  0  0  0  0  0  0  0  0  0
   28.0497   36.6805   25.1817 C   0  0  0  0  0  0  0  0  0  0  0  0
   28.1719   42.5552   22.5161 C   0  0  0  0  0  0  0  0  0  0  0  0
   28.6643   41.2557   21.9192 C   0  0  0  0  0  0  0  0  0  0  0  0
   29.3599   41.2369   20.7190 C   0  0  0  0  0  0  0  0  0  0  0  0
   29.5187   40.1436   19.9513 N   0  0  0  0  0  0  0  0  0  0  0  0
   28.9135   39.0609   20.4161 C   0  0  0  0  0  0  0  0  0  0  0  0
   28.1859   38.9329   21.5140 N   0  0  0  0  0  0  0  0  0  0  0  0
   28.0584   40.0570   22.2344 C   0  0  0  0  0  0  0  0  0  0  0  0
   29.0662   37.9779   19.6454 O   0  0  0  0  0  0  0  0  0  0  0  0
   27.9973   37.0247   19.6256 C   0  0  0  0  0  0  0  0  0  0  0  0
  1  2  2  0  0  0  0
  1  6  1  0  0  0  0
  2  3  1  0  0  0  0
  3  4  2  0  0  0  0
  4 14  1  0  0  0  0
  5  4  1  0  0  0  0
  6  5  1  0  0  0  0
  7  6  2  0  0  0  0
  8  9  1  0  0  0  0
  8  2  1  1  0  0  0
 10 19  1  0  0  0  0
 10  9  1  0  0  0  0
 11 10  1  0  0  0  0
 12 11  1  0  0  0  0
 12 13  1  0  0  0  0
 13  8  1  0  0  0  0
 14 15  1  0  0  0  0
 14 18  2  0  0  0  0
 15 16  1  0  0  0  0
 16 17  2  0  0  0  0
 18 17  1  0  0  0  0
 19 20  1  0  0  0  0
 20 25  2  0  0  0  0
 20 21  1  0  0  0  0
 21 22  2  0  0  0  0
 22 23  1  0  0  0  0
 23 26  1  0  0  0  0
 24 23  2  0  0  0  0
 25 24  1  0  0  0  0
 26 27  1  0  0  0  0
M  END
>  <CHROM.1>
-66.25066983,158.35829619,-52.27850011,-118.02531279,-148.67180175,28.60030480
39.79295745,24.43417677,-1.37983293,-1.12633998,-1.46777286

>  <Name>
lig.pdb

>  <RI>
0

>  <Rbt.Current_Directory>
/home/itssahil/PROJECTS/Mol_Feturizer/New_Systems/rnas/5kx9

>  <Rbt.Executable>
rbdock ($Id: //depot/dev/client3/rdock/2013.1/src/exe/rbdock.cxx#4 $)

>  <Rbt.Library>
libRbt.so (2013.1, Build901 2013/11/27)

>  <Rbt.Parameter_File>
/export/apps/rDock/src/rDock_2013.1_src/data/scripts/dock_solv.prm

>  <Rbt.Receptor>
prm/pocket_docking_6.prm

>  <SCORE>
-26.5558

>  <SCORE.INTER>
-31.0138

>  <SCORE.INTER.CONST>
1

>  <SCORE.INTER.POLAR>
0

>  <SCORE.INTER.ROT>
5

>  <SCORE.INTER.SOLV>
15.1361

>  <SCORE.INTER.VDW>
-32.6546

>  <SCORE.INTER.norm>
-1.14866

>  <SCORE.INTRA>
4.45807

>  <SCORE.INTRA.DIHEDRAL>
10.0493

>  <SCORE.INTRA.DIHEDRAL.0>
2.68224

>  <SCORE.INTRA.POLAR>
0

>  <SCORE.INTRA.POLAR.0>
0

>  <SCORE.INTRA.REPUL>
0

>  <SCORE.INTRA.REPUL.0>
0

>  <SCORE.INTRA.SOLV>
-0.461168

>  <SCORE.INTRA.SOLV.lig_0>
-19.4148

>  <SCORE.INTRA.VDW>
-0.335997

>  <SCORE.INTRA.VDW.0>
5.42093

>  <SCORE.INTRA.norm>
0.165114

>  <SCORE.RESTR>
0

>  <SCORE.RESTR.CAVITY>
0

>  <SCORE.RESTR.norm>
0

>  <SCORE.SYSTEM>
0

>  <SCORE.SYSTEM.CONST>
0

>  <SCORE.SYSTEM.DIHEDRAL>
0

>  <SCORE.SYSTEM.SOLV>
0

>  <SCORE.SYSTEM.norm>
0

>  <SCORE.heavy>
27

>  <SCORE.norm>
-0.983547

>  <RMSD>
6.426

$$$$
lig.pdb
 OpenBabel11021811523D
libRbt.so/2013.1/901 2013/11/27
 27 30  0  0  0  0  0  0  0  0999 V2000
   29.8033   36.2404   17.2474 N   0  0  0  0  0  0  0  0  0  0  0  0
   28.5985   36.7551   17.2484 C   0  0  0  0  0  0  0  0  0  0  0  0
   28.3084   38.0505   16.9677 N   0  0  0  0  0  0  0  0  0  0  0  0
   29.3279   38.8862   16.6083 C   0  0  0  0  0  0  0  0  0  0  0  0
   30.6128   38.4275   16.5531 C   0  0  0  0  0  0  0  0  0  0  0  0
   30.8821   37.0524   16.9001 C   0  0  0  0  0  0  0  0  0  0  0  0
   32.0248   36.5786   16.9246 O   0  0  0  0  0  0  0  0  0  0  0  0
   27.3622   35.9806   17.7556 C   0  0  2  0  0  0  0  0  0  0  0  0
   27.7699   35.6358   19.1973 C   0  0  0  0  0  0  0  0  0  0  0  0
   26.8446   34.6803   19.8089 N   0  0  0  0  0  0  0  0  0  0  0  0
   26.8832   33.4202   19.0493 C   0  0  0  0  0  0  0  0  0  0  0  0
   26.4030   33.6334   17.6273 C   0  0  0  0  0  0  0  0  0  0  0  0
   27.2379   34.6936   16.9226 C   0  0  0  0  0  0  0  0  0  0  0  0
   28.8621   40.2305   16.2953 C   0  0  0  0  0  0  0  0  0  0  0  0
   27.1875   40.6405   16.3483 S   0  0  0  0  0  0  0  0  0  0  0  0
   27.4947   42.2170   15.8672 C   0  0  0  0  0  0  0  0  0  0  0  0
   28.8051   42.4483   15.7180 C   0  0  0  0  0  0  0  0  0  0  0  0
   29.6076   41.3147   15.9524 C   0  0  0  0  0  0  0  0  0  0  0  0
   27.1637   34.4344   21.2262 C   0  0  0  0  0  0  0  0  0  0  0  0
   26.8794   35.5813   22.1704 C   0  0  0  0  0  0  0  0  0  0  0  0
   27.5291   36.7994   22.0337 C   0  0  0  0  0  0  0  0  0  0  0  0
   27.6119   37.7280   23.0037 N   0  0  0  0  0  0  0  0  0  0  0  0
   27.0451   37.3717   24.1467 C   0  0  0  0  0  0  0  0  0  0  0  0
   26.4288   36.2380   24.4407 N   0  0  0  0  0  0  0  0  0  0  0  0
   26.3834   35.3498   23.4367 C   0  0  0  0  0  0  0  0  0  0  0  0
   27.1372   38.2940   25.1115 O   0  0  0  0  0  0  0  0  0  0  0  0
   27.8792   37.9489   26.2871 C   0  0  0  0  0  0  0  0  0  0  0  0
  1  2  2  0  0  0  0
  1  6  1  0  0  0  0
  2  3  1  0  0  0  0
  3  4  2  0  0  0  0
  4 14  1  0  0  0  0
  5  4  1  0  0  0  0
  6  5  1  0  0  0  0
  7  6  2  0  0  0  0
  8  9  1  0  0  0  0
  8  2  1  6  0  0  0
 10 19  1  0  0  0  0
 10  9  1  0  0  0  0
 11 10  1  0  0  0  0
 12 11  1  0  0  0  0
 12 13  1  0  0  0  0
 13  8  1  0  0  0  0
 14 15  1  0  0  0  0
 14 18  2  0  0  0  0
 15 16  1  0  0  0  0
 16 17  2  0  0  0  0
 18 17  1  0  0  0  0
 19 20  1  0  0  0  0
 20 25  2  0  0  0  0
 20 21  1  0  0  0  0
 21 22  2  0  0  0  0
 22 23  1  0  0  0  0
 23 26  1  0  0  0  0
 24 23  2  0  0  0  0
 25 24  1  0  0  0  0
 26 27  1  0  0  0  0
M  END
>  <CHROM.1>
-1.65822901,57.42140139,70.62951233,-61.90769579,-116.64702561,28.03690307
37.40520867,19.21379812,-0.08245572,-1.33948994,-2.80167235

>  <Name>
lig.pdb

>  <RI>
0

>  <Rbt.Current_Directory>
/home/itssahil/PROJECTS/Mol_Feturizer/New_Systems/rnas/5kx9

>  <Rbt.Executable>
rbdock ($Id: //depot/dev/client3/rdock/2013.1/src/exe/rbdock.cxx#4 $)

>  <Rbt.Library>
libRbt.so (2013.1, Build901 2013/11/27)

>  <Rbt.Parameter_File>
/export/apps/rDock/src/rDock_2013.1_src/data/scripts/dock_solv.prm

>  <Rbt.Receptor>
prm/blind_docking_80.prm

>  <SCORE>
-34.1905

>  <SCORE.INTER>
-29.515

>  <SCORE.INTER.CONST>
1

>  <SCORE.INTER.POLAR>
0

>  <SCORE.INTER.ROT>
5

>  <SCORE.INTER.SOLV>
14.9428

>  <SCORE.INTER.VDW>
-31.5909

>  <SCORE.INTER.norm>
-1.09315

>  <SCORE.INTRA>
-4.67556

>  <SCORE.INTRA.DIHEDRAL>
3.35396

>  <SCORE.INTRA.DIHEDRAL.0>
2.68224

>  <SCORE.INTRA.POLAR>
0

>  <SCORE.INTRA.POLAR.0>
0

>  <SCORE.INTRA.REPUL>
0

>  <SCORE.INTRA.REPUL.0>
0

>  <SCORE.INTRA.SOLV>
-0.554793

>  <SCORE.INTRA.SOLV.lig_0>
-19.4148

>  <SCORE.INTRA.VDW>
-6.07514

>  <SCORE.INTRA.VDW.0>
5.42093

>  <SCORE.INTRA.norm>
-0.173169

>  <SCORE.RESTR>
0

>  <SCORE.RESTR.CAVITY>
0

>  <SCORE.RESTR.norm>
0

>  <SCORE.SYSTEM>
0

>  <SCORE.SYSTEM.CONST>
0

>  <SCORE.SYSTEM.DIHEDRAL>
0

>  <SCORE.SYSTEM.SOLV>
0

>  <SCORE.SYSTEM.norm>
0

>  <SCORE.heavy>
27

>  <SCORE.norm>
-1.26632

>  <RMSD>
6.439

$$$$
lig.pdb
 OpenBabel11021811523D
libRbt.so/2013.1/901 2013/11/27
 27 30  0  0  0  0  0  0  0  0999 V2000
   27.3296   38.2350   23.0522 N   0  0  0  0  0  0  0  0  0  0  0  0
   27.9258   39.2568   22.4895 C   0  0  0  0  0  0  0  0  0  0  0  0
   28.4476   40.3154   23.1590 N   0  0  0  0  0  0  0  0  0  0  0  0
   28.4011   40.3131   24.5246 C   0  0  0  0  0  0  0  0  0  0  0  0
   27.8233   39.2742   25.1963 C   0  0  0  0  0  0  0  0  0  0  0  0
   27.2432   38.1880   24.4430 C   0  0  0  0  0  0  0  0  0  0  0  0
   26.6567   37.2390   24.9781 O   0  0  0  0  0  0  0  0  0  0  0  0
   27.9451   39.4713   20.9600 C   0  0  2  0  0  0  0  0  0  0  0  0
   28.4215   38.1011   20.4508 C   0  0  0  0  0  0  0  0  0  0  0  0
   28.7537   38.1377   19.0255 N   0  0  0  0  0  0  0  0  0  0  0  0
   29.8697   39.0742   18.8159 C   0  0  0  0  0  0  0  0  0  0  0  0
   29.4686   40.4848   19.2000 C   0  0  0  0  0  0  0  0  0  0  0  0
   29.0020   40.5444   20.6479 C   0  0  0  0  0  0  0  0  0  0  0  0
   29.0358   41.4887   25.1055 C   0  0  0  0  0  0  0  0  0  0  0  0
   29.4411   41.5604   26.7805 S   0  0  0  0  0  0  0  0  0  0  0  0
   30.0431   43.1181   26.6316 C   0  0  0  0  0  0  0  0  0  0  0  0
   29.9905   43.5562   25.3674 C   0  0  0  0  0  0  0  0  0  0  0  0
   29.4066   42.6352   24.4759 C   0  0  0  0  0  0  0  0  0  0  0  0
   29.1002   36.8030   18.5062 C   0  0  0  0  0  0  0  0  0  0  0  0
   27.9602   35.8117   18.4342 C   0  0  0  0  0  0  0  0  0  0  0  0
   26.7989   36.1052   17.7342 C   0  0  0  0  0  0  0  0  0  0  0  0
   25.6281   35.4650   17.9048 N   0  0  0  0  0  0  0  0  0  0  0  0
   25.6513   34.5312   18.8439 C   0  0  0  0  0  0  0  0  0  0  0  0
   26.6618   34.1676   19.6173 N   0  0  0  0  0  0  0  0  0  0  0  0
   27.7998   34.8450   19.4053 C   0  0  0  0  0  0  0  0  0  0  0  0
   24.4828   33.9028   19.0168 O   0  0  0  0  0  0  0  0  0  0  0  0
   24.4291   32.5075   18.6979 C   0  0  0  0  0  0  0  0  0  0  0  0
  1  2  2  0  0  0  0
  1  6  1  0  0  0  0
  2  3  1  0  0  0  0
  3  4  2  0  0  0  0
  4 14  1  0  0  0  0
  5  4  1  0  0  0  0
  6  5  1  0  0  0  0
  7  6  2  0  0  0  0
  8  9  1  0  0  0  0
  8  2  1  1  0  0  0
 10 19  1  0  0  0  0
 10  9  1  0  0  0  0
 11 10  1  0  0  0  0
 12 11  1  0  0  0  0
 12 13  1  0  0  0  0
 13  8  1  0  0  0  0
 14 15  1  0  0  0  0
 14 18  2  0  0  0  0
 15 16  1  0  0  0  0
 16 17  2  0  0  0  0
 18 17  1  0  0  0  0
 19 20  1  0  0  0  0
 20 25  2  0  0  0  0
 20 21  1  0  0  0  0
 21 22  2  0  0  0  0
 22 23  1  0  0  0  0
 23 26  1  0  0  0  0
 24 23  2  0  0  0  0
 25 24  1  0  0  0  0
 26 27  1  0  0  0  0
M  END
>  <CHROM.1>
-165.51544533,-50.47613370,68.74614673,55.75577490,114.83543966,27.94893517
38.42304479,21.81464968,1.05629012,0.94453067,1.21752542

>  <Name>
lig.pdb

>  <RI>
0

>  <Rbt.Current_Directory>
/home/itssahil/PROJECTS/Mol_Feturizer/New_Systems/rnas/5kx9

>  <Rbt.Executable>
rbdock ($Id: //depot/dev/client3/rdock/2013.1/src/exe/rbdock.cxx#4 $)

>  <Rbt.Library>
libRbt.so (2013.1, Build901 2013/11/27)

>  <Rbt.Parameter_File>
/export/apps/rDock/src/rDock_2013.1_src/data/scripts/dock_solv.prm

>  <Rbt.Receptor>
prm/pocket_docking_6.prm

>  <SCORE>
-27.1374

>  <SCORE.INTER>
-24.205

>  <SCORE.INTER.CONST>
1

>  <SCORE.INTER.POLAR>
0

>  <SCORE.INTER.ROT>
5

>  <SCORE.INTER.SOLV>
12.0394

>  <SCORE.INTER.VDW>
-27.0832

>  <SCORE.INTER.norm>
-0.896483

>  <SCORE.INTRA>
-2.93231

>  <SCORE.INTRA.DIHEDRAL>
3.88784

>  <SCORE.INTRA.DIHEDRAL.0>
2.68224

>  <SCORE.INTRA.POLAR>
0

>  <SCORE.INTRA.POLAR.0>
0

>  <SCORE.INTRA.REPUL>
0

>  <SCORE.INTRA.REPUL.0>
0

>  <SCORE.INTRA.SOLV>
-0.557365

>  <SCORE.INTRA.SOLV.lig_0>
-19.4148

>  <SCORE.INTRA.VDW>
-4.59755

>  <SCORE.INTRA.VDW.0>
5.42093

>  <SCORE.INTRA.norm>
-0.108604

>  <SCORE.RESTR>
0

>  <SCORE.RESTR.CAVITY>
0

>  <SCORE.RESTR.norm>
0

>  <SCORE.SYSTEM>
0

>  <SCORE.SYSTEM.CONST>
0

>  <SCORE.SYSTEM.DIHEDRAL>
0

>  <SCORE.SYSTEM.SOLV>
0

>  <SCORE.SYSTEM.norm>
0

>  <SCORE.heavy>
27

>  <SCORE.norm>
-1.00509

>  <RMSD>
6.439

$$$$
lig.pdb
 OpenBabel11021811523D
libRbt.so/2013.1/901 2013/11/27
 27 30  0  0  0  0  0  0  0  0999 V2000
   29.3055   41.0987   20.8990 N   0  0  0  0  0  0  0  0  0  0  0  0
   29.2656   39.9500   20.2702 C   0  0  0  0  0  0  0  0  0  0  0  0
   28.7582   38.8016   20.7847 N   0  0  0  0  0  0  0  0  0  0  0  0
   28.1993   38.8339   22.0311 C   0  0  0  0  0  0  0  0  0  0  0  0
   28.1717   39.9957   22.7480 C   0  0  0  0  0  0  0  0  0  0  0  0
   28.7602   41.1848   22.1792 C   0  0  0  0  0  0  0  0  0  0  0  0
   28.8204   42.2602   22.7882 O   0  0  0  0  0  0  0  0  0  0  0  0
   29.9680   39.7176   18.9145 C   0  0  2  0  0  0  0  0  0  0  0  0
   29.1394   38.5685   18.3176 C   0  0  0  0  0  0  0  0  0  0  0  0
   29.7735   38.0054   17.1242 N   0  0  0  0  0  0  0  0  0  0  0  0
   31.0770   37.4328   17.4973 C   0  0  0  0  0  0  0  0  0  0  0  0
   32.0111   38.5100   18.0125 C   0  0  0  0  0  0  0  0  0  0  0  0
   31.4009   39.2381   19.2021 C   0  0  0  0  0  0  0  0  0  0  0  0
   27.6593   37.5420   22.4331 C   0  0  0  0  0  0  0  0  0  0  0  0
   26.9571   37.3024   23.9902 S   0  0  0  0  0  0  0  0  0  0  0  0
   26.6490   35.6857   23.6709 C   0  0  0  0  0  0  0  0  0  0  0  0
   27.0114   35.3431   22.4282 C   0  0  0  0  0  0  0  0  0  0  0  0
   27.6021   36.3964   21.7031 C   0  0  0  0  0  0  0  0  0  0  0  0
   28.9291   36.9825   16.4824 C   0  0  0  0  0  0  0  0  0  0  0  0
   28.2563   36.0054   17.4205 C   0  0  0  0  0  0  0  0  0  0  0  0
   28.7466   34.7183   17.5862 C   0  0  0  0  0  0  0  0  0  0  0  0
   28.0378   33.6969   18.1004 N   0  0  0  0  0  0  0  0  0  0  0  0
   26.7879   34.0055   18.4118 C   0  0  0  0  0  0  0  0  0  0  0  0
   26.1692   35.1673   18.2750 N   0  0  0  0  0  0  0  0  0  0  0  0
   26.9244   36.1446   17.7521 C   0  0  0  0  0  0  0  0  0  0  0  0
   26.0836   32.9850   18.9145 O   0  0  0  0  0  0  0  0  0  0  0  0
   24.7454   32.8063   18.4360 C   0  0  0  0  0  0  0  0  0  0  0  0
  1  2  2  0  0  0  0
  1  6  1  0  0  0  0
  2  3  1  0  0  0  0
  3  4  2  0  0  0  0
  4 14  1  0  0  0  0
  5  4  1  0  0  0  0
  6  5  1  0  0  0  0
  7  6  2  0  0  0  0
  8  9  1  0  0  0  0
  8  2  1  1  0  0  0
 10 19  1  0  0  0  0
 10  9  1  0  0  0  0
 11 10  1  0  0  0  0
 12 11  1  0  0  0  0
 12 13  1  0  0  0  0
 13  8  1  0  0  0  0
 14 15  1  0  0  0  0
 14 18  2  0  0  0  0
 15 16  1  0  0  0  0
 16 17  2  0  0  0  0
 18 17  1  0  0  0  0
 19 20  1  0  0  0  0
 20 25  2  0  0  0  0
 20 21  1  0  0  0  0
 21 22  2  0  0  0  0
 22 23  1  0  0  0  0
 23 26  1  0  0  0  0
 24 23  2  0  0  0  0
 25 24  1  0  0  0  0
 26 27  1  0  0  0  0
M  END
>  <CHROM.1>
177.47509795,-154.90355881,-42.95897759,-102.40681530,-136.32603910,28.27156518
37.33404796,20.04003075,-1.09476024,-0.89596838,-2.22136152

>  <Name>
lig.pdb

>  <RI>
0

>  <Rbt.Current_Directory>
/home/itssahil/PROJECTS/Mol_Feturizer/New_Systems/rnas/5kx9

>  <Rbt.Executable>
rbdock ($Id: //depot/dev/client3/rdock/2013.1/src/exe/rbdock.cxx#4 $)

>  <Rbt.Library>
libRbt.so (2013.1, Build901 2013/11/27)

>  <Rbt.Parameter_File>
/export/apps/rDock/src/rDock_2013.1_src/data/scripts/dock_solv.prm

>  <Rbt.Receptor>
prm/pocket_docking_7.prm

>  <SCORE>
-30.9705

>  <SCORE.INTER>
-28.2706

>  <SCORE.INTER.CONST>
1

>  <SCORE.INTER.POLAR>
0

>  <SCORE.INTER.ROT>
5

>  <SCORE.INTER.SOLV>
11.6812

>  <SCORE.INTER.VDW>
-29.6741

>  <SCORE.INTER.norm>
-1.04706

>  <SCORE.INTRA>
-2.6999

>  <SCORE.INTRA.DIHEDRAL>
1.26512

>  <SCORE.INTRA.DIHEDRAL.0>
2.68224

>  <SCORE.INTRA.POLAR>
0

>  <SCORE.INTRA.POLAR.0>
0

>  <SCORE.INTRA.REPUL>
0

>  <SCORE.INTRA.REPUL.0>
0

>  <SCORE.INTRA.SOLV>
-0.4056

>  <SCORE.INTRA.SOLV.lig_0>
-19.4148

>  <SCORE.INTRA.VDW>
-3.12966

>  <SCORE.INTRA.VDW.0>
5.42093

>  <SCORE.INTRA.norm>
-0.0999962

>  <SCORE.RESTR>
0

>  <SCORE.RESTR.CAVITY>
0

>  <SCORE.RESTR.norm>
0

>  <SCORE.SYSTEM>
0

>  <SCORE.SYSTEM.CONST>
0

>  <SCORE.SYSTEM.DIHEDRAL>
0

>  <SCORE.SYSTEM.SOLV>
0

>  <SCORE.SYSTEM.norm>
0

>  <SCORE.heavy>
27

>  <SCORE.norm>
-1.14706

>  <RMSD>
6.445

$$$$
lig.pdb
 OpenBabel11021811523D
libRbt.so/2013.1/901 2013/11/27
 27 30  0  0  0  0  0  0  0  0999 V2000
   28.1228   39.3400   16.5214 N   0  0  0  0  0  0  0  0  0  0  0  0
   26.9281   39.1560   17.0265 C   0  0  0  0  0  0  0  0  0  0  0  0
   26.1085   40.1466   17.4601 N   0  0  0  0  0  0  0  0  0  0  0  0
   26.5203   41.4425   17.3254 C   0  0  0  0  0  0  0  0  0  0  0  0
   27.7402   41.7288   16.7829 C   0  0  0  0  0  0  0  0  0  0  0  0
   28.5979   40.6424   16.3729 C   0  0  0  0  0  0  0  0  0  0  0  0
   29.7364   40.8204   15.9224 O   0  0  0  0  0  0  0  0  0  0  0  0
   26.3730   37.7547   17.3636 C   0  0  2  0  0  0  0  0  0  0  0  0
   27.2334   37.3518   18.5722 C   0  0  0  0  0  0  0  0  0  0  0  0
   27.0526   35.9415   18.9207 N   0  0  0  0  0  0  0  0  0  0  0  0
   27.4968   35.1068   17.7928 C   0  0  0  0  0  0  0  0  0  0  0  0
   26.6422   35.3593   16.5664 C   0  0  0  0  0  0  0  0  0  0  0  0
   26.6741   36.8294   16.1723 C   0  0  0  0  0  0  0  0  0  0  0  0
   25.5225   42.3955   17.7926 C   0  0  0  0  0  0  0  0  0  0  0  0
   25.6292   44.0741   17.4104 S   0  0  0  0  0  0  0  0  0  0  0  0
   24.2392   44.4239   18.2801 C   0  0  0  0  0  0  0  0  0  0  0  0
   23.6833   43.3220   18.7995 C   0  0  0  0  0  0  0  0  0  0  0  0
   24.4120   42.1457   18.5362 C   0  0  0  0  0  0  0  0  0  0  0  0
   27.7853   35.5787   20.1466 C   0  0  0  0  0  0  0  0  0  0  0  0
   27.1475   36.0184   21.4456 C   0  0  0  0  0  0  0  0  0  0  0  0
   27.4962   37.2205   22.0439 C   0  0  0  0  0  0  0  0  0  0  0  0
   27.2629   37.5214   23.3342 N   0  0  0  0  0  0  0  0  0  0  0  0
   26.6937   36.5452   24.0253 C   0  0  0  0  0  0  0  0  0  0  0  0
   26.3424   35.3393   23.6087 N   0  0  0  0  0  0  0  0  0  0  0  0
   26.6052   35.0958   22.3162 C   0  0  0  0  0  0  0  0  0  0  0  0
   26.4715   36.8450   25.3102 O   0  0  0  0  0  0  0  0  0  0  0  0
   27.4033   37.7208   25.9554 C   0  0  0  0  0  0  0  0  0  0  0  0
  1  2  2  0  0  0  0
  1  6  1  0  0  0  0
  2  3  1  0  0  0  0
  3  4  2  0  0  0  0
  4 14  1  0  0  0  0
  5  4  1  0  0  0  0
  6  5  1  0  0  0  0
  7  6  2  0  0  0  0
  8  9  1  0  0  0  0
  8  2  1  6  0  0  0
 10 19  1  0  0  0  0
 10  9  1  0  0  0  0
 11 10  1  0  0  0  0
 12 11  1  0  0  0  0
 12 13  1  0  0  0  0
 13  8  1  0  0  0  0
 14 15  1  0  0  0  0
 14 18  2  0  0  0  0
 15 16  1  0  0  0  0
 16 17  2  0  0  0  0
 18 17  1  0  0  0  0
 19 20  1  0  0  0  0
 20 25  2  0  0  0  0
 20 21  1  0  0  0  0
 21 22  2  0  0  0  0
 22 23  1  0  0  0  0
 23 26  1  0  0  0  0
 24 23  2  0  0  0  0
 25 24  1  0  0  0  0
 26 27  1  0  0  0  0
M  END
>  <CHROM.1>
-165.80033351,69.92655634,77.18167786,-93.47505670,-32.52417054,26.71626717
38.94570749,19.27325645,-1.87351677,-1.24270002,2.10443000

>  <Name>
lig.pdb

>  <RI>
0

>  <Rbt.Current_Directory>
/home/itssahil/PROJECTS/Mol_Feturizer/New_Systems/rnas/5kx9

>  <Rbt.Executable>
rbdock ($Id: //depot/dev/client3/rdock/2013.1/src/exe/rbdock.cxx#4 $)

>  <Rbt.Library>
libRbt.so (2013.1, Build901 2013/11/27)

>  <Rbt.Parameter_File>
/export/apps/rDock/src/rDock_2013.1_src/data/scripts/dock_solv.prm

>  <Rbt.Receptor>
prm/pocket_docking_6.prm

>  <SCORE>
-35.7302

>  <SCORE.INTER>
-31.3606

>  <SCORE.INTER.CONST>
1

>  <SCORE.INTER.POLAR>
0

>  <SCORE.INTER.ROT>
5

>  <SCORE.INTER.SOLV>
15.6476

>  <SCORE.INTER.VDW>
-33.0563

>  <SCORE.INTER.norm>
-1.1615

>  <SCORE.INTRA>
-4.36963

>  <SCORE.INTRA.DIHEDRAL>
1.09489

>  <SCORE.INTRA.DIHEDRAL.0>
2.68224

>  <SCORE.INTRA.POLAR>
0

>  <SCORE.INTRA.POLAR.0>
0

>  <SCORE.INTRA.REPUL>
0

>  <SCORE.INTRA.REPUL.0>
0

>  <SCORE.INTRA.SOLV>
-0.653773

>  <SCORE.INTRA.SOLV.lig_0>
-19.4148

>  <SCORE.INTRA.VDW>
-4.59019

>  <SCORE.INTRA.VDW.0>
5.42093

>  <SCORE.INTRA.norm>
-0.161838

>  <SCORE.RESTR>
0

>  <SCORE.RESTR.CAVITY>
0

>  <SCORE.RESTR.norm>
0

>  <SCORE.SYSTEM>
0

>  <SCORE.SYSTEM.CONST>
0

>  <SCORE.SYSTEM.DIHEDRAL>
0

>  <SCORE.SYSTEM.SOLV>
0

>  <SCORE.SYSTEM.norm>
0

>  <SCORE.heavy>
27

>  <SCORE.norm>
-1.32334

>  <RMSD>
6.447

$$$$
lig.pdb
 OpenBabel11021811523D
libRbt.so/2013.1/901 2013/11/27
 27 30  0  0  0  0  0  0  0  0999 V2000
   27.0052   39.8074   21.5136 N   0  0  0  0  0  0  0  0  0  0  0  0
   27.6645   39.2255   22.4846 C   0  0  0  0  0  0  0  0  0  0  0  0
   28.2575   39.8753   23.5177 N   0  0  0  0  0  0  0  0  0  0  0  0
   28.1295   41.2334   23.5961 C   0  0  0  0  0  0  0  0  0  0  0  0
   27.4347   41.9199   22.6420 C   0  0  0  0  0  0  0  0  0  0  0  0
   26.8550   41.1933   21.5376 C   0  0  0  0  0  0  0  0  0  0  0  0
   26.2573   41.7503   20.6085 O   0  0  0  0  0  0  0  0  0  0  0  0
   28.0077   37.7196   22.4731 C   0  0  2  0  0  0  0  0  0  0  0  0
   27.4850   37.2828   21.0948 C   0  0  0  0  0  0  0  0  0  0  0  0
   27.4802   35.8257   20.9534 N   0  0  0  0  0  0  0  0  0  0  0  0
   26.5647   35.2489   21.9511 C   0  0  0  0  0  0  0  0  0  0  0  0
   27.0471   35.5424   23.3580 C   0  0  0  0  0  0  0  0  0  0  0  0
   27.1891   37.0411   23.5847 C   0  0  0  0  0  0  0  0  0  0  0  0
   28.7791   41.7868   24.7768 C   0  0  0  0  0  0  0  0  0  0  0  0
   29.0134   43.4853   24.9652 S   0  0  0  0  0  0  0  0  0  0  0  0
   29.7854   43.2780   26.4389 C   0  0  0  0  0  0  0  0  0  0  0  0
   29.8262   41.9908   26.8057 C   0  0  0  0  0  0  0  0  0  0  0  0
   29.2589   41.1167   25.8581 C   0  0  0  0  0  0  0  0  0  0  0  0
   27.0898   35.4054   19.5961 C   0  0  0  0  0  0  0  0  0  0  0  0
   27.8861   36.0185   18.4659 C   0  0  0  0  0  0  0  0  0  0  0  0
   29.2583   36.1947   18.5697 C   0  0  0  0  0  0  0  0  0  0  0  0
   29.9765   37.0294   17.7969 N   0  0  0  0  0  0  0  0  0  0  0  0
   29.2549   37.7217   16.9283 C   0  0  0  0  0  0  0  0  0  0  0  0
   27.9452   37.6940   16.7402 N   0  0  0  0  0  0  0  0  0  0  0  0
   27.2830   36.8481   17.5432 C   0  0  0  0  0  0  0  0  0  0  0  0
   29.9715   38.5573   16.1678 O   0  0  0  0  0  0  0  0  0  0  0  0
   30.9092   37.9785   15.2526 C   0  0  0  0  0  0  0  0  0  0  0  0
  1  2  2  0  0  0  0
  1  6  1  0  0  0  0
  2  3  1  0  0  0  0
  3  4  2  0  0  0  0
  4 14  1  0  0  0  0
  5  4  1  0  0  0  0
  6  5  1  0  0  0  0
  7  6  2  0  0  0  0
  8  9  1  0  0  0  0
  8  2  1  6  0  0  0
 10 19  1  0  0  0  0
 10  9  1  0  0  0  0
 11 10  1  0  0  0  0
 12 11  1  0  0  0  0
 12 13  1  0  0  0  0
 13  8  1  0  0  0  0
 14 15  1  0  0  0  0
 14 18  2  0  0  0  0
 15 16  1  0  0  0  0
 16 17  2  0  0  0  0
 18 17  1  0  0  0  0
 19 20  1  0  0  0  0
 20 25  2  0  0  0  0
 20 21  1  0  0  0  0
 21 22  2  0  0  0  0
 22 23  1  0  0  0  0
 23 26  1  0  0  0  0
 24 23  2  0  0  0  0
 25 24  1  0  0  0  0
 26 27  1  0  0  0  0
M  END
>  <CHROM.1>
168.70882386,3.95031326,53.69311504,40.05083293,65.43591904,28.24460799,39.04067479
21.40528147,-1.53981040,-1.19246184,-2.17042460

>  <Name>
lig.pdb

>  <RI>
0

>  <Rbt.Current_Directory>
/home/itssahil/PROJECTS/Mol_Feturizer/New_Systems/rnas/5kx9

>  <Rbt.Executable>
rbdock ($Id: //depot/dev/client3/rdock/2013.1/src/exe/rbdock.cxx#4 $)

>  <Rbt.Library>
libRbt.so (2013.1, Build901 2013/11/27)

>  <Rbt.Parameter_File>
/export/apps/rDock/src/rDock_2013.1_src/data/scripts/dock_solv.prm

>  <Rbt.Receptor>
prm/pocket_docking_8.prm

>  <SCORE>
-32.6059

>  <SCORE.INTER>
-29.5552

>  <SCORE.INTER.CONST>
1

>  <SCORE.INTER.POLAR>
0

>  <SCORE.INTER.ROT>
5

>  <SCORE.INTER.SOLV>
12.3582

>  <SCORE.INTER.VDW>
-30.7562

>  <SCORE.INTER.norm>
-1.09464

>  <SCORE.INTRA>
-3.05072

>  <SCORE.INTRA.DIHEDRAL>
3.49921

>  <SCORE.INTRA.DIHEDRAL.0>
2.68224

>  <SCORE.INTRA.POLAR>
0

>  <SCORE.INTRA.POLAR.0>
0

>  <SCORE.INTRA.REPUL>
0

>  <SCORE.INTRA.REPUL.0>
0

>  <SCORE.INTRA.SOLV>
-0.404038

>  <SCORE.INTRA.SOLV.lig_0>
-19.4148

>  <SCORE.INTRA.VDW>
-4.5983

>  <SCORE.INTRA.VDW.0>
5.42093

>  <SCORE.INTRA.norm>
-0.11299

>  <SCORE.RESTR>
0

>  <SCORE.RESTR.CAVITY>
0

>  <SCORE.RESTR.norm>
0

>  <SCORE.SYSTEM>
0

>  <SCORE.SYSTEM.CONST>
0

>  <SCORE.SYSTEM.DIHEDRAL>
0

>  <SCORE.SYSTEM.SOLV>
0

>  <SCORE.SYSTEM.norm>
0

>  <SCORE.heavy>
27

>  <SCORE.norm>
-1.20763

>  <RMSD>
6.450

$$$$
lig.pdb
 OpenBabel11021811523D
libRbt.so/2013.1/901 2013/11/27
 27 30  0  0  0  0  0  0  0  0999 V2000
   27.6166   37.6219   21.6962 N   0  0  0  0  0  0  0  0  0  0  0  0
   28.1725   38.6210   21.0568 C   0  0  0  0  0  0  0  0  0  0  0  0
   28.4955   39.8151   21.6144 N   0  0  0  0  0  0  0  0  0  0  0  0
   28.2771   39.9931   22.9514 C   0  0  0  0  0  0  0  0  0  0  0  0
   27.7271   38.9942   23.7025 C   0  0  0  0  0  0  0  0  0  0  0  0
   27.3601   37.7547   23.0603 C   0  0  0  0  0  0  0  0  0  0  0  0
   26.8098   36.8246   23.6628 O   0  0  0  0  0  0  0  0  0  0  0  0
   28.3634   38.6261   19.5241 C   0  0  2  0  0  0  0  0  0  0  0  0
   29.8455   39.0110   19.3875 C   0  0  0  0  0  0  0  0  0  0  0  0
   30.2003   39.3196   18.0011 N   0  0  0  0  0  0  0  0  0  0  0  0
   29.4213   40.4854   17.5537 C   0  0  0  0  0  0  0  0  0  0  0  0
   27.9372   40.1759   17.5588 C   0  0  0  0  0  0  0  0  0  0  0  0
   27.4756   39.7393   18.9423 C   0  0  0  0  0  0  0  0  0  0  0  0
   28.7107   41.3036   23.4170 C   0  0  0  0  0  0  0  0  0  0  0  0
   29.4856   42.4256   22.3606 S   0  0  0  0  0  0  0  0  0  0  0  0
   29.6633   43.5536   23.5882 C   0  0  0  0  0  0  0  0  0  0  0  0
   29.1209   43.1319   24.7375 C   0  0  0  0  0  0  0  0  0  0  0  0
   28.5747   41.8359   24.6606 C   0  0  0  0  0  0  0  0  0  0  0  0
   31.6428   39.5768   17.8458 C   0  0  0  0  0  0  0  0  0  0  0  0
   32.4584   38.4263   17.2993 C   0  0  0  0  0  0  0  0  0  0  0  0
   32.1423   37.8382   16.0831 C   0  0  0  0  0  0  0  0  0  0  0  0
   32.5663   36.6216   15.6958 N   0  0  0  0  0  0  0  0  0  0  0  0
   33.2980   35.9881   16.6000 C   0  0  0  0  0  0  0  0  0  0  0  0
   33.6468   36.3974   17.8093 N   0  0  0  0  0  0  0  0  0  0  0  0
   33.1900   37.6140   18.1409 C   0  0  0  0  0  0  0  0  0  0  0  0
   33.7103   34.7749   16.2148 O   0  0  0  0  0  0  0  0  0  0  0  0
   32.7941   33.9747   15.4585 C   0  0  0  0  0  0  0  0  0  0  0  0
  1  2  2  0  0  0  0
  1  6  1  0  0  0  0
  2  3  1  0  0  0  0
  3  4  2  0  0  0  0
  4 14  1  0  0  0  0
  5  4  1  0  0  0  0
  6  5  1  0  0  0  0
  7  6  2  0  0  0  0
  8  9  1  0  0  0  0
  8  2  1  1  0  0  0
 10 19  1  0  0  0  0
 10  9  1  0  0  0  0
 11 10  1  0  0  0  0
 12 11  1  0  0  0  0
 12 13  1  0  0  0  0
 13  8  1  0  0  0  0
 14 15  1  0  0  0  0
 14 18  2  0  0  0  0
 15 16  1  0  0  0  0
 16 17  2  0  0  0  0
 18 17  1  0  0  0  0
 19 20  1  0  0  0  0
 20 25  2  0  0  0  0
 20 21  1  0  0  0  0
 21 22  2  0  0  0  0
 22 23  1  0  0  0  0
 23 26  1  0  0  0  0
 24 23  2  0  0  0  0
 25 24  1  0  0  0  0
 26 27  1  0  0  0  0
M  END
>  <CHROM.1>
-3.07136478,-130.15523736,100.37493123,56.29563131,-38.44745548,29.94467113
39.00920074,20.00759449,2.37098532,0.86933317,0.30789179

>  <Name>
lig.pdb

>  <RI>
0

>  <Rbt.Current_Directory>
/home/itssahil/PROJECTS/Mol_Feturizer/New_Systems/rnas/5kx9

>  <Rbt.Executable>
rbdock ($Id: //depot/dev/client3/rdock/2013.1/src/exe/rbdock.cxx#4 $)

>  <Rbt.Library>
libRbt.so (2013.1, Build901 2013/11/27)

>  <Rbt.Parameter_File>
/export/apps/rDock/src/rDock_2013.1_src/data/scripts/dock_solv.prm

>  <Rbt.Receptor>
prm/pocket_docking_8.prm

>  <SCORE>
-29.9927

>  <SCORE.INTER>
-26.542

>  <SCORE.INTER.CONST>
1

>  <SCORE.INTER.POLAR>
0

>  <SCORE.INTER.ROT>
5

>  <SCORE.INTER.SOLV>
13.5546

>  <SCORE.INTER.VDW>
-29.1462

>  <SCORE.INTER.norm>
-0.983038

>  <SCORE.INTRA>
-3.4507

>  <SCORE.INTRA.DIHEDRAL>
2.99663

>  <SCORE.INTRA.DIHEDRAL.0>
2.68224

>  <SCORE.INTRA.POLAR>
0

>  <SCORE.INTRA.POLAR.0>
0

>  <SCORE.INTRA.REPUL>
0

>  <SCORE.INTRA.REPUL.0>
0

>  <SCORE.INTRA.SOLV>
-0.478062

>  <SCORE.INTRA.SOLV.lig_0>
-19.4148

>  <SCORE.INTRA.VDW>
-4.70999

>  <SCORE.INTRA.VDW.0>
5.42093

>  <SCORE.INTRA.norm>
-0.127804

>  <SCORE.RESTR>
0

>  <SCORE.RESTR.CAVITY>
0

>  <SCORE.RESTR.norm>
0

>  <SCORE.SYSTEM>
0

>  <SCORE.SYSTEM.CONST>
0

>  <SCORE.SYSTEM.DIHEDRAL>
0

>  <SCORE.SYSTEM.SOLV>
0

>  <SCORE.SYSTEM.norm>
0

>  <SCORE.heavy>
27

>  <SCORE.norm>
-1.11084

>  <RMSD>
6.450

$$$$
lig.pdb
 OpenBabel11021811523D
libRbt.so/2013.1/901 2013/11/27
 27 30  0  0  0  0  0  0  0  0999 V2000
   29.6915   36.8030   17.4900 N   0  0  0  0  0  0  0  0  0  0  0  0
   28.4485   37.2126   17.4328 C   0  0  0  0  0  0  0  0  0  0  0  0
   28.0603   38.4676   17.0933 N   0  0  0  0  0  0  0  0  0  0  0  0
   29.0178   39.3741   16.7348 C   0  0  0  0  0  0  0  0  0  0  0  0
   30.3379   39.0252   16.7384 C   0  0  0  0  0  0  0  0  0  0  0  0
   30.7097   37.6914   17.1465 C   0  0  0  0  0  0  0  0  0  0  0  0
   31.8867   37.3181   17.2257 O   0  0  0  0  0  0  0  0  0  0  0  0
   27.2647   36.3538   17.9296 C   0  0  2  0  0  0  0  0  0  0  0  0
   27.7292   35.9538   19.3395 C   0  0  0  0  0  0  0  0  0  0  0  0
   26.8674   34.9240   19.9226 N   0  0  0  0  0  0  0  0  0  0  0  0
   26.9432   33.7089   19.0956 C   0  0  0  0  0  0  0  0  0  0  0  0
   26.4131   33.9731   17.7001 C   0  0  0  0  0  0  0  0  0  0  0  0
   27.1770   35.1078   17.0320 C   0  0  0  0  0  0  0  0  0  0  0  0
   28.4517   40.6617   16.3557 C   0  0  0  0  0  0  0  0  0  0  0  0
   29.4533   41.9829   15.8799 S   0  0  0  0  0  0  0  0  0  0  0  0
   28.1297   42.9890   15.6636 C   0  0  0  0  0  0  0  0  0  0  0  0
   26.9743   42.3515   15.8903 C   0  0  0  0  0  0  0  0  0  0  0  0
   27.1396   41.0132   16.2973 C   0  0  0  0  0  0  0  0  0  0  0  0
   27.2381   34.6197   21.3159 C   0  0  0  0  0  0  0  0  0  0  0  0
   26.8594   35.6677   22.3385 C   0  0  0  0  0  0  0  0  0  0  0  0
   27.5511   36.8672   22.4248 C   0  0  0  0  0  0  0  0  0  0  0  0
   27.5273   37.6812   23.4956 N   0  0  0  0  0  0  0  0  0  0  0  0
   26.8056   37.2256   24.5085 C   0  0  0  0  0  0  0  0  0  0  0  0
   26.1282   36.0916   24.5911 N   0  0  0  0  0  0  0  0  0  0  0  0
   26.1944   35.3199   23.4962 C   0  0  0  0  0  0  0  0  0  0  0  0
   26.7916   38.0336   25.5748 O   0  0  0  0  0  0  0  0  0  0  0  0
   27.9897   38.1192   26.3551 C   0  0  0  0  0  0  0  0  0  0  0  0
  1  2  2  0  0  0  0
  1  6  1  0  0  0  0
  2  3  1  0  0  0  0
  3  4  2  0  0  0  0
  4 14  1  0  0  0  0
  5  4  1  0  0  0  0
  6  5  1  0  0  0  0
  7  6  2  0  0  0  0
  8  9  1  0  0  0  0
  8  2  1  6  0  0  0
 10 19  1  0  0  0  0
 10  9  1  0  0  0  0
 11 10  1  0  0  0  0
 12 11  1  0  0  0  0
 12 13  1  0  0  0  0
 13  8  1  0  0  0  0
 14 15  1  0  0  0  0
 14 18  2  0  0  0  0
 15 16  1  0  0  0  0
 16 17  2  0  0  0  0
 18 17  1  0  0  0  0
 19 20  1  0  0  0  0
 20 25  2  0  0  0  0
 20 21  1  0  0  0  0
 21 22  2  0  0  0  0
 22 23  1  0  0  0  0
 23 26  1  0  0  0  0
 24 23  2  0  0  0  0
 25 24  1  0  0  0  0
 26 27  1  0  0  0  0
M  END
>  <CHROM.1>
179.25570206,50.82292354,73.83959667,-73.59632046,-72.19285094,28.00143254
37.74806527,19.34168123,0.04611171,-1.33955718,-2.58641560

>  <Name>
lig.pdb

>  <RI>
0

>  <Rbt.Current_Directory>
/home/itssahil/PROJECTS/Mol_Feturizer/New_Systems/rnas/5kx9

>  <Rbt.Executable>
rbdock ($Id: //depot/dev/client3/rdock/2013.1/src/exe/rbdock.cxx#4 $)

>  <Rbt.Library>
libRbt.so (2013.1, Build901 2013/11/27)

>  <Rbt.Parameter_File>
/export/apps/rDock/src/rDock_2013.1_src/data/scripts/dock_solv.prm

>  <Rbt.Receptor>
prm/blind_docking_60.prm

>  <SCORE>
-35.2285

>  <SCORE.INTER>
-30.5932

>  <SCORE.INTER.CONST>
1

>  <SCORE.INTER.POLAR>
0

>  <SCORE.INTER.ROT>
5

>  <SCORE.INTER.SOLV>
15.412

>  <SCORE.INTER.VDW>
-32.4661

>  <SCORE.INTER.norm>
-1.13308

>  <SCORE.INTRA>
-4.63533

>  <SCORE.INTRA.DIHEDRAL>
3.83962

>  <SCORE.INTRA.DIHEDRAL.0>
2.68224

>  <SCORE.INTRA.POLAR>
0

>  <SCORE.INTRA.POLAR.0>
0

>  <SCORE.INTRA.REPUL>
0

>  <SCORE.INTRA.REPUL.0>
0

>  <SCORE.INTRA.SOLV>
-0.623325

>  <SCORE.INTRA.SOLV.lig_0>
-19.4148

>  <SCORE.INTRA.VDW>
-6.24347

>  <SCORE.INTRA.VDW.0>
5.42093

>  <SCORE.INTRA.norm>
-0.171679

>  <SCORE.RESTR>
0

>  <SCORE.RESTR.CAVITY>
0

>  <SCORE.RESTR.norm>
0

>  <SCORE.SYSTEM>
0

>  <SCORE.SYSTEM.CONST>
0

>  <SCORE.SYSTEM.DIHEDRAL>
0

>  <SCORE.SYSTEM.SOLV>
0

>  <SCORE.SYSTEM.norm>
0

>  <SCORE.heavy>
27

>  <SCORE.norm>
-1.30476

>  <RMSD>
6.454

$$$$
lig.pdb
 OpenBabel11021811523D
libRbt.so/2013.1/901 2013/11/27
 27 30  0  0  0  0  0  0  0  0999 V2000
   26.7109   37.8781   23.6561 N   0  0  0  0  0  0  0  0  0  0  0  0
   27.5010   38.8618   23.3037 C   0  0  0  0  0  0  0  0  0  0  0  0
   28.2398   39.6089   24.1623 N   0  0  0  0  0  0  0  0  0  0  0  0
   28.2088   39.2986   25.4927 C   0  0  0  0  0  0  0  0  0  0  0  0
   27.4341   38.2697   25.9462 C   0  0  0  0  0  0  0  0  0  0  0  0
   26.6318   37.5275   25.0033 C   0  0  0  0  0  0  0  0  0  0  0  0
   25.8659   36.6177   25.3447 O   0  0  0  0  0  0  0  0  0  0  0  0
   27.5480   39.4175   21.8634 C   0  0  2  0  0  0  0  0  0  0  0  0
   28.0576   38.2041   21.0687 C   0  0  0  0  0  0  0  0  0  0  0  0
   28.4182   38.5667   19.6970 N   0  0  0  0  0  0  0  0  0  0  0  0
   29.5222   39.5394   19.7312 C   0  0  0  0  0  0  0  0  0  0  0  0
   29.0897   40.8214   20.4150 C   0  0  0  0  0  0  0  0  0  0  0  0
   28.5928   40.5458   21.8273 C   0  0  0  0  0  0  0  0  0  0  0  0
   29.0813   40.1550   26.2848 C   0  0  0  0  0  0  0  0  0  0  0  0
   29.7505   39.6227   27.7828 S   0  0  0  0  0  0  0  0  0  0  0  0
   30.5288   41.0876   28.0267 C   0  0  0  0  0  0  0  0  0  0  0  0
   30.3388   41.9314   27.0046 C   0  0  0  0  0  0  0  0  0  0  0  0
   29.5019   41.4153   25.9960 C   0  0  0  0  0  0  0  0  0  0  0  0
   28.7976   37.3886   18.8974 C   0  0  0  0  0  0  0  0  0  0  0  0
   27.7638   36.2872   18.8221 C   0  0  0  0  0  0  0  0  0  0  0  0
   27.8097   35.2015   19.6845 C   0  0  0  0  0  0  0  0  0  0  0  0
   27.1750   34.0349   19.4699 N   0  0  0  0  0  0  0  0  0  0  0  0
   26.5135   33.9792   18.3237 C   0  0  0  0  0  0  0  0  0  0  0  0
   26.4110   34.9088   17.3873 N   0  0  0  0  0  0  0  0  0  0  0  0
   27.0693   36.0464   17.6546 C   0  0  0  0  0  0  0  0  0  0  0  0
   25.8911   32.8143   18.1097 O   0  0  0  0  0  0  0  0  0  0  0  0
   24.5326   32.7003   18.5493 C   0  0  0  0  0  0  0  0  0  0  0  0
  1  2  2  0  0  0  0
  1  6  1  0  0  0  0
  2  3  1  0  0  0  0
  3  4  2  0  0  0  0
  4 14  1  0  0  0  0
  5  4  1  0  0  0  0
  6  5  1  0  0  0  0
  7  6  2  0  0  0  0
  8  9  1  0  0  0  0
  8  2  1  1  0  0  0
 10 19  1  0  0  0  0
 10  9  1  0  0  0  0
 11 10  1  0  0  0  0
 12 11  1  0  0  0  0
 12 13  1  0  0  0  0
 13  8  1  0  0  0  0
 14 15  1  0  0  0  0
 14 18  2  0  0  0  0
 15 16  1  0  0  0  0
 16 17  2  0  0  0  0
 18 17  1  0  0  0  0
 19 20  1  0  0  0  0
 20 25  2  0  0  0  0
 20 21  1  0  0  0  0
 21 22  2  0  0  0  0
 22 23  1  0  0  0  0
 23 26  1  0  0  0  0
 24 23  2  0  0  0  0
 25 24  1  0  0  0  0
 26 27  1  0  0  0  0
M  END
>  <CHROM.1>
-153.84219618,-63.62629448,56.28540156,-95.44587930,91.65146248,27.94075815
37.90052355,22.41259263,1.04907874,1.03096164,1.43485116

>  <Name>
lig.pdb

>  <RI>
0

>  <Rbt.Current_Directory>
/home/itssahil/PROJECTS/Mol_Feturizer/New_Systems/rnas/5kx9

>  <Rbt.Executable>
rbdock ($Id: //depot/dev/client3/rdock/2013.1/src/exe/rbdock.cxx#4 $)

>  <Rbt.Library>
libRbt.so (2013.1, Build901 2013/11/27)

>  <Rbt.Parameter_File>
/export/apps/rDock/src/rDock_2013.1_src/data/scripts/dock_solv.prm

>  <Rbt.Receptor>
prm/pocket_docking_5.prm

>  <SCORE>
-30.212

>  <SCORE.INTER>
-28.4861

>  <SCORE.INTER.CONST>
1

>  <SCORE.INTER.POLAR>
0

>  <SCORE.INTER.ROT>
5

>  <SCORE.INTER.SOLV>
14.0448

>  <SCORE.INTER.VDW>
-30.6056

>  <SCORE.INTER.norm>
-1.05504

>  <SCORE.INTRA>
-1.72594

>  <SCORE.INTRA.DIHEDRAL>
5.57816

>  <SCORE.INTRA.DIHEDRAL.0>
2.68224

>  <SCORE.INTRA.POLAR>
0

>  <SCORE.INTRA.POLAR.0>
0

>  <SCORE.INTRA.REPUL>
0

>  <SCORE.INTRA.REPUL.0>
0

>  <SCORE.INTRA.SOLV>
-0.707587

>  <SCORE.INTRA.SOLV.lig_0>
-19.4148

>  <SCORE.INTRA.VDW>
-4.16123

>  <SCORE.INTRA.VDW.0>
5.42093

>  <SCORE.INTRA.norm>
-0.0639238

>  <SCORE.RESTR>
0

>  <SCORE.RESTR.CAVITY>
0

>  <SCORE.RESTR.norm>
0

>  <SCORE.SYSTEM>
0

>  <SCORE.SYSTEM.CONST>
0

>  <SCORE.SYSTEM.DIHEDRAL>
0

>  <SCORE.SYSTEM.SOLV>
0

>  <SCORE.SYSTEM.norm>
0

>  <SCORE.heavy>
27

>  <SCORE.norm>
-1.11896

>  <RMSD>
6.467

$$$$
lig.pdb
 OpenBabel11021811523D
libRbt.so/2013.1/901 2013/11/27
 27 30  0  0  0  0  0  0  0  0999 V2000
   27.7894   42.0780   21.1104 N   0  0  0  0  0  0  0  0  0  0  0  0
   27.0229   41.0711   20.7714 C   0  0  0  0  0  0  0  0  0  0  0  0
   26.9463   39.8944   21.4426 N   0  0  0  0  0  0  0  0  0  0  0  0
   27.6786   39.7448   22.5865 C   0  0  0  0  0  0  0  0  0  0  0  0
   28.4841   40.7541   23.0302 C   0  0  0  0  0  0  0  0  0  0  0  0
   28.5675   41.9738   22.2626 C   0  0  0  0  0  0  0  0  0  0  0  0
   29.3140   42.9109   22.5718 O   0  0  0  0  0  0  0  0  0  0  0  0
   26.2376   41.0326   19.4419 C   0  0  2  0  0  0  0  0  0  0  0  0
   26.7983   39.7658   18.7756 C   0  0  0  0  0  0  0  0  0  0  0  0
   26.3743   39.6546   17.3788 N   0  0  0  0  0  0  0  0  0  0  0  0
   26.9085   40.7981   16.6217 C   0  0  0  0  0  0  0  0  0  0  0  0
   26.3372   42.1026   17.1417 C   0  0  0  0  0  0  0  0  0  0  0  0
   26.6325   42.2748   18.6252 C   0  0  0  0  0  0  0  0  0  0  0  0
   27.4636   38.4509   23.2203 C   0  0  0  0  0  0  0  0  0  0  0  0
   27.4382   38.2798   24.9365 S   0  0  0  0  0  0  0  0  0  0  0  0
   27.1921   36.6249   24.8299 C   0  0  0  0  0  0  0  0  0  0  0  0
   27.0830   36.2160   23.5595 C   0  0  0  0  0  0  0  0  0  0  0  0
   27.2444   37.2516   22.6185 C   0  0  0  0  0  0  0  0  0  0  0  0
   26.8126   38.3866   16.7693 C   0  0  0  0  0  0  0  0  0  0  0  0
   25.8481   37.2290   16.8997 C   0  0  0  0  0  0  0  0  0  0  0  0
   24.9742   37.1424   17.9737 C   0  0  0  0  0  0  0  0  0  0  0  0
   24.3534   36.0121   18.3572 N   0  0  0  0  0  0  0  0  0  0  0  0
   24.6738   34.9460   17.6395 C   0  0  0  0  0  0  0  0  0  0  0  0
   25.5144   34.8627   16.6208 N   0  0  0  0  0  0  0  0  0  0  0  0
   26.1067   36.0193   16.2888 C   0  0  0  0  0  0  0  0  0  0  0  0
   24.0613   33.8222   18.0296 O   0  0  0  0  0  0  0  0  0  0  0  0
   24.8883   32.7254   18.4355 C   0  0  0  0  0  0  0  0  0  0  0  0
  1  2  2  0  0  0  0
  1  6  1  0  0  0  0
  2  3  1  0  0  0  0
  3  4  2  0  0  0  0
  4 14  1  0  0  0  0
  5  4  1  0  0  0  0
  6  5  1  0  0  0  0
  7  6  2  0  0  0  0
  8  9  1  0  0  0  0
  8  2  1  1  0  0  0
 10 19  1  0  0  0  0
 10  9  1  0  0  0  0
 11 10  1  0  0  0  0
 12 11  1  0  0  0  0
 12 13  1  0  0  0  0
 13  8  1  0  0  0  0
 14 15  1  0  0  0  0
 14 18  2  0  0  0  0
 15 16  1  0  0  0  0
 16 17  2  0  0  0  0
 18 17  1  0  0  0  0
 19 20  1  0  0  0  0
 20 25  2  0  0  0  0
 20 21  1  0  0  0  0
 21 22  2  0  0  0  0
 22 23  1  0  0  0  0
 23 26  1  0  0  0  0
 24 23  2  0  0  0  0
 25 24  1  0  0  0  0
 26 27  1  0  0  0  0
M  END
>  <CHROM.1>
-143.84756176,120.64815169,89.90649845,-28.62773625,-120.76548633,26.64918403
38.57037984,20.12584492,-0.14043945,-1.20829632,-0.88098500

>  <Name>
lig.pdb

>  <RI>
0

>  <Rbt.Current_Directory>
/home/itssahil/PROJECTS/Mol_Feturizer/New_Systems/rnas/5kx9

>  <Rbt.Executable>
rbdock ($Id: //depot/dev/client3/rdock/2013.1/src/exe/rbdock.cxx#4 $)

>  <Rbt.Library>
libRbt.so (2013.1, Build901 2013/11/27)

>  <Rbt.Parameter_File>
/export/apps/rDock/src/rDock_2013.1_src/data/scripts/dock_solv.prm

>  <Rbt.Receptor>
prm/blind_docking_80.prm

>  <SCORE>
-30.4989

>  <SCORE.INTER>
-29.0537

>  <SCORE.INTER.CONST>
1

>  <SCORE.INTER.POLAR>
0

>  <SCORE.INTER.ROT>
5

>  <SCORE.INTER.SOLV>
12.5902

>  <SCORE.INTER.VDW>
-30.4992

>  <SCORE.INTER.norm>
-1.07606

>  <SCORE.INTRA>
-1.44522

>  <SCORE.INTRA.DIHEDRAL>
7.99378

>  <SCORE.INTRA.DIHEDRAL.0>
2.68224

>  <SCORE.INTRA.POLAR>
0

>  <SCORE.INTRA.POLAR.0>
0

>  <SCORE.INTRA.REPUL>
0

>  <SCORE.INTRA.REPUL.0>
0

>  <SCORE.INTRA.SOLV>
-0.56722

>  <SCORE.INTRA.SOLV.lig_0>
-19.4148

>  <SCORE.INTRA.VDW>
-5.1585

>  <SCORE.INTRA.VDW.0>
5.42093

>  <SCORE.INTRA.norm>
-0.0535268

>  <SCORE.RESTR>
0

>  <SCORE.RESTR.CAVITY>
0

>  <SCORE.RESTR.norm>
0

>  <SCORE.SYSTEM>
0

>  <SCORE.SYSTEM.CONST>
0

>  <SCORE.SYSTEM.DIHEDRAL>
0

>  <SCORE.SYSTEM.SOLV>
0

>  <SCORE.SYSTEM.norm>
0

>  <SCORE.heavy>
27

>  <SCORE.norm>
-1.12959

>  <RMSD>
6.512

$$$$
lig.pdb
 OpenBabel11021811523D
libRbt.so/2013.1/901 2013/11/27
 27 30  0  0  0  0  0  0  0  0999 V2000
   28.0683   39.2457   16.6069 N   0  0  0  0  0  0  0  0  0  0  0  0
   26.8552   39.1871   17.0979 C   0  0  0  0  0  0  0  0  0  0  0  0
   26.1034   40.2642   17.4382 N   0  0  0  0  0  0  0  0  0  0  0  0
   26.6115   41.5131   17.2162 C   0  0  0  0  0  0  0  0  0  0  0  0
   27.8579   41.6687   16.6810 C   0  0  0  0  0  0  0  0  0  0  0  0
   28.6401   40.4955   16.3722 C   0  0  0  0  0  0  0  0  0  0  0  0
   29.7959   40.5562   15.9349 O   0  0  0  0  0  0  0  0  0  0  0  0
   26.1931   37.8591   17.5262 C   0  0  2  0  0  0  0  0  0  0  0  0
   27.1404   37.3722   18.6348 C   0  0  0  0  0  0  0  0  0  0  0  0
   26.8482   35.9935   19.0313 N   0  0  0  0  0  0  0  0  0  0  0  0
   27.0620   35.1058   17.8770 C   0  0  0  0  0  0  0  0  0  0  0  0
   26.1019   35.4425   16.7532 C   0  0  0  0  0  0  0  0  0  0  0  0
   26.2484   36.8968   16.3275 C   0  0  0  0  0  0  0  0  0  0  0  0
   25.6787   42.5682   17.5889 C   0  0  0  0  0  0  0  0  0  0  0  0
   24.1833   42.2153   18.3726 S   0  0  0  0  0  0  0  0  0  0  0  0
   23.7493   43.8343   18.4095 C   0  0  0  0  0  0  0  0  0  0  0  0
   24.7059   44.6205   17.8997 C   0  0  0  0  0  0  0  0  0  0  0  0
   25.8208   43.9091   17.4151 C   0  0  0  0  0  0  0  0  0  0  0  0
   27.6759   35.5609   20.1710 C   0  0  0  0  0  0  0  0  0  0  0  0
   27.2016   36.0129   21.5341 C   0  0  0  0  0  0  0  0  0  0  0  0
   27.6861   37.1779   22.1111 C   0  0  0  0  0  0  0  0  0  0  0  0
   27.6036   37.4660   23.4226 N   0  0  0  0  0  0  0  0  0  0  0  0
   27.0444   36.5136   24.1539 C   0  0  0  0  0  0  0  0  0  0  0  0
   26.5753   35.3412   23.7579 N   0  0  0  0  0  0  0  0  0  0  0  0
   26.6906   35.1086   22.4421 C   0  0  0  0  0  0  0  0  0  0  0  0
   26.9723   36.8000   25.4588 O   0  0  0  0  0  0  0  0  0  0  0  0
   26.1303   37.8905   25.8507 C   0  0  0  0  0  0  0  0  0  0  0  0
  1  2  2  0  0  0  0
  1  6  1  0  0  0  0
  2  3  1  0  0  0  0
  3  4  2  0  0  0  0
  4 14  1  0  0  0  0
  5  4  1  0  0  0  0
  6  5  1  0  0  0  0
  7  6  2  0  0  0  0
  8  9  1  0  0  0  0
  8  2  1  6  0  0  0
 10 19  1  0  0  0  0
 10  9  1  0  0  0  0
 11 10  1  0  0  0  0
 12 11  1  0  0  0  0
 12 13  1  0  0  0  0
 13  8  1  0  0  0  0
 14 15  1  0  0  0  0
 14 18  2  0  0  0  0
 15 16  1  0  0  0  0
 16 17  2  0  0  0  0
 18 17  1  0  0  0  0
 19 20  1  0  0  0  0
 20 25  2  0  0  0  0
 20 21  1  0  0  0  0
 21 22  2  0  0  0  0
 22 23  1  0  0  0  0
 23 26  1  0  0  0  0
 24 23  2  0  0  0  0
 25 24  1  0  0  0  0
 26 27  1  0  0  0  0
M  END
>  <CHROM.1>
5.95489075,61.06608326,80.58436273,-93.53451364,65.48372687,26.61444016,38.87751910
19.33347627,-1.88477970,-1.21826586,2.05665000

>  <Name>
lig.pdb

>  <RI>
0

>  <Rbt.Current_Directory>
/home/itssahil/PROJECTS/Mol_Feturizer/New_Systems/rnas/5kx9

>  <Rbt.Executable>
rbdock ($Id: //depot/dev/client3/rdock/2013.1/src/exe/rbdock.cxx#4 $)

>  <Rbt.Library>
libRbt.so (2013.1, Build901 2013/11/27)

>  <Rbt.Parameter_File>
/export/apps/rDock/src/rDock_2013.1_src/data/scripts/dock_solv.prm

>  <Rbt.Receptor>
prm/pocket_docking_8.prm

>  <SCORE>
-37.0489

>  <SCORE.INTER>
-31.9796

>  <SCORE.INTER.CONST>
1

>  <SCORE.INTER.POLAR>
0

>  <SCORE.INTER.ROT>
5

>  <SCORE.INTER.SOLV>
16.0033

>  <SCORE.INTER.VDW>
-33.5875

>  <SCORE.INTER.norm>
-1.18443

>  <SCORE.INTRA>
-5.06924

>  <SCORE.INTRA.DIHEDRAL>
3.39023

>  <SCORE.INTRA.DIHEDRAL.0>
2.68224

>  <SCORE.INTRA.POLAR>
0

>  <SCORE.INTRA.POLAR.0>
0

>  <SCORE.INTRA.REPUL>
0

>  <SCORE.INTRA.REPUL.0>
0

>  <SCORE.INTRA.SOLV>
-0.6296

>  <SCORE.INTRA.SOLV.lig_0>
-19.4148

>  <SCORE.INTRA.VDW>
-6.44955

>  <SCORE.INTRA.VDW.0>
5.42093

>  <SCORE.INTRA.norm>
-0.18775

>  <SCORE.RESTR>
0

>  <SCORE.RESTR.CAVITY>
0

>  <SCORE.RESTR.norm>
0

>  <SCORE.SYSTEM>
0

>  <SCORE.SYSTEM.CONST>
0

>  <SCORE.SYSTEM.DIHEDRAL>
0

>  <SCORE.SYSTEM.SOLV>
0

>  <SCORE.SYSTEM.norm>
0

>  <SCORE.heavy>
27

>  <SCORE.norm>
-1.37218

>  <RMSD>
6.515

$$$$
lig.pdb
 OpenBabel11021811523D
libRbt.so/2013.1/901 2013/11/27
 27 30  0  0  0  0  0  0  0  0999 V2000
   27.6348   37.6671   21.5687 N   0  0  0  0  0  0  0  0  0  0  0  0
   28.1831   38.6689   20.9269 C   0  0  0  0  0  0  0  0  0  0  0  0
   28.5130   39.8605   21.4857 N   0  0  0  0  0  0  0  0  0  0  0  0
   28.3109   40.0329   22.8260 C   0  0  0  0  0  0  0  0  0  0  0  0
   27.7699   39.0308   23.5794 C   0  0  0  0  0  0  0  0  0  0  0  0
   27.3949   37.7941   22.9363 C   0  0  0  0  0  0  0  0  0  0  0  0
   26.8518   36.8615   23.5414 O   0  0  0  0  0  0  0  0  0  0  0  0
   28.3554   38.6806   19.3920 C   0  0  2  0  0  0  0  0  0  0  0  0
   29.8469   39.0209   19.2400 C   0  0  0  0  0  0  0  0  0  0  0  0
   30.1941   39.3298   17.8518 N   0  0  0  0  0  0  0  0  0  0  0  0
   29.4460   40.5226   17.4231 C   0  0  0  0  0  0  0  0  0  0  0  0
   27.9533   40.2587   17.4442 C   0  0  0  0  0  0  0  0  0  0  0  0
   27.4953   39.8252   18.8299 C   0  0  0  0  0  0  0  0  0  0  0  0
   28.7503   41.3413   23.2919 C   0  0  0  0  0  0  0  0  0  0  0  0
   29.3875   42.5191   22.2047 S   0  0  0  0  0  0  0  0  0  0  0  0
   29.6512   43.6136   23.4471 C   0  0  0  0  0  0  0  0  0  0  0  0
   29.2345   43.1399   24.6282 C   0  0  0  0  0  0  0  0  0  0  0  0
   28.7202   41.8303   24.5602 C   0  0  0  0  0  0  0  0  0  0  0  0
   31.6419   39.5438   17.6806 C   0  0  0  0  0  0  0  0  0  0  0  0
   32.4191   38.3645   17.1396 C   0  0  0  0  0  0  0  0  0  0  0  0
   31.9610   37.6463   16.0446 C   0  0  0  0  0  0  0  0  0  0  0  0
   32.3756   36.4076   15.7226 N   0  0  0  0  0  0  0  0  0  0  0  0
   33.2506   35.8897   16.5715 C   0  0  0  0  0  0  0  0  0  0  0  0
   33.7473   36.4305   17.6726 N   0  0  0  0  0  0  0  0  0  0  0  0
   33.2925   37.6626   17.9444 C   0  0  0  0  0  0  0  0  0  0  0  0
   33.6537   34.6544   16.2528 O   0  0  0  0  0  0  0  0  0  0  0  0
   33.9985   34.4038   14.8853 C   0  0  0  0  0  0  0  0  0  0  0  0
  1  2  2  0  0  0  0
  1  6  1  0  0  0  0
  2  3  1  0  0  0  0
  3  4  2  0  0  0  0
  4 14  1  0  0  0  0
  5  4  1  0  0  0  0
  6  5  1  0  0  0  0
  7  6  2  0  0  0  0
  8  9  1  0  0  0  0
  8  2  1  1  0  0  0
 10 19  1  0  0  0  0
 10  9  1  0  0  0  0
 11 10  1  0  0  0  0
 12 11  1  0  0  0  0
 12 13  1  0  0  0  0
 13  8  1  0  0  0  0
 14 15  1  0  0  0  0
 14 18  2  0  0  0  0
 15 16  1  0  0  0  0
 16 17  2  0  0  0  0
 18 17  1  0  0  0  0
 19 20  1  0  0  0  0
 20 25  2  0  0  0  0
 20 21  1  0  0  0  0
 21 22  2  0  0  0  0
 22 23  1  0  0  0  0
 23 26  1  0  0  0  0
 24 23  2  0  0  0  0
 25 24  1  0  0  0  0
 26 27  1  0  0  0  0
M  END
>  <CHROM.1>
2.29605137,-128.38997280,99.26824837,46.46997342,45.04634498,29.99109549
39.03469611,19.87469594,2.41704390,0.88245966,0.25138926

>  <Name>
lig.pdb

>  <RI>
0

>  <Rbt.Current_Directory>
/home/itssahil/PROJECTS/Mol_Feturizer/New_Systems/rnas/5kx9

>  <Rbt.Executable>
rbdock ($Id: //depot/dev/client3/rdock/2013.1/src/exe/rbdock.cxx#4 $)

>  <Rbt.Library>
libRbt.so (2013.1, Build901 2013/11/27)

>  <Rbt.Parameter_File>
/export/apps/rDock/src/rDock_2013.1_src/data/scripts/dock_solv.prm

>  <Rbt.Receptor>
prm/blind_docking_100.prm

>  <SCORE>
-31.3099

>  <SCORE.INTER>
-27.4777

>  <SCORE.INTER.CONST>
1

>  <SCORE.INTER.POLAR>
0

>  <SCORE.INTER.ROT>
5

>  <SCORE.INTER.SOLV>
13.3948

>  <SCORE.INTER.VDW>
-29.7167

>  <SCORE.INTER.norm>
-1.01769

>  <SCORE.INTRA>
-3.83221

>  <SCORE.INTRA.DIHEDRAL>
3.18564

>  <SCORE.INTRA.DIHEDRAL.0>
2.68224

>  <SCORE.INTRA.POLAR>
0

>  <SCORE.INTRA.POLAR.0>
0

>  <SCORE.INTRA.REPUL>
0

>  <SCORE.INTRA.REPUL.0>
0

>  <SCORE.INTRA.SOLV>
-0.473025

>  <SCORE.INTRA.SOLV.lig_0>
-19.4148

>  <SCORE.INTRA.VDW>
-5.18852

>  <SCORE.INTRA.VDW.0>
5.42093

>  <SCORE.INTRA.norm>
-0.141934

>  <SCORE.RESTR>
0

>  <SCORE.RESTR.CAVITY>
0

>  <SCORE.RESTR.norm>
0

>  <SCORE.SYSTEM>
0

>  <SCORE.SYSTEM.CONST>
0

>  <SCORE.SYSTEM.DIHEDRAL>
0

>  <SCORE.SYSTEM.SOLV>
0

>  <SCORE.SYSTEM.norm>
0

>  <SCORE.heavy>
27

>  <SCORE.norm>
-1.15963

>  <RMSD>
6.517

$$$$
lig.pdb
 OpenBabel11021811523D
libRbt.so/2013.1/901 2013/11/27
 27 30  0  0  0  0  0  0  0  0999 V2000
   26.6193   37.2575   24.6294 N   0  0  0  0  0  0  0  0  0  0  0  0
   27.4476   37.5309   23.6519 C   0  0  0  0  0  0  0  0  0  0  0  0
   27.9266   38.7673   23.3641 N   0  0  0  0  0  0  0  0  0  0  0  0
   27.5690   39.8113   24.1699 C   0  0  0  0  0  0  0  0  0  0  0  0
   26.7314   39.6129   25.2298 C   0  0  0  0  0  0  0  0  0  0  0  0
   26.2120   38.2886   25.4750 C   0  0  0  0  0  0  0  0  0  0  0  0
   25.4082   38.0410   26.3824 O   0  0  0  0  0  0  0  0  0  0  0  0
   27.8422   36.4919   22.5793 C   0  0  2  0  0  0  0  0  0  0  0  0
   27.4009   37.1882   21.2817 C   0  0  0  0  0  0  0  0  0  0  0  0
   27.4526   36.2804   20.1343 N   0  0  0  0  0  0  0  0  0  0  0  0
   26.5110   35.1712   20.3562 C   0  0  0  0  0  0  0  0  0  0  0  0
   26.9155   34.3554   21.5682 C   0  0  0  0  0  0  0  0  0  0  0  0
   26.9954   35.2292   22.8123 C   0  0  0  0  0  0  0  0  0  0  0  0
   28.1914   41.0650   23.7663 C   0  0  0  0  0  0  0  0  0  0  0  0
   29.2635   41.1471   22.4175 S   0  0  0  0  0  0  0  0  0  0  0  0
   29.5258   42.7871   22.6470 C   0  0  0  0  0  0  0  0  0  0  0  0
   28.8026   43.2720   23.6642 C   0  0  0  0  0  0  0  0  0  0  0  0
   28.0342   42.2942   24.3256 C   0  0  0  0  0  0  0  0  0  0  0  0
   27.1418   36.9716   18.8706 C   0  0  0  0  0  0  0  0  0  0  0  0
   28.2718   37.0429   17.8678 C   0  0  0  0  0  0  0  0  0  0  0  0
   28.1586   36.4516   16.6179 C   0  0  0  0  0  0  0  0  0  0  0  0
   29.2015   36.1579   15.8204 N   0  0  0  0  0  0  0  0  0  0  0  0
   30.3836   36.4464   16.3437 C   0  0  0  0  0  0  0  0  0  0  0  0
   30.6526   36.9700   17.5290 N   0  0  0  0  0  0  0  0  0  0  0  0
   29.5740   37.2355   18.2806 C   0  0  0  0  0  0  0  0  0  0  0  0
   31.4187   36.1447   15.5514 O   0  0  0  0  0  0  0  0  0  0  0  0
   32.4264   37.1464   15.3702 C   0  0  0  0  0  0  0  0  0  0  0  0
  1  2  2  0  0  0  0
  1  6  1  0  0  0  0
  2  3  1  0  0  0  0
  3  4  2  0  0  0  0
  4 14  1  0  0  0  0
  5  4  1  0  0  0  0
  6  5  1  0  0  0  0
  7  6  2  0  0  0  0
  8  9  1  0  0  0  0
  8  2  1  1  0  0  0
 10 19  1  0  0  0  0
 10  9  1  0  0  0  0
 11 10  1  0  0  0  0
 12 11  1  0  0  0  0
 12 13  1  0  0  0  0
 13  8  1  0  0  0  0
 14 15  1  0  0  0  0
 14 18  2  0  0  0  0
 15 16  1  0  0  0  0
 16 17  2  0  0  0  0
 18 17  1  0  0  0  0
 19 20  1  0  0  0  0
 20 25  2  0  0  0  0
 20 21  1  0  0  0  0
 21 22  2  0  0  0  0
 22 23  1  0  0  0  0
 23 26  1  0  0  0  0
 24 23  2  0  0  0  0
 25 24  1  0  0  0  0
 26 27  1  0  0  0  0
M  END
>  <CHROM.1>
-0.51683971,121.51757241,115.11652734,118.32898500,132.00476279,28.28679507
38.06669172,21.15399737,2.08620956,0.94620353,0.72543415

>  <Name>
lig.pdb

>  <RI>
0

>  <Rbt.Current_Directory>
/home/itssahil/PROJECTS/Mol_Feturizer/New_Systems/rnas/5kx9

>  <Rbt.Executable>
rbdock ($Id: //depot/dev/client3/rdock/2013.1/src/exe/rbdock.cxx#4 $)

>  <Rbt.Library>
libRbt.so (2013.1, Build901 2013/11/27)

>  <Rbt.Parameter_File>
/export/apps/rDock/src/rDock_2013.1_src/data/scripts/dock_solv.prm

>  <Rbt.Receptor>
prm/blind_docking_60.prm

>  <SCORE>
-31.731

>  <SCORE.INTER>
-28.8157

>  <SCORE.INTER.CONST>
1

>  <SCORE.INTER.POLAR>
0

>  <SCORE.INTER.ROT>
5

>  <SCORE.INTER.SOLV>
13.6827

>  <SCORE.INTER.VDW>
-30.7047

>  <SCORE.INTER.norm>
-1.06725

>  <SCORE.INTRA>
-2.91535

>  <SCORE.INTRA.DIHEDRAL>
3.97114

>  <SCORE.INTRA.DIHEDRAL.0>
2.68224

>  <SCORE.INTRA.POLAR>
0

>  <SCORE.INTRA.POLAR.0>
0

>  <SCORE.INTRA.REPUL>
0

>  <SCORE.INTRA.REPUL.0>
0

>  <SCORE.INTRA.SOLV>
-0.46718

>  <SCORE.INTRA.SOLV.lig_0>
-19.4148

>  <SCORE.INTRA.VDW>
-4.66733

>  <SCORE.INTRA.VDW.0>
5.42093

>  <SCORE.INTRA.norm>
-0.107976

>  <SCORE.RESTR>
0

>  <SCORE.RESTR.CAVITY>
0

>  <SCORE.RESTR.norm>
0

>  <SCORE.SYSTEM>
0

>  <SCORE.SYSTEM.CONST>
0

>  <SCORE.SYSTEM.DIHEDRAL>
0

>  <SCORE.SYSTEM.SOLV>
0

>  <SCORE.SYSTEM.norm>
0

>  <SCORE.heavy>
27

>  <SCORE.norm>
-1.17522

>  <RMSD>
6.536

$$$$
lig.pdb
 OpenBabel11021811523D
libRbt.so/2013.1/901 2013/11/27
 27 30  0  0  0  0  0  0  0  0999 V2000
   29.7705   36.8881   17.4375 N   0  0  0  0  0  0  0  0  0  0  0  0
   28.5196   37.2673   17.3505 C   0  0  0  0  0  0  0  0  0  0  0  0
   28.1093   38.5153   17.0108 N   0  0  0  0  0  0  0  0  0  0  0  0
   29.0532   39.4481   16.6851 C   0  0  0  0  0  0  0  0  0  0  0  0
   30.3810   39.1319   16.7210 C   0  0  0  0  0  0  0  0  0  0  0  0
   30.7750   37.8042   17.1282 C   0  0  0  0  0  0  0  0  0  0  0  0
   31.9583   37.4594   17.2357 O   0  0  0  0  0  0  0  0  0  0  0  0
   27.3449   36.3753   17.8088 C   0  0  2  0  0  0  0  0  0  0  0  0
   27.7965   35.9490   19.2151 C   0  0  0  0  0  0  0  0  0  0  0  0
   26.9456   34.8898   19.7603 N   0  0  0  0  0  0  0  0  0  0  0  0
   27.0554   33.6970   18.9050 C   0  0  0  0  0  0  0  0  0  0  0  0
   26.5404   33.9860   17.5088 C   0  0  0  0  0  0  0  0  0  0  0  0
   27.2928   35.1505   16.8798 C   0  0  0  0  0  0  0  0  0  0  0  0
   28.4654   40.7246   16.3013 C   0  0  0  0  0  0  0  0  0  0  0  0
   29.4459   42.0733   15.8599 S   0  0  0  0  0  0  0  0  0  0  0  0
   28.1040   43.0488   15.6182 C   0  0  0  0  0  0  0  0  0  0  0  0
   26.9592   42.3818   15.8116 C   0  0  0  0  0  0  0  0  0  0  0  0
   27.1470   41.0448   16.2129 C   0  0  0  0  0  0  0  0  0  0  0  0
   27.3021   34.5579   21.1510 C   0  0  0  0  0  0  0  0  0  0  0  0
   26.9388   35.5985   22.1867 C   0  0  0  0  0  0  0  0  0  0  0  0
   27.6081   36.8122   22.2480 C   0  0  0  0  0  0  0  0  0  0  0  0
   27.6061   37.6263   23.3190 N   0  0  0  0  0  0  0  0  0  0  0  0
   26.9311   37.1564   24.3573 C   0  0  0  0  0  0  0  0  0  0  0  0
   26.2808   36.0087   24.4642 N   0  0  0  0  0  0  0  0  0  0  0  0
   26.3235   35.2378   23.3676 C   0  0  0  0  0  0  0  0  0  0  0  0
   26.9388   37.9648   25.4234 O   0  0  0  0  0  0  0  0  0  0  0  0
   25.7430   38.0344   26.2088 C   0  0  0  0  0  0  0  0  0  0  0  0
  1  2  2  0  0  0  0
  1  6  1  0  0  0  0
  2  3  1  0  0  0  0
  3  4  2  0  0  0  0
  4 14  1  0  0  0  0
  5  4  1  0  0  0  0
  6  5  1  0  0  0  0
  7  6  2  0  0  0  0
  8  9  1  0  0  0  0
  8  2  1  6  0  0  0
 10 19  1  0  0  0  0
 10  9  1  0  0  0  0
 11 10  1  0  0  0  0
 12 11  1  0  0  0  0
 12 13  1  0  0  0  0
 13  8  1  0  0  0  0
 14 15  1  0  0  0  0
 14 18  2  0  0  0  0
 15 16  1  0  0  0  0
 16 17  2  0  0  0  0
 18 17  1  0  0  0  0
 19 20  1  0  0  0  0
 20 25  2  0  0  0  0
 20 21  1  0  0  0  0
 21 22  2  0  0  0  0
 22 23  1  0  0  0  0
 23 26  1  0  0  0  0
 24 23  2  0  0  0  0
 25 24  1  0  0  0  0
 26 27  1  0  0  0  0
M  END
>  <CHROM.1>
179.37428563,49.60097823,71.50394967,-70.13220250,143.35136557,27.97735928
37.76234809,19.23821325,-0.33086703,-1.29522523,-2.95957693

>  <Name>
lig.pdb

>  <RI>
0

>  <Rbt.Current_Directory>
/home/itssahil/PROJECTS/Mol_Feturizer/New_Systems/rnas/5kx9

>  <Rbt.Executable>
rbdock ($Id: //depot/dev/client3/rdock/2013.1/src/exe/rbdock.cxx#4 $)

>  <Rbt.Library>
libRbt.so (2013.1, Build901 2013/11/27)

>  <Rbt.Parameter_File>
/export/apps/rDock/src/rDock_2013.1_src/data/scripts/dock_solv.prm

>  <Rbt.Receptor>
prm/blind_docking_100.prm

>  <SCORE>
-34.982

>  <SCORE.INTER>
-30.1566

>  <SCORE.INTER.CONST>
1

>  <SCORE.INTER.POLAR>
0

>  <SCORE.INTER.ROT>
5

>  <SCORE.INTER.SOLV>
16.0087

>  <SCORE.INTER.VDW>
-32.374

>  <SCORE.INTER.norm>
-1.11691

>  <SCORE.INTRA>
-4.82542

>  <SCORE.INTRA.DIHEDRAL>
1.20131

>  <SCORE.INTRA.DIHEDRAL.0>
2.68224

>  <SCORE.INTRA.POLAR>
0

>  <SCORE.INTRA.POLAR.0>
0

>  <SCORE.INTRA.REPUL>
0

>  <SCORE.INTRA.REPUL.0>
0

>  <SCORE.INTRA.SOLV>
-0.600493

>  <SCORE.INTRA.SOLV.lig_0>
-19.4148

>  <SCORE.INTRA.VDW>
-5.12583

>  <SCORE.INTRA.VDW.0>
5.42093

>  <SCORE.INTRA.norm>
-0.178719

>  <SCORE.RESTR>
0

>  <SCORE.RESTR.CAVITY>
0

>  <SCORE.RESTR.norm>
0

>  <SCORE.SYSTEM>
0

>  <SCORE.SYSTEM.CONST>
0

>  <SCORE.SYSTEM.DIHEDRAL>
0

>  <SCORE.SYSTEM.SOLV>
0

>  <SCORE.SYSTEM.norm>
0

>  <SCORE.heavy>
27

>  <SCORE.norm>
-1.29563

>  <RMSD>
6.537

$$$$
lig.pdb
 OpenBabel11021811523D
libRbt.so/2013.1/901 2013/11/27
 27 30  0  0  0  0  0  0  0  0999 V2000
   27.4603   42.3152   21.4414 N   0  0  0  0  0  0  0  0  0  0  0  0
   26.7454   41.2477   21.1853 C   0  0  0  0  0  0  0  0  0  0  0  0
   26.7889   40.0953   21.9002 N   0  0  0  0  0  0  0  0  0  0  0  0
   27.5962   40.0386   23.0012 C   0  0  0  0  0  0  0  0  0  0  0  0
   28.3560   41.1151   23.3593 C   0  0  0  0  0  0  0  0  0  0  0  0
   28.3106   42.3071   22.5463 C   0  0  0  0  0  0  0  0  0  0  0  0
   29.0086   43.3024   22.7763 O   0  0  0  0  0  0  0  0  0  0  0  0
   25.8871   41.1064   19.9090 C   0  0  2  0  0  0  0  0  0  0  0  0
   26.7859   40.2380   19.0136 C   0  0  0  0  0  0  0  0  0  0  0  0
   26.2818   40.1716   17.6407 N   0  0  0  0  0  0  0  0  0  0  0  0
   26.2913   41.5236   17.0592 C   0  0  0  0  0  0  0  0  0  0  0  0
   25.3538   42.4427   17.8172 C   0  0  0  0  0  0  0  0  0  0  0  0
   25.7260   42.5061   19.2920 C   0  0  0  0  0  0  0  0  0  0  0  0
   27.5076   38.7588   23.6915 C   0  0  0  0  0  0  0  0  0  0  0  0
   27.2160   37.2900   22.8353 S   0  0  0  0  0  0  0  0  0  0  0  0
   27.2302   36.3902   24.2499 C   0  0  0  0  0  0  0  0  0  0  0  0
   27.4917   37.1480   25.3224 C   0  0  0  0  0  0  0  0  0  0  0  0
   27.6466   38.5153   25.0218 C   0  0  0  0  0  0  0  0  0  0  0  0
   27.0733   39.2496   16.8073 C   0  0  0  0  0  0  0  0  0  0  0  0
   26.6943   37.7887   16.9051 C   0  0  0  0  0  0  0  0  0  0  0  0
   26.5495   37.0085   15.7672 C   0  0  0  0  0  0  0  0  0  0  0  0
   25.8873   35.8380   15.7291 N   0  0  0  0  0  0  0  0  0  0  0  0
   25.3330   35.4897   16.8806 C   0  0  0  0  0  0  0  0  0  0  0  0
   25.3485   36.1428   18.0316 N   0  0  0  0  0  0  0  0  0  0  0  0
   26.0182   37.3045   18.0060 C   0  0  0  0  0  0  0  0  0  0  0  0
   24.6679   34.3297   16.8365 O   0  0  0  0  0  0  0  0  0  0  0  0
   23.3775   34.2836   17.4566 C   0  0  0  0  0  0  0  0  0  0  0  0
  1  2  2  0  0  0  0
  1  6  1  0  0  0  0
  2  3  1  0  0  0  0
  3  4  2  0  0  0  0
  4 14  1  0  0  0  0
  5  4  1  0  0  0  0
  6  5  1  0  0  0  0
  7  6  2  0  0  0  0
  8  9  1  0  0  0  0
  8  2  1  1  0  0  0
 10 19  1  0  0  0  0
 10  9  1  0  0  0  0
 11 10  1  0  0  0  0
 12 11  1  0  0  0  0
 12 13  1  0  0  0  0
 13  8  1  0  0  0  0
 14 15  1  0  0  0  0
 14 18  2  0  0  0  0
 15 16  1  0  0  0  0
 16 17  2  0  0  0  0
 18 17  1  0  0  0  0
 19 20  1  0  0  0  0
 20 25  2  0  0  0  0
 20 21  1  0  0  0  0
 21 22  2  0  0  0  0
 22 23  1  0  0  0  0
 23 26  1  0  0  0  0
 24 23  2  0  0  0  0
 25 24  1  0  0  0  0
 26 27  1  0  0  0  0
M  END
>  <CHROM.1>
32.45506166,99.98385880,83.64663188,133.99615039,-135.09093547,26.62205499
38.94855553,20.09868601,-0.03631300,-1.26797599,-0.60730286

>  <Name>
lig.pdb

>  <RI>
0

>  <Rbt.Current_Directory>
/home/itssahil/PROJECTS/Mol_Feturizer/New_Systems/rnas/5kx9

>  <Rbt.Executable>
rbdock ($Id: //depot/dev/client3/rdock/2013.1/src/exe/rbdock.cxx#4 $)

>  <Rbt.Library>
libRbt.so (2013.1, Build901 2013/11/27)

>  <Rbt.Parameter_File>
/export/apps/rDock/src/rDock_2013.1_src/data/scripts/dock_solv.prm

>  <Rbt.Receptor>
prm/pocket_docking_5.prm

>  <SCORE>
-29.8753

>  <SCORE.INTER>
-26.5026

>  <SCORE.INTER.CONST>
1

>  <SCORE.INTER.POLAR>
0

>  <SCORE.INTER.ROT>
5

>  <SCORE.INTER.SOLV>
12.4574

>  <SCORE.INTER.VDW>
-28.7542

>  <SCORE.INTER.norm>
-0.98158

>  <SCORE.INTRA>
-3.37262

>  <SCORE.INTRA.DIHEDRAL>
4.84897

>  <SCORE.INTRA.DIHEDRAL.0>
2.68224

>  <SCORE.INTRA.POLAR>
0

>  <SCORE.INTRA.POLAR.0>
0

>  <SCORE.INTRA.REPUL>
0

>  <SCORE.INTRA.REPUL.0>
0

>  <SCORE.INTRA.SOLV>
-0.48397

>  <SCORE.INTRA.SOLV.lig_0>
-19.4148

>  <SCORE.INTRA.VDW>
-5.55513

>  <SCORE.INTRA.VDW.0>
5.42093

>  <SCORE.INTRA.norm>
-0.124912

>  <SCORE.RESTR>
0

>  <SCORE.RESTR.CAVITY>
0

>  <SCORE.RESTR.norm>
0

>  <SCORE.SYSTEM>
0

>  <SCORE.SYSTEM.CONST>
0

>  <SCORE.SYSTEM.DIHEDRAL>
0

>  <SCORE.SYSTEM.SOLV>
0

>  <SCORE.SYSTEM.norm>
0

>  <SCORE.heavy>
27

>  <SCORE.norm>
-1.10649

>  <RMSD>
6.548

$$$$
lig.pdb
 OpenBabel11021811523D
libRbt.so/2013.1/901 2013/11/27
 27 30  0  0  0  0  0  0  0  0999 V2000
   29.0180   40.7644   20.4176 N   0  0  0  0  0  0  0  0  0  0  0  0
   28.4672   39.6521   19.9982 C   0  0  0  0  0  0  0  0  0  0  0  0
   27.9765   38.6776   20.8048 N   0  0  0  0  0  0  0  0  0  0  0  0
   28.0056   38.8713   22.1571 C   0  0  0  0  0  0  0  0  0  0  0  0
   28.5362   40.0148   22.6818 C   0  0  0  0  0  0  0  0  0  0  0  0
   29.0851   41.0073   21.7889 C   0  0  0  0  0  0  0  0  0  0  0  0
   29.6293   42.0432   22.1909 O   0  0  0  0  0  0  0  0  0  0  0  0
   28.4751   39.2268   18.5134 C   0  0  2  0  0  0  0  0  0  0  0  0
   29.1263   37.8359   18.5824 C   0  0  0  0  0  0  0  0  0  0  0  0
   29.4659   37.3294   17.2516 N   0  0  0  0  0  0  0  0  0  0  0  0
   30.4565   38.2260   16.6343 C   0  0  0  0  0  0  0  0  0  0  0  0
   29.8762   39.6118   16.4314 C   0  0  0  0  0  0  0  0  0  0  0  0
   29.3908   40.1985   17.7497 C   0  0  0  0  0  0  0  0  0  0  0  0
   27.4076   37.7643   22.8913 C   0  0  0  0  0  0  0  0  0  0  0  0
   26.9127   37.9342   24.5349 S   0  0  0  0  0  0  0  0  0  0  0  0
   26.4106   36.3365   24.6136 C   0  0  0  0  0  0  0  0  0  0  0  0
   26.5598   35.7067   23.4414 C   0  0  0  0  0  0  0  0  0  0  0  0
   27.1395   36.5100   22.4401 C   0  0  0  0  0  0  0  0  0  0  0  0
   29.9839   35.9508   17.3025 C   0  0  0  0  0  0  0  0  0  0  0  0
   28.9587   34.8757   17.5861 C   0  0  0  0  0  0  0  0  0  0  0  0
   28.3842   34.1444   16.5567 C   0  0  0  0  0  0  0  0  0  0  0  0
   27.2413   33.4437   16.6701 N   0  0  0  0  0  0  0  0  0  0  0  0
   26.6642   33.5342   17.8589 C   0  0  0  0  0  0  0  0  0  0  0  0
   27.0656   34.2190   18.9178 N   0  0  0  0  0  0  0  0  0  0  0  0
   28.2067   34.9016   18.7425 C   0  0  0  0  0  0  0  0  0  0  0  0
   25.5234   32.8433   17.9649 O   0  0  0  0  0  0  0  0  0  0  0  0
   24.3787   33.5326   18.4810 C   0  0  0  0  0  0  0  0  0  0  0  0
  1  2  2  0  0  0  0
  1  6  1  0  0  0  0
  2  3  1  0  0  0  0
  3  4  2  0  0  0  0
  4 14  1  0  0  0  0
  5  4  1  0  0  0  0
  6  5  1  0  0  0  0
  7  6  2  0  0  0  0
  8  9  1  0  0  0  0
  8  2  1  1  0  0  0
 10 19  1  0  0  0  0
 10  9  1  0  0  0  0
 11 10  1  0  0  0  0
 12 11  1  0  0  0  0
 12 13  1  0  0  0  0
 13  8  1  0  0  0  0
 14 15  1  0  0  0  0
 14 18  2  0  0  0  0
 15 16  1  0  0  0  0
 16 17  2  0  0  0  0
 18 17  1  0  0  0  0
 19 20  1  0  0  0  0
 20 25  2  0  0  0  0
 20 21  1  0  0  0  0
 21 22  2  0  0  0  0
 22 23  1  0  0  0  0
 23 26  1  0  0  0  0
 24 23  2  0  0  0  0
 25 24  1  0  0  0  0
 26 27  1  0  0  0  0
M  END
>  <CHROM.1>
-162.45568947,124.23885949,73.04619673,97.31662732,-129.59713769,28.02507737
37.25870532,19.93846655,-1.37758184,-1.00987564,-2.18949553

>  <Name>
lig.pdb

>  <RI>
0

>  <Rbt.Current_Directory>
/home/itssahil/PROJECTS/Mol_Feturizer/New_Systems/rnas/5kx9

>  <Rbt.Executable>
rbdock ($Id: //depot/dev/client3/rdock/2013.1/src/exe/rbdock.cxx#4 $)

>  <Rbt.Library>
libRbt.so (2013.1, Build901 2013/11/27)

>  <Rbt.Parameter_File>
/export/apps/rDock/src/rDock_2013.1_src/data/scripts/dock_solv.prm

>  <Rbt.Receptor>
prm/pocket_docking_8.prm

>  <SCORE>
-29.4821

>  <SCORE.INTER>
-26.6125

>  <SCORE.INTER.CONST>
1

>  <SCORE.INTER.POLAR>
0

>  <SCORE.INTER.ROT>
5

>  <SCORE.INTER.SOLV>
11.1264

>  <SCORE.INTER.VDW>
-28.3838

>  <SCORE.INTER.norm>
-0.98565

>  <SCORE.INTRA>
-2.86951

>  <SCORE.INTRA.DIHEDRAL>
3.4372

>  <SCORE.INTRA.DIHEDRAL.0>
2.68224

>  <SCORE.INTRA.POLAR>
0

>  <SCORE.INTRA.POLAR.0>
0

>  <SCORE.INTRA.REPUL>
0

>  <SCORE.INTRA.REPUL.0>
0

>  <SCORE.INTRA.SOLV>
-0.384695

>  <SCORE.INTRA.SOLV.lig_0>
-19.4148

>  <SCORE.INTRA.VDW>
-4.39576

>  <SCORE.INTRA.VDW.0>
5.42093

>  <SCORE.INTRA.norm>
-0.106278

>  <SCORE.RESTR>
0

>  <SCORE.RESTR.CAVITY>
0

>  <SCORE.RESTR.norm>
0

>  <SCORE.SYSTEM>
0

>  <SCORE.SYSTEM.CONST>
0

>  <SCORE.SYSTEM.DIHEDRAL>
0

>  <SCORE.SYSTEM.SOLV>
0

>  <SCORE.SYSTEM.norm>
0

>  <SCORE.heavy>
27

>  <SCORE.norm>
-1.09193

>  <RMSD>
6.564

$$$$
lig.pdb
 OpenBabel11021811523D
libRbt.so/2013.1/901 2013/11/27
 27 30  0  0  0  0  0  0  0  0999 V2000
   27.7461   42.1061   21.2404 N   0  0  0  0  0  0  0  0  0  0  0  0
   26.9478   41.1088   20.9500 C   0  0  0  0  0  0  0  0  0  0  0  0
   26.8878   39.9388   21.6345 N   0  0  0  0  0  0  0  0  0  0  0  0
   27.6757   39.7868   22.7405 C   0  0  0  0  0  0  0  0  0  0  0  0
   28.5184   40.7867   23.1335 C   0  0  0  0  0  0  0  0  0  0  0  0
   28.5808   41.9988   22.3521 C   0  0  0  0  0  0  0  0  0  0  0  0
   29.3566   42.9264   22.6143 O   0  0  0  0  0  0  0  0  0  0  0  0
   26.0946   41.0723   19.6631 C   0  0  2  0  0  0  0  0  0  0  0  0
   26.8220   40.0068   18.8270 C   0  0  0  0  0  0  0  0  0  0  0  0
   26.3319   39.9717   17.4480 N   0  0  0  0  0  0  0  0  0  0  0  0
   26.6070   41.2678   16.8069 C   0  0  0  0  0  0  0  0  0  0  0  0
   25.8528   42.3837   17.5027 C   0  0  0  0  0  0  0  0  0  0  0  0
   26.2116   42.4459   18.9809 C   0  0  0  0  0  0  0  0  0  0  0  0
   27.4738   38.5014   23.3958 C   0  0  0  0  0  0  0  0  0  0  0  0
   27.5858   38.3344   25.1089 S   0  0  0  0  0  0  0  0  0  0  0  0
   27.2800   36.6879   25.0305 C   0  0  0  0  0  0  0  0  0  0  0  0
   27.0531   36.2803   23.7754 C   0  0  0  0  0  0  0  0  0  0  0  0
   27.1680   37.3085   22.8197 C   0  0  0  0  0  0  0  0  0  0  0  0
   26.9431   38.8770   16.6738 C   0  0  0  0  0  0  0  0  0  0  0  0
   26.3722   37.4991   16.9245 C   0  0  0  0  0  0  0  0  0  0  0  0
   26.3898   36.5258   15.9361 C   0  0  0  0  0  0  0  0  0  0  0  0
   25.6120   35.4281   15.9385 N   0  0  0  0  0  0  0  0  0  0  0  0
   24.7747   35.3578   16.9624 C   0  0  0  0  0  0  0  0  0  0  0  0
   24.6135   36.2199   17.9535 N   0  0  0  0  0  0  0  0  0  0  0  0
   25.4117   37.2960   17.8938 C   0  0  0  0  0  0  0  0  0  0  0  0
   23.9967   34.2693   16.9566 O   0  0  0  0  0  0  0  0  0  0  0  0
   24.6056   33.0198   17.3022 C   0  0  0  0  0  0  0  0  0  0  0  0
  1  2  2  0  0  0  0
  1  6  1  0  0  0  0
  2  3  1  0  0  0  0
  3  4  2  0  0  0  0
  4 14  1  0  0  0  0
  5  4  1  0  0  0  0
  6  5  1  0  0  0  0
  7  6  2  0  0  0  0
  8  9  1  0  0  0  0
  8  2  1  1  0  0  0
 10 19  1  0  0  0  0
 10  9  1  0  0  0  0
 11 10  1  0  0  0  0
 12 11  1  0  0  0  0
 12 13  1  0  0  0  0
 13  8  1  0  0  0  0
 14 15  1  0  0  0  0
 14 18  2  0  0  0  0
 15 16  1  0  0  0  0
 16 17  2  0  0  0  0
 18 17  1  0  0  0  0
 19 20  1  0  0  0  0
 20 25  2  0  0  0  0
 20 21  1  0  0  0  0
 21 22  2  0  0  0  0
 22 23  1  0  0  0  0
 23 26  1  0  0  0  0
 24 23  2  0  0  0  0
 25 24  1  0  0  0  0
 26 27  1  0  0  0  0
M  END
>  <CHROM.1>
-145.89761854,107.48996092,78.27411723,151.30961585,73.96129796,26.65691223
38.76617077,20.07468457,-0.19937373,-1.23197152,-0.77615623

>  <Name>
lig.pdb

>  <RI>
0

>  <Rbt.Current_Directory>
/home/itssahil/PROJECTS/Mol_Feturizer/New_Systems/rnas/5kx9

>  <Rbt.Executable>
rbdock ($Id: //depot/dev/client3/rdock/2013.1/src/exe/rbdock.cxx#4 $)

>  <Rbt.Library>
libRbt.so (2013.1, Build901 2013/11/27)

>  <Rbt.Parameter_File>
/export/apps/rDock/src/rDock_2013.1_src/data/scripts/dock_solv.prm

>  <Rbt.Receptor>
prm/blind_docking_100.prm

>  <SCORE>
-30.5135

>  <SCORE.INTER>
-27.9821

>  <SCORE.INTER.CONST>
1

>  <SCORE.INTER.POLAR>
0

>  <SCORE.INTER.ROT>
5

>  <SCORE.INTER.SOLV>
12.6739

>  <SCORE.INTER.VDW>
-29.8127

>  <SCORE.INTER.norm>
-1.03637

>  <SCORE.INTRA>
-2.53139

>  <SCORE.INTRA.DIHEDRAL>
7.04078

>  <SCORE.INTRA.DIHEDRAL.0>
2.68224

>  <SCORE.INTRA.POLAR>
0

>  <SCORE.INTRA.POLAR.0>
0

>  <SCORE.INTRA.REPUL>
0

>  <SCORE.INTRA.REPUL.0>
0

>  <SCORE.INTRA.SOLV>
-0.52409

>  <SCORE.INTRA.SOLV.lig_0>
-19.4148

>  <SCORE.INTRA.VDW>
-5.78973

>  <SCORE.INTRA.VDW.0>
5.42093

>  <SCORE.INTRA.norm>
-0.0937551

>  <SCORE.RESTR>
0

>  <SCORE.RESTR.CAVITY>
0

>  <SCORE.RESTR.norm>
0

>  <SCORE.SYSTEM>
0

>  <SCORE.SYSTEM.CONST>
0

>  <SCORE.SYSTEM.DIHEDRAL>
0

>  <SCORE.SYSTEM.SOLV>
0

>  <SCORE.SYSTEM.norm>
0

>  <SCORE.heavy>
27

>  <SCORE.norm>
-1.13013

>  <RMSD>
6.578

$$$$
lig.pdb
 OpenBabel11021811523D
libRbt.so/2013.1/901 2013/11/27
 27 30  0  0  0  0  0  0  0  0999 V2000
   26.5925   37.2078   24.6393 N   0  0  0  0  0  0  0  0  0  0  0  0
   27.4443   37.4332   23.6698 C   0  0  0  0  0  0  0  0  0  0  0  0
   27.9837   38.6433   23.3772 N   0  0  0  0  0  0  0  0  0  0  0  0
   27.6654   39.7103   24.1693 C   0  0  0  0  0  0  0  0  0  0  0  0
   26.8069   39.5609   25.2204 C   0  0  0  0  0  0  0  0  0  0  0  0
   26.2235   38.2644   25.4707 C   0  0  0  0  0  0  0  0  0  0  0  0
   25.3982   38.0629   26.3702 O   0  0  0  0  0  0  0  0  0  0  0  0
   27.8029   36.3670   22.6114 C   0  0  2  0  0  0  0  0  0  0  0  0
   27.2325   36.9879   21.3258 C   0  0  0  0  0  0  0  0  0  0  0  0
   27.2379   36.0349   20.2145 N   0  0  0  0  0  0  0  0  0  0  0  0
   26.3676   34.8971   20.5527 C   0  0  0  0  0  0  0  0  0  0  0  0
   26.9004   34.1518   21.7606 C   0  0  0  0  0  0  0  0  0  0  0  0
   27.0349   35.0805   22.9593 C   0  0  0  0  0  0  0  0  0  0  0  0
   28.3503   40.9299   23.7624 C   0  0  0  0  0  0  0  0  0  0  0  0
   28.2204   42.3861   24.6778 S   0  0  0  0  0  0  0  0  0  0  0  0
   29.1933   43.2238   23.5995 C   0  0  0  0  0  0  0  0  0  0  0  0
   29.6422   42.4358   22.6143 C   0  0  0  0  0  0  0  0  0  0  0  0
   29.1614   41.1139   22.6868 C   0  0  0  0  0  0  0  0  0  0  0  0
   26.8003   36.6576   18.9527 C   0  0  0  0  0  0  0  0  0  0  0  0
   27.8792   36.8565   17.9116 C   0  0  0  0  0  0  0  0  0  0  0  0
   27.6829   36.4699   16.5938 C   0  0  0  0  0  0  0  0  0  0  0  0
   28.6734   36.2785   15.7038 N   0  0  0  0  0  0  0  0  0  0  0  0
   29.8896   36.4530   16.1987 C   0  0  0  0  0  0  0  0  0  0  0  0
   30.2359   36.7790   17.4337 N   0  0  0  0  0  0  0  0  0  0  0  0
   29.2065   36.9505   18.2761 C   0  0  0  0  0  0  0  0  0  0  0  0
   30.8723   36.2531   15.3131 O   0  0  0  0  0  0  0  0  0  0  0  0
   32.0811   37.0017   15.4867 C   0  0  0  0  0  0  0  0  0  0  0  0
  1  2  2  0  0  0  0
  1  6  1  0  0  0  0
  2  3  1  0  0  0  0
  3  4  2  0  0  0  0
  4 14  1  0  0  0  0
  5  4  1  0  0  0  0
  6  5  1  0  0  0  0
  7  6  2  0  0  0  0
  8  9  1  0  0  0  0
  8  2  1  1  0  0  0
 10 19  1  0  0  0  0
 10  9  1  0  0  0  0
 11 10  1  0  0  0  0
 12 11  1  0  0  0  0
 12 13  1  0  0  0  0
 13  8  1  0  0  0  0
 14 15  1  0  0  0  0
 14 18  2  0  0  0  0
 15 16  1  0  0  0  0
 16 17  2  0  0  0  0
 18 17  1  0  0  0  0
 19 20  1  0  0  0  0
 20 25  2  0  0  0  0
 20 21  1  0  0  0  0
 21 22  2  0  0  0  0
 22 23  1  0  0  0  0
 23 26  1  0  0  0  0
 24 23  2  0  0  0  0
 25 24  1  0  0  0  0
 26 27  1  0  0  0  0
M  END
>  <CHROM.1>
-174.88632956,113.98829914,109.39507389,131.75301767,149.90625176,28.10735215
38.02474854,21.29528523,1.95205217,0.97599637,0.79022486

>  <Name>
lig.pdb

>  <RI>
0

>  <Rbt.Current_Directory>
/home/itssahil/PROJECTS/Mol_Feturizer/New_Systems/rnas/5kx9

>  <Rbt.Executable>
rbdock ($Id: //depot/dev/client3/rdock/2013.1/src/exe/rbdock.cxx#4 $)

>  <Rbt.Library>
libRbt.so (2013.1, Build901 2013/11/27)

>  <Rbt.Parameter_File>
/export/apps/rDock/src/rDock_2013.1_src/data/scripts/dock_solv.prm

>  <Rbt.Receptor>
prm/pocket_docking_5.prm

>  <SCORE>
-30.3756

>  <SCORE.INTER>
-27.2593

>  <SCORE.INTER.CONST>
1

>  <SCORE.INTER.POLAR>
0

>  <SCORE.INTER.ROT>
5

>  <SCORE.INTER.SOLV>
13.3409

>  <SCORE.INTER.VDW>
-29.5531

>  <SCORE.INTER.norm>
-1.0096

>  <SCORE.INTRA>
-3.33503

>  <SCORE.INTRA.DIHEDRAL>
2.18902

>  <SCORE.INTRA.DIHEDRAL.0>
2.68224

>  <SCORE.INTRA.POLAR>
0

>  <SCORE.INTRA.POLAR.0>
0

>  <SCORE.INTRA.REPUL>
0

>  <SCORE.INTRA.REPUL.0>
0

>  <SCORE.INTRA.SOLV>
-0.52198

>  <SCORE.INTRA.SOLV.lig_0>
-19.4148

>  <SCORE.INTRA.VDW>
-4.16855

>  <SCORE.INTRA.VDW.0>
5.42093

>  <SCORE.INTRA.norm>
-0.12352

>  <SCORE.RESTR>
0.218714

>  <SCORE.RESTR.CAVITY>
0.218714

>  <SCORE.RESTR.norm>
0.00810051

>  <SCORE.SYSTEM>
0

>  <SCORE.SYSTEM.CONST>
0

>  <SCORE.SYSTEM.DIHEDRAL>
0

>  <SCORE.SYSTEM.SOLV>
0

>  <SCORE.SYSTEM.norm>
0

>  <SCORE.heavy>
27

>  <SCORE.norm>
-1.12502

>  <RMSD>
6.581

$$$$
lig.pdb
 OpenBabel11021811523D
libRbt.so/2013.1/901 2013/11/27
 27 30  0  0  0  0  0  0  0  0999 V2000
   28.0888   38.7841   16.8582 N   0  0  0  0  0  0  0  0  0  0  0  0
   26.8787   38.9249   17.3401 C   0  0  0  0  0  0  0  0  0  0  0  0
   26.2435   40.1123   17.5066 N   0  0  0  0  0  0  0  0  0  0  0  0
   26.8761   41.2547   17.1042 C   0  0  0  0  0  0  0  0  0  0  0  0
   28.1290   41.1992   16.5642 C   0  0  0  0  0  0  0  0  0  0  0  0
   28.7848   39.9189   16.4437 C   0  0  0  0  0  0  0  0  0  0  0  0
   29.9383   39.7943   16.0139 O   0  0  0  0  0  0  0  0  0  0  0  0
   26.0860   37.7516   17.9569 C   0  0  2  0  0  0  0  0  0  0  0  0
   27.1440   37.0861   18.8520 C   0  0  0  0  0  0  0  0  0  0  0  0
   26.6881   35.7907   19.3594 N   0  0  0  0  0  0  0  0  0  0  0  0
   26.4669   34.8807   18.2240 C   0  0  0  0  0  0  0  0  0  0  0  0
   25.3645   35.4014   17.3231 C   0  0  0  0  0  0  0  0  0  0  0  0
   25.6890   36.7996   16.8158 C   0  0  0  0  0  0  0  0  0  0  0  0
   26.0588   42.4439   17.3042 C   0  0  0  0  0  0  0  0  0  0  0  0
   26.4770   43.9569   16.5895 S   0  0  0  0  0  0  0  0  0  0  0  0
   25.1561   44.7206   17.2844 C   0  0  0  0  0  0  0  0  0  0  0  0
   24.3984   43.8692   17.9871 C   0  0  0  0  0  0  0  0  0  0  0  0
   24.9062   42.5557   18.0166 C   0  0  0  0  0  0  0  0  0  0  0  0
   27.6490   35.2018   20.3087 C   0  0  0  0  0  0  0  0  0  0  0  0
   27.4660   35.5981   21.7568 C   0  0  0  0  0  0  0  0  0  0  0  0
   26.7272   34.8100   22.6272 C   0  0  0  0  0  0  0  0  0  0  0  0
   26.2212   35.2409   23.7969 N   0  0  0  0  0  0  0  0  0  0  0  0
   26.4519   36.5204   24.0502 C   0  0  0  0  0  0  0  0  0  0  0  0
   27.0990   37.4025   23.3054 N   0  0  0  0  0  0  0  0  0  0  0  0
   27.5747   36.9162   22.1496 C   0  0  0  0  0  0  0  0  0  0  0  0
   25.9395   36.9474   25.2100 O   0  0  0  0  0  0  0  0  0  0  0  0
   26.7360   37.8427   25.9947 C   0  0  0  0  0  0  0  0  0  0  0  0
  1  2  2  0  0  0  0
  1  6  1  0  0  0  0
  2  3  1  0  0  0  0
  3  4  2  0  0  0  0
  4 14  1  0  0  0  0
  5  4  1  0  0  0  0
  6  5  1  0  0  0  0
  7  6  2  0  0  0  0
  8  9  1  0  0  0  0
  8  2  1  6  0  0  0
 10 19  1  0  0  0  0
 10  9  1  0  0  0  0
 11 10  1  0  0  0  0
 12 11  1  0  0  0  0
 12 13  1  0  0  0  0
 13  8  1  0  0  0  0
 14 15  1  0  0  0  0
 14 18  2  0  0  0  0
 15 16  1  0  0  0  0
 16 17  2  0  0  0  0
 18 17  1  0  0  0  0
 19 20  1  0  0  0  0
 20 25  2  0  0  0  0
 20 21  1  0  0  0  0
 21 22  2  0  0  0  0
 22 23  1  0  0  0  0
 23 26  1  0  0  0  0
 24 23  2  0  0  0  0
 25 24  1  0  0  0  0
 26 27  1  0  0  0  0
M  END
>  <CHROM.1>
-167.10982936,45.21450543,88.33390876,94.48015080,139.63728849,26.71659413
38.79066470,19.27240272,-1.65075651,-1.34640255,2.30289391

>  <Name>
lig.pdb

>  <RI>
0

>  <Rbt.Current_Directory>
/home/itssahil/PROJECTS/Mol_Feturizer/New_Systems/rnas/5kx9

>  <Rbt.Executable>
rbdock ($Id: //depot/dev/client3/rdock/2013.1/src/exe/rbdock.cxx#4 $)

>  <Rbt.Library>
libRbt.so (2013.1, Build901 2013/11/27)

>  <Rbt.Parameter_File>
/export/apps/rDock/src/rDock_2013.1_src/data/scripts/dock_solv.prm

>  <Rbt.Receptor>
prm/pocket_docking_5.prm

>  <SCORE>
-35.8955

>  <SCORE.INTER>
-31.5464

>  <SCORE.INTER.CONST>
1

>  <SCORE.INTER.POLAR>
0

>  <SCORE.INTER.ROT>
5

>  <SCORE.INTER.SOLV>
16.2999

>  <SCORE.INTER.VDW>
-33.3976

>  <SCORE.INTER.norm>
-1.16838

>  <SCORE.INTRA>
-4.34911

>  <SCORE.INTRA.DIHEDRAL>
3.15908

>  <SCORE.INTRA.DIHEDRAL.0>
2.68224

>  <SCORE.INTRA.POLAR>
0

>  <SCORE.INTRA.POLAR.0>
0

>  <SCORE.INTRA.REPUL>
0

>  <SCORE.INTRA.REPUL.0>
0

>  <SCORE.INTRA.SOLV>
-0.534756

>  <SCORE.INTRA.SOLV.lig_0>
-19.4148

>  <SCORE.INTRA.VDW>
-5.66128

>  <SCORE.INTRA.VDW.0>
5.42093

>  <SCORE.INTRA.norm>
-0.161078

>  <SCORE.RESTR>
0

>  <SCORE.RESTR.CAVITY>
0

>  <SCORE.RESTR.norm>
0

>  <SCORE.SYSTEM>
0

>  <SCORE.SYSTEM.CONST>
0

>  <SCORE.SYSTEM.DIHEDRAL>
0

>  <SCORE.SYSTEM.SOLV>
0

>  <SCORE.SYSTEM.norm>
0

>  <SCORE.heavy>
27

>  <SCORE.norm>
-1.32946

>  <RMSD>
6.599

$$$$
lig.pdb
 OpenBabel11021811523D
libRbt.so/2013.1/901 2013/11/27
 27 30  0  0  0  0  0  0  0  0999 V2000
   29.0439   41.9229   21.1955 N   0  0  0  0  0  0  0  0  0  0  0  0
   28.5963   40.8349   20.6193 C   0  0  0  0  0  0  0  0  0  0  0  0
   28.1726   39.7267   21.2777 N   0  0  0  0  0  0  0  0  0  0  0  0
   28.1584   39.7429   22.6439 C   0  0  0  0  0  0  0  0  0  0  0  0
   28.5810   40.8464   23.3280 C   0  0  0  0  0  0  0  0  0  0  0  0
   29.0630   41.9883   22.5881 C   0  0  0  0  0  0  0  0  0  0  0  0
   29.5106   43.0027   23.1372 O   0  0  0  0  0  0  0  0  0  0  0  0
   28.6694   40.6102   19.0929 C   0  0  2  0  0  0  0  0  0  0  0  0
   29.9193   39.7251   18.9593 C   0  0  0  0  0  0  0  0  0  0  0  0
   30.3346   39.5802   17.5629 N   0  0  0  0  0  0  0  0  0  0  0  0
   30.6984   40.9030   17.0299 C   0  0  0  0  0  0  0  0  0  0  0  0
   29.4999   41.8312   17.0277 C   0  0  0  0  0  0  0  0  0  0  0  0
   28.9178   41.9743   18.4271 C   0  0  0  0  0  0  0  0  0  0  0  0
   27.6403   38.5047   23.2102 C   0  0  0  0  0  0  0  0  0  0  0  0
   27.4475   37.0846   22.2503 S   0  0  0  0  0  0  0  0  0  0  0  0
   26.8284   36.2183   23.5454 C   0  0  0  0  0  0  0  0  0  0  0  0
   26.8096   36.9447   24.6701 C   0  0  0  0  0  0  0  0  0  0  0  0
   27.2658   38.2658   24.4952 C   0  0  0  0  0  0  0  0  0  0  0  0
   31.4611   38.6415   17.4178 C   0  0  0  0  0  0  0  0  0  0  0  0
   31.0926   37.1749   17.3912 C   0  0  0  0  0  0  0  0  0  0  0  0
   31.5814   36.3313   16.4043 C   0  0  0  0  0  0  0  0  0  0  0  0
   31.0457   35.1371   16.0934 N   0  0  0  0  0  0  0  0  0  0  0  0
   29.9622   34.8297   16.7907 C   0  0  0  0  0  0  0  0  0  0  0  0
   29.3576   35.5424   17.7277 N   0  0  0  0  0  0  0  0  0  0  0  0
   29.9338   36.7249   17.9895 C   0  0  0  0  0  0  0  0  0  0  0  0
   29.4271   33.6454   16.4725 O   0  0  0  0  0  0  0  0  0  0  0  0
   28.5736   33.5930   15.3234 C   0  0  0  0  0  0  0  0  0  0  0  0
  1  2  2  0  0  0  0
  1  6  1  0  0  0  0
  2  3  1  0  0  0  0
  3  4  2  0  0  0  0
  4 14  1  0  0  0  0
  5  4  1  0  0  0  0
  6  5  1  0  0  0  0
  7  6  2  0  0  0  0
  8  9  1  0  0  0  0
  8  2  1  1  0  0  0
 10 19  1  0  0  0  0
 10  9  1  0  0  0  0
 11 10  1  0  0  0  0
 12 11  1  0  0  0  0
 12 13  1  0  0  0  0
 13  8  1  0  0  0  0
 14 15  1  0  0  0  0
 14 18  2  0  0  0  0
 15 16  1  0  0  0  0
 16 17  2  0  0  0  0
 18 17  1  0  0  0  0
 19 20  1  0  0  0  0
 20 25  2  0  0  0  0
 20 21  1  0  0  0  0
 21 22  2  0  0  0  0
 22 23  1  0  0  0  0
 23 26  1  0  0  0  0
 24 23  2  0  0  0  0
 25 24  1  0  0  0  0
 26 27  1  0  0  0  0
M  END
>  <CHROM.1>
13.71415702,98.83058662,81.85956345,130.68172981,-81.88374238,29.10346985
38.49021171,19.79041384,-2.17837865,-1.12902244,-2.74407142

>  <Name>
lig.pdb

>  <RI>
0

>  <Rbt.Current_Directory>
/home/itssahil/PROJECTS/Mol_Feturizer/New_Systems/rnas/5kx9

>  <Rbt.Executable>
rbdock ($Id: //depot/dev/client3/rdock/2013.1/src/exe/rbdock.cxx#4 $)

>  <Rbt.Library>
libRbt.so (2013.1, Build901 2013/11/27)

>  <Rbt.Parameter_File>
/export/apps/rDock/src/rDock_2013.1_src/data/scripts/dock_solv.prm

>  <Rbt.Receptor>
prm/blind_docking_100.prm

>  <SCORE>
-29.7363

>  <SCORE.INTER>
-25.6187

>  <SCORE.INTER.CONST>
1

>  <SCORE.INTER.POLAR>
0

>  <SCORE.INTER.ROT>
5

>  <SCORE.INTER.SOLV>
10.5156

>  <SCORE.INTER.VDW>
-27.5176

>  <SCORE.INTER.norm>
-0.94884

>  <SCORE.INTRA>
-4.11763

>  <SCORE.INTRA.DIHEDRAL>
4.55249

>  <SCORE.INTRA.DIHEDRAL.0>
2.68224

>  <SCORE.INTRA.POLAR>
0

>  <SCORE.INTRA.POLAR.0>
0

>  <SCORE.INTRA.REPUL>
0

>  <SCORE.INTRA.REPUL.0>
0

>  <SCORE.INTRA.SOLV>
-0.469924

>  <SCORE.INTRA.SOLV.lig_0>
-19.4148

>  <SCORE.INTRA.VDW>
-6.15891

>  <SCORE.INTRA.VDW.0>
5.42093

>  <SCORE.INTRA.norm>
-0.152505

>  <SCORE.RESTR>
0

>  <SCORE.RESTR.CAVITY>
0

>  <SCORE.RESTR.norm>
0

>  <SCORE.SYSTEM>
0

>  <SCORE.SYSTEM.CONST>
0

>  <SCORE.SYSTEM.DIHEDRAL>
0

>  <SCORE.SYSTEM.SOLV>
0

>  <SCORE.SYSTEM.norm>
0

>  <SCORE.heavy>
27

>  <SCORE.norm>
-1.10135

>  <RMSD>
6.632

$$$$
lig.pdb
 OpenBabel11021811523D
libRbt.so/2013.1/901 2013/11/27
 27 30  0  0  0  0  0  0  0  0999 V2000
   27.3014   35.6686   21.0207 N   0  0  0  0  0  0  0  0  0  0  0  0
   27.7951   36.7270   20.4273 C   0  0  0  0  0  0  0  0  0  0  0  0
   28.0461   37.9123   21.0381 N   0  0  0  0  0  0  0  0  0  0  0  0
   27.8191   38.0170   22.3814 C   0  0  0  0  0  0  0  0  0  0  0  0
   27.3315   36.9542   23.0864 C   0  0  0  0  0  0  0  0  0  0  0  0
   27.0391   35.7247   22.3890 C   0  0  0  0  0  0  0  0  0  0  0  0
   26.5468   34.7371   22.9486 O   0  0  0  0  0  0  0  0  0  0  0  0
   27.9833   36.8120   18.8966 C   0  0  2  0  0  0  0  0  0  0  0  0
   29.3933   37.4136   18.7805 C   0  0  0  0  0  0  0  0  0  0  0  0
   29.6993   37.8176   17.4071 N   0  0  0  0  0  0  0  0  0  0  0  0
   28.7583   38.8718   16.9952 C   0  0  0  0  0  0  0  0  0  0  0  0
   27.3354   38.3489   16.9824 C   0  0  0  0  0  0  0  0  0  0  0  0
   26.9425   37.8028   18.3481 C   0  0  0  0  0  0  0  0  0  0  0  0
   28.1735   39.3292   22.9056 C   0  0  0  0  0  0  0  0  0  0  0  0
   29.0733   40.4628   21.9673 S   0  0  0  0  0  0  0  0  0  0  0  0
   29.0728   41.5868   23.2113 C   0  0  0  0  0  0  0  0  0  0  0  0
   28.3841   41.1551   24.2754 C   0  0  0  0  0  0  0  0  0  0  0  0
   27.8656   39.8546   24.1212 C   0  0  0  0  0  0  0  0  0  0  0  0
   31.0888   38.2878   17.2677 C   0  0  0  0  0  0  0  0  0  0  0  0
   31.9675   37.4714   16.3464 C   0  0  0  0  0  0  0  0  0  0  0  0
   31.6217   37.2719   15.0177 C   0  0  0  0  0  0  0  0  0  0  0  0
   32.1292   36.2986   14.2398 N   0  0  0  0  0  0  0  0  0  0  0  0
   32.9799   35.4951   14.8605 C   0  0  0  0  0  0  0  0  0  0  0  0
   33.3743   35.5325   16.1232 N   0  0  0  0  0  0  0  0  0  0  0  0
   32.8303   36.5199   16.8498 C   0  0  0  0  0  0  0  0  0  0  0  0
   33.4756   34.5232   14.0861 O   0  0  0  0  0  0  0  0  0  0  0  0
   32.6556   33.3692   13.8677 C   0  0  0  0  0  0  0  0  0  0  0  0
  1  2  2  0  0  0  0
  1  6  1  0  0  0  0
  2  3  1  0  0  0  0
  3  4  2  0  0  0  0
  4 14  1  0  0  0  0
  5  4  1  0  0  0  0
  6  5  1  0  0  0  0
  7  6  2  0  0  0  0
  8  9  1  0  0  0  0
  8  2  1  1  0  0  0
 10 19  1  0  0  0  0
 10  9  1  0  0  0  0
 11 10  1  0  0  0  0
 12 11  1  0  0  0  0
 12 13  1  0  0  0  0
 13  8  1  0  0  0  0
 14 15  1  0  0  0  0
 14 18  2  0  0  0  0
 15 16  1  0  0  0  0
 16 17  2  0  0  0  0
 18 17  1  0  0  0  0
 19 20  1  0  0  0  0
 20 25  2  0  0  0  0
 20 21  1  0  0  0  0
 21 22  2  0  0  0  0
 22 23  1  0  0  0  0
 23 26  1  0  0  0  0
 24 23  2  0  0  0  0
 25 24  1  0  0  0  0
 26 27  1  0  0  0  0
M  END
>  <CHROM.1>
-11.69472786,-135.13190424,117.19280968,57.56234788,-80.16522082,29.50448815
37.49666252,19.17534546,2.38937319,0.86416999,0.50611783

>  <Name>
lig.pdb

>  <RI>
0

>  <Rbt.Current_Directory>
/home/itssahil/PROJECTS/Mol_Feturizer/New_Systems/rnas/5kx9

>  <Rbt.Executable>
rbdock ($Id: //depot/dev/client3/rdock/2013.1/src/exe/rbdock.cxx#4 $)

>  <Rbt.Library>
libRbt.so (2013.1, Build901 2013/11/27)

>  <Rbt.Parameter_File>
/export/apps/rDock/src/rDock_2013.1_src/data/scripts/dock_solv.prm

>  <Rbt.Receptor>
prm/pocket_docking_8.prm

>  <SCORE>
-28.6722

>  <SCORE.INTER>
-25.5937

>  <SCORE.INTER.CONST>
1

>  <SCORE.INTER.POLAR>
0

>  <SCORE.INTER.ROT>
5

>  <SCORE.INTER.SOLV>
12.7747

>  <SCORE.INTER.VDW>
-28.254

>  <SCORE.INTER.norm>
-0.947914

>  <SCORE.INTRA>
-3.07858

>  <SCORE.INTRA.DIHEDRAL>
6.78332

>  <SCORE.INTRA.DIHEDRAL.0>
2.68224

>  <SCORE.INTRA.POLAR>
0

>  <SCORE.INTRA.POLAR.0>
0

>  <SCORE.INTRA.REPUL>
0

>  <SCORE.INTRA.REPUL.0>
0

>  <SCORE.INTRA.SOLV>
-0.493007

>  <SCORE.INTRA.SOLV.lig_0>
-19.4148

>  <SCORE.INTRA.VDW>
-6.22374

>  <SCORE.INTRA.VDW.0>
5.42093

>  <SCORE.INTRA.norm>
-0.114022

>  <SCORE.RESTR>
0.000105297

>  <SCORE.RESTR.CAVITY>
0.000105297

>  <SCORE.RESTR.norm>
3.89987e-06

>  <SCORE.SYSTEM>
0

>  <SCORE.SYSTEM.CONST>
0

>  <SCORE.SYSTEM.DIHEDRAL>
0

>  <SCORE.SYSTEM.SOLV>
0

>  <SCORE.SYSTEM.norm>
0

>  <SCORE.heavy>
27

>  <SCORE.norm>
-1.06193

>  <RMSD>
6.632

$$$$
lig.pdb
 OpenBabel11021811523D
libRbt.so/2013.1/901 2013/11/27
 27 30  0  0  0  0  0  0  0  0999 V2000
   28.7970   41.5517   21.2579 N   0  0  0  0  0  0  0  0  0  0  0  0
   28.4342   40.4897   20.5821 C   0  0  0  0  0  0  0  0  0  0  0  0
   28.0386   39.3158   21.1357 N   0  0  0  0  0  0  0  0  0  0  0  0
   27.9596   39.2282   22.4970 C   0  0  0  0  0  0  0  0  0  0  0  0
   28.2917   40.2963   23.2802 C   0  0  0  0  0  0  0  0  0  0  0  0
   28.7475   41.5128   22.6508 C   0  0  0  0  0  0  0  0  0  0  0  0
   29.1155   42.5034   23.2942 O   0  0  0  0  0  0  0  0  0  0  0  0
   28.5902   40.3845   19.0490 C   0  0  2  0  0  0  0  0  0  0  0  0
   29.9782   39.7377   18.9123 C   0  0  0  0  0  0  0  0  0  0  0  0
   30.4533   39.7608   17.5277 N   0  0  0  0  0  0  0  0  0  0  0  0
   30.5976   41.1593   17.0923 C   0  0  0  0  0  0  0  0  0  0  0  0
   29.2566   41.8664   17.0982 C   0  0  0  0  0  0  0  0  0  0  0  0
   28.6176   41.8128   18.4789 C   0  0  0  0  0  0  0  0  0  0  0  0
   27.4809   37.9272   22.9447 C   0  0  0  0  0  0  0  0  0  0  0  0
   27.4325   36.5691   21.8824 S   0  0  0  0  0  0  0  0  0  0  0  0
   26.7857   35.5822   23.0735 C   0  0  0  0  0  0  0  0  0  0  0  0
   26.6539   36.2264   24.2399 C   0  0  0  0  0  0  0  0  0  0  0  0
   27.0415   37.5793   24.1834 C   0  0  0  0  0  0  0  0  0  0  0  0
   31.7295   39.0410   17.3712 C   0  0  0  0  0  0  0  0  0  0  0  0
   31.6192   37.5435   17.1897 C   0  0  0  0  0  0  0  0  0  0  0  0
   32.2129   36.9073   16.1092 C   0  0  0  0  0  0  0  0  0  0  0  0
   31.8813   35.6771   15.6774 N   0  0  0  0  0  0  0  0  0  0  0  0
   30.8912   35.1129   16.3526 C   0  0  0  0  0  0  0  0  0  0  0  0
   30.2045   35.6059   17.3708 N   0  0  0  0  0  0  0  0  0  0  0  0
   30.5762   36.8368   17.7520 C   0  0  0  0  0  0  0  0  0  0  0  0
   30.5583   33.8933   15.9146 O   0  0  0  0  0  0  0  0  0  0  0  0
   29.8383   33.8084   14.6793 C   0  0  0  0  0  0  0  0  0  0  0  0
  1  2  2  0  0  0  0
  1  6  1  0  0  0  0
  2  3  1  0  0  0  0
  3  4  2  0  0  0  0
  4 14  1  0  0  0  0
  5  4  1  0  0  0  0
  6  5  1  0  0  0  0
  7  6  2  0  0  0  0
  8  9  1  0  0  0  0
  8  2  1  1  0  0  0
 10 19  1  0  0  0  0
 10  9  1  0  0  0  0
 11 10  1  0  0  0  0
 12 11  1  0  0  0  0
 12 13  1  0  0  0  0
 13  8  1  0  0  0  0
 14 15  1  0  0  0  0
 14 18  2  0  0  0  0
 15 16  1  0  0  0  0
 16 17  2  0  0  0  0
 18 17  1  0  0  0  0
 19 20  1  0  0  0  0
 20 25  2  0  0  0  0
 20 21  1  0  0  0  0
 21 22  2  0  0  0  0
 22 23  1  0  0  0  0
 23 26  1  0  0  0  0
 24 23  2  0  0  0  0
 25 24  1  0  0  0  0
 26 27  1  0  0  0  0
M  END
>  <CHROM.1>
14.75700898,91.72013299,83.97612646,126.00362857,-73.75804643,29.25783925
38.35173751,19.59390507,-2.52388483,-1.08267213,-2.93126808

>  <Name>
lig.pdb

>  <RI>
0

>  <Rbt.Current_Directory>
/home/itssahil/PROJECTS/Mol_Feturizer/New_Systems/rnas/5kx9

>  <Rbt.Executable>
rbdock ($Id: //depot/dev/client3/rdock/2013.1/src/exe/rbdock.cxx#4 $)

>  <Rbt.Library>
libRbt.so (2013.1, Build901 2013/11/27)

>  <Rbt.Parameter_File>
/export/apps/rDock/src/rDock_2013.1_src/data/scripts/dock_solv.prm

>  <Rbt.Receptor>
prm/pocket_docking_6.prm

>  <SCORE>
-30.4464

>  <SCORE.INTER>
-26.1494

>  <SCORE.INTER.CONST>
1

>  <SCORE.INTER.POLAR>
0

>  <SCORE.INTER.ROT>
5

>  <SCORE.INTER.SOLV>
9.93292

>  <SCORE.INTER.VDW>
-27.6772

>  <SCORE.INTER.norm>
-0.968496

>  <SCORE.INTRA>
-4.297

>  <SCORE.INTRA.DIHEDRAL>
4.51931

>  <SCORE.INTRA.DIHEDRAL.0>
2.68224

>  <SCORE.INTRA.POLAR>
0

>  <SCORE.INTRA.POLAR.0>
0

>  <SCORE.INTRA.REPUL>
0

>  <SCORE.INTRA.REPUL.0>
0

>  <SCORE.INTRA.SOLV>
-0.481847

>  <SCORE.INTRA.SOLV.lig_0>
-19.4148

>  <SCORE.INTRA.VDW>
-6.31573

>  <SCORE.INTRA.VDW.0>
5.42093

>  <SCORE.INTRA.norm>
-0.159148

>  <SCORE.RESTR>
0

>  <SCORE.RESTR.CAVITY>
0

>  <SCORE.RESTR.norm>
0

>  <SCORE.SYSTEM>
0

>  <SCORE.SYSTEM.CONST>
0

>  <SCORE.SYSTEM.DIHEDRAL>
0

>  <SCORE.SYSTEM.SOLV>
0

>  <SCORE.SYSTEM.norm>
0

>  <SCORE.heavy>
27

>  <SCORE.norm>
-1.12764

>  <RMSD>
6.649

$$$$
lig.pdb
 OpenBabel11021811523D
libRbt.so/2013.1/901 2013/11/27
 27 30  0  0  0  0  0  0  0  0999 V2000
   29.0849   37.4756   16.8660 N   0  0  0  0  0  0  0  0  0  0  0  0
   27.8953   37.9877   17.0636 C   0  0  0  0  0  0  0  0  0  0  0  0
   27.5750   39.2947   16.8899 N   0  0  0  0  0  0  0  0  0  0  0  0
   28.5374   40.1485   16.4297 C   0  0  0  0  0  0  0  0  0  0  0  0
   29.7989   39.6951   16.1699 C   0  0  0  0  0  0  0  0  0  0  0  0
   30.1076   38.3053   16.4082 C   0  0  0  0  0  0  0  0  0  0  0  0
   31.2396   37.8326   16.2467 O   0  0  0  0  0  0  0  0  0  0  0  0
   26.7397   37.1874   17.7038 C   0  0  2  0  0  0  0  0  0  0  0  0
   27.4753   36.3626   18.7724 C   0  0  0  0  0  0  0  0  0  0  0  0
   26.6109   35.3340   19.3538 N   0  0  0  0  0  0  0  0  0  0  0  0
   26.2097   34.3902   18.2981 C   0  0  0  0  0  0  0  0  0  0  0  0
   25.3884   35.0902   17.2334 C   0  0  0  0  0  0  0  0  0  0  0  0
   26.1594   36.2546   16.6272 C   0  0  0  0  0  0  0  0  0  0  0  0
   28.0389   41.5057   16.2516 C   0  0  0  0  0  0  0  0  0  0  0  0
   26.4031   41.9203   16.6081 S   0  0  0  0  0  0  0  0  0  0  0  0
   26.6394   43.5126   16.1396 C   0  0  0  0  0  0  0  0  0  0  0  0
   27.9068   43.7440   15.7748 C   0  0  0  0  0  0  0  0  0  0  0  0
   28.7256   42.5990   15.8252 C   0  0  0  0  0  0  0  0  0  0  0  0
   27.2734   34.6171   20.4576 C   0  0  0  0  0  0  0  0  0  0  0  0
   27.2678   35.3239   21.7947 C   0  0  0  0  0  0  0  0  0  0  0  0
   26.4973   34.8558   22.8492 C   0  0  0  0  0  0  0  0  0  0  0  0
   26.1554   35.5902   23.9233 N   0  0  0  0  0  0  0  0  0  0  0  0
   26.5868   36.8419   23.8853 C   0  0  0  0  0  0  0  0  0  0  0  0
   27.2906   37.4408   22.9379 N   0  0  0  0  0  0  0  0  0  0  0  0
   27.5959   36.6605   21.8906 C   0  0  0  0  0  0  0  0  0  0  0  0
   26.2373   37.5715   24.9510 O   0  0  0  0  0  0  0  0  0  0  0  0
   27.2706   37.9247   25.8779 C   0  0  0  0  0  0  0  0  0  0  0  0
  1  2  2  0  0  0  0
  1  6  1  0  0  0  0
  2  3  1  0  0  0  0
  3  4  2  0  0  0  0
  4 14  1  0  0  0  0
  5  4  1  0  0  0  0
  6  5  1  0  0  0  0
  7  6  2  0  0  0  0
  8  9  1  0  0  0  0
  8  2  1  6  0  0  0
 10 19  1  0  0  0  0
 10  9  1  0  0  0  0
 11 10  1  0  0  0  0
 12 11  1  0  0  0  0
 12 13  1  0  0  0  0
 13  8  1  0  0  0  0
 14 15  1  0  0  0  0
 14 18  2  0  0  0  0
 15 16  1  0  0  0  0
 16 17  2  0  0  0  0
 18 17  1  0  0  0  0
 19 20  1  0  0  0  0
 20 25  2  0  0  0  0
 20 21  1  0  0  0  0
 21 22  2  0  0  0  0
 22 23  1  0  0  0  0
 23 26  1  0  0  0  0
 24 23  2  0  0  0  0
 25 24  1  0  0  0  0
 26 27  1  0  0  0  0
M  END
>  <CHROM.1>
0.22621595,37.71086881,80.56451091,109.69286747,108.82490459,27.45261744
38.12295934,18.95161774,-0.54145482,-1.38750926,-3.05874567

>  <Name>
lig.pdb

>  <RI>
0

>  <Rbt.Current_Directory>
/home/itssahil/PROJECTS/Mol_Feturizer/New_Systems/rnas/5kx9

>  <Rbt.Executable>
rbdock ($Id: //depot/dev/client3/rdock/2013.1/src/exe/rbdock.cxx#4 $)

>  <Rbt.Library>
libRbt.so (2013.1, Build901 2013/11/27)

>  <Rbt.Parameter_File>
/export/apps/rDock/src/rDock_2013.1_src/data/scripts/dock_solv.prm

>  <Rbt.Receptor>
prm/pocket_docking_7.prm

>  <SCORE>
-33.9034

>  <SCORE.INTER>
-29.7125

>  <SCORE.INTER.CONST>
1

>  <SCORE.INTER.POLAR>
0

>  <SCORE.INTER.ROT>
5

>  <SCORE.INTER.SOLV>
15.7071

>  <SCORE.INTER.VDW>
-31.9774

>  <SCORE.INTER.norm>
-1.10046

>  <SCORE.INTRA>
-4.1909

>  <SCORE.INTRA.DIHEDRAL>
4.22035

>  <SCORE.INTRA.DIHEDRAL.0>
2.68224

>  <SCORE.INTRA.POLAR>
0

>  <SCORE.INTRA.POLAR.0>
0

>  <SCORE.INTRA.REPUL>
0

>  <SCORE.INTRA.REPUL.0>
0

>  <SCORE.INTRA.SOLV>
-0.453467

>  <SCORE.INTRA.SOLV.lig_0>
-19.4148

>  <SCORE.INTRA.VDW>
-6.07434

>  <SCORE.INTRA.VDW.0>
5.42093

>  <SCORE.INTRA.norm>
-0.155219

>  <SCORE.RESTR>
0

>  <SCORE.RESTR.CAVITY>
0

>  <SCORE.RESTR.norm>
0

>  <SCORE.SYSTEM>
0

>  <SCORE.SYSTEM.CONST>
0

>  <SCORE.SYSTEM.DIHEDRAL>
0

>  <SCORE.SYSTEM.SOLV>
0

>  <SCORE.SYSTEM.norm>
0

>  <SCORE.heavy>
27

>  <SCORE.norm>
-1.25568

>  <RMSD>
6.652

$$$$
lig.pdb
 OpenBabel11021811523D
libRbt.so/2013.1/901 2013/11/27
 27 30  0  0  0  0  0  0  0  0999 V2000
   28.8513   41.6183   21.1769 N   0  0  0  0  0  0  0  0  0  0  0  0
   28.5010   40.5395   20.5213 C   0  0  0  0  0  0  0  0  0  0  0  0
   28.1035   39.3769   21.0969 N   0  0  0  0  0  0  0  0  0  0  0  0
   28.0085   39.3202   22.4588 C   0  0  0  0  0  0  0  0  0  0  0  0
   28.3268   40.4073   23.2212 C   0  0  0  0  0  0  0  0  0  0  0  0
   28.7853   41.6110   22.5696 C   0  0  0  0  0  0  0  0  0  0  0  0
   29.1415   42.6177   23.1945 O   0  0  0  0  0  0  0  0  0  0  0  0
   28.6759   40.4000   18.9930 C   0  0  2  0  0  0  0  0  0  0  0  0
   30.0404   39.6993   18.8897 C   0  0  0  0  0  0  0  0  0  0  0  0
   30.5367   39.6788   17.5126 N   0  0  0  0  0  0  0  0  0  0  0  0
   30.7401   41.0625   17.0542 C   0  0  0  0  0  0  0  0  0  0  0  0
   29.4268   41.8193   17.0264 C   0  0  0  0  0  0  0  0  0  0  0  0
   28.7656   41.8154   18.3977 C   0  0  0  0  0  0  0  0  0  0  0  0
   27.5297   38.0277   22.9304 C   0  0  0  0  0  0  0  0  0  0  0  0
   26.9826   37.8046   24.5509 S   0  0  0  0  0  0  0  0  0  0  0  0
   26.6712   36.1784   24.2875 C   0  0  0  0  0  0  0  0  0  0  0  0
   26.9192   35.8200   23.0214 C   0  0  0  0  0  0  0  0  0  0  0  0
   27.4216   36.8692   22.2271 C   0  0  0  0  0  0  0  0  0  0  0  0
   31.7871   38.9089   17.3891 C   0  0  0  0  0  0  0  0  0  0  0  0
   31.6282   37.4059   17.3322 C   0  0  0  0  0  0  0  0  0  0  0  0
   32.3991   36.6362   16.4732 C   0  0  0  0  0  0  0  0  0  0  0  0
   32.0938   35.3804   16.0994 N   0  0  0  0  0  0  0  0  0  0  0  0
   30.9506   34.9293   16.5935 C   0  0  0  0  0  0  0  0  0  0  0  0
   30.0937   35.5536   17.3856 N   0  0  0  0  0  0  0  0  0  0  0  0
   30.4490   36.8032   17.7189 C   0  0  0  0  0  0  0  0  0  0  0  0
   30.6460   33.6835   16.2124 O   0  0  0  0  0  0  0  0  0  0  0  0
   29.9756   33.5216   14.9570 C   0  0  0  0  0  0  0  0  0  0  0  0
  1  2  2  0  0  0  0
  1  6  1  0  0  0  0
  2  3  1  0  0  0  0
  3  4  2  0  0  0  0
  4 14  1  0  0  0  0
  5  4  1  0  0  0  0
  6  5  1  0  0  0  0
  7  6  2  0  0  0  0
  8  9  1  0  0  0  0
  8  2  1  1  0  0  0
 10 19  1  0  0  0  0
 10  9  1  0  0  0  0
 11 10  1  0  0  0  0
 12 11  1  0  0  0  0
 12 13  1  0  0  0  0
 13  8  1  0  0  0  0
 14 15  1  0  0  0  0
 14 18  2  0  0  0  0
 15 16  1  0  0  0  0
 16 17  2  0  0  0  0
 18 17  1  0  0  0  0
 19 20  1  0  0  0  0
 20 25  2  0  0  0  0
 20 21  1  0  0  0  0
 21 22  2  0  0  0  0
 22 23  1  0  0  0  0
 23 26  1  0  0  0  0
 24 23  2  0  0  0  0
 25 24  1  0  0  0  0
 26 27  1  0  0  0  0
M  END
>  <CHROM.1>
-165.91251740,94.13253631,79.78612767,139.80106184,-84.86481205,29.29539691
38.39450676,19.78655461,-2.59851109,-1.09005847,-3.00006367

>  <Name>
lig.pdb

>  <RI>
0

>  <Rbt.Current_Directory>
/home/itssahil/PROJECTS/Mol_Feturizer/New_Systems/rnas/5kx9

>  <Rbt.Executable>
rbdock ($Id: //depot/dev/client3/rdock/2013.1/src/exe/rbdock.cxx#4 $)

>  <Rbt.Library>
libRbt.so (2013.1, Build901 2013/11/27)

>  <Rbt.Parameter_File>
/export/apps/rDock/src/rDock_2013.1_src/data/scripts/dock_solv.prm

>  <Rbt.Receptor>
prm/pocket_docking_6.prm

>  <SCORE>
-30.3191

>  <SCORE.INTER>
-26.1487

>  <SCORE.INTER.CONST>
1

>  <SCORE.INTER.POLAR>
0

>  <SCORE.INTER.ROT>
5

>  <SCORE.INTER.SOLV>
10.3459

>  <SCORE.INTER.VDW>
-27.8145

>  <SCORE.INTER.norm>
-0.968472

>  <SCORE.INTRA>
-4.17035

>  <SCORE.INTRA.DIHEDRAL>
4.4709

>  <SCORE.INTRA.DIHEDRAL.0>
2.68224

>  <SCORE.INTRA.POLAR>
0

>  <SCORE.INTRA.POLAR.0>
0

>  <SCORE.INTRA.REPUL>
0

>  <SCORE.INTRA.REPUL.0>
0

>  <SCORE.INTRA.SOLV>
-0.514936

>  <SCORE.INTRA.SOLV.lig_0>
-19.4148

>  <SCORE.INTRA.VDW>
-6.14833

>  <SCORE.INTRA.VDW.0>
5.42093

>  <SCORE.INTRA.norm>
-0.154457

>  <SCORE.RESTR>
0

>  <SCORE.RESTR.CAVITY>
0

>  <SCORE.RESTR.norm>
0

>  <SCORE.SYSTEM>
0

>  <SCORE.SYSTEM.CONST>
0

>  <SCORE.SYSTEM.DIHEDRAL>
0

>  <SCORE.SYSTEM.SOLV>
0

>  <SCORE.SYSTEM.norm>
0

>  <SCORE.heavy>
27

>  <SCORE.norm>
-1.12293

>  <RMSD>
6.659

$$$$
lig.pdb
 OpenBabel11021811523D
libRbt.so/2013.1/901 2013/11/27
 27 30  0  0  0  0  0  0  0  0999 V2000
   27.8509   38.7577   20.7786 N   0  0  0  0  0  0  0  0  0  0  0  0
   28.0581   38.7078   22.0712 C   0  0  0  0  0  0  0  0  0  0  0  0
   28.4946   39.7464   22.8273 N   0  0  0  0  0  0  0  0  0  0  0  0
   28.6937   40.9563   22.2244 C   0  0  0  0  0  0  0  0  0  0  0  0
   28.4752   41.1071   20.8850 C   0  0  0  0  0  0  0  0  0  0  0  0
   28.0510   39.9651   20.1107 C   0  0  0  0  0  0  0  0  0  0  0  0
   27.8837   40.0104   18.8856 O   0  0  0  0  0  0  0  0  0  0  0  0
   28.0041   37.3889   22.8732 C   0  0  2  0  0  0  0  0  0  0  0  0
   27.7135   36.3564   21.7718 C   0  0  0  0  0  0  0  0  0  0  0  0
   27.3738   35.0471   22.3318 N   0  0  0  0  0  0  0  0  0  0  0  0
   26.1417   35.1696   23.1275 C   0  0  0  0  0  0  0  0  0  0  0  0
   26.3518   36.0996   24.3061 C   0  0  0  0  0  0  0  0  0  0  0  0
   26.8119   37.4743   23.8412 C   0  0  0  0  0  0  0  0  0  0  0  0
   29.1192   41.9841   23.1650 C   0  0  0  0  0  0  0  0  0  0  0  0
   29.1754   41.6858   24.8630 S   0  0  0  0  0  0  0  0  0  0  0  0
   29.6895   43.2492   25.1833 C   0  0  0  0  0  0  0  0  0  0  0  0
   29.8619   43.9590   24.0611 C   0  0  0  0  0  0  0  0  0  0  0  0
   29.5311   43.2502   22.8897 C   0  0  0  0  0  0  0  0  0  0  0  0
   27.2071   34.0257   21.2828 C   0  0  0  0  0  0  0  0  0  0  0  0
   26.9415   34.5537   19.8906 C   0  0  0  0  0  0  0  0  0  0  0  0
   27.9849   34.9123   19.0495 C   0  0  0  0  0  0  0  0  0  0  0  0
   27.8508   35.7023   17.9688 N   0  0  0  0  0  0  0  0  0  0  0  0
   26.6222   36.1596   17.7792 C   0  0  0  0  0  0  0  0  0  0  0  0
   25.5414   35.9414   18.5113 N   0  0  0  0  0  0  0  0  0  0  0  0
   25.7385   35.1521   19.5776 C   0  0  0  0  0  0  0  0  0  0  0  0
   26.4947   36.9520   16.7088 O   0  0  0  0  0  0  0  0  0  0  0  0
   26.7564   38.3491   16.8857 C   0  0  0  0  0  0  0  0  0  0  0  0
  1  2  2  0  0  0  0
  1  6  1  0  0  0  0
  2  3  1  0  0  0  0
  3  4  2  0  0  0  0
  4 14  1  0  0  0  0
  5  4  1  0  0  0  0
  6  5  1  0  0  0  0
  7  6  2  0  0  0  0
  8  9  1  0  0  0  0
  8  2  1  6  0  0  0
 10 19  1  0  0  0  0
 10  9  1  0  0  0  0
 11 10  1  0  0  0  0
 12 11  1  0  0  0  0
 12 13  1  0  0  0  0
 13  8  1  0  0  0  0
 14 15  1  0  0  0  0
 14 18  2  0  0  0  0
 15 16  1  0  0  0  0
 16 17  2  0  0  0  0
 18 17  1  0  0  0  0
 19 20  1  0  0  0  0
 20 25  2  0  0  0  0
 20 21  1  0  0  0  0
 21 22  2  0  0  0  0
 22 23  1  0  0  0  0
 23 26  1  0  0  0  0
 24 23  2  0  0  0  0
 25 24  1  0  0  0  0
 26 27  1  0  0  0  0
M  END
>  <CHROM.1>
-6.27424354,1.41945958,-20.00821709,85.81757860,-87.27929221,27.76180532
38.37437366,21.37253398,-2.82581608,1.25707852,1.85653061

>  <Name>
lig.pdb

>  <RI>
0

>  <Rbt.Current_Directory>
/home/itssahil/PROJECTS/Mol_Feturizer/New_Systems/rnas/5kx9

>  <Rbt.Executable>
rbdock ($Id: //depot/dev/client3/rdock/2013.1/src/exe/rbdock.cxx#4 $)

>  <Rbt.Library>
libRbt.so (2013.1, Build901 2013/11/27)

>  <Rbt.Parameter_File>
/export/apps/rDock/src/rDock_2013.1_src/data/scripts/dock_solv.prm

>  <Rbt.Receptor>
prm/pocket_docking_4.prm

>  <SCORE>
-30.3581

>  <SCORE.INTER>
-30.3155

>  <SCORE.INTER.CONST>
1

>  <SCORE.INTER.POLAR>
0

>  <SCORE.INTER.ROT>
5

>  <SCORE.INTER.SOLV>
11.679

>  <SCORE.INTER.VDW>
-31.0367

>  <SCORE.INTER.norm>
-1.1228

>  <SCORE.INTRA>
-0.0426323

>  <SCORE.INTRA.DIHEDRAL>
6.33694

>  <SCORE.INTRA.DIHEDRAL.0>
2.68224

>  <SCORE.INTRA.POLAR>
0

>  <SCORE.INTRA.POLAR.0>
0

>  <SCORE.INTRA.REPUL>
0

>  <SCORE.INTRA.REPUL.0>
0

>  <SCORE.INTRA.SOLV>
0.170987

>  <SCORE.INTRA.SOLV.lig_0>
-19.4148

>  <SCORE.INTRA.VDW>
-3.29659

>  <SCORE.INTRA.VDW.0>
5.42093

>  <SCORE.INTRA.norm>
-0.00157898

>  <SCORE.RESTR>
0

>  <SCORE.RESTR.CAVITY>
0

>  <SCORE.RESTR.norm>
0

>  <SCORE.SYSTEM>
0

>  <SCORE.SYSTEM.CONST>
0

>  <SCORE.SYSTEM.DIHEDRAL>
0

>  <SCORE.SYSTEM.SOLV>
0

>  <SCORE.SYSTEM.norm>
0

>  <SCORE.heavy>
27

>  <SCORE.norm>
-1.12438

>  <RMSD>
6.667

$$$$
lig.pdb
 OpenBabel11021811523D
libRbt.so/2013.1/901 2013/11/27
 27 30  0  0  0  0  0  0  0  0999 V2000
   27.8446   37.6407   21.2369 N   0  0  0  0  0  0  0  0  0  0  0  0
   28.4914   38.6525   20.7134 C   0  0  0  0  0  0  0  0  0  0  0  0
   28.7800   39.8083   21.3630 N   0  0  0  0  0  0  0  0  0  0  0  0
   28.4204   39.9282   22.6759 C   0  0  0  0  0  0  0  0  0  0  0  0
   27.7673   38.9110   23.3108 C   0  0  0  0  0  0  0  0  0  0  0  0
   27.4431   37.7152   22.5701 C   0  0  0  0  0  0  0  0  0  0  0  0
   26.8077   36.7739   23.0610 O   0  0  0  0  0  0  0  0  0  0  0  0
   28.8495   38.7257   19.2128 C   0  0  2  0  0  0  0  0  0  0  0  0
   29.1521   37.2547   18.8839 C   0  0  0  0  0  0  0  0  0  0  0  0
   29.7579   37.1086   17.5592 N   0  0  0  0  0  0  0  0  0  0  0  0
   31.0480   37.8167   17.5398 C   0  0  0  0  0  0  0  0  0  0  0  0
   30.8500   39.3034   17.7601 C   0  0  0  0  0  0  0  0  0  0  0  0
   30.1284   39.5690   19.0740 C   0  0  0  0  0  0  0  0  0  0  0  0
   28.8318   41.2013   23.2520 C   0  0  0  0  0  0  0  0  0  0  0  0
   29.5283   42.4471   22.2834 S   0  0  0  0  0  0  0  0  0  0  0  0
   29.7206   43.4556   23.6089 C   0  0  0  0  0  0  0  0  0  0  0  0
   29.2384   42.9054   24.7304 C   0  0  0  0  0  0  0  0  0  0  0  0
   28.7298   41.6048   24.5463 C   0  0  0  0  0  0  0  0  0  0  0  0
   29.9440   35.6939   17.1916 C   0  0  0  0  0  0  0  0  0  0  0  0
   28.6749   34.8904   17.0147 C   0  0  0  0  0  0  0  0  0  0  0  0
   27.6416   35.3509   16.2116 C   0  0  0  0  0  0  0  0  0  0  0  0
   26.3749   34.9022   16.2738 N   0  0  0  0  0  0  0  0  0  0  0  0
   26.1674   33.9889   17.2104 C   0  0  0  0  0  0  0  0  0  0  0  0
   27.0348   33.4836   18.0728 N   0  0  0  0  0  0  0  0  0  0  0  0
   28.2788   33.9734   17.9664 C   0  0  0  0  0  0  0  0  0  0  0  0
   24.9045   33.5516   17.2751 O   0  0  0  0  0  0  0  0  0  0  0  0
   24.3201   33.4094   18.5750 C   0  0  0  0  0  0  0  0  0  0  0  0
  1  2  2  0  0  0  0
  1  6  1  0  0  0  0
  2  3  1  0  0  0  0
  3  4  2  0  0  0  0
  4 14  1  0  0  0  0
  5  4  1  0  0  0  0
  6  5  1  0  0  0  0
  7  6  2  0  0  0  0
  8  9  1  0  0  0  0
  8  2  1  1  0  0  0
 10 19  1  0  0  0  0
 10  9  1  0  0  0  0
 11 10  1  0  0  0  0
 12 11  1  0  0  0  0
 12 13  1  0  0  0  0
 13  8  1  0  0  0  0
 14 15  1  0  0  0  0
 14 18  2  0  0  0  0
 15 16  1  0  0  0  0
 16 17  2  0  0  0  0
 18 17  1  0  0  0  0
 19 20  1  0  0  0  0
 20 25  2  0  0  0  0
 20 21  1  0  0  0  0
 21 22  2  0  0  0  0
 22 23  1  0  0  0  0
 23 26  1  0  0  0  0
 24 23  2  0  0  0  0
 25 24  1  0  0  0  0
 26 27  1  0  0  0  0
M  END
>  <CHROM.1>
6.50095444,-35.72905654,65.22328293,50.39651365,-136.33647977,28.34761948
37.93864430,20.04084499,1.26190976,0.73972147,0.88806252

>  <Name>
lig.pdb

>  <RI>
0

>  <Rbt.Current_Directory>
/home/itssahil/PROJECTS/Mol_Feturizer/New_Systems/rnas/5kx9

>  <Rbt.Executable>
rbdock ($Id: //depot/dev/client3/rdock/2013.1/src/exe/rbdock.cxx#4 $)

>  <Rbt.Library>
libRbt.so (2013.1, Build901 2013/11/27)

>  <Rbt.Parameter_File>
/export/apps/rDock/src/rDock_2013.1_src/data/scripts/dock_solv.prm

>  <Rbt.Receptor>
prm/blind_docking_100.prm

>  <SCORE>
-26.978

>  <SCORE.INTER>
-23.241

>  <SCORE.INTER.CONST>
1

>  <SCORE.INTER.POLAR>
0

>  <SCORE.INTER.ROT>
5

>  <SCORE.INTER.SOLV>
10.9621

>  <SCORE.INTER.VDW>
-26.0814

>  <SCORE.INTER.norm>
-0.860779

>  <SCORE.INTRA>
-3.73701

>  <SCORE.INTRA.DIHEDRAL>
1.3779

>  <SCORE.INTRA.DIHEDRAL.0>
2.68224

>  <SCORE.INTRA.POLAR>
0

>  <SCORE.INTRA.POLAR.0>
0

>  <SCORE.INTRA.REPUL>
0

>  <SCORE.INTRA.REPUL.0>
0

>  <SCORE.INTRA.SOLV>
-0.431988

>  <SCORE.INTRA.SOLV.lig_0>
-19.4148

>  <SCORE.INTRA.VDW>
-4.20996

>  <SCORE.INTRA.VDW.0>
5.42093

>  <SCORE.INTRA.norm>
-0.138408

>  <SCORE.RESTR>
0

>  <SCORE.RESTR.CAVITY>
0

>  <SCORE.RESTR.norm>
0

>  <SCORE.SYSTEM>
0

>  <SCORE.SYSTEM.CONST>
0

>  <SCORE.SYSTEM.DIHEDRAL>
0

>  <SCORE.SYSTEM.SOLV>
0

>  <SCORE.SYSTEM.norm>
0

>  <SCORE.heavy>
27

>  <SCORE.norm>
-0.999186

>  <RMSD>
6.668

$$$$
lig.pdb
 OpenBabel11021811523D
libRbt.so/2013.1/901 2013/11/27
 27 30  0  0  0  0  0  0  0  0999 V2000
   25.3578   41.3597   17.9789 N   0  0  0  0  0  0  0  0  0  0  0  0
   26.6518   41.3095   18.1770 C   0  0  0  0  0  0  0  0  0  0  0  0
   27.2735   41.6551   19.3325 N   0  0  0  0  0  0  0  0  0  0  0  0
   26.5085   42.0419   20.3966 C   0  0  0  0  0  0  0  0  0  0  0  0
   25.1484   42.0963   20.2885 C   0  0  0  0  0  0  0  0  0  0  0  0
   24.5310   41.7598   19.0278 C   0  0  0  0  0  0  0  0  0  0  0  0
   23.3108   41.8357   18.8374 O   0  0  0  0  0  0  0  0  0  0  0  0
   27.6578   41.0197   17.0414 C   0  0  2  0  0  0  0  0  0  0  0  0
   28.4230   39.8061   17.5938 C   0  0  0  0  0  0  0  0  0  0  0  0
   29.6058   39.4980   16.7880 N   0  0  0  0  0  0  0  0  0  0  0  0
   30.5341   40.6388   16.8411 C   0  0  0  0  0  0  0  0  0  0  0  0
   29.9055   41.8740   16.2268 C   0  0  0  0  0  0  0  0  0  0  0  0
   28.6016   42.2289   16.9279 C   0  0  0  0  0  0  0  0  0  0  0  0
   27.3073   42.3404   21.5776 C   0  0  0  0  0  0  0  0  0  0  0  0
   26.6027   42.4068   23.1506 S   0  0  0  0  0  0  0  0  0  0  0  0
   28.0700   42.8017   23.8590 C   0  0  0  0  0  0  0  0  0  0  0  0
   29.0648   42.8363   22.9633 C   0  0  0  0  0  0  0  0  0  0  0  0
   28.6438   42.5810   21.6436 C   0  0  0  0  0  0  0  0  0  0  0  0
   30.2779   38.2685   17.2439 C   0  0  0  0  0  0  0  0  0  0  0  0
   29.3663   37.1092   17.5792 C   0  0  0  0  0  0  0  0  0  0  0  0
   28.9154   36.9042   18.8751 C   0  0  0  0  0  0  0  0  0  0  0  0
   28.4148   35.7408   19.3289 N   0  0  0  0  0  0  0  0  0  0  0  0
   28.4177   34.7628   18.4356 C   0  0  0  0  0  0  0  0  0  0  0  0
   28.8488   34.7929   17.1847 N   0  0  0  0  0  0  0  0  0  0  0  0
   29.3418   35.9767   16.7917 C   0  0  0  0  0  0  0  0  0  0  0  0
   27.9274   33.6051   18.8933 O   0  0  0  0  0  0  0  0  0  0  0  0
   26.5221   33.5431   19.1633 C   0  0  0  0  0  0  0  0  0  0  0  0
  1  2  2  0  0  0  0
  1  6  1  0  0  0  0
  2  3  1  0  0  0  0
  3  4  2  0  0  0  0
  4 14  1  0  0  0  0
  5  4  1  0  0  0  0
  6  5  1  0  0  0  0
  7  6  2  0  0  0  0
  8  9  1  0  0  0  0
  8  2  1  1  0  0  0
 10 19  1  0  0  0  0
 10  9  1  0  0  0  0
 11 10  1  0  0  0  0
 12 11  1  0  0  0  0
 12 13  1  0  0  0  0
 13  8  1  0  0  0  0
 14 15  1  0  0  0  0
 14 18  2  0  0  0  0
 15 16  1  0  0  0  0
 16 17  2  0  0  0  0
 18 17  1  0  0  0  0
 19 20  1  0  0  0  0
 20 25  2  0  0  0  0
 20 21  1  0  0  0  0
 21 22  2  0  0  0  0
 22 23  1  0  0  0  0
 23 26  1  0  0  0  0
 24 23  2  0  0  0  0
 25 24  1  0  0  0  0
 26 27  1  0  0  0  0
M  END
>  <CHROM.1>
-162.19661729,-124.29099479,43.17142999,-92.99770002,69.38263266,27.74918179
39.73430899,19.13814131,-2.12894505,-1.11134277,3.07837916

>  <Name>
lig.pdb

>  <RI>
0

>  <Rbt.Current_Directory>
/home/itssahil/PROJECTS/Mol_Feturizer/New_Systems/rnas/5kx9

>  <Rbt.Executable>
rbdock ($Id: //depot/dev/client3/rdock/2013.1/src/exe/rbdock.cxx#4 $)

>  <Rbt.Library>
libRbt.so (2013.1, Build901 2013/11/27)

>  <Rbt.Parameter_File>
/export/apps/rDock/src/rDock_2013.1_src/data/scripts/dock_solv.prm

>  <Rbt.Receptor>
prm/blind_docking_80.prm

>  <SCORE>
-25.1744

>  <SCORE.INTER>
-21.8278

>  <SCORE.INTER.CONST>
1

>  <SCORE.INTER.POLAR>
0

>  <SCORE.INTER.ROT>
5

>  <SCORE.INTER.SOLV>
14.8699

>  <SCORE.INTER.VDW>
-26.4418

>  <SCORE.INTER.norm>
-0.808435

>  <SCORE.INTRA>
-3.34665

>  <SCORE.INTRA.DIHEDRAL>
4.2335

>  <SCORE.INTRA.DIHEDRAL.0>
2.68224

>  <SCORE.INTRA.POLAR>
0

>  <SCORE.INTRA.POLAR.0>
0

>  <SCORE.INTRA.REPUL>
0

>  <SCORE.INTRA.REPUL.0>
0

>  <SCORE.INTRA.SOLV>
-0.609905

>  <SCORE.INTRA.SOLV.lig_0>
-19.4148

>  <SCORE.INTRA.VDW>
-5.15845

>  <SCORE.INTRA.VDW.0>
5.42093

>  <SCORE.INTRA.norm>
-0.12395

>  <SCORE.RESTR>
0

>  <SCORE.RESTR.CAVITY>
0

>  <SCORE.RESTR.norm>
0

>  <SCORE.SYSTEM>
0

>  <SCORE.SYSTEM.CONST>
0

>  <SCORE.SYSTEM.DIHEDRAL>
0

>  <SCORE.SYSTEM.SOLV>
0

>  <SCORE.SYSTEM.norm>
0

>  <SCORE.heavy>
27

>  <SCORE.norm>
-0.932386

>  <RMSD>
6.678

$$$$
lig.pdb
 OpenBabel11021811523D
libRbt.so/2013.1/901 2013/11/27
 27 30  0  0  0  0  0  0  0  0999 V2000
   28.6383   41.2491   21.2098 N   0  0  0  0  0  0  0  0  0  0  0  0
   28.3123   40.2094   20.4825 C   0  0  0  0  0  0  0  0  0  0  0  0
   27.9130   39.0109   20.9779 N   0  0  0  0  0  0  0  0  0  0  0  0
   27.7890   38.8711   22.3315 C   0  0  0  0  0  0  0  0  0  0  0  0
   28.0807   39.9125   23.1651 C   0  0  0  0  0  0  0  0  0  0  0  0
   28.5421   41.1570   22.5976 C   0  0  0  0  0  0  0  0  0  0  0  0
   28.8754   42.1268   23.2900 O   0  0  0  0  0  0  0  0  0  0  0  0
   28.5217   40.1640   18.9529 C   0  0  2  0  0  0  0  0  0  0  0  0
   29.9430   39.5888   18.8414 C   0  0  0  0  0  0  0  0  0  0  0  0
   30.4600   39.6816   17.4749 N   0  0  0  0  0  0  0  0  0  0  0  0
   30.5499   41.0994   17.0902 C   0  0  0  0  0  0  0  0  0  0  0  0
   29.1767   41.7415   17.0746 C   0  0  0  0  0  0  0  0  0  0  0  0
   28.4977   41.6106   18.4308 C   0  0  0  0  0  0  0  0  0  0  0  0
   27.3120   37.5487   22.7134 C   0  0  0  0  0  0  0  0  0  0  0  0
   26.7295   37.2242   24.3042 S   0  0  0  0  0  0  0  0  0  0  0  0
   26.4401   35.6142   23.9367 C   0  0  0  0  0  0  0  0  0  0  0  0
   26.7211   35.3345   22.6577 C   0  0  0  0  0  0  0  0  0  0  0  0
   27.2315   36.4336   21.9397 C   0  0  0  0  0  0  0  0  0  0  0  0
   31.7739   39.0289   17.3375 C   0  0  0  0  0  0  0  0  0  0  0  0
   31.7506   37.6167   16.7966 C   0  0  0  0  0  0  0  0  0  0  0  0
   31.9776   37.3608   15.4522 C   0  0  0  0  0  0  0  0  0  0  0  0
   31.6337   36.2194   14.8286 N   0  0  0  0  0  0  0  0  0  0  0  0
   31.0093   35.3444   15.6026 C   0  0  0  0  0  0  0  0  0  0  0  0
   30.6874   35.4601   16.8811 N   0  0  0  0  0  0  0  0  0  0  0  0
   31.0505   36.6210   17.4461 C   0  0  0  0  0  0  0  0  0  0  0  0
   30.6609   34.2143   14.9768 O   0  0  0  0  0  0  0  0  0  0  0  0
   29.3392   33.7121   15.2063 C   0  0  0  0  0  0  0  0  0  0  0  0
  1  2  2  0  0  0  0
  1  6  1  0  0  0  0
  2  3  1  0  0  0  0
  3  4  2  0  0  0  0
  4 14  1  0  0  0  0
  5  4  1  0  0  0  0
  6  5  1  0  0  0  0
  7  6  2  0  0  0  0
  8  9  1  0  0  0  0
  8  2  1  1  0  0  0
 10 19  1  0  0  0  0
 10  9  1  0  0  0  0
 11 10  1  0  0  0  0
 12 11  1  0  0  0  0
 12 13  1  0  0  0  0
 13  8  1  0  0  0  0
 14 15  1  0  0  0  0
 14 18  2  0  0  0  0
 15 16  1  0  0  0  0
 16 17  2  0  0  0  0
 18 17  1  0  0  0  0
 19 20  1  0  0  0  0
 20 25  2  0  0  0  0
 20 21  1  0  0  0  0
 21 22  2  0  0  0  0
 22 23  1  0  0  0  0
 23 26  1  0  0  0  0
 24 23  2  0  0  0  0
 25 24  1  0  0  0  0
 26 27  1  0  0  0  0
M  END
>  <CHROM.1>
-165.81194800,89.64409700,97.36983982,97.01634832,-134.92847337,29.14549219
38.25482121,19.51909628,-2.65700942,-1.08013137,-2.89585410

>  <Name>
lig.pdb

>  <RI>
0

>  <Rbt.Current_Directory>
/home/itssahil/PROJECTS/Mol_Feturizer/New_Systems/rnas/5kx9

>  <Rbt.Executable>
rbdock ($Id: //depot/dev/client3/rdock/2013.1/src/exe/rbdock.cxx#4 $)

>  <Rbt.Library>
libRbt.so (2013.1, Build901 2013/11/27)

>  <Rbt.Parameter_File>
/export/apps/rDock/src/rDock_2013.1_src/data/scripts/dock_solv.prm

>  <Rbt.Receptor>
prm/pocket_docking_6.prm

>  <SCORE>
-30.9118

>  <SCORE.INTER>
-26.6495

>  <SCORE.INTER.CONST>
1

>  <SCORE.INTER.POLAR>
0

>  <SCORE.INTER.ROT>
5

>  <SCORE.INTER.SOLV>
9.83934

>  <SCORE.INTER.VDW>
-27.9795

>  <SCORE.INTER.norm>
-0.987019

>  <SCORE.INTRA>
-4.26315

>  <SCORE.INTRA.DIHEDRAL>
3.79855

>  <SCORE.INTRA.DIHEDRAL.0>
2.68224

>  <SCORE.INTRA.POLAR>
0

>  <SCORE.INTRA.POLAR.0>
0

>  <SCORE.INTRA.REPUL>
0

>  <SCORE.INTRA.REPUL.0>
0

>  <SCORE.INTRA.SOLV>
-0.583118

>  <SCORE.INTRA.SOLV.lig_0>
-19.4148

>  <SCORE.INTRA.VDW>
-5.87086

>  <SCORE.INTRA.VDW.0>
5.42093

>  <SCORE.INTRA.norm>
-0.157894

>  <SCORE.RESTR>
0.000912281

>  <SCORE.RESTR.CAVITY>
0.000912281

>  <SCORE.RESTR.norm>
3.37882e-05

>  <SCORE.SYSTEM>
0

>  <SCORE.SYSTEM.CONST>
0

>  <SCORE.SYSTEM.DIHEDRAL>
0

>  <SCORE.SYSTEM.SOLV>
0

>  <SCORE.SYSTEM.norm>
0

>  <SCORE.heavy>
27

>  <SCORE.norm>
-1.14488

>  <RMSD>
6.694

$$$$
lig.pdb
 OpenBabel11021811523D
libRbt.so/2013.1/901 2013/11/27
 27 30  0  0  0  0  0  0  0  0999 V2000
   26.9552   39.8753   21.4923 N   0  0  0  0  0  0  0  0  0  0  0  0
   27.6196   39.3413   22.4871 C   0  0  0  0  0  0  0  0  0  0  0  0
   28.1823   40.0378   23.5066 N   0  0  0  0  0  0  0  0  0  0  0  0
   28.0151   41.3934   23.5434 C   0  0  0  0  0  0  0  0  0  0  0  0
   27.3121   42.0315   22.5620 C   0  0  0  0  0  0  0  0  0  0  0  0
   26.7657   41.2565   21.4736 C   0  0  0  0  0  0  0  0  0  0  0  0
   26.1632   41.7688   20.5221 O   0  0  0  0  0  0  0  0  0  0  0  0
   28.0052   37.8461   22.5239 C   0  0  2  0  0  0  0  0  0  0  0  0
   27.6045   37.3776   21.1156 C   0  0  0  0  0  0  0  0  0  0  0  0
   27.6521   35.9193   20.9950 N   0  0  0  0  0  0  0  0  0  0  0  0
   26.6782   35.3280   21.9266 C   0  0  0  0  0  0  0  0  0  0  0  0
   27.0404   35.6525   23.3625 C   0  0  0  0  0  0  0  0  0  0  0  0
   27.1217   37.1573   23.5780 C   0  0  0  0  0  0  0  0  0  0  0  0
   28.6354   41.9996   24.7138 C   0  0  0  0  0  0  0  0  0  0  0  0
   29.1884   41.0438   26.0389 S   0  0  0  0  0  0  0  0  0  0  0  0
   29.6885   42.3998   26.8887 C   0  0  0  0  0  0  0  0  0  0  0  0
   29.4962   43.5265   26.1912 C   0  0  0  0  0  0  0  0  0  0  0  0
   28.8839   43.3170   24.9401 C   0  0  0  0  0  0  0  0  0  0  0  0
   27.3813   35.4713   19.6176 C   0  0  0  0  0  0  0  0  0  0  0  0
   28.0659   36.2618   18.5250 C   0  0  0  0  0  0  0  0  0  0  0  0
   27.5487   36.3016   17.2383 C   0  0  0  0  0  0  0  0  0  0  0  0
   28.2506   36.6646   16.1495 N   0  0  0  0  0  0  0  0  0  0  0  0
   29.5201   36.9538   16.3930 C   0  0  0  0  0  0  0  0  0  0  0  0
   30.1634   36.9228   17.5492 N   0  0  0  0  0  0  0  0  0  0  0  0
   29.4136   36.5482   18.5962 C   0  0  0  0  0  0  0  0  0  0  0  0
   30.2170   37.3057   15.3065 O   0  0  0  0  0  0  0  0  0  0  0  0
   31.5856   36.8888   15.2354 C   0  0  0  0  0  0  0  0  0  0  0  0
  1  2  2  0  0  0  0
  1  6  1  0  0  0  0
  2  3  1  0  0  0  0
  3  4  2  0  0  0  0
  4 14  1  0  0  0  0
  5  4  1  0  0  0  0
  6  5  1  0  0  0  0
  7  6  2  0  0  0  0
  8  9  1  0  0  0  0
  8  2  1  6  0  0  0
 10 19  1  0  0  0  0
 10  9  1  0  0  0  0
 11 10  1  0  0  0  0
 12 11  1  0  0  0  0
 12 13  1  0  0  0  0
 13  8  1  0  0  0  0
 14 15  1  0  0  0  0
 14 18  2  0  0  0  0
 15 16  1  0  0  0  0
 16 17  2  0  0  0  0
 18 17  1  0  0  0  0
 19 20  1  0  0  0  0
 20 25  2  0  0  0  0
 20 21  1  0  0  0  0
 21 22  2  0  0  0  0
 22 23  1  0  0  0  0
 23 26  1  0  0  0  0
 24 23  2  0  0  0  0
 25 24  1  0  0  0  0
 26 27  1  0  0  0  0
M  END
>  <CHROM.1>
-12.65220846,7.91249021,43.30241538,-155.63013997,-143.94679196,28.31237881
38.82945705,21.35724328,-1.70196968,-1.16264166,-2.27643025

>  <Name>
lig.pdb

>  <RI>
0

>  <Rbt.Current_Directory>
/home/itssahil/PROJECTS/Mol_Feturizer/New_Systems/rnas/5kx9

>  <Rbt.Executable>
rbdock ($Id: //depot/dev/client3/rdock/2013.1/src/exe/rbdock.cxx#4 $)

>  <Rbt.Library>
libRbt.so (2013.1, Build901 2013/11/27)

>  <Rbt.Parameter_File>
/export/apps/rDock/src/rDock_2013.1_src/data/scripts/dock_solv.prm

>  <Rbt.Receptor>
prm/blind_docking_100.prm

>  <SCORE>
-31.9756

>  <SCORE.INTER>
-29.5601

>  <SCORE.INTER.CONST>
1

>  <SCORE.INTER.POLAR>
0

>  <SCORE.INTER.ROT>
5

>  <SCORE.INTER.SOLV>
12.5795

>  <SCORE.INTER.VDW>
-30.8332

>  <SCORE.INTER.norm>
-1.09482

>  <SCORE.INTRA>
-2.41545

>  <SCORE.INTRA.DIHEDRAL>
2.25396

>  <SCORE.INTRA.DIHEDRAL.0>
2.68224

>  <SCORE.INTRA.POLAR>
0

>  <SCORE.INTRA.POLAR.0>
0

>  <SCORE.INTRA.REPUL>
0

>  <SCORE.INTRA.REPUL.0>
0

>  <SCORE.INTRA.SOLV>
-0.546267

>  <SCORE.INTRA.SOLV.lig_0>
-19.4148

>  <SCORE.INTRA.VDW>
-3.2693

>  <SCORE.INTRA.VDW.0>
5.42093

>  <SCORE.INTRA.norm>
-0.0894612

>  <SCORE.RESTR>
0

>  <SCORE.RESTR.CAVITY>
0

>  <SCORE.RESTR.norm>
0

>  <SCORE.SYSTEM>
0

>  <SCORE.SYSTEM.CONST>
0

>  <SCORE.SYSTEM.DIHEDRAL>
0

>  <SCORE.SYSTEM.SOLV>
0

>  <SCORE.SYSTEM.norm>
0

>  <SCORE.heavy>
27

>  <SCORE.norm>
-1.18428

>  <RMSD>
6.698

$$$$
lig.pdb
 OpenBabel11021811523D
libRbt.so/2013.1/901 2013/11/27
 27 30  0  0  0  0  0  0  0  0999 V2000
   28.6558   41.2227   21.1314 N   0  0  0  0  0  0  0  0  0  0  0  0
   28.3543   40.1312   20.4726 C   0  0  0  0  0  0  0  0  0  0  0  0
   27.9590   38.9652   21.0431 N   0  0  0  0  0  0  0  0  0  0  0  0
   27.8118   38.9181   22.4007 C   0  0  0  0  0  0  0  0  0  0  0  0
   28.0769   40.0182   23.1648 C   0  0  0  0  0  0  0  0  0  0  0  0
   28.5352   41.2258   22.5204 C   0  0  0  0  0  0  0  0  0  0  0  0
   28.8453   42.2452   23.1494 O   0  0  0  0  0  0  0  0  0  0  0  0
   28.5920   39.9824   18.9538 C   0  0  2  0  0  0  0  0  0  0  0  0
   30.0575   39.5207   18.9029 C   0  0  0  0  0  0  0  0  0  0  0  0
   30.5877   39.5477   17.5386 N   0  0  0  0  0  0  0  0  0  0  0  0
   30.5670   40.9331   17.0422 C   0  0  0  0  0  0  0  0  0  0  0  0
   29.1461   41.4553   16.9614 C   0  0  0  0  0  0  0  0  0  0  0  0
   28.4577   41.3761   18.3170 C   0  0  0  0  0  0  0  0  0  0  0  0
   27.3421   37.6197   22.8653 C   0  0  0  0  0  0  0  0  0  0  0  0
   27.3459   36.2369   21.8342 S   0  0  0  0  0  0  0  0  0  0  0  0
   26.6821   35.2667   23.0296 C   0  0  0  0  0  0  0  0  0  0  0  0
   26.5069   35.9351   24.1766 C   0  0  0  0  0  0  0  0  0  0  0  0
   26.8738   37.2929   24.0991 C   0  0  0  0  0  0  0  0  0  0  0  0
   31.9530   38.9979   17.4672 C   0  0  0  0  0  0  0  0  0  0  0  0
   32.0494   37.4902   17.3982 C   0  0  0  0  0  0  0  0  0  0  0  0
   33.2807   36.8523   17.3574 C   0  0  0  0  0  0  0  0  0  0  0  0
   33.4652   35.5849   16.9456 N   0  0  0  0  0  0  0  0  0  0  0  0
   32.3606   34.9816   16.5326 C   0  0  0  0  0  0  0  0  0  0  0  0
   31.1311   35.4677   16.4734 N   0  0  0  0  0  0  0  0  0  0  0  0
   31.0110   36.7365   16.8911 C   0  0  0  0  0  0  0  0  0  0  0  0
   32.5496   33.7245   16.1155 O   0  0  0  0  0  0  0  0  0  0  0  0
   32.0174   33.3659   14.8349 C   0  0  0  0  0  0  0  0  0  0  0  0
  1  2  2  0  0  0  0
  1  6  1  0  0  0  0
  2  3  1  0  0  0  0
  3  4  2  0  0  0  0
  4 14  1  0  0  0  0
  5  4  1  0  0  0  0
  6  5  1  0  0  0  0
  7  6  2  0  0  0  0
  8  9  1  0  0  0  0
  8  2  1  1  0  0  0
 10 19  1  0  0  0  0
 10  9  1  0  0  0  0
 11 10  1  0  0  0  0
 12 11  1  0  0  0  0
 12 13  1  0  0  0  0
 13  8  1  0  0  0  0
 14 15  1  0  0  0  0
 14 18  2  0  0  0  0
 15 16  1  0  0  0  0
 16 17  2  0  0  0  0
 18 17  1  0  0  0  0
 19 20  1  0  0  0  0
 20 25  2  0  0  0  0
 20 21  1  0  0  0  0
 21 22  2  0  0  0  0
 22 23  1  0  0  0  0
 23 26  1  0  0  0  0
 24 23  2  0  0  0  0
 25 24  1  0  0  0  0
 26 27  1  0  0  0  0
M  END
>  <CHROM.1>
13.25006979,85.49093125,82.11136781,-178.56036325,-129.43358031,29.56684010
38.09421614,19.59302385,-2.82667870,-0.96388979,3.05299816

>  <Name>
lig.pdb

>  <RI>
0

>  <Rbt.Current_Directory>
/home/itssahil/PROJECTS/Mol_Feturizer/New_Systems/rnas/5kx9

>  <Rbt.Executable>
rbdock ($Id: //depot/dev/client3/rdock/2013.1/src/exe/rbdock.cxx#4 $)

>  <Rbt.Library>
libRbt.so (2013.1, Build901 2013/11/27)

>  <Rbt.Parameter_File>
/export/apps/rDock/src/rDock_2013.1_src/data/scripts/dock_solv.prm

>  <Rbt.Receptor>
prm/blind_docking_80.prm

>  <SCORE>
-32.718

>  <SCORE.INTER>
-28.0833

>  <SCORE.INTER.CONST>
1

>  <SCORE.INTER.POLAR>
0

>  <SCORE.INTER.ROT>
5

>  <SCORE.INTER.SOLV>
11.2842

>  <SCORE.INTER.VDW>
-29.4169

>  <SCORE.INTER.norm>
-1.04012

>  <SCORE.INTRA>
-4.6347

>  <SCORE.INTRA.DIHEDRAL>
3.2886

>  <SCORE.INTRA.DIHEDRAL.0>
2.68224

>  <SCORE.INTRA.POLAR>
0

>  <SCORE.INTRA.POLAR.0>
0

>  <SCORE.INTRA.REPUL>
0

>  <SCORE.INTRA.REPUL.0>
0

>  <SCORE.INTRA.SOLV>
-0.577922

>  <SCORE.INTRA.SOLV.lig_0>
-19.4148

>  <SCORE.INTRA.VDW>
-5.99004

>  <SCORE.INTRA.VDW.0>
5.42093

>  <SCORE.INTRA.norm>
-0.171655

>  <SCORE.RESTR>
0

>  <SCORE.RESTR.CAVITY>
0

>  <SCORE.RESTR.norm>
0

>  <SCORE.SYSTEM>
0

>  <SCORE.SYSTEM.CONST>
0

>  <SCORE.SYSTEM.DIHEDRAL>
0

>  <SCORE.SYSTEM.SOLV>
0

>  <SCORE.SYSTEM.norm>
0

>  <SCORE.heavy>
27

>  <SCORE.norm>
-1.21178

>  <RMSD>
6.725

$$$$
lig.pdb
 OpenBabel11021811523D
libRbt.so/2013.1/901 2013/11/27
 27 30  0  0  0  0  0  0  0  0999 V2000
   27.5628   35.1324   20.2360 N   0  0  0  0  0  0  0  0  0  0  0  0
   27.5434   36.4304   20.4120 C   0  0  0  0  0  0  0  0  0  0  0  0
   27.2582   37.0498   21.5850 N   0  0  0  0  0  0  0  0  0  0  0  0
   27.0170   36.2814   22.6888 C   0  0  0  0  0  0  0  0  0  0  0  0
   27.0445   34.9189   22.6038 C   0  0  0  0  0  0  0  0  0  0  0  0
   27.3112   34.3011   21.3267 C   0  0  0  0  0  0  0  0  0  0  0  0
   27.3008   33.0752   21.1597 O   0  0  0  0  0  0  0  0  0  0  0  0
   27.6659   37.4315   19.2422 C   0  0  2  0  0  0  0  0  0  0  0  0
   27.0507   36.6393   18.0772 C   0  0  0  0  0  0  0  0  0  0  0  0
   27.2792   37.3004   16.7912 N   0  0  0  0  0  0  0  0  0  0  0  0
   28.7271   37.3664   16.5352 C   0  0  0  0  0  0  0  0  0  0  0  0
   29.4215   38.2136   17.5832 C   0  0  0  0  0  0  0  0  0  0  0  0
   29.1628   37.6715   18.9821 C   0  0  0  0  0  0  0  0  0  0  0  0
   26.7691   37.0812   23.8809 C   0  0  0  0  0  0  0  0  0  0  0  0
   27.1565   38.7610   23.9372 S   0  0  0  0  0  0  0  0  0  0  0  0
   26.6324   38.8921   25.5244 C   0  0  0  0  0  0  0  0  0  0  0  0
   26.1389   37.7359   25.9854 C   0  0  0  0  0  0  0  0  0  0  0  0
   26.2162   36.6799   25.0565 C   0  0  0  0  0  0  0  0  0  0  0  0
   26.5943   36.6071   15.6860 C   0  0  0  0  0  0  0  0  0  0  0  0
   27.1481   35.2476   15.3221 C   0  0  0  0  0  0  0  0  0  0  0  0
   27.2428   34.2364   16.2673 C   0  0  0  0  0  0  0  0  0  0  0  0
   28.0259   33.1499   16.1398 N   0  0  0  0  0  0  0  0  0  0  0  0
   28.7519   33.1304   15.0321 C   0  0  0  0  0  0  0  0  0  0  0  0
   28.8007   34.0324   14.0649 N   0  0  0  0  0  0  0  0  0  0  0  0
   28.0036   35.0949   14.2506 C   0  0  0  0  0  0  0  0  0  0  0  0
   29.5359   32.0528   14.9132 O   0  0  0  0  0  0  0  0  0  0  0  0
   30.8291   32.1052   15.5269 C   0  0  0  0  0  0  0  0  0  0  0  0
  1  2  2  0  0  0  0
  1  6  1  0  0  0  0
  2  3  1  0  0  0  0
  3  4  2  0  0  0  0
  4 14  1  0  0  0  0
  5  4  1  0  0  0  0
  6  5  1  0  0  0  0
  7  6  2  0  0  0  0
  8  9  1  0  0  0  0
  8  2  1  1  0  0  0
 10 19  1  0  0  0  0
 10  9  1  0  0  0  0
 11 10  1  0  0  0  0
 12 11  1  0  0  0  0
 12 13  1  0  0  0  0
 13  8  1  0  0  0  0
 14 15  1  0  0  0  0
 14 18  2  0  0  0  0
 15 16  1  0  0  0  0
 16 17  2  0  0  0  0
 18 17  1  0  0  0  0
 19 20  1  0  0  0  0
 20 25  2  0  0  0  0
 20 21  1  0  0  0  0
 21 22  2  0  0  0  0
 22 23  1  0  0  0  0
 23 26  1  0  0  0  0
 24 23  2  0  0  0  0
 25 24  1  0  0  0  0
 26 27  1  0  0  0  0
M  END
>  <CHROM.1>
-14.90158833,29.23474892,-69.00936019,56.72710962,-86.32237956,27.72068304
35.89541819,19.36907583,-3.01342165,1.38133161,-0.49650503

>  <Name>
lig.pdb

>  <RI>
0

>  <Rbt.Current_Directory>
/home/itssahil/PROJECTS/Mol_Feturizer/New_Systems/rnas/5kx9

>  <Rbt.Executable>
rbdock ($Id: //depot/dev/client3/rdock/2013.1/src/exe/rbdock.cxx#4 $)

>  <Rbt.Library>
libRbt.so (2013.1, Build901 2013/11/27)

>  <Rbt.Parameter_File>
/export/apps/rDock/src/rDock_2013.1_src/data/scripts/dock_solv.prm

>  <Rbt.Receptor>
prm/blind_docking_60.prm

>  <SCORE>
-29.6237

>  <SCORE.INTER>
-26.8228

>  <SCORE.INTER.CONST>
1

>  <SCORE.INTER.POLAR>
0

>  <SCORE.INTER.ROT>
5

>  <SCORE.INTER.SOLV>
12.8641

>  <SCORE.INTER.VDW>
-29.1033

>  <SCORE.INTER.norm>
-0.993438

>  <SCORE.INTRA>
-2.80082

>  <SCORE.INTRA.DIHEDRAL>
5.22048

>  <SCORE.INTRA.DIHEDRAL.0>
2.68224

>  <SCORE.INTRA.POLAR>
0

>  <SCORE.INTRA.POLAR.0>
0

>  <SCORE.INTRA.REPUL>
0

>  <SCORE.INTRA.REPUL.0>
0

>  <SCORE.INTRA.SOLV>
-0.235595

>  <SCORE.INTRA.SOLV.lig_0>
-19.4148

>  <SCORE.INTRA.VDW>
-5.29326

>  <SCORE.INTRA.VDW.0>
5.42093

>  <SCORE.INTRA.norm>
-0.103734

>  <SCORE.RESTR>
0

>  <SCORE.RESTR.CAVITY>
0

>  <SCORE.RESTR.norm>
0

>  <SCORE.SYSTEM>
0

>  <SCORE.SYSTEM.CONST>
0

>  <SCORE.SYSTEM.DIHEDRAL>
0

>  <SCORE.SYSTEM.SOLV>
0

>  <SCORE.SYSTEM.norm>
0

>  <SCORE.heavy>
27

>  <SCORE.norm>
-1.09717

>  <RMSD>
6.726

$$$$
lig.pdb
 OpenBabel11021811523D
libRbt.so/2013.1/901 2013/11/27
 27 30  0  0  0  0  0  0  0  0999 V2000
   29.1969   40.2344   19.9374 N   0  0  0  0  0  0  0  0  0  0  0  0
   28.6434   39.1126   19.5481 C   0  0  0  0  0  0  0  0  0  0  0  0
   28.1214   38.1759   20.3795 N   0  0  0  0  0  0  0  0  0  0  0  0
   28.1195   38.4222   21.7235 C   0  0  0  0  0  0  0  0  0  0  0  0
   28.6506   39.5796   22.2164 C   0  0  0  0  0  0  0  0  0  0  0  0
   29.2331   40.5302   21.2995 C   0  0  0  0  0  0  0  0  0  0  0  0
   29.7795   41.5751   21.6743 O   0  0  0  0  0  0  0  0  0  0  0  0
   28.6828   38.6293   18.0817 C   0  0  2  0  0  0  0  0  0  0  0  0
   29.1501   37.1729   18.2372 C   0  0  0  0  0  0  0  0  0  0  0  0
   29.4992   36.5746   16.9475 N   0  0  0  0  0  0  0  0  0  0  0  0
   30.6276   37.3170   16.3629 C   0  0  0  0  0  0  0  0  0  0  0  0
   30.2374   38.7540   16.0783 C   0  0  0  0  0  0  0  0  0  0  0  0
   29.7548   39.4492   17.3438 C   0  0  0  0  0  0  0  0  0  0  0  0
   27.4905   37.3515   22.4851 C   0  0  0  0  0  0  0  0  0  0  0  0
   27.1418   35.8206   21.7710 S   0  0  0  0  0  0  0  0  0  0  0  0
   26.4613   35.2439   23.1905 C   0  0  0  0  0  0  0  0  0  0  0  0
   26.5333   36.1421   24.1809 C   0  0  0  0  0  0  0  0  0  0  0  0
   27.1154   37.3643   23.7919 C   0  0  0  0  0  0  0  0  0  0  0  0
   29.8371   35.1462   17.0764 C   0  0  0  0  0  0  0  0  0  0  0  0
   28.6760   34.2219   17.3677 C   0  0  0  0  0  0  0  0  0  0  0  0
   27.7960   33.8395   16.3657 C   0  0  0  0  0  0  0  0  0  0  0  0
   26.5697   33.3320   16.5861 N   0  0  0  0  0  0  0  0  0  0  0  0
   26.2352   33.2558   17.8655 C   0  0  0  0  0  0  0  0  0  0  0  0
   26.9438   33.6159   18.9236 N   0  0  0  0  0  0  0  0  0  0  0  0
   28.1541   34.1199   18.6407 C   0  0  0  0  0  0  0  0  0  0  0  0
   25.0116   32.7590   18.0803 O   0  0  0  0  0  0  0  0  0  0  0  0
   24.0134   33.6548   18.5830 C   0  0  0  0  0  0  0  0  0  0  0  0
  1  2  2  0  0  0  0
  1  6  1  0  0  0  0
  2  3  1  0  0  0  0
  3  4  2  0  0  0  0
  4 14  1  0  0  0  0
  5  4  1  0  0  0  0
  6  5  1  0  0  0  0
  7  6  2  0  0  0  0
  8  9  1  0  0  0  0
  8  2  1  1  0  0  0
 10 19  1  0  0  0  0
 10  9  1  0  0  0  0
 11 10  1  0  0  0  0
 12 11  1  0  0  0  0
 12 13  1  0  0  0  0
 13  8  1  0  0  0  0
 14 15  1  0  0  0  0
 14 18  2  0  0  0  0
 15 16  1  0  0  0  0
 16 17  2  0  0  0  0
 18 17  1  0  0  0  0
 19 20  1  0  0  0  0
 20 25  2  0  0  0  0
 20 21  1  0  0  0  0
 21 22  2  0  0  0  0
 22 23  1  0  0  0  0
 23 26  1  0  0  0  0
 24 23  2  0  0  0  0
 25 24  1  0  0  0  0
 26 27  1  0  0  0  0
M  END
>  <CHROM.1>
13.10180637,131.00160648,71.52235831,77.64654371,-111.05602275,28.01068585
36.67222646,19.50772449,-1.04203171,-0.94596117,-2.15400513

>  <Name>
lig.pdb

>  <RI>
0

>  <Rbt.Current_Directory>
/home/itssahil/PROJECTS/Mol_Feturizer/New_Systems/rnas/5kx9

>  <Rbt.Executable>
rbdock ($Id: //depot/dev/client3/rdock/2013.1/src/exe/rbdock.cxx#4 $)

>  <Rbt.Library>
libRbt.so (2013.1, Build901 2013/11/27)

>  <Rbt.Parameter_File>
/export/apps/rDock/src/rDock_2013.1_src/data/scripts/dock_solv.prm

>  <Rbt.Receptor>
prm/pocket_docking_7.prm

>  <SCORE>
-30.0111

>  <SCORE.INTER>
-27.1426

>  <SCORE.INTER.CONST>
1

>  <SCORE.INTER.POLAR>
0

>  <SCORE.INTER.ROT>
5

>  <SCORE.INTER.SOLV>
12.7546

>  <SCORE.INTER.VDW>
-29.28

>  <SCORE.INTER.norm>
-1.00528

>  <SCORE.INTRA>
-2.86845

>  <SCORE.INTRA.DIHEDRAL>
4.5512

>  <SCORE.INTRA.DIHEDRAL.0>
2.68224

>  <SCORE.INTRA.POLAR>
0

>  <SCORE.INTRA.POLAR.0>
0

>  <SCORE.INTRA.REPUL>
0

>  <SCORE.INTRA.REPUL.0>
0

>  <SCORE.INTRA.SOLV>
-0.121273

>  <SCORE.INTRA.SOLV.lig_0>
-19.4148

>  <SCORE.INTRA.VDW>
-5.08341

>  <SCORE.INTRA.VDW.0>
5.42093

>  <SCORE.INTRA.norm>
-0.106239

>  <SCORE.RESTR>
0

>  <SCORE.RESTR.CAVITY>
0

>  <SCORE.RESTR.norm>
0

>  <SCORE.SYSTEM>
0

>  <SCORE.SYSTEM.CONST>
0

>  <SCORE.SYSTEM.DIHEDRAL>
0

>  <SCORE.SYSTEM.SOLV>
0

>  <SCORE.SYSTEM.norm>
0

>  <SCORE.heavy>
27

>  <SCORE.norm>
-1.11152

>  <RMSD>
6.734

$$$$
lig.pdb
 OpenBabel11021811523D
libRbt.so/2013.1/901 2013/11/27
 27 30  0  0  0  0  0  0  0  0999 V2000
   28.7082   41.2088   21.0636 N   0  0  0  0  0  0  0  0  0  0  0  0
   28.4257   40.1283   20.3789 C   0  0  0  0  0  0  0  0  0  0  0  0
   28.0065   38.9558   20.9181 N   0  0  0  0  0  0  0  0  0  0  0  0
   27.8124   38.8895   22.2690 C   0  0  0  0  0  0  0  0  0  0  0  0
   28.0550   39.9772   23.0579 C   0  0  0  0  0  0  0  0  0  0  0  0
   28.5397   41.1922   22.4475 C   0  0  0  0  0  0  0  0  0  0  0  0
   28.8317   42.2010   23.1018 O   0  0  0  0  0  0  0  0  0  0  0  0
   28.7151   40.0006   18.8671 C   0  0  2  0  0  0  0  0  0  0  0  0
   30.1480   39.4436   18.8615 C   0  0  0  0  0  0  0  0  0  0  0  0
   30.7343   39.4681   17.5203 N   0  0  0  0  0  0  0  0  0  0  0  0
   30.8250   40.8634   17.0608 C   0  0  0  0  0  0  0  0  0  0  0  0
   29.4459   41.4809   16.9382 C   0  0  0  0  0  0  0  0  0  0  0  0
   28.6988   41.4151   18.2630 C   0  0  0  0  0  0  0  0  0  0  0  0
   27.3221   37.5865   22.6980 C   0  0  0  0  0  0  0  0  0  0  0  0
   26.7346   37.3255   24.2986 S   0  0  0  0  0  0  0  0  0  0  0  0
   26.4301   35.7061   23.9893 C   0  0  0  0  0  0  0  0  0  0  0  0
   26.7098   35.3776   22.7217 C   0  0  0  0  0  0  0  0  0  0  0  0
   27.2317   36.4449   21.9651 C   0  0  0  0  0  0  0  0  0  0  0  0
   32.0624   38.8305   17.4879 C   0  0  0  0  0  0  0  0  0  0  0  0
   32.0633   37.3263   17.3304 C   0  0  0  0  0  0  0  0  0  0  0  0
   33.0104   36.6892   16.5418 C   0  0  0  0  0  0  0  0  0  0  0  0
   32.8823   35.4380   16.0643 N   0  0  0  0  0  0  0  0  0  0  0  0
   31.7365   34.8517   16.3772 C   0  0  0  0  0  0  0  0  0  0  0  0
   30.7276   35.3408   17.0802 N   0  0  0  0  0  0  0  0  0  0  0  0
   30.9107   36.5932   17.5240 C   0  0  0  0  0  0  0  0  0  0  0  0
   31.6091   33.6110   15.8931 O   0  0  0  0  0  0  0  0  0  0  0  0
   31.5161   33.4624   14.4714 C   0  0  0  0  0  0  0  0  0  0  0  0
  1  2  2  0  0  0  0
  1  6  1  0  0  0  0
  2  3  1  0  0  0  0
  3  4  2  0  0  0  0
  4 14  1  0  0  0  0
  5  4  1  0  0  0  0
  6  5  1  0  0  0  0
  7  6  2  0  0  0  0
  8  9  1  0  0  0  0
  8  2  1  1  0  0  0
 10 19  1  0  0  0  0
 10  9  1  0  0  0  0
 11 10  1  0  0  0  0
 12 11  1  0  0  0  0
 12 13  1  0  0  0  0
 13  8  1  0  0  0  0
 14 15  1  0  0  0  0
 14 18  2  0  0  0  0
 15 16  1  0  0  0  0
 16 17  2  0  0  0  0
 18 17  1  0  0  0  0
 19 20  1  0  0  0  0
 20 25  2  0  0  0  0
 20 21  1  0  0  0  0
 21 22  2  0  0  0  0
 22 23  1  0  0  0  0
 23 26  1  0  0  0  0
 24 23  2  0  0  0  0
 25 24  1  0  0  0  0
 26 27  1  0  0  0  0
M  END
>  <CHROM.1>
-169.05557302,89.12622615,84.30596381,141.34738921,-66.71267164,29.44973086
38.10318211,19.62899870,-2.77919105,-1.00293695,-3.12047219

>  <Name>
lig.pdb

>  <RI>
0

>  <Rbt.Current_Directory>
/home/itssahil/PROJECTS/Mol_Feturizer/New_Systems/rnas/5kx9

>  <Rbt.Executable>
rbdock ($Id: //depot/dev/client3/rdock/2013.1/src/exe/rbdock.cxx#4 $)

>  <Rbt.Library>
libRbt.so (2013.1, Build901 2013/11/27)

>  <Rbt.Parameter_File>
/export/apps/rDock/src/rDock_2013.1_src/data/scripts/dock_solv.prm

>  <Rbt.Receptor>
prm/pocket_docking_7.prm

>  <SCORE>
-31.3529

>  <SCORE.INTER>
-26.9447

>  <SCORE.INTER.CONST>
1

>  <SCORE.INTER.POLAR>
0

>  <SCORE.INTER.ROT>
5

>  <SCORE.INTER.SOLV>
11.0389

>  <SCORE.INTER.VDW>
-28.5761

>  <SCORE.INTER.norm>
-0.997954

>  <SCORE.INTRA>
-4.40812

>  <SCORE.INTRA.DIHEDRAL>
3.78678

>  <SCORE.INTRA.DIHEDRAL.0>
2.68224

>  <SCORE.INTRA.POLAR>
0

>  <SCORE.INTRA.POLAR.0>
0

>  <SCORE.INTRA.REPUL>
0

>  <SCORE.INTRA.REPUL.0>
0

>  <SCORE.INTRA.SOLV>
-0.53029

>  <SCORE.INTRA.SOLV.lig_0>
-19.4148

>  <SCORE.INTRA.VDW>
-6.03637

>  <SCORE.INTRA.VDW.0>
5.42093

>  <SCORE.INTRA.norm>
-0.163264

>  <SCORE.RESTR>
0

>  <SCORE.RESTR.CAVITY>
0

>  <SCORE.RESTR.norm>
0

>  <SCORE.SYSTEM>
0

>  <SCORE.SYSTEM.CONST>
0

>  <SCORE.SYSTEM.DIHEDRAL>
0

>  <SCORE.SYSTEM.SOLV>
0

>  <SCORE.SYSTEM.norm>
0

>  <SCORE.heavy>
27

>  <SCORE.norm>
-1.16122

>  <RMSD>
6.754

$$$$
lig.pdb
 OpenBabel11021811523D
libRbt.so/2013.1/901 2013/11/27
 27 30  0  0  0  0  0  0  0  0999 V2000
   28.7292   41.1855   21.0289 N   0  0  0  0  0  0  0  0  0  0  0  0
   28.4479   40.1007   20.3505 C   0  0  0  0  0  0  0  0  0  0  0  0
   28.0342   38.9297   20.8970 N   0  0  0  0  0  0  0  0  0  0  0  0
   27.8445   38.8696   22.2489 C   0  0  0  0  0  0  0  0  0  0  0  0
   28.0861   39.9621   23.0315 C   0  0  0  0  0  0  0  0  0  0  0  0
   28.5651   41.1755   22.4135 C   0  0  0  0  0  0  0  0  0  0  0  0
   28.8559   42.1885   23.0616 O   0  0  0  0  0  0  0  0  0  0  0  0
   28.7330   39.9663   18.8385 C   0  0  2  0  0  0  0  0  0  0  0  0
   30.1655   39.4082   18.8314 C   0  0  0  0  0  0  0  0  0  0  0  0
   30.7480   39.4265   17.4884 N   0  0  0  0  0  0  0  0  0  0  0  0
   30.8384   40.8197   17.0225 C   0  0  0  0  0  0  0  0  0  0  0  0
   29.4594   41.4377   16.9012 C   0  0  0  0  0  0  0  0  0  0  0  0
   28.7160   41.3782   18.2284 C   0  0  0  0  0  0  0  0  0  0  0  0
   27.3597   37.5672   22.6860 C   0  0  0  0  0  0  0  0  0  0  0  0
   26.7749   37.3134   24.2887 S   0  0  0  0  0  0  0  0  0  0  0  0
   26.4764   35.6910   23.9892 C   0  0  0  0  0  0  0  0  0  0  0  0
   26.7560   35.3561   22.7233 C   0  0  0  0  0  0  0  0  0  0  0  0
   27.2730   36.4210   21.9599 C   0  0  0  0  0  0  0  0  0  0  0  0
   32.0755   38.7878   17.4551 C   0  0  0  0  0  0  0  0  0  0  0  0
   32.0834   37.3093   17.1368 C   0  0  0  0  0  0  0  0  0  0  0  0
   32.9326   36.7890   16.1709 C   0  0  0  0  0  0  0  0  0  0  0  0
   32.7669   35.5915   15.5807 N   0  0  0  0  0  0  0  0  0  0  0  0
   31.6817   34.9395   15.9700 C   0  0  0  0  0  0  0  0  0  0  0  0
   30.7628   35.3196   16.8433 N   0  0  0  0  0  0  0  0  0  0  0  0
   30.9787   36.5236   17.3934 C   0  0  0  0  0  0  0  0  0  0  0  0
   31.5156   33.7530   15.3743 O   0  0  0  0  0  0  0  0  0  0  0  0
   30.8999   32.7099   16.1389 C   0  0  0  0  0  0  0  0  0  0  0  0
  1  2  2  0  0  0  0
  1  6  1  0  0  0  0
  2  3  1  0  0  0  0
  3  4  2  0  0  0  0
  4 14  1  0  0  0  0
  5  4  1  0  0  0  0
  6  5  1  0  0  0  0
  7  6  2  0  0  0  0
  8  9  1  0  0  0  0
  8  2  1  1  0  0  0
 10 19  1  0  0  0  0
 10  9  1  0  0  0  0
 11 10  1  0  0  0  0
 12 11  1  0  0  0  0
 12 13  1  0  0  0  0
 13  8  1  0  0  0  0
 14 15  1  0  0  0  0
 14 18  2  0  0  0  0
 15 16  1  0  0  0  0
 16 17  2  0  0  0  0
 18 17  1  0  0  0  0
 19 20  1  0  0  0  0
 20 25  2  0  0  0  0
 20 21  1  0  0  0  0
 21 22  2  0  0  0  0
 22 23  1  0  0  0  0
 23 26  1  0  0  0  0
 24 23  2  0  0  0  0
 25 24  1  0  0  0  0
 26 27  1  0  0  0  0
M  END
>  <CHROM.1>
-168.92086172,89.35341057,91.43761926,130.97087395,147.00715529,29.43666118
38.06904601,19.59351617,-2.76001398,-1.01069958,-3.09603131

>  <Name>
lig.pdb

>  <RI>
0

>  <Rbt.Current_Directory>
/home/itssahil/PROJECTS/Mol_Feturizer/New_Systems/rnas/5kx9

>  <Rbt.Executable>
rbdock ($Id: //depot/dev/client3/rdock/2013.1/src/exe/rbdock.cxx#4 $)

>  <Rbt.Library>
libRbt.so (2013.1, Build901 2013/11/27)

>  <Rbt.Parameter_File>
/export/apps/rDock/src/rDock_2013.1_src/data/scripts/dock_solv.prm

>  <Rbt.Receptor>
prm/pocket_docking_7.prm

>  <SCORE>
-32.3539

>  <SCORE.INTER>
-27.7787

>  <SCORE.INTER.CONST>
1

>  <SCORE.INTER.POLAR>
0

>  <SCORE.INTER.ROT>
5

>  <SCORE.INTER.SOLV>
11.0415

>  <SCORE.INTER.VDW>
-29.1329

>  <SCORE.INTER.norm>
-1.02884

>  <SCORE.INTRA>
-4.57521

>  <SCORE.INTRA.DIHEDRAL>
1.64082

>  <SCORE.INTRA.DIHEDRAL.0>
2.68224

>  <SCORE.INTRA.POLAR>
0

>  <SCORE.INTRA.POLAR.0>
0

>  <SCORE.INTRA.REPUL>
0

>  <SCORE.INTRA.REPUL.0>
0

>  <SCORE.INTRA.SOLV>
-0.541713

>  <SCORE.INTRA.SOLV.lig_0>
-19.4148

>  <SCORE.INTRA.VDW>
-5.12476

>  <SCORE.INTRA.VDW.0>
5.42093

>  <SCORE.INTRA.norm>
-0.169452

>  <SCORE.RESTR>
0

>  <SCORE.RESTR.CAVITY>
0

>  <SCORE.RESTR.norm>
0

>  <SCORE.SYSTEM>
0

>  <SCORE.SYSTEM.CONST>
0

>  <SCORE.SYSTEM.DIHEDRAL>
0

>  <SCORE.SYSTEM.SOLV>
0

>  <SCORE.SYSTEM.norm>
0

>  <SCORE.heavy>
27

>  <SCORE.norm>
-1.19829

>  <RMSD>
6.765

$$$$
lig.pdb
 OpenBabel11021811523D
libRbt.so/2013.1/901 2013/11/27
 27 30  0  0  0  0  0  0  0  0999 V2000
   26.9850   39.8802   21.5148 N   0  0  0  0  0  0  0  0  0  0  0  0
   27.6313   39.3614   22.5294 C   0  0  0  0  0  0  0  0  0  0  0  0
   28.1776   40.0737   23.5469 N   0  0  0  0  0  0  0  0  0  0  0  0
   28.0121   41.4300   23.5588 C   0  0  0  0  0  0  0  0  0  0  0  0
   27.3272   42.0530   22.5552 C   0  0  0  0  0  0  0  0  0  0  0  0
   26.7982   41.2611   21.4704 C   0  0  0  0  0  0  0  0  0  0  0  0
   26.2129   41.7587   20.5005 O   0  0  0  0  0  0  0  0  0  0  0  0
   28.0137   37.8665   22.5972 C   0  0  2  0  0  0  0  0  0  0  0  0
   27.4918   37.3414   21.2498 C   0  0  0  0  0  0  0  0  0  0  0  0
   27.5240   35.8790   21.1884 N   0  0  0  0  0  0  0  0  0  0  0  0
   26.6318   35.3346   22.2247 C   0  0  0  0  0  0  0  0  0  0  0  0
   27.1174   35.7173   23.6089 C   0  0  0  0  0  0  0  0  0  0  0  0
   27.2220   37.2294   23.7518 C   0  0  0  0  0  0  0  0  0  0  0  0
   28.6133   42.0542   24.7297 C   0  0  0  0  0  0  0  0  0  0  0  0
   29.1454   41.1191   26.0778 S   0  0  0  0  0  0  0  0  0  0  0  0
   29.6311   42.4881   26.9148 C   0  0  0  0  0  0  0  0  0  0  0  0
   29.4496   43.6040   26.1972 C   0  0  0  0  0  0  0  0  0  0  0  0
   28.8576   43.3751   24.9398 C   0  0  0  0  0  0  0  0  0  0  0  0
   27.1341   35.3748   19.8598 C   0  0  0  0  0  0  0  0  0  0  0  0
   28.0949   35.6844   18.7336 C   0  0  0  0  0  0  0  0  0  0  0  0
   28.4951   34.6995   17.8423 C   0  0  0  0  0  0  0  0  0  0  0  0
   29.5840   34.7842   17.0568 N   0  0  0  0  0  0  0  0  0  0  0  0
   30.2912   35.8913   17.2262 C   0  0  0  0  0  0  0  0  0  0  0  0
   30.0621   36.8941   18.0588 N   0  0  0  0  0  0  0  0  0  0  0  0
   28.9668   36.7502   18.8193 C   0  0  0  0  0  0  0  0  0  0  0  0
   31.3781   35.9678   16.4497 O   0  0  0  0  0  0  0  0  0  0  0  0
   32.2652   37.0723   16.6614 C   0  0  0  0  0  0  0  0  0  0  0  0
  1  2  2  0  0  0  0
  1  6  1  0  0  0  0
  2  3  1  0  0  0  0
  3  4  2  0  0  0  0
  4 14  1  0  0  0  0
  5  4  1  0  0  0  0
  6  5  1  0  0  0  0
  7  6  2  0  0  0  0
  8  9  1  0  0  0  0
  8  2  1  6  0  0  0
 10 19  1  0  0  0  0
 10  9  1  0  0  0  0
 11 10  1  0  0  0  0
 12 11  1  0  0  0  0
 12 13  1  0  0  0  0
 13  8  1  0  0  0  0
 14 15  1  0  0  0  0
 14 18  2  0  0  0  0
 15 16  1  0  0  0  0
 16 17  2  0  0  0  0
 18 17  1  0  0  0  0
 19 20  1  0  0  0  0
 20 25  2  0  0  0  0
 20 21  1  0  0  0  0
 21 22  2  0  0  0  0
 22 23  1  0  0  0  0
 23 26  1  0  0  0  0
 24 23  2  0  0  0  0
 25 24  1  0  0  0  0
 26 27  1  0  0  0  0
M  END
>  <CHROM.1>
-12.50489505,1.80198846,67.40369611,132.57534630,-174.20688804,28.45784335
38.63120187,21.63059993,-1.74854522,-0.95140403,-2.43395401

>  <Name>
lig.pdb

>  <RI>
0

>  <Rbt.Current_Directory>
/home/itssahil/PROJECTS/Mol_Feturizer/New_Systems/rnas/5kx9

>  <Rbt.Executable>
rbdock ($Id: //depot/dev/client3/rdock/2013.1/src/exe/rbdock.cxx#4 $)

>  <Rbt.Library>
libRbt.so (2013.1, Build901 2013/11/27)

>  <Rbt.Parameter_File>
/export/apps/rDock/src/rDock_2013.1_src/data/scripts/dock_solv.prm

>  <Rbt.Receptor>
prm/pocket_docking_6.prm

>  <SCORE>
-32.8167

>  <SCORE.INTER>
-30.7404

>  <SCORE.INTER.CONST>
1

>  <SCORE.INTER.POLAR>
0

>  <SCORE.INTER.ROT>
5

>  <SCORE.INTER.SOLV>
13.21

>  <SCORE.INTER.VDW>
-31.8303

>  <SCORE.INTER.norm>
-1.13853

>  <SCORE.INTRA>
-2.07631

>  <SCORE.INTRA.DIHEDRAL>
-0.498218

>  <SCORE.INTRA.DIHEDRAL.0>
2.68224

>  <SCORE.INTRA.POLAR>
0

>  <SCORE.INTRA.POLAR.0>
0

>  <SCORE.INTRA.REPUL>
0

>  <SCORE.INTRA.REPUL.0>
0

>  <SCORE.INTRA.SOLV>
-0.391425

>  <SCORE.INTRA.SOLV.lig_0>
-19.4148

>  <SCORE.INTRA.VDW>
-1.63149

>  <SCORE.INTRA.VDW.0>
5.42093

>  <SCORE.INTRA.norm>
-0.0769004

>  <SCORE.RESTR>
0

>  <SCORE.RESTR.CAVITY>
0

>  <SCORE.RESTR.norm>
0

>  <SCORE.SYSTEM>
0

>  <SCORE.SYSTEM.CONST>
0

>  <SCORE.SYSTEM.DIHEDRAL>
0

>  <SCORE.SYSTEM.SOLV>
0

>  <SCORE.SYSTEM.norm>
0

>  <SCORE.heavy>
27

>  <SCORE.norm>
-1.21543

>  <RMSD>
6.769

$$$$
lig.pdb
 OpenBabel11021811523D
libRbt.so/2013.1/901 2013/11/27
 27 30  0  0  0  0  0  0  0  0999 V2000
   29.0753   41.7639   21.1964 N   0  0  0  0  0  0  0  0  0  0  0  0
   28.6400   40.6735   20.6152 C   0  0  0  0  0  0  0  0  0  0  0  0
   28.2039   39.5674   21.2690 N   0  0  0  0  0  0  0  0  0  0  0  0
   28.1625   39.5884   22.6347 C   0  0  0  0  0  0  0  0  0  0  0  0
   28.5708   40.6946   23.3231 C   0  0  0  0  0  0  0  0  0  0  0  0
   29.0666   41.8342   22.5889 C   0  0  0  0  0  0  0  0  0  0  0  0
   29.5027   42.8509   23.1431 O   0  0  0  0  0  0  0  0  0  0  0  0
   28.7435   40.4434   19.0915 C   0  0  2  0  0  0  0  0  0  0  0  0
   30.0872   39.7064   18.9697 C   0  0  0  0  0  0  0  0  0  0  0  0
   30.5211   39.5962   17.5759 N   0  0  0  0  0  0  0  0  0  0  0  0
   30.7325   40.9466   17.0300 C   0  0  0  0  0  0  0  0  0  0  0  0
   29.4353   41.7310   17.0156 C   0  0  0  0  0  0  0  0  0  0  0  0
   28.8360   41.8204   18.4122 C   0  0  0  0  0  0  0  0  0  0  0  0
   27.6341   38.3519   23.1950 C   0  0  0  0  0  0  0  0  0  0  0  0
   27.4679   36.9262   22.2383 S   0  0  0  0  0  0  0  0  0  0  0  0
   26.8201   36.0652   23.5227 C   0  0  0  0  0  0  0  0  0  0  0  0
   26.7724   36.7974   24.6428 C   0  0  0  0  0  0  0  0  0  0  0  0
   27.2294   38.1188   24.4719 C   0  0  0  0  0  0  0  0  0  0  0  0
   31.7484   38.7917   17.4429 C   0  0  0  0  0  0  0  0  0  0  0  0
   31.5651   37.4084   16.8595 C   0  0  0  0  0  0  0  0  0  0  0  0
   30.3015   36.8550   16.7118 C   0  0  0  0  0  0  0  0  0  0  0  0
   30.0633   35.5412   16.5469 N   0  0  0  0  0  0  0  0  0  0  0  0
   31.1501   34.7844   16.5743 C   0  0  0  0  0  0  0  0  0  0  0  0
   32.4081   35.1578   16.7461 N   0  0  0  0  0  0  0  0  0  0  0  0
   32.5819   36.4774   16.9112 C   0  0  0  0  0  0  0  0  0  0  0  0
   30.9084   33.4777   16.4189 O   0  0  0  0  0  0  0  0  0  0  0  0
   31.7440   32.7548   15.5074 C   0  0  0  0  0  0  0  0  0  0  0  0
  1  2  2  0  0  0  0
  1  6  1  0  0  0  0
  2  3  1  0  0  0  0
  3  4  2  0  0  0  0
  4 14  1  0  0  0  0
  5  4  1  0  0  0  0
  6  5  1  0  0  0  0
  7  6  2  0  0  0  0
  8  9  1  0  0  0  0
  8  2  1  1  0  0  0
 10 19  1  0  0  0  0
 10  9  1  0  0  0  0
 11 10  1  0  0  0  0
 12 11  1  0  0  0  0
 12 13  1  0  0  0  0
 13  8  1  0  0  0  0
 14 15  1  0  0  0  0
 14 18  2  0  0  0  0
 15 16  1  0  0  0  0
 16 17  2  0  0  0  0
 18 17  1  0  0  0  0
 19 20  1  0  0  0  0
 20 25  2  0  0  0  0
 20 21  1  0  0  0  0
 21 22  2  0  0  0  0
 22 23  1  0  0  0  0
 23 26  1  0  0  0  0
 24 23  2  0  0  0  0
 25 24  1  0  0  0  0
 26 27  1  0  0  0  0
M  END
>  <CHROM.1>
13.99257846,92.19348701,106.55962421,-12.05016392,134.29476697,29.48738021
38.38691242,19.72266973,-2.55115496,-1.07832211,-3.08137709

>  <Name>
lig.pdb

>  <RI>
0

>  <Rbt.Current_Directory>
/home/itssahil/PROJECTS/Mol_Feturizer/New_Systems/rnas/5kx9

>  <Rbt.Executable>
rbdock ($Id: //depot/dev/client3/rdock/2013.1/src/exe/rbdock.cxx#4 $)

>  <Rbt.Library>
libRbt.so (2013.1, Build901 2013/11/27)

>  <Rbt.Parameter_File>
/export/apps/rDock/src/rDock_2013.1_src/data/scripts/dock_solv.prm

>  <Rbt.Receptor>
prm/pocket_docking_7.prm

>  <SCORE>
-30.9085

>  <SCORE.INTER>
-26.9386

>  <SCORE.INTER.CONST>
1

>  <SCORE.INTER.POLAR>
0

>  <SCORE.INTER.ROT>
5

>  <SCORE.INTER.SOLV>
10.9962

>  <SCORE.INTER.VDW>
-28.5578

>  <SCORE.INTER.norm>
-0.997727

>  <SCORE.INTRA>
-3.96986

>  <SCORE.INTRA.DIHEDRAL>
4.11207

>  <SCORE.INTRA.DIHEDRAL.0>
2.68224

>  <SCORE.INTRA.POLAR>
0

>  <SCORE.INTRA.POLAR.0>
0

>  <SCORE.INTRA.REPUL>
0

>  <SCORE.INTRA.REPUL.0>
0

>  <SCORE.INTRA.SOLV>
-0.554236

>  <SCORE.INTRA.SOLV.lig_0>
-19.4148

>  <SCORE.INTRA.VDW>
-5.74878

>  <SCORE.INTRA.VDW.0>
5.42093

>  <SCORE.INTRA.norm>
-0.147032

>  <SCORE.RESTR>
0

>  <SCORE.RESTR.CAVITY>
0

>  <SCORE.RESTR.norm>
0

>  <SCORE.SYSTEM>
0

>  <SCORE.SYSTEM.CONST>
0

>  <SCORE.SYSTEM.DIHEDRAL>
0

>  <SCORE.SYSTEM.SOLV>
0

>  <SCORE.SYSTEM.norm>
0

>  <SCORE.heavy>
27

>  <SCORE.norm>
-1.14476

>  <RMSD>
6.783

$$$$
lig.pdb
 OpenBabel11021811523D
libRbt.so/2013.1/901 2013/11/27
 27 30  0  0  0  0  0  0  0  0999 V2000
   28.9866   41.4053   21.1361 N   0  0  0  0  0  0  0  0  0  0  0  0
   28.5678   40.2957   20.5797 C   0  0  0  0  0  0  0  0  0  0  0  0
   28.0897   39.2212   21.2565 N   0  0  0  0  0  0  0  0  0  0  0  0
   27.9840   39.2988   22.6166 C   0  0  0  0  0  0  0  0  0  0  0  0
   28.3709   40.4289   23.2781 C   0  0  0  0  0  0  0  0  0  0  0  0
   28.9129   41.5330   22.5225 C   0  0  0  0  0  0  0  0  0  0  0  0
   29.3330   42.5678   23.0550 O   0  0  0  0  0  0  0  0  0  0  0  0
   28.7409   40.0022   19.0733 C   0  0  2  0  0  0  0  0  0  0  0  0
   30.1871   39.4843   19.0122 C   0  0  0  0  0  0  0  0  0  0  0  0
   30.6642   39.3690   17.6330 N   0  0  0  0  0  0  0  0  0  0  0  0
   30.6702   40.7039   17.0132 C   0  0  0  0  0  0  0  0  0  0  0  0
   29.2653   41.2684   16.9361 C   0  0  0  0  0  0  0  0  0  0  0  0
   28.6282   41.3369   18.3171 C   0  0  0  0  0  0  0  0  0  0  0  0
   27.4166   38.0911   23.2010 C   0  0  0  0  0  0  0  0  0  0  0  0
   26.8404   38.0598   24.8265 S   0  0  0  0  0  0  0  0  0  0  0  0
   26.4251   36.4394   24.7136 C   0  0  0  0  0  0  0  0  0  0  0  0
   26.6612   35.9463   23.4913 C   0  0  0  0  0  0  0  0  0  0  0  0
   27.2392   36.8800   22.6091 C   0  0  0  0  0  0  0  0  0  0  0  0
   32.0066   38.7654   17.5631 C   0  0  0  0  0  0  0  0  0  0  0  0
   32.0464   37.2956   17.2088 C   0  0  0  0  0  0  0  0  0  0  0  0
   32.9288   36.8127   16.2533 C   0  0  0  0  0  0  0  0  0  0  0  0
   32.7977   35.6279   15.6296 N   0  0  0  0  0  0  0  0  0  0  0  0
   31.7132   34.9498   15.9738 C   0  0  0  0  0  0  0  0  0  0  0  0
   30.7659   35.2939   16.8316 N   0  0  0  0  0  0  0  0  0  0  0  0
   30.9481   36.4869   17.4167 C   0  0  0  0  0  0  0  0  0  0  0  0
   31.5818   33.7762   15.3450 O   0  0  0  0  0  0  0  0  0  0  0  0
   30.9541   32.7079   16.0636 C   0  0  0  0  0  0  0  0  0  0  0  0
  1  2  2  0  0  0  0
  1  6  1  0  0  0  0
  2  3  1  0  0  0  0
  3  4  2  0  0  0  0
  4 14  1  0  0  0  0
  5  4  1  0  0  0  0
  6  5  1  0  0  0  0
  7  6  2  0  0  0  0
  8  9  1  0  0  0  0
  8  2  1  1  0  0  0
 10 19  1  0  0  0  0
 10  9  1  0  0  0  0
 11 10  1  0  0  0  0
 12 11  1  0  0  0  0
 12 13  1  0  0  0  0
 13  8  1  0  0  0  0
 14 15  1  0  0  0  0
 14 18  2  0  0  0  0
 15 16  1  0  0  0  0
 16 17  2  0  0  0  0
 18 17  1  0  0  0  0
 19 20  1  0  0  0  0
 20 25  2  0  0  0  0
 20 21  1  0  0  0  0
 21 22  2  0  0  0  0
 22 23  1  0  0  0  0
 23 26  1  0  0  0  0
 24 23  2  0  0  0  0
 25 24  1  0  0  0  0
 26 27  1  0  0  0  0
M  END
>  <CHROM.1>
-165.62115890,82.26723794,99.91090923,133.46562266,147.45970725,29.48238763
38.28109769,19.80635999,-2.71845636,-1.04765771,-3.09012947

>  <Name>
lig.pdb

>  <RI>
0

>  <Rbt.Current_Directory>
/home/itssahil/PROJECTS/Mol_Feturizer/New_Systems/rnas/5kx9

>  <Rbt.Executable>
rbdock ($Id: //depot/dev/client3/rdock/2013.1/src/exe/rbdock.cxx#4 $)

>  <Rbt.Library>
libRbt.so (2013.1, Build901 2013/11/27)

>  <Rbt.Parameter_File>
/export/apps/rDock/src/rDock_2013.1_src/data/scripts/dock_solv.prm

>  <Rbt.Receptor>
prm/blind_docking_80.prm

>  <SCORE>
-32.0394

>  <SCORE.INTER>
-27.6289

>  <SCORE.INTER.CONST>
1

>  <SCORE.INTER.POLAR>
0

>  <SCORE.INTER.ROT>
5

>  <SCORE.INTER.SOLV>
11.0721

>  <SCORE.INTER.VDW>
-29.0433

>  <SCORE.INTER.norm>
-1.02329

>  <SCORE.INTRA>
-4.41046

>  <SCORE.INTRA.DIHEDRAL>
2.35483

>  <SCORE.INTRA.DIHEDRAL.0>
2.68224

>  <SCORE.INTRA.POLAR>
0

>  <SCORE.INTRA.POLAR.0>
0

>  <SCORE.INTRA.REPUL>
0

>  <SCORE.INTRA.REPUL.0>
0

>  <SCORE.INTRA.SOLV>
-0.555297

>  <SCORE.INTRA.SOLV.lig_0>
-19.4148

>  <SCORE.INTRA.VDW>
-5.31023

>  <SCORE.INTRA.VDW.0>
5.42093

>  <SCORE.INTRA.norm>
-0.163351

>  <SCORE.RESTR>
0

>  <SCORE.RESTR.CAVITY>
0

>  <SCORE.RESTR.norm>
0

>  <SCORE.SYSTEM>
0

>  <SCORE.SYSTEM.CONST>
0

>  <SCORE.SYSTEM.DIHEDRAL>
0

>  <SCORE.SYSTEM.SOLV>
0

>  <SCORE.SYSTEM.norm>
0

>  <SCORE.heavy>
27

>  <SCORE.norm>
-1.18664

>  <RMSD>
6.797

$$$$
lig.pdb
 OpenBabel11021811523D
libRbt.so/2013.1/901 2013/11/27
 27 30  0  0  0  0  0  0  0  0999 V2000
   24.5542   42.0962   20.6612 N   0  0  0  0  0  0  0  0  0  0  0  0
   25.8482   41.9463   20.8001 C   0  0  0  0  0  0  0  0  0  0  0  0
   26.7498   42.0133   19.7884 N   0  0  0  0  0  0  0  0  0  0  0  0
   26.3016   42.3050   18.5310 C   0  0  0  0  0  0  0  0  0  0  0  0
   24.9709   42.5049   18.2989 C   0  0  0  0  0  0  0  0  0  0  0  0
   24.0415   42.3830   19.3967 C   0  0  0  0  0  0  0  0  0  0  0  0
   22.8178   42.4979   19.2550 O   0  0  0  0  0  0  0  0  0  0  0  0
   26.4960   41.4866   22.1247 C   0  0  2  0  0  0  0  0  0  0  0  0
   27.4235   42.6676   22.4541 C   0  0  0  0  0  0  0  0  0  0  0  0
   28.3354   42.3506   23.5546 N   0  0  0  0  0  0  0  0  0  0  0  0
   29.2054   41.2340   23.1515 C   0  0  0  0  0  0  0  0  0  0  0  0
   28.3905   39.9817   22.8945 C   0  0  0  0  0  0  0  0  0  0  0  0
   27.3312   40.2291   21.8295 C   0  0  0  0  0  0  0  0  0  0  0  0
   27.3835   42.3861   17.5588 C   0  0  0  0  0  0  0  0  0  0  0  0
   29.0354   42.2390   18.0328 S   0  0  0  0  0  0  0  0  0  0  0  0
   29.5709   42.4607   16.4596 C   0  0  0  0  0  0  0  0  0  0  0  0
   28.5539   42.5917   15.5985 C   0  0  0  0  0  0  0  0  0  0  0  0
   27.2872   42.5592   16.2137 C   0  0  0  0  0  0  0  0  0  0  0  0
   29.1466   43.5152   23.9507 C   0  0  0  0  0  0  0  0  0  0  0  0
   29.9246   43.3643   25.2389 C   0  0  0  0  0  0  0  0  0  0  0  0
   31.2455   43.7782   25.3306 C   0  0  0  0  0  0  0  0  0  0  0  0
   32.1031   43.3725   26.2845 N   0  0  0  0  0  0  0  0  0  0  0  0
   31.5940   42.4933   27.1344 C   0  0  0  0  0  0  0  0  0  0  0  0
   30.3758   41.9766   27.1518 N   0  0  0  0  0  0  0  0  0  0  0  0
   29.5690   42.4141   26.1738 C   0  0  0  0  0  0  0  0  0  0  0  0
   32.4525   42.0855   28.0761 O   0  0  0  0  0  0  0  0  0  0  0  0
   33.6481   41.4280   27.6405 C   0  0  0  0  0  0  0  0  0  0  0  0
  1  2  2  0  0  0  0
  1  6  1  0  0  0  0
  2  3  1  0  0  0  0
  3  4  2  0  0  0  0
  4 14  1  0  0  0  0
  5  4  1  0  0  0  0
  6  5  1  0  0  0  0
  7  6  2  0  0  0  0
  8  9  1  0  0  0  0
  8  2  1  6  0  0  0
 10 19  1  0  0  0  0
 10  9  1  0  0  0  0
 11 10  1  0  0  0  0
 12 11  1  0  0  0  0
 12 13  1  0  0  0  0
 13  8  1  0  0  0  0
 14 15  1  0  0  0  0
 14 18  2  0  0  0  0
 15 16  1  0  0  0  0
 16 17  2  0  0  0  0
 18 17  1  0  0  0  0
 19 20  1  0  0  0  0
 20 25  2  0  0  0  0
 20 21  1  0  0  0  0
 21 22  2  0  0  0  0
 22 23  1  0  0  0  0
 23 26  1  0  0  0  0
 24 23  2  0  0  0  0
 25 24  1  0  0  0  0
 26 27  1  0  0  0  0
M  END
>  <CHROM.1>
-4.30045501,-120.53219177,168.91260014,135.87850528,-60.47963743,28.36819873
42.22152585,21.87393617,2.09951938,-0.07054535,-1.53790945

>  <Name>
lig.pdb

>  <RI>
0

>  <Rbt.Current_Directory>
/home/itssahil/PROJECTS/Mol_Feturizer/New_Systems/rnas/5kx9

>  <Rbt.Executable>
rbdock ($Id: //depot/dev/client3/rdock/2013.1/src/exe/rbdock.cxx#4 $)

>  <Rbt.Library>
libRbt.so (2013.1, Build901 2013/11/27)

>  <Rbt.Parameter_File>
/export/apps/rDock/src/rDock_2013.1_src/data/scripts/dock_solv.prm

>  <Rbt.Receptor>
prm/pocket_docking_8.prm

>  <SCORE>
-32.73

>  <SCORE.INTER>
-28.1874

>  <SCORE.INTER.CONST>
1

>  <SCORE.INTER.POLAR>
0

>  <SCORE.INTER.ROT>
5

>  <SCORE.INTER.SOLV>
18.4444

>  <SCORE.INTER.VDW>
-31.8731

>  <SCORE.INTER.norm>
-1.04398

>  <SCORE.INTRA>
-4.54268

>  <SCORE.INTRA.DIHEDRAL>
2.614

>  <SCORE.INTRA.DIHEDRAL.0>
2.68224

>  <SCORE.INTRA.POLAR>
0

>  <SCORE.INTRA.POLAR.0>
0

>  <SCORE.INTRA.REPUL>
0

>  <SCORE.INTRA.REPUL.0>
0

>  <SCORE.INTRA.SOLV>
-0.388453

>  <SCORE.INTRA.SOLV.lig_0>
-19.4148

>  <SCORE.INTRA.VDW>
-5.65545

>  <SCORE.INTRA.VDW.0>
5.42093

>  <SCORE.INTRA.norm>
-0.168247

>  <SCORE.RESTR>
0

>  <SCORE.RESTR.CAVITY>
0

>  <SCORE.RESTR.norm>
0

>  <SCORE.SYSTEM>
0

>  <SCORE.SYSTEM.CONST>
0

>  <SCORE.SYSTEM.DIHEDRAL>
0

>  <SCORE.SYSTEM.SOLV>
0

>  <SCORE.SYSTEM.norm>
0

>  <SCORE.heavy>
27

>  <SCORE.norm>
-1.21222

>  <RMSD>
6.799

$$$$
lig.pdb
 OpenBabel11021811523D
libRbt.so/2013.1/901 2013/11/27
 27 30  0  0  0  0  0  0  0  0999 V2000
   27.9558   39.8020   17.4415 N   0  0  0  0  0  0  0  0  0  0  0  0
   27.8682   38.4973   17.5206 C   0  0  0  0  0  0  0  0  0  0  0  0
   28.7345   37.6255   16.9455 N   0  0  0  0  0  0  0  0  0  0  0  0
   29.8118   38.1243   16.2689 C   0  0  0  0  0  0  0  0  0  0  0  0
   29.9979   39.4726   16.1602 C   0  0  0  0  0  0  0  0  0  0  0  0
   29.0292   40.3643   16.7519 C   0  0  0  0  0  0  0  0  0  0  0  0
   29.1013   41.5953   16.6505 O   0  0  0  0  0  0  0  0  0  0  0  0
   26.6460   37.7801   18.1350 C   0  0  2  0  0  0  0  0  0  0  0  0
   27.3107   36.7847   19.0998 C   0  0  0  0  0  0  0  0  0  0  0  0
   26.3491   35.8137   19.6248 N   0  0  0  0  0  0  0  0  0  0  0  0
   25.8098   35.0198   18.5089 C   0  0  0  0  0  0  0  0  0  0  0  0
   25.0455   35.9010   17.5407 C   0  0  0  0  0  0  0  0  0  0  0  0
   25.9295   37.0194   17.0064 C   0  0  0  0  0  0  0  0  0  0  0  0
   30.6746   37.0744   15.7441 C   0  0  0  0  0  0  0  0  0  0  0  0
   32.1913   37.4371   15.0071 S   0  0  0  0  0  0  0  0  0  0  0  0
   32.4919   35.8195   14.6851 C   0  0  0  0  0  0  0  0  0  0  0  0
   31.5194   35.0270   15.1531 C   0  0  0  0  0  0  0  0  0  0  0  0
   30.4610   35.7317   15.7589 C   0  0  0  0  0  0  0  0  0  0  0  0
   26.9549   34.9303   20.6366 C   0  0  0  0  0  0  0  0  0  0  0  0
   27.1437   35.5382   22.0085 C   0  0  0  0  0  0  0  0  0  0  0  0
   26.3761   35.1242   23.0873 C   0  0  0  0  0  0  0  0  0  0  0  0
   26.2214   35.8284   24.2231 N   0  0  0  0  0  0  0  0  0  0  0  0
   26.8414   36.9990   24.2252 C   0  0  0  0  0  0  0  0  0  0  0  0
   27.5705   37.5451   23.2652 N   0  0  0  0  0  0  0  0  0  0  0  0
   27.6835   36.7993   22.1562 C   0  0  0  0  0  0  0  0  0  0  0  0
   26.6780   37.7003   25.3528 O   0  0  0  0  0  0  0  0  0  0  0  0
   27.0479   39.0839   25.3301 C   0  0  0  0  0  0  0  0  0  0  0  0
  1  2  2  0  0  0  0
  1  6  1  0  0  0  0
  2  3  1  0  0  0  0
  3  4  2  0  0  0  0
  4 14  1  0  0  0  0
  5  4  1  0  0  0  0
  6  5  1  0  0  0  0
  7  6  2  0  0  0  0
  8  9  1  0  0  0  0
  8  2  1  6  0  0  0
 10 19  1  0  0  0  0
 10  9  1  0  0  0  0
 11 10  1  0  0  0  0
 12 11  1  0  0  0  0
 12 13  1  0  0  0  0
 13  8  1  0  0  0  0
 14 15  1  0  0  0  0
 14 18  2  0  0  0  0
 15 16  1  0  0  0  0
 16 17  2  0  0  0  0
 18 17  1  0  0  0  0
 19 20  1  0  0  0  0
 20 25  2  0  0  0  0
 20 21  1  0  0  0  0
 21 22  2  0  0  0  0
 22 23  1  0  0  0  0
 23 26  1  0  0  0  0
 24 23  2  0  0  0  0
 25 24  1  0  0  0  0
 26 27  1  0  0  0  0
M  END
>  <CHROM.1>
-172.98468539,-131.11520594,77.19080645,109.82332624,-166.09742922,28.28306345
37.24297781,18.91722926,-0.36565770,1.06758118,0.51197253

>  <Name>
lig.pdb

>  <RI>
0

>  <Rbt.Current_Directory>
/home/itssahil/PROJECTS/Mol_Feturizer/New_Systems/rnas/5kx9

>  <Rbt.Executable>
rbdock ($Id: //depot/dev/client3/rdock/2013.1/src/exe/rbdock.cxx#4 $)

>  <Rbt.Library>
libRbt.so (2013.1, Build901 2013/11/27)

>  <Rbt.Parameter_File>
/export/apps/rDock/src/rDock_2013.1_src/data/scripts/dock_solv.prm

>  <Rbt.Receptor>
prm/blind_docking_100.prm

>  <SCORE>
-30.6977

>  <SCORE.INTER>
-26.9373

>  <SCORE.INTER.CONST>
1

>  <SCORE.INTER.POLAR>
0

>  <SCORE.INTER.ROT>
5

>  <SCORE.INTER.SOLV>
13.4211

>  <SCORE.INTER.VDW>
-29.3652

>  <SCORE.INTER.norm>
-0.997678

>  <SCORE.INTRA>
-3.76039

>  <SCORE.INTRA.DIHEDRAL>
-0.148258

>  <SCORE.INTRA.DIHEDRAL.0>
2.68224

>  <SCORE.INTRA.POLAR>
0

>  <SCORE.INTRA.POLAR.0>
0

>  <SCORE.INTRA.REPUL>
0

>  <SCORE.INTRA.REPUL.0>
0

>  <SCORE.INTRA.SOLV>
-0.450351

>  <SCORE.INTRA.SOLV.lig_0>
-19.4148

>  <SCORE.INTRA.VDW>
-3.46109

>  <SCORE.INTRA.VDW.0>
5.42093

>  <SCORE.INTRA.norm>
-0.139274

>  <SCORE.RESTR>
0

>  <SCORE.RESTR.CAVITY>
0

>  <SCORE.RESTR.norm>
0

>  <SCORE.SYSTEM>
0

>  <SCORE.SYSTEM.CONST>
0

>  <SCORE.SYSTEM.DIHEDRAL>
0

>  <SCORE.SYSTEM.SOLV>
0

>  <SCORE.SYSTEM.norm>
0

>  <SCORE.heavy>
27

>  <SCORE.norm>
-1.13695

>  <RMSD>
6.815

$$$$
lig.pdb
 OpenBabel11021811523D
libRbt.so/2013.1/901 2013/11/27
 27 30  0  0  0  0  0  0  0  0999 V2000
   27.2514   38.5169   23.8756 N   0  0  0  0  0  0  0  0  0  0  0  0
   27.7445   39.4418   23.0898 C   0  0  0  0  0  0  0  0  0  0  0  0
   28.4162   40.5420   23.5133 N   0  0  0  0  0  0  0  0  0  0  0  0
   28.6482   40.6920   24.8515 C   0  0  0  0  0  0  0  0  0  0  0  0
   28.1947   39.7613   25.7417 C   0  0  0  0  0  0  0  0  0  0  0  0
   27.4484   38.6271   25.2515 C   0  0  0  0  0  0  0  0  0  0  0  0
   26.9608   37.7710   26.0000 O   0  0  0  0  0  0  0  0  0  0  0  0
   27.4577   39.4857   21.5727 C   0  0  2  0  0  0  0  0  0  0  0  0
   28.1711   38.2180   21.0754 C   0  0  0  0  0  0  0  0  0  0  0  0
   28.2444   38.1748   19.6139 N   0  0  0  0  0  0  0  0  0  0  0  0
   29.0404   39.3179   19.1385 C   0  0  0  0  0  0  0  0  0  0  0  0
   28.3681   40.6286   19.4965 C   0  0  0  0  0  0  0  0  0  0  0  0
   28.1463   40.7356   20.9988 C   0  0  0  0  0  0  0  0  0  0  0  0
   29.4150   41.8935   25.1527 C   0  0  0  0  0  0  0  0  0  0  0  0
   29.9074   42.9846   23.9109 S   0  0  0  0  0  0  0  0  0  0  0  0
   30.6917   43.9788   25.0097 C   0  0  0  0  0  0  0  0  0  0  0  0
   30.5526   43.5419   26.2677 C   0  0  0  0  0  0  0  0  0  0  0  0
   29.8274   42.3387   26.3693 C   0  0  0  0  0  0  0  0  0  0  0  0
   28.8235   36.9097   19.1285 C   0  0  0  0  0  0  0  0  0  0  0  0
   27.9573   35.6825   19.3047 C   0  0  0  0  0  0  0  0  0  0  0  0
   28.1792   34.5357   18.5563 C   0  0  0  0  0  0  0  0  0  0  0  0
   27.2745   33.5548   18.3849 N   0  0  0  0  0  0  0  0  0  0  0  0
   26.1071   33.7847   18.9669 C   0  0  0  0  0  0  0  0  0  0  0  0
   25.7340   34.8399   19.6732 N   0  0  0  0  0  0  0  0  0  0  0  0
   26.6755   35.7861   19.8044 C   0  0  0  0  0  0  0  0  0  0  0  0
   25.2072   32.8112   18.7868 O   0  0  0  0  0  0  0  0  0  0  0  0
   24.5312   32.7612   17.5250 C   0  0  0  0  0  0  0  0  0  0  0  0
  1  2  2  0  0  0  0
  1  6  1  0  0  0  0
  2  3  1  0  0  0  0
  3  4  2  0  0  0  0
  4 14  1  0  0  0  0
  5  4  1  0  0  0  0
  6  5  1  0  0  0  0
  7  6  2  0  0  0  0
  8  9  1  0  0  0  0
  8  2  1  1  0  0  0
 10 19  1  0  0  0  0
 10  9  1  0  0  0  0
 11 10  1  0  0  0  0
 12 11  1  0  0  0  0
 12 13  1  0  0  0  0
 13  8  1  0  0  0  0
 14 15  1  0  0  0  0
 14 18  2  0  0  0  0
 15 16  1  0  0  0  0
 16 17  2  0  0  0  0
 18 17  1  0  0  0  0
 19 20  1  0  0  0  0
 20 25  2  0  0  0  0
 20 21  1  0  0  0  0
 21 22  2  0  0  0  0
 22 23  1  0  0  0  0
 23 26  1  0  0  0  0
 24 23  2  0  0  0  0
 25 24  1  0  0  0  0
 26 27  1  0  0  0  0
M  END
>  <CHROM.1>
1.49955928,-66.70599746,70.20994518,160.28304716,-78.23550397,28.01297781
38.56508687,21.93593385,0.92734774,1.06142815,1.25233304

>  <Name>
lig.pdb

>  <RI>
0

>  <Rbt.Current_Directory>
/home/itssahil/PROJECTS/Mol_Feturizer/New_Systems/rnas/5kx9

>  <Rbt.Executable>
rbdock ($Id: //depot/dev/client3/rdock/2013.1/src/exe/rbdock.cxx#4 $)

>  <Rbt.Library>
libRbt.so (2013.1, Build901 2013/11/27)

>  <Rbt.Parameter_File>
/export/apps/rDock/src/rDock_2013.1_src/data/scripts/dock_solv.prm

>  <Rbt.Receptor>
prm/blind_docking_80.prm

>  <SCORE>
-27.9405

>  <SCORE.INTER>
-25.6917

>  <SCORE.INTER.CONST>
1

>  <SCORE.INTER.POLAR>
0

>  <SCORE.INTER.ROT>
5

>  <SCORE.INTER.SOLV>
13.8932

>  <SCORE.INTER.VDW>
-28.6922

>  <SCORE.INTER.norm>
-0.951543

>  <SCORE.INTRA>
-2.24888

>  <SCORE.INTRA.DIHEDRAL>
3.77692

>  <SCORE.INTRA.DIHEDRAL.0>
2.68224

>  <SCORE.INTRA.POLAR>
0

>  <SCORE.INTRA.POLAR.0>
0

>  <SCORE.INTRA.REPUL>
0

>  <SCORE.INTRA.REPUL.0>
0

>  <SCORE.INTRA.SOLV>
-0.480512

>  <SCORE.INTRA.SOLV.lig_0>
-19.4148

>  <SCORE.INTRA.VDW>
-3.89708

>  <SCORE.INTRA.VDW.0>
5.42093

>  <SCORE.INTRA.norm>
-0.0832917

>  <SCORE.RESTR>
0

>  <SCORE.RESTR.CAVITY>
0

>  <SCORE.RESTR.norm>
0

>  <SCORE.SYSTEM>
0

>  <SCORE.SYSTEM.CONST>
0

>  <SCORE.SYSTEM.DIHEDRAL>
0

>  <SCORE.SYSTEM.SOLV>
0

>  <SCORE.SYSTEM.norm>
0

>  <SCORE.heavy>
27

>  <SCORE.norm>
-1.03483

>  <RMSD>
6.817

$$$$
lig.pdb
 OpenBabel11021811523D
libRbt.so/2013.1/901 2013/11/27
 27 30  0  0  0  0  0  0  0  0999 V2000
   27.0130   39.8620   21.5056 N   0  0  0  0  0  0  0  0  0  0  0  0
   27.6425   39.3379   22.5280 C   0  0  0  0  0  0  0  0  0  0  0  0
   28.1936   40.0463   23.5455 N   0  0  0  0  0  0  0  0  0  0  0  0
   28.0519   41.4054   23.5485 C   0  0  0  0  0  0  0  0  0  0  0  0
   27.3854   42.0345   22.5363 C   0  0  0  0  0  0  0  0  0  0  0  0
   26.8508   41.2458   21.4520 C   0  0  0  0  0  0  0  0  0  0  0  0
   26.2815   41.7479   20.4749 O   0  0  0  0  0  0  0  0  0  0  0  0
   27.9981   37.8370   22.6070 C   0  0  2  0  0  0  0  0  0  0  0  0
   27.5954   37.3387   21.2095 C   0  0  0  0  0  0  0  0  0  0  0  0
   27.6146   35.8771   21.1284 N   0  0  0  0  0  0  0  0  0  0  0  0
   26.6243   35.3304   22.0700 C   0  0  0  0  0  0  0  0  0  0  0  0
   26.9856   35.6862   23.4986 C   0  0  0  0  0  0  0  0  0  0  0  0
   27.0958   37.1944   23.6742 C   0  0  0  0  0  0  0  0  0  0  0  0
   28.6552   42.0258   24.7204 C   0  0  0  0  0  0  0  0  0  0  0  0
   29.2186   41.0837   26.0508 S   0  0  0  0  0  0  0  0  0  0  0  0
   29.6897   42.4508   26.8994 C   0  0  0  0  0  0  0  0  0  0  0  0
   29.4807   43.5720   26.1978 C   0  0  0  0  0  0  0  0  0  0  0  0
   28.8786   43.3481   24.9442 C   0  0  0  0  0  0  0  0  0  0  0  0
   27.3420   35.3976   19.7620 C   0  0  0  0  0  0  0  0  0  0  0  0
   28.4464   35.6270   18.7545 C   0  0  0  0  0  0  0  0  0  0  0  0
   28.9466   36.8991   18.5173 C   0  0  0  0  0  0  0  0  0  0  0  0
   29.6489   37.2462   17.4235 N   0  0  0  0  0  0  0  0  0  0  0  0
   29.8018   36.2685   16.5431 C   0  0  0  0  0  0  0  0  0  0  0  0
   29.3522   35.0255   16.6083 N   0  0  0  0  0  0  0  0  0  0  0  0
   28.6548   34.7407   17.7180 C   0  0  0  0  0  0  0  0  0  0  0  0
   30.4930   36.6199   15.4528 O   0  0  0  0  0  0  0  0  0  0  0  0
   31.8225   37.1173   15.6449 C   0  0  0  0  0  0  0  0  0  0  0  0
  1  2  2  0  0  0  0
  1  6  1  0  0  0  0
  2  3  1  0  0  0  0
  3  4  2  0  0  0  0
  4 14  1  0  0  0  0
  5  4  1  0  0  0  0
  6  5  1  0  0  0  0
  7  6  2  0  0  0  0
  8  9  1  0  0  0  0
  8  2  1  6  0  0  0
 10 19  1  0  0  0  0
 10  9  1  0  0  0  0
 11 10  1  0  0  0  0
 12 11  1  0  0  0  0
 12 13  1  0  0  0  0
 13  8  1  0  0  0  0
 14 15  1  0  0  0  0
 14 18  2  0  0  0  0
 15 16  1  0  0  0  0
 16 17  2  0  0  0  0
 18 17  1  0  0  0  0
 19 20  1  0  0  0  0
 20 25  2  0  0  0  0
 20 21  1  0  0  0  0
 21 22  2  0  0  0  0
 22 23  1  0  0  0  0
 23 26  1  0  0  0  0
 24 23  2  0  0  0  0
 25 24  1  0  0  0  0
 26 27  1  0  0  0  0
M  END
>  <CHROM.1>
-10.00522598,6.78158392,71.37998933,-56.12735677,58.25703391,28.40592883
38.68351446,21.44889634,-1.74778058,-1.11572560,-2.38034604

>  <Name>
lig.pdb

>  <RI>
0

>  <Rbt.Current_Directory>
/home/itssahil/PROJECTS/Mol_Feturizer/New_Systems/rnas/5kx9

>  <Rbt.Executable>
rbdock ($Id: //depot/dev/client3/rdock/2013.1/src/exe/rbdock.cxx#4 $)

>  <Rbt.Library>
libRbt.so (2013.1, Build901 2013/11/27)

>  <Rbt.Parameter_File>
/export/apps/rDock/src/rDock_2013.1_src/data/scripts/dock_solv.prm

>  <Rbt.Receptor>
prm/blind_docking_60.prm

>  <SCORE>
-33.4624

>  <SCORE.INTER>
-30.7385

>  <SCORE.INTER.CONST>
1

>  <SCORE.INTER.POLAR>
0

>  <SCORE.INTER.ROT>
5

>  <SCORE.INTER.SOLV>
12.4002

>  <SCORE.INTER.VDW>
-31.5591

>  <SCORE.INTER.norm>
-1.13846

>  <SCORE.INTRA>
-2.72395

>  <SCORE.INTRA.DIHEDRAL>
3.59505

>  <SCORE.INTRA.DIHEDRAL.0>
2.68224

>  <SCORE.INTRA.POLAR>
0

>  <SCORE.INTRA.POLAR.0>
0

>  <SCORE.INTRA.REPUL>
0

>  <SCORE.INTRA.REPUL.0>
0

>  <SCORE.INTRA.SOLV>
-0.534273

>  <SCORE.INTRA.SOLV.lig_0>
-19.4148

>  <SCORE.INTRA.VDW>
-4.25433

>  <SCORE.INTRA.VDW.0>
5.42093

>  <SCORE.INTRA.norm>
-0.100887

>  <SCORE.RESTR>
0

>  <SCORE.RESTR.CAVITY>
0

>  <SCORE.RESTR.norm>
0

>  <SCORE.SYSTEM>
0

>  <SCORE.SYSTEM.CONST>
0

>  <SCORE.SYSTEM.DIHEDRAL>
0

>  <SCORE.SYSTEM.SOLV>
0

>  <SCORE.SYSTEM.norm>
0

>  <SCORE.heavy>
27

>  <SCORE.norm>
-1.23935

>  <RMSD>
6.831

$$$$
lig.pdb
 OpenBabel11021811523D
libRbt.so/2013.1/901 2013/11/27
 27 30  0  0  0  0  0  0  0  0999 V2000
   29.0422   41.1433   21.1772 N   0  0  0  0  0  0  0  0  0  0  0  0
   28.6810   40.0160   20.6160 C   0  0  0  0  0  0  0  0  0  0  0  0
   28.1652   38.9502   21.2785 N   0  0  0  0  0  0  0  0  0  0  0  0
   27.9541   39.0562   22.6244 C   0  0  0  0  0  0  0  0  0  0  0  0
   28.2752   40.2058   23.2875 C   0  0  0  0  0  0  0  0  0  0  0  0
   28.8604   41.3004   22.5505 C   0  0  0  0  0  0  0  0  0  0  0  0
   29.2256   42.3524   23.0898 O   0  0  0  0  0  0  0  0  0  0  0  0
   28.9731   39.6919   19.1343 C   0  0  2  0  0  0  0  0  0  0  0  0
   30.4782   39.3803   19.1657 C   0  0  0  0  0  0  0  0  0  0  0  0
   31.0396   39.2800   17.8174 N   0  0  0  0  0  0  0  0  0  0  0  0
   30.8941   40.5777   17.1383 C   0  0  0  0  0  0  0  0  0  0  0  0
   29.4308   40.9360   16.9690 C   0  0  0  0  0  0  0  0  0  0  0  0
   28.7175   40.9675   18.3136 C   0  0  0  0  0  0  0  0  0  0  0  0
   27.3581   37.8538   23.1911 C   0  0  0  0  0  0  0  0  0  0  0  0
   26.7664   37.8172   24.8109 S   0  0  0  0  0  0  0  0  0  0  0  0
   26.3208   36.2065   24.6775 C   0  0  0  0  0  0  0  0  0  0  0  0
   26.5586   35.7213   23.4523 C   0  0  0  0  0  0  0  0  0  0  0  0
   27.1627   36.6525   22.5851 C   0  0  0  0  0  0  0  0  0  0  0  0
   32.4544   38.8686   17.8389 C   0  0  0  0  0  0  0  0  0  0  0  0
   32.7737   37.5819   17.1109 C   0  0  0  0  0  0  0  0  0  0  0  0
   32.1849   37.2844   15.8905 C   0  0  0  0  0  0  0  0  0  0  0  0
   32.1269   36.0507   15.3570 N   0  0  0  0  0  0  0  0  0  0  0  0
   32.6536   35.1039   16.1190 C   0  0  0  0  0  0  0  0  0  0  0  0
   33.2099   35.2246   17.3138 N   0  0  0  0  0  0  0  0  0  0  0  0
   33.2332   36.4760   17.7957 C   0  0  0  0  0  0  0  0  0  0  0  0
   32.5860   33.8773   15.5891 O   0  0  0  0  0  0  0  0  0  0  0  0
   31.3683   33.1451   15.7703 C   0  0  0  0  0  0  0  0  0  0  0  0
  1  2  2  0  0  0  0
  1  6  1  0  0  0  0
  2  3  1  0  0  0  0
  3  4  2  0  0  0  0
  4 14  1  0  0  0  0
  5  4  1  0  0  0  0
  6  5  1  0  0  0  0
  7  6  2  0  0  0  0
  8  9  1  0  0  0  0
  8  2  1  1  0  0  0
 10 19  1  0  0  0  0
 10  9  1  0  0  0  0
 11 10  1  0  0  0  0
 12 11  1  0  0  0  0
 12 13  1  0  0  0  0
 13  8  1  0  0  0  0
 14 15  1  0  0  0  0
 14 18  2  0  0  0  0
 15 16  1  0  0  0  0
 16 17  2  0  0  0  0
 18 17  1  0  0  0  0
 19 20  1  0  0  0  0
 20 25  2  0  0  0  0
 20 21  1  0  0  0  0
 21 22  2  0  0  0  0
 22 23  1  0  0  0  0
 23 26  1  0  0  0  0
 24 23  2  0  0  0  0
 25 24  1  0  0  0  0
 26 27  1  0  0  0  0
M  END
>  <CHROM.1>
-170.31950449,74.75895465,120.20834043,40.81991495,-83.77187058,29.75609952
38.18946000,19.84627973,-2.86804017,-0.98380139,3.10972745

>  <Name>
lig.pdb

>  <RI>
0

>  <Rbt.Current_Directory>
/home/itssahil/PROJECTS/Mol_Feturizer/New_Systems/rnas/5kx9

>  <Rbt.Executable>
rbdock ($Id: //depot/dev/client3/rdock/2013.1/src/exe/rbdock.cxx#4 $)

>  <Rbt.Library>
libRbt.so (2013.1, Build901 2013/11/27)

>  <Rbt.Parameter_File>
/export/apps/rDock/src/rDock_2013.1_src/data/scripts/dock_solv.prm

>  <Rbt.Receptor>
prm/pocket_docking_7.prm

>  <SCORE>
-34.1116

>  <SCORE.INTER>
-30.005

>  <SCORE.INTER.CONST>
1

>  <SCORE.INTER.POLAR>
0

>  <SCORE.INTER.ROT>
5

>  <SCORE.INTER.SOLV>
12.9666

>  <SCORE.INTER.VDW>
-31.2589

>  <SCORE.INTER.norm>
-1.1113

>  <SCORE.INTRA>
-4.10663

>  <SCORE.INTRA.DIHEDRAL>
6.18846

>  <SCORE.INTRA.DIHEDRAL.0>
2.68224

>  <SCORE.INTRA.POLAR>
0

>  <SCORE.INTRA.POLAR.0>
0

>  <SCORE.INTRA.REPUL>
0

>  <SCORE.INTRA.REPUL.0>
0

>  <SCORE.INTRA.SOLV>
-0.573383

>  <SCORE.INTRA.SOLV.lig_0>
-19.4148

>  <SCORE.INTRA.VDW>
-6.91417

>  <SCORE.INTRA.VDW.0>
5.42093

>  <SCORE.INTRA.norm>
-0.152097

>  <SCORE.RESTR>
0

>  <SCORE.RESTR.CAVITY>
0

>  <SCORE.RESTR.norm>
0

>  <SCORE.SYSTEM>
0

>  <SCORE.SYSTEM.CONST>
0

>  <SCORE.SYSTEM.DIHEDRAL>
0

>  <SCORE.SYSTEM.SOLV>
0

>  <SCORE.SYSTEM.norm>
0

>  <SCORE.heavy>
27

>  <SCORE.norm>
-1.26339

>  <RMSD>
6.839

$$$$
lig.pdb
 OpenBabel11021811523D
libRbt.so/2013.1/901 2013/11/27
 27 30  0  0  0  0  0  0  0  0999 V2000
   27.8156   42.1108   21.3683 N   0  0  0  0  0  0  0  0  0  0  0  0
   27.0198   41.0906   21.1632 C   0  0  0  0  0  0  0  0  0  0  0  0
   26.9534   39.9880   21.9513 N   0  0  0  0  0  0  0  0  0  0  0  0
   27.7313   39.9383   23.0736 C   0  0  0  0  0  0  0  0  0  0  0  0
   28.5706   40.9705   23.3810 C   0  0  0  0  0  0  0  0  0  0  0  0
   28.6402   42.1062   22.4926 C   0  0  0  0  0  0  0  0  0  0  0  0
   29.4137   43.0543   22.6758 O   0  0  0  0  0  0  0  0  0  0  0  0
   26.1781   40.9359   19.8774 C   0  0  2  0  0  0  0  0  0  0  0  0
   26.8967   39.7805   19.1617 C   0  0  0  0  0  0  0  0  0  0  0  0
   26.4190   39.6127   17.7881 N   0  0  0  0  0  0  0  0  0  0  0  0
   26.7202   40.8327   17.0219 C   0  0  0  0  0  0  0  0  0  0  0  0
   25.9771   42.0245   17.5926 C   0  0  0  0  0  0  0  0  0  0  0  0
   26.3230   42.2312   19.0607 C   0  0  0  0  0  0  0  0  0  0  0  0
   27.5233   38.7182   23.8418 C   0  0  0  0  0  0  0  0  0  0  0  0
   27.0771   37.2367   23.0793 S   0  0  0  0  0  0  0  0  0  0  0  0
   27.0174   36.4277   24.5466 C   0  0  0  0  0  0  0  0  0  0  0  0
   27.3653   37.2192   25.5690 C   0  0  0  0  0  0  0  0  0  0  0  0
   27.6524   38.5434   25.1839 C   0  0  0  0  0  0  0  0  0  0  0  0
   27.0202   38.4362   17.1357 C   0  0  0  0  0  0  0  0  0  0  0  0
   26.0625   37.3180   16.7896 C   0  0  0  0  0  0  0  0  0  0  0  0
   25.1890   36.8041   17.7370 C   0  0  0  0  0  0  0  0  0  0  0  0
   24.5748   35.6115   17.6346 N   0  0  0  0  0  0  0  0  0  0  0  0
   24.9015   34.9234   16.5510 C   0  0  0  0  0  0  0  0  0  0  0  0
   25.7427   35.2593   15.5861 N   0  0  0  0  0  0  0  0  0  0  0  0
   26.3282   36.4553   15.7462 C   0  0  0  0  0  0  0  0  0  0  0  0
   24.2956   33.7342   16.4572 O   0  0  0  0  0  0  0  0  0  0  0  0
   23.7436   33.3721   15.1860 C   0  0  0  0  0  0  0  0  0  0  0  0
  1  2  2  0  0  0  0
  1  6  1  0  0  0  0
  2  3  1  0  0  0  0
  3  4  2  0  0  0  0
  4 14  1  0  0  0  0
  5  4  1  0  0  0  0
  6  5  1  0  0  0  0
  7  6  2  0  0  0  0
  8  9  1  0  0  0  0
  8  2  1  1  0  0  0
 10 19  1  0  0  0  0
 10  9  1  0  0  0  0
 11 10  1  0  0  0  0
 12 11  1  0  0  0  0
 12 13  1  0  0  0  0
 13  8  1  0  0  0  0
 14 15  1  0  0  0  0
 14 18  2  0  0  0  0
 15 16  1  0  0  0  0
 16 17  2  0  0  0  0
 18 17  1  0  0  0  0
 19 20  1  0  0  0  0
 20 25  2  0  0  0  0
 20 21  1  0  0  0  0
 21 22  2  0  0  0  0
 22 23  1  0  0  0  0
 23 26  1  0  0  0  0
 24 23  2  0  0  0  0
 25 24  1  0  0  0  0
 26 27  1  0  0  0  0
M  END
>  <CHROM.1>
30.41045627,108.54631662,114.31353714,-50.86567480,135.14234237,26.64013760
38.61339103,19.99877006,-0.23230465,-1.23669592,-0.84752006

>  <Name>
lig.pdb

>  <RI>
0

>  <Rbt.Current_Directory>
/home/itssahil/PROJECTS/Mol_Feturizer/New_Systems/rnas/5kx9

>  <Rbt.Executable>
rbdock ($Id: //depot/dev/client3/rdock/2013.1/src/exe/rbdock.cxx#4 $)

>  <Rbt.Library>
libRbt.so (2013.1, Build901 2013/11/27)

>  <Rbt.Parameter_File>
/export/apps/rDock/src/rDock_2013.1_src/data/scripts/dock_solv.prm

>  <Rbt.Receptor>
prm/pocket_docking_7.prm

>  <SCORE>
-30.8115

>  <SCORE.INTER>
-28.4858

>  <SCORE.INTER.CONST>
1

>  <SCORE.INTER.POLAR>
0

>  <SCORE.INTER.ROT>
5

>  <SCORE.INTER.SOLV>
12.0299

>  <SCORE.INTER.VDW>
-29.9338

>  <SCORE.INTER.norm>
-1.05503

>  <SCORE.INTRA>
-2.32565

>  <SCORE.INTRA.DIHEDRAL>
6.90779

>  <SCORE.INTRA.DIHEDRAL.0>
2.68224

>  <SCORE.INTRA.POLAR>
0

>  <SCORE.INTRA.POLAR.0>
0

>  <SCORE.INTRA.REPUL>
0

>  <SCORE.INTRA.REPUL.0>
0

>  <SCORE.INTRA.SOLV>
-0.598537

>  <SCORE.INTRA.SOLV.lig_0>
-19.4148

>  <SCORE.INTRA.VDW>
-5.48028

>  <SCORE.INTRA.VDW.0>
5.42093

>  <SCORE.INTRA.norm>
-0.0861353

>  <SCORE.RESTR>
0

>  <SCORE.RESTR.CAVITY>
0

>  <SCORE.RESTR.norm>
0

>  <SCORE.SYSTEM>
0

>  <SCORE.SYSTEM.CONST>
0

>  <SCORE.SYSTEM.DIHEDRAL>
0

>  <SCORE.SYSTEM.SOLV>
0

>  <SCORE.SYSTEM.norm>
0

>  <SCORE.heavy>
27

>  <SCORE.norm>
-1.14117

>  <RMSD>
6.841

$$$$
lig.pdb
 OpenBabel11021811523D
libRbt.so/2013.1/901 2013/11/27
 27 30  0  0  0  0  0  0  0  0999 V2000
   28.6468   41.2244   21.1318 N   0  0  0  0  0  0  0  0  0  0  0  0
   28.3510   40.1590   20.4291 C   0  0  0  0  0  0  0  0  0  0  0  0
   27.9497   38.9725   20.9510 N   0  0  0  0  0  0  0  0  0  0  0  0
   27.7898   38.8738   22.3044 C   0  0  0  0  0  0  0  0  0  0  0  0
   28.0483   39.9438   23.1124 C   0  0  0  0  0  0  0  0  0  0  0  0
   28.5132   41.1747   22.5188 C   0  0  0  0  0  0  0  0  0  0  0  0
   28.8179   42.1691   23.1890 O   0  0  0  0  0  0  0  0  0  0  0  0
   28.6028   40.0680   18.9080 C   0  0  2  0  0  0  0  0  0  0  0  0
   30.0684   39.6069   18.8533 C   0  0  0  0  0  0  0  0  0  0  0  0
   30.6114   39.6853   17.4960 N   0  0  0  0  0  0  0  0  0  0  0  0
   30.5965   41.0887   17.0527 C   0  0  0  0  0  0  0  0  0  0  0  0
   29.1768   41.6152   16.9786 C   0  0  0  0  0  0  0  0  0  0  0  0
   28.4757   41.4852   18.3236 C   0  0  0  0  0  0  0  0  0  0  0  0
   27.3151   37.5591   22.7147 C   0  0  0  0  0  0  0  0  0  0  0  0
   26.7481   37.2639   24.3168 S   0  0  0  0  0  0  0  0  0  0  0  0
   26.4533   35.6479   23.9811 C   0  0  0  0  0  0  0  0  0  0  0  0
   26.7213   35.3450   22.7046 C   0  0  0  0  0  0  0  0  0  0  0  0
   27.2257   36.4304   21.9620 C   0  0  0  0  0  0  0  0  0  0  0  0
   31.9768   39.1371   17.4165 C   0  0  0  0  0  0  0  0  0  0  0  0
   32.0779   37.6895   16.9905 C   0  0  0  0  0  0  0  0  0  0  0  0
   32.4857   36.7074   17.8815 C   0  0  0  0  0  0  0  0  0  0  0  0
   32.9392   35.4941   17.5178 N   0  0  0  0  0  0  0  0  0  0  0  0
   33.0075   35.3099   16.2079 C   0  0  0  0  0  0  0  0  0  0  0  0
   32.6962   36.1581   15.2409 N   0  0  0  0  0  0  0  0  0  0  0  0
   32.2563   37.3521   15.6647 C   0  0  0  0  0  0  0  0  0  0  0  0
   33.4673   34.1055   15.8501 O   0  0  0  0  0  0  0  0  0  0  0  0
   32.9981   33.5601   14.6116 C   0  0  0  0  0  0  0  0  0  0  0  0
  1  2  2  0  0  0  0
  1  6  1  0  0  0  0
  2  3  1  0  0  0  0
  3  4  2  0  0  0  0
  4 14  1  0  0  0  0
  5  4  1  0  0  0  0
  6  5  1  0  0  0  0
  7  6  2  0  0  0  0
  8  9  1  0  0  0  0
  8  2  1  1  0  0  0
 10 19  1  0  0  0  0
 10  9  1  0  0  0  0
 11 10  1  0  0  0  0
 12 11  1  0  0  0  0
 12 13  1  0  0  0  0
 13  8  1  0  0  0  0
 14 15  1  0  0  0  0
 14 18  2  0  0  0  0
 15 16  1  0  0  0  0
 16 17  2  0  0  0  0
 18 17  1  0  0  0  0
 19 20  1  0  0  0  0
 20 25  2  0  0  0  0
 20 21  1  0  0  0  0
 21 22  2  0  0  0  0
 22 23  1  0  0  0  0
 23 26  1  0  0  0  0
 24 23  2  0  0  0  0
 25 24  1  0  0  0  0
 26 27  1  0  0  0  0
M  END
>  <CHROM.1>
-168.17728013,85.50876835,94.98614509,-111.06524056,150.21646883,29.67963596
38.24374523,19.60132099,-3.03335501,-0.95535449,2.92353239

>  <Name>
lig.pdb

>  <RI>
0

>  <Rbt.Current_Directory>
/home/itssahil/PROJECTS/Mol_Feturizer/New_Systems/rnas/5kx9

>  <Rbt.Executable>
rbdock ($Id: //depot/dev/client3/rdock/2013.1/src/exe/rbdock.cxx#4 $)

>  <Rbt.Library>
libRbt.so (2013.1, Build901 2013/11/27)

>  <Rbt.Parameter_File>
/export/apps/rDock/src/rDock_2013.1_src/data/scripts/dock_solv.prm

>  <Rbt.Receptor>
prm/pocket_docking_8.prm

>  <SCORE>
-34.4881

>  <SCORE.INTER>
-29.8703

>  <SCORE.INTER.CONST>
1

>  <SCORE.INTER.POLAR>
0

>  <SCORE.INTER.ROT>
5

>  <SCORE.INTER.SOLV>
12.8897

>  <SCORE.INTER.VDW>
-31.1434

>  <SCORE.INTER.norm>
-1.10631

>  <SCORE.INTRA>
-4.65786

>  <SCORE.INTRA.DIHEDRAL>
1.68939

>  <SCORE.INTRA.DIHEDRAL.0>
2.68224

>  <SCORE.INTRA.POLAR>
0

>  <SCORE.INTRA.POLAR.0>
0

>  <SCORE.INTRA.REPUL>
0

>  <SCORE.INTRA.REPUL.0>
0

>  <SCORE.INTRA.SOLV>
-0.670147

>  <SCORE.INTRA.SOLV.lig_0>
-19.4148

>  <SCORE.INTRA.VDW>
-5.16749

>  <SCORE.INTRA.VDW.0>
5.42093

>  <SCORE.INTRA.norm>
-0.172513

>  <SCORE.RESTR>
0.0400622

>  <SCORE.RESTR.CAVITY>
0.0400622

>  <SCORE.RESTR.norm>
0.00148378

>  <SCORE.SYSTEM>
0

>  <SCORE.SYSTEM.CONST>
0

>  <SCORE.SYSTEM.DIHEDRAL>
0

>  <SCORE.SYSTEM.SOLV>
0

>  <SCORE.SYSTEM.norm>
0

>  <SCORE.heavy>
27

>  <SCORE.norm>
-1.27734

>  <RMSD>
6.848

$$$$
lig.pdb
 OpenBabel11021811523D
libRbt.so/2013.1/901 2013/11/27
 27 30  0  0  0  0  0  0  0  0999 V2000
   27.2304   37.5297   22.5243 N   0  0  0  0  0  0  0  0  0  0  0  0
   27.8143   38.6018   22.0488 C   0  0  0  0  0  0  0  0  0  0  0  0
   28.1911   39.6734   22.7909 N   0  0  0  0  0  0  0  0  0  0  0  0
   27.9999   39.6324   24.1433 C   0  0  0  0  0  0  0  0  0  0  0  0
   27.4237   38.5417   24.7287 C   0  0  0  0  0  0  0  0  0  0  0  0
   27.0000   37.4409   23.8965 C   0  0  0  0  0  0  0  0  0  0  0  0
   26.4238   36.4429   24.3470 O   0  0  0  0  0  0  0  0  0  0  0  0
   27.9819   38.8570   20.5348 C   0  0  2  0  0  0  0  0  0  0  0  0
   28.5102   37.5013   20.0384 C   0  0  0  0  0  0  0  0  0  0  0  0
   28.9797   37.5761   18.6537 N   0  0  0  0  0  0  0  0  0  0  0  0
   30.1076   38.5187   18.5788 C   0  0  0  0  0  0  0  0  0  0  0  0
   29.6663   39.9182   18.9592 C   0  0  0  0  0  0  0  0  0  0  0  0
   29.0606   39.9388   20.3558 C   0  0  0  0  0  0  0  0  0  0  0  0
   28.4903   40.8303   24.8117 C   0  0  0  0  0  0  0  0  0  0  0  0
   29.0962   42.1770   23.9204 S   0  0  0  0  0  0  0  0  0  0  0  0
   29.4460   43.0268   25.3226 C   0  0  0  0  0  0  0  0  0  0  0  0
   29.0800   42.3531   26.4204 C   0  0  0  0  0  0  0  0  0  0  0  0
   28.5351   41.0834   26.1468 C   0  0  0  0  0  0  0  0  0  0  0  0
   29.3796   36.2560   18.1355 C   0  0  0  0  0  0  0  0  0  0  0  0
   30.3559   36.2738   16.9805 C   0  0  0  0  0  0  0  0  0  0  0  0
   29.9501   35.9479   15.6945 C   0  0  0  0  0  0  0  0  0  0  0  0
   30.7865   35.5953   14.7016 N   0  0  0  0  0  0  0  0  0  0  0  0
   32.0611   35.5420   15.0582 C   0  0  0  0  0  0  0  0  0  0  0  0
   32.5936   35.7826   16.2456 N   0  0  0  0  0  0  0  0  0  0  0  0
   31.7103   36.1234   17.1957 C   0  0  0  0  0  0  0  0  0  0  0  0
   32.8888   35.1824   14.0705 O   0  0  0  0  0  0  0  0  0  0  0  0
   33.9014   34.2163   14.3755 C   0  0  0  0  0  0  0  0  0  0  0  0
  1  2  2  0  0  0  0
  1  6  1  0  0  0  0
  2  3  1  0  0  0  0
  3  4  2  0  0  0  0
  4 14  1  0  0  0  0
  5  4  1  0  0  0  0
  6  5  1  0  0  0  0
  7  6  2  0  0  0  0
  8  9  1  0  0  0  0
  8  2  1  1  0  0  0
 10 19  1  0  0  0  0
 10  9  1  0  0  0  0
 11 10  1  0  0  0  0
 12 11  1  0  0  0  0
 12 13  1  0  0  0  0
 13  8  1  0  0  0  0
 14 15  1  0  0  0  0
 14 18  2  0  0  0  0
 15 16  1  0  0  0  0
 16 17  2  0  0  0  0
 18 17  1  0  0  0  0
 19 20  1  0  0  0  0
 20 25  2  0  0  0  0
 20 21  1  0  0  0  0
 21 22  2  0  0  0  0
 22 23  1  0  0  0  0
 23 26  1  0  0  0  0
 24 23  2  0  0  0  0
 25 24  1  0  0  0  0
 26 27  1  0  0  0  0
M  END
>  <CHROM.1>
5.36785371,-46.82638708,-156.72634793,-107.60024190,-135.38099336,29.44504647
38.30471255,20.48612787,2.04414757,0.80340891,0.71696482

>  <Name>
lig.pdb

>  <RI>
0

>  <Rbt.Current_Directory>
/home/itssahil/PROJECTS/Mol_Feturizer/New_Systems/rnas/5kx9

>  <Rbt.Executable>
rbdock ($Id: //depot/dev/client3/rdock/2013.1/src/exe/rbdock.cxx#4 $)

>  <Rbt.Library>
libRbt.so (2013.1, Build901 2013/11/27)

>  <Rbt.Parameter_File>
/export/apps/rDock/src/rDock_2013.1_src/data/scripts/dock_solv.prm

>  <Rbt.Receptor>
prm/blind_docking_100.prm

>  <SCORE>
-25.5178

>  <SCORE.INTER>
-23.6481

>  <SCORE.INTER.CONST>
1

>  <SCORE.INTER.POLAR>
0

>  <SCORE.INTER.ROT>
5

>  <SCORE.INTER.SOLV>
11.101

>  <SCORE.INTER.VDW>
-26.399

>  <SCORE.INTER.norm>
-0.875854

>  <SCORE.INTRA>
-1.86975

>  <SCORE.INTRA.DIHEDRAL>
1.78496

>  <SCORE.INTRA.DIHEDRAL.0>
2.68224

>  <SCORE.INTRA.POLAR>
0

>  <SCORE.INTRA.POLAR.0>
0

>  <SCORE.INTRA.REPUL>
0

>  <SCORE.INTRA.REPUL.0>
0

>  <SCORE.INTRA.SOLV>
-0.556725

>  <SCORE.INTRA.SOLV.lig_0>
-19.4148

>  <SCORE.INTRA.VDW>
-2.48386

>  <SCORE.INTRA.VDW.0>
5.42093

>  <SCORE.INTRA.norm>
-0.0692499

>  <SCORE.RESTR>
0

>  <SCORE.RESTR.CAVITY>
0

>  <SCORE.RESTR.norm>
0

>  <SCORE.SYSTEM>
0

>  <SCORE.SYSTEM.CONST>
0

>  <SCORE.SYSTEM.DIHEDRAL>
0

>  <SCORE.SYSTEM.SOLV>
0

>  <SCORE.SYSTEM.norm>
0

>  <SCORE.heavy>
27

>  <SCORE.norm>
-0.945104

>  <RMSD>
6.851

$$$$
lig.pdb
 OpenBabel11021811523D
libRbt.so/2013.1/901 2013/11/27
 27 30  0  0  0  0  0  0  0  0999 V2000
   27.0480   39.7540   21.4319 N   0  0  0  0  0  0  0  0  0  0  0  0
   27.6702   39.2670   22.4769 C   0  0  0  0  0  0  0  0  0  0  0  0
   28.2321   40.0120   23.4619 N   0  0  0  0  0  0  0  0  0  0  0  0
   28.1103   41.3718   23.4039 C   0  0  0  0  0  0  0  0  0  0  0  0
   27.4528   41.9647   22.3645 C   0  0  0  0  0  0  0  0  0  0  0  0
   26.9061   41.1362   21.3164 C   0  0  0  0  0  0  0  0  0  0  0  0
   26.3439   41.6024   20.3177 O   0  0  0  0  0  0  0  0  0  0  0  0
   28.0037   37.7660   22.6231 C   0  0  2  0  0  0  0  0  0  0  0  0
   27.4514   37.1862   21.3108 C   0  0  0  0  0  0  0  0  0  0  0  0
   27.4348   35.7224   21.3291 N   0  0  0  0  0  0  0  0  0  0  0  0
   26.5355   35.2653   22.4008 C   0  0  0  0  0  0  0  0  0  0  0  0
   27.0470   35.7062   23.7580 C   0  0  0  0  0  0  0  0  0  0  0  0
   27.2028   37.2194   23.8172 C   0  0  0  0  0  0  0  0  0  0  0  0
   28.7231   42.0351   24.5470 C   0  0  0  0  0  0  0  0  0  0  0  0
   29.1335   41.1677   25.9803 S   0  0  0  0  0  0  0  0  0  0  0  0
   29.7031   42.5546   26.7308 C   0  0  0  0  0  0  0  0  0  0  0  0
   29.6366   43.6224   25.9257 C   0  0  0  0  0  0  0  0  0  0  0  0
   29.0681   43.3447   24.6673 C   0  0  0  0  0  0  0  0  0  0  0  0
   27.0153   35.1600   20.0333 C   0  0  0  0  0  0  0  0  0  0  0  0
   27.9479   35.4234   18.8720 C   0  0  0  0  0  0  0  0  0  0  0  0
   28.3004   34.4102   17.9924 C   0  0  0  0  0  0  0  0  0  0  0  0
   29.3665   34.4539   17.1730 N   0  0  0  0  0  0  0  0  0  0  0  0
   30.1013   35.5492   17.2954 C   0  0  0  0  0  0  0  0  0  0  0  0
   29.9183   36.5753   18.1109 N   0  0  0  0  0  0  0  0  0  0  0  0
   28.8438   36.4720   18.9069 C   0  0  0  0  0  0  0  0  0  0  0  0
   31.1655   35.5849   16.4853 O   0  0  0  0  0  0  0  0  0  0  0  0
   32.3926   36.0864   17.0279 C   0  0  0  0  0  0  0  0  0  0  0  0
  1  2  2  0  0  0  0
  1  6  1  0  0  0  0
  2  3  1  0  0  0  0
  3  4  2  0  0  0  0
  4 14  1  0  0  0  0
  5  4  1  0  0  0  0
  6  5  1  0  0  0  0
  7  6  2  0  0  0  0
  8  9  1  0  0  0  0
  8  2  1  6  0  0  0
 10 19  1  0  0  0  0
 10  9  1  0  0  0  0
 11 10  1  0  0  0  0
 12 11  1  0  0  0  0
 12 13  1  0  0  0  0
 13  8  1  0  0  0  0
 14 15  1  0  0  0  0
 14 18  2  0  0  0  0
 15 16  1  0  0  0  0
 16 17  2  0  0  0  0
 18 17  1  0  0  0  0
 19 20  1  0  0  0  0
 20 25  2  0  0  0  0
 20 21  1  0  0  0  0
 21 22  2  0  0  0  0
 22 23  1  0  0  0  0
 23 26  1  0  0  0  0
 24 23  2  0  0  0  0
 25 24  1  0  0  0  0
 26 27  1  0  0  0  0
M  END
>  <CHROM.1>
-16.02409186,0.81205803,65.04247116,134.42938853,-139.02766501,28.44363134
38.46874378,21.62541056,-1.70417034,-0.93799205,-2.44676995

>  <Name>
lig.pdb

>  <RI>
0

>  <Rbt.Current_Directory>
/home/itssahil/PROJECTS/Mol_Feturizer/New_Systems/rnas/5kx9

>  <Rbt.Executable>
rbdock ($Id: //depot/dev/client3/rdock/2013.1/src/exe/rbdock.cxx#4 $)

>  <Rbt.Library>
libRbt.so (2013.1, Build901 2013/11/27)

>  <Rbt.Parameter_File>
/export/apps/rDock/src/rDock_2013.1_src/data/scripts/dock_solv.prm

>  <Rbt.Receptor>
prm/pocket_docking_8.prm

>  <SCORE>
-32.9685

>  <SCORE.INTER>
-30.8703

>  <SCORE.INTER.CONST>
1

>  <SCORE.INTER.POLAR>
0

>  <SCORE.INTER.ROT>
5

>  <SCORE.INTER.SOLV>
13.4098

>  <SCORE.INTER.VDW>
-31.9835

>  <SCORE.INTER.norm>
-1.14334

>  <SCORE.INTRA>
-2.09824

>  <SCORE.INTRA.DIHEDRAL>
1.77613

>  <SCORE.INTRA.DIHEDRAL.0>
2.68224

>  <SCORE.INTRA.POLAR>
0

>  <SCORE.INTRA.POLAR.0>
0

>  <SCORE.INTRA.REPUL>
0

>  <SCORE.INTRA.REPUL.0>
0

>  <SCORE.INTRA.SOLV>
-0.390282

>  <SCORE.INTRA.SOLV.lig_0>
-19.4148

>  <SCORE.INTRA.VDW>
-2.79116

>  <SCORE.INTRA.VDW.0>
5.42093

>  <SCORE.INTRA.norm>
-0.0777125

>  <SCORE.RESTR>
0

>  <SCORE.RESTR.CAVITY>
0

>  <SCORE.RESTR.norm>
0

>  <SCORE.SYSTEM>
0

>  <SCORE.SYSTEM.CONST>
0

>  <SCORE.SYSTEM.DIHEDRAL>
0

>  <SCORE.SYSTEM.SOLV>
0

>  <SCORE.SYSTEM.norm>
0

>  <SCORE.heavy>
27

>  <SCORE.norm>
-1.22106

>  <RMSD>
6.851

$$$$
lig.pdb
 OpenBabel11021811523D
libRbt.so/2013.1/901 2013/11/27
 27 30  0  0  0  0  0  0  0  0999 V2000
   28.1880   42.2105   20.8746 N   0  0  0  0  0  0  0  0  0  0  0  0
   26.8803   42.1309   20.8689 C   0  0  0  0  0  0  0  0  0  0  0  0
   26.0920   42.2379   21.9680 N   0  0  0  0  0  0  0  0  0  0  0  0
   26.6818   42.4953   23.1735 C   0  0  0  0  0  0  0  0  0  0  0  0
   28.0380   42.6221   23.2681 C   0  0  0  0  0  0  0  0  0  0  0  0
   28.8422   42.4595   22.0804 C   0  0  0  0  0  0  0  0  0  0  0  0
   30.0784   42.5078   22.0959 O   0  0  0  0  0  0  0  0  0  0  0  0
   26.0764   41.7170   19.6167 C   0  0  2  0  0  0  0  0  0  0  0  0
   26.7256   40.3726   19.2496 C   0  0  0  0  0  0  0  0  0  0  0  0
   26.2864   39.8989   17.9359 N   0  0  0  0  0  0  0  0  0  0  0  0
   26.7122   40.8643   16.9098 C   0  0  0  0  0  0  0  0  0  0  0  0
   26.0468   42.2092   17.1262 C   0  0  0  0  0  0  0  0  0  0  0  0
   26.3543   42.7531   18.5144 C   0  0  0  0  0  0  0  0  0  0  0  0
   25.7111   42.6263   24.2518 C   0  0  0  0  0  0  0  0  0  0  0  0
   26.2056   42.8562   25.8882 S   0  0  0  0  0  0  0  0  0  0  0  0
   24.6191   42.8742   26.4301 C   0  0  0  0  0  0  0  0  0  0  0  0
   23.7447   42.7616   25.4223 C   0  0  0  0  0  0  0  0  0  0  0  0
   24.3545   42.6101   24.1617 C   0  0  0  0  0  0  0  0  0  0  0  0
   26.8148   38.5581   17.6289 C   0  0  0  0  0  0  0  0  0  0  0  0
   26.1147   37.4054   18.3135 C   0  0  0  0  0  0  0  0  0  0  0  0
   26.8213   36.4955   19.0864 C   0  0  0  0  0  0  0  0  0  0  0  0
   26.3672   35.2759   19.4274 N   0  0  0  0  0  0  0  0  0  0  0  0
   25.1772   34.9797   18.9266 C   0  0  0  0  0  0  0  0  0  0  0  0
   24.4059   35.7200   18.1465 N   0  0  0  0  0  0  0  0  0  0  0  0
   24.9141   36.9217   17.8361 C   0  0  0  0  0  0  0  0  0  0  0  0
   24.7329   33.7627   19.2605 O   0  0  0  0  0  0  0  0  0  0  0  0
   24.7606   32.7485   18.2495 C   0  0  0  0  0  0  0  0  0  0  0  0
  1  2  2  0  0  0  0
  1  6  1  0  0  0  0
  2  3  1  0  0  0  0
  3  4  2  0  0  0  0
  4 14  1  0  0  0  0
  5  4  1  0  0  0  0
  6  5  1  0  0  0  0
  7  6  2  0  0  0  0
  8  9  1  0  0  0  0
  8  2  1  1  0  0  0
 10 19  1  0  0  0  0
 10  9  1  0  0  0  0
 11 10  1  0  0  0  0
 12 11  1  0  0  0  0
 12 13  1  0  0  0  0
 13  8  1  0  0  0  0
 14 15  1  0  0  0  0
 14 18  2  0  0  0  0
 15 16  1  0  0  0  0
 16 17  2  0  0  0  0
 18 17  1  0  0  0  0
 19 20  1  0  0  0  0
 20 25  2  0  0  0  0
 20 21  1  0  0  0  0
 21 22  2  0  0  0  0
 22 23  1  0  0  0  0
 23 26  1  0  0  0  0
 24 23  2  0  0  0  0
 25 24  1  0  0  0  0
 26 27  1  0  0  0  0
M  END
>  <CHROM.1>
176.20345251,54.38831372,77.37611765,-124.72750394,-105.74403128,26.22745437
40.07915192,20.81761212,-1.34705224,-1.13874691,-2.24379725

>  <Name>
lig.pdb

>  <RI>
0

>  <Rbt.Current_Directory>
/home/itssahil/PROJECTS/Mol_Feturizer/New_Systems/rnas/5kx9

>  <Rbt.Executable>
rbdock ($Id: //depot/dev/client3/rdock/2013.1/src/exe/rbdock.cxx#4 $)

>  <Rbt.Library>
libRbt.so (2013.1, Build901 2013/11/27)

>  <Rbt.Parameter_File>
/export/apps/rDock/src/rDock_2013.1_src/data/scripts/dock_solv.prm

>  <Rbt.Receptor>
prm/blind_docking_100.prm

>  <SCORE>
-29.5195

>  <SCORE.INTER>
-24.5269

>  <SCORE.INTER.CONST>
1

>  <SCORE.INTER.POLAR>
0

>  <SCORE.INTER.ROT>
5

>  <SCORE.INTER.SOLV>
15.0896

>  <SCORE.INTER.VDW>
-28.3144

>  <SCORE.INTER.norm>
-0.908402

>  <SCORE.INTRA>
-4.99262

>  <SCORE.INTRA.DIHEDRAL>
3.98273

>  <SCORE.INTRA.DIHEDRAL.0>
2.68224

>  <SCORE.INTRA.POLAR>
0

>  <SCORE.INTRA.POLAR.0>
0

>  <SCORE.INTRA.REPUL>
0

>  <SCORE.INTRA.REPUL.0>
0

>  <SCORE.INTRA.SOLV>
-0.66094

>  <SCORE.INTRA.SOLV.lig_0>
-19.4148

>  <SCORE.INTRA.VDW>
-6.65351

>  <SCORE.INTRA.VDW.0>
5.42093

>  <SCORE.INTRA.norm>
-0.184912

>  <SCORE.RESTR>
0

>  <SCORE.RESTR.CAVITY>
0

>  <SCORE.RESTR.norm>
0

>  <SCORE.SYSTEM>
0

>  <SCORE.SYSTEM.CONST>
0

>  <SCORE.SYSTEM.DIHEDRAL>
0

>  <SCORE.SYSTEM.SOLV>
0

>  <SCORE.SYSTEM.norm>
0

>  <SCORE.heavy>
27

>  <SCORE.norm>
-1.09331

>  <RMSD>
6.872

$$$$
lig.pdb
 OpenBabel11021811523D
libRbt.so/2013.1/901 2013/11/27
 27 30  0  0  0  0  0  0  0  0999 V2000
   28.1443   35.1760   18.7347 N   0  0  0  0  0  0  0  0  0  0  0  0
   28.3601   36.3629   19.2455 C   0  0  0  0  0  0  0  0  0  0  0  0
   28.0060   36.7440   20.4987 N   0  0  0  0  0  0  0  0  0  0  0  0
   27.4227   35.8229   21.3223 C   0  0  0  0  0  0  0  0  0  0  0  0
   27.1855   34.5522   20.8824 C   0  0  0  0  0  0  0  0  0  0  0  0
   27.5404   34.2013   19.5279 C   0  0  0  0  0  0  0  0  0  0  0  0
   27.3090   33.0874   19.0413 O   0  0  0  0  0  0  0  0  0  0  0  0
   28.8883   37.5474   18.4067 C   0  0  2  0  0  0  0  0  0  0  0  0
   30.3724   37.1832   18.2378 C   0  0  0  0  0  0  0  0  0  0  0  0
   31.1427   38.2936   17.6751 N   0  0  0  0  0  0  0  0  0  0  0  0
   31.0937   39.4329   18.6056 C   0  0  0  0  0  0  0  0  0  0  0  0
   29.6726   39.9348   18.7683 C   0  0  0  0  0  0  0  0  0  0  0  0
   28.7536   38.8231   19.2553 C   0  0  0  0  0  0  0  0  0  0  0  0
   27.1380   36.3604   22.6460 C   0  0  0  0  0  0  0  0  0  0  0  0
   27.5290   37.9880   23.0622 S   0  0  0  0  0  0  0  0  0  0  0  0
   26.9529   37.7923   24.6245 C   0  0  0  0  0  0  0  0  0  0  0  0
   26.4405   36.5707   24.8195 C   0  0  0  0  0  0  0  0  0  0  0  0
   26.5452   35.7297   23.6944 C   0  0  0  0  0  0  0  0  0  0  0  0
   32.5402   37.9129   17.4040 C   0  0  0  0  0  0  0  0  0  0  0  0
   32.7319   36.6098   16.6606 C   0  0  0  0  0  0  0  0  0  0  0  0
   33.5452   35.6078   17.1696 C   0  0  0  0  0  0  0  0  0  0  0  0
   34.0496   34.5963   16.4399 N   0  0  0  0  0  0  0  0  0  0  0  0
   33.7375   34.6461   15.1536 C   0  0  0  0  0  0  0  0  0  0  0  0
   33.0124   35.5524   14.5177 N   0  0  0  0  0  0  0  0  0  0  0  0
   32.5423   36.5384   15.2959 C   0  0  0  0  0  0  0  0  0  0  0  0
   34.2483   33.6435   14.4296 O   0  0  0  0  0  0  0  0  0  0  0  0
   33.4409   33.1143   13.3714 C   0  0  0  0  0  0  0  0  0  0  0  0
  1  2  2  0  0  0  0
  1  6  1  0  0  0  0
  2  3  1  0  0  0  0
  3  4  2  0  0  0  0
  4 14  1  0  0  0  0
  5  4  1  0  0  0  0
  6  5  1  0  0  0  0
  7  6  2  0  0  0  0
  8  9  1  0  0  0  0
  8  2  1  1  0  0  0
 10 19  1  0  0  0  0
 10  9  1  0  0  0  0
 11 10  1  0  0  0  0
 12 11  1  0  0  0  0
 12 13  1  0  0  0  0
 13  8  1  0  0  0  0
 14 15  1  0  0  0  0
 14 18  2  0  0  0  0
 15 16  1  0  0  0  0
 16 17  2  0  0  0  0
 18 17  1  0  0  0  0
 19 20  1  0  0  0  0
 20 25  2  0  0  0  0
 20 21  1  0  0  0  0
 21 22  2  0  0  0  0
 22 23  1  0  0  0  0
 23 26  1  0  0  0  0
 24 23  2  0  0  0  0
 25 24  1  0  0  0  0
 26 27  1  0  0  0  0
M  END
>  <CHROM.1>
-0.30431439,-75.17977072,47.95483752,-125.78813460,143.15487130,29.86959566
36.34552644,18.99569704,2.70591415,0.80127661,0.35522228

>  <Name>
lig.pdb

>  <RI>
0

>  <Rbt.Current_Directory>
/home/itssahil/PROJECTS/Mol_Feturizer/New_Systems/rnas/5kx9

>  <Rbt.Executable>
rbdock ($Id: //depot/dev/client3/rdock/2013.1/src/exe/rbdock.cxx#4 $)

>  <Rbt.Library>
libRbt.so (2013.1, Build901 2013/11/27)

>  <Rbt.Parameter_File>
/export/apps/rDock/src/rDock_2013.1_src/data/scripts/dock_solv.prm

>  <Rbt.Receptor>
prm/blind_docking_60.prm

>  <SCORE>
-35.3236

>  <SCORE.INTER>
-32.7094

>  <SCORE.INTER.CONST>
1

>  <SCORE.INTER.POLAR>
0

>  <SCORE.INTER.ROT>
5

>  <SCORE.INTER.SOLV>
16.5762

>  <SCORE.INTER.VDW>
-34.265

>  <SCORE.INTER.norm>
-1.21146

>  <SCORE.INTRA>
-2.61428

>  <SCORE.INTRA.DIHEDRAL>
1.03698

>  <SCORE.INTRA.DIHEDRAL.0>
2.68224

>  <SCORE.INTRA.POLAR>
0

>  <SCORE.INTRA.POLAR.0>
0

>  <SCORE.INTRA.REPUL>
0

>  <SCORE.INTRA.REPUL.0>
0

>  <SCORE.INTRA.SOLV>
-0.618777

>  <SCORE.INTRA.SOLV.lig_0>
-19.4148

>  <SCORE.INTRA.VDW>
-2.82338

>  <SCORE.INTRA.VDW.0>
5.42093

>  <SCORE.INTRA.norm>
-0.0968252

>  <SCORE.RESTR>
0

>  <SCORE.RESTR.CAVITY>
0

>  <SCORE.RESTR.norm>
0

>  <SCORE.SYSTEM>
0

>  <SCORE.SYSTEM.CONST>
0

>  <SCORE.SYSTEM.DIHEDRAL>
0

>  <SCORE.SYSTEM.SOLV>
0

>  <SCORE.SYSTEM.norm>
0

>  <SCORE.heavy>
27

>  <SCORE.norm>
-1.30828

>  <RMSD>
6.872

$$$$
lig.pdb
 OpenBabel11021811523D
libRbt.so/2013.1/901 2013/11/27
 27 30  0  0  0  0  0  0  0  0999 V2000
   29.0368   41.2414   21.1778 N   0  0  0  0  0  0  0  0  0  0  0  0
   28.6614   40.1146   20.6251 C   0  0  0  0  0  0  0  0  0  0  0  0
   28.1606   39.0490   21.2995 N   0  0  0  0  0  0  0  0  0  0  0  0
   27.9816   39.1548   22.6500 C   0  0  0  0  0  0  0  0  0  0  0  0
   28.3193   40.3040   23.3055 C   0  0  0  0  0  0  0  0  0  0  0  0
   28.8877   41.3983   22.5551 C   0  0  0  0  0  0  0  0  0  0  0  0
   29.2665   42.4499   23.0858 O   0  0  0  0  0  0  0  0  0  0  0  0
   28.9179   39.7906   19.1368 C   0  0  2  0  0  0  0  0  0  0  0  0
   30.3569   39.2503   19.1705 C   0  0  0  0  0  0  0  0  0  0  0  0
   30.9123   39.1023   17.8240 N   0  0  0  0  0  0  0  0  0  0  0  0
   30.9759   40.4253   17.1822 C   0  0  0  0  0  0  0  0  0  0  0  0
   29.5871   41.0090   17.0124 C   0  0  0  0  0  0  0  0  0  0  0  0
   28.8711   41.1126   18.3519 C   0  0  0  0  0  0  0  0  0  0  0  0
   27.3982   37.9528   23.2304 C   0  0  0  0  0  0  0  0  0  0  0  0
   27.2769   36.4847   22.3330 S   0  0  0  0  0  0  0  0  0  0  0  0
   26.5305   35.6939   23.6091 C   0  0  0  0  0  0  0  0  0  0  0  0
   26.4172   36.4797   24.6873 C   0  0  0  0  0  0  0  0  0  0  0  0
   26.9040   37.7861   24.4860 C   0  0  0  0  0  0  0  0  0  0  0  0
   32.2467   38.4777   17.8442 C   0  0  0  0  0  0  0  0  0  0  0  0
   32.2784   36.9909   17.5688 C   0  0  0  0  0  0  0  0  0  0  0  0
   33.4639   36.3477   17.2439 C   0  0  0  0  0  0  0  0  0  0  0  0
   33.5350   35.1430   16.6493 N   0  0  0  0  0  0  0  0  0  0  0  0
   32.3579   34.6138   16.3514 C   0  0  0  0  0  0  0  0  0  0  0  0
   31.1526   35.1196   16.5590 N   0  0  0  0  0  0  0  0  0  0  0  0
   31.1459   36.3241   17.1489 C   0  0  0  0  0  0  0  0  0  0  0  0
   32.4329   33.4199   15.7522 O   0  0  0  0  0  0  0  0  0  0  0  0
   31.3077   32.5432   15.8822 C   0  0  0  0  0  0  0  0  0  0  0  0
  1  2  2  0  0  0  0
  1  6  1  0  0  0  0
  2  3  1  0  0  0  0
  3  4  2  0  0  0  0
  4 14  1  0  0  0  0
  5  4  1  0  0  0  0
  6  5  1  0  0  0  0
  7  6  2  0  0  0  0
  8  9  1  0  0  0  0
  8  2  1  1  0  0  0
 10 19  1  0  0  0  0
 10  9  1  0  0  0  0
 11 10  1  0  0  0  0
 12 11  1  0  0  0  0
 12 13  1  0  0  0  0
 13  8  1  0  0  0  0
 14 15  1  0  0  0  0
 14 18  2  0  0  0  0
 15 16  1  0  0  0  0
 16 17  2  0  0  0  0
 18 17  1  0  0  0  0
 19 20  1  0  0  0  0
 20 25  2  0  0  0  0
 20 21  1  0  0  0  0
 21 22  2  0  0  0  0
 22 23  1  0  0  0  0
 23 26  1  0  0  0  0
 24 23  2  0  0  0  0
 25 24  1  0  0  0  0
 26 27  1  0  0  0  0
M  END
>  <CHROM.1>
11.76868004,83.90860693,97.76008727,164.42338761,155.00113133,29.70871401
37.98180303,19.79477254,-2.66699342,-0.96186509,-3.10661831

>  <Name>
lig.pdb

>  <RI>
0

>  <Rbt.Current_Directory>
/home/itssahil/PROJECTS/Mol_Feturizer/New_Systems/rnas/5kx9

>  <Rbt.Executable>
rbdock ($Id: //depot/dev/client3/rdock/2013.1/src/exe/rbdock.cxx#4 $)

>  <Rbt.Library>
libRbt.so (2013.1, Build901 2013/11/27)

>  <Rbt.Parameter_File>
/export/apps/rDock/src/rDock_2013.1_src/data/scripts/dock_solv.prm

>  <Rbt.Receptor>
prm/blind_docking_60.prm

>  <SCORE>
-33.2311

>  <SCORE.INTER>
-28.9782

>  <SCORE.INTER.CONST>
1

>  <SCORE.INTER.POLAR>
0

>  <SCORE.INTER.ROT>
5

>  <SCORE.INTER.SOLV>
12.5919

>  <SCORE.INTER.VDW>
-30.4494

>  <SCORE.INTER.norm>
-1.07327

>  <SCORE.INTRA>
-4.25292

>  <SCORE.INTRA.DIHEDRAL>
1.81883

>  <SCORE.INTRA.DIHEDRAL.0>
2.68224

>  <SCORE.INTRA.POLAR>
0

>  <SCORE.INTRA.POLAR.0>
0

>  <SCORE.INTRA.REPUL>
0

>  <SCORE.INTRA.REPUL.0>
0

>  <SCORE.INTRA.SOLV>
-0.539717

>  <SCORE.INTRA.SOLV.lig_0>
-19.4148

>  <SCORE.INTRA.VDW>
-4.89248

>  <SCORE.INTRA.VDW.0>
5.42093

>  <SCORE.INTRA.norm>
-0.157516

>  <SCORE.RESTR>
0

>  <SCORE.RESTR.CAVITY>
0

>  <SCORE.RESTR.norm>
0

>  <SCORE.SYSTEM>
0

>  <SCORE.SYSTEM.CONST>
0

>  <SCORE.SYSTEM.DIHEDRAL>
0

>  <SCORE.SYSTEM.SOLV>
0

>  <SCORE.SYSTEM.norm>
0

>  <SCORE.heavy>
27

>  <SCORE.norm>
-1.23078

>  <RMSD>
6.872

$$$$
lig.pdb
 OpenBabel11021811523D
libRbt.so/2013.1/901 2013/11/27
 27 30  0  0  0  0  0  0  0  0999 V2000
   29.0209   41.1712   21.2215 N   0  0  0  0  0  0  0  0  0  0  0  0
   28.6605   40.0143   20.7236 C   0  0  0  0  0  0  0  0  0  0  0  0
   28.1281   38.9931   21.4411 N   0  0  0  0  0  0  0  0  0  0  0  0
   27.8982   39.1810   22.7749 C   0  0  0  0  0  0  0  0  0  0  0  0
   28.2171   40.3665   23.3726 C   0  0  0  0  0  0  0  0  0  0  0  0
   28.8202   41.4115   22.5801 C   0  0  0  0  0  0  0  0  0  0  0  0
   29.1844   42.4919   23.0608 O   0  0  0  0  0  0  0  0  0  0  0  0
   28.9720   39.6002   19.2686 C   0  0  2  0  0  0  0  0  0  0  0  0
   30.4896   39.3604   19.3221 C   0  0  0  0  0  0  0  0  0  0  0  0
   31.0595   39.1909   17.9843 N   0  0  0  0  0  0  0  0  0  0  0  0
   30.8575   40.4295   17.2153 C   0  0  0  0  0  0  0  0  0  0  0  0
   29.3800   40.7080   17.0209 C   0  0  0  0  0  0  0  0  0  0  0  0
   28.6616   40.8017   18.3598 C   0  0  0  0  0  0  0  0  0  0  0  0
   27.2861   38.0182   23.4037 C   0  0  0  0  0  0  0  0  0  0  0  0
   27.1510   36.5110   22.5758 S   0  0  0  0  0  0  0  0  0  0  0  0
   26.3738   35.7951   23.8775 C   0  0  0  0  0  0  0  0  0  0  0  0
   26.2601   36.6335   24.9153 C   0  0  0  0  0  0  0  0  0  0  0  0
   26.7724   37.9202   24.6588 C   0  0  0  0  0  0  0  0  0  0  0  0
   32.4914   38.8469   18.0350 C   0  0  0  0  0  0  0  0  0  0  0  0
   32.9225   37.7036   17.1437 C   0  0  0  0  0  0  0  0  0  0  0  0
   32.3426   37.5081   15.8986 C   0  0  0  0  0  0  0  0  0  0  0  0
   32.3969   36.3540   15.2094 N   0  0  0  0  0  0  0  0  0  0  0  0
   33.0295   35.3748   15.8383 C   0  0  0  0  0  0  0  0  0  0  0  0
   33.5941   35.3959   17.0351 N   0  0  0  0  0  0  0  0  0  0  0  0
   33.5026   36.5706   17.6757 C   0  0  0  0  0  0  0  0  0  0  0  0
   33.0736   34.2262   15.1536 O   0  0  0  0  0  0  0  0  0  0  0  0
   31.8618   33.4691   15.0540 C   0  0  0  0  0  0  0  0  0  0  0  0
  1  2  2  0  0  0  0
  1  6  1  0  0  0  0
  2  3  1  0  0  0  0
  3  4  2  0  0  0  0
  4 14  1  0  0  0  0
  5  4  1  0  0  0  0
  6  5  1  0  0  0  0
  7  6  2  0  0  0  0
  8  9  1  0  0  0  0
  8  2  1  1  0  0  0
 10 19  1  0  0  0  0
 10  9  1  0  0  0  0
 11 10  1  0  0  0  0
 12 11  1  0  0  0  0
 12 13  1  0  0  0  0
 13  8  1  0  0  0  0
 14 15  1  0  0  0  0
 14 18  2  0  0  0  0
 15 16  1  0  0  0  0
 16 17  2  0  0  0  0
 18 17  1  0  0  0  0
 19 20  1  0  0  0  0
 20 25  2  0  0  0  0
 20 21  1  0  0  0  0
 21 22  2  0  0  0  0
 22 23  1  0  0  0  0
 23 26  1  0  0  0  0
 24 23  2  0  0  0  0
 25 24  1  0  0  0  0
 26 27  1  0  0  0  0
M  END
>  <CHROM.1>
10.02257661,71.64734571,133.46701895,35.56613374,-73.19103695,29.84654185
38.20704349,19.73402623,-2.83703950,-0.94866939,-3.12624182

>  <Name>
lig.pdb

>  <RI>
0

>  <Rbt.Current_Directory>
/home/itssahil/PROJECTS/Mol_Feturizer/New_Systems/rnas/5kx9

>  <Rbt.Executable>
rbdock ($Id: //depot/dev/client3/rdock/2013.1/src/exe/rbdock.cxx#4 $)

>  <Rbt.Library>
libRbt.so (2013.1, Build901 2013/11/27)

>  <Rbt.Parameter_File>
/export/apps/rDock/src/rDock_2013.1_src/data/scripts/dock_solv.prm

>  <Rbt.Receptor>
prm/pocket_docking_8.prm

>  <SCORE>
-35.1987

>  <SCORE.INTER>
-30.8773

>  <SCORE.INTER.CONST>
1

>  <SCORE.INTER.POLAR>
0

>  <SCORE.INTER.ROT>
5

>  <SCORE.INTER.SOLV>
13.8265

>  <SCORE.INTER.VDW>
-32.127

>  <SCORE.INTER.norm>
-1.1436

>  <SCORE.INTRA>
-4.32143

>  <SCORE.INTRA.DIHEDRAL>
5.47504

>  <SCORE.INTRA.DIHEDRAL.0>
2.68224

>  <SCORE.INTRA.POLAR>
0

>  <SCORE.INTRA.POLAR.0>
0

>  <SCORE.INTRA.REPUL>
0

>  <SCORE.INTRA.REPUL.0>
0

>  <SCORE.INTRA.SOLV>
-0.530599

>  <SCORE.INTRA.SOLV.lig_0>
-19.4148

>  <SCORE.INTRA.VDW>
-6.79366

>  <SCORE.INTRA.VDW.0>
5.42093

>  <SCORE.INTRA.norm>
-0.160053

>  <SCORE.RESTR>
0

>  <SCORE.RESTR.CAVITY>
0

>  <SCORE.RESTR.norm>
0

>  <SCORE.SYSTEM>
0

>  <SCORE.SYSTEM.CONST>
0

>  <SCORE.SYSTEM.DIHEDRAL>
0

>  <SCORE.SYSTEM.SOLV>
0

>  <SCORE.SYSTEM.norm>
0

>  <SCORE.heavy>
27

>  <SCORE.norm>
-1.30366

>  <RMSD>
6.909

$$$$
lig.pdb
 OpenBabel11021811523D
libRbt.so/2013.1/901 2013/11/27
 27 30  0  0  0  0  0  0  0  0999 V2000
   26.7843   36.9926   24.0721 N   0  0  0  0  0  0  0  0  0  0  0  0
   27.5572   37.4557   23.1211 C   0  0  0  0  0  0  0  0  0  0  0  0
   28.0161   38.7304   23.0464 N   0  0  0  0  0  0  0  0  0  0  0  0
   27.6996   39.5996   24.0521 C   0  0  0  0  0  0  0  0  0  0  0  0
   26.9216   39.1945   25.0985 C   0  0  0  0  0  0  0  0  0  0  0  0
   26.4204   37.8410   25.1170 C   0  0  0  0  0  0  0  0  0  0  0  0
   25.6679   37.4167   26.0028 O   0  0  0  0  0  0  0  0  0  0  0  0
   27.8960   36.6420   21.8528 C   0  0  2  0  0  0  0  0  0  0  0  0
   27.4142   37.5790   20.7333 C   0  0  0  0  0  0  0  0  0  0  0  0
   27.4092   36.9105   19.4309 N   0  0  0  0  0  0  0  0  0  0  0  0
   26.4622   35.7846   19.4721 C   0  0  0  0  0  0  0  0  0  0  0  0
   26.9024   34.7471   20.4860 C   0  0  0  0  0  0  0  0  0  0  0  0
   27.0421   35.3628   21.8713 C   0  0  0  0  0  0  0  0  0  0  0  0
   28.2953   40.9150   23.8594 C   0  0  0  0  0  0  0  0  0  0  0  0
   29.3201   41.2532   22.5138 S   0  0  0  0  0  0  0  0  0  0  0  0
   29.5735   42.8300   23.0240 C   0  0  0  0  0  0  0  0  0  0  0  0
   28.8803   43.1144   24.1338 C   0  0  0  0  0  0  0  0  0  0  0  0
   28.1447   42.0222   24.6339 C   0  0  0  0  0  0  0  0  0  0  0  0
   27.0591   37.8351   18.3383 C   0  0  0  0  0  0  0  0  0  0  0  0
   27.3763   37.3492   16.9417 C   0  0  0  0  0  0  0  0  0  0  0  0
   26.3685   37.1252   16.0150 C   0  0  0  0  0  0  0  0  0  0  0  0
   26.5100   36.3763   14.9064 N   0  0  0  0  0  0  0  0  0  0  0  0
   27.7044   35.8186   14.7764 C   0  0  0  0  0  0  0  0  0  0  0  0
   28.7450   35.9044   15.5896 N   0  0  0  0  0  0  0  0  0  0  0  0
   28.5418   36.6590   16.6796 C   0  0  0  0  0  0  0  0  0  0  0  0
   27.8384   35.0675   13.6774 O   0  0  0  0  0  0  0  0  0  0  0  0
   27.0172   33.8987   13.5714 C   0  0  0  0  0  0  0  0  0  0  0  0
  1  2  2  0  0  0  0
  1  6  1  0  0  0  0
  2  3  1  0  0  0  0
  3  4  2  0  0  0  0
  4 14  1  0  0  0  0
  5  4  1  0  0  0  0
  6  5  1  0  0  0  0
  7  6  2  0  0  0  0
  8  9  1  0  0  0  0
  8  2  1  1  0  0  0
 10 19  1  0  0  0  0
 10  9  1  0  0  0  0
 11 10  1  0  0  0  0
 12 11  1  0  0  0  0
 12 13  1  0  0  0  0
 13  8  1  0  0  0  0
 14 15  1  0  0  0  0
 14 18  2  0  0  0  0
 15 16  1  0  0  0  0
 16 17  2  0  0  0  0
 18 17  1  0  0  0  0
 19 20  1  0  0  0  0
 20 25  2  0  0  0  0
 20 21  1  0  0  0  0
 21 22  2  0  0  0  0
 22 23  1  0  0  0  0
 23 26  1  0  0  0  0
 24 23  2  0  0  0  0
 25 24  1  0  0  0  0
 26 27  1  0  0  0  0
M  END
>  <CHROM.1>
-1.87814010,122.85468551,164.51580826,116.37888041,-64.07598959,27.60383881
37.88799229,20.51795066,1.44584314,1.13682257,1.21156283

>  <Name>
lig.pdb

>  <RI>
0

>  <Rbt.Current_Directory>
/home/itssahil/PROJECTS/Mol_Feturizer/New_Systems/rnas/5kx9

>  <Rbt.Executable>
rbdock ($Id: //depot/dev/client3/rdock/2013.1/src/exe/rbdock.cxx#4 $)

>  <Rbt.Library>
libRbt.so (2013.1, Build901 2013/11/27)

>  <Rbt.Parameter_File>
/export/apps/rDock/src/rDock_2013.1_src/data/scripts/dock_solv.prm

>  <Rbt.Receptor>
prm/pocket_docking_6.prm

>  <SCORE>
-32.3931

>  <SCORE.INTER>
-28.9797

>  <SCORE.INTER.CONST>
1

>  <SCORE.INTER.POLAR>
0

>  <SCORE.INTER.ROT>
5

>  <SCORE.INTER.SOLV>
13.1413

>  <SCORE.INTER.VDW>
-30.6336

>  <SCORE.INTER.norm>
-1.07332

>  <SCORE.INTRA>
-3.41466

>  <SCORE.INTRA.DIHEDRAL>
3.23407

>  <SCORE.INTRA.DIHEDRAL.0>
2.68224

>  <SCORE.INTRA.POLAR>
0

>  <SCORE.INTRA.POLAR.0>
0

>  <SCORE.INTRA.REPUL>
0

>  <SCORE.INTRA.REPUL.0>
0

>  <SCORE.INTRA.SOLV>
-0.422436

>  <SCORE.INTRA.SOLV.lig_0>
-19.4148

>  <SCORE.INTRA.VDW>
-4.82048

>  <SCORE.INTRA.VDW.0>
5.42093

>  <SCORE.INTRA.norm>
-0.126469

>  <SCORE.RESTR>
0.00131995

>  <SCORE.RESTR.CAVITY>
0.00131995

>  <SCORE.RESTR.norm>
4.8887e-05

>  <SCORE.SYSTEM>
0

>  <SCORE.SYSTEM.CONST>
0

>  <SCORE.SYSTEM.DIHEDRAL>
0

>  <SCORE.SYSTEM.SOLV>
0

>  <SCORE.SYSTEM.norm>
0

>  <SCORE.heavy>
27

>  <SCORE.norm>
-1.19974

>  <RMSD>
6.912

$$$$
lig.pdb
 OpenBabel11021811523D
libRbt.so/2013.1/901 2013/11/27
 27 30  0  0  0  0  0  0  0  0999 V2000
   27.6873   42.2833   20.8488 N   0  0  0  0  0  0  0  0  0  0  0  0
   28.7437   41.7059   21.3653 C   0  0  0  0  0  0  0  0  0  0  0  0
   29.6064   40.9127   20.6814 N   0  0  0  0  0  0  0  0  0  0  0  0
   29.4039   40.7276   19.3428 C   0  0  0  0  0  0  0  0  0  0  0  0
   28.3431   41.3149   18.7150 C   0  0  0  0  0  0  0  0  0  0  0  0
   27.4263   42.1172   19.4893 C   0  0  0  0  0  0  0  0  0  0  0  0
   26.4147   42.6374   19.0024 O   0  0  0  0  0  0  0  0  0  0  0  0
   29.0378   41.7103   22.8816 C   0  0  2  0  0  0  0  0  0  0  0  0
   27.6237   41.6498   23.4820 C   0  0  0  0  0  0  0  0  0  0  0  0
   27.6367   41.8911   24.9258 N   0  0  0  0  0  0  0  0  0  0  0  0
   28.1431   43.2492   25.1817 C   0  0  0  0  0  0  0  0  0  0  0  0
   29.5773   43.3871   24.7101 C   0  0  0  0  0  0  0  0  0  0  0  0
   29.6992   43.0547   23.2295 C   0  0  0  0  0  0  0  0  0  0  0  0
   30.4298   39.8909   18.7348 C   0  0  0  0  0  0  0  0  0  0  0  0
   30.3559   39.4373   17.0723 S   0  0  0  0  0  0  0  0  0  0  0  0
   31.7658   38.5379   17.1910 C   0  0  0  0  0  0  0  0  0  0  0  0
   32.3038   38.6101   18.4150 C   0  0  0  0  0  0  0  0  0  0  0  0
   31.5449   39.3780   19.3196 C   0  0  0  0  0  0  0  0  0  0  0  0
   26.3012   41.7208   25.5248 C   0  0  0  0  0  0  0  0  0  0  0  0
   25.2996   42.8103   25.2133 C   0  0  0  0  0  0  0  0  0  0  0  0
   24.7649   43.6009   26.2201 C   0  0  0  0  0  0  0  0  0  0  0  0
   23.6391   44.3271   26.0972 N   0  0  0  0  0  0  0  0  0  0  0  0
   23.0367   44.2012   24.9243 C   0  0  0  0  0  0  0  0  0  0  0  0
   23.3990   43.4606   23.8891 N   0  0  0  0  0  0  0  0  0  0  0  0
   24.5247   42.7552   24.0731 C   0  0  0  0  0  0  0  0  0  0  0  0
   21.9128   44.9179   24.8091 O   0  0  0  0  0  0  0  0  0  0  0  0
   21.9617   46.0983   23.9992 C   0  0  0  0  0  0  0  0  0  0  0  0
  1  2  2  0  0  0  0
  1  6  1  0  0  0  0
  2  3  1  0  0  0  0
  3  4  2  0  0  0  0
  4 14  1  0  0  0  0
  5  4  1  0  0  0  0
  6  5  1  0  0  0  0
  7  6  2  0  0  0  0
  8  9  1  0  0  0  0
  8  2  1  6  0  0  0
 10 19  1  0  0  0  0
 10  9  1  0  0  0  0
 11 10  1  0  0  0  0
 12 11  1  0  0  0  0
 12 13  1  0  0  0  0
 13  8  1  0  0  0  0
 14 15  1  0  0  0  0
 14 18  2  0  0  0  0
 15 16  1  0  0  0  0
 16 17  2  0  0  0  0
 18 17  1  0  0  0  0
 19 20  1  0  0  0  0
 20 25  2  0  0  0  0
 20 21  1  0  0  0  0
 21 22  2  0  0  0  0
 22 23  1  0  0  0  0
 23 26  1  0  0  0  0
 24 23  2  0  0  0  0
 25 24  1  0  0  0  0
 26 27  1  0  0  0  0
M  END
>  <CHROM.1>
176.69492754,34.03083008,-72.44199663,-117.36188744,105.66959229,27.49554073
42.01808936,21.99315594,0.80326304,0.40488962,-1.77542795

>  <Name>
lig.pdb

>  <RI>
0

>  <Rbt.Current_Directory>
/home/itssahil/PROJECTS/Mol_Feturizer/New_Systems/rnas/5kx9

>  <Rbt.Executable>
rbdock ($Id: //depot/dev/client3/rdock/2013.1/src/exe/rbdock.cxx#4 $)

>  <Rbt.Library>
libRbt.so (2013.1, Build901 2013/11/27)

>  <Rbt.Parameter_File>
/export/apps/rDock/src/rDock_2013.1_src/data/scripts/dock_solv.prm

>  <Rbt.Receptor>
prm/blind_docking_60.prm

>  <SCORE>
-27.6087

>  <SCORE.INTER>
-23.7521

>  <SCORE.INTER.CONST>
1

>  <SCORE.INTER.POLAR>
0

>  <SCORE.INTER.ROT>
5

>  <SCORE.INTER.SOLV>
12.632

>  <SCORE.INTER.VDW>
-26.9788

>  <SCORE.INTER.norm>
-0.879709

>  <SCORE.INTRA>
-3.95577

>  <SCORE.INTRA.DIHEDRAL>
3.7259

>  <SCORE.INTRA.DIHEDRAL.0>
2.68224

>  <SCORE.INTRA.POLAR>
0

>  <SCORE.INTRA.POLAR.0>
0

>  <SCORE.INTRA.REPUL>
0

>  <SCORE.INTRA.REPUL.0>
0

>  <SCORE.INTRA.SOLV>
-0.634561

>  <SCORE.INTRA.SOLV.lig_0>
-19.4148

>  <SCORE.INTRA.VDW>
-5.50144

>  <SCORE.INTRA.VDW.0>
5.42093

>  <SCORE.INTRA.norm>
-0.14651

>  <SCORE.RESTR>
0.0992006

>  <SCORE.RESTR.CAVITY>
0.0992006

>  <SCORE.RESTR.norm>
0.00367409

>  <SCORE.SYSTEM>
0

>  <SCORE.SYSTEM.CONST>
0

>  <SCORE.SYSTEM.DIHEDRAL>
0

>  <SCORE.SYSTEM.SOLV>
0

>  <SCORE.SYSTEM.norm>
0

>  <SCORE.heavy>
27

>  <SCORE.norm>
-1.02254

>  <RMSD>
6.925

$$$$
lig.pdb
 OpenBabel11021811523D
libRbt.so/2013.1/901 2013/11/27
 27 30  0  0  0  0  0  0  0  0999 V2000
   27.9760   42.2606   20.9979 N   0  0  0  0  0  0  0  0  0  0  0  0
   26.6727   42.1311   21.0260 C   0  0  0  0  0  0  0  0  0  0  0  0
   25.9086   42.2186   22.1438 N   0  0  0  0  0  0  0  0  0  0  0  0
   26.5179   42.5099   23.3316 C   0  0  0  0  0  0  0  0  0  0  0  0
   27.8702   42.6893   23.3907 C   0  0  0  0  0  0  0  0  0  0  0  0
   28.6501   42.5461   22.1845 C   0  0  0  0  0  0  0  0  0  0  0  0
   29.8836   42.6417   22.1683 O   0  0  0  0  0  0  0  0  0  0  0  0
   25.8543   41.6746   19.7982 C   0  0  2  0  0  0  0  0  0  0  0  0
   26.5201   40.3332   19.4506 C   0  0  0  0  0  0  0  0  0  0  0  0
   26.0662   39.8217   18.1561 N   0  0  0  0  0  0  0  0  0  0  0  0
   26.4572   40.7700   17.1007 C   0  0  0  0  0  0  0  0  0  0  0  0
   25.7725   42.1081   17.2980 C   0  0  0  0  0  0  0  0  0  0  0  0
   26.0949   42.6894   18.6676 C   0  0  0  0  0  0  0  0  0  0  0  0
   25.5702   42.6142   24.4330 C   0  0  0  0  0  0  0  0  0  0  0  0
   26.0926   42.9295   26.0463 S   0  0  0  0  0  0  0  0  0  0  0  0
   24.5235   42.8638   26.6332 C   0  0  0  0  0  0  0  0  0  0  0  0
   23.6314   42.6621   25.6552 C   0  0  0  0  0  0  0  0  0  0  0  0
   24.2156   42.5081   24.3828 C   0  0  0  0  0  0  0  0  0  0  0  0
   26.6121   38.4832   17.8706 C   0  0  0  0  0  0  0  0  0  0  0  0
   25.8470   37.3227   18.4666 C   0  0  0  0  0  0  0  0  0  0  0  0
   26.5005   36.3149   19.1609 C   0  0  0  0  0  0  0  0  0  0  0  0
   25.9764   35.1007   19.4075 N   0  0  0  0  0  0  0  0  0  0  0  0
   24.7703   34.9148   18.8923 C   0  0  0  0  0  0  0  0  0  0  0  0
   24.0423   35.7580   18.1779 N   0  0  0  0  0  0  0  0  0  0  0  0
   24.6194   36.9489   17.9600 C   0  0  0  0  0  0  0  0  0  0  0  0
   24.2561   33.7030   19.1321 O   0  0  0  0  0  0  0  0  0  0  0  0
   24.9409   32.5732   18.5788 C   0  0  0  0  0  0  0  0  0  0  0  0
  1  2  2  0  0  0  0
  1  6  1  0  0  0  0
  2  3  1  0  0  0  0
  3  4  2  0  0  0  0
  4 14  1  0  0  0  0
  5  4  1  0  0  0  0
  6  5  1  0  0  0  0
  7  6  2  0  0  0  0
  8  9  1  0  0  0  0
  8  2  1  1  0  0  0
 10 19  1  0  0  0  0
 10  9  1  0  0  0  0
 11 10  1  0  0  0  0
 12 11  1  0  0  0  0
 12 13  1  0  0  0  0
 13  8  1  0  0  0  0
 14 15  1  0  0  0  0
 14 18  2  0  0  0  0
 15 16  1  0  0  0  0
 16 17  2  0  0  0  0
 18 17  1  0  0  0  0
 19 20  1  0  0  0  0
 20 25  2  0  0  0  0
 20 21  1  0  0  0  0
 21 22  2  0  0  0  0
 22 23  1  0  0  0  0
 23 26  1  0  0  0  0
 24 23  2  0  0  0  0
 25 24  1  0  0  0  0
 26 27  1  0  0  0  0
M  END
>  <CHROM.1>
178.21317386,55.90527886,84.13419462,-131.72462641,-63.43503793,26.01365121
40.04792150,20.95808449,-1.31513344,-1.13346072,-2.22087202

>  <Name>
lig.pdb

>  <RI>
0

>  <Rbt.Current_Directory>
/home/itssahil/PROJECTS/Mol_Feturizer/New_Systems/rnas/5kx9

>  <Rbt.Executable>
rbdock ($Id: //depot/dev/client3/rdock/2013.1/src/exe/rbdock.cxx#4 $)

>  <Rbt.Library>
libRbt.so (2013.1, Build901 2013/11/27)

>  <Rbt.Parameter_File>
/export/apps/rDock/src/rDock_2013.1_src/data/scripts/dock_solv.prm

>  <Rbt.Receptor>
prm/pocket_docking_8.prm

>  <SCORE>
-29.4049

>  <SCORE.INTER>
-24.7134

>  <SCORE.INTER.CONST>
1

>  <SCORE.INTER.POLAR>
0

>  <SCORE.INTER.ROT>
5

>  <SCORE.INTER.SOLV>
15.9381

>  <SCORE.INTER.VDW>
-28.7216

>  <SCORE.INTER.norm>
-0.915312

>  <SCORE.INTRA>
-4.69145

>  <SCORE.INTRA.DIHEDRAL>
3.8778

>  <SCORE.INTRA.DIHEDRAL.0>
2.68224

>  <SCORE.INTRA.POLAR>
0

>  <SCORE.INTRA.POLAR.0>
0

>  <SCORE.INTRA.REPUL>
0

>  <SCORE.INTRA.REPUL.0>
0

>  <SCORE.INTRA.SOLV>
-0.651829

>  <SCORE.INTRA.SOLV.lig_0>
-19.4148

>  <SCORE.INTRA.VDW>
-6.30444

>  <SCORE.INTRA.VDW.0>
5.42093

>  <SCORE.INTRA.norm>
-0.173757

>  <SCORE.RESTR>
0

>  <SCORE.RESTR.CAVITY>
0

>  <SCORE.RESTR.norm>
0

>  <SCORE.SYSTEM>
0

>  <SCORE.SYSTEM.CONST>
0

>  <SCORE.SYSTEM.DIHEDRAL>
0

>  <SCORE.SYSTEM.SOLV>
0

>  <SCORE.SYSTEM.norm>
0

>  <SCORE.heavy>
27

>  <SCORE.norm>
-1.08907

>  <RMSD>
6.952

$$$$
lig.pdb
 OpenBabel11021811523D
libRbt.so/2013.1/901 2013/11/27
 27 30  0  0  0  0  0  0  0  0999 V2000
   27.1713   37.7208   23.4431 N   0  0  0  0  0  0  0  0  0  0  0  0
   27.6657   38.7175   22.7514 C   0  0  0  0  0  0  0  0  0  0  0  0
   28.1500   39.8671   23.2851 N   0  0  0  0  0  0  0  0  0  0  0  0
   28.1776   39.9962   24.6452 C   0  0  0  0  0  0  0  0  0  0  0  0
   27.7084   38.9944   25.4457 C   0  0  0  0  0  0  0  0  0  0  0  0
   27.1634   37.8055   24.8348 C   0  0  0  0  0  0  0  0  0  0  0  0
   26.6723   36.8791   25.4916 O   0  0  0  0  0  0  0  0  0  0  0  0
   27.5879   38.7813   21.2101 C   0  0  2  0  0  0  0  0  0  0  0  0
   27.5597   37.2922   20.8292 C   0  0  0  0  0  0  0  0  0  0  0  0
   27.7336   37.0974   19.3887 N   0  0  0  0  0  0  0  0  0  0  0  0
   29.0558   37.6071   18.9909 C   0  0  0  0  0  0  0  0  0  0  0  0
   29.1544   39.0996   19.2376 C   0  0  0  0  0  0  0  0  0  0  0  0
   28.8857   39.4300   20.6992 C   0  0  0  0  0  0  0  0  0  0  0  0
   28.7616   41.2603   25.0730 C   0  0  0  0  0  0  0  0  0  0  0  0
   29.2830   42.4451   23.9330 S   0  0  0  0  0  0  0  0  0  0  0  0
   29.8062   43.4744   25.1486 C   0  0  0  0  0  0  0  0  0  0  0  0
   29.5581   42.9769   26.3668 C   0  0  0  0  0  0  0  0  0  0  0  0
   28.9642   41.6998   26.3435 C   0  0  0  0  0  0  0  0  0  0  0  0
   27.5926   35.6822   19.0033 C   0  0  0  0  0  0  0  0  0  0  0  0
   27.2179   35.4305   17.5597 C   0  0  0  0  0  0  0  0  0  0  0  0
   27.9262   34.5248   16.7834 C   0  0  0  0  0  0  0  0  0  0  0  0
   27.9025   34.4971   15.4385 N   0  0  0  0  0  0  0  0  0  0  0  0
   27.1629   35.4484   14.8885 C   0  0  0  0  0  0  0  0  0  0  0  0
   26.4681   36.4009   15.4898 N   0  0  0  0  0  0  0  0  0  0  0  0
   26.5351   36.3809   16.8291 C   0  0  0  0  0  0  0  0  0  0  0  0
   27.1489   35.4231   13.5509 O   0  0  0  0  0  0  0  0  0  0  0  0
   28.4125   35.3862   12.8772 C   0  0  0  0  0  0  0  0  0  0  0  0
  1  2  2  0  0  0  0
  1  6  1  0  0  0  0
  2  3  1  0  0  0  0
  3  4  2  0  0  0  0
  4 14  1  0  0  0  0
  5  4  1  0  0  0  0
  6  5  1  0  0  0  0
  7  6  2  0  0  0  0
  8  9  1  0  0  0  0
  8  2  1  1  0  0  0
 10 19  1  0  0  0  0
 10  9  1  0  0  0  0
 11 10  1  0  0  0  0
 12 11  1  0  0  0  0
 12 13  1  0  0  0  0
 13  8  1  0  0  0  0
 14 15  1  0  0  0  0
 14 18  2  0  0  0  0
 15 16  1  0  0  0  0
 16 17  2  0  0  0  0
 18 17  1  0  0  0  0
 19 20  1  0  0  0  0
 20 25  2  0  0  0  0
 20 21  1  0  0  0  0
 21 22  2  0  0  0  0
 22 23  1  0  0  0  0
 23 26  1  0  0  0  0
 24 23  2  0  0  0  0
 25 24  1  0  0  0  0
 26 27  1  0  0  0  0
M  END
>  <CHROM.1>
2.23849256,-28.28608869,157.07351398,130.45691559,-51.55700223,28.03280744
38.31201844,20.79153019,1.33391834,1.11734036,1.26066701

>  <Name>
lig.pdb

>  <RI>
0

>  <Rbt.Current_Directory>
/home/itssahil/PROJECTS/Mol_Feturizer/New_Systems/rnas/5kx9

>  <Rbt.Executable>
rbdock ($Id: //depot/dev/client3/rdock/2013.1/src/exe/rbdock.cxx#4 $)

>  <Rbt.Library>
libRbt.so (2013.1, Build901 2013/11/27)

>  <Rbt.Parameter_File>
/export/apps/rDock/src/rDock_2013.1_src/data/scripts/dock_solv.prm

>  <Rbt.Receptor>
prm/pocket_docking_7.prm

>  <SCORE>
-28.2445

>  <SCORE.INTER>
-24.828

>  <SCORE.INTER.CONST>
1

>  <SCORE.INTER.POLAR>
0

>  <SCORE.INTER.ROT>
5

>  <SCORE.INTER.SOLV>
11.7435

>  <SCORE.INTER.VDW>
-27.3998

>  <SCORE.INTER.norm>
-0.919554

>  <SCORE.INTRA>
-3.41656

>  <SCORE.INTRA.DIHEDRAL>
2.20145

>  <SCORE.INTRA.DIHEDRAL.0>
2.68224

>  <SCORE.INTRA.POLAR>
0

>  <SCORE.INTRA.POLAR.0>
0

>  <SCORE.INTRA.REPUL>
0

>  <SCORE.INTRA.REPUL.0>
0

>  <SCORE.INTRA.SOLV>
-0.457368

>  <SCORE.INTRA.SOLV.lig_0>
-19.4148

>  <SCORE.INTRA.VDW>
-4.2886

>  <SCORE.INTRA.VDW.0>
5.42093

>  <SCORE.INTRA.norm>
-0.126539

>  <SCORE.RESTR>
0

>  <SCORE.RESTR.CAVITY>
0

>  <SCORE.RESTR.norm>
0

>  <SCORE.SYSTEM>
0

>  <SCORE.SYSTEM.CONST>
0

>  <SCORE.SYSTEM.DIHEDRAL>
0

>  <SCORE.SYSTEM.SOLV>
0

>  <SCORE.SYSTEM.norm>
0

>  <SCORE.heavy>
27

>  <SCORE.norm>
-1.04609

>  <RMSD>
6.986

$$$$
lig.pdb
 OpenBabel11021811523D
libRbt.so/2013.1/901 2013/11/27
 27 30  0  0  0  0  0  0  0  0999 V2000
   28.3006   42.2320   22.4160 N   0  0  0  0  0  0  0  0  0  0  0  0
   27.0640   41.8010   22.3796 C   0  0  0  0  0  0  0  0  0  0  0  0
   26.1431   42.0034   23.3554 N   0  0  0  0  0  0  0  0  0  0  0  0
   26.4966   42.7502   24.4437 C   0  0  0  0  0  0  0  0  0  0  0  0
   27.7572   43.2636   24.5517 C   0  0  0  0  0  0  0  0  0  0  0  0
   28.7180   42.9889   23.5101 C   0  0  0  0  0  0  0  0  0  0  0  0
   29.8924   43.3746   23.5625 O   0  0  0  0  0  0  0  0  0  0  0  0
   26.5491   40.8386   21.2868 C   0  0  2  0  0  0  0  0  0  0  0  0
   27.7537   39.9037   21.0903 C   0  0  0  0  0  0  0  0  0  0  0  0
   27.5888   39.0464   19.9151 N   0  0  0  0  0  0  0  0  0  0  0  0
   27.5119   39.8900   18.7116 C   0  0  0  0  0  0  0  0  0  0  0  0
   26.2929   40.7898   18.7614 C   0  0  0  0  0  0  0  0  0  0  0  0
   26.3085   41.6612   20.0096 C   0  0  0  0  0  0  0  0  0  0  0  0
   25.3970   42.9188   25.3844 C   0  0  0  0  0  0  0  0  0  0  0  0
   25.5963   43.7924   26.8582 S   0  0  0  0  0  0  0  0  0  0  0  0
   24.0091   43.5049   27.3155 C   0  0  0  0  0  0  0  0  0  0  0  0
   23.3351   42.8223   26.3813 C   0  0  0  0  0  0  0  0  0  0  0  0
   24.1194   42.4692   25.2659 C   0  0  0  0  0  0  0  0  0  0  0  0
   28.6850   38.0700   19.7875 C   0  0  0  0  0  0  0  0  0  0  0  0
   28.2835   36.6160   19.8979 C   0  0  0  0  0  0  0  0  0  0  0  0
   28.4804   35.7365   18.8433 C   0  0  0  0  0  0  0  0  0  0  0  0
   27.8516   34.5542   18.7139 N   0  0  0  0  0  0  0  0  0  0  0  0
   26.9754   34.2971   19.6735 C   0  0  0  0  0  0  0  0  0  0  0  0
   26.6504   35.0486   20.7132 N   0  0  0  0  0  0  0  0  0  0  0  0
   27.3054   36.2167   20.7852 C   0  0  0  0  0  0  0  0  0  0  0  0
   26.3456   33.1246   19.5366 O   0  0  0  0  0  0  0  0  0  0  0  0
   25.3431   33.0277   18.5181 C   0  0  0  0  0  0  0  0  0  0  0  0
  1  2  2  0  0  0  0
  1  6  1  0  0  0  0
  2  3  1  0  0  0  0
  3  4  2  0  0  0  0
  4 14  1  0  0  0  0
  5  4  1  0  0  0  0
  6  5  1  0  0  0  0
  7  6  2  0  0  0  0
  8  9  1  0  0  0  0
  8  2  1  1  0  0  0
 10 19  1  0  0  0  0
 10  9  1  0  0  0  0
 11 10  1  0  0  0  0
 12 11  1  0  0  0  0
 12 13  1  0  0  0  0
 13  8  1  0  0  0  0
 14 15  1  0  0  0  0
 14 18  2  0  0  0  0
 15 16  1  0  0  0  0
 16 17  2  0  0  0  0
 18 17  1  0  0  0  0
 19 20  1  0  0  0  0
 20 25  2  0  0  0  0
 20 21  1  0  0  0  0
 21 22  2  0  0  0  0
 22 23  1  0  0  0  0
 23 26  1  0  0  0  0
 24 23  2  0  0  0  0
 25 24  1  0  0  0  0
 26 27  1  0  0  0  0
M  END
>  <CHROM.1>
178.60859808,38.09634818,116.45058155,118.46590974,-73.72639723,26.80240060
39.86550878,22.09163057,-1.74103449,-0.79972989,-2.61265707

>  <Name>
lig.pdb

>  <RI>
0

>  <Rbt.Current_Directory>
/home/itssahil/PROJECTS/Mol_Feturizer/New_Systems/rnas/5kx9

>  <Rbt.Executable>
rbdock ($Id: //depot/dev/client3/rdock/2013.1/src/exe/rbdock.cxx#4 $)

>  <Rbt.Library>
libRbt.so (2013.1, Build901 2013/11/27)

>  <Rbt.Parameter_File>
/export/apps/rDock/src/rDock_2013.1_src/data/scripts/dock_solv.prm

>  <Rbt.Receptor>
prm/pocket_docking_8.prm

>  <SCORE>
-28.9056

>  <SCORE.INTER>
-25.3177

>  <SCORE.INTER.CONST>
1

>  <SCORE.INTER.POLAR>
0

>  <SCORE.INTER.ROT>
5

>  <SCORE.INTER.SOLV>
13.1083

>  <SCORE.INTER.VDW>
-28.1813

>  <SCORE.INTER.norm>
-0.937694

>  <SCORE.INTRA>
-3.58786

>  <SCORE.INTRA.DIHEDRAL>
5.8817

>  <SCORE.INTRA.DIHEDRAL.0>
2.68224

>  <SCORE.INTRA.POLAR>
0

>  <SCORE.INTRA.POLAR.0>
0

>  <SCORE.INTRA.REPUL>
0

>  <SCORE.INTRA.REPUL.0>
0

>  <SCORE.INTRA.SOLV>
-0.541753

>  <SCORE.INTRA.SOLV.lig_0>
-19.4148

>  <SCORE.INTRA.VDW>
-6.25783

>  <SCORE.INTRA.VDW.0>
5.42093

>  <SCORE.INTRA.norm>
-0.132884

>  <SCORE.RESTR>
0

>  <SCORE.RESTR.CAVITY>
0

>  <SCORE.RESTR.norm>
0

>  <SCORE.SYSTEM>
0

>  <SCORE.SYSTEM.CONST>
0

>  <SCORE.SYSTEM.DIHEDRAL>
0

>  <SCORE.SYSTEM.SOLV>
0

>  <SCORE.SYSTEM.norm>
0

>  <SCORE.heavy>
27

>  <SCORE.norm>
-1.07058

>  <RMSD>
7.013

$$$$
lig.pdb
 OpenBabel11021811523D
libRbt.so/2013.1/901 2013/11/27
 27 30  0  0  0  0  0  0  0  0999 V2000
   29.0190   41.1674   21.1170 N   0  0  0  0  0  0  0  0  0  0  0  0
   28.7012   40.0252   20.5595 C   0  0  0  0  0  0  0  0  0  0  0  0
   28.1976   38.9529   21.2210 N   0  0  0  0  0  0  0  0  0  0  0  0
   27.9511   39.0670   22.5601 C   0  0  0  0  0  0  0  0  0  0  0  0
   28.2257   40.2314   23.2183 C   0  0  0  0  0  0  0  0  0  0  0  0
   28.7997   41.3336   22.4838 C   0  0  0  0  0  0  0  0  0  0  0  0
   29.1239   42.4003   23.0203 O   0  0  0  0  0  0  0  0  0  0  0  0
   29.0377   39.6939   19.0889 C   0  0  2  0  0  0  0  0  0  0  0  0
   30.5256   39.3174   19.1781 C   0  0  0  0  0  0  0  0  0  0  0  0
   31.1352   39.1976   17.8525 N   0  0  0  0  0  0  0  0  0  0  0  0
   31.0728   40.5027   17.1750 C   0  0  0  0  0  0  0  0  0  0  0  0
   29.6342   40.9245   16.9498 C   0  0  0  0  0  0  0  0  0  0  0  0
   28.8701   40.9821   18.2653 C   0  0  0  0  0  0  0  0  0  0  0  0
   27.3733   37.8550   23.1253 C   0  0  0  0  0  0  0  0  0  0  0  0
   26.7678   37.8119   24.7398 S   0  0  0  0  0  0  0  0  0  0  0  0
   26.3546   36.1925   24.6076 C   0  0  0  0  0  0  0  0  0  0  0  0
   26.6127   35.7083   23.3862 C   0  0  0  0  0  0  0  0  0  0  0  0
   27.2065   36.6484   22.5214 C   0  0  0  0  0  0  0  0  0  0  0  0
   32.5290   38.7253   17.9278 C   0  0  0  0  0  0  0  0  0  0  0  0
   32.8716   37.5505   17.0391 C   0  0  0  0  0  0  0  0  0  0  0  0
   32.2929   37.4073   15.7864 C   0  0  0  0  0  0  0  0  0  0  0  0
   32.2566   36.2538   15.0950 N   0  0  0  0  0  0  0  0  0  0  0  0
   32.7946   35.2229   15.7294 C   0  0  0  0  0  0  0  0  0  0  0  0
   33.3437   35.1937   16.9332 N   0  0  0  0  0  0  0  0  0  0  0  0
   33.3453   36.3710   17.5756 C   0  0  0  0  0  0  0  0  0  0  0  0
   32.7486   34.0758   15.0424 O   0  0  0  0  0  0  0  0  0  0  0  0
   33.0997   34.1219   13.6545 C   0  0  0  0  0  0  0  0  0  0  0  0
  1  2  2  0  0  0  0
  1  6  1  0  0  0  0
  2  3  1  0  0  0  0
  3  4  2  0  0  0  0
  4 14  1  0  0  0  0
  5  4  1  0  0  0  0
  6  5  1  0  0  0  0
  7  6  2  0  0  0  0
  8  9  1  0  0  0  0
  8  2  1  1  0  0  0
 10 19  1  0  0  0  0
 10  9  1  0  0  0  0
 11 10  1  0  0  0  0
 12 11  1  0  0  0  0
 12 13  1  0  0  0  0
 13  8  1  0  0  0  0
 14 15  1  0  0  0  0
 14 18  2  0  0  0  0
 15 16  1  0  0  0  0
 16 17  2  0  0  0  0
 18 17  1  0  0  0  0
 19 20  1  0  0  0  0
 20 25  2  0  0  0  0
 20 21  1  0  0  0  0
 21 22  2  0  0  0  0
 22 23  1  0  0  0  0
 23 26  1  0  0  0  0
 24 23  2  0  0  0  0
 25 24  1  0  0  0  0
 26 27  1  0  0  0  0
M  END
>  <CHROM.1>
-171.37200828,78.92993458,129.17180891,35.13050633,44.53061442,29.88304279
38.23668262,19.66351655,-2.90270185,-0.98338879,3.09462229

>  <Name>
lig.pdb

>  <RI>
0

>  <Rbt.Current_Directory>
/home/itssahil/PROJECTS/Mol_Feturizer/New_Systems/rnas/5kx9

>  <Rbt.Executable>
rbdock ($Id: //depot/dev/client3/rdock/2013.1/src/exe/rbdock.cxx#4 $)

>  <Rbt.Library>
libRbt.so (2013.1, Build901 2013/11/27)

>  <Rbt.Parameter_File>
/export/apps/rDock/src/rDock_2013.1_src/data/scripts/dock_solv.prm

>  <Rbt.Receptor>
prm/pocket_docking_8.prm

>  <SCORE>
-34.8004

>  <SCORE.INTER>
-30.7475

>  <SCORE.INTER.CONST>
1

>  <SCORE.INTER.POLAR>
0

>  <SCORE.INTER.ROT>
5

>  <SCORE.INTER.SOLV>
13.339

>  <SCORE.INTER.VDW>
-31.878

>  <SCORE.INTER.norm>
-1.1388

>  <SCORE.INTRA>
-4.05289

>  <SCORE.INTRA.DIHEDRAL>
3.42272

>  <SCORE.INTRA.DIHEDRAL.0>
2.68224

>  <SCORE.INTRA.POLAR>
0

>  <SCORE.INTRA.POLAR.0>
0

>  <SCORE.INTRA.REPUL>
0

>  <SCORE.INTRA.REPUL.0>
0

>  <SCORE.INTRA.SOLV>
-0.557652

>  <SCORE.INTRA.SOLV.lig_0>
-19.4148

>  <SCORE.INTRA.VDW>
-5.48543

>  <SCORE.INTRA.VDW.0>
5.42093

>  <SCORE.INTRA.norm>
-0.150107

>  <SCORE.RESTR>
0

>  <SCORE.RESTR.CAVITY>
0

>  <SCORE.RESTR.norm>
0

>  <SCORE.SYSTEM>
0

>  <SCORE.SYSTEM.CONST>
0

>  <SCORE.SYSTEM.DIHEDRAL>
0

>  <SCORE.SYSTEM.SOLV>
0

>  <SCORE.SYSTEM.norm>
0

>  <SCORE.heavy>
27

>  <SCORE.norm>
-1.2889

>  <RMSD>
7.022

$$$$
lig.pdb
 OpenBabel11021811523D
libRbt.so/2013.1/901 2013/11/27
 27 30  0  0  0  0  0  0  0  0999 V2000
   29.4792   42.7909   22.4899 N   0  0  0  0  0  0  0  0  0  0  0  0
   28.2572   42.4989   22.1186 C   0  0  0  0  0  0  0  0  0  0  0  0
   27.1675   42.5540   22.9252 N   0  0  0  0  0  0  0  0  0  0  0  0
   27.3264   42.9896   24.2106 C   0  0  0  0  0  0  0  0  0  0  0  0
   28.5610   43.3423   24.6748 C   0  0  0  0  0  0  0  0  0  0  0  0
   29.6999   43.2287   23.7951 C   0  0  0  0  0  0  0  0  0  0  0  0
   30.8557   43.4790   24.1589 O   0  0  0  0  0  0  0  0  0  0  0  0
   27.9314   41.8710   20.7456 C   0  0  2  0  0  0  0  0  0  0  0  0
   28.1012   40.3701   21.0317 C   0  0  0  0  0  0  0  0  0  0  0  0
   28.0803   39.5775   19.8010 N   0  0  0  0  0  0  0  0  0  0  0  0
   29.2169   39.9743   18.9544 C   0  0  0  0  0  0  0  0  0  0  0  0
   29.0942   41.4254   18.5331 C   0  0  0  0  0  0  0  0  0  0  0  0
   29.0028   42.3400   19.7467 C   0  0  0  0  0  0  0  0  0  0  0  0
   26.0675   43.0370   24.9421 C   0  0  0  0  0  0  0  0  0  0  0  0
   24.5697   42.6338   24.1878 S   0  0  0  0  0  0  0  0  0  0  0  0
   23.7069   42.9526   25.5895 C   0  0  0  0  0  0  0  0  0  0  0  0
   24.5096   43.3014   26.6028 C   0  0  0  0  0  0  0  0  0  0  0  0
   25.8712   43.3631   26.2474 C   0  0  0  0  0  0  0  0  0  0  0  0
   28.1269   38.1308   20.0767 C   0  0  0  0  0  0  0  0  0  0  0  0
   27.2079   37.2735   19.2352 C   0  0  0  0  0  0  0  0  0  0  0  0
   26.4169   37.8326   18.2421 C   0  0  0  0  0  0  0  0  0  0  0  0
   25.3397   37.2334   17.7030 N   0  0  0  0  0  0  0  0  0  0  0  0
   25.0551   36.0517   18.2294 C   0  0  0  0  0  0  0  0  0  0  0  0
   25.6851   35.4110   19.2011 N   0  0  0  0  0  0  0  0  0  0  0  0
   26.7463   36.0602   19.7024 C   0  0  0  0  0  0  0  0  0  0  0  0
   23.9781   35.4630   17.6970 O   0  0  0  0  0  0  0  0  0  0  0  0
   22.8357   35.2858   18.5427 C   0  0  0  0  0  0  0  0  0  0  0  0
  1  2  2  0  0  0  0
  1  6  1  0  0  0  0
  2  3  1  0  0  0  0
  3  4  2  0  0  0  0
  4 14  1  0  0  0  0
  5  4  1  0  0  0  0
  6  5  1  0  0  0  0
  7  6  2  0  0  0  0
  8  9  1  0  0  0  0
  8  2  1  1  0  0  0
 10 19  1  0  0  0  0
 10  9  1  0  0  0  0
 11 10  1  0  0  0  0
 12 11  1  0  0  0  0
 12 13  1  0  0  0  0
 13  8  1  0  0  0  0
 14 15  1  0  0  0  0
 14 18  2  0  0  0  0
 15 16  1  0  0  0  0
 16 17  2  0  0  0  0
 18 17  1  0  0  0  0
 19 20  1  0  0  0  0
 20 25  2  0  0  0  0
 20 21  1  0  0  0  0
 21 22  2  0  0  0  0
 22 23  1  0  0  0  0
 23 26  1  0  0  0  0
 24 23  2  0  0  0  0
 25 24  1  0  0  0  0
 26 27  1  0  0  0  0
M  END
>  <CHROM.1>
-2.24294661,86.49187382,138.00530635,2.17720456,-113.91119730,26.88444385
40.44834070,21.53228925,-1.39077450,-0.43156440,-2.32784549

>  <Name>
lig.pdb

>  <RI>
0

>  <Rbt.Current_Directory>
/home/itssahil/PROJECTS/Mol_Feturizer/New_Systems/rnas/5kx9

>  <Rbt.Executable>
rbdock ($Id: //depot/dev/client3/rdock/2013.1/src/exe/rbdock.cxx#4 $)

>  <Rbt.Library>
libRbt.so (2013.1, Build901 2013/11/27)

>  <Rbt.Parameter_File>
/export/apps/rDock/src/rDock_2013.1_src/data/scripts/dock_solv.prm

>  <Rbt.Receptor>
prm/blind_docking_100.prm

>  <SCORE>
-29.6814

>  <SCORE.INTER>
-25.2633

>  <SCORE.INTER.CONST>
1

>  <SCORE.INTER.POLAR>
0

>  <SCORE.INTER.ROT>
5

>  <SCORE.INTER.SOLV>
13.0858

>  <SCORE.INTER.VDW>
-28.1375

>  <SCORE.INTER.norm>
-0.935677

>  <SCORE.INTRA>
-4.42092

>  <SCORE.INTRA.DIHEDRAL>
4.49531

>  <SCORE.INTRA.DIHEDRAL.0>
2.68224

>  <SCORE.INTRA.POLAR>
0

>  <SCORE.INTRA.POLAR.0>
0

>  <SCORE.INTRA.REPUL>
0

>  <SCORE.INTRA.REPUL.0>
0

>  <SCORE.INTRA.SOLV>
-0.538653

>  <SCORE.INTRA.SOLV.lig_0>
-19.4148

>  <SCORE.INTRA.VDW>
-6.39925

>  <SCORE.INTRA.VDW.0>
5.42093

>  <SCORE.INTRA.norm>
-0.163738

>  <SCORE.RESTR>
0.00284087

>  <SCORE.RESTR.CAVITY>
0.00284087

>  <SCORE.RESTR.norm>
0.000105217

>  <SCORE.SYSTEM>
0

>  <SCORE.SYSTEM.CONST>
0

>  <SCORE.SYSTEM.DIHEDRAL>
0

>  <SCORE.SYSTEM.SOLV>
0

>  <SCORE.SYSTEM.norm>
0

>  <SCORE.heavy>
27

>  <SCORE.norm>
-1.09931

>  <RMSD>
7.033

$$$$
lig.pdb
 OpenBabel11021811523D
libRbt.so/2013.1/901 2013/11/27
 27 30  0  0  0  0  0  0  0  0999 V2000
   27.2432   39.5484   20.9071 N   0  0  0  0  0  0  0  0  0  0  0  0
   27.8286   39.1212   21.9984 C   0  0  0  0  0  0  0  0  0  0  0  0
   28.4220   39.9177   22.9229 N   0  0  0  0  0  0  0  0  0  0  0  0
   28.3754   41.2719   22.7463 C   0  0  0  0  0  0  0  0  0  0  0  0
   27.7604   41.8068   21.6508 C   0  0  0  0  0  0  0  0  0  0  0  0
   27.1782   40.9210   20.6709 C   0  0  0  0  0  0  0  0  0  0  0  0
   26.6511   41.3283   19.6283 O   0  0  0  0  0  0  0  0  0  0  0  0
   28.0781   37.6228   22.2780 C   0  0  2  0  0  0  0  0  0  0  0  0
   27.3602   36.9528   21.0952 C   0  0  0  0  0  0  0  0  0  0  0  0
   27.2515   35.5042   21.2768 N   0  0  0  0  0  0  0  0  0  0  0  0
   26.4374   35.2293   22.4717 C   0  0  0  0  0  0  0  0  0  0  0  0
   27.1105   35.7693   23.7181 C   0  0  0  0  0  0  0  0  0  0  0  0
   27.3683   37.2646   23.5948 C   0  0  0  0  0  0  0  0  0  0  0  0
   29.0138   41.9980   23.8360 C   0  0  0  0  0  0  0  0  0  0  0  0
   29.6003   43.6065   23.6269 S   0  0  0  0  0  0  0  0  0  0  0  0
   30.1597   43.6739   25.2060 C   0  0  0  0  0  0  0  0  0  0  0  0
   29.8775   42.5549   25.8850 C   0  0  0  0  0  0  0  0  0  0  0  0
   29.2250   41.5756   25.1109 C   0  0  0  0  0  0  0  0  0  0  0  0
   26.6683   34.8432   20.0960 C   0  0  0  0  0  0  0  0  0  0  0  0
   27.5126   34.8784   18.8417 C   0  0  0  0  0  0  0  0  0  0  0  0
   28.0162   33.7121   18.2843 C   0  0  0  0  0  0  0  0  0  0  0  0
   29.0386   33.6686   17.4109 N   0  0  0  0  0  0  0  0  0  0  0  0
   29.5728   34.8502   17.1407 C   0  0  0  0  0  0  0  0  0  0  0  0
   29.2323   36.0357   17.6202 N   0  0  0  0  0  0  0  0  0  0  0  0
   28.2116   36.0147   18.4900 C   0  0  0  0  0  0  0  0  0  0  0  0
   30.5949   34.8019   16.2787 O   0  0  0  0  0  0  0  0  0  0  0  0
   31.7615   35.5714   16.5929 C   0  0  0  0  0  0  0  0  0  0  0  0
  1  2  2  0  0  0  0
  1  6  1  0  0  0  0
  2  3  1  0  0  0  0
  3  4  2  0  0  0  0
  4 14  1  0  0  0  0
  5  4  1  0  0  0  0
  6  5  1  0  0  0  0
  7  6  2  0  0  0  0
  8  9  1  0  0  0  0
  8  2  1  6  0  0  0
 10 19  1  0  0  0  0
 10  9  1  0  0  0  0
 11 10  1  0  0  0  0
 12 11  1  0  0  0  0
 12 13  1  0  0  0  0
 13  8  1  0  0  0  0
 14 15  1  0  0  0  0
 14 18  2  0  0  0  0
 15 16  1  0  0  0  0
 16 17  2  0  0  0  0
 18 17  1  0  0  0  0
 19 20  1  0  0  0  0
 20 25  2  0  0  0  0
 20 21  1  0  0  0  0
 21 22  2  0  0  0  0
 22 23  1  0  0  0  0
 23 26  1  0  0  0  0
 24 23  2  0  0  0  0
 25 24  1  0  0  0  0
 26 27  1  0  0  0  0
M  END
>  <CHROM.1>
157.63600296,-5.58106693,66.80063195,115.45039114,-135.20500603,28.41838545
38.36081418,21.14759204,-1.53716872,-1.00760830,-2.46405597

>  <Name>
lig.pdb

>  <RI>
0

>  <Rbt.Current_Directory>
/home/itssahil/PROJECTS/Mol_Feturizer/New_Systems/rnas/5kx9

>  <Rbt.Executable>
rbdock ($Id: //depot/dev/client3/rdock/2013.1/src/exe/rbdock.cxx#4 $)

>  <Rbt.Library>
libRbt.so (2013.1, Build901 2013/11/27)

>  <Rbt.Parameter_File>
/export/apps/rDock/src/rDock_2013.1_src/data/scripts/dock_solv.prm

>  <Rbt.Receptor>
prm/blind_docking_80.prm

>  <SCORE>
-32.674

>  <SCORE.INTER>
-30.7713

>  <SCORE.INTER.CONST>
1

>  <SCORE.INTER.POLAR>
0

>  <SCORE.INTER.ROT>
5

>  <SCORE.INTER.SOLV>
12.1136

>  <SCORE.INTER.VDW>
-31.4854

>  <SCORE.INTER.norm>
-1.13968

>  <SCORE.INTRA>
-1.90271

>  <SCORE.INTRA.DIHEDRAL>
3.13648

>  <SCORE.INTRA.DIHEDRAL.0>
2.68224

>  <SCORE.INTRA.POLAR>
0

>  <SCORE.INTRA.POLAR.0>
0

>  <SCORE.INTRA.REPUL>
0

>  <SCORE.INTRA.REPUL.0>
0

>  <SCORE.INTRA.SOLV>
-0.430916

>  <SCORE.INTRA.SOLV.lig_0>
-19.4148

>  <SCORE.INTRA.VDW>
-3.2555

>  <SCORE.INTRA.VDW.0>
5.42093

>  <SCORE.INTRA.norm>
-0.0704709

>  <SCORE.RESTR>
0

>  <SCORE.RESTR.CAVITY>
0

>  <SCORE.RESTR.norm>
0

>  <SCORE.SYSTEM>
0

>  <SCORE.SYSTEM.CONST>
0

>  <SCORE.SYSTEM.DIHEDRAL>
0

>  <SCORE.SYSTEM.SOLV>
0

>  <SCORE.SYSTEM.norm>
0

>  <SCORE.heavy>
27

>  <SCORE.norm>
-1.21015

>  <RMSD>
7.039

$$$$
lig.pdb
 OpenBabel11021811523D
libRbt.so/2013.1/901 2013/11/27
 27 30  0  0  0  0  0  0  0  0999 V2000
   26.8556   36.8260   23.8092 N   0  0  0  0  0  0  0  0  0  0  0  0
   27.6265   37.2391   22.8338 C   0  0  0  0  0  0  0  0  0  0  0  0
   28.1204   38.4973   22.7154 N   0  0  0  0  0  0  0  0  0  0  0  0
   27.8447   39.4037   23.7001 C   0  0  0  0  0  0  0  0  0  0  0  0
   27.0719   39.0514   24.7693 C   0  0  0  0  0  0  0  0  0  0  0  0
   26.5325   37.7140   24.8344 C   0  0  0  0  0  0  0  0  0  0  0  0
   25.7822   37.3372   25.7432 O   0  0  0  0  0  0  0  0  0  0  0  0
   27.9219   36.3801   21.5847 C   0  0  2  0  0  0  0  0  0  0  0  0
   27.2698   37.2081   20.4654 C   0  0  0  0  0  0  0  0  0  0  0  0
   27.2090   36.4646   19.2058 N   0  0  0  0  0  0  0  0  0  0  0  0
   26.3658   35.2726   19.3914 C   0  0  0  0  0  0  0  0  0  0  0  0
   26.9759   34.3351   20.4147 C   0  0  0  0  0  0  0  0  0  0  0  0
   27.1820   35.0415   21.7474 C   0  0  0  0  0  0  0  0  0  0  0  0
   28.4747   40.6952   23.4606 C   0  0  0  0  0  0  0  0  0  0  0  0
   29.5360   40.9476   22.1246 S   0  0  0  0  0  0  0  0  0  0  0  0
   29.8147   42.5405   22.5672 C   0  0  0  0  0  0  0  0  0  0  0  0
   29.1043   42.8915   23.6466 C   0  0  0  0  0  0  0  0  0  0  0  0
   28.3330   41.8404   24.1797 C   0  0  0  0  0  0  0  0  0  0  0  0
   26.6909   37.2921   18.1021 C   0  0  0  0  0  0  0  0  0  0  0  0
   27.2338   36.9667   16.7285 C   0  0  0  0  0  0  0  0  0  0  0  0
   26.3829   36.6656   15.6749 C   0  0  0  0  0  0  0  0  0  0  0  0
   26.7627   36.0328   14.5502 N   0  0  0  0  0  0  0  0  0  0  0  0
   28.0370   35.6716   14.5339 C   0  0  0  0  0  0  0  0  0  0  0  0
   28.9543   35.8500   15.4711 N   0  0  0  0  0  0  0  0  0  0  0  0
   28.5152   36.4806   16.5703 C   0  0  0  0  0  0  0  0  0  0  0  0
   28.4088   35.0346   13.4176 O   0  0  0  0  0  0  0  0  0  0  0  0
   27.6255   33.9078   13.0075 C   0  0  0  0  0  0  0  0  0  0  0  0
  1  2  2  0  0  0  0
  1  6  1  0  0  0  0
  2  3  1  0  0  0  0
  3  4  2  0  0  0  0
  4 14  1  0  0  0  0
  5  4  1  0  0  0  0
  6  5  1  0  0  0  0
  7  6  2  0  0  0  0
  8  9  1  0  0  0  0
  8  2  1  1  0  0  0
 10 19  1  0  0  0  0
 10  9  1  0  0  0  0
 11 10  1  0  0  0  0
 12 11  1  0  0  0  0
 12 13  1  0  0  0  0
 13  8  1  0  0  0  0
 14 15  1  0  0  0  0
 14 18  2  0  0  0  0
 15 16  1  0  0  0  0
 16 17  2  0  0  0  0
 18 17  1  0  0  0  0
 19 20  1  0  0  0  0
 20 25  2  0  0  0  0
 20 21  1  0  0  0  0
 21 22  2  0  0  0  0
 22 23  1  0  0  0  0
 23 26  1  0  0  0  0
 24 23  2  0  0  0  0
 25 24  1  0  0  0  0
 26 27  1  0  0  0  0
M  END
>  <CHROM.1>
-4.27931591,115.14385807,148.64853033,124.65426456,-52.24556398,27.72576733
37.63400087,20.22633347,1.47752051,1.10638366,1.18556615

>  <Name>
lig.pdb

>  <RI>
0

>  <Rbt.Current_Directory>
/home/itssahil/PROJECTS/Mol_Feturizer/New_Systems/rnas/5kx9

>  <Rbt.Executable>
rbdock ($Id: //depot/dev/client3/rdock/2013.1/src/exe/rbdock.cxx#4 $)

>  <Rbt.Library>
libRbt.so (2013.1, Build901 2013/11/27)

>  <Rbt.Parameter_File>
/export/apps/rDock/src/rDock_2013.1_src/data/scripts/dock_solv.prm

>  <Rbt.Receptor>
prm/pocket_docking_6.prm

>  <SCORE>
-32.9596

>  <SCORE.INTER>
-29.389

>  <SCORE.INTER.CONST>
1

>  <SCORE.INTER.POLAR>
0

>  <SCORE.INTER.ROT>
5

>  <SCORE.INTER.SOLV>
13.5559

>  <SCORE.INTER.VDW>
-31.0446

>  <SCORE.INTER.norm>
-1.08848

>  <SCORE.INTRA>
-3.57063

>  <SCORE.INTRA.DIHEDRAL>
3.09667

>  <SCORE.INTRA.DIHEDRAL.0>
2.68224

>  <SCORE.INTRA.POLAR>
0

>  <SCORE.INTRA.POLAR.0>
0

>  <SCORE.INTRA.REPUL>
0

>  <SCORE.INTRA.REPUL.0>
0

>  <SCORE.INTRA.SOLV>
-0.470489

>  <SCORE.INTRA.SOLV.lig_0>
-19.4148

>  <SCORE.INTRA.VDW>
-4.88371

>  <SCORE.INTRA.VDW.0>
5.42093

>  <SCORE.INTRA.norm>
-0.132245

>  <SCORE.RESTR>
0

>  <SCORE.RESTR.CAVITY>
0

>  <SCORE.RESTR.norm>
0

>  <SCORE.SYSTEM>
0

>  <SCORE.SYSTEM.CONST>
0

>  <SCORE.SYSTEM.DIHEDRAL>
0

>  <SCORE.SYSTEM.SOLV>
0

>  <SCORE.SYSTEM.norm>
0

>  <SCORE.heavy>
27

>  <SCORE.norm>
-1.22073

>  <RMSD>
7.041

$$$$
lig.pdb
 OpenBabel11021811523D
libRbt.so/2013.1/901 2013/11/27
 27 30  0  0  0  0  0  0  0  0999 V2000
   26.5910   37.0326   24.2998 N   0  0  0  0  0  0  0  0  0  0  0  0
   27.4329   37.4029   23.3669 C   0  0  0  0  0  0  0  0  0  0  0  0
   27.9411   38.6539   23.2330 N   0  0  0  0  0  0  0  0  0  0  0  0
   27.5998   39.6010   24.1569 C   0  0  0  0  0  0  0  0  0  0  0  0
   26.7495   39.2953   25.1806 C   0  0  0  0  0  0  0  0  0  0  0  0
   26.1993   37.9632   25.2613 C   0  0  0  0  0  0  0  0  0  0  0  0
   25.3830   37.6264   26.1279 O   0  0  0  0  0  0  0  0  0  0  0  0
   27.8134   36.4921   22.1789 C   0  0  2  0  0  0  0  0  0  0  0  0
   27.5344   37.4049   20.9737 C   0  0  0  0  0  0  0  0  0  0  0  0
   27.5915   36.6676   19.7102 N   0  0  0  0  0  0  0  0  0  0  0  0
   26.5413   35.6364   19.7074 C   0  0  0  0  0  0  0  0  0  0  0  0
   26.7797   34.6217   20.8082 C   0  0  0  0  0  0  0  0  0  0  0  0
   26.8429   35.2988   22.1702 C   0  0  0  0  0  0  0  0  0  0  0  0
   28.2527   40.8798   23.9109 C   0  0  0  0  0  0  0  0  0  0  0  0
   29.2823   41.1199   22.5480 S   0  0  0  0  0  0  0  0  0  0  0  0
   29.6100   42.7019   22.9961 C   0  0  0  0  0  0  0  0  0  0  0  0
   28.9380   43.0593   24.0978 C   0  0  0  0  0  0  0  0  0  0  0  0
   28.1576   42.0213   24.6432 C   0  0  0  0  0  0  0  0  0  0  0  0
   27.4392   37.5576   18.5458 C   0  0  0  0  0  0  0  0  0  0  0  0
   27.5010   36.8834   17.1933 C   0  0  0  0  0  0  0  0  0  0  0  0
   26.4727   37.0279   16.2733 C   0  0  0  0  0  0  0  0  0  0  0  0
   26.2717   36.2085   15.2255 N   0  0  0  0  0  0  0  0  0  0  0  0
   27.1274   35.2001   15.1524 C   0  0  0  0  0  0  0  0  0  0  0  0
   28.1263   34.9083   15.9700 N   0  0  0  0  0  0  0  0  0  0  0  0
   28.2732   35.7570   16.9981 C   0  0  0  0  0  0  0  0  0  0  0  0
   26.9187   34.3823   14.1142 O   0  0  0  0  0  0  0  0  0  0  0  0
   26.4911   33.0457   14.4011 C   0  0  0  0  0  0  0  0  0  0  0  0
  1  2  2  0  0  0  0
  1  6  1  0  0  0  0
  2  3  1  0  0  0  0
  3  4  2  0  0  0  0
  4 14  1  0  0  0  0
  5  4  1  0  0  0  0
  6  5  1  0  0  0  0
  7  6  2  0  0  0  0
  8  9  1  0  0  0  0
  8  2  1  1  0  0  0
 10 19  1  0  0  0  0
 10  9  1  0  0  0  0
 11 10  1  0  0  0  0
 12 11  1  0  0  0  0
 12 13  1  0  0  0  0
 13  8  1  0  0  0  0
 14 15  1  0  0  0  0
 14 18  2  0  0  0  0
 15 16  1  0  0  0  0
 16 17  2  0  0  0  0
 18 17  1  0  0  0  0
 19 20  1  0  0  0  0
 20 25  2  0  0  0  0
 20 21  1  0  0  0  0
 21 22  2  0  0  0  0
 22 23  1  0  0  0  0
 23 26  1  0  0  0  0
 24 23  2  0  0  0  0
 25 24  1  0  0  0  0
 26 27  1  0  0  0  0
M  END
>  <CHROM.1>
2.24318388,127.12927716,179.34901055,124.75062492,-113.14863662,27.46428211
37.66756473,20.74395326,1.37438784,1.12251373,1.19982192

>  <Name>
lig.pdb

>  <RI>
0

>  <Rbt.Current_Directory>
/home/itssahil/PROJECTS/Mol_Feturizer/New_Systems/rnas/5kx9

>  <Rbt.Executable>
rbdock ($Id: //depot/dev/client3/rdock/2013.1/src/exe/rbdock.cxx#4 $)

>  <Rbt.Library>
libRbt.so (2013.1, Build901 2013/11/27)

>  <Rbt.Parameter_File>
/export/apps/rDock/src/rDock_2013.1_src/data/scripts/dock_solv.prm

>  <Rbt.Receptor>
prm/pocket_docking_6.prm

>  <SCORE>
-32.8519

>  <SCORE.INTER>
-29.8737

>  <SCORE.INTER.CONST>
1

>  <SCORE.INTER.POLAR>
0

>  <SCORE.INTER.ROT>
5

>  <SCORE.INTER.SOLV>
13.0638

>  <SCORE.INTER.VDW>
-31.2037

>  <SCORE.INTER.norm>
-1.10643

>  <SCORE.INTRA>
-2.98495

>  <SCORE.INTRA.DIHEDRAL>
2.90511

>  <SCORE.INTRA.DIHEDRAL.0>
2.68224

>  <SCORE.INTRA.POLAR>
0

>  <SCORE.INTRA.POLAR.0>
0

>  <SCORE.INTRA.REPUL>
0

>  <SCORE.INTRA.REPUL.0>
0

>  <SCORE.INTRA.SOLV>
-0.325242

>  <SCORE.INTRA.SOLV.lig_0>
-19.4148

>  <SCORE.INTRA.VDW>
-4.27488

>  <SCORE.INTRA.VDW.0>
5.42093

>  <SCORE.INTRA.norm>
-0.110554

>  <SCORE.RESTR>
0.00675889

>  <SCORE.RESTR.CAVITY>
0.00675889

>  <SCORE.RESTR.norm>
0.000250329

>  <SCORE.SYSTEM>
0

>  <SCORE.SYSTEM.CONST>
0

>  <SCORE.SYSTEM.DIHEDRAL>
0

>  <SCORE.SYSTEM.SOLV>
0

>  <SCORE.SYSTEM.norm>
0

>  <SCORE.heavy>
27

>  <SCORE.norm>
-1.21674

>  <RMSD>
7.042

$$$$
lig.pdb
 OpenBabel11021811523D
libRbt.so/2013.1/901 2013/11/27
 27 30  0  0  0  0  0  0  0  0999 V2000
   28.5874   39.5692   16.7464 N   0  0  0  0  0  0  0  0  0  0  0  0
   27.2801   39.5571   16.8303 C   0  0  0  0  0  0  0  0  0  0  0  0
   26.4790   40.6302   16.6119 N   0  0  0  0  0  0  0  0  0  0  0  0
   27.0543   41.8089   16.2286 C   0  0  0  0  0  0  0  0  0  0  0  0
   28.4091   41.9050   16.0883 C   0  0  0  0  0  0  0  0  0  0  0  0
   29.2272   40.7498   16.3711 C   0  0  0  0  0  0  0  0  0  0  0  0
   30.4631   40.7740   16.3175 O   0  0  0  0  0  0  0  0  0  0  0  0
   26.4914   38.3459   17.3749 C   0  0  2  0  0  0  0  0  0  0  0  0
   27.4404   37.8068   18.4577 C   0  0  0  0  0  0  0  0  0  0  0  0
   27.0102   36.4982   18.9533 N   0  0  0  0  0  0  0  0  0  0  0  0
   27.0443   35.5296   17.8457 C   0  0  0  0  0  0  0  0  0  0  0  0
   26.0637   35.9206   16.7577 C   0  0  0  0  0  0  0  0  0  0  0  0
   26.3567   37.3206   16.2363 C   0  0  0  0  0  0  0  0  0  0  0  0
   26.0710   42.8567   15.9891 C   0  0  0  0  0  0  0  0  0  0  0  0
   24.5613   42.8851   16.8229 S   0  0  0  0  0  0  0  0  0  0  0  0
   24.0682   44.2664   16.0107 C   0  0  0  0  0  0  0  0  0  0  0  0
   25.0140   44.7229   15.1800 C   0  0  0  0  0  0  0  0  0  0  0  0
   26.1710   43.9203   15.1481 C   0  0  0  0  0  0  0  0  0  0  0  0
   27.8491   36.0293   20.0703 C   0  0  0  0  0  0  0  0  0  0  0  0
   27.3284   36.3396   21.4560 C   0  0  0  0  0  0  0  0  0  0  0  0
   27.7725   37.4524   22.1554 C   0  0  0  0  0  0  0  0  0  0  0  0
   27.6482   37.6117   23.4855 N   0  0  0  0  0  0  0  0  0  0  0  0
   27.0893   36.5835   24.1059 C   0  0  0  0  0  0  0  0  0  0  0  0
   26.6557   35.4462   23.5862 N   0  0  0  0  0  0  0  0  0  0  0  0
   26.8118   35.3431   22.2581 C   0  0  0  0  0  0  0  0  0  0  0  0
   26.9755   36.7418   25.4296 O   0  0  0  0  0  0  0  0  0  0  0  0
   26.1996   37.8509   25.8983 C   0  0  0  0  0  0  0  0  0  0  0  0
  1  2  2  0  0  0  0
  1  6  1  0  0  0  0
  2  3  1  0  0  0  0
  3  4  2  0  0  0  0
  4 14  1  0  0  0  0
  5  4  1  0  0  0  0
  6  5  1  0  0  0  0
  7  6  2  0  0  0  0
  8  9  1  0  0  0  0
  8  2  1  6  0  0  0
 10 19  1  0  0  0  0
 10  9  1  0  0  0  0
 11 10  1  0  0  0  0
 12 11  1  0  0  0  0
 12 13  1  0  0  0  0
 13  8  1  0  0  0  0
 14 15  1  0  0  0  0
 14 18  2  0  0  0  0
 15 16  1  0  0  0  0
 16 17  2  0  0  0  0
 18 17  1  0  0  0  0
 19 20  1  0  0  0  0
 20 25  2  0  0  0  0
 20 21  1  0  0  0  0
 21 22  2  0  0  0  0
 22 23  1  0  0  0  0
 23 26  1  0  0  0  0
 24 23  2  0  0  0  0
 25 24  1  0  0  0  0
 26 27  1  0  0  0  0
M  END
>  <CHROM.1>
28.81286773,34.36170433,94.52796274,-96.35978651,59.83067147,26.87286233
39.18417369,18.79843463,-1.78471444,-1.16550207,2.07625996

>  <Name>
lig.pdb

>  <RI>
0

>  <Rbt.Current_Directory>
/home/itssahil/PROJECTS/Mol_Feturizer/New_Systems/rnas/5kx9

>  <Rbt.Executable>
rbdock ($Id: //depot/dev/client3/rdock/2013.1/src/exe/rbdock.cxx#4 $)

>  <Rbt.Library>
libRbt.so (2013.1, Build901 2013/11/27)

>  <Rbt.Parameter_File>
/export/apps/rDock/src/rDock_2013.1_src/data/scripts/dock_solv.prm

>  <Rbt.Receptor>
prm/blind_docking_100.prm

>  <SCORE>
-37.6598

>  <SCORE.INTER>
-34.6305

>  <SCORE.INTER.CONST>
1

>  <SCORE.INTER.POLAR>
0

>  <SCORE.INTER.ROT>
5

>  <SCORE.INTER.SOLV>
16.9844

>  <SCORE.INTER.VDW>
-35.6818

>  <SCORE.INTER.norm>
-1.28261

>  <SCORE.INTRA>
-3.02933

>  <SCORE.INTRA.DIHEDRAL>
6.45027

>  <SCORE.INTRA.DIHEDRAL.0>
2.68224

>  <SCORE.INTRA.POLAR>
0

>  <SCORE.INTRA.POLAR.0>
0

>  <SCORE.INTRA.REPUL>
0

>  <SCORE.INTRA.REPUL.0>
0

>  <SCORE.INTRA.SOLV>
-0.627706

>  <SCORE.INTRA.SOLV.lig_0>
-19.4148

>  <SCORE.INTRA.VDW>
-5.94061

>  <SCORE.INTRA.VDW.0>
5.42093

>  <SCORE.INTRA.norm>
-0.112198

>  <SCORE.RESTR>
0

>  <SCORE.RESTR.CAVITY>
0

>  <SCORE.RESTR.norm>
0

>  <SCORE.SYSTEM>
0

>  <SCORE.SYSTEM.CONST>
0

>  <SCORE.SYSTEM.DIHEDRAL>
0

>  <SCORE.SYSTEM.SOLV>
0

>  <SCORE.SYSTEM.norm>
0

>  <SCORE.heavy>
27

>  <SCORE.norm>
-1.39481

>  <RMSD>
7.044

$$$$
lig.pdb
 OpenBabel11021811523D
libRbt.so/2013.1/901 2013/11/27
 27 30  0  0  0  0  0  0  0  0999 V2000
   28.9617   41.1883   21.1255 N   0  0  0  0  0  0  0  0  0  0  0  0
   28.6299   40.0321   20.6065 C   0  0  0  0  0  0  0  0  0  0  0  0
   28.1400   38.9791   21.3080 N   0  0  0  0  0  0  0  0  0  0  0  0
   27.9241   39.1298   22.6488 C   0  0  0  0  0  0  0  0  0  0  0  0
   28.2151   40.3111   23.2688 C   0  0  0  0  0  0  0  0  0  0  0  0
   28.7737   41.3919   22.4919 C   0  0  0  0  0  0  0  0  0  0  0  0
   29.1114   42.4721   22.9918 O   0  0  0  0  0  0  0  0  0  0  0  0
   28.9326   39.6605   19.1382 C   0  0  2  0  0  0  0  0  0  0  0  0
   30.4185   39.2720   19.2062 C   0  0  0  0  0  0  0  0  0  0  0  0
   30.9992   39.1129   17.8718 N   0  0  0  0  0  0  0  0  0  0  0  0
   30.9344   40.4010   17.1626 C   0  0  0  0  0  0  0  0  0  0  0  0
   29.4953   40.8307   16.9565 C   0  0  0  0  0  0  0  0  0  0  0  0
   28.7595   40.9290   18.2857 C   0  0  0  0  0  0  0  0  0  0  0  0
   27.3576   37.9347   23.2596 C   0  0  0  0  0  0  0  0  0  0  0  0
   27.2570   36.4429   22.3996 S   0  0  0  0  0  0  0  0  0  0  0  0
   26.5217   35.6742   23.6954 C   0  0  0  0  0  0  0  0  0  0  0  0
   26.3974   36.4853   24.7535 C   0  0  0  0  0  0  0  0  0  0  0  0
   26.8658   37.7928   24.5192 C   0  0  0  0  0  0  0  0  0  0  0  0
   32.3898   38.6293   17.9302 C   0  0  0  0  0  0  0  0  0  0  0  0
   32.7796   37.6254   16.8683 C   0  0  0  0  0  0  0  0  0  0  0  0
   32.1530   37.6122   15.6306 C   0  0  0  0  0  0  0  0  0  0  0  0
   32.1735   36.5692   14.7811 N   0  0  0  0  0  0  0  0  0  0  0  0
   32.8216   35.5085   15.2387 C   0  0  0  0  0  0  0  0  0  0  0  0
   33.4298   35.3559   16.4042 N   0  0  0  0  0  0  0  0  0  0  0  0
   33.3705   36.4264   17.2100 C   0  0  0  0  0  0  0  0  0  0  0  0
   32.8321   34.4703   14.3949 O   0  0  0  0  0  0  0  0  0  0  0  0
   34.1073   33.9371   14.0187 C   0  0  0  0  0  0  0  0  0  0  0  0
  1  2  2  0  0  0  0
  1  6  1  0  0  0  0
  2  3  1  0  0  0  0
  3  4  2  0  0  0  0
  4 14  1  0  0  0  0
  5  4  1  0  0  0  0
  6  5  1  0  0  0  0
  7  6  2  0  0  0  0
  8  9  1  0  0  0  0
  8  2  1  1  0  0  0
 10 19  1  0  0  0  0
 10  9  1  0  0  0  0
 11 10  1  0  0  0  0
 12 11  1  0  0  0  0
 12 13  1  0  0  0  0
 13  8  1  0  0  0  0
 14 15  1  0  0  0  0
 14 18  2  0  0  0  0
 15 16  1  0  0  0  0
 16 17  2  0  0  0  0
 18 17  1  0  0  0  0
 19 20  1  0  0  0  0
 20 25  2  0  0  0  0
 20 21  1  0  0  0  0
 21 22  2  0  0  0  0
 22 23  1  0  0  0  0
 23 26  1  0  0  0  0
 24 23  2  0  0  0  0
 25 24  1  0  0  0  0
 26 27  1  0  0  0  0
M  END
>  <CHROM.1>
10.02408471,79.39365182,141.30304028,27.89074763,124.15517840,29.90669802
38.21229185,19.48608266,-2.89806945,-0.97050748,3.10126353

>  <Name>
lig.pdb

>  <RI>
0

>  <Rbt.Current_Directory>
/home/itssahil/PROJECTS/Mol_Feturizer/New_Systems/rnas/5kx9

>  <Rbt.Executable>
rbdock ($Id: //depot/dev/client3/rdock/2013.1/src/exe/rbdock.cxx#4 $)

>  <Rbt.Library>
libRbt.so (2013.1, Build901 2013/11/27)

>  <Rbt.Parameter_File>
/export/apps/rDock/src/rDock_2013.1_src/data/scripts/dock_solv.prm

>  <Rbt.Receptor>
prm/blind_docking_60.prm

>  <SCORE>
-37.1834

>  <SCORE.INTER>
-32.4282

>  <SCORE.INTER.CONST>
1

>  <SCORE.INTER.POLAR>
0

>  <SCORE.INTER.ROT>
5

>  <SCORE.INTER.SOLV>
13.5468

>  <SCORE.INTER.VDW>
-33.0677

>  <SCORE.INTER.norm>
-1.20104

>  <SCORE.INTRA>
-4.75521

>  <SCORE.INTRA.DIHEDRAL>
3.81716

>  <SCORE.INTRA.DIHEDRAL.0>
2.68224

>  <SCORE.INTRA.POLAR>
0

>  <SCORE.INTRA.POLAR.0>
0

>  <SCORE.INTRA.REPUL>
0

>  <SCORE.INTRA.REPUL.0>
0

>  <SCORE.INTRA.SOLV>
-0.532341

>  <SCORE.INTRA.SOLV.lig_0>
-19.4148

>  <SCORE.INTRA.VDW>
-6.39761

>  <SCORE.INTRA.VDW.0>
5.42093

>  <SCORE.INTRA.norm>
-0.176119

>  <SCORE.RESTR>
0

>  <SCORE.RESTR.CAVITY>
0

>  <SCORE.RESTR.norm>
0

>  <SCORE.SYSTEM>
0

>  <SCORE.SYSTEM.CONST>
0

>  <SCORE.SYSTEM.DIHEDRAL>
0

>  <SCORE.SYSTEM.SOLV>
0

>  <SCORE.SYSTEM.norm>
0

>  <SCORE.heavy>
27

>  <SCORE.norm>
-1.37716

>  <RMSD>
7.065

$$$$
lig.pdb
 OpenBabel11021811523D
libRbt.so/2013.1/901 2013/11/27
 27 30  0  0  0  0  0  0  0  0999 V2000
   28.9798   41.2221   21.0599 N   0  0  0  0  0  0  0  0  0  0  0  0
   28.6739   40.0551   20.5493 C   0  0  0  0  0  0  0  0  0  0  0  0
   28.1842   39.0044   21.2545 N   0  0  0  0  0  0  0  0  0  0  0  0
   27.9396   39.1691   22.5887 C   0  0  0  0  0  0  0  0  0  0  0  0
   28.2022   40.3619   23.1991 C   0  0  0  0  0  0  0  0  0  0  0  0
   28.7619   41.4403   22.4196 C   0  0  0  0  0  0  0  0  0  0  0  0
   29.0751   42.5313   22.9121 O   0  0  0  0  0  0  0  0  0  0  0  0
   29.0108   39.6691   19.0922 C   0  0  2  0  0  0  0  0  0  0  0  0
   30.5001   39.3019   19.1947 C   0  0  0  0  0  0  0  0  0  0  0  0
   31.1094   39.1339   17.8741 N   0  0  0  0  0  0  0  0  0  0  0  0
   31.0416   40.4119   17.1473 C   0  0  0  0  0  0  0  0  0  0  0  0
   29.6012   40.8194   16.9073 C   0  0  0  0  0  0  0  0  0  0  0  0
   28.8378   40.9243   18.2202 C   0  0  0  0  0  0  0  0  0  0  0  0
   27.3769   37.9742   23.2035 C   0  0  0  0  0  0  0  0  0  0  0  0
   26.8278   37.9738   24.8386 S   0  0  0  0  0  0  0  0  0  0  0  0
   26.4039   36.3536   24.7609 C   0  0  0  0  0  0  0  0  0  0  0  0
   26.6176   35.8382   23.5437 C   0  0  0  0  0  0  0  0  0  0  0  0
   27.1846   36.7538   22.6359 C   0  0  0  0  0  0  0  0  0  0  0  0
   32.5050   38.6700   17.9664 C   0  0  0  0  0  0  0  0  0  0  0  0
   32.9078   37.6029   16.9732 C   0  0  0  0  0  0  0  0  0  0  0  0
   32.3063   37.5218   15.7257 C   0  0  0  0  0  0  0  0  0  0  0  0
   32.3352   36.4308   14.9391 N   0  0  0  0  0  0  0  0  0  0  0  0
   32.9649   35.3940   15.4711 C   0  0  0  0  0  0  0  0  0  0  0  0
   33.5481   35.3056   16.6558 N   0  0  0  0  0  0  0  0  0  0  0  0
   33.4815   36.4218   17.3964 C   0  0  0  0  0  0  0  0  0  0  0  0
   32.9839   34.3081   14.6897 O   0  0  0  0  0  0  0  0  0  0  0  0
   34.2177   33.9840   14.0383 C   0  0  0  0  0  0  0  0  0  0  0  0
  1  2  2  0  0  0  0
  1  6  1  0  0  0  0
  2  3  1  0  0  0  0
  3  4  2  0  0  0  0
  4 14  1  0  0  0  0
  5  4  1  0  0  0  0
  6  5  1  0  0  0  0
  7  6  2  0  0  0  0
  8  9  1  0  0  0  0
  8  2  1  1  0  0  0
 10 19  1  0  0  0  0
 10  9  1  0  0  0  0
 11 10  1  0  0  0  0
 12 11  1  0  0  0  0
 12 13  1  0  0  0  0
 13  8  1  0  0  0  0
 14 15  1  0  0  0  0
 14 18  2  0  0  0  0
 15 16  1  0  0  0  0
 16 17  2  0  0  0  0
 18 17  1  0  0  0  0
 19 20  1  0  0  0  0
 20 25  2  0  0  0  0
 20 21  1  0  0  0  0
 21 22  2  0  0  0  0
 22 23  1  0  0  0  0
 23 26  1  0  0  0  0
 24 23  2  0  0  0  0
 25 24  1  0  0  0  0
 26 27  1  0  0  0  0
M  END
>  <CHROM.1>
-173.59975253,79.39160201,138.10031063,29.44444037,105.45972238,29.95039644
38.30140324,19.64605375,-2.97762479,-0.97624694,3.00323291

>  <Name>
lig.pdb

>  <RI>
0

>  <Rbt.Current_Directory>
/home/itssahil/PROJECTS/Mol_Feturizer/New_Systems/rnas/5kx9

>  <Rbt.Executable>
rbdock ($Id: //depot/dev/client3/rdock/2013.1/src/exe/rbdock.cxx#4 $)

>  <Rbt.Library>
libRbt.so (2013.1, Build901 2013/11/27)

>  <Rbt.Parameter_File>
/export/apps/rDock/src/rDock_2013.1_src/data/scripts/dock_solv.prm

>  <Rbt.Receptor>
prm/blind_docking_60.prm

>  <SCORE>
-36.2323

>  <SCORE.INTER>
-31.7008

>  <SCORE.INTER.CONST>
1

>  <SCORE.INTER.POLAR>
0

>  <SCORE.INTER.ROT>
5

>  <SCORE.INTER.SOLV>
13.829

>  <SCORE.INTER.VDW>
-32.6769

>  <SCORE.INTER.norm>
-1.1741

>  <SCORE.INTRA>
-4.53147

>  <SCORE.INTRA.DIHEDRAL>
4.99264

>  <SCORE.INTRA.DIHEDRAL.0>
2.68224

>  <SCORE.INTRA.POLAR>
0

>  <SCORE.INTRA.POLAR.0>
0

>  <SCORE.INTRA.REPUL>
0

>  <SCORE.INTRA.REPUL.0>
0

>  <SCORE.INTRA.SOLV>
-0.571233

>  <SCORE.INTRA.SOLV.lig_0>
-19.4148

>  <SCORE.INTRA.VDW>
-6.74218

>  <SCORE.INTRA.VDW.0>
5.42093

>  <SCORE.INTRA.norm>
-0.167832

>  <SCORE.RESTR>
0

>  <SCORE.RESTR.CAVITY>
0

>  <SCORE.RESTR.norm>
0

>  <SCORE.SYSTEM>
0

>  <SCORE.SYSTEM.CONST>
0

>  <SCORE.SYSTEM.DIHEDRAL>
0

>  <SCORE.SYSTEM.SOLV>
0

>  <SCORE.SYSTEM.norm>
0

>  <SCORE.heavy>
27

>  <SCORE.norm>
-1.34194

>  <RMSD>
7.070

$$$$
lig.pdb
 OpenBabel11021811523D
libRbt.so/2013.1/901 2013/11/27
 27 30  0  0  0  0  0  0  0  0999 V2000
   27.9059   42.4395   20.3046 N   0  0  0  0  0  0  0  0  0  0  0  0
   28.8916   41.7466   20.8188 C   0  0  0  0  0  0  0  0  0  0  0  0
   29.6775   40.8842   20.1261 N   0  0  0  0  0  0  0  0  0  0  0  0
   29.4736   40.7489   18.7818 C   0  0  0  0  0  0  0  0  0  0  0  0
   28.4859   41.4545   18.1565 C   0  0  0  0  0  0  0  0  0  0  0  0
   27.6461   42.3297   18.9391 C   0  0  0  0  0  0  0  0  0  0  0  0
   26.6988   42.9605   18.4538 O   0  0  0  0  0  0  0  0  0  0  0  0
   29.1660   41.6891   22.3377 C   0  0  2  0  0  0  0  0  0  0  0  0
   28.0041   40.8165   22.8399 C   0  0  0  0  0  0  0  0  0  0  0  0
   27.9137   40.8222   24.3010 N   0  0  0  0  0  0  0  0  0  0  0  0
   27.6376   42.1930   24.7603 C   0  0  0  0  0  0  0  0  0  0  0  0
   28.7783   43.1230   24.3967 C   0  0  0  0  0  0  0  0  0  0  0  0
   29.0306   43.1162   22.8954 C   0  0  0  0  0  0  0  0  0  0  0  0
   30.4164   39.8249   18.1657 C   0  0  0  0  0  0  0  0  0  0  0  0
   31.7944   39.2378   19.0210 S   0  0  0  0  0  0  0  0  0  0  0  0
   32.3104   38.3433   17.7002 C   0  0  0  0  0  0  0  0  0  0  0  0
   31.4609   38.4374   16.6695 C   0  0  0  0  0  0  0  0  0  0  0  0
   30.3686   39.2920   16.9158 C   0  0  0  0  0  0  0  0  0  0  0  0
   26.8762   39.8983   24.7924 C   0  0  0  0  0  0  0  0  0  0  0  0
   27.1065   38.4343   24.4907 C   0  0  0  0  0  0  0  0  0  0  0  0
   27.7193   38.0335   23.3124 C   0  0  0  0  0  0  0  0  0  0  0  0
   27.6465   36.7899   22.8044 N   0  0  0  0  0  0  0  0  0  0  0  0
   26.8941   35.9583   23.5094 C   0  0  0  0  0  0  0  0  0  0  0  0
   26.2191   36.2018   24.6213 N   0  0  0  0  0  0  0  0  0  0  0  0
   26.3252   37.4592   25.0757 C   0  0  0  0  0  0  0  0  0  0  0  0
   26.8170   34.7251   22.9963 O   0  0  0  0  0  0  0  0  0  0  0  0
   26.9056   34.5947   21.5726 C   0  0  0  0  0  0  0  0  0  0  0  0
  1  2  2  0  0  0  0
  1  6  1  0  0  0  0
  2  3  1  0  0  0  0
  3  4  2  0  0  0  0
  4 14  1  0  0  0  0
  5  4  1  0  0  0  0
  6  5  1  0  0  0  0
  7  6  2  0  0  0  0
  8  9  1  0  0  0  0
  8  2  1  6  0  0  0
 10 19  1  0  0  0  0
 10  9  1  0  0  0  0
 11 10  1  0  0  0  0
 12 11  1  0  0  0  0
 12 13  1  0  0  0  0
 13  8  1  0  0  0  0
 14 15  1  0  0  0  0
 14 18  2  0  0  0  0
 15 16  1  0  0  0  0
 16 17  2  0  0  0  0
 18 17  1  0  0  0  0
 19 20  1  0  0  0  0
 20 25  2  0  0  0  0
 20 21  1  0  0  0  0
 21 22  2  0  0  0  0
 22 23  1  0  0  0  0
 23 26  1  0  0  0  0
 24 23  2  0  0  0  0
 25 24  1  0  0  0  0
 26 27  1  0  0  0  0
M  END
>  <CHROM.1>
-10.85286156,72.15227867,63.41002022,-34.41848861,-30.93862702,28.57062297
39.65202528,21.35266509,0.33783235,1.07306490,0.06935871

>  <Name>
lig.pdb

>  <RI>
0

>  <Rbt.Current_Directory>
/home/itssahil/PROJECTS/Mol_Feturizer/New_Systems/rnas/5kx9

>  <Rbt.Executable>
rbdock ($Id: //depot/dev/client3/rdock/2013.1/src/exe/rbdock.cxx#4 $)

>  <Rbt.Library>
libRbt.so (2013.1, Build901 2013/11/27)

>  <Rbt.Parameter_File>
/export/apps/rDock/src/rDock_2013.1_src/data/scripts/dock_solv.prm

>  <Rbt.Receptor>
prm/pocket_docking_6.prm

>  <SCORE>
-35.682

>  <SCORE.INTER>
-33.262

>  <SCORE.INTER.CONST>
1

>  <SCORE.INTER.POLAR>
0

>  <SCORE.INTER.ROT>
5

>  <SCORE.INTER.SOLV>
15.553

>  <SCORE.INTER.VDW>
-34.2923

>  <SCORE.INTER.norm>
-1.23192

>  <SCORE.INTRA>
-2.42004

>  <SCORE.INTRA.DIHEDRAL>
1.14776

>  <SCORE.INTRA.DIHEDRAL.0>
2.68224

>  <SCORE.INTRA.POLAR>
0

>  <SCORE.INTRA.POLAR.0>
0

>  <SCORE.INTRA.REPUL>
0

>  <SCORE.INTRA.REPUL.0>
0

>  <SCORE.INTRA.SOLV>
-0.452997

>  <SCORE.INTRA.SOLV.lig_0>
-19.4148

>  <SCORE.INTRA.VDW>
-2.76742

>  <SCORE.INTRA.VDW.0>
5.42093

>  <SCORE.INTRA.norm>
-0.089631

>  <SCORE.RESTR>
0

>  <SCORE.RESTR.CAVITY>
0

>  <SCORE.RESTR.norm>
0

>  <SCORE.SYSTEM>
0

>  <SCORE.SYSTEM.CONST>
0

>  <SCORE.SYSTEM.DIHEDRAL>
0

>  <SCORE.SYSTEM.SOLV>
0

>  <SCORE.SYSTEM.norm>
0

>  <SCORE.heavy>
27

>  <SCORE.norm>
-1.32156

>  <RMSD>
7.072

$$$$
lig.pdb
 OpenBabel11021811523D
libRbt.so/2013.1/901 2013/11/27
 27 30  0  0  0  0  0  0  0  0999 V2000
   28.9680   41.2482   21.1165 N   0  0  0  0  0  0  0  0  0  0  0  0
   28.6573   40.0962   20.5756 C   0  0  0  0  0  0  0  0  0  0  0  0
   28.1665   39.0283   21.2536 N   0  0  0  0  0  0  0  0  0  0  0  0
   27.9261   39.1576   22.5925 C   0  0  0  0  0  0  0  0  0  0  0  0
   28.1939   40.3328   23.2340 C   0  0  0  0  0  0  0  0  0  0  0  0
   28.7545   41.4303   22.4822 C   0  0  0  0  0  0  0  0  0  0  0  0
   29.0723   42.5067   23.0031 O   0  0  0  0  0  0  0  0  0  0  0  0
   28.9889   39.7486   19.1077 C   0  0  2  0  0  0  0  0  0  0  0  0
   30.4344   39.2370   19.2187 C   0  0  0  0  0  0  0  0  0  0  0  0
   31.0547   39.0739   17.9027 N   0  0  0  0  0  0  0  0  0  0  0  0
   31.1238   40.3852   17.2380 C   0  0  0  0  0  0  0  0  0  0  0  0
   29.7340   40.9386   16.9923 C   0  0  0  0  0  0  0  0  0  0  0  0
   28.9545   41.0540   18.2949 C   0  0  0  0  0  0  0  0  0  0  0  0
   27.3617   37.9482   23.1765 C   0  0  0  0  0  0  0  0  0  0  0  0
   26.7616   37.9220   24.7934 S   0  0  0  0  0  0  0  0  0  0  0  0
   26.3637   36.2970   24.6852 C   0  0  0  0  0  0  0  0  0  0  0  0
   26.6228   35.7982   23.4698 C   0  0  0  0  0  0  0  0  0  0  0  0
   27.2048   36.7316   22.5901 C   0  0  0  0  0  0  0  0  0  0  0  0
   32.3980   38.4756   17.9972 C   0  0  0  0  0  0  0  0  0  0  0  0
   32.7785   37.5387   16.8726 C   0  0  0  0  0  0  0  0  0  0  0  0
   32.1284   37.5882   15.6480 C   0  0  0  0  0  0  0  0  0  0  0  0
   32.1442   36.5956   14.7400 N   0  0  0  0  0  0  0  0  0  0  0  0
   32.8129   35.5187   15.1241 C   0  0  0  0  0  0  0  0  0  0  0  0
   33.4452   35.3075   16.2674 N   0  0  0  0  0  0  0  0  0  0  0  0
   33.3893   36.3296   17.1340 C   0  0  0  0  0  0  0  0  0  0  0  0
   32.8189   34.5304   14.2222 O   0  0  0  0  0  0  0  0  0  0  0  0
   32.9317   33.1891   14.7121 C   0  0  0  0  0  0  0  0  0  0  0  0
  1  2  2  0  0  0  0
  1  6  1  0  0  0  0
  2  3  1  0  0  0  0
  3  4  2  0  0  0  0
  4 14  1  0  0  0  0
  5  4  1  0  0  0  0
  6  5  1  0  0  0  0
  7  6  2  0  0  0  0
  8  9  1  0  0  0  0
  8  2  1  1  0  0  0
 10 19  1  0  0  0  0
 10  9  1  0  0  0  0
 11 10  1  0  0  0  0
 12 11  1  0  0  0  0
 12 13  1  0  0  0  0
 13  8  1  0  0  0  0
 14 15  1  0  0  0  0
 14 18  2  0  0  0  0
 15 16  1  0  0  0  0
 16 17  2  0  0  0  0
 18 17  1  0  0  0  0
 19 20  1  0  0  0  0
 20 25  2  0  0  0  0
 20 21  1  0  0  0  0
 21 22  2  0  0  0  0
 22 23  1  0  0  0  0
 23 26  1  0  0  0  0
 24 23  2  0  0  0  0
 25 24  1  0  0  0  0
 26 27  1  0  0  0  0
M  END
>  <CHROM.1>
-171.21965969,84.95292062,144.68557924,20.71372046,-151.53935803,29.85826142
38.27695424,19.61742912,-2.88429797,-0.99435512,3.10543004

>  <Name>
lig.pdb

>  <RI>
0

>  <Rbt.Current_Directory>
/home/itssahil/PROJECTS/Mol_Feturizer/New_Systems/rnas/5kx9

>  <Rbt.Executable>
rbdock ($Id: //depot/dev/client3/rdock/2013.1/src/exe/rbdock.cxx#4 $)

>  <Rbt.Library>
libRbt.so (2013.1, Build901 2013/11/27)

>  <Rbt.Parameter_File>
/export/apps/rDock/src/rDock_2013.1_src/data/scripts/dock_solv.prm

>  <Rbt.Receptor>
prm/blind_docking_60.prm

>  <SCORE>
-35.1006

>  <SCORE.INTER>
-30.4978

>  <SCORE.INTER.CONST>
1

>  <SCORE.INTER.POLAR>
0

>  <SCORE.INTER.ROT>
5

>  <SCORE.INTER.SOLV>
13.2181

>  <SCORE.INTER.VDW>
-31.6712

>  <SCORE.INTER.norm>
-1.12955

>  <SCORE.INTRA>
-4.60287

>  <SCORE.INTRA.DIHEDRAL>
1.23196

>  <SCORE.INTRA.DIHEDRAL.0>
2.68224

>  <SCORE.INTRA.POLAR>
0

>  <SCORE.INTRA.POLAR.0>
0

>  <SCORE.INTRA.REPUL>
0

>  <SCORE.INTRA.REPUL.0>
0

>  <SCORE.INTRA.SOLV>
-0.551863

>  <SCORE.INTRA.SOLV.lig_0>
-19.4148

>  <SCORE.INTRA.VDW>
-4.94292

>  <SCORE.INTRA.VDW.0>
5.42093

>  <SCORE.INTRA.norm>
-0.170477

>  <SCORE.RESTR>
0

>  <SCORE.RESTR.CAVITY>
0

>  <SCORE.RESTR.norm>
0

>  <SCORE.SYSTEM>
0

>  <SCORE.SYSTEM.CONST>
0

>  <SCORE.SYSTEM.DIHEDRAL>
0

>  <SCORE.SYSTEM.SOLV>
0

>  <SCORE.SYSTEM.norm>
0

>  <SCORE.heavy>
27

>  <SCORE.norm>
-1.30002

>  <RMSD>
7.088

$$$$
lig.pdb
 OpenBabel11021811523D
libRbt.so/2013.1/901 2013/11/27
 27 30  0  0  0  0  0  0  0  0999 V2000
   28.9829   40.8801   21.1280 N   0  0  0  0  0  0  0  0  0  0  0  0
   28.6547   39.8124   20.4434 C   0  0  0  0  0  0  0  0  0  0  0  0
   28.1357   38.6781   20.9772 N   0  0  0  0  0  0  0  0  0  0  0  0
   27.8841   38.6424   22.3198 C   0  0  0  0  0  0  0  0  0  0  0  0
   28.1688   39.7213   23.1068 C   0  0  0  0  0  0  0  0  0  0  0  0
   28.7590   40.8928   22.5041 C   0  0  0  0  0  0  0  0  0  0  0  0
   29.0928   41.8878   23.1593 O   0  0  0  0  0  0  0  0  0  0  0  0
   28.9945   39.6460   18.9459 C   0  0  2  0  0  0  0  0  0  0  0  0
   30.4454   39.1408   19.0012 C   0  0  0  0  0  0  0  0  0  0  0  0
   31.0711   39.1425   17.6777 N   0  0  0  0  0  0  0  0  0  0  0  0
   31.1272   40.5245   17.1743 C   0  0  0  0  0  0  0  0  0  0  0  0
   29.7318   41.0879   16.9906 C   0  0  0  0  0  0  0  0  0  0  0  0
   28.9474   41.0386   18.2944 C   0  0  0  0  0  0  0  0  0  0  0  0
   27.2897   37.3812   22.7418 C   0  0  0  0  0  0  0  0  0  0  0  0
   26.6304   37.1786   24.3228 S   0  0  0  0  0  0  0  0  0  0  0  0
   26.2247   35.5810   24.0162 C   0  0  0  0  0  0  0  0  0  0  0  0
   26.5244   35.2204   22.7620 C   0  0  0  0  0  0  0  0  0  0  0  0
   27.1453   36.2409   22.0156 C   0  0  0  0  0  0  0  0  0  0  0  0
   32.4209   38.5521   17.7058 C   0  0  0  0  0  0  0  0  0  0  0  0
   32.5487   37.1796   17.0836 C   0  0  0  0  0  0  0  0  0  0  0  0
   33.2830   36.1782   17.7023 C   0  0  0  0  0  0  0  0  0  0  0  0
   33.7410   35.0777   17.0786 N   0  0  0  0  0  0  0  0  0  0  0  0
   33.4666   35.0334   15.7835 C   0  0  0  0  0  0  0  0  0  0  0  0
   32.8175   35.9230   15.0495 N   0  0  0  0  0  0  0  0  0  0  0  0
   32.3909   37.0004   15.7248 C   0  0  0  0  0  0  0  0  0  0  0  0
   33.9313   33.9419   15.1649 O   0  0  0  0  0  0  0  0  0  0  0  0
   34.5341   34.1179   13.8775 C   0  0  0  0  0  0  0  0  0  0  0  0
  1  2  2  0  0  0  0
  1  6  1  0  0  0  0
  2  3  1  0  0  0  0
  3  4  2  0  0  0  0
  4 14  1  0  0  0  0
  5  4  1  0  0  0  0
  6  5  1  0  0  0  0
  7  6  2  0  0  0  0
  8  9  1  0  0  0  0
  8  2  1  1  0  0  0
 10 19  1  0  0  0  0
 10  9  1  0  0  0  0
 11 10  1  0  0  0  0
 12 11  1  0  0  0  0
 12 13  1  0  0  0  0
 13  8  1  0  0  0  0
 14 15  1  0  0  0  0
 14 18  2  0  0  0  0
 15 16  1  0  0  0  0
 16 17  2  0  0  0  0
 18 17  1  0  0  0  0
 19 20  1  0  0  0  0
 20 25  2  0  0  0  0
 20 21  1  0  0  0  0
 21 22  2  0  0  0  0
 22 23  1  0  0  0  0
 23 26  1  0  0  0  0
 24 23  2  0  0  0  0
 25 24  1  0  0  0  0
 26 27  1  0  0  0  0
M  END
>  <CHROM.1>
-169.38584450,83.05484483,107.04335029,-136.38630734,-137.72573139,29.99810010
37.95581264,19.54038418,-2.98349497,-0.91145687,3.01236429

>  <Name>
lig.pdb

>  <RI>
0

>  <Rbt.Current_Directory>
/home/itssahil/PROJECTS/Mol_Feturizer/New_Systems/rnas/5kx9

>  <Rbt.Executable>
rbdock ($Id: //depot/dev/client3/rdock/2013.1/src/exe/rbdock.cxx#4 $)

>  <Rbt.Library>
libRbt.so (2013.1, Build901 2013/11/27)

>  <Rbt.Parameter_File>
/export/apps/rDock/src/rDock_2013.1_src/data/scripts/dock_solv.prm

>  <Rbt.Receptor>
prm/blind_docking_100.prm

>  <SCORE>
-36.3

>  <SCORE.INTER>
-32.025

>  <SCORE.INTER.CONST>
1

>  <SCORE.INTER.POLAR>
0

>  <SCORE.INTER.ROT>
5

>  <SCORE.INTER.SOLV>
15.0176

>  <SCORE.INTER.VDW>
-33.2892

>  <SCORE.INTER.norm>
-1.18611

>  <SCORE.INTRA>
-4.27495

>  <SCORE.INTRA.DIHEDRAL>
3.62499

>  <SCORE.INTRA.DIHEDRAL.0>
2.68224

>  <SCORE.INTRA.POLAR>
0

>  <SCORE.INTRA.POLAR.0>
0

>  <SCORE.INTRA.REPUL>
0

>  <SCORE.INTRA.REPUL.0>
0

>  <SCORE.INTRA.SOLV>
-0.664355

>  <SCORE.INTRA.SOLV.lig_0>
-19.4148

>  <SCORE.INTRA.VDW>
-5.75527

>  <SCORE.INTRA.VDW.0>
5.42093

>  <SCORE.INTRA.norm>
-0.158332

>  <SCORE.RESTR>
0

>  <SCORE.RESTR.CAVITY>
0

>  <SCORE.RESTR.norm>
0

>  <SCORE.SYSTEM>
0

>  <SCORE.SYSTEM.CONST>
0

>  <SCORE.SYSTEM.DIHEDRAL>
0

>  <SCORE.SYSTEM.SOLV>
0

>  <SCORE.SYSTEM.norm>
0

>  <SCORE.heavy>
27

>  <SCORE.norm>
-1.34444

>  <RMSD>
7.109

$$$$
lig.pdb
 OpenBabel11021811523D
libRbt.so/2013.1/901 2013/11/27
 27 30  0  0  0  0  0  0  0  0999 V2000
   27.0044   40.1250   22.6261 N   0  0  0  0  0  0  0  0  0  0  0  0
   27.6907   39.7761   23.6861 C   0  0  0  0  0  0  0  0  0  0  0  0
   28.5799   40.5726   24.3311 N   0  0  0  0  0  0  0  0  0  0  0  0
   28.7526   41.8534   23.8874 C   0  0  0  0  0  0  0  0  0  0  0  0
   28.0570   42.3115   22.8054 C   0  0  0  0  0  0  0  0  0  0  0  0
   27.1519   41.4172   22.1237 C   0  0  0  0  0  0  0  0  0  0  0  0
   26.5273   41.7426   21.1064 O   0  0  0  0  0  0  0  0  0  0  0  0
   27.7060   38.3306   24.2300 C   0  0  2  0  0  0  0  0  0  0  0  0
   27.7000   37.5016   22.9353 C   0  0  0  0  0  0  0  0  0  0  0  0
   27.4649   36.0814   23.2018 N   0  0  0  0  0  0  0  0  0  0  0  0
   26.1340   35.9201   23.8092 C   0  0  0  0  0  0  0  0  0  0  0  0
   26.0643   36.6260   25.1491 C   0  0  0  0  0  0  0  0  0  0  0  0
   26.3967   38.1046   25.0049 C   0  0  0  0  0  0  0  0  0  0  0  0
   29.7026   42.6011   24.7003 C   0  0  0  0  0  0  0  0  0  0  0  0
   30.1799   42.0524   26.2644 S   0  0  0  0  0  0  0  0  0  0  0  0
   31.1714   43.3842   26.4970 C   0  0  0  0  0  0  0  0  0  0  0  0
   31.1872   44.1893   25.4272 C   0  0  0  0  0  0  0  0  0  0  0  0
   30.3418   43.7592   24.3859 C   0  0  0  0  0  0  0  0  0  0  0  0
   27.5723   35.2663   21.9789 C   0  0  0  0  0  0  0  0  0  0  0  0
   26.9322   35.8544   20.7412 C   0  0  0  0  0  0  0  0  0  0  0  0
   26.0078   35.1319   20.0008 C   0  0  0  0  0  0  0  0  0  0  0  0
   25.6656   35.4147   18.7308 N   0  0  0  0  0  0  0  0  0  0  0  0
   26.3210   36.4397   18.2069 C   0  0  0  0  0  0  0  0  0  0  0  0
   27.2518   37.1943   18.7686 N   0  0  0  0  0  0  0  0  0  0  0  0
   27.5546   36.8607   20.0319 C   0  0  0  0  0  0  0  0  0  0  0  0
   25.9844   36.7122   16.9410 O   0  0  0  0  0  0  0  0  0  0  0  0
   26.9608   36.4500   15.9264 C   0  0  0  0  0  0  0  0  0  0  0  0
  1  2  2  0  0  0  0
  1  6  1  0  0  0  0
  2  3  1  0  0  0  0
  3  4  2  0  0  0  0
  4 14  1  0  0  0  0
  5  4  1  0  0  0  0
  6  5  1  0  0  0  0
  7  6  2  0  0  0  0
  8  9  1  0  0  0  0
  8  2  1  6  0  0  0
 10 19  1  0  0  0  0
 10  9  1  0  0  0  0
 11 10  1  0  0  0  0
 12 11  1  0  0  0  0
 12 13  1  0  0  0  0
 13  8  1  0  0  0  0
 14 15  1  0  0  0  0
 14 18  2  0  0  0  0
 15 16  1  0  0  0  0
 16 17  2  0  0  0  0
 18 17  1  0  0  0  0
 19 20  1  0  0  0  0
 20 25  2  0  0  0  0
 20 21  1  0  0  0  0
 21 22  2  0  0  0  0
 22 23  1  0  0  0  0
 23 26  1  0  0  0  0
 24 23  2  0  0  0  0
 25 24  1  0  0  0  0
 26 27  1  0  0  0  0
M  END
>  <CHROM.1>
-15.82692599,37.65228737,-42.11703117,-126.46439312,-110.80531377,27.78364343
39.05008817,22.47188796,-0.39985813,-1.18053783,-1.23661128

>  <Name>
lig.pdb

>  <RI>
0

>  <Rbt.Current_Directory>
/home/itssahil/PROJECTS/Mol_Feturizer/New_Systems/rnas/5kx9

>  <Rbt.Executable>
rbdock ($Id: //depot/dev/client3/rdock/2013.1/src/exe/rbdock.cxx#4 $)

>  <Rbt.Library>
libRbt.so (2013.1, Build901 2013/11/27)

>  <Rbt.Parameter_File>
/export/apps/rDock/src/rDock_2013.1_src/data/scripts/dock_solv.prm

>  <Rbt.Receptor>
prm/pocket_docking_3.prm

>  <SCORE>
-33.7767

>  <SCORE.INTER>
-30.9833

>  <SCORE.INTER.CONST>
1

>  <SCORE.INTER.POLAR>
0

>  <SCORE.INTER.ROT>
5

>  <SCORE.INTER.SOLV>
13.4655

>  <SCORE.INTER.VDW>
-32.0773

>  <SCORE.INTER.norm>
-1.14753

>  <SCORE.INTRA>
-2.8029

>  <SCORE.INTRA.DIHEDRAL>
4.80006

>  <SCORE.INTRA.DIHEDRAL.0>
2.68224

>  <SCORE.INTRA.POLAR>
0

>  <SCORE.INTRA.POLAR.0>
0

>  <SCORE.INTRA.REPUL>
0

>  <SCORE.INTRA.REPUL.0>
0

>  <SCORE.INTRA.SOLV>
-0.506191

>  <SCORE.INTRA.SOLV.lig_0>
-19.4148

>  <SCORE.INTRA.VDW>
-4.94984

>  <SCORE.INTRA.VDW.0>
5.42093

>  <SCORE.INTRA.norm>
-0.103811

>  <SCORE.RESTR>
0.00942856

>  <SCORE.RESTR.CAVITY>
0.00942856

>  <SCORE.RESTR.norm>
0.000349206

>  <SCORE.SYSTEM>
0

>  <SCORE.SYSTEM.CONST>
0

>  <SCORE.SYSTEM.DIHEDRAL>
0

>  <SCORE.SYSTEM.SOLV>
0

>  <SCORE.SYSTEM.norm>
0

>  <SCORE.heavy>
27

>  <SCORE.norm>
-1.25099

>  <RMSD>
7.110

$$$$
lig.pdb
 OpenBabel11021811523D
libRbt.so/2013.1/901 2013/11/27
 27 30  0  0  0  0  0  0  0  0999 V2000
   27.2070   39.7424   21.4850 N   0  0  0  0  0  0  0  0  0  0  0  0
   27.7589   39.2816   22.5801 C   0  0  0  0  0  0  0  0  0  0  0  0
   28.3235   40.0490   23.5462 N   0  0  0  0  0  0  0  0  0  0  0  0
   28.2822   41.4079   23.4097 C   0  0  0  0  0  0  0  0  0  0  0  0
   27.7010   41.9766   22.3129 C   0  0  0  0  0  0  0  0  0  0  0  0
   27.1492   41.1216   21.2890 C   0  0  0  0  0  0  0  0  0  0  0  0
   26.6542   41.5610   20.2436 O   0  0  0  0  0  0  0  0  0  0  0  0
   27.9998   37.7752   22.8213 C   0  0  2  0  0  0  0  0  0  0  0  0
   27.4754   37.1543   21.5162 C   0  0  0  0  0  0  0  0  0  0  0  0
   27.3750   35.6968   21.6110 N   0  0  0  0  0  0  0  0  0  0  0  0
   26.4038   35.3491   22.6607 C   0  0  0  0  0  0  0  0  0  0  0  0
   26.8777   35.8362   24.0159 C   0  0  0  0  0  0  0  0  0  0  0  0
   27.1162   37.3397   24.0026 C   0  0  0  0  0  0  0  0  0  0  0  0
   28.8868   42.0999   24.5402 C   0  0  0  0  0  0  0  0  0  0  0  0
   29.2962   41.2668   25.9940 S   0  0  0  0  0  0  0  0  0  0  0  0
   29.8551   42.6732   26.7156 C   0  0  0  0  0  0  0  0  0  0  0  0
   29.7860   43.7225   25.8867 C   0  0  0  0  0  0  0  0  0  0  0  0
   29.2241   43.4137   24.6326 C   0  0  0  0  0  0  0  0  0  0  0  0
   26.9834   35.0871   20.3280 C   0  0  0  0  0  0  0  0  0  0  0  0
   28.0777   34.9876   19.2888 C   0  0  0  0  0  0  0  0  0  0  0  0
   28.7008   36.1239   18.7935 C   0  0  0  0  0  0  0  0  0  0  0  0
   29.4051   36.1646   17.6481 N   0  0  0  0  0  0  0  0  0  0  0  0
   29.4315   35.0180   16.9854 C   0  0  0  0  0  0  0  0  0  0  0  0
   28.8571   33.8696   17.3060 N   0  0  0  0  0  0  0  0  0  0  0  0
   28.1645   33.8923   18.4543 C   0  0  0  0  0  0  0  0  0  0  0  0
   30.1254   35.0648   15.8425 O   0  0  0  0  0  0  0  0  0  0  0  0
   31.5234   35.3640   15.9297 C   0  0  0  0  0  0  0  0  0  0  0  0
  1  2  2  0  0  0  0
  1  6  1  0  0  0  0
  2  3  1  0  0  0  0
  3  4  2  0  0  0  0
  4 14  1  0  0  0  0
  5  4  1  0  0  0  0
  6  5  1  0  0  0  0
  7  6  2  0  0  0  0
  8  9  1  0  0  0  0
  8  2  1  6  0  0  0
 10 19  1  0  0  0  0
 10  9  1  0  0  0  0
 11 10  1  0  0  0  0
 12 11  1  0  0  0  0
 12 13  1  0  0  0  0
 13  8  1  0  0  0  0
 14 15  1  0  0  0  0
 14 18  2  0  0  0  0
 15 16  1  0  0  0  0
 16 17  2  0  0  0  0
 18 17  1  0  0  0  0
 19 20  1  0  0  0  0
 20 25  2  0  0  0  0
 20 21  1  0  0  0  0
 21 22  2  0  0  0  0
 22 23  1  0  0  0  0
 23 26  1  0  0  0  0
 24 23  2  0  0  0  0
 25 24  1  0  0  0  0
 26 27  1  0  0  0  0
M  END
>  <CHROM.1>
-11.48997021,1.16252669,76.82680829,-61.25879709,62.03635719,28.36683039
38.35129726,21.62020817,-1.62235508,-1.12183807,-2.39691154

>  <Name>
lig.pdb

>  <RI>
0

>  <Rbt.Current_Directory>
/home/itssahil/PROJECTS/Mol_Feturizer/New_Systems/rnas/5kx9

>  <Rbt.Executable>
rbdock ($Id: //depot/dev/client3/rdock/2013.1/src/exe/rbdock.cxx#4 $)

>  <Rbt.Library>
libRbt.so (2013.1, Build901 2013/11/27)

>  <Rbt.Parameter_File>
/export/apps/rDock/src/rDock_2013.1_src/data/scripts/dock_solv.prm

>  <Rbt.Receptor>
prm/pocket_docking_6.prm

>  <SCORE>
-34.0025

>  <SCORE.INTER>
-31.1396

>  <SCORE.INTER.CONST>
1

>  <SCORE.INTER.POLAR>
0

>  <SCORE.INTER.ROT>
5

>  <SCORE.INTER.SOLV>
13.2092

>  <SCORE.INTER.VDW>
-32.0962

>  <SCORE.INTER.norm>
-1.15332

>  <SCORE.INTRA>
-2.86287

>  <SCORE.INTRA.DIHEDRAL>
4.08608

>  <SCORE.INTRA.DIHEDRAL.0>
2.68224

>  <SCORE.INTRA.POLAR>
0

>  <SCORE.INTRA.POLAR.0>
0

>  <SCORE.INTRA.REPUL>
0

>  <SCORE.INTRA.REPUL.0>
0

>  <SCORE.INTRA.SOLV>
-0.566964

>  <SCORE.INTRA.SOLV.lig_0>
-19.4148

>  <SCORE.INTRA.VDW>
-4.62243

>  <SCORE.INTRA.VDW.0>
5.42093

>  <SCORE.INTRA.norm>
-0.106032

>  <SCORE.RESTR>
0

>  <SCORE.RESTR.CAVITY>
0

>  <SCORE.RESTR.norm>
0

>  <SCORE.SYSTEM>
0

>  <SCORE.SYSTEM.CONST>
0

>  <SCORE.SYSTEM.DIHEDRAL>
0

>  <SCORE.SYSTEM.SOLV>
0

>  <SCORE.SYSTEM.norm>
0

>  <SCORE.heavy>
27

>  <SCORE.norm>
-1.25935

>  <RMSD>
7.116

$$$$
lig.pdb
 OpenBabel11021811523D
libRbt.so/2013.1/901 2013/11/27
 27 30  0  0  0  0  0  0  0  0999 V2000
   27.1251   39.5974   21.0849 N   0  0  0  0  0  0  0  0  0  0  0  0
   27.7933   39.2650   22.1616 C   0  0  0  0  0  0  0  0  0  0  0  0
   28.4572   40.1365   22.9622 N   0  0  0  0  0  0  0  0  0  0  0  0
   28.3980   41.4697   22.6689 C   0  0  0  0  0  0  0  0  0  0  0  0
   27.7000   41.9092   21.5807 C   0  0  0  0  0  0  0  0  0  0  0  0
   27.0429   40.9438   20.7322 C   0  0  0  0  0  0  0  0  0  0  0  0
   26.4366   41.2601   19.7011 O   0  0  0  0  0  0  0  0  0  0  0  0
   28.0628   37.7958   22.5545 C   0  0  2  0  0  0  0  0  0  0  0  0
   27.4103   37.0291   21.3926 C   0  0  0  0  0  0  0  0  0  0  0  0
   27.3251   35.5941   21.6697 N   0  0  0  0  0  0  0  0  0  0  0  0
   26.4671   35.3819   22.8465 C   0  0  0  0  0  0  0  0  0  0  0  0
   27.0750   36.0221   24.0789 C   0  0  0  0  0  0  0  0  0  0  0  0
   27.3057   37.5113   23.8628 C   0  0  0  0  0  0  0  0  0  0  0  0
   29.1195   42.2855   23.6363 C   0  0  0  0  0  0  0  0  0  0  0  0
   29.3800   41.7476   25.2544 S   0  0  0  0  0  0  0  0  0  0  0  0
   30.1817   43.1627   25.6615 C   0  0  0  0  0  0  0  0  0  0  0  0
   30.2967   43.9912   24.6159 C   0  0  0  0  0  0  0  0  0  0  0  0
   29.6845   43.5070   23.4434 C   0  0  0  0  0  0  0  0  0  0  0  0
   26.8069   34.8399   20.5147 C   0  0  0  0  0  0  0  0  0  0  0  0
   27.0462   35.4692   19.1604 C   0  0  0  0  0  0  0  0  0  0  0  0
   26.1080   36.3159   18.5882 C   0  0  0  0  0  0  0  0  0  0  0  0
   26.0650   36.6271   17.2800 N   0  0  0  0  0  0  0  0  0  0  0  0
   26.9860   36.0201   16.5467 C   0  0  0  0  0  0  0  0  0  0  0  0
   27.9147   35.1622   16.9378 N   0  0  0  0  0  0  0  0  0  0  0  0
   27.9040   34.8867   18.2504 C   0  0  0  0  0  0  0  0  0  0  0  0
   26.9345   36.3252   15.2450 O   0  0  0  0  0  0  0  0  0  0  0  0
   26.7429   35.2478   14.3207 C   0  0  0  0  0  0  0  0  0  0  0  0
  1  2  2  0  0  0  0
  1  6  1  0  0  0  0
  2  3  1  0  0  0  0
  3  4  2  0  0  0  0
  4 14  1  0  0  0  0
  5  4  1  0  0  0  0
  6  5  1  0  0  0  0
  7  6  2  0  0  0  0
  8  9  1  0  0  0  0
  8  2  1  6  0  0  0
 10 19  1  0  0  0  0
 10  9  1  0  0  0  0
 11 10  1  0  0  0  0
 12 11  1  0  0  0  0
 12 13  1  0  0  0  0
 13  8  1  0  0  0  0
 14 15  1  0  0  0  0
 14 18  2  0  0  0  0
 15 16  1  0  0  0  0
 16 17  2  0  0  0  0
 18 17  1  0  0  0  0
 19 20  1  0  0  0  0
 20 25  2  0  0  0  0
 20 21  1  0  0  0  0
 21 22  2  0  0  0  0
 22 23  1  0  0  0  0
 23 26  1  0  0  0  0
 24 23  2  0  0  0  0
 25 24  1  0  0  0  0
 26 27  1  0  0  0  0
M  END
>  <CHROM.1>
-25.25434826,1.53365423,26.44254901,-91.86343573,-121.30428807,27.74452529
38.60143678,21.12445734,-0.27953739,-1.32582651,-1.04705394

>  <Name>
lig.pdb

>  <RI>
0

>  <Rbt.Current_Directory>
/home/itssahil/PROJECTS/Mol_Feturizer/New_Systems/rnas/5kx9

>  <Rbt.Executable>
rbdock ($Id: //depot/dev/client3/rdock/2013.1/src/exe/rbdock.cxx#4 $)

>  <Rbt.Library>
libRbt.so (2013.1, Build901 2013/11/27)

>  <Rbt.Parameter_File>
/export/apps/rDock/src/rDock_2013.1_src/data/scripts/dock_solv.prm

>  <Rbt.Receptor>
prm/pocket_docking_8.prm

>  <SCORE>
-32.2414

>  <SCORE.INTER>
-31.3644

>  <SCORE.INTER.CONST>
1

>  <SCORE.INTER.POLAR>
0

>  <SCORE.INTER.ROT>
5

>  <SCORE.INTER.SOLV>
10.6487

>  <SCORE.INTER.VDW>
-31.3925

>  <SCORE.INTER.norm>
-1.16165

>  <SCORE.INTRA>
-0.876984

>  <SCORE.INTRA.DIHEDRAL>
5.84155

>  <SCORE.INTRA.DIHEDRAL.0>
2.68224

>  <SCORE.INTRA.POLAR>
0

>  <SCORE.INTRA.POLAR.0>
0

>  <SCORE.INTRA.REPUL>
0

>  <SCORE.INTRA.REPUL.0>
0

>  <SCORE.INTRA.SOLV>
-0.554853

>  <SCORE.INTRA.SOLV.lig_0>
-19.4148

>  <SCORE.INTRA.VDW>
-3.52033

>  <SCORE.INTRA.VDW.0>
5.42093

>  <SCORE.INTRA.norm>
-0.0324809

>  <SCORE.RESTR>
0

>  <SCORE.RESTR.CAVITY>
0

>  <SCORE.RESTR.norm>
0

>  <SCORE.SYSTEM>
0

>  <SCORE.SYSTEM.CONST>
0

>  <SCORE.SYSTEM.DIHEDRAL>
0

>  <SCORE.SYSTEM.SOLV>
0

>  <SCORE.SYSTEM.norm>
0

>  <SCORE.heavy>
27

>  <SCORE.norm>
-1.19413

>  <RMSD>
7.117

$$$$
lig.pdb
 OpenBabel11021811523D
libRbt.so/2013.1/901 2013/11/27
 27 30  0  0  0  0  0  0  0  0999 V2000
   25.9474   40.3929   19.4870 N   0  0  0  0  0  0  0  0  0  0  0  0
   26.3910   40.3904   18.2544 C   0  0  0  0  0  0  0  0  0  0  0  0
   26.0519   41.2999   17.3063 N   0  0  0  0  0  0  0  0  0  0  0  0
   25.2250   42.3305   17.6544 C   0  0  0  0  0  0  0  0  0  0  0  0
   24.7372   42.4280   18.9260 C   0  0  0  0  0  0  0  0  0  0  0  0
   25.0904   41.4153   19.8922 C   0  0  0  0  0  0  0  0  0  0  0  0
   24.6465   41.4067   21.0471 O   0  0  0  0  0  0  0  0  0  0  0  0
   27.2245   39.2281   17.6714 C   0  0  2  0  0  0  0  0  0  0  0  0
   26.8613   38.0695   18.6144 C   0  0  0  0  0  0  0  0  0  0  0  0
   27.7270   36.9077   18.4046 N   0  0  0  0  0  0  0  0  0  0  0  0
   29.1164   37.2812   18.7148 C   0  0  0  0  0  0  0  0  0  0  0  0
   29.6082   38.3597   17.7697 C   0  0  0  0  0  0  0  0  0  0  0  0
   28.7114   39.5884   17.8300 C   0  0  0  0  0  0  0  0  0  0  0  0
   24.9840   43.2488   16.5495 C   0  0  0  0  0  0  0  0  0  0  0  0
   26.1433   43.4715   15.2919 S   0  0  0  0  0  0  0  0  0  0  0  0
   25.1812   44.6081   14.5216 C   0  0  0  0  0  0  0  0  0  0  0  0
   24.0124   44.7833   15.1509 C   0  0  0  0  0  0  0  0  0  0  0  0
   23.8838   44.0153   16.3246 C   0  0  0  0  0  0  0  0  0  0  0  0
   27.3109   35.7556   19.2236 C   0  0  0  0  0  0  0  0  0  0  0  0
   27.0391   36.0522   20.6815 C   0  0  0  0  0  0  0  0  0  0  0  0
   27.6939   37.0851   21.3365 C   0  0  0  0  0  0  0  0  0  0  0  0
   27.7882   37.1961   22.6740 N   0  0  0  0  0  0  0  0  0  0  0  0
   27.2278   36.1994   23.3426 C   0  0  0  0  0  0  0  0  0  0  0  0
   26.6080   35.1331   22.8628 N   0  0  0  0  0  0  0  0  0  0  0  0
   26.5509   35.0749   21.5241 C   0  0  0  0  0  0  0  0  0  0  0  0
   27.3314   36.3087   24.6721 O   0  0  0  0  0  0  0  0  0  0  0  0
   26.5408   37.3145   25.3162 C   0  0  0  0  0  0  0  0  0  0  0  0
  1  2  2  0  0  0  0
  1  6  1  0  0  0  0
  2  3  1  0  0  0  0
  3  4  2  0  0  0  0
  4 14  1  0  0  0  0
  5  4  1  0  0  0  0
  6  5  1  0  0  0  0
  7  6  2  0  0  0  0
  8  9  1  0  0  0  0
  8  2  1  1  0  0  0
 10 19  1  0  0  0  0
 10  9  1  0  0  0  0
 11 10  1  0  0  0  0
 12 11  1  0  0  0  0
 12 13  1  0  0  0  0
 13  8  1  0  0  0  0
 14 15  1  0  0  0  0
 14 18  2  0  0  0  0
 15 16  1  0  0  0  0
 16 17  2  0  0  0  0
 18 17  1  0  0  0  0
 19 20  1  0  0  0  0
 20 25  2  0  0  0  0
 20 21  1  0  0  0  0
 21 22  2  0  0  0  0
 22 23  1  0  0  0  0
 23 26  1  0  0  0  0
 24 23  2  0  0  0  0
 25 24  1  0  0  0  0
 26 27  1  0  0  0  0
M  END
>  <CHROM.1>
-28.02309060,21.18861688,-47.75627337,-28.76036220,71.59411599,26.51058106
39.59814812,19.18304708,1.91819595,0.91196844,-1.00602777

>  <Name>
lig.pdb

>  <RI>
0

>  <Rbt.Current_Directory>
/home/itssahil/PROJECTS/Mol_Feturizer/New_Systems/rnas/5kx9

>  <Rbt.Executable>
rbdock ($Id: //depot/dev/client3/rdock/2013.1/src/exe/rbdock.cxx#4 $)

>  <Rbt.Library>
libRbt.so (2013.1, Build901 2013/11/27)

>  <Rbt.Parameter_File>
/export/apps/rDock/src/rDock_2013.1_src/data/scripts/dock_solv.prm

>  <Rbt.Receptor>
prm/blind_docking_80.prm

>  <SCORE>
-33.0397

>  <SCORE.INTER>
-32.2709

>  <SCORE.INTER.CONST>
1

>  <SCORE.INTER.POLAR>
0

>  <SCORE.INTER.ROT>
5

>  <SCORE.INTER.SOLV>
17.0515

>  <SCORE.INTER.VDW>
-34.1311

>  <SCORE.INTER.norm>
-1.19522

>  <SCORE.INTRA>
-0.769085

>  <SCORE.INTRA.DIHEDRAL>
6.85665

>  <SCORE.INTRA.DIHEDRAL.0>
2.68224

>  <SCORE.INTRA.POLAR>
0

>  <SCORE.INTRA.POLAR.0>
0

>  <SCORE.INTRA.REPUL>
0

>  <SCORE.INTRA.REPUL.0>
0

>  <SCORE.INTRA.SOLV>
-0.381797

>  <SCORE.INTRA.SOLV.lig_0>
-19.4148

>  <SCORE.INTRA.VDW>
-4.00651

>  <SCORE.INTRA.VDW.0>
5.42093

>  <SCORE.INTRA.norm>
-0.0284846

>  <SCORE.RESTR>
0.000267784

>  <SCORE.RESTR.CAVITY>
0.000267784

>  <SCORE.RESTR.norm>
9.91794e-06

>  <SCORE.SYSTEM>
0

>  <SCORE.SYSTEM.CONST>
0

>  <SCORE.SYSTEM.DIHEDRAL>
0

>  <SCORE.SYSTEM.SOLV>
0

>  <SCORE.SYSTEM.norm>
0

>  <SCORE.heavy>
27

>  <SCORE.norm>
-1.22369

>  <RMSD>
7.122

$$$$
lig.pdb
 OpenBabel11021811523D
libRbt.so/2013.1/901 2013/11/27
 27 30  0  0  0  0  0  0  0  0999 V2000
   29.0608   41.3359   21.1864 N   0  0  0  0  0  0  0  0  0  0  0  0
   28.6352   40.2158   20.6569 C   0  0  0  0  0  0  0  0  0  0  0  0
   28.1313   39.1689   21.3578 N   0  0  0  0  0  0  0  0  0  0  0  0
   28.0054   39.2889   22.7131 C   0  0  0  0  0  0  0  0  0  0  0  0
   28.3978   40.4331   23.3466 C   0  0  0  0  0  0  0  0  0  0  0  0
   28.9672   41.5064   22.5671 C   0  0  0  0  0  0  0  0  0  0  0  0
   29.3935   42.5509   23.0751 O   0  0  0  0  0  0  0  0  0  0  0  0
   28.8276   39.8747   19.1629 C   0  0  2  0  0  0  0  0  0  0  0  0
   30.2713   39.3467   19.1386 C   0  0  0  0  0  0  0  0  0  0  0  0
   30.7671   39.1858   17.7706 N   0  0  0  0  0  0  0  0  0  0  0  0
   30.7903   40.5008   17.1099 C   0  0  0  0  0  0  0  0  0  0  0  0
   29.3903   41.0709   16.9953 C   0  0  0  0  0  0  0  0  0  0  0  0
   28.7341   41.1859   18.3642 C   0  0  0  0  0  0  0  0  0  0  0  0
   27.4119   38.1072   23.3241 C   0  0  0  0  0  0  0  0  0  0  0  0
   27.2702   36.6200   22.4619 S   0  0  0  0  0  0  0  0  0  0  0  0
   26.5216   35.8674   23.7595 C   0  0  0  0  0  0  0  0  0  0  0  0
   26.4223   36.6793   24.8197 C   0  0  0  0  0  0  0  0  0  0  0  0
   26.9222   37.9751   24.5856 C   0  0  0  0  0  0  0  0  0  0  0  0
   32.1065   38.5724   17.7387 C   0  0  0  0  0  0  0  0  0  0  0  0
   32.2552   37.3702   16.8332 C   0  0  0  0  0  0  0  0  0  0  0  0
   33.0912   36.3166   17.1730 C   0  0  0  0  0  0  0  0  0  0  0  0
   33.5537   35.4032   16.3002 N   0  0  0  0  0  0  0  0  0  0  0  0
   33.1747   35.6080   15.0476 C   0  0  0  0  0  0  0  0  0  0  0  0
   32.4197   36.5824   14.5658 N   0  0  0  0  0  0  0  0  0  0  0  0
   31.9940   37.4647   15.4818 C   0  0  0  0  0  0  0  0  0  0  0  0
   33.6438   34.7029   14.1812 O   0  0  0  0  0  0  0  0  0  0  0  0
   33.3905   33.3221   14.4658 C   0  0  0  0  0  0  0  0  0  0  0  0
  1  2  2  0  0  0  0
  1  6  1  0  0  0  0
  2  3  1  0  0  0  0
  3  4  2  0  0  0  0
  4 14  1  0  0  0  0
  5  4  1  0  0  0  0
  6  5  1  0  0  0  0
  7  6  2  0  0  0  0
  8  9  1  0  0  0  0
  8  2  1  1  0  0  0
 10 19  1  0  0  0  0
 10  9  1  0  0  0  0
 11 10  1  0  0  0  0
 12 11  1  0  0  0  0
 12 13  1  0  0  0  0
 13  8  1  0  0  0  0
 14 15  1  0  0  0  0
 14 18  2  0  0  0  0
 15 16  1  0  0  0  0
 16 17  2  0  0  0  0
 18 17  1  0  0  0  0
 19 20  1  0  0  0  0
 20 25  2  0  0  0  0
 20 21  1  0  0  0  0
 21 22  2  0  0  0  0
 22 23  1  0  0  0  0
 23 26  1  0  0  0  0
 24 23  2  0  0  0  0
 25 24  1  0  0  0  0
 26 27  1  0  0  0  0
M  END
>  <CHROM.1>
14.01591825,81.80573746,128.30707814,-145.34899652,54.16767665,29.90398627
38.29284082,19.48987898,-2.89785299,-0.99086867,3.06616250

>  <Name>
lig.pdb

>  <RI>
0

>  <Rbt.Current_Directory>
/home/itssahil/PROJECTS/Mol_Feturizer/New_Systems/rnas/5kx9

>  <Rbt.Executable>
rbdock ($Id: //depot/dev/client3/rdock/2013.1/src/exe/rbdock.cxx#4 $)

>  <Rbt.Library>
libRbt.so (2013.1, Build901 2013/11/27)

>  <Rbt.Parameter_File>
/export/apps/rDock/src/rDock_2013.1_src/data/scripts/dock_solv.prm

>  <Rbt.Receptor>
prm/blind_docking_60.prm

>  <SCORE>
-35.1148

>  <SCORE.INTER>
-31.3451

>  <SCORE.INTER.CONST>
1

>  <SCORE.INTER.POLAR>
0

>  <SCORE.INTER.ROT>
5

>  <SCORE.INTER.SOLV>
13.7706

>  <SCORE.INTER.VDW>
-32.4203

>  <SCORE.INTER.norm>
-1.16093

>  <SCORE.INTRA>
-3.76973

>  <SCORE.INTRA.DIHEDRAL>
5.1479

>  <SCORE.INTRA.DIHEDRAL.0>
2.68224

>  <SCORE.INTRA.POLAR>
0

>  <SCORE.INTRA.POLAR.0>
0

>  <SCORE.INTRA.REPUL>
0

>  <SCORE.INTRA.REPUL.0>
0

>  <SCORE.INTRA.SOLV>
-0.626692

>  <SCORE.INTRA.SOLV.lig_0>
-19.4148

>  <SCORE.INTRA.VDW>
-6.03033

>  <SCORE.INTRA.VDW.0>
5.42093

>  <SCORE.INTRA.norm>
-0.13962

>  <SCORE.RESTR>
0

>  <SCORE.RESTR.CAVITY>
0

>  <SCORE.RESTR.norm>
0

>  <SCORE.SYSTEM>
0

>  <SCORE.SYSTEM.CONST>
0

>  <SCORE.SYSTEM.DIHEDRAL>
0

>  <SCORE.SYSTEM.SOLV>
0

>  <SCORE.SYSTEM.norm>
0

>  <SCORE.heavy>
27

>  <SCORE.norm>
-1.30055

>  <RMSD>
7.132

$$$$
lig.pdb
 OpenBabel11021811523D
libRbt.so/2013.1/901 2013/11/27
 27 30  0  0  0  0  0  0  0  0999 V2000
   25.1535   41.8547   22.6660 N   0  0  0  0  0  0  0  0  0  0  0  0
   26.3856   41.7351   22.2373 C   0  0  0  0  0  0  0  0  0  0  0  0
   27.4851   42.1610   22.9087 N   0  0  0  0  0  0  0  0  0  0  0  0
   27.3217   42.7155   24.1468 C   0  0  0  0  0  0  0  0  0  0  0  0
   26.0743   42.8537   24.6847 C   0  0  0  0  0  0  0  0  0  0  0  0
   24.9286   42.4251   23.9182 C   0  0  0  0  0  0  0  0  0  0  0  0
   23.7653   42.5657   24.3157 O   0  0  0  0  0  0  0  0  0  0  0  0
   26.7281   41.2518   20.8109 C   0  0  2  0  0  0  0  0  0  0  0  0
   27.2819   39.8422   21.0750 C   0  0  0  0  0  0  0  0  0  0  0  0
   27.9060   39.2719   19.8798 N   0  0  0  0  0  0  0  0  0  0  0  0
   29.0537   40.1075   19.4916 C   0  0  0  0  0  0  0  0  0  0  0  0
   28.6004   41.5041   19.1148 C   0  0  0  0  0  0  0  0  0  0  0  0
   27.8415   42.1592   20.2604 C   0  0  0  0  0  0  0  0  0  0  0  0
   28.5888   43.0848   24.7634 C   0  0  0  0  0  0  0  0  0  0  0  0
   30.0262   43.2731   23.8287 S   0  0  0  0  0  0  0  0  0  0  0  0
   30.9368   43.6368   25.1886 C   0  0  0  0  0  0  0  0  0  0  0  0
   30.1887   43.6660   26.2987 C   0  0  0  0  0  0  0  0  0  0  0  0
   28.8360   43.3432   26.0751 C   0  0  0  0  0  0  0  0  0  0  0  0
   28.3354   37.8787   20.0941 C   0  0  0  0  0  0  0  0  0  0  0  0
   28.2611   36.9765   18.8825 C   0  0  0  0  0  0  0  0  0  0  0  0
   29.3917   36.3368   18.3954 C   0  0  0  0  0  0  0  0  0  0  0  0
   29.4975   35.8217   17.1571 N   0  0  0  0  0  0  0  0  0  0  0  0
   28.4277   36.0070   16.3984 C   0  0  0  0  0  0  0  0  0  0  0  0
   27.2996   36.6275   16.7048 N   0  0  0  0  0  0  0  0  0  0  0  0
   27.2555   37.1247   17.9497 C   0  0  0  0  0  0  0  0  0  0  0  0
   28.5401   35.5012   15.1648 O   0  0  0  0  0  0  0  0  0  0  0  0
   29.6972   35.8663   14.4036 C   0  0  0  0  0  0  0  0  0  0  0  0
  1  2  2  0  0  0  0
  1  6  1  0  0  0  0
  2  3  1  0  0  0  0
  3  4  2  0  0  0  0
  4 14  1  0  0  0  0
  5  4  1  0  0  0  0
  6  5  1  0  0  0  0
  7  6  2  0  0  0  0
  8  9  1  0  0  0  0
  8  2  1  1  0  0  0
 10 19  1  0  0  0  0
 10  9  1  0  0  0  0
 11 10  1  0  0  0  0
 12 11  1  0  0  0  0
 12 13  1  0  0  0  0
 13  8  1  0  0  0  0
 14 15  1  0  0  0  0
 14 18  2  0  0  0  0
 15 16  1  0  0  0  0
 16 17  2  0  0  0  0
 18 17  1  0  0  0  0
 19 20  1  0  0  0  0
 20 25  2  0  0  0  0
 20 21  1  0  0  0  0
 21 22  2  0  0  0  0
 22 23  1  0  0  0  0
 23 26  1  0  0  0  0
 24 23  2  0  0  0  0
 25 24  1  0  0  0  0
 26 27  1  0  0  0  0
M  END
>  <CHROM.1>
18.58090203,-107.95991430,147.30450602,121.09674089,-51.85739579,28.00814349
40.30831000,21.05047643,1.63772157,0.01767791,0.86674471

>  <Name>
lig.pdb

>  <RI>
0

>  <Rbt.Current_Directory>
/home/itssahil/PROJECTS/Mol_Feturizer/New_Systems/rnas/5kx9

>  <Rbt.Executable>
rbdock ($Id: //depot/dev/client3/rdock/2013.1/src/exe/rbdock.cxx#4 $)

>  <Rbt.Library>
libRbt.so (2013.1, Build901 2013/11/27)

>  <Rbt.Parameter_File>
/export/apps/rDock/src/rDock_2013.1_src/data/scripts/dock_solv.prm

>  <Rbt.Receptor>
prm/pocket_docking_8.prm

>  <SCORE>
-25.8872

>  <SCORE.INTER>
-22.4118

>  <SCORE.INTER.CONST>
1

>  <SCORE.INTER.POLAR>
0

>  <SCORE.INTER.ROT>
5

>  <SCORE.INTER.SOLV>
11.948

>  <SCORE.INTER.VDW>
-25.8572

>  <SCORE.INTER.norm>
-0.830066

>  <SCORE.INTRA>
-3.47538

>  <SCORE.INTRA.DIHEDRAL>
4.31222

>  <SCORE.INTRA.DIHEDRAL.0>
2.68224

>  <SCORE.INTRA.POLAR>
0

>  <SCORE.INTRA.POLAR.0>
0

>  <SCORE.INTRA.REPUL>
0

>  <SCORE.INTRA.REPUL.0>
0

>  <SCORE.INTRA.SOLV>
-0.495176

>  <SCORE.INTRA.SOLV.lig_0>
-19.4148

>  <SCORE.INTRA.VDW>
-5.38391

>  <SCORE.INTRA.VDW.0>
5.42093

>  <SCORE.INTRA.norm>
-0.128718

>  <SCORE.RESTR>
0

>  <SCORE.RESTR.CAVITY>
0

>  <SCORE.RESTR.norm>
0

>  <SCORE.SYSTEM>
0

>  <SCORE.SYSTEM.CONST>
0

>  <SCORE.SYSTEM.DIHEDRAL>
0

>  <SCORE.SYSTEM.SOLV>
0

>  <SCORE.SYSTEM.norm>
0

>  <SCORE.heavy>
27

>  <SCORE.norm>
-0.958784

>  <RMSD>
7.146

$$$$
lig.pdb
 OpenBabel11021811523D
libRbt.so/2013.1/901 2013/11/27
 27 30  0  0  0  0  0  0  0  0999 V2000
   27.8059   41.6242   20.8214 N   0  0  0  0  0  0  0  0  0  0  0  0
   27.3270   40.4238   20.6070 C   0  0  0  0  0  0  0  0  0  0  0  0
   27.2339   39.4472   21.5443 N   0  0  0  0  0  0  0  0  0  0  0  0
   27.6183   39.7304   22.8246 C   0  0  0  0  0  0  0  0  0  0  0  0
   28.1034   40.9659   23.1449 C   0  0  0  0  0  0  0  0  0  0  0  0
   28.2244   41.9624   22.1076 C   0  0  0  0  0  0  0  0  0  0  0  0
   28.7032   43.0854   22.3092 O   0  0  0  0  0  0  0  0  0  0  0  0
   26.9738   39.9078   19.1947 C   0  0  2  0  0  0  0  0  0  0  0  0
   28.1362   38.9439   18.9063 C   0  0  0  0  0  0  0  0  0  0  0  0
   28.1480   38.5115   17.5076 N   0  0  0  0  0  0  0  0  0  0  0  0
   28.3521   39.6852   16.6433 C   0  0  0  0  0  0  0  0  0  0  0  0
   27.2014   40.6625   16.7813 C   0  0  0  0  0  0  0  0  0  0  0  0
   27.0303   41.1032   18.2284 C   0  0  0  0  0  0  0  0  0  0  0  0
   27.4223   38.6038   23.7271 C   0  0  0  0  0  0  0  0  0  0  0  0
   27.0609   37.0249   23.1342 S   0  0  0  0  0  0  0  0  0  0  0  0
   26.9696   36.3958   24.6856 C   0  0  0  0  0  0  0  0  0  0  0  0
   27.2467   37.3176   25.6165 C   0  0  0  0  0  0  0  0  0  0  0  0
   27.5021   38.5965   25.0844 C   0  0  0  0  0  0  0  0  0  0  0  0
   29.1886   37.4999   17.2526 C   0  0  0  0  0  0  0  0  0  0  0  0
   28.9333   36.5784   16.0808 C   0  0  0  0  0  0  0  0  0  0  0  0
   29.8411   36.4791   15.0365 C   0  0  0  0  0  0  0  0  0  0  0  0
   29.5482   35.9815   13.8214 N   0  0  0  0  0  0  0  0  0  0  0  0
   28.2834   35.6167   13.6742 C   0  0  0  0  0  0  0  0  0  0  0  0
   27.2991   35.6876   14.5561 N   0  0  0  0  0  0  0  0  0  0  0  0
   27.6503   36.1972   15.7459 C   0  0  0  0  0  0  0  0  0  0  0  0
   27.9939   35.1307   12.4618 O   0  0  0  0  0  0  0  0  0  0  0  0
   28.7626   34.0155   11.9958 C   0  0  0  0  0  0  0  0  0  0  0  0
  1  2  2  0  0  0  0
  1  6  1  0  0  0  0
  2  3  1  0  0  0  0
  3  4  2  0  0  0  0
  4 14  1  0  0  0  0
  5  4  1  0  0  0  0
  6  5  1  0  0  0  0
  7  6  2  0  0  0  0
  8  9  1  0  0  0  0
  8  2  1  1  0  0  0
 10 19  1  0  0  0  0
 10  9  1  0  0  0  0
 11 10  1  0  0  0  0
 12 11  1  0  0  0  0
 12 13  1  0  0  0  0
 13  8  1  0  0  0  0
 14 15  1  0  0  0  0
 14 18  2  0  0  0  0
 15 16  1  0  0  0  0
 16 17  2  0  0  0  0
 18 17  1  0  0  0  0
 19 20  1  0  0  0  0
 20 25  2  0  0  0  0
 20 21  1  0  0  0  0
 21 22  2  0  0  0  0
 22 23  1  0  0  0  0
 23 26  1  0  0  0  0
 24 23  2  0  0  0  0
 25 24  1  0  0  0  0
 26 27  1  0  0  0  0
M  END
>  <CHROM.1>
11.81864998,105.24633724,154.87046716,122.77841573,56.26867921,27.91453568
38.34622895,19.12152044,-2.44604564,-1.44710879,-2.79976559

>  <Name>
lig.pdb

>  <RI>
0

>  <Rbt.Current_Directory>
/home/itssahil/PROJECTS/Mol_Feturizer/New_Systems/rnas/5kx9

>  <Rbt.Executable>
rbdock ($Id: //depot/dev/client3/rdock/2013.1/src/exe/rbdock.cxx#4 $)

>  <Rbt.Library>
libRbt.so (2013.1, Build901 2013/11/27)

>  <Rbt.Parameter_File>
/export/apps/rDock/src/rDock_2013.1_src/data/scripts/dock_solv.prm

>  <Rbt.Receptor>
prm/pocket_docking_8.prm

>  <SCORE>
-25.5277

>  <SCORE.INTER>
-21.3318

>  <SCORE.INTER.CONST>
1

>  <SCORE.INTER.POLAR>
0

>  <SCORE.INTER.ROT>
5

>  <SCORE.INTER.SOLV>
10.3667

>  <SCORE.INTER.VDW>
-24.6101

>  <SCORE.INTER.norm>
-0.790068

>  <SCORE.INTRA>
-4.19587

>  <SCORE.INTRA.DIHEDRAL>
3.22082

>  <SCORE.INTRA.DIHEDRAL.0>
2.68224

>  <SCORE.INTRA.POLAR>
0

>  <SCORE.INTRA.POLAR.0>
0

>  <SCORE.INTRA.REPUL>
0

>  <SCORE.INTRA.REPUL.0>
0

>  <SCORE.INTRA.SOLV>
-0.491814

>  <SCORE.INTRA.SOLV.lig_0>
-19.4148

>  <SCORE.INTRA.VDW>
-5.56038

>  <SCORE.INTRA.VDW.0>
5.42093

>  <SCORE.INTRA.norm>
-0.155403

>  <SCORE.RESTR>
0

>  <SCORE.RESTR.CAVITY>
0

>  <SCORE.RESTR.norm>
0

>  <SCORE.SYSTEM>
0

>  <SCORE.SYSTEM.CONST>
0

>  <SCORE.SYSTEM.DIHEDRAL>
0

>  <SCORE.SYSTEM.SOLV>
0

>  <SCORE.SYSTEM.norm>
0

>  <SCORE.heavy>
27

>  <SCORE.norm>
-0.94547

>  <RMSD>
7.148

$$$$
lig.pdb
 OpenBabel11021811523D
libRbt.so/2013.1/901 2013/11/27
 27 30  0  0  0  0  0  0  0  0999 V2000
   25.7543   40.9269   18.1779 N   0  0  0  0  0  0  0  0  0  0  0  0
   27.0465   41.0579   18.3490 C   0  0  0  0  0  0  0  0  0  0  0  0
   27.6343   41.5563   19.4659 N   0  0  0  0  0  0  0  0  0  0  0  0
   26.8407   41.9093   20.5208 C   0  0  0  0  0  0  0  0  0  0  0  0
   25.4838   41.7796   20.4407 C   0  0  0  0  0  0  0  0  0  0  0  0
   24.8976   41.2841   19.2182 C   0  0  0  0  0  0  0  0  0  0  0  0
   23.6753   41.1885   19.0514 O   0  0  0  0  0  0  0  0  0  0  0  0
   28.0652   40.8274   17.2112 C   0  0  2  0  0  0  0  0  0  0  0  0
   29.2594   40.2239   17.9683 C   0  0  0  0  0  0  0  0  0  0  0  0
   30.4532   40.1458   17.1244 N   0  0  0  0  0  0  0  0  0  0  0  0
   30.8517   41.5062   16.7284 C   0  0  0  0  0  0  0  0  0  0  0  0
   29.7732   42.1602   15.8876 C   0  0  0  0  0  0  0  0  0  0  0  0
   28.4479   42.2015   16.6356 C   0  0  0  0  0  0  0  0  0  0  0  0
   27.6107   42.3856   21.6620 C   0  0  0  0  0  0  0  0  0  0  0  0
   29.2844   42.7782   21.5209 S   0  0  0  0  0  0  0  0  0  0  0  0
   29.3926   43.1724   23.1469 C   0  0  0  0  0  0  0  0  0  0  0  0
   28.2113   43.0633   23.7679 C   0  0  0  0  0  0  0  0  0  0  0  0
   27.1753   42.6042   22.9313 C   0  0  0  0  0  0  0  0  0  0  0  0
   31.5667   39.4637   17.8072 C   0  0  0  0  0  0  0  0  0  0  0  0
   32.0312   38.1717   17.1729 C   0  0  0  0  0  0  0  0  0  0  0  0
   31.6880   37.8506   15.8676 C   0  0  0  0  0  0  0  0  0  0  0  0
   31.7445   36.6094   15.3518 N   0  0  0  0  0  0  0  0  0  0  0  0
   32.1261   35.6795   16.2144 C   0  0  0  0  0  0  0  0  0  0  0  0
   32.4440   35.8229   17.4910 N   0  0  0  0  0  0  0  0  0  0  0  0
   32.3630   37.0807   17.9494 C   0  0  0  0  0  0  0  0  0  0  0  0
   32.1726   34.4452   15.7002 O   0  0  0  0  0  0  0  0  0  0  0  0
   30.9584   33.6852   15.6949 C   0  0  0  0  0  0  0  0  0  0  0  0
  1  2  2  0  0  0  0
  1  6  1  0  0  0  0
  2  3  1  0  0  0  0
  3  4  2  0  0  0  0
  4 14  1  0  0  0  0
  5  4  1  0  0  0  0
  6  5  1  0  0  0  0
  7  6  2  0  0  0  0
  8  9  1  0  0  0  0
  8  2  1  1  0  0  0
 10 19  1  0  0  0  0
 10  9  1  0  0  0  0
 11 10  1  0  0  0  0
 12 11  1  0  0  0  0
 12 13  1  0  0  0  0
 13  8  1  0  0  0  0
 14 15  1  0  0  0  0
 14 18  2  0  0  0  0
 15 16  1  0  0  0  0
 16 17  2  0  0  0  0
 18 17  1  0  0  0  0
 19 20  1  0  0  0  0
 20 25  2  0  0  0  0
 20 21  1  0  0  0  0
 21 22  2  0  0  0  0
 22 23  1  0  0  0  0
 23 26  1  0  0  0  0
 24 23  2  0  0  0  0
 25 24  1  0  0  0  0
 26 27  1  0  0  0  0
M  END
>  <CHROM.1>
12.80976863,-145.52819230,116.71357439,16.67013150,-85.60545232,29.16235808
40.06182223,18.56999963,2.15648410,-0.35351895,0.89067086

>  <Name>
lig.pdb

>  <RI>
0

>  <Rbt.Current_Directory>
/home/itssahil/PROJECTS/Mol_Feturizer/New_Systems/rnas/5kx9

>  <Rbt.Executable>
rbdock ($Id: //depot/dev/client3/rdock/2013.1/src/exe/rbdock.cxx#4 $)

>  <Rbt.Library>
libRbt.so (2013.1, Build901 2013/11/27)

>  <Rbt.Parameter_File>
/export/apps/rDock/src/rDock_2013.1_src/data/scripts/dock_solv.prm

>  <Rbt.Receptor>
prm/pocket_docking_7.prm

>  <SCORE>
-26.4554

>  <SCORE.INTER>
-23.948

>  <SCORE.INTER.CONST>
1

>  <SCORE.INTER.POLAR>
0

>  <SCORE.INTER.ROT>
5

>  <SCORE.INTER.SOLV>
14.8594

>  <SCORE.INTER.VDW>
-27.8518

>  <SCORE.INTER.norm>
-0.886963

>  <SCORE.INTRA>
-2.5074

>  <SCORE.INTRA.DIHEDRAL>
6.12777

>  <SCORE.INTRA.DIHEDRAL.0>
2.68224

>  <SCORE.INTRA.POLAR>
0

>  <SCORE.INTRA.POLAR.0>
0

>  <SCORE.INTRA.REPUL>
0

>  <SCORE.INTRA.REPUL.0>
0

>  <SCORE.INTRA.SOLV>
-0.45429

>  <SCORE.INTRA.SOLV.lig_0>
-19.4148

>  <SCORE.INTRA.VDW>
-5.34414

>  <SCORE.INTRA.VDW.0>
5.42093

>  <SCORE.INTRA.norm>
-0.0928667

>  <SCORE.RESTR>
0

>  <SCORE.RESTR.CAVITY>
0

>  <SCORE.RESTR.norm>
0

>  <SCORE.SYSTEM>
0

>  <SCORE.SYSTEM.CONST>
0

>  <SCORE.SYSTEM.DIHEDRAL>
0

>  <SCORE.SYSTEM.SOLV>
0

>  <SCORE.SYSTEM.norm>
0

>  <SCORE.heavy>
27

>  <SCORE.norm>
-0.97983

>  <RMSD>
7.151

$$$$
lig.pdb
 OpenBabel11021811523D
libRbt.so/2013.1/901 2013/11/27
 27 30  0  0  0  0  0  0  0  0999 V2000
   28.4062   42.2283   22.9626 N   0  0  0  0  0  0  0  0  0  0  0  0
   27.1429   41.8816   22.9550 C   0  0  0  0  0  0  0  0  0  0  0  0
   26.2492   42.1863   23.9294 N   0  0  0  0  0  0  0  0  0  0  0  0
   26.6649   42.9513   24.9825 C   0  0  0  0  0  0  0  0  0  0  0  0
   27.9586   43.3814   25.0581 C   0  0  0  0  0  0  0  0  0  0  0  0
   28.8866   42.9992   24.0205 C   0  0  0  0  0  0  0  0  0  0  0  0
   30.0850   43.3057   24.0466 O   0  0  0  0  0  0  0  0  0  0  0  0
   26.5514   40.9126   21.9078 C   0  0  2  0  0  0  0  0  0  0  0  0
   27.7105   39.9255   21.6945 C   0  0  0  0  0  0  0  0  0  0  0  0
   27.4697   39.0452   20.5498 N   0  0  0  0  0  0  0  0  0  0  0  0
   27.3820   39.8598   19.3270 C   0  0  0  0  0  0  0  0  0  0  0  0
   26.2017   40.8086   19.3953 C   0  0  0  0  0  0  0  0  0  0  0  0
   26.2967   41.7108   20.6179 C   0  0  0  0  0  0  0  0  0  0  0  0
   25.5903   43.2330   25.9248 C   0  0  0  0  0  0  0  0  0  0  0  0
   24.0752   42.4133   25.8370 S   0  0  0  0  0  0  0  0  0  0  0  0
   23.4637   43.2743   27.1392 C   0  0  0  0  0  0  0  0  0  0  0  0
   24.3718   44.1115   27.6564 C   0  0  0  0  0  0  0  0  0  0  0  0
   25.5994   44.1075   26.9658 C   0  0  0  0  0  0  0  0  0  0  0  0
   28.5215   38.0227   20.4102 C   0  0  0  0  0  0  0  0  0  0  0  0
   28.0364   36.5944   20.3004 C   0  0  0  0  0  0  0  0  0  0  0  0
   28.1230   35.8986   19.1033 C   0  0  0  0  0  0  0  0  0  0  0  0
   27.4157   34.7905   18.8171 N   0  0  0  0  0  0  0  0  0  0  0  0
   26.5763   34.4200   19.7724 C   0  0  0  0  0  0  0  0  0  0  0  0
   26.3532   34.9991   20.9413 N   0  0  0  0  0  0  0  0  0  0  0  0
   27.0827   36.1017   21.1671 C   0  0  0  0  0  0  0  0  0  0  0  0
   25.8683   33.3229   19.4805 O   0  0  0  0  0  0  0  0  0  0  0  0
   24.8829   33.4279   18.4463 C   0  0  0  0  0  0  0  0  0  0  0  0
  1  2  2  0  0  0  0
  1  6  1  0  0  0  0
  2  3  1  0  0  0  0
  3  4  2  0  0  0  0
  4 14  1  0  0  0  0
  5  4  1  0  0  0  0
  6  5  1  0  0  0  0
  7  6  2  0  0  0  0
  8  9  1  0  0  0  0
  8  2  1  1  0  0  0
 10 19  1  0  0  0  0
 10  9  1  0  0  0  0
 11 10  1  0  0  0  0
 12 11  1  0  0  0  0
 12 13  1  0  0  0  0
 13  8  1  0  0  0  0
 14 15  1  0  0  0  0
 14 18  2  0  0  0  0
 15 16  1  0  0  0  0
 16 17  2  0  0  0  0
 18 17  1  0  0  0  0
 19 20  1  0  0  0  0
 20 25  2  0  0  0  0
 20 21  1  0  0  0  0
 21 22  2  0  0  0  0
 22 23  1  0  0  0  0
 23 26  1  0  0  0  0
 24 23  2  0  0  0  0
 25 24  1  0  0  0  0
 26 27  1  0  0  0  0
M  END
>  <CHROM.1>
11.17079300,35.73400972,128.06777425,108.95108642,-68.78117437,26.65935682
39.90723141,22.45027730,-1.67487014,-0.61187754,-2.54506134

>  <Name>
lig.pdb

>  <RI>
0

>  <Rbt.Current_Directory>
/home/itssahil/PROJECTS/Mol_Feturizer/New_Systems/rnas/5kx9

>  <Rbt.Executable>
rbdock ($Id: //depot/dev/client3/rdock/2013.1/src/exe/rbdock.cxx#4 $)

>  <Rbt.Library>
libRbt.so (2013.1, Build901 2013/11/27)

>  <Rbt.Parameter_File>
/export/apps/rDock/src/rDock_2013.1_src/data/scripts/dock_solv.prm

>  <Rbt.Receptor>
prm/blind_docking_60.prm

>  <SCORE>
-29.5828

>  <SCORE.INTER>
-26.1431

>  <SCORE.INTER.CONST>
1

>  <SCORE.INTER.POLAR>
0

>  <SCORE.INTER.ROT>
5

>  <SCORE.INTER.SOLV>
12.2201

>  <SCORE.INTER.VDW>
-28.4355

>  <SCORE.INTER.norm>
-0.968264

>  <SCORE.INTRA>
-3.43967

>  <SCORE.INTRA.DIHEDRAL>
6.06624

>  <SCORE.INTRA.DIHEDRAL.0>
2.68224

>  <SCORE.INTRA.POLAR>
0

>  <SCORE.INTRA.POLAR.0>
0

>  <SCORE.INTRA.REPUL>
0

>  <SCORE.INTRA.REPUL.0>
0

>  <SCORE.INTRA.SOLV>
-0.515376

>  <SCORE.INTRA.SOLV.lig_0>
-19.4148

>  <SCORE.INTRA.VDW>
-6.2151

>  <SCORE.INTRA.VDW.0>
5.42093

>  <SCORE.INTRA.norm>
-0.127395

>  <SCORE.RESTR>
0

>  <SCORE.RESTR.CAVITY>
0

>  <SCORE.RESTR.norm>
0

>  <SCORE.SYSTEM>
0

>  <SCORE.SYSTEM.CONST>
0

>  <SCORE.SYSTEM.DIHEDRAL>
0

>  <SCORE.SYSTEM.SOLV>
0

>  <SCORE.SYSTEM.norm>
0

>  <SCORE.heavy>
27

>  <SCORE.norm>
-1.09566

>  <RMSD>
7.161

$$$$
lig.pdb
 OpenBabel11021811523D
libRbt.so/2013.1/901 2013/11/27
 27 30  0  0  0  0  0  0  0  0999 V2000
   27.1912   39.6184   21.2886 N   0  0  0  0  0  0  0  0  0  0  0  0
   27.8079   39.2132   22.3710 C   0  0  0  0  0  0  0  0  0  0  0  0
   28.4757   40.0219   23.2319 N   0  0  0  0  0  0  0  0  0  0  0  0
   28.4775   41.3680   22.9971 C   0  0  0  0  0  0  0  0  0  0  0  0
   27.8357   41.8818   21.9070 C   0  0  0  0  0  0  0  0  0  0  0  0
   27.1727   40.9812   20.9943 C   0  0  0  0  0  0  0  0  0  0  0  0
   26.6157   41.3661   19.9587 O   0  0  0  0  0  0  0  0  0  0  0  0
   28.0072   37.7187   22.7061 C   0  0  2  0  0  0  0  0  0  0  0  0
   27.4887   37.0331   21.4315 C   0  0  0  0  0  0  0  0  0  0  0  0
   27.3505   35.5868   21.6115 N   0  0  0  0  0  0  0  0  0  0  0  0
   26.3540   35.3263   22.6628 C   0  0  0  0  0  0  0  0  0  0  0  0
   26.8179   35.8826   23.9946 C   0  0  0  0  0  0  0  0  0  0  0  0
   27.0940   37.3765   23.8955 C   0  0  0  0  0  0  0  0  0  0  0  0
   29.1949   42.1115   24.0241 C   0  0  0  0  0  0  0  0  0  0  0  0
   29.7350   43.7276   23.7568 S   0  0  0  0  0  0  0  0  0  0  0  0
   30.4265   43.8147   25.2817 C   0  0  0  0  0  0  0  0  0  0  0  0
   30.2218   42.6960   25.9885 C   0  0  0  0  0  0  0  0  0  0  0  0
   29.5215   41.7012   25.2785 C   0  0  0  0  0  0  0  0  0  0  0  0
   26.9646   34.9104   20.3605 C   0  0  0  0  0  0  0  0  0  0  0  0
   28.0250   34.8711   19.2829 C   0  0  0  0  0  0  0  0  0  0  0  0
   28.5054   36.0386   18.7077 C   0  0  0  0  0  0  0  0  0  0  0  0
   29.1596   36.0922   17.5333 N   0  0  0  0  0  0  0  0  0  0  0  0
   29.2838   34.9213   16.9267 C   0  0  0  0  0  0  0  0  0  0  0  0
   28.8467   33.7377   17.3261 N   0  0  0  0  0  0  0  0  0  0  0  0
   28.1976   33.7485   18.4997 C   0  0  0  0  0  0  0  0  0  0  0  0
   29.9270   34.9801   15.7550 O   0  0  0  0  0  0  0  0  0  0  0  0
   31.3515   35.1260   15.7895 C   0  0  0  0  0  0  0  0  0  0  0  0
  1  2  2  0  0  0  0
  1  6  1  0  0  0  0
  2  3  1  0  0  0  0
  3  4  2  0  0  0  0
  4 14  1  0  0  0  0
  5  4  1  0  0  0  0
  6  5  1  0  0  0  0
  7  6  2  0  0  0  0
  8  9  1  0  0  0  0
  8  2  1  6  0  0  0
 10 19  1  0  0  0  0
 10  9  1  0  0  0  0
 11 10  1  0  0  0  0
 12 11  1  0  0  0  0
 12 13  1  0  0  0  0
 13  8  1  0  0  0  0
 14 15  1  0  0  0  0
 14 18  2  0  0  0  0
 15 16  1  0  0  0  0
 16 17  2  0  0  0  0
 18 17  1  0  0  0  0
 19 20  1  0  0  0  0
 20 25  2  0  0  0  0
 20 21  1  0  0  0  0
 21 22  2  0  0  0  0
 22 23  1  0  0  0  0
 23 26  1  0  0  0  0
 24 23  2  0  0  0  0
 25 24  1  0  0  0  0
 26 27  1  0  0  0  0
M  END
>  <CHROM.1>
162.26771116,6.65660245,69.69744664,-63.14826929,76.01011237,28.43234742
38.42883837,21.29319720,-1.50627158,-1.05091280,-2.40673463

>  <Name>
lig.pdb

>  <RI>
0

>  <Rbt.Current_Directory>
/home/itssahil/PROJECTS/Mol_Feturizer/New_Systems/rnas/5kx9

>  <Rbt.Executable>
rbdock ($Id: //depot/dev/client3/rdock/2013.1/src/exe/rbdock.cxx#4 $)

>  <Rbt.Library>
libRbt.so (2013.1, Build901 2013/11/27)

>  <Rbt.Parameter_File>
/export/apps/rDock/src/rDock_2013.1_src/data/scripts/dock_solv.prm

>  <Rbt.Receptor>
prm/blind_docking_80.prm

>  <SCORE>
-34.7377

>  <SCORE.INTER>
-32.2505

>  <SCORE.INTER.CONST>
1

>  <SCORE.INTER.POLAR>
0

>  <SCORE.INTER.ROT>
5

>  <SCORE.INTER.SOLV>
12.726

>  <SCORE.INTER.VDW>
-32.6757

>  <SCORE.INTER.norm>
-1.19446

>  <SCORE.INTRA>
-2.50311

>  <SCORE.INTRA.DIHEDRAL>
5.22918

>  <SCORE.INTRA.DIHEDRAL.0>
2.68224

>  <SCORE.INTRA.POLAR>
0

>  <SCORE.INTRA.POLAR.0>
0

>  <SCORE.INTRA.REPUL>
0

>  <SCORE.INTRA.REPUL.0>
0

>  <SCORE.INTRA.SOLV>
-0.590029

>  <SCORE.INTRA.SOLV.lig_0>
-19.4148

>  <SCORE.INTRA.VDW>
-4.82268

>  <SCORE.INTRA.VDW.0>
5.42093

>  <SCORE.INTRA.norm>
-0.0927077

>  <SCORE.RESTR>
0.0159587

>  <SCORE.RESTR.CAVITY>
0.0159587

>  <SCORE.RESTR.norm>
0.000591062

>  <SCORE.SYSTEM>
0

>  <SCORE.SYSTEM.CONST>
0

>  <SCORE.SYSTEM.DIHEDRAL>
0

>  <SCORE.SYSTEM.SOLV>
0

>  <SCORE.SYSTEM.norm>
0

>  <SCORE.heavy>
27

>  <SCORE.norm>
-1.28658

>  <RMSD>
7.181

$$$$
lig.pdb
 OpenBabel11021811523D
libRbt.so/2013.1/901 2013/11/27
 27 30  0  0  0  0  0  0  0  0999 V2000
   26.9523   36.0407   21.7712 N   0  0  0  0  0  0  0  0  0  0  0  0
   27.4712   37.1616   21.3346 C   0  0  0  0  0  0  0  0  0  0  0  0
   27.7551   38.2385   22.1097 N   0  0  0  0  0  0  0  0  0  0  0  0
   27.5357   38.1519   23.4556 C   0  0  0  0  0  0  0  0  0  0  0  0
   27.0231   37.0103   24.0018 C   0  0  0  0  0  0  0  0  0  0  0  0
   26.6965   35.9033   23.1349 C   0  0  0  0  0  0  0  0  0  0  0  0
   26.1808   34.8574   23.5483 O   0  0  0  0  0  0  0  0  0  0  0  0
   27.6560   37.4641   19.8313 C   0  0  2  0  0  0  0  0  0  0  0  0
   27.9201   36.0642   19.2533 C   0  0  0  0  0  0  0  0  0  0  0  0
   28.3712   36.1280   17.8620 N   0  0  0  0  0  0  0  0  0  0  0  0
   29.6503   36.8538   17.8042 C   0  0  0  0  0  0  0  0  0  0  0  0
   29.4777   38.2873   18.2662 C   0  0  0  0  0  0  0  0  0  0  0  0
   28.9102   38.3412   19.6778 C   0  0  0  0  0  0  0  0  0  0  0  0
   27.9258   39.3644   24.1627 C   0  0  0  0  0  0  0  0  0  0  0  0
   28.4007   40.7898   23.3155 S   0  0  0  0  0  0  0  0  0  0  0  0
   28.6895   41.6176   24.7446 C   0  0  0  0  0  0  0  0  0  0  0  0
   28.3965   40.8761   25.8204 C   0  0  0  0  0  0  0  0  0  0  0  0
   27.9628   39.5734   25.5056 C   0  0  0  0  0  0  0  0  0  0  0  0
   28.5152   34.7875   17.2676 C   0  0  0  0  0  0  0  0  0  0  0  0
   28.5308   34.7392   15.7560 C   0  0  0  0  0  0  0  0  0  0  0  0
   29.7126   34.5369   15.0580 C   0  0  0  0  0  0  0  0  0  0  0  0
   29.8837   34.8278   13.7557 N   0  0  0  0  0  0  0  0  0  0  0  0
   28.8245   35.3735   13.1772 C   0  0  0  0  0  0  0  0  0  0  0  0
   27.6512   35.6638   13.7164 N   0  0  0  0  0  0  0  0  0  0  0  0
   27.5426   35.3567   15.0174 C   0  0  0  0  0  0  0  0  0  0  0  0
   29.0015   35.6697   11.8845 O   0  0  0  0  0  0  0  0  0  0  0  0
   28.8887   34.5990   10.9397 C   0  0  0  0  0  0  0  0  0  0  0  0
  1  2  2  0  0  0  0
  1  6  1  0  0  0  0
  2  3  1  0  0  0  0
  3  4  2  0  0  0  0
  4 14  1  0  0  0  0
  5  4  1  0  0  0  0
  6  5  1  0  0  0  0
  7  6  2  0  0  0  0
  8  9  1  0  0  0  0
  8  2  1  1  0  0  0
 10 19  1  0  0  0  0
 10  9  1  0  0  0  0
 11 10  1  0  0  0  0
 12 11  1  0  0  0  0
 12 13  1  0  0  0  0
 13  8  1  0  0  0  0
 14 15  1  0  0  0  0
 14 18  2  0  0  0  0
 15 16  1  0  0  0  0
 16 17  2  0  0  0  0
 18 17  1  0  0  0  0
 19 20  1  0  0  0  0
 20 25  2  0  0  0  0
 20 21  1  0  0  0  0
 21 22  2  0  0  0  0
 22 23  1  0  0  0  0
 23 26  1  0  0  0  0
 24 23  2  0  0  0  0
 25 24  1  0  0  0  0
 26 27  1  0  0  0  0
M  END
>  <CHROM.1>
7.69879724,-32.06010964,160.84697034,104.65025648,79.69721479,28.21927552
37.11518729,19.43596392,1.77620194,1.12131658,1.01716462

>  <Name>
lig.pdb

>  <RI>
0

>  <Rbt.Current_Directory>
/home/itssahil/PROJECTS/Mol_Feturizer/New_Systems/rnas/5kx9

>  <Rbt.Executable>
rbdock ($Id: //depot/dev/client3/rdock/2013.1/src/exe/rbdock.cxx#4 $)

>  <Rbt.Library>
libRbt.so (2013.1, Build901 2013/11/27)

>  <Rbt.Parameter_File>
/export/apps/rDock/src/rDock_2013.1_src/data/scripts/dock_solv.prm

>  <Rbt.Receptor>
prm/pocket_docking_8.prm

>  <SCORE>
-26.5112

>  <SCORE.INTER>
-23.1394

>  <SCORE.INTER.CONST>
1

>  <SCORE.INTER.POLAR>
0

>  <SCORE.INTER.ROT>
5

>  <SCORE.INTER.SOLV>
12.3377

>  <SCORE.INTER.VDW>
-26.4721

>  <SCORE.INTER.norm>
-0.857014

>  <SCORE.INTRA>
-3.3718

>  <SCORE.INTRA.DIHEDRAL>
4.27159

>  <SCORE.INTRA.DIHEDRAL.0>
2.68224

>  <SCORE.INTRA.POLAR>
0

>  <SCORE.INTRA.POLAR.0>
0

>  <SCORE.INTRA.REPUL>
0

>  <SCORE.INTRA.REPUL.0>
0

>  <SCORE.INTRA.SOLV>
-0.498007

>  <SCORE.INTRA.SOLV.lig_0>
-19.4148

>  <SCORE.INTRA.VDW>
-5.25859

>  <SCORE.INTRA.VDW.0>
5.42093

>  <SCORE.INTRA.norm>
-0.124881

>  <SCORE.RESTR>
0

>  <SCORE.RESTR.CAVITY>
0

>  <SCORE.RESTR.norm>
0

>  <SCORE.SYSTEM>
0

>  <SCORE.SYSTEM.CONST>
0

>  <SCORE.SYSTEM.DIHEDRAL>
0

>  <SCORE.SYSTEM.SOLV>
0

>  <SCORE.SYSTEM.norm>
0

>  <SCORE.heavy>
27

>  <SCORE.norm>
-0.981895

>  <RMSD>
7.181

$$$$
lig.pdb
 OpenBabel11021811523D
libRbt.so/2013.1/901 2013/11/27
 27 30  0  0  0  0  0  0  0  0999 V2000
   27.0632   39.7074   21.5424 N   0  0  0  0  0  0  0  0  0  0  0  0
   27.7662   39.3911   22.6017 C   0  0  0  0  0  0  0  0  0  0  0  0
   28.4918   40.2674   23.3410 N   0  0  0  0  0  0  0  0  0  0  0  0
   28.4632   41.5906   23.0014 C   0  0  0  0  0  0  0  0  0  0  0  0
   27.7336   42.0146   21.9279 C   0  0  0  0  0  0  0  0  0  0  0  0
   27.0096   41.0425   21.1439 C   0  0  0  0  0  0  0  0  0  0  0  0
   26.3700   41.3424   20.1282 O   0  0  0  0  0  0  0  0  0  0  0  0
   28.0045   37.9284   23.0369 C   0  0  2  0  0  0  0  0  0  0  0  0
   27.3396   37.1424   21.8952 C   0  0  0  0  0  0  0  0  0  0  0  0
   27.2244   35.7179   22.2126 N   0  0  0  0  0  0  0  0  0  0  0  0
   26.3591   35.5567   23.3922 C   0  0  0  0  0  0  0  0  0  0  0  0
   26.9767   36.2192   24.6079 C   0  0  0  0  0  0  0  0  0  0  0  0
   27.2383   37.6967   24.3503 C   0  0  0  0  0  0  0  0  0  0  0  0
   29.2518   42.4153   23.9070 C   0  0  0  0  0  0  0  0  0  0  0  0
   29.5692   41.9239   25.5296 S   0  0  0  0  0  0  0  0  0  0  0  0
   30.4304   43.3260   25.8514 C   0  0  0  0  0  0  0  0  0  0  0  0
   30.5225   44.1151   24.7735 C   0  0  0  0  0  0  0  0  0  0  0  0
   29.8437   43.6113   23.6468 C   0  0  0  0  0  0  0  0  0  0  0  0
   26.6939   34.9419   21.0779 C   0  0  0  0  0  0  0  0  0  0  0  0
   27.2385   35.3151   19.7171 C   0  0  0  0  0  0  0  0  0  0  0  0
   26.6317   36.2968   18.9474 C   0  0  0  0  0  0  0  0  0  0  0  0
   26.8152   36.4436   17.6227 N   0  0  0  0  0  0  0  0  0  0  0  0
   27.6105   35.5337   17.0804 C   0  0  0  0  0  0  0  0  0  0  0  0
   28.2246   34.5212   17.6712 N   0  0  0  0  0  0  0  0  0  0  0  0
   27.9990   34.4231   18.9896 C   0  0  0  0  0  0  0  0  0  0  0  0
   27.7834   35.6776   15.7615 O   0  0  0  0  0  0  0  0  0  0  0  0
   26.6139   35.6529   14.9349 C   0  0  0  0  0  0  0  0  0  0  0  0
  1  2  2  0  0  0  0
  1  6  1  0  0  0  0
  2  3  1  0  0  0  0
  3  4  2  0  0  0  0
  4 14  1  0  0  0  0
  5  4  1  0  0  0  0
  6  5  1  0  0  0  0
  7  6  2  0  0  0  0
  8  9  1  0  0  0  0
  8  2  1  6  0  0  0
 10 19  1  0  0  0  0
 10  9  1  0  0  0  0
 11 10  1  0  0  0  0
 12 11  1  0  0  0  0
 12 13  1  0  0  0  0
 13  8  1  0  0  0  0
 14 15  1  0  0  0  0
 14 18  2  0  0  0  0
 15 16  1  0  0  0  0
 16 17  2  0  0  0  0
 18 17  1  0  0  0  0
 19 20  1  0  0  0  0
 20 25  2  0  0  0  0
 20 21  1  0  0  0  0
 21 22  2  0  0  0  0
 22 23  1  0  0  0  0
 23 26  1  0  0  0  0
 24 23  2  0  0  0  0
 25 24  1  0  0  0  0
 26 27  1  0  0  0  0
M  END
>  <CHROM.1>
-25.02163891,4.27558343,41.56529555,-89.14088102,-57.93246201,27.87688315
38.62003194,21.56153072,-0.49616102,-1.32657717,-1.32159780

>  <Name>
lig.pdb

>  <RI>
0

>  <Rbt.Current_Directory>
/home/itssahil/PROJECTS/Mol_Feturizer/New_Systems/rnas/5kx9

>  <Rbt.Executable>
rbdock ($Id: //depot/dev/client3/rdock/2013.1/src/exe/rbdock.cxx#4 $)

>  <Rbt.Library>
libRbt.so (2013.1, Build901 2013/11/27)

>  <Rbt.Parameter_File>
/export/apps/rDock/src/rDock_2013.1_src/data/scripts/dock_solv.prm

>  <Rbt.Receptor>
prm/pocket_docking_4.prm

>  <SCORE>
-32.6426

>  <SCORE.INTER>
-30.9344

>  <SCORE.INTER.CONST>
1

>  <SCORE.INTER.POLAR>
0

>  <SCORE.INTER.ROT>
5

>  <SCORE.INTER.SOLV>
11.2777

>  <SCORE.INTER.VDW>
-31.3155

>  <SCORE.INTER.norm>
-1.14572

>  <SCORE.INTRA>
-1.70822

>  <SCORE.INTRA.DIHEDRAL>
4.96325

>  <SCORE.INTRA.DIHEDRAL.0>
2.68224

>  <SCORE.INTRA.POLAR>
0

>  <SCORE.INTRA.POLAR.0>
0

>  <SCORE.INTRA.REPUL>
0

>  <SCORE.INTRA.REPUL.0>
0

>  <SCORE.INTRA.SOLV>
-0.555814

>  <SCORE.INTRA.SOLV.lig_0>
-19.4148

>  <SCORE.INTRA.VDW>
-3.91194

>  <SCORE.INTRA.VDW.0>
5.42093

>  <SCORE.INTRA.norm>
-0.0632674

>  <SCORE.RESTR>
0

>  <SCORE.RESTR.CAVITY>
0

>  <SCORE.RESTR.norm>
0

>  <SCORE.SYSTEM>
0

>  <SCORE.SYSTEM.CONST>
0

>  <SCORE.SYSTEM.DIHEDRAL>
0

>  <SCORE.SYSTEM.SOLV>
0

>  <SCORE.SYSTEM.norm>
0

>  <SCORE.heavy>
27

>  <SCORE.norm>
-1.20899

>  <RMSD>
7.186

$$$$
lig.pdb
 OpenBabel11021811523D
libRbt.so/2013.1/901 2013/11/27
 27 30  0  0  0  0  0  0  0  0999 V2000
   27.0585   39.7558   21.5274 N   0  0  0  0  0  0  0  0  0  0  0  0
   27.6686   39.2775   22.5834 C   0  0  0  0  0  0  0  0  0  0  0  0
   28.2401   40.0308   23.5566 N   0  0  0  0  0  0  0  0  0  0  0  0
   28.1422   41.3911   23.4732 C   0  0  0  0  0  0  0  0  0  0  0  0
   27.4985   41.9760   22.4206 C   0  0  0  0  0  0  0  0  0  0  0  0
   26.9410   41.1379   21.3860 C   0  0  0  0  0  0  0  0  0  0  0  0
   26.3902   41.5952   20.3768 O   0  0  0  0  0  0  0  0  0  0  0  0
   27.9756   37.7739   22.7584 C   0  0  2  0  0  0  0  0  0  0  0  0
   27.6208   37.2114   21.3723 C   0  0  0  0  0  0  0  0  0  0  0  0
   27.6001   35.7476   21.3700 N   0  0  0  0  0  0  0  0  0  0  0  0
   26.5531   35.2802   22.2928 C   0  0  0  0  0  0  0  0  0  0  0  0
   26.8609   35.7034   23.7157 C   0  0  0  0  0  0  0  0  0  0  0  0
   27.0080   37.2153   23.8156 C   0  0  0  0  0  0  0  0  0  0  0  0
   28.7626   42.0647   24.6061 C   0  0  0  0  0  0  0  0  0  0  0  0
   29.2266   41.2016   26.0255 S   0  0  0  0  0  0  0  0  0  0  0  0
   29.7765   42.5992   26.7706 C   0  0  0  0  0  0  0  0  0  0  0  0
   29.6649   43.6687   25.9728 C   0  0  0  0  0  0  0  0  0  0  0  0
   29.0763   43.3822   24.7256 C   0  0  0  0  0  0  0  0  0  0  0  0
   27.3743   35.2020   20.0200 C   0  0  0  0  0  0  0  0  0  0  0  0
   25.9739   35.3658   19.4729 C   0  0  0  0  0  0  0  0  0  0  0  0
   25.1165   34.2807   19.3626 C   0  0  0  0  0  0  0  0  0  0  0  0
   24.0210   34.2559   18.5821 N   0  0  0  0  0  0  0  0  0  0  0  0
   23.8326   35.3598   17.8748 C   0  0  0  0  0  0  0  0  0  0  0  0
   24.5784   36.4526   17.8419 N   0  0  0  0  0  0  0  0  0  0  0  0
   25.6590   36.4161   18.6355 C   0  0  0  0  0  0  0  0  0  0  0  0
   22.7472   35.3278   17.0932 O   0  0  0  0  0  0  0  0  0  0  0  0
   21.4718   35.4819   17.7267 C   0  0  0  0  0  0  0  0  0  0  0  0
  1  2  2  0  0  0  0
  1  6  1  0  0  0  0
  2  3  1  0  0  0  0
  3  4  2  0  0  0  0
  4 14  1  0  0  0  0
  5  4  1  0  0  0  0
  6  5  1  0  0  0  0
  7  6  2  0  0  0  0
  8  9  1  0  0  0  0
  8  2  1  6  0  0  0
 10 19  1  0  0  0  0
 10  9  1  0  0  0  0
 11 10  1  0  0  0  0
 12 11  1  0  0  0  0
 12 13  1  0  0  0  0
 13  8  1  0  0  0  0
 14 15  1  0  0  0  0
 14 18  2  0  0  0  0
 15 16  1  0  0  0  0
 16 17  2  0  0  0  0
 18 17  1  0  0  0  0
 19 20  1  0  0  0  0
 20 25  2  0  0  0  0
 20 21  1  0  0  0  0
 21 22  2  0  0  0  0
 22 23  1  0  0  0  0
 23 26  1  0  0  0  0
 24 23  2  0  0  0  0
 25 24  1  0  0  0  0
 26 27  1  0  0  0  0
M  END
>  <CHROM.1>
-12.86078631,9.26275713,-72.12538393,-107.60455157,75.13057027,26.82970051
38.42248654,21.82609498,0.67550456,-0.96033076,-0.03342730

>  <Name>
lig.pdb

>  <RI>
0

>  <Rbt.Current_Directory>
/home/itssahil/PROJECTS/Mol_Feturizer/New_Systems/rnas/5kx9

>  <Rbt.Executable>
rbdock ($Id: //depot/dev/client3/rdock/2013.1/src/exe/rbdock.cxx#4 $)

>  <Rbt.Library>
libRbt.so (2013.1, Build901 2013/11/27)

>  <Rbt.Parameter_File>
/export/apps/rDock/src/rDock_2013.1_src/data/scripts/dock_solv.prm

>  <Rbt.Receptor>
prm/blind_docking_60.prm

>  <SCORE>
-37.39

>  <SCORE.INTER>
-34.476

>  <SCORE.INTER.CONST>
1

>  <SCORE.INTER.POLAR>
0

>  <SCORE.INTER.ROT>
5

>  <SCORE.INTER.SOLV>
14.8478

>  <SCORE.INTER.VDW>
-34.8666

>  <SCORE.INTER.norm>
-1.27689

>  <SCORE.INTRA>
-2.914

>  <SCORE.INTRA.DIHEDRAL>
4.12502

>  <SCORE.INTRA.DIHEDRAL.0>
2.68224

>  <SCORE.INTRA.POLAR>
0

>  <SCORE.INTRA.POLAR.0>
0

>  <SCORE.INTRA.REPUL>
0

>  <SCORE.INTRA.REPUL.0>
0

>  <SCORE.INTRA.SOLV>
-0.600405

>  <SCORE.INTRA.SOLV.lig_0>
-19.4148

>  <SCORE.INTRA.VDW>
-4.67631

>  <SCORE.INTRA.VDW.0>
5.42093

>  <SCORE.INTRA.norm>
-0.107926

>  <SCORE.RESTR>
0

>  <SCORE.RESTR.CAVITY>
0

>  <SCORE.RESTR.norm>
0

>  <SCORE.SYSTEM>
0

>  <SCORE.SYSTEM.CONST>
0

>  <SCORE.SYSTEM.DIHEDRAL>
0

>  <SCORE.SYSTEM.SOLV>
0

>  <SCORE.SYSTEM.norm>
0

>  <SCORE.heavy>
27

>  <SCORE.norm>
-1.38481

>  <RMSD>
7.196

$$$$
lig.pdb
 OpenBabel11021811523D
libRbt.so/2013.1/901 2013/11/27
 27 30  0  0  0  0  0  0  0  0999 V2000
   27.8124   39.4509   20.8664 N   0  0  0  0  0  0  0  0  0  0  0  0
   27.7672   39.0797   22.1220 C   0  0  0  0  0  0  0  0  0  0  0  0
   27.6797   39.9267   23.1784 N   0  0  0  0  0  0  0  0  0  0  0  0
   27.5823   41.2678   22.9353 C   0  0  0  0  0  0  0  0  0  0  0  0
   27.5928   41.7423   21.6550 C   0  0  0  0  0  0  0  0  0  0  0  0
   27.7294   40.8090   20.5623 C   0  0  0  0  0  0  0  0  0  0  0  0
   27.7997   41.1667   19.3799 O   0  0  0  0  0  0  0  0  0  0  0  0
   27.9956   37.6186   22.5675 C   0  0  2  0  0  0  0  0  0  0  0  0
   27.4547   36.8290   21.3644 C   0  0  0  0  0  0  0  0  0  0  0  0
   27.3411   35.3997   21.6604 N   0  0  0  0  0  0  0  0  0  0  0  0
   26.3752   35.2108   22.7547 C   0  0  0  0  0  0  0  0  0  0  0  0
   26.8648   35.8754   24.0263 C   0  0  0  0  0  0  0  0  0  0  0  0
   27.1175   37.3600   23.8036 C   0  0  0  0  0  0  0  0  0  0  0  0
   27.4520   42.0477   24.1588 C   0  0  0  0  0  0  0  0  0  0  0  0
   26.3665   41.5807   25.4153 S   0  0  0  0  0  0  0  0  0  0  0  0
   26.7773   42.9110   26.3493 C   0  0  0  0  0  0  0  0  0  0  0  0
   27.7274   43.6553   25.7696 C   0  0  0  0  0  0  0  0  0  0  0  0
   28.1229   43.1785   24.5046 C   0  0  0  0  0  0  0  0  0  0  0  0
   26.9331   34.6228   20.4767 C   0  0  0  0  0  0  0  0  0  0  0  0
   27.8988   34.6461   19.3130 C   0  0  0  0  0  0  0  0  0  0  0  0
   28.0658   35.7884   18.5436 C   0  0  0  0  0  0  0  0  0  0  0  0
   28.6091   35.8014   17.3129 N   0  0  0  0  0  0  0  0  0  0  0  0
   28.9492   34.6054   16.8566 C   0  0  0  0  0  0  0  0  0  0  0  0
   28.8157   33.4302   17.4504 N   0  0  0  0  0  0  0  0  0  0  0  0
   28.2631   33.4804   18.6713 C   0  0  0  0  0  0  0  0  0  0  0  0
   29.4808   34.6213   15.6289 O   0  0  0  0  0  0  0  0  0  0  0  0
   28.6092   34.9305   14.5351 C   0  0  0  0  0  0  0  0  0  0  0  0
  1  2  2  0  0  0  0
  1  6  1  0  0  0  0
  2  3  1  0  0  0  0
  3  4  2  0  0  0  0
  4 14  1  0  0  0  0
  5  4  1  0  0  0  0
  6  5  1  0  0  0  0
  7  6  2  0  0  0  0
  8  9  1  0  0  0  0
  8  2  1  6  0  0  0
 10 19  1  0  0  0  0
 10  9  1  0  0  0  0
 11 10  1  0  0  0  0
 12 11  1  0  0  0  0
 12 13  1  0  0  0  0
 13  8  1  0  0  0  0
 14 15  1  0  0  0  0
 14 18  2  0  0  0  0
 15 16  1  0  0  0  0
 16 17  2  0  0  0  0
 18 17  1  0  0  0  0
 19 20  1  0  0  0  0
 20 25  2  0  0  0  0
 20 21  1  0  0  0  0
 21 22  2  0  0  0  0
 22 23  1  0  0  0  0
 23 26  1  0  0  0  0
 24 23  2  0  0  0  0
 25 24  1  0  0  0  0
 26 27  1  0  0  0  0
M  END
>  <CHROM.1>
-45.64877303,-31.18829232,62.79494013,-71.43751799,-70.07761563,27.68803887
38.15132792,21.30567500,-2.03898087,-1.29639455,-2.82172615

>  <Name>
lig.pdb

>  <RI>
0

>  <Rbt.Current_Directory>
/home/itssahil/PROJECTS/Mol_Feturizer/New_Systems/rnas/5kx9

>  <Rbt.Executable>
rbdock ($Id: //depot/dev/client3/rdock/2013.1/src/exe/rbdock.cxx#4 $)

>  <Rbt.Library>
libRbt.so (2013.1, Build901 2013/11/27)

>  <Rbt.Parameter_File>
/export/apps/rDock/src/rDock_2013.1_src/data/scripts/dock_solv.prm

>  <Rbt.Receptor>
prm/pocket_docking_5.prm

>  <SCORE>
-29.195

>  <SCORE.INTER>
-28.7283

>  <SCORE.INTER.CONST>
1

>  <SCORE.INTER.POLAR>
0

>  <SCORE.INTER.ROT>
5

>  <SCORE.INTER.SOLV>
12.3558

>  <SCORE.INTER.VDW>
-30.2041

>  <SCORE.INTER.norm>
-1.06401

>  <SCORE.INTRA>
-0.466734

>  <SCORE.INTRA.DIHEDRAL>
9.20748

>  <SCORE.INTRA.DIHEDRAL.0>
2.68224

>  <SCORE.INTRA.POLAR>
0

>  <SCORE.INTRA.POLAR.0>
0

>  <SCORE.INTRA.REPUL>
0

>  <SCORE.INTRA.REPUL.0>
0

>  <SCORE.INTRA.SOLV>
-0.57548

>  <SCORE.INTRA.SOLV.lig_0>
-19.4148

>  <SCORE.INTRA.VDW>
-4.78273

>  <SCORE.INTRA.VDW.0>
5.42093

>  <SCORE.INTRA.norm>
-0.0172865

>  <SCORE.RESTR>
0

>  <SCORE.RESTR.CAVITY>
0

>  <SCORE.RESTR.norm>
0

>  <SCORE.SYSTEM>
0

>  <SCORE.SYSTEM.CONST>
0

>  <SCORE.SYSTEM.DIHEDRAL>
0

>  <SCORE.SYSTEM.SOLV>
0

>  <SCORE.SYSTEM.norm>
0

>  <SCORE.heavy>
27

>  <SCORE.norm>
-1.0813

>  <RMSD>
7.197

$$$$
lig.pdb
 OpenBabel11021811523D
libRbt.so/2013.1/901 2013/11/27
 27 30  0  0  0  0  0  0  0  0999 V2000
   28.0839   41.2537   20.6813 N   0  0  0  0  0  0  0  0  0  0  0  0
   27.3535   40.1671   20.6368 C   0  0  0  0  0  0  0  0  0  0  0  0
   27.1698   39.3131   21.6750 N   0  0  0  0  0  0  0  0  0  0  0  0
   27.7409   39.6147   22.8792 C   0  0  0  0  0  0  0  0  0  0  0  0
   28.4960   40.7430   23.0244 C   0  0  0  0  0  0  0  0  0  0  0  0
   28.7000   41.6022   21.8825 C   0  0  0  0  0  0  0  0  0  0  0  0
   29.4133   42.6124   21.9225 O   0  0  0  0  0  0  0  0  0  0  0  0
   26.7516   39.6212   19.3233 C   0  0  2  0  0  0  0  0  0  0  0  0
   27.4879   38.2807   19.1667 C   0  0  0  0  0  0  0  0  0  0  0  0
   27.2573   37.6859   17.8490 N   0  0  0  0  0  0  0  0  0  0  0  0
   27.7968   38.5840   16.8152 C   0  0  0  0  0  0  0  0  0  0  0  0
   27.0661   39.9123   16.8209 C   0  0  0  0  0  0  0  0  0  0  0  0
   27.1536   40.5774   18.1875 C   0  0  0  0  0  0  0  0  0  0  0  0
   27.4232   38.6333   23.9078 C   0  0  0  0  0  0  0  0  0  0  0  0
   27.7669   38.9270   25.5723 S   0  0  0  0  0  0  0  0  0  0  0  0
   27.1727   37.4258   26.0239 C   0  0  0  0  0  0  0  0  0  0  0  0
   26.6883   36.7441   24.9782 C   0  0  0  0  0  0  0  0  0  0  0  0
   26.8307   37.4197   23.7505 C   0  0  0  0  0  0  0  0  0  0  0  0
   27.8653   36.3486   17.7343 C   0  0  0  0  0  0  0  0  0  0  0  0
   27.3145   35.4708   16.6327 C   0  0  0  0  0  0  0  0  0  0  0  0
   26.9428   36.0065   15.4082 C   0  0  0  0  0  0  0  0  0  0  0  0
   26.1352   35.3920   14.5250 N   0  0  0  0  0  0  0  0  0  0  0  0
   25.6741   34.2198   14.9348 C   0  0  0  0  0  0  0  0  0  0  0  0
   25.9035   33.6014   16.0821 N   0  0  0  0  0  0  0  0  0  0  0  0
   26.7103   34.2650   16.9233 C   0  0  0  0  0  0  0  0  0  0  0  0
   24.8642   33.6159   14.0576 O   0  0  0  0  0  0  0  0  0  0  0  0
   23.6906   32.9766   14.5732 C   0  0  0  0  0  0  0  0  0  0  0  0
  1  2  2  0  0  0  0
  1  6  1  0  0  0  0
  2  3  1  0  0  0  0
  3  4  2  0  0  0  0
  4 14  1  0  0  0  0
  5  4  1  0  0  0  0
  6  5  1  0  0  0  0
  7  6  2  0  0  0  0
  8  9  1  0  0  0  0
  8  2  1  1  0  0  0
 10 19  1  0  0  0  0
 10  9  1  0  0  0  0
 11 10  1  0  0  0  0
 12 11  1  0  0  0  0
 12 13  1  0  0  0  0
 13  8  1  0  0  0  0
 14 15  1  0  0  0  0
 14 18  2  0  0  0  0
 15 16  1  0  0  0  0
 16 17  2  0  0  0  0
 18 17  1  0  0  0  0
 19 20  1  0  0  0  0
 20 25  2  0  0  0  0
 20 21  1  0  0  0  0
 21 22  2  0  0  0  0
 22 23  1  0  0  0  0
 23 26  1  0  0  0  0
 24 23  2  0  0  0  0
 25 24  1  0  0  0  0
 26 27  1  0  0  0  0
M  END
>  <CHROM.1>
-168.35677325,114.95403906,160.25041827,37.05827479,-138.14776724,27.10931623
37.85748199,19.69286642,-0.92587202,-1.22852719,-1.47456768

>  <Name>
lig.pdb

>  <RI>
0

>  <Rbt.Current_Directory>
/home/itssahil/PROJECTS/Mol_Feturizer/New_Systems/rnas/5kx9

>  <Rbt.Executable>
rbdock ($Id: //depot/dev/client3/rdock/2013.1/src/exe/rbdock.cxx#4 $)

>  <Rbt.Library>
libRbt.so (2013.1, Build901 2013/11/27)

>  <Rbt.Parameter_File>
/export/apps/rDock/src/rDock_2013.1_src/data/scripts/dock_solv.prm

>  <Rbt.Receptor>
prm/blind_docking_80.prm

>  <SCORE>
-24.9812

>  <SCORE.INTER>
-21.497

>  <SCORE.INTER.CONST>
1

>  <SCORE.INTER.POLAR>
0

>  <SCORE.INTER.ROT>
5

>  <SCORE.INTER.SOLV>
10.293

>  <SCORE.INTER.VDW>
-24.6956

>  <SCORE.INTER.norm>
-0.796184

>  <SCORE.INTRA>
-3.48423

>  <SCORE.INTRA.DIHEDRAL>
1.87776

>  <SCORE.INTRA.DIHEDRAL.0>
2.68224

>  <SCORE.INTRA.POLAR>
0

>  <SCORE.INTRA.POLAR.0>
0

>  <SCORE.INTRA.REPUL>
0

>  <SCORE.INTRA.REPUL.0>
0

>  <SCORE.INTRA.SOLV>
-0.451949

>  <SCORE.INTRA.SOLV.lig_0>
-19.4148

>  <SCORE.INTRA.VDW>
-4.19713

>  <SCORE.INTRA.VDW.0>
5.42093

>  <SCORE.INTRA.norm>
-0.129045

>  <SCORE.RESTR>
0

>  <SCORE.RESTR.CAVITY>
0

>  <SCORE.RESTR.norm>
0

>  <SCORE.SYSTEM>
0

>  <SCORE.SYSTEM.CONST>
0

>  <SCORE.SYSTEM.DIHEDRAL>
0

>  <SCORE.SYSTEM.SOLV>
0

>  <SCORE.SYSTEM.norm>
0

>  <SCORE.heavy>
27

>  <SCORE.norm>
-0.92523

>  <RMSD>
7.212

$$$$
lig.pdb
 OpenBabel11021811523D
libRbt.so/2013.1/901 2013/11/27
 27 30  0  0  0  0  0  0  0  0999 V2000
   26.7606   36.5199   23.5819 N   0  0  0  0  0  0  0  0  0  0  0  0
   27.5566   36.8718   22.6027 C   0  0  0  0  0  0  0  0  0  0  0  0
   28.0616   38.1184   22.4236 N   0  0  0  0  0  0  0  0  0  0  0  0
   27.7695   39.0815   23.3477 C   0  0  0  0  0  0  0  0  0  0  0  0
   26.9698   38.7958   24.4169 C   0  0  0  0  0  0  0  0  0  0  0  0
   26.4199   37.4674   24.5464 C   0  0  0  0  0  0  0  0  0  0  0  0
   25.6463   37.1478   25.4575 O   0  0  0  0  0  0  0  0  0  0  0  0
   27.8749   35.9405   21.4123 C   0  0  2  0  0  0  0  0  0  0  0  0
   27.4612   36.8049   20.2102 C   0  0  0  0  0  0  0  0  0  0  0  0
   27.4444   36.0324   18.9668 N   0  0  0  0  0  0  0  0  0  0  0  0
   26.4402   34.9623   19.0793 C   0  0  0  0  0  0  0  0  0  0  0  0
   26.8090   33.9913   20.1835 C   0  0  0  0  0  0  0  0  0  0  0  0
   26.9562   34.7113   21.5167 C   0  0  0  0  0  0  0  0  0  0  0  0
   28.4135   40.3536   23.0490 C   0  0  0  0  0  0  0  0  0  0  0  0
   29.4917   40.5277   21.7140 S   0  0  0  0  0  0  0  0  0  0  0  0
   29.7797   42.1389   22.0769 C   0  0  0  0  0  0  0  0  0  0  0  0
   29.0607   42.5513   23.1285 C   0  0  0  0  0  0  0  0  0  0  0  0
   28.2742   41.5356   23.7063 C   0  0  0  0  0  0  0  0  0  0  0  0
   27.1611   36.8801   17.7953 C   0  0  0  0  0  0  0  0  0  0  0  0
   27.3571   36.2222   16.4477 C   0  0  0  0  0  0  0  0  0  0  0  0
   28.6267   36.0288   15.9228 C   0  0  0  0  0  0  0  0  0  0  0  0
   28.8823   35.7918   14.6235 N   0  0  0  0  0  0  0  0  0  0  0  0
   27.8076   35.7938   13.8492 C   0  0  0  0  0  0  0  0  0  0  0  0
   26.5467   36.0017   14.1931 N   0  0  0  0  0  0  0  0  0  0  0  0
   26.3553   36.2383   15.4993 C   0  0  0  0  0  0  0  0  0  0  0  0
   28.0669   35.5665   12.5564 O   0  0  0  0  0  0  0  0  0  0  0  0
   28.6142   34.2900   12.2064 C   0  0  0  0  0  0  0  0  0  0  0  0
  1  2  2  0  0  0  0
  1  6  1  0  0  0  0
  2  3  1  0  0  0  0
  3  4  2  0  0  0  0
  4 14  1  0  0  0  0
  5  4  1  0  0  0  0
  6  5  1  0  0  0  0
  7  6  2  0  0  0  0
  8  9  1  0  0  0  0
  8  2  1  1  0  0  0
 10 19  1  0  0  0  0
 10  9  1  0  0  0  0
 11 10  1  0  0  0  0
 12 11  1  0  0  0  0
 12 13  1  0  0  0  0
 13  8  1  0  0  0  0
 14 15  1  0  0  0  0
 14 18  2  0  0  0  0
 15 16  1  0  0  0  0
 16 17  2  0  0  0  0
 18 17  1  0  0  0  0
 19 20  1  0  0  0  0
 20 25  2  0  0  0  0
 20 21  1  0  0  0  0
 21 22  2  0  0  0  0
 22 23  1  0  0  0  0
 23 26  1  0  0  0  0
 24 23  2  0  0  0  0
 25 24  1  0  0  0  0
 26 27  1  0  0  0  0
M  END
>  <CHROM.1>
-3.49777337,123.92841808,169.87826857,-76.58706952,63.89347322,27.72544706
37.36909828,19.82475443,1.54611275,1.10431300,1.18598037

>  <Name>
lig.pdb

>  <RI>
0

>  <Rbt.Current_Directory>
/home/itssahil/PROJECTS/Mol_Feturizer/New_Systems/rnas/5kx9

>  <Rbt.Executable>
rbdock ($Id: //depot/dev/client3/rdock/2013.1/src/exe/rbdock.cxx#4 $)

>  <Rbt.Library>
libRbt.so (2013.1, Build901 2013/11/27)

>  <Rbt.Parameter_File>
/export/apps/rDock/src/rDock_2013.1_src/data/scripts/dock_solv.prm

>  <Rbt.Receptor>
prm/blind_docking_60.prm

>  <SCORE>
-34.3585

>  <SCORE.INTER>
-31.0667

>  <SCORE.INTER.CONST>
1

>  <SCORE.INTER.POLAR>
0

>  <SCORE.INTER.ROT>
5

>  <SCORE.INTER.SOLV>
15.2004

>  <SCORE.INTER.VDW>
-32.7113

>  <SCORE.INTER.norm>
-1.15062

>  <SCORE.INTRA>
-3.29181

>  <SCORE.INTRA.DIHEDRAL>
3.11394

>  <SCORE.INTRA.DIHEDRAL.0>
2.68224

>  <SCORE.INTRA.POLAR>
0

>  <SCORE.INTRA.POLAR.0>
0

>  <SCORE.INTRA.REPUL>
0

>  <SCORE.INTRA.REPUL.0>
0

>  <SCORE.INTRA.SOLV>
-0.567823

>  <SCORE.INTRA.SOLV.lig_0>
-19.4148

>  <SCORE.INTRA.VDW>
-4.56487

>  <SCORE.INTRA.VDW.0>
5.42093

>  <SCORE.INTRA.norm>
-0.121919

>  <SCORE.RESTR>
0

>  <SCORE.RESTR.CAVITY>
0

>  <SCORE.RESTR.norm>
0

>  <SCORE.SYSTEM>
0

>  <SCORE.SYSTEM.CONST>
0

>  <SCORE.SYSTEM.DIHEDRAL>
0

>  <SCORE.SYSTEM.SOLV>
0

>  <SCORE.SYSTEM.norm>
0

>  <SCORE.heavy>
27

>  <SCORE.norm>
-1.27254

>  <RMSD>
7.219

$$$$
lig.pdb
 OpenBabel11021811523D
libRbt.so/2013.1/901 2013/11/27
 27 30  0  0  0  0  0  0  0  0999 V2000
   28.9476   40.2561   20.4362 N   0  0  0  0  0  0  0  0  0  0  0  0
   28.2505   39.1481   20.3836 C   0  0  0  0  0  0  0  0  0  0  0  0
   27.7210   38.5132   21.4596 N   0  0  0  0  0  0  0  0  0  0  0  0
   27.8735   39.0795   22.6937 C   0  0  0  0  0  0  0  0  0  0  0  0
   28.5618   40.2497   22.8387 C   0  0  0  0  0  0  0  0  0  0  0  0
   29.1444   40.8698   21.6725 C   0  0  0  0  0  0  0  0  0  0  0  0
   29.8254   41.9011   21.7311 O   0  0  0  0  0  0  0  0  0  0  0  0
   28.0998   38.3193   19.0890 C   0  0  2  0  0  0  0  0  0  0  0  0
   27.9703   36.8891   19.6379 C   0  0  0  0  0  0  0  0  0  0  0  0
   28.0613   35.8890   18.5727 N   0  0  0  0  0  0  0  0  0  0  0  0
   29.3882   35.9777   17.9421 C   0  0  0  0  0  0  0  0  0  0  0  0
   29.5814   37.3282   17.2811 C   0  0  0  0  0  0  0  0  0  0  0  0
   29.4044   38.4580   18.2861 C   0  0  0  0  0  0  0  0  0  0  0  0
   27.2179   38.3114   23.7438 C   0  0  0  0  0  0  0  0  0  0  0  0
   26.9221   38.9852   25.3038 S   0  0  0  0  0  0  0  0  0  0  0  0
   26.2302   37.5613   25.8558 C   0  0  0  0  0  0  0  0  0  0  0  0
   26.1751   36.6275   24.8977 C   0  0  0  0  0  0  0  0  0  0  0  0
   26.7459   37.0381   23.6772 C   0  0  0  0  0  0  0  0  0  0  0  0
   27.8231   34.5248   19.0761 C   0  0  0  0  0  0  0  0  0  0  0  0
   26.8408   33.6948   18.2801 C   0  0  0  0  0  0  0  0  0  0  0  0
   26.8996   33.6486   16.8948 C   0  0  0  0  0  0  0  0  0  0  0  0
   25.8874   33.2453   16.1057 N   0  0  0  0  0  0  0  0  0  0  0  0
   24.7830   32.9215   16.7615 C   0  0  0  0  0  0  0  0  0  0  0  0
   24.5622   32.9528   18.0660 N   0  0  0  0  0  0  0  0  0  0  0  0
   25.6051   33.3684   18.7997 C   0  0  0  0  0  0  0  0  0  0  0  0
   23.7759   32.5295   15.9728 O   0  0  0  0  0  0  0  0  0  0  0  0
   23.4827   33.3353   14.8254 C   0  0  0  0  0  0  0  0  0  0  0  0
  1  2  2  0  0  0  0
  1  6  1  0  0  0  0
  2  3  1  0  0  0  0
  3  4  2  0  0  0  0
  4 14  1  0  0  0  0
  5  4  1  0  0  0  0
  6  5  1  0  0  0  0
  7  6  2  0  0  0  0
  8  9  1  0  0  0  0
  8  2  1  1  0  0  0
 10 19  1  0  0  0  0
 10  9  1  0  0  0  0
 11 10  1  0  0  0  0
 12 11  1  0  0  0  0
 12 13  1  0  0  0  0
 13  8  1  0  0  0  0
 14 15  1  0  0  0  0
 14 18  2  0  0  0  0
 15 16  1  0  0  0  0
 16 17  2  0  0  0  0
 18 17  1  0  0  0  0
 19 20  1  0  0  0  0
 20 25  2  0  0  0  0
 20 21  1  0  0  0  0
 21 22  2  0  0  0  0
 22 23  1  0  0  0  0
 23 26  1  0  0  0  0
 24 23  2  0  0  0  0
 25 24  1  0  0  0  0
 26 27  1  0  0  0  0
M  END
>  <CHROM.1>
-164.71043619,148.86860044,131.65060450,45.51726547,-47.10916240,27.22786139
36.81996128,20.19188033,-1.15992662,-0.85012977,-1.98127969

>  <Name>
lig.pdb

>  <RI>
0

>  <Rbt.Current_Directory>
/home/itssahil/PROJECTS/Mol_Feturizer/New_Systems/rnas/5kx9

>  <Rbt.Executable>
rbdock ($Id: //depot/dev/client3/rdock/2013.1/src/exe/rbdock.cxx#4 $)

>  <Rbt.Library>
libRbt.so (2013.1, Build901 2013/11/27)

>  <Rbt.Parameter_File>
/export/apps/rDock/src/rDock_2013.1_src/data/scripts/dock_solv.prm

>  <Rbt.Receptor>
prm/pocket_docking_7.prm

>  <SCORE>
-26.3549

>  <SCORE.INTER>
-27.0166

>  <SCORE.INTER.CONST>
1

>  <SCORE.INTER.POLAR>
0

>  <SCORE.INTER.ROT>
5

>  <SCORE.INTER.SOLV>
13.7291

>  <SCORE.INTER.VDW>
-29.5207

>  <SCORE.INTER.norm>
-1.00061

>  <SCORE.INTRA>
0.661731

>  <SCORE.INTRA.DIHEDRAL>
4.68531

>  <SCORE.INTRA.DIHEDRAL.0>
2.68224

>  <SCORE.INTRA.POLAR>
0

>  <SCORE.INTRA.POLAR.0>
0

>  <SCORE.INTRA.REPUL>
0

>  <SCORE.INTRA.REPUL.0>
0

>  <SCORE.INTRA.SOLV>
-0.504668

>  <SCORE.INTRA.SOLV.lig_0>
-19.4148

>  <SCORE.INTRA.VDW>
-1.42859

>  <SCORE.INTRA.VDW.0>
5.42093

>  <SCORE.INTRA.norm>
0.0245086

>  <SCORE.RESTR>
0

>  <SCORE.RESTR.CAVITY>
0

>  <SCORE.RESTR.norm>
0

>  <SCORE.SYSTEM>
0

>  <SCORE.SYSTEM.CONST>
0

>  <SCORE.SYSTEM.DIHEDRAL>
0

>  <SCORE.SYSTEM.SOLV>
0

>  <SCORE.SYSTEM.norm>
0

>  <SCORE.heavy>
27

>  <SCORE.norm>
-0.976106

>  <RMSD>
7.249

$$$$
lig.pdb
 OpenBabel11021811523D
libRbt.so/2013.1/901 2013/11/27
 27 30  0  0  0  0  0  0  0  0999 V2000
   27.2841   39.7272   21.4264 N   0  0  0  0  0  0  0  0  0  0  0  0
   27.8071   39.2880   22.5443 C   0  0  0  0  0  0  0  0  0  0  0  0
   28.3524   40.0738   23.5067 N   0  0  0  0  0  0  0  0  0  0  0  0
   28.3214   41.4296   23.3395 C   0  0  0  0  0  0  0  0  0  0  0  0
   27.7696   41.9767   22.2168 C   0  0  0  0  0  0  0  0  0  0  0  0
   27.2381   41.1020   21.1988 C   0  0  0  0  0  0  0  0  0  0  0  0
   26.7706   41.5205   20.1325 O   0  0  0  0  0  0  0  0  0  0  0  0
   28.0344   37.7861   22.8241 C   0  0  2  0  0  0  0  0  0  0  0  0
   27.3678   37.1289   21.6046 C   0  0  0  0  0  0  0  0  0  0  0  0
   27.2421   35.6798   21.7704 N   0  0  0  0  0  0  0  0  0  0  0  0
   26.3722   35.4017   22.9246 C   0  0  0  0  0  0  0  0  0  0  0  0
   26.9903   35.9286   24.2045 C   0  0  0  0  0  0  0  0  0  0  0  0
   27.2626   37.4231   24.1041 C   0  0  0  0  0  0  0  0  0  0  0  0
   28.9023   42.1434   24.4687 C   0  0  0  0  0  0  0  0  0  0  0  0
   29.2248   41.3523   25.9672 S   0  0  0  0  0  0  0  0  0  0  0  0
   29.8003   42.7660   26.6608 C   0  0  0  0  0  0  0  0  0  0  0  0
   29.7995   43.7856   25.7928 C   0  0  0  0  0  0  0  0  0  0  0  0
   29.2789   43.4485   24.5282 C   0  0  0  0  0  0  0  0  0  0  0  0
   26.7100   35.0309   20.5592 C   0  0  0  0  0  0  0  0  0  0  0  0
   27.6419   35.0014   19.3684 C   0  0  0  0  0  0  0  0  0  0  0  0
   27.7720   36.1014   18.5332 C   0  0  0  0  0  0  0  0  0  0  0  0
   28.2800   36.0529   17.2884 N   0  0  0  0  0  0  0  0  0  0  0  0
   28.6229   34.8376   16.8886 C   0  0  0  0  0  0  0  0  0  0  0  0
   28.5219   33.6954   17.5494 N   0  0  0  0  0  0  0  0  0  0  0  0
   28.0033   33.8063   18.7813 C   0  0  0  0  0  0  0  0  0  0  0  0
   29.1194   34.7921   15.6470 O   0  0  0  0  0  0  0  0  0  0  0  0
   28.2488   35.1665   14.5729 C   0  0  0  0  0  0  0  0  0  0  0  0
  1  2  2  0  0  0  0
  1  6  1  0  0  0  0
  2  3  1  0  0  0  0
  3  4  2  0  0  0  0
  4 14  1  0  0  0  0
  5  4  1  0  0  0  0
  6  5  1  0  0  0  0
  7  6  2  0  0  0  0
  8  9  1  0  0  0  0
  8  2  1  6  0  0  0
 10 19  1  0  0  0  0
 10  9  1  0  0  0  0
 11 10  1  0  0  0  0
 12 11  1  0  0  0  0
 12 13  1  0  0  0  0
 13  8  1  0  0  0  0
 14 15  1  0  0  0  0
 14 18  2  0  0  0  0
 15 16  1  0  0  0  0
 16 17  2  0  0  0  0
 18 17  1  0  0  0  0
 19 20  1  0  0  0  0
 20 25  2  0  0  0  0
 20 21  1  0  0  0  0
 21 22  2  0  0  0  0
 22 23  1  0  0  0  0
 23 26  1  0  0  0  0
 24 23  2  0  0  0  0
 25 24  1  0  0  0  0
 26 27  1  0  0  0  0
M  END
>  <CHROM.1>
-13.51752027,-6.09134777,70.08752270,-81.66554194,-63.71666459,28.06958603
38.33186431,21.56326067,-1.18411873,-1.36914491,-1.96091894

>  <Name>
lig.pdb

>  <RI>
0

>  <Rbt.Current_Directory>
/home/itssahil/PROJECTS/Mol_Feturizer/New_Systems/rnas/5kx9

>  <Rbt.Executable>
rbdock ($Id: //depot/dev/client3/rdock/2013.1/src/exe/rbdock.cxx#4 $)

>  <Rbt.Library>
libRbt.so (2013.1, Build901 2013/11/27)

>  <Rbt.Parameter_File>
/export/apps/rDock/src/rDock_2013.1_src/data/scripts/dock_solv.prm

>  <Rbt.Receptor>
prm/pocket_docking_6.prm

>  <SCORE>
-32.8544

>  <SCORE.INTER>
-29.6902

>  <SCORE.INTER.CONST>
1

>  <SCORE.INTER.POLAR>
0

>  <SCORE.INTER.ROT>
5

>  <SCORE.INTER.SOLV>
12.3101

>  <SCORE.INTER.VDW>
-30.8302

>  <SCORE.INTER.norm>
-1.09964

>  <SCORE.INTRA>
-3.16421

>  <SCORE.INTRA.DIHEDRAL>
3.63502

>  <SCORE.INTRA.DIHEDRAL.0>
2.68224

>  <SCORE.INTRA.POLAR>
0

>  <SCORE.INTRA.POLAR.0>
0

>  <SCORE.INTRA.REPUL>
0

>  <SCORE.INTRA.REPUL.0>
0

>  <SCORE.INTRA.SOLV>
-0.591241

>  <SCORE.INTRA.SOLV.lig_0>
-19.4148

>  <SCORE.INTRA.VDW>
-4.6861

>  <SCORE.INTRA.VDW.0>
5.42093

>  <SCORE.INTRA.norm>
-0.117193

>  <SCORE.RESTR>
0

>  <SCORE.RESTR.CAVITY>
0

>  <SCORE.RESTR.norm>
0

>  <SCORE.SYSTEM>
0

>  <SCORE.SYSTEM.CONST>
0

>  <SCORE.SYSTEM.DIHEDRAL>
0

>  <SCORE.SYSTEM.SOLV>
0

>  <SCORE.SYSTEM.norm>
0

>  <SCORE.heavy>
27

>  <SCORE.norm>
-1.21683

>  <RMSD>
7.258

$$$$
lig.pdb
 OpenBabel11021811523D
libRbt.so/2013.1/901 2013/11/27
 27 30  0  0  0  0  0  0  0  0999 V2000
   26.7828   36.3145   23.4326 N   0  0  0  0  0  0  0  0  0  0  0  0
   27.5671   36.6891   22.4524 C   0  0  0  0  0  0  0  0  0  0  0  0
   28.0531   37.9448   22.2848 N   0  0  0  0  0  0  0  0  0  0  0  0
   27.7535   38.8928   23.2221 C   0  0  0  0  0  0  0  0  0  0  0  0
   26.9651   38.5832   24.2930 C   0  0  0  0  0  0  0  0  0  0  0  0
   26.4351   37.2456   24.4104 C   0  0  0  0  0  0  0  0  0  0  0  0
   25.6722   36.9043   25.3227 O   0  0  0  0  0  0  0  0  0  0  0  0
   27.8908   35.7765   21.2492 C   0  0  2  0  0  0  0  0  0  0  0  0
   27.3057   36.5767   20.0741 C   0  0  0  0  0  0  0  0  0  0  0  0
   27.2769   35.7875   18.8414 N   0  0  0  0  0  0  0  0  0  0  0  0
   26.3968   34.6239   19.0360 C   0  0  0  0  0  0  0  0  0  0  0  0
   26.9410   33.7117   20.1175 C   0  0  0  0  0  0  0  0  0  0  0  0
   27.1110   34.4631   21.4306 C   0  0  0  0  0  0  0  0  0  0  0  0
   28.3773   40.1774   22.9342 C   0  0  0  0  0  0  0  0  0  0  0  0
   29.4530   40.3796   21.6011 S   0  0  0  0  0  0  0  0  0  0  0  0
   29.7152   41.9922   21.9775 C   0  0  0  0  0  0  0  0  0  0  0  0
   28.9894   42.3843   23.0321 C   0  0  0  0  0  0  0  0  0  0  0  0
   28.2190   41.3516   23.6011 C   0  0  0  0  0  0  0  0  0  0  0  0
   26.8250   36.5847   17.6874 C   0  0  0  0  0  0  0  0  0  0  0  0
   27.1536   36.0122   16.3266 C   0  0  0  0  0  0  0  0  0  0  0  0
   28.4664   35.7694   15.9496 C   0  0  0  0  0  0  0  0  0  0  0  0
   28.8728   35.6082   14.6773 N   0  0  0  0  0  0  0  0  0  0  0  0
   27.9089   35.7392   13.7784 C   0  0  0  0  0  0  0  0  0  0  0  0
   26.6288   36.0087   13.9786 N   0  0  0  0  0  0  0  0  0  0  0  0
   26.2850   36.1646   15.2656 C   0  0  0  0  0  0  0  0  0  0  0  0
   28.3186   35.5870   12.5138 O   0  0  0  0  0  0  0  0  0  0  0  0
   28.7488   34.2816   12.1110 C   0  0  0  0  0  0  0  0  0  0  0  0
  1  2  2  0  0  0  0
  1  6  1  0  0  0  0
  2  3  1  0  0  0  0
  3  4  2  0  0  0  0
  4 14  1  0  0  0  0
  5  4  1  0  0  0  0
  6  5  1  0  0  0  0
  7  6  2  0  0  0  0
  8  9  1  0  0  0  0
  8  2  1  1  0  0  0
 10 19  1  0  0  0  0
 10  9  1  0  0  0  0
 11 10  1  0  0  0  0
 12 11  1  0  0  0  0
 12 13  1  0  0  0  0
 13  8  1  0  0  0  0
 14 15  1  0  0  0  0
 14 18  2  0  0  0  0
 15 16  1  0  0  0  0
 16 17  2  0  0  0  0
 18 17  1  0  0  0  0
 19 20  1  0  0  0  0
 20 25  2  0  0  0  0
 20 21  1  0  0  0  0
 21 22  2  0  0  0  0
 22 23  1  0  0  0  0
 23 26  1  0  0  0  0
 24 23  2  0  0  0  0
 25 24  1  0  0  0  0
 26 27  1  0  0  0  0
M  END
>  <CHROM.1>
-3.95268752,117.52052205,162.09123606,-59.16033630,67.81798949,27.70905690
37.19307730,19.71730762,1.55585119,1.12482209,1.18439805

>  <Name>
lig.pdb

>  <RI>
0

>  <Rbt.Current_Directory>
/home/itssahil/PROJECTS/Mol_Feturizer/New_Systems/rnas/5kx9

>  <Rbt.Executable>
rbdock ($Id: //depot/dev/client3/rdock/2013.1/src/exe/rbdock.cxx#4 $)

>  <Rbt.Library>
libRbt.so (2013.1, Build901 2013/11/27)

>  <Rbt.Parameter_File>
/export/apps/rDock/src/rDock_2013.1_src/data/scripts/dock_solv.prm

>  <Rbt.Receptor>
prm/blind_docking_60.prm

>  <SCORE>
-34.496

>  <SCORE.INTER>
-30.9954

>  <SCORE.INTER.CONST>
1

>  <SCORE.INTER.POLAR>
0

>  <SCORE.INTER.ROT>
5

>  <SCORE.INTER.SOLV>
15.5516

>  <SCORE.INTER.VDW>
-32.7808

>  <SCORE.INTER.norm>
-1.14798

>  <SCORE.INTRA>
-3.50065

>  <SCORE.INTRA.DIHEDRAL>
3.98519

>  <SCORE.INTRA.DIHEDRAL.0>
2.68224

>  <SCORE.INTRA.POLAR>
0

>  <SCORE.INTRA.POLAR.0>
0

>  <SCORE.INTRA.REPUL>
0

>  <SCORE.INTRA.REPUL.0>
0

>  <SCORE.INTRA.SOLV>
-0.577256

>  <SCORE.INTRA.SOLV.lig_0>
-19.4148

>  <SCORE.INTRA.VDW>
-5.20461

>  <SCORE.INTRA.VDW.0>
5.42093

>  <SCORE.INTRA.norm>
-0.129654

>  <SCORE.RESTR>
0

>  <SCORE.RESTR.CAVITY>
0

>  <SCORE.RESTR.norm>
0

>  <SCORE.SYSTEM>
0

>  <SCORE.SYSTEM.CONST>
0

>  <SCORE.SYSTEM.DIHEDRAL>
0

>  <SCORE.SYSTEM.SOLV>
0

>  <SCORE.SYSTEM.norm>
0

>  <SCORE.heavy>
27

>  <SCORE.norm>
-1.27763

>  <RMSD>
7.263

$$$$
lig.pdb
 OpenBabel11021811523D
libRbt.so/2013.1/901 2013/11/27
 27 30  0  0  0  0  0  0  0  0999 V2000
   27.1944   39.6056   21.5110 N   0  0  0  0  0  0  0  0  0  0  0  0
   27.7737   39.2429   22.6286 C   0  0  0  0  0  0  0  0  0  0  0  0
   28.4368   40.0801   23.4656 N   0  0  0  0  0  0  0  0  0  0  0  0
   28.4748   41.4122   23.1637 C   0  0  0  0  0  0  0  0  0  0  0  0
   27.8730   41.8834   22.0322 C   0  0  0  0  0  0  0  0  0  0  0  0
   27.2140   40.9517   21.1483 C   0  0  0  0  0  0  0  0  0  0  0  0
   26.6927   41.2951   20.0800 O   0  0  0  0  0  0  0  0  0  0  0  0
   27.9309   37.7635   23.0436 C   0  0  2  0  0  0  0  0  0  0  0  0
   27.3845   37.0256   21.8105 C   0  0  0  0  0  0  0  0  0  0  0  0
   27.2048   35.5959   22.0694 N   0  0  0  0  0  0  0  0  0  0  0  0
   26.2076   35.4226   23.1380 C   0  0  0  0  0  0  0  0  0  0  0  0
   26.6959   36.0362   24.4353 C   0  0  0  0  0  0  0  0  0  0  0  0
   27.0153   37.5136   24.2540 C   0  0  0  0  0  0  0  0  0  0  0  0
   29.1817   42.1917   24.1711 C   0  0  0  0  0  0  0  0  0  0  0  0
   29.8075   43.7608   23.8227 S   0  0  0  0  0  0  0  0  0  0  0  0
   30.4368   43.9208   25.3684 C   0  0  0  0  0  0  0  0  0  0  0  0
   30.1503   42.8627   26.1374 C   0  0  0  0  0  0  0  0  0  0  0  0
   29.4352   41.8536   25.4633 C   0  0  0  0  0  0  0  0  0  0  0  0
   26.7914   34.8645   20.8589 C   0  0  0  0  0  0  0  0  0  0  0  0
   27.8388   34.7479   19.7741 C   0  0  0  0  0  0  0  0  0  0  0  0
   28.3454   35.8750   19.1434 C   0  0  0  0  0  0  0  0  0  0  0  0
   28.9883   35.8585   17.9618 N   0  0  0  0  0  0  0  0  0  0  0  0
   29.0733   34.6590   17.4063 C   0  0  0  0  0  0  0  0  0  0  0  0
   28.6077   33.5069   17.8617 N   0  0  0  0  0  0  0  0  0  0  0  0
   27.9717   33.5876   19.0397 C   0  0  0  0  0  0  0  0  0  0  0  0
   29.7055   34.6480   16.2271 O   0  0  0  0  0  0  0  0  0  0  0  0
   30.9307   33.9111   16.1408 C   0  0  0  0  0  0  0  0  0  0  0  0
  1  2  2  0  0  0  0
  1  6  1  0  0  0  0
  2  3  1  0  0  0  0
  3  4  2  0  0  0  0
  4 14  1  0  0  0  0
  5  4  1  0  0  0  0
  6  5  1  0  0  0  0
  7  6  2  0  0  0  0
  8  9  1  0  0  0  0
  8  2  1  6  0  0  0
 10 19  1  0  0  0  0
 10  9  1  0  0  0  0
 11 10  1  0  0  0  0
 12 11  1  0  0  0  0
 12 13  1  0  0  0  0
 13  8  1  0  0  0  0
 14 15  1  0  0  0  0
 14 18  2  0  0  0  0
 15 16  1  0  0  0  0
 16 17  2  0  0  0  0
 18 17  1  0  0  0  0
 19 20  1  0  0  0  0
 20 25  2  0  0  0  0
 20 21  1  0  0  0  0
 21 22  2  0  0  0  0
 22 23  1  0  0  0  0
 23 26  1  0  0  0  0
 24 23  2  0  0  0  0
 25 24  1  0  0  0  0
 26 27  1  0  0  0  0
M  END
>  <CHROM.1>
160.33459864,4.76300393,69.07568452,-62.54662729,116.22860254,28.33937956
38.36122125,21.60110166,-1.46691913,-1.06111683,-2.42004968

>  <Name>
lig.pdb

>  <RI>
0

>  <Rbt.Current_Directory>
/home/itssahil/PROJECTS/Mol_Feturizer/New_Systems/rnas/5kx9

>  <Rbt.Executable>
rbdock ($Id: //depot/dev/client3/rdock/2013.1/src/exe/rbdock.cxx#4 $)

>  <Rbt.Library>
libRbt.so (2013.1, Build901 2013/11/27)

>  <Rbt.Parameter_File>
/export/apps/rDock/src/rDock_2013.1_src/data/scripts/dock_solv.prm

>  <Rbt.Receptor>
prm/pocket_docking_6.prm

>  <SCORE>
-35.1522

>  <SCORE.INTER>
-32.5743

>  <SCORE.INTER.CONST>
1

>  <SCORE.INTER.POLAR>
0

>  <SCORE.INTER.ROT>
5

>  <SCORE.INTER.SOLV>
14.5195

>  <SCORE.INTER.VDW>
-33.4894

>  <SCORE.INTER.norm>
-1.20646

>  <SCORE.INTRA>
-2.57781

>  <SCORE.INTRA.DIHEDRAL>
4.82461

>  <SCORE.INTRA.DIHEDRAL.0>
2.68224

>  <SCORE.INTRA.POLAR>
0

>  <SCORE.INTRA.POLAR.0>
0

>  <SCORE.INTRA.REPUL>
0

>  <SCORE.INTRA.REPUL.0>
0

>  <SCORE.INTRA.SOLV>
-0.58757

>  <SCORE.INTRA.SOLV.lig_0>
-19.4148

>  <SCORE.INTRA.VDW>
-4.69633

>  <SCORE.INTRA.VDW.0>
5.42093

>  <SCORE.INTRA.norm>
-0.0954744

>  <SCORE.RESTR>
0

>  <SCORE.RESTR.CAVITY>
0

>  <SCORE.RESTR.norm>
0

>  <SCORE.SYSTEM>
0

>  <SCORE.SYSTEM.CONST>
0

>  <SCORE.SYSTEM.DIHEDRAL>
0

>  <SCORE.SYSTEM.SOLV>
0

>  <SCORE.SYSTEM.norm>
0

>  <SCORE.heavy>
27

>  <SCORE.norm>
-1.30193

>  <RMSD>
7.268

$$$$
lig.pdb
 OpenBabel11021811523D
libRbt.so/2013.1/901 2013/11/27
 27 30  0  0  0  0  0  0  0  0999 V2000
   27.2118   39.6630   21.5408 N   0  0  0  0  0  0  0  0  0  0  0  0
   27.8159   39.3223   22.6522 C   0  0  0  0  0  0  0  0  0  0  0  0
   28.5076   40.1732   23.4513 N   0  0  0  0  0  0  0  0  0  0  0  0
   28.5497   41.4971   23.1158 C   0  0  0  0  0  0  0  0  0  0  0  0
   27.9237   41.9463   21.9885 C   0  0  0  0  0  0  0  0  0  0  0  0
   27.2342   40.9997   21.1447 C   0  0  0  0  0  0  0  0  0  0  0  0
   26.6891   41.3219   20.0817 O   0  0  0  0  0  0  0  0  0  0  0  0
   27.9704   37.8520   23.0993 C   0  0  2  0  0  0  0  0  0  0  0  0
   27.3949   37.0891   21.8950 C   0  0  0  0  0  0  0  0  0  0  0  0
   27.2098   35.6675   22.1916 N   0  0  0  0  0  0  0  0  0  0  0  0
   26.2323   35.5274   23.2829 C   0  0  0  0  0  0  0  0  0  0  0  0
   26.7501   36.1680   24.5556 C   0  0  0  0  0  0  0  0  0  0  0  0
   27.0767   37.6381   24.3328 C   0  0  0  0  0  0  0  0  0  0  0  0
   29.2889   42.2942   24.0856 C   0  0  0  0  0  0  0  0  0  0  0  0
   29.4778   41.7789   25.7208 S   0  0  0  0  0  0  0  0  0  0  0  0
   30.3440   43.1576   26.1204 C   0  0  0  0  0  0  0  0  0  0  0  0
   30.5308   43.9556   25.0615 C   0  0  0  0  0  0  0  0  0  0  0  0
   29.9240   43.4792   23.8830 C   0  0  0  0  0  0  0  0  0  0  0  0
   26.7677   34.9107   21.0071 C   0  0  0  0  0  0  0  0  0  0  0  0
   27.7803   34.7919   19.8900 C   0  0  0  0  0  0  0  0  0  0  0  0
   28.2104   35.9104   19.1911 C   0  0  0  0  0  0  0  0  0  0  0  0
   28.8111   35.8686   17.9880 N   0  0  0  0  0  0  0  0  0  0  0  0
   28.9329   34.6499   17.4837 C   0  0  0  0  0  0  0  0  0  0  0  0
   28.5387   33.5001   18.0072 N   0  0  0  0  0  0  0  0  0  0  0  0
   27.9417   33.6061   19.2035 C   0  0  0  0  0  0  0  0  0  0  0  0
   29.5226   34.6132   16.2833 O   0  0  0  0  0  0  0  0  0  0  0  0
   28.8728   35.2984   15.2064 C   0  0  0  0  0  0  0  0  0  0  0  0
  1  2  2  0  0  0  0
  1  6  1  0  0  0  0
  2  3  1  0  0  0  0
  3  4  2  0  0  0  0
  4 14  1  0  0  0  0
  5  4  1  0  0  0  0
  6  5  1  0  0  0  0
  7  6  2  0  0  0  0
  8  9  1  0  0  0  0
  8  2  1  6  0  0  0
 10 19  1  0  0  0  0
 10  9  1  0  0  0  0
 11 10  1  0  0  0  0
 12 11  1  0  0  0  0
 12 13  1  0  0  0  0
 13  8  1  0  0  0  0
 14 15  1  0  0  0  0
 14 18  2  0  0  0  0
 15 16  1  0  0  0  0
 16 17  2  0  0  0  0
 18 17  1  0  0  0  0
 19 20  1  0  0  0  0
 20 25  2  0  0  0  0
 20 21  1  0  0  0  0
 21 22  2  0  0  0  0
 22 23  1  0  0  0  0
 23 26  1  0  0  0  0
 24 23  2  0  0  0  0
 25 24  1  0  0  0  0
 26 27  1  0  0  0  0
M  END
>  <CHROM.1>
-24.08792959,5.11993745,67.49898792,-65.03054430,-61.73928484,28.24780496
38.35950646,21.70328999,-1.30343495,-1.21879127,-2.18716882

>  <Name>
lig.pdb

>  <RI>
0

>  <Rbt.Current_Directory>
/home/itssahil/PROJECTS/Mol_Feturizer/New_Systems/rnas/5kx9

>  <Rbt.Executable>
rbdock ($Id: //depot/dev/client3/rdock/2013.1/src/exe/rbdock.cxx#4 $)

>  <Rbt.Library>
libRbt.so (2013.1, Build901 2013/11/27)

>  <Rbt.Parameter_File>
/export/apps/rDock/src/rDock_2013.1_src/data/scripts/dock_solv.prm

>  <Rbt.Receptor>
prm/blind_docking_60.prm

>  <SCORE>
-34.861

>  <SCORE.INTER>
-32.7049

>  <SCORE.INTER.CONST>
1

>  <SCORE.INTER.POLAR>
0

>  <SCORE.INTER.ROT>
5

>  <SCORE.INTER.SOLV>
13.9001

>  <SCORE.INTER.VDW>
-33.37

>  <SCORE.INTER.norm>
-1.21129

>  <SCORE.INTRA>
-2.15615

>  <SCORE.INTRA.DIHEDRAL>
5.22363

>  <SCORE.INTRA.DIHEDRAL.0>
2.68224

>  <SCORE.INTRA.POLAR>
0

>  <SCORE.INTRA.POLAR.0>
0

>  <SCORE.INTRA.REPUL>
0

>  <SCORE.INTRA.REPUL.0>
0

>  <SCORE.INTRA.SOLV>
-0.550267

>  <SCORE.INTRA.SOLV.lig_0>
-19.4148

>  <SCORE.INTRA.VDW>
-4.49283

>  <SCORE.INTRA.VDW.0>
5.42093

>  <SCORE.INTRA.norm>
-0.0798574

>  <SCORE.RESTR>
0

>  <SCORE.RESTR.CAVITY>
0

>  <SCORE.RESTR.norm>
0

>  <SCORE.SYSTEM>
0

>  <SCORE.SYSTEM.CONST>
0

>  <SCORE.SYSTEM.DIHEDRAL>
0

>  <SCORE.SYSTEM.SOLV>
0

>  <SCORE.SYSTEM.norm>
0

>  <SCORE.heavy>
27

>  <SCORE.norm>
-1.29115

>  <RMSD>
7.269

$$$$
lig.pdb
 OpenBabel11021811523D
libRbt.so/2013.1/901 2013/11/27
 27 30  0  0  0  0  0  0  0  0999 V2000
   26.8154   36.8504   23.9221 N   0  0  0  0  0  0  0  0  0  0  0  0
   27.5850   37.1948   22.9194 C   0  0  0  0  0  0  0  0  0  0  0  0
   28.0925   38.4377   22.7226 N   0  0  0  0  0  0  0  0  0  0  0  0
   27.8332   39.4050   23.6522 C   0  0  0  0  0  0  0  0  0  0  0  0
   27.0628   39.1270   24.7447 C   0  0  0  0  0  0  0  0  0  0  0  0
   26.5086   37.8024   24.8934 C   0  0  0  0  0  0  0  0  0  0  0  0
   25.7595   37.4900   25.8273 O   0  0  0  0  0  0  0  0  0  0  0  0
   27.8632   36.2585   21.7229 C   0  0  2  0  0  0  0  0  0  0  0  0
   27.2905   37.0648   20.5459 C   0  0  0  0  0  0  0  0  0  0  0  0
   27.2202   36.2634   19.3227 N   0  0  0  0  0  0  0  0  0  0  0  0
   26.3043   35.1322   19.5412 C   0  0  0  0  0  0  0  0  0  0  0  0
   26.8312   34.2143   20.6266 C   0  0  0  0  0  0  0  0  0  0  0  0
   27.0424   34.9741   21.9288 C   0  0  0  0  0  0  0  0  0  0  0  0
   28.4763   40.6722   23.3317 C   0  0  0  0  0  0  0  0  0  0  0  0
   28.2693   42.0662   24.3262 S   0  0  0  0  0  0  0  0  0  0  0  0
   29.2291   43.0029   23.3201 C   0  0  0  0  0  0  0  0  0  0  0  0
   29.7293   42.2920   22.3016 C   0  0  0  0  0  0  0  0  0  0  0  0
   29.3008   40.9503   22.2870 C   0  0  0  0  0  0  0  0  0  0  0  0
   26.7808   37.0624   18.1652 C   0  0  0  0  0  0  0  0  0  0  0  0
   27.0884   36.4723   16.8071 C   0  0  0  0  0  0  0  0  0  0  0  0
   26.3564   36.8354   15.6859 C   0  0  0  0  0  0  0  0  0  0  0  0
   26.3151   36.1250   14.5442 N   0  0  0  0  0  0  0  0  0  0  0  0
   27.0131   34.9998   14.5789 C   0  0  0  0  0  0  0  0  0  0  0  0
   27.7225   34.5026   15.5794 N   0  0  0  0  0  0  0  0  0  0  0  0
   27.7210   35.2516   16.6920 C   0  0  0  0  0  0  0  0  0  0  0  0
   26.9624   34.2917   13.4448 O   0  0  0  0  0  0  0  0  0  0  0  0
   26.5596   32.9204   13.5392 C   0  0  0  0  0  0  0  0  0  0  0  0
  1  2  2  0  0  0  0
  1  6  1  0  0  0  0
  2  3  1  0  0  0  0
  3  4  2  0  0  0  0
  4 14  1  0  0  0  0
  5  4  1  0  0  0  0
  6  5  1  0  0  0  0
  7  6  2  0  0  0  0
  8  9  1  0  0  0  0
  8  2  1  1  0  0  0
 10 19  1  0  0  0  0
 10  9  1  0  0  0  0
 11 10  1  0  0  0  0
 12 11  1  0  0  0  0
 12 13  1  0  0  0  0
 13  8  1  0  0  0  0
 14 15  1  0  0  0  0
 14 18  2  0  0  0  0
 15 16  1  0  0  0  0
 16 17  2  0  0  0  0
 18 17  1  0  0  0  0
 19 20  1  0  0  0  0
 20 25  2  0  0  0  0
 20 21  1  0  0  0  0
 21 22  2  0  0  0  0
 22 23  1  0  0  0  0
 23 26  1  0  0  0  0
 24 23  2  0  0  0  0
 25 24  1  0  0  0  0
 26 27  1  0  0  0  0
M  END
>  <CHROM.1>
178.30626931,118.47614517,161.36871105,156.98043069,-126.22975754,27.40977901
37.47599318,20.40019683,1.25912389,1.21582752,1.30725445

>  <Name>
lig.pdb

>  <RI>
0

>  <Rbt.Current_Directory>
/home/itssahil/PROJECTS/Mol_Feturizer/New_Systems/rnas/5kx9

>  <Rbt.Executable>
rbdock ($Id: //depot/dev/client3/rdock/2013.1/src/exe/rbdock.cxx#4 $)

>  <Rbt.Library>
libRbt.so (2013.1, Build901 2013/11/27)

>  <Rbt.Parameter_File>
/export/apps/rDock/src/rDock_2013.1_src/data/scripts/dock_solv.prm

>  <Rbt.Receptor>
prm/pocket_docking_8.prm

>  <SCORE>
-33.5488

>  <SCORE.INTER>
-30.0262

>  <SCORE.INTER.CONST>
1

>  <SCORE.INTER.POLAR>
0

>  <SCORE.INTER.ROT>
5

>  <SCORE.INTER.SOLV>
13.1555

>  <SCORE.INTER.VDW>
-31.336

>  <SCORE.INTER.norm>
-1.11208

>  <SCORE.INTRA>
-3.52259

>  <SCORE.INTRA.DIHEDRAL>
2.47699

>  <SCORE.INTRA.DIHEDRAL.0>
2.68224

>  <SCORE.INTRA.POLAR>
0

>  <SCORE.INTRA.POLAR.0>
0

>  <SCORE.INTRA.REPUL>
0

>  <SCORE.INTRA.REPUL.0>
0

>  <SCORE.INTRA.SOLV>
-0.456113

>  <SCORE.INTRA.SOLV.lig_0>
-19.4148

>  <SCORE.INTRA.VDW>
-4.53303

>  <SCORE.INTRA.VDW.0>
5.42093

>  <SCORE.INTRA.norm>
-0.130466

>  <SCORE.RESTR>
0

>  <SCORE.RESTR.CAVITY>
0

>  <SCORE.RESTR.norm>
0

>  <SCORE.SYSTEM>
0

>  <SCORE.SYSTEM.CONST>
0

>  <SCORE.SYSTEM.DIHEDRAL>
0

>  <SCORE.SYSTEM.SOLV>
0

>  <SCORE.SYSTEM.norm>
0

>  <SCORE.heavy>
27

>  <SCORE.norm>
-1.24255

>  <RMSD>
7.286

$$$$
lig.pdb
 OpenBabel11021811523D
libRbt.so/2013.1/901 2013/11/27
 27 30  0  0  0  0  0  0  0  0999 V2000
   26.9060   39.9830   21.9862 N   0  0  0  0  0  0  0  0  0  0  0  0
   27.6795   39.5547   22.9529 C   0  0  0  0  0  0  0  0  0  0  0  0
   28.4792   40.3439   23.7136 N   0  0  0  0  0  0  0  0  0  0  0  0
   28.4557   41.6940   23.5045 C   0  0  0  0  0  0  0  0  0  0  0  0
   27.6570   42.2312   22.5361 C   0  0  0  0  0  0  0  0  0  0  0  0
   26.8533   41.3509   21.7218 C   0  0  0  0  0  0  0  0  0  0  0  0
   26.1458   41.7576   20.7918 O   0  0  0  0  0  0  0  0  0  0  0  0
   27.9162   38.0533   23.2273 C   0  0  2  0  0  0  0  0  0  0  0  0
   27.7392   37.4406   21.8284 C   0  0  0  0  0  0  0  0  0  0  0  0
   27.6770   35.9788   21.8804 N   0  0  0  0  0  0  0  0  0  0  0  0
   26.5002   35.5755   22.6669 C   0  0  0  0  0  0  0  0  0  0  0  0
   26.6216   36.0517   24.1010 C   0  0  0  0  0  0  0  0  0  0  0  0
   26.7968   37.5627   24.1613 C   0  0  0  0  0  0  0  0  0  0  0  0
   29.3295   42.4148   24.4205 C   0  0  0  0  0  0  0  0  0  0  0  0
   29.6497   41.8293   26.0110 S   0  0  0  0  0  0  0  0  0  0  0  0
   30.6257   43.1454   26.3661 C   0  0  0  0  0  0  0  0  0  0  0  0
   30.7510   43.9720   25.3201 C   0  0  0  0  0  0  0  0  0  0  0  0
   30.0059   43.5722   24.1937 C   0  0  0  0  0  0  0  0  0  0  0  0
   27.6233   35.3815   20.5345 C   0  0  0  0  0  0  0  0  0  0  0  0
   26.2996   35.5079   19.8139 C   0  0  0  0  0  0  0  0  0  0  0  0
   25.4595   34.4144   19.6620 C   0  0  0  0  0  0  0  0  0  0  0  0
   24.4663   34.3407   18.7576 N   0  0  0  0  0  0  0  0  0  0  0  0
   24.3671   35.4024   17.9718 C   0  0  0  0  0  0  0  0  0  0  0  0
   25.1137   36.4952   17.9679 N   0  0  0  0  0  0  0  0  0  0  0  0
   26.0904   36.5081   18.8870 C   0  0  0  0  0  0  0  0  0  0  0  0
   23.3840   35.3217   17.0679 O   0  0  0  0  0  0  0  0  0  0  0  0
   22.0514   35.1279   17.5562 C   0  0  0  0  0  0  0  0  0  0  0  0
  1  2  2  0  0  0  0
  1  6  1  0  0  0  0
  2  3  1  0  0  0  0
  3  4  2  0  0  0  0
  4 14  1  0  0  0  0
  5  4  1  0  0  0  0
  6  5  1  0  0  0  0
  7  6  2  0  0  0  0
  8  9  1  0  0  0  0
  8  2  1  6  0  0  0
 10 19  1  0  0  0  0
 10  9  1  0  0  0  0
 11 10  1  0  0  0  0
 12 11  1  0  0  0  0
 12 13  1  0  0  0  0
 13  8  1  0  0  0  0
 14 15  1  0  0  0  0
 14 18  2  0  0  0  0
 15 16  1  0  0  0  0
 16 17  2  0  0  0  0
 18 17  1  0  0  0  0
 19 20  1  0  0  0  0
 20 25  2  0  0  0  0
 20 21  1  0  0  0  0
 21 22  2  0  0  0  0
 22 23  1  0  0  0  0
 23 26  1  0  0  0  0
 24 23  2  0  0  0  0
 25 24  1  0  0  0  0
 26 27  1  0  0  0  0
M  END
>  <CHROM.1>
-30.32137784,28.86235029,-74.37937874,-106.40174247,58.02585496,27.12042793
38.65499531,21.97840487,0.58723694,-0.99125557,-0.18841156

>  <Name>
lig.pdb

>  <RI>
0

>  <Rbt.Current_Directory>
/home/itssahil/PROJECTS/Mol_Feturizer/New_Systems/rnas/5kx9

>  <Rbt.Executable>
rbdock ($Id: //depot/dev/client3/rdock/2013.1/src/exe/rbdock.cxx#4 $)

>  <Rbt.Library>
libRbt.so (2013.1, Build901 2013/11/27)

>  <Rbt.Parameter_File>
/export/apps/rDock/src/rDock_2013.1_src/data/scripts/dock_solv.prm

>  <Rbt.Receptor>
prm/pocket_docking_6.prm

>  <SCORE>
-36.7435

>  <SCORE.INTER>
-34.3348

>  <SCORE.INTER.CONST>
1

>  <SCORE.INTER.POLAR>
0

>  <SCORE.INTER.ROT>
5

>  <SCORE.INTER.SOLV>
14.8482

>  <SCORE.INTER.VDW>
-34.7726

>  <SCORE.INTER.norm>
-1.27166

>  <SCORE.INTRA>
-2.41046

>  <SCORE.INTRA.DIHEDRAL>
5.6679

>  <SCORE.INTRA.DIHEDRAL.0>
2.68224

>  <SCORE.INTRA.POLAR>
0

>  <SCORE.INTRA.POLAR.0>
0

>  <SCORE.INTRA.REPUL>
0

>  <SCORE.INTRA.REPUL.0>
0

>  <SCORE.INTRA.SOLV>
-0.595911

>  <SCORE.INTRA.SOLV.lig_0>
-19.4148

>  <SCORE.INTRA.VDW>
-4.94645

>  <SCORE.INTRA.VDW.0>
5.42093

>  <SCORE.INTRA.norm>
-0.0892761

>  <SCORE.RESTR>
0.00180934

>  <SCORE.RESTR.CAVITY>
0.00180934

>  <SCORE.RESTR.norm>
6.70126e-05

>  <SCORE.SYSTEM>
0

>  <SCORE.SYSTEM.CONST>
0

>  <SCORE.SYSTEM.DIHEDRAL>
0

>  <SCORE.SYSTEM.SOLV>
0

>  <SCORE.SYSTEM.norm>
0

>  <SCORE.heavy>
27

>  <SCORE.norm>
-1.36087

>  <RMSD>
7.296

$$$$
lig.pdb
 OpenBabel11021811523D
libRbt.so/2013.1/901 2013/11/27
 27 30  0  0  0  0  0  0  0  0999 V2000
   26.7879   36.2658   23.3231 N   0  0  0  0  0  0  0  0  0  0  0  0
   27.5754   36.6290   22.3411 C   0  0  0  0  0  0  0  0  0  0  0  0
   28.0824   37.8765   22.1745 N   0  0  0  0  0  0  0  0  0  0  0  0
   27.8023   38.8275   23.1148 C   0  0  0  0  0  0  0  0  0  0  0  0
   27.0122   38.5291   24.1878 C   0  0  0  0  0  0  0  0  0  0  0  0
   26.4596   37.2007   24.3040 C   0  0  0  0  0  0  0  0  0  0  0  0
   25.6939   36.8706   25.2181 O   0  0  0  0  0  0  0  0  0  0  0  0
   27.8793   35.7135   21.1349 C   0  0  2  0  0  0  0  0  0  0  0  0
   27.3665   36.5567   19.9561 C   0  0  0  0  0  0  0  0  0  0  0  0
   27.3258   35.7837   18.7135 N   0  0  0  0  0  0  0  0  0  0  0  0
   26.3806   34.6669   18.8728 C   0  0  0  0  0  0  0  0  0  0  0  0
   26.8489   33.7151   19.9558 C   0  0  0  0  0  0  0  0  0  0  0  0
   27.0265   34.4419   21.2816 C   0  0  0  0  0  0  0  0  0  0  0  0
   28.4473   40.1017   22.8277 C   0  0  0  0  0  0  0  0  0  0  0  0
   28.1911   41.4873   23.8225 S   0  0  0  0  0  0  0  0  0  0  0  0
   29.1815   42.4381   22.8603 C   0  0  0  0  0  0  0  0  0  0  0  0
   29.7261   41.7380   21.8572 C   0  0  0  0  0  0  0  0  0  0  0  0
   29.3092   40.3932   21.8174 C   0  0  0  0  0  0  0  0  0  0  0  0
   26.9454   36.6165   17.5589 C   0  0  0  0  0  0  0  0  0  0  0  0
   27.2511   36.0299   16.1988 C   0  0  0  0  0  0  0  0  0  0  0  0
   28.5580   35.7919   15.7986 C   0  0  0  0  0  0  0  0  0  0  0  0
   28.9402   35.6181   14.5205 N   0  0  0  0  0  0  0  0  0  0  0  0
   27.9577   35.7314   13.6394 C   0  0  0  0  0  0  0  0  0  0  0  0
   26.6798   35.9941   13.8619 N   0  0  0  0  0  0  0  0  0  0  0  0
   26.3606   36.1632   15.1535 C   0  0  0  0  0  0  0  0  0  0  0  0
   28.3433   35.5668   12.3689 O   0  0  0  0  0  0  0  0  0  0  0  0
   28.6535   34.2360   11.9394 C   0  0  0  0  0  0  0  0  0  0  0  0
  1  2  2  0  0  0  0
  1  6  1  0  0  0  0
  2  3  1  0  0  0  0
  3  4  2  0  0  0  0
  4 14  1  0  0  0  0
  5  4  1  0  0  0  0
  6  5  1  0  0  0  0
  7  6  2  0  0  0  0
  8  9  1  0  0  0  0
  8  2  1  1  0  0  0
 10 19  1  0  0  0  0
 10  9  1  0  0  0  0
 11 10  1  0  0  0  0
 12 11  1  0  0  0  0
 12 13  1  0  0  0  0
 13  8  1  0  0  0  0
 14 15  1  0  0  0  0
 14 18  2  0  0  0  0
 15 16  1  0  0  0  0
 16 17  2  0  0  0  0
 18 17  1  0  0  0  0
 19 20  1  0  0  0  0
 20 25  2  0  0  0  0
 20 21  1  0  0  0  0
 21 22  2  0  0  0  0
 22 23  1  0  0  0  0
 23 26  1  0  0  0  0
 24 23  2  0  0  0  0
 25 24  1  0  0  0  0
 26 27  1  0  0  0  0
M  END
>  <CHROM.1>
177.02417007,120.17685694,163.26419243,-64.04761333,73.60943807,27.66893722
37.22827698,19.72783903,1.56842676,1.15972735,1.15639633

>  <Name>
lig.pdb

>  <RI>
0

>  <Rbt.Current_Directory>
/home/itssahil/PROJECTS/Mol_Feturizer/New_Systems/rnas/5kx9

>  <Rbt.Executable>
rbdock ($Id: //depot/dev/client3/rdock/2013.1/src/exe/rbdock.cxx#4 $)

>  <Rbt.Library>
libRbt.so (2013.1, Build901 2013/11/27)

>  <Rbt.Parameter_File>
/export/apps/rDock/src/rDock_2013.1_src/data/scripts/dock_solv.prm

>  <Rbt.Receptor>
prm/pocket_docking_8.prm

>  <SCORE>
-33.8872

>  <SCORE.INTER>
-30.5594

>  <SCORE.INTER.CONST>
1

>  <SCORE.INTER.POLAR>
0

>  <SCORE.INTER.ROT>
5

>  <SCORE.INTER.SOLV>
15.1606

>  <SCORE.INTER.VDW>
-32.3598

>  <SCORE.INTER.norm>
-1.13183

>  <SCORE.INTRA>
-3.32776

>  <SCORE.INTRA.DIHEDRAL>
4.14044

>  <SCORE.INTRA.DIHEDRAL.0>
2.68224

>  <SCORE.INTRA.POLAR>
0

>  <SCORE.INTRA.POLAR.0>
0

>  <SCORE.INTRA.REPUL>
0

>  <SCORE.INTRA.REPUL.0>
0

>  <SCORE.INTRA.SOLV>
-0.630777

>  <SCORE.INTRA.SOLV.lig_0>
-19.4148

>  <SCORE.INTRA.VDW>
-5.08259

>  <SCORE.INTRA.VDW.0>
5.42093

>  <SCORE.INTRA.norm>
-0.12325

>  <SCORE.RESTR>
0

>  <SCORE.RESTR.CAVITY>
0

>  <SCORE.RESTR.norm>
0

>  <SCORE.SYSTEM>
0

>  <SCORE.SYSTEM.CONST>
0

>  <SCORE.SYSTEM.DIHEDRAL>
0

>  <SCORE.SYSTEM.SOLV>
0

>  <SCORE.SYSTEM.norm>
0

>  <SCORE.heavy>
27

>  <SCORE.norm>
-1.25508

>  <RMSD>
7.296

$$$$
lig.pdb
 OpenBabel11021811523D
libRbt.so/2013.1/901 2013/11/27
 27 30  0  0  0  0  0  0  0  0999 V2000
   27.0713   39.8362   21.8552 N   0  0  0  0  0  0  0  0  0  0  0  0
   27.7496   39.4967   22.9233 C   0  0  0  0  0  0  0  0  0  0  0  0
   28.4971   40.3478   23.6703 N   0  0  0  0  0  0  0  0  0  0  0  0
   28.5199   41.6706   23.3285 C   0  0  0  0  0  0  0  0  0  0  0  0
   27.8190   42.1185   22.2457 C   0  0  0  0  0  0  0  0  0  0  0  0
   27.0703   41.1715   21.4543 C   0  0  0  0  0  0  0  0  0  0  0  0
   26.4542   41.4923   20.4304 O   0  0  0  0  0  0  0  0  0  0  0  0
   27.9302   38.0273   23.3634 C   0  0  2  0  0  0  0  0  0  0  0  0
   27.3070   37.2615   22.1850 C   0  0  0  0  0  0  0  0  0  0  0  0
   27.1416   35.8390   22.4892 N   0  0  0  0  0  0  0  0  0  0  0  0
   26.2127   35.6945   23.6216 C   0  0  0  0  0  0  0  0  0  0  0  0
   26.7818   36.3377   24.8708 C   0  0  0  0  0  0  0  0  0  0  0  0
   27.0915   37.8093   24.6342 C   0  0  0  0  0  0  0  0  0  0  0  0
   29.3265   42.4682   24.2426 C   0  0  0  0  0  0  0  0  0  0  0  0
   29.6361   41.9512   25.8588 S   0  0  0  0  0  0  0  0  0  0  0  0
   30.5261   43.3314   26.1957 C   0  0  0  0  0  0  0  0  0  0  0  0
   30.6328   44.1313   25.1272 C   0  0  0  0  0  0  0  0  0  0  0  0
   29.9422   43.6550   23.9957 C   0  0  0  0  0  0  0  0  0  0  0  0
   26.6525   35.0799   21.3248 C   0  0  0  0  0  0  0  0  0  0  0  0
   27.6430   34.9015   20.1959 C   0  0  0  0  0  0  0  0  0  0  0  0
   28.1507   35.9947   19.5091 C   0  0  0  0  0  0  0  0  0  0  0  0
   28.7356   35.9258   18.2995 N   0  0  0  0  0  0  0  0  0  0  0  0
   28.7596   34.7092   17.7762 C   0  0  0  0  0  0  0  0  0  0  0  0
   28.2836   33.5848   18.2868 N   0  0  0  0  0  0  0  0  0  0  0  0
   27.7073   33.7176   19.4906 C   0  0  0  0  0  0  0  0  0  0  0  0
   29.3340   34.6461   16.5695 O   0  0  0  0  0  0  0  0  0  0  0  0
   28.6511   35.2751   15.4787 C   0  0  0  0  0  0  0  0  0  0  0  0
  1  2  2  0  0  0  0
  1  6  1  0  0  0  0
  2  3  1  0  0  0  0
  3  4  2  0  0  0  0
  4 14  1  0  0  0  0
  5  4  1  0  0  0  0
  6  5  1  0  0  0  0
  7  6  2  0  0  0  0
  8  9  1  0  0  0  0
  8  2  1  6  0  0  0
 10 19  1  0  0  0  0
 10  9  1  0  0  0  0
 11 10  1  0  0  0  0
 12 11  1  0  0  0  0
 12 13  1  0  0  0  0
 13  8  1  0  0  0  0
 14 15  1  0  0  0  0
 14 18  2  0  0  0  0
 15 16  1  0  0  0  0
 16 17  2  0  0  0  0
 18 17  1  0  0  0  0
 19 20  1  0  0  0  0
 20 25  2  0  0  0  0
 20 21  1  0  0  0  0
 21 22  2  0  0  0  0
 22 23  1  0  0  0  0
 23 26  1  0  0  0  0
 24 23  2  0  0  0  0
 25 24  1  0  0  0  0
 26 27  1  0  0  0  0
M  END
>  <CHROM.1>
-23.61154112,6.67553053,70.68996519,-62.20639303,-68.33373405,28.18651844
38.50047067,21.95715469,-1.23390395,-1.22039403,-2.14049304

>  <Name>
lig.pdb

>  <RI>
0

>  <Rbt.Current_Directory>
/home/itssahil/PROJECTS/Mol_Feturizer/New_Systems/rnas/5kx9

>  <Rbt.Executable>
rbdock ($Id: //depot/dev/client3/rdock/2013.1/src/exe/rbdock.cxx#4 $)

>  <Rbt.Library>
libRbt.so (2013.1, Build901 2013/11/27)

>  <Rbt.Parameter_File>
/export/apps/rDock/src/rDock_2013.1_src/data/scripts/dock_solv.prm

>  <Rbt.Receptor>
prm/pocket_docking_4.prm

>  <SCORE>
-34.4479

>  <SCORE.INTER>
-32.2125

>  <SCORE.INTER.CONST>
1

>  <SCORE.INTER.POLAR>
0

>  <SCORE.INTER.ROT>
5

>  <SCORE.INTER.SOLV>
14.435

>  <SCORE.INTER.VDW>
-33.22

>  <SCORE.INTER.norm>
-1.19305

>  <SCORE.INTRA>
-2.23583

>  <SCORE.INTRA.DIHEDRAL>
5.73981

>  <SCORE.INTRA.DIHEDRAL.0>
2.68224

>  <SCORE.INTRA.POLAR>
0

>  <SCORE.INTRA.POLAR.0>
0

>  <SCORE.INTRA.REPUL>
0

>  <SCORE.INTRA.REPUL.0>
0

>  <SCORE.INTRA.SOLV>
-0.554638

>  <SCORE.INTRA.SOLV.lig_0>
-19.4148

>  <SCORE.INTRA.VDW>
-4.82842

>  <SCORE.INTRA.VDW.0>
5.42093

>  <SCORE.INTRA.norm>
-0.0828085

>  <SCORE.RESTR>
0.000408924

>  <SCORE.RESTR.CAVITY>
0.000408924

>  <SCORE.RESTR.norm>
1.51453e-05

>  <SCORE.SYSTEM>
0

>  <SCORE.SYSTEM.CONST>
0

>  <SCORE.SYSTEM.DIHEDRAL>
0

>  <SCORE.SYSTEM.SOLV>
0

>  <SCORE.SYSTEM.norm>
0

>  <SCORE.heavy>
27

>  <SCORE.norm>
-1.27585

>  <RMSD>
7.302

$$$$
lig.pdb
 OpenBabel11021811523D
libRbt.so/2013.1/901 2013/11/27
 27 30  0  0  0  0  0  0  0  0999 V2000
   27.1515   39.6982   21.5829 N   0  0  0  0  0  0  0  0  0  0  0  0
   27.7848   39.3742   22.6830 C   0  0  0  0  0  0  0  0  0  0  0  0
   28.4964   40.2371   23.4511 N   0  0  0  0  0  0  0  0  0  0  0  0
   28.5287   41.5559   23.0952 C   0  0  0  0  0  0  0  0  0  0  0  0
   27.8729   41.9882   21.9782 C   0  0  0  0  0  0  0  0  0  0  0  0
   27.1624   41.0289   21.1667 C   0  0  0  0  0  0  0  0  0  0  0  0
   26.5893   41.3352   20.1138 O   0  0  0  0  0  0  0  0  0  0  0  0
   27.9522   37.9107   23.1475 C   0  0  2  0  0  0  0  0  0  0  0  0
   27.3435   37.1300   21.9712 C   0  0  0  0  0  0  0  0  0  0  0  0
   27.1673   35.7130   22.2940 N   0  0  0  0  0  0  0  0  0  0  0  0
   26.2206   35.5892   23.4142 C   0  0  0  0  0  0  0  0  0  0  0  0
   26.7736   36.2487   24.6622 C   0  0  0  0  0  0  0  0  0  0  0  0
   27.0933   37.7153   24.4085 C   0  0  0  0  0  0  0  0  0  0  0  0
   29.2924   42.3675   24.0334 C   0  0  0  0  0  0  0  0  0  0  0  0
   29.5275   41.8746   25.6695 S   0  0  0  0  0  0  0  0  0  0  0  0
   30.4010   43.2604   26.0265 C   0  0  0  0  0  0  0  0  0  0  0  0
   30.5565   44.0445   24.9523 C   0  0  0  0  0  0  0  0  0  0  0  0
   29.9187   43.5510   23.7975 C   0  0  0  0  0  0  0  0  0  0  0  0
   26.6925   34.9387   21.1337 C   0  0  0  0  0  0  0  0  0  0  0  0
   27.6684   34.8148   19.9850 C   0  0  0  0  0  0  0  0  0  0  0  0
   28.0136   35.9169   19.2163 C   0  0  0  0  0  0  0  0  0  0  0  0
   28.5712   35.8448   17.9942 N   0  0  0  0  0  0  0  0  0  0  0  0
   28.7381   34.6099   17.5452 C   0  0  0  0  0  0  0  0  0  0  0  0
   28.4239   33.4696   18.1388 N   0  0  0  0  0  0  0  0  0  0  0  0
   27.8664   33.6055   19.3510 C   0  0  0  0  0  0  0  0  0  0  0  0
   29.2846   34.5424   16.3258 O   0  0  0  0  0  0  0  0  0  0  0  0
   28.5464   35.1114   15.2382 C   0  0  0  0  0  0  0  0  0  0  0  0
  1  2  2  0  0  0  0
  1  6  1  0  0  0  0
  2  3  1  0  0  0  0
  3  4  2  0  0  0  0
  4 14  1  0  0  0  0
  5  4  1  0  0  0  0
  6  5  1  0  0  0  0
  7  6  2  0  0  0  0
  8  9  1  0  0  0  0
  8  2  1  6  0  0  0
 10 19  1  0  0  0  0
 10  9  1  0  0  0  0
 11 10  1  0  0  0  0
 12 11  1  0  0  0  0
 12 13  1  0  0  0  0
 13  8  1  0  0  0  0
 14 15  1  0  0  0  0
 14 18  2  0  0  0  0
 15 16  1  0  0  0  0
 16 17  2  0  0  0  0
 18 17  1  0  0  0  0
 19 20  1  0  0  0  0
 20 25  2  0  0  0  0
 20 21  1  0  0  0  0
 21 22  2  0  0  0  0
 22 23  1  0  0  0  0
 23 26  1  0  0  0  0
 24 23  2  0  0  0  0
 25 24  1  0  0  0  0
 26 27  1  0  0  0  0
M  END
>  <CHROM.1>
-23.94616436,5.01673155,66.90982526,-68.32663712,-63.15588944,28.18187687
38.39045493,21.73416803,-1.22390135,-1.24225472,-2.12563526

>  <Name>
lig.pdb

>  <RI>
0

>  <Rbt.Current_Directory>
/home/itssahil/PROJECTS/Mol_Feturizer/New_Systems/rnas/5kx9

>  <Rbt.Executable>
rbdock ($Id: //depot/dev/client3/rdock/2013.1/src/exe/rbdock.cxx#4 $)

>  <Rbt.Library>
libRbt.so (2013.1, Build901 2013/11/27)

>  <Rbt.Parameter_File>
/export/apps/rDock/src/rDock_2013.1_src/data/scripts/dock_solv.prm

>  <Rbt.Receptor>
prm/pocket_docking_5.prm

>  <SCORE>
-34.8461

>  <SCORE.INTER>
-32.5996

>  <SCORE.INTER.CONST>
1

>  <SCORE.INTER.POLAR>
0

>  <SCORE.INTER.ROT>
5

>  <SCORE.INTER.SOLV>
13.7375

>  <SCORE.INTER.VDW>
-33.2456

>  <SCORE.INTER.norm>
-1.20739

>  <SCORE.INTRA>
-2.24652

>  <SCORE.INTRA.DIHEDRAL>
5.21225

>  <SCORE.INTRA.DIHEDRAL.0>
2.68224

>  <SCORE.INTRA.POLAR>
0

>  <SCORE.INTRA.POLAR.0>
0

>  <SCORE.INTRA.REPUL>
0

>  <SCORE.INTRA.REPUL.0>
0

>  <SCORE.INTRA.SOLV>
-0.557458

>  <SCORE.INTRA.SOLV.lig_0>
-19.4148

>  <SCORE.INTRA.VDW>
-4.57391

>  <SCORE.INTRA.VDW.0>
5.42093

>  <SCORE.INTRA.norm>
-0.0832043

>  <SCORE.RESTR>
0

>  <SCORE.RESTR.CAVITY>
0

>  <SCORE.RESTR.norm>
0

>  <SCORE.SYSTEM>
0

>  <SCORE.SYSTEM.CONST>
0

>  <SCORE.SYSTEM.DIHEDRAL>
0

>  <SCORE.SYSTEM.SOLV>
0

>  <SCORE.SYSTEM.norm>
0

>  <SCORE.heavy>
27

>  <SCORE.norm>
-1.2906

>  <RMSD>
7.304

$$$$
lig.pdb
 OpenBabel11021811523D
libRbt.so/2013.1/901 2013/11/27
 27 30  0  0  0  0  0  0  0  0999 V2000
   26.8414   36.3224   23.3018 N   0  0  0  0  0  0  0  0  0  0  0  0
   27.6047   36.7034   22.3076 C   0  0  0  0  0  0  0  0  0  0  0  0
   28.1094   37.9533   22.1522 N   0  0  0  0  0  0  0  0  0  0  0  0
   27.8543   38.8865   23.1172 C   0  0  0  0  0  0  0  0  0  0  0  0
   27.0907   38.5686   24.2036 C   0  0  0  0  0  0  0  0  0  0  0  0
   26.5391   37.2387   24.3083 C   0  0  0  0  0  0  0  0  0  0  0  0
   25.7960   36.8921   25.2348 O   0  0  0  0  0  0  0  0  0  0  0  0
   27.8770   35.8108   21.0769 C   0  0  2  0  0  0  0  0  0  0  0  0
   27.1689   36.5878   19.9551 C   0  0  0  0  0  0  0  0  0  0  0  0
   27.0822   35.8026   18.7226 N   0  0  0  0  0  0  0  0  0  0  0  0
   26.2728   34.5995   18.9749 C   0  0  0  0  0  0  0  0  0  0  0  0
   26.9382   33.7091   20.0058 C   0  0  0  0  0  0  0  0  0  0  0  0
   27.1732   34.4627   21.3075 C   0  0  0  0  0  0  0  0  0  0  0  0
   28.4939   40.1653   22.8383 C   0  0  0  0  0  0  0  0  0  0  0  0
   28.2901   41.5229   23.8825 S   0  0  0  0  0  0  0  0  0  0  0  0
   29.2432   42.4961   22.9051 C   0  0  0  0  0  0  0  0  0  0  0  0
   29.7390   41.8225   21.8595 C   0  0  0  0  0  0  0  0  0  0  0  0
   29.3124   40.4814   21.7998 C   0  0  0  0  0  0  0  0  0  0  0  0
   26.5086   36.5826   17.6118 C   0  0  0  0  0  0  0  0  0  0  0  0
   27.0702   36.2803   16.2404 C   0  0  0  0  0  0  0  0  0  0  0  0
   26.2899   36.4149   15.1012 C   0  0  0  0  0  0  0  0  0  0  0  0
   26.5737   35.8456   13.9158 N   0  0  0  0  0  0  0  0  0  0  0  0
   27.6636   35.0929   13.9216 C   0  0  0  0  0  0  0  0  0  0  0  0
   28.4809   34.8370   14.9306 N   0  0  0  0  0  0  0  0  0  0  0  0
   28.1433   35.4269   16.0868 C   0  0  0  0  0  0  0  0  0  0  0  0
   27.9376   34.5213   12.7434 O   0  0  0  0  0  0  0  0  0  0  0  0
   29.0708   35.0126   12.0180 C   0  0  0  0  0  0  0  0  0  0  0  0
  1  2  2  0  0  0  0
  1  6  1  0  0  0  0
  2  3  1  0  0  0  0
  3  4  2  0  0  0  0
  4 14  1  0  0  0  0
  5  4  1  0  0  0  0
  6  5  1  0  0  0  0
  7  6  2  0  0  0  0
  8  9  1  0  0  0  0
  8  2  1  1  0  0  0
 10 19  1  0  0  0  0
 10  9  1  0  0  0  0
 11 10  1  0  0  0  0
 12 11  1  0  0  0  0
 12 13  1  0  0  0  0
 13  8  1  0  0  0  0
 14 15  1  0  0  0  0
 14 18  2  0  0  0  0
 15 16  1  0  0  0  0
 16 17  2  0  0  0  0
 18 17  1  0  0  0  0
 19 20  1  0  0  0  0
 20 25  2  0  0  0  0
 20 21  1  0  0  0  0
 21 22  2  0  0  0  0
 22 23  1  0  0  0  0
 23 26  1  0  0  0  0
 24 23  2  0  0  0  0
 25 24  1  0  0  0  0
 26 27  1  0  0  0  0
M  END
>  <CHROM.1>
178.26605117,112.87208020,145.22966579,149.58039965,109.15438305,27.61635897
37.19248904,19.79361240,1.49661510,1.16467168,1.18229347

>  <Name>
lig.pdb

>  <RI>
0

>  <Rbt.Current_Directory>
/home/itssahil/PROJECTS/Mol_Feturizer/New_Systems/rnas/5kx9

>  <Rbt.Executable>
rbdock ($Id: //depot/dev/client3/rdock/2013.1/src/exe/rbdock.cxx#4 $)

>  <Rbt.Library>
libRbt.so (2013.1, Build901 2013/11/27)

>  <Rbt.Parameter_File>
/export/apps/rDock/src/rDock_2013.1_src/data/scripts/dock_solv.prm

>  <Rbt.Receptor>
prm/blind_docking_60.prm

>  <SCORE>
-34.3412

>  <SCORE.INTER>
-30.7285

>  <SCORE.INTER.CONST>
1

>  <SCORE.INTER.POLAR>
0

>  <SCORE.INTER.ROT>
5

>  <SCORE.INTER.SOLV>
14.27

>  <SCORE.INTER.VDW>
-32.1756

>  <SCORE.INTER.norm>
-1.13809

>  <SCORE.INTRA>
-3.6127

>  <SCORE.INTRA.DIHEDRAL>
4.46623

>  <SCORE.INTRA.DIHEDRAL.0>
2.68224

>  <SCORE.INTRA.POLAR>
0

>  <SCORE.INTRA.POLAR.0>
0

>  <SCORE.INTRA.REPUL>
0

>  <SCORE.INTRA.REPUL.0>
0

>  <SCORE.INTRA.SOLV>
-0.534469

>  <SCORE.INTRA.SOLV.lig_0>
-19.4148

>  <SCORE.INTRA.VDW>
-5.57858

>  <SCORE.INTRA.VDW.0>
5.42093

>  <SCORE.INTRA.norm>
-0.133804

>  <SCORE.RESTR>
0

>  <SCORE.RESTR.CAVITY>
0

>  <SCORE.RESTR.norm>
0

>  <SCORE.SYSTEM>
0

>  <SCORE.SYSTEM.CONST>
0

>  <SCORE.SYSTEM.DIHEDRAL>
0

>  <SCORE.SYSTEM.SOLV>
0

>  <SCORE.SYSTEM.norm>
0

>  <SCORE.heavy>
27

>  <SCORE.norm>
-1.27189

>  <RMSD>
7.306

$$$$
lig.pdb
 OpenBabel11021811523D
libRbt.so/2013.1/901 2013/11/27
 27 30  0  0  0  0  0  0  0  0999 V2000
   27.8505   40.1255   21.4692 N   0  0  0  0  0  0  0  0  0  0  0  0
   27.4269   39.6684   22.6215 C   0  0  0  0  0  0  0  0  0  0  0  0
   26.6706   40.3695   23.5033 N   0  0  0  0  0  0  0  0  0  0  0  0
   26.2699   41.6309   23.1634 C   0  0  0  0  0  0  0  0  0  0  0  0
   26.6416   42.1773   21.9685 C   0  0  0  0  0  0  0  0  0  0  0  0
   27.4814   41.4119   21.0782 C   0  0  0  0  0  0  0  0  0  0  0  0
   27.9018   41.8586   20.0037 O   0  0  0  0  0  0  0  0  0  0  0  0
   27.8974   38.3184   23.2060 C   0  0  2  0  0  0  0  0  0  0  0  0
   27.2398   37.3094   22.2504 C   0  0  0  0  0  0  0  0  0  0  0  0
   27.3454   35.9384   22.7528 N   0  0  0  0  0  0  0  0  0  0  0  0
   26.6228   35.8378   24.0310 C   0  0  0  0  0  0  0  0  0  0  0  0
   27.2569   36.7298   25.0800 C   0  0  0  0  0  0  0  0  0  0  0  0
   27.2943   38.1786   24.6141 C   0  0  0  0  0  0  0  0  0  0  0  0
   25.4310   42.2430   24.1849 C   0  0  0  0  0  0  0  0  0  0  0  0
   25.6839   41.9363   25.8633 S   0  0  0  0  0  0  0  0  0  0  0  0
   24.3913   42.9107   26.2997 C   0  0  0  0  0  0  0  0  0  0  0  0
   23.8173   43.4866   25.2358 C   0  0  0  0  0  0  0  0  0  0  0  0
   24.3970   43.1082   24.0091 C   0  0  0  0  0  0  0  0  0  0  0  0
   26.8198   34.9563   21.7882 C   0  0  0  0  0  0  0  0  0  0  0  0
   27.6694   34.7266   20.5582 C   0  0  0  0  0  0  0  0  0  0  0  0
   28.0405   35.7813   19.7368 C   0  0  0  0  0  0  0  0  0  0  0  0
   28.4732   35.6409   18.4708 N   0  0  0  0  0  0  0  0  0  0  0  0
   28.4846   34.3897   18.0361 C   0  0  0  0  0  0  0  0  0  0  0  0
   28.1245   33.2917   18.6813 N   0  0  0  0  0  0  0  0  0  0  0  0
   27.6967   33.4956   19.9360 C   0  0  0  0  0  0  0  0  0  0  0  0
   28.9070   34.2550   16.7738 O   0  0  0  0  0  0  0  0  0  0  0  0
   29.8068   33.1775   16.4893 C   0  0  0  0  0  0  0  0  0  0  0  0
  1  2  2  0  0  0  0
  1  6  1  0  0  0  0
  2  3  1  0  0  0  0
  3  4  2  0  0  0  0
  4 14  1  0  0  0  0
  5  4  1  0  0  0  0
  6  5  1  0  0  0  0
  7  6  2  0  0  0  0
  8  9  1  0  0  0  0
  8  2  1  6  0  0  0
 10 19  1  0  0  0  0
 10  9  1  0  0  0  0
 11 10  1  0  0  0  0
 12 11  1  0  0  0  0
 12 13  1  0  0  0  0
 13  8  1  0  0  0  0
 14 15  1  0  0  0  0
 14 18  2  0  0  0  0
 15 16  1  0  0  0  0
 16 17  2  0  0  0  0
 18 17  1  0  0  0  0
 19 20  1  0  0  0  0
 20 25  2  0  0  0  0
 20 21  1  0  0  0  0
 21 22  2  0  0  0  0
 22 23  1  0  0  0  0
 23 26  1  0  0  0  0
 24 23  2  0  0  0  0
 25 24  1  0  0  0  0
 26 27  1  0  0  0  0
M  END
>  <CHROM.1>
34.46596288,-69.26340564,72.00133230,-55.40865007,137.06537951,27.06753927
38.37179618,22.04553117,-2.62909666,-1.23884996,2.75155362

>  <Name>
lig.pdb

>  <RI>
0

>  <Rbt.Current_Directory>
/home/itssahil/PROJECTS/Mol_Feturizer/New_Systems/rnas/5kx9

>  <Rbt.Executable>
rbdock ($Id: //depot/dev/client3/rdock/2013.1/src/exe/rbdock.cxx#4 $)

>  <Rbt.Library>
libRbt.so (2013.1, Build901 2013/11/27)

>  <Rbt.Parameter_File>
/export/apps/rDock/src/rDock_2013.1_src/data/scripts/dock_solv.prm

>  <Rbt.Receptor>
prm/blind_docking_80.prm

>  <SCORE>
-32.7805

>  <SCORE.INTER>
-31.8603

>  <SCORE.INTER.CONST>
1

>  <SCORE.INTER.POLAR>
0

>  <SCORE.INTER.ROT>
5

>  <SCORE.INTER.SOLV>
16.5398

>  <SCORE.INTER.VDW>
-33.6868

>  <SCORE.INTER.norm>
-1.18001

>  <SCORE.INTRA>
-0.920208

>  <SCORE.INTRA.DIHEDRAL>
5.46831

>  <SCORE.INTRA.DIHEDRAL.0>
2.68224

>  <SCORE.INTRA.POLAR>
0

>  <SCORE.INTRA.POLAR.0>
0

>  <SCORE.INTRA.REPUL>
0

>  <SCORE.INTRA.REPUL.0>
0

>  <SCORE.INTRA.SOLV>
-0.571562

>  <SCORE.INTRA.SOLV.lig_0>
-19.4148

>  <SCORE.INTRA.VDW>
-3.36858

>  <SCORE.INTRA.VDW.0>
5.42093

>  <SCORE.INTRA.norm>
-0.0340818

>  <SCORE.RESTR>
0

>  <SCORE.RESTR.CAVITY>
0

>  <SCORE.RESTR.norm>
0

>  <SCORE.SYSTEM>
0

>  <SCORE.SYSTEM.CONST>
0

>  <SCORE.SYSTEM.DIHEDRAL>
0

>  <SCORE.SYSTEM.SOLV>
0

>  <SCORE.SYSTEM.norm>
0

>  <SCORE.heavy>
27

>  <SCORE.norm>
-1.21409

>  <RMSD>
7.314

$$$$
lig.pdb
 OpenBabel11021811523D
libRbt.so/2013.1/901 2013/11/27
 27 30  0  0  0  0  0  0  0  0999 V2000
   27.2136   39.3308   20.9292 N   0  0  0  0  0  0  0  0  0  0  0  0
   27.7948   39.0854   22.0774 C   0  0  0  0  0  0  0  0  0  0  0  0
   28.4030   40.0174   22.8536 N   0  0  0  0  0  0  0  0  0  0  0  0
   28.3777   41.3226   22.4498 C   0  0  0  0  0  0  0  0  0  0  0  0
   27.7687   41.6739   21.2793 C   0  0  0  0  0  0  0  0  0  0  0  0
   27.1701   40.6443   20.4636 C   0  0  0  0  0  0  0  0  0  0  0  0
   26.6470   40.8773   19.3668 O   0  0  0  0  0  0  0  0  0  0  0  0
   28.0209   37.6523   22.6071 C   0  0  2  0  0  0  0  0  0  0  0  0
   27.3712   36.7980   21.5064 C   0  0  0  0  0  0  0  0  0  0  0  0
   27.2457   35.3965   21.9106 N   0  0  0  0  0  0  0  0  0  0  0  0
   26.3614   35.3119   23.0840 C   0  0  0  0  0  0  0  0  0  0  0  0
   26.9622   36.0477   24.2655 C   0  0  0  0  0  0  0  0  0  0  0  0
   27.2332   37.5054   23.9201 C   0  0  0  0  0  0  0  0  0  0  0  0
   29.0302   42.2125   23.4008 C   0  0  0  0  0  0  0  0  0  0  0  0
   29.2310   41.7731   25.0566 S   0  0  0  0  0  0  0  0  0  0  0  0
   29.9723   43.2327   25.4184 C   0  0  0  0  0  0  0  0  0  0  0  0
   30.1116   44.0055   24.3338 C   0  0  0  0  0  0  0  0  0  0  0  0
   29.5683   43.4386   23.1645 C   0  0  0  0  0  0  0  0  0  0  0  0
   26.7303   34.5523   20.8184 C   0  0  0  0  0  0  0  0  0  0  0  0
   27.4219   34.7140   19.4831 C   0  0  0  0  0  0  0  0  0  0  0  0
   27.0195   35.6885   18.5814 C   0  0  0  0  0  0  0  0  0  0  0  0
   27.3197   35.6789   17.2700 N   0  0  0  0  0  0  0  0  0  0  0  0
   28.0157   34.6217   16.8797 C   0  0  0  0  0  0  0  0  0  0  0  0
   28.4342   33.5984   17.6071 N   0  0  0  0  0  0  0  0  0  0  0  0
   28.0998   33.6609   18.9044 C   0  0  0  0  0  0  0  0  0  0  0  0
   28.3047   34.6114   15.5734 O   0  0  0  0  0  0  0  0  0  0  0  0
   27.2117   34.7175   14.6538 C   0  0  0  0  0  0  0  0  0  0  0  0
  1  2  2  0  0  0  0
  1  6  1  0  0  0  0
  2  3  1  0  0  0  0
  3  4  2  0  0  0  0
  4 14  1  0  0  0  0
  5  4  1  0  0  0  0
  6  5  1  0  0  0  0
  7  6  2  0  0  0  0
  8  9  1  0  0  0  0
  8  2  1  6  0  0  0
 10 19  1  0  0  0  0
 10  9  1  0  0  0  0
 11 10  1  0  0  0  0
 12 11  1  0  0  0  0
 12 13  1  0  0  0  0
 13  8  1  0  0  0  0
 14 15  1  0  0  0  0
 14 18  2  0  0  0  0
 15 16  1  0  0  0  0
 16 17  2  0  0  0  0
 18 17  1  0  0  0  0
 19 20  1  0  0  0  0
 20 25  2  0  0  0  0
 20 21  1  0  0  0  0
 21 22  2  0  0  0  0
 22 23  1  0  0  0  0
 23 26  1  0  0  0  0
 24 23  2  0  0  0  0
 25 24  1  0  0  0  0
 26 27  1  0  0  0  0
M  END
>  <CHROM.1>
-22.17991008,-1.96110734,49.11104200,-86.81511296,-55.49652463,27.93063873
38.19621758,21.15752034,-0.76735411,-1.36562579,-1.65296751

>  <Name>
lig.pdb

>  <RI>
0

>  <Rbt.Current_Directory>
/home/itssahil/PROJECTS/Mol_Feturizer/New_Systems/rnas/5kx9

>  <Rbt.Executable>
rbdock ($Id: //depot/dev/client3/rdock/2013.1/src/exe/rbdock.cxx#4 $)

>  <Rbt.Library>
libRbt.so (2013.1, Build901 2013/11/27)

>  <Rbt.Parameter_File>
/export/apps/rDock/src/rDock_2013.1_src/data/scripts/dock_solv.prm

>  <Rbt.Receptor>
prm/blind_docking_60.prm

>  <SCORE>
-32.8349

>  <SCORE.INTER>
-30.6244

>  <SCORE.INTER.CONST>
1

>  <SCORE.INTER.POLAR>
0

>  <SCORE.INTER.ROT>
5

>  <SCORE.INTER.SOLV>
11.37

>  <SCORE.INTER.VDW>
-31.1396

>  <SCORE.INTER.norm>
-1.13424

>  <SCORE.INTRA>
-2.2105

>  <SCORE.INTRA.DIHEDRAL>
4.00992

>  <SCORE.INTRA.DIHEDRAL.0>
2.68224

>  <SCORE.INTRA.POLAR>
0

>  <SCORE.INTRA.POLAR.0>
0

>  <SCORE.INTRA.REPUL>
0

>  <SCORE.INTRA.REPUL.0>
0

>  <SCORE.INTRA.SOLV>
-0.557535

>  <SCORE.INTRA.SOLV.lig_0>
-19.4148

>  <SCORE.INTRA.VDW>
-3.93669

>  <SCORE.INTRA.VDW.0>
5.42093

>  <SCORE.INTRA.norm>
-0.0818703

>  <SCORE.RESTR>
0

>  <SCORE.RESTR.CAVITY>
0

>  <SCORE.RESTR.norm>
0

>  <SCORE.SYSTEM>
0

>  <SCORE.SYSTEM.CONST>
0

>  <SCORE.SYSTEM.DIHEDRAL>
0

>  <SCORE.SYSTEM.SOLV>
0

>  <SCORE.SYSTEM.norm>
0

>  <SCORE.heavy>
27

>  <SCORE.norm>
-1.21611

>  <RMSD>
7.321

$$$$
lig.pdb
 OpenBabel11021811523D
libRbt.so/2013.1/901 2013/11/27
 27 30  0  0  0  0  0  0  0  0999 V2000
   26.3692   40.7116   23.4059 N   0  0  0  0  0  0  0  0  0  0  0  0
   27.3314   39.9749   22.9082 C   0  0  0  0  0  0  0  0  0  0  0  0
   27.8738   40.1371   21.6751 N   0  0  0  0  0  0  0  0  0  0  0  0
   27.4312   41.1691   20.8964 C   0  0  0  0  0  0  0  0  0  0  0  0
   26.4499   42.0051   21.3465 C   0  0  0  0  0  0  0  0  0  0  0  0
   25.8716   41.7709   22.6482 C   0  0  0  0  0  0  0  0  0  0  0  0
   24.9439   42.4523   23.1021 O   0  0  0  0  0  0  0  0  0  0  0  0
   27.8478   38.6971   23.6054 C   0  0  2  0  0  0  0  0  0  0  0  0
   27.1031   37.5915   22.8395 C   0  0  0  0  0  0  0  0  0  0  0  0
   27.2486   36.2883   23.4904 N   0  0  0  0  0  0  0  0  0  0  0  0
   26.6438   36.3503   24.8308 C   0  0  0  0  0  0  0  0  0  0  0  0
   27.3732   37.3511   25.7052 C   0  0  0  0  0  0  0  0  0  0  0  0
   27.3737   38.7339   25.0682 C   0  0  0  0  0  0  0  0  0  0  0  0
   28.1320   41.2451   19.6215 C   0  0  0  0  0  0  0  0  0  0  0  0
   29.0862   39.9327   19.0367 S   0  0  0  0  0  0  0  0  0  0  0  0
   29.5212   40.7821   17.6582 C   0  0  0  0  0  0  0  0  0  0  0  0
   28.9378   41.9863   17.6075 C   0  0  0  0  0  0  0  0  0  0  0  0
   28.1406   42.2738   18.7326 C   0  0  0  0  0  0  0  0  0  0  0  0
   26.6346   35.2065   22.7006 C   0  0  0  0  0  0  0  0  0  0  0  0
   26.9862   35.1884   21.2297 C   0  0  0  0  0  0  0  0  0  0  0  0
   28.0168   35.9711   20.7299 C   0  0  0  0  0  0  0  0  0  0  0  0
   28.1669   36.2889   19.4313 N   0  0  0  0  0  0  0  0  0  0  0  0
   27.2112   35.8196   18.6432 C   0  0  0  0  0  0  0  0  0  0  0  0
   26.1515   35.0995   18.9749 N   0  0  0  0  0  0  0  0  0  0  0  0
   26.0529   34.8197   20.2829 C   0  0  0  0  0  0  0  0  0  0  0  0
   27.3590   36.1451   17.3539 O   0  0  0  0  0  0  0  0  0  0  0  0
   28.6767   36.0628   16.7983 C   0  0  0  0  0  0  0  0  0  0  0  0
  1  2  2  0  0  0  0
  1  6  1  0  0  0  0
  2  3  1  0  0  0  0
  3  4  2  0  0  0  0
  4 14  1  0  0  0  0
  5  4  1  0  0  0  0
  6  5  1  0  0  0  0
  7  6  2  0  0  0  0
  8  9  1  0  0  0  0
  8  2  1  6  0  0  0
 10 19  1  0  0  0  0
 10  9  1  0  0  0  0
 11 10  1  0  0  0  0
 12 11  1  0  0  0  0
 12 13  1  0  0  0  0
 13  8  1  0  0  0  0
 14 15  1  0  0  0  0
 14 18  2  0  0  0  0
 15 16  1  0  0  0  0
 16 17  2  0  0  0  0
 18 17  1  0  0  0  0
 19 20  1  0  0  0  0
 20 25  2  0  0  0  0
 20 21  1  0  0  0  0
 21 22  2  0  0  0  0
 22 23  1  0  0  0  0
 23 26  1  0  0  0  0
 24 23  2  0  0  0  0
 25 24  1  0  0  0  0
 26 27  1  0  0  0  0
M  END
>  <CHROM.1>
15.01230698,98.77138593,47.88056224,12.22760234,42.16180057,27.43495252,38.55849631
21.02981864,-2.85379356,-1.30659269,-2.94185197

>  <Name>
lig.pdb

>  <RI>
0

>  <Rbt.Current_Directory>
/home/itssahil/PROJECTS/Mol_Feturizer/New_Systems/rnas/5kx9

>  <Rbt.Executable>
rbdock ($Id: //depot/dev/client3/rdock/2013.1/src/exe/rbdock.cxx#4 $)

>  <Rbt.Library>
libRbt.so (2013.1, Build901 2013/11/27)

>  <Rbt.Parameter_File>
/export/apps/rDock/src/rDock_2013.1_src/data/scripts/dock_solv.prm

>  <Rbt.Receptor>
prm/pocket_docking_4.prm

>  <SCORE>
-27.5069

>  <SCORE.INTER>
-25.1021

>  <SCORE.INTER.CONST>
1

>  <SCORE.INTER.POLAR>
0

>  <SCORE.INTER.ROT>
5

>  <SCORE.INTER.SOLV>
13.4826

>  <SCORE.INTER.VDW>
-28.1622

>  <SCORE.INTER.norm>
-0.929706

>  <SCORE.INTRA>
-2.40479

>  <SCORE.INTRA.DIHEDRAL>
1.53201

>  <SCORE.INTRA.DIHEDRAL.0>
2.68224

>  <SCORE.INTRA.POLAR>
0

>  <SCORE.INTRA.POLAR.0>
0

>  <SCORE.INTRA.REPUL>
0

>  <SCORE.INTRA.REPUL.0>
0

>  <SCORE.INTRA.SOLV>
-0.100036

>  <SCORE.INTRA.SOLV.lig_0>
-19.4148

>  <SCORE.INTRA.VDW>
-3.12078

>  <SCORE.INTRA.VDW.0>
5.42093

>  <SCORE.INTRA.norm>
-0.0890663

>  <SCORE.RESTR>
0

>  <SCORE.RESTR.CAVITY>
0

>  <SCORE.RESTR.norm>
0

>  <SCORE.SYSTEM>
0

>  <SCORE.SYSTEM.CONST>
0

>  <SCORE.SYSTEM.DIHEDRAL>
0

>  <SCORE.SYSTEM.SOLV>
0

>  <SCORE.SYSTEM.norm>
0

>  <SCORE.heavy>
27

>  <SCORE.norm>
-1.01877

>  <RMSD>
7.322

$$$$
lig.pdb
 OpenBabel11021811523D
libRbt.so/2013.1/901 2013/11/27
 27 30  0  0  0  0  0  0  0  0999 V2000
   27.1459   39.7394   21.6438 N   0  0  0  0  0  0  0  0  0  0  0  0
   27.7944   39.4052   22.7318 C   0  0  0  0  0  0  0  0  0  0  0  0
   28.5174   40.2608   23.4975 N   0  0  0  0  0  0  0  0  0  0  0  0
   28.5455   41.5828   23.1529 C   0  0  0  0  0  0  0  0  0  0  0  0
   27.8744   42.0254   22.0493 C   0  0  0  0  0  0  0  0  0  0  0  0
   27.1518   41.0737   21.2394 C   0  0  0  0  0  0  0  0  0  0  0  0
   26.5642   41.3897   20.1974 O   0  0  0  0  0  0  0  0  0  0  0  0
   27.9673   37.9375   23.1809 C   0  0  2  0  0  0  0  0  0  0  0  0
   27.3578   37.1672   21.9983 C   0  0  0  0  0  0  0  0  0  0  0  0
   27.1865   35.7464   22.3070 N   0  0  0  0  0  0  0  0  0  0  0  0
   26.2432   35.6084   23.4283 C   0  0  0  0  0  0  0  0  0  0  0  0
   26.7975   36.2566   24.6816 C   0  0  0  0  0  0  0  0  0  0  0  0
   27.1124   37.7267   24.4421 C   0  0  0  0  0  0  0  0  0  0  0  0
   29.3230   42.3855   24.0875 C   0  0  0  0  0  0  0  0  0  0  0  0
   29.5675   41.8856   25.7201 S   0  0  0  0  0  0  0  0  0  0  0  0
   30.4544   43.2636   26.0744 C   0  0  0  0  0  0  0  0  0  0  0  0
   30.6073   44.0499   25.0014 C   0  0  0  0  0  0  0  0  0  0  0  0
   29.9564   43.5649   23.8503 C   0  0  0  0  0  0  0  0  0  0  0  0
   26.7109   34.9826   21.1401 C   0  0  0  0  0  0  0  0  0  0  0  0
   27.7091   34.8134   20.0166 C   0  0  0  0  0  0  0  0  0  0  0  0
   28.1181   35.8968   19.2526 C   0  0  0  0  0  0  0  0  0  0  0  0
   28.7025   35.7960   18.0450 N   0  0  0  0  0  0  0  0  0  0  0  0
   28.8298   34.5531   17.6051 C   0  0  0  0  0  0  0  0  0  0  0  0
   28.4546   33.4295   18.1951 N   0  0  0  0  0  0  0  0  0  0  0  0
   27.8731   33.5940   19.3925 C   0  0  0  0  0  0  0  0  0  0  0  0
   29.4033   34.4575   16.4001 O   0  0  0  0  0  0  0  0  0  0  0  0
   28.6793   34.9802   15.2802 C   0  0  0  0  0  0  0  0  0  0  0  0
  1  2  2  0  0  0  0
  1  6  1  0  0  0  0
  2  3  1  0  0  0  0
  3  4  2  0  0  0  0
  4 14  1  0  0  0  0
  5  4  1  0  0  0  0
  6  5  1  0  0  0  0
  7  6  2  0  0  0  0
  8  9  1  0  0  0  0
  8  2  1  6  0  0  0
 10 19  1  0  0  0  0
 10  9  1  0  0  0  0
 11 10  1  0  0  0  0
 12 11  1  0  0  0  0
 12 13  1  0  0  0  0
 13  8  1  0  0  0  0
 14 15  1  0  0  0  0
 14 18  2  0  0  0  0
 15 16  1  0  0  0  0
 16 17  2  0  0  0  0
 18 17  1  0  0  0  0
 19 20  1  0  0  0  0
 20 25  2  0  0  0  0
 20 21  1  0  0  0  0
 21 22  2  0  0  0  0
 22 23  1  0  0  0  0
 23 26  1  0  0  0  0
 24 23  2  0  0  0  0
 25 24  1  0  0  0  0
 26 27  1  0  0  0  0
M  END
>  <CHROM.1>
-24.56967524,5.70826359,69.90222504,-68.13054177,-66.78890560,28.21987308
38.39359357,21.78025191,-1.25600660,-1.23011888,-2.16156798

>  <Name>
lig.pdb

>  <RI>
0

>  <Rbt.Current_Directory>
/home/itssahil/PROJECTS/Mol_Feturizer/New_Systems/rnas/5kx9

>  <Rbt.Executable>
rbdock ($Id: //depot/dev/client3/rdock/2013.1/src/exe/rbdock.cxx#4 $)

>  <Rbt.Library>
libRbt.so (2013.1, Build901 2013/11/27)

>  <Rbt.Parameter_File>
/export/apps/rDock/src/rDock_2013.1_src/data/scripts/dock_solv.prm

>  <Rbt.Receptor>
prm/pocket_docking_7.prm

>  <SCORE>
-34.9413

>  <SCORE.INTER>
-32.6499

>  <SCORE.INTER.CONST>
1

>  <SCORE.INTER.POLAR>
0

>  <SCORE.INTER.ROT>
5

>  <SCORE.INTER.SOLV>
14.105

>  <SCORE.INTER.VDW>
-33.4016

>  <SCORE.INTER.norm>
-1.20925

>  <SCORE.INTRA>
-2.29141

>  <SCORE.INTRA.DIHEDRAL>
5.6369

>  <SCORE.INTRA.DIHEDRAL.0>
2.68224

>  <SCORE.INTRA.POLAR>
0

>  <SCORE.INTRA.POLAR.0>
0

>  <SCORE.INTRA.REPUL>
0

>  <SCORE.INTRA.REPUL.0>
0

>  <SCORE.INTRA.SOLV>
-0.567052

>  <SCORE.INTRA.SOLV.lig_0>
-19.4148

>  <SCORE.INTRA.VDW>
-4.82634

>  <SCORE.INTRA.VDW.0>
5.42093

>  <SCORE.INTRA.norm>
-0.0848671

>  <SCORE.RESTR>
0

>  <SCORE.RESTR.CAVITY>
0

>  <SCORE.RESTR.norm>
0

>  <SCORE.SYSTEM>
0

>  <SCORE.SYSTEM.CONST>
0

>  <SCORE.SYSTEM.DIHEDRAL>
0

>  <SCORE.SYSTEM.SOLV>
0

>  <SCORE.SYSTEM.norm>
0

>  <SCORE.heavy>
27

>  <SCORE.norm>
-1.29412

>  <RMSD>
7.323

$$$$
lig.pdb
 OpenBabel11021811523D
libRbt.so/2013.1/901 2013/11/27
 27 30  0  0  0  0  0  0  0  0999 V2000
   26.8206   36.1670   23.2148 N   0  0  0  0  0  0  0  0  0  0  0  0
   27.5948   36.5524   22.2307 C   0  0  0  0  0  0  0  0  0  0  0  0
   28.1236   37.7952   22.1010 N   0  0  0  0  0  0  0  0  0  0  0  0
   27.8824   38.7145   23.0828 C   0  0  0  0  0  0  0  0  0  0  0  0
   27.1088   38.3904   24.1603 C   0  0  0  0  0  0  0  0  0  0  0  0
   26.5319   37.0695   24.2375 C   0  0  0  0  0  0  0  0  0  0  0  0
   25.7788   36.7194   25.1546 O   0  0  0  0  0  0  0  0  0  0  0  0
   27.8549   35.6784   20.9841 C   0  0  2  0  0  0  0  0  0  0  0  0
   27.1499   36.4806   19.8782 C   0  0  0  0  0  0  0  0  0  0  0  0
   27.0521   35.7172   18.6328 N   0  0  0  0  0  0  0  0  0  0  0  0
   26.2330   34.5172   18.8676 C   0  0  0  0  0  0  0  0  0  0  0  0
   26.8939   33.6036   19.8809 C   0  0  0  0  0  0  0  0  0  0  0  0
   27.1401   34.3328   21.1943 C   0  0  0  0  0  0  0  0  0  0  0  0
   28.5471   39.9860   22.8307 C   0  0  0  0  0  0  0  0  0  0  0  0
   28.4697   41.2849   23.9630 S   0  0  0  0  0  0  0  0  0  0  0  0
   29.3851   42.2830   22.9747 C   0  0  0  0  0  0  0  0  0  0  0  0
   29.7787   41.6571   21.8584 C   0  0  0  0  0  0  0  0  0  0  0  0
   29.2996   40.3367   21.7540 C   0  0  0  0  0  0  0  0  0  0  0  0
   26.4816   36.5209   17.5374 C   0  0  0  0  0  0  0  0  0  0  0  0
   27.0861   36.2885   16.1707 C   0  0  0  0  0  0  0  0  0  0  0  0
   26.3262   36.4275   15.0183 C   0  0  0  0  0  0  0  0  0  0  0  0
   26.6606   35.9105   13.8222 N   0  0  0  0  0  0  0  0  0  0  0  0
   27.7816   35.2049   13.8295 C   0  0  0  0  0  0  0  0  0  0  0  0
   28.5866   34.9507   14.8488 N   0  0  0  0  0  0  0  0  0  0  0  0
   28.1982   35.4870   16.0151 C   0  0  0  0  0  0  0  0  0  0  0  0
   28.1061   34.6849   12.6403 O   0  0  0  0  0  0  0  0  0  0  0  0
   28.5445   33.3216   12.6124 C   0  0  0  0  0  0  0  0  0  0  0  0
  1  2  2  0  0  0  0
  1  6  1  0  0  0  0
  2  3  1  0  0  0  0
  3  4  2  0  0  0  0
  4 14  1  0  0  0  0
  5  4  1  0  0  0  0
  6  5  1  0  0  0  0
  7  6  2  0  0  0  0
  8  9  1  0  0  0  0
  8  2  1  1  0  0  0
 10 19  1  0  0  0  0
 10  9  1  0  0  0  0
 11 10  1  0  0  0  0
 12 11  1  0  0  0  0
 12 13  1  0  0  0  0
 13  8  1  0  0  0  0
 14 15  1  0  0  0  0
 14 18  2  0  0  0  0
 15 16  1  0  0  0  0
 16 17  2  0  0  0  0
 18 17  1  0  0  0  0
 19 20  1  0  0  0  0
 20 25  2  0  0  0  0
 20 21  1  0  0  0  0
 21 22  2  0  0  0  0
 22 23  1  0  0  0  0
 23 26  1  0  0  0  0
 24 23  2  0  0  0  0
 25 24  1  0  0  0  0
 26 27  1  0  0  0  0
M  END
>  <CHROM.1>
-176.69143540,112.15335928,142.16775977,148.84035926,-135.50318482,27.63172154
37.03649478,19.76286966,1.47009941,1.15805070,1.19558785

>  <Name>
lig.pdb

>  <RI>
0

>  <Rbt.Current_Directory>
/home/itssahil/PROJECTS/Mol_Feturizer/New_Systems/rnas/5kx9

>  <Rbt.Executable>
rbdock ($Id: //depot/dev/client3/rdock/2013.1/src/exe/rbdock.cxx#4 $)

>  <Rbt.Library>
libRbt.so (2013.1, Build901 2013/11/27)

>  <Rbt.Parameter_File>
/export/apps/rDock/src/rDock_2013.1_src/data/scripts/dock_solv.prm

>  <Rbt.Receptor>
prm/pocket_docking_8.prm

>  <SCORE>
-33.6345

>  <SCORE.INTER>
-29.8718

>  <SCORE.INTER.CONST>
1

>  <SCORE.INTER.POLAR>
0

>  <SCORE.INTER.ROT>
5

>  <SCORE.INTER.SOLV>
14.3305

>  <SCORE.INTER.VDW>
-31.6247

>  <SCORE.INTER.norm>
-1.10636

>  <SCORE.INTRA>
-3.76271

>  <SCORE.INTRA.DIHEDRAL>
2.65797

>  <SCORE.INTRA.DIHEDRAL.0>
2.68224

>  <SCORE.INTRA.POLAR>
0

>  <SCORE.INTRA.POLAR.0>
0

>  <SCORE.INTRA.REPUL>
0

>  <SCORE.INTRA.REPUL.0>
0

>  <SCORE.INTRA.SOLV>
-0.532028

>  <SCORE.INTRA.SOLV.lig_0>
-19.4148

>  <SCORE.INTRA.VDW>
-4.82568

>  <SCORE.INTRA.VDW.0>
5.42093

>  <SCORE.INTRA.norm>
-0.13936

>  <SCORE.RESTR>
0

>  <SCORE.RESTR.CAVITY>
0

>  <SCORE.RESTR.norm>
0

>  <SCORE.SYSTEM>
0

>  <SCORE.SYSTEM.CONST>
0

>  <SCORE.SYSTEM.DIHEDRAL>
0

>  <SCORE.SYSTEM.SOLV>
0

>  <SCORE.SYSTEM.norm>
0

>  <SCORE.heavy>
27

>  <SCORE.norm>
-1.24572

>  <RMSD>
7.328

$$$$
lig.pdb
 OpenBabel11021811523D
libRbt.so/2013.1/901 2013/11/27
 27 30  0  0  0  0  0  0  0  0999 V2000
   27.3032   37.9234   23.9533 N   0  0  0  0  0  0  0  0  0  0  0  0
   27.7113   38.7544   23.0263 C   0  0  0  0  0  0  0  0  0  0  0  0
   28.2519   39.9761   23.2634 N   0  0  0  0  0  0  0  0  0  0  0  0
   28.4375   40.3691   24.5589 C   0  0  0  0  0  0  0  0  0  0  0  0
   28.0672   39.5540   25.5899 C   0  0  0  0  0  0  0  0  0  0  0  0
   27.4574   38.2798   25.2924 C   0  0  0  0  0  0  0  0  0  0  0  0
   27.0483   37.5109   26.1711 O   0  0  0  0  0  0  0  0  0  0  0  0
   27.4542   38.5159   21.5221 C   0  0  2  0  0  0  0  0  0  0  0  0
   27.5064   36.9823   21.4277 C   0  0  0  0  0  0  0  0  0  0  0  0
   27.5313   36.5250   20.0373 N   0  0  0  0  0  0  0  0  0  0  0  0
   28.7531   37.0269   19.3880 C   0  0  0  0  0  0  0  0  0  0  0  0
   28.7551   38.5422   19.3420 C   0  0  0  0  0  0  0  0  0  0  0  0
   28.6275   39.1307   20.7402 C   0  0  0  0  0  0  0  0  0  0  0  0
   29.0645   41.6802   24.6588 C   0  0  0  0  0  0  0  0  0  0  0  0
   29.4758   42.5931   23.2544 S   0  0  0  0  0  0  0  0  0  0  0  0
   30.1185   43.8377   24.1758 C   0  0  0  0  0  0  0  0  0  0  0  0
   29.9889   43.6069   25.4884 C   0  0  0  0  0  0  0  0  0  0  0  0
   29.3916   42.3665   25.7860 C   0  0  0  0  0  0  0  0  0  0  0  0
   27.4651   35.0562   19.9392 C   0  0  0  0  0  0  0  0  0  0  0  0
   26.2212   34.4987   19.2840 C   0  0  0  0  0  0  0  0  0  0  0  0
   26.2388   33.2676   18.6447 C   0  0  0  0  0  0  0  0  0  0  0  0
   25.3166   32.8629   17.7527 N   0  0  0  0  0  0  0  0  0  0  0  0
   24.3824   33.7644   17.4900 C   0  0  0  0  0  0  0  0  0  0  0  0
   24.2561   34.9856   17.9840 N   0  0  0  0  0  0  0  0  0  0  0  0
   25.2074   35.3343   18.8628 C   0  0  0  0  0  0  0  0  0  0  0  0
   23.4724   33.3616   16.5958 O   0  0  0  0  0  0  0  0  0  0  0  0
   23.9136   33.1613   15.2479 C   0  0  0  0  0  0  0  0  0  0  0  0
  1  2  2  0  0  0  0
  1  6  1  0  0  0  0
  2  3  1  0  0  0  0
  3  4  2  0  0  0  0
  4 14  1  0  0  0  0
  5  4  1  0  0  0  0
  6  5  1  0  0  0  0
  7  6  2  0  0  0  0
  8  9  1  0  0  0  0
  8  2  1  1  0  0  0
 10 19  1  0  0  0  0
 10  9  1  0  0  0  0
 11 10  1  0  0  0  0
 12 11  1  0  0  0  0
 12 13  1  0  0  0  0
 13  8  1  0  0  0  0
 14 15  1  0  0  0  0
 14 18  2  0  0  0  0
 15 16  1  0  0  0  0
 16 17  2  0  0  0  0
 18 17  1  0  0  0  0
 19 20  1  0  0  0  0
 20 25  2  0  0  0  0
 20 21  1  0  0  0  0
 21 22  2  0  0  0  0
 22 23  1  0  0  0  0
 23 26  1  0  0  0  0
 24 23  2  0  0  0  0
 25 24  1  0  0  0  0
 26 27  1  0  0  0  0
M  END
>  <CHROM.1>
0.98140835,-32.97077459,114.80020522,153.53275122,-67.21315831,27.37490445
37.91832024,21.48535441,0.72441225,1.06385006,1.51677711

>  <Name>
lig.pdb

>  <RI>
0

>  <Rbt.Current_Directory>
/home/itssahil/PROJECTS/Mol_Feturizer/New_Systems/rnas/5kx9

>  <Rbt.Executable>
rbdock ($Id: //depot/dev/client3/rdock/2013.1/src/exe/rbdock.cxx#4 $)

>  <Rbt.Library>
libRbt.so (2013.1, Build901 2013/11/27)

>  <Rbt.Parameter_File>
/export/apps/rDock/src/rDock_2013.1_src/data/scripts/dock_solv.prm

>  <Rbt.Receptor>
prm/blind_docking_100.prm

>  <SCORE>
-31.1718

>  <SCORE.INTER>
-28.6742

>  <SCORE.INTER.CONST>
1

>  <SCORE.INTER.POLAR>
0

>  <SCORE.INTER.ROT>
5

>  <SCORE.INTER.SOLV>
13.1891

>  <SCORE.INTER.VDW>
-30.4458

>  <SCORE.INTER.norm>
-1.06201

>  <SCORE.INTRA>
-2.49769

>  <SCORE.INTRA.DIHEDRAL>
5.07038

>  <SCORE.INTRA.DIHEDRAL.0>
2.68224

>  <SCORE.INTRA.POLAR>
0

>  <SCORE.INTRA.POLAR.0>
0

>  <SCORE.INTRA.REPUL>
0

>  <SCORE.INTRA.REPUL.0>
0

>  <SCORE.INTRA.SOLV>
-0.502325

>  <SCORE.INTRA.SOLV.lig_0>
-19.4148

>  <SCORE.INTRA.VDW>
-4.78172

>  <SCORE.INTRA.VDW.0>
5.42093

>  <SCORE.INTRA.norm>
-0.092507

>  <SCORE.RESTR>
0

>  <SCORE.RESTR.CAVITY>
0

>  <SCORE.RESTR.norm>
0

>  <SCORE.SYSTEM>
0

>  <SCORE.SYSTEM.CONST>
0

>  <SCORE.SYSTEM.DIHEDRAL>
0

>  <SCORE.SYSTEM.SOLV>
0

>  <SCORE.SYSTEM.norm>
0

>  <SCORE.heavy>
27

>  <SCORE.norm>
-1.15451

>  <RMSD>
7.330

$$$$
lig.pdb
 OpenBabel11021811523D
libRbt.so/2013.1/901 2013/11/27
 27 30  0  0  0  0  0  0  0  0999 V2000
   26.8161   36.2393   23.2738 N   0  0  0  0  0  0  0  0  0  0  0  0
   27.5907   36.6031   22.2818 C   0  0  0  0  0  0  0  0  0  0  0  0
   28.1006   37.8490   22.1127 N   0  0  0  0  0  0  0  0  0  0  0  0
   27.8384   38.7975   23.0607 C   0  0  0  0  0  0  0  0  0  0  0  0
   27.0629   38.4982   24.1439 C   0  0  0  0  0  0  0  0  0  0  0  0
   26.5063   37.1716   24.2631 C   0  0  0  0  0  0  0  0  0  0  0  0
   25.7527   36.8412   25.1870 O   0  0  0  0  0  0  0  0  0  0  0  0
   27.8729   35.6911   21.0676 C   0  0  2  0  0  0  0  0  0  0  0  0
   27.2341   36.4846   19.9162 C   0  0  0  0  0  0  0  0  0  0  0  0
   27.1619   35.6932   18.6866 N   0  0  0  0  0  0  0  0  0  0  0  0
   26.3001   34.5228   18.9182 C   0  0  0  0  0  0  0  0  0  0  0  0
   26.8952   33.6168   19.9780 C   0  0  0  0  0  0  0  0  0  0  0  0
   27.1120   34.3717   21.2822 C   0  0  0  0  0  0  0  0  0  0  0  0
   28.4846   40.0701   22.7691 C   0  0  0  0  0  0  0  0  0  0  0  0
   28.1965   41.4705   23.7339 S   0  0  0  0  0  0  0  0  0  0  0  0
   29.2069   42.4104   22.7818 C   0  0  0  0  0  0  0  0  0  0  0  0
   29.7804   41.6967   21.8048 C   0  0  0  0  0  0  0  0  0  0  0  0
   29.3709   40.3493   21.7766 C   0  0  0  0  0  0  0  0  0  0  0  0
   26.6572   36.4848   17.5509 C   0  0  0  0  0  0  0  0  0  0  0  0
   26.9528   35.9231   16.1781 C   0  0  0  0  0  0  0  0  0  0  0  0
   28.1820   35.3488   15.8885 C   0  0  0  0  0  0  0  0  0  0  0  0
   28.6545   35.1550   14.6439 N   0  0  0  0  0  0  0  0  0  0  0  0
   27.8564   35.5993   13.6846 C   0  0  0  0  0  0  0  0  0  0  0  0
   26.6833   36.2004   13.8034 N   0  0  0  0  0  0  0  0  0  0  0  0
   26.2680   36.3708   15.0672 C   0  0  0  0  0  0  0  0  0  0  0  0
   28.3336   35.4128   12.4486 O   0  0  0  0  0  0  0  0  0  0  0  0
   28.5511   34.0633   12.0206 C   0  0  0  0  0  0  0  0  0  0  0  0
  1  2  2  0  0  0  0
  1  6  1  0  0  0  0
  2  3  1  0  0  0  0
  3  4  2  0  0  0  0
  4 14  1  0  0  0  0
  5  4  1  0  0  0  0
  6  5  1  0  0  0  0
  7  6  2  0  0  0  0
  8  9  1  0  0  0  0
  8  2  1  1  0  0  0
 10 19  1  0  0  0  0
 10  9  1  0  0  0  0
 11 10  1  0  0  0  0
 12 11  1  0  0  0  0
 12 13  1  0  0  0  0
 13  8  1  0  0  0  0
 14 15  1  0  0  0  0
 14 18  2  0  0  0  0
 15 16  1  0  0  0  0
 16 17  2  0  0  0  0
 18 17  1  0  0  0  0
 19 20  1  0  0  0  0
 20 25  2  0  0  0  0
 20 21  1  0  0  0  0
 21 22  2  0  0  0  0
 22 23  1  0  0  0  0
 23 26  1  0  0  0  0
 24 23  2  0  0  0  0
 25 24  1  0  0  0  0
 26 27  1  0  0  0  0
M  END
>  <CHROM.1>
174.37866531,115.34022621,161.22921321,-40.29873186,62.10787543,27.62157103
37.15404029,19.70821561,1.52046262,1.17847946,1.18312294

>  <Name>
lig.pdb

>  <RI>
0

>  <Rbt.Current_Directory>
/home/itssahil/PROJECTS/Mol_Feturizer/New_Systems/rnas/5kx9

>  <Rbt.Executable>
rbdock ($Id: //depot/dev/client3/rdock/2013.1/src/exe/rbdock.cxx#4 $)

>  <Rbt.Library>
libRbt.so (2013.1, Build901 2013/11/27)

>  <Rbt.Parameter_File>
/export/apps/rDock/src/rDock_2013.1_src/data/scripts/dock_solv.prm

>  <Rbt.Receptor>
prm/pocket_docking_8.prm

>  <SCORE>
-33.9766

>  <SCORE.INTER>
-30.5735

>  <SCORE.INTER.CONST>
1

>  <SCORE.INTER.POLAR>
0

>  <SCORE.INTER.ROT>
5

>  <SCORE.INTER.SOLV>
15.1327

>  <SCORE.INTER.VDW>
-32.3599

>  <SCORE.INTER.norm>
-1.13235

>  <SCORE.INTRA>
-3.40313

>  <SCORE.INTRA.DIHEDRAL>
3.85997

>  <SCORE.INTRA.DIHEDRAL.0>
2.68224

>  <SCORE.INTRA.POLAR>
0

>  <SCORE.INTRA.POLAR.0>
0

>  <SCORE.INTRA.REPUL>
0

>  <SCORE.INTRA.REPUL.0>
0

>  <SCORE.INTRA.SOLV>
-0.616201

>  <SCORE.INTRA.SOLV.lig_0>
-19.4148

>  <SCORE.INTRA.VDW>
-5.02502

>  <SCORE.INTRA.VDW.0>
5.42093

>  <SCORE.INTRA.norm>
-0.126042

>  <SCORE.RESTR>
0

>  <SCORE.RESTR.CAVITY>
0

>  <SCORE.RESTR.norm>
0

>  <SCORE.SYSTEM>
0

>  <SCORE.SYSTEM.CONST>
0

>  <SCORE.SYSTEM.DIHEDRAL>
0

>  <SCORE.SYSTEM.SOLV>
0

>  <SCORE.SYSTEM.norm>
0

>  <SCORE.heavy>
27

>  <SCORE.norm>
-1.25839

>  <RMSD>
7.339

$$$$
lig.pdb
 OpenBabel11021811523D
libRbt.so/2013.1/901 2013/11/27
 27 30  0  0  0  0  0  0  0  0999 V2000
   29.2378   42.6777   23.5223 N   0  0  0  0  0  0  0  0  0  0  0  0
   28.0219   42.3165   23.1947 C   0  0  0  0  0  0  0  0  0  0  0  0
   26.9238   42.4957   23.9713 N   0  0  0  0  0  0  0  0  0  0  0  0
   27.0665   43.1416   25.1670 C   0  0  0  0  0  0  0  0  0  0  0  0
   28.2938   43.5783   25.5762 C   0  0  0  0  0  0  0  0  0  0  0  0
   29.4422   43.3297   24.7377 C   0  0  0  0  0  0  0  0  0  0  0  0
   30.5923   43.6480   25.0643 O   0  0  0  0  0  0  0  0  0  0  0  0
   27.7146   41.4648   21.9434 C   0  0  2  0  0  0  0  0  0  0  0  0
   27.8724   40.0341   22.4834 C   0  0  0  0  0  0  0  0  0  0  0  0
   27.8669   39.0437   21.4053 N   0  0  0  0  0  0  0  0  0  0  0  0
   29.0187   39.2881   20.5222 C   0  0  0  0  0  0  0  0  0  0  0  0
   28.9098   40.6466   19.8582 C   0  0  0  0  0  0  0  0  0  0  0  0
   28.8038   41.7546   20.8968 C   0  0  0  0  0  0  0  0  0  0  0  0
   25.8001   43.2992   25.8695 C   0  0  0  0  0  0  0  0  0  0  0  0
   24.3469   42.5787   25.2827 S   0  0  0  0  0  0  0  0  0  0  0  0
   23.4467   43.2199   26.5434 C   0  0  0  0  0  0  0  0  0  0  0  0
   24.2086   43.9086   27.4027 C   0  0  0  0  0  0  0  0  0  0  0  0
   25.5647   43.9719   27.0273 C   0  0  0  0  0  0  0  0  0  0  0  0
   27.9021   37.6648   21.9238 C   0  0  0  0  0  0  0  0  0  0  0  0
   27.4202   36.5940   20.9707 C   0  0  0  0  0  0  0  0  0  0  0  0
   27.1040   36.8964   19.6542 C   0  0  0  0  0  0  0  0  0  0  0  0
   26.3509   36.1174   18.8567 N   0  0  0  0  0  0  0  0  0  0  0  0
   25.8857   35.0260   19.4457 C   0  0  0  0  0  0  0  0  0  0  0  0
   26.0649   34.6253   20.6943 N   0  0  0  0  0  0  0  0  0  0  0  0
   26.8186   35.4452   21.4417 C   0  0  0  0  0  0  0  0  0  0  0  0
   25.1299   34.2584   18.6522 O   0  0  0  0  0  0  0  0  0  0  0  0
   25.3616   32.8452   18.6840 C   0  0  0  0  0  0  0  0  0  0  0  0
  1  2  2  0  0  0  0
  1  6  1  0  0  0  0
  2  3  1  0  0  0  0
  3  4  2  0  0  0  0
  4 14  1  0  0  0  0
  5  4  1  0  0  0  0
  6  5  1  0  0  0  0
  7  6  2  0  0  0  0
  8  9  1  0  0  0  0
  8  2  1  1  0  0  0
 10 19  1  0  0  0  0
 10  9  1  0  0  0  0
 11 10  1  0  0  0  0
 12 11  1  0  0  0  0
 12 13  1  0  0  0  0
 13  8  1  0  0  0  0
 14 15  1  0  0  0  0
 14 18  2  0  0  0  0
 15 16  1  0  0  0  0
 16 17  2  0  0  0  0
 18 17  1  0  0  0  0
 19 20  1  0  0  0  0
 20 25  2  0  0  0  0
 20 21  1  0  0  0  0
 21 22  2  0  0  0  0
 22 23  1  0  0  0  0
 23 26  1  0  0  0  0
 24 23  2  0  0  0  0
 25 24  1  0  0  0  0
 26 27  1  0  0  0  0
M  END
>  <CHROM.1>
6.03823333,87.30059456,159.37024418,6.44305683,135.51300125,26.96924308,40.05482866
22.68810099,-1.54852730,-0.44493905,-2.49874755

>  <Name>
lig.pdb

>  <RI>
0

>  <Rbt.Current_Directory>
/home/itssahil/PROJECTS/Mol_Feturizer/New_Systems/rnas/5kx9

>  <Rbt.Executable>
rbdock ($Id: //depot/dev/client3/rdock/2013.1/src/exe/rbdock.cxx#4 $)

>  <Rbt.Library>
libRbt.so (2013.1, Build901 2013/11/27)

>  <Rbt.Parameter_File>
/export/apps/rDock/src/rDock_2013.1_src/data/scripts/dock_solv.prm

>  <Rbt.Receptor>
prm/blind_docking_60.prm

>  <SCORE>
-34.1444

>  <SCORE.INTER>
-29.2426

>  <SCORE.INTER.CONST>
1

>  <SCORE.INTER.POLAR>
0

>  <SCORE.INTER.ROT>
5

>  <SCORE.INTER.SOLV>
12.4951

>  <SCORE.INTER.VDW>
-30.5934

>  <SCORE.INTER.norm>
-1.08306

>  <SCORE.INTRA>
-4.90181

>  <SCORE.INTRA.DIHEDRAL>
1.60754

>  <SCORE.INTRA.DIHEDRAL.0>
2.68224

>  <SCORE.INTRA.POLAR>
0

>  <SCORE.INTRA.POLAR.0>
0

>  <SCORE.INTRA.REPUL>
0

>  <SCORE.INTRA.REPUL.0>
0

>  <SCORE.INTRA.SOLV>
-0.492356

>  <SCORE.INTRA.SOLV.lig_0>
-19.4148

>  <SCORE.INTRA.VDW>
-5.4594

>  <SCORE.INTRA.VDW.0>
5.42093

>  <SCORE.INTRA.norm>
-0.181549

>  <SCORE.RESTR>
0

>  <SCORE.RESTR.CAVITY>
0

>  <SCORE.RESTR.norm>
0

>  <SCORE.SYSTEM>
0

>  <SCORE.SYSTEM.CONST>
0

>  <SCORE.SYSTEM.DIHEDRAL>
0

>  <SCORE.SYSTEM.SOLV>
0

>  <SCORE.SYSTEM.norm>
0

>  <SCORE.heavy>
27

>  <SCORE.norm>
-1.26461

>  <RMSD>
7.341

$$$$
lig.pdb
 OpenBabel11021811523D
libRbt.so/2013.1/901 2013/11/27
 27 30  0  0  0  0  0  0  0  0999 V2000
   27.1984   39.6980   21.6256 N   0  0  0  0  0  0  0  0  0  0  0  0
   27.7823   39.2757   22.7196 C   0  0  0  0  0  0  0  0  0  0  0  0
   28.4389   40.0682   23.6038 N   0  0  0  0  0  0  0  0  0  0  0  0
   28.4645   41.4160   23.3806 C   0  0  0  0  0  0  0  0  0  0  0  0
   27.8571   41.9474   22.2792 C   0  0  0  0  0  0  0  0  0  0  0  0
   27.2055   41.0632   21.3425 C   0  0  0  0  0  0  0  0  0  0  0  0
   26.6798   41.4640   20.2967 O   0  0  0  0  0  0  0  0  0  0  0  0
   27.9533   37.7759   23.0469 C   0  0  2  0  0  0  0  0  0  0  0  0
   27.3586   37.1059   21.7975 C   0  0  0  0  0  0  0  0  0  0  0  0
   27.1870   35.6642   21.9849 N   0  0  0  0  0  0  0  0  0  0  0  0
   26.2316   35.4322   23.0801 C   0  0  0  0  0  0  0  0  0  0  0  0
   26.7706   35.9744   24.3892 C   0  0  0  0  0  0  0  0  0  0  0  0
   27.0849   37.4597   24.2764 C   0  0  0  0  0  0  0  0  0  0  0  0
   29.1656   42.1414   24.4316 C   0  0  0  0  0  0  0  0  0  0  0  0
   29.8032   43.7219   24.1661 S   0  0  0  0  0  0  0  0  0  0  0  0
   30.4180   43.8029   25.7238 C   0  0  0  0  0  0  0  0  0  0  0  0
   30.1182   42.7103   26.4375 C   0  0  0  0  0  0  0  0  0  0  0  0
   29.4045   41.7394   25.7082 C   0  0  0  0  0  0  0  0  0  0  0  0
   26.7260   34.9996   20.7532 C   0  0  0  0  0  0  0  0  0  0  0  0
   27.7651   34.8415   19.6657 C   0  0  0  0  0  0  0  0  0  0  0  0
   28.2278   35.9377   18.9522 C   0  0  0  0  0  0  0  0  0  0  0  0
   28.8584   35.8598   17.7664 N   0  0  0  0  0  0  0  0  0  0  0  0
   28.9768   34.6280   17.2940 C   0  0  0  0  0  0  0  0  0  0  0  0
   28.5541   33.4960   17.8338 N   0  0  0  0  0  0  0  0  0  0  0  0
   27.9282   33.6379   19.0115 C   0  0  0  0  0  0  0  0  0  0  0  0
   29.5965   34.5554   16.1104 O   0  0  0  0  0  0  0  0  0  0  0  0
   29.1116   33.5914   15.1685 C   0  0  0  0  0  0  0  0  0  0  0  0
  1  2  2  0  0  0  0
  1  6  1  0  0  0  0
  2  3  1  0  0  0  0
  3  4  2  0  0  0  0
  4 14  1  0  0  0  0
  5  4  1  0  0  0  0
  6  5  1  0  0  0  0
  7  6  2  0  0  0  0
  8  9  1  0  0  0  0
  8  2  1  6  0  0  0
 10 19  1  0  0  0  0
 10  9  1  0  0  0  0
 11 10  1  0  0  0  0
 12 11  1  0  0  0  0
 12 13  1  0  0  0  0
 13  8  1  0  0  0  0
 14 15  1  0  0  0  0
 14 18  2  0  0  0  0
 15 16  1  0  0  0  0
 16 17  2  0  0  0  0
 18 17  1  0  0  0  0
 19 20  1  0  0  0  0
 20 25  2  0  0  0  0
 20 21  1  0  0  0  0
 21 22  2  0  0  0  0
 22 23  1  0  0  0  0
 23 26  1  0  0  0  0
 24 23  2  0  0  0  0
 25 24  1  0  0  0  0
 26 27  1  0  0  0  0
M  END
>  <CHROM.1>
159.14787443,2.51949197,73.91728962,-70.75041178,-142.42300807,28.24408180
38.35626961,21.63576855,-1.37582064,-1.16718739,-2.28342591

>  <Name>
lig.pdb

>  <RI>
0

>  <Rbt.Current_Directory>
/home/itssahil/PROJECTS/Mol_Feturizer/New_Systems/rnas/5kx9

>  <Rbt.Executable>
rbdock ($Id: //depot/dev/client3/rdock/2013.1/src/exe/rbdock.cxx#4 $)

>  <Rbt.Library>
libRbt.so (2013.1, Build901 2013/11/27)

>  <Rbt.Parameter_File>
/export/apps/rDock/src/rDock_2013.1_src/data/scripts/dock_solv.prm

>  <Rbt.Receptor>
prm/pocket_docking_7.prm

>  <SCORE>
-34.813

>  <SCORE.INTER>
-31.9689

>  <SCORE.INTER.CONST>
1

>  <SCORE.INTER.POLAR>
0

>  <SCORE.INTER.ROT>
5

>  <SCORE.INTER.SOLV>
13.9682

>  <SCORE.INTER.VDW>
-32.902

>  <SCORE.INTER.norm>
-1.18403

>  <SCORE.INTRA>
-2.84409

>  <SCORE.INTRA.DIHEDRAL>
2.84532

>  <SCORE.INTRA.DIHEDRAL.0>
2.68224

>  <SCORE.INTRA.POLAR>
0

>  <SCORE.INTRA.POLAR.0>
0

>  <SCORE.INTRA.REPUL>
0

>  <SCORE.INTRA.REPUL.0>
0

>  <SCORE.INTRA.SOLV>
-0.611919

>  <SCORE.INTRA.SOLV.lig_0>
-19.4148

>  <SCORE.INTRA.VDW>
-3.96078

>  <SCORE.INTRA.VDW.0>
5.42093

>  <SCORE.INTRA.norm>
-0.105337

>  <SCORE.RESTR>
0

>  <SCORE.RESTR.CAVITY>
0

>  <SCORE.RESTR.norm>
0

>  <SCORE.SYSTEM>
0

>  <SCORE.SYSTEM.CONST>
0

>  <SCORE.SYSTEM.DIHEDRAL>
0

>  <SCORE.SYSTEM.SOLV>
0

>  <SCORE.SYSTEM.norm>
0

>  <SCORE.heavy>
27

>  <SCORE.norm>
-1.28937

>  <RMSD>
7.344

$$$$
lig.pdb
 OpenBabel11021811523D
libRbt.so/2013.1/901 2013/11/27
 27 30  0  0  0  0  0  0  0  0999 V2000
   27.2599   40.1594   21.6205 N   0  0  0  0  0  0  0  0  0  0  0  0
   27.1675   39.8191   22.8822 C   0  0  0  0  0  0  0  0  0  0  0  0
   26.6656   40.6098   23.8639 N   0  0  0  0  0  0  0  0  0  0  0  0
   26.1705   41.8378   23.5259 C   0  0  0  0  0  0  0  0  0  0  0  0
   26.2002   42.2635   22.2289 C   0  0  0  0  0  0  0  0  0  0  0  0
   26.7811   41.4070   21.2227 C   0  0  0  0  0  0  0  0  0  0  0  0
   26.8915   41.7443   20.0374 O   0  0  0  0  0  0  0  0  0  0  0  0
   27.7967   38.5254   23.4443 C   0  0  2  0  0  0  0  0  0  0  0  0
   27.1202   37.4423   22.5882 C   0  0  0  0  0  0  0  0  0  0  0  0
   27.3805   36.0988   23.1081 N   0  0  0  0  0  0  0  0  0  0  0  0
   26.8055   35.9861   24.4582 C   0  0  0  0  0  0  0  0  0  0  0  0
   27.4773   36.9537   25.4125 C   0  0  0  0  0  0  0  0  0  0  0  0
   27.3567   38.3863   24.9116 C   0  0  0  0  0  0  0  0  0  0  0  0
   25.6277   42.5543   24.6723 C   0  0  0  0  0  0  0  0  0  0  0  0
   26.4546   42.5943   26.1855 S   0  0  0  0  0  0  0  0  0  0  0  0
   25.2442   43.5138   26.8929 C   0  0  0  0  0  0  0  0  0  0  0  0
   24.2771   43.8243   26.0205 C   0  0  0  0  0  0  0  0  0  0  0  0
   24.4764   43.2743   24.7392 C   0  0  0  0  0  0  0  0  0  0  0  0
   26.8320   35.0518   22.2283 C   0  0  0  0  0  0  0  0  0  0  0  0
   27.5808   34.8251   20.9339 C   0  0  0  0  0  0  0  0  0  0  0  0
   27.9044   35.8844   20.0986 C   0  0  0  0  0  0  0  0  0  0  0  0
   28.2363   35.7536   18.8014 N   0  0  0  0  0  0  0  0  0  0  0  0
   28.1943   34.5080   18.3529 C   0  0  0  0  0  0  0  0  0  0  0  0
   27.8675   33.4075   19.0112 N   0  0  0  0  0  0  0  0  0  0  0  0
   27.5407   33.6017   20.2974 C   0  0  0  0  0  0  0  0  0  0  0  0
   28.5164   34.3830   17.0603 O   0  0  0  0  0  0  0  0  0  0  0  0
   29.4375   33.3450   16.7060 C   0  0  0  0  0  0  0  0  0  0  0  0
  1  2  2  0  0  0  0
  1  6  1  0  0  0  0
  2  3  1  0  0  0  0
  3  4  2  0  0  0  0
  4 14  1  0  0  0  0
  5  4  1  0  0  0  0
  6  5  1  0  0  0  0
  7  6  2  0  0  0  0
  8  9  1  0  0  0  0
  8  2  1  6  0  0  0
 10 19  1  0  0  0  0
 10  9  1  0  0  0  0
 11 10  1  0  0  0  0
 12 11  1  0  0  0  0
 12 13  1  0  0  0  0
 13  8  1  0  0  0  0
 14 15  1  0  0  0  0
 14 18  2  0  0  0  0
 15 16  1  0  0  0  0
 16 17  2  0  0  0  0
 18 17  1  0  0  0  0
 19 20  1  0  0  0  0
 20 25  2  0  0  0  0
 20 21  1  0  0  0  0
 21 22  2  0  0  0  0
 22 23  1  0  0  0  0
 23 26  1  0  0  0  0
 24 23  2  0  0  0  0
 25 24  1  0  0  0  0
 26 27  1  0  0  0  0
M  END
>  <CHROM.1>
43.64447972,-58.15737814,73.29482492,-50.25225558,133.42437831,27.01253268
38.57016885,22.39199756,-3.12670533,-1.33978511,2.22615980

>  <Name>
lig.pdb

>  <RI>
0

>  <Rbt.Current_Directory>
/home/itssahil/PROJECTS/Mol_Feturizer/New_Systems/rnas/5kx9

>  <Rbt.Executable>
rbdock ($Id: //depot/dev/client3/rdock/2013.1/src/exe/rbdock.cxx#4 $)

>  <Rbt.Library>
libRbt.so (2013.1, Build901 2013/11/27)

>  <Rbt.Parameter_File>
/export/apps/rDock/src/rDock_2013.1_src/data/scripts/dock_solv.prm

>  <Rbt.Receptor>
prm/pocket_docking_7.prm

>  <SCORE>
-32.7488

>  <SCORE.INTER>
-32.5325

>  <SCORE.INTER.CONST>
1

>  <SCORE.INTER.POLAR>
0

>  <SCORE.INTER.ROT>
5

>  <SCORE.INTER.SOLV>
16.3829

>  <SCORE.INTER.VDW>
-34.0826

>  <SCORE.INTER.norm>
-1.20491

>  <SCORE.INTRA>
-0.21631

>  <SCORE.INTRA.DIHEDRAL>
7.53797

>  <SCORE.INTRA.DIHEDRAL.0>
2.68224

>  <SCORE.INTRA.POLAR>
0

>  <SCORE.INTRA.POLAR.0>
0

>  <SCORE.INTRA.REPUL>
0

>  <SCORE.INTRA.REPUL.0>
0

>  <SCORE.INTRA.SOLV>
-0.585403

>  <SCORE.INTRA.SOLV.lig_0>
-19.4148

>  <SCORE.INTRA.VDW>
-3.69259

>  <SCORE.INTRA.VDW.0>
5.42093

>  <SCORE.INTRA.norm>
-0.00801149

>  <SCORE.RESTR>
0

>  <SCORE.RESTR.CAVITY>
0

>  <SCORE.RESTR.norm>
0

>  <SCORE.SYSTEM>
0

>  <SCORE.SYSTEM.CONST>
0

>  <SCORE.SYSTEM.DIHEDRAL>
0

>  <SCORE.SYSTEM.SOLV>
0

>  <SCORE.SYSTEM.norm>
0

>  <SCORE.heavy>
27

>  <SCORE.norm>
-1.21292

>  <RMSD>
7.347

$$$$
lig.pdb
 OpenBabel11021811523D
libRbt.so/2013.1/901 2013/11/27
 27 30  0  0  0  0  0  0  0  0999 V2000
   27.2979   37.9264   24.0049 N   0  0  0  0  0  0  0  0  0  0  0  0
   27.7115   38.7461   23.0704 C   0  0  0  0  0  0  0  0  0  0  0  0
   28.2653   39.9640   23.2966 N   0  0  0  0  0  0  0  0  0  0  0  0
   28.4591   40.3648   24.5884 C   0  0  0  0  0  0  0  0  0  0  0  0
   28.0837   39.5614   25.6267 C   0  0  0  0  0  0  0  0  0  0  0  0
   27.4600   38.2913   25.3407 C   0  0  0  0  0  0  0  0  0  0  0  0
   27.0459   37.5332   26.2265 O   0  0  0  0  0  0  0  0  0  0  0  0
   27.4472   38.4990   21.5689 C   0  0  2  0  0  0  0  0  0  0  0  0
   27.4973   36.9648   21.4834 C   0  0  0  0  0  0  0  0  0  0  0  0
   27.5154   36.4992   20.0956 N   0  0  0  0  0  0  0  0  0  0  0  0
   28.7346   36.9960   19.4376 C   0  0  0  0  0  0  0  0  0  0  0  0
   28.7380   38.5110   19.3826 C   0  0  0  0  0  0  0  0  0  0  0  0
   28.6174   39.1080   20.7779 C   0  0  0  0  0  0  0  0  0  0  0  0
   29.0998   41.6702   24.6764 C   0  0  0  0  0  0  0  0  0  0  0  0
   29.5731   42.3427   26.1926 S   0  0  0  0  0  0  0  0  0  0  0  0
   30.1453   43.7402   25.4643 C   0  0  0  0  0  0  0  0  0  0  0  0
   30.0339   43.6912   24.1309 C   0  0  0  0  0  0  0  0  0  0  0  0
   29.4272   42.5108   23.6592 C   0  0  0  0  0  0  0  0  0  0  0  0
   27.4472   35.0300   20.0066 C   0  0  0  0  0  0  0  0  0  0  0  0
   26.2136   34.4708   19.3336 C   0  0  0  0  0  0  0  0  0  0  0  0
   26.2358   33.2295   18.7145 C   0  0  0  0  0  0  0  0  0  0  0  0
   25.3301   32.8170   17.8092 N   0  0  0  0  0  0  0  0  0  0  0  0
   24.4085   33.7208   17.5120 C   0  0  0  0  0  0  0  0  0  0  0  0
   24.2806   34.9507   17.9837 N   0  0  0  0  0  0  0  0  0  0  0  0
   25.2153   35.3067   18.8772 C   0  0  0  0  0  0  0  0  0  0  0  0
   23.5149   33.3101   16.6049 O   0  0  0  0  0  0  0  0  0  0  0  0
   23.9527   33.2083   15.2449 C   0  0  0  0  0  0  0  0  0  0  0  0
  1  2  2  0  0  0  0
  1  6  1  0  0  0  0
  2  3  1  0  0  0  0
  3  4  2  0  0  0  0
  4 14  1  0  0  0  0
  5  4  1  0  0  0  0
  6  5  1  0  0  0  0
  7  6  2  0  0  0  0
  8  9  1  0  0  0  0
  8  2  1  1  0  0  0
 10 19  1  0  0  0  0
 10  9  1  0  0  0  0
 11 10  1  0  0  0  0
 12 11  1  0  0  0  0
 12 13  1  0  0  0  0
 13  8  1  0  0  0  0
 14 15  1  0  0  0  0
 14 18  2  0  0  0  0
 15 16  1  0  0  0  0
 16 17  2  0  0  0  0
 18 17  1  0  0  0  0
 19 20  1  0  0  0  0
 20 25  2  0  0  0  0
 20 21  1  0  0  0  0
 21 22  2  0  0  0  0
 22 23  1  0  0  0  0
 23 26  1  0  0  0  0
 24 23  2  0  0  0  0
 25 24  1  0  0  0  0
 26 27  1  0  0  0  0
M  END
>  <CHROM.1>
-174.85801769,-33.51409205,116.07509228,154.16321801,-73.05582040,27.39131823
37.88841873,21.68790229,0.78655572,1.04401302,1.48489133

>  <Name>
lig.pdb

>  <RI>
0

>  <Rbt.Current_Directory>
/home/itssahil/PROJECTS/Mol_Feturizer/New_Systems/rnas/5kx9

>  <Rbt.Executable>
rbdock ($Id: //depot/dev/client3/rdock/2013.1/src/exe/rbdock.cxx#4 $)

>  <Rbt.Library>
libRbt.so (2013.1, Build901 2013/11/27)

>  <Rbt.Parameter_File>
/export/apps/rDock/src/rDock_2013.1_src/data/scripts/dock_solv.prm

>  <Rbt.Receptor>
prm/blind_docking_80.prm

>  <SCORE>
-30.8533

>  <SCORE.INTER>
-28.4642

>  <SCORE.INTER.CONST>
1

>  <SCORE.INTER.POLAR>
0

>  <SCORE.INTER.ROT>
5

>  <SCORE.INTER.SOLV>
13.5545

>  <SCORE.INTER.VDW>
-30.4276

>  <SCORE.INTER.norm>
-1.05423

>  <SCORE.INTRA>
-2.38913

>  <SCORE.INTRA.DIHEDRAL>
5.46454

>  <SCORE.INTRA.DIHEDRAL.0>
2.68224

>  <SCORE.INTRA.POLAR>
0

>  <SCORE.INTRA.POLAR.0>
0

>  <SCORE.INTRA.REPUL>
0

>  <SCORE.INTRA.REPUL.0>
0

>  <SCORE.INTRA.SOLV>
-0.572601

>  <SCORE.INTRA.SOLV.lig_0>
-19.4148

>  <SCORE.INTRA.VDW>
-4.8351

>  <SCORE.INTRA.VDW.0>
5.42093

>  <SCORE.INTRA.norm>
-0.0884865

>  <SCORE.RESTR>
0

>  <SCORE.RESTR.CAVITY>
0

>  <SCORE.RESTR.norm>
0

>  <SCORE.SYSTEM>
0

>  <SCORE.SYSTEM.CONST>
0

>  <SCORE.SYSTEM.DIHEDRAL>
0

>  <SCORE.SYSTEM.SOLV>
0

>  <SCORE.SYSTEM.norm>
0

>  <SCORE.heavy>
27

>  <SCORE.norm>
-1.14272

>  <RMSD>
7.348

$$$$
lig.pdb
 OpenBabel11021811523D
libRbt.so/2013.1/901 2013/11/27
 27 30  0  0  0  0  0  0  0  0999 V2000
   27.3801   39.0449   20.7234 N   0  0  0  0  0  0  0  0  0  0  0  0
   27.8301   38.8755   21.9421 C   0  0  0  0  0  0  0  0  0  0  0  0
   28.3785   39.8513   22.7089 N   0  0  0  0  0  0  0  0  0  0  0  0
   28.4316   41.1226   22.2107 C   0  0  0  0  0  0  0  0  0  0  0  0
   27.9592   41.3964   20.9593 C   0  0  0  0  0  0  0  0  0  0  0  0
   27.4219   40.3201   20.1614 C   0  0  0  0  0  0  0  0  0  0  0  0
   27.0239   40.4799   19.0008 O   0  0  0  0  0  0  0  0  0  0  0  0
   27.9597   37.4823   22.5960 C   0  0  2  0  0  0  0  0  0  0  0  0
   27.7340   36.5446   21.3988 C   0  0  0  0  0  0  0  0  0  0  0  0
   27.5675   35.1534   21.8233 N   0  0  0  0  0  0  0  0  0  0  0  0
   26.3679   35.0493   22.6696 C   0  0  0  0  0  0  0  0  0  0  0  0
   26.5286   35.8684   23.9351 C   0  0  0  0  0  0  0  0  0  0  0  0
   26.8118   37.3280   23.6081 C   0  0  0  0  0  0  0  0  0  0  0  0
   29.0044   42.0688   23.1587 C   0  0  0  0  0  0  0  0  0  0  0  0
   29.1338   41.6972   24.8381 S   0  0  0  0  0  0  0  0  0  0  0  0
   29.8069   43.1940   25.1808 C   0  0  0  0  0  0  0  0  0  0  0  0
   29.9765   43.9312   24.0760 C   0  0  0  0  0  0  0  0  0  0  0  0
   29.5133   43.3034   22.9032 C   0  0  0  0  0  0  0  0  0  0  0  0
   27.4660   34.2355   20.6751 C   0  0  0  0  0  0  0  0  0  0  0  0
   26.5475   34.6811   19.5592 C   0  0  0  0  0  0  0  0  0  0  0  0
   25.2397   34.2245   19.4825 C   0  0  0  0  0  0  0  0  0  0  0  0
   24.4829   34.2741   18.3714 N   0  0  0  0  0  0  0  0  0  0  0  0
   25.1049   34.7696   17.3121 C   0  0  0  0  0  0  0  0  0  0  0  0
   26.3513   35.2045   17.2191 N   0  0  0  0  0  0  0  0  0  0  0  0
   27.0576   35.1245   18.3565 C   0  0  0  0  0  0  0  0  0  0  0  0
   24.3519   34.8091   16.2069 O   0  0  0  0  0  0  0  0  0  0  0  0
   24.0661   33.5650   15.5570 C   0  0  0  0  0  0  0  0  0  0  0  0
  1  2  2  0  0  0  0
  1  6  1  0  0  0  0
  2  3  1  0  0  0  0
  3  4  2  0  0  0  0
  4 14  1  0  0  0  0
  5  4  1  0  0  0  0
  6  5  1  0  0  0  0
  7  6  2  0  0  0  0
  8  9  1  0  0  0  0
  8  2  1  6  0  0  0
 10 19  1  0  0  0  0
 10  9  1  0  0  0  0
 11 10  1  0  0  0  0
 12 11  1  0  0  0  0
 12 13  1  0  0  0  0
 13  8  1  0  0  0  0
 14 15  1  0  0  0  0
 14 18  2  0  0  0  0
 15 16  1  0  0  0  0
 16 17  2  0  0  0  0
 18 17  1  0  0  0  0
 19 20  1  0  0  0  0
 20 25  2  0  0  0  0
 20 21  1  0  0  0  0
 21 22  2  0  0  0  0
 22 23  1  0  0  0  0
 23 26  1  0  0  0  0
 24 23  2  0  0  0  0
 25 24  1  0  0  0  0
 26 27  1  0  0  0  0
M  END
>  <CHROM.1>
-17.13835407,11.11435282,-45.41340335,-96.64984535,-72.49399833,27.28469451
38.02655819,21.10944768,0.17138721,-1.19422509,-0.74611237

>  <Name>
lig.pdb

>  <RI>
0

>  <Rbt.Current_Directory>
/home/itssahil/PROJECTS/Mol_Feturizer/New_Systems/rnas/5kx9

>  <Rbt.Executable>
rbdock ($Id: //depot/dev/client3/rdock/2013.1/src/exe/rbdock.cxx#4 $)

>  <Rbt.Library>
libRbt.so (2013.1, Build901 2013/11/27)

>  <Rbt.Parameter_File>
/export/apps/rDock/src/rDock_2013.1_src/data/scripts/dock_solv.prm

>  <Rbt.Receptor>
prm/pocket_docking_7.prm

>  <SCORE>
-34.3609

>  <SCORE.INTER>
-31.6186

>  <SCORE.INTER.CONST>
1

>  <SCORE.INTER.POLAR>
0

>  <SCORE.INTER.ROT>
5

>  <SCORE.INTER.SOLV>
11.1565

>  <SCORE.INTER.VDW>
-31.7312

>  <SCORE.INTER.norm>
-1.17106

>  <SCORE.INTRA>
-2.74237

>  <SCORE.INTRA.DIHEDRAL>
4.6664

>  <SCORE.INTRA.DIHEDRAL.0>
2.68224

>  <SCORE.INTRA.POLAR>
0

>  <SCORE.INTRA.POLAR.0>
0

>  <SCORE.INTRA.REPUL>
0

>  <SCORE.INTRA.REPUL.0>
0

>  <SCORE.INTRA.SOLV>
-0.597916

>  <SCORE.INTRA.SOLV.lig_0>
-19.4148

>  <SCORE.INTRA.VDW>
-4.77661

>  <SCORE.INTRA.VDW.0>
5.42093

>  <SCORE.INTRA.norm>
-0.101569

>  <SCORE.RESTR>
0

>  <SCORE.RESTR.CAVITY>
0

>  <SCORE.RESTR.norm>
0

>  <SCORE.SYSTEM>
0

>  <SCORE.SYSTEM.CONST>
0

>  <SCORE.SYSTEM.DIHEDRAL>
0

>  <SCORE.SYSTEM.SOLV>
0

>  <SCORE.SYSTEM.norm>
0

>  <SCORE.heavy>
27

>  <SCORE.norm>
-1.27263

>  <RMSD>
7.354

$$$$
lig.pdb
 OpenBabel11021811523D
libRbt.so/2013.1/901 2013/11/27
 27 30  0  0  0  0  0  0  0  0999 V2000
   29.1671   37.4357   16.5484 N   0  0  0  0  0  0  0  0  0  0  0  0
   28.8807   36.1825   16.8009 C   0  0  0  0  0  0  0  0  0  0  0  0
   29.6468   35.1234   16.4371 N   0  0  0  0  0  0  0  0  0  0  0  0
   30.8326   35.3615   15.8012 C   0  0  0  0  0  0  0  0  0  0  0  0
   31.2248   36.6393   15.5226 C   0  0  0  0  0  0  0  0  0  0  0  0
   30.3594   37.7346   15.8904 C   0  0  0  0  0  0  0  0  0  0  0  0
   30.6212   38.9143   15.6248 O   0  0  0  0  0  0  0  0  0  0  0  0
   27.5240   35.7409   17.3926 C   0  0  2  0  0  0  0  0  0  0  0  0
   27.9252   35.2787   18.8029 C   0  0  0  0  0  0  0  0  0  0  0  0
   26.8291   34.5810   19.4773 N   0  0  0  0  0  0  0  0  0  0  0  0
   26.4930   33.3660   18.7175 C   0  0  0  0  0  0  0  0  0  0  0  0
   25.9895   33.7192   17.3319 C   0  0  0  0  0  0  0  0  0  0  0  0
   27.0190   34.5429   16.5707 C   0  0  0  0  0  0  0  0  0  0  0  0
   31.5651   34.1361   15.5116 C   0  0  0  0  0  0  0  0  0  0  0  0
   33.1520   34.1715   14.8364 S   0  0  0  0  0  0  0  0  0  0  0  0
   33.2393   32.4977   14.7962 C   0  0  0  0  0  0  0  0  0  0  0  0
   32.1439   31.9269   15.3131 C   0  0  0  0  0  0  0  0  0  0  0  0
   31.1657   32.8538   15.7231 C   0  0  0  0  0  0  0  0  0  0  0  0
   27.1686   34.2374   20.8694 C   0  0  0  0  0  0  0  0  0  0  0  0
   26.9300   35.3276   21.8902 C   0  0  0  0  0  0  0  0  0  0  0  0
   27.6666   36.5030   21.8682 C   0  0  0  0  0  0  0  0  0  0  0  0
   27.7780   37.3480   22.9092 N   0  0  0  0  0  0  0  0  0  0  0  0
   27.1471   36.9484   24.0031 C   0  0  0  0  0  0  0  0  0  0  0  0
   26.4439   35.8428   24.1895 N   0  0  0  0  0  0  0  0  0  0  0  0
   26.3737   35.0379   23.1190 C   0  0  0  0  0  0  0  0  0  0  0  0
   27.2675   37.7868   25.0388 O   0  0  0  0  0  0  0  0  0  0  0  0
   26.1484   37.9083   25.9245 C   0  0  0  0  0  0  0  0  0  0  0  0
  1  2  2  0  0  0  0
  1  6  1  0  0  0  0
  2  3  1  0  0  0  0
  3  4  2  0  0  0  0
  4 14  1  0  0  0  0
  5  4  1  0  0  0  0
  6  5  1  0  0  0  0
  7  6  2  0  0  0  0
  8  9  1  0  0  0  0
  8  2  1  6  0  0  0
 10 19  1  0  0  0  0
 10  9  1  0  0  0  0
 11 10  1  0  0  0  0
 12 11  1  0  0  0  0
 12 13  1  0  0  0  0
 13  8  1  0  0  0  0
 14 15  1  0  0  0  0
 14 18  2  0  0  0  0
 15 16  1  0  0  0  0
 16 17  2  0  0  0  0
 18 17  1  0  0  0  0
 19 20  1  0  0  0  0
 20 25  2  0  0  0  0
 20 21  1  0  0  0  0
 21 22  2  0  0  0  0
 22 23  1  0  0  0  0
 23 26  1  0  0  0  0
 24 23  2  0  0  0  0
 25 24  1  0  0  0  0
 26 27  1  0  0  0  0
M  END
>  <CHROM.1>
-174.66245258,-110.99645933,84.75066995,-66.01291335,145.69499384,28.93725656
35.43156137,18.64990833,-0.69042262,0.87468170,0.58714052

>  <Name>
lig.pdb

>  <RI>
0

>  <Rbt.Current_Directory>
/home/itssahil/PROJECTS/Mol_Feturizer/New_Systems/rnas/5kx9

>  <Rbt.Executable>
rbdock ($Id: //depot/dev/client3/rdock/2013.1/src/exe/rbdock.cxx#4 $)

>  <Rbt.Library>
libRbt.so (2013.1, Build901 2013/11/27)

>  <Rbt.Parameter_File>
/export/apps/rDock/src/rDock_2013.1_src/data/scripts/dock_solv.prm

>  <Rbt.Receptor>
prm/blind_docking_60.prm

>  <SCORE>
-30.0284

>  <SCORE.INTER>
-25.9524

>  <SCORE.INTER.CONST>
1

>  <SCORE.INTER.POLAR>
0

>  <SCORE.INTER.ROT>
5

>  <SCORE.INTER.SOLV>
13.599

>  <SCORE.INTER.VDW>
-28.7679

>  <SCORE.INTER.norm>
-0.961201

>  <SCORE.INTRA>
-4.076

>  <SCORE.INTRA.DIHEDRAL>
1.87609

>  <SCORE.INTRA.DIHEDRAL.0>
2.68224

>  <SCORE.INTRA.POLAR>
0

>  <SCORE.INTRA.POLAR.0>
0

>  <SCORE.INTRA.REPUL>
0

>  <SCORE.INTRA.REPUL.0>
0

>  <SCORE.INTRA.SOLV>
-0.651412

>  <SCORE.INTRA.SOLV.lig_0>
-19.4148

>  <SCORE.INTRA.VDW>
-4.68834

>  <SCORE.INTRA.VDW.0>
5.42093

>  <SCORE.INTRA.norm>
-0.150963

>  <SCORE.RESTR>
0

>  <SCORE.RESTR.CAVITY>
0

>  <SCORE.RESTR.norm>
0

>  <SCORE.SYSTEM>
0

>  <SCORE.SYSTEM.CONST>
0

>  <SCORE.SYSTEM.DIHEDRAL>
0

>  <SCORE.SYSTEM.SOLV>
0

>  <SCORE.SYSTEM.norm>
0

>  <SCORE.heavy>
27

>  <SCORE.norm>
-1.11216

>  <RMSD>
7.371

$$$$
lig.pdb
 OpenBabel11021811523D
libRbt.so/2013.1/901 2013/11/27
 27 30  0  0  0  0  0  0  0  0999 V2000
   27.0681   39.8506   21.7544 N   0  0  0  0  0  0  0  0  0  0  0  0
   27.7650   39.4968   22.8058 C   0  0  0  0  0  0  0  0  0  0  0  0
   28.5215   40.3388   23.5540 N   0  0  0  0  0  0  0  0  0  0  0  0
   28.5339   41.6670   23.2331 C   0  0  0  0  0  0  0  0  0  0  0  0
   27.8138   42.1293   22.1691 C   0  0  0  0  0  0  0  0  0  0  0  0
   27.0556   41.1922   21.3750 C   0  0  0  0  0  0  0  0  0  0  0  0
   26.4217   41.5268   20.3666 O   0  0  0  0  0  0  0  0  0  0  0  0
   27.9581   38.0213   23.2193 C   0  0  2  0  0  0  0  0  0  0  0  0
   27.3451   37.2715   22.0253 C   0  0  0  0  0  0  0  0  0  0  0  0
   27.1922   35.8423   22.3029 N   0  0  0  0  0  0  0  0  0  0  0  0
   26.2617   35.6683   23.4298 C   0  0  0  0  0  0  0  0  0  0  0  0
   26.8216   36.2937   24.6922 C   0  0  0  0  0  0  0  0  0  0  0  0
   27.1181   37.7722   24.4835 C   0  0  0  0  0  0  0  0  0  0  0  0
   29.3525   42.4530   24.1465 C   0  0  0  0  0  0  0  0  0  0  0  0
   29.6321   41.9461   25.7713 S   0  0  0  0  0  0  0  0  0  0  0  0
   30.5554   43.3059   26.1022 C   0  0  0  0  0  0  0  0  0  0  0  0
   30.6940   44.0906   25.0261 C   0  0  0  0  0  0  0  0  0  0  0  0
   30.0022   43.6201   23.8929 C   0  0  0  0  0  0  0  0  0  0  0  0
   26.7133   35.1002   21.1234 C   0  0  0  0  0  0  0  0  0  0  0  0
   27.7306   34.8895   20.0243 C   0  0  0  0  0  0  0  0  0  0  0  0
   28.2118   35.9564   19.2795 C   0  0  0  0  0  0  0  0  0  0  0  0
   28.8214   35.8349   18.0864 N   0  0  0  0  0  0  0  0  0  0  0  0
   28.8988   34.5902   17.6401 C   0  0  0  0  0  0  0  0  0  0  0  0
   28.4539   33.4825   18.2115 N   0  0  0  0  0  0  0  0  0  0  0  0
   27.8506   33.6676   19.3950 C   0  0  0  0  0  0  0  0  0  0  0  0
   29.4977   34.4744   16.4493 O   0  0  0  0  0  0  0  0  0  0  0  0
   28.8673   33.6397   15.4707 C   0  0  0  0  0  0  0  0  0  0  0  0
  1  2  2  0  0  0  0
  1  6  1  0  0  0  0
  2  3  1  0  0  0  0
  3  4  2  0  0  0  0
  4 14  1  0  0  0  0
  5  4  1  0  0  0  0
  6  5  1  0  0  0  0
  7  6  2  0  0  0  0
  8  9  1  0  0  0  0
  8  2  1  6  0  0  0
 10 19  1  0  0  0  0
 10  9  1  0  0  0  0
 11 10  1  0  0  0  0
 12 11  1  0  0  0  0
 12 13  1  0  0  0  0
 13  8  1  0  0  0  0
 14 15  1  0  0  0  0
 14 18  2  0  0  0  0
 15 16  1  0  0  0  0
 16 17  2  0  0  0  0
 18 17  1  0  0  0  0
 19 20  1  0  0  0  0
 20 25  2  0  0  0  0
 20 21  1  0  0  0  0
 21 22  2  0  0  0  0
 22 23  1  0  0  0  0
 23 26  1  0  0  0  0
 24 23  2  0  0  0  0
 25 24  1  0  0  0  0
 26 27  1  0  0  0  0
M  END
>  <CHROM.1>
-26.39355533,7.82050410,73.74744539,-67.61434225,-134.11977987,28.24114197
38.41035700,21.83368900,-1.31247920,-1.19359035,-2.23077123

>  <Name>
lig.pdb

>  <RI>
0

>  <Rbt.Current_Directory>
/home/itssahil/PROJECTS/Mol_Feturizer/New_Systems/rnas/5kx9

>  <Rbt.Executable>
rbdock ($Id: //depot/dev/client3/rdock/2013.1/src/exe/rbdock.cxx#4 $)

>  <Rbt.Library>
libRbt.so (2013.1, Build901 2013/11/27)

>  <Rbt.Parameter_File>
/export/apps/rDock/src/rDock_2013.1_src/data/scripts/dock_solv.prm

>  <Rbt.Receptor>
prm/pocket_docking_8.prm

>  <SCORE>
-35.3944

>  <SCORE.INTER>
-32.8333

>  <SCORE.INTER.CONST>
1

>  <SCORE.INTER.POLAR>
0

>  <SCORE.INTER.ROT>
5

>  <SCORE.INTER.SOLV>
14.3771

>  <SCORE.INTER.VDW>
-33.6145

>  <SCORE.INTER.norm>
-1.21605

>  <SCORE.INTRA>
-2.5611

>  <SCORE.INTRA.DIHEDRAL>
4.47708

>  <SCORE.INTRA.DIHEDRAL.0>
2.68224

>  <SCORE.INTRA.POLAR>
0

>  <SCORE.INTRA.POLAR.0>
0

>  <SCORE.INTRA.REPUL>
0

>  <SCORE.INTRA.REPUL.0>
0

>  <SCORE.INTRA.SOLV>
-0.573992

>  <SCORE.INTRA.SOLV.lig_0>
-19.4148

>  <SCORE.INTRA.VDW>
-4.51264

>  <SCORE.INTRA.VDW.0>
5.42093

>  <SCORE.INTRA.norm>
-0.0948554

>  <SCORE.RESTR>
0

>  <SCORE.RESTR.CAVITY>
0

>  <SCORE.RESTR.norm>
0

>  <SCORE.SYSTEM>
0

>  <SCORE.SYSTEM.CONST>
0

>  <SCORE.SYSTEM.DIHEDRAL>
0

>  <SCORE.SYSTEM.SOLV>
0

>  <SCORE.SYSTEM.norm>
0

>  <SCORE.heavy>
27

>  <SCORE.norm>
-1.3109

>  <RMSD>
7.385

$$$$
lig.pdb
 OpenBabel11021811523D
libRbt.so/2013.1/901 2013/11/27
 27 30  0  0  0  0  0  0  0  0999 V2000
   27.0976   39.5304   21.2684 N   0  0  0  0  0  0  0  0  0  0  0  0
   27.6165   39.0897   22.3877 C   0  0  0  0  0  0  0  0  0  0  0  0
   28.0971   39.8771   23.3827 N   0  0  0  0  0  0  0  0  0  0  0  0
   27.9992   41.2334   23.2487 C   0  0  0  0  0  0  0  0  0  0  0  0
   27.4461   41.7805   22.1265 C   0  0  0  0  0  0  0  0  0  0  0  0
   26.9852   40.9065   21.0742 C   0  0  0  0  0  0  0  0  0  0  0  0
   26.5217   41.3281   20.0073 O   0  0  0  0  0  0  0  0  0  0  0  0
   27.9153   37.5947   22.6356 C   0  0  2  0  0  0  0  0  0  0  0  0
   27.7302   36.9945   21.2324 C   0  0  0  0  0  0  0  0  0  0  0  0
   27.7240   35.5309   21.2651 N   0  0  0  0  0  0  0  0  0  0  0  0
   26.5810   35.0729   22.0713 C   0  0  0  0  0  0  0  0  0  0  0  0
   26.7166   35.5341   23.5090 C   0  0  0  0  0  0  0  0  0  0  0  0
   26.8364   37.0498   23.5868 C   0  0  0  0  0  0  0  0  0  0  0  0
   28.5153   41.9465   24.4095 C   0  0  0  0  0  0  0  0  0  0  0  0
   29.0604   41.1080   25.8147 S   0  0  0  0  0  0  0  0  0  0  0  0
   29.4234   42.5414   26.6050 C   0  0  0  0  0  0  0  0  0  0  0  0
   29.1932   43.6107   25.8327 C   0  0  0  0  0  0  0  0  0  0  0  0
   28.6629   43.2887   24.5682 C   0  0  0  0  0  0  0  0  0  0  0  0
   27.6627   34.9500   19.9123 C   0  0  0  0  0  0  0  0  0  0  0  0
   26.2834   34.8653   19.2975 C   0  0  0  0  0  0  0  0  0  0  0  0
   25.6642   33.6408   19.0932 C   0  0  0  0  0  0  0  0  0  0  0  0
   24.6313   33.4437   18.2540 N   0  0  0  0  0  0  0  0  0  0  0  0
   24.2594   34.5257   17.5867 C   0  0  0  0  0  0  0  0  0  0  0  0
   24.7742   35.7437   17.6423 N   0  0  0  0  0  0  0  0  0  0  0  0
   25.8041   35.8770   18.4911 C   0  0  0  0  0  0  0  0  0  0  0  0
   23.2379   34.3237   16.7466 O   0  0  0  0  0  0  0  0  0  0  0  0
   23.5028   33.5822   15.5500 C   0  0  0  0  0  0  0  0  0  0  0  0
  1  2  2  0  0  0  0
  1  6  1  0  0  0  0
  2  3  1  0  0  0  0
  3  4  2  0  0  0  0
  4 14  1  0  0  0  0
  5  4  1  0  0  0  0
  6  5  1  0  0  0  0
  7  6  2  0  0  0  0
  8  9  1  0  0  0  0
  8  2  1  6  0  0  0
 10 19  1  0  0  0  0
 10  9  1  0  0  0  0
 11 10  1  0  0  0  0
 12 11  1  0  0  0  0
 12 13  1  0  0  0  0
 13  8  1  0  0  0  0
 14 15  1  0  0  0  0
 14 18  2  0  0  0  0
 15 16  1  0  0  0  0
 16 17  2  0  0  0  0
 18 17  1  0  0  0  0
 19 20  1  0  0  0  0
 20 25  2  0  0  0  0
 20 21  1  0  0  0  0
 21 22  2  0  0  0  0
 22 23  1  0  0  0  0
 23 26  1  0  0  0  0
 24 23  2  0  0  0  0
 25 24  1  0  0  0  0
 26 27  1  0  0  0  0
M  END
>  <CHROM.1>
-4.42134496,11.03444845,-82.35633455,-111.11443148,-72.62771988,26.94370469
38.04888291,21.53294610,0.67436923,-1.10298387,-0.10327547

>  <Name>
lig.pdb

>  <RI>
0

>  <Rbt.Current_Directory>
/home/itssahil/PROJECTS/Mol_Feturizer/New_Systems/rnas/5kx9

>  <Rbt.Executable>
rbdock ($Id: //depot/dev/client3/rdock/2013.1/src/exe/rbdock.cxx#4 $)

>  <Rbt.Library>
libRbt.so (2013.1, Build901 2013/11/27)

>  <Rbt.Parameter_File>
/export/apps/rDock/src/rDock_2013.1_src/data/scripts/dock_solv.prm

>  <Rbt.Receptor>
prm/pocket_docking_8.prm

>  <SCORE>
-35.2927

>  <SCORE.INTER>
-32.7564

>  <SCORE.INTER.CONST>
1

>  <SCORE.INTER.POLAR>
0

>  <SCORE.INTER.ROT>
5

>  <SCORE.INTER.SOLV>
13.3294

>  <SCORE.INTER.VDW>
-33.2141

>  <SCORE.INTER.norm>
-1.2132

>  <SCORE.INTRA>
-2.5363

>  <SCORE.INTRA.DIHEDRAL>
4.01585

>  <SCORE.INTRA.DIHEDRAL.0>
2.68224

>  <SCORE.INTRA.POLAR>
0

>  <SCORE.INTRA.POLAR.0>
0

>  <SCORE.INTRA.REPUL>
0

>  <SCORE.INTRA.REPUL.0>
0

>  <SCORE.INTRA.SOLV>
-0.589974

>  <SCORE.INTRA.SOLV.lig_0>
-19.4148

>  <SCORE.INTRA.VDW>
-4.24924

>  <SCORE.INTRA.VDW.0>
5.42093

>  <SCORE.INTRA.norm>
-0.0939371

>  <SCORE.RESTR>
0

>  <SCORE.RESTR.CAVITY>
0

>  <SCORE.RESTR.norm>
0

>  <SCORE.SYSTEM>
0

>  <SCORE.SYSTEM.CONST>
0

>  <SCORE.SYSTEM.DIHEDRAL>
0

>  <SCORE.SYSTEM.SOLV>
0

>  <SCORE.SYSTEM.norm>
0

>  <SCORE.heavy>
27

>  <SCORE.norm>
-1.30714

>  <RMSD>
7.400

$$$$
lig.pdb
 OpenBabel11021811523D
libRbt.so/2013.1/901 2013/11/27
 27 30  0  0  0  0  0  0  0  0999 V2000
   29.0460   42.6297   23.5898 N   0  0  0  0  0  0  0  0  0  0  0  0
   27.8243   42.2223   23.3496 C   0  0  0  0  0  0  0  0  0  0  0  0
   26.7649   42.4192   24.1743 N   0  0  0  0  0  0  0  0  0  0  0  0
   26.9542   43.1343   25.3232 C   0  0  0  0  0  0  0  0  0  0  0  0
   28.1897   43.6219   25.6399 C   0  0  0  0  0  0  0  0  0  0  0  0
   29.2978   43.3535   24.7546 C   0  0  0  0  0  0  0  0  0  0  0  0
   30.4549   43.7164   24.9998 O   0  0  0  0  0  0  0  0  0  0  0  0
   27.4731   41.2949   22.1656 C   0  0  2  0  0  0  0  0  0  0  0  0
   27.6721   39.9004   22.7815 C   0  0  0  0  0  0  0  0  0  0  0  0
   27.6317   38.8476   21.7649 N   0  0  0  0  0  0  0  0  0  0  0  0
   28.7407   39.0503   20.8187 C   0  0  0  0  0  0  0  0  0  0  0  0
   28.5861   40.3658   20.0813 C   0  0  0  0  0  0  0  0  0  0  0  0
   28.5120   41.5326   21.0564 C   0  0  0  0  0  0  0  0  0  0  0  0
   25.7235   43.3014   26.0844 C   0  0  0  0  0  0  0  0  0  0  0  0
   24.3221   42.3515   25.7541 S   0  0  0  0  0  0  0  0  0  0  0  0
   23.4374   43.1300   26.9465 C   0  0  0  0  0  0  0  0  0  0  0  0
   24.1726   44.0352   27.6046 C   0  0  0  0  0  0  0  0  0  0  0  0
   25.4889   44.1536   27.1174 C   0  0  0  0  0  0  0  0  0  0  0  0
   27.7065   37.5025   22.3617 C   0  0  0  0  0  0  0  0  0  0  0  0
   27.5362   36.3483   21.3993 C   0  0  0  0  0  0  0  0  0  0  0  0
   27.1584   36.5639   20.0819 C   0  0  0  0  0  0  0  0  0  0  0  0
   26.6474   35.6168   19.2746 N   0  0  0  0  0  0  0  0  0  0  0  0
   26.4893   34.4363   19.8542 C   0  0  0  0  0  0  0  0  0  0  0  0
   26.7621   34.0898   21.1020 N   0  0  0  0  0  0  0  0  0  0  0  0
   27.2629   35.0767   21.8595 C   0  0  0  0  0  0  0  0  0  0  0  0
   25.9727   33.4995   19.0508 O   0  0  0  0  0  0  0  0  0  0  0  0
   24.6379   33.7020   18.5722 C   0  0  0  0  0  0  0  0  0  0  0  0
  1  2  2  0  0  0  0
  1  6  1  0  0  0  0
  2  3  1  0  0  0  0
  3  4  2  0  0  0  0
  4 14  1  0  0  0  0
  5  4  1  0  0  0  0
  6  5  1  0  0  0  0
  7  6  2  0  0  0  0
  8  9  1  0  0  0  0
  8  2  1  1  0  0  0
 10 19  1  0  0  0  0
 10  9  1  0  0  0  0
 11 10  1  0  0  0  0
 12 11  1  0  0  0  0
 12 13  1  0  0  0  0
 13  8  1  0  0  0  0
 14 15  1  0  0  0  0
 14 18  2  0  0  0  0
 15 16  1  0  0  0  0
 16 17  2  0  0  0  0
 18 17  1  0  0  0  0
 19 20  1  0  0  0  0
 20 25  2  0  0  0  0
 20 21  1  0  0  0  0
 21 22  2  0  0  0  0
 22 23  1  0  0  0  0
 23 26  1  0  0  0  0
 24 23  2  0  0  0  0
 25 24  1  0  0  0  0
 26 27  1  0  0  0  0
M  END
>  <CHROM.1>
14.67798805,88.30708452,174.28263030,-8.19975296,-64.48283179,26.94267948
39.90404602,22.94739719,-1.59269328,-0.47881249,-2.53963626

>  <Name>
lig.pdb

>  <RI>
0

>  <Rbt.Current_Directory>
/home/itssahil/PROJECTS/Mol_Feturizer/New_Systems/rnas/5kx9

>  <Rbt.Executable>
rbdock ($Id: //depot/dev/client3/rdock/2013.1/src/exe/rbdock.cxx#4 $)

>  <Rbt.Library>
libRbt.so (2013.1, Build901 2013/11/27)

>  <Rbt.Parameter_File>
/export/apps/rDock/src/rDock_2013.1_src/data/scripts/dock_solv.prm

>  <Rbt.Receptor>
prm/pocket_docking_8.prm

>  <SCORE>
-34.9751

>  <SCORE.INTER>
-31.0442

>  <SCORE.INTER.CONST>
1

>  <SCORE.INTER.POLAR>
0

>  <SCORE.INTER.ROT>
5

>  <SCORE.INTER.SOLV>
12.7437

>  <SCORE.INTER.VDW>
-31.8774

>  <SCORE.INTER.norm>
-1.14978

>  <SCORE.INTRA>
-3.93091

>  <SCORE.INTRA.DIHEDRAL>
3.41944

>  <SCORE.INTRA.DIHEDRAL.0>
2.68224

>  <SCORE.INTRA.POLAR>
0

>  <SCORE.INTRA.POLAR.0>
0

>  <SCORE.INTRA.REPUL>
0

>  <SCORE.INTRA.REPUL.0>
0

>  <SCORE.INTRA.SOLV>
-0.480785

>  <SCORE.INTRA.SOLV.lig_0>
-19.4148

>  <SCORE.INTRA.VDW>
-5.40023

>  <SCORE.INTRA.VDW.0>
5.42093

>  <SCORE.INTRA.norm>
-0.145589

>  <SCORE.RESTR>
0

>  <SCORE.RESTR.CAVITY>
0

>  <SCORE.RESTR.norm>
0

>  <SCORE.SYSTEM>
0

>  <SCORE.SYSTEM.CONST>
0

>  <SCORE.SYSTEM.DIHEDRAL>
0

>  <SCORE.SYSTEM.SOLV>
0

>  <SCORE.SYSTEM.norm>
0

>  <SCORE.heavy>
27

>  <SCORE.norm>
-1.29537

>  <RMSD>
7.414

$$$$
lig.pdb
 OpenBabel11021811523D
libRbt.so/2013.1/901 2013/11/27
 27 30  0  0  0  0  0  0  0  0999 V2000
   26.4054   41.0483   23.6151 N   0  0  0  0  0  0  0  0  0  0  0  0
   27.0598   40.1181   22.9649 C   0  0  0  0  0  0  0  0  0  0  0  0
   27.0899   39.9910   21.6144 N   0  0  0  0  0  0  0  0  0  0  0  0
   26.4349   40.9192   20.8552 C   0  0  0  0  0  0  0  0  0  0  0  0
   25.7497   41.9405   21.4483 C   0  0  0  0  0  0  0  0  0  0  0  0
   25.7092   42.0141   22.8894 C   0  0  0  0  0  0  0  0  0  0  0  0
   25.0667   42.8781   23.4989 O   0  0  0  0  0  0  0  0  0  0  0  0
   27.7384   38.9260   23.6750 C   0  0  2  0  0  0  0  0  0  0  0  0
   27.1054   37.7233   22.9565 C   0  0  0  0  0  0  0  0  0  0  0  0
   27.4173   36.4624   23.6320 N   0  0  0  0  0  0  0  0  0  0  0  0
   26.8458   36.4893   24.9880 C   0  0  0  0  0  0  0  0  0  0  0  0
   27.4785   37.5891   25.8176 C   0  0  0  0  0  0  0  0  0  0  0  0
   27.3028   38.9460   25.1500 C   0  0  0  0  0  0  0  0  0  0  0  0
   26.5902   40.6802   19.4266 C   0  0  0  0  0  0  0  0  0  0  0  0
   27.2939   39.2243   18.8264 S   0  0  0  0  0  0  0  0  0  0  0  0
   27.1363   39.7306   17.2359 C   0  0  0  0  0  0  0  0  0  0  0  0
   26.5351   40.9238   17.1479 C   0  0  0  0  0  0  0  0  0  0  0  0
   26.2204   41.4897   18.3987 C   0  0  0  0  0  0  0  0  0  0  0  0
   26.9107   35.2975   22.8852 C   0  0  0  0  0  0  0  0  0  0  0  0
   26.9792   35.4050   21.3782 C   0  0  0  0  0  0  0  0  0  0  0  0
   26.4005   34.4420   20.5643 C   0  0  0  0  0  0  0  0  0  0  0  0
   26.7065   34.2619   19.2667 N   0  0  0  0  0  0  0  0  0  0  0  0
   27.6559   35.0678   18.8155 C   0  0  0  0  0  0  0  0  0  0  0  0
   28.3250   36.0002   19.4747 N   0  0  0  0  0  0  0  0  0  0  0  0
   27.9805   36.1290   20.7645 C   0  0  0  0  0  0  0  0  0  0  0  0
   27.9637   34.8797   17.5271 O   0  0  0  0  0  0  0  0  0  0  0  0
   28.4500   36.0088   16.7921 C   0  0  0  0  0  0  0  0  0  0  0  0
  1  2  2  0  0  0  0
  1  6  1  0  0  0  0
  2  3  1  0  0  0  0
  3  4  2  0  0  0  0
  4 14  1  0  0  0  0
  5  4  1  0  0  0  0
  6  5  1  0  0  0  0
  7  6  2  0  0  0  0
  8  9  1  0  0  0  0
  8  2  1  6  0  0  0
 10 19  1  0  0  0  0
 10  9  1  0  0  0  0
 11 10  1  0  0  0  0
 12 11  1  0  0  0  0
 12 13  1  0  0  0  0
 13  8  1  0  0  0  0
 14 15  1  0  0  0  0
 14 18  2  0  0  0  0
 15 16  1  0  0  0  0
 16 17  2  0  0  0  0
 18 17  1  0  0  0  0
 19 20  1  0  0  0  0
 20 25  2  0  0  0  0
 20 21  1  0  0  0  0
 21 22  2  0  0  0  0
 22 23  1  0  0  0  0
 23 26  1  0  0  0  0
 24 23  2  0  0  0  0
 25 24  1  0  0  0  0
 26 27  1  0  0  0  0
M  END
>  <CHROM.1>
9.91980712,124.74895483,36.35179162,-172.81282171,151.16791913,27.00442440
38.33336797,21.07003082,2.66390153,-1.37094951,1.84024293

>  <Name>
lig.pdb

>  <RI>
0

>  <Rbt.Current_Directory>
/home/itssahil/PROJECTS/Mol_Feturizer/New_Systems/rnas/5kx9

>  <Rbt.Executable>
rbdock ($Id: //depot/dev/client3/rdock/2013.1/src/exe/rbdock.cxx#4 $)

>  <Rbt.Library>
libRbt.so (2013.1, Build901 2013/11/27)

>  <Rbt.Parameter_File>
/export/apps/rDock/src/rDock_2013.1_src/data/scripts/dock_solv.prm

>  <Rbt.Receptor>
prm/blind_docking_80.prm

>  <SCORE>
-29.0695

>  <SCORE.INTER>
-27.8453

>  <SCORE.INTER.CONST>
1

>  <SCORE.INTER.POLAR>
0

>  <SCORE.INTER.ROT>
5

>  <SCORE.INTER.SOLV>
13.958

>  <SCORE.INTER.VDW>
-30.1495

>  <SCORE.INTER.norm>
-1.03131

>  <SCORE.INTRA>
-1.22413

>  <SCORE.INTRA.DIHEDRAL>
1.6965

>  <SCORE.INTRA.DIHEDRAL.0>
2.68224

>  <SCORE.INTRA.POLAR>
0

>  <SCORE.INTRA.POLAR.0>
0

>  <SCORE.INTRA.REPUL>
0

>  <SCORE.INTRA.REPUL.0>
0

>  <SCORE.INTRA.SOLV>
0.0151731

>  <SCORE.INTRA.SOLV.lig_0>
-19.4148

>  <SCORE.INTRA.VDW>
-2.07997

>  <SCORE.INTRA.VDW.0>
5.42093

>  <SCORE.INTRA.norm>
-0.0453383

>  <SCORE.RESTR>
0

>  <SCORE.RESTR.CAVITY>
0

>  <SCORE.RESTR.norm>
0

>  <SCORE.SYSTEM>
0

>  <SCORE.SYSTEM.CONST>
0

>  <SCORE.SYSTEM.DIHEDRAL>
0

>  <SCORE.SYSTEM.SOLV>
0

>  <SCORE.SYSTEM.norm>
0

>  <SCORE.heavy>
27

>  <SCORE.norm>
-1.07665

>  <RMSD>
7.420

$$$$
lig.pdb
 OpenBabel11021811523D
libRbt.so/2013.1/901 2013/11/27
 27 30  0  0  0  0  0  0  0  0999 V2000
   27.3963   37.9736   24.0049 N   0  0  0  0  0  0  0  0  0  0  0  0
   27.7922   38.8418   23.1073 C   0  0  0  0  0  0  0  0  0  0  0  0
   28.3329   40.0545   23.3868 N   0  0  0  0  0  0  0  0  0  0  0  0
   28.5321   40.3961   24.6948 C   0  0  0  0  0  0  0  0  0  0  0  0
   28.1750   39.5398   25.6965 C   0  0  0  0  0  0  0  0  0  0  0  0
   27.5647   38.2769   25.3553 C   0  0  0  0  0  0  0  0  0  0  0  0
   27.1670   37.4725   26.2072 O   0  0  0  0  0  0  0  0  0  0  0  0
   27.5190   38.6627   21.5977 C   0  0  2  0  0  0  0  0  0  0  0  0
   27.4401   37.1330   21.4661 C   0  0  0  0  0  0  0  0  0  0  0  0
   27.4288   36.7090   20.0649 N   0  0  0  0  0  0  0  0  0  0  0  0
   28.6903   37.1202   19.4281 C   0  0  0  0  0  0  0  0  0  0  0  0
   28.8220   38.6304   19.4190 C   0  0  0  0  0  0  0  0  0  0  0  0
   28.7422   39.1937   20.8311 C   0  0  0  0  0  0  0  0  0  0  0  0
   29.1573   41.7039   24.8398 C   0  0  0  0  0  0  0  0  0  0  0  0
   29.4804   42.7062   23.4737 S   0  0  0  0  0  0  0  0  0  0  0  0
   30.1702   43.8963   24.4322 C   0  0  0  0  0  0  0  0  0  0  0  0
   30.1196   43.5830   25.7330 C   0  0  0  0  0  0  0  0  0  0  0  0
   29.5472   42.3213   25.9867 C   0  0  0  0  0  0  0  0  0  0  0  0
   27.2375   35.2541   19.9312 C   0  0  0  0  0  0  0  0  0  0  0  0
   26.3223   34.8138   18.8104 C   0  0  0  0  0  0  0  0  0  0  0  0
   25.0044   34.4593   19.0593 C   0  0  0  0  0  0  0  0  0  0  0  0
   24.2421   33.7353   18.2198 N   0  0  0  0  0  0  0  0  0  0  0  0
   24.8685   33.3394   17.1219 C   0  0  0  0  0  0  0  0  0  0  0  0
   26.1237   33.5612   16.7659 N   0  0  0  0  0  0  0  0  0  0  0  0
   26.8348   34.2827   17.6448 C   0  0  0  0  0  0  0  0  0  0  0  0
   24.1099   32.6122   16.2938 O   0  0  0  0  0  0  0  0  0  0  0  0
   24.0140   33.0466   14.9322 C   0  0  0  0  0  0  0  0  0  0  0  0
  1  2  2  0  0  0  0
  1  6  1  0  0  0  0
  2  3  1  0  0  0  0
  3  4  2  0  0  0  0
  4 14  1  0  0  0  0
  5  4  1  0  0  0  0
  6  5  1  0  0  0  0
  7  6  2  0  0  0  0
  8  9  1  0  0  0  0
  8  2  1  1  0  0  0
 10 19  1  0  0  0  0
 10  9  1  0  0  0  0
 11 10  1  0  0  0  0
 12 11  1  0  0  0  0
 12 13  1  0  0  0  0
 13  8  1  0  0  0  0
 14 15  1  0  0  0  0
 14 18  2  0  0  0  0
 15 16  1  0  0  0  0
 16 17  2  0  0  0  0
 18 17  1  0  0  0  0
 19 20  1  0  0  0  0
 20 25  2  0  0  0  0
 20 21  1  0  0  0  0
 21 22  2  0  0  0  0
 22 23  1  0  0  0  0
 23 26  1  0  0  0  0
 24 23  2  0  0  0  0
 25 24  1  0  0  0  0
 26 27  1  0  0  0  0
M  END
>  <CHROM.1>
4.03225717,-27.80756172,139.56496386,-100.12479386,126.11969809,27.49708377
37.91300461,21.46000646,0.84616529,1.03983381,1.41427587

>  <Name>
lig.pdb

>  <RI>
0

>  <Rbt.Current_Directory>
/home/itssahil/PROJECTS/Mol_Feturizer/New_Systems/rnas/5kx9

>  <Rbt.Executable>
rbdock ($Id: //depot/dev/client3/rdock/2013.1/src/exe/rbdock.cxx#4 $)

>  <Rbt.Library>
libRbt.so (2013.1, Build901 2013/11/27)

>  <Rbt.Parameter_File>
/export/apps/rDock/src/rDock_2013.1_src/data/scripts/dock_solv.prm

>  <Rbt.Receptor>
prm/pocket_docking_6.prm

>  <SCORE>
-30.2768

>  <SCORE.INTER>
-26.9132

>  <SCORE.INTER.CONST>
1

>  <SCORE.INTER.POLAR>
0

>  <SCORE.INTER.ROT>
5

>  <SCORE.INTER.SOLV>
12.5087

>  <SCORE.INTER.VDW>
-29.045

>  <SCORE.INTER.norm>
-0.996786

>  <SCORE.INTRA>
-3.36361

>  <SCORE.INTRA.DIHEDRAL>
3.44597

>  <SCORE.INTRA.DIHEDRAL.0>
2.68224

>  <SCORE.INTRA.POLAR>
0

>  <SCORE.INTRA.POLAR.0>
0

>  <SCORE.INTRA.REPUL>
0

>  <SCORE.INTRA.REPUL.0>
0

>  <SCORE.INTRA.SOLV>
-0.615731

>  <SCORE.INTRA.SOLV.lig_0>
-19.4148

>  <SCORE.INTRA.VDW>
-4.77873

>  <SCORE.INTRA.VDW.0>
5.42093

>  <SCORE.INTRA.norm>
-0.124578

>  <SCORE.RESTR>
0

>  <SCORE.RESTR.CAVITY>
0

>  <SCORE.RESTR.norm>
0

>  <SCORE.SYSTEM>
0

>  <SCORE.SYSTEM.CONST>
0

>  <SCORE.SYSTEM.DIHEDRAL>
0

>  <SCORE.SYSTEM.SOLV>
0

>  <SCORE.SYSTEM.norm>
0

>  <SCORE.heavy>
27

>  <SCORE.norm>
-1.12136

>  <RMSD>
7.434

$$$$
lig.pdb
 OpenBabel11021811523D
libRbt.so/2013.1/901 2013/11/27
 27 30  0  0  0  0  0  0  0  0999 V2000
   27.3792   37.6802   23.9236 N   0  0  0  0  0  0  0  0  0  0  0  0
   27.7070   38.5064   22.9613 C   0  0  0  0  0  0  0  0  0  0  0  0
   28.1743   39.7667   23.1467 N   0  0  0  0  0  0  0  0  0  0  0  0
   28.3702   40.2104   24.4241 C   0  0  0  0  0  0  0  0  0  0  0  0
   28.0819   39.4056   25.4888 C   0  0  0  0  0  0  0  0  0  0  0  0
   27.5474   38.0868   25.2467 C   0  0  0  0  0  0  0  0  0  0  0  0
   27.2132   37.3208   26.1591 O   0  0  0  0  0  0  0  0  0  0  0  0
   27.4241   38.2058   21.4729 C   0  0  2  0  0  0  0  0  0  0  0  0
   27.5211   36.6721   21.4321 C   0  0  0  0  0  0  0  0  0  0  0  0
   27.5293   36.1654   20.0586 N   0  0  0  0  0  0  0  0  0  0  0  0
   28.7204   36.6796   19.3636 C   0  0  0  0  0  0  0  0  0  0  0  0
   28.6750   38.1916   19.2636 C   0  0  0  0  0  0  0  0  0  0  0  0
   28.5604   38.8265   20.6425 C   0  0  0  0  0  0  0  0  0  0  0  0
   28.9140   41.5612   24.4673 C   0  0  0  0  0  0  0  0  0  0  0  0
   29.1921   42.4685   23.0270 S   0  0  0  0  0  0  0  0  0  0  0  0
   29.7980   43.7714   23.8908 C   0  0  0  0  0  0  0  0  0  0  0  0
   29.7512   43.5609   25.2123 C   0  0  0  0  0  0  0  0  0  0  0  0
   29.2527   42.2911   25.5632 C   0  0  0  0  0  0  0  0  0  0  0  0
   27.5059   34.6927   20.0146 C   0  0  0  0  0  0  0  0  0  0  0  0
   26.7323   34.0837   18.8666 C   0  0  0  0  0  0  0  0  0  0  0  0
   26.3462   34.8502   17.7765 C   0  0  0  0  0  0  0  0  0  0  0  0
   25.3798   34.5013   16.9081 N   0  0  0  0  0  0  0  0  0  0  0  0
   24.7771   33.3576   17.1966 C   0  0  0  0  0  0  0  0  0  0  0  0
   25.0037   32.5426   18.2143 N   0  0  0  0  0  0  0  0  0  0  0  0
   25.9733   32.9461   19.0485 C   0  0  0  0  0  0  0  0  0  0  0  0
   23.8107   33.0185   16.3357 O   0  0  0  0  0  0  0  0  0  0  0  0
   24.1234   33.0658   14.9387 C   0  0  0  0  0  0  0  0  0  0  0  0
  1  2  2  0  0  0  0
  1  6  1  0  0  0  0
  2  3  1  0  0  0  0
  3  4  2  0  0  0  0
  4 14  1  0  0  0  0
  5  4  1  0  0  0  0
  6  5  1  0  0  0  0
  7  6  2  0  0  0  0
  8  9  1  0  0  0  0
  8  2  1  1  0  0  0
 10 19  1  0  0  0  0
 10  9  1  0  0  0  0
 11 10  1  0  0  0  0
 12 11  1  0  0  0  0
 12 13  1  0  0  0  0
 13  8  1  0  0  0  0
 14 15  1  0  0  0  0
 14 18  2  0  0  0  0
 15 16  1  0  0  0  0
 16 17  2  0  0  0  0
 18 17  1  0  0  0  0
 19 20  1  0  0  0  0
 20 25  2  0  0  0  0
 20 21  1  0  0  0  0
 21 22  2  0  0  0  0
 22 23  1  0  0  0  0
 23 26  1  0  0  0  0
 24 23  2  0  0  0  0
 25 24  1  0  0  0  0
 26 27  1  0  0  0  0
M  END
>  <CHROM.1>
2.43027326,-30.97593165,145.23455743,14.30654039,49.30991184,27.43507350
37.66361947,21.32035424,0.63755705,1.16111491,1.62562391

>  <Name>
lig.pdb

>  <RI>
0

>  <Rbt.Current_Directory>
/home/itssahil/PROJECTS/Mol_Feturizer/New_Systems/rnas/5kx9

>  <Rbt.Executable>
rbdock ($Id: //depot/dev/client3/rdock/2013.1/src/exe/rbdock.cxx#4 $)

>  <Rbt.Library>
libRbt.so (2013.1, Build901 2013/11/27)

>  <Rbt.Parameter_File>
/export/apps/rDock/src/rDock_2013.1_src/data/scripts/dock_solv.prm

>  <Rbt.Receptor>
prm/pocket_docking_6.prm

>  <SCORE>
-31.4675

>  <SCORE.INTER>
-28.5253

>  <SCORE.INTER.CONST>
1

>  <SCORE.INTER.POLAR>
0

>  <SCORE.INTER.ROT>
5

>  <SCORE.INTER.SOLV>
13.6815

>  <SCORE.INTER.VDW>
-30.5107

>  <SCORE.INTER.norm>
-1.05649

>  <SCORE.INTRA>
-2.94225

>  <SCORE.INTRA.DIHEDRAL>
2.66316

>  <SCORE.INTRA.DIHEDRAL.0>
2.68224

>  <SCORE.INTRA.POLAR>
0

>  <SCORE.INTRA.POLAR.0>
0

>  <SCORE.INTRA.REPUL>
0

>  <SCORE.INTRA.REPUL.0>
0

>  <SCORE.INTRA.SOLV>
-0.493344

>  <SCORE.INTRA.SOLV.lig_0>
-19.4148

>  <SCORE.INTRA.VDW>
-4.02716

>  <SCORE.INTRA.VDW.0>
5.42093

>  <SCORE.INTRA.norm>
-0.108972

>  <SCORE.RESTR>
0

>  <SCORE.RESTR.CAVITY>
0

>  <SCORE.RESTR.norm>
0

>  <SCORE.SYSTEM>
0

>  <SCORE.SYSTEM.CONST>
0

>  <SCORE.SYSTEM.DIHEDRAL>
0

>  <SCORE.SYSTEM.SOLV>
0

>  <SCORE.SYSTEM.norm>
0

>  <SCORE.heavy>
27

>  <SCORE.norm>
-1.16546

>  <RMSD>
7.441

$$$$
lig.pdb
 OpenBabel11021811523D
libRbt.so/2013.1/901 2013/11/27
 27 30  0  0  0  0  0  0  0  0999 V2000
   26.8641   40.1491   21.6081 N   0  0  0  0  0  0  0  0  0  0  0  0
   27.6408   39.5920   22.5039 C   0  0  0  0  0  0  0  0  0  0  0  0
   28.2904   40.2600   23.4903 N   0  0  0  0  0  0  0  0  0  0  0  0
   28.0964   41.6077   23.6053 C   0  0  0  0  0  0  0  0  0  0  0  0
   27.2803   42.2670   22.7315 C   0  0  0  0  0  0  0  0  0  0  0  0
   26.6416   41.5240   21.6714 C   0  0  0  0  0  0  0  0  0  0  0  0
   25.9313   42.0593   20.8112 O   0  0  0  0  0  0  0  0  0  0  0  0
   28.0629   38.1079   22.4332 C   0  0  2  0  0  0  0  0  0  0  0  0
   27.5661   37.7001   21.0366 C   0  0  0  0  0  0  0  0  0  0  0  0
   27.6382   36.2517   20.8368 N   0  0  0  0  0  0  0  0  0  0  0  0
   26.7529   35.5878   21.8072 C   0  0  0  0  0  0  0  0  0  0  0  0
   27.2169   35.8494   23.2266 C   0  0  0  0  0  0  0  0  0  0  0  0
   27.2795   37.3432   23.5137 C   0  0  0  0  0  0  0  0  0  0  0  0
   28.8211   42.1806   24.7316 C   0  0  0  0  0  0  0  0  0  0  0  0
   29.3000   41.2178   26.0803 S   0  0  0  0  0  0  0  0  0  0  0  0
   29.9833   42.5366   26.8580 C   0  0  0  0  0  0  0  0  0  0  0  0
   29.9028   43.6503   26.1190 C   0  0  0  0  0  0  0  0  0  0  0  0
   29.2301   43.4669   24.8951 C   0  0  0  0  0  0  0  0  0  0  0  0
   27.2727   35.8663   19.4623 C   0  0  0  0  0  0  0  0  0  0  0  0
   28.3518   35.1624   18.6703 C   0  0  0  0  0  0  0  0  0  0  0  0
   29.2122   35.8715   17.8447 C   0  0  0  0  0  0  0  0  0  0  0  0
   29.9425   35.3208   16.8581 N   0  0  0  0  0  0  0  0  0  0  0  0
   29.7483   34.0202   16.6995 C   0  0  0  0  0  0  0  0  0  0  0  0
   28.9380   33.2213   17.3753 N   0  0  0  0  0  0  0  0  0  0  0  0
   28.2324   33.8280   18.3411 C   0  0  0  0  0  0  0  0  0  0  0  0
   30.4696   33.4778   15.7117 O   0  0  0  0  0  0  0  0  0  0  0  0
   31.0607   32.1955   15.9521 C   0  0  0  0  0  0  0  0  0  0  0  0
  1  2  2  0  0  0  0
  1  6  1  0  0  0  0
  2  3  1  0  0  0  0
  3  4  2  0  0  0  0
  4 14  1  0  0  0  0
  5  4  1  0  0  0  0
  6  5  1  0  0  0  0
  7  6  2  0  0  0  0
  8  9  1  0  0  0  0
  8  2  1  1  0  0  0
 10 19  1  0  0  0  0
 10  9  1  0  0  0  0
 11 10  1  0  0  0  0
 12 11  1  0  0  0  0
 12 13  1  0  0  0  0
 13  8  1  0  0  0  0
 14 15  1  0  0  0  0
 14 18  2  0  0  0  0
 15 16  1  0  0  0  0
 16 17  2  0  0  0  0
 18 17  1  0  0  0  0
 19 20  1  0  0  0  0
 20 25  2  0  0  0  0
 20 21  1  0  0  0  0
 21 22  2  0  0  0  0
 22 23  1  0  0  0  0
 23 26  1  0  0  0  0
 24 23  2  0  0  0  0
 25 24  1  0  0  0  0
 26 27  1  0  0  0  0
M  END
>  <CHROM.1>
-23.13272067,9.54631336,118.99427288,-93.26089343,138.89307196,28.40271729
38.23490816,21.44829247,1.74037855,-1.16337772,0.90530967

>  <Name>
lig.pdb

>  <RI>
0

>  <Rbt.Current_Directory>
/home/itssahil/PROJECTS/Mol_Feturizer/New_Systems/rnas/5kx9

>  <Rbt.Executable>
rbdock ($Id: //depot/dev/client3/rdock/2013.1/src/exe/rbdock.cxx#4 $)

>  <Rbt.Library>
libRbt.so (2013.1, Build901 2013/11/27)

>  <Rbt.Parameter_File>
/export/apps/rDock/src/rDock_2013.1_src/data/scripts/dock_solv.prm

>  <Rbt.Receptor>
prm/blind_docking_60.prm

>  <SCORE>
-32.1944

>  <SCORE.INTER>
-29.8234

>  <SCORE.INTER.CONST>
1

>  <SCORE.INTER.POLAR>
0

>  <SCORE.INTER.ROT>
5

>  <SCORE.INTER.SOLV>
14.1869

>  <SCORE.INTER.VDW>
-31.5446

>  <SCORE.INTER.norm>
-1.10457

>  <SCORE.INTRA>
-2.37098

>  <SCORE.INTRA.DIHEDRAL>
5.22845

>  <SCORE.INTRA.DIHEDRAL.0>
2.68224

>  <SCORE.INTRA.POLAR>
0

>  <SCORE.INTRA.POLAR.0>
0

>  <SCORE.INTRA.REPUL>
0

>  <SCORE.INTRA.REPUL.0>
0

>  <SCORE.INTRA.SOLV>
-0.622814

>  <SCORE.INTRA.SOLV.lig_0>
-19.4148

>  <SCORE.INTRA.VDW>
-4.6738

>  <SCORE.INTRA.VDW.0>
5.42093

>  <SCORE.INTRA.norm>
-0.0878142

>  <SCORE.RESTR>
0

>  <SCORE.RESTR.CAVITY>
0

>  <SCORE.RESTR.norm>
0

>  <SCORE.SYSTEM>
0

>  <SCORE.SYSTEM.CONST>
0

>  <SCORE.SYSTEM.DIHEDRAL>
0

>  <SCORE.SYSTEM.SOLV>
0

>  <SCORE.SYSTEM.norm>
0

>  <SCORE.heavy>
27

>  <SCORE.norm>
-1.19239

>  <RMSD>
7.444

$$$$
lig.pdb
 OpenBabel11021811523D
libRbt.so/2013.1/901 2013/11/27
 27 30  0  0  0  0  0  0  0  0999 V2000
   26.4806   41.0470   23.5728 N   0  0  0  0  0  0  0  0  0  0  0  0
   27.1042   40.1220   22.8860 C   0  0  0  0  0  0  0  0  0  0  0  0
   27.0750   40.0076   21.5343 N   0  0  0  0  0  0  0  0  0  0  0  0
   26.3893   40.9440   20.8132 C   0  0  0  0  0  0  0  0  0  0  0  0
   25.7326   41.9607   21.4453 C   0  0  0  0  0  0  0  0  0  0  0  0
   25.7553   42.0206   22.8874 C   0  0  0  0  0  0  0  0  0  0  0  0
   25.1417   42.8799   23.5324 O   0  0  0  0  0  0  0  0  0  0  0  0
   27.8108   38.9222   23.5545 C   0  0  2  0  0  0  0  0  0  0  0  0
   27.1457   37.7273   22.8521 C   0  0  0  0  0  0  0  0  0  0  0  0
   27.4844   36.4594   23.5010 N   0  0  0  0  0  0  0  0  0  0  0  0
   26.9717   36.4735   24.8806 C   0  0  0  0  0  0  0  0  0  0  0  0
   27.6411   37.5644   25.6930 C   0  0  0  0  0  0  0  0  0  0  0  0
   27.4389   38.9280   25.0470 C   0  0  0  0  0  0  0  0  0  0  0  0
   26.4815   40.7183   19.3770 C   0  0  0  0  0  0  0  0  0  0  0  0
   27.0555   39.2245   18.7333 S   0  0  0  0  0  0  0  0  0  0  0  0
   26.8865   39.7679   17.1562 C   0  0  0  0  0  0  0  0  0  0  0  0
   26.3735   41.0037   17.1050 C   0  0  0  0  0  0  0  0  0  0  0  0
   26.1412   41.5702   18.3735 C   0  0  0  0  0  0  0  0  0  0  0  0
   26.9445   35.3025   22.7653 C   0  0  0  0  0  0  0  0  0  0  0  0
   26.9480   35.4250   21.2579 C   0  0  0  0  0  0  0  0  0  0  0  0
   26.2179   34.5503   20.4664 C   0  0  0  0  0  0  0  0  0  0  0  0
   26.4334   34.3558   19.1528 N   0  0  0  0  0  0  0  0  0  0  0  0
   27.4477   35.0508   18.6600 C   0  0  0  0  0  0  0  0  0  0  0  0
   28.2558   35.8869   19.2919 N   0  0  0  0  0  0  0  0  0  0  0  0
   27.9956   36.0350   20.5992 C   0  0  0  0  0  0  0  0  0  0  0  0
   27.6645   34.8480   17.3554 O   0  0  0  0  0  0  0  0  0  0  0  0
   27.7499   36.0027   16.5122 C   0  0  0  0  0  0  0  0  0  0  0  0
  1  2  2  0  0  0  0
  1  6  1  0  0  0  0
  2  3  1  0  0  0  0
  3  4  2  0  0  0  0
  4 14  1  0  0  0  0
  5  4  1  0  0  0  0
  6  5  1  0  0  0  0
  7  6  2  0  0  0  0
  8  9  1  0  0  0  0
  8  2  1  6  0  0  0
 10 19  1  0  0  0  0
 10  9  1  0  0  0  0
 11 10  1  0  0  0  0
 12 11  1  0  0  0  0
 12 13  1  0  0  0  0
 13  8  1  0  0  0  0
 14 15  1  0  0  0  0
 14 18  2  0  0  0  0
 15 16  1  0  0  0  0
 16 17  2  0  0  0  0
 18 17  1  0  0  0  0
 19 20  1  0  0  0  0
 20 25  2  0  0  0  0
 20 21  1  0  0  0  0
 21 22  2  0  0  0  0
 22 23  1  0  0  0  0
 23 26  1  0  0  0  0
 24 23  2  0  0  0  0
 25 24  1  0  0  0  0
 26 27  1  0  0  0  0
M  END
>  <CHROM.1>
14.15567124,124.80534921,36.33589560,-166.04042900,128.07275058,26.92807778
38.34002224,20.97275766,2.35062635,-1.38963257,1.54215490

>  <Name>
lig.pdb

>  <RI>
0

>  <Rbt.Current_Directory>
/home/itssahil/PROJECTS/Mol_Feturizer/New_Systems/rnas/5kx9

>  <Rbt.Executable>
rbdock ($Id: //depot/dev/client3/rdock/2013.1/src/exe/rbdock.cxx#4 $)

>  <Rbt.Library>
libRbt.so (2013.1, Build901 2013/11/27)

>  <Rbt.Parameter_File>
/export/apps/rDock/src/rDock_2013.1_src/data/scripts/dock_solv.prm

>  <Rbt.Receptor>
prm/pocket_docking_5.prm

>  <SCORE>
-29.3898

>  <SCORE.INTER>
-27.607

>  <SCORE.INTER.CONST>
1

>  <SCORE.INTER.POLAR>
0

>  <SCORE.INTER.ROT>
5

>  <SCORE.INTER.SOLV>
13.6484

>  <SCORE.INTER.VDW>
-29.8875

>  <SCORE.INTER.norm>
-1.02248

>  <SCORE.INTRA>
-1.78282

>  <SCORE.INTRA.DIHEDRAL>
3.93292

>  <SCORE.INTRA.DIHEDRAL.0>
2.68224

>  <SCORE.INTRA.POLAR>
0

>  <SCORE.INTRA.POLAR.0>
0

>  <SCORE.INTRA.REPUL>
0

>  <SCORE.INTRA.REPUL.0>
0

>  <SCORE.INTRA.SOLV>
-0.0742202

>  <SCORE.INTRA.SOLV.lig_0>
-19.4148

>  <SCORE.INTRA.VDW>
-3.71217

>  <SCORE.INTRA.VDW.0>
5.42093

>  <SCORE.INTRA.norm>
-0.0660303

>  <SCORE.RESTR>
0

>  <SCORE.RESTR.CAVITY>
0

>  <SCORE.RESTR.norm>
0

>  <SCORE.SYSTEM>
0

>  <SCORE.SYSTEM.CONST>
0

>  <SCORE.SYSTEM.DIHEDRAL>
0

>  <SCORE.SYSTEM.SOLV>
0

>  <SCORE.SYSTEM.norm>
0

>  <SCORE.heavy>
27

>  <SCORE.norm>
-1.08851

>  <RMSD>
7.447

$$$$
lig.pdb
 OpenBabel11021811523D
libRbt.so/2013.1/901 2013/11/27
 27 30  0  0  0  0  0  0  0  0999 V2000
   29.6091   43.1800   24.9940 N   0  0  0  0  0  0  0  0  0  0  0  0
   29.0167   42.0674   25.3508 C   0  0  0  0  0  0  0  0  0  0  0  0
   29.4468   41.2417   26.3378 N   0  0  0  0  0  0  0  0  0  0  0  0
   30.5509   41.6023   27.0576 C   0  0  0  0  0  0  0  0  0  0  0  0
   31.2153   42.7607   26.7730 C   0  0  0  0  0  0  0  0  0  0  0  0
   30.7476   43.5889   25.6872 C   0  0  0  0  0  0  0  0  0  0  0  0
   31.3268   44.6244   25.3361 O   0  0  0  0  0  0  0  0  0  0  0  0
   27.8405   41.4581   24.5565 C   0  0  2  0  0  0  0  0  0  0  0  0
   28.5679   40.7385   23.4090 C   0  0  0  0  0  0  0  0  0  0  0  0
   27.6353   40.2842   22.3760 N   0  0  0  0  0  0  0  0  0  0  0  0
   26.9689   41.4543   21.7818 C   0  0  0  0  0  0  0  0  0  0  0  0
   26.1389   42.1857   22.8183 C   0  0  0  0  0  0  0  0  0  0  0  0
   26.9974   42.6176   23.9990 C   0  0  0  0  0  0  0  0  0  0  0  0
   30.8682   40.6444   28.1083 C   0  0  0  0  0  0  0  0  0  0  0  0
   29.8072   39.3390   28.4896 S   0  0  0  0  0  0  0  0  0  0  0  0
   30.8158   38.7954   29.7137 C   0  0  0  0  0  0  0  0  0  0  0  0
   31.9311   39.5305   29.8066 C   0  0  0  0  0  0  0  0  0  0  0  0
   31.9756   40.6041   28.8959 C   0  0  0  0  0  0  0  0  0  0  0  0
   28.3118   39.4945   21.3320 C   0  0  0  0  0  0  0  0  0  0  0  0
   27.7979   38.0850   21.1404 C   0  0  0  0  0  0  0  0  0  0  0  0
   27.5159   37.2714   22.2282 C   0  0  0  0  0  0  0  0  0  0  0  0
   27.4040   35.9322   22.1650 N   0  0  0  0  0  0  0  0  0  0  0  0
   27.6264   35.4246   20.9619 C   0  0  0  0  0  0  0  0  0  0  0  0
   27.9430   36.0620   19.8461 N   0  0  0  0  0  0  0  0  0  0  0  0
   28.0459   37.3933   19.9728 C   0  0  0  0  0  0  0  0  0  0  0  0
   27.5230   34.0919   20.9049 O   0  0  0  0  0  0  0  0  0  0  0  0
   27.0055   33.5201   19.6979 C   0  0  0  0  0  0  0  0  0  0  0  0
  1  2  2  0  0  0  0
  1  6  1  0  0  0  0
  2  3  1  0  0  0  0
  3  4  2  0  0  0  0
  4 14  1  0  0  0  0
  5  4  1  0  0  0  0
  6  5  1  0  0  0  0
  7  6  2  0  0  0  0
  8  9  1  0  0  0  0
  8  2  1  1  0  0  0
 10 19  1  0  0  0  0
 10  9  1  0  0  0  0
 11 10  1  0  0  0  0
 12 11  1  0  0  0  0
 12 13  1  0  0  0  0
 13  8  1  0  0  0  0
 14 15  1  0  0  0  0
 14 18  2  0  0  0  0
 15 16  1  0  0  0  0
 16 17  2  0  0  0  0
 18 17  1  0  0  0  0
 19 20  1  0  0  0  0
 20 25  2  0  0  0  0
 20 21  1  0  0  0  0
 21 22  2  0  0  0  0
 22 23  1  0  0  0  0
 23 26  1  0  0  0  0
 24 23  2  0  0  0  0
 25 24  1  0  0  0  0
 26 27  1  0  0  0  0
M  END
>  <CHROM.1>
-7.74545749,80.77666582,121.20336754,-43.68189492,145.74635510,28.92612566
39.73126578,24.34895760,0.63851270,-1.12401543,0.02407832

>  <Name>
lig.pdb

>  <RI>
0

>  <Rbt.Current_Directory>
/home/itssahil/PROJECTS/Mol_Feturizer/New_Systems/rnas/5kx9

>  <Rbt.Executable>
rbdock ($Id: //depot/dev/client3/rdock/2013.1/src/exe/rbdock.cxx#4 $)

>  <Rbt.Library>
libRbt.so (2013.1, Build901 2013/11/27)

>  <Rbt.Parameter_File>
/export/apps/rDock/src/rDock_2013.1_src/data/scripts/dock_solv.prm

>  <Rbt.Receptor>
prm/pocket_docking_7.prm

>  <SCORE>
-36.9114

>  <SCORE.INTER>
-32.8748

>  <SCORE.INTER.CONST>
1

>  <SCORE.INTER.POLAR>
0

>  <SCORE.INTER.ROT>
5

>  <SCORE.INTER.SOLV>
14.9791

>  <SCORE.INTER.VDW>
-33.8429

>  <SCORE.INTER.norm>
-1.21758

>  <SCORE.INTRA>
-4.03663

>  <SCORE.INTRA.DIHEDRAL>
3.52883

>  <SCORE.INTRA.DIHEDRAL.0>
2.68224

>  <SCORE.INTRA.POLAR>
0

>  <SCORE.INTRA.POLAR.0>
0

>  <SCORE.INTRA.REPUL>
0

>  <SCORE.INTRA.REPUL.0>
0

>  <SCORE.INTRA.SOLV>
-0.614298

>  <SCORE.INTRA.SOLV.lig_0>
-19.4148

>  <SCORE.INTRA.VDW>
-5.49389

>  <SCORE.INTRA.VDW.0>
5.42093

>  <SCORE.INTRA.norm>
-0.149505

>  <SCORE.RESTR>
0

>  <SCORE.RESTR.CAVITY>
0

>  <SCORE.RESTR.norm>
0

>  <SCORE.SYSTEM>
0

>  <SCORE.SYSTEM.CONST>
0

>  <SCORE.SYSTEM.DIHEDRAL>
0

>  <SCORE.SYSTEM.SOLV>
0

>  <SCORE.SYSTEM.norm>
0

>  <SCORE.heavy>
27

>  <SCORE.norm>
-1.36709

>  <RMSD>
7.463

$$$$
lig.pdb
 OpenBabel11021811523D
libRbt.so/2013.1/901 2013/11/27
 27 30  0  0  0  0  0  0  0  0999 V2000
   25.9342   42.1180   21.2952 N   0  0  0  0  0  0  0  0  0  0  0  0
   27.2385   42.0221   21.2187 C   0  0  0  0  0  0  0  0  0  0  0  0
   27.9489   42.0115   20.0628 N   0  0  0  0  0  0  0  0  0  0  0  0
   27.2782   42.1584   18.8814 C   0  0  0  0  0  0  0  0  0  0  0  0
   25.9195   42.2932   18.8683 C   0  0  0  0  0  0  0  0  0  0  0  0
   25.1991   42.2574   20.1187 C   0  0  0  0  0  0  0  0  0  0  0  0
   23.9651   42.3203   20.1837 O   0  0  0  0  0  0  0  0  0  0  0  0
   28.1251   41.7211   22.4471 C   0  0  2  0  0  0  0  0  0  0  0  0
   27.2824   40.6809   23.2028 C   0  0  0  0  0  0  0  0  0  0  0  0
   27.8136   40.4219   24.5422 N   0  0  0  0  0  0  0  0  0  0  0  0
   27.7543   41.6629   25.3311 C   0  0  0  0  0  0  0  0  0  0  0  0
   28.6360   42.7333   24.7187 C   0  0  0  0  0  0  0  0  0  0  0  0
   28.2348   43.0117   23.2768 C   0  0  0  0  0  0  0  0  0  0  0  0
   28.1721   42.1712   17.7312 C   0  0  0  0  0  0  0  0  0  0  0  0
   27.5735   42.3642   16.1251 S   0  0  0  0  0  0  0  0  0  0  0  0
   29.1123   42.2434   15.4707 C   0  0  0  0  0  0  0  0  0  0  0  0
   30.0499   42.1124   16.4177 C   0  0  0  0  0  0  0  0  0  0  0  0
   29.5272   42.0609   17.7247 C   0  0  0  0  0  0  0  0  0  0  0  0
   27.0793   39.3435   25.2271 C   0  0  0  0  0  0  0  0  0  0  0  0
   27.1219   37.9906   24.5523 C   0  0  0  0  0  0  0  0  0  0  0  0
   27.5163   37.8626   23.2284 C   0  0  0  0  0  0  0  0  0  0  0  0
   27.2518   36.7918   22.4581 N   0  0  0  0  0  0  0  0  0  0  0  0
   26.5330   35.8551   23.0585 C   0  0  0  0  0  0  0  0  0  0  0  0
   26.0525   35.8512   24.2916 N   0  0  0  0  0  0  0  0  0  0  0  0
   26.3435   36.9468   25.0083 C   0  0  0  0  0  0  0  0  0  0  0  0
   26.2643   34.7958   22.2865 O   0  0  0  0  0  0  0  0  0  0  0  0
   27.2086   34.4695   21.2601 C   0  0  0  0  0  0  0  0  0  0  0  0
  1  2  2  0  0  0  0
  1  6  1  0  0  0  0
  2  3  1  0  0  0  0
  3  4  2  0  0  0  0
  4 14  1  0  0  0  0
  5  4  1  0  0  0  0
  6  5  1  0  0  0  0
  7  6  2  0  0  0  0
  8  9  1  0  0  0  0
  8  2  1  6  0  0  0
 10 19  1  0  0  0  0
 10  9  1  0  0  0  0
 11 10  1  0  0  0  0
 12 11  1  0  0  0  0
 12 13  1  0  0  0  0
 13  8  1  0  0  0  0
 14 15  1  0  0  0  0
 14 18  2  0  0  0  0
 15 16  1  0  0  0  0
 16 17  2  0  0  0  0
 18 17  1  0  0  0  0
 19 20  1  0  0  0  0
 20 25  2  0  0  0  0
 20 21  1  0  0  0  0
 21 22  2  0  0  0  0
 22 23  1  0  0  0  0
 23 26  1  0  0  0  0
 24 23  2  0  0  0  0
 25 24  1  0  0  0  0
 26 27  1  0  0  0  0
M  END
>  <CHROM.1>
-179.24044294,39.31718950,61.28124033,-16.15140867,28.89079541,27.28531771
40.29071038,21.22926271,-0.32808975,1.44298081,1.00019285

>  <Name>
lig.pdb

>  <RI>
0

>  <Rbt.Current_Directory>
/home/itssahil/PROJECTS/Mol_Feturizer/New_Systems/rnas/5kx9

>  <Rbt.Executable>
rbdock ($Id: //depot/dev/client3/rdock/2013.1/src/exe/rbdock.cxx#4 $)

>  <Rbt.Library>
libRbt.so (2013.1, Build901 2013/11/27)

>  <Rbt.Parameter_File>
/export/apps/rDock/src/rDock_2013.1_src/data/scripts/dock_solv.prm

>  <Rbt.Receptor>
prm/blind_docking_100.prm

>  <SCORE>
-36.4444

>  <SCORE.INTER>
-34.5079

>  <SCORE.INTER.CONST>
1

>  <SCORE.INTER.POLAR>
0

>  <SCORE.INTER.ROT>
5

>  <SCORE.INTER.SOLV>
18.2965

>  <SCORE.INTER.VDW>
-36.0375

>  <SCORE.INTER.norm>
-1.27807

>  <SCORE.INTRA>
-1.9365

>  <SCORE.INTRA.DIHEDRAL>
0.449263

>  <SCORE.INTRA.DIHEDRAL.0>
2.68224

>  <SCORE.INTRA.POLAR>
0

>  <SCORE.INTRA.POLAR.0>
0

>  <SCORE.INTRA.REPUL>
0

>  <SCORE.INTRA.REPUL.0>
0

>  <SCORE.INTRA.SOLV>
-0.413446

>  <SCORE.INTRA.SOLV.lig_0>
-19.4148

>  <SCORE.INTRA.VDW>
-1.95441

>  <SCORE.INTRA.VDW.0>
5.42093

>  <SCORE.INTRA.norm>
-0.0717223

>  <SCORE.RESTR>
0

>  <SCORE.RESTR.CAVITY>
0

>  <SCORE.RESTR.norm>
0

>  <SCORE.SYSTEM>
0

>  <SCORE.SYSTEM.CONST>
0

>  <SCORE.SYSTEM.DIHEDRAL>
0

>  <SCORE.SYSTEM.SOLV>
0

>  <SCORE.SYSTEM.norm>
0

>  <SCORE.heavy>
27

>  <SCORE.norm>
-1.34979

>  <RMSD>
7.478

$$$$
lig.pdb
 OpenBabel11021811523D
libRbt.so/2013.1/901 2013/11/27
 27 30  0  0  0  0  0  0  0  0999 V2000
   26.9644   36.9468   22.8187 N   0  0  0  0  0  0  0  0  0  0  0  0
   27.4731   37.8938   22.0699 C   0  0  0  0  0  0  0  0  0  0  0  0
   27.9058   39.0958   22.5271 N   0  0  0  0  0  0  0  0  0  0  0  0
   27.8607   39.3393   23.8709 C   0  0  0  0  0  0  0  0  0  0  0  0
   27.3716   38.3971   24.7296 C   0  0  0  0  0  0  0  0  0  0  0  0
   26.8831   37.1480   24.1960 C   0  0  0  0  0  0  0  0  0  0  0  0
   26.3779   36.2682   24.9042 O   0  0  0  0  0  0  0  0  0  0  0  0
   27.4735   37.8259   20.5269 C   0  0  2  0  0  0  0  0  0  0  0  0
   27.3257   36.3169   20.2730 C   0  0  0  0  0  0  0  0  0  0  0  0
   27.5477   35.9793   18.8658 N   0  0  0  0  0  0  0  0  0  0  0  0
   28.9284   36.3331   18.4987 C   0  0  0  0  0  0  0  0  0  0  0  0
   29.1528   37.8273   18.6227 C   0  0  0  0  0  0  0  0  0  0  0  0
   28.8480   38.3096   20.0342 C   0  0  0  0  0  0  0  0  0  0  0  0
   28.3959   40.6491   24.2179 C   0  0  0  0  0  0  0  0  0  0  0  0
   28.5173   41.1687   25.8581 S   0  0  0  0  0  0  0  0  0  0  0  0
   29.1438   42.6564   25.4054 C   0  0  0  0  0  0  0  0  0  0  0  0
   29.3045   42.7491   24.0793 C   0  0  0  0  0  0  0  0  0  0  0  0
   28.8723   41.6064   23.3782 C   0  0  0  0  0  0  0  0  0  0  0  0
   27.2948   34.5532   18.5949 C   0  0  0  0  0  0  0  0  0  0  0  0
   26.1516   34.2586   17.6495 C   0  0  0  0  0  0  0  0  0  0  0  0
   25.0391   33.5450   18.0712 C   0  0  0  0  0  0  0  0  0  0  0  0
   24.1668   32.9412   17.2439 N   0  0  0  0  0  0  0  0  0  0  0  0
   24.4744   33.0459   15.9598 C   0  0  0  0  0  0  0  0  0  0  0  0
   25.5137   33.6533   15.4100 N   0  0  0  0  0  0  0  0  0  0  0  0
   26.3504   34.2312   16.2846 C   0  0  0  0  0  0  0  0  0  0  0  0
   23.6095   32.4366   15.1408 O   0  0  0  0  0  0  0  0  0  0  0  0
   23.3050   33.0848   13.9003 C   0  0  0  0  0  0  0  0  0  0  0  0
  1  2  2  0  0  0  0
  1  6  1  0  0  0  0
  2  3  1  0  0  0  0
  3  4  2  0  0  0  0
  4 14  1  0  0  0  0
  5  4  1  0  0  0  0
  6  5  1  0  0  0  0
  7  6  2  0  0  0  0
  8  9  1  0  0  0  0
  8  2  1  1  0  0  0
 10 19  1  0  0  0  0
 10  9  1  0  0  0  0
 11 10  1  0  0  0  0
 12 11  1  0  0  0  0
 12 13  1  0  0  0  0
 13  8  1  0  0  0  0
 14 15  1  0  0  0  0
 14 18  2  0  0  0  0
 15 16  1  0  0  0  0
 16 17  2  0  0  0  0
 18 17  1  0  0  0  0
 19 20  1  0  0  0  0
 20 25  2  0  0  0  0
 20 21  1  0  0  0  0
 21 22  2  0  0  0  0
 22 23  1  0  0  0  0
 23 26  1  0  0  0  0
 24 23  2  0  0  0  0
 25 24  1  0  0  0  0
 26 27  1  0  0  0  0
M  END
>  <CHROM.1>
-177.19416573,-21.81086956,116.20280417,-117.45912376,141.94693051,27.07993535
37.10211563,20.67796378,1.07928627,0.89386385,1.27005920

>  <Name>
lig.pdb

>  <RI>
0

>  <Rbt.Current_Directory>
/home/itssahil/PROJECTS/Mol_Feturizer/New_Systems/rnas/5kx9

>  <Rbt.Executable>
rbdock ($Id: //depot/dev/client3/rdock/2013.1/src/exe/rbdock.cxx#4 $)

>  <Rbt.Library>
libRbt.so (2013.1, Build901 2013/11/27)

>  <Rbt.Parameter_File>
/export/apps/rDock/src/rDock_2013.1_src/data/scripts/dock_solv.prm

>  <Rbt.Receptor>
prm/blind_docking_100.prm

>  <SCORE>
-29.126

>  <SCORE.INTER>
-26.1611

>  <SCORE.INTER.CONST>
1

>  <SCORE.INTER.POLAR>
0

>  <SCORE.INTER.ROT>
5

>  <SCORE.INTER.SOLV>
13.0294

>  <SCORE.INTER.VDW>
-28.7172

>  <SCORE.INTER.norm>
-0.96893

>  <SCORE.INTRA>
-2.96484

>  <SCORE.INTRA.DIHEDRAL>
2.87774

>  <SCORE.INTRA.DIHEDRAL.0>
2.68224

>  <SCORE.INTRA.POLAR>
0

>  <SCORE.INTRA.POLAR.0>
0

>  <SCORE.INTRA.REPUL>
0

>  <SCORE.INTRA.REPUL.0>
0

>  <SCORE.INTRA.SOLV>
-0.66226

>  <SCORE.INTRA.SOLV.lig_0>
-19.4148

>  <SCORE.INTRA.VDW>
-4.07258

>  <SCORE.INTRA.VDW.0>
5.42093

>  <SCORE.INTRA.norm>
-0.109809

>  <SCORE.RESTR>
0

>  <SCORE.RESTR.CAVITY>
0

>  <SCORE.RESTR.norm>
0

>  <SCORE.SYSTEM>
0

>  <SCORE.SYSTEM.CONST>
0

>  <SCORE.SYSTEM.DIHEDRAL>
0

>  <SCORE.SYSTEM.SOLV>
0

>  <SCORE.SYSTEM.norm>
0

>  <SCORE.heavy>
27

>  <SCORE.norm>
-1.07874

>  <RMSD>
7.485

$$$$
lig.pdb
 OpenBabel11021811523D
libRbt.so/2013.1/901 2013/11/27
 27 30  0  0  0  0  0  0  0  0999 V2000
   27.2997   37.5501   23.7765 N   0  0  0  0  0  0  0  0  0  0  0  0
   27.6411   38.3700   22.8135 C   0  0  0  0  0  0  0  0  0  0  0  0
   28.0945   39.6357   22.9969 N   0  0  0  0  0  0  0  0  0  0  0  0
   28.2602   40.0927   24.2739 C   0  0  0  0  0  0  0  0  0  0  0  0
   27.9560   39.2954   25.3398 C   0  0  0  0  0  0  0  0  0  0  0  0
   27.4369   37.9701   25.0989 C   0  0  0  0  0  0  0  0  0  0  0  0
   27.0897   37.2099   26.0112 O   0  0  0  0  0  0  0  0  0  0  0  0
   27.3917   38.0536   21.3224 C   0  0  2  0  0  0  0  0  0  0  0  0
   27.3285   36.5176   21.3276 C   0  0  0  0  0  0  0  0  0  0  0  0
   27.3416   35.9696   19.9700 N   0  0  0  0  0  0  0  0  0  0  0  0
   28.6087   36.3350   19.3165 C   0  0  0  0  0  0  0  0  0  0  0  0
   28.7270   37.8396   19.1737 C   0  0  0  0  0  0  0  0  0  0  0  0
   28.6213   38.5263   20.5283 C   0  0  0  0  0  0  0  0  0  0  0  0
   28.7925   41.4481   24.3158 C   0  0  0  0  0  0  0  0  0  0  0  0
   29.1185   42.3345   22.8725 S   0  0  0  0  0  0  0  0  0  0  0  0
   29.6820   43.6556   23.7374 C   0  0  0  0  0  0  0  0  0  0  0  0
   29.5868   43.4657   25.0595 C   0  0  0  0  0  0  0  0  0  0  0  0
   29.0843   42.1978   25.4118 C   0  0  0  0  0  0  0  0  0  0  0  0
   27.1654   34.5067   19.9648 C   0  0  0  0  0  0  0  0  0  0  0  0
   26.4587   33.9363   18.7554 C   0  0  0  0  0  0  0  0  0  0  0  0
   26.1786   34.7269   17.6504 C   0  0  0  0  0  0  0  0  0  0  0  0
   25.2677   34.4198   16.7092 N   0  0  0  0  0  0  0  0  0  0  0  0
   24.6089   33.2936   16.9377 C   0  0  0  0  0  0  0  0  0  0  0  0
   24.7337   32.4605   17.9584 N   0  0  0  0  0  0  0  0  0  0  0  0
   25.6522   32.8225   18.8663 C   0  0  0  0  0  0  0  0  0  0  0  0
   23.6977   32.9962   16.0043 O   0  0  0  0  0  0  0  0  0  0  0  0
   24.1373   32.9520   14.6418 C   0  0  0  0  0  0  0  0  0  0  0  0
  1  2  2  0  0  0  0
  1  6  1  0  0  0  0
  2  3  1  0  0  0  0
  3  4  2  0  0  0  0
  4 14  1  0  0  0  0
  5  4  1  0  0  0  0
  6  5  1  0  0  0  0
  7  6  2  0  0  0  0
  8  9  1  0  0  0  0
  8  2  1  1  0  0  0
 10 19  1  0  0  0  0
 10  9  1  0  0  0  0
 11 10  1  0  0  0  0
 12 11  1  0  0  0  0
 12 13  1  0  0  0  0
 13  8  1  0  0  0  0
 14 15  1  0  0  0  0
 14 18  2  0  0  0  0
 15 16  1  0  0  0  0
 16 17  2  0  0  0  0
 18 17  1  0  0  0  0
 19 20  1  0  0  0  0
 20 25  2  0  0  0  0
 20 21  1  0  0  0  0
 21 22  2  0  0  0  0
 22 23  1  0  0  0  0
 23 26  1  0  0  0  0
 24 23  2  0  0  0  0
 25 24  1  0  0  0  0
 26 27  1  0  0  0  0
M  END
>  <CHROM.1>
1.38642655,-24.28256217,148.99343821,8.94061512,53.79687096,27.30935943,37.52112871
21.16339501,0.64842075,1.15401873,1.61930636

>  <Name>
lig.pdb

>  <RI>
0

>  <Rbt.Current_Directory>
/home/itssahil/PROJECTS/Mol_Feturizer/New_Systems/rnas/5kx9

>  <Rbt.Executable>
rbdock ($Id: //depot/dev/client3/rdock/2013.1/src/exe/rbdock.cxx#4 $)

>  <Rbt.Library>
libRbt.so (2013.1, Build901 2013/11/27)

>  <Rbt.Parameter_File>
/export/apps/rDock/src/rDock_2013.1_src/data/scripts/dock_solv.prm

>  <Rbt.Receptor>
prm/blind_docking_80.prm

>  <SCORE>
-31.6393

>  <SCORE.INTER>
-28.5774

>  <SCORE.INTER.CONST>
1

>  <SCORE.INTER.POLAR>
0

>  <SCORE.INTER.ROT>
5

>  <SCORE.INTER.SOLV>
13.6449

>  <SCORE.INTER.VDW>
-30.5332

>  <SCORE.INTER.norm>
-1.05842

>  <SCORE.INTRA>
-3.06184

>  <SCORE.INTRA.DIHEDRAL>
2.84488

>  <SCORE.INTRA.DIHEDRAL.0>
2.68224

>  <SCORE.INTRA.POLAR>
0

>  <SCORE.INTRA.POLAR.0>
0

>  <SCORE.INTRA.REPUL>
0

>  <SCORE.INTRA.REPUL.0>
0

>  <SCORE.INTRA.SOLV>
-0.497178

>  <SCORE.INTRA.SOLV.lig_0>
-19.4148

>  <SCORE.INTRA.VDW>
-4.23569

>  <SCORE.INTRA.VDW.0>
5.42093

>  <SCORE.INTRA.norm>
-0.113402

>  <SCORE.RESTR>
0

>  <SCORE.RESTR.CAVITY>
0

>  <SCORE.RESTR.norm>
0

>  <SCORE.SYSTEM>
0

>  <SCORE.SYSTEM.CONST>
0

>  <SCORE.SYSTEM.DIHEDRAL>
0

>  <SCORE.SYSTEM.SOLV>
0

>  <SCORE.SYSTEM.norm>
0

>  <SCORE.heavy>
27

>  <SCORE.norm>
-1.17182

>  <RMSD>
7.507

$$$$
lig.pdb
 OpenBabel11021811523D
libRbt.so/2013.1/901 2013/11/27
 27 30  0  0  0  0  0  0  0  0999 V2000
   26.8561   40.1031   22.5430 N   0  0  0  0  0  0  0  0  0  0  0  0
   27.7639   39.3836   21.9312 C   0  0  0  0  0  0  0  0  0  0  0  0
   28.3861   39.7368   20.7783 N   0  0  0  0  0  0  0  0  0  0  0  0
   28.0938   40.9504   20.2225 C   0  0  0  0  0  0  0  0  0  0  0  0
   27.1797   41.7785   20.8083 C   0  0  0  0  0  0  0  0  0  0  0  0
   26.5107   41.3451   22.0118 C   0  0  0  0  0  0  0  0  0  0  0  0
   25.6340   42.0161   22.5703 O   0  0  0  0  0  0  0  0  0  0  0  0
   28.1090   37.9397   22.3575 C   0  0  2  0  0  0  0  0  0  0  0  0
   27.3889   37.1082   21.2834 C   0  0  0  0  0  0  0  0  0  0  0  0
   27.3702   35.6841   21.6220 N   0  0  0  0  0  0  0  0  0  0  0  0
   26.6165   35.4971   22.8723 C   0  0  0  0  0  0  0  0  0  0  0  0
   27.3017   36.2039   24.0252 C   0  0  0  0  0  0  0  0  0  0  0  0
   27.4686   37.6887   23.7333 C   0  0  0  0  0  0  0  0  0  0  0  0
   28.8668   41.2110   19.0156 C   0  0  0  0  0  0  0  0  0  0  0  0
   29.9547   40.0384   18.3700 S   0  0  0  0  0  0  0  0  0  0  0  0
   30.4104   41.0586   17.1200 C   0  0  0  0  0  0  0  0  0  0  0  0
   29.7406   42.2177   17.1506 C   0  0  0  0  0  0  0  0  0  0  0  0
   28.8532   42.3270   18.2390 C   0  0  0  0  0  0  0  0  0  0  0  0
   26.7841   34.8690   20.5434 C   0  0  0  0  0  0  0  0  0  0  0  0
   27.5220   34.9003   19.2236 C   0  0  0  0  0  0  0  0  0  0  0  0
   27.9549   33.7301   18.6171 C   0  0  0  0  0  0  0  0  0  0  0  0
   28.9003   33.6757   17.6616 N   0  0  0  0  0  0  0  0  0  0  0  0
   29.4334   34.8495   17.3573 C   0  0  0  0  0  0  0  0  0  0  0  0
   29.1570   36.0366   17.8730 N   0  0  0  0  0  0  0  0  0  0  0  0
   28.2116   36.0265   18.8243 C   0  0  0  0  0  0  0  0  0  0  0  0
   30.3794   34.7902   16.4131 O   0  0  0  0  0  0  0  0  0  0  0  0
   31.5296   35.6281   16.5763 C   0  0  0  0  0  0  0  0  0  0  0  0
  1  2  2  0  0  0  0
  1  6  1  0  0  0  0
  2  3  1  0  0  0  0
  3  4  2  0  0  0  0
  4 14  1  0  0  0  0
  5  4  1  0  0  0  0
  6  5  1  0  0  0  0
  7  6  2  0  0  0  0
  8  9  1  0  0  0  0
  8  2  1  6  0  0  0
 10 19  1  0  0  0  0
 10  9  1  0  0  0  0
 11 10  1  0  0  0  0
 12 11  1  0  0  0  0
 12 13  1  0  0  0  0
 13  8  1  0  0  0  0
 14 15  1  0  0  0  0
 14 18  2  0  0  0  0
 15 16  1  0  0  0  0
 16 17  2  0  0  0  0
 18 17  1  0  0  0  0
 19 20  1  0  0  0  0
 20 25  2  0  0  0  0
 20 21  1  0  0  0  0
 21 22  2  0  0  0  0
 22 23  1  0  0  0  0
 23 26  1  0  0  0  0
 24 23  2  0  0  0  0
 25 24  1  0  0  0  0
 26 27  1  0  0  0  0
M  END
>  <CHROM.1>
2.89299280,103.08841774,62.18041066,124.64688649,-140.74898658,28.31962202
38.08474600,19.92119622,1.98693947,1.04598061,0.04845434

>  <Name>
lig.pdb

>  <RI>
0

>  <Rbt.Current_Directory>
/home/itssahil/PROJECTS/Mol_Feturizer/New_Systems/rnas/5kx9

>  <Rbt.Executable>
rbdock ($Id: //depot/dev/client3/rdock/2013.1/src/exe/rbdock.cxx#4 $)

>  <Rbt.Library>
libRbt.so (2013.1, Build901 2013/11/27)

>  <Rbt.Parameter_File>
/export/apps/rDock/src/rDock_2013.1_src/data/scripts/dock_solv.prm

>  <Rbt.Receptor>
prm/blind_docking_100.prm

>  <SCORE>
-28.5875

>  <SCORE.INTER>
-25.3556

>  <SCORE.INTER.CONST>
1

>  <SCORE.INTER.POLAR>
0

>  <SCORE.INTER.ROT>
5

>  <SCORE.INTER.SOLV>
13.9443

>  <SCORE.INTER.VDW>
-28.4851

>  <SCORE.INTER.norm>
-0.939096

>  <SCORE.INTRA>
-3.23193

>  <SCORE.INTRA.DIHEDRAL>
0.554876

>  <SCORE.INTRA.DIHEDRAL.0>
2.68224

>  <SCORE.INTRA.POLAR>
0

>  <SCORE.INTRA.POLAR.0>
0

>  <SCORE.INTRA.REPUL>
0

>  <SCORE.INTRA.REPUL.0>
0

>  <SCORE.INTRA.SOLV>
-0.231927

>  <SCORE.INTRA.SOLV.lig_0>
-19.4148

>  <SCORE.INTRA.VDW>
-3.39341

>  <SCORE.INTRA.VDW.0>
5.42093

>  <SCORE.INTRA.norm>
-0.119701

>  <SCORE.RESTR>
0

>  <SCORE.RESTR.CAVITY>
0

>  <SCORE.RESTR.norm>
0

>  <SCORE.SYSTEM>
0

>  <SCORE.SYSTEM.CONST>
0

>  <SCORE.SYSTEM.DIHEDRAL>
0

>  <SCORE.SYSTEM.SOLV>
0

>  <SCORE.SYSTEM.norm>
0

>  <SCORE.heavy>
27

>  <SCORE.norm>
-1.0588

>  <RMSD>
7.540

$$$$
lig.pdb
 OpenBabel11021811523D
libRbt.so/2013.1/901 2013/11/27
 27 30  0  0  0  0  0  0  0  0999 V2000
   26.4321   41.0047   23.6185 N   0  0  0  0  0  0  0  0  0  0  0  0
   27.0833   40.0962   22.9352 C   0  0  0  0  0  0  0  0  0  0  0  0
   27.0892   40.0001   21.5818 N   0  0  0  0  0  0  0  0  0  0  0  0
   26.4111   40.9387   20.8563 C   0  0  0  0  0  0  0  0  0  0  0  0
   25.7272   41.9392   21.4853 C   0  0  0  0  0  0  0  0  0  0  0  0
   25.7131   41.9796   22.9282 C   0  0  0  0  0  0  0  0  0  0  0  0
   25.0738   42.8231   23.5691 O   0  0  0  0  0  0  0  0  0  0  0  0
   27.7866   38.8953   23.6050 C   0  0  2  0  0  0  0  0  0  0  0  0
   27.1175   37.7014   22.9047 C   0  0  0  0  0  0  0  0  0  0  0  0
   27.4527   36.4335   23.5553 N   0  0  0  0  0  0  0  0  0  0  0  0
   26.9407   36.4511   24.9351 C   0  0  0  0  0  0  0  0  0  0  0  0
   27.6139   37.5411   25.7456 C   0  0  0  0  0  0  0  0  0  0  0  0
   27.4155   38.9044   25.0977 C   0  0  0  0  0  0  0  0  0  0  0  0
   26.5418   40.7338   19.4200 C   0  0  0  0  0  0  0  0  0  0  0  0
   27.3114   39.3314   18.7748 S   0  0  0  0  0  0  0  0  0  0  0  0
   27.0830   39.8552   17.1987 C   0  0  0  0  0  0  0  0  0  0  0  0
   26.4125   41.0132   17.1484 C   0  0  0  0  0  0  0  0  0  0  0  0
   26.0992   41.5383   18.4173 C   0  0  0  0  0  0  0  0  0  0  0  0
   26.9089   35.2771   22.8216 C   0  0  0  0  0  0  0  0  0  0  0  0
   27.5262   35.0118   21.4666 C   0  0  0  0  0  0  0  0  0  0  0  0
   27.8896   36.0556   20.6282 C   0  0  0  0  0  0  0  0  0  0  0  0
   28.1030   35.9276   19.3061 N   0  0  0  0  0  0  0  0  0  0  0  0
   27.8986   34.7052   18.8386 C   0  0  0  0  0  0  0  0  0  0  0  0
   27.5137   33.6255   19.5001 N   0  0  0  0  0  0  0  0  0  0  0  0
   27.3110   33.8164   20.8121 C   0  0  0  0  0  0  0  0  0  0  0  0
   28.1032   34.5839   17.5220 O   0  0  0  0  0  0  0  0  0  0  0  0
   27.3519   35.4411   16.6546 C   0  0  0  0  0  0  0  0  0  0  0  0
  1  2  2  0  0  0  0
  1  6  1  0  0  0  0
  2  3  1  0  0  0  0
  3  4  2  0  0  0  0
  4 14  1  0  0  0  0
  5  4  1  0  0  0  0
  6  5  1  0  0  0  0
  7  6  2  0  0  0  0
  8  9  1  0  0  0  0
  8  2  1  6  0  0  0
 10 19  1  0  0  0  0
 10  9  1  0  0  0  0
 11 10  1  0  0  0  0
 12 11  1  0  0  0  0
 12 13  1  0  0  0  0
 13  8  1  0  0  0  0
 14 15  1  0  0  0  0
 14 18  2  0  0  0  0
 15 16  1  0  0  0  0
 16 17  2  0  0  0  0
 18 17  1  0  0  0  0
 19 20  1  0  0  0  0
 20 25  2  0  0  0  0
 20 21  1  0  0  0  0
 21 22  2  0  0  0  0
 22 23  1  0  0  0  0
 23 26  1  0  0  0  0
 24 23  2  0  0  0  0
 25 24  1  0  0  0  0
 26 27  1  0  0  0  0
M  END
>  <CHROM.1>
7.15232043,122.91558238,67.88595568,-37.80300437,-56.63033162,27.04738271
38.23194753,21.05659027,-2.68145955,1.35741995,-1.47854319

>  <Name>
lig.pdb

>  <RI>
0

>  <Rbt.Current_Directory>
/home/itssahil/PROJECTS/Mol_Feturizer/New_Systems/rnas/5kx9

>  <Rbt.Executable>
rbdock ($Id: //depot/dev/client3/rdock/2013.1/src/exe/rbdock.cxx#4 $)

>  <Rbt.Library>
libRbt.so (2013.1, Build901 2013/11/27)

>  <Rbt.Parameter_File>
/export/apps/rDock/src/rDock_2013.1_src/data/scripts/dock_solv.prm

>  <Rbt.Receptor>
prm/pocket_docking_3.prm

>  <SCORE>
-31.8585

>  <SCORE.INTER>
-29.2874

>  <SCORE.INTER.CONST>
1

>  <SCORE.INTER.POLAR>
0

>  <SCORE.INTER.ROT>
5

>  <SCORE.INTER.SOLV>
15.1937

>  <SCORE.INTER.VDW>
-31.5228

>  <SCORE.INTER.norm>
-1.08472

>  <SCORE.INTRA>
-2.57109

>  <SCORE.INTRA.DIHEDRAL>
3.18883

>  <SCORE.INTRA.DIHEDRAL.0>
2.68224

>  <SCORE.INTRA.POLAR>
0

>  <SCORE.INTRA.POLAR.0>
0

>  <SCORE.INTRA.REPUL>
0

>  <SCORE.INTRA.REPUL.0>
0

>  <SCORE.INTRA.SOLV>
-0.0941926

>  <SCORE.INTRA.SOLV.lig_0>
-19.4148

>  <SCORE.INTRA.VDW>
-4.11841

>  <SCORE.INTRA.VDW.0>
5.42093

>  <SCORE.INTRA.norm>
-0.0952254

>  <SCORE.RESTR>
0

>  <SCORE.RESTR.CAVITY>
0

>  <SCORE.RESTR.norm>
0

>  <SCORE.SYSTEM>
0

>  <SCORE.SYSTEM.CONST>
0

>  <SCORE.SYSTEM.DIHEDRAL>
0

>  <SCORE.SYSTEM.SOLV>
0

>  <SCORE.SYSTEM.norm>
0

>  <SCORE.heavy>
27

>  <SCORE.norm>
-1.17994

>  <RMSD>
7.540

$$$$
lig.pdb
 OpenBabel11021811523D
libRbt.so/2013.1/901 2013/11/27
 27 30  0  0  0  0  0  0  0  0999 V2000
   25.7220   41.0604   18.1639 N   0  0  0  0  0  0  0  0  0  0  0  0
   27.0142   41.0525   18.3795 C   0  0  0  0  0  0  0  0  0  0  0  0
   27.6142   41.4980   19.5121 N   0  0  0  0  0  0  0  0  0  0  0  0
   26.8282   41.9482   20.5351 C   0  0  0  0  0  0  0  0  0  0  0  0
   25.4688   41.9657   20.4082 C   0  0  0  0  0  0  0  0  0  0  0  0
   24.8742   41.5215   19.1702 C   0  0  0  0  0  0  0  0  0  0  0  0
   23.6552   41.5571   18.9611 O   0  0  0  0  0  0  0  0  0  0  0  0
   28.0400   40.6985   17.2805 C   0  0  2  0  0  0  0  0  0  0  0  0
   28.8284   39.5528   17.9357 C   0  0  0  0  0  0  0  0  0  0  0  0
   30.0276   39.2114   17.1685 N   0  0  0  0  0  0  0  0  0  0  0  0
   30.9270   40.3761   17.1388 C   0  0  0  0  0  0  0  0  0  0  0  0
   30.2753   41.5418   16.4214 C   0  0  0  0  0  0  0  0  0  0  0  0
   28.9551   41.9183   17.0794 C   0  0  0  0  0  0  0  0  0  0  0  0
   27.6060   42.3524   21.6987 C   0  0  0  0  0  0  0  0  0  0  0  0
   29.3177   42.5478   21.6164 S   0  0  0  0  0  0  0  0  0  0  0  0
   29.4115   42.9546   23.2402 C   0  0  0  0  0  0  0  0  0  0  0  0
   28.2038   42.9923   23.8172 C   0  0  0  0  0  0  0  0  0  0  0  0
   27.1529   42.6410   22.9477 C   0  0  0  0  0  0  0  0  0  0  0  0
   30.7244   38.0398   17.7279 C   0  0  0  0  0  0  0  0  0  0  0  0
   31.3792   37.1232   16.7187 C   0  0  0  0  0  0  0  0  0  0  0  0
   30.6387   36.1790   16.0224 C   0  0  0  0  0  0  0  0  0  0  0  0
   31.1672   35.1135   15.3938 N   0  0  0  0  0  0  0  0  0  0  0  0
   32.4810   35.0038   15.5218 C   0  0  0  0  0  0  0  0  0  0  0  0
   33.3118   35.7944   16.1823 N   0  0  0  0  0  0  0  0  0  0  0  0
   32.7263   36.8352   16.7929 C   0  0  0  0  0  0  0  0  0  0  0  0
   33.0019   33.9381   14.9028 O   0  0  0  0  0  0  0  0  0  0  0  0
   34.2006   34.1349   14.1439 C   0  0  0  0  0  0  0  0  0  0  0  0
  1  2  2  0  0  0  0
  1  6  1  0  0  0  0
  2  3  1  0  0  0  0
  3  4  2  0  0  0  0
  4 14  1  0  0  0  0
  5  4  1  0  0  0  0
  6  5  1  0  0  0  0
  7  6  2  0  0  0  0
  8  9  1  0  0  0  0
  8  2  1  1  0  0  0
 10 19  1  0  0  0  0
 10  9  1  0  0  0  0
 11 10  1  0  0  0  0
 12 11  1  0  0  0  0
 12 13  1  0  0  0  0
 13  8  1  0  0  0  0
 14 15  1  0  0  0  0
 14 18  2  0  0  0  0
 15 16  1  0  0  0  0
 16 17  2  0  0  0  0
 18 17  1  0  0  0  0
 19 20  1  0  0  0  0
 20 25  2  0  0  0  0
 20 21  1  0  0  0  0
 21 22  2  0  0  0  0
 22 23  1  0  0  0  0
 23 26  1  0  0  0  0
 24 23  2  0  0  0  0
 25 24  1  0  0  0  0
 26 27  1  0  0  0  0
M  END
>  <CHROM.1>
12.35311875,-124.63979102,144.87195985,-80.64435533,135.66835639,29.27562665
39.69863459,18.42101579,2.17041593,-0.35454192,0.91456780

>  <Name>
lig.pdb

>  <RI>
0

>  <Rbt.Current_Directory>
/home/itssahil/PROJECTS/Mol_Feturizer/New_Systems/rnas/5kx9

>  <Rbt.Executable>
rbdock ($Id: //depot/dev/client3/rdock/2013.1/src/exe/rbdock.cxx#4 $)

>  <Rbt.Library>
libRbt.so (2013.1, Build901 2013/11/27)

>  <Rbt.Parameter_File>
/export/apps/rDock/src/rDock_2013.1_src/data/scripts/dock_solv.prm

>  <Rbt.Receptor>
prm/blind_docking_80.prm

>  <SCORE>
-26.8971

>  <SCORE.INTER>
-22.5234

>  <SCORE.INTER.CONST>
1

>  <SCORE.INTER.POLAR>
0

>  <SCORE.INTER.ROT>
5

>  <SCORE.INTER.SOLV>
12.6023

>  <SCORE.INTER.VDW>
-26.1497

>  <SCORE.INTER.norm>
-0.834201

>  <SCORE.INTRA>
-4.37369

>  <SCORE.INTRA.DIHEDRAL>
3.16581

>  <SCORE.INTRA.DIHEDRAL.0>
2.68224

>  <SCORE.INTRA.POLAR>
0

>  <SCORE.INTRA.POLAR.0>
0

>  <SCORE.INTRA.REPUL>
0

>  <SCORE.INTRA.REPUL.0>
0

>  <SCORE.INTRA.SOLV>
-0.590119

>  <SCORE.INTRA.SOLV.lig_0>
-19.4148

>  <SCORE.INTRA.VDW>
-5.66153

>  <SCORE.INTRA.VDW.0>
5.42093

>  <SCORE.INTRA.norm>
-0.161988

>  <SCORE.RESTR>
0

>  <SCORE.RESTR.CAVITY>
0

>  <SCORE.RESTR.norm>
0

>  <SCORE.SYSTEM>
0

>  <SCORE.SYSTEM.CONST>
0

>  <SCORE.SYSTEM.DIHEDRAL>
0

>  <SCORE.SYSTEM.SOLV>
0

>  <SCORE.SYSTEM.norm>
0

>  <SCORE.heavy>
27

>  <SCORE.norm>
-0.996189

>  <RMSD>
7.545

$$$$
lig.pdb
 OpenBabel11021811523D
libRbt.so/2013.1/901 2013/11/27
 27 30  0  0  0  0  0  0  0  0999 V2000
   26.3496   40.6661   23.2784 N   0  0  0  0  0  0  0  0  0  0  0  0
   27.3517   39.9814   22.7853 C   0  0  0  0  0  0  0  0  0  0  0  0
   27.9159   40.1980   21.5705 N   0  0  0  0  0  0  0  0  0  0  0  0
   27.4511   41.2326   20.8084 C   0  0  0  0  0  0  0  0  0  0  0  0
   26.4270   42.0170   21.2561 C   0  0  0  0  0  0  0  0  0  0  0  0
   25.8281   41.7253   22.5366 C   0  0  0  0  0  0  0  0  0  0  0  0
   24.8637   42.3573   22.9854 O   0  0  0  0  0  0  0  0  0  0  0  0
   27.9021   38.7063   23.4613 C   0  0  2  0  0  0  0  0  0  0  0  0
   27.1548   37.5955   22.7055 C   0  0  0  0  0  0  0  0  0  0  0  0
   27.3335   36.2902   23.3438 N   0  0  0  0  0  0  0  0  0  0  0  0
   26.7598   36.3349   24.6984 C   0  0  0  0  0  0  0  0  0  0  0  0
   27.4958   37.3400   25.5623 C   0  0  0  0  0  0  0  0  0  0  0  0
   27.4622   38.7268   24.9350 C   0  0  0  0  0  0  0  0  0  0  0  0
   28.1779   41.3704   19.5535 C   0  0  0  0  0  0  0  0  0  0  0  0
   29.4393   40.2781   19.1165 S   0  0  0  0  0  0  0  0  0  0  0  0
   29.7333   41.0941   17.6818 C   0  0  0  0  0  0  0  0  0  0  0  0
   28.8892   42.1187   17.5068 C   0  0  0  0  0  0  0  0  0  0  0  0
   27.9917   42.2983   18.5774 C   0  0  0  0  0  0  0  0  0  0  0  0
   26.7160   35.2051   22.5611 C   0  0  0  0  0  0  0  0  0  0  0  0
   26.8469   35.3242   21.0591 C   0  0  0  0  0  0  0  0  0  0  0  0
   26.1340   34.4907   20.2096 C   0  0  0  0  0  0  0  0  0  0  0  0
   26.4425   34.2817   18.9169 N   0  0  0  0  0  0  0  0  0  0  0  0
   27.5306   34.9170   18.5085 C   0  0  0  0  0  0  0  0  0  0  0  0
   28.3318   35.7071   19.2051 N   0  0  0  0  0  0  0  0  0  0  0  0
   27.9768   35.8725   20.4879 C   0  0  0  0  0  0  0  0  0  0  0  0
   27.8392   34.6996   17.2249 O   0  0  0  0  0  0  0  0  0  0  0  0
   29.0122   33.9252   16.9491 C   0  0  0  0  0  0  0  0  0  0  0  0
  1  2  2  0  0  0  0
  1  6  1  0  0  0  0
  2  3  1  0  0  0  0
  3  4  2  0  0  0  0
  4 14  1  0  0  0  0
  5  4  1  0  0  0  0
  6  5  1  0  0  0  0
  7  6  2  0  0  0  0
  8  9  1  0  0  0  0
  8  2  1  6  0  0  0
 10 19  1  0  0  0  0
 10  9  1  0  0  0  0
 11 10  1  0  0  0  0
 12 11  1  0  0  0  0
 12 13  1  0  0  0  0
 13  8  1  0  0  0  0
 14 15  1  0  0  0  0
 14 18  2  0  0  0  0
 15 16  1  0  0  0  0
 16 17  2  0  0  0  0
 18 17  1  0  0  0  0
 19 20  1  0  0  0  0
 20 25  2  0  0  0  0
 20 21  1  0  0  0  0
 21 22  2  0  0  0  0
 22 23  1  0  0  0  0
 23 26  1  0  0  0  0
 24 23  2  0  0  0  0
 25 24  1  0  0  0  0
 26 27  1  0  0  0  0
M  END
>  <CHROM.1>
1.99045421,95.47342483,38.45711449,-169.66665619,-110.58151956,27.54159343
38.37047577,20.93441632,1.74662418,1.26594741,0.14551779

>  <Name>
lig.pdb

>  <RI>
0

>  <Rbt.Current_Directory>
/home/itssahil/PROJECTS/Mol_Feturizer/New_Systems/rnas/5kx9

>  <Rbt.Executable>
rbdock ($Id: //depot/dev/client3/rdock/2013.1/src/exe/rbdock.cxx#4 $)

>  <Rbt.Library>
libRbt.so (2013.1, Build901 2013/11/27)

>  <Rbt.Parameter_File>
/export/apps/rDock/src/rDock_2013.1_src/data/scripts/dock_solv.prm

>  <Rbt.Receptor>
prm/pocket_docking_5.prm

>  <SCORE>
-29.2946

>  <SCORE.INTER>
-26.6391

>  <SCORE.INTER.CONST>
1

>  <SCORE.INTER.POLAR>
0

>  <SCORE.INTER.ROT>
5

>  <SCORE.INTER.SOLV>
14.4166

>  <SCORE.INTER.VDW>
-29.4982

>  <SCORE.INTER.norm>
-0.986632

>  <SCORE.INTRA>
-2.65552

>  <SCORE.INTRA.DIHEDRAL>
4.13275

>  <SCORE.INTRA.DIHEDRAL.0>
2.68224

>  <SCORE.INTRA.POLAR>
0

>  <SCORE.INTRA.POLAR.0>
0

>  <SCORE.INTRA.REPUL>
0

>  <SCORE.INTRA.REPUL.0>
0

>  <SCORE.INTRA.SOLV>
-0.491345

>  <SCORE.INTRA.SOLV.lig_0>
-19.4148

>  <SCORE.INTRA.VDW>
-4.47623

>  <SCORE.INTRA.VDW.0>
5.42093

>  <SCORE.INTRA.norm>
-0.0983527

>  <SCORE.RESTR>
0

>  <SCORE.RESTR.CAVITY>
0

>  <SCORE.RESTR.norm>
0

>  <SCORE.SYSTEM>
0

>  <SCORE.SYSTEM.CONST>
0

>  <SCORE.SYSTEM.DIHEDRAL>
0

>  <SCORE.SYSTEM.SOLV>
0

>  <SCORE.SYSTEM.norm>
0

>  <SCORE.heavy>
27

>  <SCORE.norm>
-1.08499

>  <RMSD>
7.549

$$$$
lig.pdb
 OpenBabel11021811523D
libRbt.so/2013.1/901 2013/11/27
 27 30  0  0  0  0  0  0  0  0999 V2000
   25.6865   41.9952   21.3040 N   0  0  0  0  0  0  0  0  0  0  0  0
   26.9837   41.8817   21.1599 C   0  0  0  0  0  0  0  0  0  0  0  0
   27.6411   41.9488   19.9749 N   0  0  0  0  0  0  0  0  0  0  0  0
   26.9215   42.2001   18.8408 C   0  0  0  0  0  0  0  0  0  0  0  0
   25.5669   42.3605   18.9013 C   0  0  0  0  0  0  0  0  0  0  0  0
   24.9027   42.2399   20.1773 C   0  0  0  0  0  0  0  0  0  0  0  0
   23.6745   42.3202   20.3040 O   0  0  0  0  0  0  0  0  0  0  0  0
   27.9176   41.4691   22.3188 C   0  0  2  0  0  0  0  0  0  0  0  0
   27.1386   40.3091   22.9600 C   0  0  0  0  0  0  0  0  0  0  0  0
   27.7194   39.9095   24.2431 N   0  0  0  0  0  0  0  0  0  0  0  0
   27.6358   41.0402   25.1816 C   0  0  0  0  0  0  0  0  0  0  0  0
   28.4568   42.2140   24.6853 C   0  0  0  0  0  0  0  0  0  0  0  0
   28.0022   42.6509   23.2996 C   0  0  0  0  0  0  0  0  0  0  0  0
   27.7631   42.2867   17.6549 C   0  0  0  0  0  0  0  0  0  0  0  0
   29.4447   41.9071   17.7121 S   0  0  0  0  0  0  0  0  0  0  0  0
   29.6442   42.2654   16.0864 C   0  0  0  0  0  0  0  0  0  0  0  0
   28.4885   42.6101   15.5046 C   0  0  0  0  0  0  0  0  0  0  0  0
   27.3960   42.6357   16.3932 C   0  0  0  0  0  0  0  0  0  0  0  0
   27.0480   38.7250   24.8066 C   0  0  0  0  0  0  0  0  0  0  0  0
   26.8389   37.5730   23.8492 C   0  0  0  0  0  0  0  0  0  0  0  0
   26.2155   36.4039   24.2605 C   0  0  0  0  0  0  0  0  0  0  0  0
   26.3023   35.2289   23.6111 N   0  0  0  0  0  0  0  0  0  0  0  0
   27.0797   35.2569   22.5390 C   0  0  0  0  0  0  0  0  0  0  0  0
   27.7671   36.2757   22.0481 N   0  0  0  0  0  0  0  0  0  0  0  0
   27.6458   37.4176   22.7410 C   0  0  0  0  0  0  0  0  0  0  0  0
   27.1707   34.0845   21.9010 O   0  0  0  0  0  0  0  0  0  0  0  0
   27.2173   34.1127   20.4696 C   0  0  0  0  0  0  0  0  0  0  0  0
  1  2  2  0  0  0  0
  1  6  1  0  0  0  0
  2  3  1  0  0  0  0
  3  4  2  0  0  0  0
  4 14  1  0  0  0  0
  5  4  1  0  0  0  0
  6  5  1  0  0  0  0
  7  6  2  0  0  0  0
  8  9  1  0  0  0  0
  8  2  1  6  0  0  0
 10 19  1  0  0  0  0
 10  9  1  0  0  0  0
 11 10  1  0  0  0  0
 12 11  1  0  0  0  0
 12 13  1  0  0  0  0
 13  8  1  0  0  0  0
 14 15  1  0  0  0  0
 14 18  2  0  0  0  0
 15 16  1  0  0  0  0
 16 17  2  0  0  0  0
 18 17  1  0  0  0  0
 19 20  1  0  0  0  0
 20 25  2  0  0  0  0
 20 21  1  0  0  0  0
 21 22  2  0  0  0  0
 22 23  1  0  0  0  0
 23 26  1  0  0  0  0
 24 23  2  0  0  0  0
 25 24  1  0  0  0  0
 26 27  1  0  0  0  0
M  END
>  <CHROM.1>
7.10497034,43.80254867,47.59700840,-179.85263272,142.21461433,27.28602529
40.01623880,21.09377241,0.99407819,1.40639346,-0.16562326

>  <Name>
lig.pdb

>  <RI>
0

>  <Rbt.Current_Directory>
/home/itssahil/PROJECTS/Mol_Feturizer/New_Systems/rnas/5kx9

>  <Rbt.Executable>
rbdock ($Id: //depot/dev/client3/rdock/2013.1/src/exe/rbdock.cxx#4 $)

>  <Rbt.Library>
libRbt.so (2013.1, Build901 2013/11/27)

>  <Rbt.Parameter_File>
/export/apps/rDock/src/rDock_2013.1_src/data/scripts/dock_solv.prm

>  <Rbt.Receptor>
prm/pocket_docking_6.prm

>  <SCORE>
-35.8011

>  <SCORE.INTER>
-32.5637

>  <SCORE.INTER.CONST>
1

>  <SCORE.INTER.POLAR>
0

>  <SCORE.INTER.ROT>
5

>  <SCORE.INTER.SOLV>
18.8873

>  <SCORE.INTER.VDW>
-34.9382

>  <SCORE.INTER.norm>
-1.20606

>  <SCORE.INTRA>
-3.23745

>  <SCORE.INTRA.DIHEDRAL>
1.64629

>  <SCORE.INTRA.DIHEDRAL.0>
2.68224

>  <SCORE.INTRA.POLAR>
0

>  <SCORE.INTRA.POLAR.0>
0

>  <SCORE.INTRA.REPUL>
0

>  <SCORE.INTRA.REPUL.0>
0

>  <SCORE.INTRA.SOLV>
-0.456297

>  <SCORE.INTRA.SOLV.lig_0>
-19.4148

>  <SCORE.INTRA.VDW>
-3.83244

>  <SCORE.INTRA.VDW.0>
5.42093

>  <SCORE.INTRA.norm>
-0.119905

>  <SCORE.RESTR>
0

>  <SCORE.RESTR.CAVITY>
0

>  <SCORE.RESTR.norm>
0

>  <SCORE.SYSTEM>
0

>  <SCORE.SYSTEM.CONST>
0

>  <SCORE.SYSTEM.DIHEDRAL>
0

>  <SCORE.SYSTEM.SOLV>
0

>  <SCORE.SYSTEM.norm>
0

>  <SCORE.heavy>
27

>  <SCORE.norm>
-1.32597

>  <RMSD>
7.550

$$$$
lig.pdb
 OpenBabel11021811523D
libRbt.so/2013.1/901 2013/11/27
 27 30  0  0  0  0  0  0  0  0999 V2000
   26.8379   36.2080   23.1924 N   0  0  0  0  0  0  0  0  0  0  0  0
   27.5590   36.6004   22.1715 C   0  0  0  0  0  0  0  0  0  0  0  0
   28.0963   37.8385   22.0317 N   0  0  0  0  0  0  0  0  0  0  0  0
   27.9250   38.7437   23.0407 C   0  0  0  0  0  0  0  0  0  0  0  0
   27.2108   38.4111   24.1559 C   0  0  0  0  0  0  0  0  0  0  0  0
   26.6212   37.0965   24.2449 C   0  0  0  0  0  0  0  0  0  0  0  0
   25.9177   36.7403   25.1984 O   0  0  0  0  0  0  0  0  0  0  0  0
   27.7345   35.7447   20.8977 C   0  0  2  0  0  0  0  0  0  0  0  0
   26.8067   36.4594   19.9018 C   0  0  0  0  0  0  0  0  0  0  0  0
   26.6183   35.6773   18.6786 N   0  0  0  0  0  0  0  0  0  0  0  0
   25.9661   34.4025   19.0189 C   0  0  0  0  0  0  0  0  0  0  0  0
   26.8493   33.5715   19.9286 C   0  0  0  0  0  0  0  0  0  0  0  0
   27.1966   34.3355   21.1987 C   0  0  0  0  0  0  0  0  0  0  0  0
   28.5913   40.0109   22.7713 C   0  0  0  0  0  0  0  0  0  0  0  0
   28.5387   41.3156   23.8983 S   0  0  0  0  0  0  0  0  0  0  0  0
   29.4422   42.3045   22.8900 C   0  0  0  0  0  0  0  0  0  0  0  0
   29.8145   41.6713   21.7704 C   0  0  0  0  0  0  0  0  0  0  0  0
   29.3276   40.3526   21.6806 C   0  0  0  0  0  0  0  0  0  0  0  0
   25.8244   36.4074   17.6747 C   0  0  0  0  0  0  0  0  0  0  0  0
   25.7790   35.7856   16.2968 C   0  0  0  0  0  0  0  0  0  0  0  0
   25.0312   34.6433   16.0507 C   0  0  0  0  0  0  0  0  0  0  0  0
   25.2065   33.8361   14.9888 N   0  0  0  0  0  0  0  0  0  0  0  0
   26.1989   34.1976   14.1895 C   0  0  0  0  0  0  0  0  0  0  0  0
   27.0200   35.2283   14.3123 N   0  0  0  0  0  0  0  0  0  0  0  0
   26.8002   35.9924   15.3925 C   0  0  0  0  0  0  0  0  0  0  0  0
   26.3759   33.3875   13.1395 O   0  0  0  0  0  0  0  0  0  0  0  0
   26.6475   32.0070   13.4082 C   0  0  0  0  0  0  0  0  0  0  0  0
  1  2  2  0  0  0  0
  1  6  1  0  0  0  0
  2  3  1  0  0  0  0
  3  4  2  0  0  0  0
  4 14  1  0  0  0  0
  5  4  1  0  0  0  0
  6  5  1  0  0  0  0
  7  6  2  0  0  0  0
  8  9  1  0  0  0  0
  8  2  1  1  0  0  0
 10 19  1  0  0  0  0
 10  9  1  0  0  0  0
 11 10  1  0  0  0  0
 12 11  1  0  0  0  0
 12 13  1  0  0  0  0
 13  8  1  0  0  0  0
 14 15  1  0  0  0  0
 14 18  2  0  0  0  0
 15 16  1  0  0  0  0
 16 17  2  0  0  0  0
 18 17  1  0  0  0  0
 19 20  1  0  0  0  0
 20 25  2  0  0  0  0
 20 21  1  0  0  0  0
 21 22  2  0  0  0  0
 22 23  1  0  0  0  0
 23 26  1  0  0  0  0
 24 23  2  0  0  0  0
 25 24  1  0  0  0  0
 26 27  1  0  0  0  0
M  END
>  <CHROM.1>
-179.42157010,104.02609086,169.80541916,73.41201300,-58.59696378,27.15045615
36.77814262,19.85886230,1.05684251,1.16292030,1.45878897

>  <Name>
lig.pdb

>  <RI>
0

>  <Rbt.Current_Directory>
/home/itssahil/PROJECTS/Mol_Feturizer/New_Systems/rnas/5kx9

>  <Rbt.Executable>
rbdock ($Id: //depot/dev/client3/rdock/2013.1/src/exe/rbdock.cxx#4 $)

>  <Rbt.Library>
libRbt.so (2013.1, Build901 2013/11/27)

>  <Rbt.Parameter_File>
/export/apps/rDock/src/rDock_2013.1_src/data/scripts/dock_solv.prm

>  <Rbt.Receptor>
prm/pocket_docking_7.prm

>  <SCORE>
-35.0077

>  <SCORE.INTER>
-31.0704

>  <SCORE.INTER.CONST>
1

>  <SCORE.INTER.POLAR>
0

>  <SCORE.INTER.ROT>
5

>  <SCORE.INTER.SOLV>
13.4923

>  <SCORE.INTER.VDW>
-32.1444

>  <SCORE.INTER.norm>
-1.15076

>  <SCORE.INTRA>
-3.93721

>  <SCORE.INTRA.DIHEDRAL>
3.03897

>  <SCORE.INTRA.DIHEDRAL.0>
2.68224

>  <SCORE.INTRA.POLAR>
0

>  <SCORE.INTRA.POLAR.0>
0

>  <SCORE.INTRA.REPUL>
0

>  <SCORE.INTRA.REPUL.0>
0

>  <SCORE.INTRA.SOLV>
-0.488795

>  <SCORE.INTRA.SOLV.lig_0>
-19.4148

>  <SCORE.INTRA.VDW>
-5.2123

>  <SCORE.INTRA.VDW.0>
5.42093

>  <SCORE.INTRA.norm>
-0.145823

>  <SCORE.RESTR>
0

>  <SCORE.RESTR.CAVITY>
0

>  <SCORE.RESTR.norm>
0

>  <SCORE.SYSTEM>
0

>  <SCORE.SYSTEM.CONST>
0

>  <SCORE.SYSTEM.DIHEDRAL>
0

>  <SCORE.SYSTEM.SOLV>
0

>  <SCORE.SYSTEM.norm>
0

>  <SCORE.heavy>
27

>  <SCORE.norm>
-1.29658

>  <RMSD>
7.590

$$$$
lig.pdb
 OpenBabel11021811523D
libRbt.so/2013.1/901 2013/11/27
 27 30  0  0  0  0  0  0  0  0999 V2000
   26.8384   36.2092   23.1798 N   0  0  0  0  0  0  0  0  0  0  0  0
   27.5577   36.6135   22.1623 C   0  0  0  0  0  0  0  0  0  0  0  0
   28.0894   37.8552   22.0331 N   0  0  0  0  0  0  0  0  0  0  0  0
   27.9140   38.7510   23.0498 C   0  0  0  0  0  0  0  0  0  0  0  0
   27.2012   38.4056   24.1620 C   0  0  0  0  0  0  0  0  0  0  0  0
   26.6176   37.0876   24.2398 C   0  0  0  0  0  0  0  0  0  0  0  0
   25.9158   36.7201   25.1901 O   0  0  0  0  0  0  0  0  0  0  0  0
   27.7372   35.7696   20.8812 C   0  0  2  0  0  0  0  0  0  0  0  0
   26.7823   36.4696   19.9005 C   0  0  0  0  0  0  0  0  0  0  0  0
   26.5970   35.6908   18.6748 N   0  0  0  0  0  0  0  0  0  0  0  0
   25.9770   34.3999   19.0145 C   0  0  0  0  0  0  0  0  0  0  0  0
   26.8887   33.5831   19.9088 C   0  0  0  0  0  0  0  0  0  0  0  0
   27.2339   34.3470   21.1796 C   0  0  0  0  0  0  0  0  0  0  0  0
   28.5745   40.0234   22.7912 C   0  0  0  0  0  0  0  0  0  0  0  0
   28.5233   41.3152   23.9330 S   0  0  0  0  0  0  0  0  0  0  0  0
   29.4182   42.3185   22.9313 C   0  0  0  0  0  0  0  0  0  0  0  0
   29.7868   41.6992   21.8029 C   0  0  0  0  0  0  0  0  0  0  0  0
   29.3040   40.3800   21.7007 C   0  0  0  0  0  0  0  0  0  0  0  0
   25.7756   36.4092   17.6846 C   0  0  0  0  0  0  0  0  0  0  0  0
   25.6857   35.7671   16.3183 C   0  0  0  0  0  0  0  0  0  0  0  0
   24.9689   34.5954   16.1232 C   0  0  0  0  0  0  0  0  0  0  0  0
   25.1214   33.7802   15.0639 N   0  0  0  0  0  0  0  0  0  0  0  0
   26.0598   34.1658   14.2123 C   0  0  0  0  0  0  0  0  0  0  0  0
   26.8478   35.2269   14.2820 N   0  0  0  0  0  0  0  0  0  0  0  0
   26.6533   35.9975   15.3623 C   0  0  0  0  0  0  0  0  0  0  0  0
   26.2147   33.3480   13.1649 O   0  0  0  0  0  0  0  0  0  0  0  0
   26.6135   31.9986   13.4331 C   0  0  0  0  0  0  0  0  0  0  0  0
  1  2  2  0  0  0  0
  1  6  1  0  0  0  0
  2  3  1  0  0  0  0
  3  4  2  0  0  0  0
  4 14  1  0  0  0  0
  5  4  1  0  0  0  0
  6  5  1  0  0  0  0
  7  6  2  0  0  0  0
  8  9  1  0  0  0  0
  8  2  1  1  0  0  0
 10 19  1  0  0  0  0
 10  9  1  0  0  0  0
 11 10  1  0  0  0  0
 12 11  1  0  0  0  0
 12 13  1  0  0  0  0
 13  8  1  0  0  0  0
 14 15  1  0  0  0  0
 14 18  2  0  0  0  0
 15 16  1  0  0  0  0
 16 17  2  0  0  0  0
 18 17  1  0  0  0  0
 19 20  1  0  0  0  0
 20 25  2  0  0  0  0
 20 21  1  0  0  0  0
 21 22  2  0  0  0  0
 22 23  1  0  0  0  0
 23 26  1  0  0  0  0
 24 23  2  0  0  0  0
 25 24  1  0  0  0  0
 26 27  1  0  0  0  0
M  END
>  <CHROM.1>
-179.08002800,102.81578190,172.01716752,70.87229124,-61.59464745,27.11291768
36.77625228,19.86942574,1.02157027,1.17128597,1.49043278

>  <Name>
lig.pdb

>  <RI>
0

>  <Rbt.Current_Directory>
/home/itssahil/PROJECTS/Mol_Feturizer/New_Systems/rnas/5kx9

>  <Rbt.Executable>
rbdock ($Id: //depot/dev/client3/rdock/2013.1/src/exe/rbdock.cxx#4 $)

>  <Rbt.Library>
libRbt.so (2013.1, Build901 2013/11/27)

>  <Rbt.Parameter_File>
/export/apps/rDock/src/rDock_2013.1_src/data/scripts/dock_solv.prm

>  <Rbt.Receptor>
prm/pocket_docking_7.prm

>  <SCORE>
-35.0647

>  <SCORE.INTER>
-31.1621

>  <SCORE.INTER.CONST>
1

>  <SCORE.INTER.POLAR>
0

>  <SCORE.INTER.ROT>
5

>  <SCORE.INTER.SOLV>
13.6203

>  <SCORE.INTER.VDW>
-32.2482

>  <SCORE.INTER.norm>
-1.15415

>  <SCORE.INTRA>
-3.9045

>  <SCORE.INTRA.DIHEDRAL>
3.16965

>  <SCORE.INTRA.DIHEDRAL.0>
2.68224

>  <SCORE.INTRA.POLAR>
0

>  <SCORE.INTRA.POLAR.0>
0

>  <SCORE.INTRA.REPUL>
0

>  <SCORE.INTRA.REPUL.0>
0

>  <SCORE.INTRA.SOLV>
-0.47969

>  <SCORE.INTRA.SOLV.lig_0>
-19.4148

>  <SCORE.INTRA.VDW>
-5.24948

>  <SCORE.INTRA.VDW.0>
5.42093

>  <SCORE.INTRA.norm>
-0.144611

>  <SCORE.RESTR>
0.00189027

>  <SCORE.RESTR.CAVITY>
0.00189027

>  <SCORE.RESTR.norm>
7.001e-05

>  <SCORE.SYSTEM>
0

>  <SCORE.SYSTEM.CONST>
0

>  <SCORE.SYSTEM.DIHEDRAL>
0

>  <SCORE.SYSTEM.SOLV>
0

>  <SCORE.SYSTEM.norm>
0

>  <SCORE.heavy>
27

>  <SCORE.norm>
-1.29869

>  <RMSD>
7.596

$$$$
lig.pdb
 OpenBabel11021811523D
libRbt.so/2013.1/901 2013/11/27
 27 30  0  0  0  0  0  0  0  0999 V2000
   26.4212   40.9614   23.5825 N   0  0  0  0  0  0  0  0  0  0  0  0
   27.0808   40.0688   22.8865 C   0  0  0  0  0  0  0  0  0  0  0  0
   27.1027   40.0034   21.5314 N   0  0  0  0  0  0  0  0  0  0  0  0
   26.4328   40.9581   20.8194 C   0  0  0  0  0  0  0  0  0  0  0  0
   25.7411   41.9440   21.4628 C   0  0  0  0  0  0  0  0  0  0  0  0
   25.7099   41.9516   22.9060 C   0  0  0  0  0  0  0  0  0  0  0  0
   25.0627   42.7802   23.5583 O   0  0  0  0  0  0  0  0  0  0  0  0
   27.7766   38.8531   23.5371 C   0  0  2  0  0  0  0  0  0  0  0  0
   27.1014   37.6746   22.8170 C   0  0  0  0  0  0  0  0  0  0  0  0
   27.4288   36.3943   23.4470 N   0  0  0  0  0  0  0  0  0  0  0  0
   26.9158   36.3924   24.8265 C   0  0  0  0  0  0  0  0  0  0  0  0
   27.5945   37.4652   25.6552 C   0  0  0  0  0  0  0  0  0  0  0  0
   27.4044   38.8399   25.0295 C   0  0  0  0  0  0  0  0  0  0  0  0
   26.5805   40.7858   19.3804 C   0  0  0  0  0  0  0  0  0  0  0  0
   27.4634   39.4613   18.7161 S   0  0  0  0  0  0  0  0  0  0  0  0
   27.1932   39.9877   17.1474 C   0  0  0  0  0  0  0  0  0  0  0  0
   26.4294   41.0870   17.1130 C   0  0  0  0  0  0  0  0  0  0  0  0
   26.0734   41.5657   18.3889 C   0  0  0  0  0  0  0  0  0  0  0  0
   26.8790   35.2533   22.6941 C   0  0  0  0  0  0  0  0  0  0  0  0
   27.5185   34.9862   21.3498 C   0  0  0  0  0  0  0  0  0  0  0  0
   27.7949   36.0222   20.4696 C   0  0  0  0  0  0  0  0  0  0  0  0
   28.0204   35.8595   19.1533 N   0  0  0  0  0  0  0  0  0  0  0  0
   27.9194   34.6066   18.7356 C   0  0  0  0  0  0  0  0  0  0  0  0
   27.6249   33.5260   19.4405 N   0  0  0  0  0  0  0  0  0  0  0  0
   27.4048   33.7518   20.7441 C   0  0  0  0  0  0  0  0  0  0  0  0
   28.1355   34.4501   17.4245 O   0  0  0  0  0  0  0  0  0  0  0  0
   29.1544   33.5244   17.0285 C   0  0  0  0  0  0  0  0  0  0  0  0
  1  2  2  0  0  0  0
  1  6  1  0  0  0  0
  2  3  1  0  0  0  0
  3  4  2  0  0  0  0
  4 14  1  0  0  0  0
  5  4  1  0  0  0  0
  6  5  1  0  0  0  0
  7  6  2  0  0  0  0
  8  9  1  0  0  0  0
  8  2  1  6  0  0  0
 10 19  1  0  0  0  0
 10  9  1  0  0  0  0
 11 10  1  0  0  0  0
 12 11  1  0  0  0  0
 12 13  1  0  0  0  0
 13  8  1  0  0  0  0
 14 15  1  0  0  0  0
 14 18  2  0  0  0  0
 15 16  1  0  0  0  0
 16 17  2  0  0  0  0
 18 17  1  0  0  0  0
 19 20  1  0  0  0  0
 20 25  2  0  0  0  0
 20 21  1  0  0  0  0
 21 22  2  0  0  0  0
 22 23  1  0  0  0  0
 23 26  1  0  0  0  0
 24 23  2  0  0  0  0
 25 24  1  0  0  0  0
 26 27  1  0  0  0  0
M  END
>  <CHROM.1>
2.37432454,122.10983419,69.29719458,-44.32904048,124.26797414,27.13389967
38.14209094,21.00308021,-2.94250930,1.33393396,-1.29653095

>  <Name>
lig.pdb

>  <RI>
0

>  <Rbt.Current_Directory>
/home/itssahil/PROJECTS/Mol_Feturizer/New_Systems/rnas/5kx9

>  <Rbt.Executable>
rbdock ($Id: //depot/dev/client3/rdock/2013.1/src/exe/rbdock.cxx#4 $)

>  <Rbt.Library>
libRbt.so (2013.1, Build901 2013/11/27)

>  <Rbt.Parameter_File>
/export/apps/rDock/src/rDock_2013.1_src/data/scripts/dock_solv.prm

>  <Rbt.Receptor>
prm/blind_docking_60.prm

>  <SCORE>
-32.3662

>  <SCORE.INTER>
-29.398

>  <SCORE.INTER.CONST>
1

>  <SCORE.INTER.POLAR>
0

>  <SCORE.INTER.ROT>
5

>  <SCORE.INTER.SOLV>
15.7912

>  <SCORE.INTER.VDW>
-31.7957

>  <SCORE.INTER.norm>
-1.08881

>  <SCORE.INTRA>
-2.96819

>  <SCORE.INTRA.DIHEDRAL>
3.03569

>  <SCORE.INTRA.DIHEDRAL.0>
2.68224

>  <SCORE.INTRA.POLAR>
0

>  <SCORE.INTRA.POLAR.0>
0

>  <SCORE.INTRA.REPUL>
0

>  <SCORE.INTRA.REPUL.0>
0

>  <SCORE.INTRA.SOLV>
-0.183313

>  <SCORE.INTRA.SOLV.lig_0>
-19.4148

>  <SCORE.INTRA.VDW>
-4.39438

>  <SCORE.INTRA.VDW.0>
5.42093

>  <SCORE.INTRA.norm>
-0.109933

>  <SCORE.RESTR>
0

>  <SCORE.RESTR.CAVITY>
0

>  <SCORE.RESTR.norm>
0

>  <SCORE.SYSTEM>
0

>  <SCORE.SYSTEM.CONST>
0

>  <SCORE.SYSTEM.DIHEDRAL>
0

>  <SCORE.SYSTEM.SOLV>
0

>  <SCORE.SYSTEM.norm>
0

>  <SCORE.heavy>
27

>  <SCORE.norm>
-1.19875

>  <RMSD>
7.617

$$$$
lig.pdb
 OpenBabel11021811523D
libRbt.so/2013.1/901 2013/11/27
 27 30  0  0  0  0  0  0  0  0999 V2000
   26.1598   41.2793   24.7827 N   0  0  0  0  0  0  0  0  0  0  0  0
   26.7588   40.5647   23.8626 C   0  0  0  0  0  0  0  0  0  0  0  0
   26.5088   40.6473   22.5315 N   0  0  0  0  0  0  0  0  0  0  0  0
   25.6031   41.5712   22.0921 C   0  0  0  0  0  0  0  0  0  0  0  0
   24.9515   42.3789   22.9795 C   0  0  0  0  0  0  0  0  0  0  0  0
   25.2172   42.2288   24.3904 C   0  0  0  0  0  0  0  0  0  0  0  0
   24.6285   42.8867   25.2572 O   0  0  0  0  0  0  0  0  0  0  0  0
   27.7067   39.3937   24.2031 C   0  0  2  0  0  0  0  0  0  0  0  0
   26.9311   38.1846   23.6553 C   0  0  0  0  0  0  0  0  0  0  0  0
   27.5276   36.9182   24.0839 N   0  0  0  0  0  0  0  0  0  0  0  0
   27.4624   36.8284   25.5516 C   0  0  0  0  0  0  0  0  0  0  0  0
   28.2820   37.9292   26.1956 C   0  0  0  0  0  0  0  0  0  0  0  0
   27.8104   39.3014   25.7350 C   0  0  0  0  0  0  0  0  0  0  0  0
   25.4702   41.5748   20.6414 C   0  0  0  0  0  0  0  0  0  0  0  0
   24.1358   42.3382   19.8593 S   0  0  0  0  0  0  0  0  0  0  0  0
   24.6888   41.8894   18.3416 C   0  0  0  0  0  0  0  0  0  0  0  0
   25.8546   41.2340   18.4074 C   0  0  0  0  0  0  0  0  0  0  0  0
   26.3163   41.0365   19.7234 C   0  0  0  0  0  0  0  0  0  0  0  0
   26.8585   35.7582   23.4692 C   0  0  0  0  0  0  0  0  0  0  0  0
   27.0488   35.6072   21.9764 C   0  0  0  0  0  0  0  0  0  0  0  0
   27.0938   34.3539   21.3832 C   0  0  0  0  0  0  0  0  0  0  0  0
   27.6019   34.1107   20.1615 N   0  0  0  0  0  0  0  0  0  0  0  0
   28.1069   35.1779   19.5609 C   0  0  0  0  0  0  0  0  0  0  0  0
   28.1739   36.4205   20.0114 N   0  0  0  0  0  0  0  0  0  0  0  0
   27.6573   36.5997   21.2360 C   0  0  0  0  0  0  0  0  0  0  0  0
   28.6193   34.9304   18.3500 O   0  0  0  0  0  0  0  0  0  0  0  0
   27.7889   34.2392   17.4096 C   0  0  0  0  0  0  0  0  0  0  0  0
  1  2  2  0  0  0  0
  1  6  1  0  0  0  0
  2  3  1  0  0  0  0
  3  4  2  0  0  0  0
  4 14  1  0  0  0  0
  5  4  1  0  0  0  0
  6  5  1  0  0  0  0
  7  6  2  0  0  0  0
  8  9  1  0  0  0  0
  8  2  1  1  0  0  0
 10 19  1  0  0  0  0
 10  9  1  0  0  0  0
 11 10  1  0  0  0  0
 12 11  1  0  0  0  0
 12 13  1  0  0  0  0
 13  8  1  0  0  0  0
 14 15  1  0  0  0  0
 14 18  2  0  0  0  0
 15 16  1  0  0  0  0
 16 17  2  0  0  0  0
 18 17  1  0  0  0  0
 19 20  1  0  0  0  0
 20 25  2  0  0  0  0
 20 21  1  0  0  0  0
 21 22  2  0  0  0  0
 22 23  1  0  0  0  0
 23 26  1  0  0  0  0
 24 23  2  0  0  0  0
 25 24  1  0  0  0  0
 26 27  1  0  0  0  0
M  END
>  <CHROM.1>
164.23574385,114.10502677,67.98860551,147.52441860,51.88678443,26.59647622
38.84953311,21.97302925,-2.54388546,1.16041279,-1.88592845

>  <Name>
lig.pdb

>  <RI>
0

>  <Rbt.Current_Directory>
/home/itssahil/PROJECTS/Mol_Feturizer/New_Systems/rnas/5kx9

>  <Rbt.Executable>
rbdock ($Id: //depot/dev/client3/rdock/2013.1/src/exe/rbdock.cxx#4 $)

>  <Rbt.Library>
libRbt.so (2013.1, Build901 2013/11/27)

>  <Rbt.Parameter_File>
/export/apps/rDock/src/rDock_2013.1_src/data/scripts/dock_solv.prm

>  <Rbt.Receptor>
prm/blind_docking_80.prm

>  <SCORE>
-33.4036

>  <SCORE.INTER>
-30.599

>  <SCORE.INTER.CONST>
1

>  <SCORE.INTER.POLAR>
0

>  <SCORE.INTER.ROT>
5

>  <SCORE.INTER.SOLV>
17.2467

>  <SCORE.INTER.VDW>
-33.0816

>  <SCORE.INTER.norm>
-1.1333

>  <SCORE.INTRA>
-2.80466

>  <SCORE.INTRA.DIHEDRAL>
2.70065

>  <SCORE.INTRA.DIHEDRAL.0>
2.68224

>  <SCORE.INTRA.POLAR>
0

>  <SCORE.INTRA.POLAR.0>
0

>  <SCORE.INTRA.REPUL>
0

>  <SCORE.INTRA.REPUL.0>
0

>  <SCORE.INTRA.SOLV>
-0.441774

>  <SCORE.INTRA.SOLV.lig_0>
-19.4148

>  <SCORE.INTRA.VDW>
-3.93409

>  <SCORE.INTRA.VDW.0>
5.42093

>  <SCORE.INTRA.norm>
-0.103876

>  <SCORE.RESTR>
0

>  <SCORE.RESTR.CAVITY>
0

>  <SCORE.RESTR.norm>
0

>  <SCORE.SYSTEM>
0

>  <SCORE.SYSTEM.CONST>
0

>  <SCORE.SYSTEM.DIHEDRAL>
0

>  <SCORE.SYSTEM.SOLV>
0

>  <SCORE.SYSTEM.norm>
0

>  <SCORE.heavy>
27

>  <SCORE.norm>
-1.23717

>  <RMSD>
7.619

$$$$
lig.pdb
 OpenBabel11021811523D
libRbt.so/2013.1/901 2013/11/27
 27 30  0  0  0  0  0  0  0  0999 V2000
   26.3983   40.9744   23.5692 N   0  0  0  0  0  0  0  0  0  0  0  0
   27.0796   40.0847   22.8907 C   0  0  0  0  0  0  0  0  0  0  0  0
   27.1242   40.0095   21.5366 N   0  0  0  0  0  0  0  0  0  0  0  0
   26.4545   40.9508   20.8068 C   0  0  0  0  0  0  0  0  0  0  0  0
   25.7407   41.9329   21.4316 C   0  0  0  0  0  0  0  0  0  0  0  0
   25.6862   41.9508   22.8739 C   0  0  0  0  0  0  0  0  0  0  0  0
   25.0187   42.7763   23.5095 O   0  0  0  0  0  0  0  0  0  0  0  0
   27.7795   38.8823   23.5616 C   0  0  2  0  0  0  0  0  0  0  0  0
   27.0710   37.6894   22.8993 C   0  0  0  0  0  0  0  0  0  0  0  0
   27.4013   36.4264   23.5619 N   0  0  0  0  0  0  0  0  0  0  0  0
   26.9268   36.4757   24.9543 C   0  0  0  0  0  0  0  0  0  0  0  0
   27.6405   37.5664   25.7284 C   0  0  0  0  0  0  0  0  0  0  0  0
   27.4487   38.9223   25.0632 C   0  0  0  0  0  0  0  0  0  0  0  0
   26.6275   40.7697   19.3717 C   0  0  0  0  0  0  0  0  0  0  0  0
   25.9968   41.9048   18.2364 S   0  0  0  0  0  0  0  0  0  0  0  0
   26.5578   41.0088   16.9352 C   0  0  0  0  0  0  0  0  0  0  0  0
   27.2358   39.9237   17.3299 C   0  0  0  0  0  0  0  0  0  0  0  0
   27.2799   39.7650   18.7288 C   0  0  0  0  0  0  0  0  0  0  0  0
   26.8178   35.2683   22.8623 C   0  0  0  0  0  0  0  0  0  0  0  0
   27.4119   34.9539   21.5074 C   0  0  0  0  0  0  0  0  0  0  0  0
   27.5520   35.9390   20.5407 C   0  0  0  0  0  0  0  0  0  0  0  0
   27.7265   35.6954   19.2292 N   0  0  0  0  0  0  0  0  0  0  0  0
   27.7165   34.4101   18.9093 C   0  0  0  0  0  0  0  0  0  0  0  0
   27.5537   33.3657   19.7057 N   0  0  0  0  0  0  0  0  0  0  0  0
   27.3785   33.6715   20.9998 C   0  0  0  0  0  0  0  0  0  0  0  0
   27.8813   34.1722   17.6030 O   0  0  0  0  0  0  0  0  0  0  0  0
   29.1089   34.6013   17.0027 C   0  0  0  0  0  0  0  0  0  0  0  0
  1  2  2  0  0  0  0
  1  6  1  0  0  0  0
  2  3  1  0  0  0  0
  3  4  2  0  0  0  0
  4 14  1  0  0  0  0
  5  4  1  0  0  0  0
  6  5  1  0  0  0  0
  7  6  2  0  0  0  0
  8  9  1  0  0  0  0
  8  2  1  6  0  0  0
 10 19  1  0  0  0  0
 10  9  1  0  0  0  0
 11 10  1  0  0  0  0
 12 11  1  0  0  0  0
 12 13  1  0  0  0  0
 13  8  1  0  0  0  0
 14 15  1  0  0  0  0
 14 18  2  0  0  0  0
 15 16  1  0  0  0  0
 16 17  2  0  0  0  0
 18 17  1  0  0  0  0
 19 20  1  0  0  0  0
 20 25  2  0  0  0  0
 20 21  1  0  0  0  0
 21 22  2  0  0  0  0
 22 23  1  0  0  0  0
 23 26  1  0  0  0  0
 24 23  2  0  0  0  0
 25 24  1  0  0  0  0
 26 27  1  0  0  0  0
M  END
>  <CHROM.1>
-174.65321731,118.90969337,69.00751804,-50.50438740,61.71066134,27.01240669
38.29935919,21.03280495,-3.06917944,1.34434946,-1.39305260

>  <Name>
lig.pdb

>  <RI>
0

>  <Rbt.Current_Directory>
/home/itssahil/PROJECTS/Mol_Feturizer/New_Systems/rnas/5kx9

>  <Rbt.Executable>
rbdock ($Id: //depot/dev/client3/rdock/2013.1/src/exe/rbdock.cxx#4 $)

>  <Rbt.Library>
libRbt.so (2013.1, Build901 2013/11/27)

>  <Rbt.Parameter_File>
/export/apps/rDock/src/rDock_2013.1_src/data/scripts/dock_solv.prm

>  <Rbt.Receptor>
prm/pocket_docking_8.prm

>  <SCORE>
-32.349

>  <SCORE.INTER>
-29.5

>  <SCORE.INTER.CONST>
1

>  <SCORE.INTER.POLAR>
0

>  <SCORE.INTER.ROT>
5

>  <SCORE.INTER.SOLV>
15.7539

>  <SCORE.INTER.VDW>
-31.8513

>  <SCORE.INTER.norm>
-1.09259

>  <SCORE.INTRA>
-2.84898

>  <SCORE.INTRA.DIHEDRAL>
3.41052

>  <SCORE.INTRA.DIHEDRAL.0>
2.68224

>  <SCORE.INTRA.POLAR>
0

>  <SCORE.INTRA.POLAR.0>
0

>  <SCORE.INTRA.REPUL>
0

>  <SCORE.INTRA.REPUL.0>
0

>  <SCORE.INTRA.SOLV>
-0.448744

>  <SCORE.INTRA.SOLV.lig_0>
-19.4148

>  <SCORE.INTRA.VDW>
-4.32987

>  <SCORE.INTRA.VDW.0>
5.42093

>  <SCORE.INTRA.norm>
-0.105518

>  <SCORE.RESTR>
0

>  <SCORE.RESTR.CAVITY>
0

>  <SCORE.RESTR.norm>
0

>  <SCORE.SYSTEM>
0

>  <SCORE.SYSTEM.CONST>
0

>  <SCORE.SYSTEM.DIHEDRAL>
0

>  <SCORE.SYSTEM.SOLV>
0

>  <SCORE.SYSTEM.norm>
0

>  <SCORE.heavy>
27

>  <SCORE.norm>
-1.19811

>  <RMSD>
7.619

$$$$
lig.pdb
 OpenBabel11021811523D
libRbt.so/2013.1/901 2013/11/27
 27 30  0  0  0  0  0  0  0  0999 V2000
   26.4898   40.9200   23.6012 N   0  0  0  0  0  0  0  0  0  0  0  0
   27.1123   40.0132   22.8895 C   0  0  0  0  0  0  0  0  0  0  0  0
   27.1055   39.9519   21.5341 N   0  0  0  0  0  0  0  0  0  0  0  0
   26.4460   40.9257   20.8384 C   0  0  0  0  0  0  0  0  0  0  0  0
   25.7927   41.9267   21.4985 C   0  0  0  0  0  0  0  0  0  0  0  0
   25.7906   41.9302   22.9420 C   0  0  0  0  0  0  0  0  0  0  0  0
   25.1780   42.7728   23.6095 O   0  0  0  0  0  0  0  0  0  0  0  0
   27.7898   38.7780   23.5226 C   0  0  2  0  0  0  0  0  0  0  0  0
   27.1032   37.6205   22.7794 C   0  0  0  0  0  0  0  0  0  0  0  0
   27.4116   36.3257   23.3892 N   0  0  0  0  0  0  0  0  0  0  0  0
   26.8921   36.3069   24.7661 C   0  0  0  0  0  0  0  0  0  0  0  0
   27.5802   37.3568   25.6160 C   0  0  0  0  0  0  0  0  0  0  0  0
   27.4103   38.7443   25.0128 C   0  0  0  0  0  0  0  0  0  0  0  0
   26.5605   40.7546   19.3963 C   0  0  0  0  0  0  0  0  0  0  0  0
   27.3273   39.3704   18.7098 S   0  0  0  0  0  0  0  0  0  0  0  0
   27.0785   39.9298   17.1490 C   0  0  0  0  0  0  0  0  0  0  0  0
   26.4034   41.0860   17.1335 C   0  0  0  0  0  0  0  0  0  0  0  0
   26.1032   41.5804   18.4178 C   0  0  0  0  0  0  0  0  0  0  0  0
   26.8512   35.2046   22.6145 C   0  0  0  0  0  0  0  0  0  0  0  0
   27.4914   34.9542   21.2673 C   0  0  0  0  0  0  0  0  0  0  0  0
   27.7296   35.9961   20.3828 C   0  0  0  0  0  0  0  0  0  0  0  0
   27.9530   35.8370   19.0657 N   0  0  0  0  0  0  0  0  0  0  0  0
   27.8899   34.5802   18.6519 C   0  0  0  0  0  0  0  0  0  0  0  0
   27.6342   33.4927   19.3614 N   0  0  0  0  0  0  0  0  0  0  0  0
   27.4141   33.7151   20.6656 C   0  0  0  0  0  0  0  0  0  0  0  0
   28.1038   34.4269   17.3401 O   0  0  0  0  0  0  0  0  0  0  0  0
   29.1363   33.5181   16.9405 C   0  0  0  0  0  0  0  0  0  0  0  0
  1  2  2  0  0  0  0
  1  6  1  0  0  0  0
  2  3  1  0  0  0  0
  3  4  2  0  0  0  0
  4 14  1  0  0  0  0
  5  4  1  0  0  0  0
  6  5  1  0  0  0  0
  7  6  2  0  0  0  0
  8  9  1  0  0  0  0
  8  2  1  6  0  0  0
 10 19  1  0  0  0  0
 10  9  1  0  0  0  0
 11 10  1  0  0  0  0
 12 11  1  0  0  0  0
 12 13  1  0  0  0  0
 13  8  1  0  0  0  0
 14 15  1  0  0  0  0
 14 18  2  0  0  0  0
 15 16  1  0  0  0  0
 16 17  2  0  0  0  0
 18 17  1  0  0  0  0
 19 20  1  0  0  0  0
 20 25  2  0  0  0  0
 20 21  1  0  0  0  0
 21 22  2  0  0  0  0
 22 23  1  0  0  0  0
 23 26  1  0  0  0  0
 24 23  2  0  0  0  0
 25 24  1  0  0  0  0
 26 27  1  0  0  0  0
M  END
>  <CHROM.1>
5.46523876,123.89207722,69.16024004,-47.12466967,125.17857072,27.12122657
38.09763814,20.97579639,-2.89277838,1.34177690,-1.32986632

>  <Name>
lig.pdb

>  <RI>
0

>  <Rbt.Current_Directory>
/home/itssahil/PROJECTS/Mol_Feturizer/New_Systems/rnas/5kx9

>  <Rbt.Executable>
rbdock ($Id: //depot/dev/client3/rdock/2013.1/src/exe/rbdock.cxx#4 $)

>  <Rbt.Library>
libRbt.so (2013.1, Build901 2013/11/27)

>  <Rbt.Parameter_File>
/export/apps/rDock/src/rDock_2013.1_src/data/scripts/dock_solv.prm

>  <Rbt.Receptor>
prm/pocket_docking_6.prm

>  <SCORE>
-32.3708

>  <SCORE.INTER>
-29.4773

>  <SCORE.INTER.CONST>
1

>  <SCORE.INTER.POLAR>
0

>  <SCORE.INTER.ROT>
5

>  <SCORE.INTER.SOLV>
15.5802

>  <SCORE.INTER.VDW>
-31.7783

>  <SCORE.INTER.norm>
-1.09175

>  <SCORE.INTRA>
-2.89343

>  <SCORE.INTRA.DIHEDRAL>
3.02896

>  <SCORE.INTRA.DIHEDRAL.0>
2.68224

>  <SCORE.INTRA.POLAR>
0

>  <SCORE.INTRA.POLAR.0>
0

>  <SCORE.INTRA.REPUL>
0

>  <SCORE.INTRA.REPUL.0>
0

>  <SCORE.INTRA.SOLV>
-0.161948

>  <SCORE.INTRA.SOLV.lig_0>
-19.4148

>  <SCORE.INTRA.VDW>
-4.32694

>  <SCORE.INTRA.VDW.0>
5.42093

>  <SCORE.INTRA.norm>
-0.107164

>  <SCORE.RESTR>
0

>  <SCORE.RESTR.CAVITY>
0

>  <SCORE.RESTR.norm>
0

>  <SCORE.SYSTEM>
0

>  <SCORE.SYSTEM.CONST>
0

>  <SCORE.SYSTEM.DIHEDRAL>
0

>  <SCORE.SYSTEM.SOLV>
0

>  <SCORE.SYSTEM.norm>
0

>  <SCORE.heavy>
27

>  <SCORE.norm>
-1.19892

>  <RMSD>
7.624

$$$$
lig.pdb
 OpenBabel11021811523D
libRbt.so/2013.1/901 2013/11/27
 27 30  0  0  0  0  0  0  0  0999 V2000
   26.6899   40.5740   23.0202 N   0  0  0  0  0  0  0  0  0  0  0  0
   27.6148   39.7603   22.5743 C   0  0  0  0  0  0  0  0  0  0  0  0
   28.2566   39.8923   21.3862 N   0  0  0  0  0  0  0  0  0  0  0  0
   27.9663   40.9732   20.6023 C   0  0  0  0  0  0  0  0  0  0  0  0
   27.0349   41.8883   21.0016 C   0  0  0  0  0  0  0  0  0  0  0  0
   26.3459   41.6869   22.2540 C   0  0  0  0  0  0  0  0  0  0  0  0
   25.4535   42.4431   22.6574 O   0  0  0  0  0  0  0  0  0  0  0  0
   27.9621   38.4291   23.2764 C   0  0  2  0  0  0  0  0  0  0  0  0
   27.2784   37.3981   22.3637 C   0  0  0  0  0  0  0  0  0  0  0  0
   27.2642   36.0644   22.9672 N   0  0  0  0  0  0  0  0  0  0  0  0
   26.4797   36.1083   24.2118 C   0  0  0  0  0  0  0  0  0  0  0  0
   27.1276   37.0315   25.2247 C   0  0  0  0  0  0  0  0  0  0  0  0
   27.2881   38.4357   24.6590 C   0  0  0  0  0  0  0  0  0  0  0  0
   28.7607   41.0054   19.3816 C   0  0  0  0  0  0  0  0  0  0  0  0
   28.7359   42.3682   18.3245 S   0  0  0  0  0  0  0  0  0  0  0  0
   29.7988   41.6357   17.2546 C   0  0  0  0  0  0  0  0  0  0  0  0
   30.1997   40.4349   17.6909 C   0  0  0  0  0  0  0  0  0  0  0  0
   29.6069   40.0515   18.9097 C   0  0  0  0  0  0  0  0  0  0  0  0
   26.7143   35.0506   22.0502 C   0  0  0  0  0  0  0  0  0  0  0  0
   27.5269   34.7863   20.8023 C   0  0  0  0  0  0  0  0  0  0  0  0
   27.7583   35.7895   19.8724 C   0  0  0  0  0  0  0  0  0  0  0  0
   28.1463   35.5721   18.6027 N   0  0  0  0  0  0  0  0  0  0  0  0
   28.2587   34.2922   18.2805 C   0  0  0  0  0  0  0  0  0  0  0  0
   28.0347   33.2307   19.0385 N   0  0  0  0  0  0  0  0  0  0  0  0
   27.6451   33.5104   20.2910 C   0  0  0  0  0  0  0  0  0  0  0  0
   28.6361   34.0799   17.0146 O   0  0  0  0  0  0  0  0  0  0  0  0
   29.8508   34.6982   16.5744 C   0  0  0  0  0  0  0  0  0  0  0  0
  1  2  2  0  0  0  0
  1  6  1  0  0  0  0
  2  3  1  0  0  0  0
  3  4  2  0  0  0  0
  4 14  1  0  0  0  0
  5  4  1  0  0  0  0
  6  5  1  0  0  0  0
  7  6  2  0  0  0  0
  8  9  1  0  0  0  0
  8  2  1  6  0  0  0
 10 19  1  0  0  0  0
 10  9  1  0  0  0  0
 11 10  1  0  0  0  0
 12 11  1  0  0  0  0
 12 13  1  0  0  0  0
 13  8  1  0  0  0  0
 14 15  1  0  0  0  0
 14 18  2  0  0  0  0
 15 16  1  0  0  0  0
 16 17  2  0  0  0  0
 18 17  1  0  0  0  0
 19 20  1  0  0  0  0
 20 25  2  0  0  0  0
 20 21  1  0  0  0  0
 21 22  2  0  0  0  0
 22 23  1  0  0  0  0
 23 26  1  0  0  0  0
 24 23  2  0  0  0  0
 25 24  1  0  0  0  0
 26 27  1  0  0  0  0
M  END
>  <CHROM.1>
-171.88107496,103.50867757,65.38988823,-61.67319188,55.54471881,27.89428827
38.21468425,20.63894974,1.68809206,1.19461144,0.05985154

>  <Name>
lig.pdb

>  <RI>
0

>  <Rbt.Current_Directory>
/home/itssahil/PROJECTS/Mol_Feturizer/New_Systems/rnas/5kx9

>  <Rbt.Executable>
rbdock ($Id: //depot/dev/client3/rdock/2013.1/src/exe/rbdock.cxx#4 $)

>  <Rbt.Library>
libRbt.so (2013.1, Build901 2013/11/27)

>  <Rbt.Parameter_File>
/export/apps/rDock/src/rDock_2013.1_src/data/scripts/dock_solv.prm

>  <Rbt.Receptor>
prm/pocket_docking_7.prm

>  <SCORE>
-32.3281

>  <SCORE.INTER>
-28.6099

>  <SCORE.INTER.CONST>
1

>  <SCORE.INTER.POLAR>
0

>  <SCORE.INTER.ROT>
5

>  <SCORE.INTER.SOLV>
15.9546

>  <SCORE.INTER.VDW>
-31.3248

>  <SCORE.INTER.norm>
-1.05963

>  <SCORE.INTRA>
-3.71821

>  <SCORE.INTRA.DIHEDRAL>
2.6563

>  <SCORE.INTRA.DIHEDRAL.0>
2.68224

>  <SCORE.INTRA.POLAR>
0

>  <SCORE.INTRA.POLAR.0>
0

>  <SCORE.INTRA.REPUL>
0

>  <SCORE.INTRA.REPUL.0>
0

>  <SCORE.INTRA.SOLV>
-0.565491

>  <SCORE.INTRA.SOLV.lig_0>
-19.4148

>  <SCORE.INTRA.VDW>
-4.76362

>  <SCORE.INTRA.VDW.0>
5.42093

>  <SCORE.INTRA.norm>
-0.137712

>  <SCORE.RESTR>
0

>  <SCORE.RESTR.CAVITY>
0

>  <SCORE.RESTR.norm>
0

>  <SCORE.SYSTEM>
0

>  <SCORE.SYSTEM.CONST>
0

>  <SCORE.SYSTEM.DIHEDRAL>
0

>  <SCORE.SYSTEM.SOLV>
0

>  <SCORE.SYSTEM.norm>
0

>  <SCORE.heavy>
27

>  <SCORE.norm>
-1.19734

>  <RMSD>
7.646

$$$$
lig.pdb
 OpenBabel11021811523D
libRbt.so/2013.1/901 2013/11/27
 27 30  0  0  0  0  0  0  0  0999 V2000
   26.5575   40.6916   23.3280 N   0  0  0  0  0  0  0  0  0  0  0  0
   27.4730   39.8729   22.8720 C   0  0  0  0  0  0  0  0  0  0  0  0
   28.0833   39.9863   21.6655 N   0  0  0  0  0  0  0  0  0  0  0  0
   27.7694   41.0530   20.8713 C   0  0  0  0  0  0  0  0  0  0  0  0
   26.8459   41.9723   21.2792 C   0  0  0  0  0  0  0  0  0  0  0  0
   26.1902   41.7904   22.5523 C   0  0  0  0  0  0  0  0  0  0  0  0
   25.3063   42.5509   22.9659 O   0  0  0  0  0  0  0  0  0  0  0  0
   27.8425   38.5548   23.5873 C   0  0  2  0  0  0  0  0  0  0  0  0
   27.1803   37.5031   22.6823 C   0  0  0  0  0  0  0  0  0  0  0  0
   27.1887   36.1750   23.2981 N   0  0  0  0  0  0  0  0  0  0  0  0
   26.4001   36.2160   24.5401 C   0  0  0  0  0  0  0  0  0  0  0  0
   27.0282   37.1601   25.5462 C   0  0  0  0  0  0  0  0  0  0  0  0
   27.1646   38.5617   24.9680 C   0  0  0  0  0  0  0  0  0  0  0  0
   28.5318   41.0666   19.6300 C   0  0  0  0  0  0  0  0  0  0  0  0
   29.6036   39.7804   19.2152 S   0  0  0  0  0  0  0  0  0  0  0  0
   30.0542   40.5338   17.7868 C   0  0  0  0  0  0  0  0  0  0  0  0
   29.3937   41.6831   17.5973 C   0  0  0  0  0  0  0  0  0  0  0  0
   28.5187   42.0104   18.6515 C   0  0  0  0  0  0  0  0  0  0  0  0
   26.6600   35.1429   22.3890 C   0  0  0  0  0  0  0  0  0  0  0  0
   27.4854   34.8759   21.1501 C   0  0  0  0  0  0  0  0  0  0  0  0
   27.8447   35.9060   20.2931 C   0  0  0  0  0  0  0  0  0  0  0  0
   28.2530   35.7289   19.0235 N   0  0  0  0  0  0  0  0  0  0  0  0
   28.2517   34.4661   18.6235 C   0  0  0  0  0  0  0  0  0  0  0  0
   27.8999   33.3879   19.3055 N   0  0  0  0  0  0  0  0  0  0  0  0
   27.4966   33.6280   20.5619 C   0  0  0  0  0  0  0  0  0  0  0  0
   28.6498   34.2949   17.3577 O   0  0  0  0  0  0  0  0  0  0  0  0
   27.6568   33.9137   16.3983 C   0  0  0  0  0  0  0  0  0  0  0  0
  1  2  2  0  0  0  0
  1  6  1  0  0  0  0
  2  3  1  0  0  0  0
  3  4  2  0  0  0  0
  4 14  1  0  0  0  0
  5  4  1  0  0  0  0
  6  5  1  0  0  0  0
  7  6  2  0  0  0  0
  8  9  1  0  0  0  0
  8  2  1  6  0  0  0
 10 19  1  0  0  0  0
 10  9  1  0  0  0  0
 11 10  1  0  0  0  0
 12 11  1  0  0  0  0
 12 13  1  0  0  0  0
 13  8  1  0  0  0  0
 14 15  1  0  0  0  0
 14 18  2  0  0  0  0
 15 16  1  0  0  0  0
 16 17  2  0  0  0  0
 18 17  1  0  0  0  0
 19 20  1  0  0  0  0
 20 25  2  0  0  0  0
 20 21  1  0  0  0  0
 21 22  2  0  0  0  0
 22 23  1  0  0  0  0
 23 26  1  0  0  0  0
 24 23  2  0  0  0  0
 25 24  1  0  0  0  0
 26 27  1  0  0  0  0
M  END
>  <CHROM.1>
4.48655907,105.42800696,65.76157168,-53.83380595,-109.36651285,27.75075185
38.13095416,20.95829523,1.82283391,1.22161087,0.14788712

>  <Name>
lig.pdb

>  <RI>
0

>  <Rbt.Current_Directory>
/home/itssahil/PROJECTS/Mol_Feturizer/New_Systems/rnas/5kx9

>  <Rbt.Executable>
rbdock ($Id: //depot/dev/client3/rdock/2013.1/src/exe/rbdock.cxx#4 $)

>  <Rbt.Library>
libRbt.so (2013.1, Build901 2013/11/27)

>  <Rbt.Parameter_File>
/export/apps/rDock/src/rDock_2013.1_src/data/scripts/dock_solv.prm

>  <Rbt.Receptor>
prm/blind_docking_80.prm

>  <SCORE>
-32.58

>  <SCORE.INTER>
-28.9441

>  <SCORE.INTER.CONST>
1

>  <SCORE.INTER.POLAR>
0

>  <SCORE.INTER.ROT>
5

>  <SCORE.INTER.SOLV>
16.191

>  <SCORE.INTER.VDW>
-31.6264

>  <SCORE.INTER.norm>
-1.072

>  <SCORE.INTRA>
-3.63596

>  <SCORE.INTRA.DIHEDRAL>
3.68961

>  <SCORE.INTRA.DIHEDRAL.0>
2.68224

>  <SCORE.INTRA.POLAR>
0

>  <SCORE.INTRA.POLAR.0>
0

>  <SCORE.INTRA.REPUL>
0

>  <SCORE.INTRA.REPUL.0>
0

>  <SCORE.INTRA.SOLV>
-0.416301

>  <SCORE.INTRA.SOLV.lig_0>
-19.4148

>  <SCORE.INTRA.VDW>
-5.27262

>  <SCORE.INTRA.VDW.0>
5.42093

>  <SCORE.INTRA.norm>
-0.134665

>  <SCORE.RESTR>
0

>  <SCORE.RESTR.CAVITY>
0

>  <SCORE.RESTR.norm>
0

>  <SCORE.SYSTEM>
0

>  <SCORE.SYSTEM.CONST>
0

>  <SCORE.SYSTEM.DIHEDRAL>
0

>  <SCORE.SYSTEM.SOLV>
0

>  <SCORE.SYSTEM.norm>
0

>  <SCORE.heavy>
27

>  <SCORE.norm>
-1.20667

>  <RMSD>
7.647

$$$$
lig.pdb
 OpenBabel11021811523D
libRbt.so/2013.1/901 2013/11/27
 27 30  0  0  0  0  0  0  0  0999 V2000
   26.4381   40.9909   23.5939 N   0  0  0  0  0  0  0  0  0  0  0  0
   27.0904   40.0909   22.9005 C   0  0  0  0  0  0  0  0  0  0  0  0
   27.1060   40.0171   21.5458 N   0  0  0  0  0  0  0  0  0  0  0  0
   26.4372   40.9704   20.8309 C   0  0  0  0  0  0  0  0  0  0  0  0
   25.7530   41.9634   21.4713 C   0  0  0  0  0  0  0  0  0  0  0  0
   25.7284   41.9801   22.9145 C   0  0  0  0  0  0  0  0  0  0  0  0
   25.0879   42.8157   23.5646 O   0  0  0  0  0  0  0  0  0  0  0  0
   27.7837   38.8760   23.5556 C   0  0  2  0  0  0  0  0  0  0  0  0
   27.0786   37.6959   22.8674 C   0  0  0  0  0  0  0  0  0  0  0  0
   27.4022   36.4211   23.5104 N   0  0  0  0  0  0  0  0  0  0  0  0
   26.9176   36.4468   24.8999 C   0  0  0  0  0  0  0  0  0  0  0  0
   27.6269   37.5229   25.6980 C   0  0  0  0  0  0  0  0  0  0  0  0
   27.4419   38.8904   25.0552 C   0  0  0  0  0  0  0  0  0  0  0  0
   26.5776   40.7886   19.3924 C   0  0  0  0  0  0  0  0  0  0  0  0
   27.4057   39.4275   18.7314 S   0  0  0  0  0  0  0  0  0  0  0  0
   27.1570   39.9604   17.1614 C   0  0  0  0  0  0  0  0  0  0  0  0
   26.4388   41.0899   17.1242 C   0  0  0  0  0  0  0  0  0  0  0  0
   26.1027   41.5860   18.3989 C   0  0  0  0  0  0  0  0  0  0  0  0
   26.8224   35.2761   22.7864 C   0  0  0  0  0  0  0  0  0  0  0  0
   27.4839   34.9296   21.4711 C   0  0  0  0  0  0  0  0  0  0  0  0
   27.8029   35.9151   20.5483 C   0  0  0  0  0  0  0  0  0  0  0  0
   28.0525   35.6833   19.2468 N   0  0  0  0  0  0  0  0  0  0  0  0
   27.9313   34.4140   18.8880 C   0  0  0  0  0  0  0  0  0  0  0  0
   27.5969   33.3759   19.6376 N   0  0  0  0  0  0  0  0  0  0  0  0
   27.3545   33.6699   20.9235 C   0  0  0  0  0  0  0  0  0  0  0  0
   28.1715   34.1889   17.5912 O   0  0  0  0  0  0  0  0  0  0  0  0
   27.0605   33.8139   16.7685 C   0  0  0  0  0  0  0  0  0  0  0  0
  1  2  2  0  0  0  0
  1  6  1  0  0  0  0
  2  3  1  0  0  0  0
  3  4  2  0  0  0  0
  4 14  1  0  0  0  0
  5  4  1  0  0  0  0
  6  5  1  0  0  0  0
  7  6  2  0  0  0  0
  8  9  1  0  0  0  0
  8  2  1  6  0  0  0
 10 19  1  0  0  0  0
 10  9  1  0  0  0  0
 11 10  1  0  0  0  0
 12 11  1  0  0  0  0
 12 13  1  0  0  0  0
 13  8  1  0  0  0  0
 14 15  1  0  0  0  0
 14 18  2  0  0  0  0
 15 16  1  0  0  0  0
 16 17  2  0  0  0  0
 18 17  1  0  0  0  0
 19 20  1  0  0  0  0
 20 25  2  0  0  0  0
 20 21  1  0  0  0  0
 21 22  2  0  0  0  0
 22 23  1  0  0  0  0
 23 26  1  0  0  0  0
 24 23  2  0  0  0  0
 25 24  1  0  0  0  0
 26 27  1  0  0  0  0
M  END
>  <CHROM.1>
4.47808519,120.95384911,72.76598818,-45.68221276,-110.92886757,27.04870040
38.12857825,21.04656950,-2.77908607,1.38108867,-1.48283297

>  <Name>
lig.pdb

>  <RI>
0

>  <Rbt.Current_Directory>
/home/itssahil/PROJECTS/Mol_Feturizer/New_Systems/rnas/5kx9

>  <Rbt.Executable>
rbdock ($Id: //depot/dev/client3/rdock/2013.1/src/exe/rbdock.cxx#4 $)

>  <Rbt.Library>
libRbt.so (2013.1, Build901 2013/11/27)

>  <Rbt.Parameter_File>
/export/apps/rDock/src/rDock_2013.1_src/data/scripts/dock_solv.prm

>  <Rbt.Receptor>
prm/blind_docking_100.prm

>  <SCORE>
-32.5239

>  <SCORE.INTER>
-29.4691

>  <SCORE.INTER.CONST>
1

>  <SCORE.INTER.POLAR>
0

>  <SCORE.INTER.ROT>
5

>  <SCORE.INTER.SOLV>
15.8856

>  <SCORE.INTER.VDW>
-31.8746

>  <SCORE.INTER.norm>
-1.09145

>  <SCORE.INTRA>
-3.05481

>  <SCORE.INTRA.DIHEDRAL>
4.04703

>  <SCORE.INTRA.DIHEDRAL.0>
2.68224

>  <SCORE.INTRA.POLAR>
0

>  <SCORE.INTRA.POLAR.0>
0

>  <SCORE.INTRA.REPUL>
0

>  <SCORE.INTRA.REPUL.0>
0

>  <SCORE.INTRA.SOLV>
-0.249976

>  <SCORE.INTRA.SOLV.lig_0>
-19.4148

>  <SCORE.INTRA.VDW>
-4.95333

>  <SCORE.INTRA.VDW.0>
5.42093

>  <SCORE.INTRA.norm>
-0.113141

>  <SCORE.RESTR>
0

>  <SCORE.RESTR.CAVITY>
0

>  <SCORE.RESTR.norm>
0

>  <SCORE.SYSTEM>
0

>  <SCORE.SYSTEM.CONST>
0

>  <SCORE.SYSTEM.DIHEDRAL>
0

>  <SCORE.SYSTEM.SOLV>
0

>  <SCORE.SYSTEM.norm>
0

>  <SCORE.heavy>
27

>  <SCORE.norm>
-1.20459

>  <RMSD>
7.663

$$$$
lig.pdb
 OpenBabel11021811523D
libRbt.so/2013.1/901 2013/11/27
 27 30  0  0  0  0  0  0  0  0999 V2000
   26.1073   41.1231   23.7189 N   0  0  0  0  0  0  0  0  0  0  0  0
   26.8904   40.3113   23.0528 C   0  0  0  0  0  0  0  0  0  0  0  0
   26.9629   40.2399   21.6998 N   0  0  0  0  0  0  0  0  0  0  0  0
   26.2066   41.1028   20.9577 C   0  0  0  0  0  0  0  0  0  0  0  0
   25.3821   42.0030   21.5694 C   0  0  0  0  0  0  0  0  0  0  0  0
   25.3046   42.0165   23.0107 C   0  0  0  0  0  0  0  0  0  0  0  0
   24.5427   42.7660   23.6342 O   0  0  0  0  0  0  0  0  0  0  0  0
   27.7056   39.1920   23.7371 C   0  0  2  0  0  0  0  0  0  0  0  0
   26.9986   37.9249   23.2289 C   0  0  0  0  0  0  0  0  0  0  0  0
   27.4483   36.7292   23.9439 N   0  0  0  0  0  0  0  0  0  0  0  0
   27.1003   36.8612   25.3679 C   0  0  0  0  0  0  0  0  0  0  0  0
   27.8276   38.0349   25.9937 C   0  0  0  0  0  0  0  0  0  0  0  0
   27.5109   39.3288   25.2567 C   0  0  0  0  0  0  0  0  0  0  0  0
   26.4193   40.9398   19.5258 C   0  0  0  0  0  0  0  0  0  0  0  0
   25.5664   41.8972   18.3721 S   0  0  0  0  0  0  0  0  0  0  0  0
   26.3095   41.1202   17.0857 C   0  0  0  0  0  0  0  0  0  0  0  0
   27.2008   40.2100   17.4981 C   0  0  0  0  0  0  0  0  0  0  0  0
   27.2724   40.0864   18.8994 C   0  0  0  0  0  0  0  0  0  0  0  0
   26.8606   35.4992   23.3845 C   0  0  0  0  0  0  0  0  0  0  0  0
   27.3982   35.0699   22.0376 C   0  0  0  0  0  0  0  0  0  0  0  0
   27.6254   35.9951   21.0291 C   0  0  0  0  0  0  0  0  0  0  0  0
   27.7538   35.6819   19.7271 N   0  0  0  0  0  0  0  0  0  0  0  0
   27.6054   34.3927   19.4613 C   0  0  0  0  0  0  0  0  0  0  0  0
   27.3470   33.4041   20.3023 N   0  0  0  0  0  0  0  0  0  0  0  0
   27.2241   33.7786   21.5843 C   0  0  0  0  0  0  0  0  0  0  0  0
   27.7248   34.0863   18.1644 O   0  0  0  0  0  0  0  0  0  0  0  0
   26.5182   33.9138   17.4122 C   0  0  0  0  0  0  0  0  0  0  0  0
  1  2  2  0  0  0  0
  1  6  1  0  0  0  0
  2  3  1  0  0  0  0
  3  4  2  0  0  0  0
  4 14  1  0  0  0  0
  5  4  1  0  0  0  0
  6  5  1  0  0  0  0
  7  6  2  0  0  0  0
  8  9  1  0  0  0  0
  8  2  1  6  0  0  0
 10 19  1  0  0  0  0
 10  9  1  0  0  0  0
 11 10  1  0  0  0  0
 12 11  1  0  0  0  0
 12 13  1  0  0  0  0
 13  8  1  0  0  0  0
 14 15  1  0  0  0  0
 14 18  2  0  0  0  0
 15 16  1  0  0  0  0
 16 17  2  0  0  0  0
 18 17  1  0  0  0  0
 19 20  1  0  0  0  0
 20 25  2  0  0  0  0
 20 21  1  0  0  0  0
 21 22  2  0  0  0  0
 22 23  1  0  0  0  0
 23 26  1  0  0  0  0
 24 23  2  0  0  0  0
 25 24  1  0  0  0  0
 26 27  1  0  0  0  0
M  END
>  <CHROM.1>
179.18305480,110.73959811,72.17700520,-42.43241326,-99.15905787,26.77717347
38.42212057,21.33410507,-2.77803314,1.35078482,-1.80548989

>  <Name>
lig.pdb

>  <RI>
0

>  <Rbt.Current_Directory>
/home/itssahil/PROJECTS/Mol_Feturizer/New_Systems/rnas/5kx9

>  <Rbt.Executable>
rbdock ($Id: //depot/dev/client3/rdock/2013.1/src/exe/rbdock.cxx#4 $)

>  <Rbt.Library>
libRbt.so (2013.1, Build901 2013/11/27)

>  <Rbt.Parameter_File>
/export/apps/rDock/src/rDock_2013.1_src/data/scripts/dock_solv.prm

>  <Rbt.Receptor>
prm/blind_docking_80.prm

>  <SCORE>
-32.6609

>  <SCORE.INTER>
-29.3931

>  <SCORE.INTER.CONST>
1

>  <SCORE.INTER.POLAR>
0

>  <SCORE.INTER.ROT>
5

>  <SCORE.INTER.SOLV>
16.3306

>  <SCORE.INTER.VDW>
-31.9723

>  <SCORE.INTER.norm>
-1.08863

>  <SCORE.INTRA>
-3.2678

>  <SCORE.INTRA.DIHEDRAL>
4.39621

>  <SCORE.INTRA.DIHEDRAL.0>
2.68224

>  <SCORE.INTRA.POLAR>
0

>  <SCORE.INTRA.POLAR.0>
0

>  <SCORE.INTRA.REPUL>
0

>  <SCORE.INTRA.REPUL.0>
0

>  <SCORE.INTRA.SOLV>
-0.532771

>  <SCORE.INTRA.SOLV.lig_0>
-19.4148

>  <SCORE.INTRA.VDW>
-5.19952

>  <SCORE.INTRA.VDW.0>
5.42093

>  <SCORE.INTRA.norm>
-0.12103

>  <SCORE.RESTR>
0

>  <SCORE.RESTR.CAVITY>
0

>  <SCORE.RESTR.norm>
0

>  <SCORE.SYSTEM>
0

>  <SCORE.SYSTEM.CONST>
0

>  <SCORE.SYSTEM.DIHEDRAL>
0

>  <SCORE.SYSTEM.SOLV>
0

>  <SCORE.SYSTEM.norm>
0

>  <SCORE.heavy>
27

>  <SCORE.norm>
-1.20966

>  <RMSD>
7.681

$$$$
lig.pdb
 OpenBabel11021811523D
libRbt.so/2013.1/901 2013/11/27
 27 30  0  0  0  0  0  0  0  0999 V2000
   26.7393   40.5189   22.6250 N   0  0  0  0  0  0  0  0  0  0  0  0
   27.7060   39.6860   22.3287 C   0  0  0  0  0  0  0  0  0  0  0  0
   28.4580   39.7403   21.2006 N   0  0  0  0  0  0  0  0  0  0  0  0
   28.2394   40.7594   20.3171 C   0  0  0  0  0  0  0  0  0  0  0  0
   27.2702   41.6902   20.5593 C   0  0  0  0  0  0  0  0  0  0  0  0
   26.4653   41.5707   21.7516 C   0  0  0  0  0  0  0  0  0  0  0  0
   25.5352   42.3436   22.0130 O   0  0  0  0  0  0  0  0  0  0  0  0
   27.9903   38.4120   23.1544 C   0  0  2  0  0  0  0  0  0  0  0  0
   27.3079   37.3241   22.3092 C   0  0  0  0  0  0  0  0  0  0  0  0
   27.2343   36.0485   23.0239 N   0  0  0  0  0  0  0  0  0  0  0  0
   26.4098   36.2207   24.2309 C   0  0  0  0  0  0  0  0  0  0  0  0
   27.0499   37.2109   25.1839 C   0  0  0  0  0  0  0  0  0  0  0  0
   27.2705   38.5561   24.5060 C   0  0  0  0  0  0  0  0  0  0  0  0
   29.1468   40.7137   19.1784 C   0  0  0  0  0  0  0  0  0  0  0  0
   30.3617   39.4970   19.0409 S   0  0  0  0  0  0  0  0  0  0  0  0
   30.9247   40.1349   17.5962 C   0  0  0  0  0  0  0  0  0  0  0  0
   30.2029   41.1911   17.2006 C   0  0  0  0  0  0  0  0  0  0  0  0
   29.1801   41.5441   18.1023 C   0  0  0  0  0  0  0  0  0  0  0  0
   26.6862   34.9738   22.1778 C   0  0  0  0  0  0  0  0  0  0  0  0
   27.3959   34.7502   20.8611 C   0  0  0  0  0  0  0  0  0  0  0  0
   27.3836   35.7180   19.8673 C   0  0  0  0  0  0  0  0  0  0  0  0
   27.6664   35.4806   18.5736 N   0  0  0  0  0  0  0  0  0  0  0  0
   27.9283   34.2116   18.2989 C   0  0  0  0  0  0  0  0  0  0  0  0
   27.9387   33.1768   19.1238 N   0  0  0  0  0  0  0  0  0  0  0  0
   27.6435   33.4745   20.3978 C   0  0  0  0  0  0  0  0  0  0  0  0
   28.2003   33.9779   17.0099 O   0  0  0  0  0  0  0  0  0  0  0  0
   29.4518   33.3535   16.7011 C   0  0  0  0  0  0  0  0  0  0  0  0
  1  2  2  0  0  0  0
  1  6  1  0  0  0  0
  2  3  1  0  0  0  0
  3  4  2  0  0  0  0
  4 14  1  0  0  0  0
  5  4  1  0  0  0  0
  6  5  1  0  0  0  0
  7  6  2  0  0  0  0
  8  9  1  0  0  0  0
  8  2  1  6  0  0  0
 10 19  1  0  0  0  0
 10  9  1  0  0  0  0
 11 10  1  0  0  0  0
 12 11  1  0  0  0  0
 12 13  1  0  0  0  0
 13  8  1  0  0  0  0
 14 15  1  0  0  0  0
 14 18  2  0  0  0  0
 15 16  1  0  0  0  0
 16 17  2  0  0  0  0
 18 17  1  0  0  0  0
 19 20  1  0  0  0  0
 20 25  2  0  0  0  0
 20 21  1  0  0  0  0
 21 22  2  0  0  0  0
 22 23  1  0  0  0  0
 23 26  1  0  0  0  0
 24 23  2  0  0  0  0
 25 24  1  0  0  0  0
 26 27  1  0  0  0  0
M  END
>  <CHROM.1>
-1.16018864,99.39804307,54.81219133,-65.68239924,123.50469288,28.01425309
37.89807364,20.57028288,1.63662799,1.11988159,0.22995820

>  <Name>
lig.pdb

>  <RI>
0

>  <Rbt.Current_Directory>
/home/itssahil/PROJECTS/Mol_Feturizer/New_Systems/rnas/5kx9

>  <Rbt.Executable>
rbdock ($Id: //depot/dev/client3/rdock/2013.1/src/exe/rbdock.cxx#4 $)

>  <Rbt.Library>
libRbt.so (2013.1, Build901 2013/11/27)

>  <Rbt.Parameter_File>
/export/apps/rDock/src/rDock_2013.1_src/data/scripts/dock_solv.prm

>  <Rbt.Receptor>
prm/pocket_docking_6.prm

>  <SCORE>
-32.5822

>  <SCORE.INTER>
-28.8347

>  <SCORE.INTER.CONST>
1

>  <SCORE.INTER.POLAR>
0

>  <SCORE.INTER.ROT>
5

>  <SCORE.INTER.SOLV>
15.4426

>  <SCORE.INTER.VDW>
-31.304

>  <SCORE.INTER.norm>
-1.06795

>  <SCORE.INTRA>
-3.74748

>  <SCORE.INTRA.DIHEDRAL>
2.47971

>  <SCORE.INTRA.DIHEDRAL.0>
2.68224

>  <SCORE.INTRA.POLAR>
0

>  <SCORE.INTRA.POLAR.0>
0

>  <SCORE.INTRA.REPUL>
0

>  <SCORE.INTRA.REPUL.0>
0

>  <SCORE.INTRA.SOLV>
-0.51991

>  <SCORE.INTRA.SOLV.lig_0>
-19.4148

>  <SCORE.INTRA.VDW>
-4.72738

>  <SCORE.INTRA.VDW.0>
5.42093

>  <SCORE.INTRA.norm>
-0.138796

>  <SCORE.RESTR>
0

>  <SCORE.RESTR.CAVITY>
0

>  <SCORE.RESTR.norm>
0

>  <SCORE.SYSTEM>
0

>  <SCORE.SYSTEM.CONST>
0

>  <SCORE.SYSTEM.DIHEDRAL>
0

>  <SCORE.SYSTEM.SOLV>
0

>  <SCORE.SYSTEM.norm>
0

>  <SCORE.heavy>
27

>  <SCORE.norm>
-1.20675

>  <RMSD>
7.693

$$$$
lig.pdb
 OpenBabel11021811523D
libRbt.so/2013.1/901 2013/11/27
 27 30  0  0  0  0  0  0  0  0999 V2000
   26.0626   41.5359   24.9475 N   0  0  0  0  0  0  0  0  0  0  0  0
   26.6723   40.8500   24.0126 C   0  0  0  0  0  0  0  0  0  0  0  0
   26.3645   40.8954   22.6919 N   0  0  0  0  0  0  0  0  0  0  0  0
   25.3807   41.7489   22.2784 C   0  0  0  0  0  0  0  0  0  0  0  0
   24.7110   42.5235   23.1816 C   0  0  0  0  0  0  0  0  0  0  0  0
   25.0422   42.4130   24.5822 C   0  0  0  0  0  0  0  0  0  0  0  0
   24.4446   43.0422   25.4642 O   0  0  0  0  0  0  0  0  0  0  0  0
   27.7111   39.7516   24.3286 C   0  0  2  0  0  0  0  0  0  0  0  0
   26.9280   38.4684   24.0065 C   0  0  0  0  0  0  0  0  0  0  0  0
   27.6350   37.2717   24.4661 N   0  0  0  0  0  0  0  0  0  0  0  0
   27.7686   37.3251   25.9309 C   0  0  0  0  0  0  0  0  0  0  0  0
   28.6131   38.5115   26.3520 C   0  0  0  0  0  0  0  0  0  0  0  0
   28.0205   39.8146   25.8340 C   0  0  0  0  0  0  0  0  0  0  0  0
   25.1904   41.7216   20.8343 C   0  0  0  0  0  0  0  0  0  0  0  0
   26.3134   40.9309   19.7909 S   0  0  0  0  0  0  0  0  0  0  0  0
   25.4430   41.3629   18.4247 C   0  0  0  0  0  0  0  0  0  0  0  0
   24.3256   42.0326   18.7343 C   0  0  0  0  0  0  0  0  0  0  0  0
   24.1670   42.2556   20.1160 C   0  0  0  0  0  0  0  0  0  0  0  0
   26.9461   36.0344   24.0589 C   0  0  0  0  0  0  0  0  0  0  0  0
   26.9837   35.7199   22.5800 C   0  0  0  0  0  0  0  0  0  0  0  0
   26.9318   34.4105   22.1247 C   0  0  0  0  0  0  0  0  0  0  0  0
   27.3094   34.0198   20.8939 N   0  0  0  0  0  0  0  0  0  0  0  0
   27.7850   34.9965   20.1360 C   0  0  0  0  0  0  0  0  0  0  0  0
   27.9340   36.2757   20.4407 N   0  0  0  0  0  0  0  0  0  0  0  0
   27.5462   36.6035   21.6821 C   0  0  0  0  0  0  0  0  0  0  0  0
   28.1678   34.6025   18.9160 O   0  0  0  0  0  0  0  0  0  0  0  0
   27.1811   33.9859   18.0807 C   0  0  0  0  0  0  0  0  0  0  0  0
  1  2  2  0  0  0  0
  1  6  1  0  0  0  0
  2  3  1  0  0  0  0
  3  4  2  0  0  0  0
  4 14  1  0  0  0  0
  5  4  1  0  0  0  0
  6  5  1  0  0  0  0
  7  6  2  0  0  0  0
  8  9  1  0  0  0  0
  8  2  1  1  0  0  0
 10 19  1  0  0  0  0
 10  9  1  0  0  0  0
 11 10  1  0  0  0  0
 12 11  1  0  0  0  0
 12 13  1  0  0  0  0
 13  8  1  0  0  0  0
 14 15  1  0  0  0  0
 14 18  2  0  0  0  0
 15 16  1  0  0  0  0
 16 17  2  0  0  0  0
 18 17  1  0  0  0  0
 19 20  1  0  0  0  0
 20 25  2  0  0  0  0
 20 21  1  0  0  0  0
 21 22  2  0  0  0  0
 22 23  1  0  0  0  0
 23 26  1  0  0  0  0
 24 23  2  0  0  0  0
 25 24  1  0  0  0  0
 26 27  1  0  0  0  0
M  END
>  <CHROM.1>
-11.36919590,106.73838380,69.92476595,151.30233513,58.85505121,26.58470011
38.90905392,22.29050774,-2.38640578,1.17988035,-2.03886366

>  <Name>
lig.pdb

>  <RI>
0

>  <Rbt.Current_Directory>
/home/itssahil/PROJECTS/Mol_Feturizer/New_Systems/rnas/5kx9

>  <Rbt.Executable>
rbdock ($Id: //depot/dev/client3/rdock/2013.1/src/exe/rbdock.cxx#4 $)

>  <Rbt.Library>
libRbt.so (2013.1, Build901 2013/11/27)

>  <Rbt.Parameter_File>
/export/apps/rDock/src/rDock_2013.1_src/data/scripts/dock_solv.prm

>  <Rbt.Receptor>
prm/pocket_docking_4.prm

>  <SCORE>
-33.6844

>  <SCORE.INTER>
-30.0072

>  <SCORE.INTER.CONST>
1

>  <SCORE.INTER.POLAR>
0

>  <SCORE.INTER.ROT>
5

>  <SCORE.INTER.SOLV>
17.2359

>  <SCORE.INTER.VDW>
-32.6835

>  <SCORE.INTER.norm>
-1.11138

>  <SCORE.INTRA>
-3.67715

>  <SCORE.INTRA.DIHEDRAL>
2.85964

>  <SCORE.INTRA.DIHEDRAL.0>
2.68224

>  <SCORE.INTRA.POLAR>
0

>  <SCORE.INTRA.POLAR.0>
0

>  <SCORE.INTRA.REPUL>
0

>  <SCORE.INTRA.REPUL.0>
0

>  <SCORE.INTRA.SOLV>
-0.439203

>  <SCORE.INTRA.SOLV.lig_0>
-19.4148

>  <SCORE.INTRA.VDW>
-4.88737

>  <SCORE.INTRA.VDW.0>
5.42093

>  <SCORE.INTRA.norm>
-0.136191

>  <SCORE.RESTR>
0

>  <SCORE.RESTR.CAVITY>
0

>  <SCORE.RESTR.norm>
0

>  <SCORE.SYSTEM>
0

>  <SCORE.SYSTEM.CONST>
0

>  <SCORE.SYSTEM.DIHEDRAL>
0

>  <SCORE.SYSTEM.SOLV>
0

>  <SCORE.SYSTEM.norm>
0

>  <SCORE.heavy>
27

>  <SCORE.norm>
-1.24757

>  <RMSD>
7.701

$$$$
lig.pdb
 OpenBabel11021811523D
libRbt.so/2013.1/901 2013/11/27
 27 30  0  0  0  0  0  0  0  0999 V2000
   26.1578   41.0698   23.5822 N   0  0  0  0  0  0  0  0  0  0  0  0
   26.9531   40.2487   22.9422 C   0  0  0  0  0  0  0  0  0  0  0  0
   27.0556   40.1631   21.5919 N   0  0  0  0  0  0  0  0  0  0  0  0
   26.3188   41.0205   20.8243 C   0  0  0  0  0  0  0  0  0  0  0  0
   25.4838   41.9295   21.4080 C   0  0  0  0  0  0  0  0  0  0  0  0
   25.3741   41.9582   22.8471 C   0  0  0  0  0  0  0  0  0  0  0  0
   24.6009   42.7164   23.4456 O   0  0  0  0  0  0  0  0  0  0  0  0
   27.7491   39.1341   23.6561 C   0  0  2  0  0  0  0  0  0  0  0  0
   27.0268   37.8657   23.1735 C   0  0  0  0  0  0  0  0  0  0  0  0
   27.4561   36.6806   23.9180 N   0  0  0  0  0  0  0  0  0  0  0  0
   27.1032   36.8501   25.3367 C   0  0  0  0  0  0  0  0  0  0  0  0
   27.8440   38.0276   25.9392 C   0  0  0  0  0  0  0  0  0  0  0  0
   27.5491   39.3086   25.1712 C   0  0  0  0  0  0  0  0  0  0  0  0
   26.5630   40.8420   19.3993 C   0  0  0  0  0  0  0  0  0  0  0  0
   25.8845   41.9098   18.2268 S   0  0  0  0  0  0  0  0  0  0  0  0
   26.5698   41.0530   16.9591 C   0  0  0  0  0  0  0  0  0  0  0  0
   27.3205   40.0326   17.3928 C   0  0  0  0  0  0  0  0  0  0  0  0
   27.3225   39.8904   18.7942 C   0  0  0  0  0  0  0  0  0  0  0  0
   26.8538   35.4464   23.3839 C   0  0  0  0  0  0  0  0  0  0  0  0
   27.3243   35.0298   22.0082 C   0  0  0  0  0  0  0  0  0  0  0  0
   27.3400   35.9307   20.9533 C   0  0  0  0  0  0  0  0  0  0  0  0
   27.3950   35.5788   19.6560 N   0  0  0  0  0  0  0  0  0  0  0  0
   27.3944   34.2707   19.4474 C   0  0  0  0  0  0  0  0  0  0  0  0
   27.3417   33.2956   20.3406 N   0  0  0  0  0  0  0  0  0  0  0  0
   27.2823   33.7079   21.6154 C   0  0  0  0  0  0  0  0  0  0  0  0
   27.4401   33.9247   18.1558 O   0  0  0  0  0  0  0  0  0  0  0  0
   26.1934   33.7042   17.4860 C   0  0  0  0  0  0  0  0  0  0  0  0
  1  2  2  0  0  0  0
  1  6  1  0  0  0  0
  2  3  1  0  0  0  0
  3  4  2  0  0  0  0
  4 14  1  0  0  0  0
  5  4  1  0  0  0  0
  6  5  1  0  0  0  0
  7  6  2  0  0  0  0
  8  9  1  0  0  0  0
  8  2  1  6  0  0  0
 10 19  1  0  0  0  0
 10  9  1  0  0  0  0
 11 10  1  0  0  0  0
 12 11  1  0  0  0  0
 12 13  1  0  0  0  0
 13  8  1  0  0  0  0
 14 15  1  0  0  0  0
 14 18  2  0  0  0  0
 15 16  1  0  0  0  0
 16 17  2  0  0  0  0
 18 17  1  0  0  0  0
 19 20  1  0  0  0  0
 20 25  2  0  0  0  0
 20 21  1  0  0  0  0
 21 22  2  0  0  0  0
 22 23  1  0  0  0  0
 23 26  1  0  0  0  0
 24 23  2  0  0  0  0
 25 24  1  0  0  0  0
 26 27  1  0  0  0  0
M  END
>  <CHROM.1>
-173.46039847,109.35701031,68.21441842,-49.95766176,-92.69427356,26.79199813
38.34766599,21.25752715,-2.74792882,1.39340333,-1.86899551

>  <Name>
lig.pdb

>  <RI>
0

>  <Rbt.Current_Directory>
/home/itssahil/PROJECTS/Mol_Feturizer/New_Systems/rnas/5kx9

>  <Rbt.Executable>
rbdock ($Id: //depot/dev/client3/rdock/2013.1/src/exe/rbdock.cxx#4 $)

>  <Rbt.Library>
libRbt.so (2013.1, Build901 2013/11/27)

>  <Rbt.Parameter_File>
/export/apps/rDock/src/rDock_2013.1_src/data/scripts/dock_solv.prm

>  <Rbt.Receptor>
prm/blind_docking_60.prm

>  <SCORE>
-32.5987

>  <SCORE.INTER>
-29.3515

>  <SCORE.INTER.CONST>
1

>  <SCORE.INTER.POLAR>
0

>  <SCORE.INTER.ROT>
5

>  <SCORE.INTER.SOLV>
16.0638

>  <SCORE.INTER.VDW>
-31.8556

>  <SCORE.INTER.norm>
-1.08709

>  <SCORE.INTRA>
-3.24723

>  <SCORE.INTRA.DIHEDRAL>
4.42441

>  <SCORE.INTRA.DIHEDRAL.0>
2.68224

>  <SCORE.INTRA.POLAR>
0

>  <SCORE.INTRA.POLAR.0>
0

>  <SCORE.INTRA.REPUL>
0

>  <SCORE.INTRA.REPUL.0>
0

>  <SCORE.INTRA.SOLV>
-0.514478

>  <SCORE.INTRA.SOLV.lig_0>
-19.4148

>  <SCORE.INTRA.VDW>
-5.2022

>  <SCORE.INTRA.VDW.0>
5.42093

>  <SCORE.INTRA.norm>
-0.120268

>  <SCORE.RESTR>
0

>  <SCORE.RESTR.CAVITY>
0

>  <SCORE.RESTR.norm>
0

>  <SCORE.SYSTEM>
0

>  <SCORE.SYSTEM.CONST>
0

>  <SCORE.SYSTEM.DIHEDRAL>
0

>  <SCORE.SYSTEM.SOLV>
0

>  <SCORE.SYSTEM.norm>
0

>  <SCORE.heavy>
27

>  <SCORE.norm>
-1.20736

>  <RMSD>
7.703

$$$$
lig.pdb
 OpenBabel11021811523D
libRbt.so/2013.1/901 2013/11/27
 27 30  0  0  0  0  0  0  0  0999 V2000
   25.9904   41.9165   25.0820 N   0  0  0  0  0  0  0  0  0  0  0  0
   26.6317   41.2427   24.1595 C   0  0  0  0  0  0  0  0  0  0  0  0
   26.2855   41.2008   22.8482 N   0  0  0  0  0  0  0  0  0  0  0  0
   25.2207   41.9472   22.4285 C   0  0  0  0  0  0  0  0  0  0  0  0
   24.5111   42.7027   23.3173 C   0  0  0  0  0  0  0  0  0  0  0  0
   24.8884   42.6856   24.7106 C   0  0  0  0  0  0  0  0  0  0  0  0
   24.2626   43.3015   25.5823 O   0  0  0  0  0  0  0  0  0  0  0  0
   27.7699   40.2527   24.4908 C   0  0  2  0  0  0  0  0  0  0  0  0
   27.0562   38.8956   24.3789 C   0  0  0  0  0  0  0  0  0  0  0  0
   27.8841   37.8033   24.8935 N   0  0  0  0  0  0  0  0  0  0  0  0
   28.1383   38.0266   26.3259 C   0  0  0  0  0  0  0  0  0  0  0  0
   28.9285   39.3024   26.5403 C   0  0  0  0  0  0  0  0  0  0  0  0
   28.2017   40.5009   25.9461 C   0  0  0  0  0  0  0  0  0  0  0  0
   24.9945   41.8373   20.9936 C   0  0  0  0  0  0  0  0  0  0  0  0
   26.0990   40.9992   19.9675 S   0  0  0  0  0  0  0  0  0  0  0  0
   25.1901   41.3461   18.6021 C   0  0  0  0  0  0  0  0  0  0  0  0
   24.0741   42.0223   18.9023 C   0  0  0  0  0  0  0  0  0  0  0  0
   23.9480   42.3211   20.2730 C   0  0  0  0  0  0  0  0  0  0  0  0
   27.2535   36.4882   24.6837 C   0  0  0  0  0  0  0  0  0  0  0  0
   27.0503   36.0816   23.2412 C   0  0  0  0  0  0  0  0  0  0  0  0
   26.6902   34.7843   22.9065 C   0  0  0  0  0  0  0  0  0  0  0  0
   26.8333   34.2497   21.6803 N   0  0  0  0  0  0  0  0  0  0  0  0
   27.3947   35.0606   20.7962 C   0  0  0  0  0  0  0  0  0  0  0  0
   27.8252   36.2994   20.9738 N   0  0  0  0  0  0  0  0  0  0  0  0
   27.6613   36.7753   22.2170 C   0  0  0  0  0  0  0  0  0  0  0  0
   27.5434   34.5224   19.5804 O   0  0  0  0  0  0  0  0  0  0  0  0
   26.4054   33.8735   19.0010 C   0  0  0  0  0  0  0  0  0  0  0  0
  1  2  2  0  0  0  0
  1  6  1  0  0  0  0
  2  3  1  0  0  0  0
  3  4  2  0  0  0  0
  4 14  1  0  0  0  0
  5  4  1  0  0  0  0
  6  5  1  0  0  0  0
  7  6  2  0  0  0  0
  8  9  1  0  0  0  0
  8  2  1  1  0  0  0
 10 19  1  0  0  0  0
 10  9  1  0  0  0  0
 11 10  1  0  0  0  0
 12 11  1  0  0  0  0
 12 13  1  0  0  0  0
 13  8  1  0  0  0  0
 14 15  1  0  0  0  0
 14 18  2  0  0  0  0
 15 16  1  0  0  0  0
 16 17  2  0  0  0  0
 18 17  1  0  0  0  0
 19 20  1  0  0  0  0
 20 25  2  0  0  0  0
 20 21  1  0  0  0  0
 21 22  2  0  0  0  0
 22 23  1  0  0  0  0
 23 26  1  0  0  0  0
 24 23  2  0  0  0  0
 25 24  1  0  0  0  0
 26 27  1  0  0  0  0
M  END
>  <CHROM.1>
-6.93190918,101.61310294,63.53185957,168.49459475,48.94691811,26.47099698
39.17090514,22.64227668,-2.22070033,1.13225971,-2.29761884

>  <Name>
lig.pdb

>  <RI>
0

>  <Rbt.Current_Directory>
/home/itssahil/PROJECTS/Mol_Feturizer/New_Systems/rnas/5kx9

>  <Rbt.Executable>
rbdock ($Id: //depot/dev/client3/rdock/2013.1/src/exe/rbdock.cxx#4 $)

>  <Rbt.Library>
libRbt.so (2013.1, Build901 2013/11/27)

>  <Rbt.Parameter_File>
/export/apps/rDock/src/rDock_2013.1_src/data/scripts/dock_solv.prm

>  <Rbt.Receptor>
prm/pocket_docking_5.prm

>  <SCORE>
-34.1476

>  <SCORE.INTER>
-30.3216

>  <SCORE.INTER.CONST>
1

>  <SCORE.INTER.POLAR>
0

>  <SCORE.INTER.ROT>
5

>  <SCORE.INTER.SOLV>
17.3405

>  <SCORE.INTER.VDW>
-32.9279

>  <SCORE.INTER.norm>
-1.12302

>  <SCORE.INTRA>
-3.82602

>  <SCORE.INTRA.DIHEDRAL>
1.90729

>  <SCORE.INTRA.DIHEDRAL.0>
2.68224

>  <SCORE.INTRA.POLAR>
0

>  <SCORE.INTRA.POLAR.0>
0

>  <SCORE.INTRA.REPUL>
0

>  <SCORE.INTRA.REPUL.0>
0

>  <SCORE.INTRA.SOLV>
-0.469055

>  <SCORE.INTRA.SOLV.lig_0>
-19.4148

>  <SCORE.INTRA.VDW>
-4.54513

>  <SCORE.INTRA.VDW.0>
5.42093

>  <SCORE.INTRA.norm>
-0.141704

>  <SCORE.RESTR>
0

>  <SCORE.RESTR.CAVITY>
0

>  <SCORE.RESTR.norm>
0

>  <SCORE.SYSTEM>
0

>  <SCORE.SYSTEM.CONST>
0

>  <SCORE.SYSTEM.DIHEDRAL>
0

>  <SCORE.SYSTEM.SOLV>
0

>  <SCORE.SYSTEM.norm>
0

>  <SCORE.heavy>
27

>  <SCORE.norm>
-1.26472

>  <RMSD>
7.756

$$$$
lig.pdb
 OpenBabel11021811523D
libRbt.so/2013.1/901 2013/11/27
 27 30  0  0  0  0  0  0  0  0999 V2000
   29.9532   43.5833   25.7311 N   0  0  0  0  0  0  0  0  0  0  0  0
   29.4769   42.4664   26.2231 C   0  0  0  0  0  0  0  0  0  0  0  0
   30.1913   41.5741   26.9541 N   0  0  0  0  0  0  0  0  0  0  0  0
   31.4929   41.8648   27.2513 C   0  0  0  0  0  0  0  0  0  0  0  0
   32.0640   43.0214   26.8033 C   0  0  0  0  0  0  0  0  0  0  0  0
   31.2797   43.9230   25.9935 C   0  0  0  0  0  0  0  0  0  0  0  0
   31.7423   44.9628   25.5080 O   0  0  0  0  0  0  0  0  0  0  0  0
   28.0707   41.9337   25.8704 C   0  0  2  0  0  0  0  0  0  0  0  0
   28.2358   41.5495   24.3910 C   0  0  0  0  0  0  0  0  0  0  0  0
   26.9493   41.2417   23.7637 N   0  0  0  0  0  0  0  0  0  0  0  0
   26.1005   42.4438   23.7927 C   0  0  0  0  0  0  0  0  0  0  0  0
   25.7955   42.8536   25.2200 C   0  0  0  0  0  0  0  0  0  0  0  0
   27.0776   43.1009   26.0026 C   0  0  0  0  0  0  0  0  0  0  0  0
   32.1185   40.8395   28.0755 C   0  0  0  0  0  0  0  0  0  0  0  0
   31.2323   39.4725   28.6424 S   0  0  0  0  0  0  0  0  0  0  0  0
   32.5653   38.8703   29.4617 C   0  0  0  0  0  0  0  0  0  0  0  0
   33.6504   39.6339   29.2816 C   0  0  0  0  0  0  0  0  0  0  0  0
   33.4108   40.7762   28.4930 C   0  0  0  0  0  0  0  0  0  0  0  0
   27.1120   40.7623   22.3799 C   0  0  0  0  0  0  0  0  0  0  0  0
   27.6271   39.3479   22.2327 C   0  0  0  0  0  0  0  0  0  0  0  0
   27.9421   38.8264   20.9864 C   0  0  0  0  0  0  0  0  0  0  0  0
   28.0585   37.5126   20.7212 N   0  0  0  0  0  0  0  0  0  0  0  0
   27.8062   36.7251   21.7560 C   0  0  0  0  0  0  0  0  0  0  0  0
   27.4567   37.0690   22.9852 N   0  0  0  0  0  0  0  0  0  0  0  0
   27.3510   38.3907   23.1871 C   0  0  0  0  0  0  0  0  0  0  0  0
   27.9143   35.4191   21.4861 O   0  0  0  0  0  0  0  0  0  0  0  0
   26.9226   34.5457   22.0388 C   0  0  0  0  0  0  0  0  0  0  0  0
  1  2  2  0  0  0  0
  1  6  1  0  0  0  0
  2  3  1  0  0  0  0
  3  4  2  0  0  0  0
  4 14  1  0  0  0  0
  5  4  1  0  0  0  0
  6  5  1  0  0  0  0
  7  6  2  0  0  0  0
  8  9  1  0  0  0  0
  8  2  1  6  0  0  0
 10 19  1  0  0  0  0
 10  9  1  0  0  0  0
 11 10  1  0  0  0  0
 12 11  1  0  0  0  0
 12 13  1  0  0  0  0
 13  8  1  0  0  0  0
 14 15  1  0  0  0  0
 14 18  2  0  0  0  0
 15 16  1  0  0  0  0
 16 17  2  0  0  0  0
 18 17  1  0  0  0  0
 19 20  1  0  0  0  0
 20 25  2  0  0  0  0
 20 21  1  0  0  0  0
 21 22  2  0  0  0  0
 22 23  1  0  0  0  0
 23 26  1  0  0  0  0
 24 23  2  0  0  0  0
 25 24  1  0  0  0  0
 26 27  1  0  0  0  0
M  END
>  <CHROM.1>
-2.74580801,68.66740733,74.53264078,-173.84025071,-138.61095089,29.29536329
40.40464978,25.12959984,0.70859675,-0.79375836,0.26022247

>  <Name>
lig.pdb

>  <RI>
0

>  <Rbt.Current_Directory>
/home/itssahil/PROJECTS/Mol_Feturizer/New_Systems/rnas/5kx9

>  <Rbt.Executable>
rbdock ($Id: //depot/dev/client3/rdock/2013.1/src/exe/rbdock.cxx#4 $)

>  <Rbt.Library>
libRbt.so (2013.1, Build901 2013/11/27)

>  <Rbt.Parameter_File>
/export/apps/rDock/src/rDock_2013.1_src/data/scripts/dock_solv.prm

>  <Rbt.Receptor>
prm/pocket_docking_8.prm

>  <SCORE>
-39.6141

>  <SCORE.INTER>
-34.5705

>  <SCORE.INTER.CONST>
1

>  <SCORE.INTER.POLAR>
0

>  <SCORE.INTER.ROT>
5

>  <SCORE.INTER.SOLV>
17.6868

>  <SCORE.INTER.VDW>
-35.8759

>  <SCORE.INTER.norm>
-1.28039

>  <SCORE.INTRA>
-5.04364

>  <SCORE.INTRA.DIHEDRAL>
1.81615

>  <SCORE.INTRA.DIHEDRAL.0>
2.68224

>  <SCORE.INTRA.POLAR>
0

>  <SCORE.INTRA.POLAR.0>
0

>  <SCORE.INTRA.REPUL>
0

>  <SCORE.INTRA.REPUL.0>
0

>  <SCORE.INTRA.SOLV>
-0.575419

>  <SCORE.INTRA.SOLV.lig_0>
-19.4148

>  <SCORE.INTRA.VDW>
-5.664

>  <SCORE.INTRA.VDW.0>
5.42093

>  <SCORE.INTRA.norm>
-0.186801

>  <SCORE.RESTR>
0

>  <SCORE.RESTR.CAVITY>
0

>  <SCORE.RESTR.norm>
0

>  <SCORE.SYSTEM>
0

>  <SCORE.SYSTEM.CONST>
0

>  <SCORE.SYSTEM.DIHEDRAL>
0

>  <SCORE.SYSTEM.SOLV>
0

>  <SCORE.SYSTEM.norm>
0

>  <SCORE.heavy>
27

>  <SCORE.norm>
-1.46719

>  <RMSD>
7.860

$$$$
lig.pdb
 OpenBabel11021811523D
libRbt.so/2013.1/901 2013/11/27
 27 30  0  0  0  0  0  0  0  0999 V2000
   25.8409   40.6741   20.0004 N   0  0  0  0  0  0  0  0  0  0  0  0
   26.3774   40.5319   18.8137 C   0  0  0  0  0  0  0  0  0  0  0  0
   26.1321   41.3378   17.7500 N   0  0  0  0  0  0  0  0  0  0  0  0
   25.3040   42.4113   17.9199 C   0  0  0  0  0  0  0  0  0  0  0  0
   24.7225   42.6528   19.1315 C   0  0  0  0  0  0  0  0  0  0  0  0
   24.9782   41.7461   20.2253 C   0  0  0  0  0  0  0  0  0  0  0  0
   24.4471   41.8689   21.3360 O   0  0  0  0  0  0  0  0  0  0  0  0
   27.2271   39.3019   18.4257 C   0  0  2  0  0  0  0  0  0  0  0  0
   26.1493   38.2833   18.0206 C   0  0  0  0  0  0  0  0  0  0  0  0
   26.7095   36.9425   17.8430 N   0  0  0  0  0  0  0  0  0  0  0  0
   27.2635   36.4792   19.1255 C   0  0  0  0  0  0  0  0  0  0  0  0
   28.4084   37.3678   19.5701 C   0  0  0  0  0  0  0  0  0  0  0  0
   27.9597   38.8177   19.6886 C   0  0  0  0  0  0  0  0  0  0  0  0
   25.1686   43.2077   16.7076 C   0  0  0  0  0  0  0  0  0  0  0  0
   26.3283   43.1166   15.4340 S   0  0  0  0  0  0  0  0  0  0  0  0
   25.5117   44.2643   14.5247 C   0  0  0  0  0  0  0  0  0  0  0  0
   24.3852   44.6692   15.1249 C   0  0  0  0  0  0  0  0  0  0  0  0
   24.1748   44.0779   16.3858 C   0  0  0  0  0  0  0  0  0  0  0  0
   25.7046   35.9873   17.3438 C   0  0  0  0  0  0  0  0  0  0  0  0
   25.9217   35.4851   15.9338 C   0  0  0  0  0  0  0  0  0  0  0  0
   26.0709   34.1311   15.6707 C   0  0  0  0  0  0  0  0  0  0  0  0
   26.6093   33.6323   14.5432 N   0  0  0  0  0  0  0  0  0  0  0  0
   27.0353   34.5527   13.6912 C   0  0  0  0  0  0  0  0  0  0  0  0
   27.0000   35.8696   13.8177 N   0  0  0  0  0  0  0  0  0  0  0  0
   26.4582   36.3067   14.9640 C   0  0  0  0  0  0  0  0  0  0  0  0
   27.5781   34.0527   12.5752 O   0  0  0  0  0  0  0  0  0  0  0  0
   28.7266   34.7219   12.0416 C   0  0  0  0  0  0  0  0  0  0  0  0
  1  2  2  0  0  0  0
  1  6  1  0  0  0  0
  2  3  1  0  0  0  0
  3  4  2  0  0  0  0
  4 14  1  0  0  0  0
  5  4  1  0  0  0  0
  6  5  1  0  0  0  0
  7  6  2  0  0  0  0
  8  9  1  0  0  0  0
  8  2  1  1  0  0  0
 10 19  1  0  0  0  0
 10  9  1  0  0  0  0
 11 10  1  0  0  0  0
 12 11  1  0  0  0  0
 12 13  1  0  0  0  0
 13  8  1  0  0  0  0
 14 15  1  0  0  0  0
 14 18  2  0  0  0  0
 15 16  1  0  0  0  0
 16 17  2  0  0  0  0
 18 17  1  0  0  0  0
 19 20  1  0  0  0  0
 20 25  2  0  0  0  0
 20 21  1  0  0  0  0
 21 22  2  0  0  0  0
 22 23  1  0  0  0  0
 23 26  1  0  0  0  0
 24 23  2  0  0  0  0
 25 24  1  0  0  0  0
 26 27  1  0  0  0  0
M  END
>  <CHROM.1>
-19.84220823,83.80893138,111.78258694,121.19906009,-141.50871421,26.26124848
39.10966018,16.83680659,-2.89994109,1.35223335,-1.44602382

>  <Name>
lig.pdb

>  <RI>
0

>  <Rbt.Current_Directory>
/home/itssahil/PROJECTS/Mol_Feturizer/New_Systems/rnas/5kx9

>  <Rbt.Executable>
rbdock ($Id: //depot/dev/client3/rdock/2013.1/src/exe/rbdock.cxx#4 $)

>  <Rbt.Library>
libRbt.so (2013.1, Build901 2013/11/27)

>  <Rbt.Parameter_File>
/export/apps/rDock/src/rDock_2013.1_src/data/scripts/dock_solv.prm

>  <Rbt.Receptor>
prm/pocket_docking_8.prm

>  <SCORE>
-24.5679

>  <SCORE.INTER>
-20.6819

>  <SCORE.INTER.CONST>
1

>  <SCORE.INTER.POLAR>
0

>  <SCORE.INTER.ROT>
5

>  <SCORE.INTER.SOLV>
14.2337

>  <SCORE.INTER.VDW>
-25.4659

>  <SCORE.INTER.norm>
-0.765997

>  <SCORE.INTRA>
-3.88593

>  <SCORE.INTRA.DIHEDRAL>
4.20891

>  <SCORE.INTRA.DIHEDRAL.0>
2.68224

>  <SCORE.INTRA.POLAR>
0

>  <SCORE.INTRA.POLAR.0>
0

>  <SCORE.INTRA.REPUL>
0

>  <SCORE.INTRA.REPUL.0>
0

>  <SCORE.INTRA.SOLV>
-0.527391

>  <SCORE.INTRA.SOLV.lig_0>
-19.4148

>  <SCORE.INTRA.VDW>
-5.72669

>  <SCORE.INTRA.VDW.0>
5.42093

>  <SCORE.INTRA.norm>
-0.143923

>  <SCORE.RESTR>
0

>  <SCORE.RESTR.CAVITY>
0

>  <SCORE.RESTR.norm>
0

>  <SCORE.SYSTEM>
0

>  <SCORE.SYSTEM.CONST>
0

>  <SCORE.SYSTEM.DIHEDRAL>
0

>  <SCORE.SYSTEM.SOLV>
0

>  <SCORE.SYSTEM.norm>
0

>  <SCORE.heavy>
27

>  <SCORE.norm>
-0.909921

>  <RMSD>
9.092

$$$$
lig.pdb
 OpenBabel11021811523D
libRbt.so/2013.1/901 2013/11/27
 27 30  0  0  0  0  0  0  0  0999 V2000
   29.7695   38.2339   18.9331 N   0  0  0  0  0  0  0  0  0  0  0  0
   30.3413   38.9677   18.0108 C   0  0  0  0  0  0  0  0  0  0  0  0
   29.7380   39.9833   17.3432 N   0  0  0  0  0  0  0  0  0  0  0  0
   28.4541   40.3128   17.6752 C   0  0  0  0  0  0  0  0  0  0  0  0
   27.7898   39.6192   18.6457 C   0  0  0  0  0  0  0  0  0  0  0  0
   28.4554   38.5190   19.3017 C   0  0  0  0  0  0  0  0  0  0  0  0
   27.9015   37.8113   20.1522 O   0  0  0  0  0  0  0  0  0  0  0  0
   31.7364   38.6422   17.4335 C   0  0  2  0  0  0  0  0  0  0  0  0
   31.5078   37.2574   16.8060 C   0  0  0  0  0  0  0  0  0  0  0  0
   32.7677   36.6295   16.4038 N   0  0  0  0  0  0  0  0  0  0  0  0
   33.6013   36.4164   17.5979 C   0  0  0  0  0  0  0  0  0  0  0  0
   33.9669   37.7388   18.2427 C   0  0  0  0  0  0  0  0  0  0  0  0
   32.7193   38.5296   18.6113 C   0  0  0  0  0  0  0  0  0  0  0  0
   27.9538   41.4458   16.9083 C   0  0  0  0  0  0  0  0  0  0  0  0
   26.3049   41.9428   17.0040 S   0  0  0  0  0  0  0  0  0  0  0  0
   26.5470   43.1746   15.8927 C   0  0  0  0  0  0  0  0  0  0  0  0
   27.8242   43.2478   15.4972 C   0  0  0  0  0  0  0  0  0  0  0  0
   28.6475   42.2559   16.0650 C   0  0  0  0  0  0  0  0  0  0  0  0
   32.5472   35.3548   15.6984 C   0  0  0  0  0  0  0  0  0  0  0  0
   31.8105   35.4536   14.3813 C   0  0  0  0  0  0  0  0  0  0  0  0
   30.4245   35.4211   14.3316 C   0  0  0  0  0  0  0  0  0  0  0  0
   29.7113   35.1478   13.2241 N   0  0  0  0  0  0  0  0  0  0  0  0
   30.4476   34.8655   12.1597 C   0  0  0  0  0  0  0  0  0  0  0  0
   31.7664   34.8163   12.0617 N   0  0  0  0  0  0  0  0  0  0  0  0
   32.4222   35.0918   13.1987 C   0  0  0  0  0  0  0  0  0  0  0  0
   29.7348   34.5856   11.0626 O   0  0  0  0  0  0  0  0  0  0  0  0
   29.9425   35.4114    9.9109 C   0  0  0  0  0  0  0  0  0  0  0  0
  1  2  2  0  0  0  0
  1  6  1  0  0  0  0
  2  3  1  0  0  0  0
  3  4  2  0  0  0  0
  4 14  1  0  0  0  0
  5  4  1  0  0  0  0
  6  5  1  0  0  0  0
  7  6  2  0  0  0  0
  8  9  1  0  0  0  0
  8  2  1  1  0  0  0
 10 19  1  0  0  0  0
 10  9  1  0  0  0  0
 11 10  1  0  0  0  0
 12 11  1  0  0  0  0
 12 13  1  0  0  0  0
 13  8  1  0  0  0  0
 14 15  1  0  0  0  0
 14 18  2  0  0  0  0
 15 16  1  0  0  0  0
 16 17  2  0  0  0  0
 18 17  1  0  0  0  0
 19 20  1  0  0  0  0
 20 25  2  0  0  0  0
 20 21  1  0  0  0  0
 21 22  2  0  0  0  0
 22 23  1  0  0  0  0
 23 26  1  0  0  0  0
 24 23  2  0  0  0  0
 25 24  1  0  0  0  0
 26 27  1  0  0  0  0
M  END
>  <CHROM.1>
172.74347159,61.39130752,63.73474125,-87.26977442,120.88135747,30.01017469
38.15831228,16.04412934,-2.19560640,0.73451718,-2.05896621

>  <Name>
lig.pdb

>  <RI>
0

>  <Rbt.Current_Directory>
/home/itssahil/PROJECTS/Mol_Feturizer/New_Systems/rnas/5kx9

>  <Rbt.Executable>
rbdock ($Id: //depot/dev/client3/rdock/2013.1/src/exe/rbdock.cxx#4 $)

>  <Rbt.Library>
libRbt.so (2013.1, Build901 2013/11/27)

>  <Rbt.Parameter_File>
/export/apps/rDock/src/rDock_2013.1_src/data/scripts/dock_solv.prm

>  <Rbt.Receptor>
prm/blind_docking_60.prm

>  <SCORE>
-22.8958

>  <SCORE.INTER>
-17.6728

>  <SCORE.INTER.CONST>
1

>  <SCORE.INTER.POLAR>
0

>  <SCORE.INTER.ROT>
5

>  <SCORE.INTER.SOLV>
13.2511

>  <SCORE.INTER.VDW>
-23.1322

>  <SCORE.INTER.norm>
-0.654548

>  <SCORE.INTRA>
-5.22301

>  <SCORE.INTRA.DIHEDRAL>
2.57654

>  <SCORE.INTRA.DIHEDRAL.0>
2.68224

>  <SCORE.INTRA.POLAR>
0

>  <SCORE.INTRA.POLAR.0>
0

>  <SCORE.INTRA.REPUL>
0

>  <SCORE.INTRA.REPUL.0>
0

>  <SCORE.INTRA.SOLV>
-0.641376

>  <SCORE.INTRA.SOLV.lig_0>
-19.4148

>  <SCORE.INTRA.VDW>
-6.19059

>  <SCORE.INTRA.VDW.0>
5.42093

>  <SCORE.INTRA.norm>
-0.193445

>  <SCORE.RESTR>
0

>  <SCORE.RESTR.CAVITY>
0

>  <SCORE.RESTR.norm>
0

>  <SCORE.SYSTEM>
0

>  <SCORE.SYSTEM.CONST>
0

>  <SCORE.SYSTEM.DIHEDRAL>
0

>  <SCORE.SYSTEM.SOLV>
0

>  <SCORE.SYSTEM.norm>
0

>  <SCORE.heavy>
27

>  <SCORE.norm>
-0.847993

>  <RMSD>
9.283

$$$$
lig.pdb
 OpenBabel11021811523D
libRbt.so/2013.1/901 2013/11/27
 27 30  0  0  0  0  0  0  0  0999 V2000
   19.0215   25.8813   15.1802 N   0  0  0  0  0  0  0  0  0  0  0  0
   18.0768   26.4007   14.4358 C   0  0  0  0  0  0  0  0  0  0  0  0
   18.2796   27.3040   13.4439 N   0  0  0  0  0  0  0  0  0  0  0  0
   19.5609   27.6777   13.1512 C   0  0  0  0  0  0  0  0  0  0  0  0
   20.6106   27.1647   13.8578 C   0  0  0  0  0  0  0  0  0  0  0  0
   20.3465   26.2379   14.9325 C   0  0  0  0  0  0  0  0  0  0  0  0
   21.2397   25.7718   15.6507 O   0  0  0  0  0  0  0  0  0  0  0  0
   16.5751   26.1818   14.7228 C   0  0  2  0  0  0  0  0  0  0  0  0
   16.3701   27.0085   16.0027 C   0  0  0  0  0  0  0  0  0  0  0  0
   15.0618   26.7548   16.6086 N   0  0  0  0  0  0  0  0  0  0  0  0
   14.9825   25.3399   17.0061 C   0  0  0  0  0  0  0  0  0  0  0  0
   15.0779   24.4337   15.7946 C   0  0  0  0  0  0  0  0  0  0  0  0
   16.3655   24.6878   15.0231 C   0  0  0  0  0  0  0  0  0  0  0  0
   19.6271   28.6168   12.0395 C   0  0  0  0  0  0  0  0  0  0  0  0
   18.2159   29.0741   11.1593 S   0  0  0  0  0  0  0  0  0  0  0  0
   19.1005   30.0620   10.1334 C   0  0  0  0  0  0  0  0  0  0  0  0
   20.3981   30.0912   10.4626 C   0  0  0  0  0  0  0  0  0  0  0  0
   20.7217   29.2595   11.5523 C   0  0  0  0  0  0  0  0  0  0  0  0
   14.8136   27.6280   17.7693 C   0  0  0  0  0  0  0  0  0  0  0  0
   13.6174   28.5462   17.6545 C   0  0  0  0  0  0  0  0  0  0  0  0
   13.2870   29.4235   18.6772 C   0  0  0  0  0  0  0  0  0  0  0  0
   12.0806   30.0011   18.8210 N   0  0  0  0  0  0  0  0  0  0  0  0
   11.1902   29.6332   17.9120 C   0  0  0  0  0  0  0  0  0  0  0  0
   11.3419   28.7827   16.9094 N   0  0  0  0  0  0  0  0  0  0  0  0
   12.5630   28.2350   16.8210 C   0  0  0  0  0  0  0  0  0  0  0  0
    9.9892   30.2028   18.0635 O   0  0  0  0  0  0  0  0  0  0  0  0
    8.8576   29.5147   17.5179 C   0  0  0  0  0  0  0  0  0  0  0  0
  1  2  2  0  0  0  0
  1  6  1  0  0  0  0
  2  3  1  0  0  0  0
  3  4  2  0  0  0  0
  4 14  1  0  0  0  0
  5  4  1  0  0  0  0
  6  5  1  0  0  0  0
  7  6  2  0  0  0  0
  8  9  1  0  0  0  0
  8  2  1  1  0  0  0
 10 19  1  0  0  0  0
 10  9  1  0  0  0  0
 11 10  1  0  0  0  0
 12 11  1  0  0  0  0
 12 13  1  0  0  0  0
 13  8  1  0  0  0  0
 14 15  1  0  0  0  0
 14 18  2  0  0  0  0
 15 16  1  0  0  0  0
 16 17  2  0  0  0  0
 18 17  1  0  0  0  0
 19 20  1  0  0  0  0
 20 25  2  0  0  0  0
 20 21  1  0  0  0  0
 21 22  2  0  0  0  0
 22 23  1  0  0  0  0
 23 26  1  0  0  0  0
 24 23  2  0  0  0  0
 25 24  1  0  0  0  0
 26 27  1  0  0  0  0
M  END
>  <CHROM.1>
-4.16104666,70.42626979,119.23146533,-179.45578866,-155.61534492,16.22697940
27.82271778,15.09475720,-0.30110400,-0.50424247,2.39627355

>  <Name>
lig.pdb

>  <RI>
0

>  <Rbt.Current_Directory>
/home/itssahil/PROJECTS/Mol_Feturizer/New_Systems/rnas/5kx9

>  <Rbt.Executable>
rbdock ($Id: //depot/dev/client3/rdock/2013.1/src/exe/rbdock.cxx#4 $)

>  <Rbt.Library>
libRbt.so (2013.1, Build901 2013/11/27)

>  <Rbt.Parameter_File>
/export/apps/rDock/src/rDock_2013.1_src/data/scripts/dock_solv.prm

>  <Rbt.Receptor>
prm/blind_docking_40.prm

>  <SCORE>
-13.092

>  <SCORE.INTER>
-11.2795

>  <SCORE.INTER.CONST>
1

>  <SCORE.INTER.POLAR>
0

>  <SCORE.INTER.ROT>
5

>  <SCORE.INTER.SOLV>
24.969

>  <SCORE.INTER.VDW>
-22.776

>  <SCORE.INTER.norm>
-0.41776

>  <SCORE.INTRA>
-3.99271

>  <SCORE.INTRA.DIHEDRAL>
2.51522

>  <SCORE.INTRA.DIHEDRAL.0>
2.68224

>  <SCORE.INTRA.POLAR>
0

>  <SCORE.INTRA.POLAR.0>
0

>  <SCORE.INTRA.REPUL>
0

>  <SCORE.INTRA.REPUL.0>
0

>  <SCORE.INTRA.SOLV>
-0.559276

>  <SCORE.INTRA.SOLV.lig_0>
-19.4148

>  <SCORE.INTRA.VDW>
-4.97068

>  <SCORE.INTRA.VDW.0>
5.42093

>  <SCORE.INTRA.norm>
-0.147878

>  <SCORE.RESTR>
2.18028

>  <SCORE.RESTR.CAVITY>
2.18028

>  <SCORE.RESTR.norm>
0.080751

>  <SCORE.SYSTEM>
0

>  <SCORE.SYSTEM.CONST>
0

>  <SCORE.SYSTEM.DIHEDRAL>
0

>  <SCORE.SYSTEM.SOLV>
0

>  <SCORE.SYSTEM.norm>
0

>  <SCORE.heavy>
27

>  <SCORE.norm>
-0.484887

>  <RMSD>
18.352

$$$$
lig.pdb
 OpenBabel11021811523D
libRbt.so/2013.1/901 2013/11/27
 27 30  0  0  0  0  0  0  0  0999 V2000
   19.0102   26.0408   15.0669 N   0  0  0  0  0  0  0  0  0  0  0  0
   18.0377   26.5196   14.3312 C   0  0  0  0  0  0  0  0  0  0  0  0
   18.2011   27.3768   13.2922 N   0  0  0  0  0  0  0  0  0  0  0  0
   19.4693   27.7435   12.9398 C   0  0  0  0  0  0  0  0  0  0  0  0
   20.5455   27.2698   13.6340 C   0  0  0  0  0  0  0  0  0  0  0  0
   20.3236   26.3927   14.7589 C   0  0  0  0  0  0  0  0  0  0  0  0
   21.2434   25.9656   15.4676 O   0  0  0  0  0  0  0  0  0  0  0  0
   16.5479   26.3060   14.6781 C   0  0  2  0  0  0  0  0  0  0  0  0
   16.3993   27.1264   15.9698 C   0  0  0  0  0  0  0  0  0  0  0  0
   15.1156   26.8752   16.6273 N   0  0  0  0  0  0  0  0  0  0  0  0
   15.0457   25.4584   17.0199 C   0  0  0  0  0  0  0  0  0  0  0  0
   15.0872   24.5588   15.8004 C   0  0  0  0  0  0  0  0  0  0  0  0
   16.3434   24.8114   14.9784 C   0  0  0  0  0  0  0  0  0  0  0  0
   19.4920   28.6300   11.7841 C   0  0  0  0  0  0  0  0  0  0  0  0
   20.7809   28.5866   10.6386 S   0  0  0  0  0  0  0  0  0  0  0  0
   20.1041   29.8277    9.7372 C   0  0  0  0  0  0  0  0  0  0  0  0
   18.9316   30.2313   10.2424 C   0  0  0  0  0  0  0  0  0  0  0  0
   18.5664   29.5589   11.4250 C   0  0  0  0  0  0  0  0  0  0  0  0
   14.9193   27.7429   17.8019 C   0  0  0  0  0  0  0  0  0  0  0  0
   13.4994   28.2026   18.0469 C   0  0  0  0  0  0  0  0  0  0  0  0
   12.4964   27.9544   17.1212 C   0  0  0  0  0  0  0  0  0  0  0  0
   11.3236   28.6123   17.0787 N   0  0  0  0  0  0  0  0  0  0  0  0
   11.2045   29.5696   17.9863 C   0  0  0  0  0  0  0  0  0  0  0  0
   12.0820   29.9488   18.9016 N   0  0  0  0  0  0  0  0  0  0  0  0
   13.2333   29.2608   18.8912 C   0  0  0  0  0  0  0  0  0  0  0  0
   10.0406   30.2275   17.9351 O   0  0  0  0  0  0  0  0  0  0  0  0
    8.8868   29.4969   17.5031 C   0  0  0  0  0  0  0  0  0  0  0  0
  1  2  2  0  0  0  0
  1  6  1  0  0  0  0
  2  3  1  0  0  0  0
  3  4  2  0  0  0  0
  4 14  1  0  0  0  0
  5  4  1  0  0  0  0
  6  5  1  0  0  0  0
  7  6  2  0  0  0  0
  8  9  1  0  0  0  0
  8  2  1  1  0  0  0
 10 19  1  0  0  0  0
 10  9  1  0  0  0  0
 11 10  1  0  0  0  0
 12 11  1  0  0  0  0
 12 13  1  0  0  0  0
 13  8  1  0  0  0  0
 14 15  1  0  0  0  0
 14 18  2  0  0  0  0
 15 16  1  0  0  0  0
 16 17  2  0  0  0  0
 18 17  1  0  0  0  0
 19 20  1  0  0  0  0
 20 25  2  0  0  0  0
 20 21  1  0  0  0  0
 21 22  2  0  0  0  0
 22 23  1  0  0  0  0
 23 26  1  0  0  0  0
 24 23  2  0  0  0  0
 25 24  1  0  0  0  0
 26 27  1  0  0  0  0
M  END
>  <CHROM.1>
-146.67932493,67.33846564,144.65113238,-7.86157754,31.49084766,16.34114984
27.81533513,15.01064069,-0.34967901,-0.51206684,2.37266447

>  <Name>
lig.pdb

>  <RI>
0

>  <Rbt.Current_Directory>
/home/itssahil/PROJECTS/Mol_Feturizer/New_Systems/rnas/5kx9

>  <Rbt.Executable>
rbdock ($Id: //depot/dev/client3/rdock/2013.1/src/exe/rbdock.cxx#4 $)

>  <Rbt.Library>
libRbt.so (2013.1, Build901 2013/11/27)

>  <Rbt.Parameter_File>
/export/apps/rDock/src/rDock_2013.1_src/data/scripts/dock_solv.prm

>  <Rbt.Receptor>
prm/blind_docking_40.prm

>  <SCORE>
-9.68362

>  <SCORE.INTER>
-8.9147

>  <SCORE.INTER.CONST>
1

>  <SCORE.INTER.POLAR>
0

>  <SCORE.INTER.ROT>
5

>  <SCORE.INTER.SOLV>
23.5362

>  <SCORE.INTER.VDW>
-20.7219

>  <SCORE.INTER.norm>
-0.330174

>  <SCORE.INTRA>
-2.52175

>  <SCORE.INTRA.DIHEDRAL>
4.92859

>  <SCORE.INTRA.DIHEDRAL.0>
2.68224

>  <SCORE.INTRA.POLAR>
0

>  <SCORE.INTRA.POLAR.0>
0

>  <SCORE.INTRA.REPUL>
0

>  <SCORE.INTRA.REPUL.0>
0

>  <SCORE.INTRA.SOLV>
-0.571026

>  <SCORE.INTRA.SOLV.lig_0>
-19.4148

>  <SCORE.INTRA.VDW>
-4.70053

>  <SCORE.INTRA.VDW.0>
5.42093

>  <SCORE.INTRA.norm>
-0.0933982

>  <SCORE.RESTR>
1.75283

>  <SCORE.RESTR.CAVITY>
1.75283

>  <SCORE.RESTR.norm>
0.0649197

>  <SCORE.SYSTEM>
0

>  <SCORE.SYSTEM.CONST>
0

>  <SCORE.SYSTEM.DIHEDRAL>
0

>  <SCORE.SYSTEM.SOLV>
0

>  <SCORE.SYSTEM.norm>
0

>  <SCORE.heavy>
27

>  <SCORE.norm>
-0.358652

>  <RMSD>
18.406

$$$$
lig.pdb
 OpenBabel11021811523D
libRbt.so/2013.1/901 2013/11/27
 27 30  0  0  0  0  0  0  0  0999 V2000
   19.0025   26.0540   15.0713 N   0  0  0  0  0  0  0  0  0  0  0  0
   18.0291   26.5218   14.3297 C   0  0  0  0  0  0  0  0  0  0  0  0
   18.1905   27.3690   13.2822 N   0  0  0  0  0  0  0  0  0  0  0  0
   19.4578   27.7368   12.9276 C   0  0  0  0  0  0  0  0  0  0  0  0
   20.5349   27.2742   13.6278 C   0  0  0  0  0  0  0  0  0  0  0  0
   20.3150   26.4077   14.7612 C   0  0  0  0  0  0  0  0  0  0  0  0
   21.2356   25.9911   15.4752 O   0  0  0  0  0  0  0  0  0  0  0  0
   16.5397   26.3062   14.6771 C   0  0  2  0  0  0  0  0  0  0  0  0
   16.3915   27.1230   15.9711 C   0  0  0  0  0  0  0  0  0  0  0  0
   15.1085   26.8692   16.6288 N   0  0  0  0  0  0  0  0  0  0  0  0
   15.0398   25.4514   17.0177 C   0  0  0  0  0  0  0  0  0  0  0  0
   15.0811   24.5550   15.7958 C   0  0  0  0  0  0  0  0  0  0  0  0
   16.3365   24.8106   14.9736 C   0  0  0  0  0  0  0  0  0  0  0  0
   19.4785   28.6116   11.7629 C   0  0  0  0  0  0  0  0  0  0  0  0
   20.7667   28.5583   10.6170 S   0  0  0  0  0  0  0  0  0  0  0  0
   20.0877   29.7894    9.7036 C   0  0  0  0  0  0  0  0  0  0  0  0
   18.9150   30.1966   10.2056 C   0  0  0  0  0  0  0  0  0  0  0  0
   18.5515   29.5357   11.3951 C   0  0  0  0  0  0  0  0  0  0  0  0
   14.9124   27.7336   17.8059 C   0  0  0  0  0  0  0  0  0  0  0  0
   13.5077   28.2568   18.0079 C   0  0  0  0  0  0  0  0  0  0  0  0
   12.4670   27.8509   17.1852 C   0  0  0  0  0  0  0  0  0  0  0  0
   11.3001   28.5083   17.0579 N   0  0  0  0  0  0  0  0  0  0  0  0
   11.2260   29.6256   17.7654 C   0  0  0  0  0  0  0  0  0  0  0  0
   12.1422   30.1601   18.5569 N   0  0  0  0  0  0  0  0  0  0  0  0
   13.2852   29.4633   18.6389 C   0  0  0  0  0  0  0  0  0  0  0  0
   10.0676   30.2811   17.6292 O   0  0  0  0  0  0  0  0  0  0  0  0
    8.8748   29.4973   17.5089 C   0  0  0  0  0  0  0  0  0  0  0  0
  1  2  2  0  0  0  0
  1  6  1  0  0  0  0
  2  3  1  0  0  0  0
  3  4  2  0  0  0  0
  4 14  1  0  0  0  0
  5  4  1  0  0  0  0
  6  5  1  0  0  0  0
  7  6  2  0  0  0  0
  8  9  1  0  0  0  0
  8  2  1  1  0  0  0
 10 19  1  0  0  0  0
 10  9  1  0  0  0  0
 11 10  1  0  0  0  0
 12 11  1  0  0  0  0
 12 13  1  0  0  0  0
 13  8  1  0  0  0  0
 14 15  1  0  0  0  0
 14 18  2  0  0  0  0
 15 16  1  0  0  0  0
 16 17  2  0  0  0  0
 18 17  1  0  0  0  0
 19 20  1  0  0  0  0
 20 25  2  0  0  0  0
 20 21  1  0  0  0  0
 21 22  2  0  0  0  0
 22 23  1  0  0  0  0
 23 26  1  0  0  0  0
 24 23  2  0  0  0  0
 25 24  1  0  0  0  0
 26 27  1  0  0  0  0
M  END
>  <CHROM.1>
-146.50620625,66.57861934,141.25720902,4.79954116,36.91193587,16.33756209
27.82277263,14.96366245,-0.33977301,-0.50811633,2.37463805

>  <Name>
lig.pdb

>  <RI>
0

>  <Rbt.Current_Directory>
/home/itssahil/PROJECTS/Mol_Feturizer/New_Systems/rnas/5kx9

>  <Rbt.Executable>
rbdock ($Id: //depot/dev/client3/rdock/2013.1/src/exe/rbdock.cxx#4 $)

>  <Rbt.Library>
libRbt.so (2013.1, Build901 2013/11/27)

>  <Rbt.Parameter_File>
/export/apps/rDock/src/rDock_2013.1_src/data/scripts/dock_solv.prm

>  <Rbt.Receptor>
prm/blind_docking_40.prm

>  <SCORE>
-9.4874

>  <SCORE.INTER>
-8.49684

>  <SCORE.INTER.CONST>
1

>  <SCORE.INTER.POLAR>
0

>  <SCORE.INTER.ROT>
5

>  <SCORE.INTER.SOLV>
23.8508

>  <SCORE.INTER.VDW>
-20.5482

>  <SCORE.INTER.norm>
-0.314698

>  <SCORE.INTRA>
-2.72096

>  <SCORE.INTRA.DIHEDRAL>
5.35263

>  <SCORE.INTRA.DIHEDRAL.0>
2.68224

>  <SCORE.INTRA.POLAR>
0

>  <SCORE.INTRA.POLAR.0>
0

>  <SCORE.INTRA.REPUL>
0

>  <SCORE.INTRA.REPUL.0>
0

>  <SCORE.INTRA.SOLV>
-0.559081

>  <SCORE.INTRA.SOLV.lig_0>
-19.4148

>  <SCORE.INTRA.VDW>
-5.11774

>  <SCORE.INTRA.VDW.0>
5.42093

>  <SCORE.INTRA.norm>
-0.100776

>  <SCORE.RESTR>
1.7304

>  <SCORE.RESTR.CAVITY>
1.7304

>  <SCORE.RESTR.norm>
0.0640891

>  <SCORE.SYSTEM>
0

>  <SCORE.SYSTEM.CONST>
0

>  <SCORE.SYSTEM.DIHEDRAL>
0

>  <SCORE.SYSTEM.SOLV>
0

>  <SCORE.SYSTEM.norm>
0

>  <SCORE.heavy>
27

>  <SCORE.norm>
-0.351385

>  <RMSD>
18.414

$$$$
lig.pdb
 OpenBabel11021811523D
libRbt.so/2013.1/901 2013/11/27
 27 30  0  0  0  0  0  0  0  0999 V2000
   15.2403   26.9353   11.1732 N   0  0  0  0  0  0  0  0  0  0  0  0
   15.8353   26.6536   12.3058 C   0  0  0  0  0  0  0  0  0  0  0  0
   17.1338   26.9273   12.5887 N   0  0  0  0  0  0  0  0  0  0  0  0
   17.8815   27.5880   11.6552 C   0  0  0  0  0  0  0  0  0  0  0  0
   17.3345   27.9461   10.4566 C   0  0  0  0  0  0  0  0  0  0  0  0
   15.9609   27.5983   10.1806 C   0  0  0  0  0  0  0  0  0  0  0  0
   15.4119   27.8418    9.0989 O   0  0  0  0  0  0  0  0  0  0  0  0
   15.1699   25.7979   13.4061 C   0  0  2  0  0  0  0  0  0  0  0  0
   15.4619   26.6206   14.6716 C   0  0  0  0  0  0  0  0  0  0  0  0
   15.1340   25.8772   15.8894 N   0  0  0  0  0  0  0  0  0  0  0  0
   15.9835   24.6776   15.9637 C   0  0  0  0  0  0  0  0  0  0  0  0
   15.7017   23.7451   14.8022 C   0  0  0  0  0  0  0  0  0  0  0  0
   15.9128   24.4526   13.4708 C   0  0  0  0  0  0  0  0  0  0  0  0
   19.2394   27.8503   12.1132 C   0  0  0  0  0  0  0  0  0  0  0  0
   19.7867   27.3245   13.6621 S   0  0  0  0  0  0  0  0  0  0  0  0
   21.3029   27.9992   13.4241 C   0  0  0  0  0  0  0  0  0  0  0  0
   21.4179   28.5567   12.2121 C   0  0  0  0  0  0  0  0  0  0  0  0
   20.2379   28.4878   11.4461 C   0  0  0  0  0  0  0  0  0  0  0  0
   15.3028   26.7006   17.0997 C   0  0  0  0  0  0  0  0  0  0  0  0
   14.0969   27.5154   17.5113 C   0  0  0  0  0  0  0  0  0  0  0  0
   12.8873   27.3923   16.8431 C   0  0  0  0  0  0  0  0  0  0  0  0
   11.8956   28.2998   16.8962 N   0  0  0  0  0  0  0  0  0  0  0  0
   12.1776   29.3708   17.6227 C   0  0  0  0  0  0  0  0  0  0  0  0
   13.2922   29.6485   18.2799 N   0  0  0  0  0  0  0  0  0  0  0  0
   14.2458   28.7101   18.1849 C   0  0  0  0  0  0  0  0  0  0  0  0
   11.1924   30.2751   17.6658 O   0  0  0  0  0  0  0  0  0  0  0  0
    9.9828   29.9032   18.3367 C   0  0  0  0  0  0  0  0  0  0  0  0
  1  2  2  0  0  0  0
  1  6  1  0  0  0  0
  2  3  1  0  0  0  0
  3  4  2  0  0  0  0
  4 14  1  0  0  0  0
  5  4  1  0  0  0  0
  6  5  1  0  0  0  0
  7  6  2  0  0  0  0
  8  9  1  0  0  0  0
  8  2  1  6  0  0  0
 10 19  1  0  0  0  0
 10  9  1  0  0  0  0
 11 10  1  0  0  0  0
 12 11  1  0  0  0  0
 12 13  1  0  0  0  0
 13  8  1  0  0  0  0
 14 15  1  0  0  0  0
 14 18  2  0  0  0  0
 15 16  1  0  0  0  0
 16 17  2  0  0  0  0
 18 17  1  0  0  0  0
 19 20  1  0  0  0  0
 20 25  2  0  0  0  0
 20 21  1  0  0  0  0
 21 22  2  0  0  0  0
 22 23  1  0  0  0  0
 23 26  1  0  0  0  0
 24 23  2  0  0  0  0
 25 24  1  0  0  0  0
 26 27  1  0  0  0  0
M  END
>  <CHROM.1>
1.27955780,-133.84925994,87.90739528,5.18592179,66.67111420,15.86678228,27.43469550
14.32642048,0.73414130,0.10277015,-1.66165585

>  <Name>
lig.pdb

>  <RI>
0

>  <Rbt.Current_Directory>
/home/itssahil/PROJECTS/Mol_Feturizer/New_Systems/rnas/5kx9

>  <Rbt.Executable>
rbdock ($Id: //depot/dev/client3/rdock/2013.1/src/exe/rbdock.cxx#4 $)

>  <Rbt.Library>
libRbt.so (2013.1, Build901 2013/11/27)

>  <Rbt.Parameter_File>
/export/apps/rDock/src/rDock_2013.1_src/data/scripts/dock_solv.prm

>  <Rbt.Receptor>
prm/blind_docking_40.prm

>  <SCORE>
7.56513

>  <SCORE.INTER>
7.40562

>  <SCORE.INTER.CONST>
1

>  <SCORE.INTER.POLAR>
0

>  <SCORE.INTER.ROT>
5

>  <SCORE.INTER.SOLV>
19.1434

>  <SCORE.INTER.VDW>
-8.37737

>  <SCORE.INTER.norm>
0.274282

>  <SCORE.INTRA>
-4.02688

>  <SCORE.INTRA.DIHEDRAL>
3.79712

>  <SCORE.INTRA.DIHEDRAL.0>
2.68224

>  <SCORE.INTRA.POLAR>
0

>  <SCORE.INTRA.POLAR.0>
0

>  <SCORE.INTRA.REPUL>
0

>  <SCORE.INTRA.REPUL.0>
0

>  <SCORE.INTRA.SOLV>
-0.445549

>  <SCORE.INTRA.SOLV.lig_0>
-19.4148

>  <SCORE.INTRA.VDW>
-5.70266

>  <SCORE.INTRA.VDW.0>
5.42093

>  <SCORE.INTRA.norm>
-0.149144

>  <SCORE.RESTR>
4.18639

>  <SCORE.RESTR.CAVITY>
4.18639

>  <SCORE.RESTR.norm>
0.155051

>  <SCORE.SYSTEM>
0

>  <SCORE.SYSTEM.CONST>
0

>  <SCORE.SYSTEM.DIHEDRAL>
0

>  <SCORE.SYSTEM.SOLV>
0

>  <SCORE.SYSTEM.norm>
0

>  <SCORE.heavy>
27

>  <SCORE.norm>
0.28019

>  <RMSD>
18.958

$$$$
lig.pdb
 OpenBabel11021811523D
libRbt.so/2013.1/901 2013/11/27
 27 30  0  0  0  0  0  0  0  0999 V2000
   15.3826   26.5347   11.0880 N   0  0  0  0  0  0  0  0  0  0  0  0
   16.1998   26.4062   12.1038 C   0  0  0  0  0  0  0  0  0  0  0  0
   17.3907   27.0447   12.2267 N   0  0  0  0  0  0  0  0  0  0  0  0
   17.7629   27.9280   11.2528 C   0  0  0  0  0  0  0  0  0  0  0  0
   16.9587   28.1457   10.1710 C   0  0  0  0  0  0  0  0  0  0  0  0
   15.7194   27.4140   10.0598 C   0  0  0  0  0  0  0  0  0  0  0  0
   14.9646   27.5180    9.0850 O   0  0  0  0  0  0  0  0  0  0  0  0
   15.9873   25.3560   13.2163 C   0  0  2  0  0  0  0  0  0  0  0  0
   16.1122   26.2088   14.4894 C   0  0  0  0  0  0  0  0  0  0  0  0
   16.1889   25.3787   15.6929 N   0  0  0  0  0  0  0  0  0  0  0  0
   17.4003   24.5455   15.6257 C   0  0  0  0  0  0  0  0  0  0  0  0
   17.3335   23.5916   14.4493 C   0  0  0  0  0  0  0  0  0  0  0  0
   17.1480   24.3494   13.1421 C   0  0  0  0  0  0  0  0  0  0  0  0
   19.0400   28.5676   11.5396 C   0  0  0  0  0  0  0  0  0  0  0  0
   19.5200   30.0211   10.7444 S   0  0  0  0  0  0  0  0  0  0  0  0
   20.9872   30.0533   11.5551 C   0  0  0  0  0  0  0  0  0  0  0  0
   21.0996   29.0429   12.4266 C   0  0  0  0  0  0  0  0  0  0  0  0
   19.9920   28.1727   12.4262 C   0  0  0  0  0  0  0  0  0  0  0  0
   16.1926   26.1905   16.9226 C   0  0  0  0  0  0  0  0  0  0  0  0
   14.8670   26.8123   17.3013 C   0  0  0  0  0  0  0  0  0  0  0  0
   13.6706   26.2901   16.8315 C   0  0  0  0  0  0  0  0  0  0  0  0
   12.5043   26.9605   16.8161 N   0  0  0  0  0  0  0  0  0  0  0  0
   12.5878   28.2060   17.2591 C   0  0  0  0  0  0  0  0  0  0  0  0
   13.6558   28.8530   17.6977 N   0  0  0  0  0  0  0  0  0  0  0  0
   14.7888   28.1355   17.6837 C   0  0  0  0  0  0  0  0  0  0  0  0
   11.4279   28.8723   17.2339 O   0  0  0  0  0  0  0  0  0  0  0  0
   11.1903   29.8253   18.2765 C   0  0  0  0  0  0  0  0  0  0  0  0
  1  2  2  0  0  0  0
  1  6  1  0  0  0  0
  2  3  1  0  0  0  0
  3  4  2  0  0  0  0
  4 14  1  0  0  0  0
  5  4  1  0  0  0  0
  6  5  1  0  0  0  0
  7  6  2  0  0  0  0
  8  9  1  0  0  0  0
  8  2  1  6  0  0  0
 10 19  1  0  0  0  0
 10  9  1  0  0  0  0
 11 10  1  0  0  0  0
 12 11  1  0  0  0  0
 12 13  1  0  0  0  0
 13  8  1  0  0  0  0
 14 15  1  0  0  0  0
 14 18  2  0  0  0  0
 15 16  1  0  0  0  0
 16 17  2  0  0  0  0
 18 17  1  0  0  0  0
 19 20  1  0  0  0  0
 20 25  2  0  0  0  0
 20 21  1  0  0  0  0
 21 22  2  0  0  0  0
 22 23  1  0  0  0  0
 23 26  1  0  0  0  0
 24 23  2  0  0  0  0
 25 24  1  0  0  0  0
 26 27  1  0  0  0  0
M  END
>  <CHROM.1>
-162.02322048,-129.70058777,73.65999936,21.96168693,145.86325408,16.24466586
27.40257460,13.84753646,-0.40052626,-0.76676592,2.71481664

>  <Name>
lig.pdb

>  <RI>
0

>  <Rbt.Current_Directory>
/home/itssahil/PROJECTS/Mol_Feturizer/New_Systems/rnas/5kx9

>  <Rbt.Executable>
rbdock ($Id: //depot/dev/client3/rdock/2013.1/src/exe/rbdock.cxx#4 $)

>  <Rbt.Library>
libRbt.so (2013.1, Build901 2013/11/27)

>  <Rbt.Parameter_File>
/export/apps/rDock/src/rDock_2013.1_src/data/scripts/dock_solv.prm

>  <Rbt.Receptor>
prm/blind_docking_40.prm

>  <SCORE>
11.8127

>  <SCORE.INTER>
14.3547

>  <SCORE.INTER.CONST>
1

>  <SCORE.INTER.POLAR>
0

>  <SCORE.INTER.ROT>
5

>  <SCORE.INTER.SOLV>
21.1174

>  <SCORE.INTER.VDW>
-4.40268

>  <SCORE.INTER.norm>
0.531655

>  <SCORE.INTRA>
-4.31716

>  <SCORE.INTRA.DIHEDRAL>
1.44498

>  <SCORE.INTRA.DIHEDRAL.0>
2.68224

>  <SCORE.INTRA.POLAR>
0

>  <SCORE.INTRA.POLAR.0>
0

>  <SCORE.INTRA.REPUL>
0

>  <SCORE.INTRA.REPUL.0>
0

>  <SCORE.INTRA.SOLV>
-0.468222

>  <SCORE.INTRA.SOLV.lig_0>
-19.4148

>  <SCORE.INTRA.VDW>
-4.80554

>  <SCORE.INTRA.VDW.0>
5.42093

>  <SCORE.INTRA.norm>
-0.159895

>  <SCORE.RESTR>
1.77519

>  <SCORE.RESTR.CAVITY>
1.77519

>  <SCORE.RESTR.norm>
0.0657476

>  <SCORE.SYSTEM>
0

>  <SCORE.SYSTEM.CONST>
0

>  <SCORE.SYSTEM.DIHEDRAL>
0

>  <SCORE.SYSTEM.SOLV>
0

>  <SCORE.SYSTEM.norm>
0

>  <SCORE.heavy>
27

>  <SCORE.norm>
0.437508

>  <RMSD>
18.984

$$$$
lig.pdb
 OpenBabel11021811523D
libRbt.so/2013.1/901 2013/11/27
 27 30  0  0  0  0  0  0  0  0999 V2000
   16.6750   25.9873   15.5600 N   0  0  0  0  0  0  0  0  0  0  0  0
   15.4846   25.8483   15.0310 C   0  0  0  0  0  0  0  0  0  0  0  0
   14.3249   26.2387   15.6174 N   0  0  0  0  0  0  0  0  0  0  0  0
   14.3839   26.8686   16.8285 C   0  0  0  0  0  0  0  0  0  0  0  0
   15.5857   27.0812   17.4409 C   0  0  0  0  0  0  0  0  0  0  0  0
   16.7916   26.6124   16.8008 C   0  0  0  0  0  0  0  0  0  0  0  0
   17.9106   26.7211   17.3175 O   0  0  0  0  0  0  0  0  0  0  0  0
   15.2376   25.0451   13.7351 C   0  0  2  0  0  0  0  0  0  0  0  0
   16.4900   25.3786   12.9082 C   0  0  0  0  0  0  0  0  0  0  0  0
   16.3645   24.9186   11.5241 N   0  0  0  0  0  0  0  0  0  0  0  0
   15.2403   25.6208   10.8842 C   0  0  0  0  0  0  0  0  0  0  0  0
   13.9320   25.2805   11.5704 C   0  0  0  0  0  0  0  0  0  0  0  0
   13.9872   25.6250   13.0523 C   0  0  0  0  0  0  0  0  0  0  0  0
   13.0694   27.2670   17.3137 C   0  0  0  0  0  0  0  0  0  0  0  0
   11.7186   27.4053   16.2499 S   0  0  0  0  0  0  0  0  0  0  0  0
   10.7088   27.8944   17.4957 C   0  0  0  0  0  0  0  0  0  0  0  0
   11.3410   27.9086   18.6760 C   0  0  0  0  0  0  0  0  0  0  0  0
   12.7025   27.5580   18.5901 C   0  0  0  0  0  0  0  0  0  0  0  0
   17.6049   25.1323   10.7580 C   0  0  0  0  0  0  0  0  0  0  0  0
   18.2876   26.4644   10.9745 C   0  0  0  0  0  0  0  0  0  0  0  0
   17.6722   27.6525   10.6081 C   0  0  0  0  0  0  0  0  0  0  0  0
   18.3190   28.8189   10.4319 N   0  0  0  0  0  0  0  0  0  0  0  0
   19.6307   28.7436   10.6004 C   0  0  0  0  0  0  0  0  0  0  0  0
   20.3608   27.6834   10.9078 N   0  0  0  0  0  0  0  0  0  0  0  0
   19.6616   26.5497   11.0648 C   0  0  0  0  0  0  0  0  0  0  0  0
   20.2714   29.9035   10.4156 O   0  0  0  0  0  0  0  0  0  0  0  0
   21.3202   30.2329   11.3339 C   0  0  0  0  0  0  0  0  0  0  0  0
  1  2  2  0  0  0  0
  1  6  1  0  0  0  0
  2  3  1  0  0  0  0
  3  4  2  0  0  0  0
  4 14  1  0  0  0  0
  5  4  1  0  0  0  0
  6  5  1  0  0  0  0
  7  6  2  0  0  0  0
  8  9  1  0  0  0  0
  8  2  1  1  0  0  0
 10 19  1  0  0  0  0
 10  9  1  0  0  0  0
 11 10  1  0  0  0  0
 12 11  1  0  0  0  0
 12 13  1  0  0  0  0
 13  8  1  0  0  0  0
 14 15  1  0  0  0  0
 14 18  2  0  0  0  0
 15 16  1  0  0  0  0
 16 17  2  0  0  0  0
 18 17  1  0  0  0  0
 19 20  1  0  0  0  0
 20 25  2  0  0  0  0
 20 21  1  0  0  0  0
 21 22  2  0  0  0  0
 22 23  1  0  0  0  0
 23 26  1  0  0  0  0
 24 23  2  0  0  0  0
 25 24  1  0  0  0  0
 26 27  1  0  0  0  0
M  END
>  <CHROM.1>
-19.24138711,-36.93903218,-42.86046394,-64.22719310,138.36770312,15.97082682
26.94695175,13.90523174,-2.47867901,-0.44298495,-1.95989427

>  <Name>
lig.pdb

>  <RI>
0

>  <Rbt.Current_Directory>
/home/itssahil/PROJECTS/Mol_Feturizer/New_Systems/rnas/5kx9

>  <Rbt.Executable>
rbdock ($Id: //depot/dev/client3/rdock/2013.1/src/exe/rbdock.cxx#4 $)

>  <Rbt.Library>
libRbt.so (2013.1, Build901 2013/11/27)

>  <Rbt.Parameter_File>
/export/apps/rDock/src/rDock_2013.1_src/data/scripts/dock_solv.prm

>  <Rbt.Receptor>
prm/blind_docking_40.prm

>  <SCORE>
-1.5179

>  <SCORE.INTER>
-2.17248

>  <SCORE.INTER.CONST>
1

>  <SCORE.INTER.POLAR>
0

>  <SCORE.INTER.ROT>
5

>  <SCORE.INTER.SOLV>
14.5699

>  <SCORE.INTER.VDW>
-13.2383

>  <SCORE.INTER.norm>
-0.0804621

>  <SCORE.INTRA>
-2.09535

>  <SCORE.INTRA.DIHEDRAL>
3.06796

>  <SCORE.INTRA.DIHEDRAL.0>
2.68224

>  <SCORE.INTRA.POLAR>
0

>  <SCORE.INTRA.POLAR.0>
0

>  <SCORE.INTRA.REPUL>
0

>  <SCORE.INTRA.REPUL.0>
0

>  <SCORE.INTRA.SOLV>
-0.545898

>  <SCORE.INTRA.SOLV.lig_0>
-19.4148

>  <SCORE.INTRA.VDW>
-3.35638

>  <SCORE.INTRA.VDW.0>
5.42093

>  <SCORE.INTRA.norm>
-0.0776055

>  <SCORE.RESTR>
2.74993

>  <SCORE.RESTR.CAVITY>
2.74993

>  <SCORE.RESTR.norm>
0.101849

>  <SCORE.SYSTEM>
0

>  <SCORE.SYSTEM.CONST>
0

>  <SCORE.SYSTEM.DIHEDRAL>
0

>  <SCORE.SYSTEM.SOLV>
0

>  <SCORE.SYSTEM.norm>
0

>  <SCORE.heavy>
27

>  <SCORE.norm>
-0.0562184

>  <RMSD>
19.021

$$$$
lig.pdb
 OpenBabel11021811523D
libRbt.so/2013.1/901 2013/11/27
 27 30  0  0  0  0  0  0  0  0999 V2000
   15.7963   25.4277   12.7404 N   0  0  0  0  0  0  0  0  0  0  0  0
   16.6239   26.1060   13.4961 C   0  0  0  0  0  0  0  0  0  0  0  0
   17.5065   27.0317   13.0431 N   0  0  0  0  0  0  0  0  0  0  0  0
   17.5166   27.3282   11.7093 C   0  0  0  0  0  0  0  0  0  0  0  0
   16.6678   26.6897   10.8513 C   0  0  0  0  0  0  0  0  0  0  0  0
   15.7739   25.6817   11.3696 C   0  0  0  0  0  0  0  0  0  0  0  0
   15.0141   25.0241   10.6477 O   0  0  0  0  0  0  0  0  0  0  0  0
   16.8255   25.7977   14.9961 C   0  0  2  0  0  0  0  0  0  0  0  0
   15.3866   25.8668   15.5332 C   0  0  0  0  0  0  0  0  0  0  0  0
   15.3524   25.8473   16.9966 N   0  0  0  0  0  0  0  0  0  0  0  0
   16.0492   27.0379   17.5097 C   0  0  0  0  0  0  0  0  0  0  0  0
   17.5125   27.0181   17.1138 C   0  0  0  0  0  0  0  0  0  0  0  0
   17.6676   26.9335   15.6017 C   0  0  0  0  0  0  0  0  0  0  0  0
   18.4823   28.3671   11.3770 C   0  0  0  0  0  0  0  0  0  0  0  0
   19.9500   28.5520   12.2640 S   0  0  0  0  0  0  0  0  0  0  0  0
   20.4165   29.8691   11.3375 C   0  0  0  0  0  0  0  0  0  0  0  0
   19.5338   30.1357   10.3666 C   0  0  0  0  0  0  0  0  0  0  0  0
   18.4100   29.2868   10.3782 C   0  0  0  0  0  0  0  0  0  0  0  0
   13.9739   25.7972   17.5148 C   0  0  0  0  0  0  0  0  0  0  0  0
   13.2745   27.1317   17.6466 C   0  0  0  0  0  0  0  0  0  0  0  0
   13.1942   27.7805   18.8702 C   0  0  0  0  0  0  0  0  0  0  0  0
   12.3146   28.7581   19.1542 N   0  0  0  0  0  0  0  0  0  0  0  0
   11.4790   29.0409   18.1661 C   0  0  0  0  0  0  0  0  0  0  0  0
   11.4057   28.4860   16.9669 N   0  0  0  0  0  0  0  0  0  0  0  0
   12.3032   27.5145   16.7447 C   0  0  0  0  0  0  0  0  0  0  0  0
   10.6001   30.0073   18.4554 O   0  0  0  0  0  0  0  0  0  0  0  0
    9.3662   30.0178   17.7281 C   0  0  0  0  0  0  0  0  0  0  0  0
  1  2  2  0  0  0  0
  1  6  1  0  0  0  0
  2  3  1  0  0  0  0
  3  4  2  0  0  0  0
  4 14  1  0  0  0  0
  5  4  1  0  0  0  0
  6  5  1  0  0  0  0
  7  6  2  0  0  0  0
  8  9  1  0  0  0  0
  8  2  1  6  0  0  0
 10 19  1  0  0  0  0
 10  9  1  0  0  0  0
 11 10  1  0  0  0  0
 12 11  1  0  0  0  0
 12 13  1  0  0  0  0
 13  8  1  0  0  0  0
 14 15  1  0  0  0  0
 14 18  2  0  0  0  0
 15 16  1  0  0  0  0
 16 17  2  0  0  0  0
 18 17  1  0  0  0  0
 19 20  1  0  0  0  0
 20 25  2  0  0  0  0
 20 21  1  0  0  0  0
 21 22  2  0  0  0  0
 22 23  1  0  0  0  0
 23 26  1  0  0  0  0
 24 23  2  0  0  0  0
 25 24  1  0  0  0  0
 26 27  1  0  0  0  0
M  END
>  <CHROM.1>
31.36076457,-54.46851819,-84.80097173,-99.29930574,-155.25045777,15.64094236
27.55055057,14.69080581,0.47107005,-0.64766540,-2.49955443

>  <Name>
lig.pdb

>  <RI>
0

>  <Rbt.Current_Directory>
/home/itssahil/PROJECTS/Mol_Feturizer/New_Systems/rnas/5kx9

>  <Rbt.Executable>
rbdock ($Id: //depot/dev/client3/rdock/2013.1/src/exe/rbdock.cxx#4 $)

>  <Rbt.Library>
libRbt.so (2013.1, Build901 2013/11/27)

>  <Rbt.Parameter_File>
/export/apps/rDock/src/rDock_2013.1_src/data/scripts/dock_solv.prm

>  <Rbt.Receptor>
prm/blind_docking_40.prm

>  <SCORE>
-12.7109

>  <SCORE.INTER>
-12.6343

>  <SCORE.INTER.CONST>
1

>  <SCORE.INTER.POLAR>
0

>  <SCORE.INTER.ROT>
5

>  <SCORE.INTER.SOLV>
16.0985

>  <SCORE.INTER.VDW>
-20.7224

>  <SCORE.INTER.norm>
-0.467936

>  <SCORE.INTRA>
-0.466484

>  <SCORE.INTRA.DIHEDRAL>
3.15308

>  <SCORE.INTRA.DIHEDRAL.0>
2.68224

>  <SCORE.INTRA.POLAR>
0

>  <SCORE.INTRA.POLAR.0>
0

>  <SCORE.INTRA.REPUL>
0

>  <SCORE.INTRA.REPUL.0>
0

>  <SCORE.INTRA.SOLV>
-0.582381

>  <SCORE.INTRA.SOLV.lig_0>
-19.4148

>  <SCORE.INTRA.VDW>
-1.75183

>  <SCORE.INTRA.VDW.0>
5.42093

>  <SCORE.INTRA.norm>
-0.0172772

>  <SCORE.RESTR>
0.389802

>  <SCORE.RESTR.CAVITY>
0.389802

>  <SCORE.RESTR.norm>
0.0144371

>  <SCORE.SYSTEM>
0

>  <SCORE.SYSTEM.CONST>
0

>  <SCORE.SYSTEM.DIHEDRAL>
0

>  <SCORE.SYSTEM.SOLV>
0

>  <SCORE.SYSTEM.norm>
0

>  <SCORE.heavy>
27

>  <SCORE.norm>
-0.470776

>  <RMSD>
19.044

$$$$
lig.pdb
 OpenBabel11021811523D
libRbt.so/2013.1/901 2013/11/27
 27 30  0  0  0  0  0  0  0  0999 V2000
   17.4421   25.3170   14.7832 N   0  0  0  0  0  0  0  0  0  0  0  0
   17.4094   26.5933   15.0768 C   0  0  0  0  0  0  0  0  0  0  0  0
   16.4818   27.1825   15.8726 N   0  0  0  0  0  0  0  0  0  0  0  0
   15.5301   26.3974   16.4601 C   0  0  0  0  0  0  0  0  0  0  0  0
   15.5056   25.0513   16.2324 C   0  0  0  0  0  0  0  0  0  0  0  0
   16.4864   24.4719   15.3458 C   0  0  0  0  0  0  0  0  0  0  0  0
   16.4959   23.2706   15.0497 O   0  0  0  0  0  0  0  0  0  0  0  0
   18.3304   27.6288   14.3948 C   0  0  2  0  0  0  0  0  0  0  0  0
   17.8151   27.6105   12.9465 C   0  0  0  0  0  0  0  0  0  0  0  0
   18.7050   28.3441   12.0448 N   0  0  0  0  0  0  0  0  0  0  0  0
   20.0220   27.6872   12.0297 C   0  0  0  0  0  0  0  0  0  0  0  0
   20.6645   27.7368   13.4019 C   0  0  0  0  0  0  0  0  0  0  0  0
   19.7690   27.0871   14.4476 C   0  0  0  0  0  0  0  0  0  0  0  0
   14.6318   27.1586   17.3178 C   0  0  0  0  0  0  0  0  0  0  0  0
   13.3292   26.4018   18.1579 S   0  0  0  0  0  0  0  0  0  0  0  0
   12.8290   27.8581   18.8210 C   0  0  0  0  0  0  0  0  0  0  0  0
   13.6324   28.8701   18.4697 C   0  0  0  0  0  0  0  0  0  0  0  0
   14.6713   28.4884   17.5984 C   0  0  0  0  0  0  0  0  0  0  0  0
   18.1583   28.4278   10.6790 C   0  0  0  0  0  0  0  0  0  0  0  0
   17.1825   27.3377   10.2959 C   0  0  0  0  0  0  0  0  0  0  0  0
   15.8171   27.5803   10.2554 C   0  0  0  0  0  0  0  0  0  0  0  0
   14.8750   26.6202   10.2785 N   0  0  0  0  0  0  0  0  0  0  0  0
   15.3553   25.3903   10.3843 C   0  0  0  0  0  0  0  0  0  0  0  0
   16.6184   25.0056   10.4735 N   0  0  0  0  0  0  0  0  0  0  0  0
   17.5106   26.0067   10.4513 C   0  0  0  0  0  0  0  0  0  0  0  0
   14.4151   24.4389   10.4158 O   0  0  0  0  0  0  0  0  0  0  0  0
   13.1621   24.7679   11.0270 C   0  0  0  0  0  0  0  0  0  0  0  0
  1  2  2  0  0  0  0
  1  6  1  0  0  0  0
  2  3  1  0  0  0  0
  3  4  2  0  0  0  0
  4 14  1  0  0  0  0
  5  4  1  0  0  0  0
  6  5  1  0  0  0  0
  7  6  2  0  0  0  0
  8  9  1  0  0  0  0
  8  2  1  1  0  0  0
 10 19  1  0  0  0  0
 10  9  1  0  0  0  0
 11 10  1  0  0  0  0
 12 11  1  0  0  0  0
 12 13  1  0  0  0  0
 13  8  1  0  0  0  0
 14 15  1  0  0  0  0
 14 18  2  0  0  0  0
 15 16  1  0  0  0  0
 16 17  2  0  0  0  0
 18 17  1  0  0  0  0
 19 20  1  0  0  0  0
 20 25  2  0  0  0  0
 20 21  1  0  0  0  0
 21 22  2  0  0  0  0
 22 23  1  0  0  0  0
 23 26  1  0  0  0  0
 24 23  2  0  0  0  0
 25 24  1  0  0  0  0
 26 27  1  0  0  0  0
M  END
>  <CHROM.1>
179.14548958,66.63828160,-24.72179622,103.36434251,-32.37113961,16.26315354
26.57092682,13.96118460,-2.03840590,-0.39236530,-1.80529101

>  <Name>
lig.pdb

>  <RI>
0

>  <Rbt.Current_Directory>
/home/itssahil/PROJECTS/Mol_Feturizer/New_Systems/rnas/5kx9

>  <Rbt.Executable>
rbdock ($Id: //depot/dev/client3/rdock/2013.1/src/exe/rbdock.cxx#4 $)

>  <Rbt.Library>
libRbt.so (2013.1, Build901 2013/11/27)

>  <Rbt.Parameter_File>
/export/apps/rDock/src/rDock_2013.1_src/data/scripts/dock_solv.prm

>  <Rbt.Receptor>
prm/blind_docking_40.prm

>  <SCORE>
-11.1522

>  <SCORE.INTER>
-11.1075

>  <SCORE.INTER.CONST>
1

>  <SCORE.INTER.POLAR>
0

>  <SCORE.INTER.ROT>
5

>  <SCORE.INTER.SOLV>
18.0433

>  <SCORE.INTER.VDW>
-20.3528

>  <SCORE.INTER.norm>
-0.411388

>  <SCORE.INTRA>
-1.798

>  <SCORE.INTRA.DIHEDRAL>
2.09215

>  <SCORE.INTRA.DIHEDRAL.0>
2.68224

>  <SCORE.INTRA.POLAR>
0

>  <SCORE.INTRA.POLAR.0>
0

>  <SCORE.INTRA.REPUL>
0

>  <SCORE.INTRA.REPUL.0>
0

>  <SCORE.INTRA.SOLV>
-0.251984

>  <SCORE.INTRA.SOLV.lig_0>
-19.4148

>  <SCORE.INTRA.VDW>
-2.71808

>  <SCORE.INTRA.VDW.0>
5.42093

>  <SCORE.INTRA.norm>
-0.0665925

>  <SCORE.RESTR>
1.7533

>  <SCORE.RESTR.CAVITY>
1.7533

>  <SCORE.RESTR.norm>
0.0649369

>  <SCORE.SYSTEM>
0

>  <SCORE.SYSTEM.CONST>
0

>  <SCORE.SYSTEM.DIHEDRAL>
0

>  <SCORE.SYSTEM.SOLV>
0

>  <SCORE.SYSTEM.norm>
0

>  <SCORE.heavy>
27

>  <SCORE.norm>
-0.413043

>  <RMSD>
19.075

$$$$
lig.pdb
 OpenBabel11021811523D
libRbt.so/2013.1/901 2013/11/27
 27 30  0  0  0  0  0  0  0  0999 V2000
   15.3757   25.8633   11.9856 N   0  0  0  0  0  0  0  0  0  0  0  0
   16.5102   26.2212   12.5344 C   0  0  0  0  0  0  0  0  0  0  0  0
   17.4115   27.0652   11.9719 N   0  0  0  0  0  0  0  0  0  0  0  0
   17.1122   27.6326   10.7655 C   0  0  0  0  0  0  0  0  0  0  0  0
   15.9380   27.3383   10.1338 C   0  0  0  0  0  0  0  0  0  0  0  0
   15.0263   26.4029   10.7484 C   0  0  0  0  0  0  0  0  0  0  0  0
   13.9692   26.0468   10.2131 O   0  0  0  0  0  0  0  0  0  0  0  0
   17.0513   25.5726   13.8274 C   0  0  2  0  0  0  0  0  0  0  0  0
   16.5336   26.5348   14.9089 C   0  0  0  0  0  0  0  0  0  0  0  0
   17.1333   26.2560   16.2150 N   0  0  0  0  0  0  0  0  0  0  0  0
   18.5879   26.4636   16.1304 C   0  0  0  0  0  0  0  0  0  0  0  0
   19.2151   25.4893   15.1528 C   0  0  0  0  0  0  0  0  0  0  0  0
   18.5876   25.6216   13.7721 C   0  0  0  0  0  0  0  0  0  0  0  0
   18.1500   28.5464   10.3070 C   0  0  0  0  0  0  0  0  0  0  0  0
   19.5075   27.9888    9.4007 S   0  0  0  0  0  0  0  0  0  0  0  0
   20.1622   29.5299    9.3156 C   0  0  0  0  0  0  0  0  0  0  0  0
   19.3742   30.4412    9.8999 C   0  0  0  0  0  0  0  0  0  0  0  0
   18.2152   29.8930   10.4831 C   0  0  0  0  0  0  0  0  0  0  0  0
   16.5562   27.0986   17.2773 C   0  0  0  0  0  0  0  0  0  0  0  0
   15.0639   27.3290   17.1927 C   0  0  0  0  0  0  0  0  0  0  0  0
   14.5061   28.5487   17.5477 C   0  0  0  0  0  0  0  0  0  0  0  0
   13.2062   28.7314   17.8422 N   0  0  0  0  0  0  0  0  0  0  0  0
   12.4801   27.6241   17.8058 C   0  0  0  0  0  0  0  0  0  0  0  0
   12.8734   26.3916   17.5271 N   0  0  0  0  0  0  0  0  0  0  0  0
   14.1797   26.2714   17.2478 C   0  0  0  0  0  0  0  0  0  0  0  0
   11.1898   27.8083   18.1080 O   0  0  0  0  0  0  0  0  0  0  0  0
   10.3914   28.5464   17.1755 C   0  0  0  0  0  0  0  0  0  0  0  0
  1  2  2  0  0  0  0
  1  6  1  0  0  0  0
  2  3  1  0  0  0  0
  3  4  2  0  0  0  0
  4 14  1  0  0  0  0
  5  4  1  0  0  0  0
  6  5  1  0  0  0  0
  7  6  2  0  0  0  0
  8  9  1  0  0  0  0
  8  2  1  6  0  0  0
 10 19  1  0  0  0  0
 10  9  1  0  0  0  0
 11 10  1  0  0  0  0
 12 11  1  0  0  0  0
 12 13  1  0  0  0  0
 13  8  1  0  0  0  0
 14 15  1  0  0  0  0
 14 18  2  0  0  0  0
 15 16  1  0  0  0  0
 16 17  2  0  0  0  0
 18 17  1  0  0  0  0
 19 20  1  0  0  0  0
 20 25  2  0  0  0  0
 20 21  1  0  0  0  0
 21 22  2  0  0  0  0
 22 23  1  0  0  0  0
 23 26  1  0  0  0  0
 24 23  2  0  0  0  0
 25 24  1  0  0  0  0
 26 27  1  0  0  0  0
M  END
>  <CHROM.1>
86.88906228,-94.30573204,39.50278655,-143.56155398,68.62164949,16.18864893
27.32095625,13.74095965,0.93724208,0.13375279,-1.38563133

>  <Name>
lig.pdb

>  <RI>
0

>  <Rbt.Current_Directory>
/home/itssahil/PROJECTS/Mol_Feturizer/New_Systems/rnas/5kx9

>  <Rbt.Executable>
rbdock ($Id: //depot/dev/client3/rdock/2013.1/src/exe/rbdock.cxx#4 $)

>  <Rbt.Library>
libRbt.so (2013.1, Build901 2013/11/27)

>  <Rbt.Parameter_File>
/export/apps/rDock/src/rDock_2013.1_src/data/scripts/dock_solv.prm

>  <Rbt.Receptor>
prm/blind_docking_40.prm

>  <SCORE>
10.6634

>  <SCORE.INTER>
7.5514

>  <SCORE.INTER.CONST>
1

>  <SCORE.INTER.POLAR>
0

>  <SCORE.INTER.ROT>
5

>  <SCORE.INTER.SOLV>
22.3412

>  <SCORE.INTER.VDW>
-9.34612

>  <SCORE.INTER.norm>
0.279681

>  <SCORE.INTRA>
2.79453

>  <SCORE.INTRA.DIHEDRAL>
15.5849

>  <SCORE.INTRA.DIHEDRAL.0>
2.68224

>  <SCORE.INTRA.POLAR>
0

>  <SCORE.INTRA.POLAR.0>
0

>  <SCORE.INTRA.REPUL>
0

>  <SCORE.INTRA.REPUL.0>
0

>  <SCORE.INTRA.SOLV>
-0.696711

>  <SCORE.INTRA.SOLV.lig_0>
-19.4148

>  <SCORE.INTRA.VDW>
-4.64954

>  <SCORE.INTRA.VDW.0>
5.42093

>  <SCORE.INTRA.norm>
0.103501

>  <SCORE.RESTR>
0.317472

>  <SCORE.RESTR.CAVITY>
0.317472

>  <SCORE.RESTR.norm>
0.0117582

>  <SCORE.SYSTEM>
0

>  <SCORE.SYSTEM.CONST>
0

>  <SCORE.SYSTEM.DIHEDRAL>
0

>  <SCORE.SYSTEM.SOLV>
0

>  <SCORE.SYSTEM.norm>
0

>  <SCORE.heavy>
27

>  <SCORE.norm>
0.394941

>  <RMSD>
19.117

$$$$
lig.pdb
 OpenBabel11021811523D
libRbt.so/2013.1/901 2013/11/27
 27 30  0  0  0  0  0  0  0  0999 V2000
   15.6693   25.4121   12.6689 N   0  0  0  0  0  0  0  0  0  0  0  0
   16.6067   26.0029   13.3677 C   0  0  0  0  0  0  0  0  0  0  0  0
   17.5811   26.7913   12.8480 N   0  0  0  0  0  0  0  0  0  0  0  0
   17.5747   27.0393   11.5043 C   0  0  0  0  0  0  0  0  0  0  0  0
   16.6171   26.4873   10.7026 C   0  0  0  0  0  0  0  0  0  0  0  0
   15.6237   25.6209   11.2911 C   0  0  0  0  0  0  0  0  0  0  0  0
   14.7575   25.0432   10.6228 O   0  0  0  0  0  0  0  0  0  0  0  0
   16.8282   25.7214   14.8701 C   0  0  2  0  0  0  0  0  0  0  0  0
   15.4060   25.8655   15.4357 C   0  0  0  0  0  0  0  0  0  0  0  0
   15.4035   25.8819   16.8996 N   0  0  0  0  0  0  0  0  0  0  0  0
   16.1619   27.0528   17.3686 C   0  0  0  0  0  0  0  0  0  0  0  0
   17.6138   26.9602   16.9424 C   0  0  0  0  0  0  0  0  0  0  0  0
   17.7315   26.8334   15.4298 C   0  0  0  0  0  0  0  0  0  0  0  0
   18.6507   27.9332   11.0978 C   0  0  0  0  0  0  0  0  0  0  0  0
   18.3751   29.6152   10.8333 S   0  0  0  0  0  0  0  0  0  0  0  0
   19.9752   29.8732   10.4041 C   0  0  0  0  0  0  0  0  0  0  0  0
   20.7056   28.7551   10.5003 C   0  0  0  0  0  0  0  0  0  0  0  0
   19.9589   27.6263   10.8906 C   0  0  0  0  0  0  0  0  0  0  0  0
   14.0359   25.9038   17.4479 C   0  0  0  0  0  0  0  0  0  0  0  0
   13.3145   27.2299   17.3563 C   0  0  0  0  0  0  0  0  0  0  0  0
   13.4899   28.2090   18.3234 C   0  0  0  0  0  0  0  0  0  0  0  0
   12.6495   29.2412   18.5190 N   0  0  0  0  0  0  0  0  0  0  0  0
   11.5895   29.2367   17.7247 C   0  0  0  0  0  0  0  0  0  0  0  0
   11.2656   28.3570   16.7905 N   0  0  0  0  0  0  0  0  0  0  0  0
   12.1377   27.3484   16.6461 C   0  0  0  0  0  0  0  0  0  0  0  0
   10.7516   30.2598   17.9282 O   0  0  0  0  0  0  0  0  0  0  0  0
    9.5021   29.9737   18.5676 C   0  0  0  0  0  0  0  0  0  0  0  0
  1  2  2  0  0  0  0
  1  6  1  0  0  0  0
  2  3  1  0  0  0  0
  3  4  2  0  0  0  0
  4 14  1  0  0  0  0
  5  4  1  0  0  0  0
  6  5  1  0  0  0  0
  7  6  2  0  0  0  0
  8  9  1  0  0  0  0
  8  2  1  6  0  0  0
 10 19  1  0  0  0  0
 10  9  1  0  0  0  0
 11 10  1  0  0  0  0
 12 11  1  0  0  0  0
 12 13  1  0  0  0  0
 13  8  1  0  0  0  0
 14 15  1  0  0  0  0
 14 18  2  0  0  0  0
 15 16  1  0  0  0  0
 16 17  2  0  0  0  0
 18 17  1  0  0  0  0
 19 20  1  0  0  0  0
 20 25  2  0  0  0  0
 20 21  1  0  0  0  0
 21 22  2  0  0  0  0
 22 23  1  0  0  0  0
 23 26  1  0  0  0  0
 24 23  2  0  0  0  0
 25 24  1  0  0  0  0
 26 27  1  0  0  0  0
M  END
>  <CHROM.1>
-99.39323365,-49.42506654,-75.31687357,-84.71462203,-107.45701671,15.61703468
27.52974393,14.42846322,-0.20490178,-0.79293445,2.75856065

>  <Name>
lig.pdb

>  <RI>
0

>  <Rbt.Current_Directory>
/home/itssahil/PROJECTS/Mol_Feturizer/New_Systems/rnas/5kx9

>  <Rbt.Executable>
rbdock ($Id: //depot/dev/client3/rdock/2013.1/src/exe/rbdock.cxx#4 $)

>  <Rbt.Library>
libRbt.so (2013.1, Build901 2013/11/27)

>  <Rbt.Parameter_File>
/export/apps/rDock/src/rDock_2013.1_src/data/scripts/dock_solv.prm

>  <Rbt.Receptor>
prm/blind_docking_40.prm

>  <SCORE>
-11.8438

>  <SCORE.INTER>
-14.7643

>  <SCORE.INTER.CONST>
1

>  <SCORE.INTER.POLAR>
0

>  <SCORE.INTER.ROT>
5

>  <SCORE.INTER.SOLV>
15.3461

>  <SCORE.INTER.VDW>
-21.8916

>  <SCORE.INTER.norm>
-0.546826

>  <SCORE.INTRA>
2.80551

>  <SCORE.INTRA.DIHEDRAL>
14.4067

>  <SCORE.INTRA.DIHEDRAL.0>
2.68224

>  <SCORE.INTRA.POLAR>
0

>  <SCORE.INTRA.POLAR.0>
0

>  <SCORE.INTRA.REPUL>
0

>  <SCORE.INTRA.REPUL.0>
0

>  <SCORE.INTRA.SOLV>
-0.64858

>  <SCORE.INTRA.SOLV.lig_0>
-19.4148

>  <SCORE.INTRA.VDW>
-4.07354

>  <SCORE.INTRA.VDW.0>
5.42093

>  <SCORE.INTRA.norm>
0.103908

>  <SCORE.RESTR>
0.114988

>  <SCORE.RESTR.CAVITY>
0.114988

>  <SCORE.RESTR.norm>
0.00425883

>  <SCORE.SYSTEM>
0

>  <SCORE.SYSTEM.CONST>
0

>  <SCORE.SYSTEM.DIHEDRAL>
0

>  <SCORE.SYSTEM.SOLV>
0

>  <SCORE.SYSTEM.norm>
0

>  <SCORE.heavy>
27

>  <SCORE.norm>
-0.43866

>  <RMSD>
19.118

$$$$
lig.pdb
 OpenBabel11021811523D
libRbt.so/2013.1/901 2013/11/27
 27 30  0  0  0  0  0  0  0  0999 V2000
   15.5385   25.6247   12.6776 N   0  0  0  0  0  0  0  0  0  0  0  0
   16.5310   26.1343   13.3643 C   0  0  0  0  0  0  0  0  0  0  0  0
   17.5301   26.8882   12.8404 N   0  0  0  0  0  0  0  0  0  0  0  0
   17.4921   27.1903   11.5083 C   0  0  0  0  0  0  0  0  0  0  0  0
   16.4782   26.7247   10.7211 C   0  0  0  0  0  0  0  0  0  0  0  0
   15.4581   25.8913   11.3114 C   0  0  0  0  0  0  0  0  0  0  0  0
   14.5384   25.3896   10.6531 O   0  0  0  0  0  0  0  0  0  0  0  0
   16.7871   25.7806   14.8458 C   0  0  2  0  0  0  0  0  0  0  0  0
   15.3837   25.9257   15.4566 C   0  0  0  0  0  0  0  0  0  0  0  0
   15.4210   25.8755   16.9193 N   0  0  0  0  0  0  0  0  0  0  0  0
   16.2153   27.0092   17.4191 C   0  0  0  0  0  0  0  0  0  0  0  0
   17.6530   26.9086   16.9490 C   0  0  0  0  0  0  0  0  0  0  0  0
   17.7274   26.8486   15.4296 C   0  0  0  0  0  0  0  0  0  0  0  0
   18.6024   28.0393   11.0979 C   0  0  0  0  0  0  0  0  0  0  0  0
   18.3873   29.7244   10.7989 S   0  0  0  0  0  0  0  0  0  0  0  0
   19.9999   29.9198   10.3837 C   0  0  0  0  0  0  0  0  0  0  0  0
   20.6906   28.7795   10.5093 C   0  0  0  0  0  0  0  0  0  0  0  0
   19.9016   27.6843   10.9118 C   0  0  0  0  0  0  0  0  0  0  0  0
   14.0694   25.8984   17.5058 C   0  0  0  0  0  0  0  0  0  0  0  0
   13.3133   27.1999   17.3586 C   0  0  0  0  0  0  0  0  0  0  0  0
   13.4791   28.2318   18.2710 C   0  0  0  0  0  0  0  0  0  0  0  0
   12.6161   29.2519   18.4277 N   0  0  0  0  0  0  0  0  0  0  0  0
   11.5441   29.1804   17.6530 C   0  0  0  0  0  0  0  0  0  0  0  0
   11.2277   28.2458   16.7709 N   0  0  0  0  0  0  0  0  0  0  0  0
   12.1227   27.2527   16.6635 C   0  0  0  0  0  0  0  0  0  0  0  0
   10.6839   30.1918   17.8180 O   0  0  0  0  0  0  0  0  0  0  0  0
    9.4451   29.9050   18.4775 C   0  0  0  0  0  0  0  0  0  0  0  0
  1  2  2  0  0  0  0
  1  6  1  0  0  0  0
  2  3  1  0  0  0  0
  3  4  2  0  0  0  0
  4 14  1  0  0  0  0
  5  4  1  0  0  0  0
  6  5  1  0  0  0  0
  7  6  2  0  0  0  0
  8  9  1  0  0  0  0
  8  2  1  6  0  0  0
 10 19  1  0  0  0  0
 10  9  1  0  0  0  0
 11 10  1  0  0  0  0
 12 11  1  0  0  0  0
 12 13  1  0  0  0  0
 13  8  1  0  0  0  0
 14 15  1  0  0  0  0
 14 18  2  0  0  0  0
 15 16  1  0  0  0  0
 16 17  2  0  0  0  0
 18 17  1  0  0  0  0
 19 20  1  0  0  0  0
 20 25  2  0  0  0  0
 20 21  1  0  0  0  0
 21 22  2  0  0  0  0
 22 23  1  0  0  0  0
 23 26  1  0  0  0  0
 24 23  2  0  0  0  0
 25 24  1  0  0  0  0
 26 27  1  0  0  0  0
M  END
>  <CHROM.1>
-103.84263033,-47.27993427,-68.86404002,-85.54122649,-108.22966323,15.57681357
27.58481782,14.41787091,-0.56371234,-0.61213798,2.24374270

>  <Name>
lig.pdb

>  <RI>
0

>  <Rbt.Current_Directory>
/home/itssahil/PROJECTS/Mol_Feturizer/New_Systems/rnas/5kx9

>  <Rbt.Executable>
rbdock ($Id: //depot/dev/client3/rdock/2013.1/src/exe/rbdock.cxx#4 $)

>  <Rbt.Library>
libRbt.so (2013.1, Build901 2013/11/27)

>  <Rbt.Parameter_File>
/export/apps/rDock/src/rDock_2013.1_src/data/scripts/dock_solv.prm

>  <Rbt.Receptor>
prm/blind_docking_40.prm

>  <SCORE>
-12.4116

>  <SCORE.INTER>
-14.6389

>  <SCORE.INTER.CONST>
1

>  <SCORE.INTER.POLAR>
0

>  <SCORE.INTER.ROT>
5

>  <SCORE.INTER.SOLV>
15.764

>  <SCORE.INTER.VDW>
-21.9473

>  <SCORE.INTER.norm>
-0.542182

>  <SCORE.INTRA>
2.10885

>  <SCORE.INTRA.DIHEDRAL>
13.7378

>  <SCORE.INTRA.DIHEDRAL.0>
2.68224

>  <SCORE.INTRA.POLAR>
0

>  <SCORE.INTRA.POLAR.0>
0

>  <SCORE.INTRA.REPUL>
0

>  <SCORE.INTRA.REPUL.0>
0

>  <SCORE.INTRA.SOLV>
-0.65697

>  <SCORE.INTRA.SOLV.lig_0>
-19.4148

>  <SCORE.INTRA.VDW>
-4.43156

>  <SCORE.INTRA.VDW.0>
5.42093

>  <SCORE.INTRA.norm>
0.0781056

>  <SCORE.RESTR>
0.118426

>  <SCORE.RESTR.CAVITY>
0.118426

>  <SCORE.RESTR.norm>
0.00438615

>  <SCORE.SYSTEM>
0

>  <SCORE.SYSTEM.CONST>
0

>  <SCORE.SYSTEM.DIHEDRAL>
0

>  <SCORE.SYSTEM.SOLV>
0

>  <SCORE.SYSTEM.norm>
0

>  <SCORE.heavy>
27

>  <SCORE.norm>
-0.459691

>  <RMSD>
19.128

$$$$
lig.pdb
 OpenBabel11021811523D
libRbt.so/2013.1/901 2013/11/27
 27 30  0  0  0  0  0  0  0  0999 V2000
   15.3554   25.8907   11.9036 N   0  0  0  0  0  0  0  0  0  0  0  0
   16.4905   26.2332   12.4608 C   0  0  0  0  0  0  0  0  0  0  0  0
   17.4031   27.0722   11.9092 N   0  0  0  0  0  0  0  0  0  0  0  0
   17.1158   27.6513   10.7054 C   0  0  0  0  0  0  0  0  0  0  0  0
   15.9420   27.3734   10.0656 C   0  0  0  0  0  0  0  0  0  0  0  0
   15.0178   26.4428   10.6686 C   0  0  0  0  0  0  0  0  0  0  0  0
   13.9600   26.1012   10.1252 O   0  0  0  0  0  0  0  0  0  0  0  0
   17.0183   25.5698   13.7518 C   0  0  2  0  0  0  0  0  0  0  0  0
   16.6244   26.5984   14.8243 C   0  0  0  0  0  0  0  0  0  0  0  0
   17.2430   26.2985   16.1168 N   0  0  0  0  0  0  0  0  0  0  0  0
   18.7063   26.3759   15.9788 C   0  0  0  0  0  0  0  0  0  0  0  0
   19.2120   25.3281   15.0069 C   0  0  0  0  0  0  0  0  0  0  0  0
   18.5503   25.4828   13.6446 C   0  0  0  0  0  0  0  0  0  0  0  0
   18.1650   28.5581   10.2590 C   0  0  0  0  0  0  0  0  0  0  0  0
   19.5126   27.9964    9.3406 S   0  0  0  0  0  0  0  0  0  0  0  0
   20.1883   29.5295    9.2785 C   0  0  0  0  0  0  0  0  0  0  0  0
   19.4142   30.4422    9.8791 C   0  0  0  0  0  0  0  0  0  0  0  0
   18.2491   29.9007   10.4563 C   0  0  0  0  0  0  0  0  0  0  0  0
   16.7789   27.2127   17.1750 C   0  0  0  0  0  0  0  0  0  0  0  0
   15.2926   27.1909   17.4543 C   0  0  0  0  0  0  0  0  0  0  0  0
   14.4660   26.2481   16.8606 C   0  0  0  0  0  0  0  0  0  0  0  0
   13.1292   26.3648   16.7637 N   0  0  0  0  0  0  0  0  0  0  0  0
   12.6456   27.4955   17.2558 C   0  0  0  0  0  0  0  0  0  0  0  0
   13.3054   28.4993   17.8113 N   0  0  0  0  0  0  0  0  0  0  0  0
   14.6341   28.3281   17.8743 C   0  0  0  0  0  0  0  0  0  0  0  0
   11.3170   27.6119   17.1497 O   0  0  0  0  0  0  0  0  0  0  0  0
   10.7607   27.6563   15.8305 C   0  0  0  0  0  0  0  0  0  0  0  0
  1  2  2  0  0  0  0
  1  6  1  0  0  0  0
  2  3  1  0  0  0  0
  3  4  2  0  0  0  0
  4 14  1  0  0  0  0
  5  4  1  0  0  0  0
  6  5  1  0  0  0  0
  7  6  2  0  0  0  0
  8  9  1  0  0  0  0
  8  2  1  6  0  0  0
 10 19  1  0  0  0  0
 10  9  1  0  0  0  0
 11 10  1  0  0  0  0
 12 11  1  0  0  0  0
 12 13  1  0  0  0  0
 13  8  1  0  0  0  0
 14 15  1  0  0  0  0
 14 18  2  0  0  0  0
 15 16  1  0  0  0  0
 16 17  2  0  0  0  0
 18 17  1  0  0  0  0
 19 20  1  0  0  0  0
 20 25  2  0  0  0  0
 20 21  1  0  0  0  0
 21 22  2  0  0  0  0
 22 23  1  0  0  0  0
 23 26  1  0  0  0  0
 24 23  2  0  0  0  0
 25 24  1  0  0  0  0
 26 27  1  0  0  0  0
M  END
>  <CHROM.1>
87.57731952,-99.59801925,60.52986139,7.65319705,-63.47193817,16.26726536
27.25384971,13.55205327,0.94892848,0.04021487,-1.40742973

>  <Name>
lig.pdb

>  <RI>
0

>  <Rbt.Current_Directory>
/home/itssahil/PROJECTS/Mol_Feturizer/New_Systems/rnas/5kx9

>  <Rbt.Executable>
rbdock ($Id: //depot/dev/client3/rdock/2013.1/src/exe/rbdock.cxx#4 $)

>  <Rbt.Library>
libRbt.so (2013.1, Build901 2013/11/27)

>  <Rbt.Parameter_File>
/export/apps/rDock/src/rDock_2013.1_src/data/scripts/dock_solv.prm

>  <Rbt.Receptor>
prm/blind_docking_40.prm

>  <SCORE>
10.9524

>  <SCORE.INTER>
8.34477

>  <SCORE.INTER.CONST>
1

>  <SCORE.INTER.POLAR>
0

>  <SCORE.INTER.ROT>
5

>  <SCORE.INTER.SOLV>
23.3323

>  <SCORE.INTER.VDW>
-9.1476

>  <SCORE.INTER.norm>
0.309065

>  <SCORE.INTRA>
2.03714

>  <SCORE.INTRA.DIHEDRAL>
14.1287

>  <SCORE.INTRA.DIHEDRAL.0>
2.68224

>  <SCORE.INTRA.POLAR>
0

>  <SCORE.INTRA.POLAR.0>
0

>  <SCORE.INTRA.REPUL>
0

>  <SCORE.INTRA.REPUL.0>
0

>  <SCORE.INTRA.SOLV>
-0.49219

>  <SCORE.INTRA.SOLV.lig_0>
-19.4148

>  <SCORE.INTRA.VDW>
-4.78113

>  <SCORE.INTRA.VDW.0>
5.42093

>  <SCORE.INTRA.norm>
0.0754498

>  <SCORE.RESTR>
0.570528

>  <SCORE.RESTR.CAVITY>
0.570528

>  <SCORE.RESTR.norm>
0.0211307

>  <SCORE.SYSTEM>
0

>  <SCORE.SYSTEM.CONST>
0

>  <SCORE.SYSTEM.DIHEDRAL>
0

>  <SCORE.SYSTEM.SOLV>
0

>  <SCORE.SYSTEM.norm>
0

>  <SCORE.heavy>
27

>  <SCORE.norm>
0.405646

>  <RMSD>
19.181

$$$$
lig.pdb
 OpenBabel11021811523D
libRbt.so/2013.1/901 2013/11/27
 27 30  0  0  0  0  0  0  0  0999 V2000
   16.6850   25.9783   15.3430 N   0  0  0  0  0  0  0  0  0  0  0  0
   15.4406   25.8602   14.9508 C   0  0  0  0  0  0  0  0  0  0  0  0
   14.3599   26.2544   15.6704 N   0  0  0  0  0  0  0  0  0  0  0  0
   14.5639   26.8657   16.8754 C   0  0  0  0  0  0  0  0  0  0  0  0
   15.8299   27.0560   17.3500 C   0  0  0  0  0  0  0  0  0  0  0  0
   16.9495   26.5836   16.5708 C   0  0  0  0  0  0  0  0  0  0  0  0
   18.1212   26.6725   16.9583 O   0  0  0  0  0  0  0  0  0  0  0  0
   15.0380   25.0790   13.6807 C   0  0  2  0  0  0  0  0  0  0  0  0
   16.2675   25.2781   12.7795 C   0  0  0  0  0  0  0  0  0  0  0  0
   16.0154   24.8254   11.4103 N   0  0  0  0  0  0  0  0  0  0  0  0
   14.9330   25.6350   10.8279 C   0  0  0  0  0  0  0  0  0  0  0  0
   13.6392   25.4342   11.5920 C   0  0  0  0  0  0  0  0  0  0  0  0
   13.8155   25.7797   13.0641 C   0  0  0  0  0  0  0  0  0  0  0  0
   13.3180   27.2712   17.5122 C   0  0  0  0  0  0  0  0  0  0  0  0
   11.8447   27.3839   16.6223 S   0  0  0  0  0  0  0  0  0  0  0  0
   10.9954   27.8967   17.9738 C   0  0  0  0  0  0  0  0  0  0  0  0
   11.7695   27.9374   19.0656 C   0  0  0  0  0  0  0  0  0  0  0  0
   13.1114   27.5882   18.8180 C   0  0  0  0  0  0  0  0  0  0  0  0
   17.2244   24.9068   10.5718 C   0  0  0  0  0  0  0  0  0  0  0  0
   17.6982   26.3040   10.2391 C   0  0  0  0  0  0  0  0  0  0  0  0
   18.9361   26.5195    9.6510 C   0  0  0  0  0  0  0  0  0  0  0  0
   19.5786   27.7015    9.6472 N   0  0  0  0  0  0  0  0  0  0  0  0
   18.9453   28.6662   10.2973 C   0  0  0  0  0  0  0  0  0  0  0  0
   17.7889   28.6045   10.9379 N   0  0  0  0  0  0  0  0  0  0  0  0
   17.1992   27.4001   10.9120 C   0  0  0  0  0  0  0  0  0  0  0  0
   19.5916   29.8377   10.2990 O   0  0  0  0  0  0  0  0  0  0  0  0
   20.1419   30.2873   11.5427 C   0  0  0  0  0  0  0  0  0  0  0  0
  1  2  2  0  0  0  0
  1  6  1  0  0  0  0
  2  3  1  0  0  0  0
  3  4  2  0  0  0  0
  4 14  1  0  0  0  0
  5  4  1  0  0  0  0
  6  5  1  0  0  0  0
  7  6  2  0  0  0  0
  8  9  1  0  0  0  0
  8  2  1  1  0  0  0
 10 19  1  0  0  0  0
 10  9  1  0  0  0  0
 11 10  1  0  0  0  0
 12 11  1  0  0  0  0
 12 13  1  0  0  0  0
 13  8  1  0  0  0  0
 14 15  1  0  0  0  0
 14 18  2  0  0  0  0
 15 16  1  0  0  0  0
 16 17  2  0  0  0  0
 18 17  1  0  0  0  0
 19 20  1  0  0  0  0
 20 25  2  0  0  0  0
 20 21  1  0  0  0  0
 21 22  2  0  0  0  0
 22 23  1  0  0  0  0
 23 26  1  0  0  0  0
 24 23  2  0  0  0  0
 25 24  1  0  0  0  0
 26 27  1  0  0  0  0
M  END
>  <CHROM.1>
-16.95805206,-30.71413252,-69.27643471,169.20379862,-110.45027532,15.78296408
26.91684448,13.83441400,-2.35494768,-0.50959329,-1.96475482

>  <Name>
lig.pdb

>  <RI>
0

>  <Rbt.Current_Directory>
/home/itssahil/PROJECTS/Mol_Feturizer/New_Systems/rnas/5kx9

>  <Rbt.Executable>
rbdock ($Id: //depot/dev/client3/rdock/2013.1/src/exe/rbdock.cxx#4 $)

>  <Rbt.Library>
libRbt.so (2013.1, Build901 2013/11/27)

>  <Rbt.Parameter_File>
/export/apps/rDock/src/rDock_2013.1_src/data/scripts/dock_solv.prm

>  <Rbt.Receptor>
prm/blind_docking_40.prm

>  <SCORE>
0.0175242

>  <SCORE.INTER>
-1.57342

>  <SCORE.INTER.CONST>
1

>  <SCORE.INTER.POLAR>
0

>  <SCORE.INTER.ROT>
5

>  <SCORE.INTER.SOLV>
15.4837

>  <SCORE.INTER.VDW>
-13.1435

>  <SCORE.INTER.norm>
-0.0582749

>  <SCORE.INTRA>
-0.472227

>  <SCORE.INTRA.DIHEDRAL>
4.31408

>  <SCORE.INTRA.DIHEDRAL.0>
2.68224

>  <SCORE.INTRA.POLAR>
0

>  <SCORE.INTRA.POLAR.0>
0

>  <SCORE.INTRA.REPUL>
0

>  <SCORE.INTRA.REPUL.0>
0

>  <SCORE.INTRA.SOLV>
-0.302093

>  <SCORE.INTRA.SOLV.lig_0>
-19.4148

>  <SCORE.INTRA.VDW>
-2.47822

>  <SCORE.INTRA.VDW.0>
5.42093

>  <SCORE.INTRA.norm>
-0.0174899

>  <SCORE.RESTR>
2.06317

>  <SCORE.RESTR.CAVITY>
2.06317

>  <SCORE.RESTR.norm>
0.0764138

>  <SCORE.SYSTEM>
0

>  <SCORE.SYSTEM.CONST>
0

>  <SCORE.SYSTEM.DIHEDRAL>
0

>  <SCORE.SYSTEM.SOLV>
0

>  <SCORE.SYSTEM.norm>
0

>  <SCORE.heavy>
27

>  <SCORE.norm>
0.000649044

>  <RMSD>
19.188

$$$$
lig.pdb
 OpenBabel11021811523D
libRbt.so/2013.1/901 2013/11/27
 27 30  0  0  0  0  0  0  0  0999 V2000
   15.1324   26.6322   11.3775 N   0  0  0  0  0  0  0  0  0  0  0  0
   15.7458   26.4238   12.5162 C   0  0  0  0  0  0  0  0  0  0  0  0
   17.0355   26.7567   12.7746 N   0  0  0  0  0  0  0  0  0  0  0  0
   17.7517   27.4008   11.8054 C   0  0  0  0  0  0  0  0  0  0  0  0
   17.1830   27.6841   10.5969 C   0  0  0  0  0  0  0  0  0  0  0  0
   15.8210   27.2749   10.3495 C   0  0  0  0  0  0  0  0  0  0  0  0
   15.2554   27.4491    9.2629 O   0  0  0  0  0  0  0  0  0  0  0  0
   15.1201   25.5957   13.6600 C   0  0  2  0  0  0  0  0  0  0  0  0
   15.1945   26.5757   14.8422 C   0  0  0  0  0  0  0  0  0  0  0  0
   14.8772   25.9192   16.1117 N   0  0  0  0  0  0  0  0  0  0  0  0
   15.8759   24.8702   16.3731 C   0  0  0  0  0  0  0  0  0  0  0  0
   15.8187   23.7941   15.3069 C   0  0  0  0  0  0  0  0  0  0  0  0
   16.0345   24.3868   13.9213 C   0  0  0  0  0  0  0  0  0  0  0  0
   19.1025   27.7323   12.2387 C   0  0  0  0  0  0  0  0  0  0  0  0
   19.7250   27.1846   13.7512 S   0  0  0  0  0  0  0  0  0  0  0  0
   21.1884   27.9638   13.5014 C   0  0  0  0  0  0  0  0  0  0  0  0
   21.2340   28.5729   12.3098 C   0  0  0  0  0  0  0  0  0  0  0  0
   20.0397   28.4573   11.5720 C   0  0  0  0  0  0  0  0  0  0  0  0
   14.8342   26.8764   17.2312 C   0  0  0  0  0  0  0  0  0  0  0  0
   13.6474   27.8138   17.2465 C   0  0  0  0  0  0  0  0  0  0  0  0
   13.6240   28.9263   18.0750 C   0  0  0  0  0  0  0  0  0  0  0  0
   12.5075   29.5950   18.4158 N   0  0  0  0  0  0  0  0  0  0  0  0
   11.3926   29.0787   17.9208 C   0  0  0  0  0  0  0  0  0  0  0  0
   11.2510   28.0079   17.1560 N   0  0  0  0  0  0  0  0  0  0  0  0
   12.3975   27.3804   16.8550 C   0  0  0  0  0  0  0  0  0  0  0  0
   10.2836   29.7412   18.2691 O   0  0  0  0  0  0  0  0  0  0  0  0
    9.1262   29.5734   17.4421 C   0  0  0  0  0  0  0  0  0  0  0  0
  1  2  2  0  0  0  0
  1  6  1  0  0  0  0
  2  3  1  0  0  0  0
  3  4  2  0  0  0  0
  4 14  1  0  0  0  0
  5  4  1  0  0  0  0
  6  5  1  0  0  0  0
  7  6  2  0  0  0  0
  8  9  1  0  0  0  0
  8  2  1  6  0  0  0
 10 19  1  0  0  0  0
 10  9  1  0  0  0  0
 11 10  1  0  0  0  0
 12 11  1  0  0  0  0
 12 13  1  0  0  0  0
 13  8  1  0  0  0  0
 14 15  1  0  0  0  0
 14 18  2  0  0  0  0
 15 16  1  0  0  0  0
 16 17  2  0  0  0  0
 18 17  1  0  0  0  0
 19 20  1  0  0  0  0
 20 25  2  0  0  0  0
 20 21  1  0  0  0  0
 21 22  2  0  0  0  0
 22 23  1  0  0  0  0
 23 26  1  0  0  0  0
 24 23  2  0  0  0  0
 25 24  1  0  0  0  0
 26 27  1  0  0  0  0
M  END
>  <CHROM.1>
6.45010110,-125.42153134,71.80271760,-166.78748068,158.44115450,15.57631723
27.31634277,14.47080664,0.66696171,0.12485051,-1.62732079

>  <Name>
lig.pdb

>  <RI>
0

>  <Rbt.Current_Directory>
/home/itssahil/PROJECTS/Mol_Feturizer/New_Systems/rnas/5kx9

>  <Rbt.Executable>
rbdock ($Id: //depot/dev/client3/rdock/2013.1/src/exe/rbdock.cxx#4 $)

>  <Rbt.Library>
libRbt.so (2013.1, Build901 2013/11/27)

>  <Rbt.Parameter_File>
/export/apps/rDock/src/rDock_2013.1_src/data/scripts/dock_solv.prm

>  <Rbt.Receptor>
prm/blind_docking_40.prm

>  <SCORE>
9.22219

>  <SCORE.INTER>
9.57668

>  <SCORE.INTER.CONST>
1

>  <SCORE.INTER.POLAR>
0

>  <SCORE.INTER.ROT>
5

>  <SCORE.INTER.SOLV>
15.9578

>  <SCORE.INTER.VDW>
-5.86815

>  <SCORE.INTER.norm>
0.354692

>  <SCORE.INTRA>
-4.33794

>  <SCORE.INTRA.DIHEDRAL>
0.497042

>  <SCORE.INTRA.DIHEDRAL.0>
2.68224

>  <SCORE.INTRA.POLAR>
0

>  <SCORE.INTRA.POLAR.0>
0

>  <SCORE.INTRA.REPUL>
0

>  <SCORE.INTRA.REPUL.0>
0

>  <SCORE.INTRA.SOLV>
-0.541115

>  <SCORE.INTRA.SOLV.lig_0>
-19.4148

>  <SCORE.INTRA.VDW>
-4.31591

>  <SCORE.INTRA.VDW.0>
5.42093

>  <SCORE.INTRA.norm>
-0.160665

>  <SCORE.RESTR>
3.98345

>  <SCORE.RESTR.CAVITY>
3.98345

>  <SCORE.RESTR.norm>
0.147535

>  <SCORE.SYSTEM>
0

>  <SCORE.SYSTEM.CONST>
0

>  <SCORE.SYSTEM.DIHEDRAL>
0

>  <SCORE.SYSTEM.SOLV>
0

>  <SCORE.SYSTEM.norm>
0

>  <SCORE.heavy>
27

>  <SCORE.norm>
0.341563

>  <RMSD>
19.194

$$$$
lig.pdb
 OpenBabel11021811523D
libRbt.so/2013.1/901 2013/11/27
 27 30  0  0  0  0  0  0  0  0999 V2000
   15.3829   25.8807   11.9358 N   0  0  0  0  0  0  0  0  0  0  0  0
   16.5142   26.2334   12.4943 C   0  0  0  0  0  0  0  0  0  0  0  0
   17.4235   27.0745   11.9403 N   0  0  0  0  0  0  0  0  0  0  0  0
   17.1363   27.6446   10.7322 C   0  0  0  0  0  0  0  0  0  0  0  0
   15.9661   27.3557   10.0906 C   0  0  0  0  0  0  0  0  0  0  0  0
   15.0458   26.4232   10.6965 C   0  0  0  0  0  0  0  0  0  0  0  0
   13.9917   26.0720   10.1521 O   0  0  0  0  0  0  0  0  0  0  0  0
   17.0422   25.5810   13.7909 C   0  0  2  0  0  0  0  0  0  0  0  0
   16.5427   26.5585   14.8672 C   0  0  0  0  0  0  0  0  0  0  0  0
   17.1363   26.2748   16.1750 N   0  0  0  0  0  0  0  0  0  0  0  0
   18.5947   26.4539   16.0901 C   0  0  0  0  0  0  0  0  0  0  0  0
   19.2035   25.4628   15.1178 C   0  0  0  0  0  0  0  0  0  0  0  0
   18.5792   25.6002   13.7361 C   0  0  0  0  0  0  0  0  0  0  0  0
   18.1813   28.5549   10.2834 C   0  0  0  0  0  0  0  0  0  0  0  0
   19.5262   27.9987    9.3576 S   0  0  0  0  0  0  0  0  0  0  0  0
   20.1980   29.5336    9.2963 C   0  0  0  0  0  0  0  0  0  0  0  0
   19.4244   30.4429    9.9026 C   0  0  0  0  0  0  0  0  0  0  0  0
   18.2631   29.8972   10.4837 C   0  0  0  0  0  0  0  0  0  0  0  0
   16.5751   27.1337   17.2327 C   0  0  0  0  0  0  0  0  0  0  0  0
   15.0656   27.1629   17.3208 C   0  0  0  0  0  0  0  0  0  0  0  0
   14.2898   26.2438   16.6294 C   0  0  0  0  0  0  0  0  0  0  0  0
   12.9808   26.4040   16.3631 N   0  0  0  0  0  0  0  0  0  0  0  0
   12.4769   27.5534   16.7867 C   0  0  0  0  0  0  0  0  0  0  0  0
   13.0942   28.5388   17.4187 N   0  0  0  0  0  0  0  0  0  0  0  0
   14.3977   28.3242   17.6506 C   0  0  0  0  0  0  0  0  0  0  0  0
   11.1772   27.7129   16.5122 O   0  0  0  0  0  0  0  0  0  0  0  0
   10.3951   28.4771   17.4374 C   0  0  0  0  0  0  0  0  0  0  0  0
  1  2  2  0  0  0  0
  1  6  1  0  0  0  0
  2  3  1  0  0  0  0
  3  4  2  0  0  0  0
  4 14  1  0  0  0  0
  5  4  1  0  0  0  0
  6  5  1  0  0  0  0
  7  6  2  0  0  0  0
  8  9  1  0  0  0  0
  8  2  1  6  0  0  0
 10 19  1  0  0  0  0
 10  9  1  0  0  0  0
 11 10  1  0  0  0  0
 12 11  1  0  0  0  0
 12 13  1  0  0  0  0
 13  8  1  0  0  0  0
 14 15  1  0  0  0  0
 14 18  2  0  0  0  0
 15 16  1  0  0  0  0
 16 17  2  0  0  0  0
 18 17  1  0  0  0  0
 19 20  1  0  0  0  0
 20 25  2  0  0  0  0
 20 21  1  0  0  0  0
 21 22  2  0  0  0  0
 22 23  1  0  0  0  0
 23 26  1  0  0  0  0
 24 23  2  0  0  0  0
 25 24  1  0  0  0  0
 26 27  1  0  0  0  0
M  END
>  <CHROM.1>
88.26059709,-95.35123667,51.67924281,12.14692739,148.28564203,16.19971569
27.29817915,13.55540483,0.90556299,0.10695187,-1.37735606

>  <Name>
lig.pdb

>  <RI>
0

>  <Rbt.Current_Directory>
/home/itssahil/PROJECTS/Mol_Feturizer/New_Systems/rnas/5kx9

>  <Rbt.Executable>
rbdock ($Id: //depot/dev/client3/rdock/2013.1/src/exe/rbdock.cxx#4 $)

>  <Rbt.Library>
libRbt.so (2013.1, Build901 2013/11/27)

>  <Rbt.Parameter_File>
/export/apps/rDock/src/rDock_2013.1_src/data/scripts/dock_solv.prm

>  <Rbt.Receptor>
prm/blind_docking_40.prm

>  <SCORE>
8.78033

>  <SCORE.INTER>
5.65455

>  <SCORE.INTER.CONST>
1

>  <SCORE.INTER.POLAR>
0

>  <SCORE.INTER.ROT>
5

>  <SCORE.INTER.SOLV>
22.8461

>  <SCORE.INTER.VDW>
-10.779

>  <SCORE.INTER.norm>
0.209428

>  <SCORE.INTRA>
2.80643

>  <SCORE.INTRA.DIHEDRAL>
11.6883

>  <SCORE.INTRA.DIHEDRAL.0>
2.68224

>  <SCORE.INTRA.POLAR>
0

>  <SCORE.INTRA.POLAR.0>
0

>  <SCORE.INTRA.REPUL>
0

>  <SCORE.INTRA.REPUL.0>
0

>  <SCORE.INTRA.SOLV>
-0.45843

>  <SCORE.INTRA.SOLV.lig_0>
-19.4148

>  <SCORE.INTRA.VDW>
-2.80853

>  <SCORE.INTRA.VDW.0>
5.42093

>  <SCORE.INTRA.norm>
0.103942

>  <SCORE.RESTR>
0.31935

>  <SCORE.RESTR.CAVITY>
0.31935

>  <SCORE.RESTR.norm>
0.0118278

>  <SCORE.SYSTEM>
0

>  <SCORE.SYSTEM.CONST>
0

>  <SCORE.SYSTEM.DIHEDRAL>
0

>  <SCORE.SYSTEM.SOLV>
0

>  <SCORE.SYSTEM.norm>
0

>  <SCORE.heavy>
27

>  <SCORE.norm>
0.325198

>  <RMSD>
19.197

$$$$
lig.pdb
 OpenBabel11021811523D
libRbt.so/2013.1/901 2013/11/27
 27 30  0  0  0  0  0  0  0  0999 V2000
   16.3022   25.3987    9.8766 N   0  0  0  0  0  0  0  0  0  0  0  0
   16.5878   25.8132   11.0861 C   0  0  0  0  0  0  0  0  0  0  0  0
   17.5617   26.7079   11.3896 N   0  0  0  0  0  0  0  0  0  0  0  0
   18.2781   27.2664   10.3688 C   0  0  0  0  0  0  0  0  0  0  0  0
   18.0285   26.9139    9.0735 C   0  0  0  0  0  0  0  0  0  0  0  0
   17.0114   25.9270    8.7987 C   0  0  0  0  0  0  0  0  0  0  0  0
   16.7646   25.5184    7.6573 O   0  0  0  0  0  0  0  0  0  0  0  0
   15.9619   25.1859   12.3512 C   0  0  2  0  0  0  0  0  0  0  0  0
   16.3778   26.1850   13.4431 C   0  0  0  0  0  0  0  0  0  0  0  0
   16.1015   25.6684   14.7847 N   0  0  0  0  0  0  0  0  0  0  0  0
   16.8987   24.4509   15.0046 C   0  0  0  0  0  0  0  0  0  0  0  0
   16.4951   23.3599   14.0325 C   0  0  0  0  0  0  0  0  0  0  0  0
   16.6455   23.8293   12.5922 C   0  0  0  0  0  0  0  0  0  0  0  0
   19.2560   28.2375   10.8409 C   0  0  0  0  0  0  0  0  0  0  0  0
   19.7328   28.3059   12.4971 S   0  0  0  0  0  0  0  0  0  0  0  0
   20.7629   29.5975   12.2115 C   0  0  0  0  0  0  0  0  0  0  0  0
   20.7908   29.9385   10.9169 C   0  0  0  0  0  0  0  0  0  0  0  0
   19.9240   29.1721   10.1137 C   0  0  0  0  0  0  0  0  0  0  0  0
   16.3909   26.6663   15.8296 C   0  0  0  0  0  0  0  0  0  0  0  0
   15.3246   26.8337   16.8891 C   0  0  0  0  0  0  0  0  0  0  0  0
   14.1645   26.0733   16.8642 C   0  0  0  0  0  0  0  0  0  0  0  0
   13.0368   26.3881   17.5268 N   0  0  0  0  0  0  0  0  0  0  0  0
   13.1001   27.5300   18.1950 C   0  0  0  0  0  0  0  0  0  0  0  0
   14.1128   28.3778   18.2804 N   0  0  0  0  0  0  0  0  0  0  0  0
   15.2062   28.0133   17.5946 C   0  0  0  0  0  0  0  0  0  0  0  0
   11.9738   27.8441   18.8453 O   0  0  0  0  0  0  0  0  0  0  0  0
   12.1004   28.3560   20.1771 C   0  0  0  0  0  0  0  0  0  0  0  0
  1  2  2  0  0  0  0
  1  6  1  0  0  0  0
  2  3  1  0  0  0  0
  3  4  2  0  0  0  0
  4 14  1  0  0  0  0
  5  4  1  0  0  0  0
  6  5  1  0  0  0  0
  7  6  2  0  0  0  0
  8  9  1  0  0  0  0
  8  2  1  6  0  0  0
 10 19  1  0  0  0  0
 10  9  1  0  0  0  0
 11 10  1  0  0  0  0
 12 11  1  0  0  0  0
 12 13  1  0  0  0  0
 13  8  1  0  0  0  0
 14 15  1  0  0  0  0
 14 18  2  0  0  0  0
 15 16  1  0  0  0  0
 16 17  2  0  0  0  0
 18 17  1  0  0  0  0
 19 20  1  0  0  0  0
 20 25  2  0  0  0  0
 20 21  1  0  0  0  0
 21 22  2  0  0  0  0
 22 23  1  0  0  0  0
 23 26  1  0  0  0  0
 24 23  2  0  0  0  0
 25 24  1  0  0  0  0
 26 27  1  0  0  0  0
M  END
>  <CHROM.1>
16.19983990,-168.83402501,133.36876280,0.69836788,137.08373443,16.57307771
26.84913576,13.59570738,0.75513991,-0.74098903,-2.19367489

>  <Name>
lig.pdb

>  <RI>
0

>  <Rbt.Current_Directory>
/home/itssahil/PROJECTS/Mol_Feturizer/New_Systems/rnas/5kx9

>  <Rbt.Executable>
rbdock ($Id: //depot/dev/client3/rdock/2013.1/src/exe/rbdock.cxx#4 $)

>  <Rbt.Library>
libRbt.so (2013.1, Build901 2013/11/27)

>  <Rbt.Parameter_File>
/export/apps/rDock/src/rDock_2013.1_src/data/scripts/dock_solv.prm

>  <Rbt.Receptor>
prm/blind_docking_40.prm

>  <SCORE>
3.71175

>  <SCORE.INTER>
-0.3807

>  <SCORE.INTER.CONST>
1

>  <SCORE.INTER.POLAR>
0

>  <SCORE.INTER.ROT>
5

>  <SCORE.INTER.SOLV>
15.9766

>  <SCORE.INTER.VDW>
-12.5127

>  <SCORE.INTER.norm>
-0.0141

>  <SCORE.INTRA>
0.258861

>  <SCORE.INTRA.DIHEDRAL>
3.82063

>  <SCORE.INTRA.DIHEDRAL.0>
2.68224

>  <SCORE.INTRA.POLAR>
0

>  <SCORE.INTRA.POLAR.0>
0

>  <SCORE.INTRA.REPUL>
0

>  <SCORE.INTRA.REPUL.0>
0

>  <SCORE.INTRA.SOLV>
-0.422652

>  <SCORE.INTRA.SOLV.lig_0>
-19.4148

>  <SCORE.INTRA.VDW>
-1.44013

>  <SCORE.INTRA.VDW.0>
5.42093

>  <SCORE.INTRA.norm>
0.00958745

>  <SCORE.RESTR>
3.83359

>  <SCORE.RESTR.CAVITY>
3.83359

>  <SCORE.RESTR.norm>
0.141985

>  <SCORE.SYSTEM>
0

>  <SCORE.SYSTEM.CONST>
0

>  <SCORE.SYSTEM.DIHEDRAL>
0

>  <SCORE.SYSTEM.SOLV>
0

>  <SCORE.SYSTEM.norm>
0

>  <SCORE.heavy>
27

>  <SCORE.norm>
0.137472

>  <RMSD>
19.216

$$$$
lig.pdb
 OpenBabel11021811523D
libRbt.so/2013.1/901 2013/11/27
 27 30  0  0  0  0  0  0  0  0999 V2000
   15.4576   25.9969   11.7814 N   0  0  0  0  0  0  0  0  0  0  0  0
   16.6158   26.2633   12.3327 C   0  0  0  0  0  0  0  0  0  0  0  0
   17.5956   27.0057   11.7583 N   0  0  0  0  0  0  0  0  0  0  0  0
   17.3596   27.5662   10.5347 C   0  0  0  0  0  0  0  0  0  0  0  0
   16.1684   27.3645    9.8986 C   0  0  0  0  0  0  0  0  0  0  0  0
   15.1694   26.5335   10.5273 C   0  0  0  0  0  0  0  0  0  0  0  0
   14.0883   26.2621    9.9902 O   0  0  0  0  0  0  0  0  0  0  0  0
   17.0844   25.6020   13.6475 C   0  0  2  0  0  0  0  0  0  0  0  0
   16.6309   26.6265   14.7002 C   0  0  0  0  0  0  0  0  0  0  0  0
   17.1875   26.3293   16.0213 N   0  0  0  0  0  0  0  0  0  0  0  0
   18.6551   26.4174   15.9554 C   0  0  0  0  0  0  0  0  0  0  0  0
   19.2155   25.3745   15.0086 C   0  0  0  0  0  0  0  0  0  0  0  0
   18.6203   25.5262   13.6156 C   0  0  0  0  0  0  0  0  0  0  0  0
   18.4808   28.3684   10.0639 C   0  0  0  0  0  0  0  0  0  0  0  0
   18.6823   30.0110   10.5502 S   0  0  0  0  0  0  0  0  0  0  0  0
   20.0658   30.1818    9.6188 C   0  0  0  0  0  0  0  0  0  0  0  0
   20.3980   29.0406    9.0022 C   0  0  0  0  0  0  0  0  0  0  0  0
   19.4932   27.9876    9.2401 C   0  0  0  0  0  0  0  0  0  0  0  0
   16.6653   27.2389   17.0563 C   0  0  0  0  0  0  0  0  0  0  0  0
   15.1778   27.1514   17.3156 C   0  0  0  0  0  0  0  0  0  0  0  0
   14.3804   26.2567   16.6168 C   0  0  0  0  0  0  0  0  0  0  0  0
   13.0419   26.3504   16.5184 N   0  0  0  0  0  0  0  0  0  0  0  0
   12.5257   27.4106   17.1217 C   0  0  0  0  0  0  0  0  0  0  0  0
   13.1551   28.3659   17.7871 N   0  0  0  0  0  0  0  0  0  0  0  0
   14.4872   28.2214   17.8461 C   0  0  0  0  0  0  0  0  0  0  0  0
   11.1954   27.5051   17.0140 O   0  0  0  0  0  0  0  0  0  0  0  0
   10.6437   27.5939   15.6952 C   0  0  0  0  0  0  0  0  0  0  0  0
  1  2  2  0  0  0  0
  1  6  1  0  0  0  0
  2  3  1  0  0  0  0
  3  4  2  0  0  0  0
  4 14  1  0  0  0  0
  5  4  1  0  0  0  0
  6  5  1  0  0  0  0
  7  6  2  0  0  0  0
  8  9  1  0  0  0  0
  8  2  1  6  0  0  0
 10 19  1  0  0  0  0
 10  9  1  0  0  0  0
 11 10  1  0  0  0  0
 12 11  1  0  0  0  0
 12 13  1  0  0  0  0
 13  8  1  0  0  0  0
 14 15  1  0  0  0  0
 14 18  2  0  0  0  0
 15 16  1  0  0  0  0
 16 17  2  0  0  0  0
 18 17  1  0  0  0  0
 19 20  1  0  0  0  0
 20 25  2  0  0  0  0
 20 21  1  0  0  0  0
 21 22  2  0  0  0  0
 22 23  1  0  0  0  0
 23 26  1  0  0  0  0
 24 23  2  0  0  0  0
 25 24  1  0  0  0  0
 26 27  1  0  0  0  0
M  END
>  <CHROM.1>
-84.02033786,-93.52269067,63.77257419,0.44904704,-59.79249852,16.28345558
27.32437233,13.49570111,0.91809128,0.00963235,-1.38804498

>  <Name>
lig.pdb

>  <RI>
0

>  <Rbt.Current_Directory>
/home/itssahil/PROJECTS/Mol_Feturizer/New_Systems/rnas/5kx9

>  <Rbt.Executable>
rbdock ($Id: //depot/dev/client3/rdock/2013.1/src/exe/rbdock.cxx#4 $)

>  <Rbt.Library>
libRbt.so (2013.1, Build901 2013/11/27)

>  <Rbt.Parameter_File>
/export/apps/rDock/src/rDock_2013.1_src/data/scripts/dock_solv.prm

>  <Rbt.Receptor>
prm/blind_docking_40.prm

>  <SCORE>
7.53105

>  <SCORE.INTER>
3.80701

>  <SCORE.INTER.CONST>
1

>  <SCORE.INTER.POLAR>
0

>  <SCORE.INTER.ROT>
5

>  <SCORE.INTER.SOLV>
22.7324

>  <SCORE.INTER.VDW>
-11.9728

>  <SCORE.INTER.norm>
0.141

>  <SCORE.INTRA>
2.39535

>  <SCORE.INTRA.DIHEDRAL>
13.9774

>  <SCORE.INTRA.DIHEDRAL.0>
2.68224

>  <SCORE.INTRA.POLAR>
0

>  <SCORE.INTRA.POLAR.0>
0

>  <SCORE.INTRA.REPUL>
0

>  <SCORE.INTRA.REPUL.0>
0

>  <SCORE.INTRA.SOLV>
-0.504962

>  <SCORE.INTRA.SOLV.lig_0>
-19.4148

>  <SCORE.INTRA.VDW>
-4.34086

>  <SCORE.INTRA.VDW.0>
5.42093

>  <SCORE.INTRA.norm>
0.0887167

>  <SCORE.RESTR>
1.3287

>  <SCORE.RESTR.CAVITY>
1.3287

>  <SCORE.RESTR.norm>
0.049211

>  <SCORE.SYSTEM>
0

>  <SCORE.SYSTEM.CONST>
0

>  <SCORE.SYSTEM.DIHEDRAL>
0

>  <SCORE.SYSTEM.SOLV>
0

>  <SCORE.SYSTEM.norm>
0

>  <SCORE.heavy>
27

>  <SCORE.norm>
0.278928

>  <RMSD>
19.239

$$$$
lig.pdb
 OpenBabel11021811523D
libRbt.so/2013.1/901 2013/11/27
 27 30  0  0  0  0  0  0  0  0999 V2000
   18.3979   25.9565   15.0297 N   0  0  0  0  0  0  0  0  0  0  0  0
   17.2496   25.8574   14.4069 C   0  0  0  0  0  0  0  0  0  0  0  0
   17.0736   26.0305   13.0727 N   0  0  0  0  0  0  0  0  0  0  0  0
   18.1692   26.2802   12.2952 C   0  0  0  0  0  0  0  0  0  0  0  0
   19.4105   26.3720   12.8566 C   0  0  0  0  0  0  0  0  0  0  0  0
   19.5467   26.2225   14.2858 C   0  0  0  0  0  0  0  0  0  0  0  0
   20.6291   26.3446   14.8726 O   0  0  0  0  0  0  0  0  0  0  0  0
   15.9063   25.7094   15.1547 C   0  0  2  0  0  0  0  0  0  0  0  0
   15.9483   26.8999   16.1265 C   0  0  0  0  0  0  0  0  0  0  0  0
   14.8768   26.8260   17.1214 N   0  0  0  0  0  0  0  0  0  0  0  0
   15.0594   25.6135   17.9354 C   0  0  0  0  0  0  0  0  0  0  0  0
   14.9386   24.3674   17.0804 C   0  0  0  0  0  0  0  0  0  0  0  0
   15.9475   24.3878   15.9406 C   0  0  0  0  0  0  0  0  0  0  0  0
   17.8341   26.3999   10.8826 C   0  0  0  0  0  0  0  0  0  0  0  0
   16.2105   26.6537   10.3586 S   0  0  0  0  0  0  0  0  0  0  0  0
   16.6642   26.6432    8.7446 C   0  0  0  0  0  0  0  0  0  0  0  0
   17.9878   26.5043    8.5978 C   0  0  0  0  0  0  0  0  0  0  0  0
   18.6773   26.3549    9.8169 C   0  0  0  0  0  0  0  0  0  0  0  0
   14.8414   28.0211   17.9826 C   0  0  0  0  0  0  0  0  0  0  0  0
   13.5688   28.8361   17.9205 C   0  0  0  0  0  0  0  0  0  0  0  0
   13.1076   29.5296   19.0300 C   0  0  0  0  0  0  0  0  0  0  0  0
   11.8455   29.9718   19.1774 N   0  0  0  0  0  0  0  0  0  0  0  0
   11.0387   29.6559   18.1755 C   0  0  0  0  0  0  0  0  0  0  0  0
   11.3189   28.9701   17.0789 N   0  0  0  0  0  0  0  0  0  0  0  0
   12.5899   28.5510   16.9911 C   0  0  0  0  0  0  0  0  0  0  0  0
    9.7825   30.0896   18.3299 O   0  0  0  0  0  0  0  0  0  0  0  0
    8.7747   29.5065   17.4956 C   0  0  0  0  0  0  0  0  0  0  0  0
  1  2  2  0  0  0  0
  1  6  1  0  0  0  0
  2  3  1  0  0  0  0
  3  4  2  0  0  0  0
  4 14  1  0  0  0  0
  5  4  1  0  0  0  0
  6  5  1  0  0  0  0
  7  6  2  0  0  0  0
  8  9  1  0  0  0  0
  8  2  1  6  0  0  0
 10 19  1  0  0  0  0
 10  9  1  0  0  0  0
 11 10  1  0  0  0  0
 12 11  1  0  0  0  0
 12 13  1  0  0  0  0
 13  8  1  0  0  0  0
 14 15  1  0  0  0  0
 14 18  2  0  0  0  0
 15 16  1  0  0  0  0
 16 17  2  0  0  0  0
 18 17  1  0  0  0  0
 19 20  1  0  0  0  0
 20 25  2  0  0  0  0
 20 21  1  0  0  0  0
 21 22  2  0  0  0  0
 22 23  1  0  0  0  0
 23 26  1  0  0  0  0
 24 23  2  0  0  0  0
 25 24  1  0  0  0  0
 26 27  1  0  0  0  0
M  END
>  <CHROM.1>
16.49739285,53.03908229,118.49202744,148.36890741,-163.84034106,15.44425654
27.12276561,14.91018715,-0.73461722,-0.46397784,1.63920867

>  <Name>
lig.pdb

>  <RI>
0

>  <Rbt.Current_Directory>
/home/itssahil/PROJECTS/Mol_Feturizer/New_Systems/rnas/5kx9

>  <Rbt.Executable>
rbdock ($Id: //depot/dev/client3/rdock/2013.1/src/exe/rbdock.cxx#4 $)

>  <Rbt.Library>
libRbt.so (2013.1, Build901 2013/11/27)

>  <Rbt.Parameter_File>
/export/apps/rDock/src/rDock_2013.1_src/data/scripts/dock_solv.prm

>  <Rbt.Receptor>
prm/blind_docking_40.prm

>  <SCORE>
-1.30504

>  <SCORE.INTER>
-0.200039

>  <SCORE.INTER.CONST>
1

>  <SCORE.INTER.POLAR>
0

>  <SCORE.INTER.ROT>
5

>  <SCORE.INTER.SOLV>
21.5186

>  <SCORE.INTER.VDW>
-14.2396

>  <SCORE.INTER.norm>
-0.00740886

>  <SCORE.INTRA>
-3.63354

>  <SCORE.INTRA.DIHEDRAL>
2.34569

>  <SCORE.INTRA.DIHEDRAL.0>
2.68224

>  <SCORE.INTRA.POLAR>
0

>  <SCORE.INTRA.POLAR.0>
0

>  <SCORE.INTRA.REPUL>
0

>  <SCORE.INTRA.REPUL.0>
0

>  <SCORE.INTRA.SOLV>
-0.503842

>  <SCORE.INTRA.SOLV.lig_0>
-19.4148

>  <SCORE.INTRA.VDW>
-4.55447

>  <SCORE.INTRA.VDW.0>
5.42093

>  <SCORE.INTRA.norm>
-0.134576

>  <SCORE.RESTR>
2.52854

>  <SCORE.RESTR.CAVITY>
2.52854

>  <SCORE.RESTR.norm>
0.0936498

>  <SCORE.SYSTEM>
0

>  <SCORE.SYSTEM.CONST>
0

>  <SCORE.SYSTEM.DIHEDRAL>
0

>  <SCORE.SYSTEM.SOLV>
0

>  <SCORE.SYSTEM.norm>
0

>  <SCORE.heavy>
27

>  <SCORE.norm>
-0.0483347

>  <RMSD>
19.262

$$$$
lig.pdb
 OpenBabel11021811523D
libRbt.so/2013.1/901 2013/11/27
 27 30  0  0  0  0  0  0  0  0999 V2000
   18.4358   26.0373   14.9535 N   0  0  0  0  0  0  0  0  0  0  0  0
   17.2845   25.9232   14.3388 C   0  0  0  0  0  0  0  0  0  0  0  0
   17.1026   26.0605   13.0012 N   0  0  0  0  0  0  0  0  0  0  0  0
   18.1949   26.2877   12.2124 C   0  0  0  0  0  0  0  0  0  0  0  0
   19.4389   26.3929   12.7653 C   0  0  0  0  0  0  0  0  0  0  0  0
   19.5815   26.2817   14.1975 C   0  0  0  0  0  0  0  0  0  0  0  0
   20.6667   26.4181   14.7758 O   0  0  0  0  0  0  0  0  0  0  0  0
   15.9445   25.7972   15.0965 C   0  0  2  0  0  0  0  0  0  0  0  0
   16.0310   26.9625   16.0955 C   0  0  0  0  0  0  0  0  0  0  0  0
   14.9672   26.8967   17.0991 N   0  0  0  0  0  0  0  0  0  0  0  0
   15.1212   25.6603   17.8826 C   0  0  0  0  0  0  0  0  0  0  0  0
   14.9554   24.4390   16.9999 C   0  0  0  0  0  0  0  0  0  0  0  0
   15.9537   24.4567   15.8507 C   0  0  0  0  0  0  0  0  0  0  0  0
   17.8535   26.3698   10.7985 C   0  0  0  0  0  0  0  0  0  0  0  0
   16.2249   26.5904   10.2748 S   0  0  0  0  0  0  0  0  0  0  0  0
   16.6731   26.5477    8.6598 C   0  0  0  0  0  0  0  0  0  0  0  0
   17.9979   26.4223    8.5114 C   0  0  0  0  0  0  0  0  0  0  0  0
   18.6934   26.3106    9.7311 C   0  0  0  0  0  0  0  0  0  0  0  0
   14.9755   28.0715   17.9885 C   0  0  0  0  0  0  0  0  0  0  0  0
   13.6192   28.5448   18.4615 C   0  0  0  0  0  0  0  0  0  0  0  0
   12.5573   27.6614   18.5909 C   0  0  0  0  0  0  0  0  0  0  0  0
   11.2656   28.0321   18.6536 N   0  0  0  0  0  0  0  0  0  0  0  0
   11.0687   29.3371   18.5414 C   0  0  0  0  0  0  0  0  0  0  0  0
   11.9685   30.2930   18.3735 N   0  0  0  0  0  0  0  0  0  0  0  0
   13.2371   29.8621   18.3125 C   0  0  0  0  0  0  0  0  0  0  0  0
    9.7824   29.7010   18.5953 O   0  0  0  0  0  0  0  0  0  0  0  0
    8.9867   29.4922   17.4227 C   0  0  0  0  0  0  0  0  0  0  0  0
  1  2  2  0  0  0  0
  1  6  1  0  0  0  0
  2  3  1  0  0  0  0
  3  4  2  0  0  0  0
  4 14  1  0  0  0  0
  5  4  1  0  0  0  0
  6  5  1  0  0  0  0
  7  6  2  0  0  0  0
  8  9  1  0  0  0  0
  8  2  1  6  0  0  0
 10 19  1  0  0  0  0
 10  9  1  0  0  0  0
 11 10  1  0  0  0  0
 12 11  1  0  0  0  0
 12 13  1  0  0  0  0
 13  8  1  0  0  0  0
 14 15  1  0  0  0  0
 14 18  2  0  0  0  0
 15 16  1  0  0  0  0
 16 17  2  0  0  0  0
 18 17  1  0  0  0  0
 19 20  1  0  0  0  0
 20 25  2  0  0  0  0
 20 21  1  0  0  0  0
 21 22  2  0  0  0  0
 22 23  1  0  0  0  0
 23 26  1  0  0  0  0
 24 23  2  0  0  0  0
 25 24  1  0  0  0  0
 26 27  1  0  0  0  0
M  END
>  <CHROM.1>
15.66222790,49.70589563,145.63596222,28.33743126,-77.18685866,15.48759083
27.06023611,14.95441407,-0.77964797,-0.42978905,1.62760104

>  <Name>
lig.pdb

>  <RI>
0

>  <Rbt.Current_Directory>
/home/itssahil/PROJECTS/Mol_Feturizer/New_Systems/rnas/5kx9

>  <Rbt.Executable>
rbdock ($Id: //depot/dev/client3/rdock/2013.1/src/exe/rbdock.cxx#4 $)

>  <Rbt.Library>
libRbt.so (2013.1, Build901 2013/11/27)

>  <Rbt.Parameter_File>
/export/apps/rDock/src/rDock_2013.1_src/data/scripts/dock_solv.prm

>  <Rbt.Receptor>
prm/blind_docking_40.prm

>  <SCORE>
0.544632

>  <SCORE.INTER>
2.31026

>  <SCORE.INTER.CONST>
1

>  <SCORE.INTER.POLAR>
0

>  <SCORE.INTER.ROT>
5

>  <SCORE.INTER.SOLV>
20.7291

>  <SCORE.INTER.VDW>
-12.3029

>  <SCORE.INTER.norm>
0.0855652

>  <SCORE.INTRA>
-4.07453

>  <SCORE.INTRA.DIHEDRAL>
5.53444

>  <SCORE.INTRA.DIHEDRAL.0>
2.68224

>  <SCORE.INTRA.POLAR>
0

>  <SCORE.INTRA.POLAR.0>
0

>  <SCORE.INTRA.REPUL>
0

>  <SCORE.INTRA.REPUL.0>
0

>  <SCORE.INTRA.SOLV>
-0.504425

>  <SCORE.INTRA.SOLV.lig_0>
-19.4148

>  <SCORE.INTRA.VDW>
-6.58954

>  <SCORE.INTRA.VDW.0>
5.42093

>  <SCORE.INTRA.norm>
-0.150909

>  <SCORE.RESTR>
2.3089

>  <SCORE.RESTR.CAVITY>
2.3089

>  <SCORE.RESTR.norm>
0.085515

>  <SCORE.SYSTEM>
0

>  <SCORE.SYSTEM.CONST>
0

>  <SCORE.SYSTEM.DIHEDRAL>
0

>  <SCORE.SYSTEM.SOLV>
0

>  <SCORE.SYSTEM.norm>
0

>  <SCORE.heavy>
27

>  <SCORE.norm>
0.0201716

>  <RMSD>
19.270

$$$$
lig.pdb
 OpenBabel11021811523D
libRbt.so/2013.1/901 2013/11/27
 27 30  0  0  0  0  0  0  0  0999 V2000
   15.2909   26.8678   10.8869 N   0  0  0  0  0  0  0  0  0  0  0  0
   16.0443   26.4351   11.8675 C   0  0  0  0  0  0  0  0  0  0  0  0
   17.3647   26.7122   12.0113 N   0  0  0  0  0  0  0  0  0  0  0  0
   17.9620   27.5408   11.1036 C   0  0  0  0  0  0  0  0  0  0  0  0
   17.2454   28.0610   10.0643 C   0  0  0  0  0  0  0  0  0  0  0  0
   15.8529   27.7068    9.9256 C   0  0  0  0  0  0  0  0  0  0  0  0
   15.1529   28.0955    8.9823 O   0  0  0  0  0  0  0  0  0  0  0  0
   15.5554   25.3913   12.8956 C   0  0  2  0  0  0  0  0  0  0  0  0
   15.9079   26.0675   14.2305 C   0  0  0  0  0  0  0  0  0  0  0  0
   15.7572   25.1488   15.3603 N   0  0  0  0  0  0  0  0  0  0  0  0
   16.6968   24.0277   15.1970 C   0  0  0  0  0  0  0  0  0  0  0  0
   16.3727   23.2306   13.9488 C   0  0  0  0  0  0  0  0  0  0  0  0
   16.3991   24.1183   12.7123 C   0  0  0  0  0  0  0  0  0  0  0  0
   19.3660   27.7814   11.4086 C   0  0  0  0  0  0  0  0  0  0  0  0
   19.9422   29.3525   11.8267 S   0  0  0  0  0  0  0  0  0  0  0  0
   21.5191   28.8025   11.9748 C   0  0  0  0  0  0  0  0  0  0  0  0
   21.6102   27.4827   11.7680 C   0  0  0  0  0  0  0  0  0  0  0  0
   20.3825   26.8788   11.4332 C   0  0  0  0  0  0  0  0  0  0  0  0
   15.9821   25.8221   16.6515 C   0  0  0  0  0  0  0  0  0  0  0  0
   14.7897   26.5550   17.2247 C   0  0  0  0  0  0  0  0  0  0  0  0
   13.4941   26.1605   16.9241 C   0  0  0  0  0  0  0  0  0  0  0  0
   12.4078   26.9376   17.0851 N   0  0  0  0  0  0  0  0  0  0  0  0
   12.6732   28.1572   17.5285 C   0  0  0  0  0  0  0  0  0  0  0  0
   13.8500   28.6889   17.8183 N   0  0  0  0  0  0  0  0  0  0  0  0
   14.8949   27.8689   17.6323 C   0  0  0  0  0  0  0  0  0  0  0  0
   11.5914   28.9299   17.6789 O   0  0  0  0  0  0  0  0  0  0  0  0
   10.6082   28.5122   18.6331 C   0  0  0  0  0  0  0  0  0  0  0  0
  1  2  2  0  0  0  0
  1  6  1  0  0  0  0
  2  3  1  0  0  0  0
  3  4  2  0  0  0  0
  4 14  1  0  0  0  0
  5  4  1  0  0  0  0
  6  5  1  0  0  0  0
  7  6  2  0  0  0  0
  8  9  1  0  0  0  0
  8  2  1  6  0  0  0
 10 19  1  0  0  0  0
 10  9  1  0  0  0  0
 11 10  1  0  0  0  0
 12 11  1  0  0  0  0
 12 13  1  0  0  0  0
 13  8  1  0  0  0  0
 14 15  1  0  0  0  0
 14 18  2  0  0  0  0
 15 16  1  0  0  0  0
 16 17  2  0  0  0  0
 18 17  1  0  0  0  0
 19 20  1  0  0  0  0
 20 25  2  0  0  0  0
 20 21  1  0  0  0  0
 21 22  2  0  0  0  0
 22 23  1  0  0  0  0
 23 26  1  0  0  0  0
 24 23  2  0  0  0  0
 25 24  1  0  0  0  0
 26 27  1  0  0  0  0
M  END
>  <CHROM.1>
-115.35769674,-129.53517249,83.65125665,27.27842911,62.73897982,16.20996800
27.05626333,13.81449512,0.75270590,0.32025599,-1.19268090

>  <Name>
lig.pdb

>  <RI>
0

>  <Rbt.Current_Directory>
/home/itssahil/PROJECTS/Mol_Feturizer/New_Systems/rnas/5kx9

>  <Rbt.Executable>
rbdock ($Id: //depot/dev/client3/rdock/2013.1/src/exe/rbdock.cxx#4 $)

>  <Rbt.Library>
libRbt.so (2013.1, Build901 2013/11/27)

>  <Rbt.Parameter_File>
/export/apps/rDock/src/rDock_2013.1_src/data/scripts/dock_solv.prm

>  <Rbt.Receptor>
prm/blind_docking_40.prm

>  <SCORE>
4.21628

>  <SCORE.INTER>
0.73656

>  <SCORE.INTER.CONST>
1

>  <SCORE.INTER.POLAR>
0

>  <SCORE.INTER.ROT>
5

>  <SCORE.INTER.SOLV>
16.4004

>  <SCORE.INTER.VDW>
-11.9091

>  <SCORE.INTER.norm>
0.02728

>  <SCORE.INTRA>
-0.34842

>  <SCORE.INTRA.DIHEDRAL>
12.4225

>  <SCORE.INTRA.DIHEDRAL.0>
2.68224

>  <SCORE.INTRA.POLAR>
0

>  <SCORE.INTRA.POLAR.0>
0

>  <SCORE.INTRA.REPUL>
0

>  <SCORE.INTRA.REPUL.0>
0

>  <SCORE.INTRA.SOLV>
-0.55084

>  <SCORE.INTRA.SOLV.lig_0>
-19.4148

>  <SCORE.INTRA.VDW>
-6.28426

>  <SCORE.INTRA.VDW.0>
5.42093

>  <SCORE.INTRA.norm>
-0.0129044

>  <SCORE.RESTR>
3.82814

>  <SCORE.RESTR.CAVITY>
3.82814

>  <SCORE.RESTR.norm>
0.141783

>  <SCORE.SYSTEM>
0

>  <SCORE.SYSTEM.CONST>
0

>  <SCORE.SYSTEM.DIHEDRAL>
0

>  <SCORE.SYSTEM.SOLV>
0

>  <SCORE.SYSTEM.norm>
0

>  <SCORE.heavy>
27

>  <SCORE.norm>
0.156159

>  <RMSD>
19.277

$$$$
lig.pdb
 OpenBabel11021811523D
libRbt.so/2013.1/901 2013/11/27
 27 30  0  0  0  0  0  0  0  0999 V2000
   15.3642   25.3089   12.6144 N   0  0  0  0  0  0  0  0  0  0  0  0
   16.3602   25.9206   13.2062 C   0  0  0  0  0  0  0  0  0  0  0  0
   17.2694   26.7083   12.5787 N   0  0  0  0  0  0  0  0  0  0  0  0
   17.1265   26.9323   11.2384 C   0  0  0  0  0  0  0  0  0  0  0  0
   16.0999   26.3574   10.5456 C   0  0  0  0  0  0  0  0  0  0  0  0
   15.1794   25.4928   11.2447 C   0  0  0  0  0  0  0  0  0  0  0  0
   14.2572   24.8953   10.6761 O   0  0  0  0  0  0  0  0  0  0  0  0
   16.7332   25.6679   14.6836 C   0  0  2  0  0  0  0  0  0  0  0  0
   15.3771   25.8335   15.3888 C   0  0  0  0  0  0  0  0  0  0  0  0
   15.5249   25.8794   16.8446 N   0  0  0  0  0  0  0  0  0  0  0  0
   16.3332   27.0542   17.2089 C   0  0  0  0  0  0  0  0  0  0  0  0
   17.7332   26.9428   16.6382 C   0  0  0  0  0  0  0  0  0  0  0  0
   17.6946   26.7847   15.1245 C   0  0  0  0  0  0  0  0  0  0  0  0
   18.1470   27.8285   10.7115 C   0  0  0  0  0  0  0  0  0  0  0  0
   18.5459   29.3074   11.5047 S   0  0  0  0  0  0  0  0  0  0  0  0
   19.6783   29.7023   10.3331 C   0  0  0  0  0  0  0  0  0  0  0  0
   19.7937   28.7436    9.4055 C   0  0  0  0  0  0  0  0  0  0  0  0
   18.9148   27.6606    9.6021 C   0  0  0  0  0  0  0  0  0  0  0  0
   14.2209   25.9220   17.5295 C   0  0  0  0  0  0  0  0  0  0  0  0
   13.4964   27.2486   17.4771 C   0  0  0  0  0  0  0  0  0  0  0  0
   13.3974   28.0555   18.6013 C   0  0  0  0  0  0  0  0  0  0  0  0
   12.4985   29.0457   18.7475 N   0  0  0  0  0  0  0  0  0  0  0  0
   11.6632   29.1761   17.7278 C   0  0  0  0  0  0  0  0  0  0  0  0
   11.6066   28.4625   16.6147 N   0  0  0  0  0  0  0  0  0  0  0  0
   12.5231   27.4871   16.5288 C   0  0  0  0  0  0  0  0  0  0  0  0
   10.7651   30.1559   17.8808 O   0  0  0  0  0  0  0  0  0  0  0  0
    9.4418   29.7829   18.2826 C   0  0  0  0  0  0  0  0  0  0  0  0
  1  2  2  0  0  0  0
  1  6  1  0  0  0  0
  2  3  1  0  0  0  0
  3  4  2  0  0  0  0
  4 14  1  0  0  0  0
  5  4  1  0  0  0  0
  6  5  1  0  0  0  0
  7  6  2  0  0  0  0
  8  9  1  0  0  0  0
  8  2  1  6  0  0  0
 10 19  1  0  0  0  0
 10  9  1  0  0  0  0
 11 10  1  0  0  0  0
 12 11  1  0  0  0  0
 12 13  1  0  0  0  0
 13  8  1  0  0  0  0
 14 15  1  0  0  0  0
 14 18  2  0  0  0  0
 15 16  1  0  0  0  0
 16 17  2  0  0  0  0
 18 17  1  0  0  0  0
 19 20  1  0  0  0  0
 20 25  2  0  0  0  0
 20 21  1  0  0  0  0
 21 22  2  0  0  0  0
 22 23  1  0  0  0  0
 23 26  1  0  0  0  0
 24 23  2  0  0  0  0
 25 24  1  0  0  0  0
 26 27  1  0  0  0  0
M  END
>  <CHROM.1>
-47.22990082,-50.36997644,-74.94150996,-107.56408690,-100.88380407,15.48034251
27.44635106,14.32187874,0.32872790,-0.82134250,-2.81456811

>  <Name>
lig.pdb

>  <RI>
0

>  <Rbt.Current_Directory>
/home/itssahil/PROJECTS/Mol_Feturizer/New_Systems/rnas/5kx9

>  <Rbt.Executable>
rbdock ($Id: //depot/dev/client3/rdock/2013.1/src/exe/rbdock.cxx#4 $)

>  <Rbt.Library>
libRbt.so (2013.1, Build901 2013/11/27)

>  <Rbt.Parameter_File>
/export/apps/rDock/src/rDock_2013.1_src/data/scripts/dock_solv.prm

>  <Rbt.Receptor>
prm/blind_docking_40.prm

>  <SCORE>
-11.7744

>  <SCORE.INTER>
-12.5362

>  <SCORE.INTER.CONST>
1

>  <SCORE.INTER.POLAR>
0

>  <SCORE.INTER.ROT>
5

>  <SCORE.INTER.SOLV>
16.3031

>  <SCORE.INTER.VDW>
-20.7252

>  <SCORE.INTER.norm>
-0.464302

>  <SCORE.INTRA>
0.194522

>  <SCORE.INTRA.DIHEDRAL>
9.8303

>  <SCORE.INTRA.DIHEDRAL.0>
2.68224

>  <SCORE.INTRA.POLAR>
0

>  <SCORE.INTRA.POLAR.0>
0

>  <SCORE.INTRA.REPUL>
0

>  <SCORE.INTRA.REPUL.0>
0

>  <SCORE.INTRA.SOLV>
-0.647477

>  <SCORE.INTRA.SOLV.lig_0>
-19.4148

>  <SCORE.INTRA.VDW>
-4.39689

>  <SCORE.INTRA.VDW.0>
5.42093

>  <SCORE.INTRA.norm>
0.00720451

>  <SCORE.RESTR>
0.567228

>  <SCORE.RESTR.CAVITY>
0.567228

>  <SCORE.RESTR.norm>
0.0210085

>  <SCORE.SYSTEM>
0

>  <SCORE.SYSTEM.CONST>
0

>  <SCORE.SYSTEM.DIHEDRAL>
0

>  <SCORE.SYSTEM.SOLV>
0

>  <SCORE.SYSTEM.norm>
0

>  <SCORE.heavy>
27

>  <SCORE.norm>
-0.436089

>  <RMSD>
19.309

$$$$
lig.pdb
 OpenBabel11021811523D
libRbt.so/2013.1/901 2013/11/27
 27 30  0  0  0  0  0  0  0  0999 V2000
   15.4266   25.4513   12.5903 N   0  0  0  0  0  0  0  0  0  0  0  0
   16.3891   26.0648   13.2332 C   0  0  0  0  0  0  0  0  0  0  0  0
   17.2817   26.9149   12.6659 N   0  0  0  0  0  0  0  0  0  0  0  0
   17.1561   27.2036   11.3363 C   0  0  0  0  0  0  0  0  0  0  0  0
   16.1635   26.6310   10.5938 C   0  0  0  0  0  0  0  0  0  0  0  0
   15.2611   25.7000   11.2285 C   0  0  0  0  0  0  0  0  0  0  0  0
   14.3712   25.1020   10.6109 O   0  0  0  0  0  0  0  0  0  0  0  0
   16.7431   25.7482   14.7029 C   0  0  2  0  0  0  0  0  0  0  0  0
   15.3796   25.8916   15.3984 C   0  0  0  0  0  0  0  0  0  0  0  0
   15.5101   25.8755   16.8565 N   0  0  0  0  0  0  0  0  0  0  0  0
   16.3200   27.0294   17.2794 C   0  0  0  0  0  0  0  0  0  0  0  0
   17.7262   26.9341   16.7211 C   0  0  0  0  0  0  0  0  0  0  0  0
   17.7049   26.8400   15.2018 C   0  0  0  0  0  0  0  0  0  0  0  0
   18.1541   28.1604   10.8774 C   0  0  0  0  0  0  0  0  0  0  0  0
   19.2520   27.7782    9.6031 S   0  0  0  0  0  0  0  0  0  0  0  0
   20.0030   29.2727    9.7183 C   0  0  0  0  0  0  0  0  0  0  0  0
   19.4265   30.0526   10.6415 C   0  0  0  0  0  0  0  0  0  0  0  0
   18.3655   29.4269   11.3246 C   0  0  0  0  0  0  0  0  0  0  0  0
   14.1982   25.8967   17.5272 C   0  0  0  0  0  0  0  0  0  0  0  0
   13.4073   27.1773   17.3793 C   0  0  0  0  0  0  0  0  0  0  0  0
   13.3183   28.0887   18.4214 C   0  0  0  0  0  0  0  0  0  0  0  0
   12.3788   29.0473   18.5127 N   0  0  0  0  0  0  0  0  0  0  0  0
   11.4938   29.0362   17.5272 C   0  0  0  0  0  0  0  0  0  0  0  0
   11.4234   28.2117   16.4944 N   0  0  0  0  0  0  0  0  0  0  0  0
   12.3824   27.2746   16.4608 C   0  0  0  0  0  0  0  0  0  0  0  0
   10.5559   29.9852   17.6262 O   0  0  0  0  0  0  0  0  0  0  0  0
    9.1863   29.5680   17.5830 C   0  0  0  0  0  0  0  0  0  0  0  0
  1  2  2  0  0  0  0
  1  6  1  0  0  0  0
  2  3  1  0  0  0  0
  3  4  2  0  0  0  0
  4 14  1  0  0  0  0
  5  4  1  0  0  0  0
  6  5  1  0  0  0  0
  7  6  2  0  0  0  0
  8  9  1  0  0  0  0
  8  2  1  6  0  0  0
 10 19  1  0  0  0  0
 10  9  1  0  0  0  0
 11 10  1  0  0  0  0
 12 11  1  0  0  0  0
 12 13  1  0  0  0  0
 13  8  1  0  0  0  0
 14 15  1  0  0  0  0
 14 18  2  0  0  0  0
 15 16  1  0  0  0  0
 16 17  2  0  0  0  0
 18 17  1  0  0  0  0
 19 20  1  0  0  0  0
 20 25  2  0  0  0  0
 20 21  1  0  0  0  0
 21 22  2  0  0  0  0
 22 23  1  0  0  0  0
 23 26  1  0  0  0  0
 24 23  2  0  0  0  0
 25 24  1  0  0  0  0
 26 27  1  0  0  0  0
M  END
>  <CHROM.1>
121.68110399,-52.77643180,-67.83918762,-103.85091746,-125.95743091,15.48703591
27.43682184,14.19342542,0.79289257,0.32092235,-1.34557986

>  <Name>
lig.pdb

>  <RI>
0

>  <Rbt.Current_Directory>
/home/itssahil/PROJECTS/Mol_Feturizer/New_Systems/rnas/5kx9

>  <Rbt.Executable>
rbdock ($Id: //depot/dev/client3/rdock/2013.1/src/exe/rbdock.cxx#4 $)

>  <Rbt.Library>
libRbt.so (2013.1, Build901 2013/11/27)

>  <Rbt.Parameter_File>
/export/apps/rDock/src/rDock_2013.1_src/data/scripts/dock_solv.prm

>  <Rbt.Receptor>
prm/blind_docking_40.prm

>  <SCORE>
-12.9199

>  <SCORE.INTER>
-13.7555

>  <SCORE.INTER.CONST>
1

>  <SCORE.INTER.POLAR>
0

>  <SCORE.INTER.ROT>
5

>  <SCORE.INTER.SOLV>
16.2172

>  <SCORE.INTER.VDW>
-21.5094

>  <SCORE.INTER.norm>
-0.509464

>  <SCORE.INTRA>
0.747915

>  <SCORE.INTRA.DIHEDRAL>
10.1923

>  <SCORE.INTRA.DIHEDRAL.0>
2.68224

>  <SCORE.INTRA.POLAR>
0

>  <SCORE.INTRA.POLAR.0>
0

>  <SCORE.INTRA.REPUL>
0

>  <SCORE.INTRA.REPUL.0>
0

>  <SCORE.INTRA.SOLV>
-0.70295

>  <SCORE.INTRA.SOLV.lig_0>
-19.4148

>  <SCORE.INTRA.VDW>
-3.99677

>  <SCORE.INTRA.VDW.0>
5.42093

>  <SCORE.INTRA.norm>
0.0277006

>  <SCORE.RESTR>
0.0877087

>  <SCORE.RESTR.CAVITY>
0.0877087

>  <SCORE.RESTR.norm>
0.00324847

>  <SCORE.SYSTEM>
0

>  <SCORE.SYSTEM.CONST>
0

>  <SCORE.SYSTEM.DIHEDRAL>
0

>  <SCORE.SYSTEM.SOLV>
0

>  <SCORE.SYSTEM.norm>
0

>  <SCORE.heavy>
27

>  <SCORE.norm>
-0.478515

>  <RMSD>
19.314

$$$$
lig.pdb
 OpenBabel11021811523D
libRbt.so/2013.1/901 2013/11/27
 27 30  0  0  0  0  0  0  0  0999 V2000
   20.0981   27.1762   13.6950 N   0  0  0  0  0  0  0  0  0  0  0  0
   18.9213   27.6251   13.3344 C   0  0  0  0  0  0  0  0  0  0  0  0
   17.7607   27.3726   13.9902 N   0  0  0  0  0  0  0  0  0  0  0  0
   17.8061   26.6374   15.1411 C   0  0  0  0  0  0  0  0  0  0  0  0
   18.9946   26.1527   15.6070 C   0  0  0  0  0  0  0  0  0  0  0  0
   20.1999   26.4100   14.8554 C   0  0  0  0  0  0  0  0  0  0  0  0
   21.3044   25.9604   15.1851 O   0  0  0  0  0  0  0  0  0  0  0  0
   18.6834   28.3566   11.9950 C   0  0  2  0  0  0  0  0  0  0  0  0
   18.2132   27.2110   11.0839 C   0  0  0  0  0  0  0  0  0  0  0  0
   18.1585   27.6222    9.6799 N   0  0  0  0  0  0  0  0  0  0  0  0
   19.5128   27.9852    9.2323 C   0  0  0  0  0  0  0  0  0  0  0  0
   20.0355   29.1775   10.0091 C   0  0  0  0  0  0  0  0  0  0  0  0
   20.0383   28.8953   11.5051 C   0  0  0  0  0  0  0  0  0  0  0  0
   16.4946   26.4844   15.7565 C   0  0  0  0  0  0  0  0  0  0  0  0
   16.1434   27.1481   17.3093 S   0  0  0  0  0  0  0  0  0  0  0  0
   14.5796   26.5441   17.2823 C   0  0  0  0  0  0  0  0  0  0  0  0
   14.3080   25.9096   16.1349 C   0  0  0  0  0  0  0  0  0  0  0  0
   15.4004   25.8582   15.2473 C   0  0  0  0  0  0  0  0  0  0  0  0
   17.5997   26.5659    8.8179 C   0  0  0  0  0  0  0  0  0  0  0  0
   16.3074   25.9437    9.2981 C   0  0  0  0  0  0  0  0  0  0  0  0
   15.2994   26.7215    9.8492 C   0  0  0  0  0  0  0  0  0  0  0  0
   14.2991   26.2398   10.6088 N   0  0  0  0  0  0  0  0  0  0  0  0
   14.3665   24.9360   10.8330 C   0  0  0  0  0  0  0  0  0  0  0  0
   15.2807   24.0757   10.4139 N   0  0  0  0  0  0  0  0  0  0  0  0
   16.2550   24.6153    9.6667 C   0  0  0  0  0  0  0  0  0  0  0  0
   13.3750   24.4622   11.5962 O   0  0  0  0  0  0  0  0  0  0  0  0
   12.1094   24.2304   10.9668 C   0  0  0  0  0  0  0  0  0  0  0  0
  1  2  2  0  0  0  0
  1  6  1  0  0  0  0
  2  3  1  0  0  0  0
  3  4  2  0  0  0  0
  4 14  1  0  0  0  0
  5  4  1  0  0  0  0
  6  5  1  0  0  0  0
  7  6  2  0  0  0  0
  8  9  1  0  0  0  0
  8  2  1  1  0  0  0
 10 19  1  0  0  0  0
 10  9  1  0  0  0  0
 11 10  1  0  0  0  0
 12 11  1  0  0  0  0
 12 13  1  0  0  0  0
 13  8  1  0  0  0  0
 14 15  1  0  0  0  0
 14 18  2  0  0  0  0
 15 16  1  0  0  0  0
 16 17  2  0  0  0  0
 18 17  1  0  0  0  0
 19 20  1  0  0  0  0
 20 25  2  0  0  0  0
 20 21  1  0  0  0  0
 21 22  2  0  0  0  0
 22 23  1  0  0  0  0
 23 26  1  0  0  0  0
 24 23  2  0  0  0  0
 25 24  1  0  0  0  0
 26 27  1  0  0  0  0
M  END
>  <CHROM.1>
-115.93634648,94.89927296,48.85335269,41.01937813,79.47140559,17.05204397
26.54882159,12.75404861,-1.41359468,-0.40123327,-1.58224881

>  <Name>
lig.pdb

>  <RI>
0

>  <Rbt.Current_Directory>
/home/itssahil/PROJECTS/Mol_Feturizer/New_Systems/rnas/5kx9

>  <Rbt.Executable>
rbdock ($Id: //depot/dev/client3/rdock/2013.1/src/exe/rbdock.cxx#4 $)

>  <Rbt.Library>
libRbt.so (2013.1, Build901 2013/11/27)

>  <Rbt.Parameter_File>
/export/apps/rDock/src/rDock_2013.1_src/data/scripts/dock_solv.prm

>  <Rbt.Receptor>
prm/blind_docking_40.prm

>  <SCORE>
-3.6156

>  <SCORE.INTER>
-5.81231

>  <SCORE.INTER.CONST>
1

>  <SCORE.INTER.POLAR>
0

>  <SCORE.INTER.ROT>
5

>  <SCORE.INTER.SOLV>
22.2887

>  <SCORE.INTER.VDW>
-18.2378

>  <SCORE.INTER.norm>
-0.215271

>  <SCORE.INTRA>
-0.437733

>  <SCORE.INTRA.DIHEDRAL>
12.6143

>  <SCORE.INTRA.DIHEDRAL.0>
2.68224

>  <SCORE.INTRA.POLAR>
0

>  <SCORE.INTRA.POLAR.0>
0

>  <SCORE.INTRA.REPUL>
0

>  <SCORE.INTRA.REPUL.0>
0

>  <SCORE.INTRA.SOLV>
-0.420848

>  <SCORE.INTRA.SOLV.lig_0>
-19.4148

>  <SCORE.INTRA.VDW>
-6.53446

>  <SCORE.INTRA.VDW.0>
5.42093

>  <SCORE.INTRA.norm>
-0.0162123

>  <SCORE.RESTR>
2.63444

>  <SCORE.RESTR.CAVITY>
2.63444

>  <SCORE.RESTR.norm>
0.0975719

>  <SCORE.SYSTEM>
0

>  <SCORE.SYSTEM.CONST>
0

>  <SCORE.SYSTEM.DIHEDRAL>
0

>  <SCORE.SYSTEM.SOLV>
0

>  <SCORE.SYSTEM.norm>
0

>  <SCORE.heavy>
27

>  <SCORE.norm>
-0.133911

>  <RMSD>
19.353

$$$$
lig.pdb
 OpenBabel11021811523D
libRbt.so/2013.1/901 2013/11/27
 27 30  0  0  0  0  0  0  0  0999 V2000
   15.3126   25.5615   12.5595 N   0  0  0  0  0  0  0  0  0  0  0  0
   16.3563   26.1012   13.1388 C   0  0  0  0  0  0  0  0  0  0  0  0
   17.2863   26.8621   12.5085 N   0  0  0  0  0  0  0  0  0  0  0  0
   17.1154   27.1378   11.1811 C   0  0  0  0  0  0  0  0  0  0  0  0
   16.0399   26.6398   10.5030 C   0  0  0  0  0  0  0  0  0  0  0  0
   15.0969   25.8004   11.2029 C   0  0  0  0  0  0  0  0  0  0  0  0
   14.1282   25.2703   10.6448 O   0  0  0  0  0  0  0  0  0  0  0  0
   16.7596   25.7805   14.5949 C   0  0  2  0  0  0  0  0  0  0  0  0
   15.4153   25.8954   15.3319 C   0  0  0  0  0  0  0  0  0  0  0  0
   15.5897   25.8713   16.7853 N   0  0  0  0  0  0  0  0  0  0  0  0
   16.3922   27.0359   17.1925 C   0  0  0  0  0  0  0  0  0  0  0  0
   17.7824   26.9689   16.5917 C   0  0  0  0  0  0  0  0  0  0  0  0
   17.7171   26.8851   15.0730 C   0  0  0  0  0  0  0  0  0  0  0  0
   18.1650   27.9979   10.6513 C   0  0  0  0  0  0  0  0  0  0  0  0
   18.4592   29.5681   11.3017 S   0  0  0  0  0  0  0  0  0  0  0  0
   19.6911   29.8604   10.2027 C   0  0  0  0  0  0  0  0  0  0  0  0
   19.9121   28.8065    9.4068 C   0  0  0  0  0  0  0  0  0  0  0  0
   19.0383   27.7277    9.6448 C   0  0  0  0  0  0  0  0  0  0  0  0
   14.2984   25.8651   17.4950 C   0  0  0  0  0  0  0  0  0  0  0  0
   13.4372   27.0928   17.2991 C   0  0  0  0  0  0  0  0  0  0  0  0
   13.3075   28.0441   18.3005 C   0  0  0  0  0  0  0  0  0  0  0  0
   12.3176   28.9533   18.3596 N   0  0  0  0  0  0  0  0  0  0  0  0
   11.4260   28.8497   17.3855 C   0  0  0  0  0  0  0  0  0  0  0  0
   11.3919   27.9769   16.3913 N   0  0  0  0  0  0  0  0  0  0  0  0
   12.4005   27.0928   16.3887 C   0  0  0  0  0  0  0  0  0  0  0  0
   10.4384   29.7498   17.4527 O   0  0  0  0  0  0  0  0  0  0  0  0
    9.5761   29.7009   18.5954 C   0  0  0  0  0  0  0  0  0  0  0  0
  1  2  2  0  0  0  0
  1  6  1  0  0  0  0
  2  3  1  0  0  0  0
  3  4  2  0  0  0  0
  4 14  1  0  0  0  0
  5  4  1  0  0  0  0
  6  5  1  0  0  0  0
  7  6  2  0  0  0  0
  8  9  1  0  0  0  0
  8  2  1  6  0  0  0
 10 19  1  0  0  0  0
 10  9  1  0  0  0  0
 11 10  1  0  0  0  0
 12 11  1  0  0  0  0
 12 13  1  0  0  0  0
 13  8  1  0  0  0  0
 14 15  1  0  0  0  0
 14 18  2  0  0  0  0
 15 16  1  0  0  0  0
 16 17  2  0  0  0  0
 18 17  1  0  0  0  0
 19 20  1  0  0  0  0
 20 25  2  0  0  0  0
 20 21  1  0  0  0  0
 21 22  2  0  0  0  0
 22 23  1  0  0  0  0
 23 26  1  0  0  0  0
 24 23  2  0  0  0  0
 25 24  1  0  0  0  0
 26 27  1  0  0  0  0
M  END
>  <CHROM.1>
-59.13843800,-46.58498077,-63.59153026,-105.25409946,-63.09017673,15.44336505
27.48329440,14.21553834,0.82179024,0.22884478,-1.40351696

>  <Name>
lig.pdb

>  <RI>
0

>  <Rbt.Current_Directory>
/home/itssahil/PROJECTS/Mol_Feturizer/New_Systems/rnas/5kx9

>  <Rbt.Executable>
rbdock ($Id: //depot/dev/client3/rdock/2013.1/src/exe/rbdock.cxx#4 $)

>  <Rbt.Library>
libRbt.so (2013.1, Build901 2013/11/27)

>  <Rbt.Parameter_File>
/export/apps/rDock/src/rDock_2013.1_src/data/scripts/dock_solv.prm

>  <Rbt.Receptor>
prm/blind_docking_40.prm

>  <SCORE>
-12.5279

>  <SCORE.INTER>
-13.7412

>  <SCORE.INTER.CONST>
1

>  <SCORE.INTER.POLAR>
0

>  <SCORE.INTER.ROT>
5

>  <SCORE.INTER.SOLV>
16.3277

>  <SCORE.INTER.VDW>
-21.5367

>  <SCORE.INTER.norm>
-0.508933

>  <SCORE.INTRA>
0.708224

>  <SCORE.INTRA.DIHEDRAL>
10.9411

>  <SCORE.INTRA.DIHEDRAL.0>
2.68224

>  <SCORE.INTRA.POLAR>
0

>  <SCORE.INTRA.POLAR.0>
0

>  <SCORE.INTRA.REPUL>
0

>  <SCORE.INTRA.REPUL.0>
0

>  <SCORE.INTRA.SOLV>
-0.671788

>  <SCORE.INTRA.SOLV.lig_0>
-19.4148

>  <SCORE.INTRA.VDW>
-4.42645

>  <SCORE.INTRA.VDW.0>
5.42093

>  <SCORE.INTRA.norm>
0.0262305

>  <SCORE.RESTR>
0.505091

>  <SCORE.RESTR.CAVITY>
0.505091

>  <SCORE.RESTR.norm>
0.0187071

>  <SCORE.SYSTEM>
0

>  <SCORE.SYSTEM.CONST>
0

>  <SCORE.SYSTEM.DIHEDRAL>
0

>  <SCORE.SYSTEM.SOLV>
0

>  <SCORE.SYSTEM.norm>
0

>  <SCORE.heavy>
27

>  <SCORE.norm>
-0.463995

>  <RMSD>
19.377

$$$$
lig.pdb
 OpenBabel11021811523D
libRbt.so/2013.1/901 2013/11/27
 27 30  0  0  0  0  0  0  0  0999 V2000
   15.1849   25.4085   12.8833 N   0  0  0  0  0  0  0  0  0  0  0  0
   16.2979   25.8425   13.4210 C   0  0  0  0  0  0  0  0  0  0  0  0
   17.3316   26.3872   12.7311 N   0  0  0  0  0  0  0  0  0  0  0  0
   17.2040   26.5481   11.3802 C   0  0  0  0  0  0  0  0  0  0  0  0
   16.0658   26.1498   10.7397 C   0  0  0  0  0  0  0  0  0  0  0  0
   15.0074   25.5368   11.5064 C   0  0  0  0  0  0  0  0  0  0  0  0
   13.9700   25.1033   10.9900 O   0  0  0  0  0  0  0  0  0  0  0  0
   16.6485   25.6157   14.9080 C   0  0  2  0  0  0  0  0  0  0  0  0
   15.2889   25.8285   15.5933 C   0  0  0  0  0  0  0  0  0  0  0  0
   15.4215   25.9049   17.0493 N   0  0  0  0  0  0  0  0  0  0  0  0
   16.2527   27.0689   17.3960 C   0  0  0  0  0  0  0  0  0  0  0  0
   17.6561   26.9123   16.8444 C   0  0  0  0  0  0  0  0  0  0  0  0
   17.6306   26.7201   15.3344 C   0  0  0  0  0  0  0  0  0  0  0  0
   18.3709   27.1827   10.7822 C   0  0  0  0  0  0  0  0  0  0  0  0
   19.6108   27.8881   11.7519 S   0  0  0  0  0  0  0  0  0  0  0  0
   20.4759   28.3755   10.4011 C   0  0  0  0  0  0  0  0  0  0  0  0
   19.8885   27.9849    9.2629 C   0  0  0  0  0  0  0  0  0  0  0  0
   18.6718   27.3038    9.4618 C   0  0  0  0  0  0  0  0  0  0  0  0
   14.1113   25.9932   17.7178 C   0  0  0  0  0  0  0  0  0  0  0  0
   13.3566   27.2876   17.5117 C   0  0  0  0  0  0  0  0  0  0  0  0
   13.3919   28.2966   18.4631 C   0  0  0  0  0  0  0  0  0  0  0  0
   12.4988   29.2999   18.5384 N   0  0  0  0  0  0  0  0  0  0  0  0
   11.5309   29.2344   17.6365 C   0  0  0  0  0  0  0  0  0  0  0  0
   11.3408   28.3196   16.6992 N   0  0  0  0  0  0  0  0  0  0  0  0
   12.2591   27.3424   16.6774 C   0  0  0  0  0  0  0  0  0  0  0  0
   10.6397   30.2288   17.7202 O   0  0  0  0  0  0  0  0  0  0  0  0
    9.4005   29.9518   18.3830 C   0  0  0  0  0  0  0  0  0  0  0  0
  1  2  2  0  0  0  0
  1  6  1  0  0  0  0
  2  3  1  0  0  0  0
  3  4  2  0  0  0  0
  4 14  1  0  0  0  0
  5  4  1  0  0  0  0
  6  5  1  0  0  0  0
  7  6  2  0  0  0  0
  8  9  1  0  0  0  0
  8  2  1  6  0  0  0
 10 19  1  0  0  0  0
 10  9  1  0  0  0  0
 11 10  1  0  0  0  0
 12 11  1  0  0  0  0
 12 13  1  0  0  0  0
 13  8  1  0  0  0  0
 14 15  1  0  0  0  0
 14 18  2  0  0  0  0
 15 16  1  0  0  0  0
 16 17  2  0  0  0  0
 18 17  1  0  0  0  0
 19 20  1  0  0  0  0
 20 25  2  0  0  0  0
 20 21  1  0  0  0  0
 21 22  2  0  0  0  0
 22 23  1  0  0  0  0
 23 26  1  0  0  0  0
 24 23  2  0  0  0  0
 25 24  1  0  0  0  0
 26 27  1  0  0  0  0
M  END
>  <CHROM.1>
-10.28932069,-39.58178530,-69.11239089,-98.07290570,-99.86136105,15.51980112
27.22312387,14.43521537,0.81899688,0.07979686,-1.70344810

>  <Name>
lig.pdb

>  <RI>
0

>  <Rbt.Current_Directory>
/home/itssahil/PROJECTS/Mol_Feturizer/New_Systems/rnas/5kx9

>  <Rbt.Executable>
rbdock ($Id: //depot/dev/client3/rdock/2013.1/src/exe/rbdock.cxx#4 $)

>  <Rbt.Library>
libRbt.so (2013.1, Build901 2013/11/27)

>  <Rbt.Parameter_File>
/export/apps/rDock/src/rDock_2013.1_src/data/scripts/dock_solv.prm

>  <Rbt.Receptor>
prm/blind_docking_40.prm

>  <SCORE>
-12.2143

>  <SCORE.INTER>
-9.91923

>  <SCORE.INTER.CONST>
1

>  <SCORE.INTER.POLAR>
0

>  <SCORE.INTER.ROT>
5

>  <SCORE.INTER.SOLV>
13.5354

>  <SCORE.INTER.VDW>
-18.0579

>  <SCORE.INTER.norm>
-0.367379

>  <SCORE.INTRA>
-2.87266

>  <SCORE.INTRA.DIHEDRAL>
3.68885

>  <SCORE.INTRA.DIHEDRAL.0>
2.68224

>  <SCORE.INTRA.POLAR>
0

>  <SCORE.INTRA.POLAR.0>
0

>  <SCORE.INTRA.REPUL>
0

>  <SCORE.INTRA.REPUL.0>
0

>  <SCORE.INTRA.SOLV>
-0.578006

>  <SCORE.INTRA.SOLV.lig_0>
-19.4148

>  <SCORE.INTRA.VDW>
-4.42809

>  <SCORE.INTRA.VDW.0>
5.42093

>  <SCORE.INTRA.norm>
-0.106395

>  <SCORE.RESTR>
0.577634

>  <SCORE.RESTR.CAVITY>
0.577634

>  <SCORE.RESTR.norm>
0.0213938

>  <SCORE.SYSTEM>
0

>  <SCORE.SYSTEM.CONST>
0

>  <SCORE.SYSTEM.DIHEDRAL>
0

>  <SCORE.SYSTEM.SOLV>
0

>  <SCORE.SYSTEM.norm>
0

>  <SCORE.heavy>
27

>  <SCORE.norm>
-0.45238

>  <RMSD>
19.388

$$$$
lig.pdb
 OpenBabel11021811523D
libRbt.so/2013.1/901 2013/11/27
 27 30  0  0  0  0  0  0  0  0999 V2000
   15.0505   25.4181   12.8563 N   0  0  0  0  0  0  0  0  0  0  0  0
   16.1590   25.9045   13.3572 C   0  0  0  0  0  0  0  0  0  0  0  0
   17.1243   26.5323   12.6395 N   0  0  0  0  0  0  0  0  0  0  0  0
   16.9242   26.7244   11.3015 C   0  0  0  0  0  0  0  0  0  0  0  0
   15.7837   26.2749   10.7002 C   0  0  0  0  0  0  0  0  0  0  0  0
   14.8015   25.5753   11.4935 C   0  0  0  0  0  0  0  0  0  0  0  0
   13.7693   25.0934   11.0106 O   0  0  0  0  0  0  0  0  0  0  0  0
   16.5917   25.6567   14.8190 C   0  0  2  0  0  0  0  0  0  0  0  0
   15.2746   25.8691   15.5830 C   0  0  0  0  0  0  0  0  0  0  0  0
   15.4900   25.9260   17.0299 N   0  0  0  0  0  0  0  0  0  0  0  0
   16.3475   27.0805   17.3432 C   0  0  0  0  0  0  0  0  0  0  0  0
   17.7162   26.9223   16.7110 C   0  0  0  0  0  0  0  0  0  0  0  0
   17.6039   26.7495   15.2026 C   0  0  0  0  0  0  0  0  0  0  0  0
   18.0213   27.4475   10.6725 C   0  0  0  0  0  0  0  0  0  0  0  0
   18.5529   28.9766   11.2676 S   0  0  0  0  0  0  0  0  0  0  0  0
   19.7157   29.1092   10.0670 C   0  0  0  0  0  0  0  0  0  0  0  0
   19.7432   28.0295    9.2756 C   0  0  0  0  0  0  0  0  0  0  0  0
   18.7699   27.0656    9.6037 C   0  0  0  0  0  0  0  0  0  0  0  0
   14.2205   26.0138   17.7728 C   0  0  0  0  0  0  0  0  0  0  0  0
   13.4045   27.2639   17.5301 C   0  0  0  0  0  0  0  0  0  0  0  0
   13.2560   28.2256   18.5190 C   0  0  0  0  0  0  0  0  0  0  0  0
   12.2908   29.1627   18.5270 N   0  0  0  0  0  0  0  0  0  0  0  0
   11.4423   29.0773   17.5134 C   0  0  0  0  0  0  0  0  0  0  0  0
   11.4291   28.1988   16.5237 N   0  0  0  0  0  0  0  0  0  0  0  0
   12.4112   27.2866   16.5729 C   0  0  0  0  0  0  0  0  0  0  0  0
   10.4787   30.0054   17.5296 O   0  0  0  0  0  0  0  0  0  0  0  0
    9.4673   29.8905   18.5373 C   0  0  0  0  0  0  0  0  0  0  0  0
  1  2  2  0  0  0  0
  1  6  1  0  0  0  0
  2  3  1  0  0  0  0
  3  4  2  0  0  0  0
  4 14  1  0  0  0  0
  5  4  1  0  0  0  0
  6  5  1  0  0  0  0
  7  6  2  0  0  0  0
  8  9  1  0  0  0  0
  8  2  1  6  0  0  0
 10 19  1  0  0  0  0
 10  9  1  0  0  0  0
 11 10  1  0  0  0  0
 12 11  1  0  0  0  0
 12 13  1  0  0  0  0
 13  8  1  0  0  0  0
 14 15  1  0  0  0  0
 14 18  2  0  0  0  0
 15 16  1  0  0  0  0
 16 17  2  0  0  0  0
 18 17  1  0  0  0  0
 19 20  1  0  0  0  0
 20 25  2  0  0  0  0
 20 21  1  0  0  0  0
 21 22  2  0  0  0  0
 22 23  1  0  0  0  0
 23 26  1  0  0  0  0
 24 23  2  0  0  0  0
 25 24  1  0  0  0  0
 26 27  1  0  0  0  0
M  END
>  <CHROM.1>
-54.40008459,-43.65895269,-63.90185326,-110.40879193,-70.62536045,15.34179905
27.33438917,14.34802197,0.84913511,0.17993205,-1.55489163

>  <Name>
lig.pdb

>  <RI>
0

>  <Rbt.Current_Directory>
/home/itssahil/PROJECTS/Mol_Feturizer/New_Systems/rnas/5kx9

>  <Rbt.Executable>
rbdock ($Id: //depot/dev/client3/rdock/2013.1/src/exe/rbdock.cxx#4 $)

>  <Rbt.Library>
libRbt.so (2013.1, Build901 2013/11/27)

>  <Rbt.Parameter_File>
/export/apps/rDock/src/rDock_2013.1_src/data/scripts/dock_solv.prm

>  <Rbt.Receptor>
prm/blind_docking_40.prm

>  <SCORE>
-12.533

>  <SCORE.INTER>
-13.2492

>  <SCORE.INTER.CONST>
1

>  <SCORE.INTER.POLAR>
0

>  <SCORE.INTER.ROT>
5

>  <SCORE.INTER.SOLV>
14.7592

>  <SCORE.INTER.VDW>
-20.6858

>  <SCORE.INTER.norm>
-0.49071

>  <SCORE.INTRA>
0.248569

>  <SCORE.INTRA.DIHEDRAL>
10.5604

>  <SCORE.INTRA.DIHEDRAL.0>
2.68224

>  <SCORE.INTRA.POLAR>
0

>  <SCORE.INTRA.POLAR.0>
0

>  <SCORE.INTRA.REPUL>
0

>  <SCORE.INTRA.REPUL.0>
0

>  <SCORE.INTRA.SOLV>
-0.650902

>  <SCORE.INTRA.SOLV.lig_0>
-19.4148

>  <SCORE.INTRA.VDW>
-4.70617

>  <SCORE.INTRA.VDW.0>
5.42093

>  <SCORE.INTRA.norm>
0.00920626

>  <SCORE.RESTR>
0.467606

>  <SCORE.RESTR.CAVITY>
0.467606

>  <SCORE.RESTR.norm>
0.0173188

>  <SCORE.SYSTEM>
0

>  <SCORE.SYSTEM.CONST>
0

>  <SCORE.SYSTEM.DIHEDRAL>
0

>  <SCORE.SYSTEM.SOLV>
0

>  <SCORE.SYSTEM.norm>
0

>  <SCORE.heavy>
27

>  <SCORE.norm>
-0.464185

>  <RMSD>
19.457

$$$$
lig.pdb
 OpenBabel11021811523D
libRbt.so/2013.1/901 2013/11/27
 27 30  0  0  0  0  0  0  0  0999 V2000
   19.5498   26.9768   14.4227 N   0  0  0  0  0  0  0  0  0  0  0  0
   18.3281   26.5092   14.3513 C   0  0  0  0  0  0  0  0  0  0  0  0
   17.5439   26.5543   13.2450 N   0  0  0  0  0  0  0  0  0  0  0  0
   18.0638   27.0793   12.0956 C   0  0  0  0  0  0  0  0  0  0  0  0
   19.3398   27.5647   12.0709 C   0  0  0  0  0  0  0  0  0  0  0  0
   20.1250   27.5348   13.2818 C   0  0  0  0  0  0  0  0  0  0  0  0
   21.2681   28.0031   13.3514 O   0  0  0  0  0  0  0  0  0  0  0  0
   17.5550   26.0059   15.5901 C   0  0  2  0  0  0  0  0  0  0  0  0
   16.0954   26.1010   15.1168 C   0  0  0  0  0  0  0  0  0  0  0  0
   15.1535   25.9035   16.2199 N   0  0  0  0  0  0  0  0  0  0  0  0
   15.3433   26.9743   17.2117 C   0  0  0  0  0  0  0  0  0  0  0  0
   16.7322   26.9091   17.8157 C   0  0  0  0  0  0  0  0  0  0  0  0
   17.8017   27.0018   16.7362 C   0  0  0  0  0  0  0  0  0  0  0  0
   17.1251   27.0224   10.9829 C   0  0  0  0  0  0  0  0  0  0  0  0
   15.4268   26.8692   11.2420 S   0  0  0  0  0  0  0  0  0  0  0  0
   15.1147   26.8483    9.5949 C   0  0  0  0  0  0  0  0  0  0  0  0
   16.2317   26.9993    8.8720 C   0  0  0  0  0  0  0  0  0  0  0  0
   17.3999   27.0933    9.6533 C   0  0  0  0  0  0  0  0  0  0  0  0
   13.7560   25.8788   15.7533 C   0  0  0  0  0  0  0  0  0  0  0  0
   12.8121   26.8249   16.4613 C   0  0  0  0  0  0  0  0  0  0  0  0
   12.3955   26.5810   17.7619 C   0  0  0  0  0  0  0  0  0  0  0  0
   11.3154   27.1461   18.3311 N   0  0  0  0  0  0  0  0  0  0  0  0
   10.6337   27.9473   17.5261 C   0  0  0  0  0  0  0  0  0  0  0  0
   10.8802   28.2448   16.2604 N   0  0  0  0  0  0  0  0  0  0  0  0
   11.9655   27.6472   15.7468 C   0  0  0  0  0  0  0  0  0  0  0  0
    9.5553   28.5003   18.0930 O   0  0  0  0  0  0  0  0  0  0  0  0
    9.4819   29.9306   18.1179 C   0  0  0  0  0  0  0  0  0  0  0  0
  1  2  2  0  0  0  0
  1  6  1  0  0  0  0
  2  3  1  0  0  0  0
  3  4  2  0  0  0  0
  4 14  1  0  0  0  0
  5  4  1  0  0  0  0
  6  5  1  0  0  0  0
  7  6  2  0  0  0  0
  8  9  1  0  0  0  0
  8  2  1  6  0  0  0
 10 19  1  0  0  0  0
 10  9  1  0  0  0  0
 11 10  1  0  0  0  0
 12 11  1  0  0  0  0
 12 13  1  0  0  0  0
 13  8  1  0  0  0  0
 14 15  1  0  0  0  0
 14 18  2  0  0  0  0
 15 16  1  0  0  0  0
 16 17  2  0  0  0  0
 18 17  1  0  0  0  0
 19 20  1  0  0  0  0
 20 25  2  0  0  0  0
 20 21  1  0  0  0  0
 21 22  2  0  0  0  0
 22 23  1  0  0  0  0
 23 26  1  0  0  0  0
 24 23  2  0  0  0  0
 25 24  1  0  0  0  0
 26 27  1  0  0  0  0
M  END
>  <CHROM.1>
21.00162654,158.78525452,-127.42169701,-72.44031511,122.20683292,15.40952419
27.14533948,14.56753618,-0.66049551,-0.11493839,1.57680918

>  <Name>
lig.pdb

>  <RI>
0

>  <Rbt.Current_Directory>
/home/itssahil/PROJECTS/Mol_Feturizer/New_Systems/rnas/5kx9

>  <Rbt.Executable>
rbdock ($Id: //depot/dev/client3/rdock/2013.1/src/exe/rbdock.cxx#4 $)

>  <Rbt.Library>
libRbt.so (2013.1, Build901 2013/11/27)

>  <Rbt.Parameter_File>
/export/apps/rDock/src/rDock_2013.1_src/data/scripts/dock_solv.prm

>  <Rbt.Receptor>
prm/blind_docking_40.prm

>  <SCORE>
1.79431

>  <SCORE.INTER>
-4.56913

>  <SCORE.INTER.CONST>
1

>  <SCORE.INTER.POLAR>
0

>  <SCORE.INTER.ROT>
5

>  <SCORE.INTER.SOLV>
17.2498

>  <SCORE.INTER.VDW>
-15.7293

>  <SCORE.INTER.norm>
-0.169227

>  <SCORE.INTRA>
5.02524

>  <SCORE.INTRA.DIHEDRAL>
6.37116

>  <SCORE.INTRA.DIHEDRAL.0>
2.68224

>  <SCORE.INTRA.POLAR>
0

>  <SCORE.INTRA.POLAR.0>
0

>  <SCORE.INTRA.REPUL>
0

>  <SCORE.INTRA.REPUL.0>
0

>  <SCORE.INTRA.SOLV>
-0.41569

>  <SCORE.INTRA.SOLV.lig_0>
-19.4148

>  <SCORE.INTRA.VDW>
2.04751

>  <SCORE.INTRA.VDW.0>
5.42093

>  <SCORE.INTRA.norm>
0.18612

>  <SCORE.RESTR>
1.33819

>  <SCORE.RESTR.CAVITY>
1.33819

>  <SCORE.RESTR.norm>
0.0495627

>  <SCORE.SYSTEM>
0

>  <SCORE.SYSTEM.CONST>
0

>  <SCORE.SYSTEM.DIHEDRAL>
0

>  <SCORE.SYSTEM.SOLV>
0

>  <SCORE.SYSTEM.norm>
0

>  <SCORE.heavy>
27

>  <SCORE.norm>
0.066456

>  <RMSD>
19.457

$$$$
lig.pdb
 OpenBabel11021811523D
libRbt.so/2013.1/901 2013/11/27
 27 30  0  0  0  0  0  0  0  0999 V2000
   17.0756   25.0713   14.8875 N   0  0  0  0  0  0  0  0  0  0  0  0
   17.0060   26.3521   15.1541 C   0  0  0  0  0  0  0  0  0  0  0  0
   16.0993   26.9228   15.9868 N   0  0  0  0  0  0  0  0  0  0  0  0
   15.2144   26.1145   16.6432 C   0  0  0  0  0  0  0  0  0  0  0  0
   15.2335   24.7634   16.4471 C   0  0  0  0  0  0  0  0  0  0  0  0
   16.1878   24.2025   15.5206 C   0  0  0  0  0  0  0  0  0  0  0  0
   16.2311   22.9957   15.2512 O   0  0  0  0  0  0  0  0  0  0  0  0
   17.8447   27.4069   14.3994 C   0  0  2  0  0  0  0  0  0  0  0  0
   17.3054   27.2783   12.9655 C   0  0  0  0  0  0  0  0  0  0  0  0
   18.1289   28.0186   12.0079 N   0  0  0  0  0  0  0  0  0  0  0  0
   19.4855   27.4478   11.9984 C   0  0  0  0  0  0  0  0  0  0  0  0
   20.1483   27.6117   13.3519 C   0  0  0  0  0  0  0  0  0  0  0  0
   19.3164   26.9624   14.4492 C   0  0  0  0  0  0  0  0  0  0  0  0
   14.3332   26.8597   17.5322 C   0  0  0  0  0  0  0  0  0  0  0  0
   14.5175   28.5581   17.7700 S   0  0  0  0  0  0  0  0  0  0  0  0
   13.2440   28.6064   18.8594 C   0  0  0  0  0  0  0  0  0  0  0  0
   12.6662   27.4076   19.0073 C   0  0  0  0  0  0  0  0  0  0  0  0
   13.2843   26.3880   18.2573 C   0  0  0  0  0  0  0  0  0  0  0  0
   17.5531   27.9941   10.6517 C   0  0  0  0  0  0  0  0  0  0  0  0
   16.4215   27.0138   10.4379 C   0  0  0  0  0  0  0  0  0  0  0  0
   15.2064   27.1692   11.0892 C   0  0  0  0  0  0  0  0  0  0  0  0
   14.2965   26.1900   11.2413 N   0  0  0  0  0  0  0  0  0  0  0  0
   14.6691   25.0202   10.7440 C   0  0  0  0  0  0  0  0  0  0  0  0
   15.8028   24.7083   10.1367 N   0  0  0  0  0  0  0  0  0  0  0  0
   16.6720   25.7230   10.0201 C   0  0  0  0  0  0  0  0  0  0  0  0
   13.7654   24.0468   10.9050 O   0  0  0  0  0  0  0  0  0  0  0  0
   12.3891   24.3803   10.6895 C   0  0  0  0  0  0  0  0  0  0  0  0
  1  2  2  0  0  0  0
  1  6  1  0  0  0  0
  2  3  1  0  0  0  0
  3  4  2  0  0  0  0
  4 14  1  0  0  0  0
  5  4  1  0  0  0  0
  6  5  1  0  0  0  0
  7  6  2  0  0  0  0
  8  9  1  0  0  0  0
  8  2  1  1  0  0  0
 10 19  1  0  0  0  0
 10  9  1  0  0  0  0
 11 10  1  0  0  0  0
 12 11  1  0  0  0  0
 12 13  1  0  0  0  0
 13  8  1  0  0  0  0
 14 15  1  0  0  0  0
 14 18  2  0  0  0  0
 15 16  1  0  0  0  0
 16 17  2  0  0  0  0
 18 17  1  0  0  0  0
 19 20  1  0  0  0  0
 20 25  2  0  0  0  0
 20 21  1  0  0  0  0
 21 22  2  0  0  0  0
 22 23  1  0  0  0  0
 23 26  1  0  0  0  0
 24 23  2  0  0  0  0
 25 24  1  0  0  0  0
 26 27  1  0  0  0  0
M  END
>  <CHROM.1>
-4.13099531,63.68452776,-11.84459782,65.88597012,41.44525183,15.87085852
26.41218955,14.07029047,-1.89802734,-0.42494333,-1.86599336

>  <Name>
lig.pdb

>  <RI>
0

>  <Rbt.Current_Directory>
/home/itssahil/PROJECTS/Mol_Feturizer/New_Systems/rnas/5kx9

>  <Rbt.Executable>
rbdock ($Id: //depot/dev/client3/rdock/2013.1/src/exe/rbdock.cxx#4 $)

>  <Rbt.Library>
libRbt.so (2013.1, Build901 2013/11/27)

>  <Rbt.Parameter_File>
/export/apps/rDock/src/rDock_2013.1_src/data/scripts/dock_solv.prm

>  <Rbt.Receptor>
prm/blind_docking_40.prm

>  <SCORE>
-9.67733

>  <SCORE.INTER>
-13.2676

>  <SCORE.INTER.CONST>
1

>  <SCORE.INTER.POLAR>
0

>  <SCORE.INTER.ROT>
5

>  <SCORE.INTER.SOLV>
17.5041

>  <SCORE.INTER.VDW>
-21.6131

>  <SCORE.INTER.norm>
-0.491392

>  <SCORE.INTRA>
-0.16733

>  <SCORE.INTRA.DIHEDRAL>
3.74195

>  <SCORE.INTRA.DIHEDRAL.0>
2.68224

>  <SCORE.INTRA.POLAR>
0

>  <SCORE.INTRA.POLAR.0>
0

>  <SCORE.INTRA.REPUL>
0

>  <SCORE.INTRA.REPUL.0>
0

>  <SCORE.INTRA.SOLV>
-0.226491

>  <SCORE.INTRA.SOLV.lig_0>
-19.4148

>  <SCORE.INTRA.VDW>
-1.92506

>  <SCORE.INTRA.VDW.0>
5.42093

>  <SCORE.INTRA.norm>
-0.00619739

>  <SCORE.RESTR>
3.75757

>  <SCORE.RESTR.CAVITY>
3.75757

>  <SCORE.RESTR.norm>
0.139169

>  <SCORE.SYSTEM>
0

>  <SCORE.SYSTEM.CONST>
0

>  <SCORE.SYSTEM.DIHEDRAL>
0

>  <SCORE.SYSTEM.SOLV>
0

>  <SCORE.SYSTEM.norm>
0

>  <SCORE.heavy>
27

>  <SCORE.norm>
-0.35842

>  <RMSD>
19.486

$$$$
lig.pdb
 OpenBabel11021811523D
libRbt.so/2013.1/901 2013/11/27
 27 30  0  0  0  0  0  0  0  0999 V2000
   15.0576   25.3986   12.8557 N   0  0  0  0  0  0  0  0  0  0  0  0
   16.1598   25.8971   13.3586 C   0  0  0  0  0  0  0  0  0  0  0  0
   17.1237   26.5276   12.6414 N   0  0  0  0  0  0  0  0  0  0  0  0
   16.9287   26.7090   11.3012 C   0  0  0  0  0  0  0  0  0  0  0  0
   15.7947   26.2465   10.6974 C   0  0  0  0  0  0  0  0  0  0  0  0
   14.8141   25.5446   11.4907 C   0  0  0  0  0  0  0  0  0  0  0  0
   13.7881   25.0513   11.0059 O   0  0  0  0  0  0  0  0  0  0  0  0
   16.5872   25.6626   14.8242 C   0  0  2  0  0  0  0  0  0  0  0  0
   15.2627   25.8598   15.5793 C   0  0  0  0  0  0  0  0  0  0  0  0
   15.4685   25.9269   17.0272 N   0  0  0  0  0  0  0  0  0  0  0  0
   16.3075   27.0950   17.3399 C   0  0  0  0  0  0  0  0  0  0  0  0
   17.6821   26.9534   16.7165 C   0  0  0  0  0  0  0  0  0  0  0  0
   17.5813   26.7717   15.2084 C   0  0  0  0  0  0  0  0  0  0  0  0
   18.0231   27.4365   10.6726 C   0  0  0  0  0  0  0  0  0  0  0  0
   18.6821   28.8644   11.3811 S   0  0  0  0  0  0  0  0  0  0  0  0
   19.7696   29.0625   10.1205 C   0  0  0  0  0  0  0  0  0  0  0  0
   19.6814   28.0725    9.2233 C   0  0  0  0  0  0  0  0  0  0  0  0
   18.6763   27.1313    9.5199 C   0  0  0  0  0  0  0  0  0  0  0  0
   14.1934   26.0001   17.7620 C   0  0  0  0  0  0  0  0  0  0  0  0
   13.3754   27.2512   17.5319 C   0  0  0  0  0  0  0  0  0  0  0  0
   13.3230   28.2581   18.4848 C   0  0  0  0  0  0  0  0  0  0  0  0
   12.3737   29.2102   18.5309 N   0  0  0  0  0  0  0  0  0  0  0  0
   11.4416   29.0937   17.5970 C   0  0  0  0  0  0  0  0  0  0  0  0
   11.3339   28.1724   16.6530 N   0  0  0  0  0  0  0  0  0  0  0  0
   12.3052   27.2475   16.6613 C   0  0  0  0  0  0  0  0  0  0  0  0
   10.4944   30.0371   17.6516 O   0  0  0  0  0  0  0  0  0  0  0  0
    9.1340   29.6178   17.4924 C   0  0  0  0  0  0  0  0  0  0  0  0
  1  2  2  0  0  0  0
  1  6  1  0  0  0  0
  2  3  1  0  0  0  0
  3  4  2  0  0  0  0
  4 14  1  0  0  0  0
  5  4  1  0  0  0  0
  6  5  1  0  0  0  0
  7  6  2  0  0  0  0
  8  9  1  0  0  0  0
  8  2  1  6  0  0  0
 10 19  1  0  0  0  0
 10  9  1  0  0  0  0
 11 10  1  0  0  0  0
 12 11  1  0  0  0  0
 12 13  1  0  0  0  0
 13  8  1  0  0  0  0
 14 15  1  0  0  0  0
 14 18  2  0  0  0  0
 15 16  1  0  0  0  0
 16 17  2  0  0  0  0
 18 17  1  0  0  0  0
 19 20  1  0  0  0  0
 20 25  2  0  0  0  0
 20 21  1  0  0  0  0
 21 22  2  0  0  0  0
 22 23  1  0  0  0  0
 23 26  1  0  0  0  0
 24 23  2  0  0  0  0
 25 24  1  0  0  0  0
 26 27  1  0  0  0  0
M  END
>  <CHROM.1>
-45.94855745,-43.26944175,-65.20091118,-104.06811188,-136.16510965,15.33016134
27.31458597,14.32773102,0.83857131,0.13310263,-1.58986509

>  <Name>
lig.pdb

>  <RI>
0

>  <Rbt.Current_Directory>
/home/itssahil/PROJECTS/Mol_Feturizer/New_Systems/rnas/5kx9

>  <Rbt.Executable>
rbdock ($Id: //depot/dev/client3/rdock/2013.1/src/exe/rbdock.cxx#4 $)

>  <Rbt.Library>
libRbt.so (2013.1, Build901 2013/11/27)

>  <Rbt.Parameter_File>
/export/apps/rDock/src/rDock_2013.1_src/data/scripts/dock_solv.prm

>  <Rbt.Receptor>
prm/blind_docking_40.prm

>  <SCORE>
-13.0449

>  <SCORE.INTER>
-12.7734

>  <SCORE.INTER.CONST>
1

>  <SCORE.INTER.POLAR>
0

>  <SCORE.INTER.ROT>
5

>  <SCORE.INTER.SOLV>
14.4322

>  <SCORE.INTER.VDW>
-20.2597

>  <SCORE.INTER.norm>
-0.47309

>  <SCORE.INTRA>
-0.783801

>  <SCORE.INTRA.DIHEDRAL>
6.8871

>  <SCORE.INTRA.DIHEDRAL.0>
2.68224

>  <SCORE.INTRA.POLAR>
0

>  <SCORE.INTRA.POLAR.0>
0

>  <SCORE.INTRA.REPUL>
0

>  <SCORE.INTRA.REPUL.0>
0

>  <SCORE.INTRA.SOLV>
-0.635876

>  <SCORE.INTRA.SOLV.lig_0>
-19.4148

>  <SCORE.INTRA.VDW>
-3.90941

>  <SCORE.INTRA.VDW.0>
5.42093

>  <SCORE.INTRA.norm>
-0.0290297

>  <SCORE.RESTR>
0.512331

>  <SCORE.RESTR.CAVITY>
0.512331

>  <SCORE.RESTR.norm>
0.0189752

>  <SCORE.SYSTEM>
0

>  <SCORE.SYSTEM.CONST>
0

>  <SCORE.SYSTEM.DIHEDRAL>
0

>  <SCORE.SYSTEM.SOLV>
0

>  <SCORE.SYSTEM.norm>
0

>  <SCORE.heavy>
27

>  <SCORE.norm>
-0.483145

>  <RMSD>
19.490

$$$$
lig.pdb
 OpenBabel11021811523D
libRbt.so/2013.1/901 2013/11/27
 27 30  0  0  0  0  0  0  0  0999 V2000
   20.1401   27.1654   13.7630 N   0  0  0  0  0  0  0  0  0  0  0  0
   18.9666   27.6277   13.4089 C   0  0  0  0  0  0  0  0  0  0  0  0
   17.8057   27.3831   14.0675 N   0  0  0  0  0  0  0  0  0  0  0  0
   17.8480   26.6413   15.2143 C   0  0  0  0  0  0  0  0  0  0  0  0
   19.0333   26.1424   15.6733 C   0  0  0  0  0  0  0  0  0  0  0  0
   20.2384   26.3919   14.9188 C   0  0  0  0  0  0  0  0  0  0  0  0
   21.3396   25.9297   15.2422 O   0  0  0  0  0  0  0  0  0  0  0  0
   18.7312   28.3688   12.0744 C   0  0  2  0  0  0  0  0  0  0  0  0
   18.0130   27.2985   11.2364 C   0  0  0  0  0  0  0  0  0  0  0  0
   17.9028   27.6936    9.8311 N   0  0  0  0  0  0  0  0  0  0  0  0
   19.2537   27.8338    9.2638 C   0  0  0  0  0  0  0  0  0  0  0  0
   20.0192   28.9401    9.9625 C   0  0  0  0  0  0  0  0  0  0  0  0
   20.1062   28.6819   11.4603 C   0  0  0  0  0  0  0  0  0  0  0  0
   16.5372   26.4979   15.8335 C   0  0  0  0  0  0  0  0  0  0  0  0
   16.1952   27.1645   17.3871 S   0  0  0  0  0  0  0  0  0  0  0  0
   14.6271   26.5717   17.3648 C   0  0  0  0  0  0  0  0  0  0  0  0
   14.3476   25.9389   16.2184 C   0  0  0  0  0  0  0  0  0  0  0  0
   15.4371   25.8793   15.3276 C   0  0  0  0  0  0  0  0  0  0  0  0
   17.1155   26.7260    9.0469 C   0  0  0  0  0  0  0  0  0  0  0  0
   16.1521   25.8703    9.8389 C   0  0  0  0  0  0  0  0  0  0  0  0
   16.1030   24.4953    9.6614 C   0  0  0  0  0  0  0  0  0  0  0  0
   15.0715   23.7182   10.0384 N   0  0  0  0  0  0  0  0  0  0  0  0
   14.0578   24.3824   10.5729 C   0  0  0  0  0  0  0  0  0  0  0  0
   13.9409   25.6860   10.7691 N   0  0  0  0  0  0  0  0  0  0  0  0
   14.9972   26.4085   10.3681 C   0  0  0  0  0  0  0  0  0  0  0  0
   13.0304   23.6072   10.9383 O   0  0  0  0  0  0  0  0  0  0  0  0
   11.7487   24.2313   11.0787 C   0  0  0  0  0  0  0  0  0  0  0  0
  1  2  2  0  0  0  0
  1  6  1  0  0  0  0
  2  3  1  0  0  0  0
  3  4  2  0  0  0  0
  4 14  1  0  0  0  0
  5  4  1  0  0  0  0
  6  5  1  0  0  0  0
  7  6  2  0  0  0  0
  8  9  1  0  0  0  0
  8  2  1  1  0  0  0
 10 19  1  0  0  0  0
 10  9  1  0  0  0  0
 11 10  1  0  0  0  0
 12 11  1  0  0  0  0
 12 13  1  0  0  0  0
 13  8  1  0  0  0  0
 14 15  1  0  0  0  0
 14 18  2  0  0  0  0
 15 16  1  0  0  0  0
 16 17  2  0  0  0  0
 18 17  1  0  0  0  0
 19 20  1  0  0  0  0
 20 25  2  0  0  0  0
 20 21  1  0  0  0  0
 21 22  2  0  0  0  0
 22 23  1  0  0  0  0
 23 26  1  0  0  0  0
 24 23  2  0  0  0  0
 25 24  1  0  0  0  0
 26 27  1  0  0  0  0
M  END
>  <CHROM.1>
-115.57391975,104.61270734,23.02214899,-131.77244699,-158.69024125,16.95237350
26.43801187,12.80333866,-0.98464027,-0.42539133,-1.60315194

>  <Name>
lig.pdb

>  <RI>
0

>  <Rbt.Current_Directory>
/home/itssahil/PROJECTS/Mol_Feturizer/New_Systems/rnas/5kx9

>  <Rbt.Executable>
rbdock ($Id: //depot/dev/client3/rdock/2013.1/src/exe/rbdock.cxx#4 $)

>  <Rbt.Library>
libRbt.so (2013.1, Build901 2013/11/27)

>  <Rbt.Parameter_File>
/export/apps/rDock/src/rDock_2013.1_src/data/scripts/dock_solv.prm

>  <Rbt.Receptor>
prm/blind_docking_40.prm

>  <SCORE>
3.81036

>  <SCORE.INTER>
-1.07339

>  <SCORE.INTER.CONST>
1

>  <SCORE.INTER.POLAR>
0

>  <SCORE.INTER.ROT>
5

>  <SCORE.INTER.SOLV>
22.6851

>  <SCORE.INTER.VDW>
-15.2106

>  <SCORE.INTER.norm>
-0.0397553

>  <SCORE.INTRA>
1.77488

>  <SCORE.INTRA.DIHEDRAL>
10.2701

>  <SCORE.INTRA.DIHEDRAL.0>
2.68224

>  <SCORE.INTRA.POLAR>
0

>  <SCORE.INTRA.POLAR.0>
0

>  <SCORE.INTRA.REPUL>
0

>  <SCORE.INTRA.REPUL.0>
0

>  <SCORE.INTRA.SOLV>
-0.616871

>  <SCORE.INTRA.SOLV.lig_0>
-19.4148

>  <SCORE.INTRA.VDW>
-3.05172

>  <SCORE.INTRA.VDW.0>
5.42093

>  <SCORE.INTRA.norm>
0.0657364

>  <SCORE.RESTR>
3.10887

>  <SCORE.RESTR.CAVITY>
3.10887

>  <SCORE.RESTR.norm>
0.115143

>  <SCORE.SYSTEM>
0

>  <SCORE.SYSTEM.CONST>
0

>  <SCORE.SYSTEM.DIHEDRAL>
0

>  <SCORE.SYSTEM.SOLV>
0

>  <SCORE.SYSTEM.norm>
0

>  <SCORE.heavy>
27

>  <SCORE.norm>
0.141125

>  <RMSD>
19.499

$$$$
lig.pdb
 OpenBabel11021811523D
libRbt.so/2013.1/901 2013/11/27
 27 30  0  0  0  0  0  0  0  0999 V2000
   16.3010   25.2821   16.3170 N   0  0  0  0  0  0  0  0  0  0  0  0
   16.4821   26.5792   16.2876 C   0  0  0  0  0  0  0  0  0  0  0  0
   15.6848   27.4878   16.9040 N   0  0  0  0  0  0  0  0  0  0  0  0
   14.6372   27.0355   17.6557 C   0  0  0  0  0  0  0  0  0  0  0  0
   14.3904   25.6971   17.7656 C   0  0  0  0  0  0  0  0  0  0  0  0
   15.2390   24.7671   17.0594 C   0  0  0  0  0  0  0  0  0  0  0  0
   15.0470   23.5448   17.0677 O   0  0  0  0  0  0  0  0  0  0  0  0
   17.5367   27.2527   15.3823 C   0  0  2  0  0  0  0  0  0  0  0  0
   16.9406   27.0374   13.9817 C   0  0  0  0  0  0  0  0  0  0  0  0
   17.8954   27.3822   12.9269 N   0  0  0  0  0  0  0  0  0  0  0  0
   19.0638   26.4928   13.0266 C   0  0  0  0  0  0  0  0  0  0  0  0
   19.7860   26.6977   14.3437 C   0  0  0  0  0  0  0  0  0  0  0  0
   18.8500   26.4641   15.5214 C   0  0  0  0  0  0  0  0  0  0  0  0
   13.8983   28.1188   18.2902 C   0  0  0  0  0  0  0  0  0  0  0  0
   12.5860   27.8075   19.3655 S   0  0  0  0  0  0  0  0  0  0  0  0
   12.3052   29.4443   19.5957 C   0  0  0  0  0  0  0  0  0  0  0  0
   13.1889   30.2016   18.9334 C   0  0  0  0  0  0  0  0  0  0  0  0
   14.1088   29.4567   18.1700 C   0  0  0  0  0  0  0  0  0  0  0  0
   17.2924   27.2878   11.5857 C   0  0  0  0  0  0  0  0  0  0  0  0
   16.1950   26.2587   11.4316 C   0  0  0  0  0  0  0  0  0  0  0  0
   16.2772   25.2624   10.4696 C   0  0  0  0  0  0  0  0  0  0  0  0
   15.2276   24.5461   10.0278 N   0  0  0  0  0  0  0  0  0  0  0  0
   14.0676   24.8949   10.5638 C   0  0  0  0  0  0  0  0  0  0  0  0
   13.8252   25.8433   11.4544 N   0  0  0  0  0  0  0  0  0  0  0  0
   14.9086   26.5266   11.8522 C   0  0  0  0  0  0  0  0  0  0  0  0
   13.0250   24.1863   10.1154 O   0  0  0  0  0  0  0  0  0  0  0  0
   11.8543   24.1394   10.9393 C   0  0  0  0  0  0  0  0  0  0  0  0
  1  2  2  0  0  0  0
  1  6  1  0  0  0  0
  2  3  1  0  0  0  0
  3  4  2  0  0  0  0
  4 14  1  0  0  0  0
  5  4  1  0  0  0  0
  6  5  1  0  0  0  0
  7  6  2  0  0  0  0
  8  9  1  0  0  0  0
  8  2  1  1  0  0  0
 10 19  1  0  0  0  0
 10  9  1  0  0  0  0
 11 10  1  0  0  0  0
 12 11  1  0  0  0  0
 12 13  1  0  0  0  0
 13  8  1  0  0  0  0
 14 15  1  0  0  0  0
 14 18  2  0  0  0  0
 15 16  1  0  0  0  0
 16 17  2  0  0  0  0
 18 17  1  0  0  0  0
 19 20  1  0  0  0  0
 20 25  2  0  0  0  0
 20 21  1  0  0  0  0
 21 22  2  0  0  0  0
 22 23  1  0  0  0  0
 23 26  1  0  0  0  0
 24 23  2  0  0  0  0
 25 24  1  0  0  0  0
 26 27  1  0  0  0  0
M  END
>  <CHROM.1>
-176.43296604,69.82281890,-30.25055398,-123.78242390,158.13523147,15.29459236
26.51843693,14.87078266,-1.79460887,-0.13856338,-1.92966205

>  <Name>
lig.pdb

>  <RI>
0

>  <Rbt.Current_Directory>
/home/itssahil/PROJECTS/Mol_Feturizer/New_Systems/rnas/5kx9

>  <Rbt.Executable>
rbdock ($Id: //depot/dev/client3/rdock/2013.1/src/exe/rbdock.cxx#4 $)

>  <Rbt.Library>
libRbt.so (2013.1, Build901 2013/11/27)

>  <Rbt.Parameter_File>
/export/apps/rDock/src/rDock_2013.1_src/data/scripts/dock_solv.prm

>  <Rbt.Receptor>
prm/blind_docking_40.prm

>  <SCORE>
-6.82638

>  <SCORE.INTER>
-7.16875

>  <SCORE.INTER.CONST>
1

>  <SCORE.INTER.POLAR>
0

>  <SCORE.INTER.ROT>
5

>  <SCORE.INTER.SOLV>
22.2259

>  <SCORE.INTER.VDW>
-19.1211

>  <SCORE.INTER.norm>
-0.265509

>  <SCORE.INTRA>
-2.93546

>  <SCORE.INTRA.DIHEDRAL>
0.740801

>  <SCORE.INTRA.DIHEDRAL.0>
2.68224

>  <SCORE.INTRA.POLAR>
0

>  <SCORE.INTRA.POLAR.0>
0

>  <SCORE.INTRA.REPUL>
0

>  <SCORE.INTRA.REPUL.0>
0

>  <SCORE.INTRA.SOLV>
-0.553351

>  <SCORE.INTRA.SOLV.lig_0>
-19.4148

>  <SCORE.INTRA.VDW>
-3.02918

>  <SCORE.INTRA.VDW.0>
5.42093

>  <SCORE.INTRA.norm>
-0.108721

>  <SCORE.RESTR>
3.27782

>  <SCORE.RESTR.CAVITY>
3.27782

>  <SCORE.RESTR.norm>
0.121401

>  <SCORE.SYSTEM>
0

>  <SCORE.SYSTEM.CONST>
0

>  <SCORE.SYSTEM.DIHEDRAL>
0

>  <SCORE.SYSTEM.SOLV>
0

>  <SCORE.SYSTEM.norm>
0

>  <SCORE.heavy>
27

>  <SCORE.norm>
-0.252829

>  <RMSD>
19.567

$$$$
lig.pdb
 OpenBabel11021811523D
libRbt.so/2013.1/901 2013/11/27
 27 30  0  0  0  0  0  0  0  0999 V2000
   16.3044   25.4027   16.7775 N   0  0  0  0  0  0  0  0  0  0  0  0
   16.3486   26.6722   16.4571 C   0  0  0  0  0  0  0  0  0  0  0  0
   15.3661   27.5718   16.7148 N   0  0  0  0  0  0  0  0  0  0  0  0
   14.2604   27.1545   17.4006 C   0  0  0  0  0  0  0  0  0  0  0  0
   14.1426   25.8538   17.7992 C   0  0  0  0  0  0  0  0  0  0  0  0
   15.1929   24.9208   17.4676 C   0  0  0  0  0  0  0  0  0  0  0  0
   15.1336   23.7171   17.7480 O   0  0  0  0  0  0  0  0  0  0  0  0
   17.4638   27.2693   15.5708 C   0  0  2  0  0  0  0  0  0  0  0  0
   16.8848   27.0825   14.1589 C   0  0  0  0  0  0  0  0  0  0  0  0
   17.8822   27.3569   13.1230 N   0  0  0  0  0  0  0  0  0  0  0  0
   18.9881   26.3945   13.2535 C   0  0  0  0  0  0  0  0  0  0  0  0
   19.6939   26.5622   14.5847 C   0  0  0  0  0  0  0  0  0  0  0  0
   18.7199   26.3984   15.7432 C   0  0  0  0  0  0  0  0  0  0  0  0
   13.3134   28.2350   17.6411 C   0  0  0  0  0  0  0  0  0  0  0  0
   13.8101   29.7311   18.3410 S   0  0  0  0  0  0  0  0  0  0  0  0
   12.2483   30.3396   18.3008 C   0  0  0  0  0  0  0  0  0  0  0  0
   11.3900   29.4782   17.7402 C   0  0  0  0  0  0  0  0  0  0  0  0
   11.9831   28.2581   17.3613 C   0  0  0  0  0  0  0  0  0  0  0  0
   17.3031   27.2917   11.7696 C   0  0  0  0  0  0  0  0  0  0  0  0
   16.2059   26.2691   11.5750 C   0  0  0  0  0  0  0  0  0  0  0  0
   16.2867   25.3139   10.5721 C   0  0  0  0  0  0  0  0  0  0  0  0
   15.2366   24.6159   10.1030 N   0  0  0  0  0  0  0  0  0  0  0  0
   14.0775   24.9412   10.6554 C   0  0  0  0  0  0  0  0  0  0  0  0
   13.8365   25.8515   11.5853 N   0  0  0  0  0  0  0  0  0  0  0  0
   14.9203   26.5184   12.0090 C   0  0  0  0  0  0  0  0  0  0  0  0
   13.0344   24.2513   10.1800 O   0  0  0  0  0  0  0  0  0  0  0  0
   11.8785   24.1393   11.0184 C   0  0  0  0  0  0  0  0  0  0  0  0
  1  2  2  0  0  0  0
  1  6  1  0  0  0  0
  2  3  1  0  0  0  0
  3  4  2  0  0  0  0
  4 14  1  0  0  0  0
  5  4  1  0  0  0  0
  6  5  1  0  0  0  0
  7  6  2  0  0  0  0
  8  9  1  0  0  0  0
  8  2  1  1  0  0  0
 10 19  1  0  0  0  0
 10  9  1  0  0  0  0
 11 10  1  0  0  0  0
 12 11  1  0  0  0  0
 12 13  1  0  0  0  0
 13  8  1  0  0  0  0
 14 15  1  0  0  0  0
 14 18  2  0  0  0  0
 15 16  1  0  0  0  0
 16 17  2  0  0  0  0
 18 17  1  0  0  0  0
 19 20  1  0  0  0  0
 20 25  2  0  0  0  0
 20 21  1  0  0  0  0
 21 22  2  0  0  0  0
 22 23  1  0  0  0  0
 23 26  1  0  0  0  0
 24 23  2  0  0  0  0
 25 24  1  0  0  0  0
 26 27  1  0  0  0  0
M  END
>  <CHROM.1>
-51.11708752,88.74229536,-34.14017284,-125.46381634,156.52069044,15.19699946
26.67917720,14.78398799,-1.81089305,0.06094680,-1.97126103

>  <Name>
lig.pdb

>  <RI>
0

>  <Rbt.Current_Directory>
/home/itssahil/PROJECTS/Mol_Feturizer/New_Systems/rnas/5kx9

>  <Rbt.Executable>
rbdock ($Id: //depot/dev/client3/rdock/2013.1/src/exe/rbdock.cxx#4 $)

>  <Rbt.Library>
libRbt.so (2013.1, Build901 2013/11/27)

>  <Rbt.Parameter_File>
/export/apps/rDock/src/rDock_2013.1_src/data/scripts/dock_solv.prm

>  <Rbt.Receptor>
prm/blind_docking_40.prm

>  <SCORE>
-3.25384

>  <SCORE.INTER>
-6.42197

>  <SCORE.INTER.CONST>
1

>  <SCORE.INTER.POLAR>
0

>  <SCORE.INTER.ROT>
5

>  <SCORE.INTER.SOLV>
21.4788

>  <SCORE.INTER.VDW>
-18.3742

>  <SCORE.INTER.norm>
-0.237851

>  <SCORE.INTRA>
0.0749522

>  <SCORE.INTRA.DIHEDRAL>
7.61758

>  <SCORE.INTRA.DIHEDRAL.0>
2.68224

>  <SCORE.INTRA.POLAR>
0

>  <SCORE.INTRA.POLAR.0>
0

>  <SCORE.INTRA.REPUL>
0

>  <SCORE.INTRA.REPUL.0>
0

>  <SCORE.INTRA.SOLV>
-0.553243

>  <SCORE.INTRA.SOLV.lig_0>
-19.4148

>  <SCORE.INTRA.VDW>
-3.45721

>  <SCORE.INTRA.VDW.0>
5.42093

>  <SCORE.INTRA.norm>
0.00277601

>  <SCORE.RESTR>
3.09317

>  <SCORE.RESTR.CAVITY>
3.09317

>  <SCORE.RESTR.norm>
0.114562

>  <SCORE.SYSTEM>
0

>  <SCORE.SYSTEM.CONST>
0

>  <SCORE.SYSTEM.DIHEDRAL>
0

>  <SCORE.SYSTEM.SOLV>
0

>  <SCORE.SYSTEM.norm>
0

>  <SCORE.heavy>
27

>  <SCORE.norm>
-0.120513

>  <RMSD>
19.675

$$$$
lig.pdb
 OpenBabel11021811523D
libRbt.so/2013.1/901 2013/11/27
 27 30  0  0  0  0  0  0  0  0999 V2000
   16.0758   25.3395   16.3702 N   0  0  0  0  0  0  0  0  0  0  0  0
   16.0418   26.6246   16.1178 C   0  0  0  0  0  0  0  0  0  0  0  0
   15.1694   27.5016   16.6753 N   0  0  0  0  0  0  0  0  0  0  0  0
   14.2832   27.0398   17.6073 C   0  0  0  0  0  0  0  0  0  0  0  0
   14.2668   25.7190   17.9528 C   0  0  0  0  0  0  0  0  0  0  0  0
   15.1847   24.8130   17.3044 C   0  0  0  0  0  0  0  0  0  0  0  0
   15.1940   23.5957   17.5257 O   0  0  0  0  0  0  0  0  0  0  0  0
   16.8850   27.2766   15.0000 C   0  0  2  0  0  0  0  0  0  0  0  0
   16.9176   26.1676   13.9357 C   0  0  0  0  0  0  0  0  0  0  0  0
   17.8756   26.4668   12.8699 N   0  0  0  0  0  0  0  0  0  0  0  0
   19.2285   26.5360   13.4451 C   0  0  0  0  0  0  0  0  0  0  0  0
   19.3311   27.6701   14.4458 C   0  0  0  0  0  0  0  0  0  0  0  0
   18.2998   27.5144   15.5547 C   0  0  0  0  0  0  0  0  0  0  0  0
   13.4417   28.0987   18.1484 C   0  0  0  0  0  0  0  0  0  0  0  0
   12.4052   29.0341   17.1355 S   0  0  0  0  0  0  0  0  0  0  0  0
   11.8728   29.9585   18.4288 C   0  0  0  0  0  0  0  0  0  0  0  0
   12.4102   29.5551   19.5870 C   0  0  0  0  0  0  0  0  0  0  0  0
   13.3218   28.4908   19.4447 C   0  0  0  0  0  0  0  0  0  0  0  0
   17.8284   25.4655   11.7898 C   0  0  0  0  0  0  0  0  0  0  0  0
   16.4792   25.2720   11.1343 C   0  0  0  0  0  0  0  0  0  0  0  0
   15.7983   26.3398   10.5678 C   0  0  0  0  0  0  0  0  0  0  0  0
   14.4814   26.3396   10.2925 N   0  0  0  0  0  0  0  0  0  0  0  0
   13.8527   25.2286   10.6460 C   0  0  0  0  0  0  0  0  0  0  0  0
   14.3528   24.1502   11.2277 N   0  0  0  0  0  0  0  0  0  0  0  0
   15.6681   24.2116   11.4824 C   0  0  0  0  0  0  0  0  0  0  0  0
   12.5417   25.2357   10.3788 O   0  0  0  0  0  0  0  0  0  0  0  0
   11.7159   24.3111   11.0963 C   0  0  0  0  0  0  0  0  0  0  0  0
  1  2  2  0  0  0  0
  1  6  1  0  0  0  0
  2  3  1  0  0  0  0
  3  4  2  0  0  0  0
  4 14  1  0  0  0  0
  5  4  1  0  0  0  0
  6  5  1  0  0  0  0
  7  6  2  0  0  0  0
  8  9  1  0  0  0  0
  8  2  1  1  0  0  0
 10 19  1  0  0  0  0
 10  9  1  0  0  0  0
 11 10  1  0  0  0  0
 12 11  1  0  0  0  0
 12 13  1  0  0  0  0
 13  8  1  0  0  0  0
 14 15  1  0  0  0  0
 14 18  2  0  0  0  0
 15 16  1  0  0  0  0
 16 17  2  0  0  0  0
 18 17  1  0  0  0  0
 19 20  1  0  0  0  0
 20 25  2  0  0  0  0
 20 21  1  0  0  0  0
 21 22  2  0  0  0  0
 22 23  1  0  0  0  0
 23 26  1  0  0  0  0
 24 23  2  0  0  0  0
 25 24  1  0  0  0  0
 26 27  1  0  0  0  0
M  END
>  <CHROM.1>
59.96832582,33.48001035,56.92016693,55.99654351,-159.87864134,15.08861201
26.52779169,14.73969530,-1.85191800,0.05860952,-1.93982860

>  <Name>
lig.pdb

>  <RI>
0

>  <Rbt.Current_Directory>
/home/itssahil/PROJECTS/Mol_Feturizer/New_Systems/rnas/5kx9

>  <Rbt.Executable>
rbdock ($Id: //depot/dev/client3/rdock/2013.1/src/exe/rbdock.cxx#4 $)

>  <Rbt.Library>
libRbt.so (2013.1, Build901 2013/11/27)

>  <Rbt.Parameter_File>
/export/apps/rDock/src/rDock_2013.1_src/data/scripts/dock_solv.prm

>  <Rbt.Receptor>
prm/blind_docking_40.prm

>  <SCORE>
3.11412

>  <SCORE.INTER>
-0.79274

>  <SCORE.INTER.CONST>
1

>  <SCORE.INTER.POLAR>
0

>  <SCORE.INTER.ROT>
5

>  <SCORE.INTER.SOLV>
19.8391

>  <SCORE.INTER.VDW>
-14.0749

>  <SCORE.INTER.norm>
-0.0293607

>  <SCORE.INTRA>
-0.5668

>  <SCORE.INTRA.DIHEDRAL>
8.37841

>  <SCORE.INTRA.DIHEDRAL.0>
2.68224

>  <SCORE.INTRA.POLAR>
0

>  <SCORE.INTRA.POLAR.0>
0

>  <SCORE.INTRA.REPUL>
0

>  <SCORE.INTRA.REPUL.0>
0

>  <SCORE.INTRA.SOLV>
-0.430799

>  <SCORE.INTRA.SOLV.lig_0>
-19.4148

>  <SCORE.INTRA.VDW>
-4.5406

>  <SCORE.INTRA.VDW.0>
5.42093

>  <SCORE.INTRA.norm>
-0.0209926

>  <SCORE.RESTR>
4.47366

>  <SCORE.RESTR.CAVITY>
4.47366

>  <SCORE.RESTR.norm>
0.165691

>  <SCORE.SYSTEM>
0

>  <SCORE.SYSTEM.CONST>
0

>  <SCORE.SYSTEM.DIHEDRAL>
0

>  <SCORE.SYSTEM.SOLV>
0

>  <SCORE.SYSTEM.norm>
0

>  <SCORE.heavy>
27

>  <SCORE.norm>
0.115338

>  <RMSD>
19.783

$$$$
lig.pdb
 OpenBabel11021811523D
libRbt.so/2013.1/901 2013/11/27
 27 30  0  0  0  0  0  0  0  0999 V2000
   18.2190   26.1409   10.9199 N   0  0  0  0  0  0  0  0  0  0  0  0
   17.5076   25.7105   11.9322 C   0  0  0  0  0  0  0  0  0  0  0  0
   16.2160   25.3022   11.8546 N   0  0  0  0  0  0  0  0  0  0  0  0
   15.6075   25.2857   10.6313 C   0  0  0  0  0  0  0  0  0  0  0  0
   16.2831   25.6909    9.5161 C   0  0  0  0  0  0  0  0  0  0  0  0
   17.6427   26.1570    9.6504 C   0  0  0  0  0  0  0  0  0  0  0  0
   18.3009   26.5887    8.6958 O   0  0  0  0  0  0  0  0  0  0  0  0
   18.0042   25.7891   13.3926 C   0  0  2  0  0  0  0  0  0  0  0  0
   16.7149   25.5163   14.1842 C   0  0  0  0  0  0  0  0  0  0  0  0
   16.8890   25.7830   15.6131 N   0  0  0  0  0  0  0  0  0  0  0  0
   17.2029   27.2085   15.8013 C   0  0  0  0  0  0  0  0  0  0  0  0
   18.5175   27.5632   15.1348 C   0  0  0  0  0  0  0  0  0  0  0  0
   18.4846   27.2274   13.6502 C   0  0  0  0  0  0  0  0  0  0  0  0
   14.2409   24.7852   10.6956 C   0  0  0  0  0  0  0  0  0  0  0  0
   13.8239   23.2208   10.1008 S   0  0  0  0  0  0  0  0  0  0  0  0
   12.2081   23.4340   10.4939 C   0  0  0  0  0  0  0  0  0  0  0  0
   11.9900   24.6113   11.0933 C   0  0  0  0  0  0  0  0  0  0  0  0
   13.1468   25.4062   11.2112 C   0  0  0  0  0  0  0  0  0  0  0  0
   15.6937   25.4142   16.3919 C   0  0  0  0  0  0  0  0  0  0  0  0
   14.6815   26.5184   16.6010 C   0  0  0  0  0  0  0  0  0  0  0  0
   14.8820   27.5020   17.5586 C   0  0  0  0  0  0  0  0  0  0  0  0
   13.9094   28.2894   18.0525 N   0  0  0  0  0  0  0  0  0  0  0  0
   12.7024   28.0267   17.5742 C   0  0  0  0  0  0  0  0  0  0  0  0
   12.3493   27.1019   16.6958 N   0  0  0  0  0  0  0  0  0  0  0  0
   13.3601   26.3448   16.2443 C   0  0  0  0  0  0  0  0  0  0  0  0
   11.7365   28.8058   18.0743 O   0  0  0  0  0  0  0  0  0  0  0  0
   11.8354   30.2151   17.8381 C   0  0  0  0  0  0  0  0  0  0  0  0
  1  2  2  0  0  0  0
  1  6  1  0  0  0  0
  2  3  1  0  0  0  0
  3  4  2  0  0  0  0
  4 14  1  0  0  0  0
  5  4  1  0  0  0  0
  6  5  1  0  0  0  0
  7  6  2  0  0  0  0
  8  9  1  0  0  0  0
  8  2  1  6  0  0  0
 10 19  1  0  0  0  0
 10  9  1  0  0  0  0
 11 10  1  0  0  0  0
 12 11  1  0  0  0  0
 12 13  1  0  0  0  0
 13  8  1  0  0  0  0
 14 15  1  0  0  0  0
 14 18  2  0  0  0  0
 15 16  1  0  0  0  0
 16 17  2  0  0  0  0
 18 17  1  0  0  0  0
 19 20  1  0  0  0  0
 20 25  2  0  0  0  0
 20 21  1  0  0  0  0
 21 22  2  0  0  0  0
 22 23  1  0  0  0  0
 23 26  1  0  0  0  0
 24 23  2  0  0  0  0
 25 24  1  0  0  0  0
 26 27  1  0  0  0  0
M  END
>  <CHROM.1>
-106.77735157,166.05185488,-91.80793145,-78.52836822,61.50795143,15.20227931
26.18225361,13.55993595,-1.27267199,0.17523849,1.12702993

>  <Name>
lig.pdb

>  <RI>
0

>  <Rbt.Current_Directory>
/home/itssahil/PROJECTS/Mol_Feturizer/New_Systems/rnas/5kx9

>  <Rbt.Executable>
rbdock ($Id: //depot/dev/client3/rdock/2013.1/src/exe/rbdock.cxx#4 $)

>  <Rbt.Library>
libRbt.so (2013.1, Build901 2013/11/27)

>  <Rbt.Parameter_File>
/export/apps/rDock/src/rDock_2013.1_src/data/scripts/dock_solv.prm

>  <Rbt.Receptor>
prm/blind_docking_40.prm

>  <SCORE>
4.56088

>  <SCORE.INTER>
-5.98624

>  <SCORE.INTER.CONST>
1

>  <SCORE.INTER.POLAR>
0

>  <SCORE.INTER.ROT>
5

>  <SCORE.INTER.SOLV>
16.1733

>  <SCORE.INTER.VDW>
-16.3153

>  <SCORE.INTER.norm>
-0.221713

>  <SCORE.INTRA>
8.48581

>  <SCORE.INTRA.DIHEDRAL>
14.3365

>  <SCORE.INTRA.DIHEDRAL.0>
2.68224

>  <SCORE.INTRA.POLAR>
0

>  <SCORE.INTRA.POLAR.0>
0

>  <SCORE.INTRA.REPUL>
0

>  <SCORE.INTRA.REPUL.0>
0

>  <SCORE.INTRA.SOLV>
-0.516347

>  <SCORE.INTRA.SOLV.lig_0>
-19.4148

>  <SCORE.INTRA.VDW>
1.57574

>  <SCORE.INTRA.VDW.0>
5.42093

>  <SCORE.INTRA.norm>
0.314289

>  <SCORE.RESTR>
2.06131

>  <SCORE.RESTR.CAVITY>
2.06131

>  <SCORE.RESTR.norm>
0.0763449

>  <SCORE.SYSTEM>
0

>  <SCORE.SYSTEM.CONST>
0

>  <SCORE.SYSTEM.DIHEDRAL>
0

>  <SCORE.SYSTEM.SOLV>
0

>  <SCORE.SYSTEM.norm>
0

>  <SCORE.heavy>
27

>  <SCORE.norm>
0.168921

>  <RMSD>
20.109

$$$$
lig.pdb
 OpenBabel11021811523D
libRbt.so/2013.1/901 2013/11/27
 27 30  0  0  0  0  0  0  0  0999 V2000
   17.1612   27.0224   12.5201 N   0  0  0  0  0  0  0  0  0  0  0  0
   16.4721   26.1964   13.2678 C   0  0  0  0  0  0  0  0  0  0  0  0
   15.2691   25.6662   12.9322 N   0  0  0  0  0  0  0  0  0  0  0  0
   14.7412   25.9649   11.7078 C   0  0  0  0  0  0  0  0  0  0  0  0
   15.4050   26.7957   10.8513 C   0  0  0  0  0  0  0  0  0  0  0  0
   16.6624   27.3709   11.2656 C   0  0  0  0  0  0  0  0  0  0  0  0
   17.2957   28.1722   10.5673 O   0  0  0  0  0  0  0  0  0  0  0  0
   16.8664   25.8642   14.7238 C   0  0  2  0  0  0  0  0  0  0  0  0
   15.4953   25.6531   15.3864 C   0  0  0  0  0  0  0  0  0  0  0  0
   15.6050   25.5644   16.8435 N   0  0  0  0  0  0  0  0  0  0  0  0
   16.1310   26.8366   17.3643 C   0  0  0  0  0  0  0  0  0  0  0  0
   17.5309   27.0945   16.8429 C   0  0  0  0  0  0  0  0  0  0  0  0
   17.5532   27.1043   15.3207 C   0  0  0  0  0  0  0  0  0  0  0  0
   13.4711   25.2923   11.4696 C   0  0  0  0  0  0  0  0  0  0  0  0
   12.5465   24.6255   12.7641 S   0  0  0  0  0  0  0  0  0  0  0  0
   11.3655   24.0654   11.7142 C   0  0  0  0  0  0  0  0  0  0  0  0
   11.6231   24.4042   10.4446 C   0  0  0  0  0  0  0  0  0  0  0  0
   12.8347   25.1040   10.2830 C   0  0  0  0  0  0  0  0  0  0  0  0
   14.3119   25.2476   17.4750 C   0  0  0  0  0  0  0  0  0  0  0  0
   13.3253   26.3909   17.5573 C   0  0  0  0  0  0  0  0  0  0  0  0
   12.9852   27.1261   16.4310 C   0  0  0  0  0  0  0  0  0  0  0  0
   12.4168   28.3450   16.4638 N   0  0  0  0  0  0  0  0  0  0  0  0
   12.2334   28.8262   17.6842 C   0  0  0  0  0  0  0  0  0  0  0  0
   12.5407   28.2668   18.8435 N   0  0  0  0  0  0  0  0  0  0  0  0
   13.1096   27.0561   18.7466 C   0  0  0  0  0  0  0  0  0  0  0  0
   11.6762   30.0422   17.7125 O   0  0  0  0  0  0  0  0  0  0  0  0
   10.5706   30.2421   18.6010 C   0  0  0  0  0  0  0  0  0  0  0  0
  1  2  2  0  0  0  0
  1  6  1  0  0  0  0
  2  3  1  0  0  0  0
  3  4  2  0  0  0  0
  4 14  1  0  0  0  0
  5  4  1  0  0  0  0
  6  5  1  0  0  0  0
  7  6  2  0  0  0  0
  8  9  1  0  0  0  0
  8  2  1  6  0  0  0
 10 19  1  0  0  0  0
 10  9  1  0  0  0  0
 11 10  1  0  0  0  0
 12 11  1  0  0  0  0
 12 13  1  0  0  0  0
 13  8  1  0  0  0  0
 14 15  1  0  0  0  0
 14 18  2  0  0  0  0
 15 16  1  0  0  0  0
 16 17  2  0  0  0  0
 18 17  1  0  0  0  0
 19 20  1  0  0  0  0
 20 25  2  0  0  0  0
 20 21  1  0  0  0  0
 21 22  2  0  0  0  0
 22 23  1  0  0  0  0
 23 26  1  0  0  0  0
 24 23  2  0  0  0  0
 25 24  1  0  0  0  0
 26 27  1  0  0  0  0
M  END
>  <CHROM.1>
17.76900780,146.83729059,-75.98771378,52.45010499,131.89449344,14.26240238
26.63410860,14.61539489,-1.32087980,0.07573255,1.20332053

>  <Name>
lig.pdb

>  <RI>
0

>  <Rbt.Current_Directory>
/home/itssahil/PROJECTS/Mol_Feturizer/New_Systems/rnas/5kx9

>  <Rbt.Executable>
rbdock ($Id: //depot/dev/client3/rdock/2013.1/src/exe/rbdock.cxx#4 $)

>  <Rbt.Library>
libRbt.so (2013.1, Build901 2013/11/27)

>  <Rbt.Parameter_File>
/export/apps/rDock/src/rDock_2013.1_src/data/scripts/dock_solv.prm

>  <Rbt.Receptor>
prm/blind_docking_40.prm

>  <SCORE>
-8.46358

>  <SCORE.INTER>
-11.6204

>  <SCORE.INTER.CONST>
1

>  <SCORE.INTER.POLAR>
0

>  <SCORE.INTER.ROT>
5

>  <SCORE.INTER.SOLV>
17.4183

>  <SCORE.INTER.VDW>
-20.4864

>  <SCORE.INTER.norm>
-0.430385

>  <SCORE.INTRA>
0.293692

>  <SCORE.INTRA.DIHEDRAL>
3.38349

>  <SCORE.INTRA.DIHEDRAL.0>
2.68224

>  <SCORE.INTRA.POLAR>
0

>  <SCORE.INTRA.POLAR.0>
0

>  <SCORE.INTRA.REPUL>
0

>  <SCORE.INTRA.REPUL.0>
0

>  <SCORE.INTRA.SOLV>
-0.117605

>  <SCORE.INTRA.SOLV.lig_0>
-19.4148

>  <SCORE.INTRA.VDW>
-1.33925

>  <SCORE.INTRA.VDW.0>
5.42093

>  <SCORE.INTRA.norm>
0.0108775

>  <SCORE.RESTR>
2.86313

>  <SCORE.RESTR.CAVITY>
2.86313

>  <SCORE.RESTR.norm>
0.106042

>  <SCORE.SYSTEM>
0

>  <SCORE.SYSTEM.CONST>
0

>  <SCORE.SYSTEM.DIHEDRAL>
0

>  <SCORE.SYSTEM.SOLV>
0

>  <SCORE.SYSTEM.norm>
0

>  <SCORE.heavy>
27

>  <SCORE.norm>
-0.313466

>  <RMSD>
20.152

$$$$
lig.pdb
 OpenBabel11021811523D
libRbt.so/2013.1/901 2013/11/27
 27 30  0  0  0  0  0  0  0  0999 V2000
   17.1743   27.0528   12.4479 N   0  0  0  0  0  0  0  0  0  0  0  0
   16.5005   26.2263   13.2089 C   0  0  0  0  0  0  0  0  0  0  0  0
   15.2915   25.6953   12.8968 N   0  0  0  0  0  0  0  0  0  0  0  0
   14.7394   25.9939   11.6831 C   0  0  0  0  0  0  0  0  0  0  0  0
   15.3858   26.8252   10.8138 C   0  0  0  0  0  0  0  0  0  0  0  0
   16.6508   27.4011   11.2034 C   0  0  0  0  0  0  0  0  0  0  0  0
   17.2697   28.2029   10.4929 O   0  0  0  0  0  0  0  0  0  0  0  0
   16.9235   25.8943   14.6568 C   0  0  2  0  0  0  0  0  0  0  0  0
   15.5670   25.6539   15.3393 C   0  0  0  0  0  0  0  0  0  0  0  0
   15.7009   25.5600   16.7941 N   0  0  0  0  0  0  0  0  0  0  0  0
   16.2109   26.8392   17.3135 C   0  0  0  0  0  0  0  0  0  0  0  0
   17.5976   27.1261   16.7720 C   0  0  0  0  0  0  0  0  0  0  0  0
   17.5960   27.1441   15.2497 C   0  0  0  0  0  0  0  0  0  0  0  0
   13.4654   25.3205   11.4698 C   0  0  0  0  0  0  0  0  0  0  0  0
   12.5123   24.7531   12.7908 S   0  0  0  0  0  0  0  0  0  0  0  0
   11.3416   24.1359   11.7616 C   0  0  0  0  0  0  0  0  0  0  0  0
   11.6234   24.3850   10.4765 C   0  0  0  0  0  0  0  0  0  0  0  0
   12.8457   25.0590   10.2882 C   0  0  0  0  0  0  0  0  0  0  0  0
   14.4239   25.2156   17.4437 C   0  0  0  0  0  0  0  0  0  0  0  0
   13.3927   26.3211   17.4887 C   0  0  0  0  0  0  0  0  0  0  0  0
   12.9488   26.9343   16.3262 C   0  0  0  0  0  0  0  0  0  0  0  0
   12.3278   28.1271   16.2873 N   0  0  0  0  0  0  0  0  0  0  0  0
   12.1996   28.7116   17.4690 C   0  0  0  0  0  0  0  0  0  0  0  0
   12.6047   28.2749   18.6508 N   0  0  0  0  0  0  0  0  0  0  0  0
   13.2217   27.0843   18.6252 C   0  0  0  0  0  0  0  0  0  0  0  0
   11.5896   29.9016   17.4252 O   0  0  0  0  0  0  0  0  0  0  0  0
   10.4964   30.1175   18.3251 C   0  0  0  0  0  0  0  0  0  0  0  0
  1  2  2  0  0  0  0
  1  6  1  0  0  0  0
  2  3  1  0  0  0  0
  3  4  2  0  0  0  0
  4 14  1  0  0  0  0
  5  4  1  0  0  0  0
  6  5  1  0  0  0  0
  7  6  2  0  0  0  0
  8  9  1  0  0  0  0
  8  2  1  6  0  0  0
 10 19  1  0  0  0  0
 10  9  1  0  0  0  0
 11 10  1  0  0  0  0
 12 11  1  0  0  0  0
 12 13  1  0  0  0  0
 13  8  1  0  0  0  0
 14 15  1  0  0  0  0
 14 18  2  0  0  0  0
 15 16  1  0  0  0  0
 16 17  2  0  0  0  0
 18 17  1  0  0  0  0
 19 20  1  0  0  0  0
 20 25  2  0  0  0  0
 20 21  1  0  0  0  0
 21 22  2  0  0  0  0
 22 23  1  0  0  0  0
 23 26  1  0  0  0  0
 24 23  2  0  0  0  0
 25 24  1  0  0  0  0
 26 27  1  0  0  0  0
M  END
>  <CHROM.1>
22.22506603,147.94541307,-73.20121771,57.11119373,129.28027043,14.27419856
26.62589330,14.54068751,-1.30947805,0.06433493,1.22348183

>  <Name>
lig.pdb

>  <RI>
0

>  <Rbt.Current_Directory>
/home/itssahil/PROJECTS/Mol_Feturizer/New_Systems/rnas/5kx9

>  <Rbt.Executable>
rbdock ($Id: //depot/dev/client3/rdock/2013.1/src/exe/rbdock.cxx#4 $)

>  <Rbt.Library>
libRbt.so (2013.1, Build901 2013/11/27)

>  <Rbt.Parameter_File>
/export/apps/rDock/src/rDock_2013.1_src/data/scripts/dock_solv.prm

>  <Rbt.Receptor>
prm/blind_docking_40.prm

>  <SCORE>
-8.30308

>  <SCORE.INTER>
-11.5852

>  <SCORE.INTER.CONST>
1

>  <SCORE.INTER.POLAR>
0

>  <SCORE.INTER.ROT>
5

>  <SCORE.INTER.SOLV>
17.2535

>  <SCORE.INTER.VDW>
-20.408

>  <SCORE.INTER.norm>
-0.429083

>  <SCORE.INTRA>
0.42973

>  <SCORE.INTRA.DIHEDRAL>
4.12625

>  <SCORE.INTRA.DIHEDRAL.0>
2.68224

>  <SCORE.INTRA.POLAR>
0

>  <SCORE.INTRA.POLAR.0>
0

>  <SCORE.INTRA.REPUL>
0

>  <SCORE.INTRA.REPUL.0>
0

>  <SCORE.INTRA.SOLV>
-0.113798

>  <SCORE.INTRA.SOLV.lig_0>
-19.4148

>  <SCORE.INTRA.VDW>
-1.5765

>  <SCORE.INTRA.VDW.0>
5.42093

>  <SCORE.INTRA.norm>
0.0159159

>  <SCORE.RESTR>
2.85243

>  <SCORE.RESTR.CAVITY>
2.85243

>  <SCORE.RESTR.norm>
0.105646

>  <SCORE.SYSTEM>
0

>  <SCORE.SYSTEM.CONST>
0

>  <SCORE.SYSTEM.DIHEDRAL>
0

>  <SCORE.SYSTEM.SOLV>
0

>  <SCORE.SYSTEM.norm>
0

>  <SCORE.heavy>
27

>  <SCORE.norm>
-0.307521

>  <RMSD>
20.178

$$$$
lig.pdb
 OpenBabel11021811523D
libRbt.so/2013.1/901 2013/11/27
 27 30  0  0  0  0  0  0  0  0999 V2000
   17.2235   26.8058   12.6660 N   0  0  0  0  0  0  0  0  0  0  0  0
   16.4557   26.0559   13.4172 C   0  0  0  0  0  0  0  0  0  0  0  0
   15.2377   25.5823   13.0521 N   0  0  0  0  0  0  0  0  0  0  0  0
   14.7795   25.8564   11.7943 C   0  0  0  0  0  0  0  0  0  0  0  0
   15.5267   26.6078   10.9333 C   0  0  0  0  0  0  0  0  0  0  0  0
   16.7985   27.1264   11.3774 C   0  0  0  0  0  0  0  0  0  0  0  0
   17.5070   27.8574   10.6741 O   0  0  0  0  0  0  0  0  0  0  0  0
   16.7692   25.7667   14.9017 C   0  0  2  0  0  0  0  0  0  0  0  0
   15.3867   25.9199   15.5564 C   0  0  0  0  0  0  0  0  0  0  0  0
   15.4767   25.9305   17.0176 N   0  0  0  0  0  0  0  0  0  0  0  0
   16.2729   27.0934   17.4418 C   0  0  0  0  0  0  0  0  0  0  0  0
   17.6941   26.9909   16.9245 C   0  0  0  0  0  0  0  0  0  0  0  0
   17.7151   26.8692   15.4071 C   0  0  0  0  0  0  0  0  0  0  0  0
   13.4820   25.2491   11.5296 C   0  0  0  0  0  0  0  0  0  0  0  0
   12.3330   24.9900   12.7897 S   0  0  0  0  0  0  0  0  0  0  0  0
   11.2380   24.2885   11.7314 C   0  0  0  0  0  0  0  0  0  0  0  0
   11.6896   24.2894   10.4709 C   0  0  0  0  0  0  0  0  0  0  0  0
   12.9828   24.8312   10.3360 C   0  0  0  0  0  0  0  0  0  0  0  0
   14.1467   25.9612   17.6512 C   0  0  0  0  0  0  0  0  0  0  0  0
   13.3513   27.2307   17.4437 C   0  0  0  0  0  0  0  0  0  0  0  0
   13.3082   28.2164   18.4190 C   0  0  0  0  0  0  0  0  0  0  0  0
   12.3743   29.1829   18.4800 N   0  0  0  0  0  0  0  0  0  0  0  0
   11.4476   29.1032   17.5369 C   0  0  0  0  0  0  0  0  0  0  0  0
   11.3320   28.2055   16.5714 N   0  0  0  0  0  0  0  0  0  0  0  0
   12.2878   27.2646   16.5655 C   0  0  0  0  0  0  0  0  0  0  0  0
   10.5157   30.0607   17.6062 O   0  0  0  0  0  0  0  0  0  0  0  0
    9.4610   29.8888   18.5599 C   0  0  0  0  0  0  0  0  0  0  0  0
  1  2  2  0  0  0  0
  1  6  1  0  0  0  0
  2  3  1  0  0  0  0
  3  4  2  0  0  0  0
  4 14  1  0  0  0  0
  5  4  1  0  0  0  0
  6  5  1  0  0  0  0
  7  6  2  0  0  0  0
  8  9  1  0  0  0  0
  8  2  1  6  0  0  0
 10 19  1  0  0  0  0
 10  9  1  0  0  0  0
 11 10  1  0  0  0  0
 12 11  1  0  0  0  0
 12 13  1  0  0  0  0
 13  8  1  0  0  0  0
 14 15  1  0  0  0  0
 14 18  2  0  0  0  0
 15 16  1  0  0  0  0
 16 17  2  0  0  0  0
 18 17  1  0  0  0  0
 19 20  1  0  0  0  0
 20 25  2  0  0  0  0
 20 21  1  0  0  0  0
 21 22  2  0  0  0  0
 22 23  1  0  0  0  0
 23 26  1  0  0  0  0
 24 23  2  0  0  0  0
 25 24  1  0  0  0  0
 26 27  1  0  0  0  0
M  END
>  <CHROM.1>
30.39942182,136.95298305,-67.11203120,-99.05365203,-80.07360933,14.08792321
26.74848269,14.65467362,-1.15694750,-0.03187233,1.16619061

>  <Name>
lig.pdb

>  <RI>
0

>  <Rbt.Current_Directory>
/home/itssahil/PROJECTS/Mol_Feturizer/New_Systems/rnas/5kx9

>  <Rbt.Executable>
rbdock ($Id: //depot/dev/client3/rdock/2013.1/src/exe/rbdock.cxx#4 $)

>  <Rbt.Library>
libRbt.so (2013.1, Build901 2013/11/27)

>  <Rbt.Parameter_File>
/export/apps/rDock/src/rDock_2013.1_src/data/scripts/dock_solv.prm

>  <Rbt.Receptor>
prm/blind_docking_40.prm

>  <SCORE>
-10.2132

>  <SCORE.INTER>
-11.6143

>  <SCORE.INTER.CONST>
1

>  <SCORE.INTER.POLAR>
0

>  <SCORE.INTER.ROT>
5

>  <SCORE.INTER.SOLV>
15.804

>  <SCORE.INTER.VDW>
-19.9442

>  <SCORE.INTER.norm>
-0.430158

>  <SCORE.INTRA>
-0.729948

>  <SCORE.INTRA.DIHEDRAL>
6.3206

>  <SCORE.INTRA.DIHEDRAL.0>
2.68224

>  <SCORE.INTRA.POLAR>
0

>  <SCORE.INTRA.POLAR.0>
0

>  <SCORE.INTRA.REPUL>
0

>  <SCORE.INTRA.REPUL.0>
0

>  <SCORE.INTRA.SOLV>
-0.50251

>  <SCORE.INTRA.SOLV.lig_0>
-19.4148

>  <SCORE.INTRA.VDW>
-3.63899

>  <SCORE.INTRA.VDW.0>
5.42093

>  <SCORE.INTRA.norm>
-0.0270351

>  <SCORE.RESTR>
2.13101

>  <SCORE.RESTR.CAVITY>
2.13101

>  <SCORE.RESTR.norm>
0.0789265

>  <SCORE.SYSTEM>
0

>  <SCORE.SYSTEM.CONST>
0

>  <SCORE.SYSTEM.DIHEDRAL>
0

>  <SCORE.SYSTEM.SOLV>
0

>  <SCORE.SYSTEM.norm>
0

>  <SCORE.heavy>
27

>  <SCORE.norm>
-0.378267

>  <RMSD>
20.191

$$$$
lig.pdb
 OpenBabel11021811523D
libRbt.so/2013.1/901 2013/11/27
 27 30  0  0  0  0  0  0  0  0999 V2000
   17.4318   26.3836   12.4886 N   0  0  0  0  0  0  0  0  0  0  0  0
   16.6080   25.8039   13.3260 C   0  0  0  0  0  0  0  0  0  0  0  0
   15.3366   25.4324   13.0314 N   0  0  0  0  0  0  0  0  0  0  0  0
   14.8771   25.6247   11.7590 C   0  0  0  0  0  0  0  0  0  0  0  0
   15.6778   26.1969   10.8125 C   0  0  0  0  0  0  0  0  0  0  0  0
   17.0096   26.6152   11.1801 C   0  0  0  0  0  0  0  0  0  0  0  0
   17.7738   27.1876   10.3932 O   0  0  0  0  0  0  0  0  0  0  0  0
   16.9281   25.6357   14.8277 C   0  0  2  0  0  0  0  0  0  0  0  0
   15.5377   25.7749   15.4687 C   0  0  0  0  0  0  0  0  0  0  0  0
   15.6215   25.8941   16.9254 N   0  0  0  0  0  0  0  0  0  0  0  0
   16.3647   27.1181   17.2656 C   0  0  0  0  0  0  0  0  0  0  0  0
   17.7911   27.0410   16.7580 C   0  0  0  0  0  0  0  0  0  0  0  0
   17.8232   26.8120   15.2533 C   0  0  0  0  0  0  0  0  0  0  0  0
   13.5151   25.1402   11.5795 C   0  0  0  0  0  0  0  0  0  0  0  0
   13.1053   24.0506   10.3067 S   0  0  0  0  0  0  0  0  0  0  0  0
   11.4913   24.0307   10.7597 C   0  0  0  0  0  0  0  0  0  0  0  0
   11.2691   24.7719   11.8525 C   0  0  0  0  0  0  0  0  0  0  0  0
   12.4206   25.4245   12.3343 C   0  0  0  0  0  0  0  0  0  0  0  0
   14.2890   25.9120   17.5543 C   0  0  0  0  0  0  0  0  0  0  0  0
   13.4844   27.1760   17.3486 C   0  0  0  0  0  0  0  0  0  0  0  0
   13.6529   28.2753   18.1779 C   0  0  0  0  0  0  0  0  0  0  0  0
   12.7634   29.2772   18.2996 N   0  0  0  0  0  0  0  0  0  0  0  0
   11.6635   29.1176   17.5789 C   0  0  0  0  0  0  0  0  0  0  0  0
   11.3427   28.1129   16.7795 N   0  0  0  0  0  0  0  0  0  0  0  0
   12.2652   27.1424   16.7037 C   0  0  0  0  0  0  0  0  0  0  0  0
   10.7774   30.1116   17.7094 O   0  0  0  0  0  0  0  0  0  0  0  0
    9.4028   29.7522   17.8904 C   0  0  0  0  0  0  0  0  0  0  0  0
  1  2  2  0  0  0  0
  1  6  1  0  0  0  0
  2  3  1  0  0  0  0
  3  4  2  0  0  0  0
  4 14  1  0  0  0  0
  5  4  1  0  0  0  0
  6  5  1  0  0  0  0
  7  6  2  0  0  0  0
  8  9  1  0  0  0  0
  8  2  1  6  0  0  0
 10 19  1  0  0  0  0
 10  9  1  0  0  0  0
 11 10  1  0  0  0  0
 12 11  1  0  0  0  0
 12 13  1  0  0  0  0
 13  8  1  0  0  0  0
 14 15  1  0  0  0  0
 14 18  2  0  0  0  0
 15 16  1  0  0  0  0
 16 17  2  0  0  0  0
 18 17  1  0  0  0  0
 19 20  1  0  0  0  0
 20 25  2  0  0  0  0
 20 21  1  0  0  0  0
 21 22  2  0  0  0  0
 22 23  1  0  0  0  0
 23 26  1  0  0  0  0
 24 23  2  0  0  0  0
 25 24  1  0  0  0  0
 26 27  1  0  0  0  0
M  END
>  <CHROM.1>
-127.37884582,146.01919240,-71.90035173,-84.88524671,-134.75279369,14.24845883
26.58045453,14.44000776,-1.21360489,-0.05693218,1.13327398

>  <Name>
lig.pdb

>  <RI>
0

>  <Rbt.Current_Directory>
/home/itssahil/PROJECTS/Mol_Feturizer/New_Systems/rnas/5kx9

>  <Rbt.Executable>
rbdock ($Id: //depot/dev/client3/rdock/2013.1/src/exe/rbdock.cxx#4 $)

>  <Rbt.Library>
libRbt.so (2013.1, Build901 2013/11/27)

>  <Rbt.Parameter_File>
/export/apps/rDock/src/rDock_2013.1_src/data/scripts/dock_solv.prm

>  <Rbt.Receptor>
prm/blind_docking_40.prm

>  <SCORE>
-4.46848

>  <SCORE.INTER>
-9.00882

>  <SCORE.INTER.CONST>
1

>  <SCORE.INTER.POLAR>
0

>  <SCORE.INTER.ROT>
5

>  <SCORE.INTER.SOLV>
15.2592

>  <SCORE.INTER.VDW>
-18.0256

>  <SCORE.INTER.norm>
-0.33366

>  <SCORE.INTRA>
2.59472

>  <SCORE.INTRA.DIHEDRAL>
8.61708

>  <SCORE.INTRA.DIHEDRAL.0>
2.68224

>  <SCORE.INTRA.POLAR>
0

>  <SCORE.INTRA.POLAR.0>
0

>  <SCORE.INTRA.REPUL>
0

>  <SCORE.INTRA.REPUL.0>
0

>  <SCORE.INTRA.SOLV>
-0.551467

>  <SCORE.INTRA.SOLV.lig_0>
-19.4148

>  <SCORE.INTRA.VDW>
-1.43809

>  <SCORE.INTRA.VDW.0>
5.42093

>  <SCORE.INTRA.norm>
0.0961008

>  <SCORE.RESTR>
1.94561

>  <SCORE.RESTR.CAVITY>
1.94561

>  <SCORE.RESTR.norm>
0.0720597

>  <SCORE.SYSTEM>
0

>  <SCORE.SYSTEM.CONST>
0

>  <SCORE.SYSTEM.DIHEDRAL>
0

>  <SCORE.SYSTEM.SOLV>
0

>  <SCORE.SYSTEM.norm>
0

>  <SCORE.heavy>
27

>  <SCORE.norm>
-0.165499

>  <RMSD>
20.193

$$$$
lig.pdb
 OpenBabel11021811523D
libRbt.so/2013.1/901 2013/11/27
 27 30  0  0  0  0  0  0  0  0999 V2000
   17.2735   27.0892   12.7301 N   0  0  0  0  0  0  0  0  0  0  0  0
   16.6141   26.1322   13.3347 C   0  0  0  0  0  0  0  0  0  0  0  0
   15.5685   25.4529   12.7996 N   0  0  0  0  0  0  0  0  0  0  0  0
   15.1890   25.7395   11.5186 C   0  0  0  0  0  0  0  0  0  0  0  0
   15.8391   26.7036   10.8028 C   0  0  0  0  0  0  0  0  0  0  0  0
   16.9194   27.4308   11.4256 C   0  0  0  0  0  0  0  0  0  0  0  0
   17.5206   28.3527   10.8603 O   0  0  0  0  0  0  0  0  0  0  0  0
   16.8337   25.7805   14.8226 C   0  0  2  0  0  0  0  0  0  0  0  0
   15.4154   25.9245   15.3981 C   0  0  0  0  0  0  0  0  0  0  0  0
   15.4163   25.8759   16.8613 N   0  0  0  0  0  0  0  0  0  0  0  0
   16.1965   27.0113   17.3794 C   0  0  0  0  0  0  0  0  0  0  0  0
   17.6456   26.9120   16.9453 C   0  0  0  0  0  0  0  0  0  0  0  0
   17.7579   26.8504   15.4284 C   0  0  0  0  0  0  0  0  0  0  0  0
   14.0850   24.9045   11.0647 C   0  0  0  0  0  0  0  0  0  0  0  0
   14.3541   23.3358   10.3999 S   0  0  0  0  0  0  0  0  0  0  0  0
   12.7158   23.1002   10.1325 C   0  0  0  0  0  0  0  0  0  0  0  0
   11.9841   24.1338   10.5674 C   0  0  0  0  0  0  0  0  0  0  0  0
   12.7552   25.1854   11.1000 C   0  0  0  0  0  0  0  0  0  0  0  0
   14.0506   25.8977   17.4140 C   0  0  0  0  0  0  0  0  0  0  0  0
   13.3231   27.2197   17.3110 C   0  0  0  0  0  0  0  0  0  0  0  0
   13.4688   28.1954   18.2864 C   0  0  0  0  0  0  0  0  0  0  0  0
   12.6173   29.2213   18.4662 N   0  0  0  0  0  0  0  0  0  0  0  0
   11.5768   29.2139   17.6465 C   0  0  0  0  0  0  0  0  0  0  0  0
   11.2812   28.3365   16.7009 N   0  0  0  0  0  0  0  0  0  0  0  0
   12.1630   27.3341   16.5730 C   0  0  0  0  0  0  0  0  0  0  0  0
   10.7277   30.2307   17.8343 O   0  0  0  0  0  0  0  0  0  0  0  0
    9.4172   29.9164   18.3195 C   0  0  0  0  0  0  0  0  0  0  0  0
  1  2  2  0  0  0  0
  1  6  1  0  0  0  0
  2  3  1  0  0  0  0
  3  4  2  0  0  0  0
  4 14  1  0  0  0  0
  5  4  1  0  0  0  0
  6  5  1  0  0  0  0
  7  6  2  0  0  0  0
  8  9  1  0  0  0  0
  8  2  1  6  0  0  0
 10 19  1  0  0  0  0
 10  9  1  0  0  0  0
 11 10  1  0  0  0  0
 12 11  1  0  0  0  0
 12 13  1  0  0  0  0
 13  8  1  0  0  0  0
 14 15  1  0  0  0  0
 14 18  2  0  0  0  0
 15 16  1  0  0  0  0
 16 17  2  0  0  0  0
 18 17  1  0  0  0  0
 19 20  1  0  0  0  0
 20 25  2  0  0  0  0
 20 21  1  0  0  0  0
 21 22  2  0  0  0  0
 22 23  1  0  0  0  0
 23 26  1  0  0  0  0
 24 23  2  0  0  0  0
 25 24  1  0  0  0  0
 26 27  1  0  0  0  0
M  END
>  <CHROM.1>
-84.69737065,123.65227118,-71.92776851,-86.51637824,-113.44282049,14.38875057
26.61273281,14.37739283,-1.22773027,-0.00476134,1.08759741

>  <Name>
lig.pdb

>  <RI>
0

>  <Rbt.Current_Directory>
/home/itssahil/PROJECTS/Mol_Feturizer/New_Systems/rnas/5kx9

>  <Rbt.Executable>
rbdock ($Id: //depot/dev/client3/rdock/2013.1/src/exe/rbdock.cxx#4 $)

>  <Rbt.Library>
libRbt.so (2013.1, Build901 2013/11/27)

>  <Rbt.Parameter_File>
/export/apps/rDock/src/rDock_2013.1_src/data/scripts/dock_solv.prm

>  <Rbt.Receptor>
prm/blind_docking_40.prm

>  <SCORE>
-9.81367

>  <SCORE.INTER>
-13.9469

>  <SCORE.INTER.CONST>
1

>  <SCORE.INTER.POLAR>
0

>  <SCORE.INTER.ROT>
5

>  <SCORE.INTER.SOLV>
16.5575

>  <SCORE.INTER.VDW>
-21.7505

>  <SCORE.INTER.norm>
-0.516554

>  <SCORE.INTRA>
2.35101

>  <SCORE.INTRA.DIHEDRAL>
14.4034

>  <SCORE.INTRA.DIHEDRAL.0>
2.68224

>  <SCORE.INTRA.POLAR>
0

>  <SCORE.INTRA.POLAR.0>
0

>  <SCORE.INTRA.REPUL>
0

>  <SCORE.INTRA.REPUL.0>
0

>  <SCORE.INTRA.SOLV>
-0.591555

>  <SCORE.INTRA.SOLV.lig_0>
-19.4148

>  <SCORE.INTRA.VDW>
-4.55493

>  <SCORE.INTRA.VDW.0>
5.42093

>  <SCORE.INTRA.norm>
0.0870744

>  <SCORE.RESTR>
1.78227

>  <SCORE.RESTR.CAVITY>
1.78227

>  <SCORE.RESTR.norm>
0.06601

>  <SCORE.SYSTEM>
0

>  <SCORE.SYSTEM.CONST>
0

>  <SCORE.SYSTEM.DIHEDRAL>
0

>  <SCORE.SYSTEM.SOLV>
0

>  <SCORE.SYSTEM.norm>
0

>  <SCORE.heavy>
27

>  <SCORE.norm>
-0.363469

>  <RMSD>
20.197

$$$$
lig.pdb
 OpenBabel11021811523D
libRbt.so/2013.1/901 2013/11/27
 27 30  0  0  0  0  0  0  0  0999 V2000
   17.1871   26.8177   12.5670 N   0  0  0  0  0  0  0  0  0  0  0  0
   16.4433   26.0486   13.3230 C   0  0  0  0  0  0  0  0  0  0  0  0
   15.2269   25.5598   12.9729 N   0  0  0  0  0  0  0  0  0  0  0  0
   14.7441   25.8389   11.7255 C   0  0  0  0  0  0  0  0  0  0  0  0
   15.4656   26.6101   10.8600 C   0  0  0  0  0  0  0  0  0  0  0  0
   16.7364   27.1441   11.2887 C   0  0  0  0  0  0  0  0  0  0  0  0
   17.4220   27.8927   10.5813 O   0  0  0  0  0  0  0  0  0  0  0  0
   16.7853   25.7500   14.7993 C   0  0  2  0  0  0  0  0  0  0  0  0
   15.4173   25.9071   15.4828 C   0  0  0  0  0  0  0  0  0  0  0  0
   15.5370   25.9095   16.9419 N   0  0  0  0  0  0  0  0  0  0  0  0
   16.3479   27.0660   17.3558 C   0  0  0  0  0  0  0  0  0  0  0  0
   17.7578   26.9587   16.8091 C   0  0  0  0  0  0  0  0  0  0  0  0
   17.7473   26.8449   15.2910 C   0  0  0  0  0  0  0  0  0  0  0  0
   13.4520   25.2141   11.4757 C   0  0  0  0  0  0  0  0  0  0  0  0
   12.4371   24.6920   12.7690 S   0  0  0  0  0  0  0  0  0  0  0  0
   11.2756   24.1146   11.7067 C   0  0  0  0  0  0  0  0  0  0  0  0
   11.6066   24.3450   10.4298 C   0  0  0  0  0  0  0  0  0  0  0  0
   12.8595   24.9700   10.2766 C   0  0  0  0  0  0  0  0  0  0  0  0
   14.2204   25.9440   17.6026 C   0  0  0  0  0  0  0  0  0  0  0  0
   13.4275   27.2185   17.4174 C   0  0  0  0  0  0  0  0  0  0  0  0
   13.4787   28.2370   18.3580 C   0  0  0  0  0  0  0  0  0  0  0  0
   12.5661   29.2200   18.4621 N   0  0  0  0  0  0  0  0  0  0  0  0
   11.5633   29.1236   17.6021 C   0  0  0  0  0  0  0  0  0  0  0  0
   11.3560   28.1960   16.6812 N   0  0  0  0  0  0  0  0  0  0  0  0
   12.2953   27.2401   16.6293 C   0  0  0  0  0  0  0  0  0  0  0  0
   10.6533   30.0979   17.7146 O   0  0  0  0  0  0  0  0  0  0  0  0
    9.2722   29.7193   17.6826 C   0  0  0  0  0  0  0  0  0  0  0  0
  1  2  2  0  0  0  0
  1  6  1  0  0  0  0
  2  3  1  0  0  0  0
  3  4  2  0  0  0  0
  4 14  1  0  0  0  0
  5  4  1  0  0  0  0
  6  5  1  0  0  0  0
  7  6  2  0  0  0  0
  8  9  1  0  0  0  0
  8  2  1  6  0  0  0
 10 19  1  0  0  0  0
 10  9  1  0  0  0  0
 11 10  1  0  0  0  0
 12 11  1  0  0  0  0
 12 13  1  0  0  0  0
 13  8  1  0  0  0  0
 14 15  1  0  0  0  0
 14 18  2  0  0  0  0
 15 16  1  0  0  0  0
 16 17  2  0  0  0  0
 18 17  1  0  0  0  0
 19 20  1  0  0  0  0
 20 25  2  0  0  0  0
 20 21  1  0  0  0  0
 21 22  2  0  0  0  0
 22 23  1  0  0  0  0
 23 26  1  0  0  0  0
 24 23  2  0  0  0  0
 25 24  1  0  0  0  0
 26 27  1  0  0  0  0
M  END
>  <CHROM.1>
20.32941919,135.71045105,-67.08578727,-94.79314387,-135.27925904,14.11010536
26.71465516,14.57852126,-1.17977294,-0.02732279,1.15952061

>  <Name>
lig.pdb

>  <RI>
0

>  <Rbt.Current_Directory>
/home/itssahil/PROJECTS/Mol_Feturizer/New_Systems/rnas/5kx9

>  <Rbt.Executable>
rbdock ($Id: //depot/dev/client3/rdock/2013.1/src/exe/rbdock.cxx#4 $)

>  <Rbt.Library>
libRbt.so (2013.1, Build901 2013/11/27)

>  <Rbt.Parameter_File>
/export/apps/rDock/src/rDock_2013.1_src/data/scripts/dock_solv.prm

>  <Rbt.Receptor>
prm/blind_docking_40.prm

>  <SCORE>
-10.6459

>  <SCORE.INTER>
-11.1168

>  <SCORE.INTER.CONST>
1

>  <SCORE.INTER.POLAR>
0

>  <SCORE.INTER.ROT>
5

>  <SCORE.INTER.SOLV>
15.9865

>  <SCORE.INTER.VDW>
-19.6734

>  <SCORE.INTER.norm>
-0.411733

>  <SCORE.INTRA>
-1.74677

>  <SCORE.INTRA.DIHEDRAL>
2.52287

>  <SCORE.INTRA.DIHEDRAL.0>
2.68224

>  <SCORE.INTRA.POLAR>
0

>  <SCORE.INTRA.POLAR.0>
0

>  <SCORE.INTRA.REPUL>
0

>  <SCORE.INTRA.REPUL.0>
0

>  <SCORE.INTRA.SOLV>
-0.489495

>  <SCORE.INTRA.SOLV.lig_0>
-19.4148

>  <SCORE.INTRA.VDW>
-2.76346

>  <SCORE.INTRA.VDW.0>
5.42093

>  <SCORE.INTRA.norm>
-0.0646952

>  <SCORE.RESTR>
2.2177

>  <SCORE.RESTR.CAVITY>
2.2177

>  <SCORE.RESTR.norm>
0.0821371

>  <SCORE.SYSTEM>
0

>  <SCORE.SYSTEM.CONST>
0

>  <SCORE.SYSTEM.DIHEDRAL>
0

>  <SCORE.SYSTEM.SOLV>
0

>  <SCORE.SYSTEM.norm>
0

>  <SCORE.heavy>
27

>  <SCORE.norm>
-0.394291

>  <RMSD>
20.215

$$$$
lig.pdb
 OpenBabel11021811523D
libRbt.so/2013.1/901 2013/11/27
 27 30  0  0  0  0  0  0  0  0999 V2000
   17.3046   27.0742   12.7197 N   0  0  0  0  0  0  0  0  0  0  0  0
   16.6326   26.1285   13.3283 C   0  0  0  0  0  0  0  0  0  0  0  0
   15.5810   25.4577   12.7942 N   0  0  0  0  0  0  0  0  0  0  0  0
   15.2087   25.7404   11.5103 C   0  0  0  0  0  0  0  0  0  0  0  0
   15.8717   26.6925   10.7905 C   0  0  0  0  0  0  0  0  0  0  0  0
   16.9583   27.4115   11.4119 C   0  0  0  0  0  0  0  0  0  0  0  0
   17.5715   28.3229   10.8427 O   0  0  0  0  0  0  0  0  0  0  0  0
   16.8438   25.7838   14.8190 C   0  0  2  0  0  0  0  0  0  0  0  0
   15.4195   25.9153   15.3827 C   0  0  0  0  0  0  0  0  0  0  0  0
   15.4091   25.8715   16.8460 N   0  0  0  0  0  0  0  0  0  0  0  0
   16.1736   27.0164   17.3666 C   0  0  0  0  0  0  0  0  0  0  0  0
   17.6271   26.9304   16.9445 C   0  0  0  0  0  0  0  0  0  0  0  0
   17.7522   26.8651   15.4287 C   0  0  0  0  0  0  0  0  0  0  0  0
   14.0967   24.9149   11.0583 C   0  0  0  0  0  0  0  0  0  0  0  0
   14.3515   23.3466   10.3872 S   0  0  0  0  0  0  0  0  0  0  0  0
   12.7104   23.1239   10.1259 C   0  0  0  0  0  0  0  0  0  0  0  0
   11.9881   24.1614   10.5674 C   0  0  0  0  0  0  0  0  0  0  0  0
   12.7691   25.2054   11.1002 C   0  0  0  0  0  0  0  0  0  0  0  0
   14.0388   25.8812   17.3876 C   0  0  0  0  0  0  0  0  0  0  0  0
   13.2973   27.1942   17.2705 C   0  0  0  0  0  0  0  0  0  0  0  0
   13.3958   28.1631   18.2585 C   0  0  0  0  0  0  0  0  0  0  0  0
   12.5247   29.1759   18.4172 N   0  0  0  0  0  0  0  0  0  0  0  0
   11.5134   29.1618   17.5620 C   0  0  0  0  0  0  0  0  0  0  0  0
   11.2626   28.2889   16.5993 N   0  0  0  0  0  0  0  0  0  0  0  0
   12.1619   27.2995   16.4937 C   0  0  0  0  0  0  0  0  0  0  0  0
   10.6445   30.1654   17.7287 O   0  0  0  0  0  0  0  0  0  0  0  0
    9.4111   29.8683   18.3937 C   0  0  0  0  0  0  0  0  0  0  0  0
  1  2  2  0  0  0  0
  1  6  1  0  0  0  0
  2  3  1  0  0  0  0
  3  4  2  0  0  0  0
  4 14  1  0  0  0  0
  5  4  1  0  0  0  0
  6  5  1  0  0  0  0
  7  6  2  0  0  0  0
  8  9  1  0  0  0  0
  8  2  1  6  0  0  0
 10 19  1  0  0  0  0
 10  9  1  0  0  0  0
 11 10  1  0  0  0  0
 12 11  1  0  0  0  0
 12 13  1  0  0  0  0
 13  8  1  0  0  0  0
 14 15  1  0  0  0  0
 14 18  2  0  0  0  0
 15 16  1  0  0  0  0
 16 17  2  0  0  0  0
 18 17  1  0  0  0  0
 19 20  1  0  0  0  0
 20 25  2  0  0  0  0
 20 21  1  0  0  0  0
 21 22  2  0  0  0  0
 22 23  1  0  0  0  0
 23 26  1  0  0  0  0
 24 23  2  0  0  0  0
 25 24  1  0  0  0  0
 26 27  1  0  0  0  0
M  END
>  <CHROM.1>
-85.42711382,124.92351384,-71.74322395,-88.26606193,-102.24580129,14.38163627
26.60136170,14.35601626,-1.21454747,-0.00136303,1.09147870

>  <Name>
lig.pdb

>  <RI>
0

>  <Rbt.Current_Directory>
/home/itssahil/PROJECTS/Mol_Feturizer/New_Systems/rnas/5kx9

>  <Rbt.Executable>
rbdock ($Id: //depot/dev/client3/rdock/2013.1/src/exe/rbdock.cxx#4 $)

>  <Rbt.Library>
libRbt.so (2013.1, Build901 2013/11/27)

>  <Rbt.Parameter_File>
/export/apps/rDock/src/rDock_2013.1_src/data/scripts/dock_solv.prm

>  <Rbt.Receptor>
prm/blind_docking_40.prm

>  <SCORE>
-9.58279

>  <SCORE.INTER>
-13.8906

>  <SCORE.INTER.CONST>
1

>  <SCORE.INTER.POLAR>
0

>  <SCORE.INTER.ROT>
5

>  <SCORE.INTER.SOLV>
16.2487

>  <SCORE.INTER.VDW>
-21.61

>  <SCORE.INTER.norm>
-0.514467

>  <SCORE.INTRA>
2.53603

>  <SCORE.INTRA.DIHEDRAL>
14.9549

>  <SCORE.INTRA.DIHEDRAL.0>
2.68224

>  <SCORE.INTRA.POLAR>
0

>  <SCORE.INTRA.POLAR.0>
0

>  <SCORE.INTRA.REPUL>
0

>  <SCORE.INTRA.REPUL.0>
0

>  <SCORE.INTRA.SOLV>
-0.597961

>  <SCORE.INTRA.SOLV.lig_0>
-19.4148

>  <SCORE.INTRA.VDW>
-4.64242

>  <SCORE.INTRA.VDW.0>
5.42093

>  <SCORE.INTRA.norm>
0.0939271

>  <SCORE.RESTR>
1.77179

>  <SCORE.RESTR.CAVITY>
1.77179

>  <SCORE.RESTR.norm>
0.065622

>  <SCORE.SYSTEM>
0

>  <SCORE.SYSTEM.CONST>
0

>  <SCORE.SYSTEM.DIHEDRAL>
0

>  <SCORE.SYSTEM.SOLV>
0

>  <SCORE.SYSTEM.norm>
0

>  <SCORE.heavy>
27

>  <SCORE.norm>
-0.354918

>  <RMSD>
20.218

$$$$
lig.pdb
 OpenBabel11021811523D
libRbt.so/2013.1/901 2013/11/27
 27 30  0  0  0  0  0  0  0  0999 V2000
   17.2950   27.0860   12.7288 N   0  0  0  0  0  0  0  0  0  0  0  0
   16.6335   26.1291   13.3311 C   0  0  0  0  0  0  0  0  0  0  0  0
   15.5890   25.4506   12.7928 N   0  0  0  0  0  0  0  0  0  0  0  0
   15.2132   25.7379   11.5109 C   0  0  0  0  0  0  0  0  0  0  0  0
   15.8657   26.7020   10.7974 C   0  0  0  0  0  0  0  0  0  0  0  0
   16.9447   27.4284   11.4234 C   0  0  0  0  0  0  0  0  0  0  0  0
   17.5479   28.3503   10.8602 O   0  0  0  0  0  0  0  0  0  0  0  0
   16.8488   25.7766   14.8194 C   0  0  2  0  0  0  0  0  0  0  0  0
   15.4264   25.9062   15.3880 C   0  0  0  0  0  0  0  0  0  0  0  0
   15.4203   25.8548   16.8511 N   0  0  0  0  0  0  0  0  0  0  0  0
   16.1872   26.9965   17.3753 C   0  0  0  0  0  0  0  0  0  0  0  0
   17.6393   26.9116   16.9484 C   0  0  0  0  0  0  0  0  0  0  0  0
   17.7598   26.8540   15.4319 C   0  0  0  0  0  0  0  0  0  0  0  0
   14.1100   24.9036   11.0536 C   0  0  0  0  0  0  0  0  0  0  0  0
   14.3813   23.3417   10.3741 S   0  0  0  0  0  0  0  0  0  0  0  0
   12.7428   23.1036   10.1105 C   0  0  0  0  0  0  0  0  0  0  0  0
   12.0096   24.1312   10.5572 C   0  0  0  0  0  0  0  0  0  0  0  0
   12.7795   25.1803   11.0963 C   0  0  0  0  0  0  0  0  0  0  0  0
   14.0516   25.8628   17.3969 C   0  0  0  0  0  0  0  0  0  0  0  0
   13.3114   27.1773   17.2904 C   0  0  0  0  0  0  0  0  0  0  0  0
   13.2904   28.0753   18.3477 C   0  0  0  0  0  0  0  0  0  0  0  0
   12.3950   29.0706   18.4800 N   0  0  0  0  0  0  0  0  0  0  0  0
   11.4827   29.1117   17.5206 C   0  0  0  0  0  0  0  0  0  0  0  0
   11.3485   28.3071   16.4784 N   0  0  0  0  0  0  0  0  0  0  0  0
   12.2659   27.3316   16.4036 C   0  0  0  0  0  0  0  0  0  0  0  0
   10.5888   30.0973   17.6604 O   0  0  0  0  0  0  0  0  0  0  0  0
    9.4767   29.8623   18.5320 C   0  0  0  0  0  0  0  0  0  0  0  0
  1  2  2  0  0  0  0
  1  6  1  0  0  0  0
  2  3  1  0  0  0  0
  3  4  2  0  0  0  0
  4 14  1  0  0  0  0
  5  4  1  0  0  0  0
  6  5  1  0  0  0  0
  7  6  2  0  0  0  0
  8  9  1  0  0  0  0
  8  2  1  6  0  0  0
 10 19  1  0  0  0  0
 10  9  1  0  0  0  0
 11 10  1  0  0  0  0
 12 11  1  0  0  0  0
 12 13  1  0  0  0  0
 13  8  1  0  0  0  0
 14 15  1  0  0  0  0
 14 18  2  0  0  0  0
 15 16  1  0  0  0  0
 16 17  2  0  0  0  0
 18 17  1  0  0  0  0
 19 20  1  0  0  0  0
 20 25  2  0  0  0  0
 20 21  1  0  0  0  0
 21 22  2  0  0  0  0
 22 23  1  0  0  0  0
 23 26  1  0  0  0  0
 24 23  2  0  0  0  0
 25 24  1  0  0  0  0
 26 27  1  0  0  0  0
M  END
>  <CHROM.1>
-85.33023131,124.24097155,-71.82368440,-95.65910077,-82.97328771,14.38581390
26.58623327,14.35656560,-1.21398072,-0.00304841,1.09688278

>  <Name>
lig.pdb

>  <RI>
0

>  <Rbt.Current_Directory>
/home/itssahil/PROJECTS/Mol_Feturizer/New_Systems/rnas/5kx9

>  <Rbt.Executable>
rbdock ($Id: //depot/dev/client3/rdock/2013.1/src/exe/rbdock.cxx#4 $)

>  <Rbt.Library>
libRbt.so (2013.1, Build901 2013/11/27)

>  <Rbt.Parameter_File>
/export/apps/rDock/src/rDock_2013.1_src/data/scripts/dock_solv.prm

>  <Rbt.Receptor>
prm/blind_docking_40.prm

>  <SCORE>
-9.73228

>  <SCORE.INTER>
-13.9218

>  <SCORE.INTER.CONST>
1

>  <SCORE.INTER.POLAR>
0

>  <SCORE.INTER.ROT>
5

>  <SCORE.INTER.SOLV>
16.2612

>  <SCORE.INTER.VDW>
-21.6349

>  <SCORE.INTER.norm>
-0.51562

>  <SCORE.INTRA>
2.36951

>  <SCORE.INTRA.DIHEDRAL>
15.0287

>  <SCORE.INTRA.DIHEDRAL.0>
2.68224

>  <SCORE.INTRA.POLAR>
0

>  <SCORE.INTRA.POLAR.0>
0

>  <SCORE.INTRA.REPUL>
0

>  <SCORE.INTRA.REPUL.0>
0

>  <SCORE.INTRA.SOLV>
-0.617767

>  <SCORE.INTRA.SOLV.lig_0>
-19.4148

>  <SCORE.INTRA.VDW>
-4.83596

>  <SCORE.INTRA.VDW.0>
5.42093

>  <SCORE.INTRA.norm>
0.0877597

>  <SCORE.RESTR>
1.81996

>  <SCORE.RESTR.CAVITY>
1.81996

>  <SCORE.RESTR.norm>
0.0674059

>  <SCORE.SYSTEM>
0

>  <SCORE.SYSTEM.CONST>
0

>  <SCORE.SYSTEM.DIHEDRAL>
0

>  <SCORE.SYSTEM.SOLV>
0

>  <SCORE.SYSTEM.norm>
0

>  <SCORE.heavy>
27

>  <SCORE.norm>
-0.360455

>  <RMSD>
20.228

$$$$
lig.pdb
 OpenBabel11021811523D
libRbt.so/2013.1/901 2013/11/27
 27 30  0  0  0  0  0  0  0  0999 V2000
   17.1459   26.8227   12.4493 N   0  0  0  0  0  0  0  0  0  0  0  0
   16.4193   26.0513   13.2194 C   0  0  0  0  0  0  0  0  0  0  0  0
   15.1963   25.5616   12.8942 N   0  0  0  0  0  0  0  0  0  0  0  0
   14.6868   25.8425   11.6579 C   0  0  0  0  0  0  0  0  0  0  0  0
   15.3888   26.6163   10.7788 C   0  0  0  0  0  0  0  0  0  0  0  0
   16.6677   27.1511   11.1814 C   0  0  0  0  0  0  0  0  0  0  0  0
   17.3373   27.9019   10.4612 O   0  0  0  0  0  0  0  0  0  0  0  0
   16.7930   25.7502   14.6875 C   0  0  2  0  0  0  0  0  0  0  0  0
   15.4380   25.8963   15.3990 C   0  0  0  0  0  0  0  0  0  0  0  0
   15.5872   25.8949   16.8553 N   0  0  0  0  0  0  0  0  0  0  0  0
   16.3989   27.0552   17.2565 C   0  0  0  0  0  0  0  0  0  0  0  0
   17.7981   26.9588   16.6812 C   0  0  0  0  0  0  0  0  0  0  0  0
   17.7577   26.8497   15.1632 C   0  0  0  0  0  0  0  0  0  0  0  0
   13.3904   25.2167   11.4344 C   0  0  0  0  0  0  0  0  0  0  0  0
   12.3400   24.8240   12.7450 S   0  0  0  0  0  0  0  0  0  0  0  0
   11.1923   24.1724   11.7111 C   0  0  0  0  0  0  0  0  0  0  0  0
   11.5539   24.2856   10.4269 C   0  0  0  0  0  0  0  0  0  0  0  0
   12.8197   24.8770   10.2481 C   0  0  0  0  0  0  0  0  0  0  0  0
   14.2840   25.9187   17.5426 C   0  0  0  0  0  0  0  0  0  0  0  0
   13.4826   27.1914   17.3837 C   0  0  0  0  0  0  0  0  0  0  0  0
   13.5264   28.1902   18.3455 C   0  0  0  0  0  0  0  0  0  0  0  0
   12.6071   29.1646   18.4697 N   0  0  0  0  0  0  0  0  0  0  0  0
   11.6055   29.0796   17.6071 C   0  0  0  0  0  0  0  0  0  0  0  0
   11.4050   28.1702   16.6668 N   0  0  0  0  0  0  0  0  0  0  0  0
   12.3508   27.2220   16.5954 C   0  0  0  0  0  0  0  0  0  0  0  0
   10.6888   30.0452   17.7394 O   0  0  0  0  0  0  0  0  0  0  0  0
    9.3104   29.6618   17.6714 C   0  0  0  0  0  0  0  0  0  0  0  0
  1  2  2  0  0  0  0
  1  6  1  0  0  0  0
  2  3  1  0  0  0  0
  3  4  2  0  0  0  0
  4 14  1  0  0  0  0
  5  4  1  0  0  0  0
  6  5  1  0  0  0  0
  7  6  2  0  0  0  0
  8  9  1  0  0  0  0
  8  2  1  6  0  0  0
 10 19  1  0  0  0  0
 10  9  1  0  0  0  0
 11 10  1  0  0  0  0
 12 11  1  0  0  0  0
 12 13  1  0  0  0  0
 13  8  1  0  0  0  0
 14 15  1  0  0  0  0
 14 18  2  0  0  0  0
 15 16  1  0  0  0  0
 16 17  2  0  0  0  0
 18 17  1  0  0  0  0
 19 20  1  0  0  0  0
 20 25  2  0  0  0  0
 20 21  1  0  0  0  0
 21 22  2  0  0  0  0
 22 23  1  0  0  0  0
 23 26  1  0  0  0  0
 24 23  2  0  0  0  0
 25 24  1  0  0  0  0
 26 27  1  0  0  0  0
M  END
>  <CHROM.1>
26.09538480,136.02428842,-67.39834494,-96.20271218,-136.51124234,14.10213660
26.70993911,14.52310156,-1.19195092,-0.01953476,1.16772046

>  <Name>
lig.pdb

>  <RI>
0

>  <Rbt.Current_Directory>
/home/itssahil/PROJECTS/Mol_Feturizer/New_Systems/rnas/5kx9

>  <Rbt.Executable>
rbdock ($Id: //depot/dev/client3/rdock/2013.1/src/exe/rbdock.cxx#4 $)

>  <Rbt.Library>
libRbt.so (2013.1, Build901 2013/11/27)

>  <Rbt.Parameter_File>
/export/apps/rDock/src/rDock_2013.1_src/data/scripts/dock_solv.prm

>  <Rbt.Receptor>
prm/blind_docking_40.prm

>  <SCORE>
-10.1211

>  <SCORE.INTER>
-10.8338

>  <SCORE.INTER.CONST>
1

>  <SCORE.INTER.POLAR>
0

>  <SCORE.INTER.ROT>
5

>  <SCORE.INTER.SOLV>
16.0964

>  <SCORE.INTER.VDW>
-19.5213

>  <SCORE.INTER.norm>
-0.401251

>  <SCORE.INTRA>
-1.39834

>  <SCORE.INTRA.DIHEDRAL>
3.21917

>  <SCORE.INTRA.DIHEDRAL.0>
2.68224

>  <SCORE.INTRA.POLAR>
0

>  <SCORE.INTRA.POLAR.0>
0

>  <SCORE.INTRA.REPUL>
0

>  <SCORE.INTRA.REPUL.0>
0

>  <SCORE.INTRA.SOLV>
-0.491034

>  <SCORE.INTRA.SOLV.lig_0>
-19.4148

>  <SCORE.INTRA.VDW>
-2.76241

>  <SCORE.INTRA.VDW.0>
5.42093

>  <SCORE.INTRA.norm>
-0.0517904

>  <SCORE.RESTR>
2.11103

>  <SCORE.RESTR.CAVITY>
2.11103

>  <SCORE.RESTR.norm>
0.0781865

>  <SCORE.SYSTEM>
0

>  <SCORE.SYSTEM.CONST>
0

>  <SCORE.SYSTEM.DIHEDRAL>
0

>  <SCORE.SYSTEM.SOLV>
0

>  <SCORE.SYSTEM.norm>
0

>  <SCORE.heavy>
27

>  <SCORE.norm>
-0.374855

>  <RMSD>
20.240

$$$$
lig.pdb
 OpenBabel11021811523D
libRbt.so/2013.1/901 2013/11/27
 27 30  0  0  0  0  0  0  0  0999 V2000
   17.4476   27.2838   12.3755 N   0  0  0  0  0  0  0  0  0  0  0  0
   16.9053   26.2680   13.0001 C   0  0  0  0  0  0  0  0  0  0  0  0
   15.8907   25.5101   12.5131 N   0  0  0  0  0  0  0  0  0  0  0  0
   15.4164   25.7790   11.2602 C   0  0  0  0  0  0  0  0  0  0  0  0
   15.9425   26.8025   10.5253 C   0  0  0  0  0  0  0  0  0  0  0  0
   16.9927   27.6100   11.0986 C   0  0  0  0  0  0  0  0  0  0  0  0
   17.4822   28.5855   10.5159 O   0  0  0  0  0  0  0  0  0  0  0  0
   17.2378   25.9184   14.4674 C   0  0  2  0  0  0  0  0  0  0  0  0
   15.8524   25.5690   15.0349 C   0  0  0  0  0  0  0  0  0  0  0  0
   15.8807   25.4379   16.4927 N   0  0  0  0  0  0  0  0  0  0  0  0
   16.2625   26.7304   17.0842 C   0  0  0  0  0  0  0  0  0  0  0  0
   17.6641   27.1237   16.6609 C   0  0  0  0  0  0  0  0  0  0  0  0
   17.7776   27.1898   15.1441 C   0  0  0  0  0  0  0  0  0  0  0  0
   14.3612   24.8600   10.8550 C   0  0  0  0  0  0  0  0  0  0  0  0
   12.6954   25.2333   11.1021 S   0  0  0  0  0  0  0  0  0  0  0  0
   12.2062   23.7709   10.4440 C   0  0  0  0  0  0  0  0  0  0  0  0
   13.2443   23.0459   10.0085 C   0  0  0  0  0  0  0  0  0  0  0  0
   14.4934   23.6529   10.2435 C   0  0  0  0  0  0  0  0  0  0  0  0
   14.5839   24.9910   17.0309 C   0  0  0  0  0  0  0  0  0  0  0  0
   13.5190   26.0589   17.1456 C   0  0  0  0  0  0  0  0  0  0  0  0
   12.9112   26.5885   16.0166 C   0  0  0  0  0  0  0  0  0  0  0  0
   12.2392   27.7538   15.9928 N   0  0  0  0  0  0  0  0  0  0  0  0
   12.2303   28.3994   17.1494 C   0  0  0  0  0  0  0  0  0  0  0  0
   12.7944   28.0455   18.2931 N   0  0  0  0  0  0  0  0  0  0  0  0
   13.4545   26.8787   18.2533 C   0  0  0  0  0  0  0  0  0  0  0  0
   11.5688   29.5620   17.1195 O   0  0  0  0  0  0  0  0  0  0  0  0
   10.7762   29.9010   18.2634 C   0  0  0  0  0  0  0  0  0  0  0  0
  1  2  2  0  0  0  0
  1  6  1  0  0  0  0
  2  3  1  0  0  0  0
  3  4  2  0  0  0  0
  4 14  1  0  0  0  0
  5  4  1  0  0  0  0
  6  5  1  0  0  0  0
  7  6  2  0  0  0  0
  8  9  1  0  0  0  0
  8  2  1  6  0  0  0
 10 19  1  0  0  0  0
 10  9  1  0  0  0  0
 11 10  1  0  0  0  0
 12 11  1  0  0  0  0
 12 13  1  0  0  0  0
 13  8  1  0  0  0  0
 14 15  1  0  0  0  0
 14 18  2  0  0  0  0
 15 16  1  0  0  0  0
 16 17  2  0  0  0  0
 18 17  1  0  0  0  0
 19 20  1  0  0  0  0
 20 25  2  0  0  0  0
 20 21  1  0  0  0  0
 21 22  2  0  0  0  0
 22 23  1  0  0  0  0
 23 26  1  0  0  0  0
 24 23  2  0  0  0  0
 25 24  1  0  0  0  0
 26 27  1  0  0  0  0
M  END
>  <CHROM.1>
93.38313196,138.09791171,-78.73523544,71.01153986,140.86030902,14.63340864
26.46518969,14.12590797,-1.30337539,0.11000067,1.19077193

>  <Name>
lig.pdb

>  <RI>
0

>  <Rbt.Current_Directory>
/home/itssahil/PROJECTS/Mol_Feturizer/New_Systems/rnas/5kx9

>  <Rbt.Executable>
rbdock ($Id: //depot/dev/client3/rdock/2013.1/src/exe/rbdock.cxx#4 $)

>  <Rbt.Library>
libRbt.so (2013.1, Build901 2013/11/27)

>  <Rbt.Parameter_File>
/export/apps/rDock/src/rDock_2013.1_src/data/scripts/dock_solv.prm

>  <Rbt.Receptor>
prm/blind_docking_40.prm

>  <SCORE>
-4.61962

>  <SCORE.INTER>
-11.5123

>  <SCORE.INTER.CONST>
1

>  <SCORE.INTER.POLAR>
0

>  <SCORE.INTER.ROT>
5

>  <SCORE.INTER.SOLV>
17.7446

>  <SCORE.INTER.VDW>
-20.5231

>  <SCORE.INTER.norm>
-0.426383

>  <SCORE.INTRA>
4.39514

>  <SCORE.INTRA.DIHEDRAL>
13.4593

>  <SCORE.INTRA.DIHEDRAL.0>
2.68224

>  <SCORE.INTRA.POLAR>
0

>  <SCORE.INTRA.POLAR.0>
0

>  <SCORE.INTRA.REPUL>
0

>  <SCORE.INTRA.REPUL.0>
0

>  <SCORE.INTRA.SOLV>
-0.302614

>  <SCORE.INTRA.SOLV.lig_0>
-19.4148

>  <SCORE.INTRA.VDW>
-2.1832

>  <SCORE.INTRA.VDW.0>
5.42093

>  <SCORE.INTRA.norm>
0.162783

>  <SCORE.RESTR>
2.49758

>  <SCORE.RESTR.CAVITY>
2.49758

>  <SCORE.RESTR.norm>
0.0925029

>  <SCORE.SYSTEM>
0

>  <SCORE.SYSTEM.CONST>
0

>  <SCORE.SYSTEM.DIHEDRAL>
0

>  <SCORE.SYSTEM.SOLV>
0

>  <SCORE.SYSTEM.norm>
0

>  <SCORE.heavy>
27

>  <SCORE.norm>
-0.171097

>  <RMSD>
20.241

$$$$
lig.pdb
 OpenBabel11021811523D
libRbt.so/2013.1/901 2013/11/27
 27 30  0  0  0  0  0  0  0  0999 V2000
   17.1681   26.8251   12.5458 N   0  0  0  0  0  0  0  0  0  0  0  0
   16.4294   26.0511   13.3017 C   0  0  0  0  0  0  0  0  0  0  0  0
   15.2152   25.5563   12.9525 N   0  0  0  0  0  0  0  0  0  0  0  0
   14.7292   25.8346   11.7061 C   0  0  0  0  0  0  0  0  0  0  0  0
   15.4455   26.6109   10.8407 C   0  0  0  0  0  0  0  0  0  0  0  0
   16.7139   27.1510   11.2686 C   0  0  0  0  0  0  0  0  0  0  0  0
   17.3947   27.9042   10.5614 O   0  0  0  0  0  0  0  0  0  0  0  0
   16.7749   25.7521   14.7771 C   0  0  2  0  0  0  0  0  0  0  0  0
   15.4056   25.8936   15.4615 C   0  0  0  0  0  0  0  0  0  0  0  0
   15.5258   25.8934   16.9205 N   0  0  0  0  0  0  0  0  0  0  0  0
   16.3251   27.0570   17.3371 C   0  0  0  0  0  0  0  0  0  0  0  0
   17.7358   26.9654   16.7897 C   0  0  0  0  0  0  0  0  0  0  0  0
   17.7259   26.8554   15.2713 C   0  0  0  0  0  0  0  0  0  0  0  0
   13.4401   25.2034   11.4571 C   0  0  0  0  0  0  0  0  0  0  0  0
   12.4964   24.5420   12.7405 S   0  0  0  0  0  0  0  0  0  0  0  0
   11.2996   24.0344   11.6817 C   0  0  0  0  0  0  0  0  0  0  0  0
   11.5669   24.3872   10.4180 C   0  0  0  0  0  0  0  0  0  0  0  0
   12.7985   25.0540   10.2678 C   0  0  0  0  0  0  0  0  0  0  0  0
   14.2091   25.9128   17.5817 C   0  0  0  0  0  0  0  0  0  0  0  0
   13.4108   27.1865   17.4149 C   0  0  0  0  0  0  0  0  0  0  0  0
   13.3717   28.1439   18.4181 C   0  0  0  0  0  0  0  0  0  0  0  0
   12.4369   29.1069   18.5117 N   0  0  0  0  0  0  0  0  0  0  0  0
   11.5052   29.0527   17.5718 C   0  0  0  0  0  0  0  0  0  0  0  0
   11.3855   28.1827   16.5817 N   0  0  0  0  0  0  0  0  0  0  0  0
   12.3425   27.2438   16.5438 C   0  0  0  0  0  0  0  0  0  0  0  0
   10.5724   30.0064   17.6734 O   0  0  0  0  0  0  0  0  0  0  0  0
    9.2023   29.6065   17.5528 C   0  0  0  0  0  0  0  0  0  0  0  0
  1  2  2  0  0  0  0
  1  6  1  0  0  0  0
  2  3  1  0  0  0  0
  3  4  2  0  0  0  0
  4 14  1  0  0  0  0
  5  4  1  0  0  0  0
  6  5  1  0  0  0  0
  7  6  2  0  0  0  0
  8  9  1  0  0  0  0
  8  2  1  6  0  0  0
 10 19  1  0  0  0  0
 10  9  1  0  0  0  0
 11 10  1  0  0  0  0
 12 11  1  0  0  0  0
 12 13  1  0  0  0  0
 13  8  1  0  0  0  0
 14 15  1  0  0  0  0
 14 18  2  0  0  0  0
 15 16  1  0  0  0  0
 16 17  2  0  0  0  0
 18 17  1  0  0  0  0
 19 20  1  0  0  0  0
 20 25  2  0  0  0  0
 20 21  1  0  0  0  0
 21 22  2  0  0  0  0
 22 23  1  0  0  0  0
 23 26  1  0  0  0  0
 24 23  2  0  0  0  0
 25 24  1  0  0  0  0
 26 27  1  0  0  0  0
M  END
>  <CHROM.1>
14.54731255,136.00105738,-67.84095751,-100.07695725,-133.33799844,14.08932246
26.68319488,14.55332826,-1.17361840,-0.02204063,1.16568201

>  <Name>
lig.pdb

>  <RI>
0

>  <Rbt.Current_Directory>
/home/itssahil/PROJECTS/Mol_Feturizer/New_Systems/rnas/5kx9

>  <Rbt.Executable>
rbdock ($Id: //depot/dev/client3/rdock/2013.1/src/exe/rbdock.cxx#4 $)

>  <Rbt.Library>
libRbt.so (2013.1, Build901 2013/11/27)

>  <Rbt.Parameter_File>
/export/apps/rDock/src/rDock_2013.1_src/data/scripts/dock_solv.prm

>  <Rbt.Receptor>
prm/blind_docking_40.prm

>  <SCORE>
-10.6777

>  <SCORE.INTER>
-10.8431

>  <SCORE.INTER.CONST>
1

>  <SCORE.INTER.POLAR>
0

>  <SCORE.INTER.ROT>
5

>  <SCORE.INTER.SOLV>
15.715

>  <SCORE.INTER.VDW>
-19.4004

>  <SCORE.INTER.norm>
-0.401597

>  <SCORE.INTRA>
-2.02927

>  <SCORE.INTRA.DIHEDRAL>
2.0518

>  <SCORE.INTRA.DIHEDRAL.0>
2.68224

>  <SCORE.INTRA.POLAR>
0

>  <SCORE.INTRA.POLAR.0>
0

>  <SCORE.INTRA.REPUL>
0

>  <SCORE.INTRA.REPUL.0>
0

>  <SCORE.INTRA.SOLV>
-0.501436

>  <SCORE.INTRA.SOLV.lig_0>
-19.4148

>  <SCORE.INTRA.VDW>
-2.80445

>  <SCORE.INTRA.VDW.0>
5.42093

>  <SCORE.INTRA.norm>
-0.0751581

>  <SCORE.RESTR>
2.19473

>  <SCORE.RESTR.CAVITY>
2.19473

>  <SCORE.RESTR.norm>
0.0812862

>  <SCORE.SYSTEM>
0

>  <SCORE.SYSTEM.CONST>
0

>  <SCORE.SYSTEM.DIHEDRAL>
0

>  <SCORE.SYSTEM.SOLV>
0

>  <SCORE.SYSTEM.norm>
0

>  <SCORE.heavy>
27

>  <SCORE.norm>
-0.395469

>  <RMSD>
20.258

$$$$
lig.pdb
 OpenBabel11021811523D
libRbt.so/2013.1/901 2013/11/27
 27 30  0  0  0  0  0  0  0  0999 V2000
   17.3006   27.0957   12.7096 N   0  0  0  0  0  0  0  0  0  0  0  0
   16.6370   26.1420   13.3148 C   0  0  0  0  0  0  0  0  0  0  0  0
   15.5881   25.4673   12.7802 N   0  0  0  0  0  0  0  0  0  0  0  0
   15.2097   25.7551   11.4991 C   0  0  0  0  0  0  0  0  0  0  0  0
   15.8639   26.7160   10.7829 C   0  0  0  0  0  0  0  0  0  0  0  0
   16.9478   27.4384   11.4050 C   0  0  0  0  0  0  0  0  0  0  0  0
   17.5531   28.3573   10.8392 O   0  0  0  0  0  0  0  0  0  0  0  0
   16.8554   25.7898   14.8027 C   0  0  2  0  0  0  0  0  0  0  0  0
   15.4310   25.9015   15.3703 C   0  0  0  0  0  0  0  0  0  0  0  0
   15.4244   25.8479   16.8333 N   0  0  0  0  0  0  0  0  0  0  0  0
   16.1771   26.9978   17.3599 C   0  0  0  0  0  0  0  0  0  0  0  0
   17.6305   26.9310   16.9340 C   0  0  0  0  0  0  0  0  0  0  0  0
   17.7529   26.8772   15.4175 C   0  0  0  0  0  0  0  0  0  0  0  0
   14.1017   24.9250   11.0459 C   0  0  0  0  0  0  0  0  0  0  0  0
   14.3642   23.3596   10.3708 S   0  0  0  0  0  0  0  0  0  0  0  0
   12.7242   23.1290   10.1100 C   0  0  0  0  0  0  0  0  0  0  0  0
   11.9968   24.1616   10.5545 C   0  0  0  0  0  0  0  0  0  0  0  0
   12.7727   25.2085   11.0894 C   0  0  0  0  0  0  0  0  0  0  0  0
   14.0553   25.8386   17.3780 C   0  0  0  0  0  0  0  0  0  0  0  0
   13.2783   27.1265   17.2195 C   0  0  0  0  0  0  0  0  0  0  0  0
   13.2353   28.0671   18.2383 C   0  0  0  0  0  0  0  0  0  0  0  0
   12.3128   29.0418   18.3324 N   0  0  0  0  0  0  0  0  0  0  0  0
   11.3970   29.0173   17.3758 C   0  0  0  0  0  0  0  0  0  0  0  0
   11.2823   28.1662   16.3688 N   0  0  0  0  0  0  0  0  0  0  0  0
   12.2263   27.2142   16.3312 C   0  0  0  0  0  0  0  0  0  0  0  0
   10.4763   29.9826   17.4777 O   0  0  0  0  0  0  0  0  0  0  0  0
    9.5525   29.9023   18.5695 C   0  0  0  0  0  0  0  0  0  0  0  0
  1  2  2  0  0  0  0
  1  6  1  0  0  0  0
  2  3  1  0  0  0  0
  3  4  2  0  0  0  0
  4 14  1  0  0  0  0
  5  4  1  0  0  0  0
  6  5  1  0  0  0  0
  7  6  2  0  0  0  0
  8  9  1  0  0  0  0
  8  2  1  6  0  0  0
 10 19  1  0  0  0  0
 10  9  1  0  0  0  0
 11 10  1  0  0  0  0
 12 11  1  0  0  0  0
 12 13  1  0  0  0  0
 13  8  1  0  0  0  0
 14 15  1  0  0  0  0
 14 18  2  0  0  0  0
 15 16  1  0  0  0  0
 16 17  2  0  0  0  0
 18 17  1  0  0  0  0
 19 20  1  0  0  0  0
 20 25  2  0  0  0  0
 20 21  1  0  0  0  0
 21 22  2  0  0  0  0
 22 23  1  0  0  0  0
 23 26  1  0  0  0  0
 24 23  2  0  0  0  0
 25 24  1  0  0  0  0
 26 27  1  0  0  0  0
M  END
>  <CHROM.1>
-85.16120435,125.19727379,-69.29518246,-95.37453290,-68.91438851,14.36889410
26.57681395,14.31903432,-1.20348611,-0.00077144,1.10111071

>  <Name>
lig.pdb

>  <RI>
0

>  <Rbt.Current_Directory>
/home/itssahil/PROJECTS/Mol_Feturizer/New_Systems/rnas/5kx9

>  <Rbt.Executable>
rbdock ($Id: //depot/dev/client3/rdock/2013.1/src/exe/rbdock.cxx#4 $)

>  <Rbt.Library>
libRbt.so (2013.1, Build901 2013/11/27)

>  <Rbt.Parameter_File>
/export/apps/rDock/src/rDock_2013.1_src/data/scripts/dock_solv.prm

>  <Rbt.Receptor>
prm/blind_docking_40.prm

>  <SCORE>
-9.33473

>  <SCORE.INTER>
-13.4507

>  <SCORE.INTER.CONST>
1

>  <SCORE.INTER.POLAR>
0

>  <SCORE.INTER.ROT>
5

>  <SCORE.INTER.SOLV>
16.1612

>  <SCORE.INTER.VDW>
-21.2875

>  <SCORE.INTER.norm>
-0.498174

>  <SCORE.INTRA>
2.312

>  <SCORE.INTRA.DIHEDRAL>
14.4207

>  <SCORE.INTRA.DIHEDRAL.0>
2.68224

>  <SCORE.INTRA.POLAR>
0

>  <SCORE.INTRA.POLAR.0>
0

>  <SCORE.INTRA.REPUL>
0

>  <SCORE.INTRA.REPUL.0>
0

>  <SCORE.INTRA.SOLV>
-0.616174

>  <SCORE.INTRA.SOLV.lig_0>
-19.4148

>  <SCORE.INTRA.VDW>
-4.59028

>  <SCORE.INTRA.VDW.0>
5.42093

>  <SCORE.INTRA.norm>
0.0856295

>  <SCORE.RESTR>
1.80397

>  <SCORE.RESTR.CAVITY>
1.80397

>  <SCORE.RESTR.norm>
0.0668136

>  <SCORE.SYSTEM>
0

>  <SCORE.SYSTEM.CONST>
0

>  <SCORE.SYSTEM.DIHEDRAL>
0

>  <SCORE.SYSTEM.SOLV>
0

>  <SCORE.SYSTEM.norm>
0

>  <SCORE.heavy>
27

>  <SCORE.norm>
-0.345731

>  <RMSD>
20.260

$$$$
lig.pdb
 OpenBabel11021811523D
libRbt.so/2013.1/901 2013/11/27
 27 30  0  0  0  0  0  0  0  0999 V2000
   17.3096   27.1594   12.5806 N   0  0  0  0  0  0  0  0  0  0  0  0
   16.6803   26.1970   13.2084 C   0  0  0  0  0  0  0  0  0  0  0  0
   15.6252   25.5054   12.7089 N   0  0  0  0  0  0  0  0  0  0  0  0
   15.2013   25.7848   11.4403 C   0  0  0  0  0  0  0  0  0  0  0  0
   15.8176   26.7539   10.7017 C   0  0  0  0  0  0  0  0  0  0  0  0
   16.9098   27.4939   11.2875 C   0  0  0  0  0  0  0  0  0  0  0  0
   17.4825   28.4207   10.7010 O   0  0  0  0  0  0  0  0  0  0  0  0
   16.9518   25.8513   14.6890 C   0  0  2  0  0  0  0  0  0  0  0  0
   15.5293   25.7875   15.2687 C   0  0  0  0  0  0  0  0  0  0  0  0
   15.5422   25.7123   16.7307 N   0  0  0  0  0  0  0  0  0  0  0  0
   16.1602   26.9346   17.2694 C   0  0  0  0  0  0  0  0  0  0  0  0
   17.6075   27.0445   16.8320 C   0  0  0  0  0  0  0  0  0  0  0  0
   17.7216   27.0272   15.3140 C   0  0  0  0  0  0  0  0  0  0  0  0
   14.0920   24.9370   11.0243 C   0  0  0  0  0  0  0  0  0  0  0  0
   14.3558   23.3683   10.3574 S   0  0  0  0  0  0  0  0  0  0  0  0
   12.7125   23.1156   10.1422 C   0  0  0  0  0  0  0  0  0  0  0  0
   11.9844   24.1437   10.5959 C   0  0  0  0  0  0  0  0  0  0  0  0
   12.7613   25.2050   11.1001 C   0  0  0  0  0  0  0  0  0  0  0  0
   14.1886   25.5350   17.2851 C   0  0  0  0  0  0  0  0  0  0  0  0
   13.3110   26.7668   17.2777 C   0  0  0  0  0  0  0  0  0  0  0  0
   12.9137   27.3705   18.4619 C   0  0  0  0  0  0  0  0  0  0  0  0
   11.8776   28.2218   18.5690 N   0  0  0  0  0  0  0  0  0  0  0  0
   11.2185   28.4205   17.4374 C   0  0  0  0  0  0  0  0  0  0  0  0
   11.4494   27.8899   16.2472 N   0  0  0  0  0  0  0  0  0  0  0  0
   12.4904   27.0453   16.2041 C   0  0  0  0  0  0  0  0  0  0  0  0
   10.1833   29.2607   17.5498 O   0  0  0  0  0  0  0  0  0  0  0  0
   10.2376   30.2404   18.5933 C   0  0  0  0  0  0  0  0  0  0  0  0
  1  2  2  0  0  0  0
  1  6  1  0  0  0  0
  2  3  1  0  0  0  0
  3  4  2  0  0  0  0
  4 14  1  0  0  0  0
  5  4  1  0  0  0  0
  6  5  1  0  0  0  0
  7  6  2  0  0  0  0
  8  9  1  0  0  0  0
  8  2  1  6  0  0  0
 10 19  1  0  0  0  0
 10  9  1  0  0  0  0
 11 10  1  0  0  0  0
 12 11  1  0  0  0  0
 12 13  1  0  0  0  0
 13  8  1  0  0  0  0
 14 15  1  0  0  0  0
 14 18  2  0  0  0  0
 15 16  1  0  0  0  0
 16 17  2  0  0  0  0
 18 17  1  0  0  0  0
 19 20  1  0  0  0  0
 20 25  2  0  0  0  0
 20 21  1  0  0  0  0
 21 22  2  0  0  0  0
 22 23  1  0  0  0  0
 23 26  1  0  0  0  0
 24 23  2  0  0  0  0
 25 24  1  0  0  0  0
 26 27  1  0  0  0  0
M  END
>  <CHROM.1>
-84.57485600,131.27964588,-75.17946582,-113.53738610,26.25295547,14.37540160
26.46179041,14.28480724,-1.19754305,0.06868018,1.13247676

>  <Name>
lig.pdb

>  <RI>
0

>  <Rbt.Current_Directory>
/home/itssahil/PROJECTS/Mol_Feturizer/New_Systems/rnas/5kx9

>  <Rbt.Executable>
rbdock ($Id: //depot/dev/client3/rdock/2013.1/src/exe/rbdock.cxx#4 $)

>  <Rbt.Library>
libRbt.so (2013.1, Build901 2013/11/27)

>  <Rbt.Parameter_File>
/export/apps/rDock/src/rDock_2013.1_src/data/scripts/dock_solv.prm

>  <Rbt.Receptor>
prm/blind_docking_40.prm

>  <SCORE>
-6.88427

>  <SCORE.INTER>
-12.8033

>  <SCORE.INTER.CONST>
1

>  <SCORE.INTER.POLAR>
0

>  <SCORE.INTER.ROT>
5

>  <SCORE.INTER.SOLV>
15.5901

>  <SCORE.INTER.VDW>
-20.6655

>  <SCORE.INTER.norm>
-0.474196

>  <SCORE.INTRA>
3.78528

>  <SCORE.INTRA.DIHEDRAL>
11.4335

>  <SCORE.INTRA.DIHEDRAL.0>
2.68224

>  <SCORE.INTRA.POLAR>
0

>  <SCORE.INTRA.POLAR.0>
0

>  <SCORE.INTRA.REPUL>
0

>  <SCORE.INTRA.REPUL.0>
0

>  <SCORE.INTRA.SOLV>
-0.623157

>  <SCORE.INTRA.SOLV.lig_0>
-19.4148

>  <SCORE.INTRA.VDW>
-1.61991

>  <SCORE.INTRA.VDW.0>
5.42093

>  <SCORE.INTRA.norm>
0.140196

>  <SCORE.RESTR>
2.13374

>  <SCORE.RESTR.CAVITY>
2.13374

>  <SCORE.RESTR.norm>
0.0790273

>  <SCORE.SYSTEM>
0

>  <SCORE.SYSTEM.CONST>
0

>  <SCORE.SYSTEM.DIHEDRAL>
0

>  <SCORE.SYSTEM.SOLV>
0

>  <SCORE.SYSTEM.norm>
0

>  <SCORE.heavy>
27

>  <SCORE.norm>
-0.254973

>  <RMSD>
20.354

$$$$
lig.pdb
 OpenBabel11021811523D
libRbt.so/2013.1/901 2013/11/27
 27 30  0  0  0  0  0  0  0  0999 V2000
   17.1272   26.6162   11.5882 N   0  0  0  0  0  0  0  0  0  0  0  0
   16.5489   25.7758   12.4101 C   0  0  0  0  0  0  0  0  0  0  0  0
   15.2790   25.3153   12.2819 N   0  0  0  0  0  0  0  0  0  0  0  0
   14.5475   25.7071   11.1964 C   0  0  0  0  0  0  0  0  0  0  0  0
   15.0809   26.5598   10.2728 C   0  0  0  0  0  0  0  0  0  0  0  0
   16.4211   27.0583   10.4702 C   0  0  0  0  0  0  0  0  0  0  0  0
   16.9526   27.8734    9.7060 O   0  0  0  0  0  0  0  0  0  0  0  0
   17.1909   25.3423   13.7464 C   0  0  2  0  0  0  0  0  0  0  0  0
   16.5516   26.3240   14.7419 C   0  0  0  0  0  0  0  0  0  0  0  0
   17.1985   26.2643   16.0538 N   0  0  0  0  0  0  0  0  0  0  0  0
   18.6073   26.6669   15.9138 C   0  0  0  0  0  0  0  0  0  0  0  0
   19.3579   25.6992   15.0202 C   0  0  0  0  0  0  0  0  0  0  0  0
   18.7036   25.6032   13.6490 C   0  0  0  0  0  0  0  0  0  0  0  0
   13.2229   25.1015   11.1693 C   0  0  0  0  0  0  0  0  0  0  0  0
   12.3258   24.8282   12.6169 S   0  0  0  0  0  0  0  0  0  0  0  0
   11.0537   24.1368   11.7716 C   0  0  0  0  0  0  0  0  0  0  0  0
   11.2649   24.1512   10.4495 C   0  0  0  0  0  0  0  0  0  0  0  0
   12.5116   24.6955   10.0840 C   0  0  0  0  0  0  0  0  0  0  0  0
   16.5174   27.1178   17.0432 C   0  0  0  0  0  0  0  0  0  0  0  0
   15.0189   26.9386   17.1420 C   0  0  0  0  0  0  0  0  0  0  0  0
   14.3368   26.1118   16.2612 C   0  0  0  0  0  0  0  0  0  0  0  0
   13.0101   26.1646   16.0444 N   0  0  0  0  0  0  0  0  0  0  0  0
   12.3861   27.1159   16.7228 C   0  0  0  0  0  0  0  0  0  0  0  0
   12.9011   28.0004   17.5617 N   0  0  0  0  0  0  0  0  0  0  0  0
   14.2278   27.9023   17.7326 C   0  0  0  0  0  0  0  0  0  0  0  0
   11.0684   27.1710   16.4978 O   0  0  0  0  0  0  0  0  0  0  0  0
   10.3833   28.3714   16.8735 C   0  0  0  0  0  0  0  0  0  0  0  0
  1  2  2  0  0  0  0
  1  6  1  0  0  0  0
  2  3  1  0  0  0  0
  3  4  2  0  0  0  0
  4 14  1  0  0  0  0
  5  4  1  0  0  0  0
  6  5  1  0  0  0  0
  7  6  2  0  0  0  0
  8  9  1  0  0  0  0
  8  2  1  6  0  0  0
 10 19  1  0  0  0  0
 10  9  1  0  0  0  0
 11 10  1  0  0  0  0
 12 11  1  0  0  0  0
 12 13  1  0  0  0  0
 13  8  1  0  0  0  0
 14 15  1  0  0  0  0
 14 18  2  0  0  0  0
 15 16  1  0  0  0  0
 16 17  2  0  0  0  0
 18 17  1  0  0  0  0
 19 20  1  0  0  0  0
 20 25  2  0  0  0  0
 20 21  1  0  0  0  0
 21 22  2  0  0  0  0
 22 23  1  0  0  0  0
 23 26  1  0  0  0  0
 24 23  2  0  0  0  0
 25 24  1  0  0  0  0
 26 27  1  0  0  0  0
M  END
>  <CHROM.1>
36.40420454,94.73163870,50.08467701,-5.83090060,-162.70785635,14.69603395
26.20926446,13.86022846,-1.37211045,0.06549699,1.31190624

>  <Name>
lig.pdb

>  <RI>
0

>  <Rbt.Current_Directory>
/home/itssahil/PROJECTS/Mol_Feturizer/New_Systems/rnas/5kx9

>  <Rbt.Executable>
rbdock ($Id: //depot/dev/client3/rdock/2013.1/src/exe/rbdock.cxx#4 $)

>  <Rbt.Library>
libRbt.so (2013.1, Build901 2013/11/27)

>  <Rbt.Parameter_File>
/export/apps/rDock/src/rDock_2013.1_src/data/scripts/dock_solv.prm

>  <Rbt.Receptor>
prm/blind_docking_40.prm

>  <SCORE>
7.63342

>  <SCORE.INTER>
4.71702

>  <SCORE.INTER.CONST>
1

>  <SCORE.INTER.POLAR>
0

>  <SCORE.INTER.ROT>
5

>  <SCORE.INTER.SOLV>
18.6566

>  <SCORE.INTER.VDW>
-10.0075

>  <SCORE.INTER.norm>
0.174704

>  <SCORE.INTRA>
0.433624

>  <SCORE.INTRA.DIHEDRAL>
3.14273

>  <SCORE.INTRA.DIHEDRAL.0>
2.68224

>  <SCORE.INTRA.POLAR>
0

>  <SCORE.INTRA.POLAR.0>
0

>  <SCORE.INTRA.REPUL>
0

>  <SCORE.INTRA.REPUL.0>
0

>  <SCORE.INTRA.SOLV>
-0.119387

>  <SCORE.INTRA.SOLV.lig_0>
-19.4148

>  <SCORE.INTRA.VDW>
-1.07805

>  <SCORE.INTRA.VDW.0>
5.42093

>  <SCORE.INTRA.norm>
0.0160601

>  <SCORE.RESTR>
2.48278

>  <SCORE.RESTR.CAVITY>
2.48278

>  <SCORE.RESTR.norm>
0.0919549

>  <SCORE.SYSTEM>
0

>  <SCORE.SYSTEM.CONST>
0

>  <SCORE.SYSTEM.DIHEDRAL>
0

>  <SCORE.SYSTEM.SOLV>
0

>  <SCORE.SYSTEM.norm>
0

>  <SCORE.heavy>
27

>  <SCORE.norm>
0.282719

>  <RMSD>
20.373

$$$$
lig.pdb
 OpenBabel11021811523D
libRbt.so/2013.1/901 2013/11/27
 27 30  0  0  0  0  0  0  0  0999 V2000
   17.1480   27.0175   12.3789 N   0  0  0  0  0  0  0  0  0  0  0  0
   16.4775   26.1942   13.1462 C   0  0  0  0  0  0  0  0  0  0  0  0
   15.2654   25.6648   12.8432 N   0  0  0  0  0  0  0  0  0  0  0  0
   14.7062   25.9616   11.6323 C   0  0  0  0  0  0  0  0  0  0  0  0
   15.3485   26.7896   10.7569 C   0  0  0  0  0  0  0  0  0  0  0  0
   16.6171   27.3639   11.1370 C   0  0  0  0  0  0  0  0  0  0  0  0
   17.2330   28.1628   10.4206 O   0  0  0  0  0  0  0  0  0  0  0  0
   16.9091   25.8647   14.5921 C   0  0  2  0  0  0  0  0  0  0  0  0
   15.5554   25.7458   15.3110 C   0  0  0  0  0  0  0  0  0  0  0  0
   15.7173   25.6762   16.7643 N   0  0  0  0  0  0  0  0  0  0  0  0
   16.3363   26.9241   17.2394 C   0  0  0  0  0  0  0  0  0  0  0  0
   17.7271   27.0903   16.6596 C   0  0  0  0  0  0  0  0  0  0  0  0
   17.6897   27.0725   15.1378 C   0  0  0  0  0  0  0  0  0  0  0  0
   13.4295   25.2902   11.4289 C   0  0  0  0  0  0  0  0  0  0  0  0
   12.5000   24.6977   12.7556 S   0  0  0  0  0  0  0  0  0  0  0  0
   11.3124   24.0973   11.7357 C   0  0  0  0  0  0  0  0  0  0  0  0
   11.5717   24.3701   10.4507 C   0  0  0  0  0  0  0  0  0  0  0  0
   12.7898   25.0493   10.2536 C   0  0  0  0  0  0  0  0  0  0  0  0
   14.4340   25.4467   17.4512 C   0  0  0  0  0  0  0  0  0  0  0  0
   13.4456   26.5899   17.3921 C   0  0  0  0  0  0  0  0  0  0  0  0
   12.9762   27.1915   18.5508 C   0  0  0  0  0  0  0  0  0  0  0  0
   11.8637   27.9450   18.6171 N   0  0  0  0  0  0  0  0  0  0  0  0
   11.2059   28.0446   17.4717 C   0  0  0  0  0  0  0  0  0  0  0  0
   11.5031   27.5000   16.3027 N   0  0  0  0  0  0  0  0  0  0  0  0
   12.6188   26.7558   16.3002 C   0  0  0  0  0  0  0  0  0  0  0  0
   10.0954   28.7874   17.5437 O   0  0  0  0  0  0  0  0  0  0  0  0
   10.1457   29.9759   18.3415 C   0  0  0  0  0  0  0  0  0  0  0  0
  1  2  2  0  0  0  0
  1  6  1  0  0  0  0
  2  3  1  0  0  0  0
  3  4  2  0  0  0  0
  4 14  1  0  0  0  0
  5  4  1  0  0  0  0
  6  5  1  0  0  0  0
  7  6  2  0  0  0  0
  8  9  1  0  0  0  0
  8  2  1  6  0  0  0
 10 19  1  0  0  0  0
 10  9  1  0  0  0  0
 11 10  1  0  0  0  0
 12 11  1  0  0  0  0
 12 13  1  0  0  0  0
 13  8  1  0  0  0  0
 14 15  1  0  0  0  0
 14 18  2  0  0  0  0
 15 16  1  0  0  0  0
 16 17  2  0  0  0  0
 18 17  1  0  0  0  0
 19 20  1  0  0  0  0
 20 25  2  0  0  0  0
 20 21  1  0  0  0  0
 21 22  2  0  0  0  0
 22 23  1  0  0  0  0
 23 26  1  0  0  0  0
 24 23  2  0  0  0  0
 25 24  1  0  0  0  0
 26 27  1  0  0  0  0
M  END
>  <CHROM.1>
20.88684343,143.36208843,-68.31193328,-120.59008008,39.55345097,14.09029693
26.52193249,14.50192180,-1.13905613,0.06174837,1.26227639

>  <Name>
lig.pdb

>  <RI>
0

>  <Rbt.Current_Directory>
/home/itssahil/PROJECTS/Mol_Feturizer/New_Systems/rnas/5kx9

>  <Rbt.Executable>
rbdock ($Id: //depot/dev/client3/rdock/2013.1/src/exe/rbdock.cxx#4 $)

>  <Rbt.Library>
libRbt.so (2013.1, Build901 2013/11/27)

>  <Rbt.Parameter_File>
/export/apps/rDock/src/rDock_2013.1_src/data/scripts/dock_solv.prm

>  <Rbt.Receptor>
prm/blind_docking_40.prm

>  <SCORE>
-8.24852

>  <SCORE.INTER>
-10.4129

>  <SCORE.INTER.CONST>
1

>  <SCORE.INTER.POLAR>
0

>  <SCORE.INTER.ROT>
5

>  <SCORE.INTER.SOLV>
14.8535

>  <SCORE.INTER.VDW>
-18.8264

>  <SCORE.INTER.norm>
-0.385664

>  <SCORE.INTRA>
-0.378174

>  <SCORE.INTRA.DIHEDRAL>
2.37732

>  <SCORE.INTRA.DIHEDRAL.0>
2.68224

>  <SCORE.INTRA.POLAR>
0

>  <SCORE.INTRA.POLAR.0>
0

>  <SCORE.INTRA.REPUL>
0

>  <SCORE.INTRA.REPUL.0>
0

>  <SCORE.INTRA.SOLV>
-0.441521

>  <SCORE.INTRA.SOLV.lig_0>
-19.4148

>  <SCORE.INTRA.VDW>
-1.34608

>  <SCORE.INTRA.VDW.0>
5.42093

>  <SCORE.INTRA.norm>
-0.0140065

>  <SCORE.RESTR>
2.54257

>  <SCORE.RESTR.CAVITY>
2.54257

>  <SCORE.RESTR.norm>
0.0941692

>  <SCORE.SYSTEM>
0

>  <SCORE.SYSTEM.CONST>
0

>  <SCORE.SYSTEM.DIHEDRAL>
0

>  <SCORE.SYSTEM.SOLV>
0

>  <SCORE.SYSTEM.norm>
0

>  <SCORE.heavy>
27

>  <SCORE.norm>
-0.305501

>  <RMSD>
20.409

$$$$
lig.pdb
 OpenBabel11021811523D
libRbt.so/2013.1/901 2013/11/27
 27 30  0  0  0  0  0  0  0  0999 V2000
   17.2248   27.0756   12.3512 N   0  0  0  0  0  0  0  0  0  0  0  0
   16.5912   26.2044   13.0967 C   0  0  0  0  0  0  0  0  0  0  0  0
   15.4201   25.6052   12.7641 N   0  0  0  0  0  0  0  0  0  0  0  0
   14.8675   25.8805   11.5451 C   0  0  0  0  0  0  0  0  0  0  0  0
   15.4749   26.7558   10.6910 C   0  0  0  0  0  0  0  0  0  0  0  0
   16.6981   27.4025   11.1023 C   0  0  0  0  0  0  0  0  0  0  0  0
   17.2777   28.2454   10.4063 O   0  0  0  0  0  0  0  0  0  0  0  0
   17.0139   25.8860   14.5478 C   0  0  2  0  0  0  0  0  0  0  0  0
   15.6553   25.7092   15.2453 C   0  0  0  0  0  0  0  0  0  0  0  0
   15.7978   25.6395   16.7007 N   0  0  0  0  0  0  0  0  0  0  0  0
   16.3585   26.9093   17.1901 C   0  0  0  0  0  0  0  0  0  0  0  0
   17.7500   27.1344   16.6324 C   0  0  0  0  0  0  0  0  0  0  0  0
   17.7364   27.1220   15.1101 C   0  0  0  0  0  0  0  0  0  0  0  0
   13.6386   25.1346   11.3093 C   0  0  0  0  0  0  0  0  0  0  0  0
   13.0757   23.9467   12.4261 S   0  0  0  0  0  0  0  0  0  0  0  0
   11.7488   23.5847   11.4675 C   0  0  0  0  0  0  0  0  0  0  0  0
   11.6964   24.3554   10.3738 C   0  0  0  0  0  0  0  0  0  0  0  0
   12.7799   25.2483   10.2614 C   0  0  0  0  0  0  0  0  0  0  0  0
   14.5146   25.3552   17.3668 C   0  0  0  0  0  0  0  0  0  0  0  0
   13.4981   26.4746   17.3357 C   0  0  0  0  0  0  0  0  0  0  0  0
   12.9562   26.9828   18.5074 C   0  0  0  0  0  0  0  0  0  0  0  0
   11.8208   27.7018   18.5686 N   0  0  0  0  0  0  0  0  0  0  0  0
   11.2165   27.8635   17.4011 C   0  0  0  0  0  0  0  0  0  0  0  0
   11.5853   27.4085   16.2143 N   0  0  0  0  0  0  0  0  0  0  0  0
   12.7206   26.6945   16.2175 C   0  0  0  0  0  0  0  0  0  0  0  0
   10.0831   28.5714   17.4673 O   0  0  0  0  0  0  0  0  0  0  0  0
   10.1413   29.8545   18.1014 C   0  0  0  0  0  0  0  0  0  0  0  0
  1  2  2  0  0  0  0
  1  6  1  0  0  0  0
  2  3  1  0  0  0  0
  3  4  2  0  0  0  0
  4 14  1  0  0  0  0
  5  4  1  0  0  0  0
  6  5  1  0  0  0  0
  7  6  2  0  0  0  0
  8  9  1  0  0  0  0
  8  2  1  6  0  0  0
 10 19  1  0  0  0  0
 10  9  1  0  0  0  0
 11 10  1  0  0  0  0
 12 11  1  0  0  0  0
 12 13  1  0  0  0  0
 13  8  1  0  0  0  0
 14 15  1  0  0  0  0
 14 18  2  0  0  0  0
 15 16  1  0  0  0  0
 16 17  2  0  0  0  0
 18 17  1  0  0  0  0
 19 20  1  0  0  0  0
 20 25  2  0  0  0  0
 20 21  1  0  0  0  0
 21 22  2  0  0  0  0
 22 23  1  0  0  0  0
 23 26  1  0  0  0  0
 24 23  2  0  0  0  0
 25 24  1  0  0  0  0
 26 27  1  0  0  0  0
M  END
>  <CHROM.1>
-5.05285771,142.09028592,-70.21103055,-123.63792632,53.02538297,14.21174135
26.39739440,14.40790479,-1.14273335,0.10732915,1.23758450

>  <Name>
lig.pdb

>  <RI>
0

>  <Rbt.Current_Directory>
/home/itssahil/PROJECTS/Mol_Feturizer/New_Systems/rnas/5kx9

>  <Rbt.Executable>
rbdock ($Id: //depot/dev/client3/rdock/2013.1/src/exe/rbdock.cxx#4 $)

>  <Rbt.Library>
libRbt.so (2013.1, Build901 2013/11/27)

>  <Rbt.Parameter_File>
/export/apps/rDock/src/rDock_2013.1_src/data/scripts/dock_solv.prm

>  <Rbt.Receptor>
prm/blind_docking_40.prm

>  <SCORE>
-7.27004

>  <SCORE.INTER>
-8.77765

>  <SCORE.INTER.CONST>
1

>  <SCORE.INTER.POLAR>
0

>  <SCORE.INTER.ROT>
5

>  <SCORE.INTER.SOLV>
14.5882

>  <SCORE.INTER.VDW>
-17.6478

>  <SCORE.INTER.norm>
-0.325098

>  <SCORE.INTRA>
-1.02048

>  <SCORE.INTRA.DIHEDRAL>
2.40587

>  <SCORE.INTRA.DIHEDRAL.0>
2.68224

>  <SCORE.INTRA.POLAR>
0

>  <SCORE.INTRA.POLAR.0>
0

>  <SCORE.INTRA.REPUL>
0

>  <SCORE.INTRA.REPUL.0>
0

>  <SCORE.INTRA.SOLV>
-0.481695

>  <SCORE.INTRA.SOLV.lig_0>
-19.4148

>  <SCORE.INTRA.VDW>
-1.98257

>  <SCORE.INTRA.VDW.0>
5.42093

>  <SCORE.INTRA.norm>
-0.0377956

>  <SCORE.RESTR>
2.52809

>  <SCORE.RESTR.CAVITY>
2.52809

>  <SCORE.RESTR.norm>
0.0936331

>  <SCORE.SYSTEM>
0

>  <SCORE.SYSTEM.CONST>
0

>  <SCORE.SYSTEM.DIHEDRAL>
0

>  <SCORE.SYSTEM.SOLV>
0

>  <SCORE.SYSTEM.norm>
0

>  <SCORE.heavy>
27

>  <SCORE.norm>
-0.269261

>  <RMSD>
20.441

$$$$
