@<TRIPOS>MOLECULE
5kx9_rdock.pdb
 2321 2598 0 0 0
SMALL
GASTEIGER

@<TRIPOS>ATOM
      1  O5'       -6.4720   38.4100   18.6230 O.3     1  G1         -0.2176
      2  C5'       -5.7680   37.3410   19.2790 C.3     1  G1          0.2141
      3  C4'       -6.7200   36.4580   20.0780 C.3     1  G1          0.1802
      4  O4'       -7.9800   36.3290   19.3550 O.3     1  G1         -0.3306
      5  C3'       -6.2600   35.0170   20.2780 C.3     1  G1          0.1861
      6  O3'       -5.3850   34.8870   21.4030 O.3     1  G1         -0.3112
      7  C2'       -7.5920   34.2970   20.4810 C.3     1  G1          0.2309
      8  O2'       -8.1580   34.5190   21.7610 O.3     1  G1         -0.2156
      9  C1'       -8.4330   34.9770   19.4080 C.3     1  G1          0.2408
     10   N9       -8.3000   34.3520   18.0730 N.ar    1  G1         -0.2693
     11   C8       -7.6340   34.8530   16.9700 C.ar    1  G1          0.1817
     12   N7       -7.6360   34.0450   15.9420 N.ar    1  G1         -0.2173
     13   C5       -8.3370   32.9310   16.3860 C.ar    1  G1          0.1748
     14   C6       -8.6780   31.7320   15.7030 C.ar    1  G1          0.3023
     15   O6       -8.4090   31.4120   14.5360 O.2     1  G1         -0.2633
     16   N.1      -9.4330   30.8670   16.5130 N.ar    1  G1         -0.1709
     17   C.2      -9.7770   31.1200   17.8310 C.ar    1  G1          0.2606
     18   N.2     -10.4730   30.1670   18.4640 N.pl3   1  G1         -0.0859
     19   N.3      -9.4660   32.2390   18.4750 N.ar    1  G1         -0.1918
     20   C4       -8.7520   33.1020   17.6970 C.ar    1  G1          0.1723
     21    P.3     -4.2600   33.7230   21.4310 P.3     2  G2          0.2141
     22  OP1       -3.4090   33.9510   22.6300 O.3     2  G2         -0.4373
     23  OP2       -3.6270   33.6440   20.0860 O.2     2  G2         -0.5172
     24  O5'       -5.1180   32.3760   21.6400 O.3     2  G2         -0.3114
     25  C5'       -5.4860   31.9510   22.9530 C.3     2  G2          0.1812
     26  C4'       -6.1600   30.5890   22.9260 C.3     2  G2          0.1773
     27  O4'       -7.2770   30.6150   21.9960 O.3     2  G2         -0.3307
     28  C3'       -5.2950   29.4310   22.4430 C.3     2  G2          0.1860
     29  O3'       -4.4700   28.9240   23.4990 O.3     2  G2         -0.3112
     30  C2'       -6.3550   28.4260   21.9930 C.3     2  G2          0.2309
     31  O2'       -6.9420   27.7010   23.0670 O.3     2  G2         -0.2156
     32  C1'       -7.3840   29.3550   21.3340 C.3     2  G2          0.2408
     33   N9       -7.1460   29.5590   19.8970 N.ar    2  G2         -0.2693
     34   C8       -6.6030   30.6760   19.2950 C.ar    2  G2          0.1817
     35   N7       -6.4630   30.5610   18.0050 N.ar    2  G2         -0.2173
     36   C5       -6.9040   29.2710   17.7290 C.ar    2  G2          0.1748
     37   C6       -7.0040   28.5870   16.4870 C.ar    2  G2          0.3023
     38   O6       -6.6840   28.9970   15.3620 O.2     2  G2         -0.2633
     39   N.1      -7.5170   27.2940   16.6400 N.ar    2  G2         -0.1709
     40   C.2      -7.8850   26.7290   17.8460 C.ar    2  G2          0.2606
     41   N.2      -8.3490   25.4680   17.7970 N.pl3   2  G2         -0.0859
     42   N.3      -7.8300   27.3730   19.0150 N.ar    2  G2         -0.1918
     43   C4       -7.3380   28.6410   18.8800 C.ar    2  G2          0.1723
     44    P.3     -2.9850   28.3840   23.1770 P.3     3  A3          0.2141
     45  OP1       -2.2920   28.1730   24.4740 O.3     3  A3         -0.4373
     46  OP2       -2.3730   29.2730   22.1550 O.2     3  A3         -0.5172
     47  O5'       -3.2610   26.9590   22.4810 O.3     3  A3         -0.3114
     48  C5'       -3.5650   25.8040   23.2750 C.3     3  A3          0.1812
     49  C4'       -4.1770   24.6980   22.4280 C.3     3  A3          0.1773
     50  O4'       -5.2110   25.2550   21.5670 O.3     3  A3         -0.3307
     51  C3'       -3.2190   23.9990   21.4710 C.3     3  A3          0.1860
     52  O3'       -2.5070   22.9410   22.1280 O.3     3  A3         -0.3112
     53  C2'       -4.1740   23.4740   20.3950 C.3     3  A3          0.2309
     54  O2'       -4.8430   22.2740   20.7610 O.3     3  A3         -0.2156
     55  C1'       -5.1620   24.6340   20.2820 C.3     3  A3          0.2408
     56   N9       -4.7650   25.6310   19.2720 N.ar    3  A3         -0.2693
     57   C8       -4.3040   26.9040   19.5020 C.ar    3  A3          0.1816
     58   N7       -3.9930   27.5670   18.4120 N.ar    3  A3         -0.2193
     59   C5       -4.2420   26.6630   17.3890 C.ar    3  A3          0.1518
     60   C6       -4.1180   26.7560   15.9750 C.ar    3  A3          0.1919
     61   N6       -3.6680   27.8490   15.3450 N.pl3   3  A3         -0.1054
     62   N.1      -4.4370   25.6570   15.2380 N.ar    3  A3         -0.2040
     63   C.2      -4.8540   24.5460   15.8760 C.ar    3  A3          0.2016
     64   N.3      -5.0390   24.3500   17.1890 N.ar    3  A3         -0.2048
     65   C4       -4.7050   25.4550   17.9000 C.ar    3  A3          0.1692
     66    P.3     -1.0160   22.5460   21.6520 P.3     4  U4          0.2141
     67  OP1       -0.5530   21.4180   22.5050 O.3     4  U4         -0.4373
     68  OP2       -0.2080   23.7940   21.5780 O.2     4  U4         -0.5172
     69  O5'       -1.2280   22.0130   20.1500 O.3     4  U4         -0.3114
     70  C5'       -1.7570   20.7090   19.9120 C.3     4  U4          0.1812
     71  C4'       -1.6870   20.3570   18.4380 C.3     4  U4          0.1773
     72  O4'       -2.4820   21.2940   17.6680 O.3     4  U4         -0.3307
     73  C3'       -0.3110   20.4700   17.8060 C.3     4  U4          0.1860
     74  O3'        0.4920   19.3510   18.1200 O.3     4  U4         -0.3112
     75  C2'       -0.6600   20.5470   16.3220 C.3     4  U4          0.2309
     76  O2'       -0.9350   19.2830   15.7370 O.3     4  U4         -0.2156
     77  C1'       -1.9210   21.4160   16.3550 C.3     4  U4          0.2420
     78   N.1      -1.6420   22.8870   16.0330 N.ar    4  U4         -0.2534
     79   C.2      -1.5710   23.2940   14.6930 C.ar    4  U4          0.3546
     80   O.2      -1.7540   22.5420   13.7390 O.2     4  U4         -0.2443
     81   N.3      -1.2890   24.6340   14.5110 N.ar    4  U4         -0.1530
     82   C4       -1.0800   25.5910   15.4950 C.ar    4  U4          0.2846
     83   O4       -0.8470   26.7530   15.1680 O.2     4  U4         -0.2650
     84   C5       -1.1380   25.0940   16.8570 C.ar    4  U4          0.0814
     85   C6       -1.4030   23.7920   17.0710 C.ar    4  U4          0.0870
     86    P.3      2.0950   19.4660   18.0480 P.3     5  C5          0.2141
     87  OP1        2.6480   18.2920   18.7690 O.3     5  C5         -0.4373
     88  OP2        2.4940   20.8470   18.4620 O.2     5  C5         -0.5172
     89  O5'        2.3830   19.2900   16.4670 O.3     5  C5         -0.3114
     90  C5'        3.1830   20.2290   15.7510 C.3     5  C5          0.1812
     91  C4'        2.8970   20.1520   14.2580 C.3     5  C5          0.1773
     92  O4'        1.6970   20.9140   13.9620 O.3     5  C5         -0.3307
     93  C3'        3.9880   20.7410   13.3700 C.3     5  C5          0.1860
     94  O3'        4.8780   19.7310   12.9510 O.3     5  C5         -0.3112
     95  C2'        3.2120   21.3420   12.2000 C.3     5  C5          0.2309
     96  O2'        2.9230   20.4060   11.1740 O.3     5  C5         -0.2156
     97  C1'        1.9340   21.8160   12.8890 C.3     5  C5          0.2420
     98   N.1       2.0110   23.2590   13.4370 N.ar    5  C5         -0.2535
     99   C.2       2.0850   24.3590   12.5410 C.ar    5  C5          0.3532
    100   O.2       2.0950   24.1580   11.3150 O.2     5  C5         -0.2443
    101   N.3       2.1630   25.6210   13.0560 N.ar    5  C5         -0.1739
    102   C4        2.1680   25.8120   14.3870 C.ar    5  C5          0.1759
    103   N.4       2.2430   27.0700   14.8390 N.pl3   5  C5         -0.1070
    104   C5        2.1100   24.7170   15.3100 C.ar    5  C5          0.0566
    105   C6        2.0020   23.4800   14.8000 C.ar    5  C5          0.0850
    106    P.3      6.4410   20.0490   12.8250 P.3     6  U6          0.2141
    107  OP1        7.1460   18.7570   12.6200 O.2     6  U6         -0.5172
    108  OP2        6.8210   20.9230   13.9630 O.3     6  U6         -0.4373
    109  O5'        6.5250   20.9150   11.4740 O.3     6  U6         -0.3114
    110  C5'        6.1900   20.3160   10.2230 C.3     6  U6          0.1812
    111  C4'        6.1960   21.3370    9.1090 C.3     6  U6          0.1773
    112  O4'        5.1630   22.3260    9.3380 O.3     6  U6         -0.3307
    113  C3'        7.4490   22.1690    9.0120 C.3     6  U6          0.1860
    114  O3'        8.4970   21.4430    8.4070 O.3     6  U6         -0.3112
    115  C2'        6.9630   23.3470    8.1740 C.3     6  U6          0.2309
    116  O2'        6.8450   23.0590    6.7880 O.3     6  U6         -0.2156
    117  C1'        5.5860   23.5820    8.7890 C.3     6  U6          0.2420
    118   N.1       5.5730   24.6630    9.8880 N.ar    6  U6         -0.2534
    119   C.2       5.6080   26.0220    9.5320 C.ar    6  U6          0.3546
    120   O.2       5.6410   26.4260    8.3700 O.2     6  U6         -0.2443
    121   N.3       5.5420   26.8970   10.6030 N.ar    6  U6         -0.1530
    122   C4        5.4820   26.5730   11.9610 C.ar    6  U6          0.2846
    123   O4        5.4460   27.4720   12.8030 O.2     6  U6         -0.2650
    124   C5        5.4850   25.1530   12.2510 C.ar    6  U6          0.0814
    125   C6        5.5260   24.2750   11.2320 C.ar    6  U6          0.0870
    126    P.3     10.0070   21.6660    8.9100 P.3     7  U7          0.2141
    127  OP1       10.8350   20.5650    8.3550 O.2     7  U7         -0.5172
    128  OP2        9.9830   21.8990   10.3840 O.3     7  U7         -0.4373
    129  O5'       10.4090   23.0520    8.1820 O.3     7  U7         -0.3114
    130  C5'       10.5140   23.1190    6.7340 C.3     7  U7          0.1812
    131  C4'       10.3450   24.5470    6.2170 C.3     7  U7          0.1773
    132  O4'        9.0990   25.1160    6.7160 O.3     7  U7         -0.3307
    133  C3'       11.3910   25.5420    6.6810 C.3     7  U7          0.1860
    134  O3'       12.6050   25.4130    5.9510 O.3     7  U7         -0.3112
    135  C2'       10.6660   26.8680    6.4280 C.3     7  U7          0.2309
    136  O2'       10.6010   27.2300    5.0490 O.3     7  U7         -0.2156
    137  C1'        9.2710   26.5170    6.9520 C.3     7  U7          0.2420
    138   N.1       9.0730   26.8240    8.4490 N.ar    7  U7         -0.2534
    139   C.2       8.8420   28.1340    8.8570 C.ar    7  U7          0.3546
    140   O.2       8.7970   29.0750    8.0860 O.2     7  U7         -0.2443
    141   N.3       8.6960   28.3030   10.2250 N.ar    7  U7         -0.1530
    142   C4        8.7590   27.3130   11.2050 C.ar    7  U7          0.2846
    143   O4        8.6030   27.6060   12.3820 O.2     7  U7         -0.2650
    144   C5        8.9990   25.9820   10.7070 C.ar    7  U7          0.0814
    145   C6        9.1620   25.7950    9.3850 C.ar    7  U7          0.0870
    146    P.3     14.0130   25.6600    6.6980 P.3     8  C8          0.2141
    147  OP1       15.0930   25.2970    5.7410 O.2     8  C8         -0.5172
    148  OP2       13.9560   25.0140    8.0400 O.3     8  C8         -0.4373
    149  O5'       14.0240   27.2500    6.9310 O.3     8  C8         -0.3114
    150  C5'       14.2040   28.1380    5.8270 C.3     8  C8          0.1812
    151  C4'       13.8290   29.5620    6.2010 C.3     8  C8          0.1773
    152  O4'       12.5510   29.5610    6.8930 O.3     8  C8         -0.3307
    153  C3'       14.7620   30.2440    7.1860 C.3     8  C8          0.1860
    154  O3'       15.9340   30.7420    6.5480 O.3     8  C8         -0.3112
    155  C2'       13.8620   31.3490    7.7300 C.3     8  C8          0.2309
    156  O2'       13.6840   32.4310    6.8360 O.3     8  C8         -0.2156
    157  C1'       12.5490   30.5870    7.8810 C.3     8  C8          0.2420
    158   N.1      12.3590   29.9840    9.2530 N.ar    8  C8         -0.2535
    159   C.2      12.0500   30.8260   10.3270 C.ar    8  C8          0.3532
    160   O.2      11.9510   32.0380   10.1280 O.2     8  C8         -0.2443
    161   N.3      11.8410   30.2810   11.5580 N.ar    8  C8         -0.1739
    162   C4       11.9750   28.9580   11.7420 C.ar    8  C8          0.1759
    163   N.4      11.7820   28.4700   12.9770 N.pl3   8  C8         -0.1070
    164   C5       12.3270   28.0810   10.6610 C.ar    8  C8          0.0566
    165   C6       12.5000   28.6310    9.4470 C.ar    8  C8          0.0850
    166    P.3     17.3700   30.6150    7.2830 P.3     9  G9          0.2141
    167  OP1       18.4070   31.1330    6.3460 O.2     9  G9         -0.5172
    168  OP2       17.4960   29.2420    7.8490 O.3     9  G9         -0.4373
    169  O5'       17.2260   31.6340    8.5110 O.3     9  G9         -0.3114
    170  C5'       17.1010   33.0440    8.2740 C.3     9  G9          0.1812
    171  C4'       16.7630   33.7720    9.5560 C.3     9  G9          0.1773
    172  O4'       15.4710   33.3300   10.0500 O.3     9  G9         -0.3307
    173  C3'       17.6980   33.4890   10.7100 C.3     9  G9          0.1860
    174  O3'       18.8450   34.2670   10.6100 O.3     9  G9         -0.3112
    175  C2'       16.8370   33.9060   11.8880 C.3     9  G9          0.2309
    176  O2'       16.7510   35.3150   12.0280 O.3     9  G9         -0.2156
    177  C1'       15.4860   33.3340   11.4760 C.3     9  G9          0.2408
    178   N9       15.2830   31.9740   11.9710 N.ar    9  G9         -0.2693
    179   C8       15.5350   30.8020   11.2970 C.ar    9  G9          0.1817
    180   N7       15.3310   29.7340   12.0110 N.ar    9  G9         -0.2173
    181   C5       14.9340   30.2240   13.2450 C.ar    9  G9          0.1748
    182   C6       14.6020   29.5250   14.4310 C.ar    9  G9          0.3023
    183   O6       14.6190   28.2960   14.6180 O.2     9  G9         -0.2633
    184   N.1      14.2410   30.4000   15.4740 N.ar    9  G9         -0.1709
    185   C.2      14.2470   31.7790   15.3750 C.ar    9  G9          0.2606
    186   N.2      13.9130   32.4620   16.4790 N.pl3   9  G9         -0.0859
    187   N.3      14.5660   32.4410   14.2620 N.ar    9  G9         -0.1918
    188   C4       14.9150   31.6030   13.2460 C.ar    9  G9          0.1723
    189    P.3     20.2810   33.6300   10.9130 P.3    10  G10         0.2141
    190  OP1       20.6450   32.7340    9.7820 O.2    10  G10        -0.5172
    191  OP2       20.2910   33.1120   12.3100 O.3    10  G10        -0.4373
    192  O5'       21.1990   34.9240   10.8580 O.3    10  G10        -0.3114
    193  C5'       21.2430   35.7070    9.6700 C.3    10  G10         0.1812
    194  C4'       22.5590   36.4580    9.5730 C.3    10  G10         0.1773
    195  O4'       22.7250   37.3150   10.7370 O.3    10  G10        -0.3307
    196  C3'       23.8160   35.5780    9.5210 C.3    10  G10         0.1860
    197  O3'       24.7680   36.2120    8.6970 O.3    10  G10        -0.3112
    198  C2'       24.2610   35.5820   10.9860 C.3    10  G10         0.2309
    199  O2'       25.6280   35.2860   11.1520 O.3    10  G10        -0.2156
    200  C1'       23.9740   37.0330   11.3330 C.3    10  G10         0.2408
    201   N9       23.8890   37.3360   12.7480 N.ar   10  G10        -0.2693
    202   C8       23.4520   36.5120   13.7590 C.ar   10  G10         0.1817
    203   N7       23.4010   37.0980   14.9180 N.ar   10  G10        -0.2173
    204   C5       23.7790   38.4050   14.6500 C.ar   10  G10         0.1748
    205   C6       23.9060   39.5080   15.5140 C.ar   10  G10         0.3023
    206   O6       23.7030   39.5430   16.7180 O.2    10  G10        -0.2633
    207   N.1      24.2550   40.6790   14.8420 N.ar   10  G10        -0.1709
    208   C.2      24.5100   40.7730   13.4980 C.ar   10  G10         0.2606
    209   N.2      24.8770   41.9880   13.0450 N.pl3  10  G10        -0.0859
    210   N.3      24.4140   39.7360   12.6580 N.ar   10  G10        -0.1918
    211   C4       24.0560   38.5770   13.3150 C.ar   10  G10         0.1723
    212    P.3     25.5470   35.4150    7.5620 P.3    11  G11         0.2141
    213  OP1       24.5600   34.9620    6.5480 O.2    11  G11        -0.5172
    214  OP2       26.4570   34.4300    8.2110 O.3    11  G11        -0.4373
    215  O5'       26.4400   36.5800    6.9370 O.3    11  G11        -0.3114
    216  C5'       25.8530   37.5480    6.0960 C.3    11  G11         0.1812
    217  C4'       26.4400   38.9040    6.3720 C.3    11  G11         0.1773
    218  O4'       26.0530   39.3160    7.6950 O.3    11  G11        -0.3307
    219  C3'       27.9540   38.9610    6.3830 C.3    11  G11         0.1860
    220  O3'       28.4390   39.1530    5.0660 O.3    11  G11        -0.3112
    221  C2'       28.2250   40.1660    7.2810 C.3    11  G11         0.2309
    222  O2'       28.0890   41.3980    6.5960 O.3    11  G11        -0.2156
    223  C1'       27.1080   40.0420    8.3010 C.3    11  G11         0.2408
    224   N9       27.4650   39.3820    9.5490 N.ar   11  G11        -0.2693
    225   C8       27.3260   38.0480    9.8310 C.ar   11  G11         0.1817
    226   N7       27.5310   37.7540   11.0760 N.ar   11  G11        -0.2173
    227   C5       27.7140   38.9810   11.6820 C.ar   11  G11         0.1748
    228   C6       27.9110   39.2950   13.0420 C.ar   11  G11         0.3023
    229   O6       28.0290   38.5080   13.9910 O.2    11  G11        -0.2633
    230   N.1      28.0450   40.6700   13.2440 N.ar   11  G11        -0.1709
    231   C.2      28.0120   41.6160   12.2380 C.ar   11  G11         0.2606
    232   N.2      28.1650   42.8980   12.6010 N.pl3  11  G11        -0.0859
    233   N.3      27.7800   41.3280   10.9750 N.ar   11  G11        -0.1918
    234   C4       27.6780   39.9920   10.7600 C.ar   11  G11         0.1723
    235    P.3     29.6930   38.2990    4.5430 P.3    12  G12         0.2141
    236  OP1       29.5920   38.1950    3.0590 O.2    12  G12        -0.5172
    237  OP2       29.8000   37.0610    5.3700 O.3    12  G12        -0.4373
    238  O5'       30.9250   39.2430    4.9190 O.3    12  G12        -0.3114
    239  C5'       31.0370   40.5560    4.3800 C.3    12  G12         0.1812
    240  C4'       31.9270   41.3810    5.2690 C.3    12  G12         0.1773
    241  O4'       31.3510   41.3600    6.5860 O.3    12  G12        -0.3307
    242  C3'       33.3250   40.8190    5.4660 C.3    12  G12         0.1860
    243  O3'       34.1850   41.3020    4.4390 O.3    12  G12        -0.3112
    244  C2'       33.7080   41.3640    6.8460 C.3    12  G12         0.2309
    245  O2'       34.1920   42.7030    6.7900 O.3    12  G12        -0.2156
    246  C1'       32.3680   41.3450    7.5740 C.3    12  G12         0.2408
    247   N9       32.1430   40.2060    8.4760 N.ar   12  G12        -0.2693
    248   C8       31.9750   38.8920    8.1250 C.ar   12  G12         0.1817
    249   N7       31.6950   38.1050    9.1350 N.ar   12  G12        -0.2173
    250   C5       31.5970   38.9570   10.2070 C.ar   12  G12         0.1748
    251   C6       31.3170   38.6720   11.5630 C.ar   12  G12         0.3023
    252   O6       31.0730   37.5760   12.0760 O.2    12  G12        -0.2633
    253   N.1      31.2950   39.8240   12.3430 N.ar   12  G12        -0.1709
    254   C.2      31.4880   41.0980   11.8580 C.ar   12  G12         0.2606
    255   N.2      31.3760   42.0820   12.7480 N.pl3  12  G12        -0.0859
    256   N.3      31.8080   41.3810   10.5910 N.ar   12  G12        -0.1918
    257   C4       31.8390   40.2640    9.8210 C.ar   12  G12         0.1723
    258    P.3     35.4670   40.4560    3.9540 P.3    13  C13         0.2141
    259  OP1       35.8800   41.0030    2.6440 O.2    13  C13        -0.5172
    260  OP2       35.1510   39.0200    4.0950 O.3    13  C13        -0.4373
    261  O5'       36.5880   40.8450    5.0280 O.3    13  C13        -0.3114
    262  C5'       37.9420   40.3780    4.8720 C.3    13  C13         0.1812
    263  C4'       38.9480   41.4860    5.1700 C.3    13  C13         0.1773
    264  O4'       38.8000   41.9250    6.5320 O.3    13  C13        -0.3307
    265  C3'       40.4030   41.0740    5.0660 C.3    13  C13         0.1860
    266  O3'       40.8530   41.2160    3.7160 O.3    13  C13        -0.3112
    267  C2'       41.1200   42.0560    6.0320 C.3    13  C13         0.2309
    268  O2'       41.6940   43.1850    5.3980 O.3    13  C13        -0.2156
    269  C1'       40.0140   42.5090    6.9720 C.3    13  C13         0.2420
    270   N.1      40.2390   42.1500    8.4230 N.ar   13  C13        -0.2535
    271   C.2      41.0360   42.9770    9.2510 C.ar   13  C13         0.3532
    272   O.2      41.6100   43.9600    8.7630 O.2    13  C13        -0.2443
    273   N.3      41.1550   42.6590   10.5810 N.ar   13  C13        -0.1739
    274   C4       40.5290   41.5730   11.0810 C.ar   13  C13         0.1759
    275   N.4      40.6600   41.3010   12.3870 N.pl3  13  C13        -0.1070
    276   C5       39.7510   40.7140   10.2470 C.ar   13  C13         0.0566
    277   C6       39.6250   41.0400    8.9450 C.ar   13  C13         0.0850
    278    P.3     41.9100   40.1850    3.0670 P.3    14  A14         0.2141
    279  OP1       41.3880   38.8130    3.2380 O.2    14  A14        -0.5172
    280  OP2       43.2800   40.5280    3.5510 O.3    14  A14        -0.4373
    281  O5'       41.8410   40.5720    1.5270 O.3    14  A14        -0.3114
    282  C5'       40.6040   40.8190    0.9300 C.3    14  A14         0.1812
    283  C4'       40.7090   41.9120   -0.1160 C.3    14  A14         0.1773
    284  O4'       40.0660   43.1150    0.3650 O.3    14  A14        -0.3307
    285  C3'       42.1010   42.3800   -0.4960 C.3    14  A14         0.1860
    286  O3'       42.7160   41.4760   -1.3910 O.3    14  A14        -0.3112
    287  C2'       41.7500   43.6880   -1.1760 C.3    14  A14         0.2309
    288  O2'       41.1610   43.4830   -2.4420 O.3    14  A14        -0.2156
    289  C1'       40.7140   44.2420   -0.1980 C.3    14  A14         0.2408
    290   N9       41.3010   45.0270    0.8900 N.ar   14  A14        -0.2693
    291   C8       41.4950   44.6290    2.1940 C.ar   14  A14         0.1816
    292   N7       42.0310   45.5610    2.9580 N.ar   14  A14        -0.2193
    293   C5       42.2600   46.6140    2.0830 C.ar   14  A14         0.1518
    294   C6       42.8240   47.9000    2.2590 C.ar   14  A14         0.1919
    295   N6       43.3130   48.3330    3.4180 N.pl3  14  A14        -0.1054
    296   N.1      42.8940   48.7120    1.1880 N.ar   14  A14        -0.2040
    297   C.2      42.4140   48.2720    0.0200 C.ar   14  A14         0.2016
    298   N.3      41.8540   47.0920   -0.2700 N.ar   14  A14        -0.2048
    299   C4       41.8090   46.3030    0.8110 C.ar   14  A14         0.1692
    300    P.3     44.2940   41.2190   -1.3150 P.3    15  G15         0.2141
    301  OP1       44.6880   40.5030   -2.5400 O.2    15  G15        -0.5172
    302  OP2       44.6110   40.6270    0.0030 O.3    15  G15        -0.4373
    303  O5'       44.9140   42.6950   -1.3170 O.3    15  G15        -0.3114
    304  C5'       45.1520   43.3930   -2.5070 C.3    15  G15         0.1812
    305  C4'       45.7940   44.7540   -2.2230 C.3    15  G15         0.1773
    306  O4'       44.9290   45.5490   -1.3670 O.3    15  G15        -0.3307
    307  C3'       47.1060   44.7020   -1.4670 C.3    15  G15         0.1860
    308  O3'       48.1730   44.4720   -2.3100 O.3    15  G15        -0.3112
    309  C2'       47.1760   46.0660   -0.8090 C.3    15  G15         0.2309
    310  O2'       47.6420   47.0860   -1.6580 O.3    15  G15        -0.2156
    311  C1'       45.7220   46.2850   -0.4270 C.3    15  G15         0.2408
    312   N9       45.4450   45.8210    0.9390 N.ar   15  G15        -0.2693
    313   C8       45.0220   44.5700    1.3280 C.ar   15  G15         0.1817
    314   N7       44.9840   44.4130    2.6240 N.ar   15  G15        -0.2173
    315   C5       45.4610   45.6140    3.1240 C.ar   15  G15         0.1748
    316   C6       45.6450   46.0420    4.4700 C.ar   15  G15         0.3023
    317   O6       45.3990   45.4230    5.5100 O.2    15  G15        -0.2633
    318   N.1      46.1780   47.3320    4.5370 N.ar   15  G15        -0.1709
    319   C.2      46.4980   48.1040    3.4400 C.ar   15  G15         0.2606
    320   N.2      47.0000   49.3120    3.6930 N.pl3  15  G15        -0.0859
    321   N.3      46.3090   47.7250    2.1810 N.ar   15  G15        -0.1918
    322   C4       45.8020   46.4680    2.0970 C.ar   15  G15         0.1723
    323    P.3     49.3520   43.5200   -1.8030 P.3    16  G16         0.2141
    324  OP1       50.4800   43.6980   -2.7360 O.2    16  G16        -0.5172
    325  OP2       48.8090   42.1600   -1.5760 O.3    16  G16        -0.4373
    326  O5'       49.6980   44.1540   -0.3760 O.3    16  G16        -0.3114
    327  C5'       51.0050   44.4590   -0.0140 C.3    16  G16         0.1812
    328  C4'       51.0620   45.7700    0.7500 C.3    16  G16         0.1773
    329  O4'       49.7520   46.1300    1.2940 O.3    16  G16        -0.3307
    330  C3'       51.9660   45.7640    1.9560 C.3    16  G16         0.1860
    331  O3'       53.3240   45.9050    1.5640 O.3    16  G16        -0.3112
    332  C2'       51.4390   46.9830    2.7060 C.3    16  G16         0.2309
    333  O2'       51.8380   48.2130    2.1180 O.3    16  G16        -0.2156
    334  C1'       49.9240   46.7770    2.5530 C.3    16  G16         0.2408
    335   N9       49.3550   45.9190    3.6100 N.ar   16  G16        -0.2693
    336   C8       48.7900   44.6780    3.4530 C.ar   16  G16         0.1817
    337   N7       48.4670   44.1010    4.5780 N.ar   16  G16        -0.2173
    338   C5       48.8510   45.0080    5.5490 C.ar   16  G16         0.1748
    339   C6       48.7370   44.9340    6.9590 C.ar   16  G16         0.3023
    340   O6       48.2800   44.0070    7.6490 O.2    16  G16        -0.2633
    341   N.1      49.2670   46.0650    7.5760 N.ar   16  G16        -0.1709
    342   C.2      49.8280   47.1360    6.9130 C.ar   16  G16         0.2606
    343   N.2      50.2720   48.1490    7.6750 N.pl3  16  G16        -0.0859
    344   N.3      49.8940   47.2390    5.5950 N.ar   16  G16        -0.1918
    345   C4       49.4010   46.1340    4.9750 C.ar   16  G16         0.1723
    346    P.3     54.4560   45.0810    2.3400 P.3    17  G17         0.2141
    347  OP1       55.7330   45.2820    1.6180 O.2    17  G17        -0.5172
    348  OP2       53.9590   43.7020    2.5840 O.3    17  G17        -0.4373
    349  O5'       54.5280   45.8340    3.7550 O.3    17  G17        -0.3114
    350  C5'       54.9530   47.1920    3.8210 C.3    17  G17         0.1812
    351  C4'       55.1640   47.6260    5.2550 C.3    17  G17         0.1773
    352  O4'       53.8770   47.7640    5.9040 O.3    17  G17        -0.3307
    353  C3'       55.9260   46.6430    6.1350 C.3    17  G17         0.1860
    354  O3'       57.3290   46.7950    5.9720 O.3    17  G17        -0.3112
    355  C2'       55.4580   47.0690    7.5170 C.3    17  G17         0.2309
    356  O2'       56.0750   48.2700    7.9550 O.3    17  G17        -0.2156
    357  C1'       53.9730   47.3140    7.2490 C.3    17  G17         0.2408
    358   N9       53.1300   46.1150    7.4450 N.ar   17  G17        -0.2693
    359   C8       52.6160   45.2780    6.4770 C.ar   17  G17         0.1817
    360   N7       51.9550   44.2590    6.9610 N.ar   17  G17        -0.2173
    361   C5       52.0480   44.4210    8.3340 C.ar   17  G17         0.1748
    362   C6       51.5090   43.6420    9.3840 C.ar   17  G17         0.3023
    363   O6       50.8340   42.6180    9.3040 O.2    17  G17        -0.2633
    364   N.1      51.8440   44.1500   10.6350 N.ar   17  G17        -0.1709
    365   C.2      52.6060   45.2710   10.8470 C.ar   17  G17         0.2606
    366   N.2      52.7990   45.6250   12.1160 N.pl3  17  G17        -0.0859
    367   N.3      53.0870   46.0310    9.8800 N.ar   17  G17        -0.1918
    368   C4       52.7750   45.5480    8.6480 C.ar   17  G17         0.1723
    369    P.3     58.3030   45.5200    6.0920 P.3    18  U18         0.2141
    370  OP1       59.6640   45.9650    5.6990 O.3    18  U18        -0.4373
    371  OP2       57.6750   44.3560    5.4100 O.2    18  U18        -0.5172
    372  O5'       58.2980   45.2130    7.6590 O.3    18  U18        -0.3114
    373  C5'       58.9530   46.0940    8.5610 C.3    18  U18         0.1812
    374  C4'       58.6890   45.6870    9.9930 C.3    18  U18         0.1773
    375  O4'       57.2570   45.7100   10.2540 O.3    18  U18        -0.3307
    376  C3'       59.0830   44.2650   10.3390 C.3    18  U18         0.1860
    377  O3'       60.4710   44.1450   10.5570 O.3    18  U18        -0.3112
    378  C2'       58.2790   44.0450   11.6060 C.3    18  U18         0.2309
    379  O2'       58.8490   44.6700   12.7410 O.3    18  U18        -0.2156
    380  C1'       56.9500   44.7110   11.2290 C.3    18  U18         0.2420
    381   N.1      55.9330   43.7060   10.6770 N.ar   18  U18        -0.2534
    382   C.2      55.2320   42.9030   11.5730 C.ar   18  U18         0.3546
    383   O.2      55.3040   43.0240   12.7830 O.2    18  U18        -0.2443
    384   N.3      54.4200   41.9560   10.9930 N.ar   18  U18        -0.1530
    385   C4       54.2260   41.7350    9.6440 C.ar   18  U18         0.2846
    386   O4       53.4320   40.8730    9.2830 O.2    18  U18        -0.2650
    387   C5       55.0120   42.5760    8.7670 C.ar   18  U18         0.0814
    388   C6       55.8240   43.5020    9.3020 C.ar   18  U18         0.0870
    389    P.3     61.2990   42.9950    9.7940 P.3    19  G19         0.2141
    390  OP1       62.7360   43.3420    9.8960 O.3    19  G19        -0.4373
    391  OP2       60.6830   42.7940    8.4590 O.2    19  G19        -0.5172
    392  O5'       61.0310   41.6720   10.6450 O.3    19  G19        -0.3114
    393  C5'       61.1250   41.7010   12.0480 C.3    19  G19         0.1812
    394  C4'       60.1990   40.6800   12.6660 C.3    19  G19         0.1773
    395  O4'       58.8050   41.0200   12.3970 O.3    19  G19        -0.3307
    396  C3'       60.3410   39.2870   12.1090 C.3    19  G19         0.1860
    397  O3'       61.4780   38.6380   12.6530 O.3    19  G19        -0.3112
    398  C2'       59.0190   38.6610   12.5480 C.3    19  G19         0.2309
    399  O2'       58.9940   38.3210   13.9260 O.3    19  G19        -0.2156
    400  C1'       58.0460   39.8160   12.2640 C.3    19  G19         0.2408
    401   N9       57.4300   39.7380   10.9170 N.ar   19  G19        -0.2693
    402   C8       57.8990   40.3000    9.7490 C.ar   19  G19         0.1817
    403   N7       57.2220   39.9510    8.6840 N.ar   19  G19        -0.2173
    404   C5       56.2420   39.0870    9.1680 C.ar   19  G19         0.1748
    405   C6       55.1830   38.3950    8.4820 C.ar   19  G19         0.3023
    406   O6       54.8930   38.4150    7.2660 O.2    19  G19        -0.2633
    407   N.1      54.4130   37.6320    9.3620 N.ar   19  G19        -0.1709
    408   C.2      54.6190   37.5580   10.7240 C.ar   19  G19         0.2606
    409   N.2      53.7710   36.7840   11.4130 N.pl3  19  G19        -0.0859
    410   N.3      55.5910   38.1970   11.3700 N.ar   19  G19        -0.1918
    411   C4       56.3600   38.9430   10.5400 C.ar   19  G19         0.1723
    412    P.3     62.4470   37.7780   11.6980 P.3    20  A20         0.2141
    413  OP1       63.7420   37.6130   12.4090 O.3    20  A20        -0.4373
    414  OP2       62.4200   38.3910   10.3400 O.2    20  A20        -0.5172
    415  O5'       61.7170   36.3490   11.6290 O.3    20  A20        -0.3114
    416  C5'       61.9830   35.4690   10.5500 C.3    20  A20         0.1812
    417  C4'       61.2670   34.1430   10.7380 C.3    20  A20         0.1773
    418  O4'       61.6680   33.5560   11.9970 O.3    20  A20        -0.3307
    419  C3'       59.7630   34.2480   10.8380 C.3    20  A20         0.1860
    420  O3'       59.1590   34.2720    9.5470 O.3    20  A20        -0.3112
    421  C2'       59.3900   33.0160   11.6580 C.3    20  A20         0.2309
    422  O2'       59.3000   31.8270   10.8890 O.3    20  A20        -0.2156
    423  C1'       60.5540   32.9500   12.6360 C.3    20  A20         0.2408
    424   N9       60.3100   33.6560   13.8980 N.ar   20  A20        -0.2693
    425   C8       60.7520   34.9150   14.2450 C.ar   20  A20         0.1816
    426   N7       60.4040   35.2890   15.4570 N.ar   20  A20        -0.2193
    427   C5       59.6940   34.2050   15.9420 C.ar   20  A20         0.1518
    428   C6       59.0800   33.9630   17.1820 C.ar   20  A20         0.1919
    429   N6       59.0850   34.8540   18.1810 N.pl3  20  A20        -0.1054
    430   N.1      58.4820   32.7560   17.3710 N.ar   20  A20        -0.2040
    431   C.2      58.4590   31.8750   16.3500 C.ar   20  A20         0.2016
    432   N.3      58.9840   32.0030   15.1220 N.ar   20  A20        -0.2048
    433   C4       59.6090   33.1950   14.9890 C.ar   20  A20         0.1692
    434    P.3     58.0040   35.3470    9.2650 P.3    21  A21         0.2141
    435  OP1       57.6560   35.3010    7.8190 O.2    21  A21        -0.5172
    436  OP2       58.4170   36.6360    9.8860 O.3    21  A21        -0.4373
    437  O5'       56.7980   34.7240   10.1200 O.3    21  A21        -0.3114
    438  C5'       56.2210   33.4770    9.7250 C.3    21  A21         0.1812
    439  C4'       55.4650   32.8480   10.8700 C.3    21  A21         0.1773
    440  O4'       56.3150   32.8210   12.0310 O.3    21  A21        -0.3307
    441  C3'       54.2200   33.5960   11.3130 C.3    21  A21         0.1860
    442  O3'       53.0930   33.1630   10.5450 O.3    21  A21        -0.3112
    443  C2'       54.0960   33.1700   12.7720 C.3    21  A21         0.2309
    444  O2'       53.4560   31.9110   12.9130 O.3    21  A21        -0.2156
    445  C1'       55.5610   33.0650   13.1950 C.3    21  A21         0.2408
    446   N9       56.0830   34.2700   13.8240 N.ar   21  A21        -0.2693
    447   C8       56.7820   35.2910   13.2220 C.ar   21  A21         0.1816
    448   N7       57.1310   36.2560   14.0440 N.ar   21  A21        -0.2193
    449   C5       56.6440   35.8370   15.2700 C.ar   21  A21         0.1518
    450   C6       56.6890   36.4130   16.5580 C.ar   21  A21         0.1919
    451   N6       57.2770   37.5890   16.8150 N.pl3  21  A21        -0.1054
    452   N.1      56.0870   35.7350   17.5760 N.ar   21  A21        -0.2040
    453   C.2      55.5050   34.5460   17.3160 C.ar   21  A21         0.2016
    454   N.3      55.4010   33.9010   16.1480 N.ar   21  A21        -0.2048
    455   C4       55.9970   34.6070   15.1550 C.ar   21  A21         0.1692
    456    P.3     52.1290   34.2220    9.8270 P.3    22  A22         0.2141
    457  OP1       51.0180   33.4390    9.2220 O.3    22  A22        -0.4373
    458  OP2       52.9620   35.1130    8.9780 O.2    22  A22        -0.5172
    459  O5'       51.5750   35.1240   11.0430 O.3    22  A22        -0.3114
    460  C5'       50.5940   34.6180   11.9750 C.3    22  A22         0.1812
    461  C4'       49.7780   35.7580   12.5750 C.3    22  A22         0.1773
    462  O4'       50.6620   36.6880   13.1990 O.3    22  A22        -0.3307
    463  C3'       49.0080   36.6030   11.5660 C.3    22  A22         0.1860
    464  O3'       47.6720   36.1270   11.4390 O.3    22  A22        -0.3112
    465  C2'       49.0700   38.0350   12.1400 C.3    22  A22         0.2309
    466  O2'       47.8090   38.5300   12.5470 O.3    22  A22        -0.2156
    467  C1'       49.9920   37.8990   13.3450 C.3    22  A22         0.2408
    468   N9       50.9750   38.9780   13.4770 N.ar   22  A22        -0.2693
    469   C8       51.7710   39.5030   12.4930 C.ar   22  A22         0.1816
    470   N7       52.5210   40.5070   12.8890 N.ar   22  A22        -0.2193
    471   C5       52.1940   40.6600   14.2280 C.ar   22  A22         0.1518
    472   C6       52.6600   41.5450   15.2390 C.ar   22  A22         0.1919
    473   N6       53.5770   42.4930   15.0250 N.pl3  22  A22        -0.1054
    474   N.1      52.1400   41.4150   16.4850 N.ar   22  A22        -0.2040
    475   C.2      51.2080   40.4700   16.7070 C.ar   22  A22         0.2016
    476   N.3      50.7220   39.5570   15.8590 N.ar   22  A22        -0.2048
    477   C4       51.2530   39.7130   14.6150 C.ar   22  A22         0.1692
    478    P.3     47.2030   35.3210   10.1320 P.3    23  U23         0.2141
    479  OP1       46.5060   34.0960   10.5770 O.3    23  U23        -0.4373
    480  OP2       48.3530   35.2010    9.1910 O.2    23  U23        -0.5172
    481  O5'       46.1330   36.3250    9.4910 O.3    23  U23        -0.3114
    482  C5'       46.5900   37.5460    8.9030 C.3    23  U23         0.1812
    483  C4'       45.4900   38.5870    8.8290 C.3    23  U23         0.1773
    484  O4'       44.5200   38.2300    7.8160 O.3    23  U23        -0.3307
    485  C3'       44.7180   38.8210   10.1130 C.3    23  U23         0.1860
    486  O3'       44.5430   40.1920   10.2950 O.3    23  U23        -0.3112
    487  C2'       43.3950   38.1040    9.8790 C.3    23  U23         0.2309
    488  O2'       42.3170   38.7220   10.5310 O.3    23  U23        -0.2156
    489  C1'       43.2220   38.2070    8.3700 C.3    23  U23         0.2420
    490   N.1      42.4570   37.0420    7.7800 N.ar   23  U23        -0.2534
    491   C.2      41.2610   37.2870    7.1360 C.ar   23  U23         0.3546
    492   O.2      40.8150   38.4050    6.9640 O.2    23  U23        -0.2443
    493   N.3      40.6140   36.1700    6.6710 N.ar   23  U23        -0.1530
    494   C4       41.0380   34.8510    6.7810 C.ar   23  U23         0.2846
    495   O4       40.3650   33.9520    6.2740 O.2    23  U23        -0.2650
    496   C5       42.3020   34.6710    7.4610 C.ar   23  U23         0.0814
    497   C6       42.9460   35.7490    7.9310 C.ar   23  U23         0.0870
    498    P.3     45.4030   40.9370   11.3890 P.3    24  U24         0.2141
    499  OP1       44.9300   42.3430   11.4750 O.3    24  U24        -0.4373
    500  OP2       46.8380   40.6570   11.1190 O.2    24  U24        -0.5172
    501  O5'       44.9820   40.1400   12.6950 O.3    24  U24        -0.3114
    502  C5'       43.7420   40.3990   13.2810 C.3    24  U24         0.1812
    503  C4'       43.8040   40.1910   14.7650 C.3    24  U24         0.1773
    504  O4'       43.9610   38.7810   15.0450 O.3    24  U24        -0.3307
    505  C3'       44.9380   40.9200   15.4840 C.3    24  U24         0.1860
    506  O3'       44.4210   41.5890   16.6180 O.3    24  U24        -0.3112
    507  C2'       45.8850   39.7890   15.8770 C.3    24  U24         0.2309
    508  O2'       46.5610   40.0550   17.0780 O.3    24  U24        -0.2156
    509  C1'       44.9170   38.6220   16.0520 C.3    24  U24         0.2420
    510   N.1      45.5480   37.2740   15.9100 N.ar   24  U24        -0.2534
    511   C.2      45.6820   36.4740   17.0280 C.ar   24  U24         0.3546
    512   O.2      45.3130   36.8110   18.1350 O.2    24  U24        -0.2443
    513   N.3      46.2710   35.2540   16.7980 N.ar   24  U24        -0.1530
    514   C4       46.7430   34.7680   15.5900 C.ar   24  U24         0.2846
    515   O4       47.2980   33.6700   15.5480 O.2    24  U24        -0.2650
    516   C5       46.5180   35.6320   14.4600 C.ar   24  U24         0.0814
    517   C6       45.9530   36.8280   14.6570 C.ar   24  U24         0.0870
    518    P.3     44.6290   43.1590   16.8060 P.3    25  C25         0.2141
    519  OP1       43.9040   43.5630   18.0340 O.3    25  C25        -0.4373
    520  OP2       44.3340   43.8400   15.5210 O.2    25  C25        -0.5172
    521  O5'       46.2040   43.2610   17.0560 O.3    25  C25        -0.3114
    522  C5'       46.7230   43.5930   18.3410 C.3    25  C25         0.1812
    523  C4'       48.0820   44.2460   18.2100 C.3    25  C25         0.1773
    524  O4'       49.0100   43.2980   17.6280 O.3    25  C25        -0.3307
    525  C3'       48.1120   45.4490   17.2900 C.3    25  C25         0.1860
    526  O3'       47.7730   46.6330   18.0020 O.3    25  C25        -0.3112
    527  C2'       49.5540   45.4600   16.8120 C.3    25  C25         0.2309
    528  O2'       50.4330   46.1310   17.6960 O.3    25  C25        -0.2156
    529  C1'       49.8830   43.9640   16.7370 C.3    25  C25         0.2420
    530   N.1      49.7230   43.3780   15.3370 N.ar   25  C25        -0.2535
    531   C.2      50.5990   43.7830   14.3000 C.ar   25  C25         0.3532
    532   O.2      51.5170   44.5820   14.5520 O.2    25  C25        -0.2443
    533   N.3      50.4300   43.2550   13.0470 N.ar   25  C25        -0.1739
    534   C4       49.4400   42.3870   12.8060 C.ar   25  C25         0.1759
    535   N.4      49.3070   41.9220   11.5610 N.pl3  25  C25        -0.1070
    536   C5       48.5370   41.9650   13.8380 C.ar   25  C25         0.0566
    537   C6       48.7100   42.4840   15.0730 C.ar   25  C25         0.0850
    538    P.3     46.9070   47.7780   17.2830 P.3    26  C26         0.2141
    539  OP1       46.6950   48.8780   18.2490 O.3    26  C26        -0.4373
    540  OP2       45.7330   47.1530   16.6300 O.2    26  C26        -0.5172
    541  O5'       47.8930   48.2830   16.1440 O.3    26  C26        -0.3114
    542  C5'       49.0850   48.9770   16.4830 C.3    26  C26         0.1812
    543  C4'       49.8130   49.4180   15.2370 C.3    26  C26         0.1773
    544  O4'       50.4370   48.2630   14.6090 O.3    26  C26        -0.3307
    545  C3'       48.9270   49.9960   14.1500 C.3    26  C26         0.1860
    546  O3'       48.6120   51.3330   14.4010 O.3    26  C26        -0.3112
    547  C2'       49.7960   49.8170   12.9150 C.3    26  C26         0.2309
    548  O2'       50.7800   50.8200   12.7670 O.3    26  C26        -0.2156
    549  C1'       50.4410   48.4470   13.1910 C.3    26  C26         0.2420
    550   N.1      49.6950   47.2940   12.5090 N.ar   26  C26        -0.2535
    551   C.2      49.8280   47.0940   11.1190 C.ar   26  C26         0.3532
    552   O.2      50.6510   47.7620   10.4850 O.2    26  C26        -0.2443
    553   N.3      49.1040   46.1040   10.5230 N.ar   26  C26        -0.1739
    554   C4       48.2400   45.3760   11.2410 C.ar   26  C26         0.1759
    555   N.4      47.5520   44.4180   10.6180 N.pl3  26  C26        -0.1070
    556   C5       48.0430   45.6040   12.6320 C.ar   26  C26         0.0566
    557   C6       48.7810   46.5580   13.2180 C.ar   26  C26         0.0850
    558    P.3     47.2990   51.9810   13.7400 P.3    27  C27         0.2141
    559  OP1       47.1550   53.3500   14.2830 O.3    27  C27        -0.4373
    560  OP2       46.1750   51.0160   13.8770 O.2    27  C27        -0.5172
    561  O5'       47.6670   52.0630   12.1770 O.3    27  C27        -0.3114
    562  C5'       48.2160   53.2390   11.6210 C.3    27  C27         0.1812
    563  C4'       48.4410   53.0870   10.1290 C.3    27  C27         0.1773
    564  O4'       48.9780   51.7730    9.8330 O.3    27  C27        -0.3307
    565  C3'       47.1930   53.1350    9.2730 C.3    27  C27         0.1860
    566  O3'       46.7120   54.4590    9.1020 O.3    27  C27        -0.3112
    567  C2'       47.7290   52.5670    7.9800 C.3    27  C27         0.2309
    568  O2'       48.5270   53.5010    7.2820 O.3    27  C27        -0.2156
    569  C1'       48.5920   51.4110    8.5010 C.3    27  C27         0.2420
    570   N.1      47.8530   50.0530    8.5110 N.ar   27  C27        -0.2535
    571   C.2      47.4780   49.4230    7.2820 C.ar   27  C27         0.3532
    572   O.2      47.8280   49.9170    6.2040 O.2    27  C27        -0.2443
    573   N.3      46.8090   48.2330    7.3310 N.ar   27  C27        -0.1739
    574   C4       46.4760   47.6950    8.5140 C.ar   27  C27         0.1759
    575   N.4      45.8120   46.5350    8.5060 N.pl3  27  C27        -0.1070
    576   C5       46.8080   48.3260    9.7540 C.ar   27  C27         0.0566
    577   C6       47.4860   49.4840    9.7100 C.ar   27  C27         0.0850
    578    P.3     45.1360   54.7610    9.2810 P.3    28  G28         0.2141
    579  OP1       44.9100   56.2040    8.9790 O.2    28  G28        -0.5172
    580  OP2       44.7110   54.2120   10.5990 O.3    28  G28        -0.4373
    581  O5'       44.4360   53.8630    8.1350 O.3    28  G28        -0.3114
    582  C5'       44.4940   54.2610    6.7680 C.3    28  G28         0.1812
    583  C4'       44.2260   53.0870    5.8240 C.3    28  G28         0.1773
    584  O4'       44.9720   51.9110    6.2420 O.3    28  G28        -0.3307
    585  C3'       42.7870   52.6090    5.7560 C.3    28  G28         0.1860
    586  O3'       42.0100   53.4080    4.8550 O.3    28  G28        -0.3112
    587  C2'       42.9710   51.1930    5.2330 C.3    28  G28         0.2309
    588  O2'       43.2060   51.1380    3.8410 O.3    28  G28        -0.2156
    589  C1'       44.2020   50.7460    5.9890 C.3    28  G28         0.2408
    590   N9       43.8700   50.0970    7.2490 N.ar   28  G28        -0.2693
    591   C8       44.0040   50.6190    8.5030 C.ar   28  G28         0.1817
    592   N7       43.6500   49.7990    9.4450 N.ar   28  G28        -0.2173
    593   C5       43.1620   48.6910    8.7720 C.ar   28  G28         0.1748
    594   C6       42.6040   47.4810    9.2740 C.ar   28  G28         0.3023
    595   O6       42.4210   47.1490   10.4630 O.2    28  G28        -0.2633
    596   N.1      42.2680   46.5940    8.2370 N.ar   28  G28        -0.1709
    597   C.2      42.4510   46.8480    6.8980 C.ar   28  G28         0.2606
    598   N.2      42.0350   45.9040    6.0530 N.pl3  28  G28        -0.0859
    599   N.3      42.9700   47.9740    6.4220 N.ar   28  G28        -0.1918
    600   C4       43.3000   48.8520    7.4140 C.ar   28  G28         0.1723
    601    P.3     40.4150   53.4820    5.0320 P.3    29  A29         0.2141
    602  OP1       39.8840   54.3680    3.9660 O.2    29  A29        -0.5172
    603  OP2       40.1160   53.7750    6.4600 O.3    29  A29        -0.4373
    604  O5'       39.9330   51.9860    4.7430 O.3    29  A29        -0.3114
    605  C5'       39.8960   51.5010    3.4270 C.3    29  A29         0.1812
    606  C4'       39.5330   50.0310    3.4020 C.3    29  A29         0.1773
    607  O4'       40.3310   49.2970    4.3550 O.3    29  A29        -0.3307
    608  C3'       38.1210   49.7060    3.8300 C.3    29  A29         0.1860
    609  O3'       37.2250   49.9830    2.8310 O.3    29  A29        -0.3112
    610  C2'       38.2250   48.2250    4.0950 C.3    29  A29         0.2309
    611  O2'       38.1730   47.4470    2.9250 O.3    29  A29        -0.2156
    612  C1'       39.6000   48.1310    4.7480 C.3    29  A29         0.2408
    613   N9       39.5060   48.0840    6.1990 N.ar   29  A29        -0.2693
    614   C8       39.8050   49.0820    7.0810 C.ar   29  A29         0.1816
    615   N7       39.5930   48.7590    8.3360 N.ar   29  A29        -0.2193
    616   C5       39.0470   47.4880    8.2590 C.ar   29  A29         0.1518
    617   C6       38.5920   46.5860    9.2390 C.ar   29  A29         0.1919
    618   N6       38.5750   46.8650   10.5370 N.pl3  29  A29        -0.1054
    619   N.1      38.1390   45.3870    8.8300 N.ar   29  A29        -0.2040
    620   C.2      38.1120   45.1200    7.5230 C.ar   29  A29         0.2016
    621   N.3      38.5130   45.8760    6.5110 N.ar   29  A29        -0.2048
    622   C4       38.9810   47.0610    6.9510 C.ar   29  A29         0.1692
    623    P.3     35.8160   50.6310    3.1940 P.3    30  C30         0.2141
    624  OP1       35.1340   50.9650    1.9160 O.2    30  C30        -0.5172
    625  OP2       36.0200   51.6990    4.2130 O.3    30  C30        -0.4373
    626  O5'       35.0470   49.4090    3.8870 O.3    30  C30        -0.3114
    627  C5'       34.5020   48.4010    3.0700 C.3    30  C30         0.1812
    628  C4'       34.3230   47.1040    3.8210 C.3    30  C30         0.1773
    629  O4'       35.4230   46.8770    4.7030 O.3    30  C30        -0.3307
    630  C3'       33.1400   47.0490    4.7220 C.3    30  C30         0.1860
    631  O3'       32.0050   46.8110    3.9750 O.3    30  C30        -0.3112
    632  C2'       33.5240   45.8710    5.6140 C.3    30  C30         0.2309
    633  O2'       33.3990   44.6060    4.9980 O.3    30  C30        -0.2156
    634  C1'       34.9840   46.1630    5.8340 C.3    30  C30         0.2420
    635   N.1      35.2500   46.9740    7.0720 N.ar   30  C30        -0.2535
    636   C.2      35.0860   46.3740    8.3400 C.ar   30  C30         0.3532
    637   O.2      34.7020   45.1840    8.4140 O.2    30  C30        -0.2443
    638   N.3      35.3510   47.1240    9.4550 N.ar   30  C30        -0.1739
    639   C4       35.7550   48.3940    9.3360 C.ar   30  C30         0.1759
    640   N.4      36.0090   49.0740   10.4550 N.pl3  30  C30        -0.1070
    641   C5       35.9270   49.0160    8.0570 C.ar   30  C30         0.0566
    642   C6       35.6520   48.2850    6.9680 C.ar   30  C30         0.0850
    643    P.3     30.6140   47.4440    4.4100 P.3    31  C31         0.2141
    644  OP1       29.6630   47.2530    3.2920 O.2    31  C31        -0.5172
    645  OP2       30.8500   48.8080    4.9580 O.3    31  C31        -0.4373
    646  O5'       30.1870   46.4610    5.5870 O.3    31  C31        -0.3114
    647  C5'       30.0000   45.0700    5.3090 C.3    31  C31         0.1812
    648  C4'       29.6800   44.3200    6.5760 C.3    31  C31         0.1773
    649  O4'       30.7970   44.4260    7.4730 O.3    31  C31        -0.3307
    650  C3'       28.5320   44.9070    7.3680 C.3    31  C31         0.1860
    651  O3'       27.2920   44.4610    6.8640 O.3    31  C31        -0.3112
    652  C2'       28.8090   44.4060    8.7710 C.3    31  C31         0.2309
    653  O2'       28.3500   43.1020    8.9710 O.3    31  C31        -0.2156
    654  C1'       30.3250   44.4190    8.8090 C.3    31  C31         0.2420
    655   N.1      30.9250   45.5670    9.5640 N.ar   31  C31        -0.2535
    656   C.2      31.0300   45.4940   10.9690 C.ar   31  C31         0.3532
    657   O.2      30.5610   44.5170   11.5670 O.2    31  C31        -0.2443
    658   N.3      31.6790   46.4870   11.6350 N.ar   31  C31        -0.1739
    659   C4       32.2000   47.5090   10.9670 C.ar   31  C31         0.1759
    660   N.4      32.8210   48.4430   11.6700 N.pl3  31  C31        -0.1070
    661   C5       32.0780   47.6240    9.5460 C.ar   31  C31         0.0566
    662   C6       31.4560   46.6290    8.8880 C.ar   31  C31         0.0850
    663    P.3     26.0890   45.4980    6.7440 P.3    32  G32         0.2141
    664  OP1       25.2100   45.0490    5.6500 O.2    32  G32        -0.5172
    665  OP2       26.6400   46.8770    6.7180 O.3    32  G32        -0.4373
    666  O5'       25.3320   45.2880    8.1180 O.3    32  G32        -0.3114
    667  C5'       24.9150   43.9800    8.5260 C.3    32  G32         0.1812
    668  C4'       24.7490   43.9330   10.0350 C.3    32  G32         0.1773
    669  O4'       25.9660   44.4370   10.6610 O.3    32  G32        -0.3307
    670  C3'       23.6140   44.7940   10.5860 C.3    32  G32         0.1860
    671  O3'       23.0370   44.1440   11.7050 O.3    32  G32        -0.3112
    672  C2'       24.3400   46.0770   10.9880 C.3    32  G32         0.2309
    673  O2'       23.6810   46.7780   12.0040 O.3    32  G32        -0.2156
    674  C1'       25.6540   45.5160   11.5120 C.3    32  G32         0.2408
    675   N9       26.7680   46.4690   11.5240 N.ar   32  G32        -0.2693
    676   C8       27.2360   47.2260   10.4730 C.ar   32  G32         0.1817
    677   N7       28.1680   48.0880   10.8110 N.ar   32  G32        -0.2173
    678   C5       28.3420   47.8760   12.1690 C.ar   32  G32         0.1748
    679   C6       29.2570   48.4700   13.0860 C.ar   32  G32         0.3023
    680   O6       30.1350   49.3270   12.8740 O.2    32  G32        -0.2633
    681   N.1      29.0910   47.9590   14.3720 N.ar   32  G32        -0.1709
    682   C.2      28.1440   47.0290   14.7390 C.ar   32  G32         0.2606
    683   N.2      28.1120   46.7070   16.0250 N.pl3  32  G32        -0.0859
    684   N.3      27.3100   46.4370   13.8910 N.ar   32  G32        -0.1918
    685   C4       27.4880   46.8750   12.6200 C.ar   32  G32         0.1723
    686    P.3     21.4480   44.0660   11.9070 P.3    33  G33         0.2141
    687  OP1       20.7860   43.9960   10.5640 O.2    33  G33        -0.5172
    688  OP2       21.0670   45.1340   12.8560 O.3    33  G33        -0.4373
    689  O5'       21.2540   42.6720   12.6660 O.3    33  G33        -0.3114
    690  C5'       21.0970   41.4840   11.9400 C.3    33  G33         0.1812
    691  C4'       20.4540   40.4190   12.7990 C.3    33  G33         0.1773
    692  O4'       21.2180   40.2450   14.0170 O.3    33  G33        -0.3307
    693  C3'       19.0660   40.7480   13.2930 C.3    33  G33         0.1860
    694  O3'       18.1020   40.4560   12.3060 O.3    33  G33        -0.3112
    695  C2'       18.9490   39.8300   14.4870 C.3    33  G33         0.2309
    696  O2'       18.7070   38.4940   14.0930 O.3    33  G33        -0.2156
    697  C1'       20.3460   39.9420   15.0910 C.3    33  G33         0.2408
    698   N9       20.4920   40.9910   16.1010 N.ar   33  G33        -0.2693
    699   C8       21.2760   42.1190   15.9980 C.ar   33  G33         0.1817
    700   N7       21.2280   42.8920   17.0480 N.ar   33  G33        -0.2173
    701   C5       20.3550   42.2380   17.9130 C.ar   33  G33         0.1748
    702   C6       19.9270   42.5960   19.2210 C.ar   33  G33         0.3023
    703   O6       20.2800   43.5680   19.9010 O.2    33  G33        -0.2633
    704   N.1      18.9980   41.6970   19.7360 N.ar   33  G33        -0.1709
    705   C.2      18.5300   40.5820   19.0750 C.ar   33  G33         0.2606
    706   N.2      17.6340   39.8270   19.7420 N.pl3  33  G33        -0.0859
    707   N.3      18.9640   40.1960   17.8650 N.ar   33  G33        -0.1918
    708   C4       19.8790   41.0700   17.3460 C.ar   33  G33         0.1723
    709    P.3     16.8640   41.4570   12.1020 P.3    34  U34         0.2141
    710  OP1       16.2020   41.0980   10.8200 O.2    34  U34        -0.5172
    711  OP2       17.3310   42.8600   12.3300 O.3    34  U34        -0.4373
    712  O5'       15.8990   41.0730   13.3270 O.3    34  U34        -0.3114
    713  C5'       15.3470   39.7740   13.4270 C.3    34  U34         0.1812
    714  C4'       14.6090   39.6130   14.7290 C.3    34  U34         0.1773
    715  O4'       15.5500   39.7140   15.8170 O.3    34  U34        -0.3307
    716  C3'       13.6270   40.7070   15.0420 C.3    34  U34         0.1860
    717  O3'       12.4410   40.5390   14.3420 O.3    34  U34        -0.3112
    718  C2'       13.4540   40.5290   16.5330 C.3    34  U34         0.2309
    719  O2'       12.6430   39.4120   16.8500 O.3    34  U34        -0.2156
    720  C1'       14.9010   40.2670   16.9510 C.3    34  U34         0.2420
    721   N.1      15.6430   41.5110   17.4190 N.ar   34  U34        -0.2534
    722   C.2      15.4300   41.9730   18.7020 C.ar   34  U34         0.3546
    723   O.2      14.7200   41.3990   19.5100 O.2    34  U34        -0.2443
    724   N.3      16.1180   43.1220   19.0300 N.ar   34  U34        -0.1530
    725   C4       16.9870   43.8340   18.2230 C.ar   34  U34         0.2846
    726   O4       17.5630   44.8320   18.6720 O.2    34  U34        -0.2650
    727   C5       17.1620   43.2900   16.9030 C.ar   34  U34         0.0814
    728   C6       16.5130   42.1700   16.5640 C.ar   34  U34         0.0870
    729    P.3     11.7880   41.8270   13.6560 P.3    35  G35         0.2141
    730  OP1       10.9100   41.3680   12.5400 O.2    35  G35        -0.5172
    731  OP2       12.8690   42.8010   13.3860 O.3    35  G35        -0.4373
    732  O5'       10.9070   42.4430   14.8310 O.3    35  G35        -0.3114
    733  C5'        9.7870   41.7550   15.3350 C.3    35  G35         0.1812
    734  C4'        9.4620   42.2370   16.7300 C.3    35  G35         0.1773
    735  O4'       10.6380   42.1320   17.5770 O.3    35  G35        -0.3307
    736  C3'        9.1320   43.6970   16.8530 C.3    35  G35         0.1860
    737  O3'        7.8580   44.0010   16.3690 O.3    35  G35        -0.3112
    738  C2'        9.2600   43.8770   18.3580 C.3    35  G35         0.2309
    739  O2'        8.2160   43.2590   19.0970 O.3    35  G35        -0.2156
    740  C1'       10.5670   43.1370   18.5890 C.3    35  G35         0.2408
    741   N9       11.7320   44.0220   18.4960 N.ar   35  G35        -0.2693
    742   C8       12.6980   44.0310   17.5240 C.ar   35  G35         0.1817
    743   N7       13.6070   44.9460   17.7090 N.ar   35  G35        -0.2173
    744   C5       13.2070   45.6060   18.8650 C.ar   35  G35         0.1748
    745   C6       13.8180   46.6880   19.5800 C.ar   35  G35         0.3023
    746   O6       14.8550   47.3130   19.3030 O.2    35  G35        -0.2633
    747   N.1      13.0770   47.0510   20.7100 N.ar   35  G35        -0.1709
    748   C.2      11.9050   46.4360   21.1060 C.ar   35  G35         0.2606
    749   N.2      11.3340   46.9020   22.2280 N.pl3  35  G35        -0.0859
    750   N.3      11.3510   45.4050   20.4660 N.ar   35  G35        -0.1918
    751   C4       12.0430   45.0580   19.3500 C.ar   35  G35         0.1723
    752    P.3      7.6010   45.4560   15.7420 P.3    36  G36         0.2141
    753  OP1        6.1810   45.5120   15.3170 O.3    36  G36        -0.4373
    754  OP2        8.6700   45.7310   14.7500 O.2    36  G36        -0.5172
    755  O5'        7.8220   46.4560   16.9930 O.3    36  G36        -0.3114
    756  C5'        6.9380   46.4030   18.1290 C.3    36  G36         0.1812
    757  C4'        7.2150   47.5300   19.1110 C.3    36  G36         0.1773
    758  O4'        8.5640   47.4270   19.6120 O.3    36  G36        -0.3307
    759  C3'        7.1410   48.9140   18.5180 C.3    36  G36         0.1860
    760  O3'        5.8050   49.3560   18.4730 O.3    36  G36        -0.3112
    761  C2'        8.0040   49.7360   19.4660 C.3    36  G36         0.2309
    762  O2'        7.2990   50.2400   20.5730 O.3    36  G36        -0.2156
    763  C1'        9.0650   48.7270   19.9090 C.3    36  G36         0.2408
    764   N9       10.3600   48.9140   19.2300 N.ar   36  G36        -0.2693
    765   C8       10.7760   48.3230   18.0630 C.ar   36  G36         0.1817
    766   N7       11.9630   48.7050   17.6770 N.ar   36  G36        -0.2173
    767   C5       12.3420   49.6510   18.6120 C.ar   36  G36         0.1748
    768   C6       13.5470   50.4160   18.7230 C.ar   36  G36         0.3023
    769   O6       14.5400   50.4180   17.9760 O.2    36  G36        -0.2633
    770   N.1      13.5130   51.2730   19.8200 N.ar   36  G36        -0.1709
    771   C.2      12.4730   51.3690   20.7060 C.ar   36  G36         0.2606
    772   N.2      12.6570   52.2010   21.7260 N.pl3  36  G36        -0.0859
    773   N.3      11.3590   50.6420   20.6380 N.ar   36  G36        -0.1918
    774   C4       11.3610   49.8040   19.5710 C.ar   36  G36         0.1723
    775    P.3      5.2160   49.9580   17.1070 P.3    37  U37         0.2141
    776  OP1        3.7420   50.0300   17.2460 O.3    37  U37        -0.4373
    777  OP2        5.8040   49.2200   15.9610 O.2    37  U37        -0.5172
    778  O5'        5.8260   51.4350   17.0980 O.3    37  U37        -0.3114
    779  C5'        5.5590   52.3190   18.1700 C.3    37  U37         0.1812
    780  C4'        6.6490   53.3600   18.2810 C.3    37  U37         0.1773
    781  O4'        7.8940   52.7080   18.5980 O.3    37  U37        -0.3307
    782  C3'        6.9610   54.1130   17.0010 C.3    37  U37         0.1860
    783  O3'        6.0020   55.1290   16.7590 O.3    37  U37        -0.3112
    784  C2'        8.3550   54.6700   17.3130 C.3    37  U37         0.2309
    785  O2'        8.3360   55.8730   18.0670 O.3    37  U37        -0.2156
    786  C1'        8.9790   53.5150   18.1300 C.3    37  U37         0.2420
    787   N.1       9.9570   52.6560   17.3140 N.ar   37  U37        -0.2534
    788   C.2      11.3110   52.9580   17.3410 C.ar   37  U37         0.3546
    789   O.2      11.7920   53.8060   18.0610 O.2    37  U37        -0.2443
    790   N.3      12.1000   52.1840   16.5070 N.ar   37  U37        -0.1530
    791   C4       11.6760   51.2020   15.6140 C.ar   37  U37         0.2846
    792   O4       12.5050   50.5900   14.9230 O.2    37  U37        -0.2650
    793   C5       10.2490   50.9730   15.6100 C.ar   37  U37         0.0814
    794   C6        9.4640   51.6890   16.4430 C.ar   37  U37         0.0870
    795    P.3      5.0370   55.0470   15.4670 P.3    38  A38         0.2141
    796  OP1        4.0270   56.1340   15.5860 O.3    38  A38        -0.4373
    797  OP2        4.5810   53.6350   15.2810 O.2    38  A38        -0.5172
    798  O5'        6.0340   55.3890   14.2570 O.3    38  A38        -0.3114
    799  C5'        6.3990   56.7400   13.9400 C.3    38  A38         0.1812
    800  C4'        7.4740   56.7280   12.8710 C.3    38  A38         0.1773
    801  O4'        7.5670   58.0200   12.2200 O.3    38  A38        -0.3307
    802  C3'        8.8860   56.4180   13.3830 C.3    38  A38         0.1860
    803  O3'        9.5380   55.5810   12.4430 O.3    38  A38        -0.3112
    804  C2'        9.5060   57.8160   13.4310 C.3    38  A38         0.2309
    805  O2'       10.9260   57.8150   13.4030 O.3    38  A38        -0.2156
    806  C1'        8.9200   58.3580   12.1460 C.3    38  A38         0.2408
    807   N9        9.0700   59.7820   11.9230 N.ar   38  A38        -0.2693
    808   C8        9.4870   60.7300   12.8190 C.ar   38  A38         0.1816
    809   N7        9.6850   61.9140   12.2890 N.ar   38  A38        -0.2193
    810   C5        9.3830   61.7300   10.9490 C.ar   38  A38         0.1518
    811   C6        9.4020   62.6020    9.8260 C.ar   38  A38         0.1919
    812   N6        9.7020   63.9090    9.8980 N.pl3  38  A38        -0.1054
    813   N.1       9.0360   62.0850    8.6260 N.ar   38  A38        -0.2040
    814   C.2       8.7190   60.7770    8.5490 C.ar   38  A38         0.2016
    815   N.3       8.6990   59.8610    9.5180 N.ar   38  A38        -0.2048
    816   C4        9.0220   60.4110   10.7080 C.ar   38  A38         0.1692
    817    P.3      9.7480   54.0250   12.7450 P.3    39  U39         0.2141
    818  OP1        8.4700   53.3080   12.4600 O.2    39  U39        -0.5172
    819  OP2       10.3810   53.9070   14.0700 O.3    39  U39        -0.4373
    820  O5'       10.8470   53.6270   11.6490 O.3    39  U39        -0.3114
    821  C5'       11.1010   52.2600   11.2990 C.3    39  U39         0.1812
    822  C4'       12.2390   52.1560   10.2680 C.3    39  U39         0.1773
    823  O4'       11.9560   52.9660    9.0940 O.3    39  U39        -0.3307
    824  C3'       13.6170   52.6130   10.7410 C.3    39  U39         0.1860
    825  O3'       14.6090   51.8320   10.1100 O.3    39  U39        -0.3112
    826  C2'       13.6790   54.0490   10.2610 C.3    39  U39         0.2309
    827  O2'       15.0080   54.4940   10.1040 O.3    39  U39        -0.2156
    828  C1'       12.9870   53.9170    8.9110 C.3    39  U39         0.2420
    829   N.1      12.4010   55.1920    8.3770 N.ar   39  U39        -0.2534
    830   C.2      13.1050   55.9020    7.4300 C.ar   39  U39         0.3546
    831   O.2      14.1790   55.5460    7.0050 O.2    39  U39        -0.2443
    832   N.3      12.4900   57.0470    6.9760 N.ar   39  U39        -0.1530
    833   C4       11.2670   57.5580    7.3850 C.ar   39  U39         0.2846
    834   O4       10.8490   58.6150    6.9000 O.2    39  U39        -0.2650
    835   C5       10.5910   56.7670    8.3880 C.ar   39  U39         0.0814
    836   C6       11.1660   55.6350    8.8310 C.ar   39  U39         0.0870
    837    P.3     15.3270   50.6780   10.9150 P.3    40  A40         0.2141
    838  OP1       16.2050   49.9610    9.9870 O.2    40  A40        -0.5172
    839  OP2       14.2930   49.9320   11.6700 O.3    40  A40        -0.4373
    840  O5'       16.2070   51.4870   11.9590 O.3    40  A40        -0.3114
    841  C5'       17.2760   52.2670   11.5230 C.3    40  A40         0.1812
    842  C4'       18.3230   52.3720   12.6110 C.3    40  A40         0.1773
    843  O4'       17.8200   53.1580   13.7270 O.3    40  A40        -0.3307
    844  C3'       18.7590   51.0470   13.2180 C.3    40  A40         0.1860
    845  O3'       20.1150   51.1640   13.6230 O.3    40  A40        -0.3112
    846  C2'       17.8400   50.9420   14.4340 C.3    40  A40         0.2309
    847  O2'       18.3290   50.0250   15.4040 O.3    40  A40        -0.2156
    848  C1'       17.9010   52.3970   14.9100 C.3    40  A40         0.2408
    849   N9       16.8200   52.8300   15.7810 N.ar   40  A40        -0.2693
    850   C8       15.5040   52.4760   15.7100 C.ar   40  A40         0.1816
    851   N7       14.7460   53.0590   16.6060 N.ar   40  A40        -0.2193
    852   C5       15.6010   53.9300   17.2390 C.ar   40  A40         0.1518
    853   C6       15.4000   54.8710   18.2660 C.ar   40  A40         0.1919
    854   N6       14.2280   55.0360   18.8880 N.pl3  40  A40        -0.1054
    855   N.1      16.4740   55.5640   18.6990 N.ar   40  A40        -0.2040
    856   C.2      17.6720   55.3270   18.1380 C.ar   40  A40         0.2016
    857   N.3      17.9820   54.4790   17.1550 N.ar   40  A40        -0.2048
    858   C4       16.8890   53.7980   16.7500 C.ar   40  A40         0.1692
    859    P.3     21.3030   50.6570   12.6990 P.3    41  G41         0.2141
    860  OP1       22.1950   51.8320   12.4400 O.3    41  G41        -0.4373
    861  OP2       20.7330   49.8680   11.5750 O.2    41  G41        -0.5172
    862  O5'       22.0530   49.6470   13.6670 O.3    41  G41        -0.3114
    863  C5'       21.4280   48.4660   14.1240 C.3    41  G41         0.1812
    864  C4'       22.2390   47.9030   15.2700 C.3    41  G41         0.1773
    865  O4'       23.5330   47.4920   14.7630 O.3    41  G41        -0.3307
    866  C3'       22.5520   48.9240   16.3550 C.3    41  G41         0.1860
    867  O3'       21.5820   48.8690   17.3660 O.3    41  G41        -0.3112
    868  C2'       23.9270   48.5000   16.8460 C.3    41  G41         0.2309
    869  O2'       23.8780   47.4170   17.7540 O.3    41  G41        -0.2156
    870  C1'       24.5760   48.0430   15.5560 C.3    41  G41         0.2408
    871   N9       25.2540   49.0880   14.7870 N.ar   41  G41        -0.2693
    872   C8       25.1080   49.3110   13.4440 C.ar   41  G41         0.1817
    873   N7       25.8820   50.2580   12.9810 N.ar   41  G41        -0.2173
    874   C5       26.6480   50.6420   14.0640 C.ar   41  G41         0.1748
    875   C6       27.6840   51.5980   14.1410 C.ar   41  G41         0.3023
    876   O6       28.1530   52.2930   13.2230 O.2    41  G41        -0.2633
    877   N.1      28.1850   51.7270   15.4370 N.ar   41  G41        -0.1709
    878   C.2      27.7860   50.9610   16.5000 C.ar   41  G41         0.2606
    879   N.2      28.3970   51.2040   17.6660 N.pl3  41  G41        -0.0859
    880   N.3      26.8510   50.0090   16.4260 N.ar   41  G41        -0.1918
    881   C4       26.3210   49.9030   15.1810 C.ar   41  G41         0.1723
    882    P.3     20.7890   50.1910   17.8190 P.3    42  U42         0.2141
    883  OP1       19.6740   49.7360   18.6750 O.3    42  U42        -0.4373
    884  OP2       20.5170   51.0390   16.6380 O.2    42  U42        -0.5172
    885  O5'       21.8570   50.9740   18.6990 O.3    42  U42        -0.3114
    886  C5'       22.1520   50.5800   20.0130 C.3    42  U42         0.1812
    887  C4'       22.9580   51.6670   20.6780 C.3    42  U42         0.1773
    888  O4'       24.2250   51.7400   20.0130 O.3    42  U42        -0.3307
    889  C3'       22.3200   53.0570   20.5670 C.3    42  U42         0.1860
    890  O3'       21.6220   53.4930   21.8020 O.3    42  U42        -0.3112
    891  C2'       23.4490   53.9990   20.1720 C.3    42  U42         0.2309
    892  O2'       23.7850   54.9180   21.1950 O.3    42  U42        -0.2156
    893  C1'       24.6340   53.0730   19.8440 C.3    42  U42         0.2420
    894   N.1      25.1320   53.2600   18.4370 N.ar   42  U42        -0.2534
    895   C.2      26.2580   54.0520   18.2210 C.ar   42  U42         0.3546
    896   O.2      26.9600   54.4730   19.1270 O.2    42  U42        -0.2443
    897   N.3      26.5560   54.2920   16.8890 N.ar   42  U42        -0.1530
    898   C4       25.8060   53.8930   15.7880 C.ar   42  U42         0.2846
    899   O4       26.1670   54.2010   14.6530 O.2    42  U42        -0.2650
    900   C5       24.6270   53.1120   16.1010 C.ar   42  U42         0.0814
    901   C6       24.3400   52.8350   17.3770 C.ar   42  U42         0.0870
    902    P.3     21.8540   52.8140   23.2620 P.3    43  C43         0.2141
    903  OP1       23.2800   53.0260   23.6490 O.3    43  C43        -0.4373
    904  OP2       21.2560   51.4390   23.2490 O.2    43  C43        -0.5172
    905  O5'       20.9220   53.6920   24.2300 O.3    43  C43        -0.3114
    906  C5'       20.5350   55.0280   23.8940 C.3    43  C43         0.1812
    907  C4'       19.0410   55.2200   24.0820 C.3    43  C43         0.1773
    908  O4'       18.4610   55.4370   22.7870 O.3    43  C43        -0.3307
    909  C3'       18.2750   54.0180   24.6340 C.3    43  C43         0.1860
    910  O3'       18.2760   54.0210   26.0460 O.3    43  C43        -0.3112
    911  C2'       16.8790   54.2450   24.0720 C.3    43  C43         0.2309
    912  O2'       16.1250   55.1890   24.8080 O.3    43  C43        -0.2156
    913  C1'       17.2000   54.7980   22.6960 C.3    43  C43         0.2420
    914   N.1      17.2280   53.7600   21.5960 N.ar   43  C43        -0.2535
    915   C.2      16.0150   53.2140   21.1260 C.ar   43  C43         0.3532
    916   O.2      14.9450   53.5610   21.6320 O.2    43  C43        -0.2443
    917   N.3      16.0520   52.3150   20.1140 N.ar   43  C43        -0.1739
    918   C4       17.2080   51.9440   19.5820 C.ar   43  C43         0.1759
    919   N.4      17.1560   51.0570   18.5970 N.pl3  43  C43        -0.1070
    920   C5       18.4630   52.4530   20.0510 C.ar   43  C43         0.0566
    921   C6       18.4270   53.3600   21.0430 C.ar   43  C43         0.0850
    922    P.3     18.2590   52.6370   26.8570 P.3    44  C44         0.2141
    923  OP1       18.4830   52.9750   28.2840 O.3    44  C44        -0.4373
    924  OP2       19.1720   51.6700   26.1900 O.2    44  C44        -0.5172
    925  O5'       16.7570   52.1110   26.6530 O.3    44  C44        -0.3114
    926  C5'       15.6840   52.7490   27.3070 C.3    44  C44         0.1812
    927  C4'       14.3830   52.0070   27.0730 C.3    44  C44         0.1773
    928  O4'       13.9900   52.1590   25.6850 O.3    44  C44        -0.3307
    929  C3'       14.4470   50.5040   27.3040 C.3    44  C44         0.1860
    930  O3'       14.2040   50.1860   28.6530 O.3    44  C44        -0.3112
    931  C2'       13.3590   49.9710   26.3850 C.3    44  C44         0.2309
    932  O2'       12.0660   50.0140   26.9630 O.3    44  C44        -0.2156
    933  C1'       13.4720   50.9220   25.1840 C.3    44  C44         0.2420
    934   N.1      14.3940   50.3710   24.0400 N.ar   44  C44        -0.2535
    935   C.2      13.8750   49.4440   23.0920 C.ar   44  C44         0.3532
    936   O.2      12.6770   49.1250   23.1350 O.2    44  C44        -0.2443
    937   N.3      14.7030   48.9690   22.1170 N.ar   44  C44        -0.1739
    938   C4       15.9980   49.3400   22.0910 C.ar   44  C44         0.1759
    939   N.4      16.7770   48.8430   21.1200 N.pl3  44  C44        -0.1070
    940   C5       16.5550   50.2260   23.0740 C.ar   44  C44         0.0566
    941   C6       15.7320   50.7110   24.0080 C.ar   44  C44         0.0850
    942    P.3     15.0690   49.0350   29.3720 P.3    45  A45         0.2141
    943  OP1       14.7250   49.0670   30.8200 O.3    45  A45        -0.4373
    944  OP2       16.4950   49.1970   28.9540 O.2    45  A45        -0.5172
    945  O5'       14.4810   47.6790   28.7120 O.3    45  A45        -0.3114
    946  C5'       13.1240   47.2900   29.0010 C.3    45  A45         0.1812
    947  C4'       12.5760   46.2490   28.0260 C.3    45  A45         0.1773
    948  O4'       12.4780   46.7850   26.6760 O.3    45  A45        -0.3307
    949  C3'       13.3960   44.9880   27.8340 C.3    45  A45         0.1860
    950  O3'       13.2820   44.1120   28.9260 O.3    45  A45        -0.3112
    951  C2'       12.7360   44.4340   26.5850 C.3    45  A45         0.2309
    952  O2'       11.4360   43.9220   26.8400 O.3    45  A45        -0.2156
    953  C1'       12.6570   45.7120   25.7420 C.3    45  A45         0.2408
    954   N9       13.8780   45.9440   24.9250 N.ar   45  A45        -0.2693
    955   C8       14.9390   46.7720   25.2110 C.ar   45  A45         0.1816
    956   N7       15.9120   46.7270   24.3190 N.ar   45  A45        -0.2193
    957   C5       15.4760   45.7880   23.4000 C.ar   45  A45         0.1518
    958   C6       16.0300   45.3010   22.1800 C.ar   45  A45         0.1919
    959   N6       17.2050   45.7040   21.6800 N.pl3  45  A45        -0.1054
    960   N.1      15.3210   44.3760   21.4920 N.ar   45  A45        -0.2040
    961   C.2      14.1400   43.9740   21.9840 C.ar   45  A45         0.2016
    962   N.3      13.5080   44.3720   23.0980 N.ar   45  A45        -0.2048
    963   C4       14.2300   45.2890   23.7640 C.ar   45  A45         0.1692
    964    P.3     14.5600   43.2560   29.3790 P.3    46  C46         0.2141
    965  OP1       14.1210   42.3950   30.5090 O.3    46  C46        -0.4373
    966  OP2       15.7060   44.1840   29.5620 O.2    46  C46        -0.5172
    967  O5'       14.8750   42.3380   28.0880 O.3    46  C46        -0.3114
    968  C5'       14.1760   41.1170   27.9070 C.3    46  C46         0.1812
    969  C4'       14.1900   40.6350   26.4620 C.3    46  C46         0.1773
    970  O4'       14.3920   41.7280   25.5340 O.3    46  C46        -0.3307
    971  C3'       15.2890   39.6730   26.0980 C.3    46  C46         0.1860
    972  O3'       15.0270   38.3780   26.6300 O.3    46  C46        -0.3112
    973  C2'       15.2030   39.7130   24.5700 C.3    46  C46         0.2309
    974  O2'       14.1170   38.9610   24.0410 O.3    46  C46        -0.2156
    975  C1'       14.9720   41.2110   24.3220 C.3    46  C46         0.2420
    976   N.1      16.2680   41.9840   23.9930 N.ar   46  C46        -0.2535
    977   C.2      16.9500   41.7650   22.7670 C.ar   46  C46         0.3532
    978   O.2      16.4760   41.0080   21.9150 O.2    46  C46        -0.2443
    979   N.3      18.1240   42.4100   22.5540 N.ar   46  C46        -0.1739
    980   C4       18.6130   43.2480   23.4780 C.ar   46  C46         0.1759
    981   N.4      19.7540   43.8870   23.2020 N.pl3  46  C46        -0.1070
    982   C5       17.9530   43.4750   24.7200 C.ar   46  C46         0.0566
    983   C6       16.8000   42.8350   24.9320 C.ar   46  C46         0.0850
    984    P.3     16.2420   37.4350   27.1190 P.3    47  G47         0.2141
    985  OP1       15.6430   36.2790   27.8330 O.3    47  G47        -0.4373
    986  OP2       17.2610   38.2790   27.8030 O.2    47  G47        -0.5172
    987  O5'       16.8580   36.9140   25.7420 O.3    47  G47        -0.3114
    988  C5'       16.0470   36.1440   24.8600 C.3    47  G47         0.1812
    989  C4'       16.7650   35.8860   23.5570 C.3    47  G47         0.1773
    990  O4'       17.0270   37.1310   22.8850 O.3    47  G47        -0.3307
    991  C3'       18.1130   35.2380   23.7080 C.3    47  G47         0.1860
    992  O3'       17.9490   33.8580   23.7760 O.3    47  G47        -0.3112
    993  C2'       18.8570   35.6740   22.4420 C.3    47  G47         0.2309
    994  O2'       18.7060   34.7740   21.3590 O.3    47  G47        -0.2156
    995  C1'       18.2080   37.0140   22.1110 C.3    47  G47         0.2408
    996   N9       19.0600   38.1530   22.4030 N.ar   47  G47        -0.2693
    997   C8       19.0680   38.9060   23.5510 C.ar   47  G47         0.1817
    998   N7       19.9290   39.8860   23.5300 N.ar   47  G47        -0.2173
    999   C5       20.5310   39.7710   22.2900 C.ar   47  G47         0.1748
   1000   C6       21.5350   40.5680   21.7000 C.ar   47  G47         0.3023
   1001   O6       22.0910   41.5710   22.1910 O.2    47  G47        -0.2633
   1002   N.1      21.8770   40.1100   20.4040 N.ar   47  G47        -0.1709
   1003   C.2      21.3220   38.9880   19.7960 C.ar   47  G47         0.2606
   1004   N.2      21.7600   38.6820   18.5620 N.pl3  47  G47        -0.0859
   1005   N.3      20.3530   38.2530   20.3440 N.ar   47  G47        -0.1918
   1006   C4       20.0140   38.6980   21.5860 C.ar   47  G47         0.1723
   1007    P.3     18.8560   33.0070   24.7590 P.3    48  A48         0.2141
   1008  OP1       18.2610   31.6450   24.8370 O.2    48  A48        -0.5172
   1009  OP2       19.0730   33.8080   25.9980 O.3    48  A48        -0.4373
   1010  O5'       20.2500   32.9330   23.9720 O.3    48  A48        -0.3114
   1011  C5'       20.3610   32.1560   22.7760 C.3    48  A48         0.1812
   1012  C4'       21.7440   32.2950   22.1610 C.3    48  A48         0.1773
   1013  O4'       21.8780   33.6180   21.6180 O.3    48  A48        -0.3307
   1014  C3'       22.8950   32.1480   23.1390 C.3    48  A48         0.1860
   1015  O3'       23.3040   30.8090   23.2210 O.3    48  A48        -0.3112
   1016  C2'       23.9780   33.0420   22.5610 C.3    48  A48         0.2309
   1017  O2'       24.8430   32.3820   21.6680 O.3    48  A48        -0.2156
   1018  C1'       23.1730   34.1240   21.8600 C.3    48  A48         0.2408
   1019   N9       23.0640   35.3220   22.6650 N.ar   48  A48        -0.2693
   1020   C8       22.6090   35.4230   23.9640 C.ar   48  A48         0.1816
   1021   N7       22.7680   36.6070   24.4960 N.ar   48  A48        -0.2193
   1022   C5       23.3740   37.3220   23.4940 C.ar   48  A48         0.1518
   1023   C6       23.8030   38.6470   23.4290 C.ar   48  A48         0.1919
   1024   N6       23.6860   39.4930   24.4560 N.pl3  48  A48        -0.1054
   1025   N.1      24.3600   39.0750   22.2600 N.ar   48  A48        -0.2040
   1026   C.2      24.4820   38.1920   21.2320 C.ar   48  A48         0.2016
   1027   N.3      24.1010   36.9090   21.1810 N.ar   48  A48        -0.2048
   1028   C4       23.5610   36.5370   22.3520 C.ar   48  A48         0.1692
   1029    P.3     23.7820   30.2240   24.6230 P.3    49  A49         0.2141
   1030  OP1       24.0920   28.7860   24.3970 O.2    49  A49        -0.5172
   1031  OP2       22.8050   30.6290   25.6730 O.3    49  A49        -0.4373
   1032  O5'       25.1370   31.0470   24.9030 O.3    49  A49        -0.3114
   1033  C5'       26.3490   30.7020   24.2470 C.3    49  A49         0.1812
   1034  C4'       27.5110   31.4630   24.8410 C.3    49  A49         0.1773
   1035  O4'       27.2170   32.8640   24.7880 O.3    49  A49        -0.3307
   1036  C3'       27.7690   31.1830   26.3010 C.3    49  A49         0.1860
   1037  O3'       28.6440   30.1050   26.4360 O.3    49  A49        -0.3112
   1038  C2'       28.3890   32.4800   26.7810 C.3    49  A49         0.2309
   1039  O2'       29.7540   32.6040   26.4330 O.3    49  A49        -0.2156
   1040  C1'       27.5840   33.4830   26.0030 C.3    49  A49         0.2408
   1041   N9       26.3830   33.9860   26.6760 N.ar   49  A49        -0.2693
   1042   C8       25.0830   33.7830   26.3000 C.ar   49  A49         0.1816
   1043   N7       24.2130   34.5060   26.9610 N.ar   49  A49        -0.2193
   1044   C5       24.9870   35.2410   27.8220 C.ar   49  A49         0.1518
   1045   C6       24.6610   36.2100   28.7860 C.ar   49  A49         0.1919
   1046   N6       23.4110   36.5680   29.0670 N.pl3  49  A49        -0.1054
   1047   N.1      25.6670   36.7390   29.5080 N.ar   49  A49        -0.2040
   1048   C.2      26.9280   36.3760   29.2150 C.ar   49  A49         0.2016
   1049   N.3      27.3610   35.4710   28.3260 N.ar   49  A49        -0.2048
   1050   C4       26.3290   34.9200   27.6760 C.ar   49  A49         0.1692
   1051    P.3     28.4510   29.0650   27.6420 P.3    50  A50         0.2141
   1052  OP1       29.4230   27.9600   27.4190 O.2    50  A50        -0.5172
   1053  OP2       26.9910   28.7630   27.7720 O.3    50  A50        -0.4373
   1054  O5'       28.8930   29.9160   28.9280 O.3    50  A50        -0.3114
   1055  C5'       30.2540   30.2780   29.1040 C.3    50  A50         0.1812
   1056  C4'       30.4160   31.2270   30.2750 C.3    50  A50         0.1773
   1057  O4'       29.7780   32.4970   29.9740 O.3    50  A50        -0.3307
   1058  C3'       29.7460   30.7800   31.5510 C.3    50  A50         0.1860
   1059  O3'       30.5420   29.8600   32.2370 O.3    50  A50        -0.3112
   1060  C2'       29.6000   32.0990   32.2940 C.3    50  A50         0.2309
   1061  O2'       30.8230   32.5510   32.8670 O.3    50  A50        -0.2156
   1062  C1'       29.1700   33.0160   31.1500 C.3    50  A50         0.2408
   1063   N9       27.7110   33.0820   30.9540 N.ar   50  A50        -0.2693
   1064   C8       26.9460   32.3290   30.0930 C.ar   50  A50         0.1816
   1065   N7       25.6560   32.6100   30.1350 N.ar   50  A50        -0.2193
   1066   C5       25.5690   33.6150   31.0880 C.ar   50  A50         0.1518
   1067   C6       24.4750   34.3510   31.6060 C.ar   50  A50         0.1919
   1068   N6       23.2140   34.1920   31.1940 N.pl3  50  A50        -0.1054
   1069   N.1      24.7290   35.2500   32.5800 N.ar   50  A50        -0.2040
   1070   C.2      25.9810   35.3610   33.0450 C.ar   50  A50         0.2016
   1071   N.3      27.0970   34.7690   32.6060 N.ar   50  A50        -0.2048
   1072   C4       26.8200   33.8850   31.6340 C.ar   50  A50         0.1692
   1073    P.3     29.8440   28.7130   33.1060 P.3    51  G51         0.2141
   1074  OP1       30.9290   27.8310   33.6010 O.3    51  G51        -0.4373
   1075  OP2       28.7270   28.1330   32.3180 O.2    51  G51        -0.5172
   1076  O5'       29.1900   29.5230   34.3390 O.3    51  G51        -0.3114
   1077  C5'       30.0270   30.0780   35.3600 C.3    51  G51         0.1812
   1078  C4'       29.2450   30.9740   36.3260 C.3    51  G51         0.1773
   1079  O4'       28.6490   32.0950   35.6140 O.3    51  G51        -0.3307
   1080  C3'       28.0550   30.3380   37.0310 C.3    51  G51         0.1860
   1081  O3'       28.4500   29.4950   38.1070 O.3    51  G51        -0.3112
   1082  C2'       27.2970   31.5770   37.4990 C.3    51  G51         0.2309
   1083  O2'       27.8670   32.1960   38.6420 O.3    51  G51        -0.2156
   1084  C1'       27.4260   32.4700   36.2660 C.3    51  G51         0.2408
   1085   N9       26.3020   32.2860   35.3360 N.ar   51  G51        -0.2693
   1086   C8       26.2660   31.4790   34.2160 C.ar   51  G51         0.1817
   1087   N7       25.0930   31.4190   33.6490 N.ar   51  G51        -0.2173
   1088   C5       24.2870   32.2020   34.4590 C.ar   51  G51         0.1748
   1089   C6       22.9110   32.5260   34.3360 C.ar   51  G51         0.3023
   1090   O6       22.1080   32.1660   33.4560 O.2    51  G51        -0.2633
   1091   N.1      22.4780   33.3300   35.3900 N.ar   51  G51        -0.1709
   1092   C.2      23.2740   33.7680   36.4350 C.ar   51  G51         0.2606
   1093   N.2      22.6770   34.5250   37.3650 N.pl3  51  G51        -0.0859
   1094   N.3      24.5660   33.4900   36.5490 N.ar   51  G51        -0.1918
   1095   C4       25.0060   32.7090   35.5270 C.ar   51  G51         0.1723
   1096    P.3     27.5250   28.2460   38.5070 P.3    52  C52         0.2141
   1097  OP1       28.2740   27.4430   39.4940 O.3    52  C52        -0.4373
   1098  OP2       27.0210   27.5970   37.2720 O.2    52  C52        -0.5172
   1099  O5'       26.2830   28.9420   39.2270 O.3    52  C52        -0.3114
   1100  C5'       26.4500   29.6230   40.4740 C.3    52  C52         0.1812
   1101  C4'       25.1950   30.3990   40.8220 C.3    52  C52         0.1773
   1102  O4'       24.8440   31.2450   39.6940 O.3    52  C52        -0.3307
   1103  C3'       23.9440   29.5510   41.0470 C.3    52  C52         0.1860
   1104  O3'       23.8830   29.0480   42.3700 O.3    52  C52        -0.3112
   1105  C2'       22.8280   30.5500   40.7540 C.3    52  C52         0.2309
   1106  O2'       22.5450   31.4240   41.8400 O.3    52  C52        -0.2156
   1107  C1'       23.4260   31.3260   39.5720 C.3    52  C52         0.2420
   1108   N.1      22.9950   30.7740   38.2220 N.ar   52  C52        -0.2535
   1109   C.2      21.6760   31.0120   37.7600 C.ar   52  C52         0.3532
   1110   O.2      20.9150   31.7380   38.4190 O.2    52  C52        -0.2443
   1111   N.3      21.2800   30.4460   36.5870 N.ar   52  C52        -0.1739
   1112   C4       22.1250   29.6700   35.8920 C.ar   52  C52         0.1759
   1113   N.4      21.6930   29.1700   34.7300 N.pl3  52  C52        -0.1070
   1114   C5       23.4630   29.4060   36.3420 C.ar   52  C52         0.0566
   1115   C6       23.8480   29.9640   37.5000 C.ar   52  C52         0.0850
   1116    P.3     23.3990   27.5370   42.6330 P.3    53  U53         0.2141
   1117  OP1       23.6080   27.2680   44.0730 O.3    53  U53        -0.4373
   1118  OP2       24.0410   26.6470   41.6300 O.2    53  U53        -0.5172
   1119  O5'       21.8120   27.5740   42.3210 O.3    53  U53        -0.3114
   1120  C5'       20.9220   28.3610   43.1250 C.3    53  U53         0.1815
   1121    P.3     10.5330   34.1490   30.7920 Pac    57  G57         0.3942
   1122  OP1        9.1450   34.6880   30.7910 O.3    57  G57        -0.1425
   1123  OP2       11.3170   34.1010   29.5300 O.3    57  G57        -0.1425
   1124  O5'       11.3990   34.9240   31.9100 O.3    57  G57        -0.2926
   1125  C5'       12.4690   34.2680   32.5840 C.3    57  G57         0.1829
   1126  C4'       12.3770   34.4660   34.0960 C.3    57  G57         0.1774
   1127  O4'       12.6280   33.2000   34.7520 O.3    57  G57        -0.3307
   1128  C3'       13.3970   35.4470   34.6760 C.3    57  G57         0.1860
   1129  O3'       12.7720   36.6660   35.0090 O.3    57  G57        -0.3112
   1130  C2'       13.9490   34.7410   35.9180 C.3    57  G57         0.2309
   1131  O2'       13.2250   35.0380   37.0940 O.3    57  G57        -0.2156
   1132  C1'       13.7850   33.2840   35.5580 C.3    57  G57         0.2408
   1133   N9       14.9440   32.6980   34.8520 N.ar   57  G57        -0.2693
   1134   C8       15.0670   32.4470   33.5050 C.ar   57  G57         0.1817
   1135   N7       16.2090   31.9310   33.1680 N.ar   57  G57        -0.2173
   1136   C5       16.8910   31.8100   34.3620 C.ar   57  G57         0.1748
   1137   C6       18.1900   31.2990   34.6220 C.ar   57  G57         0.3023
   1138   O6       18.9990   30.8160   33.8120 O.2    57  G57        -0.2633
   1139   N.1      18.5340   31.4170   35.9760 N.ar   57  G57        -0.1709
   1140   C.2      17.7090   31.9480   36.9560 C.ar   57  G57         0.2606
   1141   N.2      18.1980   31.9700   38.2050 N.pl3  57  G57        -0.0859
   1142   N.3      16.4860   32.4220   36.7210 N.ar   57  G57        -0.1918
   1143   C4       16.1360   32.3030   35.4100 C.ar   57  G57         0.1723
   1144    P.3     13.5370   38.0480   34.7550 P.3    58  C58         0.2141
   1145  OP1       12.6180   39.1410   35.1690 O.3    58  C58        -0.4373
   1146  OP2       14.0810   38.0160   33.3710 O.2    58  C58        -0.5172
   1147  O5'       14.7790   37.9850   35.7720 O.3    58  C58        -0.3114
   1148  C5'       14.5860   38.2890   37.1510 C.3    58  C58         0.1812
   1149  C4'       15.8030   37.9210   37.9780 C.3    58  C58         0.1773
   1150  O4'       16.1260   36.5250   37.7920 O.3    58  C58        -0.3307
   1151  C3'       17.0860   38.6260   37.6000 C.3    58  C58         0.1860
   1152  O3'       17.1190   39.9490   38.1210 O.3    58  C58        -0.3112
   1153  C2'       18.1220   37.7230   38.2560 C.3    58  C58         0.2309
   1154  O2'       18.2810   37.9590   39.6450 O.3    58  C58        -0.2156
   1155  C1'       17.5200   36.3390   38.0140 C.3    58  C58         0.2420
   1156   N.1      18.1360   35.6400   36.8310 N.ar   58  C58        -0.2535
   1157   C.2      19.4560   35.1370   36.9240 C.ar   58  C58         0.3532
   1158   O.2      20.0790   35.2320   37.9930 O.2    58  C58        -0.2443
   1159   N.3      20.0140   34.5600   35.8280 N.ar   58  C58        -0.1739
   1160   C4       19.3260   34.4710   34.6850 C.ar   58  C58         0.1759
   1161   N.4      19.9230   33.8800   33.6480 N.pl3  58  C58        -0.1070
   1162   C5       18.0090   35.0160   34.5500 C.ar   58  C58         0.0566
   1163   C6       17.4520   35.5730   35.6380 C.ar   58  C58         0.0850
   1164    P.3     17.9060   41.1080   37.3300 P.3    59  U59         0.2141
   1165  OP1       17.6630   42.3870   38.0470 O.3    59  U59        -0.4373
   1166  OP2       17.5560   41.0000   35.8890 O.2    59  U59        -0.5172
   1167  O5'       19.4540   40.6960   37.5040 O.3    59  U59        -0.3114
   1168  C5'       20.0910   40.8350   38.7660 C.3    59  U59         0.1812
   1169  C4'       21.4560   40.1670   38.7760 C.3    59  U59         0.1773
   1170  O4'       21.3480   38.7820   38.3780 O.3    59  U59        -0.3307
   1171  C3'       22.4550   40.7190   37.7920 C.3    59  U59         0.1860
   1172  O3'       22.9870   41.9300   38.2440 O.3    59  U59        -0.3112
   1173  C2'       23.4880   39.6030   37.7470 C.3    59  U59         0.2309
   1174  O2'       24.3840   39.6070   38.8490 O.3    59  U59        -0.2156
   1175  C1'       22.5880   38.3710   37.7860 C.3    59  U59         0.2420
   1176   N.1      22.3380   37.7690   36.4020 N.ar   59  U59        -0.2534
   1177   C.2      23.3640   37.0580   35.7680 C.ar   59  U59         0.3546
   1178   O.2      24.4520   36.8300   36.2850 O.2    59  U59        -0.2443
   1179   N.3      23.0390   36.5520   34.5270 N.ar   59  U59        -0.1530
   1180   C4       21.8360   36.6980   33.8510 C.ar   59  U59         0.2846
   1181   O4       21.7080   36.2060   32.7320 O.2    59  U59        -0.2650
   1182   C5       20.8390   37.5010   34.5380 C.ar   59  U59         0.0814
   1183   C6       21.1150   37.9820   35.7640 C.ar   59  U59         0.0870
   1184    P.3     23.2830   43.0910   37.1880 P.3    60  U60         0.2141
   1185  OP1       23.6040   44.3260   37.9490 O.3    60  U60        -0.4373
   1186  OP2       22.1740   43.1090   36.1930 O.2    60  U60        -0.5172
   1187  O5'       24.6100   42.5480   36.4540 O.3    60  U60        -0.3114
   1188  C5'       25.8410   42.4300   37.1730 C.3    60  U60         0.1812
   1189  C4'       26.8050   41.4740   36.4760 C.3    60  U60         0.1773
   1190  O4'       26.1290   40.2350   36.1390 O.3    60  U60        -0.3307
   1191  C3'       27.3630   41.9560   35.1500 C.3    60  U60         0.1860
   1192  O3'       28.4730   42.8550   35.3520 O.3    60  U60        -0.3112
   1193  C2'       27.8090   40.6380   34.5160 C.3    60  U60         0.2309
   1194  O2'       29.0690   40.1910   34.9860 O.3    60  U60        -0.2156
   1195  C1'       26.7070   39.6850   34.9530 C.3    60  U60         0.2420
   1196   N.1      25.6230   39.4580   33.8880 N.ar   60  U60        -0.2534
   1197   C.2      25.9190   38.6910   32.7510 C.ar   60  U60         0.3546
   1198   O.2      27.0270   38.2240   32.5150 O.2    60  U60        -0.2443
   1199   N.3      24.8530   38.4930   31.8900 N.ar   60  U60        -0.1530
   1200   C4       23.5580   38.9880   32.0300 C.ar   60  U60         0.2846
   1201   O4       22.7140   38.7340   31.1740 O.2    60  U60        -0.2650
   1202   C5       23.3290   39.7730   33.2280 C.ar   60  U60         0.0814
   1203   C6       24.3410   39.9630   34.0970 C.ar   60  U60         0.0870
   1204    P.3     28.8230   43.9930   34.2560 P.3    61  U61         0.2141
   1205  OP1       30.2030   44.4600   34.5130 O.3    61  U61        -0.4373
   1206  OP2       27.7100   44.9760   34.2080 O.2    61  U61        -0.5172
   1207  O5'       28.7910   43.1750   32.8840 O.3    61  U61        -0.3114
   1208  C5'       29.9170   42.3730   32.4300 C.3    61  U61         0.1812
   1209  C4'       29.8530   42.2670   30.9210 C.3    61  U61         0.1773
   1210  O4'       28.7070   41.4270   30.5500 O.3    61  U61        -0.3307
   1211  C3'       29.6120   43.6300   30.2740 C.3    61  U61         0.1860
   1212  O3'       30.6120   43.9620   29.3110 O.3    61  U61        -0.3112
   1213  C2'       28.1650   43.5640   29.7510 C.3    61  U61         0.2309
   1214  O2'       27.9100   44.2710   28.5520 O.3    61  U61        -0.2156
   1215  C1'       27.9410   42.0760   29.5590 C.3    61  U61         0.2420
   1216   N.1      26.4830   41.7000   29.6790 N.ar   61  U61        -0.2534
   1217   C.2      25.9650   40.7190   28.8400 C.ar   61  U61         0.3546
   1218   O.2      26.6620   40.0050   28.1350 O.2    61  U61        -0.2443
   1219   N.3      24.5860   40.5700   28.9030 N.ar   61  U61        -0.1530
   1220   C4       23.6930   41.3310   29.6650 C.ar   61  U61         0.2846
   1221   O4       22.4920   41.0810   29.6340 O.2    61  U61        -0.2650
   1222   C5       24.3060   42.3560   30.4740 C.ar   61  U61         0.0814
   1223   C6       25.6390   42.5100   30.4400 C.ar   61  U61         0.0870
   1224    P.3     30.9960   45.5130   29.1020 P.3    62  G62         0.2141
   1225  OP1       32.2680   45.5860   28.3430 O.2    62  G62        -0.5172
   1226  OP2       30.8760   46.2200   30.4030 O.3    62  G62        -0.4373
   1227  O5'       29.7830   45.9860   28.1800 O.3    62  G62        -0.3114
   1228  C5'       29.5670   47.3140   27.8890 C.3    62  G62         0.1812
   1229  C4'       29.8590   47.5520   26.4380 C.3    62  G62         0.1773
   1230  O4'       29.4030   46.4480   25.6410 O.3    62  G62        -0.3307
   1231  C3'       29.1570   48.7150   25.8490 C.3    62  G62         0.1860
   1232  O3'       29.8270   49.8750   26.2360 O.3    62  G62        -0.3112
   1233  C2'       29.3510   48.4220   24.3770 C.3    62  G62         0.2309
   1234  O2'       30.6550   48.7550   23.9500 O.3    62  G62        -0.2156
   1235  C1'       29.1760   46.9070   24.3350 C.3    62  G62         0.2408
   1236   N9       27.8530   46.4640   23.9050 N.ar   62  G62        -0.2693
   1237   C8       26.7390   46.3090   24.6900 C.ar   62  G62         0.1817
   1238   N7       25.7160   45.8180   24.0530 N.ar   62  G62        -0.2173
   1239   C5       26.1780   45.6280   22.7620 C.ar   62  G62         0.1748
   1240   C6       25.5160   45.1030   21.6200 C.ar   62  G62         0.3023
   1241   O6       24.3380   44.7240   21.5270 O.2    62  G62        -0.2633
   1242   N.1      26.3590   45.0480   20.5040 N.ar   62  G62        -0.1709
   1243   C.2      27.6750   45.4440   20.5010 C.ar   62  G62         0.2606
   1244   N.2      28.3340   45.3220   19.3410 N.pl3  62  G62        -0.0859
   1245   N.3      28.2960   45.9600   21.5560 N.ar   62  G62        -0.1918
   1246   C4       27.4920   46.0180   22.6530 C.ar   62  G62         0.1723
   1247    P.3     29.0320   51.0760   26.9260 P.3    63  A63         0.2141
   1248  OP1       29.8800   51.5740   28.0410 O.3    63  A63        -0.4373
   1249  OP2       27.6200   50.6380   27.1880 O.2    63  A63        -0.5172
   1250  O5'       28.9950   52.1760   25.7610 O.3    63  A63        -0.3114
   1251  C5'       30.1910   52.5270   25.0760 C.3    63  A63         0.1812
   1252  C4'       29.9440   52.6460   23.5850 C.3    63  A63         0.1773
   1253  O4'       29.4800   51.3840   23.0810 O.3    63  A63        -0.3307
   1254  C3'       28.8580   53.6250   23.1850 C.3    63  A63         0.1860
   1255  O3'       29.3940   54.9310   23.0960 O.3    63  A63        -0.3112
   1256  C2'       28.4440   53.1040   21.8190 C.3    63  A63         0.2309
   1257  O2'       29.2740   53.5940   20.8020 O.3    63  A63        -0.2156
   1258  C1'       28.6460   51.6020   21.9640 C.3    63  A63         0.2408
   1259   N9       27.4240   50.8410   22.1450 N.ar   63  A63        -0.2693
   1260   C8       26.6370   50.8050   23.2490 C.ar   63  A63         0.1816
   1261   N7       25.6150   49.9890   23.1470 N.ar   63  A63        -0.2193
   1262   C5       25.7580   49.4340   21.8980 C.ar   63  A63         0.1518
   1263   C6       25.0080   48.4690   21.1920 C.ar   63  A63         0.1919
   1264   N6       23.9230   47.8700   21.6890 N.pl3  63  A63        -0.1054
   1265   N.1      25.4380   48.1210   19.9560 N.ar   63  A63        -0.2040
   1266   C.2      26.5300   48.7160   19.4570 C.ar   63  A63         0.2016
   1267   N.3      27.3330   49.6080   20.0360 N.ar   63  A63        -0.2048
   1268   C4       26.8840   49.9320   21.2700 C.ar   63  A63         0.1692
   1269    P.3     28.7360   56.1400   23.9350 P.3    64  U64         0.2141
   1270  OP1       29.5480   57.3580   23.6650 O.2    64  U64        -0.5172
   1271  OP2       28.5240   55.6810   25.3390 O.3    64  U64        -0.4373
   1272  O5'       27.2790   56.3170   23.2700 O.3    64  U64        -0.3114
   1273  C5'       27.1550   56.5470   21.8800 C.3    64  U64         0.1812
   1274  C4'       27.1730   58.0260   21.5830 C.3    64  U64         0.1773
   1275  O4'       27.4850   58.2510   20.1770 O.3    64  U64        -0.3307
   1276  C3'       25.8520   58.7320   21.8380 C.3    64  U64         0.1860
   1277  O3'       26.1050   60.0500   22.3300 O.3    64  U64        -0.3112
   1278  C2'       25.2230   58.7540   20.4500 C.3    64  U64         0.2309
   1279  O2'       24.2900   59.7950   20.2870 O.3    64  U64        -0.2156
   1280  C1'       26.4550   59.0140   19.5960 C.3    64  U64         0.2420
   1281   N.1      26.3050   58.6580   18.1480 N.ar   64  U64        -0.2534
   1282   C.2      26.9970   59.3930   17.2040 C.ar   64  U64         0.3546
   1283   O.2      27.7890   60.2750   17.4890 O.2    64  U64        -0.2443
   1284   N.3      26.7340   59.0510   15.8990 N.ar   64  U64        -0.1530
   1285   C4       25.8600   58.0830   15.4520 C.ar   64  U64         0.2846
   1286   O4       25.7560   57.8770   14.2590 O.2    64  U64        -0.2650
   1287   C5       25.1530   57.3740   16.4870 C.ar   64  U64         0.0814
   1288   C6       25.3830   57.6910   17.7680 C.ar   64  U64         0.0870
   1289    P.3     25.3330   60.5880   23.6160 P.3    65  U65         0.2141
   1290  OP1       26.1810   60.2850   24.7910 O.3    65  U65        -0.4373
   1291  OP2       23.9200   60.1030   23.5760 O.2    65  U65        -0.5172
   1292  O5'       25.3300   62.1700   23.3620 O.3    65  U65        -0.3114
   1293  C5'       24.7630   62.7290   22.1510 C.3    65  U65         0.1812
   1294  C4'       25.8060   63.5450   21.4110 C.3    65  U65         0.1773
   1295  O4'       26.4810   62.6940   20.4480 O.3    65  U65        -0.3307
   1296  C3'       25.2740   64.6930   20.5750 C.3    65  U65         0.1860
   1297  O3'       25.0450   65.8280   21.3690 O.3    65  U65        -0.3112
   1298  C2'       26.4310   64.9070   19.6060 C.3    65  U65         0.2309
   1299  O2'       27.5150   65.5980   20.2020 O.3    65  U65        -0.2156
   1300  C1'       26.8340   63.4620   19.3000 C.3    65  U65         0.2420
   1301   N.1      26.1620   62.8650   18.0470 N.ar   65  U65        -0.2534
   1302   C.2      26.6880   63.1420   16.7900 C.ar   65  U65         0.3546
   1303   O.2      27.6690   63.8500   16.6090 O.2    65  U65        -0.2443
   1304   N.3      26.0170   62.5470   15.7380 N.ar   65  U65        -0.1530
   1305   C4       24.8880   61.7350   15.8060 C.ar   65  U65         0.2846
   1306   O4       24.4040   61.2690   14.7750 O.2    65  U65        -0.2650
   1307   C5       24.3800   61.5190   17.1390 C.ar   65  U65         0.0814
   1308   C6       25.0180   62.0800   18.1820 C.ar   65  U65         0.0870
   1309    P.3     23.7820   66.7860   21.0830 P.3    66  U66         0.2141
   1310  OP1       23.6600   67.6980   22.2420 O.3    66  U66        -0.4373
   1311  OP2       22.6200   65.9550   20.6990 O.2    66  U66        -0.5172
   1312  O5'       24.2420   67.6330   19.7950 O.3    66  U66        -0.3114
   1313  C5'       25.3950   68.5090   19.8870 C.3    66  U66         0.1812
   1314  C4'       25.8600   69.0190   18.5200 C.3    66  U66         0.1773
   1315  O4'       26.4680   67.9340   17.7600 O.3    66  U66        -0.3307
   1316  C3'       24.7710   69.5520   17.5980 C.3    66  U66         0.1860
   1317  O3'       24.4180   70.8720   17.9050 O.3    66  U66        -0.3112
   1318  C2'       25.4400   69.4440   16.2380 C.3    66  U66         0.2309
   1319  O2'       26.3580   70.4970   15.9700 O.3    66  U66        -0.2156
   1320  C1'       26.1550   68.0950   16.3690 C.3    66  U66         0.2420
   1321   N.1      25.2870   66.9060   15.8560 N.ar   66  U66        -0.2534
   1322   C.2      25.2150   66.6550   14.4840 C.ar   66  U66         0.3546
   1323   O.2      25.8400   67.2910   13.6470 O.2    66  U66        -0.2443
   1324   N.3      24.3810   65.6180   14.1280 N.ar   66  U66        -0.1530
   1325   C4       23.6120   64.8310   14.9650 C.ar   66  U66         0.2846
   1326   O4       22.9090   63.9410   14.4920 O.2    66  U66        -0.2650
   1327   C5       23.7110   65.1620   16.3640 C.ar   66  U66         0.0814
   1328   C6       24.5130   66.1690   16.7480 C.ar   66  U66         0.0870
   1329    P.3     22.8960   71.3500   17.7150 P.3    67  G67         0.2141
   1330  OP1       22.7640   72.6660   18.3860 O.3    67  G67        -0.4373
   1331  OP2       21.9950   70.2390   18.1030 O.2    67  G67        -0.5172
   1332  O5'       22.7590   71.5510   16.1360 O.3    67  G67        -0.3114
   1333  C5'       23.5420   72.5330   15.4660 C.3    67  G67         0.1812
   1334  C4'       23.5110   72.3260   13.9610 C.3    67  G67         0.1773
   1335  O4'       24.1310   71.0530   13.6250 O.3    67  G67        -0.3307
   1336  C3'       22.1270   72.2180   13.3560 C.3    67  G67         0.1860
   1337  O3'       21.5310   73.4800   13.1730 O.3    67  G67        -0.3112
   1338  C2'       22.4240   71.5110   12.0420 C.3    67  G67         0.2309
   1339  O2'       22.9450   72.3690   11.0380 O.3    67  G67        -0.2156
   1340  C1'       23.4650   70.4870   12.4950 C.3    67  G67         0.2408
   1341   N9       22.8550   69.1870   12.8500 N.ar   67  G67        -0.2693
   1342   C8       22.5630   68.6980   14.1080 C.ar   67  G67         0.1817
   1343   N7       21.9350   67.5470   14.0940 N.ar   67  G67        -0.2173
   1344   C5       21.7380   67.2900   12.7450 C.ar   67  G67         0.1748
   1345   C6       21.1110   66.1930   12.0980 C.ar   67  G67         0.3023
   1346   O6       20.5650   65.2020   12.6100 O.2    67  G67        -0.2633
   1347   N.1      21.1440   66.3300   10.7100 N.ar   67  G67        -0.1709
   1348   C.2      21.7100   67.3870   10.0380 C.ar   67  G67         0.2606
   1349   N.2      21.6600   67.3500    8.7120 N.pl3  67  G67        -0.0859
   1350   N.3      22.2630   68.4210   10.6250 N.ar   67  G67        -0.1918
   1351   C4       22.2750   68.2990   11.9720 C.ar   67  G67         0.1723
   1352    P.3     19.9300   73.6080   13.2490 P.3    68  G68         0.2141
   1353  OP1       19.5920   75.0510   13.1980 O.2    68  G68        -0.5172
   1354  OP2       19.4330   72.7720   14.3790 O.3    68  G68        -0.4373
   1355  O5'       19.4490   72.9230   11.8830 O.3    68  G68        -0.3114
   1356  C5'       19.8630   73.4650   10.6240 C.3    68  G68         0.1812
   1357  C4'       19.3800   72.6010    9.4850 C.3    68  G68         0.1773
   1358  O4'       20.0170   71.3010    9.5500 O.3    68  G68        -0.3307
   1359  C3'       17.9050   72.2930    9.5300 C.3    68  G68         0.1860
   1360  O3'       17.1560   73.3670    8.9990 O.3    68  G68        -0.3112
   1361  C2'       17.8250   71.0270    8.6840 C.3    68  G68         0.2309
   1362  O2'       17.8730   71.2870    7.2930 O.3    68  G68        -0.2156
   1363  C1'       19.0920   70.2950    9.1310 C.3    68  G68         0.2408
   1364   N9       18.8620   69.3540   10.2410 N.ar   68  G68        -0.2693
   1365   C8       19.1250   69.5720   11.5730 C.ar   68  G68         0.1817
   1366   N7       18.7660   68.5860   12.3470 N.ar   68  G68        -0.2173
   1367   C5       18.2160   67.6550   11.4850 C.ar   68  G68         0.1748
   1368   C6       17.6980   66.3600   11.7510 C.ar   68  G68         0.3023
   1369   O6       17.6170   65.7720   12.8410 O.2    68  G68        -0.2633
   1370   N.1      17.2380   65.7380   10.5920 N.ar   68  G68        -0.1709
   1371   C.2      17.2940   66.2860    9.3330 C.ar   68  G68         0.2606
   1372   N.2      16.8170   65.5280    8.3430 N.pl3  68  G68        -0.0859
   1373   N.3      17.8030   67.4860    9.0620 N.ar   68  G68        -0.1918
   1374   C4       18.2550   68.1110   10.1810 C.ar   68  G68         0.1723
   1375    P.3     15.7560   73.7650    9.6750 P.3    69  U69         0.2141
   1376  OP1       15.3910   75.1280    9.2070 O.2    69  U69        -0.5172
   1377  OP2       15.8350   73.4800   11.1350 O.3    69  U69        -0.4373
   1378  O5'       14.7400   72.7110    9.0250 O.3    69  U69        -0.3114
   1379  C5'       14.6570   72.5750    7.6070 C.3    69  U69         0.1812
   1380  C4'       13.9830   71.2730    7.2270 C.3    69  U69         0.1773
   1381  O4'       14.7740   70.1470    7.6770 O.3    69  U69        -0.3307
   1382  C3'       12.6540   71.0300    7.8860 C.3    69  U69         0.1860
   1383  O3'       11.6490   71.7960    7.2840 O.3    69  U69        -0.3112
   1384  C2'       12.4750   69.5410    7.6500 C.3    69  U69         0.2309
   1385  O2'       12.0190   69.2340    6.3450 O.3    69  U69        -0.2156
   1386  C1'       13.9060   69.0290    7.8540 C.3    69  U69         0.2420
   1387   N.1      14.1240   68.4240    9.2260 N.ar   69  U69        -0.2534
   1388   C.2      13.6350   67.1380    9.5000 C.ar   69  U69         0.3546
   1389   O.2      13.0890   66.4290    8.6720 O.2    69  U69        -0.2443
   1390   N.3      13.8470   66.7020   10.7910 N.ar   69  U69        -0.1530
   1391   C4       14.4750   67.3940   11.8200 C.ar   69  U69         0.2846
   1392   O4       14.6200   66.8550   12.9140 O.2    69  U69        -0.2650
   1393   C5       14.9360   68.7240   11.4710 C.ar   69  U69         0.0814
   1394   C6       14.7460   69.1800   10.2170 C.ar   69  U69         0.0870
   1395    P.3     10.5340   72.4950    8.2010 P.3    70  G70         0.2141
   1396  OP1        9.7240   73.3750    7.3180 O.2    70  G70        -0.5172
   1397  OP2       11.2070   73.0630    9.3990 O.3    70  G70        -0.4373
   1398  O5'        9.6410   71.2630    8.6810 O.3    70  G70        -0.3114
   1399  C5'        8.8550   70.5530    7.7510 C.3    70  G70         0.1812
   1400  C4'        8.3830   69.2590    8.3550 C.3    70  G70         0.1773
   1401  O4'        9.5330   68.4760    8.7690 O.3    70  G70        -0.3307
   1402  C3'        7.5870   69.4180    9.6280 C.3    70  G70         0.1860
   1403  O3'        6.2330   69.7900    9.3550 O.3    70  G70        -0.3112
   1404  C2'        7.7300   68.0270   10.2600 C.3    70  G70         0.2309
   1405  O2'        6.8500   67.0580    9.7120 O.3    70  G70        -0.2156
   1406  C1'        9.1900   67.6940    9.9110 C.3    70  G70         0.2408
   1407   N9       10.1180   68.0130   10.9960 N.ar   70  G70        -0.2693
   1408   C8       10.7600   69.2110   11.2050 C.ar   70  G70         0.1817
   1409   N7       11.4520   69.2470   12.3110 N.ar   70  G70        -0.2173
   1410   C5       11.2590   67.9990   12.8740 C.ar   70  G70         0.1748
   1411   C6       11.7480   67.4680   14.0900 C.ar   70  G70         0.3023
   1412   O6       12.5060   68.0080   14.9040 O.2    70  G70        -0.2633
   1413   N.1      11.2820   66.1700   14.3210 N.ar   70  G70        -0.1709
   1414   C.2      10.4530   65.4710   13.4670 C.ar   70  G70         0.2606
   1415   N.2      10.1260   64.2270   13.8330 N.pl3  70  G70        -0.0859
   1416   N.3       9.9830   65.9630   12.3210 N.ar   70  G70        -0.1918
   1417   C4       10.4130   67.2360   12.0970 C.ar   70  G70         0.1723
   1418    P.3      5.4930   70.8670   10.3030 P.3    71  A71         0.2141
   1419  OP1        4.0310   70.7710   10.0300 O.2    71  A71        -0.5172
   1420  OP2        6.1960   72.1670   10.1630 O.3    71  A71        -0.4373
   1421  O5'        5.7950   70.3140   11.7870 O.3    71  A71        -0.3114
   1422  C5'        5.0950   70.8110   12.9150 C.3    71  A71         0.1812
   1423  C4'        4.5510   69.6680   13.7750 C.3    71  A71         0.1773
   1424  O4'        3.5690   68.9280   13.0270 O.3    71  A71        -0.3307
   1425  C3'        5.5520   68.6100   14.2020 C.3    71  A71         0.1860
   1426  O3'        6.3080   69.0280   15.3500 O.3    71  A71        -0.3112
   1427  C2'        4.6610   67.3990   14.4890 C.3    71  A71         0.2309
   1428  O2'        4.2370   67.3170   15.8280 O.3    71  A71        -0.2156
   1429  C1'        3.4710   67.6150   13.5520 C.3    71  A71         0.2408
   1430   N9        3.4190   66.6800   12.4260 N.ar   71  A71        -0.2693
   1431   C8        3.4910   66.9970   11.0880 C.ar   71  A71         0.1816
   1432   N7        3.3380   65.9680   10.2860 N.ar   71  A71        -0.2193
   1433   C5        3.1850   64.8920   11.1450 C.ar   71  A71         0.1518
   1434   C6        2.9960   63.5040   10.9110 C.ar   71  A71         0.1919
   1435   N6        2.9410   62.9710    9.6780 N.pl3  71  A71        -0.1054
   1436   N.1       2.8930   62.6790   11.9990 N.ar   71  A71        -0.2040
   1437   C.2       2.9700   63.2210   13.2350 C.ar   71  A71         0.2016
   1438   N.3       3.1400   64.5140   13.5780 N.ar   71  A71        -0.2048
   1439   C4        3.2410   65.3050   12.4730 C.ar   71  A71         0.1692
   1440    P.3      7.8670   68.6420   15.4310 P.3    72  A72         0.2141
   1441  OP1        8.4840   69.2660   16.6360 O.3    72  A72        -0.4373
   1442  OP2        8.4660   68.9240   14.1030 O.2    72  A72        -0.5172
   1443  O5'        7.7850   67.0470   15.6390 O.3    72  A72        -0.3114
   1444  C5'        7.3450   66.5040   16.8930 C.3    72  A72         0.1812
   1445  C4'        7.0620   65.0120   16.7850 C.3    72  A72         0.1773
   1446  O4'        6.0970   64.7760   15.7350 O.3    72  A72        -0.3307
   1447  C3'        8.2600   64.1560   16.4310 C.3    72  A72         0.1860
   1448  O3'        8.9490   63.7670   17.6020 O.3    72  A72        -0.3112
   1449  C2'        7.6420   62.9600   15.7150 C.3    72  A72         0.2309
   1450  O2'        7.3160   61.9030   16.6040 O.3    72  A72        -0.2156
   1451  C1'        6.3800   63.5560   15.0690 C.3    72  A72         0.2408
   1452   N9        6.5040   63.8340   13.6250 N.ar   72  A72        -0.2693
   1453   C8        6.8430   65.0370   13.0350 C.ar   72  A72         0.1816
   1454   N7        6.7970   65.0230   11.7180 N.ar   72  A72        -0.2193
   1455   C5        6.4300   63.7200   11.4150 C.ar   72  A72         0.1518
   1456   C6        6.2430   63.0550   10.1900 C.ar   72  A72         0.1919
   1457   N6        6.3970   63.6590    9.0170 N.pl3  72  A72        -0.1054
   1458   N.1       5.8870   61.7350   10.2190 N.ar   72  A72        -0.2040
   1459   C.2       5.7250   61.1310   11.4100 C.ar   72  A72         0.2016
   1460   N.3       5.8900   61.6500   12.6370 N.ar   72  A72        -0.2048
   1461   C4        6.2450   62.9660   12.5730 C.ar   72  A72         0.1692
   1462    P.3     10.5280   64.0420   17.7180 P.3    73  A73         0.2141
   1463  OP1       11.0030   63.5600   19.0570 O.3    73  A73        -0.4373
   1464  OP2       10.7930   65.4510   17.2890 O.2    73  A73        -0.5172
   1465  O5'       11.1290   63.0750   16.5930 O.3    73  A73        -0.3114
   1466  C5'       10.9730   61.6510   16.6900 C.3    73  A73         0.1812
   1467  C4'       12.0090   60.9390   15.8430 C.3    73  A73         0.1773
   1468  O4'       11.9110   61.3700   14.4880 O.3    73  A73        -0.3307
   1469  C3'       13.4490   61.1990   16.2380 C.3    73  A73         0.1860
   1470  O3'       13.8650   60.1630   17.1270 O.3    73  A73        -0.3112
   1471  C2'       14.2190   61.1950   14.8860 C.3    73  A73         0.2309
   1472  O2'       15.1760   60.1480   14.7820 O.3    73  A73        -0.2156
   1473  C1'       13.0990   61.0140   13.8410 C.3    73  A73         0.2408
   1474   N9       13.2190   61.8410   12.6220 N.ar   73  A73        -0.2693
   1475   C8       13.5910   63.1560   12.5480 C.ar   73  A73         0.1816
   1476   N7       13.5040   63.6650   11.3470 N.ar   73  A73        -0.2193
   1477   C5       12.9900   62.6380   10.5850 C.ar   73  A73         0.1518
   1478   C6       12.7110   62.5360    9.2070 C.ar   73  A73         0.1919
   1479   N6       12.8750   63.5550    8.3610 N.pl3  73  A73        -0.1054
   1480   N.1      12.2700   61.3370    8.7280 N.ar   73  A73        -0.2040
   1481   C.2      12.1480   60.3110    9.5840 C.ar   73  A73         0.2016
   1482   N.3      12.3460   60.3030   10.9110 N.ar   73  A73        -0.2048
   1483   C4       12.7980   61.5040   11.3470 C.ar   73  A73         0.1692
   1484    P.3     14.2270   60.4790   18.6590 P.3    74  U74         0.2141
   1485  OP1       14.5310   59.1900   19.3270 O.3    74  U74        -0.4373
   1486  OP2       13.1770   61.3600   19.2340 O.2    74  U74        -0.5172
   1487  O5'       15.5610   61.3440   18.4930 O.3    74  U74        -0.3114
   1488  C5'       16.6160   61.1800   19.3790 C.3    74  U74         0.1812
   1489  C4'       17.9280   61.1070   18.6290 C.3    74  U74         0.1773
   1490  O4'       19.0310   61.0920   19.5700 O.3    74  U74        -0.3307
   1491  C3'       18.1190   59.8580   17.7790 C.3    74  U74         0.1860
   1492  O3'       19.0930   60.1400   16.7430 O.3    74  U74        -0.3112
   1493  C2'       18.6620   58.8670   18.8190 C.3    74  U74         0.2309
   1494  O2'       19.4360   57.8320   18.2550 O.3    74  U74        -0.2156
   1495  C1'       19.5500   59.7770   19.6750 C.3    74  U74         0.2420
   1496   N.1      19.6150   59.3970   21.1230 N.ar   74  U74        -0.2534
   1497   C.2      20.8500   59.1030   21.6730 C.ar   74  U74         0.3546
   1498   O.2      21.8840   59.1110   21.0290 O.2    74  U74        -0.2443
   1499   N.3      20.8310   58.7870   23.0150 N.ar   74  U74        -0.1530
   1500   C4       19.7200   58.7160   23.8350 C.ar   74  U74         0.2846
   1501   O4       19.8650   58.4290   25.0110 O.2    74  U74        -0.2650
   1502   C5       18.4580   59.0190   23.1910 C.ar   74  U74         0.0814
   1503   C6       18.4490   59.3310   21.8840 C.ar   74  U74         0.0870
   1504    P.3     18.7090   60.1260   15.1820 P.3    75  U75         0.2141
   1505  OP1       19.9810   60.1830   14.4380 O.2    75  U75        -0.5172
   1506  OP2       17.6750   61.1470   14.9340 O.3    75  U75        -0.4373
   1507  O5'       18.0240   58.6980   14.9710 O.3    75  U75        -0.3114
   1508  C5'       18.8220   57.5790   14.6420 C.3    75  U75         0.1812
   1509  C4'       18.0320   56.5580   13.8520 C.3    75  U75         0.1773
   1510  O4'       16.9260   56.0770   14.6370 O.3    75  U75        -0.3307
   1511  C3'       17.4390   57.0490   12.5300 C.3    75  U75         0.1860
   1512  O3'       17.7470   56.1150   11.5140 O.3    75  U75        -0.3112
   1513  C2'       15.9350   57.0820   12.8140 C.3    75  U75         0.2309
   1514  O2'       15.1420   56.8040   11.6740 O.3    75  U75        -0.2156
   1515  C1'       15.8110   55.9550   13.8120 C.3    75  U75         0.2420
   1516   N.1      14.5870   56.0230   14.6180 N.ar   75  U75        -0.2534
   1517   C.2      13.5850   55.0930   14.3880 C.ar   75  U75         0.3546
   1518   O.2      13.7020   54.1530   13.6240 O.2    75  U75        -0.2443
   1519   N.3      12.4430   55.2730   15.1300 N.ar   75  U75        -0.1530
   1520   C4       12.1830   56.2890   16.0270 C.ar   75  U75         0.2846
   1521   O4       11.1050   56.3140   16.6070 O.2    75  U75        -0.2650
   1522   C5       13.2600   57.2490   16.1980 C.ar   75  U75         0.0814
   1523   C6       14.3930   57.0910   15.4930 C.ar   75  U75         0.0870
   1524    P.3     18.6030   56.5490   10.2420 P.3    76  C76         0.2141
   1525  OP1       18.9590   55.2960    9.5290 O.2    76  C76        -0.5172
   1526  OP2       19.6670   57.4770   10.6930 O.3    76  C76        -0.4373
   1527  O5'       17.5630   57.4070    9.3690 O.3    76  C76        -0.3114
   1528  C5'       16.8130   56.8250    8.3330 C.3    76  C76         0.1812
   1529  C4'       16.2390   57.8960    7.4140 C.3    76  C76         0.1773
   1530  O4'       15.2910   58.7140    8.1610 O.3    76  C76        -0.3307
   1531  C3'       17.2590   58.8590    6.8140 C.3    76  C76         0.1860
   1532  O3'       17.7060   58.3800    5.5190 O.3    76  C76        -0.3112
   1533  C2'       16.4820   60.1940    6.7300 C.3    76  C76         0.2309
   1534  O2'       15.7520   60.3650    5.5290 O.3    76  C76        -0.2156
   1535  C1'       15.5080   60.1010    7.9110 C.3    76  C76         0.2420
   1536   N.1      15.9770   60.8070    9.1900 N.ar   76  C76        -0.2535
   1537   C.2      16.1830   62.2150    9.2120 C.ar   76  C76         0.3532
   1538   O.2      15.9890   62.8940    8.1940 O.2    76  C76        -0.2443
   1539   N.3      16.6400   62.7890   10.3530 N.ar   76  C76        -0.1739
   1540   C4       16.8040   62.0580   11.4590 C.ar   76  C76         0.1759
   1541   N.4      17.1910   62.6890   12.5730 N.pl3  76  C76        -0.1070
   1542   C5       16.5610   60.6490   11.4730 C.ar   76  C76         0.0566
   1543   C6       16.1270   60.0820   10.3400 C.ar   76  C76         0.0850
   1544    P.3     19.2680   58.4140    5.1030 P.3    77  C77         0.2141
   1545  OP1       19.3890   57.7120    3.8080 O.2    77  C77        -0.5172
   1546  OP2       20.1050   57.9810    6.2470 O.3    77  C77        -0.4373
   1547  O5'       19.5530   59.9640    4.8990 O.3    77  C77        -0.3114
   1548  C5'       19.0970   60.6240    3.7320 C.3    77  C77         0.1812
   1549  C4'       19.3960   62.1040    3.8060 C.3    77  C77         0.1773
   1550  O4'       18.6440   62.6720    4.8990 O.3    77  C77        -0.3307
   1551  C3'       20.8300   62.4630    4.1350 C.3    77  C77         0.1860
   1552  O3'       21.6440   62.4140    2.9720 O.3    77  C77        -0.3112
   1553  C2'       20.6610   63.8790    4.6840 C.3    77  C77         0.2309
   1554  O2'       20.4740   64.8550    3.6690 O.3    77  C77        -0.2156
   1555  C1'       19.3770   63.7300    5.4860 C.3    77  C77         0.2420
   1556   N.1      19.5940   63.4270    6.9390 N.ar   77  C77        -0.2535
   1557   C.2      19.9490   64.4590    7.8180 C.ar   77  C77         0.3532
   1558   O.2      20.1510   65.5760    7.3720 O.2    77  C77        -0.2443
   1559   N.3      20.1010   64.1790    9.1350 N.ar   77  C77        -0.1739
   1560   C4       19.8760   62.9410    9.5910 C.ar   77  C77         0.1759
   1561   N.4      20.0620   62.7130   10.8900 N.pl3  77  C77        -0.1070
   1562   C5       19.4890   61.8730    8.7260 C.ar   77  C77         0.0566
   1563   C6       19.3530   62.1590    7.4210 C.ar   77  C77         0.0850
   1564    P.3     23.1970   62.0170    3.0860 P.3    78  A78         0.2141
   1565  OP1       23.7410   61.9500    1.7120 O.2    78  A78        -0.5172
   1566  OP2       23.3200   60.8360    3.9800 O.3    78  A78        -0.4373
   1567  O5'       23.8500   63.2740    3.8470 O.3    78  A78        -0.3114
   1568  C5'       24.0160   64.5240    3.1700 C.3    78  A78         0.1812
   1569  C4'       24.6870   65.5650    4.0590 C.3    78  A78         0.1773
   1570  O4'       23.7710   65.9940    5.0900 O.3    78  A78        -0.3307
   1571  C3'       25.9040   65.0970    4.8250 C.3    78  A78         0.1860
   1572  O3'       27.0630   65.1190    4.0120 O.3    78  A78        -0.3112
   1573  C2'       25.9640   66.1090    5.9620 C.3    78  A78         0.2309
   1574  O2'       26.5080   67.3530    5.5750 O.3    78  A78        -0.2156
   1575  C1'       24.4910   66.2680    6.2900 C.3    78  A78         0.2408
   1576   N9       24.0290   65.3610    7.3520 N.ar   78  A78        -0.2693
   1577   C8       23.2430   64.2450    7.2100 C.ar   78  A78         0.1816
   1578   N7       22.9920   63.6220    8.3340 N.ar   78  A78        -0.2193
   1579   C5       23.6320   64.3880    9.2830 C.ar   78  A78         0.1518
   1580   C6       23.7330   64.2680   10.6810 C.ar   78  A78         0.1919
   1581   N6       23.1560   63.2800   11.3740 N.pl3  78  A78        -0.1054
   1582   N.1      24.4810   65.1890   11.3400 N.ar   78  A78        -0.2040
   1583   C.2      25.0400   66.1880   10.6450 C.ar   78  A78         0.2016
   1584   N.3      25.0380   66.3890    9.3260 N.ar   78  A78        -0.2048
   1585   C4       24.2940   65.4550    8.6980 C.ar   78  A78         0.1692
   1586    P.3     28.1660   63.9740    4.1980 P.3    79  A79         0.2141
   1587  OP1       29.1410   64.0850    3.0860 O.2    79  A79        -0.5172
   1588  OP2       27.4680   62.6860    4.4300 O.3    79  A79        -0.4373
   1589  O5'       28.8710   64.3870    5.5800 O.3    79  A79        -0.3114
   1590  C5'       29.6350   65.5780    5.6710 C.3    79  A79         0.1812
   1591  C4'       29.9160   65.9400    7.1140 C.3    79  A79         0.1773
   1592  O4'       28.6740   66.0190    7.8580 O.3    79  A79        -0.3307
   1593  C3'       30.7380   64.9300    7.8800 C.3    79  A79         0.1860
   1594  O3'       32.1200   65.0640    7.5710 O.3    79  A79        -0.3112
   1595  C2'       30.4120   65.3120    9.3210 C.3    79  A79         0.2309
   1596  O2'       31.1560   66.4290    9.7820 O.3    79  A79        -0.2156
   1597  C1'       28.9150   65.6540    9.2170 C.3    79  A79         0.2408
   1598   N9       28.0260   64.5320    9.5810 N.ar   79  A79        -0.2693
   1599   C8       27.4740   63.6080    8.7350 C.ar   79  A79         0.1816
   1600   N7       26.7690   62.6830    9.3400 N.ar   79  A79        -0.2193
   1601   C5       26.8880   62.9980   10.6820 C.ar   79  A79         0.1518
   1602   C6       26.3400   62.4200   11.8500 C.ar   79  A79         0.1919
   1603   N6       25.5470   61.3440   11.8400 N.pl3  79  A79        -0.1054
   1604   N.1      26.6410   62.9920   13.0380 N.ar   79  A79        -0.2040
   1605   C.2      27.4130   64.0850   13.0550 C.ar   79  A79         0.2016
   1606   N.3      27.9680   64.7270   12.0250 N.ar   79  A79        -0.2048
   1607   C4       27.6640   64.1310   10.8530 C.ar   79  A79         0.1692
   1608    P.3     33.1010   63.7840    7.6620 P.3    80  A80         0.2141
   1609  OP1       34.3870   64.1560    7.0440 O.2    80  A80        -0.5172
   1610  OP2       32.3840   62.5860    7.1560 O.3    80  A80        -0.4373
   1611  O5'       33.3020   63.6190    9.2470 O.3    80  A80        -0.3114
   1612  C5'       34.1360   64.5290    9.9670 C.3    80  A80         0.1812
   1613  C4'       33.8710   64.4690   11.4610 C.3    80  A80         0.1773
   1614  O4'       32.4560   64.6700   11.7270 O.3    80  A80        -0.3307
   1615  C3'       34.2090   63.1510   12.1320 C.3    80  A80         0.1860
   1616  O3'       35.5800   63.1010   12.4500 O.3    80  A80        -0.3112
   1617  C2'       33.3290   63.2070   13.3770 C.3    80  A80         0.2309
   1618  O2'       33.8860   63.9910   14.4220 O.3    80  A80        -0.2156
   1619  C1'       32.0560   63.8580   12.8220 C.3    80  A80         0.2408
   1620   N9       31.0830   62.8760   12.3400 N.ar   80  A80        -0.2693
   1621   C8       30.8860   62.4730   11.0440 C.ar   80  A80         0.1816
   1622   N7       29.9990   61.5140   10.9070 N.ar   80  A80        -0.2193
   1623   C5       29.6060   61.2440   12.2050 C.ar   80  A80         0.1518
   1624   C6       28.7100   60.3030   12.7480 C.ar   80  A80         0.1919
   1625   N6       27.9740   59.4760   12.0030 N.pl3  80  A80        -0.1054
   1626   N.1      28.5680   60.2760   14.0920 N.ar   80  A80        -0.2040
   1627   C.2      29.2840   61.1300   14.8410 C.ar   80  A80         0.2016
   1628   N.3      30.1790   62.0350   14.4490 N.ar   80  A80        -0.2048
   1629   C4       30.2890   62.0520   13.1070 C.ar   80  A80         0.1692
   1630    P.3     36.3540   61.6890   12.5500 P.3    81  A81         0.2141
   1631  OP1       37.8180   61.9720   12.4680 O.3    81  A81        -0.4373
   1632  OP2       35.7300   60.7310   11.5840 O.2    81  A81        -0.5172
   1633  O5'       36.0180   61.2220   14.0480 O.3    81  A81        -0.3114
   1634  C5'       35.2770   60.0690   14.2880 C.3    81  A81         0.1812
   1635  C4'       34.6450   60.1370   15.6510 C.3    81  A81         0.1773
   1636  O4'       33.2470   60.4980   15.5120 O.3    81  A81        -0.3307
   1637  C3'       34.6410   58.8170   16.3790 C.3    81  A81         0.1860
   1638  O3'       35.8270   58.6530   17.1120 O.3    81  A81        -0.3112
   1639  C2'       33.4140   58.9240   17.2710 C.3    81  A81         0.2309
   1640  O2'       33.6620   59.6070   18.4830 O.3    81  A81        -0.2156
   1641  C1'       32.4500   59.7080   16.3830 C.3    81  A81         0.2408
   1642   N9       31.5650   58.8480   15.5810 N.ar   81  A81        -0.2693
   1643   C8       31.6100   58.6500   14.2310 C.ar   81  A81         0.1816
   1644   N7       30.6920   57.8250   13.7820 N.ar   81  A81        -0.2193
   1645   C5       30.0290   57.4120   14.9210 C.ar   81  A81         0.1518
   1646   C6       28.9500   56.5120   15.1300 C.ar   81  A81         0.1919
   1647   N6       28.3670   55.8220   14.1500 N.pl3  81  A81        -0.1054
   1648   N.1      28.5240   56.3230   16.4000 N.ar   81  A81        -0.2040
   1649   C.2      29.1550   56.9750   17.3930 C.ar   81  A81         0.2016
   1650   N.3      30.1710   57.8440   17.3160 N.ar   81  A81        -0.2048
   1651   C4       30.5610   58.0230   16.0420 C.ar   81  A81         0.1692
   1652    P.3     36.4900   57.2040   17.2040 P.3    82  C82         0.2141
   1653  OP1       37.6980   57.3060   18.0460 O.3    82  C82        -0.4373
   1654  OP2       36.6120   56.6490   15.8310 O.2    82  C82        -0.5172
   1655  O5'       35.3730   56.3640   17.9910 O.3    82  C82        -0.3114
   1656  C5'       35.1960   56.5510   19.3820 C.3    82  C82         0.1812
   1657  C4'       33.9390   55.8590   19.8860 C.3    82  C82         0.1773
   1658  O4'       32.7930   56.2470   19.0930 O.3    82  C82        -0.3307
   1659  C3'       33.9500   54.3420   19.8290 C.3    82  C82         0.1860
   1660  O3'       34.6140   53.8060   20.9650 O.3    82  C82        -0.3112
   1661  C2'       32.4620   54.0370   19.8630 C.3    82  C82         0.2309
   1662  O2'       31.9150   54.1430   21.1670 O.3    82  C82        -0.2156
   1663  C1'       31.9020   55.1400   18.9820 C.3    82  C82         0.2420
   1664   N.1      31.7200   54.7380   17.5100 N.ar   82  C82        -0.2535
   1665   C.2      30.6430   53.9020   17.1410 C.ar   82  C82         0.3532
   1666   O.2      29.8640   53.5050   18.0080 O.2    82  C82        -0.2443
   1667   N.3      30.4620   53.5920   15.8210 N.ar   82  C82        -0.1739
   1668   C4       31.3130   54.0620   14.8980 C.ar   82  C82         0.1759
   1669   N.4      31.0900   53.7450   13.6210 N.pl3  82  C82        -0.1070
   1670   C5       32.4190   54.9020   15.2530 C.ar   82  C82         0.0566
   1671   C6       32.5820   55.2110   16.5490 C.ar   82  C82         0.0850
   1672    P.3     35.4210   52.4300   20.8450 P.3    83  C83         0.2141
   1673  OP1       36.2550   52.2740   22.0710 O.3    83  C83        -0.4373
   1674  OP2       36.0610   52.3730   19.4990 O.2    83  C83        -0.5172
   1675  O5'       34.2540   51.3490   20.8850 O.3    83  C83        -0.3114
   1676  C5'       33.3980   51.2720   22.0030 C.3    83  C83         0.1812
   1677  C4'       32.2710   50.3070   21.7360 C.3    83  C83         0.1773
   1678  O4'       31.5070   50.7500   20.6020 O.3    83  C83        -0.3307
   1679  C3'       32.7120   48.9200   21.3780 C.3    83  C83         0.1860
   1680  O3'       32.9340   48.1850   22.5710 O.3    83  C83        -0.3112
   1681  C2'       31.5220   48.3970   20.5680 C.3    83  C83         0.2309
   1682  O2'       30.4720   47.9310   21.3690 O.3    83  C83        -0.2156
   1683  C1'       31.0550   49.6320   19.8550 C.3    83  C83         0.2420
   1684   N.1      31.4760   49.7500   18.3980 N.ar   83  C83        -0.2535
   1685   C.2      30.6750   49.1570   17.3910 C.ar   83  C83         0.3532
   1686   O.2      29.7160   48.4400   17.7120 O.2    83  C83        -0.2443
   1687   N.3      30.9440   49.4340   16.0840 N.ar   83  C83        -0.1739
   1688   C4       31.9750   50.2240   15.7610 C.ar   83  C83         0.1759
   1689   N.4      32.2570   50.3860   14.4600 N.pl3  83  C83        -0.1070
   1690   C5       32.7990   50.8340   16.7650 C.ar   83  C83         0.0566
   1691   C6       32.5090   50.5820   18.0530 C.ar   83  C83         0.0850
   1692    P.3     34.3120   47.4080   22.7870 P.3    84  G84         0.2141
   1693  OP1       34.6150   47.4010   24.2280 O.3    84  G84        -0.4373
   1694  OP2       35.2940   47.9510   21.8280 O.2    84  G84        -0.5172
   1695  O5'       33.9610   45.9310   22.3410 O.3    84  G84        -0.3114
   1696  C5'       32.7360   45.3390   22.7640 C.3    84  G84         0.1812
   1697  C4'       32.1510   44.4870   21.6630 C.3    84  G84         0.1773
   1698  O4'       31.8350   45.3250   20.5510 O.3    84  G84        -0.3307
   1699  C3'       33.0860   43.4180   21.1220 C.3    84  G84         0.1860
   1700  O3'       32.8130   42.2480   21.7920 O.3    84  G84        -0.3112
   1701  C2'       32.6940   43.2960   19.6450 C.3    84  G84         0.2309
   1702  O2'       31.8030   42.1980   19.3980 O.3    84  G84        -0.2156
   1703  C1'       31.9910   44.6160   19.3460 C.3    84  G84         0.2408
   1704   N9       32.6640   45.4670   18.3590 N.ar   84  G84        -0.2693
   1705   C8       33.6310   46.4200   18.5910 C.ar   84  G84         0.1817
   1706   N7       33.9330   47.1270   17.5320 N.ar   84  G84        -0.2173
   1707   C5       33.0930   46.6320   16.5450 C.ar   84  G84         0.1748
   1708   C6       32.9790   46.9830   15.1770 C.ar   84  G84         0.3023
   1709   O6       33.6150   47.8370   14.5510 O.2    84  G84        -0.2633
   1710   N.1      31.9890   46.2390   14.5300 N.ar   84  G84        -0.1709
   1711   C.2      31.2280   45.2580   15.1200 C.ar   84  G84         0.2606
   1712   N.2      30.3360   44.6420   14.3390 N.pl3  84  G84        -0.0859
   1713   N.3      31.3530   44.8850   16.3810 N.ar   84  G84        -0.1918
   1714   C4       32.2990   45.6190   17.0380 C.ar   84  G84         0.1723
   1715    P.3     33.9110   41.1210   21.9660 P.3    85  A85         0.2141
   1716  OP1       35.0560   41.7140   22.6940 O.3    85  A85        -0.4373
   1717  OP2       34.1180   40.4330   20.6570 O.2    85  A85        -0.5172
   1718  O5'       33.1390   40.1090   22.9320 O.3    85  A85        -0.3114
   1719  C5'       32.5230   40.6080   24.1070 C.3    85  A85         0.1812
   1720  C4'       31.8670   39.4980   24.8810 C.3    85  A85         0.1773
   1721  O4'       30.7590   38.9910   24.1030 O.3    85  A85        -0.3307
   1722  C3'       32.7330   38.2800   25.1320 C.3    85  A85         0.1860
   1723  O3'       33.5380   38.4640   26.2560 O.3    85  A85        -0.3112
   1724  C2'       31.6810   37.1910   25.3450 C.3    85  A85         0.2309
   1725  O2'       31.1180   37.1980   26.6570 O.3    85  A85        -0.2156
   1726  C1'       30.6270   37.5860   24.3050 C.3    85  A85         0.2408
   1727   N9       30.7870   36.9350   23.0070 N.ar   85  A85        -0.2693
   1728   C8       31.2530   37.5140   21.8620 C.ar   85  A85         0.1816
   1729   N7       31.3380   36.6970   20.8420 N.ar   85  A85        -0.2193
   1730   C5       30.9000   35.4940   21.3410 C.ar   85  A85         0.1518
   1731   C6       30.7460   34.2160   20.7460 C.ar   85  A85         0.1919
   1732   N6       31.0330   33.9530   19.4540 N.pl3  85  A85        -0.1054
   1733   N.1      30.3130   33.2110   21.5460 N.ar   85  A85        -0.2040
   1734   C.2      30.0410   33.4790   22.8460 C.ar   85  A85         0.2016
   1735   N.3      30.1370   34.6390   23.5050 N.ar   85  A85        -0.2048
   1736   C4       30.5620   35.6160   22.6880 C.ar   85  A85         0.1692
   1737    P.3     35.0460   37.9140   26.2490 P.3    86  C86         0.2141
   1738  OP1       35.6760   38.3130   27.5320 O.3    86  C86        -0.4373
   1739  OP2       35.6880   38.3080   24.9730 O.2    86  C86        -0.5172
   1740  O5'       34.8690   36.3320   26.2280 O.3    86  C86        -0.3114
   1741  C5'       34.5100   35.6630   27.4200 C.3    86  C86         0.1812
   1742  C4'       34.0360   34.2690   27.1280 C.3    86  C86         0.1773
   1743  O4'       33.0830   34.3010   26.0480 O.3    86  C86        -0.3307
   1744  C3'       35.1000   33.3300   26.6280 C.3    86  C86         0.1860
   1745  O3'       35.8480   32.8700   27.6850 O.3    86  C86        -0.3112
   1746  C2'       34.2490   32.2420   25.9980 C.3    86  C86         0.2309
   1747  O2'       33.6160   31.3990   26.9610 O.3    86  C86        -0.2156
   1748  C1'       33.1970   33.1030   25.2910 C.3    86  C86         0.2420
   1749   N.1      33.5280   33.4500   23.8500 N.ar   86  C86        -0.2535
   1750   C.2      33.4250   32.4610   22.8560 C.ar   86  C86         0.3532
   1751   O.2      33.1000   31.3130   23.1760 O.2    86  C86        -0.2443
   1752   N.3      33.6810   32.8030   21.5610 N.ar   86  C86        -0.1739
   1753   C4       34.0350   34.0590   21.2530 C.ar   86  C86         0.1759
   1754   N.4      34.3080   34.3330   19.9750 N.pl3  86  C86        -0.1070
   1755   C5       34.1460   35.0750   22.2450 C.ar   86  C86         0.0566
   1756   C6       33.8690   34.7380   23.5120 C.ar   86  C86         0.0850
   1757    P.3     37.4330   33.0420   27.6670 P.3    87  A87         0.2141
   1758  OP1       37.9120   32.8160   29.0520 O.3    87  A87        -0.4373
   1759  OP2       37.7760   34.3100   26.9770 O.2    87  A87        -0.5172
   1760  O5'       37.8940   31.8300   26.7310 O.3    87  A87        -0.3114
   1761  C5'       37.7530   30.5170   27.1940 C.3    87  A87         0.1812
   1762  C4'       37.6950   29.5370   26.0520 C.3    87  A87         0.1773
   1763  O4'       36.6970   29.9530   25.1080 O.3    87  A87        -0.3307
   1764  C3'       38.9330   29.4520   25.1960 C.3    87  A87         0.1860
   1765  O3'       39.9530   28.7420   25.8150 O.3    87  A87        -0.3112
   1766  C2'       38.3880   28.7460   23.9730 C.3    87  A87         0.2309
   1767  O2'       38.1410   27.3720   24.1760 O.3    87  A87        -0.2156
   1768  C1'       37.0720   29.4790   23.8100 C.3    87  A87         0.2408
   1769   N9       37.1620   30.6020   22.8770 N.ar   87  A87        -0.2693
   1770   C8       37.0220   31.9360   23.1610 C.ar   87  A87         0.1816
   1771   N7       37.1160   32.7120   22.1080 N.ar   87  A87        -0.2193
   1772   C5       37.3480   31.8320   21.0670 C.ar   87  A87         0.1518
   1773   C6       37.5030   32.0170   19.6760 C.ar   87  A87         0.1919
   1774   N6       37.4720   33.2140   19.0830 N.pl3  87  A87        -0.1054
   1775   N.1      37.7140   30.9170   18.9160 N.ar   87  A87        -0.2040
   1776   C.2      37.7470   29.7160   19.5000 C.ar   87  A87         0.2016
   1777   N.3      37.5720   29.4130   20.7850 N.ar   87  A87        -0.2048
   1778   C4       37.3850   30.5270   21.5230 C.ar   87  A87         0.1692
   1779    P.3     41.4510   29.3040   25.7060 P.3    88  G88         0.2141
   1780  OP1       42.2820   28.5700   26.6920 O.3    88  G88        -0.4373
   1781  OP2       41.4220   30.7840   25.7500 O.2    88  G88        -0.5172
   1782  O5'       41.8660   28.8700   24.2310 O.3    88  G88        -0.3114
   1783  C5'       41.9410   27.4980   23.9040 C.3    88  G88         0.1812
   1784  C4'       42.3240   27.3040   22.4550 C.3    88  G88         0.1773
   1785  O4'       41.2650   27.8160   21.6220 O.3    88  G88        -0.3307
   1786  C3'       43.5520   28.0700   22.0010 C.3    88  G88         0.1860
   1787  O3'       44.7550   27.3920   22.3670 O.3    88  G88        -0.3112
   1788  C2'       43.3390   28.1150   20.4960 C.3    88  G88         0.2309
   1789  O2'       43.7090   26.9070   19.8520 O.3    88  G88        -0.2156
   1790  C1'       41.8220   28.3180   20.4170 C.3    88  G88         0.2408
   1791   N9       41.4100   29.7190   20.2260 N.ar   88  G88        -0.2693
   1792   C8       41.0560   30.6270   21.1940 C.ar   88  G88         0.1817
   1793   N7       40.7640   31.8080   20.7200 N.ar   88  G88        -0.2173
   1794   C5       40.9190   31.6690   19.3520 C.ar   88  G88         0.1748
   1795   C6       40.7140   32.6090   18.3170 C.ar   88  G88         0.3023
   1796   O6       40.3690   33.7930   18.4200 O.2    88  G88        -0.2633
   1797   N.1      40.9940   32.0710   17.0580 N.ar   88  G88        -0.1709
   1798   C.2      41.4200   30.7790   16.8360 C.ar   88  G88         0.2606
   1799   N.2      41.6490   30.4380   15.5620 N.pl3  88  G88        -0.0859
   1800   N.3      41.5960   29.8810   17.7980 N.ar   88  G88        -0.1918
   1801   C4       41.3230   30.3940   19.0290 C.ar   88  G88         0.1723
   1802    P.3     46.0150   28.2390   22.9240 P.3    89  U89         0.2141
   1803  OP1       47.0120   27.2810   23.4480 O.2    89  U89        -0.5172
   1804  OP2       45.5130   29.3100   23.8050 O.3    89  U89        -0.4373
   1805  O5'       46.6090   28.9320   21.6120 O.3    89  U89        -0.3114
   1806  C5'       47.1280   28.1280   20.5500 C.3    89  U89         0.1812
   1807  C4'       47.2690   28.9400   19.2840 C.3    89  U89         0.1773
   1808  O4'       45.9730   29.4500   18.9110 O.3    89  U89        -0.3307
   1809  C3'       48.1350   30.1780   19.4220 C.3    89  U89         0.1860
   1810  O3'       49.5040   29.8400   19.2620 O.3    89  U89        -0.3112
   1811  C2'       47.6160   31.0700   18.2940 C.3    89  U89         0.2309
   1812  O2'       48.2220   30.7980   17.0400 O.3    89  U89        -0.2156
   1813  C1'       46.1260   30.7090   18.2610 C.3    89  U89         0.2420
   1814   N.1      45.2130   31.7530   18.9070 N.ar   89  U89        -0.2534
   1815   C.2      44.5230   32.6380   18.0970 C.ar   89  U89         0.3546
   1816   O.2      44.5800   32.6150   16.8840 O.2    89  U89        -0.2443
   1817   N.3      43.7570   33.5690   18.7730 N.ar   89  U89        -0.1530
   1818   C4       43.5870   33.6810   20.1480 C.ar   89  U89         0.2846
   1819   O4       42.8480   34.5550   20.6090 O.2    89  U89        -0.2650
   1820   C5       44.3260   32.7170   20.9230 C.ar   89  U89         0.0814
   1821   C6       45.0970   31.8150   20.2910 C.ar   89  U89         0.0870
   1822    P.3     50.6410   30.6920   20.0050 P.3    90  A90         0.2141
   1823  OP1       51.9490   30.0510   19.7170 O.2    90  A90        -0.5172
   1824  OP2       50.2190   30.9060   21.4090 O.3    90  A90        -0.4373
   1825  O5'       50.5590   32.0990   19.2530 O.3    90  A90        -0.3114
   1826  C5'       51.7000   32.8830   19.0910 C.3    90  A90         0.1812
   1827  C4'       51.3480   34.3540   19.1190 C.3    90  A90         0.1773
   1828  O4'       52.3780   35.0990   18.4390 O.3    90  A90        -0.3307
   1829  C3'       50.0100   34.7640   18.4500 C.3    90  A90         0.1860
   1830  O3'       49.2340   35.5480   19.3950 O.3    90  A90        -0.3112
   1831  C2'       50.4770   35.6340   17.2580 C.3    90  A90         0.2309
   1832  O2'       49.5970   36.7120   16.9730 O.3    90  A90        -0.2156
   1833  C1'       51.7720   36.1790   17.8220 C.3    90  A90         0.2408
   1834   N9       52.6830   36.7720   16.8600 N.ar   90  A90        -0.2693
   1835   C8       52.8590   36.4220   15.5540 C.ar   90  A90         0.1816
   1836   N7       53.6700   37.2170   14.9010 N.ar   90  A90        -0.2193
   1837   C5       54.0590   38.1490   15.8490 C.ar   90  A90         0.1518
   1838   C6       54.9500   39.2520   15.8040 C.ar   90  A90         0.1919
   1839   N6       55.6160   39.6180   14.7100 N.pl3  90  A90        -0.1054
   1840   N.1      55.1300   39.9620   16.9420 N.ar   90  A90        -0.2040
   1841   C.2      54.4550   39.5970   18.0460 C.ar   90  A90         0.2016
   1842   N.3      53.6090   38.5770   18.2090 N.ar   90  A90        -0.2048
   1843   C4       53.4700   37.8750   17.0670 C.ar   90  A90         0.1692
   1844    P.3     47.9690   34.9430   20.1770 P.3    91  G91         0.2141
   1845  OP1       48.4520   34.2910   21.4310 O.3    91  G91        -0.4373
   1846  OP2       47.1530   34.1690   19.2240 O.2    91  G91        -0.5172
   1847  O5'       47.1770   36.2780   20.5370 O.3    91  G91        -0.3114
   1848  C5'       46.2320   36.3070   21.5810 C.3    91  G91         0.1812
   1849  C4'       45.9010   37.7450   21.9460 C.3    91  G91         0.1773
   1850  O4'       47.1230   38.5050   22.1610 O.3    91  G91        -0.3307
   1851  C3'       45.1010   38.5280   20.9040 C.3    91  G91         0.1860
   1852  O3'       44.1060   39.2880   21.5760 O.3    91  G91        -0.3112
   1853  C2'       46.1540   39.4360   20.2540 C.3    91  G91         0.2309
   1854  O2'       45.5890   40.6300   19.7270 O.3    91  G91        -0.2156
   1855  C1'       47.0380   39.7330   21.4620 C.3    91  G91         0.2408
   1856   N9       48.3990   40.2020   21.1540 N.ar   91  G91        -0.2693
   1857   C8       49.4990   39.4230   20.8540 C.ar   91  G91         0.1817
   1858   N7       50.6140   40.0990   20.7710 N.ar   91  G91        -0.2173
   1859   C5       50.2350   41.4080   21.0240 C.ar   91  G91         0.1748
   1860   C6       51.0140   42.5920   21.0530 C.ar   91  G91         0.3023
   1861   O6       52.2220   42.7210   20.7730 O.2    91  G91        -0.2633
   1862   N.1      50.2500   43.7140   21.3990 N.ar   91  G91        -0.1709
   1863   C.2      48.9020   43.6870   21.6850 C.ar   91  G91         0.2606
   1864   N.2      48.3260   44.8630   21.9960 N.pl3  91  G91        -0.0859
   1865   N.3      48.1590   42.5820   21.6400 N.ar   91  G91        -0.1918
   1866   C4       48.8850   41.4870   21.2900 C.ar   91  G91         0.1723
   1867    P.3     42.5680   39.0120   21.3000 P.3    92  A92         0.2141
   1868  OP1       41.7930   40.0340   22.0440 O.3    92  A92        -0.4373
   1869  OP2       42.3100   37.5540   21.5250 O.2    92  A92        -0.5172
   1870  O5'       42.4620   39.2880   19.7390 O.3    92  A92        -0.3114
   1871  C5'       42.1650   40.5760   19.2470 C.3    92  A92         0.1812
   1872  C4'       41.2880   40.4510   18.0230 C.3    92  A92         0.1773
   1873  O4'       41.8300   39.4300   17.1530 O.3    92  A92        -0.3307
   1874  C3'       39.8490   40.0380   18.3010 C.3    92  A92         0.1860
   1875  O3'       38.9930   40.7910   17.4620 O.3    92  A92        -0.3112
   1876  C2'       39.8530   38.5380   17.9460 C.3    92  A92         0.2309
   1877  O2'       38.5900   38.0490   17.5360 O.3    92  A92        -0.2156
   1878  C1'       40.8300   38.5280   16.7900 C.3    92  A92         0.2408
   1879   N9       41.4640   37.2480   16.5220 N.ar   92  A92        -0.2693
   1880   C8       42.0690   36.4230   17.4210 C.ar   92  A92         0.1816
   1881   N7       42.6320   35.3710   16.8790 N.ar   92  A92        -0.2193
   1882   C5       42.4060   35.5320   15.5210 C.ar   92  A92         0.1518
   1883   C6       42.7630   34.7560   14.3840 C.ar   92  A92         0.1919
   1884   N6       43.3950   33.5820   14.4620 N.pl3  92  A92        -0.1054
   1885   N.1      42.4030   35.2180   13.1640 N.ar   92  A92        -0.2040
   1886   C.2      41.7250   36.3670   13.0880 C.ar   92  A92         0.2016
   1887   N.3      41.3120   37.1630   14.0770 N.ar   92  A92        -0.2048
   1888   C4       41.6950   36.6880   15.2820 C.ar   92  A92         0.1692
   1889    P.3     38.3810   42.1870   17.9720 P.3    93  G93         0.2141
   1890  OP1       39.0040   43.2870   17.2050 O.2    93  G93        -0.5172
   1891  OP2       38.4400   42.2220   19.4590 O.3    93  G93        -0.4373
   1892  O5'       36.8490   42.0610   17.5200 O.3    93  G93        -0.3114
   1893  C5'       36.0810   40.9350   17.9030 C.3    93  G93         0.1812
   1894  C4'       34.8300   40.8320   17.0690 C.3    93  G93         0.1773
   1895  O4'       34.2130   42.1300   16.9750 O.3    93  G93        -0.3307
   1896  C3'       35.0610   40.3700   15.6440 C.3    93  G93         0.1860
   1897  O3'       34.9120   38.9650   15.5860 O.3    93  G93        -0.3112
   1898  C2'       33.9620   41.0930   14.8740 C.3    93  G93         0.2309
   1899  O2'       32.7130   40.4040   14.9170 O.3    93  G93        -0.2156
   1900  C1'       33.8470   42.4020   15.6460 C.3    93  G93         0.2408
   1901   N9       34.6750   43.5100   15.1560 N.ar   93  G93        -0.2693
   1902   C8       35.4320   44.3630   15.9300 C.ar   93  G93         0.1817
   1903   N7       35.9320   45.3680   15.2760 N.ar   93  G93        -0.2173
   1904   C5       35.4590   45.1930   13.9910 C.ar   93  G93         0.1748
   1905   C6       35.6580   45.9890   12.8390 C.ar   93  G93         0.3023
   1906   O6       36.3740   47.0060   12.7250 O.2    93  G93        -0.2633
   1907   N.1      34.9680   45.4680   11.7270 N.ar   93  G93        -0.1709
   1908   C.2      34.1580   44.3510   11.7600 C.ar   93  G93         0.2606
   1909   N.2      33.5490   44.0140   10.6280 N.pl3  93  G93        -0.0859
   1910   N.3      33.9920   43.5960   12.8240 N.ar   93  G93        -0.1918
   1911   C4       34.6310   44.0930   13.9120 C.ar   93  G93         0.1723
   1912    P.3     36.1490   38.0320   15.1760 P.3    94  U94         0.2141
   1913  OP1       35.9090   36.6610   15.7180 O.3    94  U94        -0.4373
   1914  OP2       37.3990   38.7530   15.4980 O.2    94  U94        -0.5172
   1915  O5'       36.0380   37.9960   13.5910 O.3    94  U94        -0.3114
   1916  C5'       34.9190   37.4570   12.9700 C.3    94  U94         0.1812
   1917  C4'       34.8540   37.9610   11.5630 C.3    94  U94         0.1773
   1918  O4'       34.9780   39.4020   11.5710 O.3    94  U94        -0.3307
   1919  C3'       35.9610   37.4380   10.6650 C.3    94  U94         0.1860
   1920  O3'       35.3970   36.8470    9.4890 O.3    94  U94        -0.3112
   1921  C2'       36.8110   38.6850   10.3610 C.3    94  U94         0.2309
   1922  O2'       37.3360   38.6750    9.0560 O.3    94  U94        -0.2156
   1923  C1'       35.8060   39.8090   10.5240 C.3    94  U94         0.2420
   1924   N.1      36.4210   41.0980   10.9120 N.ar   94  U94        -0.2534
   1925   C.2      36.5790   42.1030    9.9660 C.ar   94  U94         0.3546
   1926   O.2      36.2650   41.9840    8.7960 O.2    94  U94        -0.2443
   1927   N.3      37.2030   43.2400   10.4310 N.ar   94  U94        -0.1530
   1928   C4       37.6750   43.4630   11.7090 C.ar   94  U94         0.2846
   1929   O4       38.1940   44.5310   11.9850 O.2    94  U94        -0.2650
   1930   C5       37.4500   42.3890   12.6380 C.ar   94  U94         0.0814
   1931   C6       36.8400   41.2740   12.2160 C.ar   94  U94         0.0870
   1932    P.3     35.1110   35.2740    9.4570 P.3    95  C95         0.2141
   1933  OP1       34.6560   34.9200    8.0890 O.2    95  C95        -0.5172
   1934  OP2       34.2540   34.9360   10.6050 O.3    95  C95        -0.4373
   1935  O5'       36.5620   34.6450    9.7380 O.3    95  C95        -0.3114
   1936  C5'       37.5140   34.4510    8.6850 C.3    95  C95         0.1812
   1937  C4'       38.6000   33.4830    9.1210 C.3    95  C95         0.1773
   1938  O4'       39.4630   34.1360   10.0770 O.3    95  C95        -0.3307
   1939  C3'       38.0990   32.2620    9.8490 C.3    95  C95         0.1860
   1940  O3'       37.7390   31.2840    8.9330 O.3    95  C95        -0.3112
   1941  C2'       39.3120   31.8570   10.6840 C.3    95  C95         0.2309
   1942  O2'       40.2400   31.0700    9.9760 O.3    95  C95        -0.2156
   1943  C1'       39.9200   33.2040   11.0470 C.3    95  C95         0.2420
   1944   N.1      39.5260   33.6890   12.4450 N.ar   95  C95        -0.2535
   1945   C.2      40.0840   33.0760   13.5930 C.ar   95  C95         0.3532
   1946   O.2      40.9020   32.1630   13.4590 O.2    95  C95        -0.2443
   1947   N.3      39.7160   33.5160   14.8290 N.ar   95  C95        -0.1739
   1948   C4       38.8160   34.4940   14.9490 C.ar   95  C95         0.1759
   1949   N.4      38.4470   34.8560   16.1870 N.pl3  95  C95        -0.1070
   1950   C5       38.2130   35.1060   13.8010 C.ar   95  C95         0.0566
   1951   C6       38.6040   34.6900   12.5860 C.ar   95  C95         0.0850
   1952    P.3     36.5440   30.2750    9.2550 P.3    96  U96         0.2141
   1953  OP1       36.3310   29.4550    8.0340 O.2    96  U96        -0.5172
   1954  OP2       35.4130   31.0460    9.8260 O.3    96  U96        -0.4373
   1955  O5'       37.1400   29.3590   10.4270 O.3    96  U96        -0.3114
   1956  C5'       38.1160   28.3760   10.1530 C.3    96  U96         0.1812
   1957  C4'       38.5880   27.7170   11.4350 C.3    96  U96         0.1773
   1958  O4'       39.2910   28.6930   12.2460 O.3    96  U96        -0.3307
   1959  C3'       37.4820   27.2210   12.3510 C.3    96  U96         0.1860
   1960  O3'       37.0250   25.9620   11.9600 O.3    96  U96        -0.3112
   1961  C2'       38.1830   27.1800   13.7010 C.3    96  U96         0.2309
   1962  O2'       38.9950   26.0350   13.8850 O.3    96  U96        -0.2156
   1963  C1'       39.0390   28.4340   13.6360 C.3    96  U96         0.2420
   1964   N.1      38.3590   29.6350   14.2930 N.ar   96  U96        -0.2534
   1965   C.2      38.3090   29.7170   15.6820 C.ar   96  U96         0.3546
   1966   O.2      38.8260   28.9050   16.4360 O.2    96  U96        -0.2443
   1967   N.3      37.6340   30.8030   16.1620 N.ar   96  U96        -0.1530
   1968   C4       37.0030   31.7880   15.4380 C.ar   96  U96         0.2846
   1969   O4       36.4690   32.7160   16.0290 O.2    96  U96        -0.2650
   1970   C5       37.0620   31.6270   14.0110 C.ar   96  U96         0.0814
   1971   C6       37.7140   30.5770   13.5050 C.ar   96  U96         0.0870
   1972    P.3     35.4670   25.6230   12.0530 P.3    97  G97         0.2141
   1973  OP1       35.2630   24.3110   11.3900 O.2    97  G97        -0.5172
   1974  OP2       34.7030   26.7990   11.5740 O.3    97  G97        -0.4373
   1975  O5'       35.2220   25.4820   13.6320 O.3    97  G97        -0.3114
   1976  C5'       35.8020   24.4220   14.3470 C.3    97  G97         0.1812
   1977  C4'       35.6500   24.6240   15.8330 C.3    97  G97         0.1773
   1978  O4'       36.2390   25.8770   16.2010 O.3    97  G97        -0.3307
   1979  C3'       34.2330   24.7500   16.3320 C.3    97  G97         0.1860
   1980  O3'       33.6400   23.4830   16.4550 O.3    97  G97        -0.3112
   1981  C2'       34.4500   25.4260   17.6800 C.3    97  G97         0.2309
   1982  O2'       34.8710   24.5370   18.6950 O.3    97  G97        -0.2156
   1983  C1'       35.5840   26.3860   17.3500 C.3    97  G97         0.2408
   1984   N9       35.1450   27.7730   17.1100 N.ar   97  G97        -0.2693
   1985   C8       35.0410   28.4330   15.8940 C.ar   97  G97         0.1817
   1986   N7       34.6710   29.6870   16.0090 N.ar   97  G97        -0.2173
   1987   C5       34.5000   29.8700   17.3900 C.ar   97  G97         0.1748
   1988   C6       34.0810   31.0240   18.1420 C.ar   97  G97         0.3023
   1989   O6       33.7790   32.1590   17.7260 O.2    97  G97        -0.2633
   1990   N.1      34.0220   30.7570   19.5130 N.ar   97  G97        -0.1709
   1991   C.2      34.3380   29.5450   20.0950 C.ar   97  G97         0.2606
   1992   N.2      34.2870   29.4960   21.4380 N.pl3  97  G97        -0.0859
   1993   N.3      34.7120   28.4650   19.4130 N.ar   97  G97        -0.1918
   1994   C4       34.7680   28.6930   18.0730 C.ar   97  G97         0.1723
   1995    P.3     32.0890   23.2620   16.0940 P.3    98  G98         0.2141
   1996  OP1       31.8970   21.8140   15.8160 O.3    98  G98        -0.4373
   1997  OP2       31.6720   24.2580   15.0610 O.2    98  G98        -0.5172
   1998  O5'       31.3890   23.6390   17.4850 O.3    98  G98        -0.3114
   1999  C5'       31.4090   22.7050   18.5430 C.3    98  G98         0.1812
   2000  C4'       30.9300   23.3160   19.8380 C.3    98  G98         0.1773
   2001  O4'       31.7250   24.4720   20.1430 O.3    98  G98        -0.3307
   2002  C3'       29.4980   23.8100   19.8330 C.3    98  G98         0.1860
   2003  O3'       28.6360   22.7640   20.1510 O.3    98  G98        -0.3112
   2004  C2'       29.5160   24.8630   20.9260 C.3    98  G98         0.2309
   2005  O2'       29.3490   24.3240   22.2230 O.3    98  G98        -0.2156
   2006  C1'       30.9160   25.4490   20.7710 C.3    98  G98         0.2408
   2007   N9       30.9470   26.6960   19.9900 N.ar   98  G98        -0.2693
   2008   C8       31.0360   26.8350   18.6220 C.ar   98  G98         0.1817
   2009   N7       31.0540   28.0780   18.2300 N.ar   98  G98        -0.2173
   2010   C5       30.9100   28.8060   19.4050 C.ar   98  G98         0.1748
   2011   C6       30.8650   30.2140   19.6220 C.ar   98  G98         0.3023
   2012   O6       30.8950   31.1250   18.7790 O.2    98  G98        -0.2633
   2013   N.1      30.7700   30.5290   20.9860 N.ar   98  G98        -0.1709
   2014   C.2      30.6920   29.5950   22.0070 C.ar   98  G98         0.2606
   2015   N.2      30.5500   30.0700   23.2590 N.pl3  98  G98        -0.0859
   2016   N.3      30.7230   28.2840   21.8090 N.ar   98  G98        -0.1918
   2017   C4       30.8300   27.9630   20.4920 C.ar   98  G98         0.1723
   2018    P.3     27.3410   22.5000   19.2560 P.3    99  A99         0.2141
   2019  OP1       26.3730   23.5930   19.5240 O.3    99  A99        -0.4373
   2020  OP2       26.9370   21.0800   19.4570 O.2    99  A99        -0.5172
   2021  O5'       27.8950   22.6450   17.7650 O.3    99  A99        -0.3114
   2022  C5'       27.0670   22.3390   16.6830 C.3    99  A99         0.1812
   2023  C4'       26.8380   23.5640   15.8210 C.3    99  A99         0.1773
   2024  O4'       26.5100   24.7150   16.6440 O.3    99  A99        -0.3307
   2025  C3'       28.0170   23.9940   14.9580 C.3    99  A99         0.1860
   2026  O3'       27.5110   24.3790   13.6770 O.3    99  A99        -0.3112
   2027  C2'       28.5700   25.1980   15.7310 C.3    99  A99         0.2309
   2028  O2'       29.2560   26.0970   14.9000 O.3    99  A99        -0.2156
   2029  C1'       27.2770   25.8130   16.2160 C.3    99  A99         0.2408
   2030   N9       27.4090   26.7530   17.3230 N.ar   99  A99        -0.2693
   2031   C8       27.2590   26.4760   18.6530 C.ar   99  A99         0.1816
   2032   N7       27.3440   27.5270   19.4330 N.ar   99  A99        -0.2193
   2033   C5       27.4950   28.5770   18.5520 C.ar   99  A99         0.1518
   2034   C6       27.6170   29.9630   18.7490 C.ar   99  A99         0.1919
   2035   N6       27.6170   30.5330   19.9610 N.pl3  99  A99        -0.1054
   2036   N.1      27.7410   30.7460   17.6500 N.ar   99  A99        -0.2040
   2037   C.2      27.7570   30.1670   16.4410 C.ar   99  A99         0.2016
   2038   N.3      27.6670   28.8750   16.1330 N.ar   99  A99        -0.2048
   2039   C4       27.5060   28.1260   17.2410 C.ar   99  A99         0.1692
   2040    P.3     27.9190   23.5770   12.3560 P.3   100  U100        0.2141
   2041  OP1       28.7600   22.4120   12.7510 O.3   100  U100       -0.4373
   2042  OP2       28.4350   24.5760   11.3800 O.2   100  U100       -0.5172
   2043  O5'       26.5130   23.0180   11.8140 O.3   100  U100       -0.3114
   2044  C5'       25.3990   23.8990   11.5690 C.3   100  U100        0.1812
   2045  C4'       24.1020   23.1080   11.3620 C.3   100  U100        0.1773
   2046  O4'       24.2780   22.0980   10.3210 O.3   100  U100       -0.3307
   2047  C3'       23.5820   22.3620   12.5940 C.3   100  U100        0.1860
   2048  O3'       22.1260   22.3620   12.6050 O.3   100  U100       -0.3112
   2049  C2'       24.1340   20.9530   12.3730 C.3   100  U100        0.2309
   2050  O2'       23.3850   19.9710   13.0660 O.3   100  U100       -0.2156
   2051  C1'       23.9630   20.8160   10.8500 C.3   100  U100        0.2420
   2052   N.1      24.8550   19.7340   10.1710 N.ar  100  U100       -0.2534
   2053   C.2      24.5360   18.3720   10.3160 C.ar  100  U100        0.3546
   2054   O.2      23.6080   17.9590   10.9990 O.2   100  U100       -0.2443
   2055   N.3      25.3770   17.5030    9.6500 N.ar  100  U100       -0.1530
   2056   C4       26.4700   17.8310    8.8580 C.ar  100  U100        0.2846
   2057   O4       27.1280   16.9330    8.3270 O.2   100  U100       -0.2650
   2058   C5       26.7250   19.2560    8.7240 C.ar  100  U100        0.0814
   2059   C6       25.9190   20.1330    9.3550 C.ar  100  U100        0.0870
   2060    P.3     21.2840   23.4680   13.4320 P.3   101  G101        0.2141
   2061  OP1       19.8760   22.9910   13.5470 O.3   101  G101       -0.4373
   2062  OP2       21.5650   24.7900   12.8210 O.2   101  G101       -0.5172
   2063  O5'       21.9540   23.4510   14.8860 O.3   101  G101       -0.3114
   2064  C5'       21.6570   22.4130   15.8120 C.3   101  G101        0.1812
   2065  C4'       22.0720   22.8170   17.2150 C.3   101  G101        0.1773
   2066  O4'       23.3940   23.4230   17.1770 O.3   101  G101       -0.3307
   2067  C3'       21.1660   23.8540   17.8550 C.3   101  G101        0.1860
   2068  O3'       20.1210   23.2150   18.5800 O.3   101  G101       -0.3112
   2069  C2'       22.1080   24.6260   18.7710 C.3   101  G101        0.2309
   2070  O2'       22.2410   24.0540   20.0530 O.3   101  G101       -0.2156
   2071  C1'       23.4320   24.5700   18.0120 C.3   101  G101        0.2408
   2072   N9       23.6870   25.7730   17.2000 N.ar  101  G101       -0.2693
   2073   C8       23.7480   25.8690   15.8230 C.ar  101  G101        0.1817
   2074   N7       24.0020   27.0780   15.3990 N.ar  101  G101       -0.2173
   2075   C5       24.0580   27.8420   16.5580 C.ar  101  G101        0.1748
   2076   C6       24.2610   29.2310   16.7280 C.ar  101  G101        0.3023
   2077   O6       24.4510   30.0740   15.8570 O.2   101  G101       -0.2633
   2078   N.1      24.2450   29.6150   18.0790 N.ar  101  G101       -0.1709
   2079   C.2      24.0710   28.7460   19.1360 C.ar  101  G101        0.2606
   2080   N.2      24.1190   29.2740   20.3680 N.pl3 101  G101       -0.0859
   2081   N.3      23.8820   27.4380   18.9900 N.ar  101  G101       -0.1918
   2082   C4       23.8860   27.0550   17.6750 C.ar  101  G101        0.1723
   2083    P.3     18.6230   23.8080   18.5390 P.3   102  A102        0.2141
   2084  OP1       17.7340   22.8540   19.2560 O.3   102  A102       -0.4373
   2085  OP2       18.3070   24.1980   17.1260 O.2   102  A102       -0.5172
   2086  O5'       18.7490   25.1390   19.4130 O.3   102  A102       -0.3114
   2087  C5'       19.0180   25.0440   20.8010 C.3   102  A102        0.1812
   2088  C4'       19.3000   26.4080   21.3860 C.3   102  A102        0.1773
   2089  O4'       20.5400   26.9200   20.8300 O.3   102  A102       -0.3307
   2090  C3'       18.2730   27.4730   21.0520 C.3   102  A102        0.1860
   2091  O3'       17.1800   27.4170   21.9550 O.3   102  A102       -0.3112
   2092  C2'       19.1010   28.7340   21.2240 C.3   102  A102        0.2309
   2093  O2'       19.3370   29.0440   22.5830 O.3   102  A102       -0.2156
   2094  C1'       20.4000   28.3080   20.5660 C.3   102  A102        0.2408
   2095   N9       20.4550   28.5490   19.1080 N.ar  102  A102       -0.2693
   2096   C8       20.3050   27.6210   18.0960 C.ar  102  A102        0.1816
   2097   N7       20.4750   28.1100   16.8840 N.ar  102  A102       -0.2193
   2098   C5       20.7730   29.4470   17.1100 C.ar  102  A102        0.1518
   2099   C6       21.0910   30.5100   16.2350 C.ar  102  A102        0.1919
   2100   N6       21.1530   30.3680   14.9110 N.pl3 102  A102       -0.1054
   2101   N.1      21.3410   31.7280   16.7810 N.ar  102  A102       -0.2040
   2102   C.2      21.3070   31.8600   18.1270 C.ar  102  A102        0.2016
   2103   N.3      21.0440   30.9320   19.0520 N.ar  102  A102       -0.2048
   2104   C4       20.7740   29.7370   18.4760 C.ar  102  A102        0.1692
   2105    P.3     15.6780   27.6860   21.4390 P.3   103  G103        0.2141
   2106  OP1       14.7620   27.4770   22.5920 O.3   103  G103       -0.4373
   2107  OP2       15.4630   26.9200   20.1750 O.2   103  G103       -0.5172
   2108  O5'       15.6960   29.2470   21.0670 O.3   103  G103       -0.3114
   2109  C5'       15.8090   30.2430   22.0930 C.3   103  G103        0.1812
   2110  C4'       16.1610   31.5980   21.4980 C.3   103  G103        0.1773
   2111  O4'       17.3390   31.4780   20.6720 O.3   103  G103       -0.3307
   2112  C3'       15.1160   32.1890   20.5680 C.3   103  G103        0.1860
   2113  O3'       14.1370   32.8910   21.3220 O.3   103  G103       -0.3112
   2114  C2'       15.9540   33.1420   19.7240 C.3   103  G103        0.2309
   2115  O2'       16.2060   34.3610   20.3880 O.3   103  G103       -0.2156
   2116  C1'       17.2530   32.3690   19.5750 C.3   103  G103        0.2408
   2117   N9       17.3370   31.6130   18.3360 N.ar  103  G103       -0.2693
   2118   C8       16.9590   30.3050   18.1360 C.ar  103  G103        0.1817
   2119   N7       17.1450   29.8900   16.9130 N.ar  103  G103       -0.2173
   2120   C5       17.6830   30.9910   16.2560 C.ar  103  G103        0.1748
   2121   C6       18.0550   31.1480   14.8950 C.ar  103  G103        0.3023
   2122   O6       18.0410   30.2920   13.9980 O.2   103  G103       -0.2633
   2123   N.1      18.5430   32.4370   14.6300 N.ar  103  G103       -0.1709
   2124   C.2      18.6570   33.4440   15.5760 C.ar  103  G103        0.2606
   2125   N.2      19.1640   34.6090   15.1480 N.pl3 103  G103       -0.0859
   2126   N.3      18.2820   33.3160   16.8500 N.ar  103  G103       -0.1918
   2127   C4       17.7970   32.0690   17.1170 C.ar  103  G103        0.1723
   2128    P.3     12.6180   32.9630   20.8230 P.3   104  A104        0.2141
   2129  OP1       11.7930   32.2030   21.7980 O.3   104  A104       -0.4373
   2130  OP2       12.5650   32.6170   19.3790 O.2   104  A104       -0.5172
   2131  O5'       12.2990   34.5150   20.9660 O.3   104  A104       -0.3114
   2132  C5'       12.5830   35.1840   22.1780 C.3   104  A104        0.1812
   2133  C4'       13.2320   36.5230   21.9080 C.3   104  A104        0.1773
   2134  O4'       14.4760   36.3130   21.2030 O.3   104  A104       -0.3307
   2135  C3'       12.4280   37.4470   21.0090 C.3   104  A104        0.1860
   2136  O3'       11.5150   38.1940   21.7730 O.3   104  A104       -0.3112
   2137  C2'       13.5020   38.3270   20.3850 C.3   104  A104        0.2309
   2138  O2'       13.8580   39.4190   21.2180 O.3   104  A104       -0.2156
   2139  C1'       14.6690   37.3360   20.2370 C.3   104  A104        0.2408
   2140   N9       14.7410   36.7100   18.9080 N.ar  104  A104       -0.2693
   2141   C8       13.8550   35.8190   18.3690 C.ar  104  A104        0.1816
   2142   N7       14.1560   35.4360   17.1560 N.ar  104  A104       -0.2193
   2143   C5       15.3280   36.1060   16.8810 C.ar  104  A104        0.1518
   2144   C6       16.1540   36.1300   15.7450 C.ar  104  A104        0.1919
   2145   N6       15.8790   35.4520   14.6370 N.pl3 104  A104       -0.1054
   2146   N.1      17.2720   36.8770   15.7960 N.ar  104  A104       -0.2040
   2147   C.2      17.5470   37.5540   16.9200 C.ar  104  A104        0.2016
   2148   N.3      16.8330   37.6360   18.0400 N.ar  104  A104       -0.2048
   2149   C4       15.7200   36.8800   17.9560 C.ar  104  A104        0.1692
   2150    P.3      9.9480   37.8860   21.6720 P.3   105  G105        0.2141
   2151  OP1        9.2420   39.1970   21.7150 O.2   105  G105       -0.5172
   2152  OP2        9.6400   36.8440   22.6810 O.3   105  G105       -0.4373
   2153  O5'        9.7730   37.2140   20.2200 O.3   105  G105       -0.3114
   2154  C5'        9.0310   37.8660   19.1980 C.3   105  G105        0.1812
   2155  C4'        9.7880   37.8440   17.8890 C.3   105  G105        0.1773
   2156  O4'       10.7170   36.7460   17.8900 O.3   105  G105       -0.3307
   2157  C3'        8.9510   37.5920   16.6600 C.3   105  G105        0.1860
   2158  O3'        8.3410   38.7850   16.2320 O.3   105  G105       -0.3112
   2159  C2'       10.0010   37.0980   15.6660 C.3   105  G105        0.2309
   2160  O2'       10.7160   38.1410   15.0270 O.3   105  G105       -0.2156
   2161  C1'       10.9430   36.3210   16.5650 C.3   105  G105        0.2408
   2162   N9       10.7700   34.8820   16.4780 N.ar  105  G105       -0.2693
   2163   C8       10.3020   34.0240   17.4480 C.ar  105  G105        0.1817
   2164   N7       10.2500   32.7800   17.0580 N.ar  105  G105       -0.2173
   2165   C5       10.6900   32.8250   15.7440 C.ar  105  G105        0.1748
   2166   C6       10.8620   31.7850   14.8040 C.ar  105  G105        0.3023
   2167   O6       10.6750   30.5690   14.9680 O.2   105  G105       -0.2633
   2168   N.1      11.3450   32.2670   13.5800 N.ar  105  G105       -0.1709
   2169   C.2      11.6370   33.5950   13.3220 C.ar  105  G105        0.2606
   2170   N.2      12.0620   33.9010   12.0910 N.pl3 105  G105       -0.0859
   2171   N.3      11.5180   34.5580   14.2130 N.ar  105  G105       -0.1918
   2172   C4       11.0420   34.1070   15.3910 C.ar  105  G105        0.1723
   2173    P.3      6.8920   38.7540   15.5430 P.3   106  A106        0.2141
   2174  OP1        6.3590   40.1420   15.5630 O.2   106  A106       -0.5172
   2175  OP2        6.1000   37.6450   16.1460 O.3   106  A106       -0.4373
   2176  O5'        7.2100   38.3350   14.0390 O.3   106  A106       -0.3114
   2177  C5'        8.1020   39.1000   13.2500 C.3   106  A106        0.1812
   2178  C4'        8.4410   38.3570   11.9820 C.3   106  A106        0.1773
   2179  O4'        9.2550   37.2040   12.2850 O.3   106  A106       -0.3307
   2180  C3'        7.2510   37.7590   11.2910 C.3   106  A106        0.1860
   2181  O3'        6.5380   38.7530   10.5730 O.3   106  A106       -0.3112
   2182  C2'        7.9040   36.6990   10.4050 C.3   106  A106        0.2309
   2183  O2'        8.4750   37.2240    9.2280 O.3   106  A106       -0.2156
   2184  C1'        8.9960   36.1840   11.3270 C.3   106  A106        0.2408
   2185   N9        8.6190   34.9720   12.0310 N.ar  106  A106       -0.2693
   2186   C8        8.1940   34.8720   13.3310 C.ar  106  A106        0.1816
   2187   N7        7.9770   33.6350   13.7270 N.ar  106  A106       -0.2193
   2188   C5        8.2600   32.8650   12.6020 C.ar  106  A106        0.1518
   2189   C6        8.2190   31.4610   12.3570 C.ar  106  A106        0.1919
   2190   N6        7.8520   30.5590   13.2820 N.pl3 106  A106       -0.1054
   2191   N.1       8.5530   31.0260   11.1110 N.ar  106  A106       -0.2040
   2192   C.2       8.8720   31.9370   10.1690 C.ar  106  A106        0.2016
   2193   N.3       8.9910   33.2700   10.2880 N.ar  106  A106       -0.2048
   2194   C4        8.6530   33.6770   11.5390 C.ar  106  A106        0.1692
   2195    P.3      5.0390   38.4690   10.0900 P.3   107  A107        0.2141
   2196  OP1        4.3190   39.7630   10.0620 O.2   107  A107       -0.5172
   2197  OP2        4.4870   37.3290   10.8710 O.3   107  A107       -0.4373
   2198  O5'        5.3010   37.9820    8.5930 O.3   107  A107       -0.3114
   2199  C5'        4.3400   37.2400    7.9140 C.3   107  A107        0.1812
   2200  C4'        4.9870   36.2120    7.0060 C.3   107  A107        0.1773
   2201  O4'        6.1160   35.5720    7.6800 O.3   107  A107       -0.3307
   2202  C3'        4.0690   35.0620    6.6550 C.3   107  A107        0.1860
   2203  O3'        3.2180   35.4100    5.5880 O.3   107  A107       -0.3112
   2204  C2'        5.0560   33.9490    6.3250 C.3   107  A107        0.2309
   2205  O2'        5.6830   34.1080    5.0570 O.3   107  A107       -0.2156
   2206  C1'        6.0610   34.1610    7.4570 C.3   107  A107        0.2408
   2207   N9        5.6780   33.4940    8.7160 N.ar  107  A107       -0.2693
   2208   C8        5.2900   34.0920    9.8880 C.ar  107  A107        0.1816
   2209   N7        5.0590   33.2490   10.8660 N.ar  107  A107       -0.2193
   2210   C5        5.2790   32.0090   10.2940 C.ar  107  A107        0.1518
   2211   C6        5.1990   30.6910   10.8100 C.ar  107  A107        0.1919
   2212   N6        4.8320   30.4150   12.0660 N.pl3 107  A107       -0.1054
   2213   N.1       5.4950   29.6660    9.9720 N.ar  107  A107       -0.2040
   2214   C.2       5.8250   29.9440    8.6970 C.ar  107  A107        0.2016
   2215   N.3       5.9520   31.1370    8.1030 N.ar  107  A107       -0.2048
   2216   C4        5.6490   32.1380    8.9610 C.ar  107  A107        0.1692
   2217    P.3      1.6340   35.2690    5.7820 P.3   108  G108        0.2141
   2218  OP1        0.9990   35.9320    4.6100 O.2   108  G108       -0.5172
   2219  OP2        1.2860   35.7110    7.1600 O.3   108  G108       -0.4373
   2220  O5'        1.4120   33.6660    5.7060 O.3   108  G108       -0.3114
   2221  C5'        1.6760   32.9730    4.4790 C.3   108  G108        0.1812
   2222  C4'        1.9570   31.4910    4.6910 C.3   108  G108        0.1773
   2223  O4'        2.8350   31.2720    5.8170 O.3   108  G108       -0.3307
   2224  C3'        0.7740   30.6290    5.0480 C.3   108  G108        0.1860
   2225  O3'       -0.1090   30.4470    3.9440 O.3   108  G108       -0.3112
   2226  C2'        1.4900   29.3430    5.4570 C.3   108  G108        0.2309
   2227  O2'        1.9510   28.5730    4.3540 O.3   108  G108       -0.2156
   2228  C1'        2.6770   29.9140    6.2380 C.3   108  G108        0.2408
   2229   N9        2.4800   29.8640    7.6870 N.ar  108  G108       -0.2693
   2230   C8        2.2960   30.9300    8.5430 C.ar  108  G108        0.1817
   2231   N7        2.1460   30.5760    9.7930 N.ar  108  G108       -0.2173
   2232   C5        2.2300   29.1850    9.7670 C.ar  108  G108        0.1748
   2233   C6        2.1620   28.2390   10.8320 C.ar  108  G108        0.3023
   2234   O6        1.9910   28.4600   12.0390 O.2   108  G108       -0.2633
   2235   N.1       2.2860   26.9170   10.3710 N.ar  108  G108       -0.1709
   2236   C.2       2.4540   26.5560    9.0440 C.ar  108  G108        0.2606
   2237   N.2       2.5370   25.2350    8.7880 N.pl3 108  G108       -0.0859
   2238   N.3       2.5650   27.4370    8.0420 N.ar  108  G108       -0.1918
   2239   C4        2.4270   28.7290    8.4740 C.ar  108  G108        0.1723
   2240    P.3     -1.6890   30.2780    4.2170 P.3   109  A109        0.2141
   2241  OP1       -2.3830   30.4110    2.9120 O.2   109  A109       -0.5172
   2242  OP2       -2.0690   31.1680    5.3480 O.3   109  A109       -0.4373
   2243  O5'       -1.8140   28.7580    4.7380 O.3   109  A109       -0.3114
   2244  C5'       -1.5390   27.6620    3.8560 C.3   109  A109        0.1812
   2245  C4'       -1.3120   26.3720    4.6310 C.3   109  A109        0.1773
   2246  O4'       -0.3510   26.5980    5.6880 O.3   109  A109       -0.3307
   2247  C3'       -2.5310   25.8280    5.3540 C.3   109  A109        0.1860
   2248  O3'       -3.3600   25.0810    4.4670 O.3   109  A109       -0.3112
   2249  C2'       -1.9040   24.9550    6.4380 C.3   109  A109        0.2309
   2250  O2'       -1.5640   23.6550    5.9870 O.3   109  A109       -0.2156
   2251  C1'       -0.6460   25.7550    6.7950 C.3   109  A109        0.2408
   2252   N9       -0.8040   26.5820    7.9950 N.ar  109  A109       -0.2693
   2253   C8       -0.9240   27.9500    8.0570 C.ar  109  A109        0.1816
   2254   N7       -1.0630   28.4180    9.2770 N.ar  109  A109       -0.2193
   2255   C5       -1.0410   27.2830   10.0750 C.ar  109  A109        0.1518
   2256   C6       -1.1270   27.0900   11.4830 C.ar  109  A109        0.1919
   2257   N6       -1.2940   28.0900   12.3590 N.pl3 109  A109       -0.1054
   2258   N.1      -1.0670   25.8170   11.9510 N.ar  109  A109       -0.2040
   2259   C.2      -0.9600   24.8050   11.0700 C.ar  109  A109        0.2016
   2260   N.3      -0.8260   24.8620    9.7360 N.ar  109  A109       -0.2048
   2261   C4       -0.8930   26.1400    9.2970 C.ar  109  A109        0.1692
   2262    P.3     -4.9560   25.1950    4.5900 P.3   110  U110        0.2141
   2263  OP1       -5.5440   24.3770    3.4960 O.2   110  U110       -0.5172
   2264  OP2       -5.3120   26.6350    4.7070 O.3   110  U110       -0.4373
   2265  O5'       -5.2600   24.4900    6.0100 O.3   110  U110       -0.3114
   2266  C5'       -5.2370   23.0610    6.1110 C.3   110  U110        0.1812
   2267  C4'       -5.2320   22.5870    7.5560 C.3   110  U110        0.1773
   2268  O4'       -4.2080   23.2740    8.3140 O.3   110  U110       -0.3307
   2269  C3'       -6.4920   22.8560    8.3490 C.3   110  U110        0.1860
   2270  O3'       -7.5250   21.9320    7.9970 O.3   110  U110       -0.3112
   2271  C2'       -5.9800   22.6500    9.7780 C.3   110  U110        0.2309
   2272  O2'       -5.8880   21.2830   10.1550 O.3   110  U110       -0.2156
   2273  C1'       -4.5780   23.2760    9.6960 C.3   110  U110        0.2420
   2274   N.1      -4.5170   24.7040   10.2480 N.ar  110  U110       -0.2534
   2275   C.2      -4.4770   24.9080   11.6360 C.ar  110  U110        0.3546
   2276   O.2      -4.4510   23.9980   12.4570 O.2   110  U110       -0.2443
   2277   N.3      -4.4600   26.2360   12.0260 N.ar  110  U110       -0.1530
   2278   C4       -4.4800   27.3540   11.1970 C.ar  110  U110        0.2846
   2279   O4       -4.4600   28.4780   11.6920 O.2   110  U110       -0.2650
   2280   C5       -4.5340   27.0650    9.7780 C.ar  110  U110        0.0814
   2281   C6       -4.5600   25.7840    9.3670 C.ar  110  U110        0.0870
   2282    P.3     -9.0580   22.4200    7.9180 P.3   111  U111        0.2141
   2283  OP1       -9.8410   21.3210    7.2920 O.2   111  U111       -0.5172
   2284  OP2       -9.0840   23.7770    7.3080 O.3   111  U111       -0.4373
   2285  O5'       -9.4740   22.5610    9.4770 O.3   111  U111       -0.3114
   2286  C5'       -9.9670   21.4150   10.2190 C.3   111  U111        0.1812
   2287  C4'       -9.6980   21.5410   11.7190 C.3   111  U111        0.1773
   2288  O4'       -8.4580   22.2600   11.9360 O.3   111  U111       -0.3307
   2289  C3'      -10.7510   22.3140   12.5110 C.3   111  U111        0.1860
   2290  O3'      -11.8230   21.4380   12.9390 O.3   111  U111       -0.3112
   2291  C2'       -9.9510   22.8550   13.7030 C.3   111  U111        0.2309
   2292  O2'       -9.9130   21.9660   14.8090 O.3   111  U111       -0.2156
   2293  C1'       -8.5480   23.0550   13.1160 C.3   111  U111        0.2420
   2294   N.1      -8.2210   24.5210   12.7890 N.ar  111  U111       -0.2534
   2295   C.2      -7.8530   25.3920   13.8210 C.ar  111  U111        0.3546
   2296   O.2      -7.7570   25.0530   14.9930 O.2   111  U111       -0.2443
   2297   N.3      -7.6110   26.6920   13.4210 N.ar  111  U111       -0.1530
   2298   C4       -7.6980   27.2030   12.1300 C.ar  111  U111        0.2846
   2299   O4       -7.4360   28.3830   11.9270 O.2   111  U111       -0.2650
   2300   C5       -8.0800   26.2460   11.1140 C.ar  111  U111        0.0814
   2301   C6       -8.3330   24.9750   11.4730 C.ar  111  U111        0.0870
   2302    P.3    -13.3050   22.0170   13.2080 P.3   112  C112        0.2141
   2303  OP1      -14.1760   20.8610   13.5440 O.3   112  C112       -0.4373
   2304  OP2      -13.6680   22.9090   12.0710 O.2   112  C112       -0.5172
   2305  O5'      -13.1150   22.9420   14.5180 O.3   112  C112       -0.3114
   2306  C5'      -13.7880   22.6410   15.7560 C.3   112  C112        0.1813
   2307  C4'      -12.8610   22.8370   16.9590 C.3   112  C112        0.1801
   2308  O4'      -11.7110   23.6430   16.5910 O.3   112  C112       -0.3306
   2309  C3'      -13.4890   23.5210   18.1730 C.3   112  C112        0.2161
   2310  O3'      -12.9890   22.9370   19.3840 O.3   112  C112       -0.2175
   2311  C2'      -13.0710   24.9950   18.0220 C.3   112  C112        0.2338
   2312  O2'      -12.8510   25.6330   19.2710 O.3   112  C112       -0.2155
   2313  C1'      -11.7570   24.9100   17.2370 C.3   112  C112        0.2421
   2314   N.1     -11.5770   26.0180   16.1910 N.ar  112  C112       -0.2535
   2315   C.2     -11.0950   27.2910   16.5800 C.ar  112  C112        0.3532
   2316   O.2     -10.8620   27.5180   17.7780 O.2   112  C112       -0.2443
   2317   N.3     -10.9100   28.2480   15.6200 N.ar  112  C112       -0.1739
   2318   C4      -11.1820   27.9760   14.3310 C.ar  112  C112        0.1759
   2319   N.4     -10.9930   28.9470   13.4320 N.pl3 112  C112       -0.1070
   2320   C5      -11.6720   26.6960   13.9160 C.ar  112  C112        0.0566
   2321   C6      -11.8590   25.7620   14.8660 C.ar  112  C112        0.0850
@<TRIPOS>BOND
     1   324   323    2
     2   301   300    2
     3   304   305    1
     4   304   303    1
     5   288   287    1
     6   308   323    1
     7   308   307    1
     8   305   307    1
     9   305   306    1
    10   323   325    1
    11   323   326    1
    12   310   309    1
    13   307   309    1
    14   286   300    1
    15   286   285    1
    16   306   311    1
    17   303   300    1
    18   300   302    1
    19   287   285    1
    20   287   289    1
    21   309   311    1
    22   285   283    1
    23   311   312    1
    24   326   327    1
    25   298   297   ar
    26   298   299   ar
    27   289   284    1
    28   289   290    1
    29   283   284    1
    30   283   282    1
    31   327   328    1
    32   297   296   ar
    33   328   329    1
    34   328   330    1
    35   299   290   ar
    36   299   293   ar
    37   290   291   ar
    38   282   281    1
    39   312   313   ar
    40   312   322   ar
    41   296   294   ar
    42   329   334    1
    43   313   314   ar
    44   281   278    1
    45   331   330    1
    46   331   346    1
    47   347   346    2
    48  1565  1564    2
    49   624   623    2
    50   330   332    1
    51   293   294   ar
    52   293   292   ar
    53   322   321   ar
    54   322   315   ar
    55   333   332    1
    56   321   319   ar
    57   291   292   ar
    58   294   295    1
    59   346   348    1
    60   346   349    1
    61   334   332    1
    62   334   335    1
    63   314   315   ar
    64   259   258    2
    65   609   623    1
    66   609   608    1
    67  2241  2240    2
    68   611   610    1
    69  1552  1564    1
    70  1552  1551    1
    71   236   235    2
    72   278   279    2
    73   278   280    1
    74   278   266    1
    75   627   628    1
    76   627   626    1
    77  1564  1567    1
    78  1564  1566    1
    79  1587  1586    2
    80   315   316   ar
    81  1568  1567    1
    82  1568  1569    1
    83   623   626    1
    84   623   625    1
    85   644   643    2
    86   606   605    1
    87   606   608    1
    88   606   607    1
    89   605   604    1
    90   319   320    1
    91   319   318   ar
    92   336   335   ar
    93   336   337   ar
    94  2263  2262    2
    95   335   345   ar
    96  1554  1553    1
    97   266   265    1
    98  1548  1549    1
    99  1548  1547    1
   100   349   350    1
   101  1549  1551    1
   102  1549  1550    1
   103  1545  1544    2
   104   628   629    1
   105   628   630    1
   106   350   351    1
   107   608   610    1
   108   588   587    1
   109  2244  2245    1
   110  2244  2243    1
   111  2225  2240    1
   112  2225  2224    1
   113   258   260    1
   114   258   243    1
   115   258   261    1
   116   602   601    2
   117   631   643    1
   118   631   630    1
   119  1572  1586    1
   120  1572  1571    1
   121  1569  1571    1
   122  1569  1570    1
   123   610   612    1
   124  1551  1553    1
   125  1586  1588    1
   126  1586  1589    1
   127  2240  2243    1
   128  2240  2242    1
   129  2227  2226    1
   130   607   612    1
   131   239   238    1
   132   239   240    1
   133   643   645    1
   134   643   646    1
   135   243   242    1
   136  2248  2262    1
   137  2248  2247    1
   138   316   318   ar
   139   316   317    2
   140  2221  2222    1
   141  2221  2220    1
   142   235   238    1
   143   235   220    1
   144   235   237    1
   145   337   338   ar
   146  2262  2264    1
   147  2262  2265    1
   148  2218  2217    2
   149  2245  2247    1
   150  2245  2246    1
   151  1553  1555    1
   152  2222  2224    1
   153  2222  2223    1
   154   629   634    1
   155   630   632    1
   156   604   601    1
   157   612   613    1
   158  1571  1573    1
   159   586   601    1
   160   586   585    1
   161   262   261    1
   162   262   263    1
   163  1547  1544    1
   164  1550  1555    1
   165   345   338   ar
   166   345   344   ar
   167   633   632    1
   168   601   603    1
   169  2224  2226    1
   170   136   135    1
   171  2205  2204    1
   172   265   263    1
   173   265   267    1
   174   220   219    1
   175  1570  1575    1
   176  1544  1532    1
   177  1544  1546    1
   178   263   264    1
   179   587   585    1
   180   587   589    1
   181   351   352    1
   182   351   353    1
   183   240   242    1
   184   240   241    1
   185   647   646    1
   186   647   648    1
   187  2247  2249    1
   188   268   267    1
   189   371   369    2
   190  2226  2228    1
   191   242   244    1
   192  1555  1556    1
   193  1532  1531    1
   194  1534  1533    1
   195   338   339   ar
   196  1574  1573    1
   197  1589  1590    1
   198  2203  2217    1
   199  2203  2202    1
   200   344   342   ar
   201   632   634    1
   202   664   663    2
   203  1590  1591    1
   204  2246  2251    1
   205   370   369    1
   206  2220  2217    1
   207   147   146    2
   208   585   583    1
   209  2217  2219    1
   210  2223  2228    1
   211   583   584    1
   212   583   582    1
   213   150   151    1
   214   150   149    1
   215   634   635    1
   216   352   357    1
   217   134   133    1
   218   134   146    1
   219  1573  1575    1
   220   354   369    1
   221   354   353    1
   222  2250  2249    1
   223   589   584    1
   224   589   590    1
   225  2265  2266    1
   226   267   269    1
   227   598   597    1
   228   369   372    1
   229   216   217    1
   230   216   215    1
   231  2266  2267    1
   232   353   355    1
   233   613   622   ar
   234   613   614   ar
   235   151   152    1
   236   151   153    1
   237   572   571    2
   238   131   133    1
   239   131   132    1
   240   131   130    1
   241  2228  2229    1
   242   495   494    2
   243  1575  1576    1
   244  2204  2202    1
   245  2204  2206    1
   246  1385  1384    1
   247   167   166    2
   248   217   219    1
   249   217   218    1
   250   219   221    1
   251   599   597   ar
   252   599   600   ar
   253   135   133    1
   254   135   137    1
   255  2249  2251    1
   256   359   360   ar
   257   359   358   ar
   258   621   622   ar
   259   621   620   ar
   260   264   269    1
   261   154   153    1
   262   154   166    1
   263   213   212    2
   264   648   650    1
   265   648   649    1
   266   241   246    1
   267   222   221    1
   268  2202  2200    1
   269   493   494   ar
   270   493   491   ar
   271   146   149    1
   272   146   148    1
   273   132   137    1
   274   665   663    1
   275  1533  1531    1
   276  1533  1535    1
   277   130   129    1
   278   663   651    1
   279   663   666    1
   280   582   581    1
   281   494   496   ar
   282   116   115    1
   283   245   244    1
   284  2251  2252    1
   285  1531  1529    1
   286   156   155    1
   287   244   246    1
   288   651   650    1
   289   152   157    1
   290   597   596   ar
   291   834   833    2
   292   342   341   ar
   293   342   343    1
   294   215   212    1
   295  1556  1563   ar
   296  1556  1557   ar
   297   622   616   ar
   298   137   138    1
   299   339   341   ar
   300   339   340    2
   301   360   361   ar
   302   492   491    2
   303   642   635   ar
   304   642   641   ar
   305   269   270    1
   306   832   833   ar
   307   832   830   ar
   308   831   830    2
   309  2200  2201    1
   310  2200  2199    1
   311  1609  1608    2
   312   635   636   ar
   313   614   615   ar
   314  1591  1592    1
   315  1591  1593    1
   316   491   490   ar
   317  1610  1608    1
   318   153   155    1
   319  1577  1576   ar
   320  1577  1578   ar
   321  1380  1379    1
   322  1380  1381    1
   323  1380  1382    1
   324   590   600   ar
   325   590   591   ar
   326   357   358    1
   327   357   355    1
   328   406   405    2
   329   221   223    1
   330   568   567    1
   331   571   573   ar
   332   571   570   ar
   333   166   168    1
   334   166   169    1
   335  1383  1382    1
   336  1383  1395    1
   337  2283  2282    2
   338  1362  1361    1
   339  2284  2282    1
   340  1396  1395    2
   341   573   574   ar
   342  1576  1585   ar
   343   650   652    1
   344  1558  1557    2
   345   833   835   ar
   346   600   593   ar
   347  1529  1530    1
   348  1529  1528    1
   349  1563  1562   ar
   350   830   829   ar
   351   358   368   ar
   352  2206  2201    1
   353  2206  2207    1
   354   496   497   ar
   355   649   654    1
   356   355   356    1
   357   620   619   ar
   358  2267  2268    1
   359  2267  2269    1
   360   212   214    1
   361   212   197    1
   362  1594  1608    1
   363  1594  1593    1
   364   246   247    1
   365  1379  1378    1
   366  1384  1386    1
   367  1384  1382    1
   368   372   373    1
   369  1608  1611    1
   370  1381  1386    1
   371  2229  2239   ar
   372  2229  2230   ar
   373   218   223    1
   374   155   157    1
   375  1399  1400    1
   376  1399  1398    1
   377   490   497   ar
   378   490   489    1
   379   484   489    1
   380   484   483    1
   381  1557  1559   ar
   382   435   434    2
   383  1386  1387    1
   384  1592  1597    1
   385  1593  1595    1
   386   157   158    1
   387  1535  1530    1
   388  1535  1536    1
   389  2199  2198    1
   390  2282  2270    1
   391  2282  2285    1
   392   567   569    1
   393   567   565    1
   394  2252  2253   ar
   395  2252  2261   ar
   396  2270  2269    1
   397  1953  1952    2
   398  2238  2239   ar
   399  2238  2236   ar
   400   641   639   ar
   401  2253  2254   ar
   402   140   139    2
   403  1933  1932    2
   404  2215  2214   ar
   405  2215  2216   ar
   406   666   667    1
   407   248   247   ar
   408   248   249   ar
   409   581   578    1
   410   115   117    1
   411   115   113    1
   412   129   126    1
   413  1538  1537    2
   414  1395  1398    1
   415  1395  1397    1
   416   596   594   ar
   417   616   615   ar
   418   616   617   ar
   419   170   169    1
   420   170   171    1
   421   223   224    1
   422  2268  2273    1
   423  2057  2056    2
   424  1528  1527    1
   425  1578  1579   ar
   426   361   368   ar
   427   361   362   ar
   428   636   637    2
   429   636   638   ar
   430  1372  1371    1
   431  2269  2271    1
   432   127   126    2
   433  1400  1401    1
   434  1400  1402    1
   435  1479  1478    1
   436   489   487    1
   437   120   119    2
   438   829   836   ar
   439   829   828    1
   440   835   836   ar
   441   114   126    1
   442   114   113    1
   443   270   277   ar
   444   270   271   ar
   445   138   139   ar
   446   138   145   ar
   447   391   389    2
   448  2239  2232   ar
   449   247   257   ar
   450   405   404   ar
   451   405   407   ar
   452   569   570    1
   453   569   564    1
   454   591   592   ar
   455   575   574    1
   456   570   577   ar
   457   574   576   ar
   458   667   668    1
   459  2230  2231   ar
   460   814   813   ar
   461   814   815   ar
   462   373   374    1
   463  2198  2195    1
   464   813   811   ar
   465   368   367   ar
   466  1389  1388    2
   467   403   404   ar
   468   403   402   ar
   469  1361  1363    1
   470  1361  1359    1
   471  1936  1937    1
   472  1936  1935    1
   473   197   196    1
   474  2214  2213   ar
   475  1585  1579   ar
   476  1585  1584   ar
   477  1349  1348    1
   478  2207  2216   ar
   479  2207  2208   ar
   480  2058  2056   ar
   481  2058  2059   ar
   482  1562  1560   ar
   483  1480  1478   ar
   484  1480  1481   ar
   485  1599  1600   ar
   486  1599  1598   ar
   487   272   271    2
   488   387   388   ar
   489   387   385   ar
   490  1401  1406    1
   491   652   654    1
   492   652   653    1
   493   593   594   ar
   494   593   592   ar
   495  2237  2236    1
   496   117   112    1
   497   117   118    1
   498  1926  1925    2
   499   654   655    1
   500   483   482    1
   501   483   485    1
   502   619   617   ar
   503   139   141   ar
   504  2056  2055   ar
   505   662   661   ar
   506   662   655   ar
   507   482   481    1
   508   126   128    1
   509   828   823    1
   510   828   826    1
   511  1940  1952    1
   512  1940  1939    1
   513   277   276   ar
   514  2216  2210   ar
   515   458   456    2
   516   579   578    2
   517  1360  1359    1
   518  1360  1375    1
   519   113   111    1
   520  1457  1456    1
   521  1378  1375    1
   522  2236  2235   ar
   523  1922  1921    1
   524  1373  1371   ar
   525  1373  1374   ar
   526   823   822    1
   527   566   565    1
   528   566   578    1
   529   111   112    1
   530   111   110    1
   531  1937  1939    1
   532  1937  1938    1
   533  1363  1358    1
   534  1363  1364    1
   535   249   250   ar
   536  1559  1560   ar
   537   404   411   ar
   538  1536  1537   ar
   539  1536  1543   ar
   540   480   478    2
   541  1376  1375    2
   542  1478  1477   ar
   543  1537  1539   ar
   544  1597  1595    1
   545  1597  1598    1
   546   457   456    1
   547  1387  1388   ar
   548  1387  1394   ar
   549  2183  2182    1
   550   617   618    1
   551  1611  1612    1
   552   271   273   ar
   553   158   165   ar
   554   158   159   ar
   555  1952  1954    1
   556  1952  1955    1
   557   434   420    1
   558   434   436    1
   559   434   437    1
   560   565   563    1
   561   594   595    2
   562  2254  2255   ar
   563   578   580    1
   564  1579  1580   ar
   565   386   385    2
   566  2261  2260   ar
   567  2261  2255   ar
   568   388   381   ar
   569   363   362    2
   570  1595  1596    1
   571  1584  1583   ar
   572  1371  1370   ar
   573   639   638   ar
   574   639   640    1
   575  1600  1601   ar
   576  1403  1402    1
   577  1403  1418    1
   578  2059  2052   ar
   579   407   408   ar
   580  2281  2280   ar
   581  2281  2274   ar
   582  1527  1524    1
   583   362   364   ar
   584   145   144   ar
   585   165   164   ar
   586  1932  1920    1
   587  1932  1935    1
   588  1932  1934    1
   589  2285  2286    1
   590  1357  1359    1
   591  1357  1358    1
   592  1357  1356    1
   593  1920  1919    1
   594   481   478    1
   595  1388  1390   ar
   596   815   816   ar
   597   196   194    1
   598   196   198    1
   599  1525  1524    2
   600   119   118   ar
   601   119   121   ar
   602   661   659   ar
   603   420   419    1
   604   224   225   ar
   605   224   234   ar
   606   171   172    1
   607   171   173    1
   608   655   656   ar
   609   194   193    1
   610   194   195    1
   611  1598  1607   ar
   612  1481  1482   ar
   613  1560  1561    1
   614  1402  1404    1
   615   385   384   ar
   616  2055  2053   ar
   617   193   192    1
   618  1375  1377    1
   619  1435  1434    1
   620  2273  2271    1
   621  2273  2274    1
   622   577   576   ar
   623  1405  1404    1
   624   438   437    1
   625   438   439    1
   626  2260  2259   ar
   627   402   401   ar
   628  2232  2231   ar
   629  2232  2233   ar
   630  2280  2278   ar
   631  2271  2272    1
   632   190   189    2
   633   389   390    1
   634   389   377    1
   635   389   392    1
   636   257   250   ar
   637   257   256   ar
   638   811   812    1
   639   811   810   ar
   640   456   442    1
   641   456   459    1
   642   225   226   ar
   643   564   563    1
   644  1939  1941    1
   645   487   485    1
   646   487   488    1
   647   367   365   ar
   648   118   125   ar
   649  2208  2209   ar
   650  1406  1404    1
   651  1406  1407    1
   652  1925  1927   ar
   653  1925  1924   ar
   654  1612  1613    1
   655  2213  2211   ar
   656  1942  1941    1
   657   838   837    2
   658   374   375    1
   659   374   376    1
   660  1419  1418    2
   661   668   670    1
   662   668   669    1
   663  1348  1350   ar
   664  1348  1347   ar
   665   172   177    1
   666  2196  2195    2
   667  2255  2256   ar
   668  1938  1943    1
   669  2195  2181    1
   670  2195  2197    1
   671   827   826    1
   672   825   824    1
   673   825   837    1
   674   485   486    1
   675   160   159    2
   676   563   562    1
   677   478   479    1
   678   478   464    1
   679  1956  1955    1
   680  1956  1957    1
   681  1420  1418    1
   682  2192  2193   ar
   683  2192  2191   ar
   684  2052  2053   ar
   685  2052  2051    1
   686  1374  1364   ar
   687  1374  1367   ar
   688  1456  1458   ar
   689  1456  1455   ar
   690   250   251   ar
   691  1394  1393   ar
   692  2286  2287    1
   693  1458  1459   ar
   694   110   109    1
   695   141   142   ar
   696  1364  1365   ar
   697  1524  1526    1
   698  1524  1512    1
   699   276   274   ar
   700  2274  2275   ar
   701   375   380    1
   702   826   824    1
   703   822   824    1
   704   822   821    1
   705  1432  1431   ar
   706  1432  1433   ar
   707  2193  2194   ar
   708  2210  2211   ar
   709  2210  2209   ar
   710   486   498    1
   711  1418  1421    1
   712  2053  2054    2
   713  2046  2051    1
   714  2046  2045    1
   715   159   161   ar
   716   376   377    1
   717   376   378    1
   718   414   412    2
   719  1543  1542   ar
   720  1539  1540   ar
   721  1921  1923    1
   722  1921  1919    1
   723  2235  2233   ar
   724  2182  2180    1
   725  2182  2184    1
   726  1927  1928   ar
   727   676   677   ar
   728   676   675   ar
   729   552   551    2
   730   553   551   ar
   731   553   554   ar
   732  1923  1924    1
   733  1923  1918    1
   734   411   401   ar
   735   411   410   ar
   736   442   441    1
   737   416   417    1
   738   416   415    1
   739   687   686    2
   740  2181  2180    1
   741   273   274   ar
   742  1477  1483   ar
   743  1477  1476   ar
   744   670   672    1
   745   670   671    1
   746   256   254   ar
   747  1370  1368   ar
   748   121   122   ar
   749   174   173    1
   750   174   189    1
   751   555   554    1
   752  1356  1355    1
   753  1350  1351   ar
   754  1909  1908    1
   755   364   365   ar
   756  1583  1582   ar
   757   392   393    1
   758   164   162   ar
   759   669   674    1
   760  1919  1917    1
   761   381   380    1
   762   381   382   ar
   763  1580  1582   ar
   764  1580  1581    1
   765  1601  1607   ar
   766  1601  1602   ar
   767  1941  1943    1
   768   144   142   ar
   769   816   810   ar
   770   816   807   ar
   771  1347  1345   ar
   772   173   175    1
   773   408   410   ar
   774   408   409    1
   775   195   200    1
   776   417   419    1
   777   417   418    1
   778   234   233   ar
   779   234   227   ar
   780  1390  1391   ar
   781  2211  2212    1
   782   677   678   ar
   783   710   709    2
   784  2233  2234    2
   785   419   421    1
   786   365   366    1
   787  2051  2049    1
   788  1607  1606   ar
   789   192   189    1
   790   439   441    1
   791   439   440    1
   792   422   421    1
   793  1622  1621   ar
   794  1622  1623   ar
   795  1482  1483   ar
   796  1434  1433   ar
   797  1434  1436   ar
   798  1924  1931   ar
   799   189   191    1
   800   837   839    1
   801   837   840    1
   802   401   400    1
   803   810   809   ar
   804   659   658   ar
   805   659   660    1
   806   656   657    2
   807   656   658   ar
   808   233   231   ar
   809   198   199    1
   810   198   200    1
   811   672   674    1
   812   672   673    1
   813   384   382   ar
   814  1407  1408   ar
   815  1407  1417   ar
   816  1339  1338    1
   817   459   460    1
   818  1621  1620   ar
   819  1943  1944    1
   820  2259  2258   ar
   821   226   227   ar
   822   274   275    1
   823  1431  1430   ar
   824  2191  2189   ar
   825  2300  2301   ar
   826  2300  2298   ar
   827   500   498    2
   828   551   550   ar
   829  1433  1439   ar
   830    96    95    1
   831  2278  2279    2
   832  2278  2277   ar
   833  1408  1409   ar
   834   142   143    2
   835   380   378    1
   836   125   124   ar
   837   554   556   ar
   838  2180  2178    1
   839   179   178   ar
   840   179   180   ar
   841   821   820    1
   842   441   443    1
   843   100    99    2
   844  2184  2185    1
   845  2184  2179    1
   846   200   201    1
   847  1483  1474   ar
   848  1476  1475   ar
   849  2045  2044    1
   850  2045  2047    1
   851  2042  2040    2
   852   498   499    1
   853   498   501    1
   854  1973  1972    2
   855  1459  1460   ar
   856  1455  1454   ar
   857  1455  1461   ar
   858  1957  1958    1
   859  1957  1959    1
   860   464   463    1
   861  1540  1542   ar
   862  1540  1541    1
   863  1613  1614    1
   864  1613  1615    1
   865  1393  1391   ar
   866  2301  2294   ar
   867   109   106    1
   868   177   175    1
   869   177   178    1
   870  2256  2258   ar
   871  2256  2257    1
   872  1367  1368   ar
   873  1367  1366   ar
   874   674   675    1
   875  1512  1511    1
   876   841   840    1
   877   841   842    1
   878   675   685   ar
   879  2194  2185   ar
   880  2194  2188   ar
   881   161   162   ar
   882   535   534    1
   883  1917  1918    1
   884  1917  1916    1
   885   251   252    2
   886   251   253   ar
   887   463   465    1
   888   463   461    1
   889  2044  2043    1
   890  1365  1366   ar
   891   382   383    2
   892  1974  1972    1
   893   861   859    2
   894  1632  1630    2
   895   378   379    1
   896   562   561    1
   897   415   412    1
   898  2275  2277   ar
   899  2275  2276    2
   900   820   817    1
   901   421   423    1
   902  1514  1513    1
   903   227   228   ar
   904   412   413    1
   905   412   397    1
   906   671   686    1
   907  1928  1929    2
   908  1928  1930   ar
   909  1454  1453   ar
   910  2287  2288    1
   911  2287  2289    1
   912  1907  1908   ar
   913  1907  1905   ar
   914  1614  1619    1
   915   162   163    1
   916  1368  1369    2
   917  1908  1910   ar
   918  1421  1422    1
   919  2043  2040    1
   920  1391  1392    2
   921  1603  1602    1
   922  1602  1604   ar
   923   254   253   ar
   924   254   255    1
   925  1355  1352    1
   926   175   176    1
   927   686   689    1
   928   686   688    1
   929   807   806    1
   930   807   808   ar
   931  2299  2298    2
   932  2288  2293    1
   933   690   689    1
   934   690   691    1
   935  1960  1972    1
   936  1960  1959    1
   937   122   124   ar
   938   122   123    2
   939   178   188   ar
   940  1351  1344   ar
   941  1351  1341   ar
   942   460   461    1
   943  2178  2179    1
   944  2178  2177    1
   945   418   423    1
   946  1436  1437   ar
   947  1625  1624    1
   948   180   181   ar
   949  1606  1605   ar
   950   440   445    1
   951  2185  2186   ar
   952  1338  1340    1
   953  1338  1336    1
   954   393   394    1
   955  1972  1975    1
   956  2304  2302    2
   957  2170  2169    1
   958  1417  1416   ar
   959  1417  1410   ar
   960  1345  1346    2
   961  1345  1344   ar
   962   709   694    1
   963   709   711    1
   964   709   712    1
   965   396   398    1
   966   396   397    1
   967   396   394    1
   968  2298  2297   ar
   969  1615  1616    1
   970  1615  1617    1
   971   465   466    1
   972   465   467    1
   973   806   801    1
   974   806   804    1
   975   678   685   ar
   976   678   679   ar
   977   561   558    1
   978    95    97    1
   979    95    93    1
   980  1623  1624   ar
   981  1623  1629   ar
   982  1931  1930   ar
   983   801   800    1
   984   231   232    1
   985   231   230   ar
   986  1958  1963    1
   987   400   395    1
   988   400   398    1
   989   809   808   ar
   990   694   693    1
   991  1409  1410   ar
   992  1416  1414   ar
   993  1620  1619    1
   994  1620  1629   ar
   995  1959  1961    1
   996  2040  2041    1
   997  2040  2026    1
   998  2189  2188   ar
   999  2189  2190    1
  1000  2049  2047    1
  1001  2049  2050    1
  1002   395   394    1
  1003  1430  1439   ar
  1004  1430  1429    1
  1005   860   859    1
  1006   803   817    1
  1007   803   802    1
  1008  1944  1951   ar
  1009  1944  1945   ar
  1010  1616  1630    1
  1011   818   817    2
  1012  1631  1630    1
  1013  1439  1438   ar
  1014   469   470   ar
  1015   469   468   ar
  1016  1340  1341    1
  1017  1340  1335    1
  1018   550   549    1
  1019   550   557   ar
  1020  2289  2290    1
  1021  2289  2291    1
  1022  1511  1513    1
  1023  1511  1509    1
  1024   730   729    2
  1025    99   101   ar
  1026    99    98   ar
  1027   398   399    1
  1028  1475  1474   ar
  1029  1630  1633    1
  1030  1461  1460   ar
  1031  1461  1452   ar
  1032   461   462    1
  1033  1951  1950   ar
  1034  2047  2048    1
  1035  2188  2187   ar
  1036  2048  2060    1
  1037   842   844    1
  1038   842   843    1
  1039   107   106    2
  1040   685   684   ar
  1041  1474  1473    1
  1042   556   557   ar
  1043   423   424    1
  1044   210   211   ar
  1045   210   208   ar
  1046   501   502    1
  1047   859   845    1
  1048   859   862    1
  1049  1906  1905    2
  1050  1344  1343   ar
  1051   817   819    1
  1052   201   211   ar
  1053   201   202   ar
  1054  1624  1626   ar
  1055   548   547    1
  1056   443   444    1
  1057   443   445    1
  1058  2294  2293    1
  1059  2294  2295   ar
  1060   691   693    1
  1061   691   692    1
  1062   534   533   ar
  1063   534   536   ar
  1064  1513  1515    1
  1065  2062  2060    2
  1066  1619  1617    1
  1067  1910  1911   ar
  1068   106    94    1
  1069   106   108    1
  1070  1905  1904   ar
  1071  1341  1342   ar
  1072   800   802    1
  1073   800   799    1
  1074   680   679    2
  1075  1410  1411   ar
  1076    97    98    1
  1077    97    92    1
  1078   470   471   ar
  1079  1422  1423    1
  1080   547   549    1
  1081   547   545    1
  1082  2290  2302    1
  1083    94    93    1
  1084  1916  1915    1
  1085   873   872   ar
  1086   873   874   ar
  1087  1424  1429    1
  1088  1424  1423    1
  1089  1453  1452   ar
  1090  1604  1605   ar
  1091   228   230   ar
  1092   228   229    2
  1093   209   208    1
  1094   533   531   ar
  1095   101   102   ar
  1096   679   681   ar
  1097  1886  1885   ar
  1098  1886  1887   ar
  1099  1629  1628   ar
  1100  2293  2291    1
  1101  1885  1883   ar
  1102  1337  1352    1
  1103  1337  1336    1
  1104   549   544    1
  1105   445   446    1
  1106  1353  1352    2
  1107   462   467    1
  1108  2302  2303    1
  1109  2302  2305    1
  1110   844   845    1
  1111   844   846    1
  1112   447   446   ar
  1113   447   448   ar
  1114   876   875    2
  1115  1437  1438   ar
  1116   181   188   ar
  1117   181   182   ar
  1118   188   187   ar
  1119  1352  1354    1
  1120  2177  2176    1
  1121   502   503    1
  1122   693   695    1
  1123   211   204   ar
  1124  2169  2168   ar
  1125  2169  2171   ar
  1126   712   713    1
  1127  2186  2187   ar
  1128   467   468    1
  1129  1336  1334    1
  1130    93    91    1
  1131  1617  1618    1
  1132   802   804    1
  1133   731   729    1
  1134   805   804    1
  1135  2297  2295   ar
  1136   713   714    1
  1137  2060  2061    1
  1138  2060  2063    1
  1139  2319  2318    1
  1140    98   105   ar
  1141   872   871   ar
  1142  1946  1945    2
  1143  1414  1415    1
  1144  1414  1413   ar
  1145   468   477   ar
  1146   208   207   ar
  1147  1971  1970   ar
  1148  1971  1964   ar
  1149  1429  1427    1
  1150  2168  2166   ar
  1151  1915  1912    1
  1152  1945  1947   ar
  1153  1669  1668    1
  1154  1518  1517    2
  1155  1335  1334    1
  1156  1452  1451    1
  1157  1975  1976    1
  1158  1963  1961    1
  1159  1963  1964    1
  1160  1323  1322    2
  1161   729   717    1
  1162   729   732    1
  1163   862   863    1
  1164  2026  2025    1
  1165  1961  1962    1
  1166  2291  2292    1
  1167   843   848    1
  1168    80    79    2
  1169   558   560    2
  1170   558   559    1
  1171   558   546    1
  1172   202   203   ar
  1173  1423  1425    1
  1174  1644  1643   ar
  1175  1644  1645   ar
  1176  1950  1948   ar
  1177  1515  1516    1
  1178  1515  1510    1
  1179  2295  2296    2
  1180   446   455   ar
  1181   536   537   ar
  1182  1473  1468    1
  1183  1473  1471    1
  1184  1509  1510    1
  1185  1509  1508    1
  1186   684   682   ar
  1187   424   425   ar
  1188   424   433   ar
  1189  1911  1904   ar
  1190  1911  1901   ar
  1191  2320  2318   ar
  1192  2320  2321   ar
  1193   799   798    1
  1194  1334  1333    1
  1195    92    91    1
  1196  1904  1903   ar
  1197  2122  2121    2
  1198  1970  1968   ar
  1199   692   697    1
  1200  2176  2173    1
  1201   448   449   ar
  1202  1633  1634    1
  1203   874   875   ar
  1204   874   881   ar
  1205  1887  1888   ar
  1206  1411  1413   ar
  1207  1411  1412    2
  1208  1626  1627   ar
  1209   696   695    1
  1210  1343  1342   ar
  1211  1442  1440    2
  1212   863   864    1
  1213  1324  1322   ar
  1214  1324  1325   ar
  1215   875   877   ar
  1216  1647  1646    1
  1217   545   546    1
  1218   545   543    1
  1219  1425  1427    1
  1220  1425  1426    1
  1221  2171  2172   ar
  1222   471   477   ar
  1223   471   472   ar
  1224  1643  1642   ar
  1225   425   426   ar
  1226   798   795    1
  1227    91    90    1
  1228  1286  1285    2
  1229   187   185   ar
  1230  1634  1635    1
  1231  1964  1965   ar
  1232   531   532    2
  1233   531   530   ar
  1234  2318  2317   ar
  1235  1712  1711    1
  1236   717   716    1
  1237  1976  1977    1
  1238   681   682   ar
  1239  1883  1884    1
  1240  1883  1882   ar
  1241   102   103    1
  1242   102   104   ar
  1243  1517  1516   ar
  1244  1517  1519   ar
  1245   182   183    2
  1246   182   184   ar
  1247   846   848    1
  1248   846   847    1
  1249  1505  1504    2
  1250  1628  1627   ar
  1251   516   517   ar
  1252   516   514   ar
  1253  1689  1688    1
  1254  1322  1321   ar
  1255   695   697    1
  1256  1468  1467    1
  1257  1427  1428    1
  1258  1326  1325    2
  1259    81    79   ar
  1260    81    82   ar
  1261  2305  2306    1
  1262  1710  1711   ar
  1263  1710  1708   ar
  1264    15    14    2
  1265  1709  1708    2
  1266   544   543    1
  1267   477   476   ar
  1268  1516  1523   ar
  1269  2123  2121   ar
  1270  2123  2124   ar
  1271  2145  2144    1
  1272  1508  1507    1
  1273   204   203   ar
  1274   204   205   ar
  1275   899   898    2
  1276   517   510   ar
  1277    79    78   ar
  1278  1839  1838    1
  1279   714   716    1
  1280   714   715    1
  1281   682   683    1
  1282   754   752    2
  1283   865   864    1
  1284   865   870    1
  1285   503   504    1
  1286   503   505    1
  1287  1306  1305    2
  1288  1472  1471    1
  1289   871   881   ar
  1290   871   870    1
  1291   105   104   ar
  1292  2166  2167    2
  1293  2166  2165   ar
  1294  1947  1948   ar
  1295   732   733    1
  1296   207   205   ar
  1297  2321  2314   ar
  1298  1898  1899    1
  1299  1898  1896    1
  1300  1898  1900    1
  1301  1471  1469    1
  1302  2063  2064    1
  1303  2121  2120   ar
  1304  1668  1670   ar
  1305  1668  1667   ar
  1306  2028  2027    1
  1307  1836  1835   ar
  1308  1836  1837   ar
  1309   848   849    1
  1310  2100  2099    1
  1311  1645  1646   ar
  1312  1645  1651   ar
  1313   792   791    2
  1314  1506  1504    1
  1315  1948  1949    1
  1316  2025  2027    1
  1317  2025  2023    1
  1318  1325  1327   ar
  1319  1507  1504    1
  1320   433   432   ar
  1321   433   427   ar
  1322   473   472    1
  1323  2160  2159    1
  1324   716   718    1
  1325   504   509    1
  1326  1997  1995    2
  1327  1451  1449    1
  1328  1451  1446    1
  1329   537   530   ar
  1330   697   698    1
  1331  1711  1713   ar
  1332   432   431   ar
  1333  1519  1520   ar
  1334  1646  1648   ar
  1335  2125  2124    1
  1336   455   449   ar
  1337   455   454   ar
  1338  1901  1900    1
  1339  1901  1902   ar
  1340    83    82    2
  1341  1912  1914    2
  1342  1912  1897    1
  1343  1912  1913    1
  1344  1708  1707   ar
  1345   881   880   ar
  1346  1504  1492    1
  1347   543   542    1
  1348    62    63   ar
  1349    62    60   ar
  1350   472   474   ar
  1351  1670  1671   ar
  1352   449   450   ar
  1353   864   866    1
  1354  1903  1902   ar
  1355   797   795    2
  1356  1888  1882   ar
  1357  1888  1879   ar
  1358   753   752    1
  1359   733   734    1
  1360   530   529    1
  1361    61    60    1
  1362  1426  1440    1
  1363    38    37    2
  1364   185   184   ar
  1365   185   186    1
  1366  2172  2165   ar
  1367  2172  2162   ar
  1368  2074  2073   ar
  1369  2074  2075   ar
  1370  1440  1443    1
  1371  1440  1441    1
  1372   877   878   ar
  1373  1968  1969    2
  1374  1968  1967   ar
  1375  1285  1284   ar
  1376  1285  1287   ar
  1377   426   427   ar
  1378  1333  1332    1
  1379   795   796    1
  1380   795   783    1
  1381   505   507    1
  1382   505   506    1
  1383  1523  1522   ar
  1384    82    84   ar
  1385  1636  1635    1
  1386  1636  1641    1
  1387   205   206    2
  1388   520   518    2
  1389  1882  1881   ar
  1390  2173  2174    2
  1391  2173  2175    1
  1392  2173  2158    1
  1393   515   514    2
  1394  1835  1834   ar
  1395   870   868    1
  1396  1799  1798    1
  1397  2124  2126   ar
  1398  1642  1651   ar
  1399  1642  1641    1
  1400  1897  1896    1
  1401   514   513   ar
  1402   793   791   ar
  1403   793   794   ar
  1404   791   790   ar
  1405  2317  2315   ar
  1406  1443  1444    1
  1407  1896  1894    1
  1408  1900  1895    1
  1409  1635  1637    1
  1410  2159  2161    1
  1411  2159  2157    1
  1412  1965  1967   ar
  1413  1965  1966    2
  1414    14    13   ar
  1415    14    16   ar
  1416   850   849   ar
  1417   850   851   ar
  1418  1449  1447    1
  1419  1449  1450    1
  1420  2027  2029    1
  1421  1446  1445    1
  1422    76    75    1
  1423  1304  1305   ar
  1424  1304  1302   ar
  1425   752   737    1
  1426   752   755    1
  1427  2165  2164   ar
  1428  2144  2146   ar
  1429  2144  2143   ar
  1430    90    89    1
  1431  2306  2307    1
  1432  1688  1687   ar
  1433  1688  1690   ar
  1434   849   858   ar
  1435   898   900   ar
  1436   898   897   ar
  1437  2146  2147   ar
  1438  1838  1837   ar
  1439  1838  1840   ar
  1440  1305  1307   ar
  1441  2064  2065    1
  1442  1996  1995    1
  1443   715   720    1
  1444  1667  1665   ar
  1445  2023  2024    1
  1446  2023  2022    1
  1447  2073  2072   ar
  1448  1654  1652    2
  1449  1977  1978    1
  1450  1977  1979    1
  1451  1467  1469    1
  1452  1467  1466    1
  1453  1837  1843   ar
  1454  1321  1320    1
  1455  1321  1328   ar
  1456  2077  2076    2
  1457   476   475   ar
  1458    63    64   ar
  1459   507   509    1
  1460   507   508    1
  1461  1985  1986   ar
  1462  1985  1984   ar
  1463  1284  1282   ar
  1464   510   509    1
  1465   510   511   ar
  1466    12    13   ar
  1467    12    11   ar
  1468   427   428   ar
  1469   777   775    2
  1470  1319  1318    1
  1471    60    59   ar
  1472   699   698   ar
  1473   699   700   ar
  1474  1986  1987   ar
  1475  1520  1522   ar
  1476  1520  1521    2
  1477    78    77    1
  1478    78    85   ar
  1479  1651  1650   ar
  1480  1687  1685   ar
  1481  1995  1980    1
  1482  1995  1998    1
  1483   698   708   ar
  1484   900   901   ar
  1485  2038  2037   ar
  1486  2038  2039   ar
  1487  1332  1329    1
  1488   541   542    1
  1489   541   538    1
  1490   454   453   ar
  1491  2314  2315   ar
  1492  2314  2313    1
  1493  1978  1983    1
  1494  2029  2024    1
  1495  2029  2030    1
  1496  2158  2157    1
  1497  2099  2101   ar
  1498  2099  2098   ar
  1499  1318  1320    1
  1500  1318  1316    1
  1501  1469  1470    1
  1502  2120  2119   ar
  1503  2120  2127   ar
  1504    75    77    1
  1505    75    73    1
  1506  1979  1980    1
  1507  1979  1981    1
  1508   431   430   ar
  1509   866   868    1
  1510   866   867    1
  1511    77    72    1
  1512  1327  1328   ar
  1513  1320  1315    1
  1514   737   736    1
  1515  1637  1638    1
  1516  1637  1639    1
  1517  1713  1714   ar
  1518  1641  1639    1
  1519    13    20   ar
  1520  1648  1649   ar
  1521   880   878   ar
  1522  1447  1445    1
  1523  1447  1448    1
  1524  2037  2036   ar
  1525   794   787   ar
  1526    89    86    1
  1527  2162  2161    1
  1528  2162  2163   ar
  1529   474   475   ar
  1530  1287  1288   ar
  1531    37    39   ar
  1532    37    36   ar
  1533   878   879    1
  1534   790   788   ar
  1535    16    17   ar
  1536  1879  1878    1
  1537  1879  1880   ar
  1538   718   719    1
  1539   718   720    1
  1540  1707  1714   ar
  1541  1707  1706   ar
  1542  1671  1664   ar
  1543   450   451    1
  1544   450   452   ar
  1545  2075  2076   ar
  1546  2075  2082   ar
  1547   728   727   ar
  1548   728   721   ar
  1549  2161  2156    1
  1550  2315  2316    2
  1551  2308  2307    1
  1552  2308  2313    1
  1553  1465  1466    1
  1554  1465  1462    1
  1555   851   852   ar
  1556  1303  1302    2
  1557   506   518    1
  1558   540   538    2
  1559   884   882    2
  1560    39    40   ar
  1561  2157  2155    1
  1562  2022  2021    1
  1563  2076  2078   ar
  1564   734   736    1
  1565   734   735    1
  1566   529   527    1
  1567   529   524    1
  1568  1492  1491    1
  1569   858   857   ar
  1570   858   852   ar
  1571   783   782    1
  1572  1690  1691   ar
  1573  2101  2102   ar
  1574  1445  1444    1
  1575  1878  1873    1
  1576  1878  1876    1
  1577  1302  1301   ar
  1578   513   511   ar
  1579   518   521    1
  1580   518   519    1
  1581   527   525    1
  1582   527   528    1
  1583  1798  1797   ar
  1584  1798  1800   ar
  1585   868   869    1
  1586  2126  2127   ar
  1587   736   738    1
  1588    84    85   ar
  1589  1834  1843   ar
  1590  1834  1833    1
  1591  1881  1880   ar
  1592  2143  2142   ar
  1593  2143  2149   ar
  1594  2097  2098   ar
  1595  2097  2096   ar
  1596  1816  1815    2
  1597   897   895   ar
  1598   727   725   ar
  1599  2119  2118   ar
  1600  2147  2148   ar
  1601  1840  1841   ar
  1602   720   721    1
  1603  2307  2309    1
  1604    11    10   ar
  1605  1832  1831    1
  1606  1895  1894    1
  1607   755   756    1
  1608   782   784    1
  1609   782   780    1
  1610   511   512    2
  1611  1714  1704   ar
  1612  1812  1811    1
  1613   700   701   ar
  1614   521   522    1
  1615  1797  1795   ar
  1616  2164  2163   ar
  1617  1843  1842   ar
  1618  1894  1893    1
  1619   778   775    1
  1620   778   779    1
  1621   775   776    1
  1622   775   760    1
  1623  2098  2104   ar
  1624  1984  1983    1
  1625  1984  1994   ar
  1626  1638  1652    1
  1627  2127  2117   ar
  1628  2085  2083    2
  1629  1470  1484    1
  1630  1307  1308   ar
  1631  1665  1664   ar
  1632  1665  1666    2
  1633  1873  1872    1
  1634   857   856   ar
  1635  2142  2141   ar
  1636  2066  2065    1
  1637  2066  2071    1
  1638   428   430   ar
  1639   428   429    1
  1640    64    65   ar
  1641  2072  2082   ar
  1642  2072  2071    1
  1643  1282  1283    2
  1644  1282  1281   ar
  1645  1652  1655    1
  1646  1652  1653    1
  1647  1890  1889    2
  1648  2065  2067    1
  1649  2313  2311    1
  1650   852   853   ar
  1651  2039  2030   ar
  1652  2039  2033   ar
  1653  1831  1833    1
  1654  1831  1829    1
  1655  1639  1640    1
  1656   538   526    1
  1657   538   539    1
  1658  1464  1462    2
  1659   525   526    1
  1660   525   523    1
  1661   784   785    1
  1662   784   786    1
  1663   787   788   ar
  1664   787   786    1
  1665  1650  1649   ar
  1666   453   452   ar
  1667  2030  2031   ar
  1668   788   789    2
  1669   708   707   ar
  1670   708   701   ar
  1671  1983  1981    1
  1672   867   882    1
  1673   901   894   ar
  1674    59    65   ar
  1675    59    58   ar
  1676  1987  1994   ar
  1677  1987  1988   ar
  1678  1685  1686    2
  1679  1685  1684   ar
  1680   721   722   ar
  1681  1875  1889    1
  1682  1875  1874    1
  1683  1998  1999    1
  1684  1664  1663    1
  1685  1892  1893    1
  1686  1892  1889    1
  1687   742   743   ar
  1688   742   741   ar
  1689  1706  1705   ar
  1690  1877  1876    1
  1691   735   740    1
  1692  1316  1317    1
  1693  1316  1314    1
  1694  1448  1462    1
  1695   524   523    1
  1696  2036  2034   ar
  1697    72    71    1
  1698  2082  2081   ar
  1699   766   765   ar
  1700   766   767   ar
  1701  1981  1982    1
  1702    20    10   ar
  1703    20    19   ar
  1704   743   744   ar
  1705  1329  1317    1
  1706  1329  1331    2
  1707  1329  1330    1
  1708  1462  1463    1
  1709  1989  1988    2
  1710    36    35   ar
  1711    36    43   ar
  1712  1315  1314    1
  1713  2021  2018    1
  1714  1288  1281   ar
  1715  1491  1489    1
  1716  1491  1493    1
  1717    41    40    1
  1718  1800  1801   ar
  1719    73    74    1
  1720    73    71    1
  1721   882   883    1
  1722   882   885    1
  1723  1833  1828    1
  1724    17    18    1
  1725    17    19   ar
  1726    40    42   ar
  1727  2067  2068    1
  1728  2067  2069    1
  1729   707   705   ar
  1730  2155  2156    1
  1731  2155  2154    1
  1732    65    56   ar
  1733   701   702   ar
  1734  1876  1874    1
  1735  2149  2148   ar
  1736  2149  2140   ar
  1737  1889  1891    1
  1738   769   768    2
  1739  1655  1656    1
  1740    35    34   ar
  1741  2071  2069    1
  1742  2311  2309    1
  1743  2311  2312    1
  1744  1872  1874    1
  1745  1872  1871    1
  1746  1841  1842   ar
  1747  1301  1308   ar
  1748  1301  1300    1
  1749    86    74    1
  1750    86    88    2
  1751    86    87    1
  1752  1691  1684   ar
  1753   765   764   ar
  1754    10     9    1
  1755  1994  1993   ar
  1756  2078  2079   ar
  1757  2096  2095   ar
  1758  1815  1817   ar
  1759  1815  1814   ar
  1760  2102  2103   ar
  1761   756   757    1
  1762   786   781    1
  1763  2118  2117   ar
  1764   856   855   ar
  1765  1988  1990   ar
  1766  1281  1280    1
  1767   779   780    1
  1768  2309  2310    1
  1769   523   522    1
  1770   895   894   ar
  1771   895   896    2
  1772   725   726    2
  1773   725   724   ar
  1774  2009  2008   ar
  1775  2009  2010   ar
  1776  1494  1493    1
  1777  1813  1811    1
  1778  1813  1814    1
  1779  1813  1808    1
  1780   853   855   ar
  1781   853   854    1
  1782   780   781    1
  1783  1811  1809    1
  1784  1795  1796    2
  1785  1795  1794   ar
  1786  2117  2116    1
  1787   738   740    1
  1788   738   739    1
  1789  1704  1705   ar
  1790  1704  1703    1
  1791  2141  2140   ar
  1792  1684  1683    1
  1793    58    57   ar
  1794   894   893    1
  1795    71    70    1
  1796  1828  1827    1
  1797  1829  1827    1
  1798  1829  1830    1
  1799   760   759    1
  1800  2104  2103   ar
  1801  2104  2095   ar
  1802  1487  1484    1
  1803  1487  1488    1
  1804   741   740    1
  1805   741   751   ar
  1806   759   757    1
  1807   759   761    1
  1808  1314  1313    1
  1809  2083  2068    1
  1810  2083  2084    1
  1811  2083  2086    1
  1812  1999  2000    1
  1813  2033  2034   ar
  1814  2033  2032   ar
  1815  1004  1003    1
  1816   919   918    1
  1817   767   768   ar
  1818   767   774   ar
  1819  2008  2007   ar
  1820     1     2    1
  1821  1489  1488    1
  1822  1489  1490    1
  1823  2031  2032   ar
  1824  1484  1486    2
  1825  1484  1485    1
  1826   885   886    1
  1827   722   724   ar
  1828   722   723    2
  1829   768   770   ar
  1830  2034  2035    1
  1831  2069  2070    1
  1832  1817  1818   ar
  1833  2012  2011    2
  1834  1493  1495    1
  1835   744   751   ar
  1836   744   745   ar
  1837    43    42   ar
  1838    43    33   ar
  1839  1814  1821   ar
  1840  2140  2139    1
  1841  1808  1807    1
  1842  1775  1776   ar
  1843  1775  1773   ar
  1844  1663  1658    1
  1845  1663  1661    1
  1846  2081  2079   ar
  1847  1801  1794   ar
  1848  1801  1791   ar
  1849   705   704   ar
  1850   705   706    1
  1851  1774  1773    1
  1852  1826  1827    1
  1853  1826  1825    1
  1854  1658  1657    1
  1855  2095  2094    1
  1856   757   758    1
  1857  2079  2080    1
  1858  2154  2153    1
  1859   702   704   ar
  1860   702   703    2
  1861  1846  1844    2
  1862   764   774   ar
  1863   764   763    1
  1864  1871  1870    1
  1865  1825  1822    1
  1866  2018  2020    2
  1867  2018  2019    1
  1868  2018  2003    1
  1869  1810  1809    1
  1870  1810  1822    1
  1871    56    57   ar
  1872    56    55    1
  1873     2     3    1
  1874  1807  1809    1
  1875  1807  1806    1
  1876    34    33   ar
  1877  1300  1298    1
  1878  1300  1295    1
  1879   746   745    2
  1880  1244  1243    1
  1881  1703  1701    1
  1882  1703  1698    1
  1883   751   750   ar
  1884  1794  1793   ar
  1885     4     9    1
  1886     4     3    1
  1887  2130  2128    2
  1888  1656  1657    1
  1889  1830  1844    1
  1890  1702  1701    1
  1891  2010  2011   ar
  1892  2010  2017   ar
  1893     9     7    1
  1894  1993  1991   ar
  1895  2086  2087    1
  1896  1732  1731    1
  1897  1266  1265   ar
  1898  1266  1267   ar
  1899   761   763    1
  1900   761   762    1
  1901  1674  1672    2
  1902  1776  1777   ar
  1903  1990  1991   ar
  1904  1490  1495    1
  1905   774   773   ar
  1906  2116  2114    1
  1907  2116  2111    1
  1908   745   747   ar
  1909   918   920   ar
  1910   918   917   ar
  1911  1280  1275    1
  1912  1280  1278    1
  1913  1298  1299    1
  1914  1298  1296    1
  1915   758   763    1
  1916  2011  2013   ar
  1917  1701  1699    1
  1918  1495  1496    1
  1919  1773  1772   ar
  1920  1823  1822    2
  1921  2114  2115    1
  1922  2114  2112    1
  1923  1854  1853    1
  1924  1870  1867    1
  1925  1312  1313    1
  1926  1312  1309    1
  1927  1003  1005   ar
  1928  1003  1002   ar
  1929   770   771   ar
  1930  1659  1661    1
  1931  1659  1657    1
  1932  1659  1660    1
  1933  2002  2000    1
  1934  2002  2003    1
  1935  2002  2004    1
  1936  2000  2001    1
  1937   893   888    1
  1938   893   891    1
  1939  1789  1788    1
  1940  1683  1681    1
  1941  1683  1678    1
  1942  1661  1662    1
  1943    33    32    1
  1944    70    69    1
  1945  1265  1263   ar
  1946  1754  1753    1
  1947  2007  2017   ar
  1948  2007  2006    1
  1949  1822  1824    1
  1950   888   887    1
  1951   886   887    1
  1952  1267  1268   ar
  1953   920   921   ar
  1954     3     5    1
  1955    23    21    2
  1956  1991  1992    1
  1957   917   915   ar
  1958  2001  2006    1
  1959  1818  1819    2
  1960  1818  1820   ar
  1961    69    66    1
  1962   891   889    1
  1963   891   892    1
  1964  2107  2105    2
  1965  1844  1847    1
  1966  1844  1845    1
  1967  1275  1274    1
  1968  2153  2150    1
  1969  1791  1790    1
  1970  1791  1792   ar
  1971  2139  2137    1
  1972  2139  2134    1
  1973  1853  1851    1
  1974  1853  1855    1
  1975     5     7    1
  1976     5     6    1
  1977    55    53    1
  1978    55    50    1
  1979  1279  1278    1
  1980  1821  1820   ar
  1981  1005  1006   ar
  1982  2137  2135    1
  1983  2137  2138    1
  1984    53    54    1
  1985    53    51    1
  1986  1002  1000   ar
  1987  1790  1788    1
  1988  1790  1785    1
  1989  1295  1294    1
  1990  1278  1276    1
  1991   750   748   ar
  1992     7     8    1
  1993  2017  2016   ar
  1994  1788  1786    1
  1995  1243  1242   ar
  1996  1243  1245   ar
  1997  1242  1240   ar
  1998  1847  1848    1
  1999  1806  1805    1
  2000  1698  1697    1
  2001  2094  2089    1
  2002  2094  2092    1
  2003   889   887    1
  2004   889   890    1
  2005  2112  2113    1
  2006  2112  2110    1
  2007  1681  1682    1
  2008  1681  1679    1
  2009  1296  1297    1
  2010  1296  1294    1
  2011  1678  1677    1
  2012   773   771   ar
  2013  1717  1715    2
  2014  2111  2110    1
  2015  1311  1309    2
  2016   771   772    1
  2017   747   748   ar
  2018  1793  1792   ar
  2019  1731  1730   ar
  2020  1731  1733   ar
  2021  1858  1857   ar
  2022  1858  1859   ar
  2023  2006  2004    1
  2024  1861  1860    2
  2025  1777  1778   ar
  2026  2087  2088    1
  2027  1257  1256    1
  2028  2128  2131    1
  2029  2128  2113    1
  2030  2128  2129    1
  2031  2089  2088    1
  2032  1729  1730   ar
  2033  1729  1728   ar
  2034  1672  1675    1
  2035  1672  1660    1
  2036  1672  1673    1
  2037  1857  1856   ar
  2038  1675  1676    1
  2039  1851  1852    1
  2040  1851  1849    1
  2041  2004  2005    1
  2042  2131  2132    1
  2043  2013  2014   ar
  2044  2135  2136    1
  2045  2135  2133    1
  2046  1859  1860   ar
  2047  1859  1866   ar
  2048  1498  1497    2
  2049   921   914   ar
  2050  2090  2092    1
  2051  2090  2088    1
  2052  2090  2091    1
  2053  1860  1862   ar
  2054  1772  1778   ar
  2055  1772  1771   ar
  2056  2108  2105    1
  2057  2108  2109    1
  2058  1309  1297    1
  2059  1309  1310    1
  2060   748   749    1
  2061   939   938    1
  2062  1699  1697    1
  2063  1699  1700    1
  2064  1496  1497   ar
  2065  1496  1503   ar
  2066   915   914   ar
  2067   915   916    2
  2068  1856  1866   ar
  2069  1856  1855    1
  2070  1027  1026   ar
  2071  1027  1028   ar
  2072  1263  1264    1
  2073  1263  1262   ar
  2074  2134  2133    1
  2075  2092  2093    1
  2076  1026  1025   ar
  2077  1753  1752   ar
  2078  1753  1755   ar
  2079  1268  1262   ar
  2080  1268  1259   ar
  2081  1866  1865   ar
  2082  1867  1869    2
  2083  1867  1852    1
  2084  1867  1868    1
  2085    32    30    1
  2086    32    27    1
  2087  1730  1736   ar
  2088   994   993    1
  2089  1679  1677    1
  2090  1679  1680    1
  2091  1862  1863   ar
  2092     6    21    1
  2093  1294  1293    1
  2094    21    24    1
  2095    21    22    1
  2096  2105  2091    1
  2097  2105  2106    1
  2098  1855  1850    1
  2099    51    52    1
  2100    51    49    1
  2101   960   961   ar
  2102   960   958   ar
  2103  2110  2109    1
  2104  1778  1769   ar
  2105  1241  1240    2
  2106  1733  1734   ar
  2107  1245  1246   ar
  2108  1752  1750   ar
  2109    50    49    1
  2110    68    66    2
  2111  1848  1849    1
  2112  1274  1276    1
  2113  1274  1273    1
  2114  1006   999   ar
  2115  1006   996   ar
  2116   914   913    1
  2117  1805  1802    1
  2118  1013  1018    1
  2119  1013  1012    1
  2120  1240  1239   ar
  2121  1785  1784    1
  2122    24    25    1
  2123  1865  1863   ar
  2124    66    52    1
  2125    66    67    1
  2126  1697  1696    1
  2127  1017  1016    1
  2128  2150  2151    2
  2129  2150  2136    1
  2130  2150  2152    1
  2131  1497  1499   ar
  2132   959   958    1
  2133  1863  1864    1
  2134  1000  1001    2
  2135  1000   999   ar
  2136  1677  1676    1
  2137  1700  1715    1
  2138   890   902    1
  2139  2016  2014   ar
  2140  1256  1258    1
  2141  1256  1254    1
  2142  1694  1692    2
  2143  1276  1277    1
  2144  1018  1016    1
  2145  1018  1019    1
  2146  1728  1727   ar
  2147  1273  1272    1
  2148  1503  1502   ar
  2149  1262  1261   ar
  2150  2133  2132    1
  2151   978   977    2
  2152  1849  1850    1
  2153  1258  1259    1
  2154  1258  1253    1
  2155  1715  1716    1
  2156  1715  1718    1
  2157   961   962   ar
  2158    30    28    1
  2159    30    31    1
  2160    27    26    1
  2161  1786  1787    1
  2162  1786  1784    1
  2163  2014  2015    1
  2164   938   937   ar
  2165   938   940   ar
  2166  1771  1770   ar
  2167   995   996    1
  2168   995   993    1
  2169   995   990    1
  2170   937   935   ar
  2171  1259  1260   ar
  2172  1293  1292    1
  2173    46    44    2
  2174  1012  1011    1
  2175  1012  1014    1
  2176   958   957   ar
  2177  1755  1756   ar
  2178  1025  1023   ar
  2179   999   998   ar
  2180  1277  1289    1
  2181  1695  1696    1
  2182  1695  1692    1
  2183  1028  1019   ar
  2184  1028  1022   ar
  2185  1787  1802    1
  2186   996   997   ar
  2187    49    48    1
  2188   993   991    1
  2189    28    26    1
  2190    28    29    1
  2191  1784  1783    1
  2192    47    44    1
  2193    47    48    1
  2194   979   977   ar
  2195   979   980   ar
  2196  1016  1014    1
  2197  1680  1692    1
  2198  1246  1239   ar
  2199  1246  1236   ar
  2200  1019  1020   ar
  2201  1736  1727   ar
  2202  1736  1735   ar
  2203   913   908    1
  2204   913   911    1
  2205  1239  1238   ar
  2206   977   976   ar
  2207  1011  1010    1
  2208  1692  1693    1
  2209   908   907    1
  2210  1734  1735   ar
  2211  1750  1751    2
  2212  1750  1749   ar
  2213  1769  1770   ar
  2214  1769  1768    1
  2215   990   989    1
  2216  1802  1803    2
  2217  1802  1804    1
  2218    26    25    1
  2219  1718  1719    1
  2220  1727  1726    1
  2221  1499  1500   ar
  2222   940   941   ar
  2223  1253  1252    1
  2224   935   936    2
  2225   935   934   ar
  2226  1255  1254    1
  2227  1255  1269    1
  2228   962   963   ar
  2229  1014  1015    1
  2230  1261  1260   ar
  2231    44    29    1
  2232    44    45    1
  2233  1254  1252    1
  2234  1502  1500   ar
  2235   981   980    1
  2236  1015  1029    1
  2237   904   902    2
  2238   902   903    1
  2239   902   905    1
  2240  1272  1269    1
  2241  1292  1289    1
  2242   957   963   ar
  2243   957   956   ar
  2244  1023  1022   ar
  2245  1023  1024    1
  2246   980   982   ar
  2247  1022  1021   ar
  2248  1756  1749   ar
  2249   998   997   ar
  2250   989   991    1
  2251   989   988    1
  2252  1291  1289    2
  2253  1252  1251    1
  2254  1289  1290    1
  2255  1270  1269    2
  2256   991   992    1
  2257   963   954   ar
  2258   992  1007    1
  2259  1768  1766    1
  2260  1768  1763    1
  2261  1500  1501    2
  2262  1749  1748    1
  2263   906   907    1
  2264   906   905    1
  2265  1783  1782    1
  2266  1236  1235    1
  2267  1236  1237   ar
  2268  1269  1271    1
  2269  1234  1233    1
  2270  1020  1021   ar
  2271  1010  1007    1
  2272  1766  1767    1
  2273  1766  1764    1
  2274   976   975    1
  2275   976   983   ar
  2276   941   934   ar
  2277   934   933    1
  2278   974   973    1
  2279  1238  1237   ar
  2280   911   909    1
  2281   911   912    1
  2282   907   909    1
  2283  1721  1726    1
  2284  1721  1720    1
  2285  1719  1720    1
  2286  1782  1779    1
  2287  1033  1034    1
  2288  1033  1032    1
  2289  1726  1724    1
  2290   956   955   ar
  2291   975   973    1
  2292   975   970    1
  2293  1235  1233    1
  2294  1235  1230    1
  2295  1233  1231    1
  2296  1030  1029    2
  2297   973   971    1
  2298  1029  1032    1
  2299  1029  1031    1
  2300   909   910    1
  2301   982   983   ar
  2302  1007  1008    2
  2303  1007  1009    1
  2304  1035  1034    1
  2305  1035  1040    1
  2306  1034  1036    1
  2307   988   987    1
  2308  1720  1722    1
  2309   954   955   ar
  2310   954   953    1
  2311  1739  1737    2
  2312  1251  1250    1
  2313  1763  1762    1
  2314  1722  1724    1
  2315  1722  1723    1
  2316   933   928    1
  2317   933   931    1
  2318  1764  1765    1
  2319  1764  1762    1
  2320  1748  1746    1
  2321  1748  1743    1
  2322  1724  1725    1
  2323   970   969    1
  2324  1230  1229    1
  2325   928   927    1
  2326  1779  1781    2
  2327  1779  1765    1
  2328  1779  1780    1
  2329   987   984    1
  2330   953   951    1
  2331   953   948    1
  2332  1250  1247    1
  2333  1231  1232    1
  2334  1231  1229    1
  2335  1746  1744    1
  2336  1746  1747    1
  2337  1040  1041    1
  2338  1040  1038    1
  2339   910   922    1
  2340  1743  1742    1
  2341  1762  1761    1
  2342   971   969    1
  2343   971   972    1
  2344   924   922    2
  2345  1740  1737    1
  2346  1740  1741    1
  2347  1232  1247    1
  2348  1737  1723    1
  2349  1737  1738    1
  2350  1042  1041   ar
  2351  1042  1043   ar
  2352  1036  1037    1
  2353  1036  1038    1
  2354   931   932    1
  2355   931   929    1
  2356  1039  1038    1
  2357  1037  1051    1
  2358  1229  1228    1
  2359   969   968    1
  2360   951   952    1
  2361   951   949    1
  2362  1744  1742    1
  2363  1744  1745    1
  2364   972   984    1
  2365   925   922    1
  2366   925   926    1
  2367   948   947    1
  2368  1041  1050   ar
  2369  1760  1761    1
  2370  1760  1757    1
  2371   922   923    1
  2372  1247  1249    2
  2373  1247  1248    1
  2374  1043  1044   ar
  2375  1759  1757    2
  2376   927   929    1
  2377   927   926    1
  2378   984   986    2
  2379   984   985    1
  2380  1742  1741    1
  2381   929   930    1
  2382  1052  1051    2
  2383  1051  1053    1
  2384  1051  1054    1
  2385  1757  1745    1
  2386  1757  1758    1
  2387  1050  1044   ar
  2388  1050  1049   ar
  2389  1044  1045   ar
  2390   949   947    1
  2391   949   950    1
  2392  1228  1227    1
  2393   968   967    1
  2394   947   946    1
  2395   967   964    1
  2396  1218  1217    2
  2397  1227  1224    1
  2398  1049  1048   ar
  2399  1225  1224    2
  2400  1214  1213    1
  2401   930   942    1
  2402   945   946    1
  2403   945   942    1
  2404  1045  1046    1
  2405  1045  1047   ar
  2406  1217  1219   ar
  2407  1217  1216   ar
  2408  1219  1220   ar
  2409   950   964    1
  2410  1054  1055    1
  2411   944   942    2
  2412  1224  1212    1
  2413  1224  1226    1
  2414  1055  1056    1
  2415  1048  1047   ar
  2416  1212  1211    1
  2417   942   943    1
  2418   964   966    2
  2419   964   965    1
  2420  1123  1121    1
  2421  1215  1216    1
  2422  1215  1213    1
  2423  1215  1210    1
  2424  1221  1220    2
  2425  1220  1222   ar
  2426  1216  1223   ar
  2427  1213  1211    1
  2428  1057  1056    1
  2429  1057  1062    1
  2430  1064  1065   ar
  2431  1064  1063   ar
  2432  1065  1066   ar
  2433  1211  1209    1
  2434  1056  1058    1
  2435  1223  1222   ar
  2436  1210  1209    1
  2437  1122  1121    1
  2438  1121  1124    1
  2439  1209  1208    1
  2440  1063  1062    1
  2441  1063  1072   ar
  2442  1066  1067   ar
  2443  1066  1072   ar
  2444  1062  1060    1
  2445  1201  1200    2
  2446  1068  1067    1
  2447  1058  1059    1
  2448  1058  1060    1
  2449  1067  1069   ar
  2450  1072  1071   ar
  2451  1199  1200   ar
  2452  1199  1197   ar
  2453  1124  1125    1
  2454  1200  1202   ar
  2455  1059  1073    1
  2456  1060  1061    1
  2457  1075  1073    2
  2458  1208  1207    1
  2459  1198  1197    2
  2460  1069  1070   ar
  2461  1125  1126    1
  2462  1071  1070   ar
  2463  1181  1180    2
  2464  1197  1196   ar
  2465  1207  1204    1
  2466  1073  1074    1
  2467  1073  1076    1
  2468  1135  1134   ar
  2469  1135  1136   ar
  2470  1202  1203   ar
  2471  1146  1144    2
  2472  1090  1089    2
  2473  1134  1133   ar
  2474  1161  1160    1
  2475  1087  1086   ar
  2476  1087  1088   ar
  2477  1138  1137    2
  2478  1180  1179   ar
  2479  1180  1182   ar
  2480  1196  1203   ar
  2481  1196  1195    1
  2482  1126  1128    1
  2483  1126  1127    1
  2484  1206  1204    2
  2485  1086  1085   ar
  2486  1204  1205    1
  2487  1204  1192    1
  2488  1089  1088   ar
  2489  1089  1091   ar
  2490  1076  1077    1
  2491  1136  1137   ar
  2492  1136  1143   ar
  2493  1088  1095   ar
  2494  1193  1195    1
  2495  1193  1194    1
  2496  1193  1191    1
  2497  1179  1177   ar
  2498  1182  1183   ar
  2499  1162  1160   ar
  2500  1162  1163   ar
  2501  1137  1139   ar
  2502  1128  1129    1
  2503  1128  1130    1
  2504  1160  1159   ar
  2505  1113  1112    1
  2506  1127  1132    1
  2507  1144  1129    1
  2508  1144  1145    1
  2509  1144  1147    1
  2510  1133  1143   ar
  2511  1133  1132    1
  2512  1195  1190    1
  2513  1191  1192    1
  2514  1191  1189    1
  2515  1085  1095   ar
  2516  1085  1084    1
  2517  1077  1078    1
  2518  1091  1092   ar
  2519  1143  1142   ar
  2520  1095  1094   ar
  2521  1132  1130    1
  2522  1079  1084    1
  2523  1079  1078    1
  2524  1163  1156   ar
  2525  1183  1176   ar
  2526  1177  1178    2
  2527  1177  1176   ar
  2528  1147  1148    1
  2529  1159  1157   ar
  2530  1166  1164    2
  2531  1112  1114   ar
  2532  1112  1111   ar
  2533  1130  1131    1
  2534  1139  1140   ar
  2535  1190  1189    1
  2536  1186  1184    2
  2537  1084  1082    1
  2538  1078  1080    1
  2539  1114  1115   ar
  2540  1176  1175    1
  2541  1092  1094   ar
  2542  1092  1093    1
  2543  1187  1188    1
  2544  1187  1184    1
  2545  1189  1188    1
  2546  1111  1109   ar
  2547  1142  1140   ar
  2548  1156  1157   ar
  2549  1156  1155    1
  2550  1157  1158    2
  2551  1140  1141    1
  2552  1080  1082    1
  2553  1080  1081    1
  2554  1148  1149    1
  2555  1184  1185    1
  2556  1184  1172    1
  2557  1098  1096    2
  2558  1164  1167    1
  2559  1164  1165    1
  2560  1164  1152    1
  2561  1082  1083    1
  2562  1115  1108   ar
  2563  1167  1168    1
  2564  1151  1149    1
  2565  1151  1152    1
  2566  1151  1153    1
  2567  1173  1175    1
  2568  1173  1171    1
  2569  1173  1174    1
  2570  1109  1108   ar
  2571  1109  1110    2
  2572  1175  1170    1
  2573  1171  1172    1
  2574  1171  1169    1
  2575  1150  1149    1
  2576  1150  1155    1
  2577  1155  1153    1
  2578  1081  1096    1
  2579  1108  1107    1
  2580  1153  1154    1
  2581  1170  1169    1
  2582  1096  1099    1
  2583  1096  1097    1
  2584  1168  1169    1
  2585  1099  1100    1
  2586  1107  1102    1
  2587  1107  1105    1
  2588  1102  1101    1
  2589  1100  1101    1
  2590  1105  1103    1
  2591  1105  1106    1
  2592  1101  1103    1
  2593  1103  1104    1
  2594  1118  1116    2
  2595  1119  1116    1
  2596  1119  1120    1
  2597  1104  1116    1
  2598  1116  1117    1
