lig.pdb
 OpenBabel11021811513D
libRbt.so/2013.1/901 2013/11/27
 42 45  0  0  0  0  0  0  0  0999 V2000
   -1.2526   16.3241   35.7054 C   0  0  2  0  0  0  0  0  0  0  0  0
   -1.9475   16.8391   36.8839 O   0  0  0  0  0  0  0  0  0  0  0  0
    0.2393   16.0126   36.1716 C   0  0  2  0  0  0  0  0  0  0  0  0
    0.2420   14.9825   37.2141 N   0  0  0  0  0  0  0  0  0  0  0  0
    0.9218   17.3794   36.6673 C   0  0  1  0  0  0  0  0  0  0  0  0
    2.2831   17.1575   37.0921 O   0  0  0  0  0  0  0  0  0  0  0  0
    0.8492   18.3744   35.4963 C   0  0  2  0  0  0  0  0  0  0  0  0
    1.4297   19.5709   35.8902 O   0  0  0  0  0  0  0  0  0  0  0  0
   -0.6715   18.5944   35.0633 C   0  0  2  0  0  0  0  0  0  0  0  0
   -1.2795   17.3628   34.6546 O   0  0  0  0  0  0  0  0  0  0  0  0
   -0.7965   19.5460   33.9074 C   0  0  0  0  0  0  0  0  0  0  0  0
   -2.1886   19.7239   33.6426 O   0  0  0  0  0  0  0  0  0  0  0  0
   -6.0598   16.5390   38.5486 C   0  0  2  0  0  0  0  0  0  0  0  0
   -7.4958   16.6595   38.6775 N   0  0  0  0  0  0  0  0  0  0  0  0
   -5.4164   17.9553   38.2864 C   0  0  0  0  0  0  0  0  0  0  0  0
   -3.8576   17.8511   38.1383 C   0  0  2  0  0  0  0  0  0  0  0  0
   -3.3029   19.1802   37.8900 N   0  0  0  0  0  0  0  0  0  0  0  0
   -3.4226   16.8847   36.9487 C   0  0  2  0  0  0  0  0  0  0  0  0
   -4.0332   15.4833   37.2405 C   0  0  2  0  0  0  0  0  0  0  0  0
   -3.5690   14.6327   36.0813 O   0  0  0  0  0  0  0  0  0  0  0  0
   -5.6547   15.5873   37.3261 C   0  0  1  0  0  0  0  0  0  0  0  0
   -6.3374   14.3344   37.6524 O   0  0  0  0  0  0  0  0  0  0  0  0
   -3.3856   13.3289   36.4604 C   0  0  1  0  0  0  0  0  0  0  0  0
   -3.0646   12.4425   35.3368 C   0  0  2  0  0  0  0  0  0  0  0  0
   -4.2299   12.2726   34.5954 O   0  0  0  0  0  0  0  0  0  0  0  0
   -2.4360   11.2406   36.0740 C   0  0  2  0  0  0  0  0  0  0  0  0
   -3.2633   10.0922   35.7802 O   0  0  0  0  0  0  0  0  0  0  0  0
   -2.4706   11.6161   37.5188 C   0  0  2  0  0  0  0  0  0  0  0  0
   -2.3034   13.0678   37.3386 O   0  0  0  0  0  0  0  0  0  0  0  0
   -1.2475   11.0195   38.3077 C   0  0  0  0  0  0  0  0  0  0  0  0
   -1.2761   11.3080   39.7378 O   0  0  0  0  0  0  0  0  0  0  0  0
   -2.6534    8.7773   35.9539 C   0  0  2  0  0  0  0  0  0  0  0  0
   -3.7333    7.6508   35.5307 C   0  0  2  0  0  0  0  0  0  0  0  0
   -4.9635    7.8065   36.3728 N   0  0  0  0  0  0  0  0  0  0  0  0
   -3.0530    6.2069   35.7212 C   0  0  1  0  0  0  0  0  0  0  0  0
   -1.8691    6.1691   34.8676 O   0  0  0  0  0  0  0  0  0  0  0  0
   -2.6623    6.0025   37.2542 C   0  0  2  0  0  0  0  0  0  0  0  0
   -3.9100    6.0391   38.0494 O   0  0  0  0  0  0  0  0  0  0  0  0
   -1.6176    7.1832   37.6744 C   0  0  1  0  0  0  0  0  0  0  0  0
   -2.2476    8.5300   37.4213 O   0  0  0  0  0  0  0  0  0  0  0  0
   -1.2255    7.0236   39.1808 C   0  0  0  0  0  0  0  0  0  0  0  0
   -2.3866    7.2091   40.1054 N   0  0  0  0  0  0  0  0  0  0  0  0
  1  3  1  0  0  0  0
  1  2  1  1  0  0  0
  3  4  1  1  0  0  0
  3  5  1  0  0  0  0
  5  6  1  6  0  0  0
  7  8  1  1  0  0  0
  7  5  1  0  0  0  0
  9 11  1  6  0  0  0
  9  7  1  0  0  0  0
 10  9  1  0  0  0  0
 10  1  1  0  0  0  0
 12 11  1  0  0  0  0
 13 14  1  6  0  0  0
 15 13  1  0  0  0  0
 16 17  1  6  0  0  0
 16 15  1  0  0  0  0
 18  2  1  1  0  0  0
 18 19  1  0  0  0  0
 18 16  1  0  0  0  0
 19 20  1  6  0  0  0
 19 21  1  0  0  0  0
 21 22  1  1  0  0  0
 21 13  1  0  0  0  0
 23 20  1  6  0  0  0
 23 29  1  0  0  0  0
 24 25  1  1  0  0  0
 24 26  1  0  0  0  0
 24 23  1  0  0  0  0
 26 27  1  1  0  0  0
 26 28  1  0  0  0  0
 28 30  1  1  0  0  0
 29 28  1  0  0  0  0
 30 31  1  0  0  0  0
 32 27  1  1  0  0  0
 32 40  1  0  0  0  0
 33 35  1  0  0  0  0
 33 32  1  0  0  0  0
 33 34  1  1  0  0  0
 35 36  1  6  0  0  0
 35 37  1  0  0  0  0
 37 38  1  1  0  0  0
 37 39  1  0  0  0  0
 39 41  1  1  0  0  0
 40 39  1  0  0  0  0
 41 42  1  0  0  0  0
M  END
>  <CHROM.1>
-162.75369304,-177.22105992,-164.08973039,148.21247957,174.25307881,159.09462969
-177.19010006,-178.33030702,-64.21136260,-2.49227405,13.38058588,36.76219950
-1.46194830,-0.25031033,3.07802505

>  <Name>
lig.pdb

>  <RI>
0

>  <Rbt.Current_Directory>
/home/itssahil/PROJECTS/Mol_Feturizer/New_Systems/rnas/4wcr

>  <Rbt.Executable>
rbdock ($Id: //depot/dev/client3/rdock/2013.1/src/exe/rbdock.cxx#4 $)

>  <Rbt.Library>
libRbt.so (2013.1, Build901 2013/11/27)

>  <Rbt.Parameter_File>
/export/apps/rDock/src/rDock_2013.1_src/data/scripts/dock_solv.prm

>  <Rbt.Receptor>
prm/pocket_docking_2.prm

>  <SCORE>
-8.21565

>  <SCORE.INTER>
-2.00885

>  <SCORE.INTER.CONST>
1

>  <SCORE.INTER.POLAR>
0

>  <SCORE.INTER.ROT>
9

>  <SCORE.INTER.SOLV>
21.0554

>  <SCORE.INTER.VDW>
-17.9577

>  <SCORE.INTER.norm>
-0.0478297

>  <SCORE.INTRA>
-6.2068

>  <SCORE.INTRA.DIHEDRAL>
-7.07629

>  <SCORE.INTRA.DIHEDRAL.0>
16.2863

>  <SCORE.INTRA.POLAR>
0

>  <SCORE.INTRA.POLAR.0>
0

>  <SCORE.INTRA.REPUL>
-0.314433

>  <SCORE.INTRA.REPUL.0>
0.314433

>  <SCORE.INTRA.SOLV>
-2.39739

>  <SCORE.INTRA.SOLV.lig_0>
-103.824

>  <SCORE.INTRA.VDW>
0.102205

>  <SCORE.INTRA.VDW.0>
-5.30945

>  <SCORE.INTRA.norm>
-0.147781

>  <SCORE.RESTR>
0

>  <SCORE.RESTR.CAVITY>
0

>  <SCORE.RESTR.norm>
0

>  <SCORE.SYSTEM>
0

>  <SCORE.SYSTEM.CONST>
0

>  <SCORE.SYSTEM.DIHEDRAL>
0

>  <SCORE.SYSTEM.SOLV>
0

>  <SCORE.SYSTEM.norm>
0

>  <SCORE.heavy>
42

>  <SCORE.norm>
-0.195611

>  <RMSD>
0.583

$$$$
lig.pdb
 OpenBabel11021811513D
libRbt.so/2013.1/901 2013/11/27
 42 45  0  0  0  0  0  0  0  0999 V2000
   -1.2931   16.4396   35.7203 C   0  0  2  0  0  0  0  0  0  0  0  0
   -1.9516   16.9916   36.9030 O   0  0  0  0  0  0  0  0  0  0  0  0
    0.1863   16.0584   36.1742 C   0  0  2  0  0  0  0  0  0  0  0  0
    0.1491   15.0330   37.2206 N   0  0  0  0  0  0  0  0  0  0  0  0
    0.9382   17.3925   36.6583 C   0  0  1  0  0  0  0  0  0  0  0  0
    2.2911   17.1069   37.0717 O   0  0  0  0  0  0  0  0  0  0  0  0
    0.9027   18.3857   35.4842 C   0  0  2  0  0  0  0  0  0  0  0  0
    1.5436   19.5543   35.8680 O   0  0  0  0  0  0  0  0  0  0  0  0
   -0.6096   18.6771   35.0641 C   0  0  2  0  0  0  0  0  0  0  0  0
   -1.2798   17.4747   34.6657 O   0  0  0  0  0  0  0  0  0  0  0  0
   -0.6994   19.6296   33.9056 C   0  0  0  0  0  0  0  0  0  0  0  0
   -2.0838   19.8668   33.6474 O   0  0  0  0  0  0  0  0  0  0  0  0
   -6.0490   16.8250   38.6225 C   0  0  2  0  0  0  0  0  0  0  0  0
   -7.4776   16.9963   38.7726 N   0  0  0  0  0  0  0  0  0  0  0  0
   -5.3579   18.2195   38.3642 C   0  0  0  0  0  0  0  0  0  0  0  0
   -3.8062   18.0602   38.1932 C   0  0  2  0  0  0  0  0  0  0  0  0
   -3.2068   19.3706   37.9493 N   0  0  0  0  0  0  0  0  0  0  0  0
   -3.4231   17.0900   36.9889 C   0  0  2  0  0  0  0  0  0  0  0  0
   -4.0802   15.7091   37.2765 C   0  0  2  0  0  0  0  0  0  0  0  0
   -3.6633   14.8534   36.1032 O   0  0  0  0  0  0  0  0  0  0  0  0
   -5.6956   15.8710   37.3858 C   0  0  1  0  0  0  0  0  0  0  0  0
   -6.4189   14.6407   37.7102 O   0  0  0  0  0  0  0  0  0  0  0  0
   -3.4984   13.5445   36.4731 C   0  0  1  0  0  0  0  0  0  0  0  0
   -3.1524   12.6679   35.3493 C   0  0  2  0  0  0  0  0  0  0  0  0
   -4.2981   12.5134   34.5746 O   0  0  0  0  0  0  0  0  0  0  0  0
   -2.5515   11.4542   36.0904 C   0  0  2  0  0  0  0  0  0  0  0  0
   -3.3776   10.3143   35.7619 O   0  0  0  0  0  0  0  0  0  0  0  0
   -2.6232   11.8148   37.5376 C   0  0  2  0  0  0  0  0  0  0  0  0
   -2.4422   13.2672   37.3776 O   0  0  0  0  0  0  0  0  0  0  0  0
   -1.4257   11.2019   38.3530 C   0  0  0  0  0  0  0  0  0  0  0  0
   -1.4790   11.4954   39.7814 O   0  0  0  0  0  0  0  0  0  0  0  0
   -2.7636    8.9959   35.8873 C   0  0  2  0  0  0  0  0  0  0  0  0
   -3.8758    7.8763   35.5356 C   0  0  2  0  0  0  0  0  0  0  0  0
   -5.0437    8.0339   36.4618 N   0  0  0  0  0  0  0  0  0  0  0  0
   -3.1910    6.4284   35.6723 C   0  0  1  0  0  0  0  0  0  0  0  0
   -2.0696    6.3890   34.7383 O   0  0  0  0  0  0  0  0  0  0  0  0
   -2.6957    6.2154   37.1736 C   0  0  2  0  0  0  0  0  0  0  0  0
   -3.8848    6.2542   38.0537 O   0  0  0  0  0  0  0  0  0  0  0  0
   -1.6185    7.3893   37.5250 C   0  0  1  0  0  0  0  0  0  0  0  0
   -2.2579    8.7401   37.3219 O   0  0  0  0  0  0  0  0  0  0  0  0
   -1.1234    7.2212   38.9998 C   0  0  0  0  0  0  0  0  0  0  0  0
   -2.2279    7.3474   40.0006 N   0  0  0  0  0  0  0  0  0  0  0  0
  1  3  1  0  0  0  0
  1  2  1  1  0  0  0
  3  4  1  1  0  0  0
  3  5  1  0  0  0  0
  5  6  1  6  0  0  0
  7  8  1  1  0  0  0
  7  5  1  0  0  0  0
  9 11  1  6  0  0  0
  9  7  1  0  0  0  0
 10  9  1  0  0  0  0
 10  1  1  0  0  0  0
 12 11  1  0  0  0  0
 13 14  1  6  0  0  0
 15 13  1  0  0  0  0
 16 17  1  6  0  0  0
 16 15  1  0  0  0  0
 18  2  1  1  0  0  0
 18 19  1  0  0  0  0
 18 16  1  0  0  0  0
 19 20  1  6  0  0  0
 19 21  1  0  0  0  0
 21 22  1  1  0  0  0
 21 13  1  0  0  0  0
 23 20  1  6  0  0  0
 23 29  1  0  0  0  0
 24 25  1  1  0  0  0
 24 26  1  0  0  0  0
 24 23  1  0  0  0  0
 26 27  1  1  0  0  0
 26 28  1  0  0  0  0
 28 30  1  1  0  0  0
 29 28  1  0  0  0  0
 30 31  1  0  0  0  0
 32 27  1  1  0  0  0
 32 40  1  0  0  0  0
 33 35  1  0  0  0  0
 33 32  1  0  0  0  0
 33 34  1  1  0  0  0
 35 36  1  6  0  0  0
 35 37  1  0  0  0  0
 37 38  1  1  0  0  0
 37 39  1  0  0  0  0
 39 41  1  1  0  0  0
 40 39  1  0  0  0  0
 41 42  1  0  0  0  0
M  END
>  <CHROM.1>
-161.84984164,-177.57264067,-165.26006911,147.09146236,177.38717709,156.73499437
-178.20507034,177.59135113,-61.64687977,-2.52503858,13.55747220,36.76089745
-1.45788412,-0.26998589,3.08957361

>  <Name>
lig.pdb

>  <RI>
0

>  <Rbt.Current_Directory>
/home/itssahil/PROJECTS/Mol_Feturizer/New_Systems/rnas/4wcr

>  <Rbt.Executable>
rbdock ($Id: //depot/dev/client3/rdock/2013.1/src/exe/rbdock.cxx#4 $)

>  <Rbt.Library>
libRbt.so (2013.1, Build901 2013/11/27)

>  <Rbt.Parameter_File>
/export/apps/rDock/src/rDock_2013.1_src/data/scripts/dock_solv.prm

>  <Rbt.Receptor>
prm/pocket_docking_2.prm

>  <SCORE>
-8.36846

>  <SCORE.INTER>
-2.628

>  <SCORE.INTER.CONST>
1

>  <SCORE.INTER.POLAR>
0

>  <SCORE.INTER.ROT>
9

>  <SCORE.INTER.SOLV>
21.2265

>  <SCORE.INTER.VDW>
-18.4275

>  <SCORE.INTER.norm>
-0.0625715

>  <SCORE.INTRA>
-5.74046

>  <SCORE.INTRA.DIHEDRAL>
-6.67738

>  <SCORE.INTRA.DIHEDRAL.0>
16.2863

>  <SCORE.INTRA.POLAR>
0

>  <SCORE.INTRA.POLAR.0>
0

>  <SCORE.INTRA.REPUL>
-0.314433

>  <SCORE.INTRA.REPUL.0>
0.314433

>  <SCORE.INTRA.SOLV>
-2.06918

>  <SCORE.INTRA.SOLV.lig_0>
-103.824

>  <SCORE.INTRA.VDW>
0.204989

>  <SCORE.INTRA.VDW.0>
-5.30945

>  <SCORE.INTRA.norm>
-0.136678

>  <SCORE.RESTR>
0

>  <SCORE.RESTR.CAVITY>
0

>  <SCORE.RESTR.norm>
0

>  <SCORE.SYSTEM>
0

>  <SCORE.SYSTEM.CONST>
0

>  <SCORE.SYSTEM.DIHEDRAL>
0

>  <SCORE.SYSTEM.SOLV>
0

>  <SCORE.SYSTEM.norm>
0

>  <SCORE.heavy>
42

>  <SCORE.norm>
-0.199249

>  <RMSD>
0.621

$$$$
lig.pdb
 OpenBabel11021811513D
libRbt.so/2013.1/901 2013/11/27
 42 45  0  0  0  0  0  0  0  0999 V2000
   -1.2541   16.3959   35.7953 C   0  0  2  0  0  0  0  0  0  0  0  0
   -1.9310   16.9567   36.9634 O   0  0  0  0  0  0  0  0  0  0  0  0
    0.2341   16.0671   36.2611 C   0  0  2  0  0  0  0  0  0  0  0  0
    0.2230   15.0659   37.3312 N   0  0  0  0  0  0  0  0  0  0  0  0
    0.9471   17.4328   36.7152 C   0  0  1  0  0  0  0  0  0  0  0  0
    2.3063   17.1951   37.1379 O   0  0  0  0  0  0  0  0  0  0  0  0
    0.8869   18.3968   35.5179 C   0  0  2  0  0  0  0  0  0  0  0  0
    1.4937   19.5916   35.8755 O   0  0  0  0  0  0  0  0  0  0  0  0
   -0.6319   18.6357   35.0880 C   0  0  2  0  0  0  0  0  0  0  0  0
   -1.2671   17.4059   34.7168 O   0  0  0  0  0  0  0  0  0  0  0  0
   -0.7453   19.5578   33.9073 C   0  0  0  0  0  0  0  0  0  0  0  0
   -2.1351   19.7470   33.6385 O   0  0  0  0  0  0  0  0  0  0  0  0
   -6.0687   16.8995   38.5909 C   0  0  2  0  0  0  0  0  0  0  0  0
   -7.4970   17.0995   38.7045 N   0  0  0  0  0  0  0  0  0  0  0  0
   -5.3465   18.2757   38.3202 C   0  0  0  0  0  0  0  0  0  0  0  0
   -3.7944   18.0851   38.1884 C   0  0  2  0  0  0  0  0  0  0  0  0
   -3.1657   19.3792   37.9316 N   0  0  0  0  0  0  0  0  0  0  0  0
   -3.4020   17.0833   37.0133 C   0  0  2  0  0  0  0  0  0  0  0  0
   -4.0908   15.7206   37.3139 C   0  0  2  0  0  0  0  0  0  0  0  0
   -3.6631   14.8333   36.1683 O   0  0  0  0  0  0  0  0  0  0  0  0
   -5.7049   15.9138   37.3825 C   0  0  1  0  0  0  0  0  0  0  0  0
   -6.4580   14.7037   37.7153 O   0  0  0  0  0  0  0  0  0  0  0  0
   -3.4976   13.5358   36.5763 C   0  0  1  0  0  0  0  0  0  0  0  0
   -3.2369   12.6124   35.4670 C   0  0  2  0  0  0  0  0  0  0  0  0
   -4.4310   12.4517   34.7707 O   0  0  0  0  0  0  0  0  0  0  0  0
   -2.6117   11.4153   36.2148 C   0  0  2  0  0  0  0  0  0  0  0  0
   -3.4756   10.2802   35.9808 O   0  0  0  0  0  0  0  0  0  0  0  0
   -2.5871   11.8296   37.6491 C   0  0  2  0  0  0  0  0  0  0  0  0
   -2.3920   13.2715   37.4238 O   0  0  0  0  0  0  0  0  0  0  0  0
   -1.3517   11.2241   38.4118 C   0  0  0  0  0  0  0  0  0  0  0  0
   -1.3075   11.5760   39.8272 O   0  0  0  0  0  0  0  0  0  0  0  0
   -2.8549    8.9594   36.0170 C   0  0  2  0  0  0  0  0  0  0  0  0
   -3.9808    7.8535   35.6653 C   0  0  2  0  0  0  0  0  0  0  0  0
   -5.1052    7.9645   36.6503 N   0  0  0  0  0  0  0  0  0  0  0  0
   -3.2886    6.4032   35.7036 C   0  0  1  0  0  0  0  0  0  0  0  0
   -2.2112    6.4105   34.7184 O   0  0  0  0  0  0  0  0  0  0  0  0
   -2.7248    6.1229   37.1692 C   0  0  2  0  0  0  0  0  0  0  0  0
   -3.8723    6.1172   38.1037 O   0  0  0  0  0  0  0  0  0  0  0  0
   -1.6340    7.2830   37.5247 C   0  0  1  0  0  0  0  0  0  0  0  0
   -2.2837    8.6396   37.4136 O   0  0  0  0  0  0  0  0  0  0  0  0
   -1.0716    7.0488   38.9661 C   0  0  0  0  0  0  0  0  0  0  0  0
   -2.1227    7.1609   40.0244 N   0  0  0  0  0  0  0  0  0  0  0  0
  1  3  1  0  0  0  0
  1  2  1  1  0  0  0
  3  4  1  1  0  0  0
  3  5  1  0  0  0  0
  5  6  1  6  0  0  0
  7  8  1  1  0  0  0
  7  5  1  0  0  0  0
  9 11  1  6  0  0  0
  9  7  1  0  0  0  0
 10  9  1  0  0  0  0
 10  1  1  0  0  0  0
 12 11  1  0  0  0  0
 13 14  1  6  0  0  0
 15 13  1  0  0  0  0
 16 17  1  6  0  0  0
 16 15  1  0  0  0  0
 18  2  1  1  0  0  0
 18 19  1  0  0  0  0
 18 16  1  0  0  0  0
 19 20  1  6  0  0  0
 19 21  1  0  0  0  0
 21 22  1  1  0  0  0
 21 13  1  0  0  0  0
 23 20  1  6  0  0  0
 23 29  1  0  0  0  0
 24 25  1  1  0  0  0
 24 26  1  0  0  0  0
 24 23  1  0  0  0  0
 26 27  1  1  0  0  0
 26 28  1  0  0  0  0
 28 30  1  1  0  0  0
 29 28  1  0  0  0  0
 30 31  1  0  0  0  0
 32 27  1  1  0  0  0
 32 40  1  0  0  0  0
 33 35  1  0  0  0  0
 33 32  1  0  0  0  0
 33 34  1  1  0  0  0
 35 36  1  6  0  0  0
 35 37  1  0  0  0  0
 37 38  1  1  0  0  0
 37 39  1  0  0  0  0
 39 41  1  1  0  0  0
 40 39  1  0  0  0  0
 41 42  1  0  0  0  0
M  END
>  <CHROM.1>
-165.22375170,-177.73174356,-163.87407133,145.53717708,173.22120909,152.19589877
-178.49602460,-177.43899969,-63.16483528,-2.53508564,13.53799339,36.81216545
-1.45848078,-0.23020864,3.08335854

>  <Name>
lig.pdb

>  <RI>
0

>  <Rbt.Current_Directory>
/home/itssahil/PROJECTS/Mol_Feturizer/New_Systems/rnas/4wcr

>  <Rbt.Executable>
rbdock ($Id: //depot/dev/client3/rdock/2013.1/src/exe/rbdock.cxx#4 $)

>  <Rbt.Library>
libRbt.so (2013.1, Build901 2013/11/27)

>  <Rbt.Parameter_File>
/export/apps/rDock/src/rDock_2013.1_src/data/scripts/dock_solv.prm

>  <Rbt.Receptor>
prm/pocket_docking_2.prm

>  <SCORE>
-8.59032

>  <SCORE.INTER>
-2.70629

>  <SCORE.INTER.CONST>
1

>  <SCORE.INTER.POLAR>
0

>  <SCORE.INTER.ROT>
9

>  <SCORE.INTER.SOLV>
21.6306

>  <SCORE.INTER.VDW>
-18.6144

>  <SCORE.INTER.norm>
-0.0644356

>  <SCORE.INTRA>
-5.88772

>  <SCORE.INTRA.DIHEDRAL>
-5.66076

>  <SCORE.INTRA.DIHEDRAL.0>
16.2863

>  <SCORE.INTRA.POLAR>
0

>  <SCORE.INTRA.POLAR.0>
0

>  <SCORE.INTRA.REPUL>
-0.314433

>  <SCORE.INTRA.REPUL.0>
0.314433

>  <SCORE.INTRA.SOLV>
-2.58299

>  <SCORE.INTRA.SOLV.lig_0>
-103.824

>  <SCORE.INTRA.VDW>
-0.193684

>  <SCORE.INTRA.VDW.0>
-5.30945

>  <SCORE.INTRA.norm>
-0.140184

>  <SCORE.RESTR>
0.00369551

>  <SCORE.RESTR.CAVITY>
0.00369551

>  <SCORE.RESTR.norm>
8.79884e-05

>  <SCORE.SYSTEM>
0

>  <SCORE.SYSTEM.CONST>
0

>  <SCORE.SYSTEM.DIHEDRAL>
0

>  <SCORE.SYSTEM.SOLV>
0

>  <SCORE.SYSTEM.norm>
0

>  <SCORE.heavy>
42

>  <SCORE.norm>
-0.204531

>  <RMSD>
0.666

$$$$
lig.pdb
 OpenBabel11021811513D
libRbt.so/2013.1/901 2013/11/27
 42 45  0  0  0  0  0  0  0  0999 V2000
   -1.3456   16.1181   35.8507 C   0  0  2  0  0  0  0  0  0  0  0  0
   -2.0131   16.7110   37.0084 O   0  0  0  0  0  0  0  0  0  0  0  0
    0.1690   15.8805   36.2861 C   0  0  2  0  0  0  0  0  0  0  0  0
    0.2344   14.9390   37.4073 N   0  0  0  0  0  0  0  0  0  0  0  0
    0.8320   17.2987   36.6451 C   0  0  1  0  0  0  0  0  0  0  0  0
    2.2123   17.1440   37.0368 O   0  0  0  0  0  0  0  0  0  0  0  0
    0.6932   18.1931   35.4012 C   0  0  2  0  0  0  0  0  0  0  0  0
    1.2553   19.4309   35.6761 O   0  0  0  0  0  0  0  0  0  0  0  0
   -0.8466   18.3416   35.0073 C   0  0  2  0  0  0  0  0  0  0  0  0
   -1.4358   17.0669   34.7214 O   0  0  0  0  0  0  0  0  0  0  0  0
   -1.0361   19.1927   33.7838 C   0  0  0  0  0  0  0  0  0  0  0  0
   -2.4389   19.4008   33.6150 O   0  0  0  0  0  0  0  0  0  0  0  0
   -6.1661   16.7019   38.5973 C   0  0  2  0  0  0  0  0  0  0  0  0
   -7.5898   16.9348   38.7061 N   0  0  0  0  0  0  0  0  0  0  0  0
   -5.4060   18.0677   38.3841 C   0  0  0  0  0  0  0  0  0  0  0  0
   -3.8583   17.8416   38.2585 C   0  0  2  0  0  0  0  0  0  0  0  0
   -3.1939   19.1274   38.0555 N   0  0  0  0  0  0  0  0  0  0  0  0
   -3.4807   16.8741   37.0504 C   0  0  2  0  0  0  0  0  0  0  0  0
   -4.2073   15.5197   37.2941 C   0  0  2  0  0  0  0  0  0  0  0  0
   -3.7918   14.6644   36.1200 O   0  0  0  0  0  0  0  0  0  0  0  0
   -5.8165   15.7523   37.3562 C   0  0  1  0  0  0  0  0  0  0  0  0
   -6.6036   14.5508   37.6372 O   0  0  0  0  0  0  0  0  0  0  0  0
   -3.5472   13.3724   36.5049 C   0  0  1  0  0  0  0  0  0  0  0  0
   -3.1829   12.4975   35.3855 C   0  0  2  0  0  0  0  0  0  0  0  0
   -4.3379   12.2693   34.6435 O   0  0  0  0  0  0  0  0  0  0  0  0
   -2.4988   11.3300   36.1285 C   0  0  2  0  0  0  0  0  0  0  0  0
   -3.2702   10.1423   35.8388 O   0  0  0  0  0  0  0  0  0  0  0  0
   -2.5530   11.7097   37.5716 C   0  0  2  0  0  0  0  0  0  0  0  0
   -2.4549   13.1669   37.3854 O   0  0  0  0  0  0  0  0  0  0  0  0
   -1.3039   11.1752   38.3644 C   0  0  0  0  0  0  0  0  0  0  0  0
   -1.3506   11.4633   39.7940 O   0  0  0  0  0  0  0  0  0  0  0  0
   -2.6058    8.8581   36.0400 C   0  0  2  0  0  0  0  0  0  0  0  0
   -3.6065    7.6820   35.5608 C   0  0  2  0  0  0  0  0  0  0  0  0
   -4.8834    7.7734   36.3404 N   0  0  0  0  0  0  0  0  0  0  0  0
   -2.8663    6.2723   35.7821 C   0  0  1  0  0  0  0  0  0  0  0  0
   -1.6408    6.2966   34.9888 O   0  0  0  0  0  0  0  0  0  0  0  0
   -2.5432    6.0803   37.3323 C   0  0  2  0  0  0  0  0  0  0  0  0
   -3.8293    6.0520   38.0639 O   0  0  0  0  0  0  0  0  0  0  0  0
   -1.5802    7.3088   37.8069 C   0  0  1  0  0  0  0  0  0  0  0  0
   -2.2621    8.6242   37.5254 O   0  0  0  0  0  0  0  0  0  0  0  0
   -1.2565    7.1616   39.3308 C   0  0  0  0  0  0  0  0  0  0  0  0
   -2.4807    7.1933   40.1897 N   0  0  0  0  0  0  0  0  0  0  0  0
  1  3  1  0  0  0  0
  1  2  1  1  0  0  0
  3  4  1  1  0  0  0
  3  5  1  0  0  0  0
  5  6  1  6  0  0  0
  7  8  1  1  0  0  0
  7  5  1  0  0  0  0
  9 11  1  6  0  0  0
  9  7  1  0  0  0  0
 10  9  1  0  0  0  0
 10  1  1  0  0  0  0
 12 11  1  0  0  0  0
 13 14  1  6  0  0  0
 15 13  1  0  0  0  0
 16 17  1  6  0  0  0
 16 15  1  0  0  0  0
 18  2  1  1  0  0  0
 18 19  1  0  0  0  0
 18 16  1  0  0  0  0
 19 20  1  6  0  0  0
 19 21  1  0  0  0  0
 21 22  1  1  0  0  0
 21 13  1  0  0  0  0
 23 20  1  6  0  0  0
 23 29  1  0  0  0  0
 24 25  1  1  0  0  0
 24 26  1  0  0  0  0
 24 23  1  0  0  0  0
 26 27  1  1  0  0  0
 26 28  1  0  0  0  0
 28 30  1  1  0  0  0
 29 28  1  0  0  0  0
 30 31  1  0  0  0  0
 32 27  1  1  0  0  0
 32 40  1  0  0  0  0
 33 35  1  0  0  0  0
 33 32  1  0  0  0  0
 33 34  1  1  0  0  0
 35 36  1  6  0  0  0
 35 37  1  0  0  0  0
 37 38  1  1  0  0  0
 37 39  1  0  0  0  0
 39 41  1  1  0  0  0
 40 39  1  0  0  0  0
 41 42  1  0  0  0  0
M  END
>  <CHROM.1>
-170.20182594,-172.87099181,-166.78626443,140.08491134,178.11849619,160.08026383
-176.95101709,-176.07358479,-60.33440725,-2.55503647,13.38510524,36.80899088
-1.48902929,-0.26890830,3.07081256

>  <Name>
lig.pdb

>  <RI>
0

>  <Rbt.Current_Directory>
/home/itssahil/PROJECTS/Mol_Feturizer/New_Systems/rnas/4wcr

>  <Rbt.Executable>
rbdock ($Id: //depot/dev/client3/rdock/2013.1/src/exe/rbdock.cxx#4 $)

>  <Rbt.Library>
libRbt.so (2013.1, Build901 2013/11/27)

>  <Rbt.Parameter_File>
/export/apps/rDock/src/rDock_2013.1_src/data/scripts/dock_solv.prm

>  <Rbt.Receptor>
prm/pocket_docking_2.prm

>  <SCORE>
-8.4186

>  <SCORE.INTER>
-1.81448

>  <SCORE.INTER.CONST>
1

>  <SCORE.INTER.POLAR>
0

>  <SCORE.INTER.ROT>
9

>  <SCORE.INTER.SOLV>
20.9856

>  <SCORE.INTER.VDW>
-17.8048

>  <SCORE.INTER.norm>
-0.0432019

>  <SCORE.INTRA>
-6.60412

>  <SCORE.INTRA.DIHEDRAL>
-7.02974

>  <SCORE.INTRA.DIHEDRAL.0>
16.2863

>  <SCORE.INTRA.POLAR>
0

>  <SCORE.INTRA.POLAR.0>
0

>  <SCORE.INTRA.REPUL>
-0.314433

>  <SCORE.INTRA.REPUL.0>
0.314433

>  <SCORE.INTRA.SOLV>
-2.75963

>  <SCORE.INTRA.SOLV.lig_0>
-103.824

>  <SCORE.INTRA.VDW>
-0.137267

>  <SCORE.INTRA.VDW.0>
-5.30945

>  <SCORE.INTRA.norm>
-0.157241

>  <SCORE.RESTR>
0

>  <SCORE.RESTR.CAVITY>
0

>  <SCORE.RESTR.norm>
0

>  <SCORE.SYSTEM>
0

>  <SCORE.SYSTEM.CONST>
0

>  <SCORE.SYSTEM.DIHEDRAL>
0

>  <SCORE.SYSTEM.SOLV>
0

>  <SCORE.SYSTEM.norm>
0

>  <SCORE.heavy>
42

>  <SCORE.norm>
-0.200443

>  <RMSD>
0.690

$$$$
lig.pdb
 OpenBabel11021811513D
libRbt.so/2013.1/901 2013/11/27
 42 45  0  0  0  0  0  0  0  0999 V2000
   -1.3531   16.1781   35.9259 C   0  0  2  0  0  0  0  0  0  0  0  0
   -2.0587   16.8472   37.0175 O   0  0  0  0  0  0  0  0  0  0  0  0
    0.1601   16.0277   36.4030 C   0  0  2  0  0  0  0  0  0  0  0  0
    0.2345   15.1892   37.6027 N   0  0  0  0  0  0  0  0  0  0  0  0
    0.7730   17.4921   36.6472 C   0  0  1  0  0  0  0  0  0  0  0  0
    2.1502   17.4160   37.0716 O   0  0  0  0  0  0  0  0  0  0  0  0
    0.6290   18.2707   35.3283 C   0  0  2  0  0  0  0  0  0  0  0  0
    1.1480   19.5450   35.5030 O   0  0  0  0  0  0  0  0  0  0  0  0
   -0.9074   18.3352   34.8999 C   0  0  2  0  0  0  0  0  0  0  0  0
   -1.4521   17.0224   34.7172 O   0  0  0  0  0  0  0  0  0  0  0  0
   -1.1011   19.0710   33.6044 C   0  0  0  0  0  0  0  0  0  0  0  0
   -0.7869   20.4447   33.8363 O   0  0  0  0  0  0  0  0  0  0  0  0
   -6.2112   16.7255   38.6033 C   0  0  2  0  0  0  0  0  0  0  0  0
   -7.6467   16.8820   38.6927 N   0  0  0  0  0  0  0  0  0  0  0  0
   -5.5322   18.1113   38.2756 C   0  0  0  0  0  0  0  0  0  0  0  0
   -3.9733   17.9676   38.1688 C   0  0  2  0  0  0  0  0  0  0  0  0
   -3.3851   19.2688   37.8579 N   0  0  0  0  0  0  0  0  0  0  0  0
   -3.5336   16.9259   37.0463 C   0  0  2  0  0  0  0  0  0  0  0  0
   -4.1800   15.5561   37.4035 C   0  0  2  0  0  0  0  0  0  0  0  0
   -3.7094   14.6313   36.3053 O   0  0  0  0  0  0  0  0  0  0  0  0
   -5.8004   15.6973   37.4464 C   0  0  1  0  0  0  0  0  0  0  0  0
   -6.5164   14.4792   37.8280 O   0  0  0  0  0  0  0  0  0  0  0  0
   -3.6062   13.3395   36.7502 C   0  0  1  0  0  0  0  0  0  0  0  0
   -3.0922   12.4190   35.7306 C   0  0  2  0  0  0  0  0  0  0  0  0
   -4.1047   12.2275   34.7952 O   0  0  0  0  0  0  0  0  0  0  0  0
   -2.6155   11.2396   36.6053 C   0  0  2  0  0  0  0  0  0  0  0  0
   -3.3831   10.0834   36.2006 O   0  0  0  0  0  0  0  0  0  0  0  0
   -2.9094   11.6591   38.0079 C   0  0  2  0  0  0  0  0  0  0  0  0
   -2.7031   13.1045   37.8178 O   0  0  0  0  0  0  0  0  0  0  0  0
   -1.8536   11.0858   39.0233 C   0  0  0  0  0  0  0  0  0  0  0  0
   -2.1187   11.4495   40.4113 O   0  0  0  0  0  0  0  0  0  0  0  0
   -2.7177    8.7868   36.2844 C   0  0  2  0  0  0  0  0  0  0  0  0
   -3.7365    7.6516   35.7481 C   0  0  2  0  0  0  0  0  0  0  0  0
   -4.9892    7.6856   36.5703 N   0  0  0  0  0  0  0  0  0  0  0  0
   -2.9952    6.2282   35.8402 C   0  0  1  0  0  0  0  0  0  0  0  0
   -1.7938    6.3105   35.0146 O   0  0  0  0  0  0  0  0  0  0  0  0
   -2.6267    5.9193   37.3611 C   0  0  2  0  0  0  0  0  0  0  0  0
   -3.8905    5.8376   38.1268 O   0  0  0  0  0  0  0  0  0  0  0  0
   -1.6455    7.1071   37.8979 C   0  0  1  0  0  0  0  0  0  0  0  0
   -2.3307    8.4410   37.7369 O   0  0  0  0  0  0  0  0  0  0  0  0
   -1.2771    6.8450   39.3959 C   0  0  0  0  0  0  0  0  0  0  0  0
   -2.4647    6.8991   40.3036 N   0  0  0  0  0  0  0  0  0  0  0  0
  1  3  1  0  0  0  0
  1  2  1  1  0  0  0
  3  4  1  1  0  0  0
  3  5  1  0  0  0  0
  5  6  1  6  0  0  0
  7  8  1  1  0  0  0
  7  5  1  0  0  0  0
  9 11  1  6  0  0  0
  9  7  1  0  0  0  0
 10  9  1  0  0  0  0
 10  1  1  0  0  0  0
 12 11  1  0  0  0  0
 13 14  1  6  0  0  0
 15 13  1  0  0  0  0
 16 17  1  6  0  0  0
 16 15  1  0  0  0  0
 18  2  1  1  0  0  0
 18 19  1  0  0  0  0
 18 16  1  0  0  0  0
 19 20  1  6  0  0  0
 19 21  1  0  0  0  0
 21 22  1  1  0  0  0
 21 13  1  0  0  0  0
 23 20  1  6  0  0  0
 23 29  1  0  0  0  0
 24 25  1  6  0  0  0
 24 26  1  0  0  0  0
 24 23  1  0  0  0  0
 26 27  1  6  0  0  0
 26 28  1  0  0  0  0
 28 30  1  1  0  0  0
 29 28  1  0  0  0  0
 30 31  1  0  0  0  0
 32 27  1  1  0  0  0
 32 40  1  0  0  0  0
 33 35  1  0  0  0  0
 33 32  1  0  0  0  0
 33 34  1  1  0  0  0
 35 36  1  6  0  0  0
 35 37  1  0  0  0  0
 37 38  1  1  0  0  0
 37 39  1  0  0  0  0
 39 41  1  1  0  0  0
 40 39  1  0  0  0  0
 41 42  1  0  0  0  0
M  END
>  <CHROM.1>
-168.08709092,-68.06291273,-167.92686822,150.30275875,-177.33308537,147.64612169
-178.82256609,-178.40723691,-63.95824557,-2.59880858,13.39335098,36.93802598
-1.45719617,-0.34766477,3.06415917

>  <Name>
lig.pdb

>  <RI>
0

>  <Rbt.Current_Directory>
/home/itssahil/PROJECTS/Mol_Feturizer/New_Systems/rnas/4wcr

>  <Rbt.Executable>
rbdock ($Id: //depot/dev/client3/rdock/2013.1/src/exe/rbdock.cxx#4 $)

>  <Rbt.Library>
libRbt.so (2013.1, Build901 2013/11/27)

>  <Rbt.Parameter_File>
/export/apps/rDock/src/rDock_2013.1_src/data/scripts/dock_solv.prm

>  <Rbt.Receptor>
prm/pocket_docking_2.prm

>  <SCORE>
-8.12832

>  <SCORE.INTER>
-1.81238

>  <SCORE.INTER.CONST>
1

>  <SCORE.INTER.POLAR>
0

>  <SCORE.INTER.ROT>
9

>  <SCORE.INTER.SOLV>
21.1124

>  <SCORE.INTER.VDW>
-17.8457

>  <SCORE.INTER.norm>
-0.0431519

>  <SCORE.INTRA>
-6.32936

>  <SCORE.INTRA.DIHEDRAL>
-6.5604

>  <SCORE.INTRA.DIHEDRAL.0>
16.2863

>  <SCORE.INTRA.POLAR>
0

>  <SCORE.INTRA.POLAR.0>
0

>  <SCORE.INTRA.REPUL>
-0.314433

>  <SCORE.INTRA.REPUL.0>
0.314433

>  <SCORE.INTRA.SOLV>
-3.39999

>  <SCORE.INTRA.SOLV.lig_0>
-103.824

>  <SCORE.INTRA.VDW>
0.222997

>  <SCORE.INTRA.VDW.0>
-5.30945

>  <SCORE.INTRA.norm>
-0.150699

>  <SCORE.RESTR>
0.0134252

>  <SCORE.RESTR.CAVITY>
0.0134252

>  <SCORE.RESTR.norm>
0.000319649

>  <SCORE.SYSTEM>
0

>  <SCORE.SYSTEM.CONST>
0

>  <SCORE.SYSTEM.DIHEDRAL>
0

>  <SCORE.SYSTEM.SOLV>
0

>  <SCORE.SYSTEM.norm>
0

>  <SCORE.heavy>
42

>  <SCORE.norm>
-0.193531

>  <RMSD>
0.752

$$$$
lig.pdb
 OpenBabel11021811513D
libRbt.so/2013.1/901 2013/11/27
 42 45  0  0  0  0  0  0  0  0999 V2000
   -1.2198   16.4302   35.7056 C   0  0  2  0  0  0  0  0  0  0  0  0
   -1.9081   16.9179   36.8995 O   0  0  0  0  0  0  0  0  0  0  0  0
    0.2611   16.0635   36.1666 C   0  0  2  0  0  0  0  0  0  0  0  0
    0.2321   14.9951   37.1693 N   0  0  0  0  0  0  0  0  0  0  0  0
    0.9751   17.3929   36.7168 C   0  0  1  0  0  0  0  0  0  0  0  0
    2.3279   17.1206   37.1392 O   0  0  0  0  0  0  0  0  0  0  0  0
    0.9341   18.4329   35.5840 C   0  0  2  0  0  0  0  0  0  0  0  0
    1.5424   19.5985   36.0255 O   0  0  0  0  0  0  0  0  0  0  0  0
   -0.5781   18.7077   35.1526 C   0  0  2  0  0  0  0  0  0  0  0  0
   -1.2146   17.5082   34.6948 O   0  0  0  0  0  0  0  0  0  0  0  0
   -0.6726   19.7050   34.0330 C   0  0  0  0  0  0  0  0  0  0  0  0
   -0.2883   20.9779   34.5544 O   0  0  0  0  0  0  0  0  0  0  0  0
   -6.0076   16.3877   38.5381 C   0  0  2  0  0  0  0  0  0  0  0  0
   -7.4430   16.4842   38.6907 N   0  0  0  0  0  0  0  0  0  0  0  0
   -5.3711   17.8288   38.4563 C   0  0  0  0  0  0  0  0  0  0  0  0
   -3.8130   17.7516   38.2860 C   0  0  2  0  0  0  0  0  0  0  0  0
   -3.2648   19.1040   38.2073 N   0  0  0  0  0  0  0  0  0  0  0  0
   -3.3829   16.9482   36.9791 C   0  0  2  0  0  0  0  0  0  0  0  0
   -3.9863   15.5182   37.0921 C   0  0  2  0  0  0  0  0  0  0  0  0
   -3.5272   14.8260   35.8300 O   0  0  0  0  0  0  0  0  0  0  0  0
   -5.6076   15.6031   37.2008 C   0  0  1  0  0  0  0  0  0  0  0  0
   -6.2834   14.3156   37.3675 O   0  0  0  0  0  0  0  0  0  0  0  0
   -3.3700   13.4793   36.0279 C   0  0  1  0  0  0  0  0  0  0  0  0
   -2.8600   12.7793   34.8442 C   0  0  2  0  0  0  0  0  0  0  0  0
   -3.8949   12.7250   33.9154 O   0  0  0  0  0  0  0  0  0  0  0  0
   -2.3197   11.4783   35.4756 C   0  0  2  0  0  0  0  0  0  0  0  0
   -3.0633   10.3882   34.8854 O   0  0  0  0  0  0  0  0  0  0  0  0
   -2.5822   11.6242   36.9383 C   0  0  2  0  0  0  0  0  0  0  0  0
   -2.4270   13.0865   37.0112 O   0  0  0  0  0  0  0  0  0  0  0  0
   -1.4778   10.9140   37.8045 C   0  0  0  0  0  0  0  0  0  0  0  0
   -1.7165   10.9985   39.2415 O   0  0  0  0  0  0  0  0  0  0  0  0
   -2.4656    9.0591   34.9698 C   0  0  2  0  0  0  0  0  0  0  0  0
   -3.4061    8.0212   34.1621 C   0  0  2  0  0  0  0  0  0  0  0  0
   -4.7852    8.0468   34.7486 N   0  0  0  0  0  0  0  0  0  0  0  0
   -2.7392    6.5617   34.2567 C   0  0  1  0  0  0  0  0  0  0  0  0
   -1.4063    6.6546   33.6682 O   0  0  0  0  0  0  0  0  0  0  0  0
   -2.6620    6.1118   35.7851 C   0  0  2  0  0  0  0  0  0  0  0  0
   -4.0454    6.0273   36.3040 O   0  0  0  0  0  0  0  0  0  0  0  0
   -1.7568    7.2038   36.5914 C   0  0  1  0  0  0  0  0  0  0  0  0
   -2.3590    8.5773   36.4312 O   0  0  0  0  0  0  0  0  0  0  0  0
   -1.6740    6.8023   38.1016 C   0  0  0  0  0  0  0  0  0  0  0  0
   -3.0114    6.7830   38.7710 N   0  0  0  0  0  0  0  0  0  0  0  0
  1  3  1  0  0  0  0
  1  2  1  1  0  0  0
  3  4  1  1  0  0  0
  3  5  1  0  0  0  0
  5  6  1  6  0  0  0
  7  8  1  1  0  0  0
  7  5  1  0  0  0  0
  9 11  1  6  0  0  0
  9  7  1  0  0  0  0
 10  9  1  0  0  0  0
 10  1  1  0  0  0  0
 12 11  1  0  0  0  0
 13 14  1  6  0  0  0
 15 13  1  0  0  0  0
 16 17  1  6  0  0  0
 16 15  1  0  0  0  0
 18  2  1  1  0  0  0
 18 19  1  0  0  0  0
 18 16  1  0  0  0  0
 19 20  1  6  0  0  0
 19 21  1  0  0  0  0
 21 22  1  1  0  0  0
 21 13  1  0  0  0  0
 23 20  1  6  0  0  0
 23 29  1  0  0  0  0
 24 25  1  6  0  0  0
 24 26  1  0  0  0  0
 24 23  1  0  0  0  0
 26 27  1  6  0  0  0
 26 28  1  0  0  0  0
 28 30  1  1  0  0  0
 29 28  1  0  0  0  0
 30 31  1  0  0  0  0
 32 27  1  1  0  0  0
 32 40  1  0  0  0  0
 33 35  1  0  0  0  0
 33 32  1  0  0  0  0
 33 34  1  1  0  0  0
 35 36  1  1  0  0  0
 35 37  1  0  0  0  0
 37 38  1  1  0  0  0
 37 39  1  0  0  0  0
 39 41  1  1  0  0  0
 40 39  1  0  0  0  0
 41 42  1  0  0  0  0
M  END
>  <CHROM.1>
-160.29400280,-69.19888988,-170.49151042,149.79339420,-177.11013843,160.26886869
-178.30673935,-176.04020710,-61.58610491,-2.41614468,13.47916436,36.33405973
-1.42959090,-0.36205302,-3.05397096

>  <Name>
lig.pdb

>  <RI>
0

>  <Rbt.Current_Directory>
/home/itssahil/PROJECTS/Mol_Feturizer/New_Systems/rnas/4wcr

>  <Rbt.Executable>
rbdock ($Id: //depot/dev/client3/rdock/2013.1/src/exe/rbdock.cxx#4 $)

>  <Rbt.Library>
libRbt.so (2013.1, Build901 2013/11/27)

>  <Rbt.Parameter_File>
/export/apps/rDock/src/rDock_2013.1_src/data/scripts/dock_solv.prm

>  <Rbt.Receptor>
prm/pocket_docking_2.prm

>  <SCORE>
-7.60652

>  <SCORE.INTER>
-1.29588

>  <SCORE.INTER.CONST>
1

>  <SCORE.INTER.POLAR>
0

>  <SCORE.INTER.ROT>
9

>  <SCORE.INTER.SOLV>
21.0121

>  <SCORE.INTER.VDW>
-17.468

>  <SCORE.INTER.norm>
-0.0308542

>  <SCORE.INTRA>
-6.31065

>  <SCORE.INTRA.DIHEDRAL>
-7.78038

>  <SCORE.INTRA.DIHEDRAL.0>
16.2863

>  <SCORE.INTRA.POLAR>
0

>  <SCORE.INTRA.POLAR.0>
0

>  <SCORE.INTRA.REPUL>
-0.314433

>  <SCORE.INTRA.REPUL.0>
0.314433

>  <SCORE.INTRA.SOLV>
-2.43486

>  <SCORE.INTRA.SOLV.lig_0>
-103.824

>  <SCORE.INTRA.VDW>
0.369139

>  <SCORE.INTRA.VDW.0>
-5.30945

>  <SCORE.INTRA.norm>
-0.150253

>  <SCORE.RESTR>
0

>  <SCORE.RESTR.CAVITY>
0

>  <SCORE.RESTR.norm>
0

>  <SCORE.SYSTEM>
0

>  <SCORE.SYSTEM.CONST>
0

>  <SCORE.SYSTEM.DIHEDRAL>
0

>  <SCORE.SYSTEM.SOLV>
0

>  <SCORE.SYSTEM.norm>
0

>  <SCORE.heavy>
42

>  <SCORE.norm>
-0.181108

>  <RMSD>
0.757

$$$$
lig.pdb
 OpenBabel11021811513D
libRbt.so/2013.1/901 2013/11/27
 42 45  0  0  0  0  0  0  0  0999 V2000
   -1.2440   16.2644   35.8791 C   0  0  2  0  0  0  0  0  0  0  0  0
   -1.9525   16.8413   37.0203 O   0  0  0  0  0  0  0  0  0  0  0  0
    0.2564   16.0288   36.3622 C   0  0  2  0  0  0  0  0  0  0  0  0
    0.2890   15.0752   37.4745 N   0  0  0  0  0  0  0  0  0  0  0  0
    0.9002   17.4459   36.7587 C   0  0  1  0  0  0  0  0  0  0  0  0
    2.2674   17.2930   37.1945 O   0  0  0  0  0  0  0  0  0  0  0  0
    0.7986   18.3535   35.5208 C   0  0  2  0  0  0  0  0  0  0  0  0
    1.3451   19.5907   35.8280 O   0  0  0  0  0  0  0  0  0  0  0  0
   -0.7280   18.4995   35.0774 C   0  0  2  0  0  0  0  0  0  0  0  0
   -1.3011   17.2254   34.7579 O   0  0  0  0  0  0  0  0  0  0  0  0
   -0.8807   19.3634   33.8577 C   0  0  0  0  0  0  0  0  0  0  0  0
   -2.2788   19.5283   33.6171 O   0  0  0  0  0  0  0  0  0  0  0  0
   -6.1147   16.8184   38.5851 C   0  0  2  0  0  0  0  0  0  0  0  0
   -7.5479   16.9993   38.6633 N   0  0  0  0  0  0  0  0  0  0  0  0
   -5.4120   18.1861   38.2325 C   0  0  0  0  0  0  0  0  0  0  0  0
   -3.8550   18.0156   38.1375 C   0  0  2  0  0  0  0  0  0  0  0  0
   -3.2446   19.3006   37.8029 N   0  0  0  0  0  0  0  0  0  0  0  0
   -3.4261   16.9440   37.0392 C   0  0  2  0  0  0  0  0  0  0  0  0
   -4.0961   15.5923   37.4211 C   0  0  2  0  0  0  0  0  0  0  0  0
   -3.6345   14.6375   36.3450 O   0  0  0  0  0  0  0  0  0  0  0  0
   -5.7142   15.7600   37.4521 C   0  0  1  0  0  0  0  0  0  0  0  0
   -6.4516   14.5615   37.8549 O   0  0  0  0  0  0  0  0  0  0  0  0
   -3.6462   13.3413   36.7888 C   0  0  1  0  0  0  0  0  0  0  0  0
   -2.9971   12.4093   35.8607 C   0  0  2  0  0  0  0  0  0  0  0  0
   -3.8443   12.2536   34.7677 O   0  0  0  0  0  0  0  0  0  0  0  0
   -2.7093   11.2119   36.7916 C   0  0  2  0  0  0  0  0  0  0  0  0
   -3.4330   10.0821   36.2536 O   0  0  0  0  0  0  0  0  0  0  0  0
   -3.2206   11.6346   38.1293 C   0  0  2  0  0  0  0  0  0  0  0  0
   -2.9418   13.0736   37.9899 O   0  0  0  0  0  0  0  0  0  0  0  0
   -2.3672   11.0242   39.3013 C   0  0  0  0  0  0  0  0  0  0  0  0
   -0.9561   11.3921   39.2512 O   0  0  0  0  0  0  0  0  0  0  0  0
   -2.7683    8.7837   36.3119 C   0  0  2  0  0  0  0  0  0  0  0  0
   -3.7846    7.6610   35.7455 C   0  0  2  0  0  0  0  0  0  0  0  0
   -5.0414    7.6771   36.5620 N   0  0  0  0  0  0  0  0  0  0  0  0
   -3.0440    6.2357   35.8096 C   0  0  1  0  0  0  0  0  0  0  0  0
   -1.8385    6.3360   34.9921 O   0  0  0  0  0  0  0  0  0  0  0  0
   -2.6832    5.8930   37.3251 C   0  0  2  0  0  0  0  0  0  0  0  0
   -3.9509    5.7947   38.0824 O   0  0  0  0  0  0  0  0  0  0  0  0
   -1.7045    7.0683   37.8930 C   0  0  1  0  0  0  0  0  0  0  0  0
   -2.3887    8.4056   37.7583 O   0  0  0  0  0  0  0  0  0  0  0  0
   -1.3437    6.7728   39.3867 C   0  0  0  0  0  0  0  0  0  0  0  0
   -2.5407    6.7718   40.2836 N   0  0  0  0  0  0  0  0  0  0  0  0
  1  3  1  0  0  0  0
  1  2  1  1  0  0  0
  3  4  1  1  0  0  0
  3  5  1  0  0  0  0
  5  6  1  6  0  0  0
  7  8  1  1  0  0  0
  7  5  1  0  0  0  0
  9 11  1  6  0  0  0
  9  7  1  0  0  0  0
 10  9  1  0  0  0  0
 10  1  1  0  0  0  0
 12 11  1  0  0  0  0
 13 14  1  6  0  0  0
 15 13  1  0  0  0  0
 16 17  1  6  0  0  0
 16 15  1  0  0  0  0
 18  2  1  1  0  0  0
 18 19  1  0  0  0  0
 18 16  1  0  0  0  0
 19 20  1  6  0  0  0
 19 21  1  0  0  0  0
 21 22  1  1  0  0  0
 21 13  1  0  0  0  0
 23 20  1  6  0  0  0
 23 29  1  0  0  0  0
 24 25  1  6  0  0  0
 24 26  1  0  0  0  0
 24 23  1  0  0  0  0
 26 27  1  6  0  0  0
 26 28  1  0  0  0  0
 28 30  1  1  0  0  0
 29 28  1  0  0  0  0
 30 31  1  0  0  0  0
 32 27  1  1  0  0  0
 32 40  1  0  0  0  0
 33 35  1  0  0  0  0
 33 32  1  0  0  0  0
 33 34  1  1  0  0  0
 35 36  1  6  0  0  0
 35 37  1  0  0  0  0
 37 38  1  1  0  0  0
 37 39  1  0  0  0  0
 39 41  1  1  0  0  0
 40 39  1  0  0  0  0
 41 42  1  0  0  0  0
M  END
>  <CHROM.1>
-167.53359082,-174.86905068,-161.35341357,154.66374520,-170.35600559,141.50940020
58.85696381,176.55881168,-62.45677231,-2.58322477,13.38386311,36.94293194
-1.46162225,-0.27554124,3.06573609

>  <Name>
lig.pdb

>  <RI>
0

>  <Rbt.Current_Directory>
/home/itssahil/PROJECTS/Mol_Feturizer/New_Systems/rnas/4wcr

>  <Rbt.Executable>
rbdock ($Id: //depot/dev/client3/rdock/2013.1/src/exe/rbdock.cxx#4 $)

>  <Rbt.Library>
libRbt.so (2013.1, Build901 2013/11/27)

>  <Rbt.Parameter_File>
/export/apps/rDock/src/rDock_2013.1_src/data/scripts/dock_solv.prm

>  <Rbt.Receptor>
prm/pocket_docking_2.prm

>  <SCORE>
-7.59668

>  <SCORE.INTER>
-2.07096

>  <SCORE.INTER.CONST>
1

>  <SCORE.INTER.POLAR>
0

>  <SCORE.INTER.ROT>
9

>  <SCORE.INTER.SOLV>
22.0919

>  <SCORE.INTER.VDW>
-18.3446

>  <SCORE.INTER.norm>
-0.0493085

>  <SCORE.INTRA>
-5.54242

>  <SCORE.INTRA.DIHEDRAL>
-5.04624

>  <SCORE.INTRA.DIHEDRAL.0>
16.2863

>  <SCORE.INTRA.POLAR>
0

>  <SCORE.INTRA.POLAR.0>
0

>  <SCORE.INTRA.REPUL>
-0.308403

>  <SCORE.INTRA.REPUL.0>
0.314433

>  <SCORE.INTRA.SOLV>
-2.90298

>  <SCORE.INTRA.SOLV.lig_0>
-103.824

>  <SCORE.INTRA.VDW>
-0.0257925

>  <SCORE.INTRA.VDW.0>
-5.30945

>  <SCORE.INTRA.norm>
-0.131962

>  <SCORE.RESTR>
0.016697

>  <SCORE.RESTR.CAVITY>
0.016697

>  <SCORE.RESTR.norm>
0.000397548

>  <SCORE.SYSTEM>
0

>  <SCORE.SYSTEM.CONST>
0

>  <SCORE.SYSTEM.DIHEDRAL>
0

>  <SCORE.SYSTEM.SOLV>
0

>  <SCORE.SYSTEM.norm>
0

>  <SCORE.heavy>
42

>  <SCORE.norm>
-0.180873

>  <RMSD>
0.762

$$$$
lig.pdb
 OpenBabel11021811513D
libRbt.so/2013.1/901 2013/11/27
 42 45  0  0  0  0  0  0  0  0999 V2000
   -1.2603   16.3856   35.7161 C   0  0  2  0  0  0  0  0  0  0  0  0
   -1.9382   16.8776   36.9143 O   0  0  0  0  0  0  0  0  0  0  0  0
    0.2267   16.0273   36.1640 C   0  0  2  0  0  0  0  0  0  0  0  0
    0.2121   14.9647   37.1732 N   0  0  0  0  0  0  0  0  0  0  0  0
    0.9411   17.3626   36.6991 C   0  0  1  0  0  0  0  0  0  0  0  0
    2.2992   17.0981   37.1092 O   0  0  0  0  0  0  0  0  0  0  0  0
    0.8844   18.3958   35.5608 C   0  0  2  0  0  0  0  0  0  0  0  0
    1.4926   19.5663   35.9892 O   0  0  0  0  0  0  0  0  0  0  0  0
   -0.6332   18.6622   35.1433 C   0  0  2  0  0  0  0  0  0  0  0  0
   -1.2697   17.4576   34.6991 O   0  0  0  0  0  0  0  0  0  0  0  0
   -0.7431   19.6526   34.0189 C   0  0  0  0  0  0  0  0  0  0  0  0
   -2.1315   19.8370   33.7395 O   0  0  0  0  0  0  0  0  0  0  0  0
   -6.0288   16.3494   38.5758 C   0  0  2  0  0  0  0  0  0  0  0  0
   -7.4627   16.4507   38.7392 N   0  0  0  0  0  0  0  0  0  0  0  0
   -5.3863   17.7884   38.5038 C   0  0  0  0  0  0  0  0  0  0  0  0
   -3.8298   17.7059   38.3220 C   0  0  2  0  0  0  0  0  0  0  0  0
   -3.2761   19.0566   38.2529 N   0  0  0  0  0  0  0  0  0  0  0  0
   -3.4123   16.9136   37.0043 C   0  0  2  0  0  0  0  0  0  0  0  0
   -4.0214   15.4853   37.1073 C   0  0  2  0  0  0  0  0  0  0  0  0
   -3.5740   14.8036   35.8353 O   0  0  0  0  0  0  0  0  0  0  0  0
   -5.6414   15.5763   37.2280 C   0  0  1  0  0  0  0  0  0  0  0  0
   -6.3220   14.2903   37.3866 O   0  0  0  0  0  0  0  0  0  0  0  0
   -3.4078   13.4565   36.0225 C   0  0  1  0  0  0  0  0  0  0  0  0
   -2.9100   12.7666   34.8278 C   0  0  2  0  0  0  0  0  0  0  0  0
   -3.9568   12.7130   33.9123 O   0  0  0  0  0  0  0  0  0  0  0  0
   -2.3552   11.4642   35.4436 C   0  0  2  0  0  0  0  0  0  0  0  0
   -3.1012   10.3743   34.8562 O   0  0  0  0  0  0  0  0  0  0  0  0
   -2.5991   11.5995   36.9106 C   0  0  2  0  0  0  0  0  0  0  0  0
   -2.4499   13.0621   36.9907 O   0  0  0  0  0  0  0  0  0  0  0  0
   -1.4799   10.8893   37.7576 C   0  0  0  0  0  0  0  0  0  0  0  0
   -1.6951   10.9717   39.1984 O   0  0  0  0  0  0  0  0  0  0  0  0
   -2.5002    9.0462   34.9323 C   0  0  2  0  0  0  0  0  0  0  0  0
   -3.4266    8.0152   34.0998 C   0  0  2  0  0  0  0  0  0  0  0  0
   -4.8133    8.0292   34.6685 N   0  0  0  0  0  0  0  0  0  0  0  0
   -2.7561    6.5567   34.1853 C   0  0  1  0  0  0  0  0  0  0  0  0
   -1.4160    6.6612   33.6154 O   0  0  0  0  0  0  0  0  0  0  0  0
   -2.6972    6.0885   35.7090 C   0  0  2  0  0  0  0  0  0  0  0  0
   -4.0870    5.9932   36.2087 O   0  0  0  0  0  0  0  0  0  0  0  0
   -1.8063    7.1735   36.5403 C   0  0  1  0  0  0  0  0  0  0  0  0
   -2.4109    8.5469   36.3889 O   0  0  0  0  0  0  0  0  0  0  0  0
   -1.7417    6.7538   38.0464 C   0  0  0  0  0  0  0  0  0  0  0  0
   -3.0864    6.7335   38.7012 N   0  0  0  0  0  0  0  0  0  0  0  0
  1  3  1  0  0  0  0
  1  2  1  1  0  0  0
  3  4  1  1  0  0  0
  3  5  1  0  0  0  0
  5  6  1  6  0  0  0
  7  8  1  1  0  0  0
  7  5  1  0  0  0  0
  9 11  1  6  0  0  0
  9  7  1  0  0  0  0
 10  9  1  0  0  0  0
 10  1  1  0  0  0  0
 12 11  1  0  0  0  0
 13 14  1  6  0  0  0
 15 13  1  0  0  0  0
 16 17  1  6  0  0  0
 16 15  1  0  0  0  0
 18  2  1  1  0  0  0
 18 19  1  0  0  0  0
 18 16  1  0  0  0  0
 19 20  1  6  0  0  0
 19 21  1  0  0  0  0
 21 22  1  1  0  0  0
 21 13  1  0  0  0  0
 23 20  1  6  0  0  0
 23 29  1  0  0  0  0
 24 25  1  6  0  0  0
 24 26  1  0  0  0  0
 24 23  1  0  0  0  0
 26 27  1  6  0  0  0
 26 28  1  0  0  0  0
 28 30  1  1  0  0  0
 29 28  1  0  0  0  0
 30 31  1  0  0  0  0
 32 27  1  1  0  0  0
 32 40  1  0  0  0  0
 33 35  1  0  0  0  0
 33 32  1  0  0  0  0
 33 34  1  1  0  0  0
 35 36  1  1  0  0  0
 35 37  1  0  0  0  0
 37 38  1  1  0  0  0
 37 39  1  0  0  0  0
 39 41  1  1  0  0  0
 40 39  1  0  0  0  0
 41 42  1  0  0  0  0
M  END
>  <CHROM.1>
-160.83355864,-179.00601761,-171.14409665,149.14366568,-177.17658454,160.66965078
-178.71758991,-174.72462706,-62.08237914,-2.49900229,13.42033594,36.29501146
-1.45164763,-0.36404887,-3.05710861

>  <Name>
lig.pdb

>  <RI>
0

>  <Rbt.Current_Directory>
/home/itssahil/PROJECTS/Mol_Feturizer/New_Systems/rnas/4wcr

>  <Rbt.Executable>
rbdock ($Id: //depot/dev/client3/rdock/2013.1/src/exe/rbdock.cxx#4 $)

>  <Rbt.Library>
libRbt.so (2013.1, Build901 2013/11/27)

>  <Rbt.Parameter_File>
/export/apps/rDock/src/rDock_2013.1_src/data/scripts/dock_solv.prm

>  <Rbt.Receptor>
prm/pocket_docking_2.prm

>  <SCORE>
-8.06354

>  <SCORE.INTER>
-1.29673

>  <SCORE.INTER.CONST>
1

>  <SCORE.INTER.POLAR>
0

>  <SCORE.INTER.ROT>
9

>  <SCORE.INTER.SOLV>
21.0672

>  <SCORE.INTER.VDW>
-17.4869

>  <SCORE.INTER.norm>
-0.0308744

>  <SCORE.INTRA>
-6.76682

>  <SCORE.INTRA.DIHEDRAL>
-8.09068

>  <SCORE.INTRA.DIHEDRAL.0>
16.2863

>  <SCORE.INTRA.POLAR>
0

>  <SCORE.INTRA.POLAR.0>
0

>  <SCORE.INTRA.REPUL>
-0.314433

>  <SCORE.INTRA.REPUL.0>
0.314433

>  <SCORE.INTRA.SOLV>
-2.82344

>  <SCORE.INTRA.SOLV.lig_0>
-103.824

>  <SCORE.INTRA.VDW>
0.262409

>  <SCORE.INTRA.VDW.0>
-5.30945

>  <SCORE.INTRA.norm>
-0.161115

>  <SCORE.RESTR>
0

>  <SCORE.RESTR.CAVITY>
0

>  <SCORE.RESTR.norm>
0

>  <SCORE.SYSTEM>
0

>  <SCORE.SYSTEM.CONST>
0

>  <SCORE.SYSTEM.DIHEDRAL>
0

>  <SCORE.SYSTEM.SOLV>
0

>  <SCORE.SYSTEM.norm>
0

>  <SCORE.heavy>
42

>  <SCORE.norm>
-0.191989

>  <RMSD>
0.765

$$$$
lig.pdb
 OpenBabel11021811513D
libRbt.so/2013.1/901 2013/11/27
 42 45  0  0  0  0  0  0  0  0999 V2000
   -1.2878   16.4555   35.7863 C   0  0  2  0  0  0  0  0  0  0  0  0
   -1.9712   17.0299   36.9439 O   0  0  0  0  0  0  0  0  0  0  0  0
    0.1858   16.0958   36.2752 C   0  0  2  0  0  0  0  0  0  0  0  0
    0.1371   15.0948   37.3444 N   0  0  0  0  0  0  0  0  0  0  0  0
    0.9197   17.4464   36.7412 C   0  0  1  0  0  0  0  0  0  0  0  0
    2.2669   17.1805   37.1851 O   0  0  0  0  0  0  0  0  0  0  0  0
    0.8982   18.4118   35.5437 C   0  0  2  0  0  0  0  0  0  0  0  0
    1.5240   19.5937   35.9115 O   0  0  0  0  0  0  0  0  0  0  0  0
   -0.6083   18.6821   35.0902 C   0  0  2  0  0  0  0  0  0  0  0  0
   -1.2629   17.4659   34.7082 O   0  0  0  0  0  0  0  0  0  0  0  0
   -0.6840   19.6067   33.9084 C   0  0  0  0  0  0  0  0  0  0  0  0
   -2.0650   19.8490   33.6369 O   0  0  0  0  0  0  0  0  0  0  0  0
   -6.0758   16.8129   38.6403 C   0  0  2  0  0  0  0  0  0  0  0  0
   -7.5099   16.9489   38.7738 N   0  0  0  0  0  0  0  0  0  0  0  0
   -5.4226   18.2155   38.3326 C   0  0  0  0  0  0  0  0  0  0  0  0
   -3.8656   18.0943   38.1787 C   0  0  2  0  0  0  0  0  0  0  0  0
   -3.3017   19.4108   37.8879 N   0  0  0  0  0  0  0  0  0  0  0  0
   -3.4455   17.0894   37.0158 C   0  0  2  0  0  0  0  0  0  0  0  0
   -4.0655   15.7024   37.3526 C   0  0  2  0  0  0  0  0  0  0  0  0
   -3.6151   14.8141   36.2165 O   0  0  0  0  0  0  0  0  0  0  0  0
   -5.6856   15.8221   37.4443 C   0  0  1  0  0  0  0  0  0  0  0  0
   -6.3764   14.5851   37.8116 O   0  0  0  0  0  0  0  0  0  0  0  0
   -3.5844   13.4973   36.5939 C   0  0  1  0  0  0  0  0  0  0  0  0
   -2.8190   12.6519   35.6717 C   0  0  2  0  0  0  0  0  0  0  0  0
   -3.5761   12.5095   34.5128 O   0  0  0  0  0  0  0  0  0  0  0  0
   -2.5301   11.4238   36.5614 C   0  0  2  0  0  0  0  0  0  0  0  0
   -3.1481   10.2872   35.9166 O   0  0  0  0  0  0  0  0  0  0  0  0
   -3.1584   11.7470   37.8768 C   0  0  2  0  0  0  0  0  0  0  0  0
   -2.9529   13.2041   37.8292 O   0  0  0  0  0  0  0  0  0  0  0  0
   -2.3570   11.1215   39.0772 C   0  0  0  0  0  0  0  0  0  0  0  0
   -0.9588   11.5361   39.1270 O   0  0  0  0  0  0  0  0  0  0  0  0
   -2.6171    8.9691   36.2508 C   0  0  2  0  0  0  0  0  0  0  0  0
   -3.4727    7.8536   35.4521 C   0  0  2  0  0  0  0  0  0  0  0  0
   -4.9184    7.9798   35.8270 N   0  0  0  0  0  0  0  0  0  0  0  0
   -2.8794    6.4062   35.8225 C   0  0  1  0  0  0  0  0  0  0  0  0
   -1.4748    6.3981   35.4243 O   0  0  0  0  0  0  0  0  0  0  0  0
   -3.0333    6.1551   37.3902 C   0  0  2  0  0  0  0  0  0  0  0  0
   -4.4779    6.1636   37.7117 O   0  0  0  0  0  0  0  0  0  0  0  0
   -2.2106    7.3247   38.1756 C   0  0  1  0  0  0  0  0  0  0  0  0
   -2.7337    8.6771   37.7609 O   0  0  0  0  0  0  0  0  0  0  0  0
   -2.3546    7.1191   39.7202 C   0  0  0  0  0  0  0  0  0  0  0  0
   -1.5632    5.9555   40.2270 N   0  0  0  0  0  0  0  0  0  0  0  0
  1  3  1  0  0  0  0
  1  2  1  1  0  0  0
  3  4  1  1  0  0  0
  3  5  1  0  0  0  0
  5  6  1  6  0  0  0
  7  8  1  1  0  0  0
  7  5  1  0  0  0  0
  9 11  1  6  0  0  0
  9  7  1  0  0  0  0
 10  9  1  0  0  0  0
 10  1  1  0  0  0  0
 12 11  1  0  0  0  0
 13 14  1  6  0  0  0
 15 13  1  0  0  0  0
 16 17  1  6  0  0  0
 16 15  1  0  0  0  0
 18  2  1  1  0  0  0
 18 19  1  0  0  0  0
 18 16  1  0  0  0  0
 19 20  1  6  0  0  0
 19 21  1  0  0  0  0
 21 22  1  1  0  0  0
 21 13  1  0  0  0  0
 23 20  1  6  0  0  0
 23 29  1  0  0  0  0
 24 25  1  6  0  0  0
 24 26  1  0  0  0  0
 24 23  1  0  0  0  0
 26 27  1  6  0  0  0
 26 28  1  0  0  0  0
 28 30  1  1  0  0  0
 29 28  1  0  0  0  0
 30 31  1  0  0  0  0
 32 27  1  1  0  0  0
 32 40  1  0  0  0  0
 33 35  1  0  0  0  0
 33 32  1  0  0  0  0
 33 34  1  1  0  0  0
 35 36  1  1  0  0  0
 35 37  1  0  0  0  0
 37 38  1  1  0  0  0
 37 39  1  0  0  0  0
 39 41  1  1  0  0  0
 40 39  1  0  0  0  0
 41 42  1  0  0  0  0
M  END
>  <CHROM.1>
-160.33710962,-176.43383278,-165.05681927,155.01710094,-164.22969259,157.30416982
57.18042451,178.59313657,72.74990975,-2.55647724,13.50990401,36.88244349
-1.45175670,-0.29553353,3.07067148

>  <Name>
lig.pdb

>  <RI>
0

>  <Rbt.Current_Directory>
/home/itssahil/PROJECTS/Mol_Feturizer/New_Systems/rnas/4wcr

>  <Rbt.Executable>
rbdock ($Id: //depot/dev/client3/rdock/2013.1/src/exe/rbdock.cxx#4 $)

>  <Rbt.Library>
libRbt.so (2013.1, Build901 2013/11/27)

>  <Rbt.Parameter_File>
/export/apps/rDock/src/rDock_2013.1_src/data/scripts/dock_solv.prm

>  <Rbt.Receptor>
prm/pocket_docking_2.prm

>  <SCORE>
-9.09909

>  <SCORE.INTER>
-3.02084

>  <SCORE.INTER.CONST>
1

>  <SCORE.INTER.POLAR>
0

>  <SCORE.INTER.ROT>
9

>  <SCORE.INTER.SOLV>
21.0399

>  <SCORE.INTER.VDW>
-18.6272

>  <SCORE.INTER.norm>
-0.0719249

>  <SCORE.INTRA>
-6.07825

>  <SCORE.INTRA.DIHEDRAL>
-6.2835

>  <SCORE.INTRA.DIHEDRAL.0>
16.2863

>  <SCORE.INTRA.POLAR>
0

>  <SCORE.INTRA.POLAR.0>
0

>  <SCORE.INTRA.REPUL>
-0.314433

>  <SCORE.INTRA.REPUL.0>
0.314433

>  <SCORE.INTRA.SOLV>
-4.16602

>  <SCORE.INTRA.SOLV.lig_0>
-103.824

>  <SCORE.INTRA.VDW>
0.718675

>  <SCORE.INTRA.VDW.0>
-5.30945

>  <SCORE.INTRA.norm>
-0.14472

>  <SCORE.RESTR>
0

>  <SCORE.RESTR.CAVITY>
0

>  <SCORE.RESTR.norm>
0

>  <SCORE.SYSTEM>
0

>  <SCORE.SYSTEM.CONST>
0

>  <SCORE.SYSTEM.DIHEDRAL>
0

>  <SCORE.SYSTEM.SOLV>
0

>  <SCORE.SYSTEM.norm>
0

>  <SCORE.heavy>
42

>  <SCORE.norm>
-0.216645

>  <RMSD>
0.775

$$$$
lig.pdb
 OpenBabel11021811513D
libRbt.so/2013.1/901 2013/11/27
 42 45  0  0  0  0  0  0  0  0999 V2000
   -1.3183   16.1438   35.8822 C   0  0  2  0  0  0  0  0  0  0  0  0
   -1.9908   16.7534   37.0282 O   0  0  0  0  0  0  0  0  0  0  0  0
    0.1974   15.9244   36.3233 C   0  0  2  0  0  0  0  0  0  0  0  0
    0.2681   15.0042   37.4616 N   0  0  0  0  0  0  0  0  0  0  0  0
    0.8506   17.3534   36.6567 C   0  0  1  0  0  0  0  0  0  0  0  0
    2.2315   17.2151   37.0523 O   0  0  0  0  0  0  0  0  0  0  0  0
    0.7071   18.2239   35.3965 C   0  0  2  0  0  0  0  0  0  0  0  0
    1.2605   19.4703   35.6491 O   0  0  0  0  0  0  0  0  0  0  0  0
   -0.8334   18.3547   34.9986 C   0  0  2  0  0  0  0  0  0  0  0  0
   -1.4137   17.0711   34.7356 O   0  0  0  0  0  0  0  0  0  0  0  0
   -1.0273   19.1820   33.7595 C   0  0  0  0  0  0  0  0  0  0  0  0
   -0.6526   20.5241   34.0728 O   0  0  0  0  0  0  0  0  0  0  0  0
   -6.1160   16.3824   38.6462 C   0  0  2  0  0  0  0  0  0  0  0  0
   -7.5476   16.5331   38.7907 N   0  0  0  0  0  0  0  0  0  0  0  0
   -5.4254   17.7983   38.5636 C   0  0  0  0  0  0  0  0  0  0  0  0
   -3.8705   17.6622   38.4020 C   0  0  2  0  0  0  0  0  0  0  0  0
   -3.2715   18.9928   38.3223 N   0  0  0  0  0  0  0  0  0  0  0  0
   -3.4639   16.8391   37.0998 C   0  0  2  0  0  0  0  0  0  0  0  0
   -4.1211   15.4332   37.2136 C   0  0  2  0  0  0  0  0  0  0  0  0
   -3.6816   14.7203   35.9561 O   0  0  0  0  0  0  0  0  0  0  0  0
   -5.7386   15.5791   37.3132 C   0  0  1  0  0  0  0  0  0  0  0  0
   -6.4632   14.3185   37.4800 O   0  0  0  0  0  0  0  0  0  0  0  0
   -3.5312   13.3755   36.1709 C   0  0  1  0  0  0  0  0  0  0  0  0
   -3.0015   12.6619   35.0041 C   0  0  2  0  0  0  0  0  0  0  0  0
   -4.0197   12.6000   34.0574 O   0  0  0  0  0  0  0  0  0  0  0  0
   -2.4757   11.3665   35.6588 C   0  0  2  0  0  0  0  0  0  0  0  0
   -3.2111   10.2719   35.0667 O   0  0  0  0  0  0  0  0  0  0  0  0
   -2.7642   11.5284   37.1149 C   0  0  2  0  0  0  0  0  0  0  0  0
   -2.6069   12.9911   37.1751 O   0  0  0  0  0  0  0  0  0  0  0  0
   -1.6772   10.8251   38.0083 C   0  0  0  0  0  0  0  0  0  0  0  0
   -1.9453   10.9192   39.4395 O   0  0  0  0  0  0  0  0  0  0  0  0
   -2.7370    8.9227   35.3601 C   0  0  2  0  0  0  0  0  0  0  0  0
   -3.4234    7.8988   34.3139 C   0  0  2  0  0  0  0  0  0  0  0  0
   -4.9143    7.9999   34.4315 N   0  0  0  0  0  0  0  0  0  0  0  0
   -2.8935    6.4169   34.6412 C   0  0  1  0  0  0  0  0  0  0  0  0
   -1.4400    6.4359   34.5049 O   0  0  0  0  0  0  0  0  0  0  0  0
   -3.3261    6.0139   36.1227 C   0  0  2  0  0  0  0  0  0  0  0  0
   -4.8050    6.0032   36.1767 O   0  0  0  0  0  0  0  0  0  0  0  0
   -2.6700    7.0933   37.1553 C   0  0  1  0  0  0  0  0  0  0  0  0
   -3.1221    8.4845   36.7879 O   0  0  0  0  0  0  0  0  0  0  0  0
   -3.0892    6.7379   38.6204 C   0  0  0  0  0  0  0  0  0  0  0  0
   -2.4175    7.6000   39.6416 N   0  0  0  0  0  0  0  0  0  0  0  0
  1  3  1  0  0  0  0
  1  2  1  1  0  0  0
  3  4  1  1  0  0  0
  3  5  1  0  0  0  0
  5  6  1  6  0  0  0
  7  8  1  1  0  0  0
  7  5  1  0  0  0  0
  9 11  1  6  0  0  0
  9  7  1  0  0  0  0
 10  9  1  0  0  0  0
 10  1  1  0  0  0  0
 12 11  1  0  0  0  0
 13 14  1  6  0  0  0
 15 13  1  0  0  0  0
 16 17  1  6  0  0  0
 16 15  1  0  0  0  0
 18  2  1  1  0  0  0
 18 19  1  0  0  0  0
 18 16  1  0  0  0  0
 19 20  1  6  0  0  0
 19 21  1  0  0  0  0
 21 22  1  1  0  0  0
 21 13  1  0  0  0  0
 23 20  1  6  0  0  0
 23 29  1  0  0  0  0
 24 25  1  6  0  0  0
 24 26  1  0  0  0  0
 24 23  1  0  0  0  0
 26 27  1  6  0  0  0
 26 28  1  0  0  0  0
 28 30  1  1  0  0  0
 29 28  1  0  0  0  0
 30 31  1  0  0  0  0
 32 27  1  6  0  0  0
 32 40  1  0  0  0  0
 33 35  1  0  0  0  0
 33 32  1  0  0  0  0
 33 34  1  1  0  0  0
 35 36  1  1  0  0  0
 35 37  1  0  0  0  0
 37 38  1  6  0  0  0
 37 39  1  0  0  0  0
 39 41  1  1  0  0  0
 40 39  1  0  0  0  0
 41 42  1  0  0  0  0
M  END
>  <CHROM.1>
-166.73831995,-67.06000142,-175.18159033,147.68097151,-175.37135121,169.96706708
-178.00158157,-165.02446613,174.27628228,-2.63672337,13.37545842,36.46990405
-1.39721462,-0.41712146,-3.06833781

>  <Name>
lig.pdb

>  <RI>
0

>  <Rbt.Current_Directory>
/home/itssahil/PROJECTS/Mol_Feturizer/New_Systems/rnas/4wcr

>  <Rbt.Executable>
rbdock ($Id: //depot/dev/client3/rdock/2013.1/src/exe/rbdock.cxx#4 $)

>  <Rbt.Library>
libRbt.so (2013.1, Build901 2013/11/27)

>  <Rbt.Parameter_File>
/export/apps/rDock/src/rDock_2013.1_src/data/scripts/dock_solv.prm

>  <Rbt.Receptor>
prm/pocket_docking_2.prm

>  <SCORE>
-9.81345

>  <SCORE.INTER>
-2.20297

>  <SCORE.INTER.CONST>
1

>  <SCORE.INTER.POLAR>
0

>  <SCORE.INTER.ROT>
9

>  <SCORE.INTER.SOLV>
20.7513

>  <SCORE.INTER.VDW>
-17.9858

>  <SCORE.INTER.norm>
-0.0524516

>  <SCORE.INTRA>
-7.61048

>  <SCORE.INTRA.DIHEDRAL>
-8.832

>  <SCORE.INTRA.DIHEDRAL.0>
16.2863

>  <SCORE.INTRA.POLAR>
0

>  <SCORE.INTRA.POLAR.0>
0

>  <SCORE.INTRA.REPUL>
-0.314433

>  <SCORE.INTRA.REPUL.0>
0.314433

>  <SCORE.INTRA.SOLV>
-3.97111

>  <SCORE.INTRA.SOLV.lig_0>
-103.824

>  <SCORE.INTRA.VDW>
0.363237

>  <SCORE.INTRA.VDW.0>
-5.30945

>  <SCORE.INTRA.norm>
-0.181202

>  <SCORE.RESTR>
0

>  <SCORE.RESTR.CAVITY>
0

>  <SCORE.RESTR.norm>
0

>  <SCORE.SYSTEM>
0

>  <SCORE.SYSTEM.CONST>
0

>  <SCORE.SYSTEM.DIHEDRAL>
0

>  <SCORE.SYSTEM.SOLV>
0

>  <SCORE.SYSTEM.norm>
0

>  <SCORE.heavy>
42

>  <SCORE.norm>
-0.233654

>  <RMSD>
0.777

$$$$
lig.pdb
 OpenBabel11021811513D
libRbt.so/2013.1/901 2013/11/27
 42 45  0  0  0  0  0  0  0  0999 V2000
   -1.2591   16.3130   35.7566 C   0  0  2  0  0  0  0  0  0  0  0  0
   -1.9436   16.8633   36.9252 O   0  0  0  0  0  0  0  0  0  0  0  0
    0.2256   15.9784   36.2295 C   0  0  2  0  0  0  0  0  0  0  0  0
    0.2061   14.9670   37.2899 N   0  0  0  0  0  0  0  0  0  0  0  0
    0.9366   17.3390   36.7017 C   0  0  1  0  0  0  0  0  0  0  0  0
    2.2926   17.0960   37.1315 O   0  0  0  0  0  0  0  0  0  0  0  0
    0.8855   18.3146   35.5133 C   0  0  2  0  0  0  0  0  0  0  0  0
    1.4909   19.5053   35.8866 O   0  0  0  0  0  0  0  0  0  0  0  0
   -0.6299   18.5590   35.0752 C   0  0  2  0  0  0  0  0  0  0  0  0
   -1.2636   17.3335   34.6877 O   0  0  0  0  0  0  0  0  0  0  0  0
   -0.7343   19.4925   33.9027 C   0  0  0  0  0  0  0  0  0  0  0  0
   -2.1215   19.6694   33.6131 O   0  0  0  0  0  0  0  0  0  0  0  0
   -6.0566   16.4054   38.5519 C   0  0  2  0  0  0  0  0  0  0  0  0
   -7.4909   16.5246   38.6986 N   0  0  0  0  0  0  0  0  0  0  0  0
   -5.3980   17.8362   38.4636 C   0  0  0  0  0  0  0  0  0  0  0  0
   -3.8407   17.7343   38.2995 C   0  0  2  0  0  0  0  0  0  0  0  0
   -3.2717   19.0778   38.2145 N   0  0  0  0  0  0  0  0  0  0  0  0
   -3.4181   16.9163   36.9992 C   0  0  2  0  0  0  0  0  0  0  0  0
   -4.0435   15.4964   37.1187 C   0  0  2  0  0  0  0  0  0  0  0  0
   -3.5904   14.7895   35.8627 O   0  0  0  0  0  0  0  0  0  0  0  0
   -5.6637   15.6065   37.2209 C   0  0  1  0  0  0  0  0  0  0  0  0
   -6.3596   14.3305   37.3931 O   0  0  0  0  0  0  0  0  0  0  0  0
   -3.4459   13.4431   36.0719 C   0  0  1  0  0  0  0  0  0  0  0  0
   -2.9012   12.7351   34.9086 C   0  0  2  0  0  0  0  0  0  0  0  0
   -3.9059   12.6809   33.9471 O   0  0  0  0  0  0  0  0  0  0  0  0
   -2.3875   11.4348   35.5631 C   0  0  2  0  0  0  0  0  0  0  0  0
   -3.1168   10.3452   34.9543 O   0  0  0  0  0  0  0  0  0  0  0  0
   -2.6964   11.5889   37.0159 C   0  0  2  0  0  0  0  0  0  0  0  0
   -2.5368   13.0508   37.0869 O   0  0  0  0  0  0  0  0  0  0  0  0
   -1.6237   10.8780   37.9205 C   0  0  0  0  0  0  0  0  0  0  0  0
   -1.9091   10.9691   39.3486 O   0  0  0  0  0  0  0  0  0  0  0  0
   -2.6601    8.9928   35.2599 C   0  0  2  0  0  0  0  0  0  0  0  0
   -3.4512    7.9558   34.3044 C   0  0  2  0  0  0  0  0  0  0  0  0
   -4.9257    8.1065   34.5278 N   0  0  0  0  0  0  0  0  0  0  0  0
   -2.9401    6.4702   34.6444 C   0  0  1  0  0  0  0  0  0  0  0  0
   -1.5009    6.4401   34.4009 O   0  0  0  0  0  0  0  0  0  0  0  0
   -3.2720    6.1305   36.1672 C   0  0  2  0  0  0  0  0  0  0  0  0
   -4.7425    6.1669   36.3304 O   0  0  0  0  0  0  0  0  0  0  0  0
   -2.5106    7.2234   37.1095 C   0  0  1  0  0  0  0  0  0  0  0  0
   -2.9497    8.6146   36.7270 O   0  0  0  0  0  0  0  0  0  0  0  0
   -2.8290    6.9302   38.6133 C   0  0  0  0  0  0  0  0  0  0  0  0
   -2.2033    5.6628   39.1025 N   0  0  0  0  0  0  0  0  0  0  0  0
  1  3  1  0  0  0  0
  1  2  1  1  0  0  0
  3  4  1  1  0  0  0
  3  5  1  0  0  0  0
  5  6  1  6  0  0  0
  7  8  1  1  0  0  0
  7  5  1  0  0  0  0
  9 11  1  6  0  0  0
  9  7  1  0  0  0  0
 10  9  1  0  0  0  0
 10  1  1  0  0  0  0
 12 11  1  0  0  0  0
 13 14  1  6  0  0  0
 15 13  1  0  0  0  0
 16 17  1  6  0  0  0
 16 15  1  0  0  0  0
 18  2  1  1  0  0  0
 18 19  1  0  0  0  0
 18 16  1  0  0  0  0
 19 20  1  6  0  0  0
 19 21  1  0  0  0  0
 21 22  1  1  0  0  0
 21 13  1  0  0  0  0
 23 20  1  6  0  0  0
 23 29  1  0  0  0  0
 24 25  1  6  0  0  0
 24 26  1  0  0  0  0
 24 23  1  0  0  0  0
 26 27  1  6  0  0  0
 26 28  1  0  0  0  0
 28 30  1  1  0  0  0
 29 28  1  0  0  0  0
 30 31  1  0  0  0  0
 32 27  1  6  0  0  0
 32 40  1  0  0  0  0
 33 35  1  0  0  0  0
 33 32  1  0  0  0  0
 33 34  1  1  0  0  0
 35 36  1  1  0  0  0
 35 37  1  0  0  0  0
 37 38  1  6  0  0  0
 37 39  1  0  0  0  0
 39 41  1  1  0  0  0
 40 39  1  0  0  0  0
 41 42  1  0  0  0  0
M  END
>  <CHROM.1>
-161.51934866,-178.60051571,-172.73476541,149.39361007,-175.25385785,170.71221295
-178.24076384,-171.11338678,68.86041920,-2.59465092,13.38134874,36.40486539
-1.42266452,-0.34662899,-3.09163982

>  <Name>
lig.pdb

>  <RI>
0

>  <Rbt.Current_Directory>
/home/itssahil/PROJECTS/Mol_Feturizer/New_Systems/rnas/4wcr

>  <Rbt.Executable>
rbdock ($Id: //depot/dev/client3/rdock/2013.1/src/exe/rbdock.cxx#4 $)

>  <Rbt.Library>
libRbt.so (2013.1, Build901 2013/11/27)

>  <Rbt.Parameter_File>
/export/apps/rDock/src/rDock_2013.1_src/data/scripts/dock_solv.prm

>  <Rbt.Receptor>
prm/pocket_docking_2.prm

>  <SCORE>
-10.3652

>  <SCORE.INTER>
-2.50905

>  <SCORE.INTER.CONST>
1

>  <SCORE.INTER.POLAR>
0

>  <SCORE.INTER.ROT>
9

>  <SCORE.INTER.SOLV>
21.6177

>  <SCORE.INTER.VDW>
-18.4786

>  <SCORE.INTER.norm>
-0.0597392

>  <SCORE.INTRA>
-7.85611

>  <SCORE.INTRA.DIHEDRAL>
-9.0257

>  <SCORE.INTRA.DIHEDRAL.0>
16.2863

>  <SCORE.INTRA.POLAR>
0

>  <SCORE.INTRA.POLAR.0>
0

>  <SCORE.INTRA.REPUL>
-0.314433

>  <SCORE.INTRA.REPUL.0>
0.314433

>  <SCORE.INTRA.SOLV>
-4.68543

>  <SCORE.INTRA.SOLV.lig_0>
-103.824

>  <SCORE.INTRA.VDW>
0.571621

>  <SCORE.INTRA.VDW.0>
-5.30945

>  <SCORE.INTRA.norm>
-0.18705

>  <SCORE.RESTR>
0

>  <SCORE.RESTR.CAVITY>
0

>  <SCORE.RESTR.norm>
0

>  <SCORE.SYSTEM>
0

>  <SCORE.SYSTEM.CONST>
0

>  <SCORE.SYSTEM.DIHEDRAL>
0

>  <SCORE.SYSTEM.SOLV>
0

>  <SCORE.SYSTEM.norm>
0

>  <SCORE.heavy>
42

>  <SCORE.norm>
-0.246789

>  <RMSD>
0.796

$$$$
lig.pdb
 OpenBabel11021811513D
libRbt.so/2013.1/901 2013/11/27
 42 45  0  0  0  0  0  0  0  0999 V2000
   -1.2626   16.1947   36.0598 C   0  0  2  0  0  0  0  0  0  0  0  0
   -1.9915   16.8948   37.1161 O   0  0  0  0  0  0  0  0  0  0  0  0
    0.2506   16.1029   36.5517 C   0  0  2  0  0  0  0  0  0  0  0  0
    0.3371   15.3213   37.7883 N   0  0  0  0  0  0  0  0  0  0  0  0
    0.8263   17.5913   36.7330 C   0  0  1  0  0  0  0  0  0  0  0  0
    2.2021   17.5681   37.1681 O   0  0  0  0  0  0  0  0  0  0  0  0
    0.6724   18.3062   35.3796 C   0  0  2  0  0  0  0  0  0  0  0  0
    1.1592   19.5993   35.4996 O   0  0  0  0  0  0  0  0  0  0  0  0
   -0.8623   18.3138   34.9401 C   0  0  2  0  0  0  0  0  0  0  0  0
   -1.3739   16.9812   34.8137 O   0  0  0  0  0  0  0  0  0  0  0  0
   -1.0649   18.9856   33.6117 C   0  0  0  0  0  0  0  0  0  0  0  0
   -0.8052   20.3789   33.7878 O   0  0  0  0  0  0  0  0  0  0  0  0
   -6.1810   16.8367   38.6053 C   0  0  2  0  0  0  0  0  0  0  0  0
   -7.6175   17.0008   38.6555 N   0  0  0  0  0  0  0  0  0  0  0  0
   -5.4886   18.2092   38.2511 C   0  0  0  0  0  0  0  0  0  0  0  0
   -3.9281   18.0569   38.1861 C   0  0  2  0  0  0  0  0  0  0  0  0
   -3.3273   19.3459   37.8493 N   0  0  0  0  0  0  0  0  0  0  0  0
   -3.4663   16.9794   37.1072 C   0  0  2  0  0  0  0  0  0  0  0  0
   -4.1267   15.6236   37.4911 C   0  0  2  0  0  0  0  0  0  0  0  0
   -3.6340   14.6636   36.4336 O   0  0  0  0  0  0  0  0  0  0  0  0
   -5.7471   15.7717   37.4909 C   0  0  1  0  0  0  0  0  0  0  0  0
   -6.4771   14.5685   37.8928 O   0  0  0  0  0  0  0  0  0  0  0  0
   -3.6725   13.3681   36.8782 C   0  0  1  0  0  0  0  0  0  0  0  0
   -3.1759   12.4054   35.8894 C   0  0  2  0  0  0  0  0  0  0  0  0
   -4.1387   12.3019   34.8900 O   0  0  0  0  0  0  0  0  0  0  0  0
   -2.8610   11.1897   36.7874 C   0  0  2  0  0  0  0  0  0  0  0  0
   -3.6985   10.1045   36.3287 O   0  0  0  0  0  0  0  0  0  0  0  0
   -3.2070   11.6346   38.1701 C   0  0  2  0  0  0  0  0  0  0  0  0
   -2.8639   13.0563   38.0005 O   0  0  0  0  0  0  0  0  0  0  0  0
   -2.2727   10.9724   39.2486 C   0  0  0  0  0  0  0  0  0  0  0  0
   -0.8662   11.3338   39.1060 O   0  0  0  0  0  0  0  0  0  0  0  0
   -3.0699    8.7929   36.2031 C   0  0  2  0  0  0  0  0  0  0  0  0
   -4.2155    7.7057   35.8575 C   0  0  2  0  0  0  0  0  0  0  0  0
   -5.2526    7.7217   36.9396 N   0  0  0  0  0  0  0  0  0  0  0  0
   -3.5149    6.2658   35.7172 C   0  0  1  0  0  0  0  0  0  0  0  0
   -2.5252    6.3672   34.6485 O   0  0  0  0  0  0  0  0  0  0  0  0
   -2.8268    5.8734   37.1017 C   0  0  2  0  0  0  0  0  0  0  0  0
   -3.8906    5.7769   38.1260 O   0  0  0  0  0  0  0  0  0  0  0  0
   -1.7160    7.0139   37.4586 C   0  0  1  0  0  0  0  0  0  0  0  0
   -2.3800    8.3669   37.5153 O   0  0  0  0  0  0  0  0  0  0  0  0
   -1.0317    6.6694   38.8230 C   0  0  0  0  0  0  0  0  0  0  0  0
   -1.9845    6.7050   39.9754 N   0  0  0  0  0  0  0  0  0  0  0  0
  1  3  1  0  0  0  0
  1  2  1  1  0  0  0
  3  4  1  1  0  0  0
  3  5  1  0  0  0  0
  5  6  1  6  0  0  0
  7  8  1  1  0  0  0
  7  5  1  0  0  0  0
  9 11  1  6  0  0  0
  9  7  1  0  0  0  0
 10  9  1  0  0  0  0
 10  1  1  0  0  0  0
 12 11  1  0  0  0  0
 13 14  1  6  0  0  0
 15 13  1  0  0  0  0
 16 17  1  6  0  0  0
 16 15  1  0  0  0  0
 18  2  1  1  0  0  0
 18 19  1  0  0  0  0
 18 16  1  0  0  0  0
 19 20  1  6  0  0  0
 19 21  1  0  0  0  0
 21 22  1  1  0  0  0
 21 13  1  0  0  0  0
 23 20  1  6  0  0  0
 23 29  1  0  0  0  0
 24 25  1  6  0  0  0
 24 26  1  0  0  0  0
 24 23  1  0  0  0  0
 26 27  1  6  0  0  0
 26 28  1  0  0  0  0
 28 30  1  1  0  0  0
 29 28  1  0  0  0  0
 30 31  1  0  0  0  0
 32 27  1  1  0  0  0
 32 40  1  0  0  0  0
 33 35  1  0  0  0  0
 33 32  1  0  0  0  0
 33 34  1  1  0  0  0
 35 36  1  6  0  0  0
 35 37  1  0  0  0  0
 37 38  1  1  0  0  0
 37 39  1  0  0  0  0
 39 41  1  1  0  0  0
 40 39  1  0  0  0  0
 41 42  1  0  0  0  0
M  END
>  <CHROM.1>
-170.28148926,-68.92570998,-167.65425692,156.31374327,-178.83435372,136.04605312
62.75179673,173.12641015,-64.17933948,-2.62232943,13.40500560,36.91655022
-1.44050810,-0.27740413,3.08485477

>  <Name>
lig.pdb

>  <RI>
0

>  <Rbt.Current_Directory>
/home/itssahil/PROJECTS/Mol_Feturizer/New_Systems/rnas/4wcr

>  <Rbt.Executable>
rbdock ($Id: //depot/dev/client3/rdock/2013.1/src/exe/rbdock.cxx#4 $)

>  <Rbt.Library>
libRbt.so (2013.1, Build901 2013/11/27)

>  <Rbt.Parameter_File>
/export/apps/rDock/src/rDock_2013.1_src/data/scripts/dock_solv.prm

>  <Rbt.Receptor>
prm/pocket_docking_2.prm

>  <SCORE>
-7.53743

>  <SCORE.INTER>
-1.67212

>  <SCORE.INTER.CONST>
1

>  <SCORE.INTER.POLAR>
0

>  <SCORE.INTER.ROT>
9

>  <SCORE.INTER.SOLV>
21.4982

>  <SCORE.INTER.VDW>
-17.8808

>  <SCORE.INTER.norm>
-0.0398124

>  <SCORE.INTRA>
-5.89907

>  <SCORE.INTRA.DIHEDRAL>
-5.69563

>  <SCORE.INTRA.DIHEDRAL.0>
16.2863

>  <SCORE.INTRA.POLAR>
0

>  <SCORE.INTRA.POLAR.0>
0

>  <SCORE.INTRA.REPUL>
-0.311976

>  <SCORE.INTRA.REPUL.0>
0.314433

>  <SCORE.INTRA.SOLV>
-3.29868

>  <SCORE.INTRA.SOLV.lig_0>
-103.824

>  <SCORE.INTRA.VDW>
0.157962

>  <SCORE.INTRA.VDW.0>
-5.30945

>  <SCORE.INTRA.norm>
-0.140454

>  <SCORE.RESTR>
0.0337566

>  <SCORE.RESTR.CAVITY>
0.0337566

>  <SCORE.RESTR.norm>
0.00080373

>  <SCORE.SYSTEM>
0

>  <SCORE.SYSTEM.CONST>
0

>  <SCORE.SYSTEM.DIHEDRAL>
0

>  <SCORE.SYSTEM.SOLV>
0

>  <SCORE.SYSTEM.norm>
0

>  <SCORE.heavy>
42

>  <SCORE.norm>
-0.179463

>  <RMSD>
0.844

$$$$
lig.pdb
 OpenBabel11021811513D
libRbt.so/2013.1/901 2013/11/27
 42 45  0  0  0  0  0  0  0  0999 V2000
   -1.2114   16.3917   35.6882 C   0  0  2  0  0  0  0  0  0  0  0  0
   -1.9044   16.8803   36.8791 O   0  0  0  0  0  0  0  0  0  0  0  0
    0.2704   16.0340   36.1534 C   0  0  2  0  0  0  0  0  0  0  0  0
    0.2447   14.9691   37.1599 N   0  0  0  0  0  0  0  0  0  0  0  0
    0.9768   17.3688   36.7002 C   0  0  1  0  0  0  0  0  0  0  0  0
    2.3301   17.1047   37.1262 O   0  0  0  0  0  0  0  0  0  0  0  0
    0.9329   18.4045   35.5636 C   0  0  2  0  0  0  0  0  0  0  0  0
    1.5346   19.5747   36.0021 O   0  0  0  0  0  0  0  0  0  0  0  0
   -0.5798   18.6703   35.1283 C   0  0  2  0  0  0  0  0  0  0  0  0
   -1.2096   17.4660   34.6736 O   0  0  0  0  0  0  0  0  0  0  0  0
   -0.6771   19.6632   34.0049 C   0  0  0  0  0  0  0  0  0  0  0  0
   -0.2512   20.9296   34.5093 O   0  0  0  0  0  0  0  0  0  0  0  0
   -6.0009   16.3685   38.5312 C   0  0  2  0  0  0  0  0  0  0  0  0
   -7.4371   16.4581   38.6798 N   0  0  0  0  0  0  0  0  0  0  0  0
   -5.3760   17.8115   38.4045 C   0  0  0  0  0  0  0  0  0  0  0  0
   -3.8172   17.7416   38.2376 C   0  0  2  0  0  0  0  0  0  0  0  0
   -3.2799   19.0953   38.1167 N   0  0  0  0  0  0  0  0  0  0  0  0
   -3.3794   16.9010   36.9569 C   0  0  2  0  0  0  0  0  0  0  0  0
   -3.9714   15.4705   37.1144 C   0  0  2  0  0  0  0  0  0  0  0  0
   -3.5055   14.7427   35.8750 O   0  0  0  0  0  0  0  0  0  0  0  0
   -5.5933   15.5455   37.2194 C   0  0  1  0  0  0  0  0  0  0  0  0
   -6.2589   14.2585   37.4261 O   0  0  0  0  0  0  0  0  0  0  0  0
   -3.5153   13.3850   36.0597 C   0  0  1  0  0  0  0  0  0  0  0  0
   -2.7845   12.6571   35.0171 C   0  0  2  0  0  0  0  0  0  0  0  0
   -3.5540   12.7063   33.8586 O   0  0  0  0  0  0  0  0  0  0  0  0
   -2.5298   11.3055   35.7183 C   0  0  2  0  0  0  0  0  0  0  0  0
   -3.1893   10.2932   34.9247 O   0  0  0  0  0  0  0  0  0  0  0  0
   -3.1379   11.4562   37.0737 C   0  0  2  0  0  0  0  0  0  0  0  0
   -2.8851   12.8980   37.2328 O   0  0  0  0  0  0  0  0  0  0  0  0
   -2.3490   10.6402   38.1628 C   0  0  0  0  0  0  0  0  0  0  0  0
   -0.9554   11.0485   38.3049 O   0  0  0  0  0  0  0  0  0  0  0  0
   -2.5857    8.9640   34.9159 C   0  0  2  0  0  0  0  0  0  0  0  0
   -3.5362    7.9744   34.0607 C   0  0  2  0  0  0  0  0  0  0  0  0
   -4.9053    7.9572   34.6706 N   0  0  0  0  0  0  0  0  0  0  0  0
   -2.8629    6.5148   34.0528 C   0  0  1  0  0  0  0  0  0  0  0  0
   -1.5405    6.6502   33.4491 O   0  0  0  0  0  0  0  0  0  0  0  0
   -2.7583    5.9707   35.5486 C   0  0  2  0  0  0  0  0  0  0  0  0
   -4.1324    5.8479   36.0842 O   0  0  0  0  0  0  0  0  0  0  0  0
   -1.8433    7.0143   36.4063 C   0  0  1  0  0  0  0  0  0  0  0  0
   -2.4527    8.3924   36.3423 O   0  0  0  0  0  0  0  0  0  0  0  0
   -1.7335    6.5197   37.8869 C   0  0  0  0  0  0  0  0  0  0  0  0
   -3.0613    6.4355   38.5705 N   0  0  0  0  0  0  0  0  0  0  0  0
  1  3  1  0  0  0  0
  1  2  1  1  0  0  0
  3  4  1  1  0  0  0
  3  5  1  0  0  0  0
  5  6  1  6  0  0  0
  7  8  1  1  0  0  0
  7  5  1  0  0  0  0
  9 11  1  6  0  0  0
  9  7  1  0  0  0  0
 10  9  1  0  0  0  0
 10  1  1  0  0  0  0
 12 11  1  0  0  0  0
 13 14  1  6  0  0  0
 15 13  1  0  0  0  0
 16 17  1  6  0  0  0
 16 15  1  0  0  0  0
 18  2  1  1  0  0  0
 18 19  1  0  0  0  0
 18 16  1  0  0  0  0
 19 20  1  6  0  0  0
 19 21  1  0  0  0  0
 21 22  1  1  0  0  0
 21 13  1  0  0  0  0
 23 20  1  6  0  0  0
 23 29  1  0  0  0  0
 24 25  1  6  0  0  0
 24 26  1  0  0  0  0
 24 23  1  0  0  0  0
 26 27  1  6  0  0  0
 26 28  1  0  0  0  0
 28 30  1  1  0  0  0
 29 28  1  0  0  0  0
 30 31  1  0  0  0  0
 32 27  1  1  0  0  0
 32 40  1  0  0  0  0
 33 35  1  0  0  0  0
 33 32  1  0  0  0  0
 33 34  1  1  0  0  0
 35 36  1  1  0  0  0
 35 37  1  0  0  0  0
 37 38  1  1  0  0  0
 37 39  1  0  0  0  0
 39 41  1  1  0  0  0
 40 39  1  0  0  0  0
 41 42  1  0  0  0  0
M  END
>  <CHROM.1>
-160.16872584,-67.02891597,-168.95190360,158.20628749,-166.49348677,149.01962130
60.28239305,175.99101990,-60.83204580,-2.46358519,13.39731310,36.28503797
-1.41892051,-0.36821534,-3.03890983

>  <Name>
lig.pdb

>  <RI>
0

>  <Rbt.Current_Directory>
/home/itssahil/PROJECTS/Mol_Feturizer/New_Systems/rnas/4wcr

>  <Rbt.Executable>
rbdock ($Id: //depot/dev/client3/rdock/2013.1/src/exe/rbdock.cxx#4 $)

>  <Rbt.Library>
libRbt.so (2013.1, Build901 2013/11/27)

>  <Rbt.Parameter_File>
/export/apps/rDock/src/rDock_2013.1_src/data/scripts/dock_solv.prm

>  <Rbt.Receptor>
prm/pocket_docking_2.prm

>  <SCORE>
-6.64623

>  <SCORE.INTER>
-1.25142

>  <SCORE.INTER.CONST>
1

>  <SCORE.INTER.POLAR>
0

>  <SCORE.INTER.ROT>
9

>  <SCORE.INTER.SOLV>
21.1818

>  <SCORE.INTER.VDW>
-17.4949

>  <SCORE.INTER.norm>
-0.0297958

>  <SCORE.INTRA>
-5.3948

>  <SCORE.INTRA.DIHEDRAL>
-6.49018

>  <SCORE.INTRA.DIHEDRAL.0>
16.2863

>  <SCORE.INTRA.POLAR>
0

>  <SCORE.INTRA.POLAR.0>
0

>  <SCORE.INTRA.REPUL>
-0.314046

>  <SCORE.INTRA.REPUL.0>
0.314433

>  <SCORE.INTRA.SOLV>
-2.3315

>  <SCORE.INTRA.SOLV.lig_0>
-103.824

>  <SCORE.INTRA.VDW>
0.586265

>  <SCORE.INTRA.VDW.0>
-5.30945

>  <SCORE.INTRA.norm>
-0.128448

>  <SCORE.RESTR>
0

>  <SCORE.RESTR.CAVITY>
0

>  <SCORE.RESTR.norm>
0

>  <SCORE.SYSTEM>
0

>  <SCORE.SYSTEM.CONST>
0

>  <SCORE.SYSTEM.DIHEDRAL>
0

>  <SCORE.SYSTEM.SOLV>
0

>  <SCORE.SYSTEM.norm>
0

>  <SCORE.heavy>
42

>  <SCORE.norm>
-0.158243

>  <RMSD>
0.855

$$$$
lig.pdb
 OpenBabel11021811513D
libRbt.so/2013.1/901 2013/11/27
 42 45  0  0  0  0  0  0  0  0999 V2000
   -1.5012   15.9337   35.9412 C   0  0  2  0  0  0  0  0  0  0  0  0
   -2.1298   16.1854   37.2369 O   0  0  0  0  0  0  0  0  0  0  0  0
    0.0382   15.6521   36.2428 C   0  0  2  0  0  0  0  0  0  0  0  0
    0.1824   14.4592   37.0817 N   0  0  0  0  0  0  0  0  0  0  0  0
    0.6776   16.9566   36.9278 C   0  0  1  0  0  0  0  0  0  0  0  0
    2.0786   16.7610   37.2135 O   0  0  0  0  0  0  0  0  0  0  0  0
    0.4557   18.1325   35.9611 C   0  0  2  0  0  0  0  0  0  0  0  0
    0.9953   19.2803   36.5225 O   0  0  0  0  0  0  0  0  0  0  0  0
   -1.1045   18.3165   35.6777 C   0  0  2  0  0  0  0  0  0  0  0  0
   -1.6707   17.1349   35.0973 O   0  0  0  0  0  0  0  0  0  0  0  0
   -1.3749   19.4434   34.7216 C   0  0  0  0  0  0  0  0  0  0  0  0
   -0.9725   19.0126   33.4208 O   0  0  0  0  0  0  0  0  0  0  0  0
   -6.2070   15.7453   38.9561 C   0  0  2  0  0  0  0  0  0  0  0  0
   -7.6278   15.9155   39.1685 N   0  0  0  0  0  0  0  0  0  0  0  0
   -5.4787   17.1440   39.0009 C   0  0  0  0  0  0  0  0  0  0  0  0
   -3.9347   16.9869   38.7685 C   0  0  2  0  0  0  0  0  0  0  0  0
   -3.3003   18.3028   38.8104 N   0  0  0  0  0  0  0  0  0  0  0  0
   -3.5965   16.3000   37.3713 C   0  0  2  0  0  0  0  0  0  0  0  0
   -4.2901   14.9071   37.3574 C   0  0  2  0  0  0  0  0  0  0  0  0
   -3.9142   14.3239   36.0152 O   0  0  0  0  0  0  0  0  0  0  0  0
   -5.8983   15.0821   37.5316 C   0  0  1  0  0  0  0  0  0  0  0  0
   -6.6532   13.8294   37.5884 O   0  0  0  0  0  0  0  0  0  0  0  0
   -3.5576   13.0056   36.1256 C   0  0  1  0  0  0  0  0  0  0  0  0
   -3.2075   12.3944   34.8391 C   0  0  2  0  0  0  0  0  0  0  0  0
   -4.3897   12.2221   34.1254 O   0  0  0  0  0  0  0  0  0  0  0  0
   -2.3987   11.1639   35.3027 C   0  0  2  0  0  0  0  0  0  0  0  0
   -3.1043    9.9966   34.8238 O   0  0  0  0  0  0  0  0  0  0  0  0
   -2.3854   11.2530   36.7931 C   0  0  2  0  0  0  0  0  0  0  0  0
   -2.3993   12.7219   36.8927 O   0  0  0  0  0  0  0  0  0  0  0  0
   -1.0542   10.6770   37.4017 C   0  0  0  0  0  0  0  0  0  0  0  0
   -1.0020   10.7381   38.8587 O   0  0  0  0  0  0  0  0  0  0  0  0
   -2.4090    8.7170   34.9252 C   0  0  2  0  0  0  0  0  0  0  0  0
   -3.2685    7.6016   34.1307 C   0  0  2  0  0  0  0  0  0  0  0  0
   -4.6463    7.5315   34.7168 N   0  0  0  0  0  0  0  0  0  0  0  0
   -2.4946    6.1973   34.2439 C   0  0  1  0  0  0  0  0  0  0  0  0
   -1.1718    6.3821   33.6543 O   0  0  0  0  0  0  0  0  0  0  0  0
   -2.3855    5.7739   35.7780 C   0  0  2  0  0  0  0  0  0  0  0  0
   -3.7593    5.5929   36.2978 O   0  0  0  0  0  0  0  0  0  0  0  0
   -1.5653    6.9406   36.5703 C   0  0  1  0  0  0  0  0  0  0  0  0
   -2.2682    8.2631   36.3926 O   0  0  0  0  0  0  0  0  0  0  0  0
   -1.4542    6.5656   38.0855 C   0  0  0  0  0  0  0  0  0  0  0  0
   -2.7782    6.5639   38.7814 N   0  0  0  0  0  0  0  0  0  0  0  0
  1  3  1  0  0  0  0
  1  2  1  1  0  0  0
  3  4  1  1  0  0  0
  3  5  1  0  0  0  0
  5  6  1  6  0  0  0
  7  8  1  1  0  0  0
  7  5  1  0  0  0  0
  9 11  1  6  0  0  0
  9  7  1  0  0  0  0
 10  9  1  0  0  0  0
 10  1  1  0  0  0  0
 12 11  1  0  0  0  0
 13 14  1  6  0  0  0
 15 13  1  0  0  0  0
 16 17  1  6  0  0  0
 16 15  1  0  0  0  0
 18  2  1  1  0  0  0
 18 19  1  0  0  0  0
 18 16  1  0  0  0  0
 19 20  1  6  0  0  0
 19 21  1  0  0  0  0
 21 22  1  1  0  0  0
 21 13  1  0  0  0  0
 23 20  1  6  0  0  0
 23 29  1  0  0  0  0
 24 25  1  1  0  0  0
 24 26  1  0  0  0  0
 24 23  1  0  0  0  0
 26 27  1  1  0  0  0
 26 28  1  0  0  0  0
 28 30  1  6  0  0  0
 29 28  1  0  0  0  0
 30 31  1  0  0  0  0
 32 27  1  1  0  0  0
 32 40  1  0  0  0  0
 33 35  1  0  0  0  0
 33 32  1  0  0  0  0
 33 34  1  1  0  0  0
 35 36  1  1  0  0  0
 35 37  1  0  0  0  0
 37 38  1  1  0  0  0
 37 39  1  0  0  0  0
 39 41  1  1  0  0  0
 40 39  1  0  0  0  0
 41 42  1  0  0  0  0
M  END
>  <CHROM.1>
-171.35351142,72.74748463,-163.40583272,136.57361047,178.99039793,169.12080313
-179.68971586,-171.18568582,-66.26028510,-2.52713296,13.00396248,36.44531289
-1.49353727,-0.37895187,-3.03231399

>  <Name>
lig.pdb

>  <RI>
0

>  <Rbt.Current_Directory>
/home/itssahil/PROJECTS/Mol_Feturizer/New_Systems/rnas/4wcr

>  <Rbt.Executable>
rbdock ($Id: //depot/dev/client3/rdock/2013.1/src/exe/rbdock.cxx#4 $)

>  <Rbt.Library>
libRbt.so (2013.1, Build901 2013/11/27)

>  <Rbt.Parameter_File>
/export/apps/rDock/src/rDock_2013.1_src/data/scripts/dock_solv.prm

>  <Rbt.Receptor>
prm/pocket_docking_2.prm

>  <SCORE>
-4.28874

>  <SCORE.INTER>
1.69432

>  <SCORE.INTER.CONST>
1

>  <SCORE.INTER.POLAR>
0

>  <SCORE.INTER.ROT>
9

>  <SCORE.INTER.SOLV>
17.4614

>  <SCORE.INTER.VDW>
-14.2909

>  <SCORE.INTER.norm>
0.0403409

>  <SCORE.INTRA>
-5.99808

>  <SCORE.INTRA.DIHEDRAL>
-6.52877

>  <SCORE.INTRA.DIHEDRAL.0>
16.2863

>  <SCORE.INTRA.POLAR>
0

>  <SCORE.INTRA.POLAR.0>
0

>  <SCORE.INTRA.REPUL>
-0.314433

>  <SCORE.INTRA.REPUL.0>
0.314433

>  <SCORE.INTRA.SOLV>
-2.06037

>  <SCORE.INTRA.SOLV.lig_0>
-103.824

>  <SCORE.INTRA.VDW>
-0.13134

>  <SCORE.INTRA.VDW.0>
-5.30945

>  <SCORE.INTRA.norm>
-0.142811

>  <SCORE.RESTR>
0.0150198

>  <SCORE.RESTR.CAVITY>
0.0150198

>  <SCORE.RESTR.norm>
0.000357614

>  <SCORE.SYSTEM>
0

>  <SCORE.SYSTEM.CONST>
0

>  <SCORE.SYSTEM.DIHEDRAL>
0

>  <SCORE.SYSTEM.SOLV>
0

>  <SCORE.SYSTEM.norm>
0

>  <SCORE.heavy>
42

>  <SCORE.norm>
-0.102113

>  <RMSD>
0.874

$$$$
lig.pdb
 OpenBabel11021811513D
libRbt.so/2013.1/901 2013/11/27
 42 45  0  0  0  0  0  0  0  0999 V2000
   -1.0670   16.6469   35.8287 C   0  0  2  0  0  0  0  0  0  0  0  0
   -1.8344   17.1723   36.9566 O   0  0  0  0  0  0  0  0  0  0  0  0
    0.4683   16.8595   36.2000 C   0  0  2  0  0  0  0  0  0  0  0  0
    0.8106   16.0983   37.4045 N   0  0  0  0  0  0  0  0  0  0  0  0
    0.7442   18.4319   36.3769 C   0  0  1  0  0  0  0  0  0  0  0  0
    2.1269   18.6843   36.7039 O   0  0  0  0  0  0  0  0  0  0  0  0
    0.3401   19.1153   35.0593 C   0  0  2  0  0  0  0  0  0  0  0  0
    0.5638   20.4791   35.1765 O   0  0  0  0  0  0  0  0  0  0  0  0
   -1.1949   18.8153   34.7396 C   0  0  2  0  0  0  0  0  0  0  0  0
   -1.4353   17.4079   34.6167 O   0  0  0  0  0  0  0  0  0  0  0  0
   -1.6358   19.4464   33.4494 C   0  0  0  0  0  0  0  0  0  0  0  0
   -1.6635   20.8605   33.6473 O   0  0  0  0  0  0  0  0  0  0  0  0
   -5.8889   16.3468   38.5850 C   0  0  2  0  0  0  0  0  0  0  0  0
   -7.3295   16.2957   38.7081 N   0  0  0  0  0  0  0  0  0  0  0  0
   -5.4139   17.8355   38.3685 C   0  0  0  0  0  0  0  0  0  0  0  0
   -3.8531   17.9177   38.2275 C   0  0  2  0  0  0  0  0  0  0  0  0
   -3.4561   19.3090   38.0218 N   0  0  0  0  0  0  0  0  0  0  0  0
   -3.3050   17.0441   37.0131 C   0  0  2  0  0  0  0  0  0  0  0  0
   -3.7492   15.5732   37.2600 C   0  0  2  0  0  0  0  0  0  0  0  0
   -3.1856   14.8172   36.0795 O   0  0  0  0  0  0  0  0  0  0  0  0
   -5.3720   15.4854   37.3380 C   0  0  1  0  0  0  0  0  0  0  0  0
   -5.9052   14.1525   37.6232 O   0  0  0  0  0  0  0  0  0  0  0  0
   -3.1184   13.4725   36.3334 C   0  0  1  0  0  0  0  0  0  0  0  0
   -2.5503   12.7043   35.2207 C   0  0  2  0  0  0  0  0  0  0  0  0
   -3.5059   12.6688   34.2096 O   0  0  0  0  0  0  0  0  0  0  0  0
   -2.1354   11.4015   35.9375 C   0  0  2  0  0  0  0  0  0  0  0  0
   -2.8852   10.3298   35.3218 O   0  0  0  0  0  0  0  0  0  0  0  0
   -2.5104   11.6143   37.3671 C   0  0  2  0  0  0  0  0  0  0  0  0
   -2.2829   13.0684   37.4055 O   0  0  0  0  0  0  0  0  0  0  0  0
   -1.5217   10.8810   38.3465 C   0  0  0  0  0  0  0  0  0  0  0  0
   -1.8460   11.0709   39.7564 O   0  0  0  0  0  0  0  0  0  0  0  0
   -2.4401    8.9677   35.6002 C   0  0  2  0  0  0  0  0  0  0  0  0
   -3.3210    7.9474   34.7075 C   0  0  2  0  0  0  0  0  0  0  0  0
   -4.7721    8.1337   35.0338 N   0  0  0  0  0  0  0  0  0  0  0  0
   -2.8223    6.4509   35.0170 C   0  0  1  0  0  0  0  0  0  0  0  0
   -1.4050    6.3859   34.6726 O   0  0  0  0  0  0  0  0  0  0  0  0
   -3.0537    6.1233   36.5609 C   0  0  2  0  0  0  0  0  0  0  0  0
   -4.5077    6.1952   36.8273 O   0  0  0  0  0  0  0  0  0  0  0  0
   -2.2020    7.2002   37.4423 C   0  0  1  0  0  0  0  0  0  0  0  0
   -2.6341    8.6005   37.0857 O   0  0  0  0  0  0  0  0  0  0  0  0
   -2.4201    6.9187   38.9661 C   0  0  0  0  0  0  0  0  0  0  0  0
   -1.6826    5.7083   39.4440 N   0  0  0  0  0  0  0  0  0  0  0  0
  1  3  1  0  0  0  0
  1  2  1  1  0  0  0
  3  4  1  1  0  0  0
  3  5  1  0  0  0  0
  5  6  1  6  0  0  0
  7  8  1  1  0  0  0
  7  5  1  0  0  0  0
  9 11  1  6  0  0  0
  9  7  1  0  0  0  0
 10  9  1  0  0  0  0
 10  1  1  0  0  0  0
 12 11  1  0  0  0  0
 13 14  1  6  0  0  0
 15 13  1  0  0  0  0
 16 17  1  6  0  0  0
 16 15  1  0  0  0  0
 18  2  1  1  0  0  0
 18 19  1  0  0  0  0
 18 16  1  0  0  0  0
 19 20  1  6  0  0  0
 19 21  1  0  0  0  0
 21 22  1  1  0  0  0
 21 13  1  0  0  0  0
 23 20  1  6  0  0  0
 23 29  1  0  0  0  0
 24 25  1  6  0  0  0
 24 26  1  0  0  0  0
 24 23  1  0  0  0  0
 26 27  1  6  0  0  0
 26 28  1  0  0  0  0
 28 30  1  1  0  0  0
 29 28  1  0  0  0  0
 30 31  1  0  0  0  0
 32 27  1  1  0  0  0
 32 40  1  0  0  0  0
 33 35  1  0  0  0  0
 33 32  1  0  0  0  0
 33 34  1  1  0  0  0
 35 36  1  1  0  0  0
 35 37  1  0  0  0  0
 37 38  1  1  0  0  0
 37 39  1  0  0  0  0
 39 41  1  1  0  0  0
 40 39  1  0  0  0  0
 41 42  1  0  0  0  0
M  END
>  <CHROM.1>
-174.96773047,-69.54578790,-170.70132137,161.09123860,-178.82734770,165.69811228
179.57429053,-174.64358652,74.37585510,-2.48201213,13.59230005,36.52658298
-1.44044447,-0.45378658,3.13622373

>  <Name>
lig.pdb

>  <RI>
0

>  <Rbt.Current_Directory>
/home/itssahil/PROJECTS/Mol_Feturizer/New_Systems/rnas/4wcr

>  <Rbt.Executable>
rbdock ($Id: //depot/dev/client3/rdock/2013.1/src/exe/rbdock.cxx#4 $)

>  <Rbt.Library>
libRbt.so (2013.1, Build901 2013/11/27)

>  <Rbt.Parameter_File>
/export/apps/rDock/src/rDock_2013.1_src/data/scripts/dock_solv.prm

>  <Rbt.Receptor>
prm/pocket_docking_2.prm

>  <SCORE>
-10.9475

>  <SCORE.INTER>
-1.64859

>  <SCORE.INTER.CONST>
1

>  <SCORE.INTER.POLAR>
0

>  <SCORE.INTER.ROT>
9

>  <SCORE.INTER.SOLV>
19.0382

>  <SCORE.INTER.VDW>
-17.0451

>  <SCORE.INTER.norm>
-0.0392523

>  <SCORE.INTRA>
-9.30256

>  <SCORE.INTRA.DIHEDRAL>
-11.4615

>  <SCORE.INTRA.DIHEDRAL.0>
16.2863

>  <SCORE.INTRA.POLAR>
0

>  <SCORE.INTRA.POLAR.0>
0

>  <SCORE.INTRA.REPUL>
-0.314433

>  <SCORE.INTRA.REPUL.0>
0.314433

>  <SCORE.INTRA.SOLV>
-5.9233

>  <SCORE.INTRA.SOLV.lig_0>
-103.824

>  <SCORE.INTRA.VDW>
0.962005

>  <SCORE.INTRA.VDW.0>
-5.30945

>  <SCORE.INTRA.norm>
-0.221489

>  <SCORE.RESTR>
0.00362826

>  <SCORE.RESTR.CAVITY>
0.00362826

>  <SCORE.RESTR.norm>
8.63871e-05

>  <SCORE.SYSTEM>
0

>  <SCORE.SYSTEM.CONST>
0

>  <SCORE.SYSTEM.DIHEDRAL>
0

>  <SCORE.SYSTEM.SOLV>
0

>  <SCORE.SYSTEM.norm>
0

>  <SCORE.heavy>
42

>  <SCORE.norm>
-0.260655

>  <RMSD>
0.953

$$$$
lig.pdb
 OpenBabel11021811513D
libRbt.so/2013.1/901 2013/11/27
 42 45  0  0  0  0  0  0  0  0999 V2000
   -0.9549   16.6795   35.7910 C   0  0  2  0  0  0  0  0  0  0  0  0
   -1.7762   17.1542   36.9033 O   0  0  0  0  0  0  0  0  0  0  0  0
    0.5585   16.9511   36.2103 C   0  0  2  0  0  0  0  0  0  0  0  0
    0.8983   16.1863   37.4134 N   0  0  0  0  0  0  0  0  0  0  0  0
    0.7617   18.5308   36.4180 C   0  0  1  0  0  0  0  0  0  0  0  0
    2.1224   18.8364   36.7892 O   0  0  0  0  0  0  0  0  0  0  0  0
    0.3669   19.2170   35.0990 C   0  0  2  0  0  0  0  0  0  0  0  0
    0.5285   20.5870   35.2424 O   0  0  0  0  0  0  0  0  0  0  0  0
   -1.1440   18.8573   34.7300 C   0  0  2  0  0  0  0  0  0  0  0  0
   -1.3204   17.4431   34.5798 O   0  0  0  0  0  0  0  0  0  0  0  0
   -1.5743   19.4893   33.4366 C   0  0  0  0  0  0  0  0  0  0  0  0
   -1.6794   20.8965   33.6571 O   0  0  0  0  0  0  0  0  0  0  0  0
   -5.7757   16.0548   38.5059 C   0  0  2  0  0  0  0  0  0  0  0  0
   -7.2091   15.8898   38.6115 N   0  0  0  0  0  0  0  0  0  0  0  0
   -5.4203   17.5692   38.2429 C   0  0  0  0  0  0  0  0  0  0  0  0
   -3.8694   17.7744   38.1199 C   0  0  2  0  0  0  0  0  0  0  0  0
   -3.5840   19.1858   37.8701 N   0  0  0  0  0  0  0  0  0  0  0  0
   -3.2322   16.9076   36.9448 C   0  0  2  0  0  0  0  0  0  0  0  0
   -3.5588   15.4146   37.2378 C   0  0  2  0  0  0  0  0  0  0  0  0
   -2.9163   14.6673   36.0925 O   0  0  0  0  0  0  0  0  0  0  0  0
   -5.1701   15.1965   37.2973 C   0  0  1  0  0  0  0  0  0  0  0  0
   -5.5973   13.8349   37.6226 O   0  0  0  0  0  0  0  0  0  0  0  0
   -2.8480   13.3231   36.3490 C   0  0  1  0  0  0  0  0  0  0  0  0
   -2.3683   12.5424   35.2038 C   0  0  2  0  0  0  0  0  0  0  0  0
   -3.3924   12.5139   34.2619 O   0  0  0  0  0  0  0  0  0  0  0  0
   -1.9203   11.2380   35.8975 C   0  0  2  0  0  0  0  0  0  0  0  0
   -2.7242   10.1729   35.3417 O   0  0  0  0  0  0  0  0  0  0  0  0
   -2.1920   11.4626   37.3485 C   0  0  2  0  0  0  0  0  0  0  0  0
   -1.9448   12.9139   37.3625 O   0  0  0  0  0  0  0  0  0  0  0  0
   -1.1465   10.7217   38.2608 C   0  0  0  0  0  0  0  0  0  0  0  0
   -1.3567   10.9397   39.6882 O   0  0  0  0  0  0  0  0  0  0  0  0
   -2.3383    8.8071   35.6835 C   0  0  2  0  0  0  0  0  0  0  0  0
   -3.1449    7.7896   34.7202 C   0  0  2  0  0  0  0  0  0  0  0  0
   -4.6174    8.0092   34.8941 N   0  0  0  0  0  0  0  0  0  0  0  0
   -2.7117    6.2890   35.1004 C   0  0  1  0  0  0  0  0  0  0  0  0
   -1.2684    6.1910   34.9033 O   0  0  0  0  0  0  0  0  0  0  0  0
   -3.1056    5.9912   36.6172 C   0  0  2  0  0  0  0  0  0  0  0  0
   -4.5773    6.0955   36.7328 O   0  0  0  0  0  0  0  0  0  0  0  0
   -2.3257    7.0657   37.5654 C   0  0  1  0  0  0  0  0  0  0  0  0
   -2.6899    8.4680   37.1466 O   0  0  0  0  0  0  0  0  0  0  0  0
   -2.7035    6.8134   39.0628 C   0  0  0  0  0  0  0  0  0  0  0  0
   -1.9134    7.6584   40.0109 N   0  0  0  0  0  0  0  0  0  0  0  0
  1  3  1  0  0  0  0
  1  2  1  1  0  0  0
  3  4  1  1  0  0  0
  3  5  1  0  0  0  0
  5  6  1  6  0  0  0
  7  8  1  1  0  0  0
  7  5  1  0  0  0  0
  9 11  1  6  0  0  0
  9  7  1  0  0  0  0
 10  9  1  0  0  0  0
 10  1  1  0  0  0  0
 12 11  1  0  0  0  0
 13 14  1  6  0  0  0
 15 13  1  0  0  0  0
 16 17  1  6  0  0  0
 16 15  1  0  0  0  0
 18  2  1  1  0  0  0
 18 19  1  0  0  0  0
 18 16  1  0  0  0  0
 19 20  1  6  0  0  0
 19 21  1  0  0  0  0
 21 22  1  1  0  0  0
 21 13  1  0  0  0  0
 23 20  1  6  0  0  0
 23 29  1  0  0  0  0
 24 25  1  6  0  0  0
 24 26  1  0  0  0  0
 24 23  1  0  0  0  0
 26 27  1  6  0  0  0
 26 28  1  0  0  0  0
 28 30  1  1  0  0  0
 29 28  1  0  0  0  0
 30 31  1  0  0  0  0
 32 27  1  6  0  0  0
 32 40  1  0  0  0  0
 33 35  1  0  0  0  0
 33 32  1  0  0  0  0
 33 34  1  1  0  0  0
 35 36  1  1  0  0  0
 35 37  1  0  0  0  0
 37 38  1  6  0  0  0
 37 39  1  0  0  0  0
 39 41  1  1  0  0  0
 40 39  1  0  0  0  0
 41 42  1  0  0  0  0
M  END
>  <CHROM.1>
-172.07765978,-70.03882374,-169.39418274,166.28245558,173.60334919,170.37984007
178.66536958,-167.81699186,173.61401889,-2.38520174,13.53758749,36.53500212
-1.42633883,-0.44382734,3.13440518

>  <Name>
lig.pdb

>  <RI>
0

>  <Rbt.Current_Directory>
/home/itssahil/PROJECTS/Mol_Feturizer/New_Systems/rnas/4wcr

>  <Rbt.Executable>
rbdock ($Id: //depot/dev/client3/rdock/2013.1/src/exe/rbdock.cxx#4 $)

>  <Rbt.Library>
libRbt.so (2013.1, Build901 2013/11/27)

>  <Rbt.Parameter_File>
/export/apps/rDock/src/rDock_2013.1_src/data/scripts/dock_solv.prm

>  <Rbt.Receptor>
prm/pocket_docking_2.prm

>  <SCORE>
-11.2407

>  <SCORE.INTER>
-1.9172

>  <SCORE.INTER.CONST>
1

>  <SCORE.INTER.POLAR>
0

>  <SCORE.INTER.ROT>
9

>  <SCORE.INTER.SOLV>
18.4767

>  <SCORE.INTER.VDW>
-17.037

>  <SCORE.INTER.norm>
-0.0456477

>  <SCORE.INTRA>
-9.32346

>  <SCORE.INTRA.DIHEDRAL>
-12.1542

>  <SCORE.INTRA.DIHEDRAL.0>
16.2863

>  <SCORE.INTRA.POLAR>
0

>  <SCORE.INTRA.POLAR.0>
0

>  <SCORE.INTRA.REPUL>
-0.314433

>  <SCORE.INTRA.REPUL.0>
0.314433

>  <SCORE.INTRA.SOLV>
-4.5521

>  <SCORE.INTRA.SOLV.lig_0>
-103.824

>  <SCORE.INTRA.VDW>
0.601873

>  <SCORE.INTRA.VDW.0>
-5.30945

>  <SCORE.INTRA.norm>
-0.221987

>  <SCORE.RESTR>
0

>  <SCORE.RESTR.CAVITY>
0

>  <SCORE.RESTR.norm>
0

>  <SCORE.SYSTEM>
0

>  <SCORE.SYSTEM.CONST>
0

>  <SCORE.SYSTEM.DIHEDRAL>
0

>  <SCORE.SYSTEM.SOLV>
0

>  <SCORE.SYSTEM.norm>
0

>  <SCORE.heavy>
42

>  <SCORE.norm>
-0.267635

>  <RMSD>
0.970

$$$$
lig.pdb
 OpenBabel11021811513D
libRbt.so/2013.1/901 2013/11/27
 42 45  0  0  0  0  0  0  0  0999 V2000
   -1.3769   16.2305   36.0159 C   0  0  2  0  0  0  0  0  0  0  0  0
   -2.1018   16.9318   37.0742 O   0  0  0  0  0  0  0  0  0  0  0  0
    0.1253   16.0862   36.5285 C   0  0  2  0  0  0  0  0  0  0  0  0
    0.1704   15.2799   37.7514 N   0  0  0  0  0  0  0  0  0  0  0  0
    0.7403   17.5539   36.7463 C   0  0  1  0  0  0  0  0  0  0  0  0
    2.1080   17.4831   37.2013 O   0  0  0  0  0  0  0  0  0  0  0  0
    0.6277   18.2975   35.4044 C   0  0  2  0  0  0  0  0  0  0  0  0
    1.1494   19.5737   35.5558 O   0  0  0  0  0  0  0  0  0  0  0  0
   -0.8991   18.3574   34.9423 C   0  0  2  0  0  0  0  0  0  0  0  0
   -1.4465   17.0426   34.7832 O   0  0  0  0  0  0  0  0  0  0  0  0
   -1.0620   19.0590   33.6238 C   0  0  0  0  0  0  0  0  0  0  0  0
   -0.7481   20.4375   33.8259 O   0  0  0  0  0  0  0  0  0  0  0  0
   -6.2896   17.0332   38.5656 C   0  0  2  0  0  0  0  0  0  0  0  0
   -7.7239   17.2186   38.6045 N   0  0  0  0  0  0  0  0  0  0  0  0
   -5.5806   18.3681   38.1137 C   0  0  0  0  0  0  0  0  0  0  0  0
   -4.0223   18.1919   38.0591 C   0  0  2  0  0  0  0  0  0  0  0  0
   -3.4058   19.4457   37.6305 N   0  0  0  0  0  0  0  0  0  0  0  0
   -3.5754   17.0342   37.0599 C   0  0  2  0  0  0  0  0  0  0  0  0
   -4.2522   15.7178   37.5402 C   0  0  2  0  0  0  0  0  0  0  0  0
   -3.7730   14.6783   36.5541 O   0  0  0  0  0  0  0  0  0  0  0  0
   -5.8706   15.8858   37.5302 C   0  0  1  0  0  0  0  0  0  0  0  0
   -6.6150   14.7237   38.0176 O   0  0  0  0  0  0  0  0  0  0  0  0
   -3.8869   13.4130   37.0671 C   0  0  1  0  0  0  0  0  0  0  0  0
   -3.2686   12.3896   36.2176 C   0  0  2  0  0  0  0  0  0  0  0  0
   -4.0848   12.2268   35.1022 O   0  0  0  0  0  0  0  0  0  0  0  0
   -3.0946   11.2312   37.2231 C   0  0  2  0  0  0  0  0  0  0  0  0
   -3.8723   10.1216   36.7196 O   0  0  0  0  0  0  0  0  0  0  0  0
   -3.6240   11.7617   38.5146 C   0  0  2  0  0  0  0  0  0  0  0  0
   -3.2452   13.1694   38.3078 O   0  0  0  0  0  0  0  0  0  0  0  0
   -2.8556   11.1654   39.7508 C   0  0  0  0  0  0  0  0  0  0  0  0
   -3.0675    9.7337   39.9370 O   0  0  0  0  0  0  0  0  0  0  0  0
   -3.1712    8.8549   36.5325 C   0  0  2  0  0  0  0  0  0  0  0  0
   -4.2330    7.7530   36.0104 C   0  0  2  0  0  0  0  0  0  0  0  0
   -5.3449    7.6287   37.0079 N   0  0  0  0  0  0  0  0  0  0  0  0
   -3.4526    6.3629   35.8035 C   0  0  1  0  0  0  0  0  0  0  0  0
   -2.3948    6.6007   34.8256 O   0  0  0  0  0  0  0  0  0  0  0  0
   -2.8474    5.8814   37.1985 C   0  0  2  0  0  0  0  0  0  0  0  0
   -3.9762    5.6492   38.1271 O   0  0  0  0  0  0  0  0  0  0  0  0
   -1.8239    7.0339   37.7336 C   0  0  1  0  0  0  0  0  0  0  0  0
   -2.5574    8.3463   37.8529 O   0  0  0  0  0  0  0  0  0  0  0  0
   -1.2234    6.6016   39.1124 C   0  0  0  0  0  0  0  0  0  0  0  0
   -0.3994    7.6755   39.7487 N   0  0  0  0  0  0  0  0  0  0  0  0
  1  3  1  0  0  0  0
  1  2  1  1  0  0  0
  3  4  1  1  0  0  0
  3  5  1  0  0  0  0
  5  6  1  6  0  0  0
  7  8  1  1  0  0  0
  7  5  1  0  0  0  0
  9 11  1  6  0  0  0
  9  7  1  0  0  0  0
 10  9  1  0  0  0  0
 10  1  1  0  0  0  0
 12 11  1  0  0  0  0
 13 14  1  6  0  0  0
 15 13  1  0  0  0  0
 16 17  1  6  0  0  0
 16 15  1  0  0  0  0
 18  2  1  1  0  0  0
 18 19  1  0  0  0  0
 18 16  1  0  0  0  0
 19 20  1  6  0  0  0
 19 21  1  0  0  0  0
 21 22  1  1  0  0  0
 21 13  1  0  0  0  0
 23 20  1  6  0  0  0
 23 29  1  0  0  0  0
 24 25  1  6  0  0  0
 24 26  1  0  0  0  0
 24 23  1  0  0  0  0
 26 27  1  6  0  0  0
 26 28  1  0  0  0  0
 28 30  1  1  0  0  0
 29 28  1  0  0  0  0
 30 31  1  0  0  0  0
 32 27  1  1  0  0  0
 32 40  1  0  0  0  0
 33 35  1  0  0  0  0
 33 32  1  0  0  0  0
 33 34  1  1  0  0  0
 35 36  1  6  0  0  0
 35 37  1  0  0  0  0
 37 38  1  1  0  0  0
 37 39  1  0  0  0  0
 39 41  1  1  0  0  0
 40 39  1  0  0  0  0
 41 42  1  0  0  0  0
M  END
>  <CHROM.1>
-168.95801814,-68.16605961,-163.13326036,159.20619762,-172.29078320,125.12282875
-66.72829358,178.29736366,-173.20365940,-2.75133100,13.42987360,37.03521650
-1.44585536,-0.30142752,3.06126734

>  <Name>
lig.pdb

>  <RI>
0

>  <Rbt.Current_Directory>
/home/itssahil/PROJECTS/Mol_Feturizer/New_Systems/rnas/4wcr

>  <Rbt.Executable>
rbdock ($Id: //depot/dev/client3/rdock/2013.1/src/exe/rbdock.cxx#4 $)

>  <Rbt.Library>
libRbt.so (2013.1, Build901 2013/11/27)

>  <Rbt.Parameter_File>
/export/apps/rDock/src/rDock_2013.1_src/data/scripts/dock_solv.prm

>  <Rbt.Receptor>
prm/pocket_docking_2.prm

>  <SCORE>
-7.25882

>  <SCORE.INTER>
-2.13939

>  <SCORE.INTER.CONST>
1

>  <SCORE.INTER.POLAR>
0

>  <SCORE.INTER.ROT>
9

>  <SCORE.INTER.SOLV>
20.9498

>  <SCORE.INTER.VDW>
-18.0095

>  <SCORE.INTER.norm>
-0.0509378

>  <SCORE.INTRA>
-5.15661

>  <SCORE.INTRA.DIHEDRAL>
-4.17039

>  <SCORE.INTRA.DIHEDRAL.0>
16.2863

>  <SCORE.INTRA.POLAR>
0

>  <SCORE.INTRA.POLAR.0>
0

>  <SCORE.INTRA.REPUL>
-0.314433

>  <SCORE.INTRA.REPUL.0>
0.314433

>  <SCORE.INTRA.SOLV>
-3.65818

>  <SCORE.INTRA.SOLV.lig_0>
-103.824

>  <SCORE.INTRA.VDW>
0.329832

>  <SCORE.INTRA.VDW.0>
-5.30945

>  <SCORE.INTRA.norm>
-0.122777

>  <SCORE.RESTR>
0.0371839

>  <SCORE.RESTR.CAVITY>
0.0371839

>  <SCORE.RESTR.norm>
0.000885331

>  <SCORE.SYSTEM>
0

>  <SCORE.SYSTEM.CONST>
0

>  <SCORE.SYSTEM.DIHEDRAL>
0

>  <SCORE.SYSTEM.SOLV>
0

>  <SCORE.SYSTEM.norm>
0

>  <SCORE.heavy>
42

>  <SCORE.norm>
-0.172829

>  <RMSD>
0.986

$$$$
lig.pdb
 OpenBabel11021811513D
libRbt.so/2013.1/901 2013/11/27
 42 45  0  0  0  0  0  0  0  0999 V2000
   -0.9986   16.7070   35.8414 C   0  0  2  0  0  0  0  0  0  0  0  0
   -1.7906   17.2024   36.9658 O   0  0  0  0  0  0  0  0  0  0  0  0
    0.5246   16.9950   36.2115 C   0  0  2  0  0  0  0  0  0  0  0  0
    0.9024   16.2589   37.4210 N   0  0  0  0  0  0  0  0  0  0  0  0
    0.7251   18.5799   36.3782 C   0  0  1  0  0  0  0  0  0  0  0  0
    2.0941   18.9002   36.7037 O   0  0  0  0  0  0  0  0  0  0  0  0
    0.2894   19.2347   35.0561 C   0  0  2  0  0  0  0  0  0  0  0  0
    0.4477   20.6083   35.1645 O   0  0  0  0  0  0  0  0  0  0  0  0
   -1.2294   18.8597   34.7382 C   0  0  2  0  0  0  0  0  0  0  0  0
   -1.4023   17.4416   34.6244 O   0  0  0  0  0  0  0  0  0  0  0  0
   -1.6994   19.4606   33.4439 C   0  0  0  0  0  0  0  0  0  0  0  0
   -1.6985   20.8801   33.6009 O   0  0  0  0  0  0  0  0  0  0  0  0
   -5.8309   16.2664   38.5700 C   0  0  2  0  0  0  0  0  0  0  0  0
   -7.2700   16.1694   38.6809 N   0  0  0  0  0  0  0  0  0  0  0  0
   -5.4031   17.7668   38.3360 C   0  0  0  0  0  0  0  0  0  0  0  0
   -3.8447   17.8986   38.2077 C   0  0  2  0  0  0  0  0  0  0  0  0
   -3.4919   19.2992   37.9852 N   0  0  0  0  0  0  0  0  0  0  0  0
   -3.2567   17.0264   37.0111 C   0  0  2  0  0  0  0  0  0  0  0  0
   -3.6544   15.5453   37.2754 C   0  0  2  0  0  0  0  0  0  0  0  0
   -3.0552   14.7916   36.1111 O   0  0  0  0  0  0  0  0  0  0  0  0
   -5.2741   15.4049   37.3403 C   0  0  1  0  0  0  0  0  0  0  0  0
   -5.7658   14.0593   37.6401 O   0  0  0  0  0  0  0  0  0  0  0  0
   -3.0181   13.4438   36.3546 C   0  0  1  0  0  0  0  0  0  0  0  0
   -2.4713   12.6713   35.2341 C   0  0  2  0  0  0  0  0  0  0  0  0
   -3.4306   12.6656   34.2259 O   0  0  0  0  0  0  0  0  0  0  0  0
   -2.0842   11.3538   35.9394 C   0  0  2  0  0  0  0  0  0  0  0  0
   -2.8603   10.3045   35.3181 O   0  0  0  0  0  0  0  0  0  0  0  0
   -2.4496   11.5641   37.3719 C   0  0  2  0  0  0  0  0  0  0  0  0
   -2.1887   13.0124   37.4207 O   0  0  0  0  0  0  0  0  0  0  0  0
   -1.4750   10.8008   38.3423 C   0  0  0  0  0  0  0  0  0  0  0  0
   -1.8331   10.9280   39.7511 O   0  0  0  0  0  0  0  0  0  0  0  0
   -2.4176    8.9323   35.5462 C   0  0  2  0  0  0  0  0  0  0  0  0
   -3.3370    7.9421   34.6583 C   0  0  2  0  0  0  0  0  0  0  0  0
   -4.7744    8.1309   35.0389 N   0  0  0  0  0  0  0  0  0  0  0  0
   -2.8407    6.4344   34.9122 C   0  0  1  0  0  0  0  0  0  0  0  0
   -1.4366    6.3676   34.5178 O   0  0  0  0  0  0  0  0  0  0  0  0
   -3.0220    6.0687   36.4542 C   0  0  2  0  0  0  0  0  0  0  0  0
   -4.4654    6.1447   36.7721 O   0  0  0  0  0  0  0  0  0  0  0  0
   -2.1317    7.1160   37.3332 C   0  0  1  0  0  0  0  0  0  0  0  0
   -2.5639    8.5283   37.0275 O   0  0  0  0  0  0  0  0  0  0  0  0
   -2.3001    6.7968   38.8558 C   0  0  0  0  0  0  0  0  0  0  0  0
   -1.6879    5.4890   39.2458 N   0  0  0  0  0  0  0  0  0  0  0  0
  1  3  1  0  0  0  0
  1  2  1  1  0  0  0
  3  4  1  1  0  0  0
  3  5  1  0  0  0  0
  5  6  1  6  0  0  0
  7  8  1  1  0  0  0
  7  5  1  0  0  0  0
  9 11  1  6  0  0  0
  9  7  1  0  0  0  0
 10  9  1  0  0  0  0
 10  1  1  0  0  0  0
 12 11  1  0  0  0  0
 13 14  1  6  0  0  0
 15 13  1  0  0  0  0
 16 17  1  6  0  0  0
 16 15  1  0  0  0  0
 18  2  1  1  0  0  0
 18 19  1  0  0  0  0
 18 16  1  0  0  0  0
 19 20  1  6  0  0  0
 19 21  1  0  0  0  0
 21 22  1  1  0  0  0
 21 13  1  0  0  0  0
 23 20  1  6  0  0  0
 23 29  1  0  0  0  0
 24 25  1  6  0  0  0
 24 26  1  0  0  0  0
 24 23  1  0  0  0  0
 26 27  1  6  0  0  0
 26 28  1  0  0  0  0
 28 30  1  1  0  0  0
 29 28  1  0  0  0  0
 30 31  1  0  0  0  0
 32 27  1  1  0  0  0
 32 40  1  0  0  0  0
 33 35  1  0  0  0  0
 33 32  1  0  0  0  0
 33 34  1  1  0  0  0
 35 36  1  1  0  0  0
 35 37  1  0  0  0  0
 37 38  1  1  0  0  0
 37 39  1  0  0  0  0
 39 41  1  1  0  0  0
 40 39  1  0  0  0  0
 41 42  1  0  0  0  0
M  END
>  <CHROM.1>
-176.10854111,-65.27209227,-169.63159340,164.63644383,178.64650014,163.59745034
-177.28934357,-174.89086804,67.86880146,-2.44927482,13.57846164,36.50268005
-1.44121290,-0.46230977,-3.14075316

>  <Name>
lig.pdb

>  <RI>
0

>  <Rbt.Current_Directory>
/home/itssahil/PROJECTS/Mol_Feturizer/New_Systems/rnas/4wcr

>  <Rbt.Executable>
rbdock ($Id: //depot/dev/client3/rdock/2013.1/src/exe/rbdock.cxx#4 $)

>  <Rbt.Library>
libRbt.so (2013.1, Build901 2013/11/27)

>  <Rbt.Parameter_File>
/export/apps/rDock/src/rDock_2013.1_src/data/scripts/dock_solv.prm

>  <Rbt.Receptor>
prm/pocket_docking_2.prm

>  <SCORE>
-11.0435

>  <SCORE.INTER>
-1.5311

>  <SCORE.INTER.CONST>
1

>  <SCORE.INTER.POLAR>
0

>  <SCORE.INTER.ROT>
9

>  <SCORE.INTER.SOLV>
18.6632

>  <SCORE.INTER.VDW>
-16.8418

>  <SCORE.INTER.norm>
-0.0364548

>  <SCORE.INTRA>
-9.51459

>  <SCORE.INTRA.DIHEDRAL>
-12.3658

>  <SCORE.INTRA.DIHEDRAL.0>
16.2863

>  <SCORE.INTRA.POLAR>
0

>  <SCORE.INTRA.POLAR.0>
0

>  <SCORE.INTRA.REPUL>
-0.314433

>  <SCORE.INTRA.REPUL.0>
0.314433

>  <SCORE.INTRA.SOLV>
-5.70409

>  <SCORE.INTRA.SOLV.lig_0>
-103.824

>  <SCORE.INTRA.VDW>
1.09251

>  <SCORE.INTRA.VDW.0>
-5.30945

>  <SCORE.INTRA.norm>
-0.226538

>  <SCORE.RESTR>
0.00215357

>  <SCORE.RESTR.CAVITY>
0.00215357

>  <SCORE.RESTR.norm>
5.12754e-05

>  <SCORE.SYSTEM>
0

>  <SCORE.SYSTEM.CONST>
0

>  <SCORE.SYSTEM.DIHEDRAL>
0

>  <SCORE.SYSTEM.SOLV>
0

>  <SCORE.SYSTEM.norm>
0

>  <SCORE.heavy>
42

>  <SCORE.norm>
-0.262941

>  <RMSD>
1.010

$$$$
lig.pdb
 OpenBabel11021811513D
libRbt.so/2013.1/901 2013/11/27
 42 45  0  0  0  0  0  0  0  0999 V2000
   -1.0743   16.8239   35.9618 C   0  0  2  0  0  0  0  0  0  0  0  0
   -1.8568   17.4307   37.0372 O   0  0  0  0  0  0  0  0  0  0  0  0
    0.4558   17.0208   36.3618 C   0  0  2  0  0  0  0  0  0  0  0  0
    0.7480   16.3215   37.6161 N   0  0  0  0  0  0  0  0  0  0  0  0
    0.7667   18.5937   36.4573 C   0  0  1  0  0  0  0  0  0  0  0  0
    2.1465   18.8316   36.8069 O   0  0  0  0  0  0  0  0  0  0  0  0
    0.4138   19.2104   35.0929 C   0  0  2  0  0  0  0  0  0  0  0  0
    0.6687   20.5730   35.1392 O   0  0  0  0  0  0  0  0  0  0  0  0
   -1.1195   18.9292   34.7493 C   0  0  2  0  0  0  0  0  0  0  0  0
   -1.3921   17.5232   34.6993 O   0  0  0  0  0  0  0  0  0  0  0  0
   -1.5113   19.4961   33.4143 C   0  0  0  0  0  0  0  0  0  0  0  0
   -1.4900   20.9197   33.5261 O   0  0  0  0  0  0  0  0  0  0  0  0
   -5.9515   16.7956   38.6505 C   0  0  2  0  0  0  0  0  0  0  0  0
   -7.3947   16.7673   38.7472 N   0  0  0  0  0  0  0  0  0  0  0  0
   -5.4580   18.2530   38.3024 C   0  0  0  0  0  0  0  0  0  0  0  0
   -3.8940   18.3097   38.1875 C   0  0  2  0  0  0  0  0  0  0  0  0
   -3.4797   19.6718   37.8578 N   0  0  0  0  0  0  0  0  0  0  0  0
   -3.3294   17.3194   37.0744 C   0  0  2  0  0  0  0  0  0  0  0  0
   -3.7925   15.8824   37.4516 C   0  0  2  0  0  0  0  0  0  0  0  0
   -3.2120   15.0124   36.3613 O   0  0  0  0  0  0  0  0  0  0  0  0
   -5.4173   15.8146   37.5031 C   0  0  1  0  0  0  0  0  0  0  0  0
   -5.9689   14.5193   37.9033 O   0  0  0  0  0  0  0  0  0  0  0  0
   -3.1882   13.6940   36.7338 C   0  0  1  0  0  0  0  0  0  0  0  0
   -2.8213   12.7925   35.6367 C   0  0  2  0  0  0  0  0  0  0  0  0
   -3.9057   12.7342   34.7663 O   0  0  0  0  0  0  0  0  0  0  0  0
   -2.3885   11.5326   36.4167 C   0  0  2  0  0  0  0  0  0  0  0  0
   -3.2751   10.4655   36.0105 O   0  0  0  0  0  0  0  0  0  0  0  0
   -2.5532   11.8969   37.8554 C   0  0  2  0  0  0  0  0  0  0  0  0
   -2.2396   13.3293   37.7225 O   0  0  0  0  0  0  0  0  0  0  0  0
   -1.4845   11.1861   38.7648 C   0  0  0  0  0  0  0  0  0  0  0  0
   -1.6471   11.4663   40.1876 O   0  0  0  0  0  0  0  0  0  0  0  0
   -2.7591    9.1037   36.1119 C   0  0  2  0  0  0  0  0  0  0  0  0
   -3.9232    8.0786   35.6555 C   0  0  2  0  0  0  0  0  0  0  0  0
   -5.1270    8.2812   36.5252 N   0  0  0  0  0  0  0  0  0  0  0  0
   -3.3460    6.5824   35.7664 C   0  0  1  0  0  0  0  0  0  0  0  0
   -2.1800    6.5012   34.8915 O   0  0  0  0  0  0  0  0  0  0  0  0
   -2.9497    6.2776   37.2812 C   0  0  2  0  0  0  0  0  0  0  0  0
   -4.1802    6.3650   38.0988 O   0  0  0  0  0  0  0  0  0  0  0  0
   -1.8168    7.3594   37.7378 C   0  0  1  0  0  0  0  0  0  0  0  0
   -2.3516    8.7582   37.5589 O   0  0  0  0  0  0  0  0  0  0  0  0
   -1.4162    7.1003   39.2281 C   0  0  0  0  0  0  0  0  0  0  0  0
   -2.5397    7.3516   40.1831 N   0  0  0  0  0  0  0  0  0  0  0  0
  1  3  1  0  0  0  0
  1  2  1  1  0  0  0
  3  4  1  1  0  0  0
  3  5  1  0  0  0  0
  5  6  1  6  0  0  0
  7  8  1  1  0  0  0
  7  5  1  0  0  0  0
  9 11  1  6  0  0  0
  9  7  1  0  0  0  0
 10  9  1  0  0  0  0
 10  1  1  0  0  0  0
 12 11  1  0  0  0  0
 13 14  1  6  0  0  0
 15 13  1  0  0  0  0
 16 17  1  6  0  0  0
 16 15  1  0  0  0  0
 18  2  1  1  0  0  0
 18 19  1  0  0  0  0
 18 16  1  0  0  0  0
 19 20  1  6  0  0  0
 19 21  1  0  0  0  0
 21 22  1  1  0  0  0
 21 13  1  0  0  0  0
 23 20  1  6  0  0  0
 23 29  1  0  0  0  0
 24 25  1  6  0  0  0
 24 26  1  0  0  0  0
 24 23  1  0  0  0  0
 26 27  1  6  0  0  0
 26 28  1  0  0  0  0
 28 30  1  1  0  0  0
 29 28  1  0  0  0  0
 30 31  1  0  0  0  0
 32 27  1  1  0  0  0
 32 40  1  0  0  0  0
 33 35  1  0  0  0  0
 33 32  1  0  0  0  0
 33 34  1  1  0  0  0
 35 36  1  6  0  0  0
 35 37  1  0  0  0  0
 37 38  1  1  0  0  0
 37 39  1  0  0  0  0
 39 41  1  1  0  0  0
 40 39  1  0  0  0  0
 41 42  1  0  0  0  0
M  END
>  <CHROM.1>
-173.82406910,-68.73946214,-169.03995124,162.33959019,171.39868245,153.62863648
-177.34954279,178.20843690,-65.42474592,-2.53670032,13.83434446,36.84632602
-1.42825656,-0.37797199,3.07572710

>  <Name>
lig.pdb

>  <RI>
0

>  <Rbt.Current_Directory>
/home/itssahil/PROJECTS/Mol_Feturizer/New_Systems/rnas/4wcr

>  <Rbt.Executable>
rbdock ($Id: //depot/dev/client3/rdock/2013.1/src/exe/rbdock.cxx#4 $)

>  <Rbt.Library>
libRbt.so (2013.1, Build901 2013/11/27)

>  <Rbt.Parameter_File>
/export/apps/rDock/src/rDock_2013.1_src/data/scripts/dock_solv.prm

>  <Rbt.Receptor>
prm/pocket_docking_2.prm

>  <SCORE>
-9.06061

>  <SCORE.INTER>
-1.27643

>  <SCORE.INTER.CONST>
1

>  <SCORE.INTER.POLAR>
0

>  <SCORE.INTER.ROT>
9

>  <SCORE.INTER.SOLV>
21.3463

>  <SCORE.INTER.VDW>
-17.5664

>  <SCORE.INTER.norm>
-0.0303912

>  <SCORE.INTRA>
-7.78418

>  <SCORE.INTRA.DIHEDRAL>
-9.94639

>  <SCORE.INTRA.DIHEDRAL.0>
16.2863

>  <SCORE.INTRA.POLAR>
0

>  <SCORE.INTRA.POLAR.0>
0

>  <SCORE.INTRA.REPUL>
-0.314433

>  <SCORE.INTRA.REPUL.0>
0.314433

>  <SCORE.INTRA.SOLV>
-3.75905

>  <SCORE.INTRA.SOLV.lig_0>
-103.824

>  <SCORE.INTRA.VDW>
0.640707

>  <SCORE.INTRA.VDW.0>
-5.30945

>  <SCORE.INTRA.norm>
-0.185338

>  <SCORE.RESTR>
0

>  <SCORE.RESTR.CAVITY>
0

>  <SCORE.RESTR.norm>
0

>  <SCORE.SYSTEM>
0

>  <SCORE.SYSTEM.CONST>
0

>  <SCORE.SYSTEM.DIHEDRAL>
0

>  <SCORE.SYSTEM.SOLV>
0

>  <SCORE.SYSTEM.norm>
0

>  <SCORE.heavy>
42

>  <SCORE.norm>
-0.215729

>  <RMSD>
1.015

$$$$
lig.pdb
 OpenBabel11021811513D
libRbt.so/2013.1/901 2013/11/27
 42 45  0  0  0  0  0  0  0  0999 V2000
   -1.0922   16.7367   35.9127 C   0  0  2  0  0  0  0  0  0  0  0  0
   -1.8867   17.2839   37.0111 O   0  0  0  0  0  0  0  0  0  0  0  0
    0.4335   16.9632   36.3138 C   0  0  2  0  0  0  0  0  0  0  0  0
    0.7510   16.2299   37.5423 N   0  0  0  0  0  0  0  0  0  0  0  0
    0.7003   18.5401   36.4622 C   0  0  1  0  0  0  0  0  0  0  0  0
    2.0744   18.8048   36.8148 O   0  0  0  0  0  0  0  0  0  0  0  0
    0.3240   19.1928   35.1210 C   0  0  2  0  0  0  0  0  0  0  0  0
    0.5406   20.5597   35.2132 O   0  0  0  0  0  0  0  0  0  0  0  0
   -1.2024   18.8802   34.7734 C   0  0  2  0  0  0  0  0  0  0  0  0
   -1.4354   17.4695   34.6762 O   0  0  0  0  0  0  0  0  0  0  0  0
   -1.6160   19.4811   33.4600 C   0  0  0  0  0  0  0  0  0  0  0  0
   -1.7537   20.8894   33.6533 O   0  0  0  0  0  0  0  0  0  0  0  0
   -5.9976   16.7311   38.6133 C   0  0  2  0  0  0  0  0  0  0  0  0
   -7.4417   16.6890   38.6905 N   0  0  0  0  0  0  0  0  0  0  0  0
   -5.5194   18.1593   38.1438 C   0  0  0  0  0  0  0  0  0  0  0  0
   -3.9547   18.2299   38.0477 C   0  0  2  0  0  0  0  0  0  0  0  0
   -3.5544   19.5636   37.6039 N   0  0  0  0  0  0  0  0  0  0  0  0
   -3.3579   17.1534   37.0361 C   0  0  2  0  0  0  0  0  0  0  0  0
   -3.8066   15.7486   37.5332 C   0  0  2  0  0  0  0  0  0  0  0  0
   -3.1961   14.7941   36.5338 O   0  0  0  0  0  0  0  0  0  0  0  0
   -5.4309   15.6603   37.5662 C   0  0  1  0  0  0  0  0  0  0  0  0
   -5.9704   14.3973   38.0723 O   0  0  0  0  0  0  0  0  0  0  0  0
   -3.3788   13.4901   36.9126 C   0  0  1  0  0  0  0  0  0  0  0  0
   -2.6396   12.5387   36.0761 C   0  0  2  0  0  0  0  0  0  0  0  0
   -3.2840   12.4806   34.8440 O   0  0  0  0  0  0  0  0  0  0  0  0
   -2.6095   11.2959   36.9913 C   0  0  2  0  0  0  0  0  0  0  0  0
   -3.3014   10.2412   36.2854 O   0  0  0  0  0  0  0  0  0  0  0  0
   -3.3233   11.7171   38.2334 C   0  0  2  0  0  0  0  0  0  0  0  0
   -2.9236   13.1339   38.2074 O   0  0  0  0  0  0  0  0  0  0  0  0
   -2.7408   11.0089   39.5115 C   0  0  0  0  0  0  0  0  0  0  0  0
   -2.9745    9.5689   39.5407 O   0  0  0  0  0  0  0  0  0  0  0  0
   -2.5547    9.0113   36.0389 C   0  0  2  0  0  0  0  0  0  0  0  0
   -3.4492    8.0478   35.0977 C   0  0  2  0  0  0  0  0  0  0  0  0
   -4.7584    7.7750   35.7746 N   0  0  0  0  0  0  0  0  0  0  0  0
   -2.6187    6.6982   34.8282 C   0  0  1  0  0  0  0  0  0  0  0  0
   -1.3685    7.0805   34.1781 O   0  0  0  0  0  0  0  0  0  0  0  0
   -2.3424    5.9594   36.2147 C   0  0  2  0  0  0  0  0  0  0  0  0
   -3.6503    5.5931   36.8024 O   0  0  0  0  0  0  0  0  0  0  0  0
   -1.4890    6.9712   37.1687 C   0  0  1  0  0  0  0  0  0  0  0  0
   -2.2525    8.2591   37.3511 O   0  0  0  0  0  0  0  0  0  0  0  0
   -1.2144    6.2839   38.5473 C   0  0  0  0  0  0  0  0  0  0  0  0
   -0.3298    7.0992   39.4362 N   0  0  0  0  0  0  0  0  0  0  0  0
  1  3  1  0  0  0  0
  1  2  1  1  0  0  0
  3  4  1  1  0  0  0
  3  5  1  0  0  0  0
  5  6  1  6  0  0  0
  7  8  1  1  0  0  0
  7  5  1  0  0  0  0
  9 11  1  6  0  0  0
  9  7  1  0  0  0  0
 10  9  1  0  0  0  0
 10  1  1  0  0  0  0
 12 11  1  0  0  0  0
 13 14  1  6  0  0  0
 15 13  1  0  0  0  0
 16 17  1  6  0  0  0
 16 15  1  0  0  0  0
 18  2  1  1  0  0  0
 18 19  1  0  0  0  0
 18 16  1  0  0  0  0
 19 20  1  6  0  0  0
 19 21  1  0  0  0  0
 21 22  1  1  0  0  0
 21 13  1  0  0  0  0
 23 20  1  6  0  0  0
 23 29  1  0  0  0  0
 24 25  1  6  0  0  0
 24 26  1  0  0  0  0
 24 23  1  0  0  0  0
 26 27  1  6  0  0  0
 26 28  1  0  0  0  0
 28 30  1  1  0  0  0
 29 28  1  0  0  0  0
 30 31  1  0  0  0  0
 32 27  1  1  0  0  0
 32 40  1  0  0  0  0
 33 35  1  0  0  0  0
 33 32  1  0  0  0  0
 33 34  1  1  0  0  0
 35 36  1  1  0  0  0
 35 37  1  0  0  0  0
 37 38  1  1  0  0  0
 37 39  1  0  0  0  0
 39 41  1  1  0  0  0
 40 39  1  0  0  0  0
 41 42  1  0  0  0  0
M  END
>  <CHROM.1>
-175.07104948,-73.96552158,-161.25435013,173.43159725,-171.76453292,122.41005672
-66.84631231,-173.51587053,174.80902041,-2.50145250,13.62701777,36.72223646
-1.48550657,-0.44586116,3.10882119

>  <Name>
lig.pdb

>  <RI>
0

>  <Rbt.Current_Directory>
/home/itssahil/PROJECTS/Mol_Feturizer/New_Systems/rnas/4wcr

>  <Rbt.Executable>
rbdock ($Id: //depot/dev/client3/rdock/2013.1/src/exe/rbdock.cxx#4 $)

>  <Rbt.Library>
libRbt.so (2013.1, Build901 2013/11/27)

>  <Rbt.Parameter_File>
/export/apps/rDock/src/rDock_2013.1_src/data/scripts/dock_solv.prm

>  <Rbt.Receptor>
prm/pocket_docking_2.prm

>  <SCORE>
-6.97398

>  <SCORE.INTER>
-0.810258

>  <SCORE.INTER.CONST>
1

>  <SCORE.INTER.POLAR>
0

>  <SCORE.INTER.ROT>
9

>  <SCORE.INTER.SOLV>
17.4666

>  <SCORE.INTER.VDW>
-15.9624

>  <SCORE.INTER.norm>
-0.0192919

>  <SCORE.INTRA>
-6.16373

>  <SCORE.INTRA.DIHEDRAL>
-5.36988

>  <SCORE.INTRA.DIHEDRAL.0>
16.2863

>  <SCORE.INTRA.POLAR>
0

>  <SCORE.INTRA.POLAR.0>
0

>  <SCORE.INTRA.REPUL>
-0.314433

>  <SCORE.INTRA.REPUL.0>
0.314433

>  <SCORE.INTRA.SOLV>
-4.47737

>  <SCORE.INTRA.SOLV.lig_0>
-103.824

>  <SCORE.INTRA.VDW>
0.332065

>  <SCORE.INTRA.VDW.0>
-5.30945

>  <SCORE.INTRA.norm>
-0.146755

>  <SCORE.RESTR>
0

>  <SCORE.RESTR.CAVITY>
0

>  <SCORE.RESTR.norm>
0

>  <SCORE.SYSTEM>
0

>  <SCORE.SYSTEM.CONST>
0

>  <SCORE.SYSTEM.DIHEDRAL>
0

>  <SCORE.SYSTEM.SOLV>
0

>  <SCORE.SYSTEM.norm>
0

>  <SCORE.heavy>
42

>  <SCORE.norm>
-0.166047

>  <RMSD>
1.022

$$$$
lig.pdb
 OpenBabel11021811513D
libRbt.so/2013.1/901 2013/11/27
 42 45  0  0  0  0  0  0  0  0999 V2000
   -1.0708   16.8145   35.8639 C   0  0  2  0  0  0  0  0  0  0  0  0
   -1.8671   17.3778   36.9528 O   0  0  0  0  0  0  0  0  0  0  0  0
    0.4543   17.0171   36.2796 C   0  0  2  0  0  0  0  0  0  0  0  0
    0.7474   16.2822   37.5132 N   0  0  0  0  0  0  0  0  0  0  0  0
    0.7455   18.5898   36.4264 C   0  0  1  0  0  0  0  0  0  0  0  0
    2.1202   18.8330   36.7920 O   0  0  0  0  0  0  0  0  0  0  0  0
    0.3933   19.2448   35.0797 C   0  0  2  0  0  0  0  0  0  0  0  0
    0.6313   20.6082   35.1703 O   0  0  0  0  0  0  0  0  0  0  0  0
   -1.1345   18.9562   34.7177 C   0  0  2  0  0  0  0  0  0  0  0  0
   -1.3896   17.5493   34.6220 O   0  0  0  0  0  0  0  0  0  0  0  0
   -1.5251   19.5600   33.3986 C   0  0  0  0  0  0  0  0  0  0  0  0
   -1.5108   20.9798   33.5520 O   0  0  0  0  0  0  0  0  0  0  0  0
   -5.9559   16.6068   38.5212 C   0  0  2  0  0  0  0  0  0  0  0  0
   -7.3988   16.5525   38.6117 N   0  0  0  0  0  0  0  0  0  0  0  0
   -5.4835   18.0861   38.2436 C   0  0  0  0  0  0  0  0  0  0  0  0
   -3.9202   18.1714   38.1365 C   0  0  2  0  0  0  0  0  0  0  0  0
   -3.5255   19.5535   37.8726 N   0  0  0  0  0  0  0  0  0  0  0  0
   -3.3380   17.2431   36.9800 C   0  0  2  0  0  0  0  0  0  0  0  0
   -3.7804   15.7832   37.2877 C   0  0  2  0  0  0  0  0  0  0  0  0
   -3.1842   14.9741   36.1596 O   0  0  0  0  0  0  0  0  0  0  0  0
   -5.4042   15.6889   37.3307 C   0  0  1  0  0  0  0  0  0  0  0  0
   -5.9373   14.3682   37.6678 O   0  0  0  0  0  0  0  0  0  0  0  0
   -3.2536   13.6303   36.4177 C   0  0  1  0  0  0  0  0  0  0  0  0
   -2.5268   12.8175   35.4368 C   0  0  2  0  0  0  0  0  0  0  0  0
   -3.2643   12.8322   34.2567 O   0  0  0  0  0  0  0  0  0  0  0  0
   -2.3448   11.4981   36.2175 C   0  0  2  0  0  0  0  0  0  0  0  0
   -3.0245   10.4697   35.4625 O   0  0  0  0  0  0  0  0  0  0  0  0
   -2.9803   11.7476   37.5455 C   0  0  2  0  0  0  0  0  0  0  0  0
   -2.6734   13.1850   37.6325 O   0  0  0  0  0  0  0  0  0  0  0  0
   -2.2527   10.9632   38.6987 C   0  0  0  0  0  0  0  0  0  0  0  0
   -0.9139   11.4634   38.9929 O   0  0  0  0  0  0  0  0  0  0  0  0
   -2.6145    9.0904   35.7080 C   0  0  2  0  0  0  0  0  0  0  0  0
   -3.3991    8.1295   34.6711 C   0  0  2  0  0  0  0  0  0  0  0  0
   -4.8760    8.3093   34.8537 N   0  0  0  0  0  0  0  0  0  0  0  0
   -2.9394    6.6138   34.9455 C   0  0  1  0  0  0  0  0  0  0  0  0
   -1.4939    6.5564   34.7483 O   0  0  0  0  0  0  0  0  0  0  0  0
   -3.3325    6.2015   36.4354 C   0  0  2  0  0  0  0  0  0  0  0  0
   -4.8063    6.2705   36.5516 O   0  0  0  0  0  0  0  0  0  0  0  0
   -2.5756    7.2198   37.4612 C   0  0  1  0  0  0  0  0  0  0  0  0
   -2.9644    8.6415   37.1416 O   0  0  0  0  0  0  0  0  0  0  0  0
   -2.9534    6.8546   38.9351 C   0  0  0  0  0  0  0  0  0  0  0  0
   -2.2918    7.7425   39.9407 N   0  0  0  0  0  0  0  0  0  0  0  0
  1  3  1  0  0  0  0
  1  2  1  1  0  0  0
  3  4  1  1  0  0  0
  3  5  1  0  0  0  0
  5  6  1  6  0  0  0
  7  8  1  1  0  0  0
  7  5  1  0  0  0  0
  9 11  1  6  0  0  0
  9  7  1  0  0  0  0
 10  9  1  0  0  0  0
 10  1  1  0  0  0  0
 12 11  1  0  0  0  0
 13 14  1  6  0  0  0
 15 13  1  0  0  0  0
 16 17  1  6  0  0  0
 16 15  1  0  0  0  0
 18  2  1  1  0  0  0
 18 19  1  0  0  0  0
 18 16  1  0  0  0  0
 19 20  1  6  0  0  0
 19 21  1  0  0  0  0
 21 22  1  1  0  0  0
 21 13  1  0  0  0  0
 23 20  1  6  0  0  0
 23 29  1  0  0  0  0
 24 25  1  6  0  0  0
 24 26  1  0  0  0  0
 24 23  1  0  0  0  0
 26 27  1  6  0  0  0
 26 28  1  0  0  0  0
 28 30  1  1  0  0  0
 29 28  1  0  0  0  0
 30 31  1  0  0  0  0
 32 27  1  1  0  0  0
 32 40  1  0  0  0  0
 33 35  1  0  0  0  0
 33 32  1  0  0  0  0
 33 34  1  1  0  0  0
 35 36  1  1  0  0  0
 35 37  1  0  0  0  0
 37 38  1  6  0  0  0
 37 39  1  0  0  0  0
 39 41  1  1  0  0  0
 40 39  1  0  0  0  0
 41 42  1  0  0  0  0
M  END
>  <CHROM.1>
-173.57036023,-68.26034169,-170.07790106,167.90795217,-172.23929524,158.62595865
69.11884916,-174.88827963,179.74415441,-2.57131836,13.79265778,36.53814986
-1.40606536,-0.45265177,-3.12852766

>  <Name>
lig.pdb

>  <RI>
0

>  <Rbt.Current_Directory>
/home/itssahil/PROJECTS/Mol_Feturizer/New_Systems/rnas/4wcr

>  <Rbt.Executable>
rbdock ($Id: //depot/dev/client3/rdock/2013.1/src/exe/rbdock.cxx#4 $)

>  <Rbt.Library>
libRbt.so (2013.1, Build901 2013/11/27)

>  <Rbt.Parameter_File>
/export/apps/rDock/src/rDock_2013.1_src/data/scripts/dock_solv.prm

>  <Rbt.Receptor>
prm/pocket_docking_2.prm

>  <SCORE>
-10.8591

>  <SCORE.INTER>
-2.03733

>  <SCORE.INTER.CONST>
1

>  <SCORE.INTER.POLAR>
0

>  <SCORE.INTER.ROT>
9

>  <SCORE.INTER.SOLV>
21.0676

>  <SCORE.INTER.VDW>
-17.9808

>  <SCORE.INTER.norm>
-0.0485079

>  <SCORE.INTRA>
-8.82311

>  <SCORE.INTRA.DIHEDRAL>
-11.5169

>  <SCORE.INTRA.DIHEDRAL.0>
16.2863

>  <SCORE.INTRA.POLAR>
0

>  <SCORE.INTRA.POLAR.0>
0

>  <SCORE.INTRA.REPUL>
-0.314433

>  <SCORE.INTRA.REPUL.0>
0.314433

>  <SCORE.INTRA.SOLV>
-4.6538

>  <SCORE.INTRA.SOLV.lig_0>
-103.824

>  <SCORE.INTRA.VDW>
0.834386

>  <SCORE.INTRA.VDW.0>
-5.30945

>  <SCORE.INTRA.norm>
-0.210074

>  <SCORE.RESTR>
0.00138607

>  <SCORE.RESTR.CAVITY>
0.00138607

>  <SCORE.RESTR.norm>
3.30016e-05

>  <SCORE.SYSTEM>
0

>  <SCORE.SYSTEM.CONST>
0

>  <SCORE.SYSTEM.DIHEDRAL>
0

>  <SCORE.SYSTEM.SOLV>
0

>  <SCORE.SYSTEM.norm>
0

>  <SCORE.heavy>
42

>  <SCORE.norm>
-0.258549

>  <RMSD>
1.039

$$$$
lig.pdb
 OpenBabel11021811513D
libRbt.so/2013.1/901 2013/11/27
 42 45  0  0  0  0  0  0  0  0999 V2000
   -0.8528   16.5668   36.0025 C   0  0  2  0  0  0  0  0  0  0  0  0
   -1.6940   17.1176   37.0637 O   0  0  0  0  0  0  0  0  0  0  0  0
    0.6431   16.9824   36.3622 C   0  0  2  0  0  0  0  0  0  0  0  0
    1.0421   16.3899   37.6419 N   0  0  0  0  0  0  0  0  0  0  0  0
    0.7447   18.5852   36.3777 C   0  0  1  0  0  0  0  0  0  0  0  0
    2.0856   19.0191   36.6881 O   0  0  0  0  0  0  0  0  0  0  0  0
    0.2949   19.0825   34.9932 C   0  0  2  0  0  0  0  0  0  0  0  0
    0.3682   20.4673   34.9704 O   0  0  0  0  0  0  0  0  0  0  0  0
   -1.1924   18.5858   34.6938 C   0  0  2  0  0  0  0  0  0  0  0  0
   -1.2775   17.1555   34.7153 O   0  0  0  0  0  0  0  0  0  0  0  0
   -1.6737   19.0301   33.3417 C   0  0  0  0  0  0  0  0  0  0  0  0
   -1.7972   20.4526   33.3728 O   0  0  0  0  0  0  0  0  0  0  0  0
   -5.7274   16.0744   38.6180 C   0  0  2  0  0  0  0  0  0  0  0  0
   -7.1639   15.9262   38.7048 N   0  0  0  0  0  0  0  0  0  0  0  0
   -5.3513   17.5828   38.3496 C   0  0  0  0  0  0  0  0  0  0  0  0
   -3.7966   17.7698   38.2468 C   0  0  2  0  0  0  0  0  0  0  0  0
   -3.4918   19.1761   37.9913 N   0  0  0  0  0  0  0  0  0  0  0  0
   -3.1531   16.8877   37.0866 C   0  0  2  0  0  0  0  0  0  0  0  0
   -3.5005   15.4005   37.3853 C   0  0  2  0  0  0  0  0  0  0  0  0
   -2.8508   14.6381   36.2542 O   0  0  0  0  0  0  0  0  0  0  0  0
   -5.1149   15.2009   37.4238 C   0  0  1  0  0  0  0  0  0  0  0  0
   -5.5619   13.8465   37.7524 O   0  0  0  0  0  0  0  0  0  0  0  0
   -2.8493   13.2896   36.4968 C   0  0  1  0  0  0  0  0  0  0  0  0
   -2.2560   12.5092   35.4059 C   0  0  2  0  0  0  0  0  0  0  0  0
   -3.1597   12.5204   34.3477 O   0  0  0  0  0  0  0  0  0  0  0  0
   -1.9294   11.1847   36.1287 C   0  0  2  0  0  0  0  0  0  0  0  0
   -2.6884   10.1491   35.4646 O   0  0  0  0  0  0  0  0  0  0  0  0
   -2.3678   11.3998   37.5398 C   0  0  2  0  0  0  0  0  0  0  0  0
   -2.0858   12.8434   37.6052 O   0  0  0  0  0  0  0  0  0  0  0  0
   -1.4595   10.6193   38.5598 C   0  0  0  0  0  0  0  0  0  0  0  0
   -1.9082   10.7265   39.9442 O   0  0  0  0  0  0  0  0  0  0  0  0
   -2.3602    8.7682   35.8057 C   0  0  2  0  0  0  0  0  0  0  0  0
   -3.1985    7.7861   34.8326 C   0  0  2  0  0  0  0  0  0  0  0  0
   -4.6625    8.0639   34.9946 N   0  0  0  0  0  0  0  0  0  0  0  0
   -2.8288    6.2685   35.2121 C   0  0  1  0  0  0  0  0  0  0  0  0
   -1.3889    6.1134   35.0270 O   0  0  0  0  0  0  0  0  0  0  0  0
   -3.2474    5.9827   36.7246 C   0  0  2  0  0  0  0  0  0  0  0  0
   -4.7147    6.1454   36.8280 O   0  0  0  0  0  0  0  0  0  0  0  0
   -2.4334    7.0228   37.6825 C   0  0  1  0  0  0  0  0  0  0  0  0
   -2.7378    8.4397   37.2647 O   0  0  0  0  0  0  0  0  0  0  0  0
   -2.8338    6.7820   39.1759 C   0  0  0  0  0  0  0  0  0  0  0  0
   -2.0385    7.6138   40.1313 N   0  0  0  0  0  0  0  0  0  0  0  0
  1  3  1  0  0  0  0
  1  2  1  1  0  0  0
  3  4  1  1  0  0  0
  3  5  1  0  0  0  0
  5  6  1  6  0  0  0
  7  8  1  1  0  0  0
  7  5  1  0  0  0  0
  9 11  1  6  0  0  0
  9  7  1  0  0  0  0
 10  9  1  0  0  0  0
 10  1  1  0  0  0  0
 12 11  1  0  0  0  0
 13 14  1  6  0  0  0
 15 13  1  0  0  0  0
 16 17  1  6  0  0  0
 16 15  1  0  0  0  0
 18  2  1  1  0  0  0
 18 19  1  0  0  0  0
 18 16  1  0  0  0  0
 19 20  1  6  0  0  0
 19 21  1  0  0  0  0
 21 22  1  1  0  0  0
 21 13  1  0  0  0  0
 23 20  1  6  0  0  0
 23 29  1  0  0  0  0
 24 25  1  6  0  0  0
 24 26  1  0  0  0  0
 24 23  1  0  0  0  0
 26 27  1  6  0  0  0
 26 28  1  0  0  0  0
 28 30  1  1  0  0  0
 29 28  1  0  0  0  0
 30 31  1  0  0  0  0
 32 27  1  6  0  0  0
 32 40  1  0  0  0  0
 33 35  1  0  0  0  0
 33 32  1  0  0  0  0
 33 34  1  1  0  0  0
 35 36  1  1  0  0  0
 35 37  1  0  0  0  0
 37 38  1  6  0  0  0
 37 39  1  0  0  0  0
 39 41  1  1  0  0  0
 40 39  1  0  0  0  0
 41 42  1  0  0  0  0
M  END
>  <CHROM.1>
-177.82587321,-66.87324019,-172.61395348,168.70844229,178.58301812,168.93436465
-175.98549388,-173.51486967,174.82654461,-2.41898280,13.48448152,36.63409700
-1.40372263,-0.55018680,-3.13587584

>  <Name>
lig.pdb

>  <RI>
0

>  <Rbt.Current_Directory>
/home/itssahil/PROJECTS/Mol_Feturizer/New_Systems/rnas/4wcr

>  <Rbt.Executable>
rbdock ($Id: //depot/dev/client3/rdock/2013.1/src/exe/rbdock.cxx#4 $)

>  <Rbt.Library>
libRbt.so (2013.1, Build901 2013/11/27)

>  <Rbt.Parameter_File>
/export/apps/rDock/src/rDock_2013.1_src/data/scripts/dock_solv.prm

>  <Rbt.Receptor>
prm/pocket_docking_3.prm

>  <SCORE>
-11.6129

>  <SCORE.INTER>
-2.13501

>  <SCORE.INTER.CONST>
1

>  <SCORE.INTER.POLAR>
0

>  <SCORE.INTER.ROT>
9

>  <SCORE.INTER.SOLV>
18.6947

>  <SCORE.INTER.VDW>
-17.2549

>  <SCORE.INTER.norm>
-0.0508335

>  <SCORE.INTRA>
-9.47789

>  <SCORE.INTRA.DIHEDRAL>
-13.7546

>  <SCORE.INTRA.DIHEDRAL.0>
16.2863

>  <SCORE.INTRA.POLAR>
0

>  <SCORE.INTRA.POLAR.0>
0

>  <SCORE.INTRA.REPUL>
-0.314433

>  <SCORE.INTRA.REPUL.0>
0.314433

>  <SCORE.INTRA.SOLV>
-4.14252

>  <SCORE.INTRA.SOLV.lig_0>
-103.824

>  <SCORE.INTRA.VDW>
1.04281

>  <SCORE.INTRA.VDW.0>
-5.30945

>  <SCORE.INTRA.norm>
-0.225664

>  <SCORE.RESTR>
0

>  <SCORE.RESTR.CAVITY>
0

>  <SCORE.RESTR.norm>
0

>  <SCORE.SYSTEM>
0

>  <SCORE.SYSTEM.CONST>
0

>  <SCORE.SYSTEM.DIHEDRAL>
0

>  <SCORE.SYSTEM.SOLV>
0

>  <SCORE.SYSTEM.norm>
0

>  <SCORE.heavy>
42

>  <SCORE.norm>
-0.276498

>  <RMSD>
1.051

$$$$
lig.pdb
 OpenBabel11021811513D
libRbt.so/2013.1/901 2013/11/27
 42 45  0  0  0  0  0  0  0  0999 V2000
   -0.8995   16.6620   35.9405 C   0  0  2  0  0  0  0  0  0  0  0  0
   -1.7407   17.2067   37.0049 O   0  0  0  0  0  0  0  0  0  0  0  0
    0.6034   17.0064   36.3436 C   0  0  2  0  0  0  0  0  0  0  0  0
    0.9535   16.3537   37.6082 N   0  0  0  0  0  0  0  0  0  0  0  0
    0.7654   18.6026   36.4194 C   0  0  1  0  0  0  0  0  0  0  0  0
    2.1151   18.9729   36.7709 O   0  0  0  0  0  0  0  0  0  0  0  0
    0.3631   19.1659   35.0456 C   0  0  2  0  0  0  0  0  0  0  0  0
    0.4893   20.5468   35.0748 O   0  0  0  0  0  0  0  0  0  0  0  0
   -1.1355   18.7381   34.7001 C   0  0  2  0  0  0  0  0  0  0  0  0
   -1.2751   17.3122   34.6678 O   0  0  0  0  0  0  0  0  0  0  0  0
   -1.5719   19.2486   33.3562 C   0  0  0  0  0  0  0  0  0  0  0  0
   -1.6778   20.6699   33.4472 O   0  0  0  0  0  0  0  0  0  0  0  0
   -5.7869   16.1476   38.5148 C   0  0  2  0  0  0  0  0  0  0  0  0
   -7.2249   16.0106   38.5942 N   0  0  0  0  0  0  0  0  0  0  0  0
   -5.3954   17.6609   38.3022 C   0  0  0  0  0  0  0  0  0  0  0  0
   -3.8388   17.8361   38.2083 C   0  0  2  0  0  0  0  0  0  0  0  0
   -3.5196   19.2476   38.0048 N   0  0  0  0  0  0  0  0  0  0  0  0
   -3.2020   16.9906   37.0175 C   0  0  2  0  0  0  0  0  0  0  0  0
   -3.5647   15.4970   37.2611 C   0  0  2  0  0  0  0  0  0  0  0  0
   -2.9207   14.7700   36.1038 O   0  0  0  0  0  0  0  0  0  0  0  0
   -5.1810   15.3123   37.2902 C   0  0  1  0  0  0  0  0  0  0  0  0
   -5.6420   13.9513   37.5685 O   0  0  0  0  0  0  0  0  0  0  0  0
   -2.9000   13.4162   36.3137 C   0  0  1  0  0  0  0  0  0  0  0  0
   -2.3692   12.6647   35.1714 C   0  0  2  0  0  0  0  0  0  0  0  0
   -3.3338   12.6964   34.1688 O   0  0  0  0  0  0  0  0  0  0  0  0
   -1.9957   11.3253   35.8419 C   0  0  2  0  0  0  0  0  0  0  0  0
   -2.7887   10.3018   35.1991 O   0  0  0  0  0  0  0  0  0  0  0  0
   -2.3508   11.5048   37.2811 C   0  0  2  0  0  0  0  0  0  0  0  0
   -2.0707   12.9478   37.3642 O   0  0  0  0  0  0  0  0  0  0  0  0
   -1.3812   10.7051   38.2270 C   0  0  0  0  0  0  0  0  0  0  0  0
   -0.0059   11.1922   38.2027 O   0  0  0  0  0  0  0  0  0  0  0  0
   -2.4465    8.9150   35.5002 C   0  0  2  0  0  0  0  0  0  0  0  0
   -3.2874    7.9523   34.5101 C   0  0  2  0  0  0  0  0  0  0  0  0
   -4.7517    8.2142   34.6943 N   0  0  0  0  0  0  0  0  0  0  0  0
   -2.9022    6.4282   34.8454 C   0  0  1  0  0  0  0  0  0  0  0  0
   -1.4632    6.2894   34.6415 O   0  0  0  0  0  0  0  0  0  0  0  0
   -3.3027    6.0993   36.3540 C   0  0  2  0  0  0  0  0  0  0  0  0
   -4.7701    6.2476   36.4767 O   0  0  0  0  0  0  0  0  0  0  0  0
   -2.4868    7.1201   37.3308 C   0  0  1  0  0  0  0  0  0  0  0  0
   -2.8063    8.5450   36.9538 O   0  0  0  0  0  0  0  0  0  0  0  0
   -2.8697    6.8367   38.8213 C   0  0  0  0  0  0  0  0  0  0  0  0
   -2.0979    7.6769   39.7885 N   0  0  0  0  0  0  0  0  0  0  0  0
  1  3  1  0  0  0  0
  1  2  1  1  0  0  0
  3  4  1  1  0  0  0
  3  5  1  0  0  0  0
  5  6  1  6  0  0  0
  7  8  1  1  0  0  0
  7  5  1  0  0  0  0
  9 11  1  6  0  0  0
  9  7  1  0  0  0  0
 10  9  1  0  0  0  0
 10  1  1  0  0  0  0
 12 11  1  0  0  0  0
 13 14  1  6  0  0  0
 15 13  1  0  0  0  0
 16 17  1  6  0  0  0
 16 15  1  0  0  0  0
 18  2  1  1  0  0  0
 18 19  1  0  0  0  0
 18 16  1  0  0  0  0
 19 20  1  6  0  0  0
 19 21  1  0  0  0  0
 21 22  1  1  0  0  0
 21 13  1  0  0  0  0
 23 20  1  6  0  0  0
 23 29  1  0  0  0  0
 24 25  1  6  0  0  0
 24 26  1  0  0  0  0
 24 23  1  0  0  0  0
 26 27  1  6  0  0  0
 26 28  1  0  0  0  0
 28 30  1  1  0  0  0
 29 28  1  0  0  0  0
 30 31  1  0  0  0  0
 32 27  1  6  0  0  0
 32 40  1  0  0  0  0
 33 35  1  0  0  0  0
 33 32  1  0  0  0  0
 33 34  1  1  0  0  0
 35 36  1  1  0  0  0
 35 37  1  0  0  0  0
 37 38  1  6  0  0  0
 37 39  1  0  0  0  0
 39 41  1  1  0  0  0
 40 39  1  0  0  0  0
 41 42  1  0  0  0  0
M  END
>  <CHROM.1>
-175.57019906,-68.44837873,-173.95444135,167.04286629,175.90362472,169.66629688
65.74817284,-171.12541379,176.43314138,-2.40081344,13.60090001,36.43302533
-1.41286432,-0.41573918,-3.11931069

>  <Name>
lig.pdb

>  <RI>
0

>  <Rbt.Current_Directory>
/home/itssahil/PROJECTS/Mol_Feturizer/New_Systems/rnas/4wcr

>  <Rbt.Executable>
rbdock ($Id: //depot/dev/client3/rdock/2013.1/src/exe/rbdock.cxx#4 $)

>  <Rbt.Library>
libRbt.so (2013.1, Build901 2013/11/27)

>  <Rbt.Parameter_File>
/export/apps/rDock/src/rDock_2013.1_src/data/scripts/dock_solv.prm

>  <Rbt.Receptor>
prm/pocket_docking_3.prm

>  <SCORE>
-11.7647

>  <SCORE.INTER>
-1.98653

>  <SCORE.INTER.CONST>
1

>  <SCORE.INTER.POLAR>
0

>  <SCORE.INTER.ROT>
9

>  <SCORE.INTER.SOLV>
19.2789

>  <SCORE.INTER.VDW>
-17.3507

>  <SCORE.INTER.norm>
-0.0472983

>  <SCORE.INTRA>
-9.77812

>  <SCORE.INTRA.DIHEDRAL>
-13.328

>  <SCORE.INTRA.DIHEDRAL.0>
16.2863

>  <SCORE.INTRA.POLAR>
0

>  <SCORE.INTRA.POLAR.0>
0

>  <SCORE.INTRA.REPUL>
-0.314433

>  <SCORE.INTRA.REPUL.0>
0.314433

>  <SCORE.INTRA.SOLV>
-5.0243

>  <SCORE.INTRA.SOLV.lig_0>
-103.824

>  <SCORE.INTRA.VDW>
0.970185

>  <SCORE.INTRA.VDW.0>
-5.30945

>  <SCORE.INTRA.norm>
-0.232812

>  <SCORE.RESTR>
0

>  <SCORE.RESTR.CAVITY>
0

>  <SCORE.RESTR.norm>
0

>  <SCORE.SYSTEM>
0

>  <SCORE.SYSTEM.CONST>
0

>  <SCORE.SYSTEM.DIHEDRAL>
0

>  <SCORE.SYSTEM.SOLV>
0

>  <SCORE.SYSTEM.norm>
0

>  <SCORE.heavy>
42

>  <SCORE.norm>
-0.280111

>  <RMSD>
1.109

$$$$
lig.pdb
 OpenBabel11021811513D
libRbt.so/2013.1/901 2013/11/27
 42 45  0  0  0  0  0  0  0  0999 V2000
   -0.8992   16.7345   35.9007 C   0  0  2  0  0  0  0  0  0  0  0  0
   -1.7294   17.2740   36.9763 O   0  0  0  0  0  0  0  0  0  0  0  0
    0.6078   17.0771   36.2899 C   0  0  2  0  0  0  0  0  0  0  0  0
    0.9709   16.4184   37.5477 N   0  0  0  0  0  0  0  0  0  0  0  0
    0.7704   18.6729   36.3717 C   0  0  1  0  0  0  0  0  0  0  0  0
    2.1237   19.0418   36.7111 O   0  0  0  0  0  0  0  0  0  0  0  0
    0.3540   19.2428   35.0048 C   0  0  2  0  0  0  0  0  0  0  0  0
    0.4804   20.6235   35.0392 O   0  0  0  0  0  0  0  0  0  0  0  0
   -1.1480   18.8164   34.6726 C   0  0  2  0  0  0  0  0  0  0  0  0
   -1.2879   17.3907   34.6350 O   0  0  0  0  0  0  0  0  0  0  0  0
   -1.5983   19.3332   33.3357 C   0  0  0  0  0  0  0  0  0  0  0  0
   -1.7025   20.7542   33.4344 O   0  0  0  0  0  0  0  0  0  0  0  0
   -5.7626   16.2286   38.5299 C   0  0  2  0  0  0  0  0  0  0  0  0
   -7.1998   16.0919   38.6224 N   0  0  0  0  0  0  0  0  0  0  0  0
   -5.3736   17.7399   38.2987 C   0  0  0  0  0  0  0  0  0  0  0  0
   -3.8179   17.9147   38.1903 C   0  0  2  0  0  0  0  0  0  0  0  0
   -3.5011   19.3243   37.9699 N   0  0  0  0  0  0  0  0  0  0  0  0
   -3.1905   17.0574   37.0030 C   0  0  2  0  0  0  0  0  0  0  0  0
   -3.5504   15.5663   37.2648 C   0  0  2  0  0  0  0  0  0  0  0  0
   -2.9155   14.8278   36.1096 O   0  0  0  0  0  0  0  0  0  0  0  0
   -5.1664   15.3812   37.3090 C   0  0  1  0  0  0  0  0  0  0  0  0
   -5.6243   14.0229   37.6049 O   0  0  0  0  0  0  0  0  0  0  0  0
   -2.8943   13.4760   36.3322 C   0  0  1  0  0  0  0  0  0  0  0  0
   -2.3595   12.7144   35.1986 C   0  0  2  0  0  0  0  0  0  0  0  0
   -3.3211   12.7359   34.1928 O   0  0  0  0  0  0  0  0  0  0  0  0
   -1.9869   11.3816   35.8826 C   0  0  2  0  0  0  0  0  0  0  0  0
   -2.7772   10.3515   35.2470 O   0  0  0  0  0  0  0  0  0  0  0  0
   -2.3466   11.5741   37.3190 C   0  0  2  0  0  0  0  0  0  0  0  0
   -2.0679   13.0181   37.3895 O   0  0  0  0  0  0  0  0  0  0  0  0
   -1.3791   10.7841   38.2752 C   0  0  0  0  0  0  0  0  0  0  0  0
    0.0163   11.1970   38.1677 O   0  0  0  0  0  0  0  0  0  0  0  0
   -2.4480    8.9683   35.5777 C   0  0  2  0  0  0  0  0  0  0  0  0
   -3.2861    7.9929   34.5977 C   0  0  2  0  0  0  0  0  0  0  0  0
   -4.7502    8.2686   34.7623 N   0  0  0  0  0  0  0  0  0  0  0  0
   -2.9152    6.4727   34.9657 C   0  0  1  0  0  0  0  0  0  0  0  0
   -1.4753    6.3200   34.7789 O   0  0  0  0  0  0  0  0  0  0  0  0
   -3.3330    6.1755   36.4762 C   0  0  2  0  0  0  0  0  0  0  0  0
   -4.8004    6.3364   36.5814 O   0  0  0  0  0  0  0  0  0  0  0  0
   -2.5193    7.2089   37.4415 C   0  0  1  0  0  0  0  0  0  0  0  0
   -2.8248    8.6286   37.0344 O   0  0  0  0  0  0  0  0  0  0  0  0
   -2.9190    6.9567   38.9333 C   0  0  0  0  0  0  0  0  0  0  0  0
   -2.1444    7.8033   39.8926 N   0  0  0  0  0  0  0  0  0  0  0  0
  1  3  1  0  0  0  0
  1  2  1  1  0  0  0
  3  4  1  1  0  0  0
  3  5  1  0  0  0  0
  5  6  1  6  0  0  0
  7  8  1  1  0  0  0
  7  5  1  0  0  0  0
  9 11  1  6  0  0  0
  9  7  1  0  0  0  0
 10  9  1  0  0  0  0
 10  1  1  0  0  0  0
 12 11  1  0  0  0  0
 13 14  1  6  0  0  0
 15 13  1  0  0  0  0
 16 17  1  6  0  0  0
 16 15  1  0  0  0  0
 18  2  1  1  0  0  0
 18 19  1  0  0  0  0
 18 16  1  0  0  0  0
 19 20  1  6  0  0  0
 19 21  1  0  0  0  0
 21 22  1  1  0  0  0
 21 13  1  0  0  0  0
 23 20  1  6  0  0  0
 23 29  1  0  0  0  0
 24 25  1  6  0  0  0
 24 26  1  0  0  0  0
 24 23  1  0  0  0  0
 26 27  1  6  0  0  0
 26 28  1  0  0  0  0
 28 30  1  1  0  0  0
 29 28  1  0  0  0  0
 30 31  1  0  0  0  0
 32 27  1  6  0  0  0
 32 40  1  0  0  0  0
 33 35  1  0  0  0  0
 33 32  1  0  0  0  0
 33 34  1  1  0  0  0
 35 36  1  1  0  0  0
 35 37  1  0  0  0  0
 37 38  1  6  0  0  0
 37 39  1  0  0  0  0
 39 41  1  1  0  0  0
 40 39  1  0  0  0  0
 41 42  1  0  0  0  0
M  END
>  <CHROM.1>
-175.55767144,-68.41028948,-173.09670122,167.13866850,176.50621834,170.57256396
60.87292288,-171.38654009,176.06101228,-2.40148969,13.66993835,36.45513120
-1.41050965,-0.42309769,-3.12936184

>  <Name>
lig.pdb

>  <RI>
0

>  <Rbt.Current_Directory>
/home/itssahil/PROJECTS/Mol_Feturizer/New_Systems/rnas/4wcr

>  <Rbt.Executable>
rbdock ($Id: //depot/dev/client3/rdock/2013.1/src/exe/rbdock.cxx#4 $)

>  <Rbt.Library>
libRbt.so (2013.1, Build901 2013/11/27)

>  <Rbt.Parameter_File>
/export/apps/rDock/src/rDock_2013.1_src/data/scripts/dock_solv.prm

>  <Rbt.Receptor>
prm/pocket_docking_3.prm

>  <SCORE>
-11.7669

>  <SCORE.INTER>
-1.97171

>  <SCORE.INTER.CONST>
1

>  <SCORE.INTER.POLAR>
0

>  <SCORE.INTER.ROT>
9

>  <SCORE.INTER.SOLV>
19.5813

>  <SCORE.INTER.VDW>
-17.4416

>  <SCORE.INTER.norm>
-0.0469454

>  <SCORE.INTRA>
-9.79517

>  <SCORE.INTRA.DIHEDRAL>
-13.483

>  <SCORE.INTRA.DIHEDRAL.0>
16.2863

>  <SCORE.INTRA.POLAR>
0

>  <SCORE.INTRA.POLAR.0>
0

>  <SCORE.INTRA.REPUL>
-0.314433

>  <SCORE.INTRA.REPUL.0>
0.314433

>  <SCORE.INTRA.SOLV>
-4.95925

>  <SCORE.INTRA.SOLV.lig_0>
-103.824

>  <SCORE.INTRA.VDW>
0.998142

>  <SCORE.INTRA.VDW.0>
-5.30945

>  <SCORE.INTRA.norm>
-0.233218

>  <SCORE.RESTR>
0

>  <SCORE.RESTR.CAVITY>
0

>  <SCORE.RESTR.norm>
0

>  <SCORE.SYSTEM>
0

>  <SCORE.SYSTEM.CONST>
0

>  <SCORE.SYSTEM.DIHEDRAL>
0

>  <SCORE.SYSTEM.SOLV>
0

>  <SCORE.SYSTEM.norm>
0

>  <SCORE.heavy>
42

>  <SCORE.norm>
-0.280164

>  <RMSD>
1.137

$$$$
lig.pdb
 OpenBabel11021811513D
libRbt.so/2013.1/901 2013/11/27
 42 45  0  0  0  0  0  0  0  0999 V2000
   -1.2829   16.2478   36.5942 C   0  0  2  0  0  0  0  0  0  0  0  0
   -2.0154   16.8655   37.6983 O   0  0  0  0  0  0  0  0  0  0  0  0
    0.2593   16.5458   36.8640 C   0  0  2  0  0  0  0  0  0  0  0  0
    0.6845   15.9272   38.1227 N   0  0  0  0  0  0  0  0  0  0  0  0
    0.4864   18.1359   36.8623 C   0  0  1  0  0  0  0  0  0  0  0  0
    1.8729   18.4641   37.0917 O   0  0  0  0  0  0  0  0  0  0  0  0
   -0.0029   18.6633   35.5026 C   0  0  2  0  0  0  0  0  0  0  0  0
    0.1768   20.0381   35.4658 O   0  0  0  0  0  0  0  0  0  0  0  0
   -1.5393   18.2839   35.2931 C   0  0  2  0  0  0  0  0  0  0  0  0
   -1.7344   16.8647   35.3295 O   0  0  0  0  0  0  0  0  0  0  0  0
   -2.0623   18.7611   33.9679 C   0  0  0  0  0  0  0  0  0  0  0  0
   -1.5591   17.8807   32.9622 O   0  0  0  0  0  0  0  0  0  0  0  0
   -6.1772   16.3043   39.1602 C   0  0  2  0  0  0  0  0  0  0  0  0
   -7.6175   16.3998   39.2579 N   0  0  0  0  0  0  0  0  0  0  0  0
   -5.5367   17.7458   39.1376 C   0  0  0  0  0  0  0  0  0  0  0  0
   -3.9732   17.6698   39.0274 C   0  0  2  0  0  0  0  0  0  0  0  0
   -3.4211   19.0227   39.0023 N   0  0  0  0  0  0  0  0  0  0  0  0
   -3.4922   16.8965   37.7201 C   0  0  2  0  0  0  0  0  0  0  0  0
   -4.1009   15.4654   37.7753 C   0  0  2  0  0  0  0  0  0  0  0  0
   -3.5926   14.8021   36.5166 O   0  0  0  0  0  0  0  0  0  0  0  0
   -5.7251   15.5506   37.8216 C   0  0  1  0  0  0  0  0  0  0  0  0
   -6.4081   14.2608   37.9311 O   0  0  0  0  0  0  0  0  0  0  0  0
   -3.5762   13.4379   36.6425 C   0  0  1  0  0  0  0  0  0  0  0  0
   -2.8555   12.7680   35.5548 C   0  0  2  0  0  0  0  0  0  0  0  0
   -3.6499   12.8536   34.4154 O   0  0  0  0  0  0  0  0  0  0  0  0
   -2.5640   11.3923   36.1916 C   0  0  2  0  0  0  0  0  0  0  0  0
   -3.2232   10.4037   35.3685 O   0  0  0  0  0  0  0  0  0  0  0  0
   -3.1460   11.4741   37.5643 C   0  0  2  0  0  0  0  0  0  0  0  0
   -2.9136   12.9119   37.7805 O   0  0  0  0  0  0  0  0  0  0  0  0
   -2.3211   10.6259   38.6009 C   0  0  0  0  0  0  0  0  0  0  0  0
   -0.9616   11.1141   38.8071 O   0  0  0  0  0  0  0  0  0  0  0  0
   -2.7696    9.0228   35.5041 C   0  0  2  0  0  0  0  0  0  0  0  0
   -3.5514    8.1167   34.4169 C   0  0  2  0  0  0  0  0  0  0  0  0
   -5.0280    8.2396   34.6435 N   0  0  0  0  0  0  0  0  0  0  0  0
   -3.0436    6.5992   34.5703 C   0  0  1  0  0  0  0  0  0  0  0  0
   -1.6021    6.5986   34.3388 O   0  0  0  0  0  0  0  0  0  0  0  0
   -3.3904    6.0692   36.0343 C   0  0  2  0  0  0  0  0  0  0  0  0
   -4.8623    6.0864   36.1866 O   0  0  0  0  0  0  0  0  0  0  0  0
   -2.6381    7.0325   37.1152 C   0  0  1  0  0  0  0  0  0  0  0  0
   -3.0734    8.4616   36.9084 O   0  0  0  0  0  0  0  0  0  0  0  0
   -2.9711    6.5510   38.5663 C   0  0  0  0  0  0  0  0  0  0  0  0
   -2.1277    5.3951   39.0021 N   0  0  0  0  0  0  0  0  0  0  0  0
  1  3  1  0  0  0  0
  1  2  1  1  0  0  0
  3  4  1  1  0  0  0
  3  5  1  0  0  0  0
  5  6  1  6  0  0  0
  7  8  1  1  0  0  0
  7  5  1  0  0  0  0
  9 11  1  6  0  0  0
  9  7  1  0  0  0  0
 10  9  1  0  0  0  0
 10  1  1  0  0  0  0
 12 11  1  0  0  0  0
 13 14  1  6  0  0  0
 15 13  1  0  0  0  0
 16 17  1  6  0  0  0
 16 15  1  0  0  0  0
 18  2  1  1  0  0  0
 18 19  1  0  0  0  0
 18 16  1  0  0  0  0
 19 20  1  6  0  0  0
 19 21  1  0  0  0  0
 21 22  1  1  0  0  0
 21 13  1  0  0  0  0
 23 20  1  6  0  0  0
 23 29  1  0  0  0  0
 24 25  1  6  0  0  0
 24 26  1  0  0  0  0
 24 23  1  0  0  0  0
 26 27  1  6  0  0  0
 26 28  1  0  0  0  0
 28 30  1  1  0  0  0
 29 28  1  0  0  0  0
 30 31  1  0  0  0  0
 32 27  1  1  0  0  0
 32 40  1  0  0  0  0
 33 35  1  0  0  0  0
 33 32  1  0  0  0  0
 33 34  1  1  0  0  0
 35 36  1  1  0  0  0
 35 37  1  0  0  0  0
 37 38  1  1  0  0  0
 37 39  1  0  0  0  0
 39 41  1  1  0  0  0
 40 39  1  0  0  0  0
 41 42  1  0  0  0  0
M  END
>  <CHROM.1>
174.44470316,75.99917110,-178.43782749,156.08985028,-168.94411270,161.43765641
64.64600957,-175.49835646,81.18788398,-2.76802205,13.37831451,36.72349782
-1.42985032,-0.53816718,-3.03057138

>  <Name>
lig.pdb

>  <RI>
0

>  <Rbt.Current_Directory>
/home/itssahil/PROJECTS/Mol_Feturizer/New_Systems/rnas/4wcr

>  <Rbt.Executable>
rbdock ($Id: //depot/dev/client3/rdock/2013.1/src/exe/rbdock.cxx#4 $)

>  <Rbt.Library>
libRbt.so (2013.1, Build901 2013/11/27)

>  <Rbt.Parameter_File>
/export/apps/rDock/src/rDock_2013.1_src/data/scripts/dock_solv.prm

>  <Rbt.Receptor>
prm/pocket_docking_2.prm

>  <SCORE>
-5.40884

>  <SCORE.INTER>
1.38723

>  <SCORE.INTER.CONST>
1

>  <SCORE.INTER.POLAR>
0

>  <SCORE.INTER.ROT>
9

>  <SCORE.INTER.SOLV>
19.1253

>  <SCORE.INTER.VDW>
-15.0503

>  <SCORE.INTER.norm>
0.0330294

>  <SCORE.INTRA>
-7.42414

>  <SCORE.INTRA.DIHEDRAL>
-8.51012

>  <SCORE.INTRA.DIHEDRAL.0>
16.2863

>  <SCORE.INTRA.POLAR>
0

>  <SCORE.INTRA.POLAR.0>
0

>  <SCORE.INTRA.REPUL>
-0.314433

>  <SCORE.INTRA.REPUL.0>
0.314433

>  <SCORE.INTRA.SOLV>
-5.82362

>  <SCORE.INTRA.SOLV.lig_0>
-103.824

>  <SCORE.INTRA.VDW>
1.31489

>  <SCORE.INTRA.VDW.0>
-5.30945

>  <SCORE.INTRA.norm>
-0.176765

>  <SCORE.RESTR>
0.628069

>  <SCORE.RESTR.CAVITY>
0.628069

>  <SCORE.RESTR.norm>
0.014954

>  <SCORE.SYSTEM>
0

>  <SCORE.SYSTEM.CONST>
0

>  <SCORE.SYSTEM.DIHEDRAL>
0

>  <SCORE.SYSTEM.SOLV>
0

>  <SCORE.SYSTEM.norm>
0

>  <SCORE.heavy>
42

>  <SCORE.norm>
-0.128782

>  <RMSD>
1.190

$$$$
lig.pdb
 OpenBabel11021811513D
libRbt.so/2013.1/901 2013/11/27
 42 45  0  0  0  0  0  0  0  0999 V2000
   -1.0308   17.1293   35.7226 C   0  0  2  0  0  0  0  0  0  0  0  0
   -1.7944   17.6216   36.8679 O   0  0  0  0  0  0  0  0  0  0  0  0
    0.5055   17.3380   36.0916 C   0  0  2  0  0  0  0  0  0  0  0  0
    0.8569   16.5464   37.2738 N   0  0  0  0  0  0  0  0  0  0  0  0
    0.7764   18.9062   36.3088 C   0  0  1  0  0  0  0  0  0  0  0  0
    2.1599   19.1553   36.6354 O   0  0  0  0  0  0  0  0  0  0  0  0
    0.3630   19.6227   35.0118 C   0  0  2  0  0  0  0  0  0  0  0  0
    0.5822   20.9837   35.1640 O   0  0  0  0  0  0  0  0  0  0  0  0
   -1.1725   19.3253   34.6920 C   0  0  2  0  0  0  0  0  0  0  0  0
   -1.4082   17.9207   34.5331 O   0  0  0  0  0  0  0  0  0  0  0  0
   -1.6225   19.9886   33.4213 C   0  0  0  0  0  0  0  0  0  0  0  0
   -3.0503   20.0163   33.4303 O   0  0  0  0  0  0  0  0  0  0  0  0
   -5.8059   16.7772   38.5905 C   0  0  2  0  0  0  0  0  0  0  0  0
   -7.2429   16.6865   38.7312 N   0  0  0  0  0  0  0  0  0  0  0  0
   -5.3836   18.2620   38.2655 C   0  0  0  0  0  0  0  0  0  0  0  0
   -3.8277   18.3864   38.1035 C   0  0  2  0  0  0  0  0  0  0  0  0
   -3.4800   19.7723   37.7968 N   0  0  0  0  0  0  0  0  0  0  0  0
   -3.2593   17.4484   36.9479 C   0  0  2  0  0  0  0  0  0  0  0  0
   -3.6510   15.9845   37.3016 C   0  0  2  0  0  0  0  0  0  0  0  0
   -3.0710   15.1666   36.1715 O   0  0  0  0  0  0  0  0  0  0  0  0
   -5.2693   15.8480   37.4018 C   0  0  1  0  0  0  0  0  0  0  0  0
   -5.7545   14.5214   37.7850 O   0  0  0  0  0  0  0  0  0  0  0  0
   -3.0745   13.8293   36.4697 C   0  0  1  0  0  0  0  0  0  0  0  0
   -2.5368   12.9971   35.3883 C   0  0  2  0  0  0  0  0  0  0  0  0
   -3.4843   12.9767   34.3692 O   0  0  0  0  0  0  0  0  0  0  0  0
   -2.1950   11.6993   36.1512 C   0  0  2  0  0  0  0  0  0  0  0  0
   -2.9931   10.6473   35.5631 O   0  0  0  0  0  0  0  0  0  0  0  0
   -2.5707   11.9778   37.5693 C   0  0  2  0  0  0  0  0  0  0  0  0
   -2.2699   13.4191   37.5627 O   0  0  0  0  0  0  0  0  0  0  0  0
   -1.6291   11.2281   38.5820 C   0  0  0  0  0  0  0  0  0  0  0  0
   -2.0345   11.3736   39.9761 O   0  0  0  0  0  0  0  0  0  0  0  0
   -2.5871    9.2739   35.8458 C   0  0  2  0  0  0  0  0  0  0  0  0
   -3.4863    8.2771   34.9448 C   0  0  2  0  0  0  0  0  0  0  0  0
   -4.9349    8.5021   35.2573 N   0  0  0  0  0  0  0  0  0  0  0  0
   -3.0306    6.7679   35.2591 C   0  0  1  0  0  0  0  0  0  0  0  0
   -1.6124    6.6651   34.9281 O   0  0  0  0  0  0  0  0  0  0  0  0
   -3.2853    6.4471   36.8008 C   0  0  2  0  0  0  0  0  0  0  0  0
   -4.7393    6.5577   37.0534 O   0  0  0  0  0  0  0  0  0  0  0  0
   -2.4136    7.5012   37.6902 C   0  0  1  0  0  0  0  0  0  0  0  0
   -2.8049    8.9124   37.3294 O   0  0  0  0  0  0  0  0  0  0  0  0
   -2.6536    7.2261   39.2118 C   0  0  0  0  0  0  0  0  0  0  0  0
   -2.0648    5.9285   39.6668 N   0  0  0  0  0  0  0  0  0  0  0  0
  1  3  1  0  0  0  0
  1  2  1  1  0  0  0
  3  4  1  1  0  0  0
  3  5  1  0  0  0  0
  5  6  1  6  0  0  0
  7  8  1  1  0  0  0
  7  5  1  0  0  0  0
  9 11  1  6  0  0  0
  9  7  1  0  0  0  0
 10  9  1  0  0  0  0
 10  1  1  0  0  0  0
 12 11  1  0  0  0  0
 13 14  1  6  0  0  0
 15 13  1  0  0  0  0
 16 17  1  6  0  0  0
 16 15  1  0  0  0  0
 18  2  1  1  0  0  0
 18 19  1  0  0  0  0
 18 16  1  0  0  0  0
 19 20  1  6  0  0  0
 19 21  1  0  0  0  0
 21 22  1  1  0  0  0
 21 13  1  0  0  0  0
 23 20  1  6  0  0  0
 23 29  1  0  0  0  0
 24 25  1  6  0  0  0
 24 26  1  0  0  0  0
 24 23  1  0  0  0  0
 26 27  1  6  0  0  0
 26 28  1  0  0  0  0
 28 30  1  1  0  0  0
 29 28  1  0  0  0  0
 30 31  1  0  0  0  0
 32 27  1  1  0  0  0
 32 40  1  0  0  0  0
 33 35  1  0  0  0  0
 33 32  1  0  0  0  0
 33 34  1  1  0  0  0
 35 36  1  1  0  0  0
 35 37  1  0  0  0  0
 37 38  1  1  0  0  0
 37 39  1  0  0  0  0
 39 41  1  1  0  0  0
 40 39  1  0  0  0  0
 41 42  1  0  0  0  0
M  END
>  <CHROM.1>
-173.02344602,-162.64036838,-166.14343849,166.89919421,179.14302166,163.25903726
-174.71308543,-172.72206959,68.79965268,-2.56073915,13.94466359,36.60410149
-1.42690284,-0.43897695,3.11174269

>  <Name>
lig.pdb

>  <RI>
0

>  <Rbt.Current_Directory>
/home/itssahil/PROJECTS/Mol_Feturizer/New_Systems/rnas/4wcr

>  <Rbt.Executable>
rbdock ($Id: //depot/dev/client3/rdock/2013.1/src/exe/rbdock.cxx#4 $)

>  <Rbt.Library>
libRbt.so (2013.1, Build901 2013/11/27)

>  <Rbt.Parameter_File>
/export/apps/rDock/src/rDock_2013.1_src/data/scripts/dock_solv.prm

>  <Rbt.Receptor>
prm/pocket_docking_2.prm

>  <SCORE>
-10.9672

>  <SCORE.INTER>
-1.68101

>  <SCORE.INTER.CONST>
1

>  <SCORE.INTER.POLAR>
0

>  <SCORE.INTER.ROT>
9

>  <SCORE.INTER.SOLV>
22.5908

>  <SCORE.INTER.VDW>
-18.2509

>  <SCORE.INTER.norm>
-0.040024

>  <SCORE.INTRA>
-9.30498

>  <SCORE.INTRA.DIHEDRAL>
-10.8964

>  <SCORE.INTRA.DIHEDRAL.0>
16.2863

>  <SCORE.INTRA.POLAR>
0

>  <SCORE.INTRA.POLAR.0>
0

>  <SCORE.INTRA.REPUL>
-0.314433

>  <SCORE.INTRA.REPUL.0>
0.314433

>  <SCORE.INTRA.SOLV>
-5.94556

>  <SCORE.INTRA.SOLV.lig_0>
-103.824

>  <SCORE.INTRA.VDW>
0.688138

>  <SCORE.INTRA.VDW.0>
-5.30945

>  <SCORE.INTRA.norm>
-0.221547

>  <SCORE.RESTR>
0.0187574

>  <SCORE.RESTR.CAVITY>
0.0187574

>  <SCORE.RESTR.norm>
0.000446605

>  <SCORE.SYSTEM>
0

>  <SCORE.SYSTEM.CONST>
0

>  <SCORE.SYSTEM.DIHEDRAL>
0

>  <SCORE.SYSTEM.SOLV>
0

>  <SCORE.SYSTEM.norm>
0

>  <SCORE.heavy>
42

>  <SCORE.norm>
-0.261125

>  <RMSD>
1.192

$$$$
lig.pdb
 OpenBabel11021811513D
libRbt.so/2013.1/901 2013/11/27
 42 45  0  0  0  0  0  0  0  0999 V2000
   -0.8898   16.6950   35.9058 C   0  0  2  0  0  0  0  0  0  0  0  0
   -1.7325   17.2338   36.9719 O   0  0  0  0  0  0  0  0  0  0  0  0
    0.6125   17.0381   36.3123 C   0  0  2  0  0  0  0  0  0  0  0  0
    0.9614   16.3792   37.5740 N   0  0  0  0  0  0  0  0  0  0  0  0
    0.7735   18.6339   36.3963 C   0  0  1  0  0  0  0  0  0  0  0  0
    2.1227   19.0032   36.7512 O   0  0  0  0  0  0  0  0  0  0  0  0
    0.3726   19.2040   35.0249 C   0  0  2  0  0  0  0  0  0  0  0  0
    0.4980   20.5848   35.0611 O   0  0  0  0  0  0  0  0  0  0  0  0
   -1.1254   18.7770   34.6754 C   0  0  2  0  0  0  0  0  0  0  0  0
   -1.2643   17.3513   34.6358 O   0  0  0  0  0  0  0  0  0  0  0  0
   -1.5605   19.2941   33.3336 C   0  0  0  0  0  0  0  0  0  0  0  0
   -2.9265   18.9205   33.1486 O   0  0  0  0  0  0  0  0  0  0  0  0
   -5.7430   16.0938   38.5176 C   0  0  2  0  0  0  0  0  0  0  0  0
   -7.1774   15.9301   38.6109 N   0  0  0  0  0  0  0  0  0  0  0  0
   -5.3814   17.6150   38.3083 C   0  0  0  0  0  0  0  0  0  0  0  0
   -3.8293   17.8191   38.1995 C   0  0  2  0  0  0  0  0  0  0  0  0
   -3.5382   19.2372   37.9995 N   0  0  0  0  0  0  0  0  0  0  0  0
   -3.1894   16.9909   36.9982 C   0  0  2  0  0  0  0  0  0  0  0  0
   -3.5222   15.4899   37.2384 C   0  0  2  0  0  0  0  0  0  0  0  0
   -2.8768   14.7801   36.0711 O   0  0  0  0  0  0  0  0  0  0  0  0
   -5.1345   15.2753   37.2830 C   0  0  1  0  0  0  0  0  0  0  0  0
   -5.5676   13.9049   37.5594 O   0  0  0  0  0  0  0  0  0  0  0  0
   -2.8441   13.4244   36.2670 C   0  0  1  0  0  0  0  0  0  0  0  0
   -2.3015   12.6900   35.1192 C   0  0  2  0  0  0  0  0  0  0  0  0
   -3.2622   12.7230   34.1129 O   0  0  0  0  0  0  0  0  0  0  0  0
   -1.9181   11.3472   35.7773 C   0  0  2  0  0  0  0  0  0  0  0  0
   -2.6987   10.3230   35.1205 O   0  0  0  0  0  0  0  0  0  0  0  0
   -2.2809   11.5083   37.2168 C   0  0  2  0  0  0  0  0  0  0  0  0
   -2.0149   12.9530   37.3161 O   0  0  0  0  0  0  0  0  0  0  0  0
   -1.3077   10.7079   38.1584 C   0  0  0  0  0  0  0  0  0  0  0  0
    0.0865   11.1243   38.0494 O   0  0  0  0  0  0  0  0  0  0  0  0
   -2.3870    8.9373   35.4576 C   0  0  2  0  0  0  0  0  0  0  0  0
   -3.2005    7.9687   34.4505 C   0  0  2  0  0  0  0  0  0  0  0  0
   -4.6674    8.2519   34.5718 N   0  0  0  0  0  0  0  0  0  0  0  0
   -2.8489    6.4457   34.8258 C   0  0  1  0  0  0  0  0  0  0  0  0
   -1.4049    6.2856   34.6818 O   0  0  0  0  0  0  0  0  0  0  0  0
   -3.3135    6.1473   36.3223 C   0  0  2  0  0  0  0  0  0  0  0  0
   -4.7825    6.3160   36.3838 O   0  0  0  0  0  0  0  0  0  0  0  0
   -2.5236    7.1741   37.3141 C   0  0  1  0  0  0  0  0  0  0  0  0
   -2.8091    8.5964   36.9015 O   0  0  0  0  0  0  0  0  0  0  0  0
   -2.9692    6.9207   38.7926 C   0  0  0  0  0  0  0  0  0  0  0  0
   -2.2024    7.7432   39.7788 N   0  0  0  0  0  0  0  0  0  0  0  0
  1  3  1  0  0  0  0
  1  2  1  1  0  0  0
  3  4  1  1  0  0  0
  3  5  1  0  0  0  0
  5  6  1  6  0  0  0
  7  8  1  1  0  0  0
  7  5  1  0  0  0  0
  9 11  1  6  0  0  0
  9  7  1  0  0  0  0
 10  9  1  0  0  0  0
 10  1  1  0  0  0  0
 12 11  1  0  0  0  0
 13 14  1  6  0  0  0
 15 13  1  0  0  0  0
 16 17  1  6  0  0  0
 16 15  1  0  0  0  0
 18  2  1  1  0  0  0
 18 19  1  0  0  0  0
 18 16  1  0  0  0  0
 19 20  1  6  0  0  0
 19 21  1  0  0  0  0
 21 22  1  1  0  0  0
 21 13  1  0  0  0  0
 23 20  1  6  0  0  0
 23 29  1  0  0  0  0
 24 25  1  6  0  0  0
 24 26  1  0  0  0  0
 24 23  1  0  0  0  0
 26 27  1  6  0  0  0
 26 28  1  0  0  0  0
 28 30  1  1  0  0  0
 29 28  1  0  0  0  0
 30 31  1  0  0  0  0
 32 27  1  6  0  0  0
 32 40  1  0  0  0  0
 33 35  1  0  0  0  0
 33 32  1  0  0  0  0
 33 34  1  1  0  0  0
 35 36  1  1  0  0  0
 35 37  1  0  0  0  0
 37 38  1  6  0  0  0
 37 39  1  0  0  0  0
 39 41  1  1  0  0  0
 40 39  1  0  0  0  0
 41 42  1  0  0  0  0
M  END
>  <CHROM.1>
-174.15494499,-177.01437350,-174.76139036,167.79385424,176.37634921,172.51871999
60.19886225,-171.10130418,175.04450933,-2.40670474,13.56833365,36.39035196
-1.42009105,-0.40782258,-3.11686362

>  <Name>
lig.pdb

>  <RI>
0

>  <Rbt.Current_Directory>
/home/itssahil/PROJECTS/Mol_Feturizer/New_Systems/rnas/4wcr

>  <Rbt.Executable>
rbdock ($Id: //depot/dev/client3/rdock/2013.1/src/exe/rbdock.cxx#4 $)

>  <Rbt.Library>
libRbt.so (2013.1, Build901 2013/11/27)

>  <Rbt.Parameter_File>
/export/apps/rDock/src/rDock_2013.1_src/data/scripts/dock_solv.prm

>  <Rbt.Receptor>
prm/pocket_docking_3.prm

>  <SCORE>
-12.4262

>  <SCORE.INTER>
-2.27928

>  <SCORE.INTER.CONST>
1

>  <SCORE.INTER.POLAR>
0

>  <SCORE.INTER.ROT>
9

>  <SCORE.INTER.SOLV>
19.6355

>  <SCORE.INTER.VDW>
-17.6647

>  <SCORE.INTER.norm>
-0.0542686

>  <SCORE.INTRA>
-10.1469

>  <SCORE.INTRA.DIHEDRAL>
-13.8882

>  <SCORE.INTRA.DIHEDRAL.0>
16.2863

>  <SCORE.INTRA.POLAR>
0

>  <SCORE.INTRA.POLAR.0>
0

>  <SCORE.INTRA.REPUL>
-0.314433

>  <SCORE.INTRA.REPUL.0>
0.314433

>  <SCORE.INTRA.SOLV>
-5.26487

>  <SCORE.INTRA.SOLV.lig_0>
-103.824

>  <SCORE.INTRA.VDW>
1.00183

>  <SCORE.INTRA.VDW.0>
-5.30945

>  <SCORE.INTRA.norm>
-0.241593

>  <SCORE.RESTR>
0

>  <SCORE.RESTR.CAVITY>
0

>  <SCORE.RESTR.norm>
0

>  <SCORE.SYSTEM>
0

>  <SCORE.SYSTEM.CONST>
0

>  <SCORE.SYSTEM.DIHEDRAL>
0

>  <SCORE.SYSTEM.SOLV>
0

>  <SCORE.SYSTEM.norm>
0

>  <SCORE.heavy>
42

>  <SCORE.norm>
-0.295861

>  <RMSD>
1.199

$$$$
lig.pdb
 OpenBabel11021811513D
libRbt.so/2013.1/901 2013/11/27
 42 45  0  0  0  0  0  0  0  0999 V2000
   -0.8909   16.7786   35.8301 C   0  0  2  0  0  0  0  0  0  0  0  0
   -1.7178   17.3041   36.9151 O   0  0  0  0  0  0  0  0  0  0  0  0
    0.6157   17.1343   36.2092 C   0  0  2  0  0  0  0  0  0  0  0  0
    0.9953   16.4727   37.4606 N   0  0  0  0  0  0  0  0  0  0  0  0
    0.7630   18.7312   36.2981 C   0  0  1  0  0  0  0  0  0  0  0  0
    2.1152   19.1118   36.6287 O   0  0  0  0  0  0  0  0  0  0  0  0
    0.3301   19.3040   34.9376 C   0  0  2  0  0  0  0  0  0  0  0  0
    0.4429   20.6857   34.9784 O   0  0  0  0  0  0  0  0  0  0  0  0
   -1.1702   18.8643   34.6151 C   0  0  2  0  0  0  0  0  0  0  0  0
   -1.2962   17.4375   34.5710 O   0  0  0  0  0  0  0  0  0  0  0  0
   -1.6363   19.3836   33.2846 C   0  0  0  0  0  0  0  0  0  0  0  0
   -3.0019   18.9977   33.1242 O   0  0  0  0  0  0  0  0  0  0  0  0
   -5.7381   16.2589   38.5016 C   0  0  2  0  0  0  0  0  0  0  0  0
   -7.1740   16.1121   38.6009 N   0  0  0  0  0  0  0  0  0  0  0  0
   -5.3626   17.7680   38.2366 C   0  0  0  0  0  0  0  0  0  0  0  0
   -3.8087   17.9536   38.1203 C   0  0  2  0  0  0  0  0  0  0  0  0
   -3.5045   19.3606   37.8683 N   0  0  0  0  0  0  0  0  0  0  0  0
   -3.1769   17.0759   36.9503 C   0  0  2  0  0  0  0  0  0  0  0  0
   -3.5235   15.5878   37.2455 C   0  0  2  0  0  0  0  0  0  0  0  0
   -2.8852   14.8297   36.1051 O   0  0  0  0  0  0  0  0  0  0  0  0
   -5.1377   15.3900   37.2980 C   0  0  1  0  0  0  0  0  0  0  0  0
   -5.5834   14.0347   37.6246 O   0  0  0  0  0  0  0  0  0  0  0  0
   -2.8638   13.4820   36.3512 C   0  0  1  0  0  0  0  0  0  0  0  0
   -2.3489   12.6989   35.2231 C   0  0  2  0  0  0  0  0  0  0  0  0
   -3.3262   12.7053   34.2323 O   0  0  0  0  0  0  0  0  0  0  0  0
   -1.9689   11.3774   35.9247 C   0  0  2  0  0  0  0  0  0  0  0  0
   -2.7717   10.3384   35.3200 O   0  0  0  0  0  0  0  0  0  0  0  0
   -2.3053   11.5963   37.3629 C   0  0  2  0  0  0  0  0  0  0  0  0
   -2.0220   13.0406   37.4034 O   0  0  0  0  0  0  0  0  0  0  0  0
   -1.3249   10.8206   38.3176 C   0  0  0  0  0  0  0  0  0  0  0  0
    0.0755   11.1930   38.1467 O   0  0  0  0  0  0  0  0  0  0  0  0
   -2.4475    8.9608   35.6781 C   0  0  2  0  0  0  0  0  0  0  0  0
   -3.3099    7.9692   34.7362 C   0  0  2  0  0  0  0  0  0  0  0  0
   -4.7687    8.2606   34.9192 N   0  0  0  0  0  0  0  0  0  0  0  0
   -2.9445    6.4553   35.1341 C   0  0  1  0  0  0  0  0  0  0  0  0
   -1.5092    6.2864   34.9264 O   0  0  0  0  0  0  0  0  0  0  0  0
   -3.3384    6.1975   36.6582 C   0  0  2  0  0  0  0  0  0  0  0  0
   -4.8024    6.3729   36.7846 O   0  0  0  0  0  0  0  0  0  0  0  0
   -2.5001    7.2470   37.5845 C   0  0  1  0  0  0  0  0  0  0  0  0
   -2.8016    8.6591   37.1487 O   0  0  0  0  0  0  0  0  0  0  0  0
   -2.8759    7.0337   39.0884 C   0  0  0  0  0  0  0  0  0  0  0  0
   -2.0224    7.8354   40.0191 N   0  0  0  0  0  0  0  0  0  0  0  0
  1  3  1  0  0  0  0
  1  2  1  1  0  0  0
  3  4  1  1  0  0  0
  3  5  1  0  0  0  0
  5  6  1  6  0  0  0
  7  8  1  1  0  0  0
  7  5  1  0  0  0  0
  9 11  1  6  0  0  0
  9  7  1  0  0  0  0
 10  9  1  0  0  0  0
 10  1  1  0  0  0  0
 12 11  1  0  0  0  0
 13 14  1  6  0  0  0
 15 13  1  0  0  0  0
 16 17  1  6  0  0  0
 16 15  1  0  0  0  0
 18  2  1  1  0  0  0
 18 19  1  0  0  0  0
 18 16  1  0  0  0  0
 19 20  1  6  0  0  0
 19 21  1  0  0  0  0
 21 22  1  1  0  0  0
 21 13  1  0  0  0  0
 23 20  1  6  0  0  0
 23 29  1  0  0  0  0
 24 25  1  6  0  0  0
 24 26  1  0  0  0  0
 24 23  1  0  0  0  0
 26 27  1  6  0  0  0
 26 28  1  0  0  0  0
 28 30  1  1  0  0  0
 29 28  1  0  0  0  0
 30 31  1  0  0  0  0
 32 27  1  6  0  0  0
 32 40  1  0  0  0  0
 33 35  1  0  0  0  0
 33 32  1  0  0  0  0
 33 34  1  1  0  0  0
 35 36  1  1  0  0  0
 35 37  1  0  0  0  0
 37 38  1  6  0  0  0
 37 39  1  0  0  0  0
 39 41  1  1  0  0  0
 40 39  1  0  0  0  0
 41 42  1  0  0  0  0
M  END
>  <CHROM.1>
-175.72212120,-177.01682439,-171.43159497,167.73684906,175.43598216,171.03707868
58.76773101,-171.82590239,172.60792340,-2.42509826,13.64562947,36.46622537
-1.42323088,-0.37702797,3.12730522

>  <Name>
lig.pdb

>  <RI>
0

>  <Rbt.Current_Directory>
/home/itssahil/PROJECTS/Mol_Feturizer/New_Systems/rnas/4wcr

>  <Rbt.Executable>
rbdock ($Id: //depot/dev/client3/rdock/2013.1/src/exe/rbdock.cxx#4 $)

>  <Rbt.Library>
libRbt.so (2013.1, Build901 2013/11/27)

>  <Rbt.Parameter_File>
/export/apps/rDock/src/rDock_2013.1_src/data/scripts/dock_solv.prm

>  <Rbt.Receptor>
prm/pocket_docking_3.prm

>  <SCORE>
-12.4742

>  <SCORE.INTER>
-2.4146

>  <SCORE.INTER.CONST>
1

>  <SCORE.INTER.POLAR>
0

>  <SCORE.INTER.ROT>
9

>  <SCORE.INTER.SOLV>
20.3227

>  <SCORE.INTER.VDW>
-17.984

>  <SCORE.INTER.norm>
-0.0574904

>  <SCORE.INTRA>
-10.0596

>  <SCORE.INTRA.DIHEDRAL>
-13.5284

>  <SCORE.INTRA.DIHEDRAL.0>
16.2863

>  <SCORE.INTRA.POLAR>
0

>  <SCORE.INTRA.POLAR.0>
0

>  <SCORE.INTRA.REPUL>
-0.314433

>  <SCORE.INTRA.REPUL.0>
0.314433

>  <SCORE.INTRA.SOLV>
-5.26078

>  <SCORE.INTRA.SOLV.lig_0>
-103.824

>  <SCORE.INTRA.VDW>
0.907136

>  <SCORE.INTRA.VDW.0>
-5.30945

>  <SCORE.INTRA.norm>
-0.239515

>  <SCORE.RESTR>
0

>  <SCORE.RESTR.CAVITY>
0

>  <SCORE.RESTR.norm>
0

>  <SCORE.SYSTEM>
0

>  <SCORE.SYSTEM.CONST>
0

>  <SCORE.SYSTEM.DIHEDRAL>
0

>  <SCORE.SYSTEM.SOLV>
0

>  <SCORE.SYSTEM.norm>
0

>  <SCORE.heavy>
42

>  <SCORE.norm>
-0.297005

>  <RMSD>
1.206

$$$$
lig.pdb
 OpenBabel11021811513D
libRbt.so/2013.1/901 2013/11/27
 42 45  0  0  0  0  0  0  0  0999 V2000
   -0.9178   16.8104   35.8405 C   0  0  2  0  0  0  0  0  0  0  0  0
   -1.7373   17.3501   36.9242 O   0  0  0  0  0  0  0  0  0  0  0  0
    0.5925   17.1590   36.2113 C   0  0  2  0  0  0  0  0  0  0  0  0
    0.9723   16.5050   37.4666 N   0  0  0  0  0  0  0  0  0  0  0  0
    0.7508   18.7556   36.2868 C   0  0  1  0  0  0  0  0  0  0  0  0
    2.1067   19.1298   36.6095 O   0  0  0  0  0  0  0  0  0  0  0  0
    0.3167   19.3203   34.9233 C   0  0  2  0  0  0  0  0  0  0  0  0
    0.4388   20.7015   34.9525 O   0  0  0  0  0  0  0  0  0  0  0  0
   -1.1877   18.8880   34.6098 C   0  0  2  0  0  0  0  0  0  0  0  0
   -1.3233   17.4618   34.5776 O   0  0  0  0  0  0  0  0  0  0  0  0
   -1.6552   19.3997   33.2768 C   0  0  0  0  0  0  0  0  0  0  0  0
   -3.0120   18.9876   33.1072 O   0  0  0  0  0  0  0  0  0  0  0  0
   -5.7629   16.3454   38.5234 C   0  0  2  0  0  0  0  0  0  0  0  0
   -7.1998   16.2126   38.6270 N   0  0  0  0  0  0  0  0  0  0  0  0
   -5.3734   17.8506   38.2559 C   0  0  0  0  0  0  0  0  0  0  0  0
   -3.8182   18.0209   38.1350 C   0  0  2  0  0  0  0  0  0  0  0  0
   -3.5010   19.4247   37.8809 N   0  0  0  0  0  0  0  0  0  0  0  0
   -3.1984   17.1361   36.9639 C   0  0  2  0  0  0  0  0  0  0  0  0
   -3.5586   15.6517   37.2614 C   0  0  2  0  0  0  0  0  0  0  0  0
   -2.9310   14.8864   36.1198 O   0  0  0  0  0  0  0  0  0  0  0  0
   -5.1745   15.4697   37.3188 C   0  0  1  0  0  0  0  0  0  0  0  0
   -5.6324   14.1191   37.6479 O   0  0  0  0  0  0  0  0  0  0  0  0
   -2.8992   13.5412   36.3780 C   0  0  1  0  0  0  0  0  0  0  0  0
   -2.3713   12.7528   35.2596 C   0  0  2  0  0  0  0  0  0  0  0  0
   -3.3432   12.7418   34.2636 O   0  0  0  0  0  0  0  0  0  0  0  0
   -1.9836   11.4409   35.9750 C   0  0  2  0  0  0  0  0  0  0  0  0
   -2.7740   10.3896   35.3752 O   0  0  0  0  0  0  0  0  0  0  0  0
   -2.3298   11.6696   37.4094 C   0  0  2  0  0  0  0  0  0  0  0  0
   -2.0593   13.1166   37.4385 O   0  0  0  0  0  0  0  0  0  0  0  0
   -1.3478   10.9110   38.3762 C   0  0  0  0  0  0  0  0  0  0  0  0
    0.0396   11.3483   38.2627 O   0  0  0  0  0  0  0  0  0  0  0  0
   -2.4290    9.0174   35.7344 C   0  0  2  0  0  0  0  0  0  0  0  0
   -3.2475    8.0126   34.7677 C   0  0  2  0  0  0  0  0  0  0  0  0
   -4.7162    8.2720   34.9175 N   0  0  0  0  0  0  0  0  0  0  0  0
   -2.8593    6.5047   35.1671 C   0  0  1  0  0  0  0  0  0  0  0  0
   -1.4163    6.3675   34.9926 O   0  0  0  0  0  0  0  0  0  0  0  0
   -3.2834    6.2307   36.6802 C   0  0  2  0  0  0  0  0  0  0  0  0
   -4.7535    6.3742   36.7727 O   0  0  0  0  0  0  0  0  0  0  0  0
   -2.4899    7.2929   37.6309 C   0  0  1  0  0  0  0  0  0  0  0  0
   -2.8111    8.7005   37.1948 O   0  0  0  0  0  0  0  0  0  0  0  0
   -2.8963    7.0639   39.1245 C   0  0  0  0  0  0  0  0  0  0  0  0
   -2.1430    7.9423   40.0722 N   0  0  0  0  0  0  0  0  0  0  0  0
  1  3  1  0  0  0  0
  1  2  1  1  0  0  0
  3  4  1  1  0  0  0
  3  5  1  0  0  0  0
  5  6  1  6  0  0  0
  7  8  1  1  0  0  0
  7  5  1  0  0  0  0
  9 11  1  6  0  0  0
  9  7  1  0  0  0  0
 10  9  1  0  0  0  0
 10  1  1  0  0  0  0
 12 11  1  0  0  0  0
 13 14  1  6  0  0  0
 15 13  1  0  0  0  0
 16 17  1  6  0  0  0
 16 15  1  0  0  0  0
 18  2  1  1  0  0  0
 18 19  1  0  0  0  0
 18 16  1  0  0  0  0
 19 20  1  6  0  0  0
 19 21  1  0  0  0  0
 21 22  1  1  0  0  0
 21 13  1  0  0  0  0
 23 20  1  6  0  0  0
 23 29  1  0  0  0  0
 24 25  1  6  0  0  0
 24 26  1  0  0  0  0
 24 23  1  0  0  0  0
 26 27  1  6  0  0  0
 26 28  1  0  0  0  0
 28 30  1  1  0  0  0
 29 28  1  0  0  0  0
 30 31  1  0  0  0  0
 32 27  1  6  0  0  0
 32 40  1  0  0  0  0
 33 35  1  0  0  0  0
 33 32  1  0  0  0  0
 33 34  1  1  0  0  0
 35 36  1  1  0  0  0
 35 37  1  0  0  0  0
 37 38  1  6  0  0  0
 37 39  1  0  0  0  0
 39 41  1  1  0  0  0
 40 39  1  0  0  0  0
 41 42  1  0  0  0  0
M  END
>  <CHROM.1>
-175.94965494,-178.70213537,-171.71855442,166.59471912,176.50750666,170.29806405
62.05746894,-170.15073546,176.27606199,-2.43468184,13.69716083,36.48889409
-1.42691561,-0.39312958,3.12516277

>  <Name>
lig.pdb

>  <RI>
0

>  <Rbt.Current_Directory>
/home/itssahil/PROJECTS/Mol_Feturizer/New_Systems/rnas/4wcr

>  <Rbt.Executable>
rbdock ($Id: //depot/dev/client3/rdock/2013.1/src/exe/rbdock.cxx#4 $)

>  <Rbt.Library>
libRbt.so (2013.1, Build901 2013/11/27)

>  <Rbt.Parameter_File>
/export/apps/rDock/src/rDock_2013.1_src/data/scripts/dock_solv.prm

>  <Rbt.Receptor>
prm/pocket_docking_3.prm

>  <SCORE>
-12.4394

>  <SCORE.INTER>
-2.31643

>  <SCORE.INTER.CONST>
1

>  <SCORE.INTER.POLAR>
0

>  <SCORE.INTER.ROT>
9

>  <SCORE.INTER.SOLV>
20.5059

>  <SCORE.INTER.VDW>
-17.9796

>  <SCORE.INTER.norm>
-0.0551531

>  <SCORE.INTRA>
-10.123

>  <SCORE.INTRA.DIHEDRAL>
-13.4398

>  <SCORE.INTRA.DIHEDRAL.0>
16.2863

>  <SCORE.INTRA.POLAR>
0

>  <SCORE.INTRA.POLAR.0>
0

>  <SCORE.INTRA.REPUL>
-0.314433

>  <SCORE.INTRA.REPUL.0>
0.314433

>  <SCORE.INTRA.SOLV>
-5.26334

>  <SCORE.INTRA.SOLV.lig_0>
-103.824

>  <SCORE.INTRA.VDW>
0.800751

>  <SCORE.INTRA.VDW.0>
-5.30945

>  <SCORE.INTRA.norm>
-0.241023

>  <SCORE.RESTR>
0

>  <SCORE.RESTR.CAVITY>
0

>  <SCORE.RESTR.norm>
0

>  <SCORE.SYSTEM>
0

>  <SCORE.SYSTEM.CONST>
0

>  <SCORE.SYSTEM.DIHEDRAL>
0

>  <SCORE.SYSTEM.SOLV>
0

>  <SCORE.SYSTEM.norm>
0

>  <SCORE.heavy>
42

>  <SCORE.norm>
-0.296176

>  <RMSD>
1.211

$$$$
lig.pdb
 OpenBabel11021811513D
libRbt.so/2013.1/901 2013/11/27
 42 45  0  0  0  0  0  0  0  0999 V2000
   -1.1839   16.8711   35.6559 C   0  0  2  0  0  0  0  0  0  0  0  0
   -1.9329   17.3632   36.8109 O   0  0  0  0  0  0  0  0  0  0  0  0
    0.3570   16.9802   36.0478 C   0  0  2  0  0  0  0  0  0  0  0  0
    0.6497   16.1278   37.2034 N   0  0  0  0  0  0  0  0  0  0  0  0
    0.7116   18.5219   36.3256 C   0  0  1  0  0  0  0  0  0  0  0  0
    2.1027   18.6815   36.6752 O   0  0  0  0  0  0  0  0  0  0  0  0
    0.3542   19.3071   35.0520 C   0  0  2  0  0  0  0  0  0  0  0  0
    0.6465   20.6474   35.2567 O   0  0  0  0  0  0  0  0  0  0  0  0
   -1.1914   19.1076   34.7059 C   0  0  2  0  0  0  0  0  0  0  0  0
   -1.5026   17.7251   34.4927 O   0  0  0  0  0  0  0  0  0  0  0  0
   -1.5885   19.8408   33.4562 C   0  0  0  0  0  0  0  0  0  0  0  0
   -3.0124   19.9512   33.4538 O   0  0  0  0  0  0  0  0  0  0  0  0
   -5.9769   16.6465   38.5154 C   0  0  2  0  0  0  0  0  0  0  0  0
   -7.4166   16.6030   38.6503 N   0  0  0  0  0  0  0  0  0  0  0  0
   -5.5044   18.1176   38.1969 C   0  0  0  0  0  0  0  0  0  0  0  0
   -3.9447   18.1909   38.0413 C   0  0  2  0  0  0  0  0  0  0  0  0
   -3.5501   19.5656   37.7405 N   0  0  0  0  0  0  0  0  0  0  0  0
   -3.4030   17.2383   36.8848 C   0  0  2  0  0  0  0  0  0  0  0  0
   -3.8444   15.7871   37.2321 C   0  0  2  0  0  0  0  0  0  0  0  0
   -3.2873   14.9540   36.1015 O   0  0  0  0  0  0  0  0  0  0  0  0
   -5.4667   15.7039   37.3257 C   0  0  1  0  0  0  0  0  0  0  0  0
   -5.9970   14.3928   37.7026 O   0  0  0  0  0  0  0  0  0  0  0  0
   -3.2368   13.6266   36.4369 C   0  0  1  0  0  0  0  0  0  0  0  0
   -2.8259   12.7664   35.3223 C   0  0  2  0  0  0  0  0  0  0  0  0
   -3.8914   12.7061   34.4292 O   0  0  0  0  0  0  0  0  0  0  0  0
   -2.3758   11.4959   36.0748 C   0  0  2  0  0  0  0  0  0  0  0  0
   -3.2268   10.4190   35.6209 O   0  0  0  0  0  0  0  0  0  0  0  0
   -2.5775   11.8144   37.5196 C   0  0  2  0  0  0  0  0  0  0  0  0
   -2.2983   13.2574   37.4337 O   0  0  0  0  0  0  0  0  0  0  0  0
   -1.5085   11.1047   38.4297 C   0  0  0  0  0  0  0  0  0  0  0  0
   -1.5255    9.6493   38.3267 O   0  0  0  0  0  0  0  0  0  0  0  0
   -2.6095    9.1035   35.4821 C   0  0  2  0  0  0  0  0  0  0  0  0
   -3.2654    8.3612   34.2041 C   0  0  2  0  0  0  0  0  0  0  0  0
   -4.7479    8.2598   34.4004 N   0  0  0  0  0  0  0  0  0  0  0  0
   -2.5780    6.9157   34.0561 C   0  0  1  0  0  0  0  0  0  0  0  0
   -1.1451    7.1328   33.8791 O   0  0  0  0  0  0  0  0  0  0  0  0
   -2.8707    6.0525   35.3651 C   0  0  2  0  0  0  0  0  0  0  0  0
   -4.3351    5.8646   35.4670 O   0  0  0  0  0  0  0  0  0  0  0  0
   -2.2511    6.8480   36.6478 C   0  0  1  0  0  0  0  0  0  0  0  0
   -2.8553    8.2276   36.7277 O   0  0  0  0  0  0  0  0  0  0  0  0
   -2.5359    6.0362   37.9548 C   0  0  0  0  0  0  0  0  0  0  0  0
   -3.9930    5.7753   38.1699 N   0  0  0  0  0  0  0  0  0  0  0  0
  1  3  1  0  0  0  0
  1  2  1  1  0  0  0
  3  4  1  1  0  0  0
  3  5  1  0  0  0  0
  5  6  1  6  0  0  0
  7  8  1  1  0  0  0
  7  5  1  0  0  0  0
  9 11  1  6  0  0  0
  9  7  1  0  0  0  0
 10  9  1  0  0  0  0
 10  1  1  0  0  0  0
 12 11  1  0  0  0  0
 13 14  1  6  0  0  0
 15 13  1  0  0  0  0
 16 17  1  6  0  0  0
 16 15  1  0  0  0  0
 18  2  1  1  0  0  0
 18 19  1  0  0  0  0
 18 16  1  0  0  0  0
 19 20  1  6  0  0  0
 19 21  1  0  0  0  0
 21 22  1  1  0  0  0
 21 13  1  0  0  0  0
 23 20  1  6  0  0  0
 23 29  1  0  0  0  0
 24 25  1  6  0  0  0
 24 26  1  0  0  0  0
 24 23  1  0  0  0  0
 26 27  1  6  0  0  0
 26 28  1  0  0  0  0
 28 30  1  1  0  0  0
 29 28  1  0  0  0  0
 30 31  1  0  0  0  0
 32 27  1  1  0  0  0
 32 40  1  0  0  0  0
 33 35  1  0  0  0  0
 33 32  1  0  0  0  0
 33 34  1  1  0  0  0
 35 36  1  1  0  0  0
 35 37  1  0  0  0  0
 37 38  1  1  0  0  0
 37 39  1  0  0  0  0
 39 41  1  1  0  0  0
 40 39  1  0  0  0  0
 41 42  1  0  0  0  0
M  END
>  <CHROM.1>
-171.45928471,-162.47121614,-165.02750201,162.03484615,174.35429141,143.69011057
-59.72448272,-144.12754553,-57.10429508,-2.62186732,13.65665822,36.25893698
-1.44975997,-0.43568740,-3.08927361

>  <Name>
lig.pdb

>  <RI>
0

>  <Rbt.Current_Directory>
/home/itssahil/PROJECTS/Mol_Feturizer/New_Systems/rnas/4wcr

>  <Rbt.Executable>
rbdock ($Id: //depot/dev/client3/rdock/2013.1/src/exe/rbdock.cxx#4 $)

>  <Rbt.Library>
libRbt.so (2013.1, Build901 2013/11/27)

>  <Rbt.Parameter_File>
/export/apps/rDock/src/rDock_2013.1_src/data/scripts/dock_solv.prm

>  <Rbt.Receptor>
prm/pocket_docking_2.prm

>  <SCORE>
-4.23719

>  <SCORE.INTER>
-0.202026

>  <SCORE.INTER.CONST>
1

>  <SCORE.INTER.POLAR>
0

>  <SCORE.INTER.ROT>
9

>  <SCORE.INTER.SOLV>
24.1305

>  <SCORE.INTER.VDW>
-17.7782

>  <SCORE.INTER.norm>
-0.00481015

>  <SCORE.INTRA>
-4.05565

>  <SCORE.INTRA.DIHEDRAL>
-2.30523

>  <SCORE.INTRA.DIHEDRAL.0>
16.2863

>  <SCORE.INTRA.POLAR>
0

>  <SCORE.INTRA.POLAR.0>
0

>  <SCORE.INTRA.REPUL>
-0.314433

>  <SCORE.INTRA.REPUL.0>
0.314433

>  <SCORE.INTRA.SOLV>
-3.44792

>  <SCORE.INTRA.SOLV.lig_0>
-103.824

>  <SCORE.INTRA.VDW>
0.393088

>  <SCORE.INTRA.VDW.0>
-5.30945

>  <SCORE.INTRA.norm>
-0.0965631

>  <SCORE.RESTR>
0.0204882

>  <SCORE.RESTR.CAVITY>
0.0204882

>  <SCORE.RESTR.norm>
0.000487815

>  <SCORE.SYSTEM>
0

>  <SCORE.SYSTEM.CONST>
0

>  <SCORE.SYSTEM.DIHEDRAL>
0

>  <SCORE.SYSTEM.SOLV>
0

>  <SCORE.SYSTEM.norm>
0

>  <SCORE.heavy>
42

>  <SCORE.norm>
-0.100885

>  <RMSD>
1.249

$$$$
lig.pdb
 OpenBabel11021811513D
libRbt.so/2013.1/901 2013/11/27
 42 45  0  0  0  0  0  0  0  0999 V2000
   -1.0682   16.6878   35.9606 C   0  0  2  0  0  0  0  0  0  0  0  0
   -1.8745   17.2947   37.0183 O   0  0  0  0  0  0  0  0  0  0  0  0
    0.4528   16.9532   36.3555 C   0  0  2  0  0  0  0  0  0  0  0  0
    0.7692   16.3007   37.6291 N   0  0  0  0  0  0  0  0  0  0  0  0
    0.7043   18.5387   36.4070 C   0  0  1  0  0  0  0  0  0  0  0  0
    2.0738   18.8378   36.7502 O   0  0  0  0  0  0  0  0  0  0  0  0
    0.3305   19.1032   35.0257 C   0  0  2  0  0  0  0  0  0  0  0  0
    0.5341   20.4751   35.0338 O   0  0  0  0  0  0  0  0  0  0  0  0
   -1.1907   18.7551   34.6895 C   0  0  2  0  0  0  0  0  0  0  0  0
   -1.4103   17.3390   34.6790 O   0  0  0  0  0  0  0  0  0  0  0  0
   -1.6016   19.2692   33.3390 C   0  0  0  0  0  0  0  0  0  0  0  0
   -2.9836   18.9568   33.1596 O   0  0  0  0  0  0  0  0  0  0  0  0
   -5.9449   16.5194   38.6319 C   0  0  2  0  0  0  0  0  0  0  0  0
   -7.3863   16.4416   38.7286 N   0  0  0  0  0  0  0  0  0  0  0  0
   -5.5017   17.9929   38.2839 C   0  0  0  0  0  0  0  0  0  0  0  0
   -3.9406   18.1032   38.1689 C   0  0  2  0  0  0  0  0  0  0  0  0
   -3.5732   19.4788   37.8394 N   0  0  0  0  0  0  0  0  0  0  0  0
   -3.3424   17.1330   37.0556 C   0  0  2  0  0  0  0  0  0  0  0  0
   -3.7559   15.6810   37.4326 C   0  0  2  0  0  0  0  0  0  0  0  0
   -3.1461   14.8314   36.3422 O   0  0  0  0  0  0  0  0  0  0  0  0
   -5.3775   15.5575   37.4843 C   0  0  1  0  0  0  0  0  0  0  0  0
   -5.8843   14.2440   37.8843 O   0  0  0  0  0  0  0  0  0  0  0  0
   -2.9542   13.5415   36.7623 C   0  0  1  0  0  0  0  0  0  0  0  0
   -2.5863   12.6302   35.6736 C   0  0  2  0  0  0  0  0  0  0  0  0
   -3.7263   12.4215   34.9032 O   0  0  0  0  0  0  0  0  0  0  0  0
   -1.9617   11.4590   36.4618 C   0  0  2  0  0  0  0  0  0  0  0  0
   -2.7622   10.2899   36.1756 O   0  0  0  0  0  0  0  0  0  0  0  0
   -2.0451   11.8730   37.8940 C   0  0  2  0  0  0  0  0  0  0  0  0
   -1.8948   13.3218   37.6789 O   0  0  0  0  0  0  0  0  0  0  0  0
   -0.8370   11.3177   38.7347 C   0  0  0  0  0  0  0  0  0  0  0  0
    0.4583   11.8428   38.3157 O   0  0  0  0  0  0  0  0  0  0  0  0
   -2.2062    8.9975   36.5650 C   0  0  2  0  0  0  0  0  0  0  0  0
   -3.2018    7.8335   36.0471 C   0  0  2  0  0  0  0  0  0  0  0  0
   -4.5629    8.0512   36.6360 N   0  0  0  0  0  0  0  0  0  0  0  0
   -2.5808    6.4143   36.4763 C   0  0  1  0  0  0  0  0  0  0  0  0
   -1.2621    6.3130   35.8579 O   0  0  0  0  0  0  0  0  0  0  0  0
   -2.4767    6.3398   38.0663 C   0  0  2  0  0  0  0  0  0  0  0  0
   -3.8475    6.4348   38.6159 O   0  0  0  0  0  0  0  0  0  0  0  0
   -1.5146    7.5573   38.5704 C   0  0  1  0  0  0  0  0  0  0  0  0
   -2.0757    8.8748   38.0970 O   0  0  0  0  0  0  0  0  0  0  0  0
   -1.4039    7.5252   40.1310 C   0  0  0  0  0  0  0  0  0  0  0  0
   -2.7086    7.7948   40.8110 N   0  0  0  0  0  0  0  0  0  0  0  0
  1  3  1  0  0  0  0
  1  2  1  1  0  0  0
  3  4  1  1  0  0  0
  3  5  1  0  0  0  0
  5  6  1  6  0  0  0
  7  8  1  1  0  0  0
  7  5  1  0  0  0  0
  9 11  1  6  0  0  0
  9  7  1  0  0  0  0
 10  9  1  0  0  0  0
 10  1  1  0  0  0  0
 12 11  1  0  0  0  0
 13 14  1  6  0  0  0
 15 13  1  0  0  0  0
 16 17  1  6  0  0  0
 16 15  1  0  0  0  0
 18  2  1  1  0  0  0
 18 19  1  0  0  0  0
 18 16  1  0  0  0  0
 19 20  1  6  0  0  0
 19 21  1  0  0  0  0
 21 22  1  1  0  0  0
 21 13  1  0  0  0  0
 23 20  1  6  0  0  0
 23 29  1  0  0  0  0
 24 25  1  1  0  0  0
 24 26  1  0  0  0  0
 24 23  1  0  0  0  0
 26 27  1  1  0  0  0
 26 28  1  0  0  0  0
 28 30  1  1  0  0  0
 29 28  1  0  0  0  0
 30 31  1  0  0  0  0
 32 27  1  1  0  0  0
 32 40  1  0  0  0  0
 33 35  1  0  0  0  0
 33 32  1  0  0  0  0
 33 34  1  1  0  0  0
 35 36  1  6  0  0  0
 35 37  1  0  0  0  0
 37 38  1  1  0  0  0
 37 39  1  0  0  0  0
 39 41  1  1  0  0  0
 40 39  1  0  0  0  0
 41 42  1  0  0  0  0
M  END
>  <CHROM.1>
-174.02661361,-177.65411324,-170.55197264,156.29468596,169.93668062,166.82952322
63.87436174,-175.45548958,-64.84972905,-2.34627368,13.69830238,36.94236781
-1.49267796,-0.29269832,2.99786821

>  <Name>
lig.pdb

>  <RI>
0

>  <Rbt.Current_Directory>
/home/itssahil/PROJECTS/Mol_Feturizer/New_Systems/rnas/4wcr

>  <Rbt.Executable>
rbdock ($Id: //depot/dev/client3/rdock/2013.1/src/exe/rbdock.cxx#4 $)

>  <Rbt.Library>
libRbt.so (2013.1, Build901 2013/11/27)

>  <Rbt.Parameter_File>
/export/apps/rDock/src/rDock_2013.1_src/data/scripts/dock_solv.prm

>  <Rbt.Receptor>
prm/pocket_docking_4.prm

>  <SCORE>
-10.05

>  <SCORE.INTER>
-1.58061

>  <SCORE.INTER.CONST>
1

>  <SCORE.INTER.POLAR>
0

>  <SCORE.INTER.ROT>
9

>  <SCORE.INTER.SOLV>
20.3442

>  <SCORE.INTER.VDW>
-17.4351

>  <SCORE.INTER.norm>
-0.0376335

>  <SCORE.INTRA>
-8.46941

>  <SCORE.INTRA.DIHEDRAL>
-11.1733

>  <SCORE.INTRA.DIHEDRAL.0>
16.2863

>  <SCORE.INTRA.POLAR>
0

>  <SCORE.INTRA.POLAR.0>
0

>  <SCORE.INTRA.REPUL>
-0.314433

>  <SCORE.INTRA.REPUL.0>
0.314433

>  <SCORE.INTRA.SOLV>
-3.90314

>  <SCORE.INTRA.SOLV.lig_0>
-103.824

>  <SCORE.INTRA.VDW>
0.640964

>  <SCORE.INTRA.VDW.0>
-5.30945

>  <SCORE.INTRA.norm>
-0.201653

>  <SCORE.RESTR>
0

>  <SCORE.RESTR.CAVITY>
0

>  <SCORE.RESTR.norm>
0

>  <SCORE.SYSTEM>
0

>  <SCORE.SYSTEM.CONST>
0

>  <SCORE.SYSTEM.DIHEDRAL>
0

>  <SCORE.SYSTEM.SOLV>
0

>  <SCORE.SYSTEM.norm>
0

>  <SCORE.heavy>
42

>  <SCORE.norm>
-0.239286

>  <RMSD>
1.284

$$$$
lig.pdb
 OpenBabel11021811513D
libRbt.so/2013.1/901 2013/11/27
 42 45  0  0  0  0  0  0  0  0999 V2000
   -1.0676   17.3954   35.4739 C   0  0  2  0  0  0  0  0  0  0  0  0
   -1.7783   17.7175   36.7101 O   0  0  0  0  0  0  0  0  0  0  0  0
    0.4843   17.5523   35.8013 C   0  0  2  0  0  0  0  0  0  0  0  0
    0.8836   16.6008   36.8419 N   0  0  0  0  0  0  0  0  0  0  0  0
    0.7711   19.0740   36.2281 C   0  0  1  0  0  0  0  0  0  0  0  0
    2.1685   19.2767   36.5260 O   0  0  0  0  0  0  0  0  0  0  0  0
    0.3045   19.9675   35.0660 C   0  0  2  0  0  0  0  0  0  0  0  0
    0.5359   21.2933   35.4013 O   0  0  0  0  0  0  0  0  0  0  0  0
   -1.2447   19.7158   34.7747 C   0  0  2  0  0  0  0  0  0  0  0  0
   -1.4932   18.3479   34.4273 O   0  0  0  0  0  0  0  0  0  0  0  0
   -1.7469   20.5529   33.6326 C   0  0  0  0  0  0  0  0  0  0  0  0
   -0.8223   20.4110   32.5534 O   0  0  0  0  0  0  0  0  0  0  0  0
   -5.7227   16.7771   38.5349 C   0  0  2  0  0  0  0  0  0  0  0  0
   -7.1534   16.6646   38.7182 N   0  0  0  0  0  0  0  0  0  0  0  0
   -5.3287   18.2753   38.2365 C   0  0  0  0  0  0  0  0  0  0  0  0
   -3.7803   18.4237   38.0291 C   0  0  2  0  0  0  0  0  0  0  0  0
   -3.4590   19.8215   37.7487 N   0  0  0  0  0  0  0  0  0  0  0  0
   -3.2378   17.5237   36.8316 C   0  0  2  0  0  0  0  0  0  0  0  0
   -3.6007   16.0461   37.1582 C   0  0  2  0  0  0  0  0  0  0  0  0
   -3.0471   15.2657   35.9889 O   0  0  0  0  0  0  0  0  0  0  0  0
   -5.2132   15.8865   37.3055 C   0  0  1  0  0  0  0  0  0  0  0  0
   -5.6702   14.5442   37.6682 O   0  0  0  0  0  0  0  0  0  0  0  0
   -3.0134   13.9223   36.2561 C   0  0  1  0  0  0  0  0  0  0  0  0
   -2.5480   13.1209   35.1193 C   0  0  2  0  0  0  0  0  0  0  0  0
   -3.5682   13.1104   34.1728 O   0  0  0  0  0  0  0  0  0  0  0  0
   -2.1359   11.8113   35.8252 C   0  0  2  0  0  0  0  0  0  0  0  0
   -2.9635   10.7621   35.2738 O   0  0  0  0  0  0  0  0  0  0  0  0
   -2.4086   12.0539   37.2731 C   0  0  2  0  0  0  0  0  0  0  0  0
   -2.1254   13.4987   37.2771 O   0  0  0  0  0  0  0  0  0  0  0  0
   -1.3860   11.2945   38.1962 C   0  0  0  0  0  0  0  0  0  0  0  0
   -1.5902   11.5379   39.6203 O   0  0  0  0  0  0  0  0  0  0  0  0
   -2.6164    9.3902   35.6323 C   0  0  2  0  0  0  0  0  0  0  0  0
   -3.4827    8.3839   34.7097 C   0  0  2  0  0  0  0  0  0  0  0  0
   -4.9416    8.6585   34.9166 N   0  0  0  0  0  0  0  0  0  0  0  0
   -3.0920    6.8764   35.1079 C   0  0  1  0  0  0  0  0  0  0  0  0
   -1.6586    6.7240   34.8762 O   0  0  0  0  0  0  0  0  0  0  0  0
   -3.4565    6.6208   36.6397 C   0  0  2  0  0  0  0  0  0  0  0  0
   -4.9202    6.7790   36.7905 O   0  0  0  0  0  0  0  0  0  0  0  0
   -2.6154    7.6846   37.5467 C   0  0  1  0  0  0  0  0  0  0  0  0
   -2.9415    9.0909   37.1101 O   0  0  0  0  0  0  0  0  0  0  0  0
   -2.9626    7.4736   39.0579 C   0  0  0  0  0  0  0  0  0  0  0  0
   -2.1686    8.3592   39.9648 N   0  0  0  0  0  0  0  0  0  0  0  0
  1  3  1  0  0  0  0
  1  2  1  1  0  0  0
  3  4  1  1  0  0  0
  3  5  1  0  0  0  0
  5  6  1  6  0  0  0
  7  8  1  1  0  0  0
  7  5  1  0  0  0  0
  9 11  1  6  0  0  0
  9  7  1  0  0  0  0
 10  9  1  0  0  0  0
 10  1  1  0  0  0  0
 12 11  1  0  0  0  0
 13 14  1  6  0  0  0
 15 13  1  0  0  0  0
 16 17  1  6  0  0  0
 16 15  1  0  0  0  0
 18  2  1  1  0  0  0
 18 19  1  0  0  0  0
 18 16  1  0  0  0  0
 19 20  1  6  0  0  0
 19 21  1  0  0  0  0
 21 22  1  1  0  0  0
 21 13  1  0  0  0  0
 23 20  1  6  0  0  0
 23 29  1  0  0  0  0
 24 25  1  6  0  0  0
 24 26  1  0  0  0  0
 24 23  1  0  0  0  0
 26 27  1  6  0  0  0
 26 28  1  0  0  0  0
 28 30  1  1  0  0  0
 29 28  1  0  0  0  0
 30 31  1  0  0  0  0
 32 27  1  6  0  0  0
 32 40  1  0  0  0  0
 33 35  1  0  0  0  0
 33 32  1  0  0  0  0
 33 34  1  1  0  0  0
 35 36  1  1  0  0  0
 35 37  1  0  0  0  0
 37 38  1  6  0  0  0
 37 39  1  0  0  0  0
 39 41  1  1  0  0  0
 40 39  1  0  0  0  0
 41 42  1  0  0  0  0
M  END
>  <CHROM.1>
-172.63111126,48.25144107,-159.58297560,166.32081166,176.96951467,170.61258706
178.17099920,-169.85383842,176.57938676,-2.50173012,14.15160814,36.43864659
-1.37712663,-0.53951593,-3.12689228

>  <Name>
lig.pdb

>  <RI>
0

>  <Rbt.Current_Directory>
/home/itssahil/PROJECTS/Mol_Feturizer/New_Systems/rnas/4wcr

>  <Rbt.Executable>
rbdock ($Id: //depot/dev/client3/rdock/2013.1/src/exe/rbdock.cxx#4 $)

>  <Rbt.Library>
libRbt.so (2013.1, Build901 2013/11/27)

>  <Rbt.Parameter_File>
/export/apps/rDock/src/rDock_2013.1_src/data/scripts/dock_solv.prm

>  <Rbt.Receptor>
prm/pocket_docking_3.prm

>  <SCORE>
-8.92413

>  <SCORE.INTER>
-0.524921

>  <SCORE.INTER.CONST>
1

>  <SCORE.INTER.POLAR>
0

>  <SCORE.INTER.ROT>
9

>  <SCORE.INTER.SOLV>
22.9925

>  <SCORE.INTER.VDW>
-17.6141

>  <SCORE.INTER.norm>
-0.0124981

>  <SCORE.INTRA>
-8.39921

>  <SCORE.INTRA.DIHEDRAL>
-11.2322

>  <SCORE.INTRA.DIHEDRAL.0>
16.2863

>  <SCORE.INTRA.POLAR>
0

>  <SCORE.INTRA.POLAR.0>
0

>  <SCORE.INTRA.REPUL>
-0.314433

>  <SCORE.INTRA.REPUL.0>
0.314433

>  <SCORE.INTRA.SOLV>
-3.71915

>  <SCORE.INTRA.SOLV.lig_0>
-103.824

>  <SCORE.INTRA.VDW>
0.648656

>  <SCORE.INTRA.VDW.0>
-5.30945

>  <SCORE.INTRA.norm>
-0.199981

>  <SCORE.RESTR>
0

>  <SCORE.RESTR.CAVITY>
0

>  <SCORE.RESTR.norm>
0

>  <SCORE.SYSTEM>
0

>  <SCORE.SYSTEM.CONST>
0

>  <SCORE.SYSTEM.DIHEDRAL>
0

>  <SCORE.SYSTEM.SOLV>
0

>  <SCORE.SYSTEM.norm>
0

>  <SCORE.heavy>
42

>  <SCORE.norm>
-0.212479

>  <RMSD>
1.306

$$$$
lig.pdb
 OpenBabel11021811513D
libRbt.so/2013.1/901 2013/11/27
 42 45  0  0  0  0  0  0  0  0999 V2000
   -1.3164   16.6076   36.3126 C   0  0  2  0  0  0  0  0  0  0  0  0
   -1.9926   17.1292   37.4992 O   0  0  0  0  0  0  0  0  0  0  0  0
    0.2446   16.6754   36.6265 C   0  0  2  0  0  0  0  0  0  0  0  0
    0.5705   15.8232   37.7734 N   0  0  0  0  0  0  0  0  0  0  0  0
    0.6561   18.2082   36.8730 C   0  0  1  0  0  0  0  0  0  0  0  0
    2.0668   18.3303   37.1516 O   0  0  0  0  0  0  0  0  0  0  0  0
    0.2579   18.9941   35.6120 C   0  0  2  0  0  0  0  0  0  0  0  0
    0.5978   20.3269   35.7904 O   0  0  0  0  0  0  0  0  0  0  0  0
   -1.3081   18.8365   35.3450 C   0  0  2  0  0  0  0  0  0  0  0  0
   -1.6685   17.4620   35.1595 O   0  0  0  0  0  0  0  0  0  0  0  0
   -1.7463   19.5718   34.1103 C   0  0  0  0  0  0  0  0  0  0  0  0
   -1.0105   19.0413   33.0073 O   0  0  0  0  0  0  0  0  0  0  0  0
   -6.0869   16.8279   39.2074 C   0  0  2  0  0  0  0  0  0  0  0  0
   -7.5202   16.9571   39.3561 N   0  0  0  0  0  0  0  0  0  0  0  0
   -5.4351   18.2441   38.9662 C   0  0  0  0  0  0  0  0  0  0  0  0
   -3.8791   18.1306   38.7970 C   0  0  2  0  0  0  0  0  0  0  0  0
   -3.3165   19.4600   38.5690 N   0  0  0  0  0  0  0  0  0  0  0  0
   -3.4664   17.1852   37.5829 C   0  0  2  0  0  0  0  0  0  0  0  0
   -4.0848   15.7831   37.8536 C   0  0  2  0  0  0  0  0  0  0  0  0
   -3.6416   14.9526   36.6718 O   0  0  0  0  0  0  0  0  0  0  0  0
   -5.7043   15.8981   37.9610 C   0  0  1  0  0  0  0  0  0  0  0  0
   -6.3933   14.6444   38.2701 O   0  0  0  0  0  0  0  0  0  0  0  0
   -3.7101   13.6126   36.9491 C   0  0  1  0  0  0  0  0  0  0  0  0
   -3.1409   12.7754   35.8879 C   0  0  2  0  0  0  0  0  0  0  0  0
   -4.0281   12.8028   34.8161 O   0  0  0  0  0  0  0  0  0  0  0  0
   -2.8901   11.4562   36.6495 C   0  0  2  0  0  0  0  0  0  0  0  0
   -3.6900   10.4417   36.0009 O   0  0  0  0  0  0  0  0  0  0  0  0
   -3.3370   11.7298   38.0478 C   0  0  2  0  0  0  0  0  0  0  0  0
   -2.9850   13.1591   38.0802 O   0  0  0  0  0  0  0  0  0  0  0  0
   -2.4827   10.9331   39.1013 C   0  0  0  0  0  0  0  0  0  0  0  0
   -2.7882    9.5070   39.1448 O   0  0  0  0  0  0  0  0  0  0  0  0
   -3.0394    9.1644   35.7248 C   0  0  2  0  0  0  0  0  0  0  0  0
   -3.6546    8.5602   34.3571 C   0  0  2  0  0  0  0  0  0  0  0  0
   -5.1376    8.4050   34.5102 N   0  0  0  0  0  0  0  0  0  0  0  0
   -2.9306    7.1565   34.0584 C   0  0  1  0  0  0  0  0  0  0  0  0
   -1.5003    7.4232   33.9367 O   0  0  0  0  0  0  0  0  0  0  0  0
   -3.2259    6.1423   35.2536 C   0  0  2  0  0  0  0  0  0  0  0  0
   -4.6871    5.9125   35.3034 O   0  0  0  0  0  0  0  0  0  0  0  0
   -2.6483    6.7981   36.6313 C   0  0  1  0  0  0  0  0  0  0  0  0
   -3.2864    8.1460   36.8565 O   0  0  0  0  0  0  0  0  0  0  0  0
   -2.9370    5.8354   37.8307 C   0  0  0  0  0  0  0  0  0  0  0  0
   -2.3325    4.4799   37.6452 N   0  0  0  0  0  0  0  0  0  0  0  0
  1  3  1  0  0  0  0
  1  2  1  1  0  0  0
  3  4  1  1  0  0  0
  3  5  1  0  0  0  0
  5  6  1  6  0  0  0
  7  8  1  1  0  0  0
  7  5  1  0  0  0  0
  9 11  1  6  0  0  0
  9  7  1  0  0  0  0
 10  9  1  0  0  0  0
 10  1  1  0  0  0  0
 12 11  1  0  0  0  0
 13 14  1  6  0  0  0
 15 13  1  0  0  0  0
 16 17  1  6  0  0  0
 16 15  1  0  0  0  0
 18  2  1  1  0  0  0
 18 19  1  0  0  0  0
 18 16  1  0  0  0  0
 19 20  1  6  0  0  0
 19 21  1  0  0  0  0
 21 22  1  1  0  0  0
 21 13  1  0  0  0  0
 23 20  1  6  0  0  0
 23 29  1  0  0  0  0
 24 25  1  6  0  0  0
 24 26  1  0  0  0  0
 24 23  1  0  0  0  0
 26 27  1  6  0  0  0
 26 28  1  0  0  0  0
 28 30  1  1  0  0  0
 29 28  1  0  0  0  0
 30 31  1  0  0  0  0
 32 27  1  1  0  0  0
 32 40  1  0  0  0  0
 33 35  1  0  0  0  0
 33 32  1  0  0  0  0
 33 34  1  1  0  0  0
 35 36  1  1  0  0  0
 35 37  1  0  0  0  0
 37 38  1  1  0  0  0
 37 39  1  0  0  0  0
 39 41  1  1  0  0  0
 40 39  1  0  0  0  0
 41 42  1  0  0  0  0
M  END
>  <CHROM.1>
-178.38846968,59.14014157,-165.34282287,159.80618726,-173.22833060,134.28735521
-73.76353817,-146.93724928,58.35324639,-2.80960051,13.55359630,36.67953389
-1.41347387,-0.56614241,-3.00389284

>  <Name>
lig.pdb

>  <RI>
0

>  <Rbt.Current_Directory>
/home/itssahil/PROJECTS/Mol_Feturizer/New_Systems/rnas/4wcr

>  <Rbt.Executable>
rbdock ($Id: //depot/dev/client3/rdock/2013.1/src/exe/rbdock.cxx#4 $)

>  <Rbt.Library>
libRbt.so (2013.1, Build901 2013/11/27)

>  <Rbt.Parameter_File>
/export/apps/rDock/src/rDock_2013.1_src/data/scripts/dock_solv.prm

>  <Rbt.Receptor>
prm/pocket_docking_2.prm

>  <SCORE>
-1.75121

>  <SCORE.INTER>
2.1795

>  <SCORE.INTER.CONST>
1

>  <SCORE.INTER.POLAR>
0

>  <SCORE.INTER.ROT>
9

>  <SCORE.INTER.SOLV>
19.9282

>  <SCORE.INTER.VDW>
-14.7897

>  <SCORE.INTER.norm>
0.0518929

>  <SCORE.INTRA>
-4.44812

>  <SCORE.INTRA.DIHEDRAL>
-1.80165

>  <SCORE.INTRA.DIHEDRAL.0>
16.2863

>  <SCORE.INTRA.POLAR>
0

>  <SCORE.INTRA.POLAR.0>
0

>  <SCORE.INTRA.REPUL>
-0.309862

>  <SCORE.INTRA.REPUL.0>
0.314433

>  <SCORE.INTRA.SOLV>
-4.77328

>  <SCORE.INTRA.SOLV.lig_0>
-103.824

>  <SCORE.INTRA.VDW>
0.388663

>  <SCORE.INTRA.VDW.0>
-5.30945

>  <SCORE.INTRA.norm>
-0.105908

>  <SCORE.RESTR>
0.517403

>  <SCORE.RESTR.CAVITY>
0.517403

>  <SCORE.RESTR.norm>
0.0123191

>  <SCORE.SYSTEM>
0

>  <SCORE.SYSTEM.CONST>
0

>  <SCORE.SYSTEM.DIHEDRAL>
0

>  <SCORE.SYSTEM.SOLV>
0

>  <SCORE.SYSTEM.norm>
0

>  <SCORE.heavy>
42

>  <SCORE.norm>
-0.0416955

>  <RMSD>
1.316

$$$$
lig.pdb
 OpenBabel11021811513D
libRbt.so/2013.1/901 2013/11/27
 42 45  0  0  0  0  0  0  0  0999 V2000
   -0.8115   16.6357   36.2029 C   0  0  2  0  0  0  0  0  0  0  0  0
   -1.6705   17.2694   37.2018 O   0  0  0  0  0  0  0  0  0  0  0  0
    0.6687   17.1434   36.5054 C   0  0  2  0  0  0  0  0  0  0  0  0
    1.0920   16.7115   37.8403 N   0  0  0  0  0  0  0  0  0  0  0  0
    0.7104   18.7408   36.3428 C   0  0  1  0  0  0  0  0  0  0  0  0
    2.0349   19.2554   36.5951 O   0  0  0  0  0  0  0  0  0  0  0  0
    0.2397   19.0647   34.9145 C   0  0  2  0  0  0  0  0  0  0  0  0
    0.2613   20.4402   34.7382 O   0  0  0  0  0  0  0  0  0  0  0  0
   -1.2286   18.4834   34.6810 C   0  0  2  0  0  0  0  0  0  0  0  0
   -1.2603   17.0621   34.8611 O   0  0  0  0  0  0  0  0  0  0  0  0
   -1.7288   18.7571   33.2910 C   0  0  0  0  0  0  0  0  0  0  0  0
   -1.9225   20.1670   33.1711 O   0  0  0  0  0  0  0  0  0  0  0  0
   -5.7057   16.2972   38.7971 C   0  0  2  0  0  0  0  0  0  0  0  0
   -7.1412   16.1395   38.8833 N   0  0  0  0  0  0  0  0  0  0  0  0
   -5.3435   17.7860   38.4217 C   0  0  0  0  0  0  0  0  0  0  0  0
   -3.7901   17.9826   38.3175 C   0  0  2  0  0  0  0  0  0  0  0  0
   -3.4982   19.3697   37.9620 N   0  0  0  0  0  0  0  0  0  0  0  0
   -3.1272   17.0253   37.2302 C   0  0  2  0  0  0  0  0  0  0  0  0
   -3.4612   15.5601   37.6343 C   0  0  2  0  0  0  0  0  0  0  0  0
   -2.7937   14.7243   36.5673 O   0  0  0  0  0  0  0  0  0  0  0  0
   -5.0736   15.3456   37.6749 C   0  0  1  0  0  0  0  0  0  0  0  0
   -5.5089   14.0139   38.0985 O   0  0  0  0  0  0  0  0  0  0  0  0
   -2.6408   13.4247   36.9736 C   0  0  1  0  0  0  0  0  0  0  0  0
   -2.0065   12.5756   35.9598 C   0  0  2  0  0  0  0  0  0  0  0  0
   -2.9425   12.3609   34.9526 O   0  0  0  0  0  0  0  0  0  0  0  0
   -1.5164   11.3936   36.8236 C   0  0  2  0  0  0  0  0  0  0  0  0
   -2.1840   10.2107   36.3289 O   0  0  0  0  0  0  0  0  0  0  0  0
   -1.9258   11.7413   38.2169 C   0  0  2  0  0  0  0  0  0  0  0  0
   -1.7962   13.2025   38.0907 O   0  0  0  0  0  0  0  0  0  0  0  0
   -0.9050   11.1925   39.2805 C   0  0  0  0  0  0  0  0  0  0  0  0
   -1.2923   11.4680   40.6601 O   0  0  0  0  0  0  0  0  0  0  0  0
   -1.7199    8.9263   36.8445 C   0  0  2  0  0  0  0  0  0  0  0  0
   -2.3936    7.7473   35.9669 C   0  0  2  0  0  0  0  0  0  0  0  0
   -3.8858    7.8681   36.0424 N   0  0  0  0  0  0  0  0  0  0  0  0
   -1.8748    6.3373   36.5384 C   0  0  1  0  0  0  0  0  0  0  0  0
   -0.4192    6.3321   36.4245 O   0  0  0  0  0  0  0  0  0  0  0  0
   -2.3324    6.1802   38.0584 C   0  0  2  0  0  0  0  0  0  0  0  0
   -3.8120    6.1803   38.0894 O   0  0  0  0  0  0  0  0  0  0  0  0
   -1.6885    7.4117   38.9132 C   0  0  1  0  0  0  0  0  0  0  0  0
   -2.1293    8.7256   38.3180 O   0  0  0  0  0  0  0  0  0  0  0  0
   -2.1322    7.2988   40.4095 C   0  0  0  0  0  0  0  0  0  0  0  0
   -1.5075    6.1365   41.1138 N   0  0  0  0  0  0  0  0  0  0  0  0
  1  3  1  0  0  0  0
  1  2  1  1  0  0  0
  3  4  1  1  0  0  0
  3  5  1  0  0  0  0
  5  6  1  6  0  0  0
  7  8  1  1  0  0  0
  7  5  1  0  0  0  0
  9 11  1  6  0  0  0
  9  7  1  0  0  0  0
 10  9  1  0  0  0  0
 10  1  1  0  0  0  0
 12 11  1  0  0  0  0
 13 14  1  6  0  0  0
 15 13  1  0  0  0  0
 16 17  1  6  0  0  0
 16 15  1  0  0  0  0
 18  2  1  1  0  0  0
 18 19  1  0  0  0  0
 18 16  1  0  0  0  0
 19 20  1  6  0  0  0
 19 21  1  0  0  0  0
 21 22  1  1  0  0  0
 21 13  1  0  0  0  0
 23 20  1  6  0  0  0
 23 29  1  0  0  0  0
 24 25  1  6  0  0  0
 24 26  1  0  0  0  0
 24 23  1  0  0  0  0
 26 27  1  6  0  0  0
 26 28  1  0  0  0  0
 28 30  1  1  0  0  0
 29 28  1  0  0  0  0
 30 31  1  0  0  0  0
 32 27  1  6  0  0  0
 32 40  1  0  0  0  0
 33 35  1  0  0  0  0
 33 32  1  0  0  0  0
 33 34  1  1  0  0  0
 35 36  1  1  0  0  0
 35 37  1  0  0  0  0
 37 38  1  6  0  0  0
 37 39  1  0  0  0  0
 39 41  1  1  0  0  0
 40 39  1  0  0  0  0
 41 42  1  0  0  0  0
M  END
>  <CHROM.1>
-179.92261189,-67.64418169,-173.56425349,161.69740856,179.47927356,170.29331713
-177.89331678,-169.40902984,69.45476009,-2.13321884,13.59205834,37.12696239
-1.50092316,-0.49235966,2.98631185

>  <Name>
lig.pdb

>  <RI>
0

>  <Rbt.Current_Directory>
/home/itssahil/PROJECTS/Mol_Feturizer/New_Systems/rnas/4wcr

>  <Rbt.Executable>
rbdock ($Id: //depot/dev/client3/rdock/2013.1/src/exe/rbdock.cxx#4 $)

>  <Rbt.Library>
libRbt.so (2013.1, Build901 2013/11/27)

>  <Rbt.Parameter_File>
/export/apps/rDock/src/rDock_2013.1_src/data/scripts/dock_solv.prm

>  <Rbt.Receptor>
prm/pocket_docking_4.prm

>  <SCORE>
-11.3197

>  <SCORE.INTER>
-1.57783

>  <SCORE.INTER.CONST>
1

>  <SCORE.INTER.POLAR>
0

>  <SCORE.INTER.ROT>
9

>  <SCORE.INTER.SOLV>
17.6123

>  <SCORE.INTER.VDW>
-16.5227

>  <SCORE.INTER.norm>
-0.0375675

>  <SCORE.INTRA>
-9.74186

>  <SCORE.INTRA.DIHEDRAL>
-12.5005

>  <SCORE.INTRA.DIHEDRAL.0>
16.2863

>  <SCORE.INTRA.POLAR>
0

>  <SCORE.INTRA.POLAR.0>
0

>  <SCORE.INTRA.REPUL>
-0.314433

>  <SCORE.INTRA.REPUL.0>
0.314433

>  <SCORE.INTRA.SOLV>
-5.82495

>  <SCORE.INTRA.SOLV.lig_0>
-103.824

>  <SCORE.INTRA.VDW>
0.993049

>  <SCORE.INTRA.VDW.0>
-5.30945

>  <SCORE.INTRA.norm>
-0.231949

>  <SCORE.RESTR>
0

>  <SCORE.RESTR.CAVITY>
0

>  <SCORE.RESTR.norm>
0

>  <SCORE.SYSTEM>
0

>  <SCORE.SYSTEM.CONST>
0

>  <SCORE.SYSTEM.DIHEDRAL>
0

>  <SCORE.SYSTEM.SOLV>
0

>  <SCORE.SYSTEM.norm>
0

>  <SCORE.heavy>
42

>  <SCORE.norm>
-0.269516

>  <RMSD>
1.416

$$$$
lig.pdb
 OpenBabel11021811513D
libRbt.so/2013.1/901 2013/11/27
 42 45  0  0  0  0  0  0  0  0999 V2000
   -1.2897   16.1817   36.0822 C   0  0  2  0  0  0  0  0  0  0  0  0
   -2.0152   16.8704   37.1483 O   0  0  0  0  0  0  0  0  0  0  0  0
    0.2266   16.0915   36.5648 C   0  0  2  0  0  0  0  0  0  0  0  0
    0.3229   15.3002   37.7946 N   0  0  0  0  0  0  0  0  0  0  0  0
    0.7978   17.5805   36.7551 C   0  0  1  0  0  0  0  0  0  0  0  0
    2.1761   17.5589   37.1822 O   0  0  0  0  0  0  0  0  0  0  0  0
    0.6337   18.3058   35.4084 C   0  0  2  0  0  0  0  0  0  0  0  0
    1.1165   19.5997   35.5362 O   0  0  0  0  0  0  0  0  0  0  0  0
   -0.9035   18.3113   34.9776 C   0  0  2  0  0  0  0  0  0  0  0  0
   -1.4109   16.9779   34.8432 O   0  0  0  0  0  0  0  0  0  0  0  0
   -1.1161   18.9932   33.6559 C   0  0  0  0  0  0  0  0  0  0  0  0
   -0.8999   20.3913   33.8510 O   0  0  0  0  0  0  0  0  0  0  0  0
   -6.1813   16.8442   38.7025 C   0  0  2  0  0  0  0  0  0  0  0  0
   -7.6190   16.9923   38.7653 N   0  0  0  0  0  0  0  0  0  0  0  0
   -5.5132   18.2028   38.2594 C   0  0  0  0  0  0  0  0  0  0  0  0
   -3.9519   18.0673   38.1793 C   0  0  2  0  0  0  0  0  0  0  0  0
   -3.3739   19.3423   37.7596 N   0  0  0  0  0  0  0  0  0  0  0  0
   -3.4910   16.9353   37.1572 C   0  0  2  0  0  0  0  0  0  0  0  0
   -4.1269   15.5955   37.6286 C   0  0  2  0  0  0  0  0  0  0  0  0
   -3.6364   14.5825   36.6207 O   0  0  0  0  0  0  0  0  0  0  0  0
   -5.7490   15.7223   37.6448 C   0  0  1  0  0  0  0  0  0  0  0  0
   -6.4563   14.5349   38.1264 O   0  0  0  0  0  0  0  0  0  0  0  0
   -3.4971   13.3423   37.1862 C   0  0  1  0  0  0  0  0  0  0  0  0
   -3.2603   12.2831   36.1997 C   0  0  2  0  0  0  0  0  0  0  0  0
   -4.4602   12.0632   35.5300 O   0  0  0  0  0  0  0  0  0  0  0  0
   -2.6579   11.1747   37.0894 C   0  0  2  0  0  0  0  0  0  0  0  0
   -3.5468   10.0383   36.9990 O   0  0  0  0  0  0  0  0  0  0  0  0
   -2.6191   11.7630   38.4613 C   0  0  2  0  0  0  0  0  0  0  0  0
   -2.3942   13.1612   38.0588 O   0  0  0  0  0  0  0  0  0  0  0  0
   -1.3941   11.2301   39.2918 C   0  0  0  0  0  0  0  0  0  0  0  0
   -1.5063   11.4779   40.7254 O   0  0  0  0  0  0  0  0  0  0  0  0
   -3.3671    9.1488   35.8555 C   0  0  2  0  0  0  0  0  0  0  0  0
   -4.7170    8.2798   35.6642 C   0  0  2  0  0  0  0  0  0  0  0  0
   -4.9932    7.5147   36.9232 N   0  0  0  0  0  0  0  0  0  0  0  0
   -4.5123    7.3062   34.4015 C   0  0  1  0  0  0  0  0  0  0  0  0
   -4.2437    8.1510   33.2414 O   0  0  0  0  0  0  0  0  0  0  0  0
   -3.2935    6.3173   34.6862 C   0  0  2  0  0  0  0  0  0  0  0  0
   -3.6455    5.4896   35.8614 O   0  0  0  0  0  0  0  0  0  0  0  0
   -1.9553    7.2174   34.9330 C   0  0  1  0  0  0  0  0  0  0  0  0
   -2.1922    8.1737   36.0749 O   0  0  0  0  0  0  0  0  0  0  0  0
   -0.7405    6.2780   35.2333 C   0  0  0  0  0  0  0  0  0  0  0  0
   -0.9059    5.5030   36.5019 N   0  0  0  0  0  0  0  0  0  0  0  0
  1  3  1  0  0  0  0
  1  2  1  1  0  0  0
  3  4  1  1  0  0  0
  3  5  1  0  0  0  0
  5  6  1  6  0  0  0
  7  8  1  1  0  0  0
  7  5  1  0  0  0  0
  9 11  1  6  0  0  0
  9  7  1  0  0  0  0
 10  9  1  0  0  0  0
 10  1  1  0  0  0  0
 12 11  1  0  0  0  0
 13 14  1  6  0  0  0
 15 13  1  0  0  0  0
 16 17  1  6  0  0  0
 16 15  1  0  0  0  0
 18  2  1  1  0  0  0
 18 19  1  0  0  0  0
 18 16  1  0  0  0  0
 19 20  1  6  0  0  0
 19 21  1  0  0  0  0
 21 22  1  1  0  0  0
 21 13  1  0  0  0  0
 23 20  1  6  0  0  0
 23 29  1  0  0  0  0
 24 25  1  1  0  0  0
 24 26  1  0  0  0  0
 24 23  1  0  0  0  0
 26 27  1  1  0  0  0
 26 28  1  0  0  0  0
 28 30  1  1  0  0  0
 29 28  1  0  0  0  0
 30 31  1  0  0  0  0
 32 27  1  1  0  0  0
 32 40  1  0  0  0  0
 33 35  1  0  0  0  0
 33 32  1  0  0  0  0
 33 34  1  1  0  0  0
 35 36  1  6  0  0  0
 35 37  1  0  0  0  0
 37 38  1  1  0  0  0
 37 39  1  0  0  0  0
 39 41  1  1  0  0  0
 40 39  1  0  0  0  0
 41 42  1  0  0  0  0
M  END
>  <CHROM.1>
-169.51464234,-70.64460721,-164.25968178,148.99888212,169.54766239,83.51988893
-164.24885376,-161.02031045,-64.19800144,-2.65566320,13.45096434,36.60281010
-1.43338691,-0.36624107,-3.03627016

>  <Name>
lig.pdb

>  <RI>
0

>  <Rbt.Current_Directory>
/home/itssahil/PROJECTS/Mol_Feturizer/New_Systems/rnas/4wcr

>  <Rbt.Executable>
rbdock ($Id: //depot/dev/client3/rdock/2013.1/src/exe/rbdock.cxx#4 $)

>  <Rbt.Library>
libRbt.so (2013.1, Build901 2013/11/27)

>  <Rbt.Parameter_File>
/export/apps/rDock/src/rDock_2013.1_src/data/scripts/dock_solv.prm

>  <Rbt.Receptor>
prm/pocket_docking_2.prm

>  <SCORE>
-6.25376

>  <SCORE.INTER>
-2.0806

>  <SCORE.INTER.CONST>
1

>  <SCORE.INTER.POLAR>
0

>  <SCORE.INTER.ROT>
9

>  <SCORE.INTER.SOLV>
19.6111

>  <SCORE.INTER.VDW>
-17.5241

>  <SCORE.INTER.norm>
-0.0495381

>  <SCORE.INTRA>
-5.28073

>  <SCORE.INTRA.DIHEDRAL>
-4.65359

>  <SCORE.INTRA.DIHEDRAL.0>
16.2863

>  <SCORE.INTRA.POLAR>
0

>  <SCORE.INTRA.POLAR.0>
0

>  <SCORE.INTRA.REPUL>
-0.314433

>  <SCORE.INTRA.REPUL.0>
0.314433

>  <SCORE.INTRA.SOLV>
-3.4535

>  <SCORE.INTRA.SOLV.lig_0>
-103.824

>  <SCORE.INTRA.VDW>
0.344978

>  <SCORE.INTRA.VDW.0>
-5.30945

>  <SCORE.INTRA.norm>
-0.125732

>  <SCORE.RESTR>
1.10757

>  <SCORE.RESTR.CAVITY>
1.10757

>  <SCORE.RESTR.norm>
0.0263707

>  <SCORE.SYSTEM>
0

>  <SCORE.SYSTEM.CONST>
0

>  <SCORE.SYSTEM.DIHEDRAL>
0

>  <SCORE.SYSTEM.SOLV>
0

>  <SCORE.SYSTEM.norm>
0

>  <SCORE.heavy>
42

>  <SCORE.norm>
-0.148899

>  <RMSD>
1.437

$$$$
lig.pdb
 OpenBabel11021811513D
libRbt.so/2013.1/901 2013/11/27
 42 45  0  0  0  0  0  0  0  0999 V2000
   -1.1724   16.3637   36.2664 C   0  0  2  0  0  0  0  0  0  0  0  0
   -1.9702   17.0768   37.2625 O   0  0  0  0  0  0  0  0  0  0  0  0
    0.3512   16.5848   36.6781 C   0  0  2  0  0  0  0  0  0  0  0  0
    0.6106   16.0059   37.9992 N   0  0  0  0  0  0  0  0  0  0  0  0
    0.6765   18.1570   36.6301 C   0  0  1  0  0  0  0  0  0  0  0  0
    2.0514   18.4153   36.9845 O   0  0  0  0  0  0  0  0  0  0  0  0
    0.3578   18.6437   35.2060 C   0  0  2  0  0  0  0  0  0  0  0  0
    0.6260   20.0023   35.1278 O   0  0  0  0  0  0  0  0  0  0  0  0
   -1.1712   18.3440   34.8584 C   0  0  2  0  0  0  0  0  0  0  0  0
   -1.4574   16.9421   34.9368 O   0  0  0  0  0  0  0  0  0  0  0  0
   -1.5299   18.7844   33.4675 C   0  0  0  0  0  0  0  0  0  0  0  0
   -2.9458   18.6612   33.3268 O   0  0  0  0  0  0  0  0  0  0  0  0
   -6.1514   16.9030   38.7659 C   0  0  2  0  0  0  0  0  0  0  0  0
   -7.5973   16.9407   38.7953 N   0  0  0  0  0  0  0  0  0  0  0  0
   -5.5842   18.2471   38.1654 C   0  0  0  0  0  0  0  0  0  0  0  0
   -4.0158   18.2297   38.1185 C   0  0  2  0  0  0  0  0  0  0  0  0
   -3.5323   19.4865   37.5507 N   0  0  0  0  0  0  0  0  0  0  0  0
   -3.4464   17.0226   37.2484 C   0  0  2  0  0  0  0  0  0  0  0  0
   -3.9836   15.7032   37.8749 C   0  0  2  0  0  0  0  0  0  0  0  0
   -3.3944   14.6178   37.0045 O   0  0  0  0  0  0  0  0  0  0  0  0
   -5.6106   15.6992   37.8589 C   0  0  1  0  0  0  0  0  0  0  0  0
   -6.2312   14.5261   38.4760 O   0  0  0  0  0  0  0  0  0  0  0  0
   -3.7183   13.3715   37.4725 C   0  0  1  0  0  0  0  0  0  0  0  0
   -2.9829   12.2952   36.8003 C   0  0  2  0  0  0  0  0  0  0  0  0
   -3.5093   12.1699   35.5182 O   0  0  0  0  0  0  0  0  0  0  0  0
   -3.1419   11.1440   37.8165 C   0  0  2  0  0  0  0  0  0  0  0  0
   -3.8471   10.0814   37.1359 O   0  0  0  0  0  0  0  0  0  0  0  0
   -3.9343   11.7297   38.9385 C   0  0  2  0  0  0  0  0  0  0  0  0
   -3.4195   13.1051   38.8328 O   0  0  0  0  0  0  0  0  0  0  0  0
   -3.5363   11.1029   40.3252 C   0  0  0  0  0  0  0  0  0  0  0  0
   -3.7276    9.6578   40.3911 O   0  0  0  0  0  0  0  0  0  0  0  0
   -3.0820    9.2887   36.1783 C   0  0  2  0  0  0  0  0  0  0  0  0
   -4.0747    8.2106   35.4952 C   0  0  2  0  0  0  0  0  0  0  0  0
   -4.6820    7.3534   36.5643 N   0  0  0  0  0  0  0  0  0  0  0  0
   -3.2256    7.3448   34.4401 C   0  0  1  0  0  0  0  0  0  0  0  0
   -2.6778    8.2748   33.4568 O   0  0  0  0  0  0  0  0  0  0  0  0
   -2.0621    6.5676   35.2059 C   0  0  2  0  0  0  0  0  0  0  0  0
   -2.6942    5.6394   36.1698 O   0  0  0  0  0  0  0  0  0  0  0  0
   -1.1071    7.6717   35.9345 C   0  0  1  0  0  0  0  0  0  0  0  0
   -1.9350    8.5205   36.8665 O   0  0  0  0  0  0  0  0  0  0  0  0
    0.0382    6.9418   36.7118 C   0  0  0  0  0  0  0  0  0  0  0  0
    0.9288    7.8863   37.4547 N   0  0  0  0  0  0  0  0  0  0  0  0
  1  3  1  0  0  0  0
  1  2  1  1  0  0  0
  3  4  1  1  0  0  0
  3  5  1  0  0  0  0
  5  6  1  6  0  0  0
  7  8  1  1  0  0  0
  7  5  1  0  0  0  0
  9 11  1  6  0  0  0
  9  7  1  0  0  0  0
 10  9  1  0  0  0  0
 10  1  1  0  0  0  0
 12 11  1  0  0  0  0
 13 14  1  6  0  0  0
 15 13  1  0  0  0  0
 16 17  1  6  0  0  0
 16 15  1  0  0  0  0
 18  2  1  1  0  0  0
 18 19  1  0  0  0  0
 18 16  1  0  0  0  0
 19 20  1  6  0  0  0
 19 21  1  0  0  0  0
 21 22  1  1  0  0  0
 21 13  1  0  0  0  0
 23 20  1  6  0  0  0
 23 29  1  0  0  0  0
 24 25  1  6  0  0  0
 24 26  1  0  0  0  0
 24 23  1  0  0  0  0
 26 27  1  6  0  0  0
 26 28  1  0  0  0  0
 28 30  1  1  0  0  0
 29 28  1  0  0  0  0
 30 31  1  0  0  0  0
 32 27  1  1  0  0  0
 32 40  1  0  0  0  0
 33 35  1  0  0  0  0
 33 32  1  0  0  0  0
 33 34  1  1  0  0  0
 35 36  1  6  0  0  0
 35 37  1  0  0  0  0
 37 38  1  1  0  0  0
 37 39  1  0  0  0  0
 39 41  1  1  0  0  0
 40 39  1  0  0  0  0
 41 42  1  0  0  0  0
M  END
>  <CHROM.1>
-176.12757321,-171.43813261,-161.97181035,176.70987819,-170.07726339,75.67325444
-59.29336324,-177.57063159,-177.71560946,-2.64649663,13.55470552,36.80669277
-1.50346306,-0.50798107,-3.11691602

>  <Name>
lig.pdb

>  <RI>
0

>  <Rbt.Current_Directory>
/home/itssahil/PROJECTS/Mol_Feturizer/New_Systems/rnas/4wcr

>  <Rbt.Executable>
rbdock ($Id: //depot/dev/client3/rdock/2013.1/src/exe/rbdock.cxx#4 $)

>  <Rbt.Library>
libRbt.so (2013.1, Build901 2013/11/27)

>  <Rbt.Parameter_File>
/export/apps/rDock/src/rDock_2013.1_src/data/scripts/dock_solv.prm

>  <Rbt.Receptor>
prm/pocket_docking_3.prm

>  <SCORE>
-11.545

>  <SCORE.INTER>
-2.1371

>  <SCORE.INTER.CONST>
1

>  <SCORE.INTER.POLAR>
0

>  <SCORE.INTER.ROT>
9

>  <SCORE.INTER.SOLV>
18.0474

>  <SCORE.INTER.VDW>
-17.0405

>  <SCORE.INTER.norm>
-0.0508832

>  <SCORE.INTRA>
-9.4125

>  <SCORE.INTRA.DIHEDRAL>
-12.2268

>  <SCORE.INTRA.DIHEDRAL.0>
16.2863

>  <SCORE.INTRA.POLAR>
0

>  <SCORE.INTRA.POLAR.0>
0

>  <SCORE.INTRA.REPUL>
-0.314433

>  <SCORE.INTRA.REPUL.0>
0.314433

>  <SCORE.INTRA.SOLV>
-5.70994

>  <SCORE.INTRA.SOLV.lig_0>
-103.824

>  <SCORE.INTRA.VDW>
1.12804

>  <SCORE.INTRA.VDW.0>
-5.30945

>  <SCORE.INTRA.norm>
-0.224107

>  <SCORE.RESTR>
0.00463351

>  <SCORE.RESTR.CAVITY>
0.00463351

>  <SCORE.RESTR.norm>
0.000110322

>  <SCORE.SYSTEM>
0

>  <SCORE.SYSTEM.CONST>
0

>  <SCORE.SYSTEM.DIHEDRAL>
0

>  <SCORE.SYSTEM.SOLV>
0

>  <SCORE.SYSTEM.norm>
0

>  <SCORE.heavy>
42

>  <SCORE.norm>
-0.27488

>  <RMSD>
1.516

$$$$
lig.pdb
 OpenBabel11021811513D
libRbt.so/2013.1/901 2013/11/27
 42 45  0  0  0  0  0  0  0  0999 V2000
   -1.1798   16.7207   35.9123 C   0  0  2  0  0  0  0  0  0  0  0  0
   -1.9421   17.3065   37.0136 O   0  0  0  0  0  0  0  0  0  0  0  0
    0.3573   16.8897   36.2983 C   0  0  2  0  0  0  0  0  0  0  0  0
    0.6567   16.1532   37.5294 N   0  0  0  0  0  0  0  0  0  0  0  0
    0.6872   18.4559   36.4326 C   0  0  1  0  0  0  0  0  0  0  0  0
    2.0738   18.6688   36.7711 O   0  0  0  0  0  0  0  0  0  0  0  0
    0.3247   19.1134   35.0899 C   0  0  2  0  0  0  0  0  0  0  0  0
    0.5957   20.4713   35.1700 O   0  0  0  0  0  0  0  0  0  0  0  0
   -1.2159   18.8587   34.7581 C   0  0  2  0  0  0  0  0  0  0  0  0
   -1.5051   17.4576   34.6734 O   0  0  0  0  0  0  0  0  0  0  0  0
   -1.6175   19.4661   33.4439 C   0  0  0  0  0  0  0  0  0  0  0  0
   -1.5705   20.8858   33.5916 O   0  0  0  0  0  0  0  0  0  0  0  0
   -6.0261   16.9029   38.7256 C   0  0  2  0  0  0  0  0  0  0  0  0
   -7.4687   16.8835   38.8331 N   0  0  0  0  0  0  0  0  0  0  0  0
   -5.5412   18.2940   38.1612 C   0  0  0  0  0  0  0  0  0  0  0  0
   -3.9781   18.3392   38.0307 C   0  0  2  0  0  0  0  0  0  0  0  0
   -3.5718   19.6385   37.4991 N   0  0  0  0  0  0  0  0  0  0  0  0
   -3.4140   17.1962   37.0749 C   0  0  2  0  0  0  0  0  0  0  0  0
   -3.8684   15.8297   37.6648 C   0  0  2  0  0  0  0  0  0  0  0  0
   -3.2889   14.8090   36.7135 O   0  0  0  0  0  0  0  0  0  0  0  0
   -5.4926   15.7638   37.7346 C   0  0  1  0  0  0  0  0  0  0  0  0
   -6.0361   14.5406   38.3266 O   0  0  0  0  0  0  0  0  0  0  0  0
   -3.3046   13.5522   37.2591 C   0  0  1  0  0  0  0  0  0  0  0  0
   -2.9383   12.5041   36.3008 C   0  0  2  0  0  0  0  0  0  0  0  0
   -4.0064   12.3532   35.4215 O   0  0  0  0  0  0  0  0  0  0  0  0
   -2.5518   11.3510   37.2517 C   0  0  2  0  0  0  0  0  0  0  0  0
   -3.4559   10.2585   36.9714 O   0  0  0  0  0  0  0  0  0  0  0  0
   -2.7359   11.9083   38.6247 C   0  0  2  0  0  0  0  0  0  0  0  0
   -2.3849   13.3029   38.3090 O   0  0  0  0  0  0  0  0  0  0  0  0
   -1.7030   11.3028   39.6450 C   0  0  0  0  0  0  0  0  0  0  0  0
   -1.7184    9.8447   39.6981 O   0  0  0  0  0  0  0  0  0  0  0  0
   -2.9037    9.1107   36.2583 C   0  0  2  0  0  0  0  0  0  0  0  0
   -3.6165    9.0147   34.8103 C   0  0  2  0  0  0  0  0  0  0  0  0
   -5.0984    8.8898   34.9978 N   0  0  0  0  0  0  0  0  0  0  0  0
   -3.0004    7.7512   34.0305 C   0  0  1  0  0  0  0  0  0  0  0  0
   -1.5624    7.9737   33.9118 O   0  0  0  0  0  0  0  0  0  0  0  0
   -3.3096    6.4189   34.8514 C   0  0  2  0  0  0  0  0  0  0  0  0
   -4.7791    6.2562   34.9159 O   0  0  0  0  0  0  0  0  0  0  0  0
   -2.6304    6.5622   36.3278 C   0  0  1  0  0  0  0  0  0  0  0  0
   -3.1678    7.7927   37.0148 O   0  0  0  0  0  0  0  0  0  0  0  0
   -2.9294    5.2769   37.1687 C   0  0  0  0  0  0  0  0  0  0  0  0
   -2.4293    4.0273   36.5162 N   0  0  0  0  0  0  0  0  0  0  0  0
  1  3  1  0  0  0  0
  1  2  1  1  0  0  0
  3  4  1  1  0  0  0
  3  5  1  0  0  0  0
  5  6  1  6  0  0  0
  7  8  1  1  0  0  0
  7  5  1  0  0  0  0
  9 11  1  6  0  0  0
  9  7  1  0  0  0  0
 10  9  1  0  0  0  0
 10  1  1  0  0  0  0
 12 11  1  0  0  0  0
 13 14  1  6  0  0  0
 15 13  1  0  0  0  0
 16 17  1  6  0  0  0
 16 15  1  0  0  0  0
 18  2  1  1  0  0  0
 18 19  1  0  0  0  0
 18 16  1  0  0  0  0
 19 20  1  6  0  0  0
 19 21  1  0  0  0  0
 21 22  1  1  0  0  0
 21 13  1  0  0  0  0
 23 20  1  6  0  0  0
 23 29  1  0  0  0  0
 24 25  1  6  0  0  0
 24 26  1  0  0  0  0
 24 23  1  0  0  0  0
 26 27  1  1  0  0  0
 26 28  1  0  0  0  0
 28 30  1  1  0  0  0
 29 28  1  0  0  0  0
 30 31  1  0  0  0  0
 32 27  1  1  0  0  0
 32 40  1  0  0  0  0
 33 35  1  0  0  0  0
 33 32  1  0  0  0  0
 33 34  1  1  0  0  0
 35 36  1  1  0  0  0
 35 37  1  0  0  0  0
 37 38  1  1  0  0  0
 37 39  1  0  0  0  0
 39 41  1  1  0  0  0
 40 39  1  0  0  0  0
 41 42  1  0  0  0  0
M  END
>  <CHROM.1>
-173.05567801,-68.38321527,-159.26837306,164.68315113,171.44092224,107.06955717
-55.02877203,-114.50039126,58.11748991,-2.68043831,13.66663619,36.55592007
-1.42174385,-0.51678654,-3.06611238

>  <Name>
lig.pdb

>  <RI>
0

>  <Rbt.Current_Directory>
/home/itssahil/PROJECTS/Mol_Feturizer/New_Systems/rnas/4wcr

>  <Rbt.Executable>
rbdock ($Id: //depot/dev/client3/rdock/2013.1/src/exe/rbdock.cxx#4 $)

>  <Rbt.Library>
libRbt.so (2013.1, Build901 2013/11/27)

>  <Rbt.Parameter_File>
/export/apps/rDock/src/rDock_2013.1_src/data/scripts/dock_solv.prm

>  <Rbt.Receptor>
prm/pocket_docking_2.prm

>  <SCORE>
-3.55857

>  <SCORE.INTER>
-1.02927

>  <SCORE.INTER.CONST>
1

>  <SCORE.INTER.POLAR>
0

>  <SCORE.INTER.ROT>
9

>  <SCORE.INTER.SOLV>
17.8905

>  <SCORE.INTER.VDW>
-16.2497

>  <SCORE.INTER.norm>
-0.0245064

>  <SCORE.INTRA>
-2.53112

>  <SCORE.INTRA.DIHEDRAL>
1.45795

>  <SCORE.INTRA.DIHEDRAL.0>
16.2863

>  <SCORE.INTRA.POLAR>
0

>  <SCORE.INTRA.POLAR.0>
0

>  <SCORE.INTRA.REPUL>
-0.314433

>  <SCORE.INTRA.REPUL.0>
0.314433

>  <SCORE.INTRA.SOLV>
-4.10431

>  <SCORE.INTRA.SOLV.lig_0>
-103.824

>  <SCORE.INTRA.VDW>
0.364226

>  <SCORE.INTRA.VDW.0>
-5.30945

>  <SCORE.INTRA.norm>
-0.0602648

>  <SCORE.RESTR>
0.00182604

>  <SCORE.RESTR.CAVITY>
0.00182604

>  <SCORE.RESTR.norm>
4.34771e-05

>  <SCORE.SYSTEM>
0

>  <SCORE.SYSTEM.CONST>
0

>  <SCORE.SYSTEM.DIHEDRAL>
0

>  <SCORE.SYSTEM.SOLV>
0

>  <SCORE.SYSTEM.norm>
0

>  <SCORE.heavy>
42

>  <SCORE.norm>
-0.0847277

>  <RMSD>
1.529

$$$$
lig.pdb
 OpenBabel11021811513D
libRbt.so/2013.1/901 2013/11/27
 42 45  0  0  0  0  0  0  0  0999 V2000
   -0.6617   16.7159   36.2305 C   0  0  2  0  0  0  0  0  0  0  0  0
   -1.5395   17.3387   37.2199 O   0  0  0  0  0  0  0  0  0  0  0  0
    0.7943   17.3071   36.4955 C   0  0  2  0  0  0  0  0  0  0  0  0
    1.2553   16.9419   37.8379 N   0  0  0  0  0  0  0  0  0  0  0  0
    0.7531   18.8982   36.2800 C   0  0  1  0  0  0  0  0  0  0  0  0
    2.0528   19.4869   36.4969 O   0  0  0  0  0  0  0  0  0  0  0  0
    0.2492   19.1500   34.8486 C   0  0  2  0  0  0  0  0  0  0  0  0
    0.1989   20.5182   34.6269 O   0  0  0  0  0  0  0  0  0  0  0  0
   -1.1906   18.4883   34.6547 C   0  0  2  0  0  0  0  0  0  0  0  0
   -1.1479   17.0740   34.8818 O   0  0  0  0  0  0  0  0  0  0  0  0
   -1.7210   18.6898   33.2635 C   0  0  0  0  0  0  0  0  0  0  0  0
   -3.0032   18.0646   33.1950 O   0  0  0  0  0  0  0  0  0  0  0  0
   -5.5797   16.3528   38.7940 C   0  0  2  0  0  0  0  0  0  0  0  0
   -7.0134   16.1732   38.8663 N   0  0  0  0  0  0  0  0  0  0  0  0
   -5.2376   17.8337   38.3709 C   0  0  0  0  0  0  0  0  0  0  0  0
   -3.6865   18.0536   38.2809 C   0  0  2  0  0  0  0  0  0  0  0  0
   -3.4132   19.4322   37.8803 N   0  0  0  0  0  0  0  0  0  0  0  0
   -2.9921   17.0702   37.2372 C   0  0  2  0  0  0  0  0  0  0  0  0
   -3.3068   15.6146   37.6886 C   0  0  2  0  0  0  0  0  0  0  0  0
   -2.6101   14.7535   36.6611 O   0  0  0  0  0  0  0  0  0  0  0  0
   -4.9157   15.3735   37.7150 C   0  0  1  0  0  0  0  0  0  0  0  0
   -5.3342   14.0502   38.1796 O   0  0  0  0  0  0  0  0  0  0  0  0
   -2.5504   13.4451   37.0635 C   0  0  1  0  0  0  0  0  0  0  0  0
   -1.8951   12.5712   36.0847 C   0  0  2  0  0  0  0  0  0  0  0  0
   -2.7730   12.4115   35.0168 O   0  0  0  0  0  0  0  0  0  0  0  0
   -1.5233   11.3600   36.9667 C   0  0  2  0  0  0  0  0  0  0  0  0
   -2.2163   10.2162   36.4180 O   0  0  0  0  0  0  0  0  0  0  0  0
   -2.0047   11.7190   38.3338 C   0  0  2  0  0  0  0  0  0  0  0  0
   -1.7931   13.1725   38.2308 O   0  0  0  0  0  0  0  0  0  0  0  0
   -1.0849   11.1116   39.4561 C   0  0  0  0  0  0  0  0  0  0  0  0
    0.2840   11.6160   39.4279 O   0  0  0  0  0  0  0  0  0  0  0  0
   -1.7908    8.9001   36.8846 C   0  0  2  0  0  0  0  0  0  0  0  0
   -2.5373    7.7745   35.9958 C   0  0  2  0  0  0  0  0  0  0  0  0
   -4.0204    7.9531   36.1188 N   0  0  0  0  0  0  0  0  0  0  0  0
   -2.0606    6.3291   36.5132 C   0  0  1  0  0  0  0  0  0  0  0  0
   -0.6104    6.2686   36.3560 O   0  0  0  0  0  0  0  0  0  0  0  0
   -2.4806    6.1476   38.0413 C   0  0  2  0  0  0  0  0  0  0  0  0
   -3.9575    6.2064   38.1162 O   0  0  0  0  0  0  0  0  0  0  0  0
   -1.7625    7.3276   38.9096 C   0  0  1  0  0  0  0  0  0  0  0  0
   -2.1658    8.6744   38.3636 O   0  0  0  0  0  0  0  0  0  0  0  0
   -2.1675    7.1903   40.4148 C   0  0  0  0  0  0  0  0  0  0  0  0
   -1.5373    6.0080   41.0798 N   0  0  0  0  0  0  0  0  0  0  0  0
  1  3  1  0  0  0  0
  1  2  1  1  0  0  0
  3  4  1  1  0  0  0
  3  5  1  0  0  0  0
  5  6  1  6  0  0  0
  7  8  1  1  0  0  0
  7  5  1  0  0  0  0
  9 11  1  6  0  0  0
  9  7  1  0  0  0  0
 10  9  1  0  0  0  0
 10  1  1  0  0  0  0
 12 11  1  0  0  0  0
 13 14  1  6  0  0  0
 15 13  1  0  0  0  0
 16 17  1  6  0  0  0
 16 15  1  0  0  0  0
 18  2  1  1  0  0  0
 18 19  1  0  0  0  0
 18 16  1  0  0  0  0
 19 20  1  6  0  0  0
 19 21  1  0  0  0  0
 21 22  1  1  0  0  0
 21 13  1  0  0  0  0
 23 20  1  6  0  0  0
 23 29  1  0  0  0  0
 24 25  1  6  0  0  0
 24 26  1  0  0  0  0
 24 23  1  0  0  0  0
 26 27  1  6  0  0  0
 26 28  1  0  0  0  0
 28 30  1  1  0  0  0
 29 28  1  0  0  0  0
 30 31  1  0  0  0  0
 32 27  1  6  0  0  0
 32 40  1  0  0  0  0
 33 35  1  0  0  0  0
 33 32  1  0  0  0  0
 33 34  1  1  0  0  0
 35 36  1  1  0  0  0
 35 37  1  0  0  0  0
 37 38  1  6  0  0  0
 37 39  1  0  0  0  0
 39 41  1  1  0  0  0
 40 39  1  0  0  0  0
 41 42  1  0  0  0  0
M  END
>  <CHROM.1>
177.23604355,179.97513623,-171.72076362,167.26855979,179.28883826,166.32030461
62.98078081,-171.89201053,71.23367724,-2.09700610,13.56465786,37.11291700
-1.49582338,-0.39891114,2.99015331

>  <Name>
lig.pdb

>  <RI>
0

>  <Rbt.Current_Directory>
/home/itssahil/PROJECTS/Mol_Feturizer/New_Systems/rnas/4wcr

>  <Rbt.Executable>
rbdock ($Id: //depot/dev/client3/rdock/2013.1/src/exe/rbdock.cxx#4 $)

>  <Rbt.Library>
libRbt.so (2013.1, Build901 2013/11/27)

>  <Rbt.Parameter_File>
/export/apps/rDock/src/rDock_2013.1_src/data/scripts/dock_solv.prm

>  <Rbt.Receptor>
prm/pocket_docking_8.prm

>  <SCORE>
-11.7919

>  <SCORE.INTER>
-1.85103

>  <SCORE.INTER.CONST>
1

>  <SCORE.INTER.POLAR>
0

>  <SCORE.INTER.ROT>
9

>  <SCORE.INTER.SOLV>
19.2581

>  <SCORE.INTER.VDW>
-17.2534

>  <SCORE.INTER.norm>
-0.0440722

>  <SCORE.INTRA>
-9.94086

>  <SCORE.INTRA.DIHEDRAL>
-12.9588

>  <SCORE.INTRA.DIHEDRAL.0>
16.2863

>  <SCORE.INTRA.POLAR>
0

>  <SCORE.INTRA.POLAR.0>
0

>  <SCORE.INTRA.REPUL>
-0.314433

>  <SCORE.INTRA.REPUL.0>
0.314433

>  <SCORE.INTRA.SOLV>
-5.75369

>  <SCORE.INTRA.SOLV.lig_0>
-103.824

>  <SCORE.INTRA.VDW>
0.987541

>  <SCORE.INTRA.VDW.0>
-5.30945

>  <SCORE.INTRA.norm>
-0.236687

>  <SCORE.RESTR>
0

>  <SCORE.RESTR.CAVITY>
0

>  <SCORE.RESTR.norm>
0

>  <SCORE.SYSTEM>
0

>  <SCORE.SYSTEM.CONST>
0

>  <SCORE.SYSTEM.DIHEDRAL>
0

>  <SCORE.SYSTEM.SOLV>
0

>  <SCORE.SYSTEM.norm>
0

>  <SCORE.heavy>
42

>  <SCORE.norm>
-0.280759

>  <RMSD>
1.573

$$$$
lig.pdb
 OpenBabel11021811513D
libRbt.so/2013.1/901 2013/11/27
 42 45  0  0  0  0  0  0  0  0999 V2000
   -0.8702   16.7814   35.6930 C   0  0  2  0  0  0  0  0  0  0  0  0
   -1.7150   17.2269   36.7997 O   0  0  0  0  0  0  0  0  0  0  0  0
    0.6252   17.1537   36.0994 C   0  0  2  0  0  0  0  0  0  0  0  0
    1.0158   16.4355   37.3157 N   0  0  0  0  0  0  0  0  0  0  0  0
    0.7317   18.7467   36.2747 C   0  0  1  0  0  0  0  0  0  0  0  0
    2.0723   19.1427   36.6332 O   0  0  0  0  0  0  0  0  0  0  0  0
    0.2905   19.3808   34.9444 C   0  0  2  0  0  0  0  0  0  0  0  0
    0.3682   20.7608   35.0599 O   0  0  0  0  0  0  0  0  0  0  0  0
   -1.1968   18.9217   34.5900 C   0  0  2  0  0  0  0  0  0  0  0  0
   -1.2864   17.4966   34.4687 O   0  0  0  0  0  0  0  0  0  0  0  0
   -1.6698   19.5000   33.2865 C   0  0  0  0  0  0  0  0  0  0  0  0
   -3.0232   19.0858   33.0958 O   0  0  0  0  0  0  0  0  0  0  0  0
   -5.6380   15.8021   38.3336 C   0  0  2  0  0  0  0  0  0  0  0  0
   -7.0619   15.5705   38.4430 N   0  0  0  0  0  0  0  0  0  0  0  0
   -5.3443   17.3489   38.2348 C   0  0  0  0  0  0  0  0  0  0  0  0
   -3.8049   17.6269   38.1107 C   0  0  2  0  0  0  0  0  0  0  0  0
   -3.5770   19.0673   38.0146 N   0  0  0  0  0  0  0  0  0  0  0  0
   -3.1597   16.9206   36.8366 C   0  0  2  0  0  0  0  0  0  0  0  0
   -3.4248   15.3928   36.9673 C   0  0  2  0  0  0  0  0  0  0  0  0
   -2.7782   14.8021   35.7361 O   0  0  0  0  0  0  0  0  0  0  0  0
   -5.0254   15.1067   37.0277 C   0  0  1  0  0  0  0  0  0  0  0  0
   -5.3952   13.7019   37.2066 O   0  0  0  0  0  0  0  0  0  0  0  0
   -2.6852   13.4381   35.8264 C   0  0  1  0  0  0  0  0  0  0  0  0
   -2.0047   12.8303   34.6781 C   0  0  2  0  0  0  0  0  0  0  0  0
   -2.8753   12.8995   33.5946 O   0  0  0  0  0  0  0  0  0  0  0  0
   -1.6033   11.4579   35.2600 C   0  0  2  0  0  0  0  0  0  0  0  0
   -2.2647   10.4547   34.4564 O   0  0  0  0  0  0  0  0  0  0  0  0
   -2.0974   11.4796   36.6690 C   0  0  2  0  0  0  0  0  0  0  0  0
   -1.9238   12.9224   36.9057 O   0  0  0  0  0  0  0  0  0  0  0  0
   -1.1648   10.6527   37.6286 C   0  0  0  0  0  0  0  0  0  0  0  0
   -1.5911   10.6774   39.0239 O   0  0  0  0  0  0  0  0  0  0  0  0
   -2.0107    9.0593   34.8017 C   0  0  2  0  0  0  0  0  0  0  0  0
   -2.4951    8.1297   33.5707 C   0  0  2  0  0  0  0  0  0  0  0  0
   -3.9493    8.3793   33.3072 N   0  0  0  0  0  0  0  0  0  0  0  0
   -2.2086    6.5959   33.9572 C   0  0  1  0  0  0  0  0  0  0  0  0
   -0.7742    6.4699   34.1985 O   0  0  0  0  0  0  0  0  0  0  0  0
   -3.0458    6.2116   35.2595 C   0  0  2  0  0  0  0  0  0  0  0  0
   -4.4826    6.3500   34.9327 O   0  0  0  0  0  0  0  0  0  0  0  0
   -2.5819    7.1997   36.4721 C   0  0  1  0  0  0  0  0  0  0  0  0
   -2.7917    8.6361   36.0627 O   0  0  0  0  0  0  0  0  0  0  0  0
   -3.3975    6.8617   37.7640 C   0  0  0  0  0  0  0  0  0  0  0  0
   -4.8571    7.1564   37.6224 N   0  0  0  0  0  0  0  0  0  0  0  0
  1  3  1  0  0  0  0
  1  2  1  1  0  0  0
  3  4  1  1  0  0  0
  3  5  1  0  0  0  0
  5  6  1  6  0  0  0
  7  8  1  1  0  0  0
  7  5  1  0  0  0  0
  9 11  1  6  0  0  0
  9  7  1  0  0  0  0
 10  9  1  0  0  0  0
 10  1  1  0  0  0  0
 12 11  1  0  0  0  0
 13 14  1  6  0  0  0
 15 13  1  0  0  0  0
 16 17  1  6  0  0  0
 16 15  1  0  0  0  0
 18  2  1  1  0  0  0
 18 19  1  0  0  0  0
 18 16  1  0  0  0  0
 19 20  1  6  0  0  0
 19 21  1  0  0  0  0
 21 22  1  1  0  0  0
 21 13  1  0  0  0  0
 23 20  1  6  0  0  0
 23 29  1  0  0  0  0
 24 25  1  6  0  0  0
 24 26  1  0  0  0  0
 24 23  1  0  0  0  0
 26 27  1  6  0  0  0
 26 28  1  0  0  0  0
 28 30  1  1  0  0  0
 29 28  1  0  0  0  0
 30 31  1  0  0  0  0
 32 27  1  6  0  0  0
 32 40  1  0  0  0  0
 33 35  1  0  0  0  0
 33 32  1  0  0  0  0
 33 34  1  1  0  0  0
 35 36  1  1  0  0  0
 35 37  1  0  0  0  0
 37 38  1  6  0  0  0
 37 39  1  0  0  0  0
 39 41  1  1  0  0  0
 40 39  1  0  0  0  0
 41 42  1  0  0  0  0
M  END
>  <CHROM.1>
-173.59975675,-177.19220679,-176.14664242,167.79029414,-177.25813490,178.70121299
178.41842962,-164.70162963,-65.64010221,-2.38553604,13.56901555,35.96540447
-1.40716629,-0.57190040,-3.01567444

>  <Name>
lig.pdb

>  <RI>
0

>  <Rbt.Current_Directory>
/home/itssahil/PROJECTS/Mol_Feturizer/New_Systems/rnas/4wcr

>  <Rbt.Executable>
rbdock ($Id: //depot/dev/client3/rdock/2013.1/src/exe/rbdock.cxx#4 $)

>  <Rbt.Library>
libRbt.so (2013.1, Build901 2013/11/27)

>  <Rbt.Parameter_File>
/export/apps/rDock/src/rDock_2013.1_src/data/scripts/dock_solv.prm

>  <Rbt.Receptor>
prm/pocket_docking_3.prm

>  <SCORE>
-10.686

>  <SCORE.INTER>
-1.06749

>  <SCORE.INTER.CONST>
1

>  <SCORE.INTER.POLAR>
0

>  <SCORE.INTER.ROT>
9

>  <SCORE.INTER.SOLV>
22.2455

>  <SCORE.INTER.VDW>
-17.7268

>  <SCORE.INTER.norm>
-0.0254165

>  <SCORE.INTRA>
-9.61847

>  <SCORE.INTRA.DIHEDRAL>
-13.4537

>  <SCORE.INTRA.DIHEDRAL.0>
16.2863

>  <SCORE.INTRA.POLAR>
0

>  <SCORE.INTRA.POLAR.0>
0

>  <SCORE.INTRA.REPUL>
-0.314433

>  <SCORE.INTRA.REPUL.0>
0.314433

>  <SCORE.INTRA.SOLV>
-4.57508

>  <SCORE.INTRA.SOLV.lig_0>
-103.824

>  <SCORE.INTRA.VDW>
0.968086

>  <SCORE.INTRA.VDW.0>
-5.30945

>  <SCORE.INTRA.norm>
-0.229011

>  <SCORE.RESTR>
0

>  <SCORE.RESTR.CAVITY>
0

>  <SCORE.RESTR.norm>
0

>  <SCORE.SYSTEM>
0

>  <SCORE.SYSTEM.CONST>
0

>  <SCORE.SYSTEM.DIHEDRAL>
0

>  <SCORE.SYSTEM.SOLV>
0

>  <SCORE.SYSTEM.norm>
0

>  <SCORE.heavy>
42

>  <SCORE.norm>
-0.254428

>  <RMSD>
1.589

$$$$
lig.pdb
 OpenBabel11021811513D
libRbt.so/2013.1/901 2013/11/27
 42 45  0  0  0  0  0  0  0  0999 V2000
   -1.2933   16.1859   36.3439 C   0  0  2  0  0  0  0  0  0  0  0  0
   -2.0426   16.9803   37.3158 O   0  0  0  0  0  0  0  0  0  0  0  0
    0.2373   16.2842   36.7771 C   0  0  2  0  0  0  0  0  0  0  0  0
    0.4267   15.7072   38.1108 N   0  0  0  0  0  0  0  0  0  0  0  0
    0.6954   17.8222   36.7105 C   0  0  1  0  0  0  0  0  0  0  0  0
    2.0818   17.9691   37.0834 O   0  0  0  0  0  0  0  0  0  0  0  0
    0.4405   18.3106   35.2742 C   0  0  2  0  0  0  0  0  0  0  0  0
    0.8241   19.6401   35.1798 O   0  0  0  0  0  0  0  0  0  0  0  0
   -1.1029   18.1356   34.9063 C   0  0  2  0  0  0  0  0  0  0  0  0
   -1.5082   16.7643   35.0011 O   0  0  0  0  0  0  0  0  0  0  0  0
   -1.4021   18.5816   33.5031 C   0  0  0  0  0  0  0  0  0  0  0  0
   -2.8188   18.5374   33.3283 O   0  0  0  0  0  0  0  0  0  0  0  0
   -6.2166   17.1320   38.8413 C   0  0  2  0  0  0  0  0  0  0  0  0
   -7.6577   17.2545   38.8737 N   0  0  0  0  0  0  0  0  0  0  0  0
   -5.5774   18.4055   38.1643 C   0  0  0  0  0  0  0  0  0  0  0  0
   -4.0129   18.2951   38.1129 C   0  0  2  0  0  0  0  0  0  0  0  0
   -3.4620   19.4883   37.4736 N   0  0  0  0  0  0  0  0  0  0  0  0
   -3.5195   17.0104   37.3100 C   0  0  2  0  0  0  0  0  0  0  0  0
   -4.1272   15.7613   38.0116 C   0  0  2  0  0  0  0  0  0  0  0  0
   -3.6071   14.5968   37.2015 O   0  0  0  0  0  0  0  0  0  0  0  0
   -5.7518   15.8502   38.0016 C   0  0  1  0  0  0  0  0  0  0  0  0
   -6.4345   14.7512   38.6858 O   0  0  0  0  0  0  0  0  0  0  0  0
   -3.8156   13.4065   37.8473 C   0  0  1  0  0  0  0  0  0  0  0  0
   -3.2821   12.2532   37.1148 C   0  0  2  0  0  0  0  0  0  0  0  0
   -4.1139   12.0349   36.0206 O   0  0  0  0  0  0  0  0  0  0  0  0
   -3.1928   11.1996   38.2396 C   0  0  2  0  0  0  0  0  0  0  0  0
   -4.0561   10.1056   37.8556 O   0  0  0  0  0  0  0  0  0  0  0  0
   -3.6735   11.9050   39.4647 C   0  0  2  0  0  0  0  0  0  0  0  0
   -3.1884   13.2489   39.1092 O   0  0  0  0  0  0  0  0  0  0  0  0
   -2.9472   11.3875   40.7605 C   0  0  0  0  0  0  0  0  0  0  0  0
   -1.5023   11.5903   40.7424 O   0  0  0  0  0  0  0  0  0  0  0  0
   -3.5780    9.2297   36.7901 C   0  0  2  0  0  0  0  0  0  0  0  0
   -4.7172    8.1238   36.4848 C   0  0  2  0  0  0  0  0  0  0  0  0
   -5.0111    7.3595   37.7403 N   0  0  0  0  0  0  0  0  0  0  0  0
   -4.1846    7.1663   35.3086 C   0  0  1  0  0  0  0  0  0  0  0  0
   -3.9248    8.0105   34.1461 O   0  0  0  0  0  0  0  0  0  0  0  0
   -2.8562    6.4251   35.7885 C   0  0  2  0  0  0  0  0  0  0  0  0
   -3.2024    5.5829   36.9551 O   0  0  0  0  0  0  0  0  0  0  0  0
   -1.7409    7.5611   36.1457 C   0  0  1  0  0  0  0  0  0  0  0  0
   -2.2865    8.4922   37.1993 O   0  0  0  0  0  0  0  0  0  0  0  0
   -0.4270    6.8683   36.6379 C   0  0  0  0  0  0  0  0  0  0  0  0
    0.6380    7.8475   37.0178 N   0  0  0  0  0  0  0  0  0  0  0  0
  1  3  1  0  0  0  0
  1  2  1  1  0  0  0
  3  4  1  1  0  0  0
  3  5  1  0  0  0  0
  5  6  1  6  0  0  0
  7  8  1  1  0  0  0
  7  5  1  0  0  0  0
  9 11  1  6  0  0  0
  9  7  1  0  0  0  0
 10  9  1  0  0  0  0
 10  1  1  0  0  0  0
 12 11  1  0  0  0  0
 13 14  1  6  0  0  0
 15 13  1  0  0  0  0
 16 17  1  6  0  0  0
 16 15  1  0  0  0  0
 18  2  1  1  0  0  0
 18 19  1  0  0  0  0
 18 16  1  0  0  0  0
 19 20  1  6  0  0  0
 19 21  1  0  0  0  0
 21 22  1  1  0  0  0
 21 13  1  0  0  0  0
 23 20  1  6  0  0  0
 23 29  1  0  0  0  0
 24 25  1  6  0  0  0
 24 26  1  0  0  0  0
 24 23  1  0  0  0  0
 26 27  1  6  0  0  0
 26 28  1  0  0  0  0
 28 30  1  1  0  0  0
 29 28  1  0  0  0  0
 30 31  1  0  0  0  0
 32 27  1  1  0  0  0
 32 40  1  0  0  0  0
 33 35  1  0  0  0  0
 33 32  1  0  0  0  0
 33 34  1  1  0  0  0
 35 36  1  6  0  0  0
 35 37  1  0  0  0  0
 37 38  1  1  0  0  0
 37 39  1  0  0  0  0
 39 41  1  1  0  0  0
 40 39  1  0  0  0  0
 41 42  1  0  0  0  0
M  END
>  <CHROM.1>
-173.79676469,-173.16718195,-160.89937580,167.15808362,-177.98073917,74.10992225
60.97818565,-177.71334325,-178.62844263,-2.76783116,13.54817046,37.07591376
-1.46146559,-0.43696903,-3.13783258

>  <Name>
lig.pdb

>  <RI>
0

>  <Rbt.Current_Directory>
/home/itssahil/PROJECTS/Mol_Feturizer/New_Systems/rnas/4wcr

>  <Rbt.Executable>
rbdock ($Id: //depot/dev/client3/rdock/2013.1/src/exe/rbdock.cxx#4 $)

>  <Rbt.Library>
libRbt.so (2013.1, Build901 2013/11/27)

>  <Rbt.Parameter_File>
/export/apps/rDock/src/rDock_2013.1_src/data/scripts/dock_solv.prm

>  <Rbt.Receptor>
prm/pocket_docking_3.prm

>  <SCORE>
-11.4535

>  <SCORE.INTER>
-1.97348

>  <SCORE.INTER.CONST>
1

>  <SCORE.INTER.POLAR>
0

>  <SCORE.INTER.ROT>
9

>  <SCORE.INTER.SOLV>
20.1467

>  <SCORE.INTER.VDW>
-17.6312

>  <SCORE.INTER.norm>
-0.0469875

>  <SCORE.INTRA>
-9.48134

>  <SCORE.INTRA.DIHEDRAL>
-11.9775

>  <SCORE.INTRA.DIHEDRAL.0>
16.2863

>  <SCORE.INTRA.POLAR>
0

>  <SCORE.INTRA.POLAR.0>
0

>  <SCORE.INTRA.REPUL>
-0.314433

>  <SCORE.INTRA.REPUL.0>
0.314433

>  <SCORE.INTRA.SOLV>
-5.69346

>  <SCORE.INTRA.SOLV.lig_0>
-103.824

>  <SCORE.INTRA.VDW>
0.926326

>  <SCORE.INTRA.VDW.0>
-5.30945

>  <SCORE.INTRA.norm>
-0.225746

>  <SCORE.RESTR>
0.0012939

>  <SCORE.RESTR.CAVITY>
0.0012939

>  <SCORE.RESTR.norm>
3.08072e-05

>  <SCORE.SYSTEM>
0

>  <SCORE.SYSTEM.CONST>
0

>  <SCORE.SYSTEM.DIHEDRAL>
0

>  <SCORE.SYSTEM.SOLV>
0

>  <SCORE.SYSTEM.norm>
0

>  <SCORE.heavy>
42

>  <SCORE.norm>
-0.272703

>  <RMSD>
1.608

$$$$
lig.pdb
 OpenBabel11021811513D
libRbt.so/2013.1/901 2013/11/27
 42 45  0  0  0  0  0  0  0  0999 V2000
   -1.5552   16.1907   35.7760 C   0  0  2  0  0  0  0  0  0  0  0  0
   -2.1459   16.7802   36.9763 O   0  0  0  0  0  0  0  0  0  0  0  0
    0.0032   16.0435   36.0756 C   0  0  2  0  0  0  0  0  0  0  0  0
    0.2205   15.1380   37.2072 N   0  0  0  0  0  0  0  0  0  0  0  0
    0.6188   17.5033   36.3397 C   0  0  1  0  0  0  0  0  0  0  0  0
    2.0352   17.4308   36.6063 O   0  0  0  0  0  0  0  0  0  0  0  0
    0.3200   18.3547   35.0938 C   0  0  2  0  0  0  0  0  0  0  0  0
    0.8372   19.6270   35.2876 O   0  0  0  0  0  0  0  0  0  0  0  0
   -1.2550   18.4128   34.8398 C   0  0  2  0  0  0  0  0  0  0  0  0
   -1.7982   17.1021   34.6385 O   0  0  0  0  0  0  0  0  0  0  0  0
   -1.6000   19.2190   33.6199 C   0  0  0  0  0  0  0  0  0  0  0  0
   -1.2255   20.5731   33.8765 O   0  0  0  0  0  0  0  0  0  0  0  0
   -6.2102   16.4448   38.7489 C   0  0  2  0  0  0  0  0  0  0  0  0
   -7.6257   16.6429   38.9728 N   0  0  0  0  0  0  0  0  0  0  0  0
   -5.4591   17.8321   38.7545 C   0  0  0  0  0  0  0  0  0  0  0  0
   -3.9205   17.6449   38.5090 C   0  0  2  0  0  0  0  0  0  0  0  0
   -3.2647   18.9509   38.5146 N   0  0  0  0  0  0  0  0  0  0  0  0
   -3.6089   16.9216   37.1240 C   0  0  2  0  0  0  0  0  0  0  0  0
   -4.3249   15.5402   37.1488 C   0  0  2  0  0  0  0  0  0  0  0  0
   -3.9735   14.9213   35.8160 O   0  0  0  0  0  0  0  0  0  0  0  0
   -5.9281   15.7453   37.3363 C   0  0  1  0  0  0  0  0  0  0  0  0
   -6.7023   14.5066   37.4293 O   0  0  0  0  0  0  0  0  0  0  0  0
   -3.3729   13.7002   35.9752 C   0  0  1  0  0  0  0  0  0  0  0  0
   -4.3227   12.6287   36.2931 C   0  0  2  0  0  0  0  0  0  0  0  0
   -4.7392   12.8190   37.6073 O   0  0  0  0  0  0  0  0  0  0  0  0
   -3.4998   11.3779   35.9170 C   0  0  2  0  0  0  0  0  0  0  0  0
   -3.3537   10.5964   37.1243 O   0  0  0  0  0  0  0  0  0  0  0  0
   -2.1968   11.9115   35.4197 C   0  0  2  0  0  0  0  0  0  0  0  0
   -2.7158   13.1615   34.8400 O   0  0  0  0  0  0  0  0  0  0  0  0
   -1.5835   11.0007   34.2933 C   0  0  0  0  0  0  0  0  0  0  0  0
   -1.1689    9.6840   34.7661 O   0  0  0  0  0  0  0  0  0  0  0  0
   -2.8850    9.2226   36.9689 C   0  0  2  0  0  0  0  0  0  0  0  0
   -3.9183    8.4335   36.0078 C   0  0  2  0  0  0  0  0  0  0  0  0
   -5.2899    8.4862   36.6100 N   0  0  0  0  0  0  0  0  0  0  0  0
   -3.3932    6.9236   35.8389 C   0  0  1  0  0  0  0  0  0  0  0  0
   -2.0565    6.9918   35.2558 O   0  0  0  0  0  0  0  0  0  0  0  0
   -3.3619    6.2102   37.2652 C   0  0  2  0  0  0  0  0  0  0  0  0
   -4.7481    6.1672   37.7818 O   0  0  0  0  0  0  0  0  0  0  0  0
   -2.3587    7.0559   38.2348 C   0  0  1  0  0  0  0  0  0  0  0  0
   -2.8274    8.4867   38.3233 O   0  0  0  0  0  0  0  0  0  0  0  0
   -2.3172    6.3926   39.6514 C   0  0  0  0  0  0  0  0  0  0  0  0
   -1.3824    7.0870   40.5902 N   0  0  0  0  0  0  0  0  0  0  0  0
  1  3  1  0  0  0  0
  1  2  1  1  0  0  0
  3  4  1  1  0  0  0
  3  5  1  0  0  0  0
  5  6  1  6  0  0  0
  7  8  1  1  0  0  0
  7  5  1  0  0  0  0
  9 11  1  6  0  0  0
  9  7  1  0  0  0  0
 10  9  1  0  0  0  0
 10  1  1  0  0  0  0
 12 11  1  0  0  0  0
 13 14  1  6  0  0  0
 15 13  1  0  0  0  0
 16 17  1  6  0  0  0
 16 15  1  0  0  0  0
 18  2  1  1  0  0  0
 18 19  1  0  0  0  0
 18 16  1  0  0  0  0
 19 20  1  6  0  0  0
 19 21  1  0  0  0  0
 21 22  1  1  0  0  0
 21 13  1  0  0  0  0
 23 20  1  6  0  0  0
 23 29  1  0  0  0  0
 24 25  1  1  0  0  0
 24 26  1  0  0  0  0
 24 23  1  0  0  0  0
 26 27  1  1  0  0  0
 26 28  1  0  0  0  0
 28 30  1  6  0  0  0
 29 28  1  0  0  0  0
 30 31  1  0  0  0  0
 32 27  1  1  0  0  0
 32 40  1  0  0  0  0
 33 35  1  0  0  0  0
 33 32  1  0  0  0  0
 33 34  1  1  0  0  0
 35 36  1  1  0  0  0
 35 37  1  0  0  0  0
 37 38  1  1  0  0  0
 37 39  1  0  0  0  0
 39 41  1  1  0  0  0
 40 39  1  0  0  0  0
 41 42  1  0  0  0  0
M  END
>  <CHROM.1>
-172.87660245,-65.50039499,-177.88745806,123.83201185,77.47914732,166.13929631
-67.04420630,-58.59138174,178.19515328,-2.79198787,13.47324235,36.63343073
-1.42960083,-0.45238008,3.08621657

>  <Name>
lig.pdb

>  <RI>
0

>  <Rbt.Current_Directory>
/home/itssahil/PROJECTS/Mol_Feturizer/New_Systems/rnas/4wcr

>  <Rbt.Executable>
rbdock ($Id: //depot/dev/client3/rdock/2013.1/src/exe/rbdock.cxx#4 $)

>  <Rbt.Library>
libRbt.so (2013.1, Build901 2013/11/27)

>  <Rbt.Parameter_File>
/export/apps/rDock/src/rDock_2013.1_src/data/scripts/dock_solv.prm

>  <Rbt.Receptor>
prm/pocket_docking_3.prm

>  <SCORE>
-7.77973

>  <SCORE.INTER>
-3.21827

>  <SCORE.INTER.CONST>
1

>  <SCORE.INTER.POLAR>
0

>  <SCORE.INTER.ROT>
9

>  <SCORE.INTER.SOLV>
19.2373

>  <SCORE.INTER.VDW>
-18.1579

>  <SCORE.INTER.norm>
-0.0766254

>  <SCORE.INTRA>
-4.56147

>  <SCORE.INTRA.DIHEDRAL>
-5.7636

>  <SCORE.INTRA.DIHEDRAL.0>
16.2863

>  <SCORE.INTRA.POLAR>
0

>  <SCORE.INTRA.POLAR.0>
0

>  <SCORE.INTRA.REPUL>
-0.314433

>  <SCORE.INTRA.REPUL.0>
0.314433

>  <SCORE.INTRA.SOLV>
-3.42835

>  <SCORE.INTRA.SOLV.lig_0>
-103.824

>  <SCORE.INTRA.VDW>
1.60667

>  <SCORE.INTRA.VDW.0>
-5.30945

>  <SCORE.INTRA.norm>
-0.108606

>  <SCORE.RESTR>
0

>  <SCORE.RESTR.CAVITY>
0

>  <SCORE.RESTR.norm>
0

>  <SCORE.SYSTEM>
0

>  <SCORE.SYSTEM.CONST>
0

>  <SCORE.SYSTEM.DIHEDRAL>
0

>  <SCORE.SYSTEM.SOLV>
0

>  <SCORE.SYSTEM.norm>
0

>  <SCORE.heavy>
42

>  <SCORE.norm>
-0.185232

>  <RMSD>
1.635

$$$$
lig.pdb
 OpenBabel11021811513D
libRbt.so/2013.1/901 2013/11/27
 42 45  0  0  0  0  0  0  0  0999 V2000
   -1.2154   16.3206   36.4186 C   0  0  2  0  0  0  0  0  0  0  0  0
   -2.0001   17.1036   37.3717 O   0  0  0  0  0  0  0  0  0  0  0  0
    0.3134   16.6440   36.7321 C   0  0  2  0  0  0  0  0  0  0  0  0
    0.6548   16.2191   38.0924 N   0  0  0  0  0  0  0  0  0  0  0  0
    0.5667   18.2137   36.5050 C   0  0  1  0  0  0  0  0  0  0  0  0
    1.9428   18.5620   36.7647 O   0  0  0  0  0  0  0  0  0  0  0  0
    0.1656   18.5336   35.0547 C   0  0  2  0  0  0  0  0  0  0  0  0
    0.3700   19.8857   34.8227 O   0  0  0  0  0  0  0  0  0  0  0  0
   -1.3623   18.1389   34.8134 C   0  0  2  0  0  0  0  0  0  0  0  0
   -1.5827   16.7430   35.0510 O   0  0  0  0  0  0  0  0  0  0  0  0
   -1.7998   18.4146   33.4028 C   0  0  0  0  0  0  0  0  0  0  0  0
   -1.8067   19.8312   33.2215 O   0  0  0  0  0  0  0  0  0  0  0  0
   -6.1579   17.0171   38.9459 C   0  0  2  0  0  0  0  0  0  0  0  0
   -7.6033   17.0550   38.9948 N   0  0  0  0  0  0  0  0  0  0  0  0
   -5.6025   18.3227   38.2562 C   0  0  0  0  0  0  0  0  0  0  0  0
   -4.0349   18.3042   38.1867 C   0  0  2  0  0  0  0  0  0  0  0  0
   -3.5625   19.5247   37.5362 N   0  0  0  0  0  0  0  0  0  0  0  0
   -3.4762   17.0469   37.3833 C   0  0  2  0  0  0  0  0  0  0  0  0
   -4.0013   15.7676   38.0969 C   0  0  2  0  0  0  0  0  0  0  0  0
   -3.4231   14.6319   37.2855 O   0  0  0  0  0  0  0  0  0  0  0  0
   -5.6284   15.7609   38.1058 C   0  0  1  0  0  0  0  0  0  0  0  0
   -6.2373   14.6269   38.8025 O   0  0  0  0  0  0  0  0  0  0  0  0
   -3.6431   13.4227   37.8911 C   0  0  1  0  0  0  0  0  0  0  0  0
   -3.1353   12.2882   37.1126 C   0  0  2  0  0  0  0  0  0  0  0  0
   -3.9817   12.1213   36.0206 O   0  0  0  0  0  0  0  0  0  0  0  0
   -3.0505   11.1941   38.1985 C   0  0  2  0  0  0  0  0  0  0  0  0
   -3.9346   10.1275   37.7857 O   0  0  0  0  0  0  0  0  0  0  0  0
   -3.5073   11.8628   39.4530 C   0  0  2  0  0  0  0  0  0  0  0  0
   -3.0053   13.2110   39.1397 O   0  0  0  0  0  0  0  0  0  0  0  0
   -2.7755   11.2889   40.7216 C   0  0  0  0  0  0  0  0  0  0  0  0
   -2.9991    9.8622   40.9311 O   0  0  0  0  0  0  0  0  0  0  0  0
   -3.4924    9.2984   36.6686 C   0  0  2  0  0  0  0  0  0  0  0  0
   -4.6517    8.2207   36.3390 C   0  0  2  0  0  0  0  0  0  0  0  0
   -4.9248    7.4006   37.5635 N   0  0  0  0  0  0  0  0  0  0  0  0
   -4.1587    7.3147   35.1061 C   0  0  1  0  0  0  0  0  0  0  0  0
   -3.9165    8.2105   33.9789 O   0  0  0  0  0  0  0  0  0  0  0  0
   -2.8281    6.5371   35.5178 C   0  0  2  0  0  0  0  0  0  0  0  0
   -3.1565    5.6440   36.6512 O   0  0  0  0  0  0  0  0  0  0  0  0
   -1.6912    7.6427   35.9012 C   0  0  1  0  0  0  0  0  0  0  0  0
   -2.2005    8.5283   37.0108 O   0  0  0  0  0  0  0  0  0  0  0  0
   -0.3743    6.9131   36.3280 C   0  0  0  0  0  0  0  0  0  0  0  0
   -0.5481    6.0707   37.5517 N   0  0  0  0  0  0  0  0  0  0  0  0
  1  3  1  0  0  0  0
  1  2  1  1  0  0  0
  3  4  1  1  0  0  0
  3  5  1  0  0  0  0
  5  6  1  6  0  0  0
  7  8  1  1  0  0  0
  7  5  1  0  0  0  0
  9 11  1  6  0  0  0
  9  7  1  0  0  0  0
 10  9  1  0  0  0  0
 10  1  1  0  0  0  0
 12 11  1  0  0  0  0
 13 14  1  6  0  0  0
 15 13  1  0  0  0  0
 16 17  1  6  0  0  0
 16 15  1  0  0  0  0
 18  2  1  1  0  0  0
 18 19  1  0  0  0  0
 18 16  1  0  0  0  0
 19 20  1  6  0  0  0
 19 21  1  0  0  0  0
 21 22  1  1  0  0  0
 21 13  1  0  0  0  0
 23 20  1  6  0  0  0
 23 29  1  0  0  0  0
 24 25  1  6  0  0  0
 24 26  1  0  0  0  0
 24 23  1  0  0  0  0
 26 27  1  6  0  0  0
 26 28  1  0  0  0  0
 28 30  1  1  0  0  0
 29 28  1  0  0  0  0
 30 31  1  0  0  0  0
 32 27  1  1  0  0  0
 32 40  1  0  0  0  0
 33 35  1  0  0  0  0
 33 32  1  0  0  0  0
 33 34  1  1  0  0  0
 35 36  1  6  0  0  0
 35 37  1  0  0  0  0
 37 38  1  1  0  0  0
 37 39  1  0  0  0  0
 39 41  1  1  0  0  0
 40 39  1  0  0  0  0
 41 42  1  0  0  0  0
M  END
>  <CHROM.1>
-179.58334019,-67.71669990,-162.65419389,171.73185649,178.10458205,73.00630183
-60.43566362,-177.60589141,-62.57345800,-2.78275469,13.56159908,37.03062034
-1.44257286,-0.59090442,-3.12664123

>  <Name>
lig.pdb

>  <RI>
0

>  <Rbt.Current_Directory>
/home/itssahil/PROJECTS/Mol_Feturizer/New_Systems/rnas/4wcr

>  <Rbt.Executable>
rbdock ($Id: //depot/dev/client3/rdock/2013.1/src/exe/rbdock.cxx#4 $)

>  <Rbt.Library>
libRbt.so (2013.1, Build901 2013/11/27)

>  <Rbt.Parameter_File>
/export/apps/rDock/src/rDock_2013.1_src/data/scripts/dock_solv.prm

>  <Rbt.Receptor>
prm/pocket_docking_3.prm

>  <SCORE>
-10.7099

>  <SCORE.INTER>
-1.97363

>  <SCORE.INTER.CONST>
1

>  <SCORE.INTER.POLAR>
0

>  <SCORE.INTER.ROT>
9

>  <SCORE.INTER.SOLV>
18.7951

>  <SCORE.INTER.VDW>
-17.1808

>  <SCORE.INTER.norm>
-0.0469912

>  <SCORE.INTRA>
-8.73629

>  <SCORE.INTRA.DIHEDRAL>
-12.96

>  <SCORE.INTRA.DIHEDRAL.0>
16.2863

>  <SCORE.INTRA.POLAR>
0

>  <SCORE.INTRA.POLAR.0>
0

>  <SCORE.INTRA.REPUL>
-0.314433

>  <SCORE.INTRA.REPUL.0>
0.314433

>  <SCORE.INTRA.SOLV>
-3.64606

>  <SCORE.INTRA.SOLV.lig_0>
-103.824

>  <SCORE.INTRA.VDW>
1.13891

>  <SCORE.INTRA.VDW.0>
-5.30945

>  <SCORE.INTRA.norm>
-0.208007

>  <SCORE.RESTR>
0

>  <SCORE.RESTR.CAVITY>
0

>  <SCORE.RESTR.norm>
0

>  <SCORE.SYSTEM>
0

>  <SCORE.SYSTEM.CONST>
0

>  <SCORE.SYSTEM.DIHEDRAL>
0

>  <SCORE.SYSTEM.SOLV>
0

>  <SCORE.SYSTEM.norm>
0

>  <SCORE.heavy>
42

>  <SCORE.norm>
-0.254998

>  <RMSD>
1.655

$$$$
lig.pdb
 OpenBabel11021811513D
libRbt.so/2013.1/901 2013/11/27
 42 45  0  0  0  0  0  0  0  0999 V2000
   -1.1315   16.4472   36.4163 C   0  0  2  0  0  0  0  0  0  0  0  0
   -1.7861   17.0235   37.5896 O   0  0  0  0  0  0  0  0  0  0  0  0
    0.4237   16.7544   36.5810 C   0  0  2  0  0  0  0  0  0  0  0  0
    0.9462   16.1034   37.7856 N   0  0  0  0  0  0  0  0  0  0  0  0
    0.6357   18.3462   36.6111 C   0  0  1  0  0  0  0  0  0  0  0  0
    2.0323   18.6831   36.7479 O   0  0  0  0  0  0  0  0  0  0  0  0
    0.0427   18.9084   35.3077 C   0  0  2  0  0  0  0  0  0  0  0  0
    0.2067   20.2856   35.2998 O   0  0  0  0  0  0  0  0  0  0  0  0
   -1.5015   18.5181   35.2002 C   0  0  2  0  0  0  0  0  0  0  0  0
   -1.6806   17.0963   35.2076 O   0  0  0  0  0  0  0  0  0  0  0  0
   -2.1251   19.0286   33.9323 C   0  0  0  0  0  0  0  0  0  0  0  0
   -1.4437   18.4145   32.8377 O   0  0  0  0  0  0  0  0  0  0  0  0
   -5.7007   16.6408   39.6636 C   0  0  2  0  0  0  0  0  0  0  0  0
   -7.1278   16.6292   39.9010 N   0  0  0  0  0  0  0  0  0  0  0  0
   -5.2612   18.0297   39.0581 C   0  0  0  0  0  0  0  0  0  0  0  0
   -3.7161   18.0665   38.7869 C   0  0  2  0  0  0  0  0  0  0  0  0
   -3.3523   19.3640   38.2212 N   0  0  0  0  0  0  0  0  0  0  0  0
   -3.2469   16.9212   37.7836 C   0  0  2  0  0  0  0  0  0  0  0  0
   -3.6537   15.5567   38.4118 C   0  0  2  0  0  0  0  0  0  0  0  0
   -3.1682   14.5336   37.4117 O   0  0  0  0  0  0  0  0  0  0  0  0
   -5.2653   15.4996   38.6280 C   0  0  1  0  0  0  0  0  0  0  0  0
   -5.7598   14.2789   39.2664 O   0  0  0  0  0  0  0  0  0  0  0  0
   -3.3769   13.2566   37.8621 C   0  0  1  0  0  0  0  0  0  0  0  0
   -2.7430   12.2379   37.0186 C   0  0  2  0  0  0  0  0  0  0  0  0
   -3.4795   12.1567   35.8406 O   0  0  0  0  0  0  0  0  0  0  0  0
   -2.6971   11.0351   37.9853 C   0  0  2  0  0  0  0  0  0  0  0  0
   -3.4837    9.9838   37.3806 O   0  0  0  0  0  0  0  0  0  0  0  0
   -3.2978   11.5408   39.2554 C   0  0  2  0  0  0  0  0  0  0  0  0
   -2.8418   12.9356   39.1354 O   0  0  0  0  0  0  0  0  0  0  0  0
   -2.6519   10.8620   40.5188 C   0  0  0  0  0  0  0  0  0  0  0  0
   -2.8397    9.4158   40.5667 O   0  0  0  0  0  0  0  0  0  0  0  0
   -2.8960    9.2946   36.2358 C   0  0  2  0  0  0  0  0  0  0  0  0
   -3.9681    8.2209   35.6774 C   0  0  2  0  0  0  0  0  0  0  0  0
   -4.3264    7.2654   36.7753 N   0  0  0  0  0  0  0  0  0  0  0  0
   -3.3149    7.4694   34.4154 C   0  0  1  0  0  0  0  0  0  0  0  0
   -3.0005    8.4887   33.4185 O   0  0  0  0  0  0  0  0  0  0  0  0
   -1.9995    6.6964   34.8809 C   0  0  2  0  0  0  0  0  0  0  0  0
   -2.4004    5.6763   35.8753 O   0  0  0  0  0  0  0  0  0  0  0  0
   -0.9563    7.7912   35.4932 C   0  0  1  0  0  0  0  0  0  0  0  0
   -1.6124    8.5351   36.6293 O   0  0  0  0  0  0  0  0  0  0  0  0
    0.3419    7.0636   35.9770 C   0  0  0  0  0  0  0  0  0  0  0  0
    0.0863    6.1024   37.0941 N   0  0  0  0  0  0  0  0  0  0  0  0
  1  3  1  0  0  0  0
  1  2  1  1  0  0  0
  3  4  1  1  0  0  0
  3  5  1  0  0  0  0
  5  6  1  6  0  0  0
  7  8  1  1  0  0  0
  7  5  1  0  0  0  0
  9 11  1  6  0  0  0
  9  7  1  0  0  0  0
 10  9  1  0  0  0  0
 10  1  1  0  0  0  0
 12 11  1  0  0  0  0
 13 14  1  6  0  0  0
 15 13  1  0  0  0  0
 16 17  1  6  0  0  0
 16 15  1  0  0  0  0
 18  2  1  1  0  0  0
 18 19  1  0  0  0  0
 18 16  1  0  0  0  0
 19 20  1  6  0  0  0
 19 21  1  0  0  0  0
 21 22  1  1  0  0  0
 21 13  1  0  0  0  0
 23 20  1  6  0  0  0
 23 29  1  0  0  0  0
 24 25  1  6  0  0  0
 24 26  1  0  0  0  0
 24 23  1  0  0  0  0
 26 27  1  6  0  0  0
 26 28  1  0  0  0  0
 28 30  1  1  0  0  0
 29 28  1  0  0  0  0
 30 31  1  0  0  0  0
 32 27  1  1  0  0  0
 32 40  1  0  0  0  0
 33 35  1  0  0  0  0
 33 32  1  0  0  0  0
 33 34  1  1  0  0  0
 35 36  1  6  0  0  0
 35 37  1  0  0  0  0
 37 38  1  1  0  0  0
 37 39  1  0  0  0  0
 39 41  1  1  0  0  0
 40 39  1  0  0  0  0
 41 42  1  0  0  0  0
M  END
>  <CHROM.1>
-179.53473892,61.73314357,-158.58452611,176.12038063,-171.40920169,73.56012578
-61.54049986,-177.16082259,-63.31737566,-2.44133298,13.49428269,37.00141264
-1.49916187,-0.74457585,-3.06409919

>  <Name>
lig.pdb

>  <RI>
0

>  <Rbt.Current_Directory>
/home/itssahil/PROJECTS/Mol_Feturizer/New_Systems/rnas/4wcr

>  <Rbt.Executable>
rbdock ($Id: //depot/dev/client3/rdock/2013.1/src/exe/rbdock.cxx#4 $)

>  <Rbt.Library>
libRbt.so (2013.1, Build901 2013/11/27)

>  <Rbt.Parameter_File>
/export/apps/rDock/src/rDock_2013.1_src/data/scripts/dock_solv.prm

>  <Rbt.Receptor>
prm/pocket_docking_3.prm

>  <SCORE>
-7.42617

>  <SCORE.INTER>
0.721668

>  <SCORE.INTER.CONST>
1

>  <SCORE.INTER.POLAR>
0

>  <SCORE.INTER.ROT>
9

>  <SCORE.INTER.SOLV>
15.7333

>  <SCORE.INTER.VDW>
-14.3633

>  <SCORE.INTER.norm>
0.0171826

>  <SCORE.INTRA>
-8.14784

>  <SCORE.INTRA.DIHEDRAL>
-12.322

>  <SCORE.INTRA.DIHEDRAL.0>
16.2863

>  <SCORE.INTRA.POLAR>
0

>  <SCORE.INTRA.POLAR.0>
0

>  <SCORE.INTRA.REPUL>
-0.314433

>  <SCORE.INTRA.REPUL.0>
0.314433

>  <SCORE.INTRA.SOLV>
-3.18258

>  <SCORE.INTRA.SOLV.lig_0>
-103.824

>  <SCORE.INTRA.VDW>
1.17659

>  <SCORE.INTRA.VDW.0>
-5.30945

>  <SCORE.INTRA.norm>
-0.193996

>  <SCORE.RESTR>
0

>  <SCORE.RESTR.CAVITY>
0

>  <SCORE.RESTR.norm>
0

>  <SCORE.SYSTEM>
0

>  <SCORE.SYSTEM.CONST>
0

>  <SCORE.SYSTEM.DIHEDRAL>
0

>  <SCORE.SYSTEM.SOLV>
0

>  <SCORE.SYSTEM.norm>
0

>  <SCORE.heavy>
42

>  <SCORE.norm>
-0.176814

>  <RMSD>
1.702

$$$$
lig.pdb
 OpenBabel11021811513D
libRbt.so/2013.1/901 2013/11/27
 42 45  0  0  0  0  0  0  0  0999 V2000
   -1.2502   16.4629   36.3791 C   0  0  2  0  0  0  0  0  0  0  0  0
   -1.9189   17.0558   37.5360 O   0  0  0  0  0  0  0  0  0  0  0  0
    0.3106   16.6962   36.6018 C   0  0  2  0  0  0  0  0  0  0  0  0
    0.7598   16.0085   37.8156 N   0  0  0  0  0  0  0  0  0  0  0  0
    0.5939   18.2761   36.6594 C   0  0  1  0  0  0  0  0  0  0  0  0
    1.9987   18.5466   36.8491 O   0  0  0  0  0  0  0  0  0  0  0  0
    0.0738   18.8793   35.3433 C   0  0  2  0  0  0  0  0  0  0  0  0
    0.3008   20.2475   35.3586 O   0  0  0  0  0  0  0  0  0  0  0  0
   -1.4818   18.5619   35.1771 C   0  0  2  0  0  0  0  0  0  0  0  0
   -1.7258   17.1499   35.1603 O   0  0  0  0  0  0  0  0  0  0  0  0
   -2.0361   19.1146   33.8947 C   0  0  0  0  0  0  0  0  0  0  0  0
   -1.4267   18.4017   32.8176 O   0  0  0  0  0  0  0  0  0  0  0  0
   -5.9156   16.9994   39.4842 C   0  0  2  0  0  0  0  0  0  0  0  0
   -7.3502   17.0477   39.6652 N   0  0  0  0  0  0  0  0  0  0  0  0
   -5.4163   18.3010   38.7456 C   0  0  0  0  0  0  0  0  0  0  0  0
   -3.8619   18.2711   38.5330 C   0  0  2  0  0  0  0  0  0  0  0  0
   -3.4422   19.4881   37.8411 N   0  0  0  0  0  0  0  0  0  0  0  0
   -3.3881   17.0098   37.6826 C   0  0  2  0  0  0  0  0  0  0  0  0
   -3.8548   15.7344   38.4422 C   0  0  2  0  0  0  0  0  0  0  0  0
   -3.3615   14.5944   37.5821 O   0  0  0  0  0  0  0  0  0  0  0  0
   -5.4743   15.7394   38.6000 C   0  0  1  0  0  0  0  0  0  0  0  0
   -6.0250   14.6098   39.3503 O   0  0  0  0  0  0  0  0  0  0  0  0
   -3.5511   13.3854   38.1982 C   0  0  1  0  0  0  0  0  0  0  0  0
   -3.0976   12.2495   37.3888 C   0  0  2  0  0  0  0  0  0  0  0  0
   -4.0096   12.0891   36.3499 O   0  0  0  0  0  0  0  0  0  0  0  0
   -2.9532   11.1532   38.4660 C   0  0  2  0  0  0  0  0  0  0  0  0
   -3.8665   10.0921   38.1061 O   0  0  0  0  0  0  0  0  0  0  0  0
   -3.3295   11.8222   39.7468 C   0  0  2  0  0  0  0  0  0  0  0  0
   -2.8399   13.1681   39.4055 O   0  0  0  0  0  0  0  0  0  0  0  0
   -2.5253   11.2421   40.9680 C   0  0  0  0  0  0  0  0  0  0  0  0
   -2.7655    9.8226   41.2061 O   0  0  0  0  0  0  0  0  0  0  0  0
   -3.4553    9.2068   37.0206 C   0  0  2  0  0  0  0  0  0  0  0  0
   -4.6623    8.1756   36.7143 C   0  0  2  0  0  0  0  0  0  0  0  0
   -4.9848    7.4098   37.9618 N   0  0  0  0  0  0  0  0  0  0  0  0
   -4.2032    7.2074   35.5160 C   0  0  1  0  0  0  0  0  0  0  0  0
   -3.9087    8.0535   34.3632 O   0  0  0  0  0  0  0  0  0  0  0  0
   -2.9151    6.3809   35.9657 C   0  0  2  0  0  0  0  0  0  0  0  0
   -3.2956    5.5419   37.1239 O   0  0  0  0  0  0  0  0  0  0  0  0
   -1.7295    7.4428   36.3248 C   0  0  1  0  0  0  0  0  0  0  0  0
   -2.2049    8.3874   37.4002 O   0  0  0  0  0  0  0  0  0  0  0  0
   -0.4529    6.6653   36.7878 C   0  0  0  0  0  0  0  0  0  0  0  0
    0.6806    7.5726   37.1471 N   0  0  0  0  0  0  0  0  0  0  0  0
  1  3  1  0  0  0  0
  1  2  1  1  0  0  0
  3  4  1  1  0  0  0
  3  5  1  0  0  0  0
  5  6  1  6  0  0  0
  7  8  1  1  0  0  0
  7  5  1  0  0  0  0
  9 11  1  6  0  0  0
  9  7  1  0  0  0  0
 10  9  1  0  0  0  0
 10  1  1  0  0  0  0
 12 11  1  0  0  0  0
 13 14  1  6  0  0  0
 15 13  1  0  0  0  0
 16 17  1  6  0  0  0
 16 15  1  0  0  0  0
 18  2  1  1  0  0  0
 18 19  1  0  0  0  0
 18 16  1  0  0  0  0
 19 20  1  6  0  0  0
 19 21  1  0  0  0  0
 21 22  1  1  0  0  0
 21 13  1  0  0  0  0
 23 20  1  6  0  0  0
 23 29  1  0  0  0  0
 24 25  1  6  0  0  0
 24 26  1  0  0  0  0
 24 23  1  0  0  0  0
 26 27  1  6  0  0  0
 26 28  1  0  0  0  0
 28 30  1  1  0  0  0
 29 28  1  0  0  0  0
 30 31  1  0  0  0  0
 32 27  1  1  0  0  0
 32 40  1  0  0  0  0
 33 35  1  0  0  0  0
 33 32  1  0  0  0  0
 33 34  1  1  0  0  0
 35 36  1  6  0  0  0
 35 37  1  0  0  0  0
 37 38  1  1  0  0  0
 37 39  1  0  0  0  0
 39 41  1  1  0  0  0
 40 39  1  0  0  0  0
 41 42  1  0  0  0  0
M  END
>  <CHROM.1>
-179.06703897,66.54653959,-151.64352555,172.58438185,179.39137168,76.98689240
-61.66403688,-175.78395276,-179.54005032,-2.69927473,13.56722079,37.31412345
-1.43001114,-0.63969464,-3.12283208

>  <Name>
lig.pdb

>  <RI>
0

>  <Rbt.Current_Directory>
/home/itssahil/PROJECTS/Mol_Feturizer/New_Systems/rnas/4wcr

>  <Rbt.Executable>
rbdock ($Id: //depot/dev/client3/rdock/2013.1/src/exe/rbdock.cxx#4 $)

>  <Rbt.Library>
libRbt.so (2013.1, Build901 2013/11/27)

>  <Rbt.Parameter_File>
/export/apps/rDock/src/rDock_2013.1_src/data/scripts/dock_solv.prm

>  <Rbt.Receptor>
prm/pocket_docking_3.prm

>  <SCORE>
-7.67483

>  <SCORE.INTER>
0.628977

>  <SCORE.INTER.CONST>
1

>  <SCORE.INTER.POLAR>
0

>  <SCORE.INTER.ROT>
9

>  <SCORE.INTER.SOLV>
19.4795

>  <SCORE.INTER.VDW>
-15.6738

>  <SCORE.INTER.norm>
0.0149756

>  <SCORE.INTRA>
-8.3038

>  <SCORE.INTRA.DIHEDRAL>
-10.6212

>  <SCORE.INTRA.DIHEDRAL.0>
16.2863

>  <SCORE.INTRA.POLAR>
0

>  <SCORE.INTRA.POLAR.0>
0

>  <SCORE.INTRA.REPUL>
-0.314433

>  <SCORE.INTRA.REPUL.0>
0.314433

>  <SCORE.INTRA.SOLV>
-4.69922

>  <SCORE.INTRA.SOLV.lig_0>
-103.824

>  <SCORE.INTRA.VDW>
0.928578

>  <SCORE.INTRA.VDW.0>
-5.30945

>  <SCORE.INTRA.norm>
-0.19771

>  <SCORE.RESTR>
0

>  <SCORE.RESTR.CAVITY>
0

>  <SCORE.RESTR.norm>
0

>  <SCORE.SYSTEM>
0

>  <SCORE.SYSTEM.CONST>
0

>  <SCORE.SYSTEM.DIHEDRAL>
0

>  <SCORE.SYSTEM.SOLV>
0

>  <SCORE.SYSTEM.norm>
0

>  <SCORE.heavy>
42

>  <SCORE.norm>
-0.182734

>  <RMSD>
1.741

$$$$
lig.pdb
 OpenBabel11021811513D
libRbt.so/2013.1/901 2013/11/27
 42 45  0  0  0  0  0  0  0  0999 V2000
   -1.5943   16.3913   35.7031 C   0  0  2  0  0  0  0  0  0  0  0  0
   -2.1881   16.7350   36.9940 O   0  0  0  0  0  0  0  0  0  0  0  0
   -0.0527   16.1034   35.9870 C   0  0  2  0  0  0  0  0  0  0  0  0
    0.0929   14.9637   36.8967 N   0  0  0  0  0  0  0  0  0  0  0  0
    0.6228   17.4377   36.5729 C   0  0  1  0  0  0  0  0  0  0  0  0
    2.0269   17.2369   36.8387 O   0  0  0  0  0  0  0  0  0  0  0  0
    0.3962   18.5536   35.5386 C   0  0  2  0  0  0  0  0  0  0  0  0
    0.9666   19.7253   36.0135 O   0  0  0  0  0  0  0  0  0  0  0  0
   -1.1673   18.7456   35.2795 C   0  0  2  0  0  0  0  0  0  0  0  0
   -1.7652   17.5393   34.7885 O   0  0  0  0  0  0  0  0  0  0  0  0
   -1.4428   19.8141   34.2600 C   0  0  0  0  0  0  0  0  0  0  0  0
   -0.8932   19.3770   33.0164 O   0  0  0  0  0  0  0  0  0  0  0  0
   -6.2576   16.5462   38.7761 C   0  0  2  0  0  0  0  0  0  0  0  0
   -7.6650   16.7935   39.0021 N   0  0  0  0  0  0  0  0  0  0  0  0
   -5.4593   17.9069   38.7749 C   0  0  0  0  0  0  0  0  0  0  0  0
   -3.9286   17.6660   38.5269 C   0  0  2  0  0  0  0  0  0  0  0  0
   -3.2284   18.9487   38.5261 N   0  0  0  0  0  0  0  0  0  0  0  0
   -3.6451   16.9272   37.1441 C   0  0  2  0  0  0  0  0  0  0  0  0
   -4.4080   15.5712   37.1757 C   0  0  2  0  0  0  0  0  0  0  0  0
   -4.0809   14.9356   35.8447 O   0  0  0  0  0  0  0  0  0  0  0  0
   -6.0028   15.8319   37.3657 C   0  0  1  0  0  0  0  0  0  0  0  0
   -6.8188   14.6210   37.4651 O   0  0  0  0  0  0  0  0  0  0  0  0
   -3.4991   13.7059   36.0079 C   0  0  1  0  0  0  0  0  0  0  0  0
   -4.4594   12.6585   36.3710 C   0  0  2  0  0  0  0  0  0  0  0  0
   -4.8346   12.8787   37.6929 O   0  0  0  0  0  0  0  0  0  0  0  0
   -3.6712   11.3859   35.9935 C   0  0  2  0  0  0  0  0  0  0  0  0
   -3.5055   10.6220   37.2095 O   0  0  0  0  0  0  0  0  0  0  0  0
   -2.3732   11.8858   35.4504 C   0  0  2  0  0  0  0  0  0  0  0  0
   -2.8849   13.1357   34.8641 O   0  0  0  0  0  0  0  0  0  0  0  0
   -1.8095   10.9447   34.3231 C   0  0  0  0  0  0  0  0  0  0  0  0
   -2.6950   10.8164   33.1704 O   0  0  0  0  0  0  0  0  0  0  0  0
   -2.9123    9.2945   37.0797 C   0  0  2  0  0  0  0  0  0  0  0  0
   -3.8413    8.4116   36.0939 C   0  0  2  0  0  0  0  0  0  0  0  0
   -5.2302    8.3455   36.6536 N   0  0  0  0  0  0  0  0  0  0  0  0
   -3.1795    6.9534   35.9534 C   0  0  1  0  0  0  0  0  0  0  0  0
   -1.8365    7.1368   35.4108 O   0  0  0  0  0  0  0  0  0  0  0  0
   -3.1295    6.2532   37.3858 C   0  0  2  0  0  0  0  0  0  0  0  0
   -4.5218    6.0901   37.8602 O   0  0  0  0  0  0  0  0  0  0  0  0
   -2.2357    7.1899   38.3786 C   0  0  1  0  0  0  0  0  0  0  0  0
   -2.8319    8.5739   38.4411 O   0  0  0  0  0  0  0  0  0  0  0  0
   -2.1797    6.5405   39.8012 C   0  0  0  0  0  0  0  0  0  0  0  0
   -1.3589    7.3326   40.7687 N   0  0  0  0  0  0  0  0  0  0  0  0
  1  3  1  0  0  0  0
  1  2  1  1  0  0  0
  3  4  1  1  0  0  0
  3  5  1  0  0  0  0
  5  6  1  6  0  0  0
  7  8  1  1  0  0  0
  7  5  1  0  0  0  0
  9 11  1  6  0  0  0
  9  7  1  0  0  0  0
 10  9  1  0  0  0  0
 10  1  1  0  0  0  0
 12 11  1  0  0  0  0
 13 14  1  6  0  0  0
 15 13  1  0  0  0  0
 16 17  1  6  0  0  0
 16 15  1  0  0  0  0
 18  2  1  1  0  0  0
 18 19  1  0  0  0  0
 18 16  1  0  0  0  0
 19 20  1  6  0  0  0
 19 21  1  0  0  0  0
 21 22  1  1  0  0  0
 21 13  1  0  0  0  0
 23 20  1  6  0  0  0
 23 29  1  0  0  0  0
 24 25  1  1  0  0  0
 24 26  1  0  0  0  0
 24 23  1  0  0  0  0
 26 27  1  1  0  0  0
 26 28  1  0  0  0  0
 28 30  1  6  0  0  0
 29 28  1  0  0  0  0
 30 31  1  0  0  0  0
 32 27  1  1  0  0  0
 32 40  1  0  0  0  0
 33 35  1  0  0  0  0
 33 32  1  0  0  0  0
 33 34  1  1  0  0  0
 35 36  1  1  0  0  0
 35 37  1  0  0  0  0
 37 38  1  1  0  0  0
 37 39  1  0  0  0  0
 39 41  1  1  0  0  0
 40 39  1  0  0  0  0
 41 42  1  0  0  0  0
M  END
>  <CHROM.1>
-173.43421660,64.09787003,-164.69994243,122.68600787,76.32671711,173.44855953
60.49196791,-59.14524706,179.17787258,-2.82944445,13.53556843,36.67355229
-1.42476498,-0.45499613,3.09368673

>  <Name>
lig.pdb

>  <RI>
0

>  <Rbt.Current_Directory>
/home/itssahil/PROJECTS/Mol_Feturizer/New_Systems/rnas/4wcr

>  <Rbt.Executable>
rbdock ($Id: //depot/dev/client3/rdock/2013.1/src/exe/rbdock.cxx#4 $)

>  <Rbt.Library>
libRbt.so (2013.1, Build901 2013/11/27)

>  <Rbt.Parameter_File>
/export/apps/rDock/src/rDock_2013.1_src/data/scripts/dock_solv.prm

>  <Rbt.Receptor>
prm/pocket_docking_3.prm

>  <SCORE>
-6.96097

>  <SCORE.INTER>
-1.74123

>  <SCORE.INTER.CONST>
1

>  <SCORE.INTER.POLAR>
0

>  <SCORE.INTER.ROT>
9

>  <SCORE.INTER.SOLV>
20.2603

>  <SCORE.INTER.VDW>
-17.5143

>  <SCORE.INTER.norm>
-0.0414579

>  <SCORE.INTRA>
-5.21974

>  <SCORE.INTRA.DIHEDRAL>
-5.77479

>  <SCORE.INTRA.DIHEDRAL.0>
16.2863

>  <SCORE.INTRA.POLAR>
0

>  <SCORE.INTRA.POLAR.0>
0

>  <SCORE.INTRA.REPUL>
-0.314433

>  <SCORE.INTRA.REPUL.0>
0.314433

>  <SCORE.INTRA.SOLV>
-3.45363

>  <SCORE.INTRA.SOLV.lig_0>
-103.824

>  <SCORE.INTRA.VDW>
0.966638

>  <SCORE.INTRA.VDW.0>
-5.30945

>  <SCORE.INTRA.norm>
-0.124279

>  <SCORE.RESTR>
0

>  <SCORE.RESTR.CAVITY>
0

>  <SCORE.RESTR.norm>
0

>  <SCORE.SYSTEM>
0

>  <SCORE.SYSTEM.CONST>
0

>  <SCORE.SYSTEM.DIHEDRAL>
0

>  <SCORE.SYSTEM.SOLV>
0

>  <SCORE.SYSTEM.norm>
0

>  <SCORE.heavy>
42

>  <SCORE.norm>
-0.165737

>  <RMSD>
1.751

$$$$
lig.pdb
 OpenBabel11021811513D
libRbt.so/2013.1/901 2013/11/27
 42 45  0  0  0  0  0  0  0  0999 V2000
   -1.0717   16.4604   36.3928 C   0  0  2  0  0  0  0  0  0  0  0  0
   -1.9208   17.2044   37.3216 O   0  0  0  0  0  0  0  0  0  0  0  0
    0.4244   16.9173   36.6972 C   0  0  2  0  0  0  0  0  0  0  0  0
    0.7955   16.5628   38.0699 N   0  0  0  0  0  0  0  0  0  0  0  0
    0.5487   18.4951   36.4232 C   0  0  1  0  0  0  0  0  0  0  0  0
    1.8909   18.9628   36.6731 O   0  0  0  0  0  0  0  0  0  0  0  0
    0.1271   18.7375   34.9638 C   0  0  2  0  0  0  0  0  0  0  0  0
    0.2205   20.0943   34.6914 O   0  0  0  0  0  0  0  0  0  0  0  0
   -1.3625   18.2117   34.7337 C   0  0  2  0  0  0  0  0  0  0  0  0
   -1.4684   16.8101   35.0129 O   0  0  0  0  0  0  0  0  0  0  0  0
   -1.8170   18.4083   33.3152 C   0  0  0  0  0  0  0  0  0  0  0  0
   -1.9796   19.8114   33.1040 O   0  0  0  0  0  0  0  0  0  0  0  0
   -6.0920   16.7727   38.8006 C   0  0  2  0  0  0  0  0  0  0  0  0
   -7.5378   16.7275   38.8230 N   0  0  0  0  0  0  0  0  0  0  0  0
   -5.5998   18.1547   38.2204 C   0  0  0  0  0  0  0  0  0  0  0  0
   -4.0327   18.2274   38.1815 C   0  0  2  0  0  0  0  0  0  0  0  0
   -3.6192   19.5171   37.6324 N   0  0  0  0  0  0  0  0  0  0  0  0
   -3.3914   17.0662   37.2991 C   0  0  2  0  0  0  0  0  0  0  0  0
   -3.8552   15.7103   37.9058 C   0  0  2  0  0  0  0  0  0  0  0  0
   -3.2011   14.6717   37.0247 O   0  0  0  0  0  0  0  0  0  0  0  0
   -5.4793   15.6137   37.8812 C   0  0  1  0  0  0  0  0  0  0  0  0
   -6.0347   14.3991   38.4800 O   0  0  0  0  0  0  0  0  0  0  0  0
   -3.3517   13.4118   37.5415 C   0  0  1  0  0  0  0  0  0  0  0  0
   -2.6699   12.3806   36.7523 C   0  0  2  0  0  0  0  0  0  0  0  0
   -3.3995   12.2040   35.5804 O   0  0  0  0  0  0  0  0  0  0  0  0
   -2.5705   11.2335   37.7806 C   0  0  2  0  0  0  0  0  0  0  0  0
   -3.3067   10.1169   37.2321 O   0  0  0  0  0  0  0  0  0  0  0  0
   -3.1965   11.7768   39.0227 C   0  0  2  0  0  0  0  0  0  0  0  0
   -2.8049   13.1829   38.8297 O   0  0  0  0  0  0  0  0  0  0  0  0
   -2.5225   11.1955   40.3197 C   0  0  0  0  0  0  0  0  0  0  0  0
   -3.0993   11.7069   41.5587 O   0  0  0  0  0  0  0  0  0  0  0  0
   -2.7367    9.4631   36.0579 C   0  0  2  0  0  0  0  0  0  0  0  0
   -3.6943    8.2283   35.6426 C   0  0  2  0  0  0  0  0  0  0  0  0
   -3.8106    7.2838   36.8007 N   0  0  0  0  0  0  0  0  0  0  0  0
   -3.0620    7.5166   34.3473 C   0  0  1  0  0  0  0  0  0  0  0  0
   -2.9884    8.5228   33.2920 O   0  0  0  0  0  0  0  0  0  0  0  0
   -1.6133    6.9533   34.7057 C   0  0  2  0  0  0  0  0  0  0  0  0
   -1.7722    5.9343   35.7671 O   0  0  0  0  0  0  0  0  0  0  0  0
   -0.6822    8.2075   35.1766 C   0  0  1  0  0  0  0  0  0  0  0  0
   -1.3280    8.9056   36.3473 O   0  0  0  0  0  0  0  0  0  0  0  0
    0.7448    7.6877   35.5535 C   0  0  0  0  0  0  0  0  0  0  0  0
    0.7421    6.8132   36.7669 N   0  0  0  0  0  0  0  0  0  0  0  0
  1  3  1  0  0  0  0
  1  2  1  1  0  0  0
  3  4  1  1  0  0  0
  3  5  1  0  0  0  0
  5  6  1  6  0  0  0
  7  8  1  1  0  0  0
  7  5  1  0  0  0  0
  9 11  1  6  0  0  0
  9  7  1  0  0  0  0
 10  9  1  0  0  0  0
 10  1  1  0  0  0  0
 12 11  1  0  0  0  0
 13 14  1  6  0  0  0
 15 13  1  0  0  0  0
 16 17  1  6  0  0  0
 16 15  1  0  0  0  0
 18  2  1  1  0  0  0
 18 19  1  0  0  0  0
 18 16  1  0  0  0  0
 19 20  1  6  0  0  0
 19 21  1  0  0  0  0
 21 22  1  1  0  0  0
 21 13  1  0  0  0  0
 23 20  1  6  0  0  0
 23 29  1  0  0  0  0
 24 25  1  6  0  0  0
 24 26  1  0  0  0  0
 24 23  1  0  0  0  0
 26 27  1  6  0  0  0
 26 28  1  0  0  0  0
 28 30  1  1  0  0  0
 29 28  1  0  0  0  0
 30 31  1  0  0  0  0
 32 27  1  1  0  0  0
 32 40  1  0  0  0  0
 33 35  1  0  0  0  0
 33 32  1  0  0  0  0
 33 34  1  1  0  0  0
 35 36  1  6  0  0  0
 35 37  1  0  0  0  0
 37 38  1  1  0  0  0
 37 39  1  0  0  0  0
 39 41  1  1  0  0  0
 40 39  1  0  0  0  0
 41 42  1  0  0  0  0
M  END
>  <CHROM.1>
178.02414346,-69.48009062,-167.30123946,171.15641672,-176.97657877,68.82738813
179.65482549,178.46809572,-66.51304270,-2.40663122,13.72084917,36.72304426
-1.56297724,-0.65518363,-3.11589284

>  <Name>
lig.pdb

>  <RI>
0

>  <Rbt.Current_Directory>
/home/itssahil/PROJECTS/Mol_Feturizer/New_Systems/rnas/4wcr

>  <Rbt.Executable>
rbdock ($Id: //depot/dev/client3/rdock/2013.1/src/exe/rbdock.cxx#4 $)

>  <Rbt.Library>
libRbt.so (2013.1, Build901 2013/11/27)

>  <Rbt.Parameter_File>
/export/apps/rDock/src/rDock_2013.1_src/data/scripts/dock_solv.prm

>  <Rbt.Receptor>
prm/pocket_docking_5.prm

>  <SCORE>
-11.4025

>  <SCORE.INTER>
-2.40137

>  <SCORE.INTER.CONST>
1

>  <SCORE.INTER.POLAR>
0

>  <SCORE.INTER.ROT>
9

>  <SCORE.INTER.SOLV>
16.9962

>  <SCORE.INTER.VDW>
-16.8663

>  <SCORE.INTER.norm>
-0.0571755

>  <SCORE.INTRA>
-9.00116

>  <SCORE.INTRA.DIHEDRAL>
-13.6822

>  <SCORE.INTRA.DIHEDRAL.0>
16.2863

>  <SCORE.INTRA.POLAR>
0

>  <SCORE.INTRA.POLAR.0>
0

>  <SCORE.INTRA.REPUL>
-0.314433

>  <SCORE.INTRA.REPUL.0>
0.314433

>  <SCORE.INTRA.SOLV>
-4.02597

>  <SCORE.INTRA.SOLV.lig_0>
-103.824

>  <SCORE.INTRA.VDW>
1.42507

>  <SCORE.INTRA.VDW.0>
-5.30945

>  <SCORE.INTRA.norm>
-0.214313

>  <SCORE.RESTR>
0

>  <SCORE.RESTR.CAVITY>
0

>  <SCORE.RESTR.norm>
0

>  <SCORE.SYSTEM>
0

>  <SCORE.SYSTEM.CONST>
0

>  <SCORE.SYSTEM.DIHEDRAL>
0

>  <SCORE.SYSTEM.SOLV>
0

>  <SCORE.SYSTEM.norm>
0

>  <SCORE.heavy>
42

>  <SCORE.norm>
-0.271489

>  <RMSD>
1.756

$$$$
lig.pdb
 OpenBabel11021811513D
libRbt.so/2013.1/901 2013/11/27
 42 45  0  0  0  0  0  0  0  0999 V2000
   -1.5400   16.1217   35.7802 C   0  0  2  0  0  0  0  0  0  0  0  0
   -2.1444   16.6794   36.9888 O   0  0  0  0  0  0  0  0  0  0  0  0
    0.0107   15.9439   36.1019 C   0  0  2  0  0  0  0  0  0  0  0  0
    0.1962   14.9989   37.2065 N   0  0  0  0  0  0  0  0  0  0  0  0
    0.6402   17.3858   36.4248 C   0  0  1  0  0  0  0  0  0  0  0  0
    2.0507   17.2855   36.7134 O   0  0  0  0  0  0  0  0  0  0  0  0
    0.3747   18.2816   35.2027 C   0  0  2  0  0  0  0  0  0  0  0  0
    0.9047   19.5397   35.4474 O   0  0  0  0  0  0  0  0  0  0  0  0
   -1.1946   18.3692   34.9233 C   0  0  2  0  0  0  0  0  0  0  0  0
   -1.7509   17.0732   34.6693 O   0  0  0  0  0  0  0  0  0  0  0  0
   -1.5074   19.2195   33.7249 C   0  0  0  0  0  0  0  0  0  0  0  0
   -2.9284   19.3246   33.6284 O   0  0  0  0  0  0  0  0  0  0  0  0
   -6.2616   16.6119   38.6673 C   0  0  2  0  0  0  0  0  0  0  0  0
   -7.6713   16.8843   38.8447 N   0  0  0  0  0  0  0  0  0  0  0  0
   -5.4470   17.9625   38.6298 C   0  0  0  0  0  0  0  0  0  0  0  0
   -3.9134   17.6942   38.4335 C   0  0  2  0  0  0  0  0  0  0  0  0
   -3.1977   18.9679   38.3971 N   0  0  0  0  0  0  0  0  0  0  0  0
   -3.6025   16.8939   37.0914 C   0  0  2  0  0  0  0  0  0  0  0  0
   -4.3824   15.5491   37.1600 C   0  0  2  0  0  0  0  0  0  0  0  0
   -4.0281   14.8536   35.8664 O   0  0  0  0  0  0  0  0  0  0  0  0
   -5.9784   15.8353   37.2959 C   0  0  1  0  0  0  0  0  0  0  0  0
   -6.8115   14.6388   37.4246 O   0  0  0  0  0  0  0  0  0  0  0  0
   -3.4589   13.6288   36.0974 C   0  0  1  0  0  0  0  0  0  0  0  0
   -4.4447   12.5797   36.3777 C   0  0  2  0  0  0  0  0  0  0  0  0
   -4.9459   12.8109   37.6552 O   0  0  0  0  0  0  0  0  0  0  0  0
   -3.6181   11.3079   36.0908 C   0  0  2  0  0  0  0  0  0  0  0  0
   -3.5661   10.5570   37.3249 O   0  0  0  0  0  0  0  0  0  0  0  0
   -2.2763   11.8097   35.6694 C   0  0  2  0  0  0  0  0  0  0  0  0
   -2.7353   13.0508   35.0238 O   0  0  0  0  0  0  0  0  0  0  0  0
   -1.6028   10.8606   34.6111 C   0  0  0  0  0  0  0  0  0  0  0  0
   -2.3652   10.7285   33.3740 O   0  0  0  0  0  0  0  0  0  0  0  0
   -2.9170    9.2504   37.2760 C   0  0  2  0  0  0  0  0  0  0  0  0
   -3.7083    8.3238   36.2133 C   0  0  2  0  0  0  0  0  0  0  0  0
   -5.1443    8.2139   36.6285 N   0  0  0  0  0  0  0  0  0  0  0  0
   -2.9854    6.8889   36.1627 C   0  0  1  0  0  0  0  0  0  0  0  0
   -1.6009    7.1146   35.7581 O   0  0  0  0  0  0  0  0  0  0  0  0
   -3.0589    6.2068   37.6028 C   0  0  2  0  0  0  0  0  0  0  0  0
   -4.4861    5.9989   37.9343 O   0  0  0  0  0  0  0  0  0  0  0  0
   -2.3052    7.1860   38.6682 C   0  0  1  0  0  0  0  0  0  0  0  0
   -2.9522    8.5482   38.6489 O   0  0  0  0  0  0  0  0  0  0  0  0
   -2.3735    6.5547   40.0984 C   0  0  0  0  0  0  0  0  0  0  0  0
   -1.6651    7.3751   41.1292 N   0  0  0  0  0  0  0  0  0  0  0  0
  1  3  1  0  0  0  0
  1  2  1  1  0  0  0
  3  4  1  1  0  0  0
  3  5  1  0  0  0  0
  5  6  1  6  0  0  0
  7  8  1  1  0  0  0
  7  5  1  0  0  0  0
  9 11  1  6  0  0  0
  9  7  1  0  0  0  0
 10  9  1  0  0  0  0
 10  1  1  0  0  0  0
 12 11  1  0  0  0  0
 13 14  1  6  0  0  0
 15 13  1  0  0  0  0
 16 17  1  6  0  0  0
 16 15  1  0  0  0  0
 18  2  1  1  0  0  0
 18 19  1  0  0  0  0
 18 16  1  0  0  0  0
 19 20  1  6  0  0  0
 19 21  1  0  0  0  0
 21 22  1  1  0  0  0
 21 13  1  0  0  0  0
 23 20  1  6  0  0  0
 23 29  1  0  0  0  0
 24 25  1  1  0  0  0
 24 26  1  0  0  0  0
 24 23  1  0  0  0  0
 26 27  1  1  0  0  0
 26 28  1  0  0  0  0
 28 30  1  6  0  0  0
 29 28  1  0  0  0  0
 30 31  1  0  0  0  0
 32 27  1  1  0  0  0
 32 40  1  0  0  0  0
 33 35  1  0  0  0  0
 33 32  1  0  0  0  0
 33 34  1  1  0  0  0
 35 36  1  1  0  0  0
 35 37  1  0  0  0  0
 37 38  1  1  0  0  0
 37 39  1  0  0  0  0
 39 41  1  1  0  0  0
 40 39  1  0  0  0  0
 41 42  1  0  0  0  0
M  END
>  <CHROM.1>
-175.75563135,-175.24399716,-172.12629800,122.34138994,80.93134713,175.43969343
61.18085360,-59.85840235,178.22519989,-2.85696955,13.45410160,36.71234986
-1.45609407,-0.43175332,3.04802534

>  <Name>
lig.pdb

>  <RI>
0

>  <Rbt.Current_Directory>
/home/itssahil/PROJECTS/Mol_Feturizer/New_Systems/rnas/4wcr

>  <Rbt.Executable>
rbdock ($Id: //depot/dev/client3/rdock/2013.1/src/exe/rbdock.cxx#4 $)

>  <Rbt.Library>
libRbt.so (2013.1, Build901 2013/11/27)

>  <Rbt.Parameter_File>
/export/apps/rDock/src/rDock_2013.1_src/data/scripts/dock_solv.prm

>  <Rbt.Receptor>
prm/pocket_docking_5.prm

>  <SCORE>
-8.92005

>  <SCORE.INTER>
-3.15534

>  <SCORE.INTER.CONST>
1

>  <SCORE.INTER.POLAR>
0

>  <SCORE.INTER.ROT>
9

>  <SCORE.INTER.SOLV>
20.5171

>  <SCORE.INTER.VDW>
-18.5426

>  <SCORE.INTER.norm>
-0.0751272

>  <SCORE.INTRA>
-5.76471

>  <SCORE.INTRA.DIHEDRAL>
-6.04608

>  <SCORE.INTRA.DIHEDRAL.0>
16.2863

>  <SCORE.INTRA.POLAR>
0

>  <SCORE.INTRA.POLAR.0>
0

>  <SCORE.INTRA.REPUL>
-0.314433

>  <SCORE.INTRA.REPUL.0>
0.314433

>  <SCORE.INTRA.SOLV>
-4.23664

>  <SCORE.INTRA.SOLV.lig_0>
-103.824

>  <SCORE.INTRA.VDW>
0.948815

>  <SCORE.INTRA.VDW.0>
-5.30945

>  <SCORE.INTRA.norm>
-0.137255

>  <SCORE.RESTR>
0

>  <SCORE.RESTR.CAVITY>
0

>  <SCORE.RESTR.norm>
0

>  <SCORE.SYSTEM>
0

>  <SCORE.SYSTEM.CONST>
0

>  <SCORE.SYSTEM.DIHEDRAL>
0

>  <SCORE.SYSTEM.SOLV>
0

>  <SCORE.SYSTEM.norm>
0

>  <SCORE.heavy>
42

>  <SCORE.norm>
-0.212382

>  <RMSD>
1.767

$$$$
lig.pdb
 OpenBabel11021811513D
libRbt.so/2013.1/901 2013/11/27
 42 45  0  0  0  0  0  0  0  0999 V2000
   -1.3687   16.2393   35.9586 C   0  0  2  0  0  0  0  0  0  0  0  0
   -2.0339   16.8925   37.0847 O   0  0  0  0  0  0  0  0  0  0  0  0
    0.1424   16.0089   36.4097 C   0  0  2  0  0  0  0  0  0  0  0  0
    0.1961   15.1212   37.5745 N   0  0  0  0  0  0  0  0  0  0  0  0
    0.8175   17.4365   36.7030 C   0  0  1  0  0  0  0  0  0  0  0  0
    2.1952   17.2881   37.1060 O   0  0  0  0  0  0  0  0  0  0  0  0
    0.6904   18.2721   35.4177 C   0  0  2  0  0  0  0  0  0  0  0  0
    1.2630   19.5164   35.6353 O   0  0  0  0  0  0  0  0  0  0  0  0
   -0.8470   18.4156   35.0122 C   0  0  2  0  0  0  0  0  0  0  0  0
   -1.4470   17.1342   34.7853 O   0  0  0  0  0  0  0  0  0  0  0  0
   -1.0252   19.2094   33.7491 C   0  0  0  0  0  0  0  0  0  0  0  0
   -2.4264   19.4086   33.5579 O   0  0  0  0  0  0  0  0  0  0  0  0
   -6.1999   16.9875   38.6364 C   0  0  2  0  0  0  0  0  0  0  0  0
   -7.6206   17.2453   38.7269 N   0  0  0  0  0  0  0  0  0  0  0  0
   -5.4165   18.3357   38.3966 C   0  0  0  0  0  0  0  0  0  0  0  0
   -3.8715   18.0823   38.2904 C   0  0  2  0  0  0  0  0  0  0  0  0
   -3.1851   19.3521   38.0618 N   0  0  0  0  0  0  0  0  0  0  0  0
   -3.4991   17.0795   37.1097 C   0  0  2  0  0  0  0  0  0  0  0  0
   -4.2491   15.7431   37.3801 C   0  0  2  0  0  0  0  0  0  0  0  0
   -3.8373   14.8528   36.2309 O   0  0  0  0  0  0  0  0  0  0  0  0
   -5.8548   16.0023   37.4221 C   0  0  1  0  0  0  0  0  0  0  0  0
   -6.6633   14.8206   37.7255 O   0  0  0  0  0  0  0  0  0  0  0  0
   -3.7091   13.5485   36.6306 C   0  0  1  0  0  0  0  0  0  0  0  0
   -3.2728   12.6561   35.5516 C   0  0  2  0  0  0  0  0  0  0  0  0
   -4.3496   12.4942   34.6850 O   0  0  0  0  0  0  0  0  0  0  0  0
   -2.7412   11.4508   36.3566 C   0  0  2  0  0  0  0  0  0  0  0  0
   -3.5409   10.3089   35.9745 O   0  0  0  0  0  0  0  0  0  0  0  0
   -2.9334   11.8309   37.7878 C   0  0  2  0  0  0  0  0  0  0  0  0
   -2.7341   13.2805   37.6246 O   0  0  0  0  0  0  0  0  0  0  0  0
   -1.8113   11.2258   38.7093 C   0  0  0  0  0  0  0  0  0  0  0  0
   -2.0122   11.4941   40.1295 O   0  0  0  0  0  0  0  0  0  0  0  0
   -3.2072    9.0312   36.5968 C   0  0  2  0  0  0  0  0  0  0  0  0
   -1.7001    8.6305   36.1698 C   0  0  2  0  0  0  0  0  0  0  0  0
   -1.6141    8.5580   34.6752 N   0  0  0  0  0  0  0  0  0  0  0  0
   -1.3394    7.2252   36.8619 C   0  0  1  0  0  0  0  0  0  0  0  0
   -1.4623    7.4081   38.3051 O   0  0  0  0  0  0  0  0  0  0  0  0
   -2.3440    6.1024   36.3377 C   0  0  2  0  0  0  0  0  0  0  0  0
   -2.1506    5.9664   34.8768 O   0  0  0  0  0  0  0  0  0  0  0  0
   -3.8618    6.5556   36.7286 C   0  0  1  0  0  0  0  0  0  0  0  0
   -4.1560    7.9083   36.1298 O   0  0  0  0  0  0  0  0  0  0  0  0
   -4.8776    5.4830   36.2128 C   0  0  0  0  0  0  0  0  0  0  0  0
   -4.6405    4.1287   36.8019 N   0  0  0  0  0  0  0  0  0  0  0  0
  1  3  1  0  0  0  0
  1  2  1  1  0  0  0
  3  4  1  1  0  0  0
  3  5  1  0  0  0  0
  5  6  1  6  0  0  0
  7  8  1  1  0  0  0
  7  5  1  0  0  0  0
  9 11  1  6  0  0  0
  9  7  1  0  0  0  0
 10  9  1  0  0  0  0
 10  1  1  0  0  0  0
 12 11  1  0  0  0  0
 13 14  1  6  0  0  0
 15 13  1  0  0  0  0
 16 17  1  6  0  0  0
 16 15  1  0  0  0  0
 18  2  1  1  0  0  0
 18 19  1  0  0  0  0
 18 16  1  0  0  0  0
 19 20  1  6  0  0  0
 19 21  1  0  0  0  0
 21 22  1  1  0  0  0
 21 13  1  0  0  0  0
 23 20  1  6  0  0  0
 23 29  1  0  0  0  0
 24 25  1  6  0  0  0
 24 26  1  0  0  0  0
 24 23  1  0  0  0  0
 26 27  1  6  0  0  0
 26 28  1  0  0  0  0
 28 30  1  1  0  0  0
 29 28  1  0  0  0  0
 30 31  1  0  0  0  0
 32 27  1  6  0  0  0
 32 40  1  0  0  0  0
 33 35  1  0  0  0  0
 33 32  1  0  0  0  0
 33 34  1  6  0  0  0
 35 36  1  1  0  0  0
 35 37  1  0  0  0  0
 37 38  1  6  0  0  0
 37 39  1  0  0  0  0
 39 41  1  6  0  0  0
 40 39  1  0  0  0  0
 41 42  1  0  0  0  0
M  END
>  <CHROM.1>
-170.65516127,-173.52876951,-167.90182586,144.41633068,-178.35593435,179.05544325
-175.93529219,-62.26021597,59.98603677,-2.67204532,13.44475053,36.65673390
-1.46427753,-0.31725260,-3.11945003

>  <Name>
lig.pdb

>  <RI>
0

>  <Rbt.Current_Directory>
/home/itssahil/PROJECTS/Mol_Feturizer/New_Systems/rnas/4wcr

>  <Rbt.Executable>
rbdock ($Id: //depot/dev/client3/rdock/2013.1/src/exe/rbdock.cxx#4 $)

>  <Rbt.Library>
libRbt.so (2013.1, Build901 2013/11/27)

>  <Rbt.Parameter_File>
/export/apps/rDock/src/rDock_2013.1_src/data/scripts/dock_solv.prm

>  <Rbt.Receptor>
prm/pocket_docking_2.prm

>  <SCORE>
-11.0268

>  <SCORE.INTER>
-3.01566

>  <SCORE.INTER.CONST>
1

>  <SCORE.INTER.POLAR>
0

>  <SCORE.INTER.ROT>
9

>  <SCORE.INTER.SOLV>
20.9601

>  <SCORE.INTER.VDW>
-18.5971

>  <SCORE.INTER.norm>
-0.0718015

>  <SCORE.INTRA>
-8.28959

>  <SCORE.INTRA.DIHEDRAL>
-9.7512

>  <SCORE.INTRA.DIHEDRAL.0>
16.2863

>  <SCORE.INTRA.POLAR>
0

>  <SCORE.INTRA.POLAR.0>
0

>  <SCORE.INTRA.REPUL>
-0.314433

>  <SCORE.INTRA.REPUL.0>
0.314433

>  <SCORE.INTRA.SOLV>
-4.6679

>  <SCORE.INTRA.SOLV.lig_0>
-103.824

>  <SCORE.INTRA.VDW>
0.492124

>  <SCORE.INTRA.VDW.0>
-5.30945

>  <SCORE.INTRA.norm>
-0.197371

>  <SCORE.RESTR>
0.278433

>  <SCORE.RESTR.CAVITY>
0.278433

>  <SCORE.RESTR.norm>
0.00662935

>  <SCORE.SYSTEM>
0

>  <SCORE.SYSTEM.CONST>
0

>  <SCORE.SYSTEM.DIHEDRAL>
0

>  <SCORE.SYSTEM.SOLV>
0

>  <SCORE.SYSTEM.norm>
0

>  <SCORE.heavy>
42

>  <SCORE.norm>
-0.262543

>  <RMSD>
1.771

$$$$
lig.pdb
 OpenBabel11021811513D
libRbt.so/2013.1/901 2013/11/27
 42 45  0  0  0  0  0  0  0  0999 V2000
   -1.1896   16.2656   36.5293 C   0  0  2  0  0  0  0  0  0  0  0  0
   -1.9817   17.1065   37.4252 O   0  0  0  0  0  0  0  0  0  0  0  0
    0.3213   16.7462   36.6912 C   0  0  2  0  0  0  0  0  0  0  0  0
    0.7772   16.5366   38.0681 N   0  0  0  0  0  0  0  0  0  0  0  0
    0.4244   18.2859   36.2456 C   0  0  1  0  0  0  0  0  0  0  0  0
    1.7782   18.7721   36.3618 O   0  0  0  0  0  0  0  0  0  0  0  0
   -0.0871   18.3752   34.7976 C   0  0  2  0  0  0  0  0  0  0  0  0
   -0.0141   19.6954   34.3787 O   0  0  0  0  0  0  0  0  0  0  0  0
   -1.5867   17.8339   34.7162 C   0  0  2  0  0  0  0  0  0  0  0  0
   -1.6715   16.4699   35.1473 O   0  0  0  0  0  0  0  0  0  0  0  0
   -2.1282   17.8820   33.3156 C   0  0  0  0  0  0  0  0  0  0  0  0
   -2.4012   19.2489   33.0045 O   0  0  0  0  0  0  0  0  0  0  0  0
   -6.1733   17.0965   38.9095 C   0  0  2  0  0  0  0  0  0  0  0  0
   -7.6186   17.1587   38.9270 N   0  0  0  0  0  0  0  0  0  0  0  0
   -5.5814   18.3896   38.2265 C   0  0  0  0  0  0  0  0  0  0  0  0
   -4.0132   18.3446   38.1910 C   0  0  2  0  0  0  0  0  0  0  0  0
   -3.5065   19.5540   37.5457 N   0  0  0  0  0  0  0  0  0  0  0  0
   -3.4585   17.0745   37.4051 C   0  0  2  0  0  0  0  0  0  0  0  0
   -4.0202   15.8074   38.1126 C   0  0  2  0  0  0  0  0  0  0  0  0
   -3.4438   14.6585   37.3186 O   0  0  0  0  0  0  0  0  0  0  0  0
   -5.6470   15.8278   38.0863 C   0  0  1  0  0  0  0  0  0  0  0  0
   -6.2897   14.7073   38.7744 O   0  0  0  0  0  0  0  0  0  0  0  0
   -3.6865   13.4569   37.9306 C   0  0  1  0  0  0  0  0  0  0  0  0
   -3.1772   12.3106   37.1706 C   0  0  2  0  0  0  0  0  0  0  0  0
   -4.0066   12.1428   36.0658 O   0  0  0  0  0  0  0  0  0  0  0  0
   -3.1221   11.2252   38.2670 C   0  0  2  0  0  0  0  0  0  0  0  0
   -4.0099   10.1641   37.8483 O   0  0  0  0  0  0  0  0  0  0  0  0
   -3.5933   11.9094   39.5078 C   0  0  2  0  0  0  0  0  0  0  0  0
   -3.0722   13.2496   39.1916 O   0  0  0  0  0  0  0  0  0  0  0  0
   -2.8891   11.3391   40.7936 C   0  0  0  0  0  0  0  0  0  0  0  0
   -1.4385   11.4972   40.7855 O   0  0  0  0  0  0  0  0  0  0  0  0
   -3.5789    9.3511   36.7150 C   0  0  2  0  0  0  0  0  0  0  0  0
   -4.7566    8.3022   36.3585 C   0  0  2  0  0  0  0  0  0  0  0  0
   -5.0490    7.4612   37.5643 N   0  0  0  0  0  0  0  0  0  0  0  0
   -4.2757    7.4140   35.1080 C   0  0  1  0  0  0  0  0  0  0  0  0
   -4.0132    8.3292   34.0012 O   0  0  0  0  0  0  0  0  0  0  0  0
   -2.9611    6.6035   35.5071 C   0  0  2  0  0  0  0  0  0  0  0  0
   -3.3099    5.6924   36.6200 O   0  0  0  0  0  0  0  0  0  0  0  0
   -1.8056    7.6795   35.9180 C   0  0  1  0  0  0  0  0  0  0  0  0
   -2.3026    8.5503   37.0447 O   0  0  0  0  0  0  0  0  0  0  0  0
   -0.5038    6.9168   36.3331 C   0  0  0  0  0  0  0  0  0  0  0  0
    0.6242    7.8377   36.6748 N   0  0  0  0  0  0  0  0  0  0  0  0
  1  3  1  0  0  0  0
  1  2  1  1  0  0  0
  3  4  1  1  0  0  0
  3  5  1  0  0  0  0
  5  6  1  6  0  0  0
  7  8  1  1  0  0  0
  7  5  1  0  0  0  0
  9 11  1  6  0  0  0
  9  7  1  0  0  0  0
 10  9  1  0  0  0  0
 10  1  1  0  0  0  0
 12 11  1  0  0  0  0
 13 14  1  6  0  0  0
 15 13  1  0  0  0  0
 16 17  1  6  0  0  0
 16 15  1  0  0  0  0
 18  2  1  1  0  0  0
 18 19  1  0  0  0  0
 18 16  1  0  0  0  0
 19 20  1  6  0  0  0
 19 21  1  0  0  0  0
 21 22  1  1  0  0  0
 21 13  1  0  0  0  0
 23 20  1  6  0  0  0
 23 29  1  0  0  0  0
 24 25  1  6  0  0  0
 24 26  1  0  0  0  0
 24 23  1  0  0  0  0
 26 27  1  6  0  0  0
 26 28  1  0  0  0  0
 28 30  1  1  0  0  0
 29 28  1  0  0  0  0
 30 31  1  0  0  0  0
 32 27  1  1  0  0  0
 32 40  1  0  0  0  0
 33 35  1  0  0  0  0
 33 32  1  0  0  0  0
 33 34  1  1  0  0  0
 35 36  1  6  0  0  0
 35 37  1  0  0  0  0
 37 38  1  1  0  0  0
 37 39  1  0  0  0  0
 39 41  1  1  0  0  0
 40 39  1  0  0  0  0
 41 42  1  0  0  0  0
M  END
>  <CHROM.1>
171.42695288,-73.73378327,-165.16919727,171.17807997,178.28503099,70.87582407
60.56819342,-176.20551111,177.78062031,-2.80431063,13.64564959,36.97817553
-1.45614402,-0.58345405,-3.12371414

>  <Name>
lig.pdb

>  <RI>
0

>  <Rbt.Current_Directory>
/home/itssahil/PROJECTS/Mol_Feturizer/New_Systems/rnas/4wcr

>  <Rbt.Executable>
rbdock ($Id: //depot/dev/client3/rdock/2013.1/src/exe/rbdock.cxx#4 $)

>  <Rbt.Library>
libRbt.so (2013.1, Build901 2013/11/27)

>  <Rbt.Parameter_File>
/export/apps/rDock/src/rDock_2013.1_src/data/scripts/dock_solv.prm

>  <Rbt.Receptor>
prm/pocket_docking_4.prm

>  <SCORE>
-11.4113

>  <SCORE.INTER>
-2.02358

>  <SCORE.INTER.CONST>
1

>  <SCORE.INTER.POLAR>
0

>  <SCORE.INTER.ROT>
9

>  <SCORE.INTER.SOLV>
19.969

>  <SCORE.INTER.VDW>
-17.6054

>  <SCORE.INTER.norm>
-0.0481805

>  <SCORE.INTRA>
-9.38769

>  <SCORE.INTRA.DIHEDRAL>
-12.6753

>  <SCORE.INTRA.DIHEDRAL.0>
16.2863

>  <SCORE.INTRA.POLAR>
0

>  <SCORE.INTRA.POLAR.0>
0

>  <SCORE.INTRA.REPUL>
-0.314433

>  <SCORE.INTRA.REPUL.0>
0.314433

>  <SCORE.INTRA.SOLV>
-5.54186

>  <SCORE.INTRA.SOLV.lig_0>
-103.824

>  <SCORE.INTRA.VDW>
1.29303

>  <SCORE.INTRA.VDW.0>
-5.30945

>  <SCORE.INTRA.norm>
-0.223517

>  <SCORE.RESTR>
0

>  <SCORE.RESTR.CAVITY>
0

>  <SCORE.RESTR.norm>
0

>  <SCORE.SYSTEM>
0

>  <SCORE.SYSTEM.CONST>
0

>  <SCORE.SYSTEM.DIHEDRAL>
0

>  <SCORE.SYSTEM.SOLV>
0

>  <SCORE.SYSTEM.norm>
0

>  <SCORE.heavy>
42

>  <SCORE.norm>
-0.271697

>  <RMSD>
1.812

$$$$
lig.pdb
 OpenBabel11021811513D
libRbt.so/2013.1/901 2013/11/27
 42 45  0  0  0  0  0  0  0  0999 V2000
   -0.8310   17.4426   35.3135 C   0  0  2  0  0  0  0  0  0  0  0  0
   -1.6065   17.7860   36.5042 O   0  0  0  0  0  0  0  0  0  0  0  0
    0.6827   17.8117   35.6489 C   0  0  2  0  0  0  0  0  0  0  0  0
    1.1637   17.0105   36.7778 N   0  0  0  0  0  0  0  0  0  0  0  0
    0.7779   19.3885   35.9396 C   0  0  1  0  0  0  0  0  0  0  0  0
    2.1337   19.7818   36.2392 O   0  0  0  0  0  0  0  0  0  0  0  0
    0.2401   20.1135   34.6940 C   0  0  2  0  0  0  0  0  0  0  0  0
    0.3056   21.4819   34.9106 O   0  0  0  0  0  0  0  0  0  0  0  0
   -1.2608   19.6541   34.4031 C   0  0  2  0  0  0  0  0  0  0  0  0
   -1.3380   18.2410   34.1780 O   0  0  0  0  0  0  0  0  0  0  0  0
   -1.8279   20.3209   33.1820 C   0  0  0  0  0  0  0  0  0  0  0  0
   -3.2042   19.9514   33.0876 O   0  0  0  0  0  0  0  0  0  0  0  0
   -5.4141   16.2735   38.2324 C   0  0  2  0  0  0  0  0  0  0  0  0
   -6.8250   16.0093   38.4127 N   0  0  0  0  0  0  0  0  0  0  0  0
   -5.1616   17.8266   38.1182 C   0  0  0  0  0  0  0  0  0  0  0  0
   -3.6371   18.1398   37.9175 C   0  0  2  0  0  0  0  0  0  0  0  0
   -3.4478   19.5849   37.8093 N   0  0  0  0  0  0  0  0  0  0  0  0
   -3.0400   17.4465   36.6132 C   0  0  2  0  0  0  0  0  0  0  0  0
   -3.2628   15.9131   36.7577 C   0  0  2  0  0  0  0  0  0  0  0  0
   -2.6649   15.3354   35.4962 O   0  0  0  0  0  0  0  0  0  0  0  0
   -4.8514   15.5902   36.8980 C   0  0  1  0  0  0  0  0  0  0  0  0
   -5.1791   14.1776   37.0958 O   0  0  0  0  0  0  0  0  0  0  0  0
   -2.5754   13.9700   35.5656 C   0  0  1  0  0  0  0  0  0  0  0  0
   -2.1030   13.3599   34.3183 C   0  0  2  0  0  0  0  0  0  0  0  0
   -3.1407   13.4451   33.3950 O   0  0  0  0  0  0  0  0  0  0  0  0
   -1.6279   11.9799   34.8213 C   0  0  2  0  0  0  0  0  0  0  0  0
   -2.4263   10.9888   34.1359 O   0  0  0  0  0  0  0  0  0  0  0  0
   -1.8805   12.0003   36.2928 C   0  0  2  0  0  0  0  0  0  0  0  0
   -1.6518   13.4397   36.5018 O   0  0  0  0  0  0  0  0  0  0  0  0
   -0.8119   11.1575   37.0815 C   0  0  0  0  0  0  0  0  0  0  0  0
   -1.0604   11.0939   38.5180 O   0  0  0  0  0  0  0  0  0  0  0  0
   -2.0818    9.5890   34.3661 C   0  0  2  0  0  0  0  0  0  0  0  0
   -2.9106    8.6776   33.3189 C   0  0  2  0  0  0  0  0  0  0  0  0
   -4.3773    8.9248   33.5037 N   0  0  0  0  0  0  0  0  0  0  0  0
   -2.5229    7.1390   33.5765 C   0  0  1  0  0  0  0  0  0  0  0  0
   -1.0816    7.0157   33.3785 O   0  0  0  0  0  0  0  0  0  0  0  0
   -2.9355    6.7294   35.0619 C   0  0  2  0  0  0  0  0  0  0  0  0
   -4.4044    6.8665   35.1792 O   0  0  0  0  0  0  0  0  0  0  0  0
   -2.1318    7.6995   36.0987 C   0  0  1  0  0  0  0  0  0  0  0  0
   -2.4530    9.1415   35.7948 O   0  0  0  0  0  0  0  0  0  0  0  0
   -2.5268    7.3365   37.5686 C   0  0  0  0  0  0  0  0  0  0  0  0
   -3.9564    7.6483   37.8791 N   0  0  0  0  0  0  0  0  0  0  0  0
  1  3  1  0  0  0  0
  1  2  1  1  0  0  0
  3  4  1  1  0  0  0
  3  5  1  0  0  0  0
  5  6  1  6  0  0  0
  7  8  1  1  0  0  0
  7  5  1  0  0  0  0
  9 11  1  6  0  0  0
  9  7  1  0  0  0  0
 10  9  1  0  0  0  0
 10  1  1  0  0  0  0
 12 11  1  0  0  0  0
 13 14  1  6  0  0  0
 15 13  1  0  0  0  0
 16 17  1  6  0  0  0
 16 15  1  0  0  0  0
 18  2  1  1  0  0  0
 18 19  1  0  0  0  0
 18 16  1  0  0  0  0
 19 20  1  6  0  0  0
 19 21  1  0  0  0  0
 21 22  1  1  0  0  0
 21 13  1  0  0  0  0
 23 20  1  6  0  0  0
 23 29  1  0  0  0  0
 24 25  1  6  0  0  0
 24 26  1  0  0  0  0
 24 23  1  0  0  0  0
 26 27  1  6  0  0  0
 26 28  1  0  0  0  0
 28 30  1  1  0  0  0
 29 28  1  0  0  0  0
 30 31  1  0  0  0  0
 32 27  1  1  0  0  0
 32 40  1  0  0  0  0
 33 35  1  0  0  0  0
 33 32  1  0  0  0  0
 33 34  1  1  0  0  0
 35 36  1  1  0  0  0
 35 37  1  0  0  0  0
 37 38  1  6  0  0  0
 37 39  1  0  0  0  0
 39 41  1  1  0  0  0
 40 39  1  0  0  0  0
 41 42  1  0  0  0  0
M  END
>  <CHROM.1>
-173.42246729,-174.23706238,-171.65757730,169.72799003,175.24737014,175.01557874
-177.04344485,-170.10251772,-66.61457939,-2.29635807,14.13291293,35.71400847
-1.41877308,-0.58726387,-3.02318918

>  <Name>
lig.pdb

>  <RI>
0

>  <Rbt.Current_Directory>
/home/itssahil/PROJECTS/Mol_Feturizer/New_Systems/rnas/4wcr

>  <Rbt.Executable>
rbdock ($Id: //depot/dev/client3/rdock/2013.1/src/exe/rbdock.cxx#4 $)

>  <Rbt.Library>
libRbt.so (2013.1, Build901 2013/11/27)

>  <Rbt.Parameter_File>
/export/apps/rDock/src/rDock_2013.1_src/data/scripts/dock_solv.prm

>  <Rbt.Receptor>
prm/pocket_docking_3.prm

>  <SCORE>
-10.6196

>  <SCORE.INTER>
-0.893574

>  <SCORE.INTER.CONST>
1

>  <SCORE.INTER.POLAR>
0

>  <SCORE.INTER.ROT>
9

>  <SCORE.INTER.SOLV>
22.5058

>  <SCORE.INTER.VDW>
-17.6977

>  <SCORE.INTER.norm>
-0.0212756

>  <SCORE.INTRA>
-9.72606

>  <SCORE.INTRA.DIHEDRAL>
-13.6817

>  <SCORE.INTRA.DIHEDRAL.0>
16.2863

>  <SCORE.INTRA.POLAR>
0

>  <SCORE.INTRA.POLAR.0>
0

>  <SCORE.INTRA.REPUL>
-0.314433

>  <SCORE.INTRA.REPUL.0>
0.314433

>  <SCORE.INTRA.SOLV>
-4.40831

>  <SCORE.INTRA.SOLV.lig_0>
-103.824

>  <SCORE.INTRA.VDW>
0.891117

>  <SCORE.INTRA.VDW.0>
-5.30945

>  <SCORE.INTRA.norm>
-0.231573

>  <SCORE.RESTR>
0

>  <SCORE.RESTR.CAVITY>
0

>  <SCORE.RESTR.norm>
0

>  <SCORE.SYSTEM>
0

>  <SCORE.SYSTEM.CONST>
0

>  <SCORE.SYSTEM.DIHEDRAL>
0

>  <SCORE.SYSTEM.SOLV>
0

>  <SCORE.SYSTEM.norm>
0

>  <SCORE.heavy>
42

>  <SCORE.norm>
-0.252848

>  <RMSD>
1.839

$$$$
lig.pdb
 OpenBabel11021811513D
libRbt.so/2013.1/901 2013/11/27
 42 45  0  0  0  0  0  0  0  0999 V2000
   -1.2127   16.3396   36.4821 C   0  0  2  0  0  0  0  0  0  0  0  0
   -2.0148   17.1760   37.3733 O   0  0  0  0  0  0  0  0  0  0  0  0
    0.3003   16.7956   36.6892 C   0  0  2  0  0  0  0  0  0  0  0  0
    0.7193   16.5555   38.0728 N   0  0  0  0  0  0  0  0  0  0  0  0
    0.4357   18.3412   36.2737 C   0  0  1  0  0  0  0  0  0  0  0  0
    1.7928   18.8059   36.4314 O   0  0  0  0  0  0  0  0  0  0  0  0
   -0.0388   18.4630   34.8155 C   0  0  2  0  0  0  0  0  0  0  0  0
    0.0628   19.7892   34.4220 O   0  0  0  0  0  0  0  0  0  0  0  0
   -1.5433   17.9447   34.6880 C   0  0  2  0  0  0  0  0  0  0  0  0
   -1.6576   16.5748   35.0927 O   0  0  0  0  0  0  0  0  0  0  0  0
   -2.0495   18.0250   33.2758 C   0  0  0  0  0  0  0  0  0  0  0  0
   -3.4527   17.7603   33.3039 O   0  0  0  0  0  0  0  0  0  0  0  0
   -6.1493   16.9841   38.9988 C   0  0  2  0  0  0  0  0  0  0  0  0
   -7.5945   16.9795   39.0648 N   0  0  0  0  0  0  0  0  0  0  0  0
   -5.6413   18.2976   38.2878 C   0  0  0  0  0  0  0  0  0  0  0  0
   -4.0748   18.3249   38.1994 C   0  0  2  0  0  0  0  0  0  0  0  0
   -3.6468   19.5512   37.5296 N   0  0  0  0  0  0  0  0  0  0  0  0
   -3.4884   17.0756   37.4034 C   0  0  2  0  0  0  0  0  0  0  0  0
   -3.9665   15.7896   38.1377 C   0  0  2  0  0  0  0  0  0  0  0  0
   -3.3642   14.6622   37.3321 O   0  0  0  0  0  0  0  0  0  0  0  0
   -5.5924   15.7345   38.1665 C   0  0  1  0  0  0  0  0  0  0  0  0
   -6.1589   14.5911   38.8832 O   0  0  0  0  0  0  0  0  0  0  0  0
   -3.5993   13.4471   37.9201 C   0  0  1  0  0  0  0  0  0  0  0  0
   -3.1303   12.3164   37.1121 C   0  0  2  0  0  0  0  0  0  0  0  0
   -3.9999   12.1875   36.0333 O   0  0  0  0  0  0  0  0  0  0  0  0
   -3.0493   11.2012   38.1765 C   0  0  2  0  0  0  0  0  0  0  0  0
   -3.9636   10.1614   37.7613 O   0  0  0  0  0  0  0  0  0  0  0  0
   -3.4687   11.8565   39.4510 C   0  0  2  0  0  0  0  0  0  0  0  0
   -2.9435   13.1992   39.1525 O   0  0  0  0  0  0  0  0  0  0  0  0
   -2.7264   11.2441   40.6954 C   0  0  0  0  0  0  0  0  0  0  0  0
   -3.1865   11.7784   41.9729 O   0  0  0  0  0  0  0  0  0  0  0  0
   -3.5653    9.3515   36.6139 C   0  0  2  0  0  0  0  0  0  0  0  0
   -4.7524    8.3029   36.2892 C   0  0  2  0  0  0  0  0  0  0  0  0
   -5.0093    7.4586   37.5008 N   0  0  0  0  0  0  0  0  0  0  0  0
   -4.3078    7.4180   35.0229 C   0  0  1  0  0  0  0  0  0  0  0  0
   -4.0779    8.3362   33.9113 O   0  0  0  0  0  0  0  0  0  0  0  0
   -2.9818    6.6072   35.3816 C   0  0  2  0  0  0  0  0  0  0  0  0
   -3.2976    5.6932   36.5018 O   0  0  0  0  0  0  0  0  0  0  0  0
   -1.8152    7.6828   35.7614 C   0  0  1  0  0  0  0  0  0  0  0  0
   -2.2796    8.5505   36.9043 O   0  0  0  0  0  0  0  0  0  0  0  0
   -0.5016    6.9198   36.1366 C   0  0  0  0  0  0  0  0  0  0  0  0
    0.6192    7.8397   36.5036 N   0  0  0  0  0  0  0  0  0  0  0  0
  1  3  1  0  0  0  0
  1  2  1  1  0  0  0
  3  4  1  1  0  0  0
  3  5  1  0  0  0  0
  5  6  1  6  0  0  0
  7  8  1  1  0  0  0
  7  5  1  0  0  0  0
  9 11  1  6  0  0  0
  9  7  1  0  0  0  0
 10  9  1  0  0  0  0
 10  1  1  0  0  0  0
 12 11  1  0  0  0  0
 13 14  1  6  0  0  0
 15 13  1  0  0  0  0
 16 17  1  6  0  0  0
 16 15  1  0  0  0  0
 18  2  1  1  0  0  0
 18 19  1  0  0  0  0
 18 16  1  0  0  0  0
 19 20  1  6  0  0  0
 19 21  1  0  0  0  0
 21 22  1  1  0  0  0
 21 13  1  0  0  0  0
 23 20  1  6  0  0  0
 23 29  1  0  0  0  0
 24 25  1  6  0  0  0
 24 26  1  0  0  0  0
 24 23  1  0  0  0  0
 26 27  1  6  0  0  0
 26 28  1  0  0  0  0
 28 30  1  1  0  0  0
 29 28  1  0  0  0  0
 30 31  1  0  0  0  0
 32 27  1  1  0  0  0
 32 40  1  0  0  0  0
 33 35  1  0  0  0  0
 33 32  1  0  0  0  0
 33 34  1  1  0  0  0
 35 36  1  6  0  0  0
 35 37  1  0  0  0  0
 37 38  1  1  0  0  0
 37 39  1  0  0  0  0
 39 41  1  1  0  0  0
 40 39  1  0  0  0  0
 41 42  1  0  0  0  0
M  END
>  <CHROM.1>
177.10663959,-170.35847726,-166.84277039,174.77759621,175.11040296,72.46137452
-175.21548773,-177.64272606,-179.79360095,-2.85814965,13.61502470,36.98618661
-1.44531189,-0.66517975,-3.09020407

>  <Name>
lig.pdb

>  <RI>
0

>  <Rbt.Current_Directory>
/home/itssahil/PROJECTS/Mol_Feturizer/New_Systems/rnas/4wcr

>  <Rbt.Executable>
rbdock ($Id: //depot/dev/client3/rdock/2013.1/src/exe/rbdock.cxx#4 $)

>  <Rbt.Library>
libRbt.so (2013.1, Build901 2013/11/27)

>  <Rbt.Parameter_File>
/export/apps/rDock/src/rDock_2013.1_src/data/scripts/dock_solv.prm

>  <Rbt.Receptor>
prm/pocket_docking_4.prm

>  <SCORE>
-12.2282

>  <SCORE.INTER>
-2.08867

>  <SCORE.INTER.CONST>
1

>  <SCORE.INTER.POLAR>
0

>  <SCORE.INTER.ROT>
9

>  <SCORE.INTER.SOLV>
19.849

>  <SCORE.INTER.VDW>
-17.6088

>  <SCORE.INTER.norm>
-0.0497302

>  <SCORE.INTRA>
-10.1395

>  <SCORE.INTRA.DIHEDRAL>
-13.4928

>  <SCORE.INTRA.DIHEDRAL.0>
16.2863

>  <SCORE.INTRA.POLAR>
0

>  <SCORE.INTRA.POLAR.0>
0

>  <SCORE.INTRA.REPUL>
-0.314433

>  <SCORE.INTRA.REPUL.0>
0.314433

>  <SCORE.INTRA.SOLV>
-6.2091

>  <SCORE.INTRA.SOLV.lig_0>
-103.824

>  <SCORE.INTRA.VDW>
1.28361

>  <SCORE.INTRA.VDW.0>
-5.30945

>  <SCORE.INTRA.norm>
-0.241417

>  <SCORE.RESTR>
0

>  <SCORE.RESTR.CAVITY>
0

>  <SCORE.RESTR.norm>
0

>  <SCORE.SYSTEM>
0

>  <SCORE.SYSTEM.CONST>
0

>  <SCORE.SYSTEM.DIHEDRAL>
0

>  <SCORE.SYSTEM.SOLV>
0

>  <SCORE.SYSTEM.norm>
0

>  <SCORE.heavy>
42

>  <SCORE.norm>
-0.291147

>  <RMSD>
1.879

$$$$
lig.pdb
 OpenBabel11021811513D
libRbt.so/2013.1/901 2013/11/27
 42 45  0  0  0  0  0  0  0  0999 V2000
   -1.1052   16.4216   36.2436 C   0  0  2  0  0  0  0  0  0  0  0  0
   -1.9208   17.1332   37.2262 O   0  0  0  0  0  0  0  0  0  0  0  0
    0.4121   16.7396   36.6135 C   0  0  2  0  0  0  0  0  0  0  0  0
    0.7269   16.2311   37.9514 N   0  0  0  0  0  0  0  0  0  0  0  0
    0.6521   18.3232   36.4942 C   0  0  1  0  0  0  0  0  0  0  0  0
    2.0177   18.6681   36.8085 O   0  0  0  0  0  0  0  0  0  0  0  0
    0.2809   18.7323   35.0585 C   0  0  2  0  0  0  0  0  0  0  0  0
    0.4747   20.0985   34.9190 O   0  0  0  0  0  0  0  0  0  0  0  0
   -1.2362   18.3384   34.7559 C   0  0  2  0  0  0  0  0  0  0  0  0
   -1.4457   16.9279   34.8976 O   0  0  0  0  0  0  0  0  0  0  0  0
   -1.6443   18.7004   33.3560 C   0  0  0  0  0  0  0  0  0  0  0  0
   -1.6757   20.1256   33.2698 O   0  0  0  0  0  0  0  0  0  0  0  0
   -6.1212   16.7736   38.6403 C   0  0  2  0  0  0  0  0  0  0  0  0
   -7.5675   16.8054   38.6543 N   0  0  0  0  0  0  0  0  0  0  0  0
   -5.5502   18.1810   38.2139 C   0  0  0  0  0  0  0  0  0  0  0  0
   -3.9812   18.1717   38.1867 C   0  0  2  0  0  0  0  0  0  0  0  0
   -3.4940   19.4884   37.7810 N   0  0  0  0  0  0  0  0  0  0  0  0
   -3.3965   17.0789   37.1855 C   0  0  2  0  0  0  0  0  0  0  0  0
   -3.9380   15.6930   37.6411 C   0  0  2  0  0  0  0  0  0  0  0  0
   -3.3339   14.7211   36.6546 O   0  0  0  0  0  0  0  0  0  0  0  0
   -5.5646   15.6886   37.6025 C   0  0  1  0  0  0  0  0  0  0  0  0
   -6.1899   14.4488   38.0653 O   0  0  0  0  0  0  0  0  0  0  0  0
   -3.4851   13.4254   37.0734 C   0  0  1  0  0  0  0  0  0  0  0  0
   -2.8343   12.4544   36.1875 C   0  0  2  0  0  0  0  0  0  0  0  0
   -3.5947   12.3781   35.0245 O   0  0  0  0  0  0  0  0  0  0  0  0
   -2.7218   11.2282   37.1186 C   0  0  2  0  0  0  0  0  0  0  0  0
   -3.4834   10.1653   36.5023 O   0  0  0  0  0  0  0  0  0  0  0  0
   -3.3108   11.6763   38.4156 C   0  0  2  0  0  0  0  0  0  0  0  0
   -2.9090   13.0898   38.3248 O   0  0  0  0  0  0  0  0  0  0  0  0
   -2.6111   10.9876   39.6447 C   0  0  0  0  0  0  0  0  0  0  0  0
   -1.1941   11.3127   39.7695 O   0  0  0  0  0  0  0  0  0  0  0  0
   -2.9382    9.5868   35.2779 C   0  0  2  0  0  0  0  0  0  0  0  0
   -3.9141    8.3908   34.7967 C   0  0  2  0  0  0  0  0  0  0  0  0
   -4.0216    7.3720   35.8908 N   0  0  0  0  0  0  0  0  0  0  0  0
   -3.3091    7.7620   33.4467 C   0  0  1  0  0  0  0  0  0  0  0  0
   -3.2422    8.8359   32.4598 O   0  0  0  0  0  0  0  0  0  0  0  0
   -1.8606    7.1634   33.7430 C   0  0  2  0  0  0  0  0  0  0  0  0
   -2.0128    6.0770   34.7364 O   0  0  0  0  0  0  0  0  0  0  0  0
   -0.9101    8.3751   34.2815 C   0  0  1  0  0  0  0  0  0  0  0  0
   -1.5307    8.9989   35.5065 O   0  0  0  0  0  0  0  0  0  0  0  0
    0.5175    7.8189   34.5996 C   0  0  0  0  0  0  0  0  0  0  0  0
    1.4633    8.8800   35.0651 N   0  0  0  0  0  0  0  0  0  0  0  0
  1  3  1  0  0  0  0
  1  2  1  1  0  0  0
  3  4  1  1  0  0  0
  3  5  1  0  0  0  0
  5  6  1  6  0  0  0
  7  8  1  1  0  0  0
  7  5  1  0  0  0  0
  9 11  1  6  0  0  0
  9  7  1  0  0  0  0
 10  9  1  0  0  0  0
 10  1  1  0  0  0  0
 12 11  1  0  0  0  0
 13 14  1  6  0  0  0
 15 13  1  0  0  0  0
 16 17  1  6  0  0  0
 16 15  1  0  0  0  0
 18  2  1  1  0  0  0
 18 19  1  0  0  0  0
 18 16  1  0  0  0  0
 19 20  1  6  0  0  0
 19 21  1  0  0  0  0
 21 22  1  1  0  0  0
 21 13  1  0  0  0  0
 23 20  1  6  0  0  0
 23 29  1  0  0  0  0
 24 25  1  6  0  0  0
 24 26  1  0  0  0  0
 24 23  1  0  0  0  0
 26 27  1  6  0  0  0
 26 28  1  0  0  0  0
 28 30  1  1  0  0  0
 29 28  1  0  0  0  0
 30 31  1  0  0  0  0
 32 27  1  1  0  0  0
 32 40  1  0  0  0  0
 33 35  1  0  0  0  0
 33 32  1  0  0  0  0
 33 34  1  1  0  0  0
 35 36  1  6  0  0  0
 35 37  1  0  0  0  0
 37 38  1  1  0  0  0
 37 39  1  0  0  0  0
 39 41  1  1  0  0  0
 40 39  1  0  0  0  0
 41 42  1  0  0  0  0
M  END
>  <CHROM.1>
179.39320445,-68.24388383,-168.80344589,167.44079164,-176.19962176,69.83784564
62.61749839,177.93294934,178.42125555,-2.39851379,13.79651093,36.27601720
-1.54008611,-0.54027331,-3.00018013

>  <Name>
lig.pdb

>  <RI>
0

>  <Rbt.Current_Directory>
/home/itssahil/PROJECTS/Mol_Feturizer/New_Systems/rnas/4wcr

>  <Rbt.Executable>
rbdock ($Id: //depot/dev/client3/rdock/2013.1/src/exe/rbdock.cxx#4 $)

>  <Rbt.Library>
libRbt.so (2013.1, Build901 2013/11/27)

>  <Rbt.Parameter_File>
/export/apps/rDock/src/rDock_2013.1_src/data/scripts/dock_solv.prm

>  <Rbt.Receptor>
prm/pocket_docking_7.prm

>  <SCORE>
-11.893

>  <SCORE.INTER>
-2.13859

>  <SCORE.INTER.CONST>
1

>  <SCORE.INTER.POLAR>
0

>  <SCORE.INTER.ROT>
9

>  <SCORE.INTER.SOLV>
19.5081

>  <SCORE.INTER.VDW>
-17.5284

>  <SCORE.INTER.norm>
-0.0509188

>  <SCORE.INTRA>
-9.75445

>  <SCORE.INTRA.DIHEDRAL>
-13.5823

>  <SCORE.INTRA.DIHEDRAL.0>
16.2863

>  <SCORE.INTRA.POLAR>
0

>  <SCORE.INTRA.POLAR.0>
0

>  <SCORE.INTRA.REPUL>
-0.314433

>  <SCORE.INTRA.REPUL.0>
0.314433

>  <SCORE.INTRA.SOLV>
-5.71202

>  <SCORE.INTRA.SOLV.lig_0>
-103.824

>  <SCORE.INTRA.VDW>
1.4649

>  <SCORE.INTRA.VDW.0>
-5.30945

>  <SCORE.INTRA.norm>
-0.232249

>  <SCORE.RESTR>
0

>  <SCORE.RESTR.CAVITY>
0

>  <SCORE.RESTR.norm>
0

>  <SCORE.SYSTEM>
0

>  <SCORE.SYSTEM.CONST>
0

>  <SCORE.SYSTEM.DIHEDRAL>
0

>  <SCORE.SYSTEM.SOLV>
0

>  <SCORE.SYSTEM.norm>
0

>  <SCORE.heavy>
42

>  <SCORE.norm>
-0.283168

>  <RMSD>
1.880

$$$$
lig.pdb
 OpenBabel11021811513D
libRbt.so/2013.1/901 2013/11/27
 42 45  0  0  0  0  0  0  0  0999 V2000
   -1.0726   16.8406   35.9128 C   0  0  2  0  0  0  0  0  0  0  0  0
   -1.8729   17.4184   36.9911 O   0  0  0  0  0  0  0  0  0  0  0  0
    0.4510   17.0619   36.3244 C   0  0  2  0  0  0  0  0  0  0  0  0
    0.7494   16.3523   37.5715 N   0  0  0  0  0  0  0  0  0  0  0  0
    0.7309   18.6391   36.4418 C   0  0  1  0  0  0  0  0  0  0  0  0
    2.1038   18.8989   36.8026 O   0  0  0  0  0  0  0  0  0  0  0  0
    0.3740   19.2663   35.0832 C   0  0  2  0  0  0  0  0  0  0  0  0
    0.6023   20.6328   35.1483 O   0  0  0  0  0  0  0  0  0  0  0  0
   -1.1516   18.9600   34.7268 C   0  0  2  0  0  0  0  0  0  0  0  0
   -1.3967   17.5498   34.6574 O   0  0  0  0  0  0  0  0  0  0  0  0
   -1.5466   19.5363   33.3967 C   0  0  0  0  0  0  0  0  0  0  0  0
   -1.5450   20.9587   33.5243 O   0  0  0  0  0  0  0  0  0  0  0  0
   -5.9938   16.8293   38.5544 C   0  0  2  0  0  0  0  0  0  0  0  0
   -7.4384   16.7954   38.6251 N   0  0  0  0  0  0  0  0  0  0  0  0
   -5.5026   18.2727   38.1494 C   0  0  0  0  0  0  0  0  0  0  0  0
   -3.9371   18.3348   38.0615 C   0  0  2  0  0  0  0  0  0  0  0  0
   -3.5247   19.6834   37.6777 N   0  0  0  0  0  0  0  0  0  0  0  0
   -3.3453   17.2988   37.0056 C   0  0  2  0  0  0  0  0  0  0  0  0
   -3.8068   15.8773   37.4393 C   0  0  2  0  0  0  0  0  0  0  0  0
   -3.2003   14.9625   36.4010 O   0  0  0  0  0  0  0  0  0  0  0  0
   -5.4319   15.8007   37.4633 C   0  0  1  0  0  0  0  0  0  0  0  0
   -5.9832   14.5212   37.9118 O   0  0  0  0  0  0  0  0  0  0  0  0
   -3.1905   13.6604   36.8272 C   0  0  1  0  0  0  0  0  0  0  0  0
   -2.6920   12.7263   35.8123 C   0  0  2  0  0  0  0  0  0  0  0  0
   -3.6767   12.6091   34.8359 O   0  0  0  0  0  0  0  0  0  0  0  0
   -2.3198   11.5078   36.6840 C   0  0  2  0  0  0  0  0  0  0  0  0
   -3.1375   10.4053   36.2306 O   0  0  0  0  0  0  0  0  0  0  0  0
   -2.6431   11.9230   38.0814 C   0  0  2  0  0  0  0  0  0  0  0  0
   -2.3451   13.3563   37.9242 O   0  0  0  0  0  0  0  0  0  0  0  0
   -1.6632   11.2731   39.1263 C   0  0  0  0  0  0  0  0  0  0  0  0
   -2.0082   11.5658   40.5135 O   0  0  0  0  0  0  0  0  0  0  0  0
   -2.8808    9.1010   36.8339 C   0  0  2  0  0  0  0  0  0  0  0  0
   -1.4248    8.5900   36.3514 C   0  0  2  0  0  0  0  0  0  0  0  0
   -1.3972    8.5230   34.8542 N   0  0  0  0  0  0  0  0  0  0  0  0
   -1.1485    7.1558   37.0228 C   0  0  1  0  0  0  0  0  0  0  0  0
   -1.2062    7.3361   38.4705 O   0  0  0  0  0  0  0  0  0  0  0  0
   -2.2538    6.1171   36.5290 C   0  0  2  0  0  0  0  0  0  0  0  0
   -2.1229    5.9783   35.0614 O   0  0  0  0  0  0  0  0  0  0  0  0
   -3.7178    6.6816   36.9761 C   0  0  1  0  0  0  0  0  0  0  0  0
   -3.9286    8.0575   36.3953 O   0  0  0  0  0  0  0  0  0  0  0  0
   -4.8303    5.6937   36.4914 C   0  0  0  0  0  0  0  0  0  0  0  0
   -4.6811    4.3226   37.0703 N   0  0  0  0  0  0  0  0  0  0  0  0
  1  3  1  0  0  0  0
  1  2  1  1  0  0  0
  3  4  1  1  0  0  0
  3  5  1  0  0  0  0
  5  6  1  6  0  0  0
  7  8  1  1  0  0  0
  7  5  1  0  0  0  0
  9 11  1  6  0  0  0
  9  7  1  0  0  0  0
 10  9  1  0  0  0  0
 10  1  1  0  0  0  0
 12 11  1  0  0  0  0
 13 14  1  6  0  0  0
 15 13  1  0  0  0  0
 16 17  1  6  0  0  0
 16 15  1  0  0  0  0
 18  2  1  1  0  0  0
 18 19  1  0  0  0  0
 18 16  1  0  0  0  0
 19 20  1  6  0  0  0
 19 21  1  0  0  0  0
 21 22  1  1  0  0  0
 21 13  1  0  0  0  0
 23 20  1  6  0  0  0
 23 29  1  0  0  0  0
 24 25  1  6  0  0  0
 24 26  1  0  0  0  0
 24 23  1  0  0  0  0
 26 27  1  6  0  0  0
 26 28  1  0  0  0  0
 28 30  1  1  0  0  0
 29 28  1  0  0  0  0
 30 31  1  0  0  0  0
 32 27  1  6  0  0  0
 32 40  1  0  0  0  0
 33 35  1  0  0  0  0
 33 32  1  0  0  0  0
 33 34  1  6  0  0  0
 35 36  1  1  0  0  0
 35 37  1  0  0  0  0
 37 38  1  6  0  0  0
 37 39  1  0  0  0  0
 39 41  1  6  0  0  0
 40 39  1  0  0  0  0
 41 42  1  0  0  0  0
M  END
>  <CHROM.1>
-174.91419549,-68.37080277,-165.09097752,163.07584125,176.14172924,174.85754927
-175.34675530,-67.89374391,60.29289156,-2.48602951,13.74401646,36.70202836
-1.44937378,-0.40196424,3.12366164

>  <Name>
lig.pdb

>  <RI>
0

>  <Rbt.Current_Directory>
/home/itssahil/PROJECTS/Mol_Feturizer/New_Systems/rnas/4wcr

>  <Rbt.Executable>
rbdock ($Id: //depot/dev/client3/rdock/2013.1/src/exe/rbdock.cxx#4 $)

>  <Rbt.Library>
libRbt.so (2013.1, Build901 2013/11/27)

>  <Rbt.Parameter_File>
/export/apps/rDock/src/rDock_2013.1_src/data/scripts/dock_solv.prm

>  <Rbt.Receptor>
prm/pocket_docking_2.prm

>  <SCORE>
-10.8232

>  <SCORE.INTER>
-1.48772

>  <SCORE.INTER.CONST>
1

>  <SCORE.INTER.POLAR>
0

>  <SCORE.INTER.ROT>
9

>  <SCORE.INTER.SOLV>
21.469

>  <SCORE.INTER.VDW>
-17.7481

>  <SCORE.INTER.norm>
-0.0354218

>  <SCORE.INTRA>
-9.44361

>  <SCORE.INTRA.DIHEDRAL>
-12.4537

>  <SCORE.INTRA.DIHEDRAL.0>
16.2863

>  <SCORE.INTRA.POLAR>
0

>  <SCORE.INTRA.POLAR.0>
0

>  <SCORE.INTRA.REPUL>
-0.314433

>  <SCORE.INTRA.REPUL.0>
0.314433

>  <SCORE.INTRA.SOLV>
-5.26438

>  <SCORE.INTRA.SOLV.lig_0>
-103.824

>  <SCORE.INTRA.VDW>
0.987584

>  <SCORE.INTRA.VDW.0>
-5.30945

>  <SCORE.INTRA.norm>
-0.224848

>  <SCORE.RESTR>
0.108161

>  <SCORE.RESTR.CAVITY>
0.108161

>  <SCORE.RESTR.norm>
0.00257526

>  <SCORE.SYSTEM>
0

>  <SCORE.SYSTEM.CONST>
0

>  <SCORE.SYSTEM.DIHEDRAL>
0

>  <SCORE.SYSTEM.SOLV>
0

>  <SCORE.SYSTEM.norm>
0

>  <SCORE.heavy>
42

>  <SCORE.norm>
-0.257694

>  <RMSD>
1.883

$$$$
lig.pdb
 OpenBabel11021811513D
libRbt.so/2013.1/901 2013/11/27
 42 45  0  0  0  0  0  0  0  0999 V2000
   -2.1521   16.7291   35.6339 C   0  0  2  0  0  0  0  0  0  0  0  0
   -2.5554   16.9236   37.0256 O   0  0  0  0  0  0  0  0  0  0  0  0
   -0.6581   16.1761   35.6788 C   0  0  2  0  0  0  0  0  0  0  0  0
   -0.6137   14.8857   36.3721 N   0  0  0  0  0  0  0  0  0  0  0  0
    0.2789   17.2752   36.3816 C   0  0  1  0  0  0  0  0  0  0  0  0
    1.6505   16.8301   36.4392 O   0  0  0  0  0  0  0  0  0  0  0  0
    0.1392   18.5759   35.5722 C   0  0  2  0  0  0  0  0  0  0  0  0
    0.9359   19.5513   36.1533 O   0  0  0  0  0  0  0  0  0  0  0  0
   -1.3895   19.0343   35.5392 C   0  0  2  0  0  0  0  0  0  0  0  0
   -2.2204   18.0320   34.9401 O   0  0  0  0  0  0  0  0  0  0  0  0
   -1.5835   20.2933   34.7427 C   0  0  0  0  0  0  0  0  0  0  0  0
   -1.0555   20.0638   33.4358 O   0  0  0  0  0  0  0  0  0  0  0  0
   -6.3510   16.4963   39.3024 C   0  0  2  0  0  0  0  0  0  0  0  0
   -7.7092   16.7133   39.7507 N   0  0  0  0  0  0  0  0  0  0  0  0
   -5.5303   17.8412   39.3823 C   0  0  0  0  0  0  0  0  0  0  0  0
   -4.0526   17.6334   38.8966 C   0  0  2  0  0  0  0  0  0  0  0  0
   -3.3307   18.9013   38.9793 N   0  0  0  0  0  0  0  0  0  0  0  0
   -3.9743   17.0968   37.3985 C   0  0  2  0  0  0  0  0  0  0  0  0
   -4.7558   15.7522   37.3442 C   0  0  2  0  0  0  0  0  0  0  0  0
   -4.6251   15.3102   35.9053 O   0  0  0  0  0  0  0  0  0  0  0  0
   -6.3043   15.9879   37.7846 C   0  0  1  0  0  0  0  0  0  0  0  0
   -7.1261   14.7774   37.8243 O   0  0  0  0  0  0  0  0  0  0  0  0
   -4.0113   14.0888   35.8118 C   0  0  1  0  0  0  0  0  0  0  0  0
   -4.7331   13.0262   36.5196 C   0  0  2  0  0  0  0  0  0  0  0  0
   -4.5510   13.2370   37.8831 O   0  0  0  0  0  0  0  0  0  0  0  0
   -4.1458   11.7665   35.8475 C   0  0  2  0  0  0  0  0  0  0  0  0
   -3.4981   11.0017   36.8892 O   0  0  0  0  0  0  0  0  0  0  0  0
   -3.1797   12.2873   34.8350 C   0  0  2  0  0  0  0  0  0  0  0  0
   -3.8988   13.5311   34.5130 O   0  0  0  0  0  0  0  0  0  0  0  0
   -3.1023   11.3578   33.5683 C   0  0  0  0  0  0  0  0  0  0  0  0
   -4.4082   10.9884   33.0325 O   0  0  0  0  0  0  0  0  0  0  0  0
   -2.7638    9.8103   36.4741 C   0  0  2  0  0  0  0  0  0  0  0  0
   -3.7876    8.8148   35.7157 C   0  0  2  0  0  0  0  0  0  0  0  0
   -4.9189    8.4750   36.6384 N   0  0  0  0  0  0  0  0  0  0  0  0
   -2.9708    7.5079   35.2589 C   0  0  1  0  0  0  0  0  0  0  0  0
   -1.8965    7.9540   34.3765 O   0  0  0  0  0  0  0  0  0  0  0  0
   -2.3868    6.7701   36.5470 C   0  0  2  0  0  0  0  0  0  0  0  0
   -3.5309    6.3378   37.3802 O   0  0  0  0  0  0  0  0  0  0  0  0
   -1.4027    7.8117   37.3271 C   0  0  1  0  0  0  0  0  0  0  0  0
   -2.1689    9.0609   37.6839 O   0  0  0  0  0  0  0  0  0  0  0  0
   -0.8242    7.1253   38.6088 C   0  0  0  0  0  0  0  0  0  0  0  0
   -1.8753    6.8208   39.6285 N   0  0  0  0  0  0  0  0  0  0  0  0
  1  3  1  0  0  0  0
  1  2  1  1  0  0  0
  3  4  1  1  0  0  0
  3  5  1  0  0  0  0
  5  6  1  6  0  0  0
  7  8  1  1  0  0  0
  7  5  1  0  0  0  0
  9 11  1  6  0  0  0
  9  7  1  0  0  0  0
 10  9  1  0  0  0  0
 10  1  1  0  0  0  0
 12 11  1  0  0  0  0
 13 14  1  6  0  0  0
 15 13  1  0  0  0  0
 16 17  1  6  0  0  0
 16 15  1  0  0  0  0
 18  2  1  1  0  0  0
 18 19  1  0  0  0  0
 18 16  1  0  0  0  0
 19 20  1  6  0  0  0
 19 21  1  0  0  0  0
 21 22  1  1  0  0  0
 21 13  1  0  0  0  0
 23 20  1  6  0  0  0
 23 29  1  0  0  0  0
 24 25  1  1  0  0  0
 24 26  1  0  0  0  0
 24 23  1  0  0  0  0
 26 27  1  1  0  0  0
 26 28  1  0  0  0  0
 28 30  1  6  0  0  0
 29 28  1  0  0  0  0
 30 31  1  0  0  0  0
 32 27  1  1  0  0  0
 32 40  1  0  0  0  0
 33 35  1  0  0  0  0
 33 32  1  0  0  0  0
 33 34  1  1  0  0  0
 35 36  1  6  0  0  0
 35 37  1  0  0  0  0
 37 38  1  1  0  0  0
 37 39  1  0  0  0  0
 39 41  1  1  0  0  0
 40 39  1  0  0  0  0
 41 42  1  0  0  0  0
M  END
>  <CHROM.1>
-164.24643772,55.93152093,-166.32301029,120.55233484,59.61131260,-174.93648532
48.12902597,-58.68386844,-65.68833657,-3.01147353,13.77846825,36.52171596
-1.49872905,-0.50333918,-3.12474066

>  <Name>
lig.pdb

>  <RI>
0

>  <Rbt.Current_Directory>
/home/itssahil/PROJECTS/Mol_Feturizer/New_Systems/rnas/4wcr

>  <Rbt.Executable>
rbdock ($Id: //depot/dev/client3/rdock/2013.1/src/exe/rbdock.cxx#4 $)

>  <Rbt.Library>
libRbt.so (2013.1, Build901 2013/11/27)

>  <Rbt.Parameter_File>
/export/apps/rDock/src/rDock_2013.1_src/data/scripts/dock_solv.prm

>  <Rbt.Receptor>
prm/pocket_docking_2.prm

>  <SCORE>
-1.16454

>  <SCORE.INTER>
0.799072

>  <SCORE.INTER.CONST>
1

>  <SCORE.INTER.POLAR>
0

>  <SCORE.INTER.ROT>
9

>  <SCORE.INTER.SOLV>
16.2716

>  <SCORE.INTER.VDW>
-14.4912

>  <SCORE.INTER.norm>
0.0190255

>  <SCORE.INTRA>
-2.49594

>  <SCORE.INTRA.DIHEDRAL>
-5.73365

>  <SCORE.INTRA.DIHEDRAL.0>
16.2863

>  <SCORE.INTRA.POLAR>
0

>  <SCORE.INTRA.POLAR.0>
0

>  <SCORE.INTRA.REPUL>
-0.314433

>  <SCORE.INTRA.REPUL.0>
0.314433

>  <SCORE.INTRA.SOLV>
-0.666096

>  <SCORE.INTRA.SOLV.lig_0>
-103.824

>  <SCORE.INTRA.VDW>
2.2761

>  <SCORE.INTRA.VDW.0>
-5.30945

>  <SCORE.INTRA.norm>
-0.0594272

>  <SCORE.RESTR>
0.532334

>  <SCORE.RESTR.CAVITY>
0.532334

>  <SCORE.RESTR.norm>
0.0126746

>  <SCORE.SYSTEM>
0

>  <SCORE.SYSTEM.CONST>
0

>  <SCORE.SYSTEM.DIHEDRAL>
0

>  <SCORE.SYSTEM.SOLV>
0

>  <SCORE.SYSTEM.norm>
0

>  <SCORE.heavy>
42

>  <SCORE.norm>
-0.0277271

>  <RMSD>
1.958

$$$$
lig.pdb
 OpenBabel11021811513D
libRbt.so/2013.1/901 2013/11/27
 42 45  0  0  0  0  0  0  0  0999 V2000
   -2.6335   16.1426   35.5053 C   0  0  2  0  0  0  0  0  0  0  0  0
   -3.0521   16.9625   36.6409 O   0  0  0  0  0  0  0  0  0  0  0  0
   -1.0734   16.4091   35.3176 C   0  0  2  0  0  0  0  0  0  0  0  0
   -0.3371   15.9818   36.5104 N   0  0  0  0  0  0  0  0  0  0  0  0
   -0.8506   17.9661   34.9922 C   0  0  1  0  0  0  0  0  0  0  0  0
    0.5486   18.2631   34.8008 O   0  0  0  0  0  0  0  0  0  0  0  0
   -1.6754   18.2901   33.7347 C   0  0  2  0  0  0  0  0  0  0  0  0
   -1.5080   19.6315   33.4242 O   0  0  0  0  0  0  0  0  0  0  0  0
   -3.2144   17.9528   33.9920 C   0  0  2  0  0  0  0  0  0  0  0  0
   -3.3968   16.5683   34.3137 O   0  0  0  0  0  0  0  0  0  0  0  0
   -4.0628   18.2344   32.7845 C   0  0  0  0  0  0  0  0  0  0  0  0
   -3.9220   17.1298   31.8902 O   0  0  0  0  0  0  0  0  0  0  0  0
   -6.5864   16.7101   39.3274 C   0  0  2  0  0  0  0  0  0  0  0  0
   -7.9419   16.8265   39.8196 N   0  0  0  0  0  0  0  0  0  0  0  0
   -6.0589   18.1174   38.8479 C   0  0  0  0  0  0  0  0  0  0  0  0
   -4.5902   18.0173   38.3046 C   0  0  2  0  0  0  0  0  0  0  0  0
   -4.1432   19.3375   37.8652 N   0  0  0  0  0  0  0  0  0  0  0  0
   -4.4606   17.0009   37.0846 C   0  0  2  0  0  0  0  0  0  0  0  0
   -4.9489   15.6101   37.5835 C   0  0  2  0  0  0  0  0  0  0  0  0
   -4.7854   14.7110   36.3803 O   0  0  0  0  0  0  0  0  0  0  0  0
   -6.4945   15.7067   38.0828 C   0  0  1  0  0  0  0  0  0  0  0  0
   -7.0462   14.4653   38.6275 O   0  0  0  0  0  0  0  0  0  0  0  0
   -4.2821   13.4873   36.7359 C   0  0  1  0  0  0  0  0  0  0  0  0
   -4.1959   12.5511   35.6101 C   0  0  2  0  0  0  0  0  0  0  0  0
   -5.4928   12.1514   35.3018 O   0  0  0  0  0  0  0  0  0  0  0  0
   -3.1793   11.5237   36.1523 C   0  0  2  0  0  0  0  0  0  0  0  0
   -3.8592   10.2489   36.1988 O   0  0  0  0  0  0  0  0  0  0  0  0
   -2.8128   12.0266   37.5097 C   0  0  2  0  0  0  0  0  0  0  0  0
   -2.9495   13.4636   37.2198 O   0  0  0  0  0  0  0  0  0  0  0  0
   -1.3226   11.6832   37.8780 C   0  0  0  0  0  0  0  0  0  0  0  0
   -0.9472   12.0811   39.2308 O   0  0  0  0  0  0  0  0  0  0  0  0
   -3.0326    9.0676   36.4271 C   0  0  2  0  0  0  0  0  0  0  0  0
   -3.9498    7.7520   36.2218 C   0  0  2  0  0  0  0  0  0  0  0  0
   -5.1103    7.8076   37.1688 N   0  0  0  0  0  0  0  0  0  0  0  0
   -3.0316    6.4563   36.4712 C   0  0  1  0  0  0  0  0  0  0  0  0
   -1.9367    6.5083   35.5067 O   0  0  0  0  0  0  0  0  0  0  0  0
   -2.4800    6.4770   37.9678 C   0  0  2  0  0  0  0  0  0  0  0  0
   -3.6426    6.4079   38.8810 O   0  0  0  0  0  0  0  0  0  0  0  0
   -1.6064    7.8402   38.1689 C   0  0  1  0  0  0  0  0  0  0  0  0
   -2.4649    9.0414   37.8611 O   0  0  0  0  0  0  0  0  0  0  0  0
   -1.0630    7.9022   39.6350 C   0  0  0  0  0  0  0  0  0  0  0  0
   -2.1535    7.9946   40.6546 N   0  0  0  0  0  0  0  0  0  0  0  0
  1  3  1  0  0  0  0
  1  2  1  1  0  0  0
  3  4  1  1  0  0  0
  3  5  1  0  0  0  0
  5  6  1  6  0  0  0
  7  8  1  1  0  0  0
  7  5  1  0  0  0  0
  9 11  1  6  0  0  0
  9  7  1  0  0  0  0
 10  9  1  0  0  0  0
 10  1  1  0  0  0  0
 12 11  1  0  0  0  0
 13 14  1  6  0  0  0
 15 13  1  0  0  0  0
 16 17  1  6  0  0  0
 16 15  1  0  0  0  0
 18  2  1  1  0  0  0
 18 19  1  0  0  0  0
 18 16  1  0  0  0  0
 19 20  1  6  0  0  0
 19 21  1  0  0  0  0
 21 22  1  1  0  0  0
 21 13  1  0  0  0  0
 23 20  1  6  0  0  0
 23 29  1  0  0  0  0
 24 25  1  1  0  0  0
 24 26  1  0  0  0  0
 24 23  1  0  0  0  0
 26 27  1  1  0  0  0
 26 28  1  0  0  0  0
 28 30  1  6  0  0  0
 29 28  1  0  0  0  0
 30 31  1  0  0  0  0
 32 27  1  1  0  0  0
 32 40  1  0  0  0  0
 33 35  1  0  0  0  0
 33 32  1  0  0  0  0
 33 34  1  1  0  0  0
 35 36  1  6  0  0  0
 35 37  1  0  0  0  0
 37 38  1  1  0  0  0
 37 39  1  0  0  0  0
 39 41  1  1  0  0  0
 40 39  1  0  0  0  0
 41 42  1  0  0  0  0
M  END
>  <CHROM.1>
178.15189198,80.48342872,-178.16199514,138.61098441,175.97083538,168.21922563
-176.29484008,-171.64058479,-63.72170493,-3.36394997,13.53002077,36.70733128
-1.64300093,-0.72069915,2.87955018

>  <Name>
lig.pdb

>  <RI>
0

>  <Rbt.Current_Directory>
/home/itssahil/PROJECTS/Mol_Feturizer/New_Systems/rnas/4wcr

>  <Rbt.Executable>
rbdock ($Id: //depot/dev/client3/rdock/2013.1/src/exe/rbdock.cxx#4 $)

>  <Rbt.Library>
libRbt.so (2013.1, Build901 2013/11/27)

>  <Rbt.Parameter_File>
/export/apps/rDock/src/rDock_2013.1_src/data/scripts/dock_solv.prm

>  <Rbt.Receptor>
prm/pocket_docking_5.prm

>  <SCORE>
-7.6525

>  <SCORE.INTER>
-1.04205

>  <SCORE.INTER.CONST>
1

>  <SCORE.INTER.POLAR>
0

>  <SCORE.INTER.ROT>
9

>  <SCORE.INTER.SOLV>
21.3994

>  <SCORE.INTER.VDW>
-17.4278

>  <SCORE.INTER.norm>
-0.0248106

>  <SCORE.INTRA>
-6.62029

>  <SCORE.INTRA.DIHEDRAL>
-7.5582

>  <SCORE.INTRA.DIHEDRAL.0>
16.2863

>  <SCORE.INTRA.POLAR>
0

>  <SCORE.INTRA.POLAR.0>
0

>  <SCORE.INTRA.REPUL>
-0.314433

>  <SCORE.INTRA.REPUL.0>
0.314433

>  <SCORE.INTRA.SOLV>
-3.8051

>  <SCORE.INTRA.SOLV.lig_0>
-103.824

>  <SCORE.INTRA.VDW>
0.63352

>  <SCORE.INTRA.VDW.0>
-5.30945

>  <SCORE.INTRA.norm>
-0.157626

>  <SCORE.RESTR>
0.00983589

>  <SCORE.RESTR.CAVITY>
0.00983589

>  <SCORE.RESTR.norm>
0.000234188

>  <SCORE.SYSTEM>
0

>  <SCORE.SYSTEM.CONST>
0

>  <SCORE.SYSTEM.DIHEDRAL>
0

>  <SCORE.SYSTEM.SOLV>
0

>  <SCORE.SYSTEM.norm>
0

>  <SCORE.heavy>
42

>  <SCORE.norm>
-0.182202

>  <RMSD>
1.978

$$$$
lig.pdb
 OpenBabel11021811513D
libRbt.so/2013.1/901 2013/11/27
 42 45  0  0  0  0  0  0  0  0999 V2000
   -2.1330   16.7181   35.6722 C   0  0  2  0  0  0  0  0  0  0  0  0
   -2.5325   17.2204   36.9857 O   0  0  0  0  0  0  0  0  0  0  0  0
   -0.6464   16.1690   35.8413 C   0  0  2  0  0  0  0  0  0  0  0  0
   -0.6186   15.0632   36.8026 N   0  0  0  0  0  0  0  0  0  0  0  0
    0.3057   17.3838   36.2860 C   0  0  1  0  0  0  0  0  0  0  0  0
    1.6712   16.9444   36.4434 O   0  0  0  0  0  0  0  0  0  0  0  0
    0.1827   18.4753   35.2090 C   0  0  2  0  0  0  0  0  0  0  0  0
    0.9927   19.5444   35.5620 O   0  0  0  0  0  0  0  0  0  0  0  0
   -1.3399   18.9352   35.0723 C   0  0  2  0  0  0  0  0  0  0  0  0
   -2.1845   17.8364   34.7076 O   0  0  0  0  0  0  0  0  0  0  0  0
   -1.5178   19.9897   34.0171 C   0  0  0  0  0  0  0  0  0  0  0  0
   -2.9031   20.3351   33.9803 O   0  0  0  0  0  0  0  0  0  0  0  0
   -6.2893   16.7216   39.3117 C   0  0  2  0  0  0  0  0  0  0  0  0
   -7.6536   16.8950   39.7608 N   0  0  0  0  0  0  0  0  0  0  0  0
   -5.5330   18.1060   39.3221 C   0  0  0  0  0  0  0  0  0  0  0  0
   -4.0502   17.9456   38.8342 C   0  0  2  0  0  0  0  0  0  0  0  0
   -3.3888   19.2487   38.8519 N   0  0  0  0  0  0  0  0  0  0  0  0
   -3.9557   17.3437   37.3621 C   0  0  2  0  0  0  0  0  0  0  0  0
   -4.6728   15.9627   37.3769 C   0  0  2  0  0  0  0  0  0  0  0  0
   -4.5301   15.4605   35.9591 O   0  0  0  0  0  0  0  0  0  0  0  0
   -6.2280   16.1455   37.8189 C   0  0  1  0  0  0  0  0  0  0  0  0
   -6.9911   14.9008   37.9217 O   0  0  0  0  0  0  0  0  0  0  0  0
   -3.9316   14.2285   35.9234 C   0  0  1  0  0  0  0  0  0  0  0  0
   -4.7494   13.1735   36.5312 C   0  0  2  0  0  0  0  0  0  0  0  0
   -4.7225   13.3685   37.9089 O   0  0  0  0  0  0  0  0  0  0  0  0
   -4.1110   11.9090   35.9174 C   0  0  2  0  0  0  0  0  0  0  0  0
   -3.6019   11.1226   37.0184 O   0  0  0  0  0  0  0  0  0  0  0  0
   -3.0251   12.4203   35.0292 C   0  0  2  0  0  0  0  0  0  0  0  0
   -3.6796   13.6805   34.6402 O   0  0  0  0  0  0  0  0  0  0  0  0
   -2.8183   11.5010   33.7696 C   0  0  0  0  0  0  0  0  0  0  0  0
   -3.9875   11.4282   32.8996 O   0  0  0  0  0  0  0  0  0  0  0  0
   -2.8686    9.9071   36.6780 C   0  0  2  0  0  0  0  0  0  0  0  0
   -3.8295    8.9607   35.7864 C   0  0  2  0  0  0  0  0  0  0  0  0
   -5.0770    8.6569   36.5597 N   0  0  0  0  0  0  0  0  0  0  0  0
   -3.0136    7.6270   35.4129 C   0  0  1  0  0  0  0  0  0  0  0  0
   -1.8236    8.0389   34.6741 O   0  0  0  0  0  0  0  0  0  0  0  0
   -2.6195    6.8538   36.7513 C   0  0  2  0  0  0  0  0  0  0  0  0
   -3.8723    6.4590   37.4331 O   0  0  0  0  0  0  0  0  0  0  0  0
   -1.6989    7.8478   37.6604 C   0  0  1  0  0  0  0  0  0  0  0  0
   -2.4546    9.1227   37.9399 O   0  0  0  0  0  0  0  0  0  0  0  0
   -1.3075    7.1262   38.9926 C   0  0  0  0  0  0  0  0  0  0  0  0
   -2.4937    6.7820   39.8362 N   0  0  0  0  0  0  0  0  0  0  0  0
  1  3  1  0  0  0  0
  1  2  1  1  0  0  0
  3  4  1  1  0  0  0
  3  5  1  0  0  0  0
  5  6  1  6  0  0  0
  7  8  1  1  0  0  0
  7  5  1  0  0  0  0
  9 11  1  6  0  0  0
  9  7  1  0  0  0  0
 10  9  1  0  0  0  0
 10  1  1  0  0  0  0
 12 11  1  0  0  0  0
 13 14  1  6  0  0  0
 15 13  1  0  0  0  0
 16 17  1  6  0  0  0
 16 15  1  0  0  0  0
 18  2  1  1  0  0  0
 18 19  1  0  0  0  0
 18 16  1  0  0  0  0
 19 20  1  6  0  0  0
 19 21  1  0  0  0  0
 21 22  1  1  0  0  0
 21 13  1  0  0  0  0
 23 20  1  6  0  0  0
 23 29  1  0  0  0  0
 24 25  1  1  0  0  0
 24 26  1  0  0  0  0
 24 23  1  0  0  0  0
 26 27  1  1  0  0  0
 26 28  1  0  0  0  0
 28 30  1  6  0  0  0
 29 28  1  0  0  0  0
 30 31  1  0  0  0  0
 32 27  1  1  0  0  0
 32 40  1  0  0  0  0
 33 35  1  0  0  0  0
 33 32  1  0  0  0  0
 33 34  1  1  0  0  0
 35 36  1  1  0  0  0
 35 37  1  0  0  0  0
 37 38  1  1  0  0  0
 37 39  1  0  0  0  0
 39 41  1  1  0  0  0
 40 39  1  0  0  0  0
 41 42  1  0  0  0  0
M  END
>  <CHROM.1>
-157.13757038,-179.65910422,-178.81789370,124.21943312,66.21084634,-176.10224138
62.37396149,-57.49928290,-62.33478834,-3.07938402,13.89623925,36.55642156
-1.49755609,-0.56145237,3.12876451

>  <Name>
lig.pdb

>  <RI>
0

>  <Rbt.Current_Directory>
/home/itssahil/PROJECTS/Mol_Feturizer/New_Systems/rnas/4wcr

>  <Rbt.Executable>
rbdock ($Id: //depot/dev/client3/rdock/2013.1/src/exe/rbdock.cxx#4 $)

>  <Rbt.Library>
libRbt.so (2013.1, Build901 2013/11/27)

>  <Rbt.Parameter_File>
/export/apps/rDock/src/rDock_2013.1_src/data/scripts/dock_solv.prm

>  <Rbt.Receptor>
prm/pocket_docking_2.prm

>  <SCORE>
-2.71479

>  <SCORE.INTER>
-0.416252

>  <SCORE.INTER.CONST>
1

>  <SCORE.INTER.POLAR>
0

>  <SCORE.INTER.ROT>
9

>  <SCORE.INTER.SOLV>
18.1748

>  <SCORE.INTER.VDW>
-15.9358

>  <SCORE.INTER.norm>
-0.00991076

>  <SCORE.INTRA>
-3.02274

>  <SCORE.INTRA.DIHEDRAL>
-6.01683

>  <SCORE.INTRA.DIHEDRAL.0>
16.2863

>  <SCORE.INTRA.POLAR>
0

>  <SCORE.INTRA.POLAR.0>
0

>  <SCORE.INTRA.REPUL>
-0.314433

>  <SCORE.INTRA.REPUL.0>
0.314433

>  <SCORE.INTRA.SOLV>
-1.16944

>  <SCORE.INTRA.SOLV.lig_0>
-103.824

>  <SCORE.INTRA.VDW>
2.14256

>  <SCORE.INTRA.VDW.0>
-5.30945

>  <SCORE.INTRA.norm>
-0.07197

>  <SCORE.RESTR>
0.724205

>  <SCORE.RESTR.CAVITY>
0.724205

>  <SCORE.RESTR.norm>
0.017243

>  <SCORE.SYSTEM>
0

>  <SCORE.SYSTEM.CONST>
0

>  <SCORE.SYSTEM.DIHEDRAL>
0

>  <SCORE.SYSTEM.SOLV>
0

>  <SCORE.SYSTEM.norm>
0

>  <SCORE.heavy>
42

>  <SCORE.norm>
-0.0646378

>  <RMSD>
1.980

$$$$
lig.pdb
 OpenBabel11021811513D
libRbt.so/2013.1/901 2013/11/27
 42 45  0  0  0  0  0  0  0  0999 V2000
   -1.2139   16.2421   36.6811 C   0  0  2  0  0  0  0  0  0  0  0  0
   -2.0133   17.1346   37.5187 O   0  0  0  0  0  0  0  0  0  0  0  0
    0.3042   16.6793   36.8910 C   0  0  2  0  0  0  0  0  0  0  0  0
    0.6973   16.4973   38.2910 N   0  0  0  0  0  0  0  0  0  0  0  0
    0.4758   18.2006   36.4053 C   0  0  1  0  0  0  0  0  0  0  0  0
    1.8391   18.6469   36.5629 O   0  0  0  0  0  0  0  0  0  0  0  0
    0.0262   18.2619   34.9354 C   0  0  2  0  0  0  0  0  0  0  0  0
    0.1594   19.5657   34.4815 O   0  0  0  0  0  0  0  0  0  0  0  0
   -1.4859   17.7662   34.8082 C   0  0  2  0  0  0  0  0  0  0  0  0
   -1.6329   16.4193   35.2751 O   0  0  0  0  0  0  0  0  0  0  0  0
   -1.9688   17.7887   33.3857 C   0  0  0  0  0  0  0  0  0  0  0  0
   -3.3440   17.4036   33.3899 O   0  0  0  0  0  0  0  0  0  0  0  0
   -6.2127   17.2555   38.9759 C   0  0  2  0  0  0  0  0  0  0  0  0
   -7.6582   17.3136   38.9801 N   0  0  0  0  0  0  0  0  0  0  0  0
   -5.6214   18.4769   38.1714 C   0  0  0  0  0  0  0  0  0  0  0  0
   -4.0529   18.4346   38.1482 C   0  0  2  0  0  0  0  0  0  0  0  0
   -3.5468   19.5763   37.3891 N   0  0  0  0  0  0  0  0  0  0  0  0
   -3.4899   17.0952   37.4945 C   0  0  2  0  0  0  0  0  0  0  0  0
   -4.0511   15.9021   38.3211 C   0  0  2  0  0  0  0  0  0  0  0  0
   -3.4667   14.6826   37.6474 O   0  0  0  0  0  0  0  0  0  0  0  0
   -5.6778   15.9137   38.2848 C   0  0  1  0  0  0  0  0  0  0  0  0
   -6.3205   14.8642   39.0772 O   0  0  0  0  0  0  0  0  0  0  0  0
   -3.8662   13.5289   38.2692 C   0  0  1  0  0  0  0  0  0  0  0  0
   -3.3310   12.3188   37.6364 C   0  0  2  0  0  0  0  0  0  0  0  0
   -4.0103   12.1432   36.4345 O   0  0  0  0  0  0  0  0  0  0  0  0
   -3.4951   11.2884   38.7741 C   0  0  2  0  0  0  0  0  0  0  0  0
   -4.3825   10.2597   38.2802 O   0  0  0  0  0  0  0  0  0  0  0  0
   -4.0877   12.0595   39.9072 C   0  0  2  0  0  0  0  0  0  0  0  0
   -3.4447   13.3505   39.6113 O   0  0  0  0  0  0  0  0  0  0  0  0
   -3.6035   11.5154   41.3015 C   0  0  0  0  0  0  0  0  0  0  0  0
   -2.1562   11.5663   41.4794 O   0  0  0  0  0  0  0  0  0  0  0  0
   -3.7903    9.2265   37.4358 C   0  0  2  0  0  0  0  0  0  0  0  0
   -4.9835    8.3679   36.7624 C   0  0  2  0  0  0  0  0  0  0  0  0
   -5.8369    7.7777   37.8440 N   0  0  0  0  0  0  0  0  0  0  0  0
   -4.3234    7.2356   35.8319 C   0  0  1  0  0  0  0  0  0  0  0  0
   -3.5138    7.9178   34.8265 O   0  0  0  0  0  0  0  0  0  0  0  0
   -3.4284    6.2668   36.7291 C   0  0  2  0  0  0  0  0  0  0  0  0
   -4.3181    5.6052   37.7093 O   0  0  0  0  0  0  0  0  0  0  0  0
   -2.2676    7.1637   37.4434 C   0  0  1  0  0  0  0  0  0  0  0  0
   -2.9053    8.2640   38.2541 O   0  0  0  0  0  0  0  0  0  0  0  0
   -1.3792    6.2461   38.3475 C   0  0  0  0  0  0  0  0  0  0  0  0
   -0.6172    5.2238   37.5655 N   0  0  0  0  0  0  0  0  0  0  0  0
  1  3  1  0  0  0  0
  1  2  1  1  0  0  0
  3  4  1  1  0  0  0
  3  5  1  0  0  0  0
  5  6  1  6  0  0  0
  7  8  1  1  0  0  0
  7  5  1  0  0  0  0
  9 11  1  6  0  0  0
  9  7  1  0  0  0  0
 10  9  1  0  0  0  0
 10  1  1  0  0  0  0
 12 11  1  0  0  0  0
 13 14  1  6  0  0  0
 15 13  1  0  0  0  0
 16 17  1  6  0  0  0
 16 15  1  0  0  0  0
 18  2  1  1  0  0  0
 18 19  1  0  0  0  0
 18 16  1  0  0  0  0
 19 20  1  6  0  0  0
 19 21  1  0  0  0  0
 21 22  1  1  0  0  0
 21 13  1  0  0  0  0
 23 20  1  6  0  0  0
 23 29  1  0  0  0  0
 24 25  1  6  0  0  0
 24 26  1  0  0  0  0
 24 23  1  0  0  0  0
 26 27  1  6  0  0  0
 26 28  1  0  0  0  0
 28 30  1  1  0  0  0
 29 28  1  0  0  0  0
 30 31  1  0  0  0  0
 32 27  1  1  0  0  0
 32 40  1  0  0  0  0
 33 35  1  0  0  0  0
 33 32  1  0  0  0  0
 33 34  1  1  0  0  0
 35 36  1  6  0  0  0
 35 37  1  0  0  0  0
 37 38  1  1  0  0  0
 37 39  1  0  0  0  0
 39 41  1  1  0  0  0
 40 39  1  0  0  0  0
 41 42  1  0  0  0  0
M  END
>  <CHROM.1>
174.94754789,-176.77785149,-163.12244265,179.72165630,179.39896064,81.41342579
59.44187798,-168.79570931,64.64776897,-3.03526106,13.50207446,37.40909717
-1.41530255,-0.57026573,3.10784903

>  <Name>
lig.pdb

>  <RI>
0

>  <Rbt.Current_Directory>
/home/itssahil/PROJECTS/Mol_Feturizer/New_Systems/rnas/4wcr

>  <Rbt.Executable>
rbdock ($Id: //depot/dev/client3/rdock/2013.1/src/exe/rbdock.cxx#4 $)

>  <Rbt.Library>
libRbt.so (2013.1, Build901 2013/11/27)

>  <Rbt.Parameter_File>
/export/apps/rDock/src/rDock_2013.1_src/data/scripts/dock_solv.prm

>  <Rbt.Receptor>
prm/pocket_docking_4.prm

>  <SCORE>
-11.7171

>  <SCORE.INTER>
-2.87464

>  <SCORE.INTER.CONST>
1

>  <SCORE.INTER.POLAR>
0

>  <SCORE.INTER.ROT>
9

>  <SCORE.INTER.SOLV>
21.9748

>  <SCORE.INTER.VDW>
-18.8414

>  <SCORE.INTER.norm>
-0.0684437

>  <SCORE.INTRA>
-8.84249

>  <SCORE.INTRA.DIHEDRAL>
-11.5942

>  <SCORE.INTRA.DIHEDRAL.0>
16.2863

>  <SCORE.INTRA.POLAR>
0

>  <SCORE.INTRA.POLAR.0>
0

>  <SCORE.INTRA.REPUL>
-0.314433

>  <SCORE.INTRA.REPUL.0>
0.314433

>  <SCORE.INTRA.SOLV>
-5.18352

>  <SCORE.INTRA.SOLV.lig_0>
-103.824

>  <SCORE.INTRA.VDW>
1.11855

>  <SCORE.INTRA.VDW.0>
-5.30945

>  <SCORE.INTRA.norm>
-0.210536

>  <SCORE.RESTR>
0

>  <SCORE.RESTR.CAVITY>
0

>  <SCORE.RESTR.norm>
0

>  <SCORE.SYSTEM>
0

>  <SCORE.SYSTEM.CONST>
0

>  <SCORE.SYSTEM.DIHEDRAL>
0

>  <SCORE.SYSTEM.SOLV>
0

>  <SCORE.SYSTEM.norm>
0

>  <SCORE.heavy>
42

>  <SCORE.norm>
-0.278979

>  <RMSD>
1.980

$$$$
lig.pdb
 OpenBabel11021811513D
libRbt.so/2013.1/901 2013/11/27
 42 45  0  0  0  0  0  0  0  0999 V2000
   -1.3951   16.8239   35.8023 C   0  0  2  0  0  0  0  0  0  0  0  0
   -2.1281   17.4189   36.9186 O   0  0  0  0  0  0  0  0  0  0  0  0
    0.1447   16.8653   36.2112 C   0  0  2  0  0  0  0  0  0  0  0  0
    0.3736   16.0602   37.4141 N   0  0  0  0  0  0  0  0  0  0  0  0
    0.5848   18.3967   36.4130 C   0  0  1  0  0  0  0  0  0  0  0  0
    1.9785   18.4947   36.7747 O   0  0  0  0  0  0  0  0  0  0  0  0
    0.2889   19.1322   35.0947 C   0  0  2  0  0  0  0  0  0  0  0  0
    0.6560   20.4625   35.2333 O   0  0  0  0  0  0  0  0  0  0  0  0
   -1.2614   19.0035   34.7364 C   0  0  2  0  0  0  0  0  0  0  0  0
   -1.6497   17.6317   34.5913 O   0  0  0  0  0  0  0  0  0  0  0  0
   -1.6004   19.6907   33.4441 C   0  0  0  0  0  0  0  0  0  0  0  0
   -2.9971   19.9880   33.4660 O   0  0  0  0  0  0  0  0  0  0  0  0
   -6.1912   17.0260   38.6819 C   0  0  2  0  0  0  0  0  0  0  0  0
   -7.6318   17.0355   38.8145 N   0  0  0  0  0  0  0  0  0  0  0  0
   -5.6818   18.4321   38.1797 C   0  0  0  0  0  0  0  0  0  0  0  0
   -4.1205   18.4466   38.0233 C   0  0  2  0  0  0  0  0  0  0  0  0
   -3.6913   19.7612   37.5506 N   0  0  0  0  0  0  0  0  0  0  0  0
   -3.6010   17.3406   37.0009 C   0  0  2  0  0  0  0  0  0  0  0  0
   -4.0789   15.9571   37.5294 C   0  0  2  0  0  0  0  0  0  0  0  0
   -3.5409   14.9725   36.5175 O   0  0  0  0  0  0  0  0  0  0  0  0
   -5.7029   15.9264   37.6252 C   0  0  1  0  0  0  0  0  0  0  0  0
   -6.2662   14.6879   38.1646 O   0  0  0  0  0  0  0  0  0  0  0  0
   -3.6042   13.6874   36.9884 C   0  0  1  0  0  0  0  0  0  0  0  0
   -3.0091   12.7088   36.0723 C   0  0  2  0  0  0  0  0  0  0  0  0
   -3.8766   12.5686   34.9931 O   0  0  0  0  0  0  0  0  0  0  0  0
   -2.7624   11.5190   37.0245 C   0  0  2  0  0  0  0  0  0  0  0  0
   -3.5423   10.4117   36.5192 O   0  0  0  0  0  0  0  0  0  0  0  0
   -3.2370   11.9912   38.3592 C   0  0  2  0  0  0  0  0  0  0  0  0
   -2.8967   13.4132   38.1862 O   0  0  0  0  0  0  0  0  0  0  0  0
   -2.3962   11.3675   39.5333 C   0  0  0  0  0  0  0  0  0  0  0  0
   -0.9572   11.5626   39.3909 O   0  0  0  0  0  0  0  0  0  0  0  0
   -3.3133    9.1077   37.1340 C   0  0  2  0  0  0  0  0  0  0  0  0
   -1.7523    8.7246   36.9585 C   0  0  2  0  0  0  0  0  0  0  0  0
   -1.4077    8.7175   35.4997 N   0  0  0  0  0  0  0  0  0  0  0  0
   -1.5079    7.2900   37.6411 C   0  0  1  0  0  0  0  0  0  0  0  0
   -1.8807    7.4096   39.0477 O   0  0  0  0  0  0  0  0  0  0  0  0
   -2.3988    6.1922   36.9024 C   0  0  2  0  0  0  0  0  0  0  0  0
   -1.9538    6.1201   35.4927 O   0  0  0  0  0  0  0  0  0  0  0  0
   -3.9644    6.6294   37.0428 C   0  0  1  0  0  0  0  0  0  0  0  0
   -4.1591    8.0073   36.4612 O   0  0  0  0  0  0  0  0  0  0  0  0
   -4.8682    5.5814   36.3125 C   0  0  0  0  0  0  0  0  0  0  0  0
   -4.7034    4.1964   36.8529 N   0  0  0  0  0  0  0  0  0  0  0  0
  1  3  1  0  0  0  0
  1  2  1  1  0  0  0
  3  4  1  1  0  0  0
  3  5  1  0  0  0  0
  5  6  1  6  0  0  0
  7  8  1  1  0  0  0
  7  5  1  0  0  0  0
  9 11  1  6  0  0  0
  9  7  1  0  0  0  0
 10  9  1  0  0  0  0
 10  1  1  0  0  0  0
 12 11  1  0  0  0  0
 13 14  1  6  0  0  0
 15 13  1  0  0  0  0
 16 17  1  6  0  0  0
 16 15  1  0  0  0  0
 18  2  1  1  0  0  0
 18 19  1  0  0  0  0
 18 16  1  0  0  0  0
 19 20  1  6  0  0  0
 19 21  1  0  0  0  0
 21 22  1  1  0  0  0
 21 13  1  0  0  0  0
 23 20  1  6  0  0  0
 23 29  1  0  0  0  0
 24 25  1  6  0  0  0
 24 26  1  0  0  0  0
 24 23  1  0  0  0  0
 26 27  1  6  0  0  0
 26 28  1  0  0  0  0
 28 30  1  1  0  0  0
 29 28  1  0  0  0  0
 30 31  1  0  0  0  0
 32 27  1  6  0  0  0
 32 40  1  0  0  0  0
 33 35  1  0  0  0  0
 33 32  1  0  0  0  0
 33 34  1  6  0  0  0
 35 36  1  1  0  0  0
 35 37  1  0  0  0  0
 37 38  1  6  0  0  0
 37 39  1  0  0  0  0
 39 41  1  6  0  0  0
 40 39  1  0  0  0  0
 41 42  1  0  0  0  0
M  END
>  <CHROM.1>
-169.25318890,-157.45803879,-161.79662773,165.94572305,-176.16034399,170.76587513
53.34548686,-58.25370675,58.60334546,-2.73951400,13.73231611,36.80859234
-1.46744288,-0.35054596,3.09374302

>  <Name>
lig.pdb

>  <RI>
0

>  <Rbt.Current_Directory>
/home/itssahil/PROJECTS/Mol_Feturizer/New_Systems/rnas/4wcr

>  <Rbt.Executable>
rbdock ($Id: //depot/dev/client3/rdock/2013.1/src/exe/rbdock.cxx#4 $)

>  <Rbt.Library>
libRbt.so (2013.1, Build901 2013/11/27)

>  <Rbt.Parameter_File>
/export/apps/rDock/src/rDock_2013.1_src/data/scripts/dock_solv.prm

>  <Rbt.Receptor>
prm/pocket_docking_2.prm

>  <SCORE>
-10.4075

>  <SCORE.INTER>
-2.34509

>  <SCORE.INTER.CONST>
1

>  <SCORE.INTER.POLAR>
0

>  <SCORE.INTER.ROT>
9

>  <SCORE.INTER.SOLV>
21.0182

>  <SCORE.INTER.VDW>
-18.1695

>  <SCORE.INTER.norm>
-0.0558355

>  <SCORE.INTRA>
-8.26831

>  <SCORE.INTRA.DIHEDRAL>
-10.4412

>  <SCORE.INTRA.DIHEDRAL.0>
16.2863

>  <SCORE.INTRA.POLAR>
0

>  <SCORE.INTRA.POLAR.0>
0

>  <SCORE.INTRA.REPUL>
-0.314433

>  <SCORE.INTRA.REPUL.0>
0.314433

>  <SCORE.INTRA.SOLV>
-4.32108

>  <SCORE.INTRA.SOLV.lig_0>
-103.824

>  <SCORE.INTRA.VDW>
0.684998

>  <SCORE.INTRA.VDW.0>
-5.30945

>  <SCORE.INTRA.norm>
-0.196864

>  <SCORE.RESTR>
0.20587

>  <SCORE.RESTR.CAVITY>
0.20587

>  <SCORE.RESTR.norm>
0.00490167

>  <SCORE.SYSTEM>
0

>  <SCORE.SYSTEM.CONST>
0

>  <SCORE.SYSTEM.DIHEDRAL>
0

>  <SCORE.SYSTEM.SOLV>
0

>  <SCORE.SYSTEM.norm>
0

>  <SCORE.heavy>
42

>  <SCORE.norm>
-0.247798

>  <RMSD>
1.981

$$$$
lig.pdb
 OpenBabel11021811513D
libRbt.so/2013.1/901 2013/11/27
 42 45  0  0  0  0  0  0  0  0999 V2000
   -1.3638   16.2952   36.0039 C   0  0  2  0  0  0  0  0  0  0  0  0
   -2.0434   16.9547   37.1176 O   0  0  0  0  0  0  0  0  0  0  0  0
    0.1276   16.0212   36.4947 C   0  0  2  0  0  0  0  0  0  0  0  0
    0.1255   15.1213   37.6513 N   0  0  0  0  0  0  0  0  0  0  0  0
    0.8307   17.4279   36.8215 C   0  0  1  0  0  0  0  0  0  0  0  0
    2.1922   17.2397   37.2613 O   0  0  0  0  0  0  0  0  0  0  0  0
    0.7615   18.2787   35.5417 C   0  0  2  0  0  0  0  0  0  0  0  0
    1.3597   19.5055   35.7881 O   0  0  0  0  0  0  0  0  0  0  0  0
   -0.7595   18.4661   35.0949 C   0  0  2  0  0  0  0  0  0  0  0  0
   -1.3858   17.2030   34.8381 O   0  0  0  0  0  0  0  0  0  0  0  0
   -0.8815   19.2763   33.8356 C   0  0  0  0  0  0  0  0  0  0  0  0
   -2.2721   19.4977   33.5970 O   0  0  0  0  0  0  0  0  0  0  0  0
   -6.1910   17.1625   38.7071 C   0  0  2  0  0  0  0  0  0  0  0  0
   -7.6165   17.3968   38.7839 N   0  0  0  0  0  0  0  0  0  0  0  0
   -5.4451   18.4834   38.2739 C   0  0  0  0  0  0  0  0  0  0  0  0
   -3.8956   18.2544   38.1789 C   0  0  2  0  0  0  0  0  0  0  0  0
   -3.2446   19.4969   37.7689 N   0  0  0  0  0  0  0  0  0  0  0  0
   -3.5124   17.1089   37.1399 C   0  0  2  0  0  0  0  0  0  0  0  0
   -4.2248   15.8046   37.6013 C   0  0  2  0  0  0  0  0  0  0  0  0
   -3.8047   14.7758   36.5777 O   0  0  0  0  0  0  0  0  0  0  0  0
   -5.8360   16.0293   37.6329 C   0  0  1  0  0  0  0  0  0  0  0  0
   -6.6104   14.8813   38.1069 O   0  0  0  0  0  0  0  0  0  0  0  0
   -3.8373   13.5094   37.0998 C   0  0  1  0  0  0  0  0  0  0  0  0
   -3.1677   12.5191   36.2501 C   0  0  2  0  0  0  0  0  0  0  0  0
   -3.9841   12.3001   35.1445 O   0  0  0  0  0  0  0  0  0  0  0  0
   -2.9142   11.3801   37.2608 C   0  0  2  0  0  0  0  0  0  0  0  0
   -3.6292   10.2225   36.7725 O   0  0  0  0  0  0  0  0  0  0  0  0
   -3.4611   11.8867   38.5545 C   0  0  2  0  0  0  0  0  0  0  0  0
   -3.1694   13.3131   38.3350 O   0  0  0  0  0  0  0  0  0  0  0  0
   -2.6455   11.3459   39.7861 C   0  0  0  0  0  0  0  0  0  0  0  0
   -3.0777   10.0288   40.2417 O   0  0  0  0  0  0  0  0  0  0  0  0
   -3.4309    8.9703   37.4961 C   0  0  2  0  0  0  0  0  0  0  0  0
   -1.8422    8.7096   37.6450 C   0  0  2  0  0  0  0  0  0  0  0  0
   -1.2201    8.6664   36.2820 N   0  0  0  0  0  0  0  0  0  0  0  0
   -1.6327    7.3316   38.4457 C   0  0  1  0  0  0  0  0  0  0  0  0
   -2.2803    7.4823   39.7455 O   0  0  0  0  0  0  0  0  0  0  0  0
   -2.2807    6.1326   37.6168 C   0  0  2  0  0  0  0  0  0  0  0  0
   -1.5654    6.0351   36.3249 O   0  0  0  0  0  0  0  0  0  0  0  0
   -3.8710    6.4452   37.4294 C   0  0  1  0  0  0  0  0  0  0  0  0
   -4.0476    7.7753   36.7406 O   0  0  0  0  0  0  0  0  0  0  0  0
   -4.5369    5.2950   36.6035 C   0  0  0  0  0  0  0  0  0  0  0  0
   -4.0501    3.9379   37.0015 N   0  0  0  0  0  0  0  0  0  0  0  0
  1  3  1  0  0  0  0
  1  2  1  1  0  0  0
  3  4  1  1  0  0  0
  3  5  1  0  0  0  0
  5  6  1  6  0  0  0
  7  8  1  1  0  0  0
  7  5  1  0  0  0  0
  9 11  1  6  0  0  0
  9  7  1  0  0  0  0
 10  9  1  0  0  0  0
 10  1  1  0  0  0  0
 12 11  1  0  0  0  0
 13 14  1  6  0  0  0
 15 13  1  0  0  0  0
 16 17  1  6  0  0  0
 16 15  1  0  0  0  0
 18  2  1  1  0  0  0
 18 19  1  0  0  0  0
 18 16  1  0  0  0  0
 19 20  1  6  0  0  0
 19 21  1  0  0  0  0
 21 22  1  1  0  0  0
 21 13  1  0  0  0  0
 23 20  1  6  0  0  0
 23 29  1  0  0  0  0
 24 25  1  6  0  0  0
 24 26  1  0  0  0  0
 24 23  1  0  0  0  0
 26 27  1  6  0  0  0
 26 28  1  0  0  0  0
 28 30  1  1  0  0  0
 29 28  1  0  0  0  0
 30 31  1  0  0  0  0
 32 27  1  6  0  0  0
 32 40  1  0  0  0  0
 33 35  1  0  0  0  0
 33 32  1  0  0  0  0
 33 34  1  6  0  0  0
 35 36  1  1  0  0  0
 35 37  1  0  0  0  0
 37 38  1  6  0  0  0
 37 39  1  0  0  0  0
 39 41  1  6  0  0  0
 40 39  1  0  0  0  0
 41 42  1  0  0  0  0
M  END
>  <CHROM.1>
-167.01864508,-174.33772464,-161.12853862,153.73655993,-167.49463171,174.00675814
-84.83966814,-51.05822992,41.40699805,-2.71169436,13.42094795,37.11979596
-1.46090984,-0.33816250,3.07031253

>  <Name>
lig.pdb

>  <RI>
0

>  <Rbt.Current_Directory>
/home/itssahil/PROJECTS/Mol_Feturizer/New_Systems/rnas/4wcr

>  <Rbt.Executable>
rbdock ($Id: //depot/dev/client3/rdock/2013.1/src/exe/rbdock.cxx#4 $)

>  <Rbt.Library>
libRbt.so (2013.1, Build901 2013/11/27)

>  <Rbt.Parameter_File>
/export/apps/rDock/src/rDock_2013.1_src/data/scripts/dock_solv.prm

>  <Rbt.Receptor>
prm/pocket_docking_2.prm

>  <SCORE>
-9.58962

>  <SCORE.INTER>
-4.61336

>  <SCORE.INTER.CONST>
1

>  <SCORE.INTER.POLAR>
0

>  <SCORE.INTER.ROT>
9

>  <SCORE.INTER.SOLV>
19.3324

>  <SCORE.INTER.VDW>
-19.1197

>  <SCORE.INTER.norm>
-0.109842

>  <SCORE.INTRA>
-5.06945

>  <SCORE.INTRA.DIHEDRAL>
-6.12959

>  <SCORE.INTRA.DIHEDRAL.0>
16.2863

>  <SCORE.INTRA.POLAR>
0

>  <SCORE.INTRA.POLAR.0>
0

>  <SCORE.INTRA.REPUL>
-0.314433

>  <SCORE.INTRA.REPUL.0>
0.314433

>  <SCORE.INTRA.SOLV>
-2.57875

>  <SCORE.INTRA.SOLV.lig_0>
-103.824

>  <SCORE.INTRA.VDW>
0.856886

>  <SCORE.INTRA.VDW.0>
-5.30945

>  <SCORE.INTRA.norm>
-0.120701

>  <SCORE.RESTR>
0.0931855

>  <SCORE.RESTR.CAVITY>
0.0931855

>  <SCORE.RESTR.norm>
0.0022187

>  <SCORE.SYSTEM>
0

>  <SCORE.SYSTEM.CONST>
0

>  <SCORE.SYSTEM.DIHEDRAL>
0

>  <SCORE.SYSTEM.SOLV>
0

>  <SCORE.SYSTEM.norm>
0

>  <SCORE.heavy>
42

>  <SCORE.norm>
-0.228324

>  <RMSD>
1.981

$$$$
lig.pdb
 OpenBabel11021811513D
libRbt.so/2013.1/901 2013/11/27
 42 45  0  0  0  0  0  0  0  0999 V2000
   -0.8338   16.4182   36.8020 C   0  0  2  0  0  0  0  0  0  0  0  0
   -1.7247   17.2522   37.6069 O   0  0  0  0  0  0  0  0  0  0  0  0
    0.6004   17.1103   36.8677 C   0  0  2  0  0  0  0  0  0  0  0  0
    1.0904   17.1356   38.2486 N   0  0  0  0  0  0  0  0  0  0  0  0
    0.4932   18.5826   36.2348 C   0  0  1  0  0  0  0  0  0  0  0  0
    1.7706   19.2537   36.2581 O   0  0  0  0  0  0  0  0  0  0  0  0
   -0.0363   18.4227   34.7993 C   0  0  2  0  0  0  0  0  0  0  0  0
   -0.1437   19.6785   34.2204 O   0  0  0  0  0  0  0  0  0  0  0  0
   -1.4505   17.6825   34.8206 C   0  0  2  0  0  0  0  0  0  0  0  0
   -1.3488   16.3835   35.4174 O   0  0  0  0  0  0  0  0  0  0  0  0
   -2.0039   17.4841   33.4381 C   0  0  0  0  0  0  0  0  0  0  0  0
   -3.0637   16.5311   33.5293 O   0  0  0  0  0  0  0  0  0  0  0  0
   -5.9626   16.9025   38.9070 C   0  0  2  0  0  0  0  0  0  0  0  0
   -7.4081   16.8599   38.8631 N   0  0  0  0  0  0  0  0  0  0  0  0
   -5.4387   18.2518   38.2796 C   0  0  0  0  0  0  0  0  0  0  0  0
   -3.8714   18.3208   38.3113 C   0  0  2  0  0  0  0  0  0  0  0  0
   -3.4279   19.5797   37.7160 N   0  0  0  0  0  0  0  0  0  0  0  0
   -3.1931   17.1145   37.5219 C   0  0  2  0  0  0  0  0  0  0  0  0
   -3.6897   15.7926   38.1758 C   0  0  2  0  0  0  0  0  0  0  0  0
   -2.9983   14.7088   37.3820 O   0  0  0  0  0  0  0  0  0  0  0  0
   -5.3111   15.6964   38.0793 C   0  0  1  0  0  0  0  0  0  0  0  0
   -5.8984   14.5153   38.7135 O   0  0  0  0  0  0  0  0  0  0  0  0
   -3.2881   13.4647   37.8775 C   0  0  1  0  0  0  0  0  0  0  0  0
   -2.7975   12.3769   37.0247 C   0  0  2  0  0  0  0  0  0  0  0  0
   -3.6094   12.3359   35.8951 O   0  0  0  0  0  0  0  0  0  0  0  0
   -2.7959   11.1953   38.0181 C   0  0  2  0  0  0  0  0  0  0  0  0
   -3.7059   10.2045   37.4891 O   0  0  0  0  0  0  0  0  0  0  0  0
   -3.2715   11.7782   39.3080 C   0  0  2  0  0  0  0  0  0  0  0  0
   -2.7053   13.1248   39.1246 O   0  0  0  0  0  0  0  0  0  0  0  0
   -2.6100   11.0720   40.5482 C   0  0  0  0  0  0  0  0  0  0  0  0
   -3.1048   11.5584   41.8318 O   0  0  0  0  0  0  0  0  0  0  0  0
   -3.2998    9.5222   36.2642 C   0  0  2  0  0  0  0  0  0  0  0  0
   -4.5207    8.5844   35.7701 C   0  0  2  0  0  0  0  0  0  0  0  0
   -4.8664    7.6122   36.8573 N   0  0  0  0  0  0  0  0  0  0  0  0
   -4.0669    7.8400   34.4196 C   0  0  1  0  0  0  0  0  0  0  0  0
   -3.7488    8.8746   33.4398 O   0  0  0  0  0  0  0  0  0  0  0  0
   -2.7964    6.9235   34.7202 C   0  0  2  0  0  0  0  0  0  0  0  0
   -3.2005    5.8964   35.7060 O   0  0  0  0  0  0  0  0  0  0  0  0
   -1.5969    7.8823   35.2714 C   0  0  1  0  0  0  0  0  0  0  0  0
   -2.0662    8.6259   36.4968 O   0  0  0  0  0  0  0  0  0  0  0  0
   -0.3372    7.0119   35.5939 C   0  0  0  0  0  0  0  0  0  0  0  0
   -0.5791    6.0254   36.6919 N   0  0  0  0  0  0  0  0  0  0  0  0
  1  3  1  0  0  0  0
  1  2  1  1  0  0  0
  3  4  1  1  0  0  0
  3  5  1  0  0  0  0
  5  6  1  6  0  0  0
  7  8  1  1  0  0  0
  7  5  1  0  0  0  0
  9 11  1  6  0  0  0
  9  7  1  0  0  0  0
 10  9  1  0  0  0  0
 10  1  1  0  0  0  0
 12 11  1  0  0  0  0
 13 14  1  6  0  0  0
 15 13  1  0  0  0  0
 16 17  1  6  0  0  0
 16 15  1  0  0  0  0
 18  2  1  1  0  0  0
 18 19  1  0  0  0  0
 18 16  1  0  0  0  0
 19 20  1  6  0  0  0
 19 21  1  0  0  0  0
 21 22  1  1  0  0  0
 21 13  1  0  0  0  0
 23 20  1  6  0  0  0
 23 29  1  0  0  0  0
 24 25  1  6  0  0  0
 24 26  1  0  0  0  0
 24 23  1  0  0  0  0
 26 27  1  6  0  0  0
 26 28  1  0  0  0  0
 28 30  1  1  0  0  0
 29 28  1  0  0  0  0
 30 31  1  0  0  0  0
 32 27  1  1  0  0  0
 32 40  1  0  0  0  0
 33 35  1  0  0  0  0
 33 32  1  0  0  0  0
 33 34  1  1  0  0  0
 35 36  1  6  0  0  0
 35 37  1  0  0  0  0
 37 38  1  1  0  0  0
 37 39  1  0  0  0  0
 39 41  1  1  0  0  0
 40 39  1  0  0  0  0
 41 42  1  0  0  0  0
M  END
>  <CHROM.1>
165.12471261,165.18564223,-170.03633698,177.28190652,171.68828388,68.54006609
-176.64932280,-174.03849221,-63.44923505,-2.67817349,13.59887360,36.86201114
-1.43280712,-0.74439155,-3.00867514

>  <Name>
lig.pdb

>  <RI>
0

>  <Rbt.Current_Directory>
/home/itssahil/PROJECTS/Mol_Feturizer/New_Systems/rnas/4wcr

>  <Rbt.Executable>
rbdock ($Id: //depot/dev/client3/rdock/2013.1/src/exe/rbdock.cxx#4 $)

>  <Rbt.Library>
libRbt.so (2013.1, Build901 2013/11/27)

>  <Rbt.Parameter_File>
/export/apps/rDock/src/rDock_2013.1_src/data/scripts/dock_solv.prm

>  <Rbt.Receptor>
prm/pocket_docking_3.prm

>  <SCORE>
-9.64233

>  <SCORE.INTER>
-1.52092

>  <SCORE.INTER.CONST>
1

>  <SCORE.INTER.POLAR>
0

>  <SCORE.INTER.ROT>
9

>  <SCORE.INTER.SOLV>
19.6894

>  <SCORE.INTER.VDW>
-17.1771

>  <SCORE.INTER.norm>
-0.0362124

>  <SCORE.INTRA>
-8.1216

>  <SCORE.INTRA.DIHEDRAL>
-12.5251

>  <SCORE.INTRA.DIHEDRAL.0>
16.2863

>  <SCORE.INTRA.POLAR>
0

>  <SCORE.INTRA.POLAR.0>
0

>  <SCORE.INTRA.REPUL>
-0.314433

>  <SCORE.INTRA.REPUL.0>
0.314433

>  <SCORE.INTRA.SOLV>
-4.061

>  <SCORE.INTRA.SOLV.lig_0>
-103.824

>  <SCORE.INTRA.VDW>
1.7436

>  <SCORE.INTRA.VDW.0>
-5.30945

>  <SCORE.INTRA.norm>
-0.193371

>  <SCORE.RESTR>
0.000190793

>  <SCORE.RESTR.CAVITY>
0.000190793

>  <SCORE.RESTR.norm>
4.54268e-06

>  <SCORE.SYSTEM>
0

>  <SCORE.SYSTEM.CONST>
0

>  <SCORE.SYSTEM.DIHEDRAL>
0

>  <SCORE.SYSTEM.SOLV>
0

>  <SCORE.SYSTEM.norm>
0

>  <SCORE.heavy>
42

>  <SCORE.norm>
-0.229579

>  <RMSD>
2.011

$$$$
lig.pdb
 OpenBabel11021811513D
libRbt.so/2013.1/901 2013/11/27
 42 45  0  0  0  0  0  0  0  0999 V2000
   -0.9537   16.2956   36.9446 C   0  0  2  0  0  0  0  0  0  0  0  0
   -1.8292   17.2033   37.6839 O   0  0  0  0  0  0  0  0  0  0  0  0
    0.5149   16.9035   37.0613 C   0  0  2  0  0  0  0  0  0  0  0  0
    0.9408   16.9394   38.4631 N   0  0  0  0  0  0  0  0  0  0  0  0
    0.5262   18.3608   36.3862 C   0  0  1  0  0  0  0  0  0  0  0  0
    1.8392   18.9559   36.4537 O   0  0  0  0  0  0  0  0  0  0  0  0
    0.0554   18.1914   34.9315 C   0  0  2  0  0  0  0  0  0  0  0  0
    0.0509   19.4342   34.3158 O   0  0  0  0  0  0  0  0  0  0  0  0
   -1.4002   17.5367   34.9038 C   0  0  2  0  0  0  0  0  0  0  0  0
   -1.4049   16.2516   35.5381 O   0  0  0  0  0  0  0  0  0  0  0  0
   -1.8997   17.3317   33.5018 C   0  0  0  0  0  0  0  0  0  0  0  0
   -3.0659   16.5105   33.5741 O   0  0  0  0  0  0  0  0  0  0  0  0
   -6.1027   17.1423   38.9112 C   0  0  2  0  0  0  0  0  0  0  0  0
   -7.5475   17.1472   38.8373 N   0  0  0  0  0  0  0  0  0  0  0  0
   -5.5153   18.3996   38.1607 C   0  0  0  0  0  0  0  0  0  0  0  0
   -3.9474   18.4154   38.2227 C   0  0  2  0  0  0  0  0  0  0  0  0
   -3.4445   19.5889   37.5115 N   0  0  0  0  0  0  0  0  0  0  0  0
   -3.2998   17.1101   37.5783 C   0  0  2  0  0  0  0  0  0  0  0  0
   -3.8594   15.8819   38.3529 C   0  0  2  0  0  0  0  0  0  0  0  0
   -3.1938   14.6975   37.6919 O   0  0  0  0  0  0  0  0  0  0  0  0
   -5.4810   15.8343   38.2280 C   0  0  1  0  0  0  0  0  0  0  0  0
   -6.1255   14.7472   38.9664 O   0  0  0  0  0  0  0  0  0  0  0  0
   -3.4518   13.5361   38.3715 C   0  0  1  0  0  0  0  0  0  0  0  0
   -3.0708   12.3341   37.6224 C   0  0  2  0  0  0  0  0  0  0  0  0
   -3.9959   12.1738   36.5952 O   0  0  0  0  0  0  0  0  0  0  0  0
   -2.9863   11.2893   38.7557 C   0  0  2  0  0  0  0  0  0  0  0  0
   -3.9629   10.2671   38.4542 O   0  0  0  0  0  0  0  0  0  0  0  0
   -3.3157   12.0461   40.0001 C   0  0  2  0  0  0  0  0  0  0  0  0
   -2.7487   13.3407   39.5872 O   0  0  0  0  0  0  0  0  0  0  0  0
   -2.5412   11.4842   41.2487 C   0  0  0  0  0  0  0  0  0  0  0  0
   -2.8456   10.0887   41.5471 O   0  0  0  0  0  0  0  0  0  0  0  0
   -3.5704    9.2423   37.4915 C   0  0  2  0  0  0  0  0  0  0  0  0
   -4.9088    8.5583   36.8958 C   0  0  2  0  0  0  0  0  0  0  0  0
   -5.7109    7.9814   38.0230 N   0  0  0  0  0  0  0  0  0  0  0  0
   -4.4681    7.4343   35.8345 C   0  0  1  0  0  0  0  0  0  0  0  0
   -3.6922    8.1015   34.7931 O   0  0  0  0  0  0  0  0  0  0  0  0
   -3.5989    6.3191   36.5728 C   0  0  2  0  0  0  0  0  0  0  0  0
   -4.4545    5.6822   37.5988 O   0  0  0  0  0  0  0  0  0  0  0  0
   -2.2844    7.0415   37.2148 C   0  0  1  0  0  0  0  0  0  0  0  0
   -2.7181    8.1400   38.1529 O   0  0  0  0  0  0  0  0  0  0  0  0
   -1.4155    5.9772   37.9637 C   0  0  0  0  0  0  0  0  0  0  0  0
   -0.1864    6.5632   38.5828 N   0  0  0  0  0  0  0  0  0  0  0  0
  1  3  1  0  0  0  0
  1  2  1  1  0  0  0
  3  4  1  1  0  0  0
  3  5  1  0  0  0  0
  5  6  1  6  0  0  0
  7  8  1  1  0  0  0
  7  5  1  0  0  0  0
  9 11  1  6  0  0  0
  9  7  1  0  0  0  0
 10  9  1  0  0  0  0
 10  1  1  0  0  0  0
 12 11  1  0  0  0  0
 13 14  1  6  0  0  0
 15 13  1  0  0  0  0
 16 17  1  6  0  0  0
 16 15  1  0  0  0  0
 18  2  1  1  0  0  0
 18 19  1  0  0  0  0
 18 16  1  0  0  0  0
 19 20  1  6  0  0  0
 19 21  1  0  0  0  0
 21 22  1  1  0  0  0
 21 13  1  0  0  0  0
 23 20  1  6  0  0  0
 23 29  1  0  0  0  0
 24 25  1  6  0  0  0
 24 26  1  0  0  0  0
 24 23  1  0  0  0  0
 26 27  1  6  0  0  0
 26 28  1  0  0  0  0
 28 30  1  1  0  0  0
 29 28  1  0  0  0  0
 30 31  1  0  0  0  0
 32 27  1  1  0  0  0
 32 40  1  0  0  0  0
 33 35  1  0  0  0  0
 33 32  1  0  0  0  0
 33 34  1  1  0  0  0
 35 36  1  6  0  0  0
 35 37  1  0  0  0  0
 37 38  1  1  0  0  0
 37 39  1  0  0  0  0
 39 41  1  1  0  0  0
 40 39  1  0  0  0  0
 41 42  1  0  0  0  0
M  END
>  <CHROM.1>
167.91075404,168.58597708,-167.32751432,172.28274405,167.84868972,81.59164558
-60.59737306,-159.41393384,-179.99876782,-2.87386472,13.47150412,37.45560631
-1.39987669,-0.53076079,3.10648334

>  <Name>
lig.pdb

>  <RI>
0

>  <Rbt.Current_Directory>
/home/itssahil/PROJECTS/Mol_Feturizer/New_Systems/rnas/4wcr

>  <Rbt.Executable>
rbdock ($Id: //depot/dev/client3/rdock/2013.1/src/exe/rbdock.cxx#4 $)

>  <Rbt.Library>
libRbt.so (2013.1, Build901 2013/11/27)

>  <Rbt.Parameter_File>
/export/apps/rDock/src/rDock_2013.1_src/data/scripts/dock_solv.prm

>  <Rbt.Receptor>
prm/pocket_docking_3.prm

>  <SCORE>
-10.2305

>  <SCORE.INTER>
-2.33544

>  <SCORE.INTER.CONST>
1

>  <SCORE.INTER.POLAR>
0

>  <SCORE.INTER.ROT>
9

>  <SCORE.INTER.SOLV>
23.2418

>  <SCORE.INTER.VDW>
-18.9042

>  <SCORE.INTER.norm>
-0.0556057

>  <SCORE.INTRA>
-7.89507

>  <SCORE.INTRA.DIHEDRAL>
-8.93171

>  <SCORE.INTRA.DIHEDRAL.0>
16.2863

>  <SCORE.INTRA.POLAR>
0

>  <SCORE.INTRA.POLAR.0>
0

>  <SCORE.INTRA.REPUL>
-0.314433

>  <SCORE.INTRA.REPUL.0>
0.314433

>  <SCORE.INTRA.SOLV>
-5.80585

>  <SCORE.INTRA.SOLV.lig_0>
-103.824

>  <SCORE.INTRA.VDW>
1.04587

>  <SCORE.INTRA.VDW.0>
-5.30945

>  <SCORE.INTRA.norm>
-0.187978

>  <SCORE.RESTR>
0

>  <SCORE.RESTR.CAVITY>
0

>  <SCORE.RESTR.norm>
0

>  <SCORE.SYSTEM>
0

>  <SCORE.SYSTEM.CONST>
0

>  <SCORE.SYSTEM.DIHEDRAL>
0

>  <SCORE.SYSTEM.SOLV>
0

>  <SCORE.SYSTEM.norm>
0

>  <SCORE.heavy>
42

>  <SCORE.norm>
-0.243584

>  <RMSD>
2.018

$$$$
lig.pdb
 OpenBabel11021811513D
libRbt.so/2013.1/901 2013/11/27
 42 45  0  0  0  0  0  0  0  0999 V2000
   -1.1787   16.3889   36.4146 C   0  0  2  0  0  0  0  0  0  0  0  0
   -1.9008   17.0023   37.5279 O   0  0  0  0  0  0  0  0  0  0  0  0
    0.3426   16.8370   36.5727 C   0  0  2  0  0  0  0  0  0  0  0  0
    0.8934   16.3320   37.8334 N   0  0  0  0  0  0  0  0  0  0  0  0
    0.4227   18.4381   36.4735 C   0  0  1  0  0  0  0  0  0  0  0  0
    1.7841   18.9001   36.5994 O   0  0  0  0  0  0  0  0  0  0  0  0
   -0.1892   18.8408   35.1209 C   0  0  2  0  0  0  0  0  0  0  0  0
   -0.1385   20.2217   35.0011 O   0  0  0  0  0  0  0  0  0  0  0  0
   -1.6939   18.3158   35.0268 C   0  0  2  0  0  0  0  0  0  0  0  0
   -1.7558   16.8894   35.1496 O   0  0  0  0  0  0  0  0  0  0  0  0
   -2.3327   18.6677   33.7133 C   0  0  0  0  0  0  0  0  0  0  0  0
   -1.6959   17.8878   32.7003 O   0  0  0  0  0  0  0  0  0  0  0  0
   -5.8530   16.2160   39.4080 C   0  0  2  0  0  0  0  0  0  0  0  0
   -7.2843   16.1536   39.6088 N   0  0  0  0  0  0  0  0  0  0  0  0
   -5.4125   17.6965   39.0873 C   0  0  0  0  0  0  0  0  0  0  0  0
   -3.8626   17.7904   38.8608 C   0  0  2  0  0  0  0  0  0  0  0  0
   -3.4980   19.1733   38.5601 N   0  0  0  0  0  0  0  0  0  0  0  0
   -3.3644   16.8590   37.6681 C   0  0  2  0  0  0  0  0  0  0  0  0
   -3.7727   15.3983   38.0164 C   0  0  2  0  0  0  0  0  0  0  0  0
   -3.2592   14.5863   36.8503 O   0  0  0  0  0  0  0  0  0  0  0  0
   -5.3878   15.2946   38.1837 C   0  0  1  0  0  0  0  0  0  0  0  0
   -5.8852   13.9726   38.5675 O   0  0  0  0  0  0  0  0  0  0  0  0
   -3.2059   13.2517   37.1559 C   0  0  1  0  0  0  0  0  0  0  0  0
   -2.7503   12.4224   36.0353 C   0  0  2  0  0  0  0  0  0  0  0  0
   -3.7858   12.3732   35.1068 O   0  0  0  0  0  0  0  0  0  0  0  0
   -2.3118   11.1386   36.7720 C   0  0  2  0  0  0  0  0  0  0  0  0
   -3.1365   10.0648   36.2655 O   0  0  0  0  0  0  0  0  0  0  0  0
   -2.5633   11.4206   38.2166 C   0  0  2  0  0  0  0  0  0  0  0  0
   -2.2964   12.8679   38.1738 O   0  0  0  0  0  0  0  0  0  0  0  0
   -1.5171   10.6997   39.1441 C   0  0  0  0  0  0  0  0  0  0  0  0
   -1.6827    9.2510   39.1979 O   0  0  0  0  0  0  0  0  0  0  0  0
   -2.7617    8.7071   36.6491 C   0  0  2  0  0  0  0  0  0  0  0  0
   -1.3256    8.3654   35.9895 C   0  0  2  0  0  0  0  0  0  0  0  0
   -1.4189    8.5149   34.5010 N   0  0  0  0  0  0  0  0  0  0  0  0
   -0.9187    6.8710   36.4196 C   0  0  1  0  0  0  0  0  0  0  0  0
   -0.8655    6.8385   37.8782 O   0  0  0  0  0  0  0  0  0  0  0  0
   -2.0044    5.8441   35.8616 C   0  0  2  0  0  0  0  0  0  0  0  0
   -1.9886    5.9252   34.3839 O   0  0  0  0  0  0  0  0  0  0  0  0
   -3.4541    6.2432   36.4947 C   0  0  1  0  0  0  0  0  0  0  0  0
   -3.7852    7.6713   36.1405 O   0  0  0  0  0  0  0  0  0  0  0  0
   -4.5489    5.2647   35.9536 C   0  0  0  0  0  0  0  0  0  0  0  0
   -4.3112    3.8453   36.3613 N   0  0  0  0  0  0  0  0  0  0  0  0
  1  3  1  0  0  0  0
  1  2  1  1  0  0  0
  3  4  1  1  0  0  0
  3  5  1  0  0  0  0
  5  6  1  6  0  0  0
  7  8  1  1  0  0  0
  7  5  1  0  0  0  0
  9 11  1  6  0  0  0
  9  7  1  0  0  0  0
 10  9  1  0  0  0  0
 10  1  1  0  0  0  0
 12 11  1  0  0  0  0
 13 14  1  6  0  0  0
 15 13  1  0  0  0  0
 16 17  1  6  0  0  0
 16 15  1  0  0  0  0
 18  2  1  1  0  0  0
 18 19  1  0  0  0  0
 18 16  1  0  0  0  0
 19 20  1  6  0  0  0
 19 21  1  0  0  0  0
 21 22  1  1  0  0  0
 21 13  1  0  0  0  0
 23 20  1  6  0  0  0
 23 29  1  0  0  0  0
 24 25  1  6  0  0  0
 24 26  1  0  0  0  0
 24 23  1  0  0  0  0
 26 27  1  6  0  0  0
 26 28  1  0  0  0  0
 28 30  1  1  0  0  0
 29 28  1  0  0  0  0
 30 31  1  0  0  0  0
 32 27  1  6  0  0  0
 32 40  1  0  0  0  0
 33 35  1  0  0  0  0
 33 32  1  0  0  0  0
 33 34  1  6  0  0  0
 35 36  1  1  0  0  0
 35 37  1  0  0  0  0
 37 38  1  6  0  0  0
 37 39  1  0  0  0  0
 39 41  1  6  0  0  0
 40 39  1  0  0  0  0
 41 42  1  0  0  0  0
M  END
>  <CHROM.1>
176.89255405,69.28779970,-172.73124321,163.36647234,178.25455129,170.12971430
-70.63319747,-65.52467889,62.77992808,-2.50287132,13.21691181,36.77868597
-1.48691064,-0.61287311,-3.07754700

>  <Name>
lig.pdb

>  <RI>
0

>  <Rbt.Current_Directory>
/home/itssahil/PROJECTS/Mol_Feturizer/New_Systems/rnas/4wcr

>  <Rbt.Executable>
rbdock ($Id: //depot/dev/client3/rdock/2013.1/src/exe/rbdock.cxx#4 $)

>  <Rbt.Library>
libRbt.so (2013.1, Build901 2013/11/27)

>  <Rbt.Parameter_File>
/export/apps/rDock/src/rDock_2013.1_src/data/scripts/dock_solv.prm

>  <Rbt.Receptor>
prm/pocket_docking_4.prm

>  <SCORE>
-9.06468

>  <SCORE.INTER>
0.0561695

>  <SCORE.INTER.CONST>
1

>  <SCORE.INTER.POLAR>
0

>  <SCORE.INTER.ROT>
9

>  <SCORE.INTER.SOLV>
14.8731

>  <SCORE.INTER.VDW>
-14.5203

>  <SCORE.INTER.norm>
0.00133737

>  <SCORE.INTRA>
-9.12085

>  <SCORE.INTRA.DIHEDRAL>
-12.813

>  <SCORE.INTRA.DIHEDRAL.0>
16.2863

>  <SCORE.INTRA.POLAR>
0

>  <SCORE.INTRA.POLAR.0>
0

>  <SCORE.INTRA.REPUL>
-0.314433

>  <SCORE.INTRA.REPUL.0>
0.314433

>  <SCORE.INTRA.SOLV>
-4.27138

>  <SCORE.INTRA.SOLV.lig_0>
-103.824

>  <SCORE.INTRA.VDW>
0.993528

>  <SCORE.INTRA.VDW.0>
-5.30945

>  <SCORE.INTRA.norm>
-0.217163

>  <SCORE.RESTR>
0

>  <SCORE.RESTR.CAVITY>
0

>  <SCORE.RESTR.norm>
0

>  <SCORE.SYSTEM>
0

>  <SCORE.SYSTEM.CONST>
0

>  <SCORE.SYSTEM.DIHEDRAL>
0

>  <SCORE.SYSTEM.SOLV>
0

>  <SCORE.SYSTEM.norm>
0

>  <SCORE.heavy>
42

>  <SCORE.norm>
-0.215826

>  <RMSD>
2.033

$$$$
lig.pdb
 OpenBabel11021811513D
libRbt.so/2013.1/901 2013/11/27
 42 45  0  0  0  0  0  0  0  0999 V2000
   -1.4972   16.1539   35.8369 C   0  0  2  0  0  0  0  0  0  0  0  0
   -2.1267   16.5568   37.0933 O   0  0  0  0  0  0  0  0  0  0  0  0
    0.0568   15.9927   36.1518 C   0  0  2  0  0  0  0  0  0  0  0  0
    0.2673   14.9396   37.1490 N   0  0  0  0  0  0  0  0  0  0  0  0
    0.6360   17.4107   36.6350 C   0  0  1  0  0  0  0  0  0  0  0  0
    2.0473   17.3255   36.9241 O   0  0  0  0  0  0  0  0  0  0  0  0
    0.3476   18.4250   35.5150 C   0  0  2  0  0  0  0  0  0  0  0  0
    0.8340   19.6656   35.8997 O   0  0  0  0  0  0  0  0  0  0  0  0
   -1.2221   18.4913   35.2323 C   0  0  2  0  0  0  0  0  0  0  0  0
   -1.7334   17.2132   34.8340 O   0  0  0  0  0  0  0  0  0  0  0  0
   -1.5563   19.4563   34.1304 C   0  0  0  0  0  0  0  0  0  0  0  0
   -1.0597   18.9068   32.9092 O   0  0  0  0  0  0  0  0  0  0  0  0
   -6.1269   16.4288   39.0310 C   0  0  2  0  0  0  0  0  0  0  0  0
   -7.5550   16.5466   39.2301 N   0  0  0  0  0  0  0  0  0  0  0  0
   -5.5302   17.8054   38.5435 C   0  0  0  0  0  0  0  0  0  0  0  0
   -3.9810   17.7030   38.3157 C   0  0  2  0  0  0  0  0  0  0  0  0
   -3.4702   18.9938   37.8589 N   0  0  0  0  0  0  0  0  0  0  0  0
   -3.5962   16.5911   37.2414 C   0  0  2  0  0  0  0  0  0  0  0  0
   -4.1585   15.2338   37.7543 C   0  0  2  0  0  0  0  0  0  0  0  0
   -3.7452   14.2413   36.6928 O   0  0  0  0  0  0  0  0  0  0  0  0
   -5.7741   15.3269   37.9240 C   0  0  1  0  0  0  0  0  0  0  0  0
   -6.4096   14.1204   38.4557 O   0  0  0  0  0  0  0  0  0  0  0  0
   -3.8904   12.9514   37.1314 C   0  0  1  0  0  0  0  0  0  0  0  0
   -3.1920   11.9749   36.2888 C   0  0  2  0  0  0  0  0  0  0  0  0
   -3.9082   11.8634   35.1008 O   0  0  0  0  0  0  0  0  0  0  0  0
   -3.0934   10.7688   37.2474 C   0  0  2  0  0  0  0  0  0  0  0  0
   -3.8145    9.6815   36.6250 O   0  0  0  0  0  0  0  0  0  0  0  0
   -3.7365   11.2315   38.5131 C   0  0  2  0  0  0  0  0  0  0  0  0
   -3.3548   12.6497   38.4091 O   0  0  0  0  0  0  0  0  0  0  0  0
   -3.0708   10.5785   39.7800 C   0  0  0  0  0  0  0  0  0  0  0  0
   -3.7160   10.9469   41.0359 O   0  0  0  0  0  0  0  0  0  0  0  0
   -3.7477    8.3813   37.2854 C   0  0  2  0  0  0  0  0  0  0  0  0
   -2.1944    8.0211   37.5531 C   0  0  2  0  0  0  0  0  0  0  0  0
   -1.4571    8.0182   36.2481 N   0  0  0  0  0  0  0  0  0  0  0  0
   -2.1298    6.5905   38.2834 C   0  0  1  0  0  0  0  0  0  0  0  0
   -2.8811    6.7054   39.5300 O   0  0  0  0  0  0  0  0  0  0  0  0
   -2.7643    5.4794   37.3309 C   0  0  2  0  0  0  0  0  0  0  0  0
   -1.9434    5.4131   36.1012 O   0  0  0  0  0  0  0  0  0  0  0  0
   -4.3130    5.8937   37.0279 C   0  0  1  0  0  0  0  0  0  0  0  0
   -4.3573    7.2682   36.4087 O   0  0  0  0  0  0  0  0  0  0  0  0
   -4.9630    4.8321   36.0796 C   0  0  0  0  0  0  0  0  0  0  0  0
   -4.9170    3.4467   36.6416 N   0  0  0  0  0  0  0  0  0  0  0  0
  1  3  1  0  0  0  0
  1  2  1  1  0  0  0
  3  4  1  1  0  0  0
  3  5  1  0  0  0  0
  5  6  1  6  0  0  0
  7  8  1  1  0  0  0
  7  5  1  0  0  0  0
  9 11  1  6  0  0  0
  9  7  1  0  0  0  0
 10  9  1  0  0  0  0
 10  1  1  0  0  0  0
 12 11  1  0  0  0  0
 13 14  1  6  0  0  0
 15 13  1  0  0  0  0
 16 17  1  6  0  0  0
 16 15  1  0  0  0  0
 18  2  1  1  0  0  0
 18 19  1  0  0  0  0
 18 16  1  0  0  0  0
 19 20  1  6  0  0  0
 19 21  1  0  0  0  0
 21 22  1  1  0  0  0
 21 13  1  0  0  0  0
 23 20  1  6  0  0  0
 23 29  1  0  0  0  0
 24 25  1  6  0  0  0
 24 26  1  0  0  0  0
 24 23  1  0  0  0  0
 26 27  1  6  0  0  0
 26 28  1  0  0  0  0
 28 30  1  1  0  0  0
 29 28  1  0  0  0  0
 30 31  1  0  0  0  0
 32 27  1  6  0  0  0
 32 40  1  0  0  0  0
 33 35  1  0  0  0  0
 33 32  1  0  0  0  0
 33 34  1  6  0  0  0
 35 36  1  1  0  0  0
 35 37  1  0  0  0  0
 37 38  1  6  0  0  0
 37 39  1  0  0  0  0
 39 41  1  6  0  0  0
 40 39  1  0  0  0  0
 41 42  1  0  0  0  0
M  END
>  <CHROM.1>
-170.04346839,68.76236931,-151.10685702,165.99478046,-165.22272117,173.93726648
-176.84423547,-51.49869866,57.71611666,-2.90993387,13.00376158,37.08124397
-1.39196606,-0.51568195,3.13822675

>  <Name>
lig.pdb

>  <RI>
0

>  <Rbt.Current_Directory>
/home/itssahil/PROJECTS/Mol_Feturizer/New_Systems/rnas/4wcr

>  <Rbt.Executable>
rbdock ($Id: //depot/dev/client3/rdock/2013.1/src/exe/rbdock.cxx#4 $)

>  <Rbt.Library>
libRbt.so (2013.1, Build901 2013/11/27)

>  <Rbt.Parameter_File>
/export/apps/rDock/src/rDock_2013.1_src/data/scripts/dock_solv.prm

>  <Rbt.Receptor>
prm/pocket_docking_3.prm

>  <SCORE>
-9.40122

>  <SCORE.INTER>
-2.73078

>  <SCORE.INTER.CONST>
1

>  <SCORE.INTER.POLAR>
0

>  <SCORE.INTER.ROT>
9

>  <SCORE.INTER.SOLV>
18.9893

>  <SCORE.INTER.VDW>
-17.7503

>  <SCORE.INTER.norm>
-0.0650185

>  <SCORE.INTRA>
-6.67044

>  <SCORE.INTRA.DIHEDRAL>
-9.09106

>  <SCORE.INTRA.DIHEDRAL.0>
16.2863

>  <SCORE.INTRA.POLAR>
0

>  <SCORE.INTRA.POLAR.0>
0

>  <SCORE.INTRA.REPUL>
-0.314433

>  <SCORE.INTRA.REPUL.0>
0.314433

>  <SCORE.INTRA.SOLV>
-3.65912

>  <SCORE.INTRA.SOLV.lig_0>
-103.824

>  <SCORE.INTRA.VDW>
1.27681

>  <SCORE.INTRA.VDW.0>
-5.30945

>  <SCORE.INTRA.norm>
-0.15882

>  <SCORE.RESTR>
0

>  <SCORE.RESTR.CAVITY>
0

>  <SCORE.RESTR.norm>
0

>  <SCORE.SYSTEM>
0

>  <SCORE.SYSTEM.CONST>
0

>  <SCORE.SYSTEM.DIHEDRAL>
0

>  <SCORE.SYSTEM.SOLV>
0

>  <SCORE.SYSTEM.norm>
0

>  <SCORE.heavy>
42

>  <SCORE.norm>
-0.223839

>  <RMSD>
2.086

$$$$
lig.pdb
 OpenBabel11021811513D
libRbt.so/2013.1/901 2013/11/27
 42 45  0  0  0  0  0  0  0  0999 V2000
   -0.9467   16.4652   36.2527 C   0  0  2  0  0  0  0  0  0  0  0  0
   -1.7898   17.1695   37.2173 O   0  0  0  0  0  0  0  0  0  0  0  0
    0.5124   17.0889   36.4013 C   0  0  2  0  0  0  0  0  0  0  0  0
    1.0323   16.8515   37.7508 N   0  0  0  0  0  0  0  0  0  0  0  0
    0.4446   18.6533   36.0437 C   0  0  1  0  0  0  0  0  0  0  0  0
    1.7454   19.2689   36.1512 O   0  0  0  0  0  0  0  0  0  0  0  0
   -0.1207   18.7694   34.6177 C   0  0  2  0  0  0  0  0  0  0  0  0
   -0.1954   20.1112   34.2747 O   0  0  0  0  0  0  0  0  0  0  0  0
   -1.5597   18.0821   34.5456 C   0  0  2  0  0  0  0  0  0  0  0  0
   -1.4920   16.6949   34.8986 O   0  0  0  0  0  0  0  0  0  0  0  0
   -2.1492   18.1516   33.1655 C   0  0  0  0  0  0  0  0  0  0  0  0
   -3.4739   17.6223   33.2341 O   0  0  0  0  0  0  0  0  0  0  0  0
   -5.8693   16.3793   38.8004 C   0  0  2  0  0  0  0  0  0  0  0  0
   -7.3103   16.2784   38.8794 N   0  0  0  0  0  0  0  0  0  0  0  0
   -5.4475   17.8469   38.4039 C   0  0  0  0  0  0  0  0  0  0  0  0
   -3.8871   17.9817   38.3072 C   0  0  2  0  0  0  0  0  0  0  0  0
   -3.5396   19.3507   37.9316 N   0  0  0  0  0  0  0  0  0  0  0  0
   -3.2550   16.9821   37.2397 C   0  0  2  0  0  0  0  0  0  0  0  0
   -3.6478   15.5376   37.6648 C   0  0  2  0  0  0  0  0  0  0  0  0
   -3.0065   14.6596   36.6158 O   0  0  0  0  0  0  0  0  0  0  0  0
   -5.2675   15.3861   37.6978 C   0  0  1  0  0  0  0  0  0  0  0  0
   -5.7565   14.0792   38.1396 O   0  0  0  0  0  0  0  0  0  0  0  0
   -3.0394   13.3395   36.9811 C   0  0  1  0  0  0  0  0  0  0  0  0
   -2.4862   12.4453   35.9586 C   0  0  2  0  0  0  0  0  0  0  0  0
   -3.4061   12.3867   34.9160 O   0  0  0  0  0  0  0  0  0  0  0  0
   -2.1858   11.1833   36.7955 C   0  0  2  0  0  0  0  0  0  0  0  0
   -2.9845   10.1144   36.2395 O   0  0  0  0  0  0  0  0  0  0  0  0
   -2.5951   11.5394   38.1867 C   0  0  2  0  0  0  0  0  0  0  0  0
   -2.2712   12.9739   38.1154 O   0  0  0  0  0  0  0  0  0  0  0  0
   -1.6931   10.8287   39.2618 C   0  0  0  0  0  0  0  0  0  0  0  0
   -1.8524    9.3786   39.2935 O   0  0  0  0  0  0  0  0  0  0  0  0
   -2.6614    8.7570   36.6685 C   0  0  2  0  0  0  0  0  0  0  0  0
   -1.2139    8.3597   36.0675 C   0  0  2  0  0  0  0  0  0  0  0  0
   -1.2524    8.4743   34.5735 N   0  0  0  0  0  0  0  0  0  0  0  0
   -0.8643    6.8659   36.5473 C   0  0  1  0  0  0  0  0  0  0  0  0
   -0.8616    6.8686   38.0073 O   0  0  0  0  0  0  0  0  0  0  0  0
   -1.9590    5.8555   35.9769 C   0  0  2  0  0  0  0  0  0  0  0  0
   -1.8907    5.8990   34.4992 O   0  0  0  0  0  0  0  0  0  0  0  0
   -3.4175    6.3099   36.5496 C   0  0  1  0  0  0  0  0  0  0  0  0
   -3.6959    7.7372   36.1498 O   0  0  0  0  0  0  0  0  0  0  0  0
   -4.5205    5.3485   35.9947 C   0  0  0  0  0  0  0  0  0  0  0  0
   -4.3581    3.9410   36.4740 N   0  0  0  0  0  0  0  0  0  0  0  0
  1  3  1  0  0  0  0
  1  2  1  1  0  0  0
  3  4  1  1  0  0  0
  3  5  1  0  0  0  0
  5  6  1  6  0  0  0
  7  8  1  1  0  0  0
  7  5  1  0  0  0  0
  9 11  1  6  0  0  0
  9  7  1  0  0  0  0
 10  9  1  0  0  0  0
 10  1  1  0  0  0  0
 12 11  1  0  0  0  0
 13 14  1  6  0  0  0
 15 13  1  0  0  0  0
 16 17  1  6  0  0  0
 16 15  1  0  0  0  0
 18  2  1  1  0  0  0
 18 19  1  0  0  0  0
 18 16  1  0  0  0  0
 19 20  1  6  0  0  0
 19 21  1  0  0  0  0
 21 22  1  1  0  0  0
 21 13  1  0  0  0  0
 23 20  1  6  0  0  0
 23 29  1  0  0  0  0
 24 25  1  6  0  0  0
 24 26  1  0  0  0  0
 24 23  1  0  0  0  0
 26 27  1  6  0  0  0
 26 28  1  0  0  0  0
 28 30  1  1  0  0  0
 29 28  1  0  0  0  0
 30 31  1  0  0  0  0
 32 27  1  6  0  0  0
 32 40  1  0  0  0  0
 33 35  1  0  0  0  0
 33 32  1  0  0  0  0
 33 34  1  6  0  0  0
 35 36  1  1  0  0  0
 35 37  1  0  0  0  0
 37 38  1  6  0  0  0
 37 39  1  0  0  0  0
 39 41  1  6  0  0  0
 40 39  1  0  0  0  0
 41 42  1  0  0  0  0
M  END
>  <CHROM.1>
171.72298336,-174.90149685,-174.87970951,168.37499186,177.12884332,166.99209680
-66.72530480,-68.23940879,64.31805760,-2.47329247,13.27674257,36.58815574
-1.49904552,-0.51902729,-3.13137569

>  <Name>
lig.pdb

>  <RI>
0

>  <Rbt.Current_Directory>
/home/itssahil/PROJECTS/Mol_Feturizer/New_Systems/rnas/4wcr

>  <Rbt.Executable>
rbdock ($Id: //depot/dev/client3/rdock/2013.1/src/exe/rbdock.cxx#4 $)

>  <Rbt.Library>
libRbt.so (2013.1, Build901 2013/11/27)

>  <Rbt.Parameter_File>
/export/apps/rDock/src/rDock_2013.1_src/data/scripts/dock_solv.prm

>  <Rbt.Receptor>
prm/pocket_docking_6.prm

>  <SCORE>
-12.4449

>  <SCORE.INTER>
-2.87322

>  <SCORE.INTER.CONST>
1

>  <SCORE.INTER.POLAR>
0

>  <SCORE.INTER.ROT>
9

>  <SCORE.INTER.SOLV>
17.0229

>  <SCORE.INTER.VDW>
-17.1898

>  <SCORE.INTER.norm>
-0.06841

>  <SCORE.INTRA>
-9.57164

>  <SCORE.INTRA.DIHEDRAL>
-13.1519

>  <SCORE.INTRA.DIHEDRAL.0>
16.2863

>  <SCORE.INTRA.POLAR>
0

>  <SCORE.INTRA.POLAR.0>
0

>  <SCORE.INTRA.REPUL>
-0.314433

>  <SCORE.INTRA.REPUL.0>
0.314433

>  <SCORE.INTRA.SOLV>
-4.59129

>  <SCORE.INTRA.SOLV.lig_0>
-103.824

>  <SCORE.INTRA.VDW>
0.872126

>  <SCORE.INTRA.VDW.0>
-5.30945

>  <SCORE.INTRA.norm>
-0.227896

>  <SCORE.RESTR>
0

>  <SCORE.RESTR.CAVITY>
0

>  <SCORE.RESTR.norm>
0

>  <SCORE.SYSTEM>
0

>  <SCORE.SYSTEM.CONST>
0

>  <SCORE.SYSTEM.DIHEDRAL>
0

>  <SCORE.SYSTEM.SOLV>
0

>  <SCORE.SYSTEM.norm>
0

>  <SCORE.heavy>
42

>  <SCORE.norm>
-0.296306

>  <RMSD>
2.117

$$$$
lig.pdb
 OpenBabel11021811513D
libRbt.so/2013.1/901 2013/11/27
 42 45  0  0  0  0  0  0  0  0999 V2000
   -1.0783   16.3640   36.3300 C   0  0  2  0  0  0  0  0  0  0  0  0
   -1.8926   17.0365   37.3409 O   0  0  0  0  0  0  0  0  0  0  0  0
    0.4384   16.6951   36.6908 C   0  0  2  0  0  0  0  0  0  0  0  0
    0.7768   16.1559   38.0108 N   0  0  0  0  0  0  0  0  0  0  0  0
    0.6532   18.2849   36.6114 C   0  0  1  0  0  0  0  0  0  0  0  0
    2.0172   18.6420   36.9191 O   0  0  0  0  0  0  0  0  0  0  0  0
    0.2588   18.7265   35.1916 C   0  0  2  0  0  0  0  0  0  0  0  0
    0.4305   20.0988   35.0868 O   0  0  0  0  0  0  0  0  0  0  0  0
   -1.2558   18.3177   34.8961 C   0  0  2  0  0  0  0  0  0  0  0  0
   -1.4425   16.9008   35.0023 O   0  0  0  0  0  0  0  0  0  0  0  0
   -1.6859   18.7107   33.5113 C   0  0  0  0  0  0  0  0  0  0  0  0
   -3.0887   18.4633   33.4078 O   0  0  0  0  0  0  0  0  0  0  0  0
   -6.0650   16.6354   38.8251 C   0  0  2  0  0  0  0  0  0  0  0  0
   -7.5113   16.6380   38.8587 N   0  0  0  0  0  0  0  0  0  0  0  0
   -5.5294   18.0402   38.3470 C   0  0  0  0  0  0  0  0  0  0  0  0
   -3.9611   18.0621   38.2977 C   0  0  2  0  0  0  0  0  0  0  0  0
   -3.5071   19.3752   37.8444 N   0  0  0  0  0  0  0  0  0  0  0  0
   -3.3673   16.9507   37.3228 C   0  0  2  0  0  0  0  0  0  0  0  0
   -3.8733   15.5689   37.8291 C   0  0  2  0  0  0  0  0  0  0  0  0
   -3.2624   14.5792   36.8648 O   0  0  0  0  0  0  0  0  0  0  0  0
   -5.4999   15.5300   37.8138 C   0  0  1  0  0  0  0  0  0  0  0  0
   -6.0927   14.2928   38.3238 O   0  0  0  0  0  0  0  0  0  0  0  0
   -3.4320   13.2903   37.2977 C   0  0  1  0  0  0  0  0  0  0  0  0
   -2.6805   12.3128   36.5034 C   0  0  2  0  0  0  0  0  0  0  0  0
   -3.3212   12.1961   35.2735 O   0  0  0  0  0  0  0  0  0  0  0  0
   -2.6394   11.1099   37.4701 C   0  0  2  0  0  0  0  0  0  0  0  0
   -3.3182   10.0191   36.8076 O   0  0  0  0  0  0  0  0  0  0  0  0
   -3.3609   11.5750   38.6919 C   0  0  2  0  0  0  0  0  0  0  0  0
   -2.9764   12.9938   38.6073 O   0  0  0  0  0  0  0  0  0  0  0  0
   -2.7741   10.9274   39.9998 C   0  0  0  0  0  0  0  0  0  0  0  0
   -1.3587   11.2130   40.2103 O   0  0  0  0  0  0  0  0  0  0  0  0
   -3.2923    8.7218   37.4764 C   0  0  2  0  0  0  0  0  0  0  0  0
   -1.7504    8.2973   37.7136 C   0  0  2  0  0  0  0  0  0  0  0  0
   -1.0424    8.2540   36.3931 N   0  0  0  0  0  0  0  0  0  0  0  0
   -1.7309    6.8703   38.4535 C   0  0  1  0  0  0  0  0  0  0  0  0
   -2.4494    7.0258   39.7149 O   0  0  0  0  0  0  0  0  0  0  0  0
   -2.4327    5.7809   37.5234 C   0  0  2  0  0  0  0  0  0  0  0  0
   -1.6423    5.6711   36.2770 O   0  0  0  0  0  0  0  0  0  0  0  0
   -3.9685    6.2588   37.2504 C   0  0  1  0  0  0  0  0  0  0  0  0
   -3.9677    7.6298   36.6216 O   0  0  0  0  0  0  0  0  0  0  0  0
   -4.6836    5.2195   36.3246 C   0  0  0  0  0  0  0  0  0  0  0  0
   -4.6973    3.8402   36.9029 N   0  0  0  0  0  0  0  0  0  0  0  0
  1  3  1  0  0  0  0
  1  2  1  1  0  0  0
  3  4  1  1  0  0  0
  3  5  1  0  0  0  0
  5  6  1  6  0  0  0
  7  8  1  1  0  0  0
  7  5  1  0  0  0  0
  9 11  1  6  0  0  0
  9  7  1  0  0  0  0
 10  9  1  0  0  0  0
 10  1  1  0  0  0  0
 12 11  1  0  0  0  0
 13 14  1  6  0  0  0
 15 13  1  0  0  0  0
 16 17  1  6  0  0  0
 16 15  1  0  0  0  0
 18  2  1  1  0  0  0
 18 19  1  0  0  0  0
 18 16  1  0  0  0  0
 19 20  1  6  0  0  0
 19 21  1  0  0  0  0
 21 22  1  1  0  0  0
 21 13  1  0  0  0  0
 23 20  1  6  0  0  0
 23 29  1  0  0  0  0
 24 25  1  6  0  0  0
 24 26  1  0  0  0  0
 24 23  1  0  0  0  0
 26 27  1  6  0  0  0
 26 28  1  0  0  0  0
 28 30  1  1  0  0  0
 29 28  1  0  0  0  0
 30 31  1  0  0  0  0
 32 27  1  6  0  0  0
 32 40  1  0  0  0  0
 33 35  1  0  0  0  0
 33 32  1  0  0  0  0
 33 34  1  6  0  0  0
 35 36  1  1  0  0  0
 35 37  1  0  0  0  0
 37 38  1  6  0  0  0
 37 39  1  0  0  0  0
 39 41  1  6  0  0  0
 40 39  1  0  0  0  0
 41 42  1  0  0  0  0
M  END
>  <CHROM.1>
179.95442299,-172.60053037,-165.78045204,170.07547412,-171.18292823,174.06639232
58.92508161,-57.00788215,58.33231619,-2.65425938,13.31331598,37.14660559
-1.45113487,-0.37625384,3.08290388

>  <Name>
lig.pdb

>  <RI>
0

>  <Rbt.Current_Directory>
/home/itssahil/PROJECTS/Mol_Feturizer/New_Systems/rnas/4wcr

>  <Rbt.Executable>
rbdock ($Id: //depot/dev/client3/rdock/2013.1/src/exe/rbdock.cxx#4 $)

>  <Rbt.Library>
libRbt.so (2013.1, Build901 2013/11/27)

>  <Rbt.Parameter_File>
/export/apps/rDock/src/rDock_2013.1_src/data/scripts/dock_solv.prm

>  <Rbt.Receptor>
prm/pocket_docking_3.prm

>  <SCORE>
-13.3983

>  <SCORE.INTER>
-3.79684

>  <SCORE.INTER.CONST>
1

>  <SCORE.INTER.POLAR>
0

>  <SCORE.INTER.ROT>
9

>  <SCORE.INTER.SOLV>
19.1257

>  <SCORE.INTER.VDW>
-18.5065

>  <SCORE.INTER.norm>
-0.090401

>  <SCORE.INTRA>
-9.60143

>  <SCORE.INTRA.DIHEDRAL>
-13.507

>  <SCORE.INTRA.DIHEDRAL.0>
16.2863

>  <SCORE.INTRA.POLAR>
0

>  <SCORE.INTRA.POLAR.0>
0

>  <SCORE.INTRA.REPUL>
-0.314433

>  <SCORE.INTRA.REPUL.0>
0.314433

>  <SCORE.INTRA.SOLV>
-4.64667

>  <SCORE.INTRA.SOLV.lig_0>
-103.824

>  <SCORE.INTRA.VDW>
1.04755

>  <SCORE.INTRA.VDW.0>
-5.30945

>  <SCORE.INTRA.norm>
-0.228605

>  <SCORE.RESTR>
0

>  <SCORE.RESTR.CAVITY>
0

>  <SCORE.RESTR.norm>
0

>  <SCORE.SYSTEM>
0

>  <SCORE.SYSTEM.CONST>
0

>  <SCORE.SYSTEM.DIHEDRAL>
0

>  <SCORE.SYSTEM.SOLV>
0

>  <SCORE.SYSTEM.norm>
0

>  <SCORE.heavy>
42

>  <SCORE.norm>
-0.319006

>  <RMSD>
2.140

$$$$
lig.pdb
 OpenBabel11021811513D
libRbt.so/2013.1/901 2013/11/27
 42 45  0  0  0  0  0  0  0  0999 V2000
   -2.4291   16.1164   35.8242 C   0  0  2  0  0  0  0  0  0  0  0  0
   -2.7876   16.4777   37.1946 O   0  0  0  0  0  0  0  0  0  0  0  0
   -0.8630   15.8210   35.8392 C   0  0  2  0  0  0  0  0  0  0  0  0
   -0.5670   14.6899   36.7228 N   0  0  0  0  0  0  0  0  0  0  0  0
   -0.0894   17.1566   36.2834 C   0  0  1  0  0  0  0  0  0  0  0  0
    1.3386   16.9490   36.3034 O   0  0  0  0  0  0  0  0  0  0  0  0
   -0.4868   18.2632   35.2914 C   0  0  2  0  0  0  0  0  0  0  0  0
    0.1632   19.4358   35.6464 O   0  0  0  0  0  0  0  0  0  0  0  0
   -2.0706   18.4631   35.3058 C   0  0  2  0  0  0  0  0  0  0  0  0
   -2.7507   17.2560   34.9400 O   0  0  0  0  0  0  0  0  0  0  0  0
   -2.5138   19.5228   34.3374 C   0  0  0  0  0  0  0  0  0  0  0  0
   -2.1937   19.0677   33.0221 O   0  0  0  0  0  0  0  0  0  0  0  0
   -6.5537   16.1928   39.5416 C   0  0  2  0  0  0  0  0  0  0  0  0
   -7.8969   16.4558   40.0102 N   0  0  0  0  0  0  0  0  0  0  0  0
   -5.6923   17.5136   39.5895 C   0  0  0  0  0  0  0  0  0  0  0  0
   -4.2302   17.2557   39.0814 C   0  0  2  0  0  0  0  0  0  0  0  0
   -3.4698   18.5025   39.1349 N   0  0  0  0  0  0  0  0  0  0  0  0
   -4.1941   16.6978   37.5894 C   0  0  2  0  0  0  0  0  0  0  0  0
   -5.0158   15.3765   37.5664 C   0  0  2  0  0  0  0  0  0  0  0  0
   -4.9234   14.9125   36.1316 O   0  0  0  0  0  0  0  0  0  0  0  0
   -6.5487   15.6639   38.0302 C   0  0  1  0  0  0  0  0  0  0  0  0
   -7.4050   14.4790   38.1000 O   0  0  0  0  0  0  0  0  0  0  0  0
   -4.3861   13.6549   36.0469 C   0  0  1  0  0  0  0  0  0  0  0  0
   -5.3897   12.6161   35.7924 C   0  0  2  0  0  0  0  0  0  0  0  0
   -6.1164   12.4438   36.9667 O   0  0  0  0  0  0  0  0  0  0  0  0
   -4.5050   11.4701   35.2564 C   0  0  2  0  0  0  0  0  0  0  0  0
   -4.6645   10.3591   36.1674 O   0  0  0  0  0  0  0  0  0  0  0  0
   -3.1173   12.0215   35.2638 C   0  0  2  0  0  0  0  0  0  0  0  0
   -3.4718   13.4237   34.9880 O   0  0  0  0  0  0  0  0  0  0  0  0
   -2.2493   11.4367   34.0895 C   0  0  0  0  0  0  0  0  0  0  0  0
   -0.9237   12.0377   33.9857 O   0  0  0  0  0  0  0  0  0  0  0  0
   -3.7901    9.2080   35.9643 C   0  0  2  0  0  0  0  0  0  0  0  0
   -3.9054    8.7420   34.4204 C   0  0  2  0  0  0  0  0  0  0  0  0
   -5.3346    8.4138   34.1101 N   0  0  0  0  0  0  0  0  0  0  0  0
   -2.9372    7.4771   34.2044 C   0  0  1  0  0  0  0  0  0  0  0  0
   -1.5825    7.9053   34.5406 O   0  0  0  0  0  0  0  0  0  0  0  0
   -3.4111    6.2795   35.1455 C   0  0  2  0  0  0  0  0  0  0  0  0
   -4.7801    5.8947   34.7358 O   0  0  0  0  0  0  0  0  0  0  0  0
   -3.3416    6.7910   36.6932 C   0  0  1  0  0  0  0  0  0  0  0  0
   -4.1997    8.0202   36.8590 O   0  0  0  0  0  0  0  0  0  0  0  0
   -3.8176    5.6442   37.6454 C   0  0  0  0  0  0  0  0  0  0  0  0
   -2.9273    4.4431   37.5975 N   0  0  0  0  0  0  0  0  0  0  0  0
  1  3  1  0  0  0  0
  1  2  1  1  0  0  0
  3  4  1  1  0  0  0
  3  5  1  0  0  0  0
  5  6  1  6  0  0  0
  7  8  1  1  0  0  0
  7  5  1  0  0  0  0
  9 11  1  6  0  0  0
  9  7  1  0  0  0  0
 10  9  1  0  0  0  0
 10  1  1  0  0  0  0
 12 11  1  0  0  0  0
 13 14  1  6  0  0  0
 15 13  1  0  0  0  0
 16 17  1  6  0  0  0
 16 15  1  0  0  0  0
 18  2  1  1  0  0  0
 18 19  1  0  0  0  0
 18 16  1  0  0  0  0
 19 20  1  6  0  0  0
 19 21  1  0  0  0  0
 21 22  1  1  0  0  0
 21 13  1  0  0  0  0
 23 20  1  6  0  0  0
 23 29  1  0  0  0  0
 24 25  1  1  0  0  0
 24 26  1  0  0  0  0
 24 23  1  0  0  0  0
 26 27  1  1  0  0  0
 26 28  1  0  0  0  0
 28 30  1  6  0  0  0
 29 28  1  0  0  0  0
 30 31  1  0  0  0  0
 32 27  1  6  0  0  0
 32 40  1  0  0  0  0
 33 35  1  0  0  0  0
 33 32  1  0  0  0  0
 33 34  1  1  0  0  0
 35 36  1  1  0  0  0
 35 37  1  0  0  0  0
 37 38  1  6  0  0  0
 37 39  1  0  0  0  0
 39 41  1  1  0  0  0
 40 39  1  0  0  0  0
 41 42  1  0  0  0  0
M  END
>  <CHROM.1>
-174.20263999,64.22326198,-172.76224313,122.44922786,103.32568688,-172.40831472
174.78889836,-52.40387086,63.57382300,-3.46034063,13.34974713,36.21027491
-1.45094745,-0.59384406,-2.99137879

>  <Name>
lig.pdb

>  <RI>
0

>  <Rbt.Current_Directory>
/home/itssahil/PROJECTS/Mol_Feturizer/New_Systems/rnas/4wcr

>  <Rbt.Executable>
rbdock ($Id: //depot/dev/client3/rdock/2013.1/src/exe/rbdock.cxx#4 $)

>  <Rbt.Library>
libRbt.so (2013.1, Build901 2013/11/27)

>  <Rbt.Parameter_File>
/export/apps/rDock/src/rDock_2013.1_src/data/scripts/dock_solv.prm

>  <Rbt.Receptor>
prm/pocket_docking_3.prm

>  <SCORE>
-3.38798

>  <SCORE.INTER>
-0.960612

>  <SCORE.INTER.CONST>
1

>  <SCORE.INTER.POLAR>
0

>  <SCORE.INTER.ROT>
9

>  <SCORE.INTER.SOLV>
17.2992

>  <SCORE.INTER.VDW>
-16.0068

>  <SCORE.INTER.norm>
-0.0228717

>  <SCORE.INTRA>
-2.42737

>  <SCORE.INTRA.DIHEDRAL>
-1.5207

>  <SCORE.INTRA.DIHEDRAL.0>
16.2863

>  <SCORE.INTRA.POLAR>
0

>  <SCORE.INTRA.POLAR.0>
0

>  <SCORE.INTRA.REPUL>
-0.314433

>  <SCORE.INTRA.REPUL.0>
0.314433

>  <SCORE.INTRA.SOLV>
-2.36996

>  <SCORE.INTRA.SOLV.lig_0>
-103.824

>  <SCORE.INTRA.VDW>
1.09013

>  <SCORE.INTRA.VDW.0>
-5.30945

>  <SCORE.INTRA.norm>
-0.0577945

>  <SCORE.RESTR>
0

>  <SCORE.RESTR.CAVITY>
0

>  <SCORE.RESTR.norm>
0

>  <SCORE.SYSTEM>
0

>  <SCORE.SYSTEM.CONST>
0

>  <SCORE.SYSTEM.DIHEDRAL>
0

>  <SCORE.SYSTEM.SOLV>
0

>  <SCORE.SYSTEM.norm>
0

>  <SCORE.heavy>
42

>  <SCORE.norm>
-0.0806662

>  <RMSD>
2.154

$$$$
lig.pdb
 OpenBabel11021811513D
libRbt.so/2013.1/901 2013/11/27
 42 45  0  0  0  0  0  0  0  0999 V2000
   -1.1671   16.3611   36.2930 C   0  0  2  0  0  0  0  0  0  0  0  0
   -1.9704   17.0852   37.2766 O   0  0  0  0  0  0  0  0  0  0  0  0
    0.3553   16.6223   36.6855 C   0  0  2  0  0  0  0  0  0  0  0  0
    0.6365   16.0838   38.0192 N   0  0  0  0  0  0  0  0  0  0  0  0
    0.6497   18.1985   36.5930 C   0  0  1  0  0  0  0  0  0  0  0  0
    2.0221   18.4925   36.9286 O   0  0  0  0  0  0  0  0  0  0  0  0
    0.3101   18.6409   35.1593 C   0  0  2  0  0  0  0  0  0  0  0  0
    0.5513   20.0018   35.0428 O   0  0  0  0  0  0  0  0  0  0  0  0
   -1.2156   18.3029   34.8330 C   0  0  2  0  0  0  0  0  0  0  0  0
   -1.4739   16.8982   34.9509 O   0  0  0  0  0  0  0  0  0  0  0  0
   -1.5940   18.6990   33.4340 C   0  0  0  0  0  0  0  0  0  0  0  0
   -1.5767   20.1256   33.3690 O   0  0  0  0  0  0  0  0  0  0  0  0
   -6.1636   16.8238   38.7332 C   0  0  2  0  0  0  0  0  0  0  0  0
   -7.6095   16.8668   38.7549 N   0  0  0  0  0  0  0  0  0  0  0  0
   -5.5856   18.2052   38.2367 C   0  0  0  0  0  0  0  0  0  0  0  0
   -4.0169   18.1831   38.1999 C   0  0  2  0  0  0  0  0  0  0  0  0
   -3.5233   19.4755   37.7291 N   0  0  0  0  0  0  0  0  0  0  0  0
   -3.4467   17.0398   37.2480 C   0  0  2  0  0  0  0  0  0  0  0  0
   -3.9948   15.6810   37.7723 C   0  0  2  0  0  0  0  0  0  0  0  0
   -3.4042   14.6591   36.8292 O   0  0  0  0  0  0  0  0  0  0  0  0
   -5.6216   15.6867   37.7444 C   0  0  1  0  0  0  0  0  0  0  0  0
   -6.2524   14.4749   38.2696 O   0  0  0  0  0  0  0  0  0  0  0  0
   -3.6345   13.3819   37.2686 C   0  0  1  0  0  0  0  0  0  0  0  0
   -2.8327   12.3770   36.5627 C   0  0  2  0  0  0  0  0  0  0  0  0
   -3.3631   12.2463   35.2827 O   0  0  0  0  0  0  0  0  0  0  0  0
   -2.8992   11.1929   37.5510 C   0  0  2  0  0  0  0  0  0  0  0  0
   -3.5355   10.1003   36.8504 O   0  0  0  0  0  0  0  0  0  0  0  0
   -3.7184   11.6937   38.6947 C   0  0  2  0  0  0  0  0  0  0  0  0
   -3.3028   13.1041   38.6189 O   0  0  0  0  0  0  0  0  0  0  0  0
   -3.2621   11.0627   40.0615 C   0  0  0  0  0  0  0  0  0  0  0  0
   -1.8905   11.3962   40.4314 O   0  0  0  0  0  0  0  0  0  0  0  0
   -3.5539    8.8054   37.5243 C   0  0  2  0  0  0  0  0  0  0  0  0
   -2.0378    8.4163   37.9297 C   0  0  2  0  0  0  0  0  0  0  0  0
   -1.1897    8.3859   36.6942 N   0  0  0  0  0  0  0  0  0  0  0  0
   -2.0674    6.9919   38.6741 C   0  0  1  0  0  0  0  0  0  0  0  0
   -2.9221    7.1341   39.8492 O   0  0  0  0  0  0  0  0  0  0  0  0
   -2.6396    5.8847   37.6784 C   0  0  2  0  0  0  0  0  0  0  0  0
   -1.7161    5.7899   36.5259 O   0  0  0  0  0  0  0  0  0  0  0  0
   -4.1469    6.3274   37.2379 C   0  0  1  0  0  0  0  0  0  0  0  0
   -4.1079    7.6965   36.6064 O   0  0  0  0  0  0  0  0  0  0  0  0
   -4.7338    5.2701   36.2448 C   0  0  0  0  0  0  0  0  0  0  0  0
   -4.6771    3.8753   36.7819 N   0  0  0  0  0  0  0  0  0  0  0  0
  1  3  1  0  0  0  0
  1  2  1  1  0  0  0
  3  4  1  1  0  0  0
  3  5  1  0  0  0  0
  5  6  1  6  0  0  0
  7  8  1  1  0  0  0
  7  5  1  0  0  0  0
  9 11  1  6  0  0  0
  9  7  1  0  0  0  0
 10  9  1  0  0  0  0
 10  1  1  0  0  0  0
 12 11  1  0  0  0  0
 13 14  1  6  0  0  0
 15 13  1  0  0  0  0
 16 17  1  6  0  0  0
 16 15  1  0  0  0  0
 18  2  1  1  0  0  0
 18 19  1  0  0  0  0
 18 16  1  0  0  0  0
 19 20  1  6  0  0  0
 19 21  1  0  0  0  0
 21 22  1  1  0  0  0
 21 13  1  0  0  0  0
 23 20  1  6  0  0  0
 23 29  1  0  0  0  0
 24 25  1  6  0  0  0
 24 26  1  0  0  0  0
 24 23  1  0  0  0  0
 26 27  1  6  0  0  0
 26 28  1  0  0  0  0
 28 30  1  1  0  0  0
 29 28  1  0  0  0  0
 30 31  1  0  0  0  0
 32 27  1  6  0  0  0
 32 40  1  0  0  0  0
 33 35  1  0  0  0  0
 33 32  1  0  0  0  0
 33 34  1  6  0  0  0
 35 36  1  1  0  0  0
 35 37  1  0  0  0  0
 37 38  1  6  0  0  0
 37 39  1  0  0  0  0
 39 41  1  6  0  0  0
 40 39  1  0  0  0  0
 41 42  1  0  0  0  0
M  END
>  <CHROM.1>
-178.27443826,-68.24837115,-166.51903516,171.20952358,-167.00226890,172.13334599
62.39121934,-54.10327262,53.65303201,-2.75155519,13.42405797,37.15530536
-1.42023408,-0.42255292,3.08170338

>  <Name>
lig.pdb

>  <RI>
0

>  <Rbt.Current_Directory>
/home/itssahil/PROJECTS/Mol_Feturizer/New_Systems/rnas/4wcr

>  <Rbt.Executable>
rbdock ($Id: //depot/dev/client3/rdock/2013.1/src/exe/rbdock.cxx#4 $)

>  <Rbt.Library>
libRbt.so (2013.1, Build901 2013/11/27)

>  <Rbt.Parameter_File>
/export/apps/rDock/src/rDock_2013.1_src/data/scripts/dock_solv.prm

>  <Rbt.Receptor>
prm/pocket_docking_3.prm

>  <SCORE>
-13.0791

>  <SCORE.INTER>
-4.37336

>  <SCORE.INTER.CONST>
1

>  <SCORE.INTER.POLAR>
0

>  <SCORE.INTER.ROT>
9

>  <SCORE.INTER.SOLV>
20.1084

>  <SCORE.INTER.VDW>
-19.2184

>  <SCORE.INTER.norm>
-0.104128

>  <SCORE.INTRA>
-8.70579

>  <SCORE.INTRA.DIHEDRAL>
-12.8399

>  <SCORE.INTRA.DIHEDRAL.0>
16.2863

>  <SCORE.INTRA.POLAR>
0

>  <SCORE.INTRA.POLAR.0>
0

>  <SCORE.INTRA.REPUL>
-0.314433

>  <SCORE.INTRA.REPUL.0>
0.314433

>  <SCORE.INTRA.SOLV>
-4.2158

>  <SCORE.INTRA.SOLV.lig_0>
-103.824

>  <SCORE.INTRA.VDW>
1.39421

>  <SCORE.INTRA.VDW.0>
-5.30945

>  <SCORE.INTRA.norm>
-0.207281

>  <SCORE.RESTR>
0

>  <SCORE.RESTR.CAVITY>
0

>  <SCORE.RESTR.norm>
0

>  <SCORE.SYSTEM>
0

>  <SCORE.SYSTEM.CONST>
0

>  <SCORE.SYSTEM.DIHEDRAL>
0

>  <SCORE.SYSTEM.SOLV>
0

>  <SCORE.SYSTEM.norm>
0

>  <SCORE.heavy>
42

>  <SCORE.norm>
-0.311408

>  <RMSD>
2.157

$$$$
lig.pdb
 OpenBabel11021811513D
libRbt.so/2013.1/901 2013/11/27
 42 45  0  0  0  0  0  0  0  0999 V2000
   -2.2891   17.8163   37.7724 C   0  0  2  0  0  0  0  0  0  0  0  0
   -2.9391   16.6263   38.3187 O   0  0  0  0  0  0  0  0  0  0  0  0
   -2.5094   17.7569   36.1951 C   0  0  2  0  0  0  0  0  0  0  0  0
   -3.9394   17.8079   35.8788 N   0  0  0  0  0  0  0  0  0  0  0  0
   -1.8088   16.4286   35.6252 C   0  0  1  0  0  0  0  0  0  0  0  0
   -1.9680   16.3289   34.1943 O   0  0  0  0  0  0  0  0  0  0  0  0
   -0.3251   16.4892   36.0270 C   0  0  2  0  0  0  0  0  0  0  0  0
    0.3132   15.3534   35.5516 O   0  0  0  0  0  0  0  0  0  0  0  0
   -0.1956   16.5929   37.6148 C   0  0  2  0  0  0  0  0  0  0  0  0
   -0.8525   17.7642   38.1150 O   0  0  0  0  0  0  0  0  0  0  0  0
    1.2372   16.6742   38.0594 C   0  0  0  0  0  0  0  0  0  0  0  0
    1.7875   17.8795   37.5264 O   0  0  0  0  0  0  0  0  0  0  0  0
   -7.0720   15.2447   39.2034 C   0  0  2  0  0  0  0  0  0  0  0  0
   -8.5067   15.0786   39.1184 N   0  0  0  0  0  0  0  0  0  0  0  0
   -6.7079   16.7745   39.3289 C   0  0  0  0  0  0  0  0  0  0  0  0
   -5.1550   16.9821   39.4185 C   0  0  2  0  0  0  0  0  0  0  0  0
   -4.8607   18.4096   39.5260 N   0  0  0  0  0  0  0  0  0  0  0  0
   -4.3886   16.3957   38.1508 C   0  0  2  0  0  0  0  0  0  0  0  0
   -4.7274   14.8794   38.0622 C   0  0  2  0  0  0  0  0  0  0  0  0
   -3.9603   14.4026   36.8511 O   0  0  0  0  0  0  0  0  0  0  0  0
   -6.3336   14.6745   37.9020 C   0  0  1  0  0  0  0  0  0  0  0  0
   -6.7774   13.2803   37.8639 O   0  0  0  0  0  0  0  0  0  0  0  0
   -3.6613   13.0686   36.9426 C   0  0  1  0  0  0  0  0  0  0  0  0
   -2.9994   12.5435   35.7438 C   0  0  2  0  0  0  0  0  0  0  0  0
   -3.9597   12.4643   34.7397 O   0  0  0  0  0  0  0  0  0  0  0  0
   -2.3536   11.2556   36.2983 C   0  0  2  0  0  0  0  0  0  0  0  0
   -2.9269   10.1514   35.5624 O   0  0  0  0  0  0  0  0  0  0  0  0
   -2.7239   11.2331   37.7447 C   0  0  2  0  0  0  0  0  0  0  0  0
   -2.7438   12.6901   37.9553 O   0  0  0  0  0  0  0  0  0  0  0  0
   -1.6022   10.5694   38.6254 C   0  0  0  0  0  0  0  0  0  0  0  0
   -2.0020   10.3440   40.0105 O   0  0  0  0  0  0  0  0  0  0  0  0
   -2.3429    8.8329   35.7887 C   0  0  2  0  0  0  0  0  0  0  0  0
   -2.9855    7.7976   34.7259 C   0  0  2  0  0  0  0  0  0  0  0  0
   -4.4748    7.7801   34.8939 N   0  0  0  0  0  0  0  0  0  0  0  0
   -2.3346    6.3498   34.9793 C   0  0  1  0  0  0  0  0  0  0  0  0
   -0.8922    6.4849   34.7985 O   0  0  0  0  0  0  0  0  0  0  0  0
   -2.6849    5.8619   36.4571 C   0  0  2  0  0  0  0  0  0  0  0  0
   -4.1561    5.7361   36.5568 O   0  0  0  0  0  0  0  0  0  0  0  0
   -2.0771    6.9506   37.5094 C   0  0  1  0  0  0  0  0  0  0  0  0
   -2.6450    8.3154   37.2100 O   0  0  0  0  0  0  0  0  0  0  0  0
   -2.4181    6.5117   38.9721 C   0  0  0  0  0  0  0  0  0  0  0  0
   -1.4690    5.4866   39.5065 N   0  0  0  0  0  0  0  0  0  0  0  0
  1  3  1  0  0  0  0
  1  2  1  1  0  0  0
  3  4  1  1  0  0  0
  3  5  1  0  0  0  0
  5  6  1  6  0  0  0
  7  8  1  1  0  0  0
  7  5  1  0  0  0  0
  9 11  1  6  0  0  0
  9  7  1  0  0  0  0
 10  9  1  0  0  0  0
 10  1  1  0  0  0  0
 12 11  1  0  0  0  0
 13 14  1  6  0  0  0
 15 13  1  0  0  0  0
 16 17  1  6  0  0  0
 16 15  1  0  0  0  0
 18  2  1  1  0  0  0
 18 19  1  0  0  0  0
 18 16  1  0  0  0  0
 19 20  1  6  0  0  0
 19 21  1  0  0  0  0
 21 22  1  1  0  0  0
 21 13  1  0  0  0  0
 23 20  1  6  0  0  0
 23 29  1  0  0  0  0
 24 25  1  6  0  0  0
 24 26  1  0  0  0  0
 24 23  1  0  0  0  0
 26 27  1  6  0  0  0
 26 28  1  0  0  0  0
 28 30  1  1  0  0  0
 29 28  1  0  0  0  0
 30 31  1  0  0  0  0
 32 27  1  1  0  0  0
 32 40  1  0  0  0  0
 33 35  1  0  0  0  0
 33 32  1  0  0  0  0
 33 34  1  1  0  0  0
 35 36  1  1  0  0  0
 35 37  1  0  0  0  0
 37 38  1  6  0  0  0
 37 39  1  0  0  0  0
 39 41  1  1  0  0  0
 40 39  1  0  0  0  0
 41 42  1  0  0  0  0
M  END
>  <CHROM.1>
-60.90038449,63.17150561,-93.03823510,153.56388327,175.93006759,172.24700817
-171.32478759,-172.15004592,82.04030733,-2.95572478,12.84669539,37.16417556
-1.60594937,-0.32133062,-3.05476962

>  <Name>
lig.pdb

>  <RI>
0

>  <Rbt.Current_Directory>
/home/itssahil/PROJECTS/Mol_Feturizer/New_Systems/rnas/4wcr

>  <Rbt.Executable>
rbdock ($Id: //depot/dev/client3/rdock/2013.1/src/exe/rbdock.cxx#4 $)

>  <Rbt.Library>
libRbt.so (2013.1, Build901 2013/11/27)

>  <Rbt.Parameter_File>
/export/apps/rDock/src/rDock_2013.1_src/data/scripts/dock_solv.prm

>  <Rbt.Receptor>
prm/pocket_docking_2.prm

>  <SCORE>
2.04624

>  <SCORE.INTER>
6.51005

>  <SCORE.INTER.CONST>
1

>  <SCORE.INTER.POLAR>
0

>  <SCORE.INTER.ROT>
9

>  <SCORE.INTER.SOLV>
18.7999

>  <SCORE.INTER.VDW>
-11.5266

>  <SCORE.INTER.norm>
0.155001

>  <SCORE.INTRA>
-4.80369

>  <SCORE.INTRA.DIHEDRAL>
-6.17885

>  <SCORE.INTRA.DIHEDRAL.0>
16.2863

>  <SCORE.INTRA.POLAR>
0

>  <SCORE.INTRA.POLAR.0>
0

>  <SCORE.INTRA.REPUL>
-0.268612

>  <SCORE.INTRA.REPUL.0>
0.314433

>  <SCORE.INTRA.SOLV>
-2.0977

>  <SCORE.INTRA.SOLV.lig_0>
-103.824

>  <SCORE.INTRA.VDW>
0.677653

>  <SCORE.INTRA.VDW.0>
-5.30945

>  <SCORE.INTRA.norm>
-0.114373

>  <SCORE.RESTR>
0.339878

>  <SCORE.RESTR.CAVITY>
0.339878

>  <SCORE.RESTR.norm>
0.00809233

>  <SCORE.SYSTEM>
0

>  <SCORE.SYSTEM.CONST>
0

>  <SCORE.SYSTEM.DIHEDRAL>
0

>  <SCORE.SYSTEM.SOLV>
0

>  <SCORE.SYSTEM.norm>
0

>  <SCORE.heavy>
42

>  <SCORE.norm>
0.04872

>  <RMSD>
2.201

$$$$
lig.pdb
 OpenBabel11021811513D
libRbt.so/2013.1/901 2013/11/27
 42 45  0  0  0  0  0  0  0  0999 V2000
   -0.4025   16.5669   36.2059 C   0  0  2  0  0  0  0  0  0  0  0  0
   -1.3066   17.0975   37.2249 O   0  0  0  0  0  0  0  0  0  0  0  0
    1.0004   17.2858   36.4407 C   0  0  2  0  0  0  0  0  0  0  0  0
    1.5281   16.9511   37.7663 N   0  0  0  0  0  0  0  0  0  0  0  0
    0.8092   18.8685   36.2455 C   0  0  1  0  0  0  0  0  0  0  0  0
    2.0553   19.5710   36.4361 O   0  0  0  0  0  0  0  0  0  0  0  0
    0.2466   19.0872   34.8305 C   0  0  2  0  0  0  0  0  0  0  0  0
    0.0663   20.4472   34.6268 O   0  0  0  0  0  0  0  0  0  0  0  0
   -1.1318   18.2989   34.6656 C   0  0  2  0  0  0  0  0  0  0  0  0
   -0.9548   16.8923   34.8745 O   0  0  0  0  0  0  0  0  0  0  0  0
   -1.7151   18.4647   33.2910 C   0  0  0  0  0  0  0  0  0  0  0  0
   -2.1006   19.8323   33.1471 O   0  0  0  0  0  0  0  0  0  0  0  0
   -5.2443   15.7440   38.7853 C   0  0  2  0  0  0  0  0  0  0  0  0
   -6.6623   15.4692   38.8672 N   0  0  0  0  0  0  0  0  0  0  0  0
   -5.0033   17.2708   38.4699 C   0  0  0  0  0  0  0  0  0  0  0  0
   -3.4709   17.5944   38.3715 C   0  0  2  0  0  0  0  0  0  0  0  0
   -3.2918   19.0135   38.0719 N   0  0  0  0  0  0  0  0  0  0  0  0
   -2.7391   16.7373   37.2454 C   0  0  2  0  0  0  0  0  0  0  0  0
   -2.9538   15.2352   37.5906 C   0  0  2  0  0  0  0  0  0  0  0  0
   -2.2269   14.4987   36.4897 O   0  0  0  0  0  0  0  0  0  0  0  0
   -4.5438   14.8916   37.6247 C   0  0  1  0  0  0  0  0  0  0  0  0
   -4.8699   13.5136   37.9948 O   0  0  0  0  0  0  0  0  0  0  0  0
   -2.0981   13.1660   36.7807 C   0  0  1  0  0  0  0  0  0  0  0  0
   -1.6710   12.3641   35.6294 C   0  0  2  0  0  0  0  0  0  0  0  0
   -2.7544   12.2746   34.7604 O   0  0  0  0  0  0  0  0  0  0  0  0
   -1.1358   11.0966   36.3295 C   0  0  2  0  0  0  0  0  0  0  0  0
   -1.9402    9.9905   35.8614 O   0  0  0  0  0  0  0  0  0  0  0  0
   -1.3170   11.3589   37.7883 C   0  0  2  0  0  0  0  0  0  0  0  0
   -1.1164   12.8168   37.7424 O   0  0  0  0  0  0  0  0  0  0  0  0
   -0.1894   10.6794   38.6493 C   0  0  0  0  0  0  0  0  0  0  0  0
   -0.2740    9.2230   38.6803 O   0  0  0  0  0  0  0  0  0  0  0  0
   -1.4672    8.6474   36.1833 C   0  0  2  0  0  0  0  0  0  0  0  0
   -0.2023    8.3079   35.2352 C   0  0  2  0  0  0  0  0  0  0  0  0
   -0.6184    8.4196   33.7996 N   0  0  0  0  0  0  0  0  0  0  0  0
    0.3145    6.8297   35.5984 C   0  0  1  0  0  0  0  0  0  0  0  0
    0.6829    6.8338   37.0112 O   0  0  0  0  0  0  0  0  0  0  0  0
   -0.8479    5.7758   35.3111 C   0  0  2  0  0  0  0  0  0  0  0  0
   -1.1540    5.8208   33.8639 O   0  0  0  0  0  0  0  0  0  0  0  0
   -2.1330    6.1719   36.2351 C   0  0  1  0  0  0  0  0  0  0  0  0
   -2.5582    7.5866   35.9309 O   0  0  0  0  0  0  0  0  0  0  0  0
   -3.3015    5.1666   35.9653 C   0  0  0  0  0  0  0  0  0  0  0  0
   -4.5086    5.4412   36.8048 N   0  0  0  0  0  0  0  0  0  0  0  0
  1  3  1  0  0  0  0
  1  2  1  1  0  0  0
  3  4  1  1  0  0  0
  3  5  1  0  0  0  0
  5  6  1  6  0  0  0
  7  8  1  1  0  0  0
  7  5  1  0  0  0  0
  9 11  1  6  0  0  0
  9  7  1  0  0  0  0
 10  9  1  0  0  0  0
 10  1  1  0  0  0  0
 12 11  1  0  0  0  0
 13 14  1  6  0  0  0
 15 13  1  0  0  0  0
 16 17  1  6  0  0  0
 16 15  1  0  0  0  0
 18  2  1  1  0  0  0
 18 19  1  0  0  0  0
 18 16  1  0  0  0  0
 19 20  1  6  0  0  0
 19 21  1  0  0  0  0
 21 22  1  1  0  0  0
 21 13  1  0  0  0  0
 23 20  1  6  0  0  0
 23 29  1  0  0  0  0
 24 25  1  6  0  0  0
 24 26  1  0  0  0  0
 24 23  1  0  0  0  0
 26 27  1  6  0  0  0
 26 28  1  0  0  0  0
 28 30  1  1  0  0  0
 29 28  1  0  0  0  0
 30 31  1  0  0  0  0
 32 27  1  6  0  0  0
 32 40  1  0  0  0  0
 33 35  1  0  0  0  0
 33 32  1  0  0  0  0
 33 34  1  6  0  0  0
 35 36  1  1  0  0  0
 35 37  1  0  0  0  0
 37 38  1  6  0  0  0
 37 39  1  0  0  0  0
 39 41  1  6  0  0  0
 40 39  1  0  0  0  0
 41 42  1  0  0  0  0
M  END
>  <CHROM.1>
174.90269290,-67.15799269,-174.03065117,168.30093292,167.30852313,168.63744175
-69.57955511,-74.33374417,178.46206660,-1.68309289,13.26800832,36.39570854
-1.55038849,-0.50143326,-3.11904779

>  <Name>
lig.pdb

>  <RI>
0

>  <Rbt.Current_Directory>
/home/itssahil/PROJECTS/Mol_Feturizer/New_Systems/rnas/4wcr

>  <Rbt.Executable>
rbdock ($Id: //depot/dev/client3/rdock/2013.1/src/exe/rbdock.cxx#4 $)

>  <Rbt.Library>
libRbt.so (2013.1, Build901 2013/11/27)

>  <Rbt.Parameter_File>
/export/apps/rDock/src/rDock_2013.1_src/data/scripts/dock_solv.prm

>  <Rbt.Receptor>
prm/pocket_docking_7.prm

>  <SCORE>
-10.0694

>  <SCORE.INTER>
-1.04525

>  <SCORE.INTER.CONST>
1

>  <SCORE.INTER.POLAR>
0

>  <SCORE.INTER.ROT>
9

>  <SCORE.INTER.SOLV>
20.7458

>  <SCORE.INTER.VDW>
-17.2121

>  <SCORE.INTER.norm>
-0.0248868

>  <SCORE.INTRA>
-9.02419

>  <SCORE.INTRA.DIHEDRAL>
-11.9535

>  <SCORE.INTRA.DIHEDRAL.0>
16.2863

>  <SCORE.INTRA.POLAR>
0

>  <SCORE.INTRA.POLAR.0>
0

>  <SCORE.INTRA.REPUL>
-0.314433

>  <SCORE.INTRA.REPUL.0>
0.314433

>  <SCORE.INTRA.SOLV>
-4.94434

>  <SCORE.INTRA.SOLV.lig_0>
-103.824

>  <SCORE.INTRA.VDW>
0.996909

>  <SCORE.INTRA.VDW.0>
-5.30945

>  <SCORE.INTRA.norm>
-0.214862

>  <SCORE.RESTR>
0

>  <SCORE.RESTR.CAVITY>
0

>  <SCORE.RESTR.norm>
0

>  <SCORE.SYSTEM>
0

>  <SCORE.SYSTEM.CONST>
0

>  <SCORE.SYSTEM.DIHEDRAL>
0

>  <SCORE.SYSTEM.SOLV>
0

>  <SCORE.SYSTEM.norm>
0

>  <SCORE.heavy>
42

>  <SCORE.norm>
-0.239749

>  <RMSD>
2.209

$$$$
lig.pdb
 OpenBabel11021811513D
libRbt.so/2013.1/901 2013/11/27
 42 45  0  0  0  0  0  0  0  0999 V2000
   -1.3504   15.8765   35.8859 C   0  0  2  0  0  0  0  0  0  0  0  0
   -2.0008   16.4563   37.0598 O   0  0  0  0  0  0  0  0  0  0  0  0
    0.2047   15.8106   36.2284 C   0  0  2  0  0  0  0  0  0  0  0  0
    0.4353   14.9357   37.3813 N   0  0  0  0  0  0  0  0  0  0  0  0
    0.7417   17.3030   36.4821 C   0  0  1  0  0  0  0  0  0  0  0  0
    2.1523   17.3041   36.7864 O   0  0  0  0  0  0  0  0  0  0  0  0
    0.4354   18.1179   35.2138 C   0  0  2  0  0  0  0  0  0  0  0  0
    0.8851   19.4169   35.3980 O   0  0  0  0  0  0  0  0  0  0  0  0
   -1.1332   18.0947   34.9181 C   0  0  2  0  0  0  0  0  0  0  0  0
   -1.6067   16.7559   34.7263 O   0  0  0  0  0  0  0  0  0  0  0  0
   -1.4841   18.8626   33.6754 C   0  0  0  0  0  0  0  0  0  0  0  0
   -1.1914   20.2388   33.9206 O   0  0  0  0  0  0  0  0  0  0  0  0
   -6.1878   16.4056   38.5562 C   0  0  2  0  0  0  0  0  0  0  0  0
   -7.6024   16.6852   38.6729 N   0  0  0  0  0  0  0  0  0  0  0  0
   -5.3650   17.7516   38.5599 C   0  0  0  0  0  0  0  0  0  0  0  0
   -3.8258   17.4755   38.4298 C   0  0  2  0  0  0  0  0  0  0  0  0
   -3.1023   18.7453   38.4299 N   0  0  0  0  0  0  0  0  0  0  0  0
   -3.4607   16.6787   37.0994 C   0  0  2  0  0  0  0  0  0  0  0  0
   -4.2503   15.3380   37.1282 C   0  0  2  0  0  0  0  0  0  0  0  0
   -3.8435   14.6455   35.8486 O   0  0  0  0  0  0  0  0  0  0  0  0
   -5.8491   15.6326   37.1953 C   0  0  1  0  0  0  0  0  0  0  0  0
   -6.6935   14.4404   37.2826 O   0  0  0  0  0  0  0  0  0  0  0  0
   -3.3304   13.3994   36.0963 C   0  0  1  0  0  0  0  0  0  0  0  0
   -4.3628   12.3993   36.3878 C   0  0  2  0  0  0  0  0  0  0  0  0
   -4.8550   12.6691   37.6613 O   0  0  0  0  0  0  0  0  0  0  0  0
   -3.5938   11.0881   36.1187 C   0  0  2  0  0  0  0  0  0  0  0  0
   -3.5776   10.3515   37.3624 O   0  0  0  0  0  0  0  0  0  0  0  0
   -2.2302   11.5236   35.6938 C   0  0  2  0  0  0  0  0  0  0  0  0
   -2.6318   12.7758   35.0315 O   0  0  0  0  0  0  0  0  0  0  0  0
   -1.5985   10.5317   34.6490 C   0  0  0  0  0  0  0  0  0  0  0  0
   -2.2786   10.5297   33.3581 O   0  0  0  0  0  0  0  0  0  0  0  0
   -3.4385    8.9013   37.2692 C   0  0  2  0  0  0  0  0  0  0  0  0
   -4.1766    8.2321   38.5426 C   0  0  2  0  0  0  0  0  0  0  0  0
   -3.5669    8.7672   39.8029 N   0  0  0  0  0  0  0  0  0  0  0  0
   -4.0221    6.6360   38.4303 C   0  0  1  0  0  0  0  0  0  0  0  0
   -4.6389    6.2278   37.1715 O   0  0  0  0  0  0  0  0  0  0  0  0
   -2.4750    6.2490   38.4638 C   0  0  2  0  0  0  0  0  0  0  0  0
   -1.9274    6.6802   39.7694 O   0  0  0  0  0  0  0  0  0  0  0  0
   -1.7404    6.9813   37.2045 C   0  0  1  0  0  0  0  0  0  0  0  0
   -1.9573    8.4714   37.2888 O   0  0  0  0  0  0  0  0  0  0  0  0
   -0.2140    6.6368   37.2163 C   0  0  0  0  0  0  0  0  0  0  0  0
    0.4903    7.0791   35.9731 N   0  0  0  0  0  0  0  0  0  0  0  0
  1  3  1  0  0  0  0
  1  2  1  1  0  0  0
  3  4  1  1  0  0  0
  3  5  1  0  0  0  0
  5  6  1  6  0  0  0
  7  8  1  1  0  0  0
  7  5  1  0  0  0  0
  9 11  1  6  0  0  0
  9  7  1  0  0  0  0
 10  9  1  0  0  0  0
 10  1  1  0  0  0  0
 12 11  1  0  0  0  0
 13 14  1  6  0  0  0
 15 13  1  0  0  0  0
 16 17  1  6  0  0  0
 16 15  1  0  0  0  0
 18  2  1  1  0  0  0
 18 19  1  0  0  0  0
 18 16  1  0  0  0  0
 19 20  1  6  0  0  0
 19 21  1  0  0  0  0
 21 22  1  1  0  0  0
 21 13  1  0  0  0  0
 23 20  1  6  0  0  0
 23 29  1  0  0  0  0
 24 25  1  1  0  0  0
 24 26  1  0  0  0  0
 24 23  1  0  0  0  0
 26 27  1  1  0  0  0
 26 28  1  0  0  0  0
 28 30  1  6  0  0  0
 29 28  1  0  0  0  0
 30 31  1  0  0  0  0
 32 27  1  1  0  0  0
 32 40  1  0  0  0  0
 33 35  1  0  0  0  0
 33 32  1  0  0  0  0
 33 34  1  1  0  0  0
 35 36  1  6  0  0  0
 35 37  1  0  0  0  0
 37 38  1  1  0  0  0
 37 39  1  0  0  0  0
 39 41  1  1  0  0  0
 40 39  1  0  0  0  0
 41 42  1  0  0  0  0
M  END
>  <CHROM.1>
179.62258515,-65.90070525,-173.29774762,124.25036613,77.29166504,154.67822899
67.63850458,-151.01600009,170.44451245,-2.60866923,13.31524506,36.74572234
-1.47699624,-0.39849848,3.03760735

>  <Name>
lig.pdb

>  <RI>
0

>  <Rbt.Current_Directory>
/home/itssahil/PROJECTS/Mol_Feturizer/New_Systems/rnas/4wcr

>  <Rbt.Executable>
rbdock ($Id: //depot/dev/client3/rdock/2013.1/src/exe/rbdock.cxx#4 $)

>  <Rbt.Library>
libRbt.so (2013.1, Build901 2013/11/27)

>  <Rbt.Parameter_File>
/export/apps/rDock/src/rDock_2013.1_src/data/scripts/dock_solv.prm

>  <Rbt.Receptor>
prm/pocket_docking_3.prm

>  <SCORE>
-4.89953

>  <SCORE.INTER>
-1.82714

>  <SCORE.INTER.CONST>
1

>  <SCORE.INTER.POLAR>
0

>  <SCORE.INTER.ROT>
9

>  <SCORE.INTER.SOLV>
21.4365

>  <SCORE.INTER.VDW>
-17.9636

>  <SCORE.INTER.norm>
-0.0435034

>  <SCORE.INTRA>
-3.08605

>  <SCORE.INTRA.DIHEDRAL>
-0.390398

>  <SCORE.INTRA.DIHEDRAL.0>
16.2863

>  <SCORE.INTRA.POLAR>
0

>  <SCORE.INTRA.POLAR.0>
0

>  <SCORE.INTRA.REPUL>
-0.314433

>  <SCORE.INTRA.REPUL.0>
0.314433

>  <SCORE.INTRA.SOLV>
-4.80417

>  <SCORE.INTRA.SOLV.lig_0>
-103.824

>  <SCORE.INTRA.VDW>
1.0834

>  <SCORE.INTRA.VDW.0>
-5.30945

>  <SCORE.INTRA.norm>
-0.0734773

>  <SCORE.RESTR>
0.0136587

>  <SCORE.RESTR.CAVITY>
0.0136587

>  <SCORE.RESTR.norm>
0.000325208

>  <SCORE.SYSTEM>
0

>  <SCORE.SYSTEM.CONST>
0

>  <SCORE.SYSTEM.DIHEDRAL>
0

>  <SCORE.SYSTEM.SOLV>
0

>  <SCORE.SYSTEM.norm>
0

>  <SCORE.heavy>
42

>  <SCORE.norm>
-0.116656

>  <RMSD>
2.226

$$$$
lig.pdb
 OpenBabel11021811513D
libRbt.so/2013.1/901 2013/11/27
 42 45  0  0  0  0  0  0  0  0999 V2000
   -2.2764   17.8177   37.8057 C   0  0  2  0  0  0  0  0  0  0  0  0
   -2.9453   16.6335   38.3418 O   0  0  0  0  0  0  0  0  0  0  0  0
   -2.4900   17.7706   36.2270 C   0  0  2  0  0  0  0  0  0  0  0  0
   -3.9177   17.8431   35.9043 N   0  0  0  0  0  0  0  0  0  0  0  0
   -1.8051   16.4363   35.6524 C   0  0  1  0  0  0  0  0  0  0  0  0
   -1.9588   16.3473   34.2203 O   0  0  0  0  0  0  0  0  0  0  0  0
   -0.3226   16.4741   36.0615 C   0  0  2  0  0  0  0  0  0  0  0  0
    0.3023   15.3324   35.5822 O   0  0  0  0  0  0  0  0  0  0  0  0
   -0.1992   16.5666   37.6504 C   0  0  2  0  0  0  0  0  0  0  0  0
   -0.8424   17.7437   38.1546 O   0  0  0  0  0  0  0  0  0  0  0  0
    1.2325   16.6256   38.1022 C   0  0  0  0  0  0  0  0  0  0  0  0
    1.7953   17.8374   37.5979 O   0  0  0  0  0  0  0  0  0  0  0  0
   -7.0995   15.3911   39.3278 C   0  0  2  0  0  0  0  0  0  0  0  0
   -8.5401   15.2692   39.2745 N   0  0  0  0  0  0  0  0  0  0  0  0
   -6.6854   16.9101   39.4286 C   0  0  0  0  0  0  0  0  0  0  0  0
   -5.1253   17.0699   39.4834 C   0  0  2  0  0  0  0  0  0  0  0  0
   -4.7846   18.4885   39.5689 N   0  0  0  0  0  0  0  0  0  0  0  0
   -4.4045   16.4465   38.2067 C   0  0  2  0  0  0  0  0  0  0  0  0
   -4.7921   14.9408   38.1421 C   0  0  2  0  0  0  0  0  0  0  0  0
   -4.0659   14.4275   36.9207 O   0  0  0  0  0  0  0  0  0  0  0  0
   -6.4069   14.7845   38.0176 C   0  0  1  0  0  0  0  0  0  0  0  0
   -6.8944   13.4045   38.0044 O   0  0  0  0  0  0  0  0  0  0  0  0
   -3.8430   13.0780   37.0025 C   0  0  1  0  0  0  0  0  0  0  0  0
   -3.0584   12.5552   35.8791 C   0  0  2  0  0  0  0  0  0  0  0  0
   -3.8854   12.5532   34.7598 O   0  0  0  0  0  0  0  0  0  0  0  0
   -2.5487   11.2210   36.4652 C   0  0  2  0  0  0  0  0  0  0  0  0
   -3.0739   10.1687   35.6248 O   0  0  0  0  0  0  0  0  0  0  0  0
   -3.1012   11.1755   37.8517 C   0  0  2  0  0  0  0  0  0  0  0  0
   -3.0806   12.6250   38.1089 O   0  0  0  0  0  0  0  0  0  0  0  0
   -2.1329   10.4312   38.8431 C   0  0  0  0  0  0  0  0  0  0  0  0
   -0.9159   11.1779   39.1439 O   0  0  0  0  0  0  0  0  0  0  0  0
   -2.4915    8.8401   35.7888 C   0  0  2  0  0  0  0  0  0  0  0  0
   -3.1460    7.8535   34.6877 C   0  0  2  0  0  0  0  0  0  0  0  0
   -4.6339    7.8322   34.8676 N   0  0  0  0  0  0  0  0  0  0  0  0
   -2.4970    6.3945   34.8726 C   0  0  1  0  0  0  0  0  0  0  0  0
   -1.0558    6.5338   34.6854 O   0  0  0  0  0  0  0  0  0  0  0  0
   -2.8361    5.8439   36.3308 C   0  0  2  0  0  0  0  0  0  0  0  0
   -4.3068    5.7174   36.4376 O   0  0  0  0  0  0  0  0  0  0  0  0
   -2.2164    6.8844   37.4240 C   0  0  1  0  0  0  0  0  0  0  0  0
   -2.7830    8.2623   37.1889 O   0  0  0  0  0  0  0  0  0  0  0  0
   -2.5462    6.3834   38.8692 C   0  0  0  0  0  0  0  0  0  0  0  0
   -1.5103    5.4498   39.4102 N   0  0  0  0  0  0  0  0  0  0  0  0
  1  3  1  0  0  0  0
  1  2  1  1  0  0  0
  3  4  1  1  0  0  0
  3  5  1  0  0  0  0
  5  6  1  6  0  0  0
  7  8  1  1  0  0  0
  7  5  1  0  0  0  0
  9 11  1  6  0  0  0
  9  7  1  0  0  0  0
 10  9  1  0  0  0  0
 10  1  1  0  0  0  0
 12 11  1  0  0  0  0
 13 14  1  6  0  0  0
 15 13  1  0  0  0  0
 16 17  1  6  0  0  0
 16 15  1  0  0  0  0
 18  2  1  1  0  0  0
 18 19  1  0  0  0  0
 18 16  1  0  0  0  0
 19 20  1  6  0  0  0
 19 21  1  0  0  0  0
 21 22  1  1  0  0  0
 21 13  1  0  0  0  0
 23 20  1  6  0  0  0
 23 29  1  0  0  0  0
 24 25  1  6  0  0  0
 24 26  1  0  0  0  0
 24 23  1  0  0  0  0
 26 27  1  6  0  0  0
 26 28  1  0  0  0  0
 28 30  1  1  0  0  0
 29 28  1  0  0  0  0
 30 31  1  0  0  0  0
 32 27  1  1  0  0  0
 32 40  1  0  0  0  0
 33 35  1  0  0  0  0
 33 32  1  0  0  0  0
 33 34  1  1  0  0  0
 35 36  1  1  0  0  0
 35 37  1  0  0  0  0
 37 38  1  6  0  0  0
 37 39  1  0  0  0  0
 39 41  1  1  0  0  0
 40 39  1  0  0  0  0
 41 42  1  0  0  0  0
M  END
>  <CHROM.1>
-63.05676364,64.12972308,-91.07239205,155.42303446,-176.02270199,166.50386627
70.62997865,-176.00044555,88.51813523,-3.01052273,12.88374097,37.17526440
-1.59517259,-0.30753947,-3.03287058

>  <Name>
lig.pdb

>  <RI>
0

>  <Rbt.Current_Directory>
/home/itssahil/PROJECTS/Mol_Feturizer/New_Systems/rnas/4wcr

>  <Rbt.Executable>
rbdock ($Id: //depot/dev/client3/rdock/2013.1/src/exe/rbdock.cxx#4 $)

>  <Rbt.Library>
libRbt.so (2013.1, Build901 2013/11/27)

>  <Rbt.Parameter_File>
/export/apps/rDock/src/rDock_2013.1_src/data/scripts/dock_solv.prm

>  <Rbt.Receptor>
prm/pocket_docking_2.prm

>  <SCORE>
2.38155

>  <SCORE.INTER>
6.35915

>  <SCORE.INTER.CONST>
1

>  <SCORE.INTER.POLAR>
0

>  <SCORE.INTER.ROT>
9

>  <SCORE.INTER.SOLV>
19.064

>  <SCORE.INTER.VDW>
-11.7152

>  <SCORE.INTER.norm>
0.151408

>  <SCORE.INTRA>
-4.3364

>  <SCORE.INTRA.DIHEDRAL>
-5.52275

>  <SCORE.INTRA.DIHEDRAL.0>
16.2863

>  <SCORE.INTRA.POLAR>
0

>  <SCORE.INTRA.POLAR.0>
0

>  <SCORE.INTRA.REPUL>
-0.28261

>  <SCORE.INTRA.REPUL.0>
0.314433

>  <SCORE.INTRA.SOLV>
-2.17127

>  <SCORE.INTRA.SOLV.lig_0>
-103.824

>  <SCORE.INTRA.VDW>
0.923662

>  <SCORE.INTRA.VDW.0>
-5.30945

>  <SCORE.INTRA.norm>
-0.103248

>  <SCORE.RESTR>
0.358795

>  <SCORE.RESTR.CAVITY>
0.358795

>  <SCORE.RESTR.norm>
0.00854275

>  <SCORE.SYSTEM>
0

>  <SCORE.SYSTEM.CONST>
0

>  <SCORE.SYSTEM.DIHEDRAL>
0

>  <SCORE.SYSTEM.SOLV>
0

>  <SCORE.SYSTEM.norm>
0

>  <SCORE.heavy>
42

>  <SCORE.norm>
0.0567035

>  <RMSD>
2.229

$$$$
lig.pdb
 OpenBabel11021811513D
libRbt.so/2013.1/901 2013/11/27
 42 45  0  0  0  0  0  0  0  0999 V2000
   -0.8412   17.1659   35.5582 C   0  0  2  0  0  0  0  0  0  0  0  0
   -1.6493   17.5361   36.7189 O   0  0  0  0  0  0  0  0  0  0  0  0
    0.6746   17.4373   35.9689 C   0  0  2  0  0  0  0  0  0  0  0  0
    1.0540   16.5901   37.1030 N   0  0  0  0  0  0  0  0  0  0  0  0
    0.8501   19.0004   36.2937 C   0  0  1  0  0  0  0  0  0  0  0  0
    2.2116   19.3061   36.6619 O   0  0  0  0  0  0  0  0  0  0  0  0
    0.4149   19.7769   35.0391 C   0  0  2  0  0  0  0  0  0  0  0  0
    0.5518   21.1351   35.2845 O   0  0  0  0  0  0  0  0  0  0  0  0
   -1.0956   19.4139   34.6717 C   0  0  2  0  0  0  0  0  0  0  0  0
   -1.2464   18.0119   34.4164 O   0  0  0  0  0  0  0  0  0  0  0  0
   -1.5646   20.1336   33.4391 C   0  0  0  0  0  0  0  0  0  0  0  0
   -2.9866   20.0133   33.3829 O   0  0  0  0  0  0  0  0  0  0  0  0
   -5.5973   16.1232   38.1985 C   0  0  2  0  0  0  0  0  0  0  0  0
   -7.0269   15.9345   38.3151 N   0  0  0  0  0  0  0  0  0  0  0  0
   -5.2472   17.6611   38.2305 C   0  0  0  0  0  0  0  0  0  0  0  0
   -3.7006   17.8933   38.1010 C   0  0  2  0  0  0  0  0  0  0  0  0
   -3.4203   19.3273   38.1277 N   0  0  0  0  0  0  0  0  0  0  0  0
   -3.1037   17.2801   36.7572 C   0  0  2  0  0  0  0  0  0  0  0  0
   -3.4239   15.7572   36.7579 C   0  0  2  0  0  0  0  0  0  0  0  0
   -2.8205   15.2552   35.4669 O   0  0  0  0  0  0  0  0  0  0  0  0
   -5.0330   15.5249   36.8245 C   0  0  1  0  0  0  0  0  0  0  0  0
   -5.4525   14.1240   36.8861 O   0  0  0  0  0  0  0  0  0  0  0  0
   -2.7700   13.8863   35.4382 C   0  0  1  0  0  0  0  0  0  0  0  0
   -2.8579   13.2791   36.7704 C   0  0  2  0  0  0  0  0  0  0  0  0
   -1.6454   13.5099   37.4132 O   0  0  0  0  0  0  0  0  0  0  0  0
   -3.2816   11.8378   36.4149 C   0  0  2  0  0  0  0  0  0  0  0  0
   -2.2360   10.9645   36.8984 O   0  0  0  0  0  0  0  0  0  0  0  0
   -3.3931   11.8271   34.9259 C   0  0  2  0  0  0  0  0  0  0  0  0
   -3.8256   13.2248   34.7608 O   0  0  0  0  0  0  0  0  0  0  0  0
   -4.5180   10.8454   34.4306 C   0  0  0  0  0  0  0  0  0  0  0  0
   -5.8683   11.2853   34.7660 O   0  0  0  0  0  0  0  0  0  0  0  0
   -2.4607    9.5284   36.7646 C   0  0  2  0  0  0  0  0  0  0  0  0
   -3.8610    9.1589   37.4836 C   0  0  2  0  0  0  0  0  0  0  0  0
   -3.8027    9.5790   38.9212 N   0  0  0  0  0  0  0  0  0  0  0  0
   -4.1026    7.5772   37.3285 C   0  0  1  0  0  0  0  0  0  0  0  0
   -4.1337    7.2811   35.8992 O   0  0  0  0  0  0  0  0  0  0  0  0
   -2.9218    6.7866   38.0532 C   0  0  2  0  0  0  0  0  0  0  0  0
   -2.9647    7.1263   39.4930 O   0  0  0  0  0  0  0  0  0  0  0  0
   -1.5143    7.2184   37.3500 C   0  0  1  0  0  0  0  0  0  0  0  0
   -1.3401    8.7137   37.4427 O   0  0  0  0  0  0  0  0  0  0  0  0
   -0.3294    6.4731   38.0493 C   0  0  0  0  0  0  0  0  0  0  0  0
   -0.1869    6.8362   39.4933 N   0  0  0  0  0  0  0  0  0  0  0  0
  1  3  1  0  0  0  0
  1  2  1  1  0  0  0
  3  4  1  1  0  0  0
  3  5  1  0  0  0  0
  5  6  1  6  0  0  0
  7  8  1  1  0  0  0
  7  5  1  0  0  0  0
  9 11  1  6  0  0  0
  9  7  1  0  0  0  0
 10  9  1  0  0  0  0
 10  1  1  0  0  0  0
 12 11  1  0  0  0  0
 13 14  1  6  0  0  0
 15 13  1  0  0  0  0
 16 17  1  6  0  0  0
 16 15  1  0  0  0  0
 18  2  1  1  0  0  0
 18 19  1  0  0  0  0
 18 16  1  0  0  0  0
 19 20  1  6  0  0  0
 19 21  1  0  0  0  0
 21 22  1  1  0  0  0
 21 13  1  0  0  0  0
 23 20  1  1  0  0  0
 23 29  1  0  0  0  0
 24 25  1  6  0  0  0
 24 26  1  0  0  0  0
 24 23  1  0  0  0  0
 26 27  1  6  0  0  0
 26 28  1  0  0  0  0
 28 30  1  1  0  0  0
 29 28  1  0  0  0  0
 30 31  1  0  0  0  0
 32 27  1  1  0  0  0
 32 40  1  0  0  0  0
 33 35  1  0  0  0  0
 33 32  1  0  0  0  0
 33 34  1  1  0  0  0
 35 36  1  6  0  0  0
 35 37  1  0  0  0  0
 37 38  1  1  0  0  0
 37 39  1  0  0  0  0
 39 41  1  1  0  0  0
 40 39  1  0  0  0  0
 41 42  1  0  0  0  0
M  END
>  <CHROM.1>
-173.31799863,-165.87877779,-175.86362601,167.42332816,-19.86362841,175.57058736
68.51482144,-55.15316147,-62.61790112,-2.52825860,13.98869173,36.55695281
-1.43047837,-0.00061402,2.97751861

>  <Name>
lig.pdb

>  <RI>
0

>  <Rbt.Current_Directory>
/home/itssahil/PROJECTS/Mol_Feturizer/New_Systems/rnas/4wcr

>  <Rbt.Executable>
rbdock ($Id: //depot/dev/client3/rdock/2013.1/src/exe/rbdock.cxx#4 $)

>  <Rbt.Library>
libRbt.so (2013.1, Build901 2013/11/27)

>  <Rbt.Parameter_File>
/export/apps/rDock/src/rDock_2013.1_src/data/scripts/dock_solv.prm

>  <Rbt.Receptor>
prm/pocket_docking_2.prm

>  <SCORE>
-0.0250954

>  <SCORE.INTER>
-1.51086

>  <SCORE.INTER.CONST>
1

>  <SCORE.INTER.POLAR>
0

>  <SCORE.INTER.ROT>
9

>  <SCORE.INTER.SOLV>
21.6358

>  <SCORE.INTER.VDW>
-17.8192

>  <SCORE.INTER.norm>
-0.0359728

>  <SCORE.INTRA>
-0.572584

>  <SCORE.INTRA.DIHEDRAL>
-8.18935

>  <SCORE.INTRA.DIHEDRAL.0>
16.2863

>  <SCORE.INTRA.POLAR>
0

>  <SCORE.INTRA.POLAR.0>
0

>  <SCORE.INTRA.REPUL>
-0.314433

>  <SCORE.INTRA.REPUL.0>
0.314433

>  <SCORE.INTRA.SOLV>
-2.28156

>  <SCORE.INTRA.SOLV.lig_0>
-103.824

>  <SCORE.INTRA.VDW>
6.23504

>  <SCORE.INTRA.VDW.0>
-5.30945

>  <SCORE.INTRA.norm>
-0.0136329

>  <SCORE.RESTR>
2.05834

>  <SCORE.RESTR.CAVITY>
2.05834

>  <SCORE.RESTR.norm>
0.0490082

>  <SCORE.SYSTEM>
0

>  <SCORE.SYSTEM.CONST>
0

>  <SCORE.SYSTEM.DIHEDRAL>
0

>  <SCORE.SYSTEM.SOLV>
0

>  <SCORE.SYSTEM.norm>
0

>  <SCORE.heavy>
42

>  <SCORE.norm>
-0.00059751

>  <RMSD>
2.281

$$$$
lig.pdb
 OpenBabel11021811513D
libRbt.so/2013.1/901 2013/11/27
 42 45  0  0  0  0  0  0  0  0999 V2000
   -0.9785   16.5644   36.1290 C   0  0  2  0  0  0  0  0  0  0  0  0
   -1.8140   17.2102   37.1400 O   0  0  0  0  0  0  0  0  0  0  0  0
    0.5262   16.9504   36.4853 C   0  0  2  0  0  0  0  0  0  0  0  0
    0.8866   16.4272   37.8059 N   0  0  0  0  0  0  0  0  0  0  0  0
    0.6840   18.5466   36.4012 C   0  0  1  0  0  0  0  0  0  0  0  0
    2.0351   18.9530   36.7047 O   0  0  0  0  0  0  0  0  0  0  0  0
    0.2708   18.9699   34.9811 C   0  0  2  0  0  0  0  0  0  0  0  0
    0.3932   20.3472   34.8722 O   0  0  0  0  0  0  0  0  0  0  0  0
   -1.2289   18.5066   34.6903 C   0  0  2  0  0  0  0  0  0  0  0  0
   -1.3646   17.0842   34.8007 O   0  0  0  0  0  0  0  0  0  0  0  0
   -1.6759   18.8802   33.3055 C   0  0  0  0  0  0  0  0  0  0  0  0
   -1.7739   20.3040   33.2523 O   0  0  0  0  0  0  0  0  0  0  0  0
   -5.9627   16.4557   38.5512 C   0  0  2  0  0  0  0  0  0  0  0  0
   -7.4083   16.4142   38.5899 N   0  0  0  0  0  0  0  0  0  0  0  0
   -5.4671   17.9344   38.3133 C   0  0  0  0  0  0  0  0  0  0  0  0
   -3.9003   18.0059   38.2627 C   0  0  2  0  0  0  0  0  0  0  0  0
   -3.4837   19.3879   38.0342 N   0  0  0  0  0  0  0  0  0  0  0  0
   -3.2861   17.0895   37.1132 C   0  0  2  0  0  0  0  0  0  0  0  0
   -3.7526   15.6296   37.3825 C   0  0  2  0  0  0  0  0  0  0  0  0
   -3.1244   14.8318   36.2637 O   0  0  0  0  0  0  0  0  0  0  0  0
   -5.3778   15.5506   37.3668 C   0  0  1  0  0  0  0  0  0  0  0  0
   -5.9346   14.2302   37.6644 O   0  0  0  0  0  0  0  0  0  0  0  0
   -3.2624   13.4847   36.4723 C   0  0  1  0  0  0  0  0  0  0  0  0
   -2.4442   12.6748   35.5636 C   0  0  2  0  0  0  0  0  0  0  0  0
   -3.0313   12.7427   34.3037 O   0  0  0  0  0  0  0  0  0  0  0  0
   -2.3958   11.3309   36.3218 C   0  0  2  0  0  0  0  0  0  0  0  0
   -3.0068   10.3439   35.4603 O   0  0  0  0  0  0  0  0  0  0  0  0
   -3.1816   11.5662   37.5695 C   0  0  2  0  0  0  0  0  0  0  0  0
   -2.8476   12.9906   37.7350 O   0  0  0  0  0  0  0  0  0  0  0  0
   -2.6226   10.7302   38.7791 C   0  0  0  0  0  0  0  0  0  0  0  0
   -2.6807    9.2873   38.5702 O   0  0  0  0  0  0  0  0  0  0  0  0
   -2.2523    9.9430   34.2766 C   0  0  2  0  0  0  0  0  0  0  0  0
   -3.0959    8.8102   33.4897 C   0  0  2  0  0  0  0  0  0  0  0  0
   -3.3421    7.6518   34.4085 N   0  0  0  0  0  0  0  0  0  0  0  0
   -2.2604    8.3772   32.1864 C   0  0  1  0  0  0  0  0  0  0  0  0
   -2.0734    9.5752   31.3731 O   0  0  0  0  0  0  0  0  0  0  0  0
   -0.8583    7.7631   32.6350 C   0  0  2  0  0  0  0  0  0  0  0  0
   -1.1301    6.5508   33.4392 O   0  0  0  0  0  0  0  0  0  0  0  0
   -0.0494    8.9035   33.4759 C   0  0  1  0  0  0  0  0  0  0  0  0
   -0.8800    9.3481   34.6537 O   0  0  0  0  0  0  0  0  0  0  0  0
    1.3271    8.3282   33.9479 C   0  0  0  0  0  0  0  0  0  0  0  0
    1.1833    7.2353   34.9590 N   0  0  0  0  0  0  0  0  0  0  0  0
  1  3  1  0  0  0  0
  1  2  1  1  0  0  0
  3  4  1  1  0  0  0
  3  5  1  0  0  0  0
  5  6  1  6  0  0  0
  7  8  1  1  0  0  0
  7  5  1  0  0  0  0
  9 11  1  6  0  0  0
  9  7  1  0  0  0  0
 10  9  1  0  0  0  0
 10  1  1  0  0  0  0
 12 11  1  0  0  0  0
 13 14  1  6  0  0  0
 15 13  1  0  0  0  0
 16 17  1  6  0  0  0
 16 15  1  0  0  0  0
 18  2  1  1  0  0  0
 18 19  1  0  0  0  0
 18 16  1  0  0  0  0
 19 20  1  6  0  0  0
 19 21  1  0  0  0  0
 21 22  1  1  0  0  0
 21 13  1  0  0  0  0
 23 20  1  1  0  0  0
 23 29  1  0  0  0  0
 24 25  1  6  0  0  0
 24 26  1  0  0  0  0
 24 23  1  0  0  0  0
 26 27  1  6  0  0  0
 26 28  1  0  0  0  0
 28 30  1  1  0  0  0
 29 28  1  0  0  0  0
 30 31  1  0  0  0  0
 32 27  1  1  0  0  0
 32 40  1  0  0  0  0
 33 35  1  0  0  0  0
 33 32  1  0  0  0  0
 33 34  1  1  0  0  0
 35 36  1  6  0  0  0
 35 37  1  0  0  0  0
 37 38  1  1  0  0  0
 37 39  1  0  0  0  0
 39 41  1  1  0  0  0
 40 39  1  0  0  0  0
 41 42  1  0  0  0  0
M  END
>  <CHROM.1>
178.96723890,-67.94775275,-175.04812148,170.32465757,-168.48797906,71.32521442
-61.65419233,178.36578248,-66.97286947,-2.14521541,13.85136572,35.78792785
-1.62994414,-0.61849141,-2.95792369

>  <Name>
lig.pdb

>  <RI>
0

>  <Rbt.Current_Directory>
/home/itssahil/PROJECTS/Mol_Feturizer/New_Systems/rnas/4wcr

>  <Rbt.Executable>
rbdock ($Id: //depot/dev/client3/rdock/2013.1/src/exe/rbdock.cxx#4 $)

>  <Rbt.Library>
libRbt.so (2013.1, Build901 2013/11/27)

>  <Rbt.Parameter_File>
/export/apps/rDock/src/rDock_2013.1_src/data/scripts/dock_solv.prm

>  <Rbt.Receptor>
prm/pocket_docking_6.prm

>  <SCORE>
-11.464

>  <SCORE.INTER>
-2.66238

>  <SCORE.INTER.CONST>
1

>  <SCORE.INTER.POLAR>
0

>  <SCORE.INTER.ROT>
9

>  <SCORE.INTER.SOLV>
20.8965

>  <SCORE.INTER.VDW>
-18.3404

>  <SCORE.INTER.norm>
-0.0633901

>  <SCORE.INTRA>
-8.80165

>  <SCORE.INTRA.DIHEDRAL>
-13.5087

>  <SCORE.INTRA.DIHEDRAL.0>
16.2863

>  <SCORE.INTRA.POLAR>
0

>  <SCORE.INTRA.POLAR.0>
0

>  <SCORE.INTRA.REPUL>
-0.314433

>  <SCORE.INTRA.REPUL.0>
0.314433

>  <SCORE.INTRA.SOLV>
-4.00853

>  <SCORE.INTRA.SOLV.lig_0>
-103.824

>  <SCORE.INTRA.VDW>
1.52916

>  <SCORE.INTRA.VDW.0>
-5.30945

>  <SCORE.INTRA.norm>
-0.209563

>  <SCORE.RESTR>
0

>  <SCORE.RESTR.CAVITY>
0

>  <SCORE.RESTR.norm>
0

>  <SCORE.SYSTEM>
0

>  <SCORE.SYSTEM.CONST>
0

>  <SCORE.SYSTEM.DIHEDRAL>
0

>  <SCORE.SYSTEM.SOLV>
0

>  <SCORE.SYSTEM.norm>
0

>  <SCORE.heavy>
42

>  <SCORE.norm>
-0.272953

>  <RMSD>
2.309

$$$$
lig.pdb
 OpenBabel11021811513D
libRbt.so/2013.1/901 2013/11/27
 42 45  0  0  0  0  0  0  0  0999 V2000
   -1.1306   16.2762   36.4607 C   0  0  2  0  0  0  0  0  0  0  0  0
   -1.9591   17.0633   37.3724 O   0  0  0  0  0  0  0  0  0  0  0  0
    0.3641   16.7904   36.6647 C   0  0  2  0  0  0  0  0  0  0  0  0
    0.8037   16.5437   38.0408 N   0  0  0  0  0  0  0  0  0  0  0  0
    0.4326   18.3472   36.2757 C   0  0  1  0  0  0  0  0  0  0  0  0
    1.7708   18.8644   36.4315 O   0  0  0  0  0  0  0  0  0  0  0  0
   -0.0582   18.4747   34.8233 C   0  0  2  0  0  0  0  0  0  0  0  0
   -0.0142   19.8105   34.4526 O   0  0  0  0  0  0  0  0  0  0  0  0
   -1.5411   17.8973   34.6978 C   0  0  2  0  0  0  0  0  0  0  0  0
   -1.5960   16.5169   35.0790 O   0  0  0  0  0  0  0  0  0  0  0  0
   -2.0617   17.9812   33.2910 C   0  0  0  0  0  0  0  0  0  0  0  0
   -2.3011   19.3588   33.0001 O   0  0  0  0  0  0  0  0  0  0  0  0
   -6.1418   16.7428   38.8472 C   0  0  2  0  0  0  0  0  0  0  0  0
   -7.5884   16.7399   38.8688 N   0  0  0  0  0  0  0  0  0  0  0  0
   -5.6090   18.1142   38.2780 C   0  0  0  0  0  0  0  0  0  0  0  0
   -4.0404   18.1411   38.2399 C   0  0  2  0  0  0  0  0  0  0  0  0
   -3.5890   19.4224   37.7011 N   0  0  0  0  0  0  0  0  0  0  0  0
   -3.4332   16.9686   37.3485 C   0  0  2  0  0  0  0  0  0  0  0  0
   -3.9368   15.6221   37.9444 C   0  0  2  0  0  0  0  0  0  0  0  0
   -3.3132   14.5718   37.0553 O   0  0  0  0  0  0  0  0  0  0  0  0
   -5.5630   15.5735   37.9187 C   0  0  1  0  0  0  0  0  0  0  0  0
   -6.1542   14.3711   38.5078 O   0  0  0  0  0  0  0  0  0  0  0  0
   -3.6172   13.3074   37.4870 C   0  0  1  0  0  0  0  0  0  0  0  0
   -2.8273   12.2664   36.8210 C   0  0  2  0  0  0  0  0  0  0  0  0
   -3.3038   12.1525   35.5185 O   0  0  0  0  0  0  0  0  0  0  0  0
   -2.9888   11.0906   37.8082 C   0  0  2  0  0  0  0  0  0  0  0  0
   -3.6382   10.0226   37.0821 O   0  0  0  0  0  0  0  0  0  0  0  0
   -3.8373   11.6306   38.9120 C   0  0  2  0  0  0  0  0  0  0  0  0
   -3.3594   13.0219   38.8517 O   0  0  0  0  0  0  0  0  0  0  0  0
   -3.4709   10.9870   40.2998 C   0  0  0  0  0  0  0  0  0  0  0  0
   -3.8367    9.5785   40.4068 O   0  0  0  0  0  0  0  0  0  0  0  0
   -3.5751    8.6891   37.6725 C   0  0  2  0  0  0  0  0  0  0  0  0
   -2.0246    8.3227   37.9480 C   0  0  2  0  0  0  0  0  0  0  0  0
   -1.2647    8.3940   36.6579 N   0  0  0  0  0  0  0  0  0  0  0  0
   -1.9642    6.8551   38.6012 C   0  0  1  0  0  0  0  0  0  0  0  0
   -2.7378    6.8989   39.8386 O   0  0  0  0  0  0  0  0  0  0  0  0
   -2.5754    5.7939   37.5791 C   0  0  2  0  0  0  0  0  0  0  0  0
   -1.7328    5.7982   36.3624 O   0  0  0  0  0  0  0  0  0  0  0  0
   -4.1210    6.2162   37.2714 C   0  0  1  0  0  0  0  0  0  0  0  0
   -4.1626    7.6219   36.7265 O   0  0  0  0  0  0  0  0  0  0  0  0
   -4.7480    5.2040   36.2560 C   0  0  0  0  0  0  0  0  0  0  0  0
   -4.6459    3.7839   36.7142 N   0  0  0  0  0  0  0  0  0  0  0  0
  1  3  1  0  0  0  0
  1  2  1  1  0  0  0
  3  4  1  1  0  0  0
  3  5  1  0  0  0  0
  5  6  1  6  0  0  0
  7  8  1  1  0  0  0
  7  5  1  0  0  0  0
  9 11  1  6  0  0  0
  9  7  1  0  0  0  0
 10  9  1  0  0  0  0
 10  1  1  0  0  0  0
 12 11  1  0  0  0  0
 13 14  1  6  0  0  0
 15 13  1  0  0  0  0
 16 17  1  6  0  0  0
 16 15  1  0  0  0  0
 18  2  1  1  0  0  0
 18 19  1  0  0  0  0
 18 16  1  0  0  0  0
 19 20  1  6  0  0  0
 19 21  1  0  0  0  0
 21 22  1  1  0  0  0
 21 13  1  0  0  0  0
 23 20  1  6  0  0  0
 23 29  1  0  0  0  0
 24 25  1  6  0  0  0
 24 26  1  0  0  0  0
 24 23  1  0  0  0  0
 26 27  1  6  0  0  0
 26 28  1  0  0  0  0
 28 30  1  1  0  0  0
 29 28  1  0  0  0  0
 30 31  1  0  0  0  0
 32 27  1  6  0  0  0
 32 40  1  0  0  0  0
 33 35  1  0  0  0  0
 33 32  1  0  0  0  0
 33 34  1  6  0  0  0
 35 36  1  1  0  0  0
 35 37  1  0  0  0  0
 37 38  1  6  0  0  0
 37 39  1  0  0  0  0
 39 41  1  6  0  0  0
 40 39  1  0  0  0  0
 41 42  1  0  0  0  0
M  END
>  <CHROM.1>
172.92575310,-70.78567126,-168.88212778,177.38272236,-168.70328360,163.65389558
-69.22726651,-54.38438140,55.02009107,-2.87347878,13.27621444,37.17538001
-1.42093660,-0.55161582,3.08323229

>  <Name>
lig.pdb

>  <RI>
0

>  <Rbt.Current_Directory>
/home/itssahil/PROJECTS/Mol_Feturizer/New_Systems/rnas/4wcr

>  <Rbt.Executable>
rbdock ($Id: //depot/dev/client3/rdock/2013.1/src/exe/rbdock.cxx#4 $)

>  <Rbt.Library>
libRbt.so (2013.1, Build901 2013/11/27)

>  <Rbt.Parameter_File>
/export/apps/rDock/src/rDock_2013.1_src/data/scripts/dock_solv.prm

>  <Rbt.Receptor>
prm/pocket_docking_4.prm

>  <SCORE>
-12.821

>  <SCORE.INTER>
-4.67388

>  <SCORE.INTER.CONST>
1

>  <SCORE.INTER.POLAR>
0

>  <SCORE.INTER.ROT>
9

>  <SCORE.INTER.SOLV>
19.3529

>  <SCORE.INTER.VDW>
-19.1669

>  <SCORE.INTER.norm>
-0.111283

>  <SCORE.INTRA>
-8.14716

>  <SCORE.INTRA.DIHEDRAL>
-12.1156

>  <SCORE.INTRA.DIHEDRAL.0>
16.2863

>  <SCORE.INTRA.POLAR>
0

>  <SCORE.INTRA.POLAR.0>
0

>  <SCORE.INTRA.REPUL>
-0.314433

>  <SCORE.INTRA.REPUL.0>
0.314433

>  <SCORE.INTRA.SOLV>
-3.56489

>  <SCORE.INTRA.SOLV.lig_0>
-103.824

>  <SCORE.INTRA.VDW>
1.26524

>  <SCORE.INTRA.VDW.0>
-5.30945

>  <SCORE.INTRA.norm>
-0.19398

>  <SCORE.RESTR>
0

>  <SCORE.RESTR.CAVITY>
0

>  <SCORE.RESTR.norm>
0

>  <SCORE.SYSTEM>
0

>  <SCORE.SYSTEM.CONST>
0

>  <SCORE.SYSTEM.DIHEDRAL>
0

>  <SCORE.SYSTEM.SOLV>
0

>  <SCORE.SYSTEM.norm>
0

>  <SCORE.heavy>
42

>  <SCORE.norm>
-0.305263

>  <RMSD>
2.327

$$$$
lig.pdb
 OpenBabel11021811513D
libRbt.so/2013.1/901 2013/11/27
 42 45  0  0  0  0  0  0  0  0999 V2000
   -2.2072   17.9349   37.7823 C   0  0  2  0  0  0  0  0  0  0  0  0
   -2.8508   16.7502   38.3476 O   0  0  0  0  0  0  0  0  0  0  0  0
   -2.4395   17.8564   36.2076 C   0  0  2  0  0  0  0  0  0  0  0  0
   -3.8720   17.9011   35.9016 N   0  0  0  0  0  0  0  0  0  0  0  0
   -1.7407   16.5229   35.6480 C   0  0  1  0  0  0  0  0  0  0  0  0
   -1.9107   16.4060   34.2197 O   0  0  0  0  0  0  0  0  0  0  0  0
   -0.2541   16.5910   36.0376 C   0  0  2  0  0  0  0  0  0  0  0  0
    0.3827   15.4508   35.5707 O   0  0  0  0  0  0  0  0  0  0  0  0
   -0.1126   16.7136   37.6230 C   0  0  2  0  0  0  0  0  0  0  0  0
   -0.7680   17.8895   38.1144 O   0  0  0  0  0  0  0  0  0  0  0  0
    1.3234   16.8029   38.0556 C   0  0  0  0  0  0  0  0  0  0  0  0
    1.8786   17.9815   37.4706 O   0  0  0  0  0  0  0  0  0  0  0  0
   -6.9614   15.2394   39.1173 C   0  0  2  0  0  0  0  0  0  0  0  0
   -8.3893   15.0383   39.0005 N   0  0  0  0  0  0  0  0  0  0  0  0
   -6.6403   16.7744   39.2883 C   0  0  0  0  0  0  0  0  0  0  0  0
   -5.0954   17.0200   39.4129 C   0  0  2  0  0  0  0  0  0  0  0  0
   -4.8410   18.4514   39.5620 N   0  0  0  0  0  0  0  0  0  0  0  0
   -4.2902   16.4864   38.1459 C   0  0  2  0  0  0  0  0  0  0  0  0
   -4.5871   14.9646   38.0128 C   0  0  2  0  0  0  0  0  0  0  0  0
   -3.7851   14.5391   36.8051 O   0  0  0  0  0  0  0  0  0  0  0  0
   -6.1840   14.7221   37.8164 C   0  0  1  0  0  0  0  0  0  0  0  0
   -6.5899   13.3183   37.7348 O   0  0  0  0  0  0  0  0  0  0  0  0
   -3.5700   13.1859   36.7999 C   0  0  1  0  0  0  0  0  0  0  0  0
   -2.6492   12.7536   35.7433 C   0  0  2  0  0  0  0  0  0  0  0  0
   -3.3295   12.8521   34.5332 O   0  0  0  0  0  0  0  0  0  0  0  0
   -2.2128   11.3711   36.2738 C   0  0  2  0  0  0  0  0  0  0  0  0
   -2.6253   10.3972   35.2884 O   0  0  0  0  0  0  0  0  0  0  0  0
   -2.9346   11.2131   37.5714 C   0  0  2  0  0  0  0  0  0  0  0  0
   -2.9508   12.6357   37.9507 O   0  0  0  0  0  0  0  0  0  0  0  0
   -2.0958   10.3808   38.6097 C   0  0  0  0  0  0  0  0  0  0  0  0
   -2.8531    9.9876   39.7933 O   0  0  0  0  0  0  0  0  0  0  0  0
   -2.1428    9.0312   35.4679 C   0  0  2  0  0  0  0  0  0  0  0  0
   -2.4635    8.1928   34.1232 C   0  0  2  0  0  0  0  0  0  0  0  0
   -3.9387    8.2292   33.8598 N   0  0  0  0  0  0  0  0  0  0  0  0
   -1.9260    6.6917   34.3276 C   0  0  1  0  0  0  0  0  0  0  0  0
   -0.4911    6.7757   34.5834 O   0  0  0  0  0  0  0  0  0  0  0  0
   -2.6896    6.0173   35.5551 C   0  0  2  0  0  0  0  0  0  0  0  0
   -4.1288    5.9555   35.2158 O   0  0  0  0  0  0  0  0  0  0  0  0
   -2.3988    6.9118   36.8882 C   0  0  1  0  0  0  0  0  0  0  0  0
   -2.8443    8.3331   36.6510 O   0  0  0  0  0  0  0  0  0  0  0  0
   -3.1487    6.2875   38.1115 C   0  0  0  0  0  0  0  0  0  0  0  0
   -4.6304    6.2296   37.9158 N   0  0  0  0  0  0  0  0  0  0  0  0
  1  3  1  0  0  0  0
  1  2  1  1  0  0  0
  3  4  1  1  0  0  0
  3  5  1  0  0  0  0
  5  6  1  6  0  0  0
  7  8  1  1  0  0  0
  7  5  1  0  0  0  0
  9 11  1  6  0  0  0
  9  7  1  0  0  0  0
 10  9  1  0  0  0  0
 10  1  1  0  0  0  0
 12 11  1  0  0  0  0
 13 14  1  6  0  0  0
 15 13  1  0  0  0  0
 16 17  1  6  0  0  0
 16 15  1  0  0  0  0
 18  2  1  1  0  0  0
 18 19  1  0  0  0  0
 18 16  1  0  0  0  0
 19 20  1  6  0  0  0
 19 21  1  0  0  0  0
 21 22  1  1  0  0  0
 21 13  1  0  0  0  0
 23 20  1  1  0  0  0
 23 29  1  0  0  0  0
 24 25  1  6  0  0  0
 24 26  1  0  0  0  0
 24 23  1  0  0  0  0
 26 27  1  6  0  0  0
 26 28  1  0  0  0  0
 28 30  1  1  0  0  0
 29 28  1  0  0  0  0
 30 31  1  0  0  0  0
 32 27  1  6  0  0  0
 32 40  1  0  0  0  0
 33 35  1  0  0  0  0
 33 32  1  0  0  0  0
 33 34  1  1  0  0  0
 35 36  1  1  0  0  0
 35 37  1  0  0  0  0
 37 38  1  6  0  0  0
 37 39  1  0  0  0  0
 39 41  1  1  0  0  0
 40 39  1  0  0  0  0
 41 42  1  0  0  0  0
M  END
>  <CHROM.1>
-58.33201475,61.43106355,-96.38008064,159.78038360,-172.43538161,170.91135550
-169.15144319,-168.70580607,-59.98219085,-2.96874474,12.95840654,36.92137264
-1.55978398,-0.41823217,-2.96348995

>  <Name>
lig.pdb

>  <RI>
0

>  <Rbt.Current_Directory>
/home/itssahil/PROJECTS/Mol_Feturizer/New_Systems/rnas/4wcr

>  <Rbt.Executable>
rbdock ($Id: //depot/dev/client3/rdock/2013.1/src/exe/rbdock.cxx#4 $)

>  <Rbt.Library>
libRbt.so (2013.1, Build901 2013/11/27)

>  <Rbt.Parameter_File>
/export/apps/rDock/src/rDock_2013.1_src/data/scripts/dock_solv.prm

>  <Rbt.Receptor>
prm/pocket_docking_2.prm

>  <SCORE>
3.77374

>  <SCORE.INTER>
7.72853

>  <SCORE.INTER.CONST>
1

>  <SCORE.INTER.POLAR>
0

>  <SCORE.INTER.ROT>
9

>  <SCORE.INTER.SOLV>
23.2732

>  <SCORE.INTER.VDW>
-12.2054

>  <SCORE.INTER.norm>
0.184013

>  <SCORE.INTRA>
-4.6408

>  <SCORE.INTRA.DIHEDRAL>
-7.51961

>  <SCORE.INTRA.DIHEDRAL.0>
16.2863

>  <SCORE.INTRA.POLAR>
0

>  <SCORE.INTRA.POLAR.0>
0

>  <SCORE.INTRA.REPUL>
-0.308343

>  <SCORE.INTRA.REPUL.0>
0.314433

>  <SCORE.INTRA.SOLV>
0.184319

>  <SCORE.INTRA.SOLV.lig_0>
-103.824

>  <SCORE.INTRA.VDW>
0.568561

>  <SCORE.INTRA.VDW.0>
-5.30945

>  <SCORE.INTRA.norm>
-0.110495

>  <SCORE.RESTR>
0.686003

>  <SCORE.RESTR.CAVITY>
0.686003

>  <SCORE.RESTR.norm>
0.0163334

>  <SCORE.SYSTEM>
0

>  <SCORE.SYSTEM.CONST>
0

>  <SCORE.SYSTEM.DIHEDRAL>
0

>  <SCORE.SYSTEM.SOLV>
0

>  <SCORE.SYSTEM.norm>
0

>  <SCORE.heavy>
42

>  <SCORE.norm>
0.0898508

>  <RMSD>
2.329

$$$$
lig.pdb
 OpenBabel11021811513D
libRbt.so/2013.1/901 2013/11/27
 42 45  0  0  0  0  0  0  0  0999 V2000
   -0.7001   16.7879   36.2578 C   0  0  2  0  0  0  0  0  0  0  0  0
   -1.5643   17.4475   37.2351 O   0  0  0  0  0  0  0  0  0  0  0  0
    0.7665   17.3603   36.5057 C   0  0  2  0  0  0  0  0  0  0  0  0
    1.2252   17.0176   37.8547 N   0  0  0  0  0  0  0  0  0  0  0  0
    0.7514   18.9466   36.2545 C   0  0  1  0  0  0  0  0  0  0  0  0
    2.0614   19.5180   36.4547 O   0  0  0  0  0  0  0  0  0  0  0  0
    0.2476   19.1746   34.8190 C   0  0  2  0  0  0  0  0  0  0  0  0
    0.2196   20.5382   34.5667 O   0  0  0  0  0  0  0  0  0  0  0  0
   -1.2036   18.5331   34.6437 C   0  0  2  0  0  0  0  0  0  0  0  0
   -1.1841   17.1237   34.9025 O   0  0  0  0  0  0  0  0  0  0  0  0
   -1.7347   18.7122   33.2498 C   0  0  0  0  0  0  0  0  0  0  0  0
   -2.0061   20.1022   33.0659 O   0  0  0  0  0  0  0  0  0  0  0  0
   -5.6893   16.6978   38.7166 C   0  0  2  0  0  0  0  0  0  0  0  0
   -7.1320   16.5965   38.7548 N   0  0  0  0  0  0  0  0  0  0  0  0
   -5.2572   18.1534   38.2886 C   0  0  0  0  0  0  0  0  0  0  0  0
   -3.6947   18.2883   38.2354 C   0  0  2  0  0  0  0  0  0  0  0  0
   -3.3375   19.6459   37.8290 N   0  0  0  0  0  0  0  0  0  0  0  0
   -3.0293   17.2580   37.2185 C   0  0  2  0  0  0  0  0  0  0  0  0
   -3.4334   15.8263   37.6754 C   0  0  2  0  0  0  0  0  0  0  0  0
   -2.7595   14.9181   36.6736 O   0  0  0  0  0  0  0  0  0  0  0  0
   -5.0532   15.6726   37.6637 C   0  0  1  0  0  0  0  0  0  0  0  0
   -5.5540   14.3788   38.1299 O   0  0  0  0  0  0  0  0  0  0  0  0
   -2.8766   13.6016   37.0349 C   0  0  1  0  0  0  0  0  0  0  0  0
   -2.1556   12.6922   36.1382 C   0  0  2  0  0  0  0  0  0  0  0  0
   -2.8675   12.6353   34.9438 O   0  0  0  0  0  0  0  0  0  0  0  0
   -2.0315   11.4342   37.0242 C   0  0  2  0  0  0  0  0  0  0  0  0
   -2.7275   10.3698   36.3369 O   0  0  0  0  0  0  0  0  0  0  0  0
   -2.6864   11.8070   38.3133 C   0  0  2  0  0  0  0  0  0  0  0  0
   -2.3362   13.2370   38.2941 O   0  0  0  0  0  0  0  0  0  0  0  0
   -2.0081   11.0953   39.5412 C   0  0  0  0  0  0  0  0  0  0  0  0
   -2.0550    9.6385   39.4727 O   0  0  0  0  0  0  0  0  0  0  0  0
   -2.1311    9.8843   35.0961 C   0  0  2  0  0  0  0  0  0  0  0  0
   -3.0348    8.6670   34.5343 C   0  0  2  0  0  0  0  0  0  0  0  0
   -3.1090    7.5884   35.5725 N   0  0  0  0  0  0  0  0  0  0  0  0
   -2.3738    8.1409   33.1667 C   0  0  1  0  0  0  0  0  0  0  0  0
   -2.3449    9.2668   32.2376 O   0  0  0  0  0  0  0  0  0  0  0  0
   -0.9017    7.6022   33.4620 C   0  0  2  0  0  0  0  0  0  0  0  0
   -1.0152    6.4592   34.3952 O   0  0  0  0  0  0  0  0  0  0  0  0
   -0.0252    8.8311   34.0812 C   0  0  1  0  0  0  0  0  0  0  0  0
   -0.6993    9.3577   35.3234 O   0  0  0  0  0  0  0  0  0  0  0  0
    1.4234    8.3324   34.3999 C   0  0  0  0  0  0  0  0  0  0  0  0
    2.1934    7.9635   33.1717 N   0  0  0  0  0  0  0  0  0  0  0  0
  1  3  1  0  0  0  0
  1  2  1  1  0  0  0
  3  4  1  1  0  0  0
  3  5  1  0  0  0  0
  5  6  1  6  0  0  0
  7  8  1  1  0  0  0
  7  5  1  0  0  0  0
  9 11  1  6  0  0  0
  9  7  1  0  0  0  0
 10  9  1  0  0  0  0
 10  1  1  0  0  0  0
 12 11  1  0  0  0  0
 13 14  1  6  0  0  0
 15 13  1  0  0  0  0
 16 17  1  6  0  0  0
 16 15  1  0  0  0  0
 18  2  1  1  0  0  0
 18 19  1  0  0  0  0
 18 16  1  0  0  0  0
 19 20  1  6  0  0  0
 19 21  1  0  0  0  0
 21 22  1  1  0  0  0
 21 13  1  0  0  0  0
 23 20  1  6  0  0  0
 23 29  1  0  0  0  0
 24 25  1  6  0  0  0
 24 26  1  0  0  0  0
 24 23  1  0  0  0  0
 26 27  1  6  0  0  0
 26 28  1  0  0  0  0
 28 30  1  1  0  0  0
 29 28  1  0  0  0  0
 30 31  1  0  0  0  0
 32 27  1  1  0  0  0
 32 40  1  0  0  0  0
 33 35  1  0  0  0  0
 33 32  1  0  0  0  0
 33 34  1  1  0  0  0
 35 36  1  6  0  0  0
 35 37  1  0  0  0  0
 37 38  1  1  0  0  0
 37 39  1  0  0  0  0
 39 41  1  1  0  0  0
 40 39  1  0  0  0  0
 41 42  1  0  0  0  0
M  END
>  <CHROM.1>
174.06164842,-68.91308968,-170.53599879,172.25112516,-175.99001473,68.39167204
-60.01641489,177.77724408,66.18927249,-1.93634107,13.97828355,36.11855360
-1.63308290,-0.67929846,-3.03378066

>  <Name>
lig.pdb

>  <RI>
0

>  <Rbt.Current_Directory>
/home/itssahil/PROJECTS/Mol_Feturizer/New_Systems/rnas/4wcr

>  <Rbt.Executable>
rbdock ($Id: //depot/dev/client3/rdock/2013.1/src/exe/rbdock.cxx#4 $)

>  <Rbt.Library>
libRbt.so (2013.1, Build901 2013/11/27)

>  <Rbt.Parameter_File>
/export/apps/rDock/src/rDock_2013.1_src/data/scripts/dock_solv.prm

>  <Rbt.Receptor>
prm/pocket_docking_6.prm

>  <SCORE>
-11.5527

>  <SCORE.INTER>
-1.92726

>  <SCORE.INTER.CONST>
1

>  <SCORE.INTER.POLAR>
0

>  <SCORE.INTER.ROT>
9

>  <SCORE.INTER.SOLV>
25.7488

>  <SCORE.INTER.VDW>
-19.4678

>  <SCORE.INTER.norm>
-0.0458872

>  <SCORE.INTRA>
-9.62547

>  <SCORE.INTRA.DIHEDRAL>
-13.9938

>  <SCORE.INTRA.DIHEDRAL.0>
16.2863

>  <SCORE.INTRA.POLAR>
0

>  <SCORE.INTRA.POLAR.0>
0

>  <SCORE.INTRA.REPUL>
-0.314433

>  <SCORE.INTRA.REPUL.0>
0.314433

>  <SCORE.INTRA.SOLV>
-5.31563

>  <SCORE.INTRA.SOLV.lig_0>
-103.824

>  <SCORE.INTRA.VDW>
1.60141

>  <SCORE.INTRA.VDW.0>
-5.30945

>  <SCORE.INTRA.norm>
-0.229178

>  <SCORE.RESTR>
0

>  <SCORE.RESTR.CAVITY>
0

>  <SCORE.RESTR.norm>
0

>  <SCORE.SYSTEM>
0

>  <SCORE.SYSTEM.CONST>
0

>  <SCORE.SYSTEM.DIHEDRAL>
0

>  <SCORE.SYSTEM.SOLV>
0

>  <SCORE.SYSTEM.norm>
0

>  <SCORE.heavy>
42

>  <SCORE.norm>
-0.275065

>  <RMSD>
2.341

$$$$
lig.pdb
 OpenBabel11021811513D
libRbt.so/2013.1/901 2013/11/27
 42 45  0  0  0  0  0  0  0  0999 V2000
   -1.5438   15.7459   36.2571 C   0  0  2  0  0  0  0  0  0  0  0  0
   -2.2053   16.2924   37.4407 O   0  0  0  0  0  0  0  0  0  0  0  0
    0.0131   16.0268   36.4503 C   0  0  2  0  0  0  0  0  0  0  0  0
    0.5122   15.3300   37.6390 N   0  0  0  0  0  0  0  0  0  0  0  0
    0.2453   17.6138   36.5349 C   0  0  1  0  0  0  0  0  0  0  0  0
    1.6443   17.9274   36.6993 O   0  0  0  0  0  0  0  0  0  0  0  0
   -0.3243   18.2259   35.2436 C   0  0  2  0  0  0  0  0  0  0  0  0
   -0.1424   19.6003   35.2827 O   0  0  0  0  0  0  0  0  0  0  0  0
   -1.8720   17.8600   35.1051 C   0  0  2  0  0  0  0  0  0  0  0  0
   -2.0695   16.4412   35.0638 O   0  0  0  0  0  0  0  0  0  0  0  0
   -2.4733   18.4197   33.8471 C   0  0  0  0  0  0  0  0  0  0  0  0
   -1.8419   17.7730   32.7413 O   0  0  0  0  0  0  0  0  0  0  0  0
   -6.1312   15.7803   39.4650 C   0  0  2  0  0  0  0  0  0  0  0  0
   -7.5591   15.7635   39.6965 N   0  0  0  0  0  0  0  0  0  0  0  0
   -5.6760   17.2096   38.9766 C   0  0  0  0  0  0  0  0  0  0  0  0
   -4.1295   17.2530   38.7138 C   0  0  2  0  0  0  0  0  0  0  0  0
   -3.7511   18.5888   38.2573 N   0  0  0  0  0  0  0  0  0  0  0  0
   -3.6678   16.1890   37.6215 C   0  0  2  0  0  0  0  0  0  0  0  0
   -4.0901   14.7819   38.1346 C   0  0  2  0  0  0  0  0  0  0  0  0
   -3.6108   13.8393   37.0555 O   0  0  0  0  0  0  0  0  0  0  0  0
   -5.7030   14.7234   38.3408 C   0  0  1  0  0  0  0  0  0  0  0  0
   -6.2116   13.4595   38.8756 O   0  0  0  0  0  0  0  0  0  0  0  0
   -3.7729   12.5305   37.4273 C   0  0  1  0  0  0  0  0  0  0  0  0
   -3.0362   11.5938   36.5725 C   0  0  2  0  0  0  0  0  0  0  0  0
   -3.6989   11.5374   35.3501 O   0  0  0  0  0  0  0  0  0  0  0  0
   -2.9779   10.3448   37.4779 C   0  0  2  0  0  0  0  0  0  0  0  0
   -3.6688    9.2875   36.7748 O   0  0  0  0  0  0  0  0  0  0  0  0
   -3.6771   10.7488   38.7339 C   0  0  2  0  0  0  0  0  0  0  0  0
   -3.2938   12.1702   38.7123 O   0  0  0  0  0  0  0  0  0  0  0  0
   -3.0669   10.0379   39.9975 C   0  0  0  0  0  0  0  0  0  0  0  0
   -3.7120   10.4160   41.2506 O   0  0  0  0  0  0  0  0  0  0  0  0
   -3.6684    7.9685   37.4003 C   0  0  2  0  0  0  0  0  0  0  0  0
   -2.1356    7.5231   37.6578 C   0  0  2  0  0  0  0  0  0  0  0  0
   -1.3982    7.5176   36.3529 N   0  0  0  0  0  0  0  0  0  0  0  0
   -2.1442    6.0722   38.3498 C   0  0  1  0  0  0  0  0  0  0  0  0
   -2.8900    6.1919   39.5993 O   0  0  0  0  0  0  0  0  0  0  0  0
   -2.8332    5.0204   37.3683 C   0  0  2  0  0  0  0  0  0  0  0  0
   -2.0156    4.9453   36.1371 O   0  0  0  0  0  0  0  0  0  0  0  0
   -4.3587    5.5204   37.0770 C   0  0  1  0  0  0  0  0  0  0  0  0
   -4.3327    6.9114   36.4946 O   0  0  0  0  0  0  0  0  0  0  0  0
   -5.0606    4.5186   36.1011 C   0  0  0  0  0  0  0  0  0  0  0  0
   -4.4020    4.4576   34.7596 N   0  0  0  0  0  0  0  0  0  0  0  0
  1  3  1  0  0  0  0
  1  2  1  1  0  0  0
  3  4  1  1  0  0  0
  3  5  1  0  0  0  0
  5  6  1  6  0  0  0
  7  8  1  1  0  0  0
  7  5  1  0  0  0  0
  9 11  1  6  0  0  0
  9  7  1  0  0  0  0
 10  9  1  0  0  0  0
 10  1  1  0  0  0  0
 12 11  1  0  0  0  0
 13 14  1  6  0  0  0
 15 13  1  0  0  0  0
 16 17  1  6  0  0  0
 16 15  1  0  0  0  0
 18  2  1  1  0  0  0
 18 19  1  0  0  0  0
 18 16  1  0  0  0  0
 19 20  1  6  0  0  0
 19 21  1  0  0  0  0
 21 22  1  1  0  0  0
 21 13  1  0  0  0  0
 23 20  1  6  0  0  0
 23 29  1  0  0  0  0
 24 25  1  6  0  0  0
 24 26  1  0  0  0  0
 24 23  1  0  0  0  0
 26 27  1  6  0  0  0
 26 28  1  0  0  0  0
 28 30  1  1  0  0  0
 29 28  1  0  0  0  0
 30 31  1  0  0  0  0
 32 27  1  6  0  0  0
 32 40  1  0  0  0  0
 33 35  1  0  0  0  0
 33 32  1  0  0  0  0
 33 34  1  6  0  0  0
 35 36  1  1  0  0  0
 35 37  1  0  0  0  0
 37 38  1  6  0  0  0
 37 39  1  0  0  0  0
 39 41  1  6  0  0  0
 40 39  1  0  0  0  0
 41 42  1  0  0  0  0
M  END
>  <CHROM.1>
-178.79976243,65.15873076,-161.77571342,173.11823681,-166.00623562,176.01366367
179.36034375,-56.02149390,-63.03474094,-3.00607960,12.62025922,37.19866917
-1.40872930,-0.70311438,-3.11260216

>  <Name>
lig.pdb

>  <RI>
0

>  <Rbt.Current_Directory>
/home/itssahil/PROJECTS/Mol_Feturizer/New_Systems/rnas/4wcr

>  <Rbt.Executable>
rbdock ($Id: //depot/dev/client3/rdock/2013.1/src/exe/rbdock.cxx#4 $)

>  <Rbt.Library>
libRbt.so (2013.1, Build901 2013/11/27)

>  <Rbt.Parameter_File>
/export/apps/rDock/src/rDock_2013.1_src/data/scripts/dock_solv.prm

>  <Rbt.Receptor>
prm/pocket_docking_4.prm

>  <SCORE>
-9.3738

>  <SCORE.INTER>
-1.1354

>  <SCORE.INTER.CONST>
1

>  <SCORE.INTER.POLAR>
0

>  <SCORE.INTER.ROT>
9

>  <SCORE.INTER.SOLV>
15.9996

>  <SCORE.INTER.VDW>
-15.6901

>  <SCORE.INTER.norm>
-0.0270333

>  <SCORE.INTRA>
-8.23841

>  <SCORE.INTRA.DIHEDRAL>
-12.776

>  <SCORE.INTRA.DIHEDRAL.0>
16.2863

>  <SCORE.INTRA.POLAR>
0

>  <SCORE.INTRA.POLAR.0>
0

>  <SCORE.INTRA.REPUL>
-0.314433

>  <SCORE.INTRA.REPUL.0>
0.314433

>  <SCORE.INTRA.SOLV>
-3.17397

>  <SCORE.INTRA.SOLV.lig_0>
-103.824

>  <SCORE.INTRA.VDW>
1.30874

>  <SCORE.INTRA.VDW.0>
-5.30945

>  <SCORE.INTRA.norm>
-0.196153

>  <SCORE.RESTR>
0

>  <SCORE.RESTR.CAVITY>
0

>  <SCORE.RESTR.norm>
0

>  <SCORE.SYSTEM>
0

>  <SCORE.SYSTEM.CONST>
0

>  <SCORE.SYSTEM.DIHEDRAL>
0

>  <SCORE.SYSTEM.SOLV>
0

>  <SCORE.SYSTEM.norm>
0

>  <SCORE.heavy>
42

>  <SCORE.norm>
-0.223186

>  <RMSD>
2.357

$$$$
lig.pdb
 OpenBabel11021811513D
libRbt.so/2013.1/901 2013/11/27
 42 45  0  0  0  0  0  0  0  0999 V2000
   -1.8940   16.5610   35.3202 C   0  0  2  0  0  0  0  0  0  0  0  0
   -2.5300   17.1801   36.4818 O   0  0  0  0  0  0  0  0  0  0  0  0
   -0.4513   17.2270   35.1975 C   0  0  2  0  0  0  0  0  0  0  0  0
    0.3477   16.9336   36.3905 N   0  0  0  0  0  0  0  0  0  0  0  0
   -0.6293   18.8054   34.9594 C   0  0  1  0  0  0  0  0  0  0  0  0
    0.6503   19.4600   34.8294 O   0  0  0  0  0  0  0  0  0  0  0  0
   -1.4860   18.9803   33.6938 C   0  0  2  0  0  0  0  0  0  0  0  0
   -1.6625   20.3356   33.4576 O   0  0  0  0  0  0  0  0  0  0  0  0
   -2.8915   18.2473   33.8829 C   0  0  2  0  0  0  0  0  0  0  0  0
   -2.7186   16.8459   34.1274 O   0  0  0  0  0  0  0  0  0  0  0  0
   -3.7611   18.3724   32.6641 C   0  0  0  0  0  0  0  0  0  0  0  0
   -4.1959   19.7302   32.5809 O   0  0  0  0  0  0  0  0  0  0  0  0
   -6.1565   16.1518   38.8404 C   0  0  2  0  0  0  0  0  0  0  0  0
   -7.5445   15.9922   39.2159 N   0  0  0  0  0  0  0  0  0  0  0  0
   -5.8668   17.6534   38.4534 C   0  0  0  0  0  0  0  0  0  0  0  0
   -4.3669   17.8524   38.0374 C   0  0  2  0  0  0  0  0  0  0  0  0
   -4.1427   19.2518   37.6806 N   0  0  0  0  0  0  0  0  0  0  0  0
   -3.9514   16.9364   36.8019 C   0  0  2  0  0  0  0  0  0  0  0  0
   -4.2074   15.4572   37.2122 C   0  0  2  0  0  0  0  0  0  0  0  0
   -3.7821   14.6619   36.0000 O   0  0  0  0  0  0  0  0  0  0  0  0
   -5.7784   15.2428   37.5775 C   0  0  1  0  0  0  0  0  0  0  0  0
   -6.1282   13.8964   38.0326 O   0  0  0  0  0  0  0  0  0  0  0  0
   -3.5562   13.3485   36.3185 C   0  0  1  0  0  0  0  0  0  0  0  0
   -3.2415   12.5190   35.1506 C   0  0  2  0  0  0  0  0  0  0  0  0
   -4.4207   12.3497   34.4312 O   0  0  0  0  0  0  0  0  0  0  0  0
   -2.5640   11.3041   35.8202 C   0  0  2  0  0  0  0  0  0  0  0  0
   -3.3691   10.1476   35.4979 O   0  0  0  0  0  0  0  0  0  0  0  0
   -2.5712   11.6175   37.2801 C   0  0  2  0  0  0  0  0  0  0  0  0
   -2.4456   13.0794   37.1581 O   0  0  0  0  0  0  0  0  0  0  0  0
   -1.3136   11.0208   38.0127 C   0  0  0  0  0  0  0  0  0  0  0  0
   -0.0444   11.5397   37.5137 O   0  0  0  0  0  0  0  0  0  0  0  0
   -2.9062    8.8590   36.0040 C   0  0  2  0  0  0  0  0  0  0  0  0
   -1.5320    8.4731   35.2447 C   0  0  2  0  0  0  0  0  0  0  0  0
   -1.7804    8.4312   33.7671 N   0  0  0  0  0  0  0  0  0  0  0  0
   -1.0273    7.0555   35.8101 C   0  0  1  0  0  0  0  0  0  0  0  0
   -0.8261    7.2087   37.2481 O   0  0  0  0  0  0  0  0  0  0  0  0
   -2.1238    5.9396   35.4993 C   0  0  2  0  0  0  0  0  0  0  0  0
   -2.2601    5.8339   34.0295 O   0  0  0  0  0  0  0  0  0  0  0  0
   -3.5165    6.3787   36.2269 C   0  0  1  0  0  0  0  0  0  0  0  0
   -3.9357    7.7420   35.7366 O   0  0  0  0  0  0  0  0  0  0  0  0
   -4.6222    5.3126   35.9279 C   0  0  0  0  0  0  0  0  0  0  0  0
   -4.3257    3.9812   36.5417 N   0  0  0  0  0  0  0  0  0  0  0  0
  1  3  1  0  0  0  0
  1  2  1  1  0  0  0
  3  4  1  1  0  0  0
  3  5  1  0  0  0  0
  5  6  1  6  0  0  0
  7  8  1  1  0  0  0
  7  5  1  0  0  0  0
  9 11  1  6  0  0  0
  9  7  1  0  0  0  0
 10  9  1  0  0  0  0
 10  1  1  0  0  0  0
 12 11  1  0  0  0  0
 13 14  1  6  0  0  0
 15 13  1  0  0  0  0
 16 17  1  6  0  0  0
 16 15  1  0  0  0  0
 18  2  1  1  0  0  0
 18 19  1  0  0  0  0
 18 16  1  0  0  0  0
 19 20  1  6  0  0  0
 19 21  1  0  0  0  0
 21 22  1  1  0  0  0
 21 13  1  0  0  0  0
 23 20  1  6  0  0  0
 23 29  1  0  0  0  0
 24 25  1  1  0  0  0
 24 26  1  0  0  0  0
 24 23  1  0  0  0  0
 26 27  1  1  0  0  0
 26 28  1  0  0  0  0
 28 30  1  1  0  0  0
 29 28  1  0  0  0  0
 30 31  1  0  0  0  0
 32 27  1  6  0  0  0
 32 40  1  0  0  0  0
 33 35  1  0  0  0  0
 33 32  1  0  0  0  0
 33 34  1  6  0  0  0
 35 36  1  1  0  0  0
 35 37  1  0  0  0  0
 37 38  1  6  0  0  0
 37 39  1  0  0  0  0
 39 41  1  6  0  0  0
 40 39  1  0  0  0  0
 41 42  1  0  0  0  0
M  END
>  <CHROM.1>
171.92245828,-70.90980320,-174.89609453,161.52012445,175.55939582,178.73416348
60.93434935,-67.67086857,65.83343574,-2.97819873,13.43028261,35.94414996
-1.58769918,-0.63195537,3.09096927

>  <Name>
lig.pdb

>  <RI>
0

>  <Rbt.Current_Directory>
/home/itssahil/PROJECTS/Mol_Feturizer/New_Systems/rnas/4wcr

>  <Rbt.Executable>
rbdock ($Id: //depot/dev/client3/rdock/2013.1/src/exe/rbdock.cxx#4 $)

>  <Rbt.Library>
libRbt.so (2013.1, Build901 2013/11/27)

>  <Rbt.Parameter_File>
/export/apps/rDock/src/rDock_2013.1_src/data/scripts/dock_solv.prm

>  <Rbt.Receptor>
prm/pocket_docking_4.prm

>  <SCORE>
-12.086

>  <SCORE.INTER>
-2.55868

>  <SCORE.INTER.CONST>
1

>  <SCORE.INTER.POLAR>
0

>  <SCORE.INTER.ROT>
9

>  <SCORE.INTER.SOLV>
17.9363

>  <SCORE.INTER.VDW>
-17.2845

>  <SCORE.INTER.norm>
-0.060921

>  <SCORE.INTRA>
-9.52731

>  <SCORE.INTRA.DIHEDRAL>
-12.8157

>  <SCORE.INTRA.DIHEDRAL.0>
16.2863

>  <SCORE.INTRA.POLAR>
0

>  <SCORE.INTRA.POLAR.0>
0

>  <SCORE.INTRA.REPUL>
-0.314433

>  <SCORE.INTRA.REPUL.0>
0.314433

>  <SCORE.INTRA.SOLV>
-5.08837

>  <SCORE.INTRA.SOLV.lig_0>
-103.824

>  <SCORE.INTRA.VDW>
0.996905

>  <SCORE.INTRA.VDW.0>
-5.30945

>  <SCORE.INTRA.norm>
-0.226841

>  <SCORE.RESTR>
0

>  <SCORE.RESTR.CAVITY>
0

>  <SCORE.RESTR.norm>
0

>  <SCORE.SYSTEM>
0

>  <SCORE.SYSTEM.CONST>
0

>  <SCORE.SYSTEM.DIHEDRAL>
0

>  <SCORE.SYSTEM.SOLV>
0

>  <SCORE.SYSTEM.norm>
0

>  <SCORE.heavy>
42

>  <SCORE.norm>
-0.287762

>  <RMSD>
2.380

$$$$
lig.pdb
 OpenBabel11021811513D
libRbt.so/2013.1/901 2013/11/27
 42 45  0  0  0  0  0  0  0  0999 V2000
   -2.5738   17.9779   37.6445 C   0  0  2  0  0  0  0  0  0  0  0  0
   -3.0191   16.6957   38.1876 O   0  0  0  0  0  0  0  0  0  0  0  0
   -2.5844   17.8152   36.0591 C   0  0  2  0  0  0  0  0  0  0  0  0
   -3.9441   17.5436   35.5846 N   0  0  0  0  0  0  0  0  0  0  0  0
   -1.5557   16.6507   35.6522 C   0  0  1  0  0  0  0  0  0  0  0  0
   -1.5163   16.4673   34.2213 O   0  0  0  0  0  0  0  0  0  0  0  0
   -0.1779   17.0459   36.2106 C   0  0  2  0  0  0  0  0  0  0  0  0
    0.7384   16.0590   35.8788 O   0  0  0  0  0  0  0  0  0  0  0  0
   -0.2659   17.2324   37.7936 C   0  0  2  0  0  0  0  0  0  0  0  0
   -1.2107   18.2507   38.1458 O   0  0  0  0  0  0  0  0  0  0  0  0
    1.0531   17.6384   38.3876 C   0  0  0  0  0  0  0  0  0  0  0  0
    1.9919   16.5996   38.1062 O   0  0  0  0  0  0  0  0  0  0  0  0
   -7.0219   15.0670   39.2351 C   0  0  2  0  0  0  0  0  0  0  0  0
   -8.4153   14.6911   39.1337 N   0  0  0  0  0  0  0  0  0  0  0  0
   -6.8505   16.6062   38.9350 C   0  0  0  0  0  0  0  0  0  0  0  0
   -5.3454   17.0390   39.0344 C   0  0  2  0  0  0  0  0  0  0  0  0
   -5.2295   18.4664   38.7432 N   0  0  0  0  0  0  0  0  0  0  0  0
   -4.4127   16.2334   38.0246 C   0  0  2  0  0  0  0  0  0  0  0  0
   -4.5638   14.7207   38.3573 C   0  0  2  0  0  0  0  0  0  0  0  0
   -3.6479   14.0352   37.3705 O   0  0  0  0  0  0  0  0  0  0  0  0
   -6.1161   14.2637   38.1870 C   0  0  1  0  0  0  0  0  0  0  0  0
   -6.3894   12.8669   38.5282 O   0  0  0  0  0  0  0  0  0  0  0  0
   -3.4803   12.7112   37.6810 C   0  0  1  0  0  0  0  0  0  0  0  0
   -2.6414   11.9950   36.7144 C   0  0  2  0  0  0  0  0  0  0  0  0
   -3.3907   11.8341   35.5527 O   0  0  0  0  0  0  0  0  0  0  0  0
   -2.2214   10.7600   37.5399 C   0  0  2  0  0  0  0  0  0  0  0  0
   -2.7267    9.5999   36.8411 O   0  0  0  0  0  0  0  0  0  0  0  0
   -2.8673   10.9517   38.8724 C   0  0  2  0  0  0  0  0  0  0  0  0
   -2.8112   12.4228   38.8974 O   0  0  0  0  0  0  0  0  0  0  0  0
   -1.9957   10.3522   40.0366 C   0  0  0  0  0  0  0  0  0  0  0  0
   -2.6612   10.3701   41.3351 O   0  0  0  0  0  0  0  0  0  0  0  0
   -2.1321    8.3115   37.1841 C   0  0  2  0  0  0  0  0  0  0  0  0
   -2.7019    7.1951   36.1628 C   0  0  2  0  0  0  0  0  0  0  0  0
   -4.1973    7.1580   36.2575 N   0  0  0  0  0  0  0  0  0  0  0  0
   -2.0398    5.7811   36.5448 C   0  0  1  0  0  0  0  0  0  0  0  0
   -0.5926    5.9337   36.4270 O   0  0  0  0  0  0  0  0  0  0  0  0
   -2.4562    5.3849   38.0328 C   0  0  2  0  0  0  0  0  0  0  0  0
   -3.9282    5.2357   38.0677 O   0  0  0  0  0  0  0  0  0  0  0  0
   -1.9216    6.5532   39.0384 C   0  0  1  0  0  0  0  0  0  0  0  0
   -2.4971    7.8832   38.6202 O   0  0  0  0  0  0  0  0  0  0  0  0
   -2.3289    6.2052   40.5086 C   0  0  0  0  0  0  0  0  0  0  0  0
   -1.8258    7.2038   41.5020 N   0  0  0  0  0  0  0  0  0  0  0  0
  1  3  1  0  0  0  0
  1  2  1  1  0  0  0
  3  4  1  1  0  0  0
  3  5  1  0  0  0  0
  5  6  1  6  0  0  0
  7  8  1  1  0  0  0
  7  5  1  0  0  0  0
  9 11  1  6  0  0  0
  9  7  1  0  0  0  0
 10  9  1  0  0  0  0
 10  1  1  0  0  0  0
 12 11  1  0  0  0  0
 13 14  1  6  0  0  0
 15 13  1  0  0  0  0
 16 17  1  6  0  0  0
 16 15  1  0  0  0  0
 18  2  1  1  0  0  0
 18 19  1  0  0  0  0
 18 16  1  0  0  0  0
 19 20  1  6  0  0  0
 19 21  1  0  0  0  0
 21 22  1  1  0  0  0
 21 13  1  0  0  0  0
 23 20  1  6  0  0  0
 23 29  1  0  0  0  0
 24 25  1  6  0  0  0
 24 26  1  0  0  0  0
 24 23  1  0  0  0  0
 26 27  1  6  0  0  0
 26 28  1  0  0  0  0
 28 30  1  1  0  0  0
 29 28  1  0  0  0  0
 30 31  1  0  0  0  0
 32 27  1  6  0  0  0
 32 40  1  0  0  0  0
 33 35  1  0  0  0  0
 33 32  1  0  0  0  0
 33 34  1  1  0  0  0
 35 36  1  1  0  0  0
 35 37  1  0  0  0  0
 37 38  1  6  0  0  0
 37 39  1  0  0  0  0
 39 41  1  1  0  0  0
 40 39  1  0  0  0  0
 41 42  1  0  0  0  0
M  END
>  <CHROM.1>
-69.08119498,-60.85859582,-75.77212956,169.21051516,177.60795535,161.97982158
-172.90342878,-172.84396215,177.67900586,-2.88266296,12.69379715,37.83552698
-1.58950993,-0.31430403,3.06287526

>  <Name>
lig.pdb

>  <RI>
0

>  <Rbt.Current_Directory>
/home/itssahil/PROJECTS/Mol_Feturizer/New_Systems/rnas/4wcr

>  <Rbt.Executable>
rbdock ($Id: //depot/dev/client3/rdock/2013.1/src/exe/rbdock.cxx#4 $)

>  <Rbt.Library>
libRbt.so (2013.1, Build901 2013/11/27)

>  <Rbt.Parameter_File>
/export/apps/rDock/src/rDock_2013.1_src/data/scripts/dock_solv.prm

>  <Rbt.Receptor>
prm/pocket_docking_3.prm

>  <SCORE>
-1.03517

>  <SCORE.INTER>
5.27785

>  <SCORE.INTER.CONST>
1

>  <SCORE.INTER.POLAR>
0

>  <SCORE.INTER.ROT>
9

>  <SCORE.INTER.SOLV>
21.3237

>  <SCORE.INTER.VDW>
-13.1893

>  <SCORE.INTER.norm>
0.125663

>  <SCORE.INTRA>
-6.31302

>  <SCORE.INTRA.DIHEDRAL>
-11.7481

>  <SCORE.INTRA.DIHEDRAL.0>
16.2863

>  <SCORE.INTRA.POLAR>
0

>  <SCORE.INTRA.POLAR.0>
0

>  <SCORE.INTRA.REPUL>
-0.314433

>  <SCORE.INTRA.REPUL.0>
0.314433

>  <SCORE.INTRA.SOLV>
-0.355974

>  <SCORE.INTRA.SOLV.lig_0>
-103.824

>  <SCORE.INTRA.VDW>
1.31119

>  <SCORE.INTRA.VDW.0>
-5.30945

>  <SCORE.INTRA.norm>
-0.15031

>  <SCORE.RESTR>
0

>  <SCORE.RESTR.CAVITY>
0

>  <SCORE.RESTR.norm>
0

>  <SCORE.SYSTEM>
0

>  <SCORE.SYSTEM.CONST>
0

>  <SCORE.SYSTEM.DIHEDRAL>
0

>  <SCORE.SYSTEM.SOLV>
0

>  <SCORE.SYSTEM.norm>
0

>  <SCORE.heavy>
42

>  <SCORE.norm>
-0.024647

>  <RMSD>
2.390

$$$$
lig.pdb
 OpenBabel11021811513D
libRbt.so/2013.1/901 2013/11/27
 42 45  0  0  0  0  0  0  0  0999 V2000
   -1.0248   17.5767   35.0625 C   0  0  2  0  0  0  0  0  0  0  0  0
   -1.6771   17.6776   36.3668 O   0  0  0  0  0  0  0  0  0  0  0  0
    0.5126   17.9171   35.3085 C   0  0  2  0  0  0  0  0  0  0  0  0
    1.1118   16.9363   36.2177 N   0  0  0  0  0  0  0  0  0  0  0  0
    0.6260   19.4165   35.8732 C   0  0  1  0  0  0  0  0  0  0  0  0
    2.0025   19.7832   36.1043 O   0  0  0  0  0  0  0  0  0  0  0  0
   -0.0411   20.3423   34.8415 C   0  0  2  0  0  0  0  0  0  0  0  0
    0.0366   21.6495   35.2983 O   0  0  0  0  0  0  0  0  0  0  0  0
   -1.5606   19.9053   34.6212 C   0  0  2  0  0  0  0  0  0  0  0  0
   -1.6505   18.5553   34.1490 O   0  0  0  0  0  0  0  0  0  0  0  0
   -2.2539   20.7686   33.6056 C   0  0  0  0  0  0  0  0  0  0  0  0
   -1.4312   20.8090   32.4389 O   0  0  0  0  0  0  0  0  0  0  0  0
   -5.2544   15.7990   38.2234 C   0  0  2  0  0  0  0  0  0  0  0  0
   -6.6327   15.4517   38.4930 N   0  0  0  0  0  0  0  0  0  0  0  0
   -5.0668   17.3644   38.2795 C   0  0  0  0  0  0  0  0  0  0  0  0
   -3.5791   17.7680   37.9857 C   0  0  2  0  0  0  0  0  0  0  0  0
   -3.4500   19.2227   38.0400 N   0  0  0  0  0  0  0  0  0  0  0  0
   -3.0820   17.2630   36.5587 C   0  0  2  0  0  0  0  0  0  0  0  0
   -3.2379   15.7149   36.5324 C   0  0  2  0  0  0  0  0  0  0  0  0
   -2.7400   15.3197   35.1618 O   0  0  0  0  0  0  0  0  0  0  0  0
   -4.7947   15.3061   36.7708 C   0  0  1  0  0  0  0  0  0  0  0  0
   -5.0543   13.8666   36.8213 O   0  0  0  0  0  0  0  0  0  0  0  0
   -2.4317   13.9858   35.1078 C   0  0  1  0  0  0  0  0  0  0  0  0
   -2.2538   13.4911   33.7386 C   0  0  2  0  0  0  0  0  0  0  0  0
   -3.5144   13.4283   33.1523 O   0  0  0  0  0  0  0  0  0  0  0  0
   -1.4536   12.1951   33.9902 C   0  0  2  0  0  0  0  0  0  0  0  0
   -2.2587   11.1040   33.4893 O   0  0  0  0  0  0  0  0  0  0  0  0
   -1.2711   12.1386   35.4712 C   0  0  2  0  0  0  0  0  0  0  0  0
   -1.2091   13.5906   35.7074 O   0  0  0  0  0  0  0  0  0  0  0  0
    0.0928   11.4623   35.8671 C   0  0  0  0  0  0  0  0  0  0  0  0
    1.2654   12.1746   35.3705 O   0  0  0  0  0  0  0  0  0  0  0  0
   -1.6513    9.7766   33.4989 C   0  0  2  0  0  0  0  0  0  0  0  0
   -2.5732    8.7840   32.6164 C   0  0  2  0  0  0  0  0  0  0  0  0
   -3.9597    8.7630   33.1856 N   0  0  0  0  0  0  0  0  0  0  0  0
   -1.8958    7.3263   32.6291 C   0  0  1  0  0  0  0  0  0  0  0  0
   -0.5565    7.4653   32.0647 O   0  0  0  0  0  0  0  0  0  0  0  0
   -1.8339    6.7830   34.1276 C   0  0  2  0  0  0  0  0  0  0  0  0
   -3.2229    6.6564   34.6224 O   0  0  0  0  0  0  0  0  0  0  0  0
   -0.9476    7.8295   35.0116 C   0  0  1  0  0  0  0  0  0  0  0  0
   -1.5589    9.2059   34.9289 O   0  0  0  0  0  0  0  0  0  0  0  0
   -0.8803    7.3358   36.4949 C   0  0  0  0  0  0  0  0  0  0  0  0
   -0.1644    6.0305   36.6400 N   0  0  0  0  0  0  0  0  0  0  0  0
  1  3  1  0  0  0  0
  1  2  1  1  0  0  0
  3  4  1  1  0  0  0
  3  5  1  0  0  0  0
  5  6  1  6  0  0  0
  7  8  1  1  0  0  0
  7  5  1  0  0  0  0
  9 11  1  6  0  0  0
  9  7  1  0  0  0  0
 10  9  1  0  0  0  0
 10  1  1  0  0  0  0
 12 11  1  0  0  0  0
 13 14  1  6  0  0  0
 15 13  1  0  0  0  0
 16 17  1  6  0  0  0
 16 15  1  0  0  0  0
 18  2  1  1  0  0  0
 18 19  1  0  0  0  0
 18 16  1  0  0  0  0
 19 20  1  6  0  0  0
 19 21  1  0  0  0  0
 21 22  1  1  0  0  0
 21 13  1  0  0  0  0
 23 20  1  6  0  0  0
 23 29  1  0  0  0  0
 24 25  1  1  0  0  0
 24 26  1  0  0  0  0
 24 23  1  0  0  0  0
 26 27  1  1  0  0  0
 26 28  1  0  0  0  0
 28 30  1  6  0  0  0
 29 28  1  0  0  0  0
 30 31  1  0  0  0  0
 32 27  1  1  0  0  0
 32 40  1  0  0  0  0
 33 35  1  0  0  0  0
 33 32  1  0  0  0  0
 33 34  1  1  0  0  0
 35 36  1  1  0  0  0
 35 37  1  0  0  0  0
 37 38  1  1  0  0  0
 37 39  1  0  0  0  0
 39 41  1  1  0  0  0
 40 39  1  0  0  0  0
 41 42  1  0  0  0  0
M  END
>  <CHROM.1>
-172.23563711,50.92650856,-168.53607342,161.80902778,166.28001304,174.23564796
61.40062899,-167.77819886,64.27902964,-1.89739599,14.15142219,35.22622536
-1.54873820,-0.52531764,-3.01060605

>  <Name>
lig.pdb

>  <RI>
0

>  <Rbt.Current_Directory>
/home/itssahil/PROJECTS/Mol_Feturizer/New_Systems/rnas/4wcr

>  <Rbt.Executable>
rbdock ($Id: //depot/dev/client3/rdock/2013.1/src/exe/rbdock.cxx#4 $)

>  <Rbt.Library>
libRbt.so (2013.1, Build901 2013/11/27)

>  <Rbt.Parameter_File>
/export/apps/rDock/src/rDock_2013.1_src/data/scripts/dock_solv.prm

>  <Rbt.Receptor>
prm/pocket_docking_4.prm

>  <SCORE>
-9.92229

>  <SCORE.INTER>
-1.06653

>  <SCORE.INTER.CONST>
1

>  <SCORE.INTER.POLAR>
0

>  <SCORE.INTER.ROT>
9

>  <SCORE.INTER.SOLV>
21.4233

>  <SCORE.INTER.VDW>
-17.4521

>  <SCORE.INTER.norm>
-0.0253936

>  <SCORE.INTRA>
-8.85576

>  <SCORE.INTRA.DIHEDRAL>
-11.2006

>  <SCORE.INTRA.DIHEDRAL.0>
16.2863

>  <SCORE.INTRA.POLAR>
0

>  <SCORE.INTRA.POLAR.0>
0

>  <SCORE.INTRA.REPUL>
-0.314433

>  <SCORE.INTRA.REPUL.0>
0.314433

>  <SCORE.INTRA.SOLV>
-5.1081

>  <SCORE.INTRA.SOLV.lig_0>
-103.824

>  <SCORE.INTRA.VDW>
0.870748

>  <SCORE.INTRA.VDW.0>
-5.30945

>  <SCORE.INTRA.norm>
-0.210852

>  <SCORE.RESTR>
0

>  <SCORE.RESTR.CAVITY>
0

>  <SCORE.RESTR.norm>
0

>  <SCORE.SYSTEM>
0

>  <SCORE.SYSTEM.CONST>
0

>  <SCORE.SYSTEM.DIHEDRAL>
0

>  <SCORE.SYSTEM.SOLV>
0

>  <SCORE.SYSTEM.norm>
0

>  <SCORE.heavy>
42

>  <SCORE.norm>
-0.236245

>  <RMSD>
2.405

$$$$
lig.pdb
 OpenBabel11021811513D
libRbt.so/2013.1/901 2013/11/27
 42 45  0  0  0  0  0  0  0  0999 V2000
   -0.6776   15.9286   35.7689 C   0  0  2  0  0  0  0  0  0  0  0  0
   -1.6590   16.2024   36.8172 O   0  0  0  0  0  0  0  0  0  0  0  0
    0.7068   16.5193   36.2928 C   0  0  2  0  0  0  0  0  0  0  0  0
    1.1194   15.8355   37.5215 N   0  0  0  0  0  0  0  0  0  0  0  0
    0.5457   18.1033   36.5046 C   0  0  1  0  0  0  0  0  0  0  0  0
    1.7774   18.6944   36.9695 O   0  0  0  0  0  0  0  0  0  0  0  0
    0.1048   18.6996   35.1568 C   0  0  2  0  0  0  0  0  0  0  0  0
   -0.0465   20.0705   35.3030 O   0  0  0  0  0  0  0  0  0  0  0  0
   -1.2616   18.0229   34.6838 C   0  0  2  0  0  0  0  0  0  0  0  0
   -1.1144   16.6058   34.5301 O   0  0  0  0  0  0  0  0  0  0  0  0
   -1.7269   18.5583   33.3594 C   0  0  0  0  0  0  0  0  0  0  0  0
   -2.1233   19.9160   33.5572 O   0  0  0  0  0  0  0  0  0  0  0  0
   -5.6049   14.3478   37.6909 C   0  0  2  0  0  0  0  0  0  0  0  0
   -7.0154   14.0345   37.6183 N   0  0  0  0  0  0  0  0  0  0  0  0
   -5.4017   15.8998   37.8881 C   0  0  0  0  0  0  0  0  0  0  0  0
   -3.8779   16.2667   37.9655 C   0  0  2  0  0  0  0  0  0  0  0  0
   -3.7337   17.7104   38.1406 N   0  0  0  0  0  0  0  0  0  0  0  0
   -3.0791   15.8274   36.6589 C   0  0  2  0  0  0  0  0  0  0  0  0
   -3.2578   14.2898   36.4989 C   0  0  2  0  0  0  0  0  0  0  0  0
   -2.4687   13.9567   35.2543 O   0  0  0  0  0  0  0  0  0  0  0  0
   -4.8363   13.9233   36.3517 C   0  0  1  0  0  0  0  0  0  0  0  0
   -5.1312   12.4933   36.2498 O   0  0  0  0  0  0  0  0  0  0  0  0
   -2.3557   12.6021   35.0822 C   0  0  1  0  0  0  0  0  0  0  0  0
   -1.9624   12.2258   33.7202 C   0  0  2  0  0  0  0  0  0  0  0  0
   -3.0627   12.4405   32.8956 O   0  0  0  0  0  0  0  0  0  0  0  0
   -1.4345   10.7928   33.9464 C   0  0  2  0  0  0  0  0  0  0  0  0
   -2.2646    9.9129   33.1550 O   0  0  0  0  0  0  0  0  0  0  0  0
   -1.5849   10.5558   35.4129 C   0  0  2  0  0  0  0  0  0  0  0  0
   -1.3622   11.9438   35.8505 O   0  0  0  0  0  0  0  0  0  0  0  0
   -0.4526    9.6184   35.9731 C   0  0  0  0  0  0  0  0  0  0  0  0
    0.8878   10.1820   35.8509 O   0  0  0  0  0  0  0  0  0  0  0  0
   -1.8650    8.5104   33.0891 C   0  0  2  0  0  0  0  0  0  0  0  0
   -2.8020    7.7602   32.0059 C   0  0  2  0  0  0  0  0  0  0  0  0
   -4.2379    7.9088   32.4095 N   0  0  0  0  0  0  0  0  0  0  0  0
   -2.3532    6.2182   31.9368 C   0  0  1  0  0  0  0  0  0  0  0  0
   -0.9469    6.1927   31.5453 O   0  0  0  0  0  0  0  0  0  0  0  0
   -2.5642    5.5397   33.3649 C   0  0  2  0  0  0  0  0  0  0  0  0
   -4.0085    5.5915   33.6833 O   0  0  0  0  0  0  0  0  0  0  0  0
   -1.6545    6.3484   34.4513 C   0  0  1  0  0  0  0  0  0  0  0  0
   -2.0413    7.8062   34.4500 O   0  0  0  0  0  0  0  0  0  0  0  0
   -1.8509    5.7191   35.8705 C   0  0  0  0  0  0  0  0  0  0  0  0
   -1.3864    4.2993   35.9450 N   0  0  0  0  0  0  0  0  0  0  0  0
  1  3  1  0  0  0  0
  1  2  1  1  0  0  0
  3  4  1  1  0  0  0
  3  5  1  0  0  0  0
  5  6  1  6  0  0  0
  7  8  1  1  0  0  0
  7  5  1  0  0  0  0
  9 11  1  6  0  0  0
  9  7  1  0  0  0  0
 10  9  1  0  0  0  0
 10  1  1  0  0  0  0
 12 11  1  0  0  0  0
 13 14  1  6  0  0  0
 15 13  1  0  0  0  0
 16 17  1  6  0  0  0
 16 15  1  0  0  0  0
 18  2  1  1  0  0  0
 18 19  1  0  0  0  0
 18 16  1  0  0  0  0
 19 20  1  6  0  0  0
 19 21  1  0  0  0  0
 21 22  1  1  0  0  0
 21 13  1  0  0  0  0
 23 20  1  6  0  0  0
 23 29  1  0  0  0  0
 24 25  1  6  0  0  0
 24 26  1  0  0  0  0
 24 23  1  0  0  0  0
 26 27  1  6  0  0  0
 26 28  1  0  0  0  0
 28 30  1  1  0  0  0
 29 28  1  0  0  0  0
 30 31  1  0  0  0  0
 32 27  1  1  0  0  0
 32 40  1  0  0  0  0
 33 35  1  0  0  0  0
 33 32  1  0  0  0  0
 33 34  1  1  0  0  0
 35 36  1  1  0  0  0
 35 37  1  0  0  0  0
 37 38  1  1  0  0  0
 37 39  1  0  0  0  0
 39 41  1  1  0  0  0
 40 39  1  0  0  0  0
 41 42  1  0  0  0  0
M  END
>  <CHROM.1>
178.16100640,-68.76269888,-179.73396872,170.83376301,162.87123500,173.41609431
63.05841061,-172.47175558,63.02153357,-2.07752956,12.72787393,35.15846694
-1.49317137,-0.37621286,-2.90812775

>  <Name>
lig.pdb

>  <RI>
0

>  <Rbt.Current_Directory>
/home/itssahil/PROJECTS/Mol_Feturizer/New_Systems/rnas/4wcr

>  <Rbt.Executable>
rbdock ($Id: //depot/dev/client3/rdock/2013.1/src/exe/rbdock.cxx#4 $)

>  <Rbt.Library>
libRbt.so (2013.1, Build901 2013/11/27)

>  <Rbt.Parameter_File>
/export/apps/rDock/src/rDock_2013.1_src/data/scripts/dock_solv.prm

>  <Rbt.Receptor>
prm/pocket_docking_4.prm

>  <SCORE>
-11.8027

>  <SCORE.INTER>
-2.57691

>  <SCORE.INTER.CONST>
1

>  <SCORE.INTER.POLAR>
0

>  <SCORE.INTER.ROT>
9

>  <SCORE.INTER.SOLV>
15.2146

>  <SCORE.INTER.VDW>
-16.3895

>  <SCORE.INTER.norm>
-0.061355

>  <SCORE.INTRA>
-9.22576

>  <SCORE.INTRA.DIHEDRAL>
-13.1746

>  <SCORE.INTRA.DIHEDRAL.0>
16.2863

>  <SCORE.INTRA.POLAR>
0

>  <SCORE.INTRA.POLAR.0>
0

>  <SCORE.INTRA.REPUL>
-0.314433

>  <SCORE.INTRA.REPUL.0>
0.314433

>  <SCORE.INTRA.SOLV>
-5.34557

>  <SCORE.INTRA.SOLV.lig_0>
-103.824

>  <SCORE.INTRA.VDW>
1.60649

>  <SCORE.INTRA.VDW.0>
-5.30945

>  <SCORE.INTRA.norm>
-0.219661

>  <SCORE.RESTR>
0

>  <SCORE.RESTR.CAVITY>
0

>  <SCORE.RESTR.norm>
0

>  <SCORE.SYSTEM>
0

>  <SCORE.SYSTEM.CONST>
0

>  <SCORE.SYSTEM.DIHEDRAL>
0

>  <SCORE.SYSTEM.SOLV>
0

>  <SCORE.SYSTEM.norm>
0

>  <SCORE.heavy>
42

>  <SCORE.norm>
-0.281016

>  <RMSD>
2.485

$$$$
lig.pdb
 OpenBabel11021811513D
libRbt.so/2013.1/901 2013/11/27
 42 45  0  0  0  0  0  0  0  0999 V2000
   -1.7836   15.5646   35.8664 C   0  0  2  0  0  0  0  0  0  0  0  0
   -2.2973   15.9476   37.1804 O   0  0  0  0  0  0  0  0  0  0  0  0
   -0.2078   15.3988   36.0379 C   0  0  2  0  0  0  0  0  0  0  0  0
    0.0902   14.3302   36.9955 N   0  0  0  0  0  0  0  0  0  0  0  0
    0.4141   16.8092   36.4893 C   0  0  1  0  0  0  0  0  0  0  0  0
    1.8456   16.7198   36.6492 O   0  0  0  0  0  0  0  0  0  0  0  0
    0.0276   17.8408   35.4157 C   0  0  2  0  0  0  0  0  0  0  0  0
    0.5480   19.0754   35.7746 O   0  0  0  0  0  0  0  0  0  0  0  0
   -1.5611   17.9112   35.2762 C   0  0  2  0  0  0  0  0  0  0  0  0
   -2.1077   16.6394   34.9054 O   0  0  0  0  0  0  0  0  0  0  0  0
   -1.9917   18.8934   34.2240 C   0  0  0  0  0  0  0  0  0  0  0  0
   -1.4377   18.4643   32.9796 O   0  0  0  0  0  0  0  0  0  0  0  0
   -6.3498   16.0564   39.0074 C   0  0  2  0  0  0  0  0  0  0  0  0
   -7.7147   16.4466   39.2864 N   0  0  0  0  0  0  0  0  0  0  0  0
   -5.3898   17.3010   39.1427 C   0  0  0  0  0  0  0  0  0  0  0  0
   -3.9018   16.9046   38.8404 C   0  0  2  0  0  0  0  0  0  0  0  0
   -3.0486   18.0841   38.9693 N   0  0  0  0  0  0  0  0  0  0  0  0
   -3.7187   16.2979   37.3787 C   0  0  2  0  0  0  0  0  0  0  0  0
   -4.6429   15.0503   37.2733 C   0  0  2  0  0  0  0  0  0  0  0  0
   -4.4036   14.5341   35.8737 O   0  0  0  0  0  0  0  0  0  0  0  0
   -6.1924   15.4805   37.5216 C   0  0  1  0  0  0  0  0  0  0  0  0
   -7.1510   14.3747   37.5008 O   0  0  0  0  0  0  0  0  0  0  0  0
   -4.0962   13.1989   35.8796 C   0  0  1  0  0  0  0  0  0  0  0  0
   -5.2271   12.3495   36.2677 C   0  0  2  0  0  0  0  0  0  0  0  0
   -5.4213   12.5155   37.6357 O   0  0  0  0  0  0  0  0  0  0  0  0
   -4.7784   10.9811   35.7116 C   0  0  2  0  0  0  0  0  0  0  0  0
   -4.6751   10.0854   36.8415 O   0  0  0  0  0  0  0  0  0  0  0  0
   -3.4573   11.2437   35.0670 C   0  0  2  0  0  0  0  0  0  0  0  0
   -3.7311   12.6246   34.6356 O   0  0  0  0  0  0  0  0  0  0  0  0
   -3.2219   10.3178   33.8173 C   0  0  0  0  0  0  0  0  0  0  0  0
   -4.1707   10.5462   32.7324 O   0  0  0  0  0  0  0  0  0  0  0  0
   -4.3333    8.6958   36.5534 C   0  0  2  0  0  0  0  0  0  0  0  0
   -4.6356    7.8091   37.8713 C   0  0  2  0  0  0  0  0  0  0  0  0
   -3.8398    8.3485   39.0213 N   0  0  0  0  0  0  0  0  0  0  0  0
   -4.2603    6.2806   37.5446 C   0  0  1  0  0  0  0  0  0  0  0  0
   -5.0827    5.8644   36.4122 O   0  0  0  0  0  0  0  0  0  0  0  0
   -2.7074    6.1787   37.1946 C   0  0  2  0  0  0  0  0  0  0  0  0
   -1.9440    6.6014   38.3899 O   0  0  0  0  0  0  0  0  0  0  0  0
   -2.4151    7.1254   35.8984 C   0  0  1  0  0  0  0  0  0  0  0  0
   -2.8400    8.5409   36.1995 O   0  0  0  0  0  0  0  0  0  0  0  0
   -0.8939    7.0632   35.5369 C   0  0  0  0  0  0  0  0  0  0  0  0
   -0.5535    7.8630   34.3197 N   0  0  0  0  0  0  0  0  0  0  0  0
  1  3  1  0  0  0  0
  1  2  1  1  0  0  0
  3  4  1  1  0  0  0
  3  5  1  0  0  0  0
  5  6  1  6  0  0  0
  7  8  1  1  0  0  0
  7  5  1  0  0  0  0
  9 11  1  6  0  0  0
  9  7  1  0  0  0  0
 10  9  1  0  0  0  0
 10  1  1  0  0  0  0
 12 11  1  0  0  0  0
 13 14  1  6  0  0  0
 15 13  1  0  0  0  0
 16 17  1  6  0  0  0
 16 15  1  0  0  0  0
 18  2  1  1  0  0  0
 18 19  1  0  0  0  0
 18 16  1  0  0  0  0
 19 20  1  6  0  0  0
 19 21  1  0  0  0  0
 21 22  1  1  0  0  0
 21 13  1  0  0  0  0
 23 20  1  6  0  0  0
 23 29  1  0  0  0  0
 24 25  1  1  0  0  0
 24 26  1  0  0  0  0
 24 23  1  0  0  0  0
 26 27  1  1  0  0  0
 26 28  1  0  0  0  0
 28 30  1  6  0  0  0
 29 28  1  0  0  0  0
 30 31  1  0  0  0  0
 32 27  1  1  0  0  0
 32 40  1  0  0  0  0
 33 35  1  0  0  0  0
 33 32  1  0  0  0  0
 33 34  1  1  0  0  0
 35 36  1  6  0  0  0
 35 37  1  0  0  0  0
 37 38  1  1  0  0  0
 37 39  1  0  0  0  0
 39 41  1  1  0  0  0
 40 39  1  0  0  0  0
 41 42  1  0  0  0  0
M  END
>  <CHROM.1>
174.90928888,60.37453022,-170.29372242,128.24772484,68.60397252,176.68597282
63.76087431,-165.81270728,177.60604683,-3.16177653,13.05683303,36.44897388
-1.41931439,-0.48486741,-3.08407865

>  <Name>
lig.pdb

>  <RI>
0

>  <Rbt.Current_Directory>
/home/itssahil/PROJECTS/Mol_Feturizer/New_Systems/rnas/4wcr

>  <Rbt.Executable>
rbdock ($Id: //depot/dev/client3/rdock/2013.1/src/exe/rbdock.cxx#4 $)

>  <Rbt.Library>
libRbt.so (2013.1, Build901 2013/11/27)

>  <Rbt.Parameter_File>
/export/apps/rDock/src/rDock_2013.1_src/data/scripts/dock_solv.prm

>  <Rbt.Receptor>
prm/pocket_docking_5.prm

>  <SCORE>
-7.6251

>  <SCORE.INTER>
-2.5857

>  <SCORE.INTER.CONST>
1

>  <SCORE.INTER.POLAR>
0

>  <SCORE.INTER.ROT>
9

>  <SCORE.INTER.SOLV>
18.7048

>  <SCORE.INTER.VDW>
-17.5587

>  <SCORE.INTER.norm>
-0.0615643

>  <SCORE.INTRA>
-5.0394

>  <SCORE.INTRA.DIHEDRAL>
-6.88294

>  <SCORE.INTRA.DIHEDRAL.0>
16.2863

>  <SCORE.INTRA.POLAR>
0

>  <SCORE.INTRA.POLAR.0>
0

>  <SCORE.INTRA.REPUL>
-0.314433

>  <SCORE.INTRA.REPUL.0>
0.314433

>  <SCORE.INTRA.SOLV>
-3.95518

>  <SCORE.INTRA.SOLV.lig_0>
-103.824

>  <SCORE.INTRA.VDW>
1.95183

>  <SCORE.INTRA.VDW.0>
-5.30945

>  <SCORE.INTRA.norm>
-0.119986

>  <SCORE.RESTR>
0

>  <SCORE.RESTR.CAVITY>
0

>  <SCORE.RESTR.norm>
0

>  <SCORE.SYSTEM>
0

>  <SCORE.SYSTEM.CONST>
0

>  <SCORE.SYSTEM.DIHEDRAL>
0

>  <SCORE.SYSTEM.SOLV>
0

>  <SCORE.SYSTEM.norm>
0

>  <SCORE.heavy>
42

>  <SCORE.norm>
-0.18155

>  <RMSD>
2.495

$$$$
lig.pdb
 OpenBabel11021811513D
libRbt.so/2013.1/901 2013/11/27
 42 45  0  0  0  0  0  0  0  0999 V2000
   -3.2841   17.3682   37.7375 C   0  0  2  0  0  0  0  0  0  0  0  0
   -4.4352   17.2001   36.8522 O   0  0  0  0  0  0  0  0  0  0  0  0
   -2.6079   18.7518   37.3272 C   0  0  2  0  0  0  0  0  0  0  0  0
   -3.5423   19.8594   37.5456 N   0  0  0  0  0  0  0  0  0  0  0  0
   -2.1252   18.6576   35.7982 C   0  0  1  0  0  0  0  0  0  0  0  0
   -1.4929   19.8840   35.3752 O   0  0  0  0  0  0  0  0  0  0  0  0
   -1.1636   17.4611   35.6980 C   0  0  2  0  0  0  0  0  0  0  0  0
   -0.7266   17.3477   34.3866 O   0  0  0  0  0  0  0  0  0  0  0  0
   -1.9041   16.1275   36.1689 C   0  0  2  0  0  0  0  0  0  0  0  0
   -2.3593   16.2357   37.5234 O   0  0  0  0  0  0  0  0  0  0  0  0
   -1.0001   14.9291   36.1080 C   0  0  0  0  0  0  0  0  0  0  0  0
    0.0759   15.1525   37.0201 O   0  0  0  0  0  0  0  0  0  0  0  0
   -7.2656   15.0533   39.5267 C   0  0  2  0  0  0  0  0  0  0  0  0
   -8.4863   14.4764   40.0464 N   0  0  0  0  0  0  0  0  0  0  0  0
   -7.4738   16.5881   39.2268 C   0  0  0  0  0  0  0  0  0  0  0  0
   -6.1636   17.2372   38.6571 C   0  0  2  0  0  0  0  0  0  0  0  0
   -6.4006   18.6537   38.3866 N   0  0  0  0  0  0  0  0  0  0  0  0
   -5.6708   16.5353   37.3144 C   0  0  2  0  0  0  0  0  0  0  0  0
   -5.4341   15.0311   37.6352 C   0  0  2  0  0  0  0  0  0  0  0  0
   -4.9636   14.4463   36.3240 O   0  0  0  0  0  0  0  0  0  0  0  0
   -6.8139   14.3483   38.1618 C   0  0  1  0  0  0  0  0  0  0  0  0
   -6.6983   12.9413   38.5481 O   0  0  0  0  0  0  0  0  0  0  0  0
   -4.4544   13.1856   36.4934 C   0  0  1  0  0  0  0  0  0  0  0  0
   -3.9331   12.6038   35.2520 C   0  0  2  0  0  0  0  0  0  0  0  0
   -5.0264   12.2722   34.4573 O   0  0  0  0  0  0  0  0  0  0  0  0
   -3.0148   11.4928   35.8047 C   0  0  2  0  0  0  0  0  0  0  0  0
   -3.5301   10.2384   35.3043 O   0  0  0  0  0  0  0  0  0  0  0  0
   -3.1270   11.6060   37.2894 C   0  0  2  0  0  0  0  0  0  0  0  0
   -3.3319   13.0627   37.3509 O   0  0  0  0  0  0  0  0  0  0  0  0
   -1.7847   11.2126   38.0091 C   0  0  0  0  0  0  0  0  0  0  0  0
   -1.9171   10.0760   38.9145 O   0  0  0  0  0  0  0  0  0  0  0  0
   -2.6446    9.0808   35.3868 C   0  0  2  0  0  0  0  0  0  0  0  0
   -3.2412    7.9101   34.4446 C   0  0  2  0  0  0  0  0  0  0  0  0
   -4.6319    7.5770   34.8935 N   0  0  0  0  0  0  0  0  0  0  0  0
   -2.2588    6.6412   34.5382 C   0  0  1  0  0  0  0  0  0  0  0  0
   -0.9407    7.0788   34.0881 O   0  0  0  0  0  0  0  0  0  0  0  0
   -2.2074    6.1201   36.0449 C   0  0  2  0  0  0  0  0  0  0  0  0
   -3.5705    5.6837   36.4211 O   0  0  0  0  0  0  0  0  0  0  0  0
   -1.6576    7.3352   36.9847 C   0  0  1  0  0  0  0  0  0  0  0  0
   -2.5515    8.5399   36.8283 O   0  0  0  0  0  0  0  0  0  0  0  0
   -1.6107    6.8636   38.4759 C   0  0  0  0  0  0  0  0  0  0  0  0
   -2.9606    6.5131   39.0165 N   0  0  0  0  0  0  0  0  0  0  0  0
  1  3  1  0  0  0  0
  1  2  1  6  0  0  0
  3  4  1  6  0  0  0
  3  5  1  0  0  0  0
  5  6  1  1  0  0  0
  7  8  1  6  0  0  0
  7  5  1  0  0  0  0
  9 11  1  1  0  0  0
  9  7  1  0  0  0  0
 10  9  1  0  0  0  0
 10  1  1  0  0  0  0
 12 11  1  0  0  0  0
 13 14  1  6  0  0  0
 15 13  1  0  0  0  0
 16 17  1  6  0  0  0
 16 15  1  0  0  0  0
 18  2  1  1  0  0  0
 18 19  1  0  0  0  0
 18 16  1  0  0  0  0
 19 20  1  6  0  0  0
 19 21  1  0  0  0  0
 21 22  1  1  0  0  0
 21 13  1  0  0  0  0
 23 20  1  6  0  0  0
 23 29  1  0  0  0  0
 24 25  1  6  0  0  0
 24 26  1  0  0  0  0
 24 23  1  0  0  0  0
 26 27  1  6  0  0  0
 26 28  1  0  0  0  0
 28 30  1  1  0  0  0
 29 28  1  0  0  0  0
 30 31  1  0  0  0  0
 32 27  1  1  0  0  0
 32 40  1  0  0  0  0
 33 35  1  0  0  0  0
 33 32  1  0  0  0  0
 33 34  1  1  0  0  0
 35 36  1  1  0  0  0
 35 37  1  0  0  0  0
 37 38  1  1  0  0  0
 37 39  1  0  0  0  0
 39 41  1  1  0  0  0
 40 39  1  0  0  0  0
 41 42  1  0  0  0  0
M  END
>  <CHROM.1>
-146.19335634,62.68478712,52.97119095,167.81026650,-177.53381004,164.10948689
-119.25679684,-165.29890221,-62.55981183,-3.50191964,13.06382634,36.82704973
-1.71772346,-0.51252622,-3.11725550

>  <Name>
lig.pdb

>  <RI>
0

>  <Rbt.Current_Directory>
/home/itssahil/PROJECTS/Mol_Feturizer/New_Systems/rnas/4wcr

>  <Rbt.Executable>
rbdock ($Id: //depot/dev/client3/rdock/2013.1/src/exe/rbdock.cxx#4 $)

>  <Rbt.Library>
libRbt.so (2013.1, Build901 2013/11/27)

>  <Rbt.Parameter_File>
/export/apps/rDock/src/rDock_2013.1_src/data/scripts/dock_solv.prm

>  <Rbt.Receptor>
prm/pocket_docking_2.prm

>  <SCORE>
3.23458

>  <SCORE.INTER>
6.68478

>  <SCORE.INTER.CONST>
1

>  <SCORE.INTER.POLAR>
0

>  <SCORE.INTER.ROT>
9

>  <SCORE.INTER.SOLV>
23.1006

>  <SCORE.INTER.VDW>
-12.8437

>  <SCORE.INTER.norm>
0.159161

>  <SCORE.INTRA>
-4.31637

>  <SCORE.INTRA.DIHEDRAL>
-3.74386

>  <SCORE.INTRA.DIHEDRAL.0>
16.2863

>  <SCORE.INTRA.POLAR>
0

>  <SCORE.INTRA.POLAR.0>
0

>  <SCORE.INTRA.REPUL>
-0.314433

>  <SCORE.INTRA.REPUL.0>
0.314433

>  <SCORE.INTRA.SOLV>
0.0882139

>  <SCORE.INTRA.SOLV.lig_0>
-103.824

>  <SCORE.INTRA.VDW>
-0.916386

>  <SCORE.INTRA.VDW.0>
-5.30945

>  <SCORE.INTRA.norm>
-0.102771

>  <SCORE.RESTR>
0.866178

>  <SCORE.RESTR.CAVITY>
0.866178

>  <SCORE.RESTR.norm>
0.0206233

>  <SCORE.SYSTEM>
0

>  <SCORE.SYSTEM.CONST>
0

>  <SCORE.SYSTEM.DIHEDRAL>
0

>  <SCORE.SYSTEM.SOLV>
0

>  <SCORE.SYSTEM.norm>
0

>  <SCORE.heavy>
42

>  <SCORE.norm>
0.0770139

>  <RMSD>
2.532

$$$$
lig.pdb
 OpenBabel11021811513D
libRbt.so/2013.1/901 2013/11/27
 42 45  0  0  0  0  0  0  0  0999 V2000
   -2.3010   17.7876   37.7795 C   0  0  2  0  0  0  0  0  0  0  0  0
   -2.9282   16.5872   38.3298 O   0  0  0  0  0  0  0  0  0  0  0  0
   -2.5324   17.7258   36.2039 C   0  0  2  0  0  0  0  0  0  0  0  0
   -3.9655   17.7547   35.8986 N   0  0  0  0  0  0  0  0  0  0  0  0
   -1.8157   16.4091   35.6275 C   0  0  1  0  0  0  0  0  0  0  0  0
   -1.9843   16.3079   34.1978 O   0  0  0  0  0  0  0  0  0  0  0  0
   -0.3301   16.4925   36.0180 C   0  0  2  0  0  0  0  0  0  0  0  0
    0.3222   15.3671   35.5367 O   0  0  0  0  0  0  0  0  0  0  0  0
   -0.1899   16.5970   37.6048 C   0  0  2  0  0  0  0  0  0  0  0  0
   -0.8612   17.7575   38.1110 O   0  0  0  0  0  0  0  0  0  0  0  0
    1.2448   16.7004   38.0384 C   0  0  0  0  0  0  0  0  0  0  0  0
    1.7803   17.9000   37.4784 O   0  0  0  0  0  0  0  0  0  0  0  0
   -7.0536   15.5000   39.5835 C   0  0  2  0  0  0  0  0  0  0  0  0
   -8.4944   15.3693   39.5814 N   0  0  0  0  0  0  0  0  0  0  0  0
   -6.6448   17.0176   39.4467 C   0  0  0  0  0  0  0  0  0  0  0  0
   -5.0846   17.1862   39.4420 C   0  0  2  0  0  0  0  0  0  0  0  0
   -4.7490   18.6021   39.3067 N   0  0  0  0  0  0  0  0  0  0  0  0
   -4.3890   16.3799   38.2570 C   0  0  2  0  0  0  0  0  0  0  0  0
   -4.7706   14.8809   38.4270 C   0  0  2  0  0  0  0  0  0  0  0  0
   -4.0690   14.1917   37.2801 O   0  0  0  0  0  0  0  0  0  0  0  0
   -6.3870   14.7053   38.3636 C   0  0  1  0  0  0  0  0  0  0  0  0
   -6.8680   13.3381   38.5678 O   0  0  0  0  0  0  0  0  0  0  0  0
   -3.8689   12.8621   37.5434 C   0  0  1  0  0  0  0  0  0  0  0  0
   -3.4403   12.1002   36.3657 C   0  0  2  0  0  0  0  0  0  0  0  0
   -4.5444   11.9738   35.5280 O   0  0  0  0  0  0  0  0  0  0  0  0
   -2.8249   10.8483   37.0268 C   0  0  2  0  0  0  0  0  0  0  0  0
   -3.5905    9.7131   36.5634 O   0  0  0  0  0  0  0  0  0  0  0  0
   -2.9734   11.0778   38.4948 C   0  0  2  0  0  0  0  0  0  0  0  0
   -2.8429   12.5441   38.4689 O   0  0  0  0  0  0  0  0  0  0  0  0
   -1.7892   10.4386   39.3094 C   0  0  0  0  0  0  0  0  0  0  0  0
   -1.6498    9.0000   39.1086 O   0  0  0  0  0  0  0  0  0  0  0  0
   -2.8419    8.5083   36.2183 C   0  0  2  0  0  0  0  0  0  0  0  0
   -2.6970    8.4374   34.6095 C   0  0  2  0  0  0  0  0  0  0  0  0
   -4.0624    8.4374   33.9913 N   0  0  0  0  0  0  0  0  0  0  0  0
   -1.8687    7.1106   34.2384 C   0  0  1  0  0  0  0  0  0  0  0  0
   -0.5686    7.2130   34.8946 O   0  0  0  0  0  0  0  0  0  0  0  0
   -2.6683    5.8268   34.7452 C   0  0  2  0  0  0  0  0  0  0  0  0
   -3.9621    5.7853   34.0278 O   0  0  0  0  0  0  0  0  0  0  0  0
   -2.8528    5.9483   36.3618 C   0  0  1  0  0  0  0  0  0  0  0  0
   -3.5684    7.2336   36.6943 O   0  0  0  0  0  0  0  0  0  0  0  0
   -3.6505    4.7109   36.8921 C   0  0  0  0  0  0  0  0  0  0  0  0
   -5.0617    4.6749   36.3976 N   0  0  0  0  0  0  0  0  0  0  0  0
  1  3  1  0  0  0  0
  1  2  1  1  0  0  0
  3  4  1  1  0  0  0
  3  5  1  0  0  0  0
  5  6  1  6  0  0  0
  7  8  1  1  0  0  0
  7  5  1  0  0  0  0
  9 11  1  6  0  0  0
  9  7  1  0  0  0  0
 10  9  1  0  0  0  0
 10  1  1  0  0  0  0
 12 11  1  0  0  0  0
 13 14  1  6  0  0  0
 15 13  1  0  0  0  0
 16 17  1  6  0  0  0
 16 15  1  0  0  0  0
 18  2  1  1  0  0  0
 18 19  1  0  0  0  0
 18 16  1  0  0  0  0
 19 20  1  6  0  0  0
 19 21  1  0  0  0  0
 21 22  1  1  0  0  0
 21 13  1  0  0  0  0
 23 20  1  6  0  0  0
 23 29  1  0  0  0  0
 24 25  1  6  0  0  0
 24 26  1  0  0  0  0
 24 23  1  0  0  0  0
 26 27  1  6  0  0  0
 26 28  1  0  0  0  0
 28 30  1  1  0  0  0
 29 28  1  0  0  0  0
 30 31  1  0  0  0  0
 32 27  1  6  0  0  0
 32 40  1  0  0  0  0
 33 35  1  0  0  0  0
 33 32  1  0  0  0  0
 33 34  1  6  0  0  0
 35 36  1  1  0  0  0
 35 37  1  0  0  0  0
 37 38  1  6  0  0  0
 37 39  1  0  0  0  0
 39 41  1  6  0  0  0
 40 39  1  0  0  0  0
 41 42  1  0  0  0  0
M  END
>  <CHROM.1>
-65.30016271,61.94766803,-81.66542361,157.00526510,168.45611424,138.74654046
-58.40087996,-101.06961876,-66.06132045,-3.14471098,12.71945954,37.04963641
-1.54754273,-0.38937782,-2.93811074

>  <Name>
lig.pdb

>  <RI>
0

>  <Rbt.Current_Directory>
/home/itssahil/PROJECTS/Mol_Feturizer/New_Systems/rnas/4wcr

>  <Rbt.Executable>
rbdock ($Id: //depot/dev/client3/rdock/2013.1/src/exe/rbdock.cxx#4 $)

>  <Rbt.Library>
libRbt.so (2013.1, Build901 2013/11/27)

>  <Rbt.Parameter_File>
/export/apps/rDock/src/rDock_2013.1_src/data/scripts/dock_solv.prm

>  <Rbt.Receptor>
prm/pocket_docking_2.prm

>  <SCORE>
7.26861

>  <SCORE.INTER>
6.92596

>  <SCORE.INTER.CONST>
1

>  <SCORE.INTER.POLAR>
0

>  <SCORE.INTER.ROT>
9

>  <SCORE.INTER.SOLV>
20.5134

>  <SCORE.INTER.VDW>
-11.8205

>  <SCORE.INTER.norm>
0.164904

>  <SCORE.INTRA>
-0.308347

>  <SCORE.INTRA.DIHEDRAL>
0.583107

>  <SCORE.INTRA.DIHEDRAL.0>
16.2863

>  <SCORE.INTRA.POLAR>
0

>  <SCORE.INTRA.POLAR.0>
0

>  <SCORE.INTRA.REPUL>
-0.271206

>  <SCORE.INTRA.REPUL.0>
0.314433

>  <SCORE.INTRA.SOLV>
0.393704

>  <SCORE.INTRA.SOLV.lig_0>
-103.824

>  <SCORE.INTRA.VDW>
0.559276

>  <SCORE.INTRA.VDW.0>
-5.30945

>  <SCORE.INTRA.norm>
-0.0073416

>  <SCORE.RESTR>
0.650994

>  <SCORE.RESTR.CAVITY>
0.650994

>  <SCORE.RESTR.norm>
0.0154999

>  <SCORE.SYSTEM>
0

>  <SCORE.SYSTEM.CONST>
0

>  <SCORE.SYSTEM.DIHEDRAL>
0

>  <SCORE.SYSTEM.SOLV>
0

>  <SCORE.SYSTEM.norm>
0

>  <SCORE.heavy>
42

>  <SCORE.norm>
0.173062

>  <RMSD>
2.603

$$$$
lig.pdb
 OpenBabel11021811513D
libRbt.so/2013.1/901 2013/11/27
 42 45  0  0  0  0  0  0  0  0999 V2000
   -0.0932   16.3886   36.1638 C   0  0  2  0  0  0  0  0  0  0  0  0
   -0.7481   16.6463   37.4451 O   0  0  0  0  0  0  0  0  0  0  0  0
    1.2122   17.3027   36.1416 C   0  0  2  0  0  0  0  0  0  0  0  0
    2.1203   16.9193   37.2261 N   0  0  0  0  0  0  0  0  0  0  0  0
    0.7664   18.8426   36.2393 C   0  0  1  0  0  0  0  0  0  0  0  0
    1.9125   19.7192   36.2120 O   0  0  0  0  0  0  0  0  0  0  0  0
   -0.1839   19.1163   35.0609 C   0  0  2  0  0  0  0  0  0  0  0  0
   -0.5919   20.4408   35.1144 O   0  0  0  0  0  0  0  0  0  0  0  0
   -1.4376   18.1307   35.1333 C   0  0  2  0  0  0  0  0  0  0  0  0
   -1.0252   16.7594   35.0786 O   0  0  0  0  0  0  0  0  0  0  0  0
   -2.3896   18.3447   33.9909 C   0  0  0  0  0  0  0  0  0  0  0  0
   -1.7049   17.9972   32.7867 O   0  0  0  0  0  0  0  0  0  0  0  0
   -3.7783   14.4782   39.8720 C   0  0  2  0  0  0  0  0  0  0  0  0
   -5.0376   13.9041   40.2934 N   0  0  0  0  0  0  0  0  0  0  0  0
   -3.9512   16.0204   39.5885 C   0  0  0  0  0  0  0  0  0  0  0  0
   -2.5985   16.6668   39.1249 C   0  0  2  0  0  0  0  0  0  0  0  0
   -2.8032   18.0905   38.8666 N   0  0  0  0  0  0  0  0  0  0  0  0
   -2.0190   15.9855   37.8064 C   0  0  2  0  0  0  0  0  0  0  0  0
   -1.8188   14.4731   38.1133 C   0  0  2  0  0  0  0  0  0  0  0  0
   -1.2626   13.9087   36.8269 O   0  0  0  0  0  0  0  0  0  0  0  0
   -3.2382   13.7947   38.5283 C   0  0  1  0  0  0  0  0  0  0  0  0
   -3.1627   12.3795   38.8940 O   0  0  0  0  0  0  0  0  0  0  0  0
   -0.9172   12.5903   36.9681 C   0  0  1  0  0  0  0  0  0  0  0  0
   -0.3092   12.0221   35.7603 C   0  0  2  0  0  0  0  0  0  0  0  0
   -1.3228   11.8631   34.8201 O   0  0  0  0  0  0  0  0  0  0  0  0
    0.4075   10.7839   36.3403 C   0  0  2  0  0  0  0  0  0  0  0  0
   -0.1724    9.6268   35.6965 O   0  0  0  0  0  0  0  0  0  0  0  0
    0.1219   10.8267   37.8053 C   0  0  2  0  0  0  0  0  0  0  0  0
    0.0685   12.2917   37.9426 O   0  0  0  0  0  0  0  0  0  0  0  0
    1.3128   10.2421   38.6507 C   0  0  0  0  0  0  0  0  0  0  0  0
    2.5842   10.9190   38.4172 O   0  0  0  0  0  0  0  0  0  0  0  0
    0.1662    8.3213   36.2551 C   0  0  2  0  0  0  0  0  0  0  0  0
   -0.2367    7.1829   35.1801 C   0  0  2  0  0  0  0  0  0  0  0  0
   -1.6997    7.2913   34.8724 N   0  0  0  0  0  0  0  0  0  0  0  0
    0.1426    5.7496   35.8011 C   0  0  1  0  0  0  0  0  0  0  0  0
    1.5781    5.7583   36.0675 O   0  0  0  0  0  0  0  0  0  0  0  0
   -0.6888    5.5156   37.1421 C   0  0  2  0  0  0  0  0  0  0  0  0
   -2.1260    5.5057   36.7893 O   0  0  0  0  0  0  0  0  0  0  0  0
   -0.3098    6.7075   38.1898 C   0  0  1  0  0  0  0  0  0  0  0  0
   -0.6059    8.0464   37.5618 O   0  0  0  0  0  0  0  0  0  0  0  0
   -1.1226    6.5189   39.5136 C   0  0  0  0  0  0  0  0  0  0  0  0
   -0.8268    7.5742   40.5315 N   0  0  0  0  0  0  0  0  0  0  0  0
  1  3  1  0  0  0  0
  1  2  1  1  0  0  0
  3  4  1  1  0  0  0
  3  5  1  0  0  0  0
  5  6  1  6  0  0  0
  7  8  1  1  0  0  0
  7  5  1  0  0  0  0
  9 11  1  6  0  0  0
  9  7  1  0  0  0  0
 10  9  1  0  0  0  0
 10  1  1  0  0  0  0
 12 11  1  0  0  0  0
 13 14  1  6  0  0  0
 15 13  1  0  0  0  0
 16 17  1  6  0  0  0
 16 15  1  0  0  0  0
 18  2  1  1  0  0  0
 18 19  1  0  0  0  0
 18 16  1  0  0  0  0
 19 20  1  6  0  0  0
 19 21  1  0  0  0  0
 21 22  1  1  0  0  0
 21 13  1  0  0  0  0
 23 20  1  6  0  0  0
 23 29  1  0  0  0  0
 24 25  1  6  0  0  0
 24 26  1  0  0  0  0
 24 23  1  0  0  0  0
 26 27  1  6  0  0  0
 26 28  1  0  0  0  0
 28 30  1  1  0  0  0
 29 28  1  0  0  0  0
 30 31  1  0  0  0  0
 32 27  1  6  0  0  0
 32 40  1  0  0  0  0
 33 35  1  0  0  0  0
 33 32  1  0  0  0  0
 33 34  1  1  0  0  0
 35 36  1  1  0  0  0
 35 37  1  0  0  0  0
 37 38  1  6  0  0  0
 37 39  1  0  0  0  0
 39 41  1  1  0  0  0
 40 39  1  0  0  0  0
 41 42  1  0  0  0  0
M  END
>  <CHROM.1>
178.73367941,64.65787871,-169.83275415,174.67607062,-177.07990103,-169.00167859
57.28673505,-164.79891678,179.82464207,-0.83664820,12.90096376,36.99359987
-1.64515558,-0.85962442,2.99947261

>  <Name>
lig.pdb

>  <RI>
0

>  <Rbt.Current_Directory>
/home/itssahil/PROJECTS/Mol_Feturizer/New_Systems/rnas/4wcr

>  <Rbt.Executable>
rbdock ($Id: //depot/dev/client3/rdock/2013.1/src/exe/rbdock.cxx#4 $)

>  <Rbt.Library>
libRbt.so (2013.1, Build901 2013/11/27)

>  <Rbt.Parameter_File>
/export/apps/rDock/src/rDock_2013.1_src/data/scripts/dock_solv.prm

>  <Rbt.Receptor>
prm/pocket_docking_5.prm

>  <SCORE>
-9.21211

>  <SCORE.INTER>
0.0546064

>  <SCORE.INTER.CONST>
1

>  <SCORE.INTER.POLAR>
0

>  <SCORE.INTER.ROT>
9

>  <SCORE.INTER.SOLV>
19.6025

>  <SCORE.INTER.VDW>
-16.0978

>  <SCORE.INTER.norm>
0.00130015

>  <SCORE.INTRA>
-9.26672

>  <SCORE.INTRA.DIHEDRAL>
-13.2906

>  <SCORE.INTRA.DIHEDRAL.0>
16.2863

>  <SCORE.INTRA.POLAR>
0

>  <SCORE.INTRA.POLAR.0>
0

>  <SCORE.INTRA.REPUL>
-0.314433

>  <SCORE.INTRA.REPUL.0>
0.314433

>  <SCORE.INTRA.SOLV>
-4.81722

>  <SCORE.INTRA.SOLV.lig_0>
-103.824

>  <SCORE.INTRA.VDW>
1.35937

>  <SCORE.INTRA.VDW.0>
-5.30945

>  <SCORE.INTRA.norm>
-0.220636

>  <SCORE.RESTR>
0

>  <SCORE.RESTR.CAVITY>
0

>  <SCORE.RESTR.norm>
0

>  <SCORE.SYSTEM>
0

>  <SCORE.SYSTEM.CONST>
0

>  <SCORE.SYSTEM.DIHEDRAL>
0

>  <SCORE.SYSTEM.SOLV>
0

>  <SCORE.SYSTEM.norm>
0

>  <SCORE.heavy>
42

>  <SCORE.norm>
-0.219336

>  <RMSD>
2.628

$$$$
lig.pdb
 OpenBabel11021811513D
libRbt.so/2013.1/901 2013/11/27
 42 45  0  0  0  0  0  0  0  0999 V2000
   -0.0437   17.0631   35.8768 C   0  0  2  0  0  0  0  0  0  0  0  0
   -0.8751   17.4164   37.0262 O   0  0  0  0  0  0  0  0  0  0  0  0
    1.2922   17.9210   36.0160 C   0  0  2  0  0  0  0  0  0  0  0  0
    2.0025   17.5606   37.2462 N   0  0  0  0  0  0  0  0  0  0  0  0
    0.9119   19.4808   35.9696 C   0  0  1  0  0  0  0  0  0  0  0  0
    2.0896   20.3074   36.0806 O   0  0  0  0  0  0  0  0  0  0  0  0
    0.1692   19.7283   34.6453 C   0  0  2  0  0  0  0  0  0  0  0  0
   -0.1775   21.0692   34.5715 O   0  0  0  0  0  0  0  0  0  0  0  0
   -1.1270   18.7997   34.5671 C   0  0  2  0  0  0  0  0  0  0  0  0
   -0.7780   17.4118   34.6427 O   0  0  0  0  0  0  0  0  0  0  0  0
   -1.8798   18.9897   33.2809 C   0  0  0  0  0  0  0  0  0  0  0  0
   -2.3936   20.3222   33.2735 O   0  0  0  0  0  0  0  0  0  0  0  0
   -4.0214   15.1267   39.1782 C   0  0  2  0  0  0  0  0  0  0  0  0
   -5.2983   14.5286   39.5018 N   0  0  0  0  0  0  0  0  0  0  0  0
   -4.1885   16.6796   38.9561 C   0  0  0  0  0  0  0  0  0  0  0  0
   -2.8164   17.3521   38.5989 C   0  0  2  0  0  0  0  0  0  0  0  0
   -3.0160   18.7854   38.3946 N   0  0  0  0  0  0  0  0  0  0  0  0
   -2.1597   16.7345   37.2852 C   0  0  2  0  0  0  0  0  0  0  0  0
   -1.9668   15.2104   37.5336 C   0  0  2  0  0  0  0  0  0  0  0  0
   -1.3360   14.7079   36.2560 O   0  0  0  0  0  0  0  0  0  0  0  0
   -3.4026   14.5078   37.8371 C   0  0  1  0  0  0  0  0  0  0  0  0
   -3.3381   13.0776   38.1416 O   0  0  0  0  0  0  0  0  0  0  0  0
   -0.8531   13.4343   36.4047 C   0  0  1  0  0  0  0  0  0  0  0  0
   -0.4822   12.8071   35.1318 C   0  0  2  0  0  0  0  0  0  0  0  0
   -1.6621   12.4961   34.4625 O   0  0  0  0  0  0  0  0  0  0  0  0
    0.4520   11.6775   35.6158 C   0  0  2  0  0  0  0  0  0  0  0  0
   -0.1526   10.4309   35.2036 O   0  0  0  0  0  0  0  0  0  0  0  0
    0.4979   11.8277   37.1007 C   0  0  2  0  0  0  0  0  0  0  0  0
    0.3477   13.2916   37.1453 O   0  0  0  0  0  0  0  0  0  0  0  0
    1.8941   11.4040   37.6886 C   0  0  0  0  0  0  0  0  0  0  0  0
    1.9519   11.4430   39.1461 O   0  0  0  0  0  0  0  0  0  0  0  0
    0.5020    9.2023   35.6431 C   0  0  2  0  0  0  0  0  0  0  0  0
   -0.2531    7.9461   34.9606 C   0  0  2  0  0  0  0  0  0  0  0  0
   -1.7008    7.9715   35.3478 N   0  0  0  0  0  0  0  0  0  0  0  0
    0.4758    6.5982   35.4464 C   0  0  1  0  0  0  0  0  0  0  0  0
    1.8714    6.6840   35.0262 O   0  0  0  0  0  0  0  0  0  0  0  0
    0.3603    6.4748   37.0326 C   0  0  2  0  0  0  0  0  0  0  0  0
   -1.0758    6.3789   37.3770 O   0  0  0  0  0  0  0  0  0  0  0  0
    1.0775    7.7806   37.6977 C   0  0  1  0  0  0  0  0  0  0  0  0
    0.4268    9.0367   37.1748 O   0  0  0  0  0  0  0  0  0  0  0  0
    0.9673    7.7011   39.2566 C   0  0  0  0  0  0  0  0  0  0  0  0
   -0.4486    7.6985   39.7389 N   0  0  0  0  0  0  0  0  0  0  0  0
  1  3  1  0  0  0  0
  1  2  1  1  0  0  0
  3  4  1  1  0  0  0
  3  5  1  0  0  0  0
  5  6  1  6  0  0  0
  7  8  1  1  0  0  0
  7  5  1  0  0  0  0
  9 11  1  6  0  0  0
  9  7  1  0  0  0  0
 10  9  1  0  0  0  0
 10  1  1  0  0  0  0
 12 11  1  0  0  0  0
 13 14  1  6  0  0  0
 15 13  1  0  0  0  0
 16 17  1  6  0  0  0
 16 15  1  0  0  0  0
 18  2  1  1  0  0  0
 18 19  1  0  0  0  0
 18 16  1  0  0  0  0
 19 20  1  6  0  0  0
 19 21  1  0  0  0  0
 21 22  1  1  0  0  0
 21 13  1  0  0  0  0
 23 20  1  6  0  0  0
 23 29  1  0  0  0  0
 24 25  1  1  0  0  0
 24 26  1  0  0  0  0
 24 23  1  0  0  0  0
 26 27  1  1  0  0  0
 26 28  1  0  0  0  0
 28 30  1  6  0  0  0
 29 28  1  0  0  0  0
 30 31  1  0  0  0  0
 32 27  1  1  0  0  0
 32 40  1  0  0  0  0
 33 35  1  0  0  0  0
 33 32  1  0  0  0  0
 33 34  1  1  0  0  0
 35 36  1  1  0  0  0
 35 37  1  0  0  0  0
 37 38  1  6  0  0  0
 37 39  1  0  0  0  0
 39 41  1  1  0  0  0
 40 39  1  0  0  0  0
 41 42  1  0  0  0  0
M  END
>  <CHROM.1>
-175.33499205,-65.66892008,-179.73785080,167.78504844,168.27639479,-175.33976808
-175.81458120,-174.77481004,-61.39070544,-0.65835426,13.70078297,36.58846855
-1.71343533,-0.67205416,2.95658409

>  <Name>
lig.pdb

>  <RI>
0

>  <Rbt.Current_Directory>
/home/itssahil/PROJECTS/Mol_Feturizer/New_Systems/rnas/4wcr

>  <Rbt.Executable>
rbdock ($Id: //depot/dev/client3/rdock/2013.1/src/exe/rbdock.cxx#4 $)

>  <Rbt.Library>
libRbt.so (2013.1, Build901 2013/11/27)

>  <Rbt.Parameter_File>
/export/apps/rDock/src/rDock_2013.1_src/data/scripts/dock_solv.prm

>  <Rbt.Receptor>
prm/pocket_docking_6.prm

>  <SCORE>
-12.0318

>  <SCORE.INTER>
-3.35835

>  <SCORE.INTER.CONST>
1

>  <SCORE.INTER.POLAR>
0

>  <SCORE.INTER.ROT>
9

>  <SCORE.INTER.SOLV>
21.8507

>  <SCORE.INTER.VDW>
-19.1225

>  <SCORE.INTER.norm>
-0.0799607

>  <SCORE.INTRA>
-8.67348

>  <SCORE.INTRA.DIHEDRAL>
-13.873

>  <SCORE.INTRA.DIHEDRAL.0>
16.2863

>  <SCORE.INTRA.POLAR>
0

>  <SCORE.INTRA.POLAR.0>
0

>  <SCORE.INTRA.REPUL>
-0.314433

>  <SCORE.INTRA.REPUL.0>
0.314433

>  <SCORE.INTRA.SOLV>
-3.96309

>  <SCORE.INTRA.SOLV.lig_0>
-103.824

>  <SCORE.INTRA.VDW>
1.81672

>  <SCORE.INTRA.VDW.0>
-5.30945

>  <SCORE.INTRA.norm>
-0.206512

>  <SCORE.RESTR>
0

>  <SCORE.RESTR.CAVITY>
0

>  <SCORE.RESTR.norm>
0

>  <SCORE.SYSTEM>
0

>  <SCORE.SYSTEM.CONST>
0

>  <SCORE.SYSTEM.DIHEDRAL>
0

>  <SCORE.SYSTEM.SOLV>
0

>  <SCORE.SYSTEM.norm>
0

>  <SCORE.heavy>
42

>  <SCORE.norm>
-0.286472

>  <RMSD>
2.644

$$$$
lig.pdb
 OpenBabel11021811513D
libRbt.so/2013.1/901 2013/11/27
 42 45  0  0  0  0  0  0  0  0999 V2000
   -0.4199   16.8066   36.1919 C   0  0  2  0  0  0  0  0  0  0  0  0
   -1.3113   17.3852   37.1957 O   0  0  0  0  0  0  0  0  0  0  0  0
    0.9918   17.5194   36.3895 C   0  0  2  0  0  0  0  0  0  0  0  0
    1.5255   17.2305   37.7234 N   0  0  0  0  0  0  0  0  0  0  0  0
    0.8151   19.0954   36.1348 C   0  0  1  0  0  0  0  0  0  0  0  0
    2.0695   19.7918   36.2900 O   0  0  0  0  0  0  0  0  0  0  0  0
    0.2446   19.2654   34.7163 C   0  0  2  0  0  0  0  0  0  0  0  0
    0.0766   20.6184   34.4617 O   0  0  0  0  0  0  0  0  0  0  0  0
   -1.1427   18.4856   34.5910 C   0  0  2  0  0  0  0  0  0  0  0  0
   -0.9784   17.0863   34.8527 O   0  0  0  0  0  0  0  0  0  0  0  0
   -1.7340   18.6046   33.2150 C   0  0  0  0  0  0  0  0  0  0  0  0
   -2.9907   17.9261   33.2245 O   0  0  0  0  0  0  0  0  0  0  0  0
   -5.3375   16.2479   38.7023 C   0  0  2  0  0  0  0  0  0  0  0  0
   -6.7687   16.0455   38.7626 N   0  0  0  0  0  0  0  0  0  0  0  0
   -5.0148   17.7572   38.3756 C   0  0  0  0  0  0  0  0  0  0  0  0
   -3.4667   18.0024   38.3002 C   0  0  2  0  0  0  0  0  0  0  0  0
   -3.2115   19.4074   37.9894 N   0  0  0  0  0  0  0  0  0  0  0  0
   -2.7603   17.0975   37.1954 C   0  0  2  0  0  0  0  0  0  0  0  0
   -3.0560   15.6118   37.5520 C   0  0  2  0  0  0  0  0  0  0  0  0
   -2.3490   14.8278   36.4712 O   0  0  0  0  0  0  0  0  0  0  0  0
   -4.6617   15.3488   37.5625 C   0  0  1  0  0  0  0  0  0  0  0  0
   -5.0627   13.9930   37.9408 O   0  0  0  0  0  0  0  0  0  0  0  0
   -2.0798   13.5474   36.8778 C   0  0  1  0  0  0  0  0  0  0  0  0
   -1.2778   12.7925   35.9092 C   0  0  2  0  0  0  0  0  0  0  0  0
   -2.1044   12.4899   34.8314 O   0  0  0  0  0  0  0  0  0  0  0  0
   -0.7226   11.6596   36.7988 C   0  0  2  0  0  0  0  0  0  0  0  0
   -1.2113   10.4170   36.2450 O   0  0  0  0  0  0  0  0  0  0  0  0
   -1.2731   11.9355   38.1592 C   0  0  2  0  0  0  0  0  0  0  0  0
   -1.3022   13.4038   38.0548 O   0  0  0  0  0  0  0  0  0  0  0  0
   -0.2796   11.4884   39.2939 C   0  0  0  0  0  0  0  0  0  0  0  0
   -0.8166   11.6532   40.6406 O   0  0  0  0  0  0  0  0  0  0  0  0
   -0.7701    9.1861   36.8939 C   0  0  2  0  0  0  0  0  0  0  0  0
    0.8441    9.1218   36.8288 C   0  0  2  0  0  0  0  0  0  0  0  0
    1.2823    9.1809   35.3966 N   0  0  0  0  0  0  0  0  0  0  0  0
    1.3217    7.7660   37.5484 C   0  0  1  0  0  0  0  0  0  0  0  0
    0.8372    7.8115   38.9249 O   0  0  0  0  0  0  0  0  0  0  0  0
    0.7198    6.5112   36.7689 C   0  0  2  0  0  0  0  0  0  0  0  0
    1.2656    6.5267   35.3934 O   0  0  0  0  0  0  0  0  0  0  0  0
   -0.9073    6.6275   36.7978 C   0  0  1  0  0  0  0  0  0  0  0  0
   -1.3320    7.9377   36.1833 O   0  0  0  0  0  0  0  0  0  0  0  0
   -1.5324    5.4188   36.0252 C   0  0  0  0  0  0  0  0  0  0  0  0
   -3.0280    5.4256   36.0493 N   0  0  0  0  0  0  0  0  0  0  0  0
  1  3  1  0  0  0  0
  1  2  1  1  0  0  0
  3  4  1  1  0  0  0
  3  5  1  0  0  0  0
  5  6  1  6  0  0  0
  7  8  1  1  0  0  0
  7  5  1  0  0  0  0
  9 11  1  6  0  0  0
  9  7  1  0  0  0  0
 10  9  1  0  0  0  0
 10  1  1  0  0  0  0
 12 11  1  0  0  0  0
 13 14  1  6  0  0  0
 15 13  1  0  0  0  0
 16 17  1  6  0  0  0
 16 15  1  0  0  0  0
 18  2  1  1  0  0  0
 18 19  1  0  0  0  0
 18 16  1  0  0  0  0
 19 20  1  6  0  0  0
 19 21  1  0  0  0  0
 21 22  1  1  0  0  0
 21 13  1  0  0  0  0
 23 20  1  6  0  0  0
 23 29  1  0  0  0  0
 24 25  1  6  0  0  0
 24 26  1  0  0  0  0
 24 23  1  0  0  0  0
 26 27  1  6  0  0  0
 26 28  1  0  0  0  0
 28 30  1  1  0  0  0
 29 28  1  0  0  0  0
 30 31  1  0  0  0  0
 32 27  1  6  0  0  0
 32 40  1  0  0  0  0
 33 35  1  0  0  0  0
 33 32  1  0  0  0  0
 33 34  1  6  0  0  0
 35 36  1  1  0  0  0
 35 37  1  0  0  0  0
 37 38  1  6  0  0  0
 37 39  1  0  0  0  0
 39 41  1  6  0  0  0
 40 39  1  0  0  0  0
 41 42  1  0  0  0  0
M  END
>  <CHROM.1>
171.58077725,-177.57540802,-173.57739469,157.46832587,-174.33997414,177.64622126
-175.93585162,-59.31933675,177.88270344,-1.34718196,13.68824970,36.73364422
-1.69755077,-0.42662608,3.02856298

>  <Name>
lig.pdb

>  <RI>
0

>  <Rbt.Current_Directory>
/home/itssahil/PROJECTS/Mol_Feturizer/New_Systems/rnas/4wcr

>  <Rbt.Executable>
rbdock ($Id: //depot/dev/client3/rdock/2013.1/src/exe/rbdock.cxx#4 $)

>  <Rbt.Library>
libRbt.so (2013.1, Build901 2013/11/27)

>  <Rbt.Parameter_File>
/export/apps/rDock/src/rDock_2013.1_src/data/scripts/dock_solv.prm

>  <Rbt.Receptor>
prm/pocket_docking_5.prm

>  <SCORE>
-12.0468

>  <SCORE.INTER>
-2.20937

>  <SCORE.INTER.CONST>
1

>  <SCORE.INTER.POLAR>
0

>  <SCORE.INTER.ROT>
9

>  <SCORE.INTER.SOLV>
21.2953

>  <SCORE.INTER.VDW>
-18.1713

>  <SCORE.INTER.norm>
-0.052604

>  <SCORE.INTRA>
-9.83744

>  <SCORE.INTRA.DIHEDRAL>
-12.7056

>  <SCORE.INTRA.DIHEDRAL.0>
16.2863

>  <SCORE.INTRA.POLAR>
0

>  <SCORE.INTRA.POLAR.0>
0

>  <SCORE.INTRA.REPUL>
-0.314433

>  <SCORE.INTRA.REPUL.0>
0.314433

>  <SCORE.INTRA.SOLV>
-5.99801

>  <SCORE.INTRA.SOLV.lig_0>
-103.824

>  <SCORE.INTRA.VDW>
1.08652

>  <SCORE.INTRA.VDW.0>
-5.30945

>  <SCORE.INTRA.norm>
-0.234225

>  <SCORE.RESTR>
0

>  <SCORE.RESTR.CAVITY>
0

>  <SCORE.RESTR.norm>
0

>  <SCORE.SYSTEM>
0

>  <SCORE.SYSTEM.CONST>
0

>  <SCORE.SYSTEM.DIHEDRAL>
0

>  <SCORE.SYSTEM.SOLV>
0

>  <SCORE.SYSTEM.norm>
0

>  <SCORE.heavy>
42

>  <SCORE.norm>
-0.286829

>  <RMSD>
2.646

$$$$
lig.pdb
 OpenBabel11021811513D
libRbt.so/2013.1/901 2013/11/27
 42 45  0  0  0  0  0  0  0  0999 V2000
   -1.4515   16.1679   36.5176 C   0  0  2  0  0  0  0  0  0  0  0  0
   -2.1527   17.0642   37.4353 O   0  0  0  0  0  0  0  0  0  0  0  0
    0.0384   16.7230   36.4082 C   0  0  2  0  0  0  0  0  0  0  0  0
    0.6968   16.6749   37.7166 N   0  0  0  0  0  0  0  0  0  0  0  0
   -0.0074   18.2114   35.8063 C   0  0  1  0  0  0  0  0  0  0  0  0
    1.3204   18.7609   35.6744 O   0  0  0  0  0  0  0  0  0  0  0  0
   -0.7242   18.1302   34.4476 C   0  0  2  0  0  0  0  0  0  0  0  0
   -0.7840   19.4020   33.8974 O   0  0  0  0  0  0  0  0  0  0  0  0
   -2.1882   17.5236   34.6404 C   0  0  2  0  0  0  0  0  0  0  0  0
   -2.1359   16.2090   35.2086 O   0  0  0  0  0  0  0  0  0  0  0  0
   -2.9256   17.4052   33.3369 C   0  0  0  0  0  0  0  0  0  0  0  0
   -2.3965   16.2753   32.6419 O   0  0  0  0  0  0  0  0  0  0  0  0
   -6.1809   16.8070   39.3007 C   0  0  2  0  0  0  0  0  0  0  0  0
   -7.6160   16.8724   39.4720 N   0  0  0  0  0  0  0  0  0  0  0  0
   -5.6279   18.1994   38.8066 C   0  0  0  0  0  0  0  0  0  0  0  0
   -4.0719   18.1534   38.6086 C   0  0  2  0  0  0  0  0  0  0  0  0
   -3.6020   19.4572   38.1448 N   0  0  0  0  0  0  0  0  0  0  0  0
   -3.6249   17.0442   37.5559 C   0  0  2  0  0  0  0  0  0  0  0  0
   -4.1449   15.6726   38.0758 C   0  0  2  0  0  0  0  0  0  0  0  0
   -3.6742   14.6839   37.0348 O   0  0  0  0  0  0  0  0  0  0  0  0
   -5.7657   15.7060   38.2146 C   0  0  1  0  0  0  0  0  0  0  0  0
   -6.3648   14.4826   38.7499 O   0  0  0  0  0  0  0  0  0  0  0  0
   -4.0458   13.4050   37.3566 C   0  0  1  0  0  0  0  0  0  0  0  0
   -3.5614   12.4063   36.3979 C   0  0  2  0  0  0  0  0  0  0  0  0
   -4.3142   12.5463   35.2359 O   0  0  0  0  0  0  0  0  0  0  0  0
   -3.6655   11.1131   37.2346 C   0  0  2  0  0  0  0  0  0  0  0  0
   -4.5907   10.2431   36.5441 O   0  0  0  0  0  0  0  0  0  0  0  0
   -4.1807   11.5569   38.5639 C   0  0  2  0  0  0  0  0  0  0  0  0
   -3.5450   12.8848   38.5770 O   0  0  0  0  0  0  0  0  0  0  0  0
   -3.6176   10.6705   39.7351 C   0  0  0  0  0  0  0  0  0  0  0  0
   -4.1428   11.0320   41.0476 O   0  0  0  0  0  0  0  0  0  0  0  0
   -4.0778    9.5215   35.3835 C   0  0  2  0  0  0  0  0  0  0  0  0
   -4.8115   10.0906   34.0599 C   0  0  2  0  0  0  0  0  0  0  0  0
   -6.2936    9.9215   34.2069 N   0  0  0  0  0  0  0  0  0  0  0  0
   -4.2386    9.2938   32.7868 C   0  0  1  0  0  0  0  0  0  0  0  0
   -2.7969    9.5205   32.7459 O   0  0  0  0  0  0  0  0  0  0  0  0
   -4.5717    7.7412   32.9387 C   0  0  2  0  0  0  0  0  0  0  0  0
   -6.0440    7.5926   32.9584 O   0  0  0  0  0  0  0  0  0  0  0  0
   -3.8699    7.2025   34.3096 C   0  0  1  0  0  0  0  0  0  0  0  0
   -4.3662    8.0095   35.4831 O   0  0  0  0  0  0  0  0  0  0  0  0
   -4.1914    5.6830   34.5000 C   0  0  0  0  0  0  0  0  0  0  0  0
   -3.5569    5.1047   35.7249 N   0  0  0  0  0  0  0  0  0  0  0  0
  1  3  1  0  0  0  0
  1  2  1  1  0  0  0
  3  4  1  1  0  0  0
  3  5  1  0  0  0  0
  5  6  1  6  0  0  0
  7  8  1  1  0  0  0
  7  5  1  0  0  0  0
  9 11  1  6  0  0  0
  9  7  1  0  0  0  0
 10  9  1  0  0  0  0
 10  1  1  0  0  0  0
 12 11  1  0  0  0  0
 13 14  1  6  0  0  0
 15 13  1  0  0  0  0
 16 17  1  6  0  0  0
 16 15  1  0  0  0  0
 18  2  1  1  0  0  0
 18 19  1  0  0  0  0
 18 16  1  0  0  0  0
 19 20  1  6  0  0  0
 19 21  1  0  0  0  0
 21 22  1  1  0  0  0
 21 13  1  0  0  0  0
 23 20  1  6  0  0  0
 23 29  1  0  0  0  0
 24 25  1  6  0  0  0
 24 26  1  0  0  0  0
 24 23  1  0  0  0  0
 26 27  1  6  0  0  0
 26 28  1  0  0  0  0
 28 30  1  1  0  0  0
 29 28  1  0  0  0  0
 30 31  1  0  0  0  0
 32 27  1  1  0  0  0
 32 40  1  0  0  0  0
 33 35  1  0  0  0  0
 33 32  1  0  0  0  0
 33 34  1  1  0  0  0
 35 36  1  1  0  0  0
 35 37  1  0  0  0  0
 37 38  1  1  0  0  0
 37 39  1  0  0  0  0
 39 41  1  1  0  0  0
 40 39  1  0  0  0  0
 41 42  1  0  0  0  0
M  END
>  <CHROM.1>
166.46805850,76.14915276,-178.81436850,179.39135964,-177.69125122,78.45269324
-177.41503648,-112.67755160,178.78334860,-3.51256549,13.58673929,36.25915155
-1.19769159,-0.94439697,-2.65520118

>  <Name>
lig.pdb

>  <RI>
0

>  <Rbt.Current_Directory>
/home/itssahil/PROJECTS/Mol_Feturizer/New_Systems/rnas/4wcr

>  <Rbt.Executable>
rbdock ($Id: //depot/dev/client3/rdock/2013.1/src/exe/rbdock.cxx#4 $)

>  <Rbt.Library>
libRbt.so (2013.1, Build901 2013/11/27)

>  <Rbt.Parameter_File>
/export/apps/rDock/src/rDock_2013.1_src/data/scripts/dock_solv.prm

>  <Rbt.Receptor>
prm/pocket_docking_4.prm

>  <SCORE>
-6.93145

>  <SCORE.INTER>
-2.07012

>  <SCORE.INTER.CONST>
1

>  <SCORE.INTER.POLAR>
0

>  <SCORE.INTER.ROT>
9

>  <SCORE.INTER.SOLV>
20.8527

>  <SCORE.INTER.VDW>
-17.931

>  <SCORE.INTER.norm>
-0.0492886

>  <SCORE.INTRA>
-4.86133

>  <SCORE.INTRA.DIHEDRAL>
-5.47817

>  <SCORE.INTRA.DIHEDRAL.0>
16.2863

>  <SCORE.INTRA.POLAR>
0

>  <SCORE.INTRA.POLAR.0>
0

>  <SCORE.INTRA.REPUL>
-0.314433

>  <SCORE.INTRA.REPUL.0>
0.314433

>  <SCORE.INTRA.SOLV>
-5.11253

>  <SCORE.INTRA.SOLV.lig_0>
-103.824

>  <SCORE.INTRA.VDW>
2.00619

>  <SCORE.INTRA.VDW.0>
-5.30945

>  <SCORE.INTRA.norm>
-0.115746

>  <SCORE.RESTR>
0

>  <SCORE.RESTR.CAVITY>
0

>  <SCORE.RESTR.norm>
0

>  <SCORE.SYSTEM>
0

>  <SCORE.SYSTEM.CONST>
0

>  <SCORE.SYSTEM.DIHEDRAL>
0

>  <SCORE.SYSTEM.SOLV>
0

>  <SCORE.SYSTEM.norm>
0

>  <SCORE.heavy>
42

>  <SCORE.norm>
-0.165035

>  <RMSD>
2.650

$$$$
lig.pdb
 OpenBabel11021811513D
libRbt.so/2013.1/901 2013/11/27
 42 45  0  0  0  0  0  0  0  0999 V2000
   -1.6767   15.7845   35.9787 C   0  0  2  0  0  0  0  0  0  0  0  0
   -2.3229   16.4847   37.0874 O   0  0  0  0  0  0  0  0  0  0  0  0
   -0.1339   15.6748   36.3629 C   0  0  2  0  0  0  0  0  0  0  0  0
    0.0310   14.8845   37.5860 N   0  0  0  0  0  0  0  0  0  0  0  0
    0.4681   17.1565   36.5120 C   0  0  1  0  0  0  0  0  0  0  0  0
    1.8706   17.1172   36.8495 O   0  0  0  0  0  0  0  0  0  0  0  0
    0.2271   17.8814   35.1768 C   0  0  2  0  0  0  0  0  0  0  0  0
    0.7342   19.1690   35.2697 O   0  0  0  0  0  0  0  0  0  0  0  0
   -1.3344   17.9067   34.8458 C   0  0  2  0  0  0  0  0  0  0  0  0
   -1.8670   16.5799   34.7479 O   0  0  0  0  0  0  0  0  0  0  0  0
   -1.6227   18.5889   33.5387 C   0  0  0  0  0  0  0  0  0  0  0  0
   -3.0363   18.5580   33.3375 O   0  0  0  0  0  0  0  0  0  0  0  0
   -6.4612   16.8891   38.6633 C   0  0  2  0  0  0  0  0  0  0  0  0
   -7.8729   17.1968   38.7375 N   0  0  0  0  0  0  0  0  0  0  0  0
   -5.6452   18.1746   38.2503 C   0  0  0  0  0  0  0  0  0  0  0  0
   -4.1094   17.8659   38.1584 C   0  0  2  0  0  0  0  0  0  0  0  0
   -3.3924   19.0777   37.7673 N   0  0  0  0  0  0  0  0  0  0  0  0
   -3.7819   16.7154   37.1060 C   0  0  2  0  0  0  0  0  0  0  0  0
   -4.5638   15.4443   37.5474 C   0  0  2  0  0  0  0  0  0  0  0  0
   -4.1934   14.4083   36.5120 O   0  0  0  0  0  0  0  0  0  0  0  0
   -6.1611   15.7528   37.5756 C   0  0  1  0  0  0  0  0  0  0  0  0
   -6.9967   14.6410   38.0315 O   0  0  0  0  0  0  0  0  0  0  0  0
   -4.8132   13.2115   36.7590 C   0  0  1  0  0  0  0  0  0  0  0  0
   -4.3128   12.1197   35.9173 C   0  0  2  0  0  0  0  0  0  0  0  0
   -4.7960   12.3325   34.6297 O   0  0  0  0  0  0  0  0  0  0  0  0
   -4.7750   10.8857   36.7216 C   0  0  2  0  0  0  0  0  0  0  0  0
   -5.6725   10.1426   35.8660 O   0  0  0  0  0  0  0  0  0  0  0  0
   -5.4627   11.4465   37.9226 C   0  0  2  0  0  0  0  0  0  0  0  0
   -4.6441   12.6631   38.0556 O   0  0  0  0  0  0  0  0  0  0  0  0
   -5.2803   10.5251   39.1844 C   0  0  0  0  0  0  0  0  0  0  0  0
   -3.8907   10.3735   39.6028 O   0  0  0  0  0  0  0  0  0  0  0  0
   -5.0628    9.2285   34.9048 C   0  0  2  0  0  0  0  0  0  0  0  0
   -4.4682    7.9588   35.7100 C   0  0  2  0  0  0  0  0  0  0  0  0
   -3.4748    8.4397   36.7242 N   0  0  0  0  0  0  0  0  0  0  0  0
   -3.8024    6.9561   34.6446 C   0  0  1  0  0  0  0  0  0  0  0  0
   -4.8500    6.5602   33.7079 O   0  0  0  0  0  0  0  0  0  0  0  0
   -2.6088    7.6989   33.8909 C   0  0  2  0  0  0  0  0  0  0  0  0
   -1.5860    8.0540   34.8998 O   0  0  0  0  0  0  0  0  0  0  0  0
   -3.2219    9.0076   33.1338 C   0  0  1  0  0  0  0  0  0  0  0  0
   -3.9044    9.9006   34.1396 O   0  0  0  0  0  0  0  0  0  0  0  0
   -2.0728    9.7720   32.3964 C   0  0  0  0  0  0  0  0  0  0  0  0
   -2.5558   10.9901   31.6751 N   0  0  0  0  0  0  0  0  0  0  0  0
  1  3  1  0  0  0  0
  1  2  1  1  0  0  0
  3  4  1  1  0  0  0
  3  5  1  0  0  0  0
  5  6  1  6  0  0  0
  7  8  1  1  0  0  0
  7  5  1  0  0  0  0
  9 11  1  6  0  0  0
  9  7  1  0  0  0  0
 10  9  1  0  0  0  0
 10  1  1  0  0  0  0
 12 11  1  0  0  0  0
 13 14  1  6  0  0  0
 15 13  1  0  0  0  0
 16 17  1  6  0  0  0
 16 15  1  0  0  0  0
 18  2  1  1  0  0  0
 18 19  1  0  0  0  0
 18 16  1  0  0  0  0
 19 20  1  6  0  0  0
 19 21  1  0  0  0  0
 21 22  1  1  0  0  0
 21 13  1  0  0  0  0
 23 20  1  1  0  0  0
 23 29  1  0  0  0  0
 24 25  1  6  0  0  0
 24 26  1  0  0  0  0
 24 23  1  0  0  0  0
 26 27  1  6  0  0  0
 26 28  1  0  0  0  0
 28 30  1  1  0  0  0
 29 28  1  0  0  0  0
 30 31  1  0  0  0  0
 32 27  1  1  0  0  0
 32 40  1  0  0  0  0
 33 35  1  0  0  0  0
 33 32  1  0  0  0  0
 33 34  1  1  0  0  0
 35 36  1  6  0  0  0
 35 37  1  0  0  0  0
 37 38  1  1  0  0  0
 37 39  1  0  0  0  0
 39 41  1  1  0  0  0
 40 39  1  0  0  0  0
 41 42  1  0  0  0  0
M  END
>  <CHROM.1>
-177.22151176,179.99248838,-162.20033586,-179.80844169,-170.36018000,83.40231709
62.23199537,71.88774376,-179.98059921,-3.39642094,13.57034503,36.08669552
-1.33715451,-0.61528039,-2.85431682

>  <Name>
lig.pdb

>  <RI>
0

>  <Rbt.Current_Directory>
/home/itssahil/PROJECTS/Mol_Feturizer/New_Systems/rnas/4wcr

>  <Rbt.Executable>
rbdock ($Id: //depot/dev/client3/rdock/2013.1/src/exe/rbdock.cxx#4 $)

>  <Rbt.Library>
libRbt.so (2013.1, Build901 2013/11/27)

>  <Rbt.Parameter_File>
/export/apps/rDock/src/rDock_2013.1_src/data/scripts/dock_solv.prm

>  <Rbt.Receptor>
prm/pocket_docking_4.prm

>  <SCORE>
-10.4678

>  <SCORE.INTER>
-3.80096

>  <SCORE.INTER.CONST>
1

>  <SCORE.INTER.POLAR>
0

>  <SCORE.INTER.ROT>
9

>  <SCORE.INTER.SOLV>
18.1489

>  <SCORE.INTER.VDW>
-18.1836

>  <SCORE.INTER.norm>
-0.0904991

>  <SCORE.INTRA>
-6.66689

>  <SCORE.INTRA.DIHEDRAL>
-10.8044

>  <SCORE.INTRA.DIHEDRAL.0>
16.2863

>  <SCORE.INTRA.POLAR>
0

>  <SCORE.INTRA.POLAR.0>
0

>  <SCORE.INTRA.REPUL>
-0.314433

>  <SCORE.INTRA.REPUL.0>
0.314433

>  <SCORE.INTRA.SOLV>
-2.16721

>  <SCORE.INTRA.SOLV.lig_0>
-103.824

>  <SCORE.INTRA.VDW>
1.3911

>  <SCORE.INTRA.VDW.0>
-5.30945

>  <SCORE.INTRA.norm>
-0.158735

>  <SCORE.RESTR>
0

>  <SCORE.RESTR.CAVITY>
0

>  <SCORE.RESTR.norm>
0

>  <SCORE.SYSTEM>
0

>  <SCORE.SYSTEM.CONST>
0

>  <SCORE.SYSTEM.DIHEDRAL>
0

>  <SCORE.SYSTEM.SOLV>
0

>  <SCORE.SYSTEM.norm>
0

>  <SCORE.heavy>
42

>  <SCORE.norm>
-0.249234

>  <RMSD>
2.652

$$$$
lig.pdb
 OpenBabel11021811513D
libRbt.so/2013.1/901 2013/11/27
 42 45  0  0  0  0  0  0  0  0999 V2000
   -3.4188   17.7305   37.7023 C   0  0  2  0  0  0  0  0  0  0  0  0
   -4.6293   17.5279   36.9079 O   0  0  0  0  0  0  0  0  0  0  0  0
   -2.6922   19.0074   37.0848 C   0  0  2  0  0  0  0  0  0  0  0  0
   -3.5479   20.1904   37.2109 N   0  0  0  0  0  0  0  0  0  0  0  0
   -2.3094   18.6955   35.5564 C   0  0  1  0  0  0  0  0  0  0  0  0
   -1.6361   19.8180   34.9487 O   0  0  0  0  0  0  0  0  0  0  0  0
   -1.4244   17.4372   35.5573 C   0  0  2  0  0  0  0  0  0  0  0  0
   -1.0750   17.1359   34.2493 O   0  0  0  0  0  0  0  0  0  0  0  0
   -2.2087   16.2213   36.2318 C   0  0  2  0  0  0  0  0  0  0  0  0
   -2.5738   16.5239   37.5841 O   0  0  0  0  0  0  0  0  0  0  0  0
   -1.3787   14.9697   36.2748 C   0  0  0  0  0  0  0  0  0  0  0  0
   -0.2210   15.2456   37.0642 O   0  0  0  0  0  0  0  0  0  0  0  0
   -7.3425   15.7126   39.9271 C   0  0  2  0  0  0  0  0  0  0  0  0
   -8.5356   15.1853   40.5528 N   0  0  0  0  0  0  0  0  0  0  0  0
   -7.5994   17.1839   39.4191 C   0  0  0  0  0  0  0  0  0  0  0  0
   -6.3199   17.7777   38.7315 C   0  0  2  0  0  0  0  0  0  0  0  0
   -6.6017   19.1354   38.2700 N   0  0  0  0  0  0  0  0  0  0  0  0
   -5.8360   16.9051   37.4894 C   0  0  2  0  0  0  0  0  0  0  0  0
   -5.5509   15.4677   38.0132 C   0  0  2  0  0  0  0  0  0  0  0  0
   -5.0919   14.7150   36.7863 O   0  0  0  0  0  0  0  0  0  0  0  0
   -6.9000   14.8327   38.6645 C   0  0  1  0  0  0  0  0  0  0  0  0
   -6.7374   13.4979   39.2423 O   0  0  0  0  0  0  0  0  0  0  0  0
   -4.6307   13.4661   37.1100 C   0  0  1  0  0  0  0  0  0  0  0  0
   -4.3589   12.6305   35.9356 C   0  0  2  0  0  0  0  0  0  0  0  0
   -5.5870   12.2565   35.3985 O   0  0  0  0  0  0  0  0  0  0  0  0
   -3.4221   11.5620   36.5388 C   0  0  2  0  0  0  0  0  0  0  0  0
   -4.0819   10.2868   36.3717 O   0  0  0  0  0  0  0  0  0  0  0  0
   -3.2756   11.9468   37.9742 C   0  0  2  0  0  0  0  0  0  0  0  0
   -3.3878   13.4032   37.7897 O   0  0  0  0  0  0  0  0  0  0  0  0
   -1.8544   11.5756   38.5371 C   0  0  0  0  0  0  0  0  0  0  0  0
   -0.7580   12.2500   37.8499 O   0  0  0  0  0  0  0  0  0  0  0  0
   -3.2407    9.0952   36.4322 C   0  0  2  0  0  0  0  0  0  0  0  0
   -4.1704    7.7973   36.1764 C   0  0  2  0  0  0  0  0  0  0  0  0
   -5.2588    7.7600   37.2063 N   0  0  0  0  0  0  0  0  0  0  0  0
   -3.2364    6.4906   36.2408 C   0  0  1  0  0  0  0  0  0  0  0  0
   -2.2146    6.6362   35.2081 O   0  0  0  0  0  0  0  0  0  0  0  0
   -2.5773    6.3805   37.6893 C   0  0  2  0  0  0  0  0  0  0  0  0
   -3.6701    6.2220   38.6745 O   0  0  0  0  0  0  0  0  0  0  0  0
   -1.6914    7.7259   37.9483 C   0  0  1  0  0  0  0  0  0  0  0  0
   -2.5701    8.9442   37.8130 O   0  0  0  0  0  0  0  0  0  0  0  0
   -1.0426    7.6596   39.3708 C   0  0  0  0  0  0  0  0  0  0  0  0
   -2.0548    7.5360   40.4650 N   0  0  0  0  0  0  0  0  0  0  0  0
  1  3  1  0  0  0  0
  1  2  1  6  0  0  0
  3  4  1  6  0  0  0
  3  5  1  0  0  0  0
  5  6  1  1  0  0  0
  7  8  1  6  0  0  0
  7  5  1  0  0  0  0
  9 11  1  1  0  0  0
  9  7  1  0  0  0  0
 10  9  1  0  0  0  0
 10  1  1  0  0  0  0
 12 11  1  0  0  0  0
 13 14  1  6  0  0  0
 15 13  1  0  0  0  0
 16 17  1  6  0  0  0
 16 15  1  0  0  0  0
 18  2  1  1  0  0  0
 18 19  1  0  0  0  0
 18 16  1  0  0  0  0
 19 20  1  6  0  0  0
 19 21  1  0  0  0  0
 21 22  1  1  0  0  0
 21 13  1  0  0  0  0
 23 20  1  6  0  0  0
 23 29  1  0  0  0  0
 24 25  1  1  0  0  0
 24 26  1  0  0  0  0
 24 23  1  0  0  0  0
 26 27  1  1  0  0  0
 26 28  1  0  0  0  0
 28 30  1  6  0  0  0
 29 28  1  0  0  0  0
 30 31  1  0  0  0  0
 32 27  1  1  0  0  0
 32 40  1  0  0  0  0
 33 35  1  0  0  0  0
 33 32  1  0  0  0  0
 33 34  1  1  0  0  0
 35 36  1  6  0  0  0
 35 37  1  0  0  0  0
 37 38  1  1  0  0  0
 37 39  1  0  0  0  0
 39 41  1  1  0  0  0
 40 39  1  0  0  0  0
 41 42  1  0  0  0  0
M  END
>  <CHROM.1>
-151.11640167,61.21025441,58.92649050,172.05501719,171.60054319,159.59080875
61.23842739,-178.25084173,-58.85623437,-3.69835366,13.37963821,37.36626921
-1.70112720,-0.47813765,3.04602164

>  <Name>
lig.pdb

>  <RI>
0

>  <Rbt.Current_Directory>
/home/itssahil/PROJECTS/Mol_Feturizer/New_Systems/rnas/4wcr

>  <Rbt.Executable>
rbdock ($Id: //depot/dev/client3/rdock/2013.1/src/exe/rbdock.cxx#4 $)

>  <Rbt.Library>
libRbt.so (2013.1, Build901 2013/11/27)

>  <Rbt.Parameter_File>
/export/apps/rDock/src/rDock_2013.1_src/data/scripts/dock_solv.prm

>  <Rbt.Receptor>
prm/pocket_docking_3.prm

>  <SCORE>
-1.85679

>  <SCORE.INTER>
5.22263

>  <SCORE.INTER.CONST>
1

>  <SCORE.INTER.POLAR>
0

>  <SCORE.INTER.ROT>
9

>  <SCORE.INTER.SOLV>
23.2028

>  <SCORE.INTER.VDW>
-13.8525

>  <SCORE.INTER.norm>
0.124348

>  <SCORE.INTRA>
-7.08113

>  <SCORE.INTRA.DIHEDRAL>
-9.85285

>  <SCORE.INTRA.DIHEDRAL.0>
16.2863

>  <SCORE.INTRA.POLAR>
0

>  <SCORE.INTRA.POLAR.0>
0

>  <SCORE.INTRA.REPUL>
-0.275538

>  <SCORE.INTRA.REPUL.0>
0.314433

>  <SCORE.INTRA.SOLV>
-0.183775

>  <SCORE.INTRA.SOLV.lig_0>
-103.824

>  <SCORE.INTRA.VDW>
-0.685129

>  <SCORE.INTRA.VDW.0>
-5.30945

>  <SCORE.INTRA.norm>
-0.168598

>  <SCORE.RESTR>
0.00171699

>  <SCORE.RESTR.CAVITY>
0.00171699

>  <SCORE.RESTR.norm>
4.08808e-05

>  <SCORE.SYSTEM>
0

>  <SCORE.SYSTEM.CONST>
0

>  <SCORE.SYSTEM.DIHEDRAL>
0

>  <SCORE.SYSTEM.SOLV>
0

>  <SCORE.SYSTEM.norm>
0

>  <SCORE.heavy>
42

>  <SCORE.norm>
-0.0442092

>  <RMSD>
2.708

$$$$
lig.pdb
 OpenBabel11021811513D
libRbt.so/2013.1/901 2013/11/27
 42 45  0  0  0  0  0  0  0  0999 V2000
   -3.3156   16.3165   37.5565 C   0  0  2  0  0  0  0  0  0  0  0  0
   -4.5944   16.6420   36.9272 O   0  0  0  0  0  0  0  0  0  0  0  0
   -2.4249   17.6344   37.4573 C   0  0  2  0  0  0  0  0  0  0  0  0
   -3.0545   18.7311   38.1979 N   0  0  0  0  0  0  0  0  0  0  0  0
   -2.2068   17.9953   35.9075 C   0  0  1  0  0  0  0  0  0  0  0  0
   -1.3943   19.1786   35.7577 O   0  0  0  0  0  0  0  0  0  0  0  0
   -1.5526   16.7715   35.2436 C   0  0  2  0  0  0  0  0  0  0  0  0
   -1.3505   17.0473   33.8994 O   0  0  0  0  0  0  0  0  0  0  0  0
   -2.4856   15.4893   35.4279 C   0  0  2  0  0  0  0  0  0  0  0  0
   -2.7000   15.1968   36.8143 O   0  0  0  0  0  0  0  0  0  0  0  0
   -1.8815   14.2593   34.8120 C   0  0  0  0  0  0  0  0  0  0  0  0
   -2.8892   13.6355   34.0149 O   0  0  0  0  0  0  0  0  0  0  0  0
   -7.5384   14.8874   39.7604 C   0  0  2  0  0  0  0  0  0  0  0  0
   -8.7897   14.4285   40.3231 N   0  0  0  0  0  0  0  0  0  0  0  0
   -7.6540   16.4039   39.3414 C   0  0  0  0  0  0  0  0  0  0  0  0
   -6.3092   16.9253   38.7232 C   0  0  2  0  0  0  0  0  0  0  0  0
   -6.4606   18.3283   38.3428 N   0  0  0  0  0  0  0  0  0  0  0  0
   -5.8662   16.0920   37.4395 C   0  0  2  0  0  0  0  0  0  0  0  0
   -5.7201   14.6058   37.8770 C   0  0  2  0  0  0  0  0  0  0  0  0
   -5.2920   13.8929   36.6156 O   0  0  0  0  0  0  0  0  0  0  0  0
   -7.1367   14.0518   38.4548 C   0  0  1  0  0  0  0  0  0  0  0  0
   -7.1054   12.6748   38.9499 O   0  0  0  0  0  0  0  0  0  0  0  0
   -4.8835   12.6120   36.8798 C   0  0  1  0  0  0  0  0  0  0  0  0
   -4.1282   12.0095   35.7763 C   0  0  2  0  0  0  0  0  0  0  0  0
   -5.0345   11.7240   34.7595 O   0  0  0  0  0  0  0  0  0  0  0  0
   -3.3982   10.8611   36.5052 C   0  0  2  0  0  0  0  0  0  0  0  0
   -3.8424    9.6294   35.8928 O   0  0  0  0  0  0  0  0  0  0  0  0
   -3.8266   10.9782   37.9309 C   0  0  2  0  0  0  0  0  0  0  0  0
   -3.9808   12.4422   37.9600 O   0  0  0  0  0  0  0  0  0  0  0  0
   -2.6905   10.5290   38.9218 C   0  0  0  0  0  0  0  0  0  0  0  0
   -1.4539   11.2903   38.7786 O   0  0  0  0  0  0  0  0  0  0  0  0
   -2.8783    8.5348   35.8362 C   0  0  2  0  0  0  0  0  0  0  0  0
   -3.0859    7.7394   34.4439 C   0  0  2  0  0  0  0  0  0  0  0  0
   -4.4969    7.2394   34.3677 N   0  0  0  0  0  0  0  0  0  0  0  0
   -2.0185    6.5388   34.3879 C   0  0  1  0  0  0  0  0  0  0  0  0
   -0.6891    7.1357   34.4768 O   0  0  0  0  0  0  0  0  0  0  0  0
   -2.2812    5.5383   35.6022 C   0  0  2  0  0  0  0  0  0  0  0  0
   -3.6359    4.9666   35.4344 O   0  0  0  0  0  0  0  0  0  0  0  0
   -2.1231    6.3752   36.9938 C   0  0  1  0  0  0  0  0  0  0  0  0
   -3.0825    7.5389   36.9962 O   0  0  0  0  0  0  0  0  0  0  0  0
   -2.3920    5.4263   38.2087 C   0  0  0  0  0  0  0  0  0  0  0  0
   -3.6796    4.6754   38.0846 N   0  0  0  0  0  0  0  0  0  0  0  0
  1  3  1  0  0  0  0
  1  2  1  6  0  0  0
  3  4  1  1  0  0  0
  3  5  1  0  0  0  0
  5  6  1  1  0  0  0
  7  8  1  6  0  0  0
  7  5  1  0  0  0  0
  9 11  1  1  0  0  0
  9  7  1  0  0  0  0
 10  9  1  0  0  0  0
 10  1  1  0  0  0  0
 12 11  1  0  0  0  0
 13 14  1  6  0  0  0
 15 13  1  0  0  0  0
 16 17  1  6  0  0  0
 16 15  1  0  0  0  0
 18  2  1  1  0  0  0
 18 19  1  0  0  0  0
 18 16  1  0  0  0  0
 19 20  1  6  0  0  0
 19 21  1  0  0  0  0
 21 22  1  1  0  0  0
 21 13  1  0  0  0  0
 23 20  1  6  0  0  0
 23 29  1  0  0  0  0
 24 25  1  6  0  0  0
 24 26  1  0  0  0  0
 24 23  1  0  0  0  0
 26 27  1  6  0  0  0
 26 28  1  0  0  0  0
 28 30  1  1  0  0  0
 29 28  1  0  0  0  0
 30 31  1  0  0  0  0
 32 27  1  1  0  0  0
 32 40  1  0  0  0  0
 33 35  1  0  0  0  0
 33 32  1  0  0  0  0
 33 34  1  1  0  0  0
 35 36  1  1  0  0  0
 35 37  1  0  0  0  0
 37 38  1  6  0  0  0
 37 39  1  0  0  0  0
 39 41  1  1  0  0  0
 40 39  1  0  0  0  0
 41 42  1  0  0  0  0
M  END
>  <CHROM.1>
-144.28723877,-131.47765057,78.86858717,168.94561456,-164.37949812,147.64758134
58.43444290,-143.50723553,-51.43417937,-3.81823359,12.48518645,36.78663830
-1.75397627,-0.66677877,-3.13788285

>  <Name>
lig.pdb

>  <RI>
0

>  <Rbt.Current_Directory>
/home/itssahil/PROJECTS/Mol_Feturizer/New_Systems/rnas/4wcr

>  <Rbt.Executable>
rbdock ($Id: //depot/dev/client3/rdock/2013.1/src/exe/rbdock.cxx#4 $)

>  <Rbt.Library>
libRbt.so (2013.1, Build901 2013/11/27)

>  <Rbt.Parameter_File>
/export/apps/rDock/src/rDock_2013.1_src/data/scripts/dock_solv.prm

>  <Rbt.Receptor>
prm/pocket_docking_2.prm

>  <SCORE>
11.1514

>  <SCORE.INTER>
7.44295

>  <SCORE.INTER.CONST>
1

>  <SCORE.INTER.POLAR>
0

>  <SCORE.INTER.ROT>
9

>  <SCORE.INTER.SOLV>
21.0394

>  <SCORE.INTER.VDW>
-11.6512

>  <SCORE.INTER.norm>
0.177213

>  <SCORE.INTRA>
1.21109

>  <SCORE.INTRA.DIHEDRAL>
6.06043

>  <SCORE.INTRA.DIHEDRAL.0>
16.2863

>  <SCORE.INTRA.POLAR>
0

>  <SCORE.INTRA.POLAR.0>
0

>  <SCORE.INTRA.REPUL>
-0.25134

>  <SCORE.INTRA.REPUL.0>
0.314433

>  <SCORE.INTRA.SOLV>
-0.605348

>  <SCORE.INTRA.SOLV.lig_0>
-103.824

>  <SCORE.INTRA.VDW>
-0.259753

>  <SCORE.INTRA.VDW.0>
-5.30945

>  <SCORE.INTRA.norm>
0.0288354

>  <SCORE.RESTR>
2.49738

>  <SCORE.RESTR.CAVITY>
2.49738

>  <SCORE.RESTR.norm>
0.0594614

>  <SCORE.SYSTEM>
0

>  <SCORE.SYSTEM.CONST>
0

>  <SCORE.SYSTEM.DIHEDRAL>
0

>  <SCORE.SYSTEM.SOLV>
0

>  <SCORE.SYSTEM.norm>
0

>  <SCORE.heavy>
42

>  <SCORE.norm>
0.26551

>  <RMSD>
2.789

$$$$
lig.pdb
 OpenBabel11021811513D
libRbt.so/2013.1/901 2013/11/27
 42 45  0  0  0  0  0  0  0  0999 V2000
   -0.8590   16.6946   35.6753 C   0  0  2  0  0  0  0  0  0  0  0  0
   -1.6749   17.0768   36.8266 O   0  0  0  0  0  0  0  0  0  0  0  0
    0.6316   17.1402   36.0211 C   0  0  2  0  0  0  0  0  0  0  0  0
    1.1147   16.4250   37.2055 N   0  0  0  0  0  0  0  0  0  0  0  0
    0.6615   18.7337   36.2202 C   0  0  1  0  0  0  0  0  0  0  0  0
    1.9943   19.1953   36.5254 O   0  0  0  0  0  0  0  0  0  0  0  0
    0.1273   19.3639   34.9226 C   0  0  2  0  0  0  0  0  0  0  0  0
    0.1370   20.7441   35.0594 O   0  0  0  0  0  0  0  0  0  0  0  0
   -1.3483   18.8313   34.6268 C   0  0  2  0  0  0  0  0  0  0  0  0
   -1.3679   17.4055   34.4840 O   0  0  0  0  0  0  0  0  0  0  0  0
   -1.9102   19.4037   33.3565 C   0  0  0  0  0  0  0  0  0  0  0  0
   -3.2305   18.8837   33.1950 O   0  0  0  0  0  0  0  0  0  0  0  0
   -5.5412   15.3335   38.1627 C   0  0  2  0  0  0  0  0  0  0  0  0
   -6.9624   15.0988   38.2970 N   0  0  0  0  0  0  0  0  0  0  0  0
   -5.2073   16.8436   38.4738 C   0  0  0  0  0  0  0  0  0  0  0  0
   -3.6703   17.1255   38.3306 C   0  0  2  0  0  0  0  0  0  0  0  0
   -3.4051   18.5334   38.6195 N   0  0  0  0  0  0  0  0  0  0  0  0
   -3.1234   16.7905   36.8722 C   0  0  2  0  0  0  0  0  0  0  0  0
   -3.4263   15.2895   36.5949 C   0  0  2  0  0  0  0  0  0  0  0  0
   -2.8720   15.0538   35.2092 O   0  0  0  0  0  0  0  0  0  0  0  0
   -5.0284   15.0182   36.6788 C   0  0  1  0  0  0  0  0  0  0  0  0
   -5.4292   13.6234   36.4884 O   0  0  0  0  0  0  0  0  0  0  0  0
   -2.7644   13.7156   34.9353 C   0  0  1  0  0  0  0  0  0  0  0  0
   -2.4411   13.4396   33.5316 C   0  0  2  0  0  0  0  0  0  0  0  0
   -3.5831   13.7054   32.7821 O   0  0  0  0  0  0  0  0  0  0  0  0
   -1.8984   11.9976   33.6275 C   0  0  2  0  0  0  0  0  0  0  0  0
   -2.7660   11.1709   32.8191 O   0  0  0  0  0  0  0  0  0  0  0  0
   -1.9721   11.6558   35.0792 C   0  0  2  0  0  0  0  0  0  0  0  0
   -1.7308   13.0107   35.6026 O   0  0  0  0  0  0  0  0  0  0  0  0
   -0.8098   10.6883   35.5121 C   0  0  0  0  0  0  0  0  0  0  0  0
   -0.8298   10.3470   36.9306 O   0  0  0  0  0  0  0  0  0  0  0  0
   -2.2117    9.9116   32.3313 C   0  0  2  0  0  0  0  0  0  0  0  0
   -3.1161    8.6982   32.9006 C   0  0  2  0  0  0  0  0  0  0  0  0
   -3.1296    8.7544   34.3984 N   0  0  0  0  0  0  0  0  0  0  0  0
   -2.5016    7.3162   32.3562 C   0  0  1  0  0  0  0  0  0  0  0  0
   -2.5298    7.3736   30.8976 O   0  0  0  0  0  0  0  0  0  0  0  0
   -1.0097    7.1499   32.8956 C   0  0  2  0  0  0  0  0  0  0  0  0
   -1.0657    7.0857   34.3731 O   0  0  0  0  0  0  0  0  0  0  0  0
   -0.1304    8.4143   32.3570 C   0  0  1  0  0  0  0  0  0  0  0  0
   -0.7630    9.7035   32.8181 O   0  0  0  0  0  0  0  0  0  0  0  0
    1.3382    8.2926   32.8831 C   0  0  0  0  0  0  0  0  0  0  0  0
    1.4306    8.3869   34.3731 N   0  0  0  0  0  0  0  0  0  0  0  0
  1  3  1  0  0  0  0
  1  2  1  1  0  0  0
  3  4  1  1  0  0  0
  3  5  1  0  0  0  0
  5  6  1  6  0  0  0
  7  8  1  1  0  0  0
  7  5  1  0  0  0  0
  9 11  1  6  0  0  0
  9  7  1  0  0  0  0
 10  9  1  0  0  0  0
 10  1  1  0  0  0  0
 12 11  1  0  0  0  0
 13 14  1  6  0  0  0
 15 13  1  0  0  0  0
 16 17  1  6  0  0  0
 16 15  1  0  0  0  0
 18  2  1  1  0  0  0
 18 19  1  0  0  0  0
 18 16  1  0  0  0  0
 19 20  1  6  0  0  0
 19 21  1  0  0  0  0
 21 22  1  1  0  0  0
 21 13  1  0  0  0  0
 23 20  1  6  0  0  0
 23 29  1  0  0  0  0
 24 25  1  6  0  0  0
 24 26  1  0  0  0  0
 24 23  1  0  0  0  0
 26 27  1  6  0  0  0
 26 28  1  0  0  0  0
 28 30  1  1  0  0  0
 29 28  1  0  0  0  0
 30 31  1  0  0  0  0
 32 27  1  1  0  0  0
 32 40  1  0  0  0  0
 33 35  1  0  0  0  0
 33 32  1  0  0  0  0
 33 34  1  1  0  0  0
 35 36  1  6  0  0  0
 35 37  1  0  0  0  0
 37 38  1  1  0  0  0
 37 39  1  0  0  0  0
 39 41  1  1  0  0  0
 40 39  1  0  0  0  0
 41 42  1  0  0  0  0
M  END
>  <CHROM.1>
-178.72252131,-179.16853413,171.46896746,165.33850135,170.56791970,157.35114016
178.96151652,120.11775625,-64.31300977,-1.96324451,13.79915989,35.01078184
-1.61212384,-0.43661206,-2.85820687

>  <Name>
lig.pdb

>  <RI>
0

>  <Rbt.Current_Directory>
/home/itssahil/PROJECTS/Mol_Feturizer/New_Systems/rnas/4wcr

>  <Rbt.Executable>
rbdock ($Id: //depot/dev/client3/rdock/2013.1/src/exe/rbdock.cxx#4 $)

>  <Rbt.Library>
libRbt.so (2013.1, Build901 2013/11/27)

>  <Rbt.Parameter_File>
/export/apps/rDock/src/rDock_2013.1_src/data/scripts/dock_solv.prm

>  <Rbt.Receptor>
prm/pocket_docking_5.prm

>  <SCORE>
-7.31669

>  <SCORE.INTER>
-4.10999

>  <SCORE.INTER.CONST>
1

>  <SCORE.INTER.POLAR>
0

>  <SCORE.INTER.ROT>
9

>  <SCORE.INTER.SOLV>
20.5386

>  <SCORE.INTER.VDW>
-19.1862

>  <SCORE.INTER.norm>
-0.0978569

>  <SCORE.INTRA>
-3.2067

>  <SCORE.INTRA.DIHEDRAL>
-4.47853

>  <SCORE.INTRA.DIHEDRAL.0>
16.2863

>  <SCORE.INTRA.POLAR>
0

>  <SCORE.INTRA.POLAR.0>
0

>  <SCORE.INTRA.REPUL>
-0.314433

>  <SCORE.INTRA.REPUL.0>
0.314433

>  <SCORE.INTRA.SOLV>
-1.04362

>  <SCORE.INTRA.SOLV.lig_0>
-103.824

>  <SCORE.INTRA.VDW>
1.12654

>  <SCORE.INTRA.VDW.0>
-5.30945

>  <SCORE.INTRA.norm>
-0.0763501

>  <SCORE.RESTR>
0

>  <SCORE.RESTR.CAVITY>
0

>  <SCORE.RESTR.norm>
0

>  <SCORE.SYSTEM>
0

>  <SCORE.SYSTEM.CONST>
0

>  <SCORE.SYSTEM.DIHEDRAL>
0

>  <SCORE.SYSTEM.SOLV>
0

>  <SCORE.SYSTEM.norm>
0

>  <SCORE.heavy>
42

>  <SCORE.norm>
-0.174207

>  <RMSD>
2.804

$$$$
lig.pdb
 OpenBabel11021811513D
libRbt.so/2013.1/901 2013/11/27
 42 45  0  0  0  0  0  0  0  0999 V2000
   -0.5923   17.8403   38.2217 C   0  0  2  0  0  0  0  0  0  0  0  0
   -1.3047   17.2154   37.1085 O   0  0  0  0  0  0  0  0  0  0  0  0
    0.9576   17.7524   37.8609 C   0  0  2  0  0  0  0  0  0  0  0  0
    1.2379   18.5038   36.6343 N   0  0  0  0  0  0  0  0  0  0  0  0
    1.3715   16.2057   37.7330 C   0  0  1  0  0  0  0  0  0  0  0  0
    2.7727   16.0661   37.4173 O   0  0  0  0  0  0  0  0  0  0  0  0
    1.0223   15.5298   39.0700 C   0  0  2  0  0  0  0  0  0  0  0  0
    1.3655   14.1881   38.9953 O   0  0  0  0  0  0  0  0  0  0  0  0
   -0.5348   15.7031   39.3766 C   0  0  2  0  0  0  0  0  0  0  0  0
   -0.8985   17.0870   39.4556 O   0  0  0  0  0  0  0  0  0  0  0  0
   -0.9252   15.0752   40.6844 C   0  0  0  0  0  0  0  0  0  0  0  0
   -2.3385   15.2213   40.8292 O   0  0  0  0  0  0  0  0  0  0  0  0
   -5.4456   16.8778   38.6935 C   0  0  2  0  0  0  0  0  0  0  0  0
   -6.8903   16.8214   38.7453 N   0  0  0  0  0  0  0  0  0  0  0  0
   -4.9781   18.2075   37.9849 C   0  0  0  0  0  0  0  0  0  0  0  0
   -3.4128   18.2909   37.9120 C   0  0  2  0  0  0  0  0  0  0  0  0
   -3.0225   19.5307   37.2439 N   0  0  0  0  0  0  0  0  0  0  0  0
   -2.7740   17.0622   37.1243 C   0  0  2  0  0  0  0  0  0  0  0  0
   -3.2129   15.7610   37.8565 C   0  0  2  0  0  0  0  0  0  0  0  0
   -2.5625   14.6547   37.0591 O   0  0  0  0  0  0  0  0  0  0  0  0
   -4.8360   15.6477   37.8692 C   0  0  1  0  0  0  0  0  0  0  0  0
   -5.3682   14.4858   38.5827 O   0  0  0  0  0  0  0  0  0  0  0  0
   -2.8428   13.4239   37.5919 C   0  0  1  0  0  0  0  0  0  0  0  0
   -2.2389   12.3197   36.8388 C   0  0  2  0  0  0  0  0  0  0  0  0
   -2.9506   12.1892   35.6500 O   0  0  0  0  0  0  0  0  0  0  0  0
   -2.2734   11.1877   37.8879 C   0  0  2  0  0  0  0  0  0  0  0  0
   -3.0951   10.1336   37.3372 O   0  0  0  0  0  0  0  0  0  0  0  0
   -2.8788   11.8095   39.1030 C   0  0  2  0  0  0  0  0  0  0  0  0
   -2.3538   13.1697   38.8983 O   0  0  0  0  0  0  0  0  0  0  0  0
   -2.2961   11.1929   40.4277 C   0  0  0  0  0  0  0  0  0  0  0  0
   -0.8573   11.3830   40.5785 O   0  0  0  0  0  0  0  0  0  0  0  0
   -2.5560    9.4061   36.1921 C   0  0  2  0  0  0  0  0  0  0  0  0
   -3.6133    8.2582   35.7695 C   0  0  2  0  0  0  0  0  0  0  0  0
   -3.8508    7.3521   36.9397 N   0  0  0  0  0  0  0  0  0  0  0  0
   -3.0141    7.4647   34.5064 C   0  0  1  0  0  0  0  0  0  0  0  0
   -2.8162    8.4383   33.4365 O   0  0  0  0  0  0  0  0  0  0  0  0
   -1.6356    6.7757   34.9180 C   0  0  2  0  0  0  0  0  0  0  0  0
   -1.9198    5.7975   35.9915 O   0  0  0  0  0  0  0  0  0  0  0  0
   -0.6045    7.9466   35.3951 C   0  0  1  0  0  0  0  0  0  0  0  0
   -1.2148    8.7252   36.5335 O   0  0  0  0  0  0  0  0  0  0  0  0
    0.7560    7.3032   35.8238 C   0  0  0  0  0  0  0  0  0  0  0  0
    0.6271    6.4178   37.0224 N   0  0  0  0  0  0  0  0  0  0  0  0
  1  3  1  0  0  0  0
  1  2  1  6  0  0  0
  3  4  1  6  0  0  0
  3  5  1  0  0  0  0
  5  6  1  1  0  0  0
  7  8  1  6  0  0  0
  7  5  1  0  0  0  0
  9 11  1  1  0  0  0
  9  7  1  0  0  0  0
 10  9  1  0  0  0  0
 10  1  1  0  0  0  0
 12 11  1  0  0  0  0
 13 14  1  6  0  0  0
 15 13  1  0  0  0  0
 16 17  1  6  0  0  0
 16 15  1  0  0  0  0
 18  2  1  1  0  0  0
 18 19  1  0  0  0  0
 18 16  1  0  0  0  0
 19 20  1  6  0  0  0
 19 21  1  0  0  0  0
 21 22  1  1  0  0  0
 21 13  1  0  0  0  0
 23 20  1  6  0  0  0
 23 29  1  0  0  0  0
 24 25  1  6  0  0  0
 24 26  1  0  0  0  0
 24 23  1  0  0  0  0
 26 27  1  6  0  0  0
 26 28  1  0  0  0  0
 28 30  1  1  0  0  0
 29 28  1  0  0  0  0
 30 31  1  0  0  0  0
 32 27  1  1  0  0  0
 32 40  1  0  0  0  0
 33 35  1  0  0  0  0
 33 32  1  0  0  0  0
 33 34  1  1  0  0  0
 35 36  1  6  0  0  0
 35 37  1  0  0  0  0
 37 38  1  1  0  0  0
 37 39  1  0  0  0  0
 39 41  1  1  0  0  0
 40 39  1  0  0  0  0
 41 42  1  0  0  0  0
M  END
>  <CHROM.1>
177.31023981,-176.94844663,32.70788638,179.28324192,179.48196406,68.97326140
61.12039510,178.49640135,-64.43970823,-1.93633310,13.17294933,37.61481625
-1.57775019,0.04381927,-2.90340847

>  <Name>
lig.pdb

>  <RI>
0

>  <Rbt.Current_Directory>
/home/itssahil/PROJECTS/Mol_Feturizer/New_Systems/rnas/4wcr

>  <Rbt.Executable>
rbdock ($Id: //depot/dev/client3/rdock/2013.1/src/exe/rbdock.cxx#4 $)

>  <Rbt.Library>
libRbt.so (2013.1, Build901 2013/11/27)

>  <Rbt.Parameter_File>
/export/apps/rDock/src/rDock_2013.1_src/data/scripts/dock_solv.prm

>  <Rbt.Receptor>
prm/pocket_docking_5.prm

>  <SCORE>
-5.02361

>  <SCORE.INTER>
3.49449

>  <SCORE.INTER.CONST>
1

>  <SCORE.INTER.POLAR>
0

>  <SCORE.INTER.ROT>
9

>  <SCORE.INTER.SOLV>
19.3865

>  <SCORE.INTER.VDW>
-13.7325

>  <SCORE.INTER.norm>
0.0832022

>  <SCORE.INTRA>
-8.5181

>  <SCORE.INTRA.DIHEDRAL>
-12.113

>  <SCORE.INTRA.DIHEDRAL.0>
16.2863

>  <SCORE.INTRA.POLAR>
0

>  <SCORE.INTRA.POLAR.0>
0

>  <SCORE.INTRA.REPUL>
-0.304262

>  <SCORE.INTRA.REPUL.0>
0.314433

>  <SCORE.INTRA.SOLV>
-1.36424

>  <SCORE.INTRA.SOLV.lig_0>
-103.824

>  <SCORE.INTRA.VDW>
-0.258154

>  <SCORE.INTRA.VDW.0>
-5.30945

>  <SCORE.INTRA.norm>
-0.202812

>  <SCORE.RESTR>
0

>  <SCORE.RESTR.CAVITY>
0

>  <SCORE.RESTR.norm>
0

>  <SCORE.SYSTEM>
0

>  <SCORE.SYSTEM.CONST>
0

>  <SCORE.SYSTEM.DIHEDRAL>
0

>  <SCORE.SYSTEM.SOLV>
0

>  <SCORE.SYSTEM.norm>
0

>  <SCORE.heavy>
42

>  <SCORE.norm>
-0.11961

>  <RMSD>
2.852

$$$$
lig.pdb
 OpenBabel11021811513D
libRbt.so/2013.1/901 2013/11/27
 42 45  0  0  0  0  0  0  0  0999 V2000
   -0.5535   17.5803   35.3350 C   0  0  2  0  0  0  0  0  0  0  0  0
   -1.2407   17.8700   36.5924 O   0  0  0  0  0  0  0  0  0  0  0  0
    0.9028   18.2136   35.4700 C   0  0  2  0  0  0  0  0  0  0  0  0
    1.6341   17.5783   36.5696 N   0  0  0  0  0  0  0  0  0  0  0  0
    0.7594   19.8004   35.6733 C   0  0  1  0  0  0  0  0  0  0  0  0
    2.0530   20.4294   35.7904 O   0  0  0  0  0  0  0  0  0  0  0  0
   -0.0274   20.3438   34.4683 C   0  0  2  0  0  0  0  0  0  0  0  0
   -0.1725   21.7157   34.6114 O   0  0  0  0  0  0  0  0  0  0  0  0
   -1.4509   19.6266   34.3802 C   0  0  2  0  0  0  0  0  0  0  0  0
   -1.3105   18.2082   34.2321 O   0  0  0  0  0  0  0  0  0  0  0  0
   -2.2537   20.1094   33.2056 C   0  0  0  0  0  0  0  0  0  0  0  0
   -3.5474   19.5106   33.2908 O   0  0  0  0  0  0  0  0  0  0  0  0
   -4.3662   15.6926   38.8865 C   0  0  2  0  0  0  0  0  0  0  0  0
   -5.6515   15.1562   39.2780 N   0  0  0  0  0  0  0  0  0  0  0  0
   -4.4587   17.2584   38.7175 C   0  0  0  0  0  0  0  0  0  0  0  0
   -3.0766   17.8649   38.2881 C   0  0  2  0  0  0  0  0  0  0  0  0
   -3.2071   19.3125   38.1359 N   0  0  0  0  0  0  0  0  0  0  0  0
   -2.5426   17.2523   36.9178 C   0  0  2  0  0  0  0  0  0  0  0  0
   -2.4210   15.7131   37.1120 C   0  0  2  0  0  0  0  0  0  0  0  0
   -1.9039   15.2156   35.7824 O   0  0  0  0  0  0  0  0  0  0  0  0
   -3.8719   15.0816   37.4913 C   0  0  1  0  0  0  0  0  0  0  0  0
   -3.8692   13.6415   37.7525 O   0  0  0  0  0  0  0  0  0  0  0  0
   -1.2385   14.0257   35.9188 C   0  0  1  0  0  0  0  0  0  0  0  0
   -1.1274   13.2808   34.6603 C   0  0  2  0  0  0  0  0  0  0  0  0
   -2.3886   12.7714   34.3661 O   0  0  0  0  0  0  0  0  0  0  0  0
    0.0375   12.3205   34.9827 C   0  0  2  0  0  0  0  0  0  0  0  0
   -0.4860   10.9777   34.8712 O   0  0  0  0  0  0  0  0  0  0  0  0
    0.4416   12.6630   36.3788 C   0  0  2  0  0  0  0  0  0  0  0  0
    0.1196   14.0985   36.3197 O   0  0  0  0  0  0  0  0  0  0  0  0
    1.9843   12.4584   36.6082 C   0  0  0  0  0  0  0  0  0  0  0  0
    2.4521   11.1160   36.2794 O   0  0  0  0  0  0  0  0  0  0  0  0
    0.4348    9.8835   35.1647 C   0  0  2  0  0  0  0  0  0  0  0  0
   -0.0360    8.5796   34.3327 C   0  0  2  0  0  0  0  0  0  0  0  0
   -1.4446    8.2351   34.7119 N   0  0  0  0  0  0  0  0  0  0  0  0
    0.9847    7.3812   34.6583 C   0  0  1  0  0  0  0  0  0  0  0  0
    2.3170    7.8255   34.2594 O   0  0  0  0  0  0  0  0  0  0  0  0
    0.9331    7.0493   36.2177 C   0  0  2  0  0  0  0  0  0  0  0  0
   -0.4381    6.5950   36.5399 O   0  0  0  0  0  0  0  0  0  0  0  0
    1.3556    8.3947   37.0381 C   0  0  1  0  0  0  0  0  0  0  0  0
    0.4307    9.5262   36.6652 O   0  0  0  0  0  0  0  0  0  0  0  0
    1.2987    8.1098   38.5757 C   0  0  0  0  0  0  0  0  0  0  0  0
    1.7148    9.2867   39.3997 N   0  0  0  0  0  0  0  0  0  0  0  0
  1  3  1  0  0  0  0
  1  2  1  1  0  0  0
  3  4  1  1  0  0  0
  3  5  1  0  0  0  0
  5  6  1  6  0  0  0
  7  8  1  1  0  0  0
  7  5  1  0  0  0  0
  9 11  1  6  0  0  0
  9  7  1  0  0  0  0
 10  9  1  0  0  0  0
 10  1  1  0  0  0  0
 12 11  1  0  0  0  0
 13 14  1  6  0  0  0
 15 13  1  0  0  0  0
 16 17  1  6  0  0  0
 16 15  1  0  0  0  0
 18  2  1  1  0  0  0
 18 19  1  0  0  0  0
 18 16  1  0  0  0  0
 19 20  1  6  0  0  0
 19 21  1  0  0  0  0
 21 22  1  1  0  0  0
 21 13  1  0  0  0  0
 23 20  1  6  0  0  0
 23 29  1  0  0  0  0
 24 25  1  1  0  0  0
 24 26  1  0  0  0  0
 24 23  1  0  0  0  0
 26 27  1  1  0  0  0
 26 28  1  0  0  0  0
 28 30  1  6  0  0  0
 29 28  1  0  0  0  0
 30 31  1  0  0  0  0
 32 27  1  1  0  0  0
 32 40  1  0  0  0  0
 33 35  1  0  0  0  0
 33 32  1  0  0  0  0
 33 34  1  1  0  0  0
 35 36  1  1  0  0  0
 35 37  1  0  0  0  0
 37 38  1  1  0  0  0
 37 39  1  0  0  0  0
 39 41  1  1  0  0  0
 40 39  1  0  0  0  0
 41 42  1  0  0  0  0
M  END
>  <CHROM.1>
-170.17810149,-174.43245547,-175.20161174,155.33169504,160.07855670,-178.62509835
-55.29178529,-152.58186030,178.23114280,-0.78117748,14.23254386,36.07109095
-1.80657241,-0.52067309,2.98682810

>  <Name>
lig.pdb

>  <RI>
0

>  <Rbt.Current_Directory>
/home/itssahil/PROJECTS/Mol_Feturizer/New_Systems/rnas/4wcr

>  <Rbt.Executable>
rbdock ($Id: //depot/dev/client3/rdock/2013.1/src/exe/rbdock.cxx#4 $)

>  <Rbt.Library>
libRbt.so (2013.1, Build901 2013/11/27)

>  <Rbt.Parameter_File>
/export/apps/rDock/src/rDock_2013.1_src/data/scripts/dock_solv.prm

>  <Rbt.Receptor>
prm/pocket_docking_5.prm

>  <SCORE>
-12.8863

>  <SCORE.INTER>
-7.02593

>  <SCORE.INTER.CONST>
1

>  <SCORE.INTER.POLAR>
0

>  <SCORE.INTER.ROT>
9

>  <SCORE.INTER.SOLV>
23.9666

>  <SCORE.INTER.VDW>
-22.2728

>  <SCORE.INTER.norm>
-0.167284

>  <SCORE.INTRA>
-5.86528

>  <SCORE.INTRA.DIHEDRAL>
-7.48184

>  <SCORE.INTRA.DIHEDRAL.0>
16.2863

>  <SCORE.INTRA.POLAR>
0

>  <SCORE.INTRA.POLAR.0>
0

>  <SCORE.INTRA.REPUL>
-0.314433

>  <SCORE.INTRA.REPUL.0>
0.314433

>  <SCORE.INTRA.SOLV>
-4.17995

>  <SCORE.INTRA.SOLV.lig_0>
-103.824

>  <SCORE.INTRA.VDW>
1.53778

>  <SCORE.INTRA.VDW.0>
-5.30945

>  <SCORE.INTRA.norm>
-0.13965

>  <SCORE.RESTR>
0.00486973

>  <SCORE.RESTR.CAVITY>
0.00486973

>  <SCORE.RESTR.norm>
0.000115946

>  <SCORE.SYSTEM>
0

>  <SCORE.SYSTEM.CONST>
0

>  <SCORE.SYSTEM.DIHEDRAL>
0

>  <SCORE.SYSTEM.SOLV>
0

>  <SCORE.SYSTEM.norm>
0

>  <SCORE.heavy>
42

>  <SCORE.norm>
-0.306818

>  <RMSD>
2.896

$$$$
lig.pdb
 OpenBabel11021811513D
libRbt.so/2013.1/901 2013/11/27
 42 45  0  0  0  0  0  0  0  0999 V2000
   -1.2036   16.8952   35.7404 C   0  0  2  0  0  0  0  0  0  0  0  0
   -1.7717   17.6734   36.8399 O   0  0  0  0  0  0  0  0  0  0  0  0
    0.0548   17.7213   35.2169 C   0  0  2  0  0  0  0  0  0  0  0  0
    1.0574   17.8482   36.2782 N   0  0  0  0  0  0  0  0  0  0  0  0
   -0.4500   19.1503   34.6850 C   0  0  1  0  0  0  0  0  0  0  0  0
    0.6510   19.9390   34.1867 O   0  0  0  0  0  0  0  0  0  0  0  0
   -1.4968   18.8836   33.5897 C   0  0  2  0  0  0  0  0  0  0  0  0
   -1.9578   20.0994   33.1069 O   0  0  0  0  0  0  0  0  0  0  0  0
   -2.6969   18.0150   34.1845 C   0  0  2  0  0  0  0  0  0  0  0  0
   -2.2295   16.7565   34.6859 O   0  0  0  0  0  0  0  0  0  0  0  0
   -3.7400   17.7099   33.1472 C   0  0  0  0  0  0  0  0  0  0  0  0
   -3.2543   16.6286   32.3506 O   0  0  0  0  0  0  0  0  0  0  0  0
   -4.5692   16.5830   40.1198 C   0  0  2  0  0  0  0  0  0  0  0  0
   -5.7901   16.2625   40.8267 N   0  0  0  0  0  0  0  0  0  0  0  0
   -4.7115   17.9753   39.3918 C   0  0  0  0  0  0  0  0  0  0  0  0
   -3.4001   18.3445   38.6130 C   0  0  2  0  0  0  0  0  0  0  0  0
   -3.5759   19.6343   37.9488 N   0  0  0  0  0  0  0  0  0  0  0  0
   -3.0151   17.2532   37.5180 C   0  0  2  0  0  0  0  0  0  0  0  0
   -2.8416   15.8942   38.2560 C   0  0  2  0  0  0  0  0  0  0  0  0
   -2.4709   14.9253   37.1575 O   0  0  0  0  0  0  0  0  0  0  0  0
   -4.2264   15.4849   39.0058 C   0  0  1  0  0  0  0  0  0  0  0  0
   -4.1653   14.2457   39.7822 O   0  0  0  0  0  0  0  0  0  0  0  0
   -2.0707   13.7191   37.6695 C   0  0  1  0  0  0  0  0  0  0  0  0
   -1.6851   12.7540   36.6346 C   0  0  2  0  0  0  0  0  0  0  0  0
   -2.8525   12.3275   36.0085 O   0  0  0  0  0  0  0  0  0  0  0  0
   -0.8401   11.7564   37.4555 C   0  0  2  0  0  0  0  0  0  0  0  0
   -1.4998   10.4737   37.3600 O   0  0  0  0  0  0  0  0  0  0  0  0
   -0.8470   12.3013   38.8458 C   0  0  2  0  0  0  0  0  0  0  0  0
   -0.9122   13.7278   38.4871 O   0  0  0  0  0  0  0  0  0  0  0  0
    0.4961   11.9895   39.6029 C   0  0  0  0  0  0  0  0  0  0  0  0
    1.0822   10.7010   39.2490 O   0  0  0  0  0  0  0  0  0  0  0  0
   -0.8994    9.3660   38.0972 C   0  0  2  0  0  0  0  0  0  0  0  0
   -1.5014    7.9803   37.5213 C   0  0  2  0  0  0  0  0  0  0  0  0
   -2.9936    7.9952   37.6618 N   0  0  0  0  0  0  0  0  0  0  0  0
   -0.8328    6.7661   38.3353 C   0  0  1  0  0  0  0  0  0  0  0  0
    0.6109    6.8530   38.1359 O   0  0  0  0  0  0  0  0  0  0  0  0
   -1.2077    6.8932   39.8805 C   0  0  2  0  0  0  0  0  0  0  0  0
   -2.6785    6.7821   40.0014 O   0  0  0  0  0  0  0  0  0  0  0  0
   -0.6412    8.3230   40.4252 C   0  0  1  0  0  0  0  0  0  0  0  0
   -1.2245    9.4447   39.6029 O   0  0  0  0  0  0  0  0  0  0  0  0
   -1.0073    8.4894   41.9374 C   0  0  0  0  0  0  0  0  0  0  0  0
   -0.4848    9.7621   42.5243 N   0  0  0  0  0  0  0  0  0  0  0  0
  1  3  1  0  0  0  0
  1  2  1  1  0  0  0
  3  4  1  1  0  0  0
  3  5  1  0  0  0  0
  5  6  1  6  0  0  0
  7  8  1  1  0  0  0
  7  5  1  0  0  0  0
  9 11  1  6  0  0  0
  9  7  1  0  0  0  0
 10  9  1  0  0  0  0
 10  1  1  0  0  0  0
 12 11  1  0  0  0  0
 13 14  1  6  0  0  0
 15 13  1  0  0  0  0
 16 17  1  6  0  0  0
 16 15  1  0  0  0  0
 18  2  1  1  0  0  0
 18 19  1  0  0  0  0
 18 16  1  0  0  0  0
 19 20  1  6  0  0  0
 19 21  1  0  0  0  0
 21 22  1  1  0  0  0
 21 13  1  0  0  0  0
 23 20  1  6  0  0  0
 23 29  1  0  0  0  0
 24 25  1  1  0  0  0
 24 26  1  0  0  0  0
 24 23  1  0  0  0  0
 26 27  1  1  0  0  0
 26 28  1  0  0  0  0
 28 30  1  6  0  0  0
 29 28  1  0  0  0  0
 30 31  1  0  0  0  0
 32 27  1  6  0  0  0
 32 40  1  0  0  0  0
 33 35  1  0  0  0  0
 33 32  1  0  0  0  0
 33 34  1  1  0  0  0
 35 36  1  1  0  0  0
 35 37  1  0  0  0  0
 37 38  1  6  0  0  0
 37 39  1  0  0  0  0
 39 41  1  1  0  0  0
 40 39  1  0  0  0  0
 41 42  1  0  0  0  0
M  END
>  <CHROM.1>
175.99630337,79.22735303,-177.28290339,170.19446567,-179.26546149,-178.26629267
-34.69553060,-163.37128416,178.25716078,-1.84274914,13.85213630,37.54637798
-1.76061322,-1.00839780,2.59382321

>  <Name>
lig.pdb

>  <RI>
0

>  <Rbt.Current_Directory>
/home/itssahil/PROJECTS/Mol_Feturizer/New_Systems/rnas/4wcr

>  <Rbt.Executable>
rbdock ($Id: //depot/dev/client3/rdock/2013.1/src/exe/rbdock.cxx#4 $)

>  <Rbt.Library>
libRbt.so (2013.1, Build901 2013/11/27)

>  <Rbt.Parameter_File>
/export/apps/rDock/src/rDock_2013.1_src/data/scripts/dock_solv.prm

>  <Rbt.Receptor>
prm/pocket_docking_4.prm

>  <SCORE>
-5.33441

>  <SCORE.INTER>
1.47689

>  <SCORE.INTER.CONST>
1

>  <SCORE.INTER.POLAR>
0

>  <SCORE.INTER.ROT>
9

>  <SCORE.INTER.SOLV>
18.2626

>  <SCORE.INTER.VDW>
-14.7029

>  <SCORE.INTER.norm>
0.035164

>  <SCORE.INTRA>
-6.8113

>  <SCORE.INTRA.DIHEDRAL>
-10.9886

>  <SCORE.INTRA.DIHEDRAL.0>
16.2863

>  <SCORE.INTRA.POLAR>
0

>  <SCORE.INTRA.POLAR.0>
0

>  <SCORE.INTRA.REPUL>
-0.314433

>  <SCORE.INTRA.REPUL.0>
0.314433

>  <SCORE.INTRA.SOLV>
-3.86751

>  <SCORE.INTRA.SOLV.lig_0>
-103.824

>  <SCORE.INTRA.VDW>
2.18891

>  <SCORE.INTRA.VDW.0>
-5.30945

>  <SCORE.INTRA.norm>
-0.162174

>  <SCORE.RESTR>
0

>  <SCORE.RESTR.CAVITY>
0

>  <SCORE.RESTR.norm>
0

>  <SCORE.SYSTEM>
0

>  <SCORE.SYSTEM.CONST>
0

>  <SCORE.SYSTEM.DIHEDRAL>
0

>  <SCORE.SYSTEM.SOLV>
0

>  <SCORE.SYSTEM.norm>
0

>  <SCORE.heavy>
42

>  <SCORE.norm>
-0.12701

>  <RMSD>
2.898

$$$$
lig.pdb
 OpenBabel11021811513D
libRbt.so/2013.1/901 2013/11/27
 42 45  0  0  0  0  0  0  0  0999 V2000
   -3.0164   17.5530   37.5609 C   0  0  2  0  0  0  0  0  0  0  0  0
   -3.9711   16.9278   36.6472 O   0  0  0  0  0  0  0  0  0  0  0  0
   -1.9948   18.3654   36.6465 C   0  0  2  0  0  0  0  0  0  0  0  0
   -2.6995   19.4139   35.9037 N   0  0  0  0  0  0  0  0  0  0  0  0
   -1.2403   17.3346   35.6729 C   0  0  1  0  0  0  0  0  0  0  0  0
   -0.2912   18.0170   34.8267 O   0  0  0  0  0  0  0  0  0  0  0  0
   -0.5526   16.2871   36.5652 C   0  0  2  0  0  0  0  0  0  0  0  0
    0.1097   15.3762   35.7556 O   0  0  0  0  0  0  0  0  0  0  0  0
   -1.6375   15.5540   37.4783 C   0  0  2  0  0  0  0  0  0  0  0  0
   -2.3270   16.4880   38.3186 O   0  0  0  0  0  0  0  0  0  0  0  0
   -1.0132   14.5315   38.3850 C   0  0  0  0  0  0  0  0  0  0  0  0
   -0.0327   15.1999   39.1798 O   0  0  0  0  0  0  0  0  0  0  0  0
   -6.2409   14.2193   39.3462 C   0  0  2  0  0  0  0  0  0  0  0  0
   -7.3216   13.4382   39.9075 N   0  0  0  0  0  0  0  0  0  0  0  0
   -6.6849   15.7244   39.1835 C   0  0  0  0  0  0  0  0  0  0  0  0
   -5.5302   16.5931   38.5716 C   0  0  2  0  0  0  0  0  0  0  0  0
   -5.9837   17.9753   38.4310 N   0  0  0  0  0  0  0  0  0  0  0  0
   -5.0591   16.0616   37.1455 C   0  0  2  0  0  0  0  0  0  0  0  0
   -4.5893   14.5895   37.3293 C   0  0  2  0  0  0  0  0  0  0  0  0
   -4.1538   14.1682   35.9452 O   0  0  0  0  0  0  0  0  0  0  0  0
   -5.8117   13.6803   37.9007 C   0  0  1  0  0  0  0  0  0  0  0  0
   -5.4696   12.2822   38.1662 O   0  0  0  0  0  0  0  0  0  0  0  0
   -3.6736   12.8850   35.9416 C   0  0  1  0  0  0  0  0  0  0  0  0
   -3.4754   12.3484   34.5911 C   0  0  2  0  0  0  0  0  0  0  0  0
   -4.7346   12.0917   34.0570 O   0  0  0  0  0  0  0  0  0  0  0  0
   -2.5032   11.1826   34.8719 C   0  0  2  0  0  0  0  0  0  0  0  0
   -3.1724    9.9715   34.4534 O   0  0  0  0  0  0  0  0  0  0  0  0
   -2.2678   11.2262   36.3458 C   0  0  2  0  0  0  0  0  0  0  0  0
   -2.3909   12.6840   36.5117 O   0  0  0  0  0  0  0  0  0  0  0  0
   -0.8145   10.7550   36.7202 C   0  0  0  0  0  0  0  0  0  0  0  0
   -0.5144    9.3908   36.2981 O   0  0  0  0  0  0  0  0  0  0  0  0
   -2.3409    8.7846   34.2779 C   0  0  2  0  0  0  0  0  0  0  0  0
   -2.9144    7.9367   33.0264 C   0  0  2  0  0  0  0  0  0  0  0  0
   -4.3454    7.5767   33.2895 N   0  0  0  0  0  0  0  0  0  0  0  0
   -1.9915    6.6341   32.8378 C   0  0  1  0  0  0  0  0  0  0  0  0
   -0.6286    7.0992   32.5970 O   0  0  0  0  0  0  0  0  0  0  0  0
   -2.0675    5.7350   34.1532 C   0  0  2  0  0  0  0  0  0  0  0  0
   -3.4699    5.2930   34.3205 O   0  0  0  0  0  0  0  0  0  0  0  0
   -1.5388    6.6291   35.4114 C   0  0  1  0  0  0  0  0  0  0  0  0
   -2.3715    7.8812   35.5278 O   0  0  0  0  0  0  0  0  0  0  0  0
   -1.6162    5.7820   36.7247 C   0  0  0  0  0  0  0  0  0  0  0  0
   -3.0129    5.3724   37.0696 N   0  0  0  0  0  0  0  0  0  0  0  0
  1  3  1  0  0  0  0
  1  2  1  6  0  0  0
  3  4  1  6  0  0  0
  3  5  1  0  0  0  0
  5  6  1  1  0  0  0
  7  8  1  6  0  0  0
  7  5  1  0  0  0  0
  9 11  1  1  0  0  0
  9  7  1  0  0  0  0
 10  9  1  0  0  0  0
 10  1  1  0  0  0  0
 12 11  1  0  0  0  0
 13 14  1  6  0  0  0
 15 13  1  0  0  0  0
 16 17  1  6  0  0  0
 16 15  1  0  0  0  0
 18  2  1  1  0  0  0
 18 19  1  0  0  0  0
 18 16  1  0  0  0  0
 19 20  1  6  0  0  0
 19 21  1  0  0  0  0
 21 22  1  1  0  0  0
 21 13  1  0  0  0  0
 23 20  1  6  0  0  0
 23 29  1  0  0  0  0
 24 25  1  1  0  0  0
 24 26  1  0  0  0  0
 24 23  1  0  0  0  0
 26 27  1  1  0  0  0
 26 28  1  0  0  0  0
 28 30  1  6  0  0  0
 29 28  1  0  0  0  0
 30 31  1  0  0  0  0
 32 27  1  1  0  0  0
 32 40  1  0  0  0  0
 33 35  1  0  0  0  0
 33 32  1  0  0  0  0
 33 34  1  1  0  0  0
 35 36  1  1  0  0  0
 35 37  1  0  0  0  0
 37 38  1  1  0  0  0
 37 39  1  0  0  0  0
 39 41  1  1  0  0  0
 40 39  1  0  0  0  0
 41 42  1  0  0  0  0
M  END
>  <CHROM.1>
178.63690866,57.34137329,32.92575609,178.48577026,169.23232945,163.88706752
-59.65299874,-143.98396902,-62.23148930,-2.95381896,12.53052075,36.27163108
-1.68010904,-0.48890061,-2.91102260

>  <Name>
lig.pdb

>  <RI>
0

>  <Rbt.Current_Directory>
/home/itssahil/PROJECTS/Mol_Feturizer/New_Systems/rnas/4wcr

>  <Rbt.Executable>
rbdock ($Id: //depot/dev/client3/rdock/2013.1/src/exe/rbdock.cxx#4 $)

>  <Rbt.Library>
libRbt.so (2013.1, Build901 2013/11/27)

>  <Rbt.Parameter_File>
/export/apps/rDock/src/rDock_2013.1_src/data/scripts/dock_solv.prm

>  <Rbt.Receptor>
prm/pocket_docking_3.prm

>  <SCORE>
1.91693

>  <SCORE.INTER>
6.98682

>  <SCORE.INTER.CONST>
1

>  <SCORE.INTER.POLAR>
0

>  <SCORE.INTER.ROT>
9

>  <SCORE.INTER.SOLV>
13.4527

>  <SCORE.INTER.VDW>
-9.42635

>  <SCORE.INTER.norm>
0.166353

>  <SCORE.INTRA>
-5.06989

>  <SCORE.INTRA.DIHEDRAL>
-6.19057

>  <SCORE.INTRA.DIHEDRAL.0>
16.2863

>  <SCORE.INTRA.POLAR>
0

>  <SCORE.INTRA.POLAR.0>
0

>  <SCORE.INTRA.REPUL>
-0.314433

>  <SCORE.INTRA.REPUL.0>
0.314433

>  <SCORE.INTRA.SOLV>
-1.76233

>  <SCORE.INTRA.SOLV.lig_0>
-103.824

>  <SCORE.INTRA.VDW>
0.478722

>  <SCORE.INTRA.VDW.0>
-5.30945

>  <SCORE.INTRA.norm>
-0.120712

>  <SCORE.RESTR>
0

>  <SCORE.RESTR.CAVITY>
0

>  <SCORE.RESTR.norm>
0

>  <SCORE.SYSTEM>
0

>  <SCORE.SYSTEM.CONST>
0

>  <SCORE.SYSTEM.DIHEDRAL>
0

>  <SCORE.SYSTEM.SOLV>
0

>  <SCORE.SYSTEM.norm>
0

>  <SCORE.heavy>
42

>  <SCORE.norm>
0.0456412

>  <RMSD>
2.902

$$$$
lig.pdb
 OpenBabel11021811513D
libRbt.so/2013.1/901 2013/11/27
 42 45  0  0  0  0  0  0  0  0999 V2000
   -0.7882   14.6611   36.2277 C   0  0  2  0  0  0  0  0  0  0  0  0
   -1.5935   15.0099   37.3969 O   0  0  0  0  0  0  0  0  0  0  0  0
    0.6712   14.3319   36.7771 C   0  0  2  0  0  0  0  0  0  0  0  0
    0.6259   13.1818   37.6843 N   0  0  0  0  0  0  0  0  0  0  0  0
    1.2633   15.6439   37.4897 C   0  0  1  0  0  0  0  0  0  0  0  0
    2.5928   15.4053   37.9980 O   0  0  0  0  0  0  0  0  0  0  0  0
    1.2506   16.7732   36.4453 C   0  0  2  0  0  0  0  0  0  0  0  0
    1.7552   17.9263   37.0280 O   0  0  0  0  0  0  0  0  0  0  0  0
   -0.2370   17.0070   35.9153 C   0  0  2  0  0  0  0  0  0  0  0  0
   -0.7666   15.8202   35.3113 O   0  0  0  0  0  0  0  0  0  0  0  0
   -0.3016   18.0901   34.8762 C   0  0  0  0  0  0  0  0  0  0  0  0
   -1.6664   18.2266   34.4783 O   0  0  0  0  0  0  0  0  0  0  0  0
   -5.9029   15.0113   38.4928 C   0  0  2  0  0  0  0  0  0  0  0  0
   -7.3217   15.2928   38.4643 N   0  0  0  0  0  0  0  0  0  0  0  0
   -5.0815   16.3579   38.5203 C   0  0  0  0  0  0  0  0  0  0  0  0
   -3.5374   16.0796   38.5471 C   0  0  2  0  0  0  0  0  0  0  0  0
   -2.8146   17.3497   38.5647 N   0  0  0  0  0  0  0  0  0  0  0  0
   -3.0502   15.2310   37.2898 C   0  0  2  0  0  0  0  0  0  0  0  0
   -3.8415   13.8911   37.2976 C   0  0  2  0  0  0  0  0  0  0  0  0
   -3.3172   13.1488   36.0906 O   0  0  0  0  0  0  0  0  0  0  0  0
   -5.4390   14.1853   37.2018 C   0  0  1  0  0  0  0  0  0  0  0  0
   -6.2902   12.9959   37.2566 O   0  0  0  0  0  0  0  0  0  0  0  0
   -3.8944   11.9115   35.9756 C   0  0  1  0  0  0  0  0  0  0  0  0
   -3.2140   11.0469   35.0057 C   0  0  2  0  0  0  0  0  0  0  0  0
   -3.5179   11.5275   33.7355 O   0  0  0  0  0  0  0  0  0  0  0  0
   -3.7139    9.6537   35.4444 C   0  0  2  0  0  0  0  0  0  0  0  0
   -4.4329    9.0960   34.3212 O   0  0  0  0  0  0  0  0  0  0  0  0
   -4.5997    9.9161   36.6175 C   0  0  2  0  0  0  0  0  0  0  0  0
   -3.8822   11.0936   37.1338 O   0  0  0  0  0  0  0  0  0  0  0  0
   -4.5474    8.7427   37.6639 C   0  0  0  0  0  0  0  0  0  0  0  0
   -4.9349    7.4486   37.1123 O   0  0  0  0  0  0  0  0  0  0  0  0
   -3.6432    8.3914   33.3157 C   0  0  2  0  0  0  0  0  0  0  0  0
   -4.5856    8.0997   32.0348 C   0  0  2  0  0  0  0  0  0  0  0  0
   -5.7734    7.2956   32.4698 N   0  0  0  0  0  0  0  0  0  0  0  0
   -3.7079    7.3275   30.9315 C   0  0  1  0  0  0  0  0  0  0  0  0
   -2.5824    8.1923   30.5894 O   0  0  0  0  0  0  0  0  0  0  0  0
   -3.2030    5.9387   31.5323 C   0  0  2  0  0  0  0  0  0  0  0  0
   -4.3948    5.1168   31.8393 O   0  0  0  0  0  0  0  0  0  0  0  0
   -2.3028    6.2545   32.8558 C   0  0  1  0  0  0  0  0  0  0  0  0
   -3.1214    7.0412   33.8486 O   0  0  0  0  0  0  0  0  0  0  0  0
   -1.8041    4.9103   33.4827 C   0  0  0  0  0  0  0  0  0  0  0  0
   -0.9606    5.1159   34.7007 N   0  0  0  0  0  0  0  0  0  0  0  0
  1  3  1  0  0  0  0
  1  2  1  1  0  0  0
  3  4  1  1  0  0  0
  3  5  1  0  0  0  0
  5  6  1  6  0  0  0
  7  8  1  1  0  0  0
  7  5  1  0  0  0  0
  9 11  1  6  0  0  0
  9  7  1  0  0  0  0
 10  9  1  0  0  0  0
 10  1  1  0  0  0  0
 12 11  1  0  0  0  0
 13 14  1  6  0  0  0
 15 13  1  0  0  0  0
 16 17  1  6  0  0  0
 16 15  1  0  0  0  0
 18  2  1  1  0  0  0
 18 19  1  0  0  0  0
 18 16  1  0  0  0  0
 19 20  1  6  0  0  0
 19 21  1  0  0  0  0
 21 22  1  1  0  0  0
 21 13  1  0  0  0  0
 23 20  1  1  0  0  0
 23 29  1  0  0  0  0
 24 25  1  6  0  0  0
 24 26  1  0  0  0  0
 24 23  1  0  0  0  0
 26 27  1  6  0  0  0
 26 28  1  0  0  0  0
 28 30  1  1  0  0  0
 29 28  1  0  0  0  0
 30 31  1  0  0  0  0
 32 27  1  1  0  0  0
 32 40  1  0  0  0  0
 33 35  1  0  0  0  0
 33 32  1  0  0  0  0
 33 34  1  1  0  0  0
 35 36  1  1  0  0  0
 35 37  1  0  0  0  0
 37 38  1  1  0  0  0
 37 39  1  0  0  0  0
 39 41  1  1  0  0  0
 40 39  1  0  0  0  0
 41 42  1  0  0  0  0
M  END
>  <CHROM.1>
-173.10733160,-179.55762466,-159.79568801,178.19356921,-167.39002964,85.58071701
-58.48611891,-169.49148493,179.62675020,-2.76777376,12.03543282,35.60544034
-1.33137748,-0.35405947,-2.66440130

>  <Name>
lig.pdb

>  <RI>
0

>  <Rbt.Current_Directory>
/home/itssahil/PROJECTS/Mol_Feturizer/New_Systems/rnas/4wcr

>  <Rbt.Executable>
rbdock ($Id: //depot/dev/client3/rdock/2013.1/src/exe/rbdock.cxx#4 $)

>  <Rbt.Library>
libRbt.so (2013.1, Build901 2013/11/27)

>  <Rbt.Parameter_File>
/export/apps/rDock/src/rDock_2013.1_src/data/scripts/dock_solv.prm

>  <Rbt.Receptor>
prm/pocket_docking_7.prm

>  <SCORE>
-9.48723

>  <SCORE.INTER>
-1.36565

>  <SCORE.INTER.CONST>
1

>  <SCORE.INTER.POLAR>
0

>  <SCORE.INTER.ROT>
9

>  <SCORE.INTER.SOLV>
19.9187

>  <SCORE.INTER.VDW>
-17.15

>  <SCORE.INTER.norm>
-0.0325155

>  <SCORE.INTRA>
-8.12158

>  <SCORE.INTRA.DIHEDRAL>
-9.67518

>  <SCORE.INTRA.DIHEDRAL.0>
16.2863

>  <SCORE.INTRA.POLAR>
0

>  <SCORE.INTRA.POLAR.0>
0

>  <SCORE.INTRA.REPUL>
-0.314433

>  <SCORE.INTRA.REPUL.0>
0.314433

>  <SCORE.INTRA.SOLV>
-5.48551

>  <SCORE.INTRA.SOLV.lig_0>
-103.824

>  <SCORE.INTRA.VDW>
1.03093

>  <SCORE.INTRA.VDW.0>
-5.30945

>  <SCORE.INTRA.norm>
-0.193371

>  <SCORE.RESTR>
0

>  <SCORE.RESTR.CAVITY>
0

>  <SCORE.RESTR.norm>
0

>  <SCORE.SYSTEM>
0

>  <SCORE.SYSTEM.CONST>
0

>  <SCORE.SYSTEM.DIHEDRAL>
0

>  <SCORE.SYSTEM.SOLV>
0

>  <SCORE.SYSTEM.norm>
0

>  <SCORE.heavy>
42

>  <SCORE.norm>
-0.225886

>  <RMSD>
2.911

$$$$
lig.pdb
 OpenBabel11021811513D
libRbt.so/2013.1/901 2013/11/27
 42 45  0  0  0  0  0  0  0  0999 V2000
   -2.6899   16.4697   35.9027 C   0  0  2  0  0  0  0  0  0  0  0  0
   -3.2387   16.0032   37.1749 O   0  0  0  0  0  0  0  0  0  0  0  0
   -2.4220   15.1632   35.0302 C   0  0  2  0  0  0  0  0  0  0  0  0
   -3.6794   14.4550   34.7752 N   0  0  0  0  0  0  0  0  0  0  0  0
   -1.3509   14.2421   35.7943 C   0  0  1  0  0  0  0  0  0  0  0  0
   -1.0612   13.0459   35.0408 O   0  0  0  0  0  0  0  0  0  0  0  0
   -0.0890   15.0953   36.0093 C   0  0  2  0  0  0  0  0  0  0  0  0
    0.8602   14.3302   36.6705 O   0  0  0  0  0  0  0  0  0  0  0  0
   -0.4533   16.4025   36.8500 C   0  0  2  0  0  0  0  0  0  0  0  0
   -1.4339   17.1994   36.1740 O   0  0  0  0  0  0  0  0  0  0  0  0
    0.7444   17.2821   37.0719 C   0  0  0  0  0  0  0  0  0  0  0  0
    1.6681   16.5574   37.8852 O   0  0  0  0  0  0  0  0  0  0  0  0
   -7.1539   15.2247   39.1339 C   0  0  2  0  0  0  0  0  0  0  0  0
   -8.5730   15.0127   39.3189 N   0  0  0  0  0  0  0  0  0  0  0  0
   -6.9003   16.5952   38.3950 C   0  0  0  0  0  0  0  0  0  0  0  0
   -5.3666   16.8470   38.1781 C   0  0  2  0  0  0  0  0  0  0  0  0
   -5.1759   18.1199   37.4860 N   0  0  0  0  0  0  0  0  0  0  0  0
   -4.6751   15.6923   37.3255 C   0  0  2  0  0  0  0  0  0  0  0  0
   -4.9013   14.3533   38.0855 C   0  0  2  0  0  0  0  0  0  0  0  0
   -4.2124   13.3216   37.2231 O   0  0  0  0  0  0  0  0  0  0  0  0
   -6.4945   14.0654   38.2477 C   0  0  1  0  0  0  0  0  0  0  0  0
   -6.8298   12.8547   38.9986 O   0  0  0  0  0  0  0  0  0  0  0  0
   -3.7506   12.2718   37.9729 C   0  0  1  0  0  0  0  0  0  0  0  0
   -3.5701   11.0429   37.1929 C   0  0  2  0  0  0  0  0  0  0  0  0
   -4.8367   10.5421   36.9073 O   0  0  0  0  0  0  0  0  0  0  0  0
   -2.6126   10.2471   38.1056 C   0  0  2  0  0  0  0  0  0  0  0  0
   -3.3020    9.0312   38.4740 O   0  0  0  0  0  0  0  0  0  0  0  0
   -2.3657   11.1419   39.2753 C   0  0  2  0  0  0  0  0  0  0  0  0
   -2.4668   12.4224   38.5557 O   0  0  0  0  0  0  0  0  0  0  0  0
   -0.9166   10.9561   39.8582 C   0  0  0  0  0  0  0  0  0  0  0  0
    0.1362   11.0550   38.8527 O   0  0  0  0  0  0  0  0  0  0  0  0
   -3.6102    8.0947   37.3974 C   0  0  2  0  0  0  0  0  0  0  0  0
   -3.5500    6.5921   37.9913 C   0  0  2  0  0  0  0  0  0  0  0  0
   -2.1889    6.3445   38.5684 N   0  0  0  0  0  0  0  0  0  0  0  0
   -3.8940    5.5680   36.8011 C   0  0  1  0  0  0  0  0  0  0  0  0
   -5.2282    5.9033   36.3122 O   0  0  0  0  0  0  0  0  0  0  0  0
   -2.8051    5.7137   35.6445 C   0  0  2  0  0  0  0  0  0  0  0  0
   -1.4887    5.3452   36.2113 O   0  0  0  0  0  0  0  0  0  0  0  0
   -2.8440    7.2514   35.1005 C   0  0  1  0  0  0  0  0  0  0  0  0
   -2.5900    8.1998   36.2454 O   0  0  0  0  0  0  0  0  0  0  0  0
   -1.7736    7.4353   33.9740 C   0  0  0  0  0  0  0  0  0  0  0  0
   -0.4039    7.0117   34.4003 N   0  0  0  0  0  0  0  0  0  0  0  0
  1  3  1  0  0  0  0
  1  2  1  1  0  0  0
  3  4  1  1  0  0  0
  3  5  1  0  0  0  0
  5  6  1  6  0  0  0
  7  8  1  1  0  0  0
  7  5  1  0  0  0  0
  9 11  1  6  0  0  0
  9  7  1  0  0  0  0
 10  9  1  0  0  0  0
 10  1  1  0  0  0  0
 12 11  1  0  0  0  0
 13 14  1  6  0  0  0
 15 13  1  0  0  0  0
 16 17  1  6  0  0  0
 16 15  1  0  0  0  0
 18  2  1  1  0  0  0
 18 19  1  0  0  0  0
 18 16  1  0  0  0  0
 19 20  1  6  0  0  0
 19 21  1  0  0  0  0
 21 22  1  1  0  0  0
 21 13  1  0  0  0  0
 23 20  1  6  0  0  0
 23 29  1  0  0  0  0
 24 25  1  1  0  0  0
 24 26  1  0  0  0  0
 24 23  1  0  0  0  0
 26 27  1  1  0  0  0
 26 28  1  0  0  0  0
 28 30  1  6  0  0  0
 29 28  1  0  0  0  0
 30 31  1  0  0  0  0
 32 27  1  1  0  0  0
 32 40  1  0  0  0  0
 33 35  1  0  0  0  0
 33 32  1  0  0  0  0
 33 34  1  6  0  0  0
 35 36  1  6  0  0  0
 35 37  1  0  0  0  0
 37 38  1  1  0  0  0
 37 39  1  0  0  0  0
 39 41  1  6  0  0  0
 40 39  1  0  0  0  0
 41 42  1  0  0  0  0
M  END
>  <CHROM.1>
-83.13001034,-64.75807613,-106.44252774,150.86035938,157.06149345,64.56678825
51.51462445,147.59182529,-53.75244102,-2.99565600,12.13953826,37.15911198
-1.62884394,-0.29328984,-3.07894116

>  <Name>
lig.pdb

>  <RI>
0

>  <Rbt.Current_Directory>
/home/itssahil/PROJECTS/Mol_Feturizer/New_Systems/rnas/4wcr

>  <Rbt.Executable>
rbdock ($Id: //depot/dev/client3/rdock/2013.1/src/exe/rbdock.cxx#4 $)

>  <Rbt.Library>
libRbt.so (2013.1, Build901 2013/11/27)

>  <Rbt.Parameter_File>
/export/apps/rDock/src/rDock_2013.1_src/data/scripts/dock_solv.prm

>  <Rbt.Receptor>
prm/pocket_docking_2.prm

>  <SCORE>
8.03475

>  <SCORE.INTER>
4.1544

>  <SCORE.INTER.CONST>
1

>  <SCORE.INTER.POLAR>
0

>  <SCORE.INTER.ROT>
9

>  <SCORE.INTER.SOLV>
17.9332

>  <SCORE.INTER.VDW>
-12.8081

>  <SCORE.INTER.norm>
0.0989142

>  <SCORE.INTRA>
0.858086

>  <SCORE.INTRA.DIHEDRAL>
3.24468

>  <SCORE.INTRA.DIHEDRAL.0>
16.2863

>  <SCORE.INTRA.POLAR>
0

>  <SCORE.INTRA.POLAR.0>
0

>  <SCORE.INTRA.REPUL>
-0.301398

>  <SCORE.INTRA.REPUL.0>
0.314433

>  <SCORE.INTRA.SOLV>
0.419109

>  <SCORE.INTRA.SOLV.lig_0>
-103.824

>  <SCORE.INTRA.VDW>
0.533181

>  <SCORE.INTRA.VDW.0>
-5.30945

>  <SCORE.INTRA.norm>
0.0204306

>  <SCORE.RESTR>
3.02227

>  <SCORE.RESTR.CAVITY>
3.02227

>  <SCORE.RESTR.norm>
0.0719587

>  <SCORE.SYSTEM>
0

>  <SCORE.SYSTEM.CONST>
0

>  <SCORE.SYSTEM.DIHEDRAL>
0

>  <SCORE.SYSTEM.SOLV>
0

>  <SCORE.SYSTEM.norm>
0

>  <SCORE.heavy>
42

>  <SCORE.norm>
0.191304

>  <RMSD>
2.932

$$$$
lig.pdb
 OpenBabel11021811513D
libRbt.so/2013.1/901 2013/11/27
 42 45  0  0  0  0  0  0  0  0999 V2000
   -2.1474   17.2822   36.2971 C   0  0  2  0  0  0  0  0  0  0  0  0
   -2.8082   16.7134   37.4706 O   0  0  0  0  0  0  0  0  0  0  0  0
   -2.0373   16.0998   35.2341 C   0  0  2  0  0  0  0  0  0  0  0  0
   -3.3729   15.6349   34.8499 N   0  0  0  0  0  0  0  0  0  0  0  0
   -1.1422   14.9228   35.8613 C   0  0  1  0  0  0  0  0  0  0  0  0
   -0.9993   13.8266   34.9336 O   0  0  0  0  0  0  0  0  0  0  0  0
    0.2204   15.5348   36.2289 C   0  0  2  0  0  0  0  0  0  0  0  0
    1.0217   14.5442   36.7770 O   0  0  0  0  0  0  0  0  0  0  0  0
    0.0164   16.7371   37.2590 C   0  0  2  0  0  0  0  0  0  0  0  0
   -0.8107   17.7657   36.7008 O   0  0  0  0  0  0  0  0  0  0  0  0
    1.3191   17.3833   37.6365 C   0  0  0  0  0  0  0  0  0  0  0  0
    1.0424   18.3586   38.6425 O   0  0  0  0  0  0  0  0  0  0  0  0
   -6.8928   15.9496   39.0535 C   0  0  2  0  0  0  0  0  0  0  0  0
   -8.3290   15.7857   39.1115 N   0  0  0  0  0  0  0  0  0  0  0  0
   -6.5303   17.3636   38.4550 C   0  0  0  0  0  0  0  0  0  0  0  0
   -4.9760   17.5648   38.3773 C   0  0  2  0  0  0  0  0  0  0  0  0
   -4.6836   18.8805   37.8123 N   0  0  0  0  0  0  0  0  0  0  0  0
   -4.2625   16.4545   37.4848 C   0  0  2  0  0  0  0  0  0  0  0  0
   -4.5982   15.0690   38.1089 C   0  0  2  0  0  0  0  0  0  0  0  0
   -3.8821   14.0821   37.2168 O   0  0  0  0  0  0  0  0  0  0  0  0
   -6.2089   14.8389   38.1246 C   0  0  1  0  0  0  0  0  0  0  0  0
   -6.6477   13.5868   38.7424 O   0  0  0  0  0  0  0  0  0  0  0  0
   -4.0072   12.8014   37.6874 C   0  0  1  0  0  0  0  0  0  0  0  0
   -3.0712   11.8632   37.0589 C   0  0  2  0  0  0  0  0  0  0  0  0
   -3.5148   11.6421   35.7585 O   0  0  0  0  0  0  0  0  0  0  0  0
   -3.0729   10.7077   38.0826 C   0  0  2  0  0  0  0  0  0  0  0  0
   -3.5572    9.5361   37.3880 O   0  0  0  0  0  0  0  0  0  0  0  0
   -3.9996   11.1554   39.1645 C   0  0  2  0  0  0  0  0  0  0  0  0
   -3.7238   12.5980   39.0618 O   0  0  0  0  0  0  0  0  0  0  0  0
   -3.5581   10.6141   40.5739 C   0  0  0  0  0  0  0  0  0  0  0  0
   -3.7428    9.1754   40.7326 O   0  0  0  0  0  0  0  0  0  0  0  0
   -3.4112    8.2552   38.0728 C   0  0  2  0  0  0  0  0  0  0  0  0
   -1.8719    8.0962   38.5413 C   0  0  2  0  0  0  0  0  0  0  0  0
   -0.9794    8.1875   37.3405 N   0  0  0  0  0  0  0  0  0  0  0  0
   -1.7206    6.6857   39.2973 C   0  0  1  0  0  0  0  0  0  0  0  0
   -2.6336    6.7039   40.4365 O   0  0  0  0  0  0  0  0  0  0  0  0
   -2.0822    5.5026   38.2904 C   0  0  2  0  0  0  0  0  0  0  0  0
   -1.1091    5.5416   37.1761 O   0  0  0  0  0  0  0  0  0  0  0  0
   -3.6193    5.7157   37.7867 C   0  0  1  0  0  0  0  0  0  0  0  0
   -3.7577    7.0732   37.1443 O   0  0  0  0  0  0  0  0  0  0  0  0
   -4.0029    4.5797   36.7812 C   0  0  0  0  0  0  0  0  0  0  0  0
   -5.3682    4.7585   36.1970 N   0  0  0  0  0  0  0  0  0  0  0  0
  1  3  1  0  0  0  0
  1  2  1  1  0  0  0
  3  4  1  1  0  0  0
  3  5  1  0  0  0  0
  5  6  1  6  0  0  0
  7  8  1  1  0  0  0
  7  5  1  0  0  0  0
  9 11  1  6  0  0  0
  9  7  1  0  0  0  0
 10  9  1  0  0  0  0
 10  1  1  0  0  0  0
 12 11  1  0  0  0  0
 13 14  1  6  0  0  0
 15 13  1  0  0  0  0
 16 17  1  6  0  0  0
 16 15  1  0  0  0  0
 18  2  1  1  0  0  0
 18 19  1  0  0  0  0
 18 16  1  0  0  0  0
 19 20  1  6  0  0  0
 19 21  1  0  0  0  0
 21 22  1  1  0  0  0
 21 13  1  0  0  0  0
 23 20  1  6  0  0  0
 23 29  1  0  0  0  0
 24 25  1  6  0  0  0
 24 26  1  0  0  0  0
 24 23  1  0  0  0  0
 26 27  1  6  0  0  0
 26 28  1  0  0  0  0
 28 30  1  1  0  0  0
 29 28  1  0  0  0  0
 30 31  1  0  0  0  0
 32 27  1  6  0  0  0
 32 40  1  0  0  0  0
 33 35  1  0  0  0  0
 33 32  1  0  0  0  0
 33 34  1  6  0  0  0
 35 36  1  1  0  0  0
 35 37  1  0  0  0  0
 37 38  1  6  0  0  0
 37 39  1  0  0  0  0
 39 41  1  6  0  0  0
 40 39  1  0  0  0  0
 41 42  1  0  0  0  0
M  END
>  <CHROM.1>
-75.85462010,-174.96110925,-105.23355444,176.01509586,-165.78648697,168.65792153
-70.24380188,-51.88398490,-175.91820646,-3.05631258,12.49438003,37.69129737
-1.53612833,-0.28240633,3.08382328

>  <Name>
lig.pdb

>  <RI>
0

>  <Rbt.Current_Directory>
/home/itssahil/PROJECTS/Mol_Feturizer/New_Systems/rnas/4wcr

>  <Rbt.Executable>
rbdock ($Id: //depot/dev/client3/rdock/2013.1/src/exe/rbdock.cxx#4 $)

>  <Rbt.Library>
libRbt.so (2013.1, Build901 2013/11/27)

>  <Rbt.Parameter_File>
/export/apps/rDock/src/rDock_2013.1_src/data/scripts/dock_solv.prm

>  <Rbt.Receptor>
prm/pocket_docking_3.prm

>  <SCORE>
-2.57376

>  <SCORE.INTER>
1.85683

>  <SCORE.INTER.CONST>
1

>  <SCORE.INTER.POLAR>
0

>  <SCORE.INTER.ROT>
9

>  <SCORE.INTER.SOLV>
24.2256

>  <SCORE.INTER.VDW>
-16.4373

>  <SCORE.INTER.norm>
0.0442103

>  <SCORE.INTRA>
-4.43059

>  <SCORE.INTRA.DIHEDRAL>
-5.95295

>  <SCORE.INTRA.DIHEDRAL.0>
16.2863

>  <SCORE.INTRA.POLAR>
0

>  <SCORE.INTRA.POLAR.0>
0

>  <SCORE.INTRA.REPUL>
-0.314433

>  <SCORE.INTRA.REPUL.0>
0.314433

>  <SCORE.INTRA.SOLV>
-0.648242

>  <SCORE.INTRA.SOLV.lig_0>
-103.824

>  <SCORE.INTRA.VDW>
0.442168

>  <SCORE.INTRA.VDW.0>
-5.30945

>  <SCORE.INTRA.norm>
-0.10549

>  <SCORE.RESTR>
0

>  <SCORE.RESTR.CAVITY>
0

>  <SCORE.RESTR.norm>
0

>  <SCORE.SYSTEM>
0

>  <SCORE.SYSTEM.CONST>
0

>  <SCORE.SYSTEM.DIHEDRAL>
0

>  <SCORE.SYSTEM.SOLV>
0

>  <SCORE.SYSTEM.norm>
0

>  <SCORE.heavy>
42

>  <SCORE.norm>
-0.06128

>  <RMSD>
2.936

$$$$
lig.pdb
 OpenBabel11021811513D
libRbt.so/2013.1/901 2013/11/27
 42 45  0  0  0  0  0  0  0  0999 V2000
   -0.6780   15.9099   35.7223 C   0  0  2  0  0  0  0  0  0  0  0  0
   -1.6960   16.1304   36.7480 O   0  0  0  0  0  0  0  0  0  0  0  0
    0.6797   16.5014   36.3113 C   0  0  2  0  0  0  0  0  0  0  0  0
    1.0644   15.7791   37.5269 N   0  0  0  0  0  0  0  0  0  0  0  0
    0.4867   18.0740   36.5752 C   0  0  1  0  0  0  0  0  0  0  0  0
    1.6936   18.6658   37.1003 O   0  0  0  0  0  0  0  0  0  0  0  0
    0.0789   18.7128   35.2365 C   0  0  2  0  0  0  0  0  0  0  0  0
   -0.0988   20.0750   35.4274 O   0  0  0  0  0  0  0  0  0  0  0  0
   -1.2609   18.0338   34.6959 C   0  0  2  0  0  0  0  0  0  0  0  0
   -1.0864   16.6256   34.4957 O   0  0  0  0  0  0  0  0  0  0  0  0
   -1.6930   18.6105   33.3775 C   0  0  0  0  0  0  0  0  0  0  0  0
   -2.9313   17.9946   33.0213 O   0  0  0  0  0  0  0  0  0  0  0  0
   -5.5971   14.1122   37.4418 C   0  0  2  0  0  0  0  0  0  0  0  0
   -6.9950   13.7590   37.3226 N   0  0  0  0  0  0  0  0  0  0  0  0
   -5.4483   15.6581   37.7192 C   0  0  0  0  0  0  0  0  0  0  0  0
   -3.9391   16.0682   37.8484 C   0  0  2  0  0  0  0  0  0  0  0  0
   -3.8453   17.5052   38.0972 N   0  0  0  0  0  0  0  0  0  0  0  0
   -3.0997   15.7195   36.5399 C   0  0  2  0  0  0  0  0  0  0  0  0
   -3.2253   14.1870   36.3009 C   0  0  2  0  0  0  0  0  0  0  0  0
   -2.4002   13.9408   35.0594 O   0  0  0  0  0  0  0  0  0  0  0  0
   -4.7877   13.7790   36.1009 C   0  0  1  0  0  0  0  0  0  0  0  0
   -5.0340   12.3473   35.9226 O   0  0  0  0  0  0  0  0  0  0  0  0
   -2.2965   12.6023   34.7858 C   0  0  1  0  0  0  0  0  0  0  0  0
   -1.6687   12.3268   33.4892 C   0  0  2  0  0  0  0  0  0  0  0  0
   -2.5904   12.6614   32.5017 O   0  0  0  0  0  0  0  0  0  0  0  0
   -1.2335   10.8572   33.6737 C   0  0  2  0  0  0  0  0  0  0  0  0
   -1.9277   10.0872   32.6663 O   0  0  0  0  0  0  0  0  0  0  0  0
   -1.6599   10.5022   35.0600 C   0  0  2  0  0  0  0  0  0  0  0  0
   -1.4821   11.8360   35.6576 O   0  0  0  0  0  0  0  0  0  0  0  0
   -0.6786    9.4696   35.7274 C   0  0  0  0  0  0  0  0  0  0  0  0
   -1.0328    9.1292   37.1014 O   0  0  0  0  0  0  0  0  0  0  0  0
   -1.5572    8.6810   32.5383 C   0  0  2  0  0  0  0  0  0  0  0  0
   -2.1712    8.1124   31.1549 C   0  0  2  0  0  0  0  0  0  0  0  0
   -3.6589    8.2947   31.1643 N   0  0  0  0  0  0  0  0  0  0  0  0
   -1.7556    6.5654   31.0199 C   0  0  1  0  0  0  0  0  0  0  0  0
   -0.2969    6.5056   31.0293 O   0  0  0  0  0  0  0  0  0  0  0  0
   -2.3720    5.7422   32.2392 C   0  0  2  0  0  0  0  0  0  0  0  0
   -3.8463    5.8386   32.1529 O   0  0  0  0  0  0  0  0  0  0  0  0
   -1.7838    6.3700   33.6255 C   0  0  1  0  0  0  0  0  0  0  0  0
   -2.1221    7.8379   33.6998 O   0  0  0  0  0  0  0  0  0  0  0  0
   -2.3826    5.5957   34.8463 C   0  0  0  0  0  0  0  0  0  0  0  0
   -1.9510    4.1644   34.8940 N   0  0  0  0  0  0  0  0  0  0  0  0
  1  3  1  0  0  0  0
  1  2  1  1  0  0  0
  3  4  1  1  0  0  0
  3  5  1  0  0  0  0
  5  6  1  6  0  0  0
  7  8  1  1  0  0  0
  7  5  1  0  0  0  0
  9 11  1  6  0  0  0
  9  7  1  0  0  0  0
 10  9  1  0  0  0  0
 10  1  1  0  0  0  0
 12 11  1  0  0  0  0
 13 14  1  6  0  0  0
 15 13  1  0  0  0  0
 16 17  1  6  0  0  0
 16 15  1  0  0  0  0
 18  2  1  1  0  0  0
 18 19  1  0  0  0  0
 18 16  1  0  0  0  0
 19 20  1  6  0  0  0
 19 21  1  0  0  0  0
 21 22  1  1  0  0  0
 21 13  1  0  0  0  0
 23 20  1  1  0  0  0
 23 29  1  0  0  0  0
 24 25  1  6  0  0  0
 24 26  1  0  0  0  0
 24 23  1  0  0  0  0
 26 27  1  6  0  0  0
 26 28  1  0  0  0  0
 28 30  1  1  0  0  0
 29 28  1  0  0  0  0
 30 31  1  0  0  0  0
 32 27  1  1  0  0  0
 32 40  1  0  0  0  0
 33 35  1  0  0  0  0
 33 32  1  0  0  0  0
 33 34  1  1  0  0  0
 35 36  1  1  0  0  0
 35 37  1  0  0  0  0
 37 38  1  1  0  0  0
 37 39  1  0  0  0  0
 39 41  1  1  0  0  0
 40 39  1  0  0  0  0
 41 42  1  0  0  0  0
M  END
>  <CHROM.1>
179.21900882,-176.76349042,178.74097716,173.89307579,171.79748817,173.01468170
178.02229663,-166.50928535,65.01474776,-2.09018136,12.65601299,34.83339414
-1.50032812,-0.57752562,-2.81593992

>  <Name>
lig.pdb

>  <RI>
0

>  <Rbt.Current_Directory>
/home/itssahil/PROJECTS/Mol_Feturizer/New_Systems/rnas/4wcr

>  <Rbt.Executable>
rbdock ($Id: //depot/dev/client3/rdock/2013.1/src/exe/rbdock.cxx#4 $)

>  <Rbt.Library>
libRbt.so (2013.1, Build901 2013/11/27)

>  <Rbt.Parameter_File>
/export/apps/rDock/src/rDock_2013.1_src/data/scripts/dock_solv.prm

>  <Rbt.Receptor>
prm/pocket_docking_6.prm

>  <SCORE>
-13.436

>  <SCORE.INTER>
-3.24596

>  <SCORE.INTER.CONST>
1

>  <SCORE.INTER.POLAR>
0

>  <SCORE.INTER.ROT>
9

>  <SCORE.INTER.SOLV>
16.4283

>  <SCORE.INTER.VDW>
-17.2401

>  <SCORE.INTER.norm>
-0.0772847

>  <SCORE.INTRA>
-10.19

>  <SCORE.INTRA.DIHEDRAL>
-13.9783

>  <SCORE.INTRA.DIHEDRAL.0>
16.2863

>  <SCORE.INTRA.POLAR>
0

>  <SCORE.INTRA.POLAR.0>
0

>  <SCORE.INTRA.REPUL>
-0.314433

>  <SCORE.INTRA.REPUL.0>
0.314433

>  <SCORE.INTRA.SOLV>
-6.02527

>  <SCORE.INTRA.SOLV.lig_0>
-103.824

>  <SCORE.INTRA.VDW>
1.38392

>  <SCORE.INTRA.VDW.0>
-5.30945

>  <SCORE.INTRA.norm>
-0.242619

>  <SCORE.RESTR>
0

>  <SCORE.RESTR.CAVITY>
0

>  <SCORE.RESTR.norm>
0

>  <SCORE.SYSTEM>
0

>  <SCORE.SYSTEM.CONST>
0

>  <SCORE.SYSTEM.DIHEDRAL>
0

>  <SCORE.SYSTEM.SOLV>
0

>  <SCORE.SYSTEM.norm>
0

>  <SCORE.heavy>
42

>  <SCORE.norm>
-0.319904

>  <RMSD>
2.937

$$$$
lig.pdb
 OpenBabel11021811513D
libRbt.so/2013.1/901 2013/11/27
 42 45  0  0  0  0  0  0  0  0999 V2000
   -1.9794   17.4019   36.1200 C   0  0  2  0  0  0  0  0  0  0  0  0
   -2.6675   16.9303   37.3206 O   0  0  0  0  0  0  0  0  0  0  0  0
   -2.0944   16.2245   35.0521 C   0  0  2  0  0  0  0  0  0  0  0  0
   -3.5001   15.9688   34.7258 N   0  0  0  0  0  0  0  0  0  0  0  0
   -1.3608   14.9215   35.6385 C   0  0  1  0  0  0  0  0  0  0  0  0
   -1.4247   13.8233   34.7044 O   0  0  0  0  0  0  0  0  0  0  0  0
    0.0929   15.3186   35.9471 C   0  0  2  0  0  0  0  0  0  0  0  0
    0.7586   14.2146   36.4588 O   0  0  0  0  0  0  0  0  0  0  0  0
    0.1168   16.5302   36.9863 C   0  0  2  0  0  0  0  0  0  0  0  0
   -0.5690   17.6757   36.4656 O   0  0  0  0  0  0  0  0  0  0  0  0
    1.5170   16.9700   37.3075 C   0  0  0  0  0  0  0  0  0  0  0  0
    2.1749   15.8798   37.9541 O   0  0  0  0  0  0  0  0  0  0  0  0
   -6.7682   16.3969   38.9552 C   0  0  2  0  0  0  0  0  0  0  0  0
   -8.2112   16.3309   39.0352 N   0  0  0  0  0  0  0  0  0  0  0  0
   -6.3179   17.8022   38.3975 C   0  0  0  0  0  0  0  0  0  0  0  0
   -4.7549   17.8978   38.2967 C   0  0  2  0  0  0  0  0  0  0  0  0
   -4.3808   19.2089   37.7705 N   0  0  0  0  0  0  0  0  0  0  0  0
   -4.1359   16.7724   37.3540 C   0  0  2  0  0  0  0  0  0  0  0  0
   -4.5571   15.3927   37.9378 C   0  0  2  0  0  0  0  0  0  0  0  0
   -3.9268   14.3900   36.9996 O   0  0  0  0  0  0  0  0  0  0  0  0
   -6.1794   15.2744   37.9767 C   0  0  1  0  0  0  0  0  0  0  0  0
   -6.6942   14.0349   38.5606 O   0  0  0  0  0  0  0  0  0  0  0  0
   -4.0767   13.1094   37.4632 C   0  0  1  0  0  0  0  0  0  0  0  0
   -3.3358   12.1208   36.6728 C   0  0  2  0  0  0  0  0  0  0  0  0
   -4.0030   11.9734   35.4605 O   0  0  0  0  0  0  0  0  0  0  0  0
   -3.2636   10.9389   37.6634 C   0  0  2  0  0  0  0  0  0  0  0  0
   -3.9487    9.8295   37.0395 O   0  0  0  0  0  0  0  0  0  0  0  0
   -3.9610   11.4246   38.8912 C   0  0  2  0  0  0  0  0  0  0  0  0
   -3.5894   12.8440   38.7681 O   0  0  0  0  0  0  0  0  0  0  0  0
   -3.3399   10.8091   40.1988 C   0  0  0  0  0  0  0  0  0  0  0  0
   -4.0368   11.2021   41.4191 O   0  0  0  0  0  0  0  0  0  0  0  0
   -3.8135    8.5250   37.6808 C   0  0  2  0  0  0  0  0  0  0  0  0
   -2.2428    8.2387   37.9353 C   0  0  2  0  0  0  0  0  0  0  0  0
   -1.5139    8.2909   36.6266 N   0  0  0  0  0  0  0  0  0  0  0  0
   -2.1030    6.8030   38.6447 C   0  0  1  0  0  0  0  0  0  0  0  0
   -2.8518    6.8629   39.8967 O   0  0  0  0  0  0  0  0  0  0  0  0
   -2.6871    5.6752   37.6796 C   0  0  2  0  0  0  0  0  0  0  0  0
   -1.8712    5.6671   36.4450 O   0  0  0  0  0  0  0  0  0  0  0  0
   -4.2562    6.0163   37.3906 C   0  0  1  0  0  0  0  0  0  0  0  0
   -4.3723    7.3955   36.7914 O   0  0  0  0  0  0  0  0  0  0  0  0
   -4.8583    4.9371   36.4306 C   0  0  0  0  0  0  0  0  0  0  0  0
   -4.8376    3.5617   37.0179 N   0  0  0  0  0  0  0  0  0  0  0  0
  1  3  1  0  0  0  0
  1  2  1  1  0  0  0
  3  4  1  1  0  0  0
  3  5  1  0  0  0  0
  5  6  1  6  0  0  0
  7  8  1  1  0  0  0
  7  5  1  0  0  0  0
  9 11  1  6  0  0  0
  9  7  1  0  0  0  0
 10  9  1  0  0  0  0
 10  1  1  0  0  0  0
 12 11  1  0  0  0  0
 13 14  1  6  0  0  0
 15 13  1  0  0  0  0
 16 17  1  6  0  0  0
 16 15  1  0  0  0  0
 18  2  1  1  0  0  0
 18 19  1  0  0  0  0
 18 16  1  0  0  0  0
 19 20  1  6  0  0  0
 19 21  1  0  0  0  0
 21 22  1  1  0  0  0
 21 13  1  0  0  0  0
 23 20  1  6  0  0  0
 23 29  1  0  0  0  0
 24 25  1  6  0  0  0
 24 26  1  0  0  0  0
 24 23  1  0  0  0  0
 26 27  1  6  0  0  0
 26 28  1  0  0  0  0
 28 30  1  1  0  0  0
 29 28  1  0  0  0  0
 30 31  1  0  0  0  0
 32 27  1  6  0  0  0
 32 40  1  0  0  0  0
 33 35  1  0  0  0  0
 33 32  1  0  0  0  0
 33 34  1  6  0  0  0
 35 36  1  1  0  0  0
 35 37  1  0  0  0  0
 37 38  1  6  0  0  0
 37 39  1  0  0  0  0
 39 41  1  6  0  0  0
 40 39  1  0  0  0  0
 41 42  1  0  0  0  0
M  END
>  <CHROM.1>
-70.01285395,-63.70822633,-109.68777909,173.05577429,-172.75548865,169.55712409
-176.93842801,-50.66870039,62.21790170,-3.15965487,12.63443232,37.43290680
-1.50875643,-0.32705061,3.11852136

>  <Name>
lig.pdb

>  <RI>
0

>  <Rbt.Current_Directory>
/home/itssahil/PROJECTS/Mol_Feturizer/New_Systems/rnas/4wcr

>  <Rbt.Executable>
rbdock ($Id: //depot/dev/client3/rdock/2013.1/src/exe/rbdock.cxx#4 $)

>  <Rbt.Library>
libRbt.so (2013.1, Build901 2013/11/27)

>  <Rbt.Parameter_File>
/export/apps/rDock/src/rDock_2013.1_src/data/scripts/dock_solv.prm

>  <Rbt.Receptor>
prm/pocket_docking_3.prm

>  <SCORE>
-5.343

>  <SCORE.INTER>
-0.667336

>  <SCORE.INTER.CONST>
1

>  <SCORE.INTER.POLAR>
0

>  <SCORE.INTER.ROT>
9

>  <SCORE.INTER.SOLV>
20.9793

>  <SCORE.INTER.VDW>
-17.038

>  <SCORE.INTER.norm>
-0.015889

>  <SCORE.INTRA>
-4.67566

>  <SCORE.INTRA.DIHEDRAL>
-7.07654

>  <SCORE.INTRA.DIHEDRAL.0>
16.2863

>  <SCORE.INTRA.POLAR>
0

>  <SCORE.INTRA.POLAR.0>
0

>  <SCORE.INTRA.REPUL>
-0.314433

>  <SCORE.INTRA.REPUL.0>
0.314433

>  <SCORE.INTRA.SOLV>
-0.61586

>  <SCORE.INTRA.SOLV.lig_0>
-103.824

>  <SCORE.INTRA.VDW>
0.742699

>  <SCORE.INTRA.VDW.0>
-5.30945

>  <SCORE.INTRA.norm>
-0.111325

>  <SCORE.RESTR>
0

>  <SCORE.RESTR.CAVITY>
0

>  <SCORE.RESTR.norm>
0

>  <SCORE.SYSTEM>
0

>  <SCORE.SYSTEM.CONST>
0

>  <SCORE.SYSTEM.DIHEDRAL>
0

>  <SCORE.SYSTEM.SOLV>
0

>  <SCORE.SYSTEM.norm>
0

>  <SCORE.heavy>
42

>  <SCORE.norm>
-0.127214

>  <RMSD>
2.938

$$$$
lig.pdb
 OpenBabel11021811513D
libRbt.so/2013.1/901 2013/11/27
 42 45  0  0  0  0  0  0  0  0999 V2000
   -1.6669   17.4502   36.0243 C   0  0  2  0  0  0  0  0  0  0  0  0
   -2.4083   17.0979   37.2340 O   0  0  0  0  0  0  0  0  0  0  0  0
   -1.8661   16.2349   35.0128 C   0  0  2  0  0  0  0  0  0  0  0  0
   -3.2838   16.0814   34.6746 N   0  0  0  0  0  0  0  0  0  0  0  0
   -1.2529   14.9060   35.6745 C   0  0  1  0  0  0  0  0  0  0  0  0
   -1.3963   13.7718   34.7937 O   0  0  0  0  0  0  0  0  0  0  0  0
    0.2249   15.1953   35.9891 C   0  0  2  0  0  0  0  0  0  0  0  0
    0.7883   14.0665   36.5653 O   0  0  0  0  0  0  0  0  0  0  0  0
    0.3366   16.4509   36.9686 C   0  0  2  0  0  0  0  0  0  0  0  0
   -0.2432   17.6223   36.3811 O   0  0  0  0  0  0  0  0  0  0  0  0
    1.7644   16.7878   37.2927 C   0  0  0  0  0  0  0  0  0  0  0  0
    2.2998   15.7086   38.0597 O   0  0  0  0  0  0  0  0  0  0  0  0
   -6.5624   16.9304   38.8114 C   0  0  2  0  0  0  0  0  0  0  0  0
   -8.0072   16.9782   38.8682 N   0  0  0  0  0  0  0  0  0  0  0  0
   -5.9960   18.2799   38.2225 C   0  0  0  0  0  0  0  0  0  0  0  0
   -4.4289   18.2517   38.1463 C   0  0  2  0  0  0  0  0  0  0  0  0
   -3.9463   19.5140   37.5902 N   0  0  0  0  0  0  0  0  0  0  0  0
   -3.8849   17.0548   37.2463 C   0  0  2  0  0  0  0  0  0  0  0  0
   -4.4206   15.7294   37.8611 C   0  0  2  0  0  0  0  0  0  0  0  0
   -3.8559   14.6541   36.9625 O   0  0  0  0  0  0  0  0  0  0  0  0
   -6.0476   15.7376   37.8752 C   0  0  1  0  0  0  0  0  0  0  0  0
   -6.6658   14.5592   38.4845 O   0  0  0  0  0  0  0  0  0  0  0  0
   -4.0900   13.4038   37.4717 C   0  0  1  0  0  0  0  0  0  0  0  0
   -3.3151   12.3547   36.8007 C   0  0  2  0  0  0  0  0  0  0  0  0
   -3.8756   12.1652   35.5411 O   0  0  0  0  0  0  0  0  0  0  0  0
   -3.3722   11.2234   37.8496 C   0  0  2  0  0  0  0  0  0  0  0  0
   -4.0358   10.1041   37.2200 O   0  0  0  0  0  0  0  0  0  0  0  0
   -4.1599   11.7915   38.9838 C   0  0  2  0  0  0  0  0  0  0  0  0
   -3.7309   13.1911   38.8268 O   0  0  0  0  0  0  0  0  0  0  0  0
   -3.6798   11.2256   40.3708 C   0  0  0  0  0  0  0  0  0  0  0  0
   -3.9222    9.7961   40.5355 O   0  0  0  0  0  0  0  0  0  0  0  0
   -3.8813    8.8005   37.8586 C   0  0  2  0  0  0  0  0  0  0  0  0
   -2.3069    8.5401   38.1192 C   0  0  2  0  0  0  0  0  0  0  0  0
   -1.5735    8.6080   36.8138 N   0  0  0  0  0  0  0  0  0  0  0  0
   -2.1459    7.1052   38.8256 C   0  0  1  0  0  0  0  0  0  0  0  0
   -2.9009    7.1492   40.0745 O   0  0  0  0  0  0  0  0  0  0  0  0
   -2.7068    5.9702   37.8552 C   0  0  2  0  0  0  0  0  0  0  0  0
   -1.8856    5.9790   36.6241 O   0  0  0  0  0  0  0  0  0  0  0  0
   -4.2802    6.2853   37.5603 C   0  0  1  0  0  0  0  0  0  0  0  0
   -4.4170    7.6639   36.9640 O   0  0  0  0  0  0  0  0  0  0  0  0
   -4.8598    5.1986   36.5950 C   0  0  0  0  0  0  0  0  0  0  0  0
   -4.1468    5.1500   35.2810 N   0  0  0  0  0  0  0  0  0  0  0  0
  1  3  1  0  0  0  0
  1  2  1  1  0  0  0
  3  4  1  1  0  0  0
  3  5  1  0  0  0  0
  5  6  1  6  0  0  0
  7  8  1  1  0  0  0
  7  5  1  0  0  0  0
  9 11  1  6  0  0  0
  9  7  1  0  0  0  0
 10  9  1  0  0  0  0
 10  1  1  0  0  0  0
 12 11  1  0  0  0  0
 13 14  1  6  0  0  0
 15 13  1  0  0  0  0
 16 17  1  6  0  0  0
 16 15  1  0  0  0  0
 18  2  1  1  0  0  0
 18 19  1  0  0  0  0
 18 16  1  0  0  0  0
 19 20  1  6  0  0  0
 19 21  1  0  0  0  0
 21 22  1  1  0  0  0
 21 13  1  0  0  0  0
 23 20  1  6  0  0  0
 23 29  1  0  0  0  0
 24 25  1  6  0  0  0
 24 26  1  0  0  0  0
 24 23  1  0  0  0  0
 26 27  1  6  0  0  0
 26 28  1  0  0  0  0
 28 30  1  1  0  0  0
 29 28  1  0  0  0  0
 30 31  1  0  0  0  0
 32 27  1  6  0  0  0
 32 40  1  0  0  0  0
 33 35  1  0  0  0  0
 33 32  1  0  0  0  0
 33 34  1  6  0  0  0
 35 36  1  1  0  0  0
 35 37  1  0  0  0  0
 37 38  1  6  0  0  0
 37 39  1  0  0  0  0
 39 41  1  6  0  0  0
 40 39  1  0  0  0  0
 41 42  1  0  0  0  0
M  END
>  <CHROM.1>
-69.53254731,-66.50941475,-111.10129224,171.93105139,-167.30990979,163.13790416
-65.80538266,-50.66642165,-59.79524315,-3.06537638,12.84509309,37.40434492
-1.50891271,-0.30240234,3.11142855

>  <Name>
lig.pdb

>  <RI>
0

>  <Rbt.Current_Directory>
/home/itssahil/PROJECTS/Mol_Feturizer/New_Systems/rnas/4wcr

>  <Rbt.Executable>
rbdock ($Id: //depot/dev/client3/rdock/2013.1/src/exe/rbdock.cxx#4 $)

>  <Rbt.Library>
libRbt.so (2013.1, Build901 2013/11/27)

>  <Rbt.Parameter_File>
/export/apps/rDock/src/rDock_2013.1_src/data/scripts/dock_solv.prm

>  <Rbt.Receptor>
prm/pocket_docking_3.prm

>  <SCORE>
-4.78101

>  <SCORE.INTER>
-1.89951

>  <SCORE.INTER.CONST>
1

>  <SCORE.INTER.POLAR>
0

>  <SCORE.INTER.ROT>
9

>  <SCORE.INTER.SOLV>
21.3717

>  <SCORE.INTER.VDW>
-17.9902

>  <SCORE.INTER.norm>
-0.0452264

>  <SCORE.INTRA>
-2.8815

>  <SCORE.INTRA.DIHEDRAL>
-5.44609

>  <SCORE.INTRA.DIHEDRAL.0>
16.2863

>  <SCORE.INTRA.POLAR>
0

>  <SCORE.INTRA.POLAR.0>
0

>  <SCORE.INTRA.REPUL>
-0.314433

>  <SCORE.INTRA.REPUL.0>
0.314433

>  <SCORE.INTRA.SOLV>
2.1795

>  <SCORE.INTRA.SOLV.lig_0>
-103.824

>  <SCORE.INTRA.VDW>
0.323964

>  <SCORE.INTRA.VDW.0>
-5.30945

>  <SCORE.INTRA.norm>
-0.0686071

>  <SCORE.RESTR>
0

>  <SCORE.RESTR.CAVITY>
0

>  <SCORE.RESTR.norm>
0

>  <SCORE.SYSTEM>
0

>  <SCORE.SYSTEM.CONST>
0

>  <SCORE.SYSTEM.DIHEDRAL>
0

>  <SCORE.SYSTEM.SOLV>
0

>  <SCORE.SYSTEM.norm>
0

>  <SCORE.heavy>
42

>  <SCORE.norm>
-0.113834

>  <RMSD>
2.986

$$$$
lig.pdb
 OpenBabel11021811513D
libRbt.so/2013.1/901 2013/11/27
 42 45  0  0  0  0  0  0  0  0999 V2000
   -0.6130   17.6619   35.3409 C   0  0  2  0  0  0  0  0  0  0  0  0
   -1.3670   18.0260   36.5392 O   0  0  0  0  0  0  0  0  0  0  0  0
    0.8793   18.1646   35.5866 C   0  0  2  0  0  0  0  0  0  0  0  0
    1.4631   17.4793   36.7430 N   0  0  0  0  0  0  0  0  0  0  0  0
    0.8634   19.7600   35.7710 C   0  0  1  0  0  0  0  0  0  0  0  0
    2.1951   20.2727   35.9862 O   0  0  0  0  0  0  0  0  0  0  0  0
    0.2243   20.3574   34.5056 C   0  0  2  0  0  0  0  0  0  0  0  0
    0.1922   21.7383   34.6307 O   0  0  0  0  0  0  0  0  0  0  0  0
   -1.2466   19.7688   34.3095 C   0  0  2  0  0  0  0  0  0  0  0  0
   -1.2229   18.3419   34.1793 O   0  0  0  0  0  0  0  0  0  0  0  0
   -1.9093   20.3076   33.0735 C   0  0  0  0  0  0  0  0  0  0  0  0
   -3.2352   19.7788   33.0284 O   0  0  0  0  0  0  0  0  0  0  0  0
   -5.0815   16.6239   38.5416 C   0  0  2  0  0  0  0  0  0  0  0  0
   -6.4730   16.3031   38.7738 N   0  0  0  0  0  0  0  0  0  0  0  0
   -4.9349   18.1374   38.1215 C   0  0  0  0  0  0  0  0  0  0  0  0
   -3.4333   18.5101   37.8592 C   0  0  2  0  0  0  0  0  0  0  0  0
   -3.3423   19.9149   37.4666 N   0  0  0  0  0  0  0  0  0  0  0  0
   -2.7751   17.6158   36.7167 C   0  0  2  0  0  0  0  0  0  0  0  0
   -2.8937   16.1296   37.1624 C   0  0  2  0  0  0  0  0  0  0  0  0
   -2.2431   15.3570   36.0388 O   0  0  0  0  0  0  0  0  0  0  0  0
   -4.4579   15.7311   37.3675 C   0  0  1  0  0  0  0  0  0  0  0  0
   -4.6902   14.3661   37.8419 O   0  0  0  0  0  0  0  0  0  0  0  0
   -1.9316   14.0800   36.4257 C   0  0  1  0  0  0  0  0  0  0  0  0
   -1.3326   13.2827   35.3502 C   0  0  2  0  0  0  0  0  0  0  0  0
   -2.3456   12.9759   34.4466 O   0  0  0  0  0  0  0  0  0  0  0  0
   -0.6499   12.1572   36.1566 C   0  0  2  0  0  0  0  0  0  0  0  0
   -1.2558   10.9148   35.7337 O   0  0  0  0  0  0  0  0  0  0  0  0
   -0.9410   12.4786   37.5855 C   0  0  2  0  0  0  0  0  0  0  0  0
   -0.9581   13.9444   37.4477 O   0  0  0  0  0  0  0  0  0  0  0  0
    0.2309   12.0332   38.5356 C   0  0  0  0  0  0  0  0  0  0  0  0
    0.5459   10.6110   38.4497 O   0  0  0  0  0  0  0  0  0  0  0  0
   -2.5839   10.6149   36.2603 C   0  0  2  0  0  0  0  0  0  0  0  0
   -2.5071    9.2270   37.0862 C   0  0  2  0  0  0  0  0  0  0  0  0
   -2.0124    8.1408   36.1795 N   0  0  0  0  0  0  0  0  0  0  0  0
   -3.9719    8.9063   37.6655 C   0  0  1  0  0  0  0  0  0  0  0  0
   -4.3542   10.0250   38.5221 O   0  0  0  0  0  0  0  0  0  0  0  0
   -4.9955    8.7344   36.4543 C   0  0  2  0  0  0  0  0  0  0  0  0
   -4.5506    7.5785   35.6444 O   0  0  0  0  0  0  0  0  0  0  0  0
   -5.0132   10.1257   35.6023 C   0  0  1  0  0  0  0  0  0  0  0  0
   -3.6179   10.4466   35.1283 O   0  0  0  0  0  0  0  0  0  0  0  0
   -5.9964    9.9866   34.3929 C   0  0  0  0  0  0  0  0  0  0  0  0
   -5.5407    8.9770   33.3878 N   0  0  0  0  0  0  0  0  0  0  0  0
  1  3  1  0  0  0  0
  1  2  1  1  0  0  0
  3  4  1  1  0  0  0
  3  5  1  0  0  0  0
  5  6  1  6  0  0  0
  7  8  1  1  0  0  0
  7  5  1  0  0  0  0
  9 11  1  6  0  0  0
  9  7  1  0  0  0  0
 10  9  1  0  0  0  0
 10  1  1  0  0  0  0
 12 11  1  0  0  0  0
 13 14  1  6  0  0  0
 15 13  1  0  0  0  0
 16 17  1  6  0  0  0
 16 15  1  0  0  0  0
 18  2  1  1  0  0  0
 18 19  1  0  0  0  0
 18 16  1  0  0  0  0
 19 20  1  6  0  0  0
 19 21  1  0  0  0  0
 21 22  1  1  0  0  0
 21 13  1  0  0  0  0
 23 20  1  6  0  0  0
 23 29  1  0  0  0  0
 24 25  1  6  0  0  0
 24 26  1  0  0  0  0
 24 23  1  0  0  0  0
 26 27  1  6  0  0  0
 26 28  1  0  0  0  0
 28 30  1  1  0  0  0
 29 28  1  0  0  0  0
 30 31  1  0  0  0  0
 32 27  1  6  0  0  0
 32 40  1  0  0  0  0
 33 35  1  0  0  0  0
 33 32  1  0  0  0  0
 33 34  1  6  0  0  0
 35 36  1  1  0  0  0
 35 37  1  0  0  0  0
 37 38  1  6  0  0  0
 37 39  1  0  0  0  0
 39 41  1  6  0  0  0
 40 39  1  0  0  0  0
 41 42  1  0  0  0  0
M  END
>  <CHROM.1>
-174.90001101,-176.99612872,-162.91639310,163.28924023,178.32561356,-76.82654062
-57.46062723,-120.16119437,-65.67970843,-2.31459287,14.65177033,36.22125016
-1.31509388,-0.09716966,3.08292469

>  <Name>
lig.pdb

>  <RI>
0

>  <Rbt.Current_Directory>
/home/itssahil/PROJECTS/Mol_Feturizer/New_Systems/rnas/4wcr

>  <Rbt.Executable>
rbdock ($Id: //depot/dev/client3/rdock/2013.1/src/exe/rbdock.cxx#4 $)

>  <Rbt.Library>
libRbt.so (2013.1, Build901 2013/11/27)

>  <Rbt.Parameter_File>
/export/apps/rDock/src/rDock_2013.1_src/data/scripts/dock_solv.prm

>  <Rbt.Receptor>
prm/pocket_docking_3.prm

>  <SCORE>
-7.38887

>  <SCORE.INTER>
-2.90772

>  <SCORE.INTER.CONST>
1

>  <SCORE.INTER.POLAR>
0

>  <SCORE.INTER.ROT>
9

>  <SCORE.INTER.SOLV>
22.4071

>  <SCORE.INTER.VDW>
-19.0075

>  <SCORE.INTER.norm>
-0.0692314

>  <SCORE.INTRA>
-4.49684

>  <SCORE.INTRA.DIHEDRAL>
-4.3283

>  <SCORE.INTRA.DIHEDRAL.0>
16.2863

>  <SCORE.INTRA.POLAR>
0

>  <SCORE.INTRA.POLAR.0>
0

>  <SCORE.INTRA.REPUL>
-0.314433

>  <SCORE.INTRA.REPUL.0>
0.314433

>  <SCORE.INTRA.SOLV>
-3.42319

>  <SCORE.INTRA.SOLV.lig_0>
-103.824

>  <SCORE.INTRA.VDW>
0.951073

>  <SCORE.INTRA.VDW.0>
-5.30945

>  <SCORE.INTRA.norm>
-0.107068

>  <SCORE.RESTR>
0.0156877

>  <SCORE.RESTR.CAVITY>
0.0156877

>  <SCORE.RESTR.norm>
0.000373518

>  <SCORE.SYSTEM>
0

>  <SCORE.SYSTEM.CONST>
0

>  <SCORE.SYSTEM.DIHEDRAL>
0

>  <SCORE.SYSTEM.SOLV>
0

>  <SCORE.SYSTEM.norm>
0

>  <SCORE.heavy>
42

>  <SCORE.norm>
-0.175926

>  <RMSD>
2.987

$$$$
lig.pdb
 OpenBabel11021811513D
libRbt.so/2013.1/901 2013/11/27
 42 45  0  0  0  0  0  0  0  0999 V2000
   -3.1620   17.4126   37.7175 C   0  0  2  0  0  0  0  0  0  0  0  0
   -4.2464   17.1300   36.7787 O   0  0  0  0  0  0  0  0  0  0  0  0
   -2.6044   18.8543   37.3294 C   0  0  2  0  0  0  0  0  0  0  0  0
   -3.6519   19.8661   37.4934 N   0  0  0  0  0  0  0  0  0  0  0  0
   -2.0403   18.8028   35.8265 C   0  0  1  0  0  0  0  0  0  0  0  0
   -1.5105   20.0837   35.4250 O   0  0  0  0  0  0  0  0  0  0  0  0
   -0.9630   17.7056   35.7827 C   0  0  2  0  0  0  0  0  0  0  0  0
   -0.4532   17.6312   34.4950 O   0  0  0  0  0  0  0  0  0  0  0  0
   -1.5924   16.3076   36.2277 C   0  0  2  0  0  0  0  0  0  0  0  0
   -2.1219   16.3752   37.5576 O   0  0  0  0  0  0  0  0  0  0  0  0
   -0.5740   15.2030   36.2204 C   0  0  0  0  0  0  0  0  0  0  0  0
    0.4909   15.5911   37.0893 O   0  0  0  0  0  0  0  0  0  0  0  0
   -7.3332   15.4611   39.5098 C   0  0  2  0  0  0  0  0  0  0  0  0
   -8.6089   15.0026   40.0153 N   0  0  0  0  0  0  0  0  0  0  0  0
   -7.4533   16.9488   38.9988 C   0  0  0  0  0  0  0  0  0  0  0  0
   -6.0821   17.4689   38.4406 C   0  0  2  0  0  0  0  0  0  0  0  0
   -6.2380   18.8444   37.9721 N   0  0  0  0  0  0  0  0  0  0  0  0
   -5.5372   16.5774   37.2378 C   0  0  2  0  0  0  0  0  0  0  0  0
   -5.3885   15.1217   37.7674 C   0  0  2  0  0  0  0  0  0  0  0  0
   -4.8626   14.3512   36.5790 O   0  0  0  0  0  0  0  0  0  0  0  0
   -6.8280   14.5650   38.2826 C   0  0  1  0  0  0  0  0  0  0  0  0
   -6.8000   13.2187   38.8561 O   0  0  0  0  0  0  0  0  0  0  0  0
   -4.5771   13.0531   36.9119 C   0  0  1  0  0  0  0  0  0  0  0  0
   -3.8630   12.3312   35.8536 C   0  0  2  0  0  0  0  0  0  0  0  0
   -4.7755   12.0795   34.8335 O   0  0  0  0  0  0  0  0  0  0  0  0
   -3.2525   11.1586   36.6507 C   0  0  2  0  0  0  0  0  0  0  0  0
   -3.7979    9.9436   36.0885 O   0  0  0  0  0  0  0  0  0  0  0  0
   -3.6906   11.3839   38.0603 C   0  0  2  0  0  0  0  0  0  0  0  0
   -3.7108   12.8554   38.0168 O   0  0  0  0  0  0  0  0  0  0  0  0
   -2.6160   10.8828   39.0940 C   0  0  0  0  0  0  0  0  0  0  0  0
   -1.3419   11.5882   39.0023 O   0  0  0  0  0  0  0  0  0  0  0  0
   -3.4763    8.6961   36.7750 C   0  0  2  0  0  0  0  0  0  0  0  0
   -1.8689    8.5234   36.7995 C   0  0  2  0  0  0  0  0  0  0  0  0
   -1.3510    8.5312   35.3929 N   0  0  0  0  0  0  0  0  0  0  0  0
   -1.5234    7.1499   37.5599 C   0  0  1  0  0  0  0  0  0  0  0  0
   -2.0774    7.2486   38.9071 O   0  0  0  0  0  0  0  0  0  0  0  0
   -2.1655    5.9263   36.7632 C   0  0  2  0  0  0  0  0  0  0  0  0
   -1.5463    5.8844   35.4197 O   0  0  0  0  0  0  0  0  0  0  0  0
   -3.7802    6.1512   36.7012 C   0  0  1  0  0  0  0  0  0  0  0  0
   -4.0818    7.4772   36.0491 O   0  0  0  0  0  0  0  0  0  0  0  0
   -4.4426    4.9752   35.9095 C   0  0  0  0  0  0  0  0  0  0  0  0
   -4.0016    4.9161   34.4815 N   0  0  0  0  0  0  0  0  0  0  0  0
  1  3  1  0  0  0  0
  1  2  1  6  0  0  0
  3  4  1  6  0  0  0
  3  5  1  0  0  0  0
  5  6  1  1  0  0  0
  7  8  1  6  0  0  0
  7  5  1  0  0  0  0
  9 11  1  1  0  0  0
  9  7  1  0  0  0  0
 10  9  1  0  0  0  0
 10  1  1  0  0  0  0
 12 11  1  0  0  0  0
 13 14  1  6  0  0  0
 15 13  1  0  0  0  0
 16 17  1  6  0  0  0
 16 15  1  0  0  0  0
 18  2  1  1  0  0  0
 18 19  1  0  0  0  0
 18 16  1  0  0  0  0
 19 20  1  6  0  0  0
 19 21  1  0  0  0  0
 21 22  1  1  0  0  0
 21 13  1  0  0  0  0
 23 20  1  6  0  0  0
 23 29  1  0  0  0  0
 24 25  1  6  0  0  0
 24 26  1  0  0  0  0
 24 23  1  0  0  0  0
 26 27  1  6  0  0  0
 26 28  1  0  0  0  0
 28 30  1  1  0  0  0
 29 28  1  0  0  0  0
 30 31  1  0  0  0  0
 32 27  1  6  0  0  0
 32 40  1  0  0  0  0
 33 35  1  0  0  0  0
 33 32  1  0  0  0  0
 33 34  1  6  0  0  0
 35 36  1  1  0  0  0
 35 37  1  0  0  0  0
 37 38  1  6  0  0  0
 37 39  1  0  0  0  0
 39 41  1  6  0  0  0
 40 39  1  0  0  0  0
 41 42  1  0  0  0  0
M  END
>  <CHROM.1>
-134.52468416,57.40441713,51.00877083,175.34508209,-170.61608115,-173.58971770
62.56550229,-59.06438172,-63.25840009,-3.52610567,13.06557783,37.05245150
-1.64918880,-0.40544314,-3.10878860

>  <Name>
lig.pdb

>  <RI>
0

>  <Rbt.Current_Directory>
/home/itssahil/PROJECTS/Mol_Feturizer/New_Systems/rnas/4wcr

>  <Rbt.Executable>
rbdock ($Id: //depot/dev/client3/rdock/2013.1/src/exe/rbdock.cxx#4 $)

>  <Rbt.Library>
libRbt.so (2013.1, Build901 2013/11/27)

>  <Rbt.Parameter_File>
/export/apps/rDock/src/rDock_2013.1_src/data/scripts/dock_solv.prm

>  <Rbt.Receptor>
prm/pocket_docking_2.prm

>  <SCORE>
1.06779

>  <SCORE.INTER>
4.53337

>  <SCORE.INTER.CONST>
1

>  <SCORE.INTER.POLAR>
0

>  <SCORE.INTER.ROT>
9

>  <SCORE.INTER.SOLV>
21.3279

>  <SCORE.INTER.VDW>
-13.687

>  <SCORE.INTER.norm>
0.107937

>  <SCORE.INTRA>
-4.49348

>  <SCORE.INTRA.DIHEDRAL>
-8.33759

>  <SCORE.INTRA.DIHEDRAL.0>
16.2863

>  <SCORE.INTRA.POLAR>
0

>  <SCORE.INTRA.POLAR.0>
0

>  <SCORE.INTRA.REPUL>
-0.31169

>  <SCORE.INTRA.REPUL.0>
0.314433

>  <SCORE.INTRA.SOLV>
0.524089

>  <SCORE.INTRA.SOLV.lig_0>
-103.824

>  <SCORE.INTRA.VDW>
0.971718

>  <SCORE.INTRA.VDW.0>
-5.30945

>  <SCORE.INTRA.norm>
-0.106988

>  <SCORE.RESTR>
1.02791

>  <SCORE.RESTR.CAVITY>
1.02791

>  <SCORE.RESTR.norm>
0.024474

>  <SCORE.SYSTEM>
0

>  <SCORE.SYSTEM.CONST>
0

>  <SCORE.SYSTEM.DIHEDRAL>
0

>  <SCORE.SYSTEM.SOLV>
0

>  <SCORE.SYSTEM.norm>
0

>  <SCORE.heavy>
42

>  <SCORE.norm>
0.0254237

>  <RMSD>
3.016

$$$$
lig.pdb
 OpenBabel11021811513D
libRbt.so/2013.1/901 2013/11/27
 42 45  0  0  0  0  0  0  0  0999 V2000
   -0.4393   14.5800   36.1542 C   0  0  2  0  0  0  0  0  0  0  0  0
   -1.4203   14.7874   37.2181 O   0  0  0  0  0  0  0  0  0  0  0  0
    0.9639   14.3702   36.8801 C   0  0  2  0  0  0  0  0  0  0  0  0
    0.9238   13.1769   37.7299 N   0  0  0  0  0  0  0  0  0  0  0  0
    1.3183   15.6968   37.7132 C   0  0  1  0  0  0  0  0  0  0  0  0
    2.5891   15.5663   38.3844 O   0  0  0  0  0  0  0  0  0  0  0  0
    1.3210   16.8707   36.7190 C   0  0  2  0  0  0  0  0  0  0  0  0
    1.6225   18.0372   37.4060 O   0  0  0  0  0  0  0  0  0  0  0  0
   -0.1025   16.9818   36.0050 C   0  0  2  0  0  0  0  0  0  0  0  0
   -0.4224   15.7804   35.2924 O   0  0  0  0  0  0  0  0  0  0  0  0
   -0.1467   18.1043   35.0074 C   0  0  0  0  0  0  0  0  0  0  0  0
   -1.4664   18.1470   34.4629 O   0  0  0  0  0  0  0  0  0  0  0  0
   -5.7503   13.8525   37.6046 C   0  0  2  0  0  0  0  0  0  0  0  0
   -7.1838   13.9077   37.4177 N   0  0  0  0  0  0  0  0  0  0  0  0
   -5.2051   15.2640   38.0510 C   0  0  0  0  0  0  0  0  0  0  0  0
   -3.6497   15.2318   38.2565 C   0  0  2  0  0  0  0  0  0  0  0  0
   -3.1852   16.5570   38.6615 N   0  0  0  0  0  0  0  0  0  0  0  0
   -2.8704   14.7977   36.9364 C   0  0  2  0  0  0  0  0  0  0  0  0
   -3.3917   13.3889   36.5301 C   0  0  2  0  0  0  0  0  0  0  0  0
   -2.6020   13.0503   35.2873 O   0  0  0  0  0  0  0  0  0  0  0  0
   -4.9941   13.4446   36.2534 C   0  0  1  0  0  0  0  0  0  0  0  0
   -5.6074   12.1593   35.9157 O   0  0  0  0  0  0  0  0  0  0  0  0
   -2.6794   11.7140   34.9950 C   0  0  1  0  0  0  0  0  0  0  0  0
   -1.9123   11.3404   33.8020 C   0  0  2  0  0  0  0  0  0  0  0  0
   -2.6019   11.8269   32.6954 O   0  0  0  0  0  0  0  0  0  0  0  0
   -1.7595    9.8183   34.0089 C   0  0  2  0  0  0  0  0  0  0  0  0
   -2.4066    9.1777   32.8861 O   0  0  0  0  0  0  0  0  0  0  0  0
   -2.4483    9.5362   35.3034 C   0  0  2  0  0  0  0  0  0  0  0  0
   -2.1476   10.8200   35.9587 O   0  0  0  0  0  0  0  0  0  0  0  0
   -1.7663    8.3524   36.0831 C   0  0  0  0  0  0  0  0  0  0  0  0
   -0.3713    8.6054   36.4283 O   0  0  0  0  0  0  0  0  0  0  0  0
   -2.3896    7.7183   32.8588 C   0  0  2  0  0  0  0  0  0  0  0  0
   -2.8550    7.2271   31.3904 C   0  0  2  0  0  0  0  0  0  0  0  0
   -4.2211    7.7708   31.0989 N   0  0  0  0  0  0  0  0  0  0  0  0
   -2.8299    5.6200   31.3675 C   0  0  1  0  0  0  0  0  0  0  0  0
   -1.4637    5.2031   31.6696 O   0  0  0  0  0  0  0  0  0  0  0  0
   -3.8550    5.0579   32.4528 C   0  0  2  0  0  0  0  0  0  0  0  0
   -5.2121    5.5089   32.0717 O   0  0  0  0  0  0  0  0  0  0  0  0
   -3.3995    5.6129   33.9178 C   0  0  1  0  0  0  0  0  0  0  0  0
   -3.3600    7.1205   33.8980 O   0  0  0  0  0  0  0  0  0  0  0  0
   -4.3958    5.0940   35.0072 C   0  0  0  0  0  0  0  0  0  0  0  0
   -3.9774    5.4575   36.3965 N   0  0  0  0  0  0  0  0  0  0  0  0
  1  3  1  0  0  0  0
  1  2  1  1  0  0  0
  3  4  1  1  0  0  0
  3  5  1  0  0  0  0
  5  6  1  6  0  0  0
  7  8  1  1  0  0  0
  7  5  1  0  0  0  0
  9 11  1  6  0  0  0
  9  7  1  0  0  0  0
 10  9  1  0  0  0  0
 10  1  1  0  0  0  0
 12 11  1  0  0  0  0
 13 14  1  6  0  0  0
 15 13  1  0  0  0  0
 16 17  1  6  0  0  0
 16 15  1  0  0  0  0
 18  2  1  1  0  0  0
 18 19  1  0  0  0  0
 18 16  1  0  0  0  0
 19 20  1  6  0  0  0
 19 21  1  0  0  0  0
 21 22  1  1  0  0  0
 21 13  1  0  0  0  0
 23 20  1  1  0  0  0
 23 29  1  0  0  0  0
 24 25  1  6  0  0  0
 24 26  1  0  0  0  0
 24 23  1  0  0  0  0
 26 27  1  6  0  0  0
 26 28  1  0  0  0  0
 28 30  1  1  0  0  0
 29 28  1  0  0  0  0
 30 31  1  0  0  0  0
 32 27  1  6  0  0  0
 32 40  1  0  0  0  0
 33 35  1  0  0  0  0
 33 32  1  0  0  0  0
 33 34  1  1  0  0  0
 35 36  1  1  0  0  0
 35 37  1  0  0  0  0
 37 38  1  6  0  0  0
 37 39  1  0  0  0  0
 39 41  1  1  0  0  0
 40 39  1  0  0  0  0
 41 42  1  0  0  0  0
M  END
>  <CHROM.1>
-169.89380678,-178.04555400,-172.72011528,164.19227798,-179.34168980,179.87717075
60.56790170,-167.38828013,174.81538574,-2.25899217,11.72764221,35.32419333
-1.32492442,-0.19850730,-2.72055474

>  <Name>
lig.pdb

>  <RI>
0

>  <Rbt.Current_Directory>
/home/itssahil/PROJECTS/Mol_Feturizer/New_Systems/rnas/4wcr

>  <Rbt.Executable>
rbdock ($Id: //depot/dev/client3/rdock/2013.1/src/exe/rbdock.cxx#4 $)

>  <Rbt.Library>
libRbt.so (2013.1, Build901 2013/11/27)

>  <Rbt.Parameter_File>
/export/apps/rDock/src/rDock_2013.1_src/data/scripts/dock_solv.prm

>  <Rbt.Receptor>
prm/pocket_docking_5.prm

>  <SCORE>
-11.9007

>  <SCORE.INTER>
-2.14645

>  <SCORE.INTER.CONST>
1

>  <SCORE.INTER.POLAR>
0

>  <SCORE.INTER.ROT>
9

>  <SCORE.INTER.SOLV>
17.0634

>  <SCORE.INTER.VDW>
-16.7188

>  <SCORE.INTER.norm>
-0.051106

>  <SCORE.INTRA>
-9.75427

>  <SCORE.INTRA.DIHEDRAL>
-12.9518

>  <SCORE.INTRA.DIHEDRAL.0>
16.2863

>  <SCORE.INTRA.POLAR>
0

>  <SCORE.INTRA.POLAR.0>
0

>  <SCORE.INTRA.REPUL>
-0.314433

>  <SCORE.INTRA.REPUL.0>
0.314433

>  <SCORE.INTRA.SOLV>
-5.27272

>  <SCORE.INTRA.SOLV.lig_0>
-103.824

>  <SCORE.INTRA.VDW>
0.930141

>  <SCORE.INTRA.VDW.0>
-5.30945

>  <SCORE.INTRA.norm>
-0.232244

>  <SCORE.RESTR>
0

>  <SCORE.RESTR.CAVITY>
0

>  <SCORE.RESTR.norm>
0

>  <SCORE.SYSTEM>
0

>  <SCORE.SYSTEM.CONST>
0

>  <SCORE.SYSTEM.DIHEDRAL>
0

>  <SCORE.SYSTEM.SOLV>
0

>  <SCORE.SYSTEM.norm>
0

>  <SCORE.heavy>
42

>  <SCORE.norm>
-0.28335

>  <RMSD>
3.017

$$$$
lig.pdb
 OpenBabel11021811513D
libRbt.so/2013.1/901 2013/11/27
 42 45  0  0  0  0  0  0  0  0999 V2000
   -0.3737   14.3793   36.6221 C   0  0  2  0  0  0  0  0  0  0  0  0
   -1.0235   14.3923   37.9315 O   0  0  0  0  0  0  0  0  0  0  0  0
    1.1913   14.2764   36.9051 C   0  0  2  0  0  0  0  0  0  0  0  0
    1.5010   13.0253   37.6027 N   0  0  0  0  0  0  0  0  0  0  0  0
    1.6512   15.5678   37.7421 C   0  0  1  0  0  0  0  0  0  0  0  0
    3.0673   15.5325   38.0178 O   0  0  0  0  0  0  0  0  0  0  0  0
    1.2661   16.8063   36.9148 C   0  0  2  0  0  0  0  0  0  0  0  0
    1.6478   17.9441   37.6099 O   0  0  0  0  0  0  0  0  0  0  0  0
   -0.3061   16.8082   36.6384 C   0  0  2  0  0  0  0  0  0  0  0  0
   -0.7096   15.6356   35.9201 O   0  0  0  0  0  0  0  0  0  0  0  0
   -0.7324   17.9907   35.8154 C   0  0  0  0  0  0  0  0  0  0  0  0
   -0.0395   17.9220   34.5686 O   0  0  0  0  0  0  0  0  0  0  0  0
   -4.8498   12.6894   39.4258 C   0  0  2  0  0  0  0  0  0  0  0  0
   -6.2654   12.5003   39.6567 N   0  0  0  0  0  0  0  0  0  0  0  0
   -4.4212   14.1500   39.8403 C   0  0  0  0  0  0  0  0  0  0  0  0
   -2.8887   14.3822   39.5950 C   0  0  2  0  0  0  0  0  0  0  0  0
   -2.5352   15.7458   39.9840 N   0  0  0  0  0  0  0  0  0  0  0  0
   -2.4758   14.1611   38.0722 C   0  0  2  0  0  0  0  0  0  0  0  0
   -2.8704   12.7053   37.6895 C   0  0  2  0  0  0  0  0  0  0  0  0
   -2.4396   12.5759   36.2471 O   0  0  0  0  0  0  0  0  0  0  0  0
   -4.4719   12.4916   37.8823 C   0  0  1  0  0  0  0  0  0  0  0  0
   -4.9520   11.1374   37.6035 O   0  0  0  0  0  0  0  0  0  0  0  0
   -2.3303   11.2620   35.8744 C   0  0  1  0  0  0  0  0  0  0  0  0
   -1.9962   11.0918   34.4565 C   0  0  2  0  0  0  0  0  0  0  0  0
   -3.1323   11.4141   33.7202 O   0  0  0  0  0  0  0  0  0  0  0  0
   -1.4546    9.6462   34.4480 C   0  0  2  0  0  0  0  0  0  0  0  0
   -2.3161    8.8833   33.5731 O   0  0  0  0  0  0  0  0  0  0  0  0
   -1.5397    9.1966   35.8693 C   0  0  2  0  0  0  0  0  0  0  0  0
   -1.3021   10.5081   36.4948 O   0  0  0  0  0  0  0  0  0  0  0  0
   -0.3811    8.1982   36.2373 C   0  0  0  0  0  0  0  0  0  0  0  0
   -0.4327    7.7241   37.6164 O   0  0  0  0  0  0  0  0  0  0  0  0
   -1.9236    7.5045   33.2979 C   0  0  2  0  0  0  0  0  0  0  0  0
   -2.8368    6.9427   32.0877 C   0  0  2  0  0  0  0  0  0  0  0  0
   -4.2817    7.0408   32.4741 N   0  0  0  0  0  0  0  0  0  0  0  0
   -2.3958    5.4261   31.7886 C   0  0  1  0  0  0  0  0  0  0  0  0
   -0.9800    5.4480   31.4329 O   0  0  0  0  0  0  0  0  0  0  0  0
   -2.6479    4.5345   33.0870 C   0  0  2  0  0  0  0  0  0  0  0  0
   -4.0997    4.5505   33.3738 O   0  0  0  0  0  0  0  0  0  0  0  0
   -1.7618    5.1538   34.3090 C   0  0  1  0  0  0  0  0  0  0  0  0
   -2.1395    6.5976   34.5268 O   0  0  0  0  0  0  0  0  0  0  0  0
   -1.9988    4.3119   35.6065 C   0  0  0  0  0  0  0  0  0  0  0  0
   -1.0974    4.7125   36.7309 N   0  0  0  0  0  0  0  0  0  0  0  0
  1  3  1  0  0  0  0
  1  2  1  1  0  0  0
  3  4  1  1  0  0  0
  3  5  1  0  0  0  0
  5  6  1  6  0  0  0
  7  8  1  1  0  0  0
  7  5  1  0  0  0  0
  9 11  1  6  0  0  0
  9  7  1  0  0  0  0
 10  9  1  0  0  0  0
 10  1  1  0  0  0  0
 12 11  1  0  0  0  0
 13 14  1  6  0  0  0
 15 13  1  0  0  0  0
 16 17  1  6  0  0  0
 16 15  1  0  0  0  0
 18  2  1  1  0  0  0
 18 19  1  0  0  0  0
 18 16  1  0  0  0  0
 19 20  1  6  0  0  0
 19 21  1  0  0  0  0
 21 22  1  1  0  0  0
 21 13  1  0  0  0  0
 23 20  1  1  0  0  0
 23 29  1  0  0  0  0
 24 25  1  6  0  0  0
 24 26  1  0  0  0  0
 24 23  1  0  0  0  0
 26 27  1  6  0  0  0
 26 28  1  0  0  0  0
 28 30  1  1  0  0  0
 29 28  1  0  0  0  0
 30 31  1  0  0  0  0
 32 27  1  1  0  0  0
 32 40  1  0  0  0  0
 33 35  1  0  0  0  0
 33 32  1  0  0  0  0
 33 34  1  1  0  0  0
 35 36  1  1  0  0  0
 35 37  1  0  0  0  0
 37 38  1  1  0  0  0
 37 39  1  0  0  0  0
 39 41  1  1  0  0  0
 40 39  1  0  0  0  0
 41 42  1  0  0  0  0
M  END
>  <CHROM.1>
-165.41341423,60.10217496,-174.45268769,161.24119780,176.36446039,174.07808026
-179.51159576,-168.72532082,173.05002213,-1.69823665,11.26804823,36.06150093
-1.35852226,-0.61319888,-2.65533572

>  <Name>
lig.pdb

>  <RI>
0

>  <Rbt.Current_Directory>
/home/itssahil/PROJECTS/Mol_Feturizer/New_Systems/rnas/4wcr

>  <Rbt.Executable>
rbdock ($Id: //depot/dev/client3/rdock/2013.1/src/exe/rbdock.cxx#4 $)

>  <Rbt.Library>
libRbt.so (2013.1, Build901 2013/11/27)

>  <Rbt.Parameter_File>
/export/apps/rDock/src/rDock_2013.1_src/data/scripts/dock_solv.prm

>  <Rbt.Receptor>
prm/pocket_docking_4.prm

>  <SCORE>
-7.84848

>  <SCORE.INTER>
0.958472

>  <SCORE.INTER.CONST>
1

>  <SCORE.INTER.POLAR>
0

>  <SCORE.INTER.ROT>
9

>  <SCORE.INTER.SOLV>
14.0181

>  <SCORE.INTER.VDW>
-13.6337

>  <SCORE.INTER.norm>
0.0228208

>  <SCORE.INTRA>
-8.80696

>  <SCORE.INTRA.DIHEDRAL>
-11.9713

>  <SCORE.INTRA.DIHEDRAL.0>
16.2863

>  <SCORE.INTRA.POLAR>
0

>  <SCORE.INTRA.POLAR.0>
0

>  <SCORE.INTRA.REPUL>
-0.314433

>  <SCORE.INTRA.REPUL.0>
0.314433

>  <SCORE.INTRA.SOLV>
-3.99007

>  <SCORE.INTRA.SOLV.lig_0>
-103.824

>  <SCORE.INTRA.VDW>
0.745884

>  <SCORE.INTRA.VDW.0>
-5.30945

>  <SCORE.INTRA.norm>
-0.209689

>  <SCORE.RESTR>
0

>  <SCORE.RESTR.CAVITY>
0

>  <SCORE.RESTR.norm>
0

>  <SCORE.SYSTEM>
0

>  <SCORE.SYSTEM.CONST>
0

>  <SCORE.SYSTEM.DIHEDRAL>
0

>  <SCORE.SYSTEM.SOLV>
0

>  <SCORE.SYSTEM.norm>
0

>  <SCORE.heavy>
42

>  <SCORE.norm>
-0.186869

>  <RMSD>
3.060

$$$$
lig.pdb
 OpenBabel11021811513D
libRbt.so/2013.1/901 2013/11/27
 42 45  0  0  0  0  0  0  0  0999 V2000
   -1.1859   16.6842   35.7713 C   0  0  2  0  0  0  0  0  0  0  0  0
   -1.9038   17.4145   36.8146 O   0  0  0  0  0  0  0  0  0  0  0  0
   -0.0379   17.6622   35.2559 C   0  0  2  0  0  0  0  0  0  0  0  0
    0.8920   17.9739   36.3448 N   0  0  0  0  0  0  0  0  0  0  0  0
   -0.7194   18.9815   34.6435 C   0  0  1  0  0  0  0  0  0  0  0  0
    0.2771   19.9009   34.1494 O   0  0  0  0  0  0  0  0  0  0  0  0
   -1.6717   18.5239   33.5254 C   0  0  2  0  0  0  0  0  0  0  0  0
   -2.2814   19.6405   32.9731 O   0  0  0  0  0  0  0  0  0  0  0  0
   -2.7588   17.5150   34.1160 C   0  0  2  0  0  0  0  0  0  0  0  0
   -2.1374   16.3577   34.6889 O   0  0  0  0  0  0  0  0  0  0  0  0
   -3.7043   17.0222   33.0576 C   0  0  0  0  0  0  0  0  0  0  0  0
   -3.0598   15.9511   32.3669 O   0  0  0  0  0  0  0  0  0  0  0  0
   -4.6321   16.0274   40.0403 C   0  0  2  0  0  0  0  0  0  0  0  0
   -5.8208   15.5608   40.7202 N   0  0  0  0  0  0  0  0  0  0  0  0
   -4.9360   17.3726   39.2743 C   0  0  0  0  0  0  0  0  0  0  0  0
   -3.6619   17.8980   38.5239 C   0  0  2  0  0  0  0  0  0  0  0  0
   -3.9873   19.1384   37.8230 N   0  0  0  0  0  0  0  0  0  0  0  0
   -3.1006   16.8456   37.4676 C   0  0  2  0  0  0  0  0  0  0  0  0
   -2.7705   15.5378   38.2438 C   0  0  2  0  0  0  0  0  0  0  0  0
   -2.2397   14.6047   37.1806 O   0  0  0  0  0  0  0  0  0  0  0  0
   -4.1111   14.9622   38.9641 C   0  0  1  0  0  0  0  0  0  0  0  0
   -3.9095   13.7588   39.7724 O   0  0  0  0  0  0  0  0  0  0  0  0
   -1.5116   13.5829   37.7312 C   0  0  1  0  0  0  0  0  0  0  0  0
   -1.0833   12.5851   36.7452 C   0  0  2  0  0  0  0  0  0  0  0  0
   -2.2088   11.8531   36.3789 O   0  0  0  0  0  0  0  0  0  0  0  0
    0.0741   11.8963   37.4997 C   0  0  2  0  0  0  0  0  0  0  0  0
   -0.2940   10.5064   37.6487 O   0  0  0  0  0  0  0  0  0  0  0  0
    0.1566   12.6099   38.8088 C   0  0  2  0  0  0  0  0  0  0  0  0
   -0.2739   13.9332   38.3279 O   0  0  0  0  0  0  0  0  0  0  0  0
    1.6337   12.6781   39.3457 C   0  0  0  0  0  0  0  0  0  0  0  0
    1.7659   13.4022   40.6056 O   0  0  0  0  0  0  0  0  0  0  0  0
    0.4336    9.5395   36.8322 C   0  0  2  0  0  0  0  0  0  0  0  0
   -0.1143    9.6345   35.3140 C   0  0  2  0  0  0  0  0  0  0  0  0
   -1.5894    9.3686   35.3049 N   0  0  0  0  0  0  0  0  0  0  0  0
    0.6942    8.5699   34.4213 C   0  0  1  0  0  0  0  0  0  0  0  0
    2.1097    8.9168   34.5082 O   0  0  0  0  0  0  0  0  0  0  0  0
    0.4281    7.0992   34.9787 C   0  0  2  0  0  0  0  0  0  0  0  0
   -1.0186    6.8177   34.8445 O   0  0  0  0  0  0  0  0  0  0  0  0
    0.9353    7.0434   36.5284 C   0  0  1  0  0  0  0  0  0  0  0  0
    0.2174    8.0971   37.3341 O   0  0  0  0  0  0  0  0  0  0  0  0
    0.6728    5.6163   37.1141 C   0  0  0  0  0  0  0  0  0  0  0  0
    1.0906    5.4905   38.5449 N   0  0  0  0  0  0  0  0  0  0  0  0
  1  3  1  0  0  0  0
  1  2  1  1  0  0  0
  3  4  1  1  0  0  0
  3  5  1  0  0  0  0
  5  6  1  6  0  0  0
  7  8  1  1  0  0  0
  7  5  1  0  0  0  0
  9 11  1  6  0  0  0
  9  7  1  0  0  0  0
 10  9  1  0  0  0  0
 10  1  1  0  0  0  0
 12 11  1  0  0  0  0
 13 14  1  6  0  0  0
 15 13  1  0  0  0  0
 16 17  1  6  0  0  0
 16 15  1  0  0  0  0
 18  2  1  1  0  0  0
 18 19  1  0  0  0  0
 18 16  1  0  0  0  0
 19 20  1  6  0  0  0
 19 21  1  0  0  0  0
 21 22  1  1  0  0  0
 21 13  1  0  0  0  0
 23 20  1  6  0  0  0
 23 29  1  0  0  0  0
 24 25  1  1  0  0  0
 24 26  1  0  0  0  0
 24 23  1  0  0  0  0
 26 27  1  1  0  0  0
 26 28  1  0  0  0  0
 28 30  1  6  0  0  0
 29 28  1  0  0  0  0
 30 31  1  0  0  0  0
 32 27  1  1  0  0  0
 32 40  1  0  0  0  0
 33 35  1  0  0  0  0
 33 32  1  0  0  0  0
 33 34  1  1  0  0  0
 35 36  1  1  0  0  0
 35 37  1  0  0  0  0
 37 38  1  1  0  0  0
 37 39  1  0  0  0  0
 39 41  1  1  0  0  0
 40 39  1  0  0  0  0
 41 42  1  0  0  0  0
M  END
>  <CHROM.1>
176.03652148,81.81060945,-178.61979953,160.47484676,174.62215899,108.10088259
178.30613010,-75.58405286,-178.99936082,-1.30674101,13.67362598,36.66220560
-2.25032058,-1.10239878,2.45924836

>  <Name>
lig.pdb

>  <RI>
0

>  <Rbt.Current_Directory>
/home/itssahil/PROJECTS/Mol_Feturizer/New_Systems/rnas/4wcr

>  <Rbt.Executable>
rbdock ($Id: //depot/dev/client3/rdock/2013.1/src/exe/rbdock.cxx#4 $)

>  <Rbt.Library>
libRbt.so (2013.1, Build901 2013/11/27)

>  <Rbt.Parameter_File>
/export/apps/rDock/src/rDock_2013.1_src/data/scripts/dock_solv.prm

>  <Rbt.Receptor>
prm/pocket_docking_5.prm

>  <SCORE>
-6.32329

>  <SCORE.INTER>
-1.32069

>  <SCORE.INTER.CONST>
1

>  <SCORE.INTER.POLAR>
0

>  <SCORE.INTER.ROT>
9

>  <SCORE.INTER.SOLV>
18.3959

>  <SCORE.INTER.VDW>
-16.6124

>  <SCORE.INTER.norm>
-0.0314451

>  <SCORE.INTRA>
-5.00814

>  <SCORE.INTRA.DIHEDRAL>
-4.74086

>  <SCORE.INTRA.DIHEDRAL.0>
16.2863

>  <SCORE.INTRA.POLAR>
0

>  <SCORE.INTRA.POLAR.0>
0

>  <SCORE.INTRA.REPUL>
-0.314433

>  <SCORE.INTRA.REPUL.0>
0.314433

>  <SCORE.INTRA.SOLV>
-4.58821

>  <SCORE.INTRA.SOLV.lig_0>
-103.824

>  <SCORE.INTRA.VDW>
1.22855

>  <SCORE.INTRA.VDW.0>
-5.30945

>  <SCORE.INTRA.norm>
-0.119242

>  <SCORE.RESTR>
0.00555009

>  <SCORE.RESTR.CAVITY>
0.00555009

>  <SCORE.RESTR.norm>
0.000132145

>  <SCORE.SYSTEM>
0

>  <SCORE.SYSTEM.CONST>
0

>  <SCORE.SYSTEM.DIHEDRAL>
0

>  <SCORE.SYSTEM.SOLV>
0

>  <SCORE.SYSTEM.norm>
0

>  <SCORE.heavy>
42

>  <SCORE.norm>
-0.150554

>  <RMSD>
3.155

$$$$
lig.pdb
 OpenBabel11021811513D
libRbt.so/2013.1/901 2013/11/27
 42 45  0  0  0  0  0  0  0  0999 V2000
   -2.0020   15.0356   37.3607 C   0  0  2  0  0  0  0  0  0  0  0  0
   -2.9505   15.9470   37.9985 O   0  0  0  0  0  0  0  0  0  0  0  0
   -0.6350   15.8434   37.2235 C   0  0  2  0  0  0  0  0  0  0  0  0
   -0.1258   16.2104   38.5478 N   0  0  0  0  0  0  0  0  0  0  0  0
   -0.8851   17.1279   36.2922 C   0  0  1  0  0  0  0  0  0  0  0  0
    0.3269   17.8930   36.1240 O   0  0  0  0  0  0  0  0  0  0  0  0
   -1.4224   16.6149   34.9452 C   0  0  2  0  0  0  0  0  0  0  0  0
   -1.6523   17.7006   34.1133 O   0  0  0  0  0  0  0  0  0  0  0  0
   -2.7637   15.7808   35.1769 C   0  0  2  0  0  0  0  0  0  0  0  0
   -2.5354   14.6565   36.0357 O   0  0  0  0  0  0  0  0  0  0  0  0
   -3.3205   15.2399   33.8906 C   0  0  0  0  0  0  0  0  0  0  0  0
   -2.5457   14.0951   33.5317 O   0  0  0  0  0  0  0  0  0  0  0  0
   -7.0406   15.1009   39.5242 C   0  0  2  0  0  0  0  0  0  0  0  0
   -8.4756   14.9221   39.5652 N   0  0  0  0  0  0  0  0  0  0  0  0
   -6.6867   16.5345   38.9688 C   0  0  0  0  0  0  0  0  0  0  0  0
   -5.1337   16.7522   38.9101 C   0  0  2  0  0  0  0  0  0  0  0  0
   -4.8492   18.0860   38.3848 N   0  0  0  0  0  0  0  0  0  0  0  0
   -4.4023   15.6742   37.9929 C   0  0  2  0  0  0  0  0  0  0  0  0
   -4.7299   14.2687   38.5750 C   0  0  2  0  0  0  0  0  0  0  0  0
   -3.9970   13.3139   37.6618 O   0  0  0  0  0  0  0  0  0  0  0  0
   -6.3384   14.0232   38.5704 C   0  0  1  0  0  0  0  0  0  0  0  0
   -6.7704   12.7501   39.1490 O   0  0  0  0  0  0  0  0  0  0  0  0
   -4.1579   12.0144   38.0649 C   0  0  1  0  0  0  0  0  0  0  0  0
   -3.3478   11.0673   37.2916 C   0  0  2  0  0  0  0  0  0  0  0  0
   -3.9266   10.9581   36.0308 O   0  0  0  0  0  0  0  0  0  0  0  0
   -3.3255    9.8490   38.2395 C   0  0  2  0  0  0  0  0  0  0  0  0
   -3.9473    8.7554   37.5276 O   0  0  0  0  0  0  0  0  0  0  0  0
   -4.1143   10.2771   39.4328 C   0  0  2  0  0  0  0  0  0  0  0  0
   -3.7583   11.7051   39.3898 O   0  0  0  0  0  0  0  0  0  0  0  0
   -3.5757    9.6198   40.7566 C   0  0  0  0  0  0  0  0  0  0  0  0
   -2.1845    9.9483   41.0494 O   0  0  0  0  0  0  0  0  0  0  0  0
   -3.7673    7.4179   38.0841 C   0  0  2  0  0  0  0  0  0  0  0  0
   -2.1880    7.1717   38.3276 C   0  0  2  0  0  0  0  0  0  0  0  0
   -1.4580    7.3341   37.0286 N   0  0  0  0  0  0  0  0  0  0  0  0
   -1.9989    5.6991   38.9437 C   0  0  1  0  0  0  0  0  0  0  0  0
   -2.7527    5.6514   40.1931 O   0  0  0  0  0  0  0  0  0  0  0  0
   -2.5397    4.6159   37.9051 C   0  0  2  0  0  0  0  0  0  0  0  0
   -1.7207    4.7165   36.6765 O   0  0  0  0  0  0  0  0  0  0  0  0
   -4.1192    4.9190   37.6307 C   0  0  1  0  0  0  0  0  0  0  0  0
   -4.2829    6.3290   37.1211 O   0  0  0  0  0  0  0  0  0  0  0  0
   -4.6797    3.8833   36.6002 C   0  0  0  0  0  0  0  0  0  0  0  0
   -4.0432    4.0037   35.2520 N   0  0  0  0  0  0  0  0  0  0  0  0
  1  3  1  0  0  0  0
  1  2  1  6  0  0  0
  3  4  1  1  0  0  0
  3  5  1  0  0  0  0
  5  6  1  6  0  0  0
  7  8  1  6  0  0  0
  7  5  1  0  0  0  0
  9 11  1  6  0  0  0
  9  7  1  0  0  0  0
 10  9  1  0  0  0  0
 10  1  1  0  0  0  0
 12 11  1  0  0  0  0
 13 14  1  6  0  0  0
 15 13  1  0  0  0  0
 16 17  1  6  0  0  0
 16 15  1  0  0  0  0
 18  2  1  1  0  0  0
 18 19  1  0  0  0  0
 18 16  1  0  0  0  0
 19 20  1  6  0  0  0
 19 21  1  0  0  0  0
 21 22  1  1  0  0  0
 21 13  1  0  0  0  0
 23 20  1  6  0  0  0
 23 29  1  0  0  0  0
 24 25  1  6  0  0  0
 24 26  1  0  0  0  0
 24 23  1  0  0  0  0
 26 27  1  6  0  0  0
 26 28  1  0  0  0  0
 28 30  1  1  0  0  0
 29 28  1  0  0  0  0
 30 31  1  0  0  0  0
 32 27  1  6  0  0  0
 32 40  1  0  0  0  0
 33 35  1  0  0  0  0
 33 32  1  0  0  0  0
 33 34  1  6  0  0  0
 35 36  1  1  0  0  0
 35 37  1  0  0  0  0
 37 38  1  6  0  0  0
 37 39  1  0  0  0  0
 39 41  1  6  0  0  0
 40 39  1  0  0  0  0
 41 42  1  0  0  0  0
M  END
>  <CHROM.1>
164.83224118,77.77193246,173.31378505,178.42733252,-173.88038245,165.96703731
59.77793866,-51.82436438,-64.40240359,-3.43072674,11.88056813,37.60136941
-1.55700198,-0.70526879,3.06684338

>  <Name>
lig.pdb

>  <RI>
0

>  <Rbt.Current_Directory>
/home/itssahil/PROJECTS/Mol_Feturizer/New_Systems/rnas/4wcr

>  <Rbt.Executable>
rbdock ($Id: //depot/dev/client3/rdock/2013.1/src/exe/rbdock.cxx#4 $)

>  <Rbt.Library>
libRbt.so (2013.1, Build901 2013/11/27)

>  <Rbt.Parameter_File>
/export/apps/rDock/src/rDock_2013.1_src/data/scripts/dock_solv.prm

>  <Rbt.Receptor>
prm/pocket_docking_3.prm

>  <SCORE>
-4.86805

>  <SCORE.INTER>
1.91137

>  <SCORE.INTER.CONST>
1

>  <SCORE.INTER.POLAR>
0

>  <SCORE.INTER.ROT>
9

>  <SCORE.INTER.SOLV>
13.3275

>  <SCORE.INTER.VDW>
-12.7683

>  <SCORE.INTER.norm>
0.0455088

>  <SCORE.INTRA>
-6.77942

>  <SCORE.INTRA.DIHEDRAL>
-11.878

>  <SCORE.INTRA.DIHEDRAL.0>
16.2863

>  <SCORE.INTRA.POLAR>
0

>  <SCORE.INTRA.POLAR.0>
0

>  <SCORE.INTRA.REPUL>
-0.314433

>  <SCORE.INTRA.REPUL.0>
0.314433

>  <SCORE.INTRA.SOLV>
-3.07009

>  <SCORE.INTRA.SOLV.lig_0>
-103.824

>  <SCORE.INTRA.VDW>
2.26677

>  <SCORE.INTRA.VDW.0>
-5.30945

>  <SCORE.INTRA.norm>
-0.161415

>  <SCORE.RESTR>
0

>  <SCORE.RESTR.CAVITY>
0

>  <SCORE.RESTR.norm>
0

>  <SCORE.SYSTEM>
0

>  <SCORE.SYSTEM.CONST>
0

>  <SCORE.SYSTEM.DIHEDRAL>
0

>  <SCORE.SYSTEM.SOLV>
0

>  <SCORE.SYSTEM.norm>
0

>  <SCORE.heavy>
42

>  <SCORE.norm>
-0.115906

>  <RMSD>
3.166

$$$$
lig.pdb
 OpenBabel11021811513D
libRbt.so/2013.1/901 2013/11/27
 42 45  0  0  0  0  0  0  0  0999 V2000
   -1.0635   16.1840   37.2843 C   0  0  2  0  0  0  0  0  0  0  0  0
   -1.8715   17.1784   37.9884 O   0  0  0  0  0  0  0  0  0  0  0  0
    0.4327   16.7325   37.3068 C   0  0  2  0  0  0  0  0  0  0  0  0
    0.9126   16.8454   38.6869 N   0  0  0  0  0  0  0  0  0  0  0  0
    0.4795   18.1382   36.5312 C   0  0  1  0  0  0  0  0  0  0  0  0
    1.8179   18.6775   36.5109 O   0  0  0  0  0  0  0  0  0  0  0  0
   -0.0529   17.8907   35.1093 C   0  0  2  0  0  0  0  0  0  0  0  0
   -0.0286   19.0874   34.4086 O   0  0  0  0  0  0  0  0  0  0  0  0
   -1.5347   17.3011   35.1785 C   0  0  2  0  0  0  0  0  0  0  0  0
   -1.5693   16.0640   35.9010 O   0  0  0  0  0  0  0  0  0  0  0  0
   -2.0952   17.0230   33.8126 C   0  0  0  0  0  0  0  0  0  0  0  0
   -3.4097   16.4918   33.9846 O   0  0  0  0  0  0  0  0  0  0  0  0
   -5.9809   17.5150   39.6533 C   0  0  2  0  0  0  0  0  0  0  0  0
   -7.4239   17.4818   39.7524 N   0  0  0  0  0  0  0  0  0  0  0  0
   -5.5392   18.4355   38.4506 C   0  0  0  0  0  0  0  0  0  0  0  0
   -3.9763   18.4848   38.3188 C   0  0  2  0  0  0  0  0  0  0  0  0
   -3.6101   19.3399   37.1916 N   0  0  0  0  0  0  0  0  0  0  0  0
   -3.3386   17.0421   38.0950 C   0  0  2  0  0  0  0  0  0  0  0  0
   -3.7517   16.1574   39.3068 C   0  0  2  0  0  0  0  0  0  0  0  0
   -3.1039   14.8222   39.0235 O   0  0  0  0  0  0  0  0  0  0  0  0
   -5.3731   16.0559   39.3973 C   0  0  1  0  0  0  0  0  0  0  0  0
   -5.8811   15.2902   40.5366 O   0  0  0  0  0  0  0  0  0  0  0  0
   -3.5782   14.2735   37.8611 C   0  0  1  0  0  0  0  0  0  0  0  0
   -2.9940   12.9615   37.5636 C   0  0  2  0  0  0  0  0  0  0  0  0
   -1.6786   13.1737   37.1618 O   0  0  0  0  0  0  0  0  0  0  0  0
   -4.0250   12.3945   36.5643 C   0  0  2  0  0  0  0  0  0  0  0  0
   -3.3202   12.1646   35.3233 O   0  0  0  0  0  0  0  0  0  0  0  0
   -5.0661   13.4580   36.4426 C   0  0  2  0  0  0  0  0  0  0  0  0
   -4.9642   13.9774   37.8165 O   0  0  0  0  0  0  0  0  0  0  0  0
   -6.4957   12.8512   36.1929 C   0  0  0  0  0  0  0  0  0  0  0  0
   -6.9874   12.0366   37.2992 O   0  0  0  0  0  0  0  0  0  0  0  0
   -2.3705   11.0563   35.2989 C   0  0  2  0  0  0  0  0  0  0  0  0
   -1.4825   11.1710   33.9526 C   0  0  2  0  0  0  0  0  0  0  0  0
   -2.3903   11.1491   32.7601 N   0  0  0  0  0  0  0  0  0  0  0  0
   -0.4374    9.9498   33.9353 C   0  0  1  0  0  0  0  0  0  0  0  0
    0.3842   10.0648   35.1367 O   0  0  0  0  0  0  0  0  0  0  0  0
   -1.2354    8.5688   33.9154 C   0  0  2  0  0  0  0  0  0  0  0  0
   -2.0294    8.5212   32.6674 O   0  0  0  0  0  0  0  0  0  0  0  0
   -2.1672    8.5007   35.2529 C   0  0  1  0  0  0  0  0  0  0  0  0
   -3.0910    9.6925   35.2873 O   0  0  0  0  0  0  0  0  0  0  0  0
   -2.9796    7.1634   35.2575 C   0  0  0  0  0  0  0  0  0  0  0  0
   -3.9191    7.0511   34.0991 N   0  0  0  0  0  0  0  0  0  0  0  0
  1  3  1  0  0  0  0
  1  2  1  1  0  0  0
  3  4  1  1  0  0  0
  3  5  1  0  0  0  0
  5  6  1  6  0  0  0
  7  8  1  6  0  0  0
  7  5  1  0  0  0  0
  9 11  1  6  0  0  0
  9  7  1  0  0  0  0
 10  9  1  0  0  0  0
 10  1  1  0  0  0  0
 12 11  1  0  0  0  0
 13 14  1  6  0  0  0
 15 13  1  0  0  0  0
 16 17  1  6  0  0  0
 16 15  1  0  0  0  0
 18  2  1  1  0  0  0
 18 19  1  0  0  0  0
 18 16  1  0  0  0  0
 19 20  1  6  0  0  0
 19 21  1  0  0  0  0
 21 22  1  1  0  0  0
 21 13  1  0  0  0  0
 23 20  1  1  0  0  0
 23 29  1  0  0  0  0
 24 25  1  6  0  0  0
 24 26  1  0  0  0  0
 24 23  1  0  0  0  0
 26 27  1  6  0  0  0
 26 28  1  0  0  0  0
 28 30  1  1  0  0  0
 29 28  1  0  0  0  0
 30 31  1  0  0  0  0
 32 27  1  6  0  0  0
 32 40  1  0  0  0  0
 33 35  1  0  0  0  0
 33 32  1  0  0  0  0
 33 34  1  6  0  0  0
 35 36  1  1  0  0  0
 35 37  1  0  0  0  0
 37 38  1  6  0  0  0
 37 39  1  0  0  0  0
 39 41  1  6  0  0  0
 40 39  1  0  0  0  0
 41 42  1  0  0  0  0
M  END
>  <CHROM.1>
176.30696261,179.51121630,-155.69716961,-61.60789407,-178.80502831,71.19522573
63.92589051,-168.16769151,-62.36608099,-2.77902067,14.23540744,36.46933115
-1.61117258,-0.52663557,-2.80070933

>  <Name>
lig.pdb

>  <RI>
0

>  <Rbt.Current_Directory>
/home/itssahil/PROJECTS/Mol_Feturizer/New_Systems/rnas/4wcr

>  <Rbt.Executable>
rbdock ($Id: //depot/dev/client3/rdock/2013.1/src/exe/rbdock.cxx#4 $)

>  <Rbt.Library>
libRbt.so (2013.1, Build901 2013/11/27)

>  <Rbt.Parameter_File>
/export/apps/rDock/src/rDock_2013.1_src/data/scripts/dock_solv.prm

>  <Rbt.Receptor>
prm/pocket_docking_4.prm

>  <SCORE>
-8.25744

>  <SCORE.INTER>
-1.64922

>  <SCORE.INTER.CONST>
1

>  <SCORE.INTER.POLAR>
0

>  <SCORE.INTER.ROT>
9

>  <SCORE.INTER.SOLV>
16.2264

>  <SCORE.INTER.VDW>
-16.1083

>  <SCORE.INTER.norm>
-0.0392672

>  <SCORE.INTRA>
-6.61548

>  <SCORE.INTRA.DIHEDRAL>
-11.8054

>  <SCORE.INTRA.DIHEDRAL.0>
16.2863

>  <SCORE.INTRA.POLAR>
0

>  <SCORE.INTRA.POLAR.0>
0

>  <SCORE.INTRA.REPUL>
-0.314433

>  <SCORE.INTRA.REPUL.0>
0.314433

>  <SCORE.INTRA.SOLV>
-2.28031

>  <SCORE.INTRA.SOLV.lig_0>
-103.824

>  <SCORE.INTRA.VDW>
1.99954

>  <SCORE.INTRA.VDW.0>
-5.30945

>  <SCORE.INTRA.norm>
-0.157511

>  <SCORE.RESTR>
0.00726009

>  <SCORE.RESTR.CAVITY>
0.00726009

>  <SCORE.RESTR.norm>
0.000172859

>  <SCORE.SYSTEM>
0

>  <SCORE.SYSTEM.CONST>
0

>  <SCORE.SYSTEM.DIHEDRAL>
0

>  <SCORE.SYSTEM.SOLV>
0

>  <SCORE.SYSTEM.norm>
0

>  <SCORE.heavy>
42

>  <SCORE.norm>
-0.196606

>  <RMSD>
3.178

$$$$
lig.pdb
 OpenBabel11021811513D
libRbt.so/2013.1/901 2013/11/27
 42 45  0  0  0  0  0  0  0  0999 V2000
   -0.9193   17.4482   35.1152 C   0  0  2  0  0  0  0  0  0  0  0  0
   -1.6476   17.6427   36.3677 O   0  0  0  0  0  0  0  0  0  0  0  0
    0.5761   17.9236   35.3938 C   0  0  2  0  0  0  0  0  0  0  0  0
    1.1885   17.0933   36.4346 N   0  0  0  0  0  0  0  0  0  0  0  0
    0.5580   19.4797   35.7914 C   0  0  1  0  0  0  0  0  0  0  0  0
    1.8922   19.9680   36.0446 O   0  0  0  0  0  0  0  0  0  0  0  0
   -0.1116   20.2372   34.6320 C   0  0  2  0  0  0  0  0  0  0  0  0
   -0.1464   21.5886   34.9424 O   0  0  0  0  0  0  0  0  0  0  0  0
   -1.5842   19.6702   34.3906 C   0  0  2  0  0  0  0  0  0  0  0  0
   -1.5578   18.2739   34.0691 O   0  0  0  0  0  0  0  0  0  0  0  0
   -2.2766   20.3656   33.2530 C   0  0  0  0  0  0  0  0  0  0  0  0
   -2.5117   21.7168   33.6512 O   0  0  0  0  0  0  0  0  0  0  0  0
   -5.1788   15.6040   38.1417 C   0  0  2  0  0  0  0  0  0  0  0  0
   -6.5467   15.1997   38.3835 N   0  0  0  0  0  0  0  0  0  0  0  0
   -5.0544   17.1749   38.2173 C   0  0  0  0  0  0  0  0  0  0  0  0
   -3.5790   17.6400   37.9539 C   0  0  2  0  0  0  0  0  0  0  0  0
   -3.5087   19.0980   38.0255 N   0  0  0  0  0  0  0  0  0  0  0  0
   -3.0380   17.1710   36.5306 C   0  0  2  0  0  0  0  0  0  0  0  0
   -3.1320   15.6183   36.4855 C   0  0  2  0  0  0  0  0  0  0  0  0
   -2.5954   15.2582   35.1198 O   0  0  0  0  0  0  0  0  0  0  0  0
   -4.6752   15.1458   36.6924 C   0  0  1  0  0  0  0  0  0  0  0  0
   -4.8783   13.6967   36.7234 O   0  0  0  0  0  0  0  0  0  0  0  0
   -2.1213   13.9730   35.0924 C   0  0  1  0  0  0  0  0  0  0  0  0
   -2.2400   13.3438   33.7728 C   0  0  2  0  0  0  0  0  0  0  0  0
   -3.5873   13.0638   33.5655 O   0  0  0  0  0  0  0  0  0  0  0  0
   -1.2218   12.1902   33.8986 C   0  0  2  0  0  0  0  0  0  0  0  0
   -1.9625   10.9602   33.7314 O   0  0  0  0  0  0  0  0  0  0  0  0
   -0.6498   12.3317   35.2707 C   0  0  2  0  0  0  0  0  0  0  0  0
   -0.7399   13.7985   35.3605 O   0  0  0  0  0  0  0  0  0  0  0  0
    0.8537   11.8726   35.3278 C   0  0  0  0  0  0  0  0  0  0  0  0
    1.4573   12.0075   36.6493 O   0  0  0  0  0  0  0  0  0  0  0  0
   -1.1835    9.7438   33.5204 C   0  0  2  0  0  0  0  0  0  0  0  0
   -0.4341    9.8557   32.0921 C   0  0  2  0  0  0  0  0  0  0  0  0
   -1.4559   10.0533   31.0135 N   0  0  0  0  0  0  0  0  0  0  0  0
    0.4240    8.5148   31.8693 C   0  0  1  0  0  0  0  0  0  0  0  0
    1.3748    8.4196   32.9732 O   0  0  0  0  0  0  0  0  0  0  0  0
   -0.5556    7.2561   31.8450 C   0  0  2  0  0  0  0  0  0  0  0  0
   -1.4747    7.4182   30.6965 O   0  0  0  0  0  0  0  0  0  0  0  0
   -1.3427    7.1967   33.2729 C   0  0  1  0  0  0  0  0  0  0  0  0
   -2.0834    8.4913   33.4966 O   0  0  0  0  0  0  0  0  0  0  0  0
   -2.3277    5.9809   33.2775 C   0  0  0  0  0  0  0  0  0  0  0  0
   -3.0513    5.8253   34.5773 N   0  0  0  0  0  0  0  0  0  0  0  0
  1  3  1  0  0  0  0
  1  2  1  1  0  0  0
  3  4  1  1  0  0  0
  3  5  1  0  0  0  0
  5  6  1  6  0  0  0
  7  8  1  1  0  0  0
  7  5  1  0  0  0  0
  9 11  1  6  0  0  0
  9  7  1  0  0  0  0
 10  9  1  0  0  0  0
 10  1  1  0  0  0  0
 12 11  1  0  0  0  0
 13 14  1  6  0  0  0
 15 13  1  0  0  0  0
 16 17  1  6  0  0  0
 16 15  1  0  0  0  0
 18  2  1  1  0  0  0
 18 19  1  0  0  0  0
 18 16  1  0  0  0  0
 19 20  1  6  0  0  0
 19 21  1  0  0  0  0
 21 22  1  1  0  0  0
 21 13  1  0  0  0  0
 23 20  1  6  0  0  0
 23 29  1  0  0  0  0
 24 25  1  1  0  0  0
 24 26  1  0  0  0  0
 24 23  1  0  0  0  0
 26 27  1  1  0  0  0
 26 28  1  0  0  0  0
 28 30  1  6  0  0  0
 29 28  1  0  0  0  0
 30 31  1  0  0  0  0
 32 27  1  6  0  0  0
 32 40  1  0  0  0  0
 33 35  1  0  0  0  0
 33 32  1  0  0  0  0
 33 34  1  6  0  0  0
 35 36  1  1  0  0  0
 35 37  1  0  0  0  0
 37 38  1  6  0  0  0
 37 39  1  0  0  0  0
 39 41  1  6  0  0  0
 40 39  1  0  0  0  0
 41 42  1  0  0  0  0
M  END
>  <CHROM.1>
-173.27520252,-67.36397814,-175.37432954,156.29852517,150.26471849,167.08408449
179.39321340,-66.45798245,177.75198916,-1.67715463,14.18522545,34.83474384
-1.62427063,-0.55837831,-2.91680266

>  <Name>
lig.pdb

>  <RI>
0

>  <Rbt.Current_Directory>
/home/itssahil/PROJECTS/Mol_Feturizer/New_Systems/rnas/4wcr

>  <Rbt.Executable>
rbdock ($Id: //depot/dev/client3/rdock/2013.1/src/exe/rbdock.cxx#4 $)

>  <Rbt.Library>
libRbt.so (2013.1, Build901 2013/11/27)

>  <Rbt.Parameter_File>
/export/apps/rDock/src/rDock_2013.1_src/data/scripts/dock_solv.prm

>  <Rbt.Receptor>
prm/pocket_docking_5.prm

>  <SCORE>
-14.0085

>  <SCORE.INTER>
-6.4987

>  <SCORE.INTER.CONST>
1

>  <SCORE.INTER.POLAR>
0

>  <SCORE.INTER.ROT>
9

>  <SCORE.INTER.SOLV>
21.2217

>  <SCORE.INTER.VDW>
-21.0064

>  <SCORE.INTER.norm>
-0.154731

>  <SCORE.INTRA>
-7.50976

>  <SCORE.INTRA.DIHEDRAL>
-8.27343

>  <SCORE.INTRA.DIHEDRAL.0>
16.2863

>  <SCORE.INTRA.POLAR>
0

>  <SCORE.INTRA.POLAR.0>
0

>  <SCORE.INTRA.REPUL>
-0.314433

>  <SCORE.INTRA.REPUL.0>
0.314433

>  <SCORE.INTRA.SOLV>
-5.5817

>  <SCORE.INTRA.SOLV.lig_0>
-103.824

>  <SCORE.INTRA.VDW>
0.989976

>  <SCORE.INTRA.VDW.0>
-5.30945

>  <SCORE.INTRA.norm>
-0.178804

>  <SCORE.RESTR>
0

>  <SCORE.RESTR.CAVITY>
0

>  <SCORE.RESTR.norm>
0

>  <SCORE.SYSTEM>
0

>  <SCORE.SYSTEM.CONST>
0

>  <SCORE.SYSTEM.DIHEDRAL>
0

>  <SCORE.SYSTEM.SOLV>
0

>  <SCORE.SYSTEM.norm>
0

>  <SCORE.heavy>
42

>  <SCORE.norm>
-0.333535

>  <RMSD>
3.271

$$$$
lig.pdb
 OpenBabel11021811513D
libRbt.so/2013.1/901 2013/11/27
 42 45  0  0  0  0  0  0  0  0999 V2000
   -3.0992   14.6087   35.9391 C   0  0  2  0  0  0  0  0  0  0  0  0
   -3.3077   14.7947   37.3740 O   0  0  0  0  0  0  0  0  0  0  0  0
   -1.7928   13.7073   35.7944 C   0  0  2  0  0  0  0  0  0  0  0  0
   -2.0061   12.3984   36.4182 N   0  0  0  0  0  0  0  0  0  0  0  0
   -0.5493   14.4921   36.4405 C   0  0  1  0  0  0  0  0  0  0  0  0
    0.6671   13.7239   36.3269 O   0  0  0  0  0  0  0  0  0  0  0  0
   -0.4362   15.8425   35.7125 C   0  0  2  0  0  0  0  0  0  0  0  0
    0.6297   16.5505   36.2474 O   0  0  0  0  0  0  0  0  0  0  0  0
   -1.7985   16.6600   35.8683 C   0  0  2  0  0  0  0  0  0  0  0  0
   -2.9058   15.9356   35.3180 O   0  0  0  0  0  0  0  0  0  0  0  0
   -1.7470   17.9824   35.1571 C   0  0  0  0  0  0  0  0  0  0  0  0
   -2.9314   18.7034   35.4989 O   0  0  0  0  0  0  0  0  0  0  0  0
   -6.7081   15.8260   40.0473 C   0  0  2  0  0  0  0  0  0  0  0  0
   -7.8168   16.5461   40.6348 N   0  0  0  0  0  0  0  0  0  0  0  0
   -5.4201   16.7365   40.0223 C   0  0  0  0  0  0  0  0  0  0  0  0
   -4.2026   15.9791   39.3847 C   0  0  2  0  0  0  0  0  0  0  0  0
   -3.0348   16.8576   39.3740 N   0  0  0  0  0  0  0  0  0  0  0  0
   -4.4967   15.5007   37.8937 C   0  0  2  0  0  0  0  0  0  0  0  0
   -5.7462   14.5743   37.9399 C   0  0  2  0  0  0  0  0  0  0  0  0
   -5.9491   14.1605   36.5010 O   0  0  0  0  0  0  0  0  0  0  0  0
   -7.0221   15.3867   38.5397 C   0  0  1  0  0  0  0  0  0  0  0  0
   -8.2458   14.5965   38.6820 O   0  0  0  0  0  0  0  0  0  0  0  0
   -5.5210   12.8770   36.2853 C   0  0  1  0  0  0  0  0  0  0  0  0
   -6.3938   11.8688   36.8960 C   0  0  2  0  0  0  0  0  0  0  0  0
   -6.1879   11.9192   38.2714 O   0  0  0  0  0  0  0  0  0  0  0  0
   -5.9952   10.6069   36.1010 C   0  0  2  0  0  0  0  0  0  0  0  0
   -5.4709    9.6592   37.0584 O   0  0  0  0  0  0  0  0  0  0  0  0
   -4.9592   11.0749   35.1329 C   0  0  2  0  0  0  0  0  0  0  0  0
   -5.4865   12.4358   34.9382 O   0  0  0  0  0  0  0  0  0  0  0  0
   -5.0141   10.2697   33.7827 C   0  0  0  0  0  0  0  0  0  0  0  0
   -4.0954   10.7695   32.7652 O   0  0  0  0  0  0  0  0  0  0  0  0
   -5.1025    8.3416   36.5494 C   0  0  2  0  0  0  0  0  0  0  0  0
   -4.7257    7.3938   37.8039 C   0  0  2  0  0  0  0  0  0  0  0  0
   -3.6059    8.0219   38.5772 N   0  0  0  0  0  0  0  0  0  0  0  0
   -4.3252    5.9445   37.2353 C   0  0  1  0  0  0  0  0  0  0  0  0
   -5.4775    5.4339   36.4984 O   0  0  0  0  0  0  0  0  0  0  0  0
   -3.0507    6.0809   36.2857 C   0  0  2  0  0  0  0  0  0  0  0  0
   -1.9269    6.5880   37.1042 O   0  0  0  0  0  0  0  0  0  0  0  0
   -3.4355    7.0862   35.0597 C   0  0  1  0  0  0  0  0  0  0  0  0
   -3.8769    8.4168   35.6159 O   0  0  0  0  0  0  0  0  0  0  0  0
   -2.1995    7.2573   34.1154 C   0  0  0  0  0  0  0  0  0  0  0  0
   -1.8642    6.0068   33.3661 N   0  0  0  0  0  0  0  0  0  0  0  0
  1  3  1  0  0  0  0
  1  2  1  1  0  0  0
  3  4  1  1  0  0  0
  3  5  1  0  0  0  0
  5  6  1  6  0  0  0
  7  8  1  1  0  0  0
  7  5  1  0  0  0  0
  9 11  1  6  0  0  0
  9  7  1  0  0  0  0
 10  9  1  0  0  0  0
 10  1  1  0  0  0  0
 12 11  1  0  0  0  0
 13 14  1  6  0  0  0
 15 13  1  0  0  0  0
 16 17  1  6  0  0  0
 16 15  1  0  0  0  0
 18  2  1  1  0  0  0
 18 19  1  0  0  0  0
 18 16  1  0  0  0  0
 19 20  1  6  0  0  0
 19 21  1  0  0  0  0
 21 22  1  1  0  0  0
 21 13  1  0  0  0  0
 23 20  1  6  0  0  0
 23 29  1  0  0  0  0
 24 25  1  1  0  0  0
 24 26  1  0  0  0  0
 24 23  1  0  0  0  0
 26 27  1  1  0  0  0
 26 28  1  0  0  0  0
 28 30  1  6  0  0  0
 29 28  1  0  0  0  0
 30 31  1  0  0  0  0
 32 27  1  1  0  0  0
 32 40  1  0  0  0  0
 33 35  1  0  0  0  0
 33 32  1  0  0  0  0
 33 34  1  6  0  0  0
 35 36  1  6  0  0  0
 35 37  1  0  0  0  0
 37 38  1  1  0  0  0
 37 39  1  0  0  0  0
 39 41  1  6  0  0  0
 40 39  1  0  0  0  0
 41 42  1  0  0  0  0
M  END
>  <CHROM.1>
-175.27281280,-172.59152371,-160.58793285,103.68259741,71.52332845,176.18961062
175.04928048,-172.85242346,68.28607776,-3.95757716,12.37551817,36.65546423
-1.55356833,-0.53308950,-2.95709418

>  <Name>
lig.pdb

>  <RI>
0

>  <Rbt.Current_Directory>
/home/itssahil/PROJECTS/Mol_Feturizer/New_Systems/rnas/4wcr

>  <Rbt.Executable>
rbdock ($Id: //depot/dev/client3/rdock/2013.1/src/exe/rbdock.cxx#4 $)

>  <Rbt.Library>
libRbt.so (2013.1, Build901 2013/11/27)

>  <Rbt.Parameter_File>
/export/apps/rDock/src/rDock_2013.1_src/data/scripts/dock_solv.prm

>  <Rbt.Receptor>
prm/pocket_docking_3.prm

>  <SCORE>
-5.12627

>  <SCORE.INTER>
0.190401

>  <SCORE.INTER.CONST>
1

>  <SCORE.INTER.POLAR>
0

>  <SCORE.INTER.ROT>
9

>  <SCORE.INTER.SOLV>
14.2626

>  <SCORE.INTER.VDW>
-14.2273

>  <SCORE.INTER.norm>
0.00453335

>  <SCORE.INTRA>
-5.34219

>  <SCORE.INTRA.DIHEDRAL>
-6.48058

>  <SCORE.INTRA.DIHEDRAL.0>
16.2863

>  <SCORE.INTRA.POLAR>
0

>  <SCORE.INTRA.POLAR.0>
0

>  <SCORE.INTRA.REPUL>
-0.314433

>  <SCORE.INTRA.REPUL.0>
0.314433

>  <SCORE.INTRA.SOLV>
-2.83361

>  <SCORE.INTRA.SOLV.lig_0>
-103.824

>  <SCORE.INTRA.VDW>
0.887066

>  <SCORE.INTRA.VDW.0>
-5.30945

>  <SCORE.INTRA.norm>
-0.127195

>  <SCORE.RESTR>
0.0255238

>  <SCORE.RESTR.CAVITY>
0.0255238

>  <SCORE.RESTR.norm>
0.00060771

>  <SCORE.SYSTEM>
0

>  <SCORE.SYSTEM.CONST>
0

>  <SCORE.SYSTEM.DIHEDRAL>
0

>  <SCORE.SYSTEM.SOLV>
0

>  <SCORE.SYSTEM.norm>
0

>  <SCORE.heavy>
42

>  <SCORE.norm>
-0.122054

>  <RMSD>
3.279

$$$$
lig.pdb
 OpenBabel11021811513D
libRbt.so/2013.1/901 2013/11/27
 42 45  0  0  0  0  0  0  0  0999 V2000
   -2.9595   15.4115   36.2562 C   0  0  2  0  0  0  0  0  0  0  0  0
   -3.3877   16.4082   37.2362 O   0  0  0  0  0  0  0  0  0  0  0  0
   -1.3660   15.4306   36.2720 C   0  0  2  0  0  0  0  0  0  0  0  0
   -0.8656   15.0440   37.5941 N   0  0  0  0  0  0  0  0  0  0  0  0
   -0.8623   16.8921   35.8362 C   0  0  1  0  0  0  0  0  0  0  0  0
    0.5790   16.9635   35.8222 O   0  0  0  0  0  0  0  0  0  0  0  0
   -1.4571   17.1824   34.4475 C   0  0  2  0  0  0  0  0  0  0  0  0
   -1.0433   18.4414   34.0386 O   0  0  0  0  0  0  0  0  0  0  0  0
   -3.0500   17.0987   34.5099 C   0  0  2  0  0  0  0  0  0  0  0  0
   -3.4867   15.8006   34.9316 O   0  0  0  0  0  0  0  0  0  0  0  0
   -3.6810   17.3563   33.1709 C   0  0  0  0  0  0  0  0  0  0  0  0
   -3.3376   16.2663   32.3144 O   0  0  0  0  0  0  0  0  0  0  0  0
   -7.1848   17.2744   39.3819 C   0  0  2  0  0  0  0  0  0  0  0  0
   -8.5574   17.6556   39.6341 N   0  0  0  0  0  0  0  0  0  0  0  0
   -6.4322   18.4283   38.6132 C   0  0  0  0  0  0  0  0  0  0  0  0
   -4.9404   18.0371   38.3233 C   0  0  2  0  0  0  0  0  0  0  0  0
   -4.2825   19.1271   37.6057 N   0  0  0  0  0  0  0  0  0  0  0  0
   -4.8177   16.7061   37.4563 C   0  0  2  0  0  0  0  0  0  0  0  0
   -5.5316   15.5698   38.2442 C   0  0  2  0  0  0  0  0  0  0  0  0
   -5.3620   14.3523   37.3659 O   0  0  0  0  0  0  0  0  0  0  0  0
   -7.0950   15.9524   38.4827 C   0  0  1  0  0  0  0  0  0  0  0  0
   -7.8568   14.9777   39.2649 O   0  0  0  0  0  0  0  0  0  0  0  0
   -5.8456   13.2249   37.9761 C   0  0  1  0  0  0  0  0  0  0  0  0
   -5.3237   11.9851   37.3915 C   0  0  2  0  0  0  0  0  0  0  0  0
   -5.9360   11.8197   36.1528 O   0  0  0  0  0  0  0  0  0  0  0  0
   -5.5984   10.9788   38.5295 C   0  0  2  0  0  0  0  0  0  0  0  0
   -6.4961    9.9798   37.9950 O   0  0  0  0  0  0  0  0  0  0  0  0
   -6.2258   11.7896   39.6152 C   0  0  2  0  0  0  0  0  0  0  0  0
   -5.5134   13.0491   39.3433 O   0  0  0  0  0  0  0  0  0  0  0  0
   -5.8494   11.2466   41.0427 C   0  0  0  0  0  0  0  0  0  0  0  0
   -6.3511    9.9025   41.3089 O   0  0  0  0  0  0  0  0  0  0  0  0
   -5.8914    8.8794   37.2503 C   0  0  2  0  0  0  0  0  0  0  0  0
   -4.9939    8.0020   38.2696 C   0  0  2  0  0  0  0  0  0  0  0  0
   -3.9560    8.8835   38.8961 N   0  0  0  0  0  0  0  0  0  0  0  0
   -4.3351    6.7911   37.4429 C   0  0  1  0  0  0  0  0  0  0  0  0
   -5.4286    6.0085   36.8740 O   0  0  0  0  0  0  0  0  0  0  0  0
   -3.3943    7.3805   36.2975 C   0  0  2  0  0  0  0  0  0  0  0  0
   -2.3084    8.1450   36.9507 O   0  0  0  0  0  0  0  0  0  0  0  0
   -4.3092    8.3080   35.3153 C   0  0  1  0  0  0  0  0  0  0  0  0
   -4.9754    9.3948   36.1214 O   0  0  0  0  0  0  0  0  0  0  0  0
   -3.4130    8.9182   34.1871 C   0  0  0  0  0  0  0  0  0  0  0  0
   -4.1869    9.7601   33.2230 N   0  0  0  0  0  0  0  0  0  0  0  0
  1  3  1  0  0  0  0
  1  2  1  1  0  0  0
  3  4  1  1  0  0  0
  3  5  1  0  0  0  0
  5  6  1  6  0  0  0
  7  8  1  1  0  0  0
  7  5  1  0  0  0  0
  9 11  1  6  0  0  0
  9  7  1  0  0  0  0
 10  9  1  0  0  0  0
 10  1  1  0  0  0  0
 12 11  1  0  0  0  0
 13 14  1  6  0  0  0
 15 13  1  0  0  0  0
 16 17  1  6  0  0  0
 16 15  1  0  0  0  0
 18  2  1  1  0  0  0
 18 19  1  0  0  0  0
 18 16  1  0  0  0  0
 19 20  1  6  0  0  0
 19 21  1  0  0  0  0
 21 22  1  1  0  0  0
 21 13  1  0  0  0  0
 23 20  1  6  0  0  0
 23 29  1  0  0  0  0
 24 25  1  6  0  0  0
 24 26  1  0  0  0  0
 24 23  1  0  0  0  0
 26 27  1  6  0  0  0
 26 28  1  0  0  0  0
 28 30  1  1  0  0  0
 29 28  1  0  0  0  0
 30 31  1  0  0  0  0
 32 27  1  1  0  0  0
 32 40  1  0  0  0  0
 33 35  1  0  0  0  0
 33 32  1  0  0  0  0
 33 34  1  6  0  0  0
 35 36  1  6  0  0  0
 35 37  1  0  0  0  0
 37 38  1  1  0  0  0
 37 39  1  0  0  0  0
 39 41  1  6  0  0  0
 40 39  1  0  0  0  0
 41 42  1  0  0  0  0
M  END
>  <CHROM.1>
177.56036422,67.57919556,-167.40485136,174.92112184,-160.98897209,84.02471907
-64.03220686,65.82506292,178.69863702,-4.45396054,13.33625445,37.05522467
-1.34138508,-0.81346542,-3.10704239

>  <Name>
lig.pdb

>  <RI>
0

>  <Rbt.Current_Directory>
/home/itssahil/PROJECTS/Mol_Feturizer/New_Systems/rnas/4wcr

>  <Rbt.Executable>
rbdock ($Id: //depot/dev/client3/rdock/2013.1/src/exe/rbdock.cxx#4 $)

>  <Rbt.Library>
libRbt.so (2013.1, Build901 2013/11/27)

>  <Rbt.Parameter_File>
/export/apps/rDock/src/rDock_2013.1_src/data/scripts/dock_solv.prm

>  <Rbt.Receptor>
prm/pocket_docking_6.prm

>  <SCORE>
-11.1099

>  <SCORE.INTER>
-5.13791

>  <SCORE.INTER.CONST>
1

>  <SCORE.INTER.POLAR>
0

>  <SCORE.INTER.ROT>
9

>  <SCORE.INTER.SOLV>
21.7939

>  <SCORE.INTER.VDW>
-20.2899

>  <SCORE.INTER.norm>
-0.122331

>  <SCORE.INTRA>
-5.97195

>  <SCORE.INTRA.DIHEDRAL>
-10.3279

>  <SCORE.INTRA.DIHEDRAL.0>
16.2863

>  <SCORE.INTRA.POLAR>
0

>  <SCORE.INTRA.POLAR.0>
0

>  <SCORE.INTRA.REPUL>
-0.314433

>  <SCORE.INTRA.REPUL.0>
0.314433

>  <SCORE.INTRA.SOLV>
-2.01636

>  <SCORE.INTRA.SOLV.lig_0>
-103.824

>  <SCORE.INTRA.VDW>
1.77236

>  <SCORE.INTRA.VDW.0>
-5.30945

>  <SCORE.INTRA.norm>
-0.142189

>  <SCORE.RESTR>
0

>  <SCORE.RESTR.CAVITY>
0

>  <SCORE.RESTR.norm>
0

>  <SCORE.SYSTEM>
0

>  <SCORE.SYSTEM.CONST>
0

>  <SCORE.SYSTEM.DIHEDRAL>
0

>  <SCORE.SYSTEM.SOLV>
0

>  <SCORE.SYSTEM.norm>
0

>  <SCORE.heavy>
42

>  <SCORE.norm>
-0.264521

>  <RMSD>
3.309

$$$$
lig.pdb
 OpenBabel11021811513D
libRbt.so/2013.1/901 2013/11/27
 42 45  0  0  0  0  0  0  0  0999 V2000
   -1.9967   17.1855   34.4856 C   0  0  2  0  0  0  0  0  0  0  0  0
   -2.6515   17.4519   35.7652 O   0  0  0  0  0  0  0  0  0  0  0  0
   -0.9063   18.3327   34.2985 C   0  0  2  0  0  0  0  0  0  0  0  0
    0.0931   18.2641   35.3682 N   0  0  0  0  0  0  0  0  0  0  0  0
   -1.6535   19.7539   34.2564 C   0  0  1  0  0  0  0  0  0  0  0  0
   -0.7115   20.8323   34.0766 O   0  0  0  0  0  0  0  0  0  0  0  0
   -2.6746   19.6966   33.1073 C   0  0  2  0  0  0  0  0  0  0  0  0
   -3.3423   20.9105   33.0420 O   0  0  0  0  0  0  0  0  0  0  0  0
   -3.6984   18.4958   33.3490 C   0  0  2  0  0  0  0  0  0  0  0  0
   -3.0170   17.2370   33.4178 O   0  0  0  0  0  0  0  0  0  0  0  0
   -4.7080   18.3842   32.2420 C   0  0  0  0  0  0  0  0  0  0  0  0
   -4.2536   17.3716   31.3431 O   0  0  0  0  0  0  0  0  0  0  0  0
   -5.4371   14.9075   38.1187 C   0  0  2  0  0  0  0  0  0  0  0  0
   -6.6546   14.2790   38.5829 N   0  0  0  0  0  0  0  0  0  0  0  0
   -5.5921   16.4773   38.1419 C   0  0  0  0  0  0  0  0  0  0  0  0
   -4.2846   17.1836   37.6379 C   0  0  2  0  0  0  0  0  0  0  0  0
   -4.4721   18.6326   37.6681 N   0  0  0  0  0  0  0  0  0  0  0  0
   -3.8906   16.7493   36.1565 C   0  0  2  0  0  0  0  0  0  0  0  0
   -3.7046   15.2043   36.1583 C   0  0  2  0  0  0  0  0  0  0  0  0
   -3.3262   14.8791   34.7322 O   0  0  0  0  0  0  0  0  0  0  0  0
   -5.0853   14.4760   36.6173 C   0  0  1  0  0  0  0  0  0  0  0  0
   -5.0127   13.0170   36.7094 O   0  0  0  0  0  0  0  0  0  0  0  0
   -2.8140   13.6126   34.6277 C   0  0  1  0  0  0  0  0  0  0  0  0
   -2.5207   13.2226   33.2446 C   0  0  2  0  0  0  0  0  0  0  0  0
   -3.7382   12.9986   32.6088 O   0  0  0  0  0  0  0  0  0  0  0  0
   -1.5378   12.0529   33.4654 C   0  0  2  0  0  0  0  0  0  0  0  0
   -2.1493   10.8791   32.8841 O   0  0  0  0  0  0  0  0  0  0  0  0
   -1.3935   11.9481   34.9480 C   0  0  2  0  0  0  0  0  0  0  0  0
   -1.5636   13.3782   35.2539 O   0  0  0  0  0  0  0  0  0  0  0  0
    0.0460   11.4685   35.3630 C   0  0  0  0  0  0  0  0  0  0  0  0
    1.1119   12.3570   34.9120 O   0  0  0  0  0  0  0  0  0  0  0  0
   -1.4142    9.6236   33.0042 C   0  0  2  0  0  0  0  0  0  0  0  0
   -2.1302    8.5180   32.0665 C   0  0  2  0  0  0  0  0  0  0  0  0
   -3.5603    8.3654   32.4887 N   0  0  0  0  0  0  0  0  0  0  0  0
   -1.3130    7.1404   32.2016 C   0  0  1  0  0  0  0  0  0  0  0  0
    0.0579    7.4056   31.7749 O   0  0  0  0  0  0  0  0  0  0  0  0
   -1.3570    6.6438   33.7168 C   0  0  2  0  0  0  0  0  0  0  0  0
   -2.7708    6.3840   34.0685 O   0  0  0  0  0  0  0  0  0  0  0  0
   -0.6819    7.7992   34.6503 C   0  0  1  0  0  0  0  0  0  0  0  0
   -1.4179    9.1011   34.4555 O   0  0  0  0  0  0  0  0  0  0  0  0
   -0.7240    7.3519   36.1492 C   0  0  0  0  0  0  0  0  0  0  0  0
    0.0809    6.1184   36.4095 N   0  0  0  0  0  0  0  0  0  0  0  0
  1  3  1  0  0  0  0
  1  2  1  1  0  0  0
  3  4  1  1  0  0  0
  3  5  1  0  0  0  0
  5  6  1  6  0  0  0
  7  8  1  1  0  0  0
  7  5  1  0  0  0  0
  9 11  1  6  0  0  0
  9  7  1  0  0  0  0
 10  9  1  0  0  0  0
 10  1  1  0  0  0  0
 12 11  1  0  0  0  0
 13 14  1  6  0  0  0
 15 13  1  0  0  0  0
 16 17  1  6  0  0  0
 16 15  1  0  0  0  0
 18  2  1  1  0  0  0
 18 19  1  0  0  0  0
 18 16  1  0  0  0  0
 19 20  1  6  0  0  0
 19 21  1  0  0  0  0
 21 22  1  1  0  0  0
 21 13  1  0  0  0  0
 23 20  1  6  0  0  0
 23 29  1  0  0  0  0
 24 25  1  1  0  0  0
 24 26  1  0  0  0  0
 24 23  1  0  0  0  0
 26 27  1  1  0  0  0
 26 28  1  0  0  0  0
 28 30  1  6  0  0  0
 29 28  1  0  0  0  0
 30 31  1  0  0  0  0
 32 27  1  1  0  0  0
 32 40  1  0  0  0  0
 33 35  1  0  0  0  0
 33 32  1  0  0  0  0
 33 34  1  1  0  0  0
 35 36  1  1  0  0  0
 35 37  1  0  0  0  0
 37 38  1  1  0  0  0
 37 39  1  0  0  0  0
 39 41  1  1  0  0  0
 40 39  1  0  0  0  0
 41 42  1  0  0  0  0
M  END
>  <CHROM.1>
168.16219056,97.83163206,175.91644241,165.32812382,175.98245278,-178.31283691
59.76253256,-169.73798561,63.20326242,-2.53249693,13.72045347,34.57967639
-1.87344596,-0.94411816,2.97680261

>  <Name>
lig.pdb

>  <RI>
0

>  <Rbt.Current_Directory>
/home/itssahil/PROJECTS/Mol_Feturizer/New_Systems/rnas/4wcr

>  <Rbt.Executable>
rbdock ($Id: //depot/dev/client3/rdock/2013.1/src/exe/rbdock.cxx#4 $)

>  <Rbt.Library>
libRbt.so (2013.1, Build901 2013/11/27)

>  <Rbt.Parameter_File>
/export/apps/rDock/src/rDock_2013.1_src/data/scripts/dock_solv.prm

>  <Rbt.Receptor>
prm/pocket_docking_6.prm

>  <SCORE>
-9.61423

>  <SCORE.INTER>
-2.87775

>  <SCORE.INTER.CONST>
1

>  <SCORE.INTER.POLAR>
0

>  <SCORE.INTER.ROT>
9

>  <SCORE.INTER.SOLV>
21.0839

>  <SCORE.INTER.VDW>
-18.5465

>  <SCORE.INTER.norm>
-0.0685179

>  <SCORE.INTRA>
-6.73648

>  <SCORE.INTRA.DIHEDRAL>
-9.64915

>  <SCORE.INTRA.DIHEDRAL.0>
16.2863

>  <SCORE.INTRA.POLAR>
0

>  <SCORE.INTRA.POLAR.0>
0

>  <SCORE.INTRA.REPUL>
-0.314433

>  <SCORE.INTRA.REPUL.0>
0.314433

>  <SCORE.INTRA.SOLV>
-5.49419

>  <SCORE.INTRA.SOLV.lig_0>
-103.824

>  <SCORE.INTRA.VDW>
2.40736

>  <SCORE.INTRA.VDW.0>
-5.30945

>  <SCORE.INTRA.norm>
-0.160392

>  <SCORE.RESTR>
0

>  <SCORE.RESTR.CAVITY>
0

>  <SCORE.RESTR.norm>
0

>  <SCORE.SYSTEM>
0

>  <SCORE.SYSTEM.CONST>
0

>  <SCORE.SYSTEM.DIHEDRAL>
0

>  <SCORE.SYSTEM.SOLV>
0

>  <SCORE.SYSTEM.norm>
0

>  <SCORE.heavy>
42

>  <SCORE.norm>
-0.22891

>  <RMSD>
3.323

$$$$
lig.pdb
 OpenBabel11021811513D
libRbt.so/2013.1/901 2013/11/27
 42 45  0  0  0  0  0  0  0  0999 V2000
   -2.5703   16.2996   35.2853 C   0  0  2  0  0  0  0  0  0  0  0  0
   -3.5032   15.7477   36.2663 O   0  0  0  0  0  0  0  0  0  0  0  0
   -2.2745   15.1274   34.2468 C   0  0  2  0  0  0  0  0  0  0  0  0
   -3.5078   14.7318   33.5611 N   0  0  0  0  0  0  0  0  0  0  0  0
   -1.5963   13.9009   35.0314 C   0  0  1  0  0  0  0  0  0  0  0  0
   -1.2954   12.8114   34.1341 O   0  0  0  0  0  0  0  0  0  0  0  0
   -0.3266   14.4423   35.7105 C   0  0  2  0  0  0  0  0  0  0  0  0
    0.2864   13.4075   36.4013 O   0  0  0  0  0  0  0  0  0  0  0  0
   -0.7055   15.6394   36.6963 C   0  0  2  0  0  0  0  0  0  0  0  0
   -1.3396   16.7135   35.9907 O   0  0  0  0  0  0  0  0  0  0  0  0
    0.5052   16.2177   37.3724 C   0  0  0  0  0  0  0  0  0  0  0  0
    0.0512   17.1942   38.3105 O   0  0  0  0  0  0  0  0  0  0  0  0
   -5.6363   17.5888   39.7061 C   0  0  2  0  0  0  0  0  0  0  0  0
   -6.4693   18.4845   40.4786 N   0  0  0  0  0  0  0  0  0  0  0  0
   -4.5261   18.4050   38.9380 C   0  0  0  0  0  0  0  0  0  0  0  0
   -3.6106   17.4554   38.0878 C   0  0  2  0  0  0  0  0  0  0  0  0
   -2.6028   18.2497   37.3884 N   0  0  0  0  0  0  0  0  0  0  0  0
   -4.4357   16.6154   37.0145 C   0  0  2  0  0  0  0  0  0  0  0  0
   -5.5011   15.7878   37.7901 C   0  0  2  0  0  0  0  0  0  0  0  0
   -6.2263   15.0198   36.7098 O   0  0  0  0  0  0  0  0  0  0  0  0
   -6.4886   16.7829   38.6160 C   0  0  1  0  0  0  0  0  0  0  0  0
   -7.5017   16.1107   39.4309 O   0  0  0  0  0  0  0  0  0  0  0  0
   -5.7584   13.7359   36.6100 C   0  0  1  0  0  0  0  0  0  0  0  0
   -6.8238   12.7497   36.4015 C   0  0  2  0  0  0  0  0  0  0  0  0
   -7.5103   12.6188   37.6049 O   0  0  0  0  0  0  0  0  0  0  0  0
   -6.0219   11.5578   35.8361 C   0  0  2  0  0  0  0  0  0  0  0  0
   -6.2015   10.4593   36.7584 O   0  0  0  0  0  0  0  0  0  0  0  0
   -4.6084   12.0366   35.7848 C   0  0  2  0  0  0  0  0  0  0  0  0
   -4.9009   13.4544   35.5164 O   0  0  0  0  0  0  0  0  0  0  0  0
   -3.8200   11.4040   34.5795 C   0  0  0  0  0  0  0  0  0  0  0  0
   -4.0267    9.9669   34.4344 O   0  0  0  0  0  0  0  0  0  0  0  0
   -5.2704    9.3410   36.6427 C   0  0  2  0  0  0  0  0  0  0  0  0
   -5.8242    8.1170   37.5422 C   0  0  2  0  0  0  0  0  0  0  0  0
   -5.9670    8.5743   38.9625 N   0  0  0  0  0  0  0  0  0  0  0  0
   -4.7958    6.8890   37.4064 C   0  0  1  0  0  0  0  0  0  0  0  0
   -4.7287    6.5337   35.9918 O   0  0  0  0  0  0  0  0  0  0  0  0
   -3.3652    7.3319   37.9557 C   0  0  2  0  0  0  0  0  0  0  0  0
   -3.5120    7.6610   39.3910 O   0  0  0  0  0  0  0  0  0  0  0  0
   -2.8524    8.6035   37.0713 C   0  0  1  0  0  0  0  0  0  0  0  0
   -3.8649    9.7184   37.1538 O   0  0  0  0  0  0  0  0  0  0  0  0
   -1.4560    9.0766   37.5954 C   0  0  0  0  0  0  0  0  0  0  0  0
   -1.5031    9.5730   39.0056 N   0  0  0  0  0  0  0  0  0  0  0  0
  1  3  1  0  0  0  0
  1  2  1  1  0  0  0
  3  4  1  1  0  0  0
  3  5  1  0  0  0  0
  5  6  1  6  0  0  0
  7  8  1  1  0  0  0
  7  5  1  0  0  0  0
  9 11  1  6  0  0  0
  9  7  1  0  0  0  0
 10  9  1  0  0  0  0
 10  1  1  0  0  0  0
 12 11  1  0  0  0  0
 13 14  1  6  0  0  0
 15 13  1  0  0  0  0
 16 17  1  6  0  0  0
 16 15  1  0  0  0  0
 18  2  1  1  0  0  0
 18 19  1  0  0  0  0
 18 16  1  0  0  0  0
 19 20  1  6  0  0  0
 19 21  1  0  0  0  0
 21 22  1  1  0  0  0
 21 13  1  0  0  0  0
 23 20  1  6  0  0  0
 23 29  1  0  0  0  0
 24 25  1  1  0  0  0
 24 26  1  0  0  0  0
 24 23  1  0  0  0  0
 26 27  1  1  0  0  0
 26 28  1  0  0  0  0
 28 30  1  6  0  0  0
 29 28  1  0  0  0  0
 30 31  1  0  0  0  0
 32 27  1  1  0  0  0
 32 40  1  0  0  0  0
 33 35  1  0  0  0  0
 33 32  1  0  0  0  0
 33 34  1  1  0  0  0
 35 36  1  6  0  0  0
 35 37  1  0  0  0  0
 37 38  1  1  0  0  0
 37 39  1  0  0  0  0
 39 41  1  1  0  0  0
 40 39  1  0  0  0  0
 41 42  1  0  0  0  0
M  END
>  <CHROM.1>
-153.59426915,-175.10545823,-72.24697471,98.90358147,139.26962829,-164.11183467
-45.53621325,-168.67704506,-63.17021101,-3.85131821,13.12370664,36.93219836
-1.46128442,-0.37838152,-3.05368883

>  <Name>
lig.pdb

>  <RI>
0

>  <Rbt.Current_Directory>
/home/itssahil/PROJECTS/Mol_Feturizer/New_Systems/rnas/4wcr

>  <Rbt.Executable>
rbdock ($Id: //depot/dev/client3/rdock/2013.1/src/exe/rbdock.cxx#4 $)

>  <Rbt.Library>
libRbt.so (2013.1, Build901 2013/11/27)

>  <Rbt.Parameter_File>
/export/apps/rDock/src/rDock_2013.1_src/data/scripts/dock_solv.prm

>  <Rbt.Receptor>
prm/pocket_docking_4.prm

>  <SCORE>
0.700245

>  <SCORE.INTER>
-1.71995

>  <SCORE.INTER.CONST>
1

>  <SCORE.INTER.POLAR>
0

>  <SCORE.INTER.ROT>
9

>  <SCORE.INTER.SOLV>
22.4013

>  <SCORE.INTER.VDW>
-18.2137

>  <SCORE.INTER.norm>
-0.0409513

>  <SCORE.INTRA>
2.4202

>  <SCORE.INTRA.DIHEDRAL>
1.03473

>  <SCORE.INTRA.DIHEDRAL.0>
16.2863

>  <SCORE.INTRA.POLAR>
0

>  <SCORE.INTRA.POLAR.0>
0

>  <SCORE.INTRA.REPUL>
-0.314433

>  <SCORE.INTRA.REPUL.0>
0.314433

>  <SCORE.INTRA.SOLV>
4.1126

>  <SCORE.INTRA.SOLV.lig_0>
-103.824

>  <SCORE.INTRA.VDW>
1.4187

>  <SCORE.INTRA.VDW.0>
-5.30945

>  <SCORE.INTRA.norm>
0.0576238

>  <SCORE.RESTR>
0

>  <SCORE.RESTR.CAVITY>
0

>  <SCORE.RESTR.norm>
0

>  <SCORE.SYSTEM>
0

>  <SCORE.SYSTEM.CONST>
0

>  <SCORE.SYSTEM.DIHEDRAL>
0

>  <SCORE.SYSTEM.SOLV>
0

>  <SCORE.SYSTEM.norm>
0

>  <SCORE.heavy>
42

>  <SCORE.norm>
0.0166725

>  <RMSD>
3.395

$$$$
lig.pdb
 OpenBabel11021811513D
libRbt.so/2013.1/901 2013/11/27
 42 45  0  0  0  0  0  0  0  0999 V2000
   -2.1885   15.0221   35.6596 C   0  0  2  0  0  0  0  0  0  0  0  0
   -2.7638   15.5080   36.9126 O   0  0  0  0  0  0  0  0  0  0  0  0
   -0.6156   14.9316   35.8999 C   0  0  2  0  0  0  0  0  0  0  0  0
   -0.3181   13.9698   36.9649 N   0  0  0  0  0  0  0  0  0  0  0  0
   -0.0588   16.4003   36.2356 C   0  0  1  0  0  0  0  0  0  0  0  0
    1.3679   16.3793   36.4521 O   0  0  0  0  0  0  0  0  0  0  0  0
   -0.4391   17.3111   35.0557 C   0  0  2  0  0  0  0  0  0  0  0  0
    0.0257   18.5924   35.3126 O   0  0  0  0  0  0  0  0  0  0  0  0
   -2.0229   17.3092   34.8559 C   0  0  2  0  0  0  0  0  0  0  0  0
   -2.5121   15.9888   34.5898 O   0  0  0  0  0  0  0  0  0  0  0  0
   -2.4464   18.1712   33.7005 C   0  0  0  0  0  0  0  0  0  0  0  0
   -3.8733   18.1484   33.6444 O   0  0  0  0  0  0  0  0  0  0  0  0
   -6.7909   15.3478   38.7912 C   0  0  2  0  0  0  0  0  0  0  0  0
   -8.2007   15.5719   39.0265 N   0  0  0  0  0  0  0  0  0  0  0  0
   -6.0349   16.7264   38.6622 C   0  0  0  0  0  0  0  0  0  0  0  0
   -4.5026   16.5104   38.4018 C   0  0  2  0  0  0  0  0  0  0  0  0
   -3.8421   17.8086   38.2817 N   0  0  0  0  0  0  0  0  0  0  0  0
   -4.2229   15.6695   37.0779 C   0  0  2  0  0  0  0  0  0  0  0  0
   -4.9431   14.2991   37.2359 C   0  0  2  0  0  0  0  0  0  0  0  0
   -4.6221   13.5664   35.9543 O   0  0  0  0  0  0  0  0  0  0  0  0
   -6.5413   14.5281   37.4384 C   0  0  1  0  0  0  0  0  0  0  0  0
   -7.3178   13.3062   37.6534 O   0  0  0  0  0  0  0  0  0  0  0  0
   -5.3313   12.3982   35.8557 C   0  0  1  0  0  0  0  0  0  0  0  0
   -4.8088   11.4928   34.8269 C   0  0  2  0  0  0  0  0  0  0  0  0
   -5.1424   12.0337   33.5888 O   0  0  0  0  0  0  0  0  0  0  0  0
   -5.4217   10.1478   35.2727 C   0  0  2  0  0  0  0  0  0  0  0  0
   -6.2659    9.6951   34.1901 O   0  0  0  0  0  0  0  0  0  0  0  0
   -6.1976   10.4704   36.5070 C   0  0  2  0  0  0  0  0  0  0  0  0
   -5.3295   11.5547   36.9954 O   0  0  0  0  0  0  0  0  0  0  0  0
   -6.2003    9.2721   37.5261 C   0  0  0  0  0  0  0  0  0  0  0  0
   -4.8661    8.8624   37.9516 O   0  0  0  0  0  0  0  0  0  0  0  0
   -5.6047    9.0337   33.0693 C   0  0  2  0  0  0  0  0  0  0  0  0
   -5.0697    7.5916   33.5676 C   0  0  2  0  0  0  0  0  0  0  0  0
   -4.1374    7.7849   34.7252 N   0  0  0  0  0  0  0  0  0  0  0  0
   -4.3467    6.8687   32.3272 C   0  0  1  0  0  0  0  0  0  0  0  0
   -5.3374    6.7398   31.2625 O   0  0  0  0  0  0  0  0  0  0  0  0
   -3.1037    7.7481   31.8517 C   0  0  2  0  0  0  0  0  0  0  0  0
   -2.1426    7.8203   32.9747 O   0  0  0  0  0  0  0  0  0  0  0  0
   -3.6598    9.2165   31.4085 C   0  0  1  0  0  0  0  0  0  0  0  0
   -4.3966    9.8482   32.5630 O   0  0  0  0  0  0  0  0  0  0  0  0
   -2.4621   10.1139   30.9516 C   0  0  0  0  0  0  0  0  0  0  0  0
   -1.4838   10.3800   32.0513 N   0  0  0  0  0  0  0  0  0  0  0  0
  1  3  1  0  0  0  0
  1  2  1  1  0  0  0
  3  4  1  1  0  0  0
  3  5  1  0  0  0  0
  5  6  1  6  0  0  0
  7  8  1  1  0  0  0
  7  5  1  0  0  0  0
  9 11  1  6  0  0  0
  9  7  1  0  0  0  0
 10  9  1  0  0  0  0
 10  1  1  0  0  0  0
 12 11  1  0  0  0  0
 13 14  1  6  0  0  0
 15 13  1  0  0  0  0
 16 17  1  6  0  0  0
 16 15  1  0  0  0  0
 18  2  1  1  0  0  0
 18 19  1  0  0  0  0
 18 16  1  0  0  0  0
 19 20  1  6  0  0  0
 19 21  1  0  0  0  0
 21 22  1  1  0  0  0
 21 13  1  0  0  0  0
 23 20  1  1  0  0  0
 23 29  1  0  0  0  0
 24 25  1  6  0  0  0
 24 26  1  0  0  0  0
 24 23  1  0  0  0  0
 26 27  1  6  0  0  0
 26 28  1  0  0  0  0
 28 30  1  1  0  0  0
 29 28  1  0  0  0  0
 30 31  1  0  0  0  0
 32 27  1  1  0  0  0
 32 40  1  0  0  0  0
 33 35  1  0  0  0  0
 33 32  1  0  0  0  0
 33 34  1  1  0  0  0
 35 36  1  6  0  0  0
 35 37  1  0  0  0  0
 37 38  1  1  0  0  0
 37 39  1  0  0  0  0
 39 41  1  1  0  0  0
 40 39  1  0  0  0  0
 41 42  1  0  0  0  0
M  END
>  <CHROM.1>
-177.70630770,-177.49306325,-167.36315626,-172.02070755,-164.93741264,80.75069637
58.52808567,70.06991335,-63.15241558,-3.90108425,12.85727062,35.30086708
-1.33082564,-0.63137960,-2.63063966

>  <Name>
lig.pdb

>  <RI>
0

>  <Rbt.Current_Directory>
/home/itssahil/PROJECTS/Mol_Feturizer/New_Systems/rnas/4wcr

>  <Rbt.Executable>
rbdock ($Id: //depot/dev/client3/rdock/2013.1/src/exe/rbdock.cxx#4 $)

>  <Rbt.Library>
libRbt.so (2013.1, Build901 2013/11/27)

>  <Rbt.Parameter_File>
/export/apps/rDock/src/rDock_2013.1_src/data/scripts/dock_solv.prm

>  <Rbt.Receptor>
prm/pocket_docking_5.prm

>  <SCORE>
-9.97234

>  <SCORE.INTER>
-4.95674

>  <SCORE.INTER.CONST>
1

>  <SCORE.INTER.POLAR>
0

>  <SCORE.INTER.ROT>
9

>  <SCORE.INTER.SOLV>
18.2444

>  <SCORE.INTER.VDW>
-18.986

>  <SCORE.INTER.norm>
-0.118018

>  <SCORE.INTRA>
-5.01559

>  <SCORE.INTRA.DIHEDRAL>
-11.1548

>  <SCORE.INTRA.DIHEDRAL.0>
16.2863

>  <SCORE.INTRA.POLAR>
0

>  <SCORE.INTRA.POLAR.0>
0

>  <SCORE.INTRA.REPUL>
-0.314433

>  <SCORE.INTRA.REPUL.0>
0.314433

>  <SCORE.INTRA.SOLV>
-0.406486

>  <SCORE.INTRA.SOLV.lig_0>
-103.824

>  <SCORE.INTRA.VDW>
2.33721

>  <SCORE.INTRA.VDW.0>
-5.30945

>  <SCORE.INTRA.norm>
-0.119419

>  <SCORE.RESTR>
0

>  <SCORE.RESTR.CAVITY>
0

>  <SCORE.RESTR.norm>
0

>  <SCORE.SYSTEM>
0

>  <SCORE.SYSTEM.CONST>
0

>  <SCORE.SYSTEM.DIHEDRAL>
0

>  <SCORE.SYSTEM.SOLV>
0

>  <SCORE.SYSTEM.norm>
0

>  <SCORE.heavy>
42

>  <SCORE.norm>
-0.237437

>  <RMSD>
3.414

$$$$
lig.pdb
 OpenBabel11021811513D
libRbt.so/2013.1/901 2013/11/27
 42 45  0  0  0  0  0  0  0  0999 V2000
   -0.9165   17.5050   37.6141 C   0  0  2  0  0  0  0  0  0  0  0  0
   -1.9726   16.5269   37.8693 O   0  0  0  0  0  0  0  0  0  0  0  0
    0.2319   16.7233   36.8330 C   0  0  2  0  0  0  0  0  0  0  0  0
   -0.2738   16.2233   35.5516 N   0  0  0  0  0  0  0  0  0  0  0  0
    0.7825   15.5414   37.7709 C   0  0  1  0  0  0  0  0  0  0  0  0
    1.8363   14.8047   37.1156 O   0  0  0  0  0  0  0  0  0  0  0  0
    1.2723   16.1889   39.0776 C   0  0  2  0  0  0  0  0  0  0  0  0
    1.7547   15.1944   39.9154 O   0  0  0  0  0  0  0  0  0  0  0  0
    0.0760   16.9869   39.7707 C   0  0  2  0  0  0  0  0  0  0  0  0
   -0.4288   18.0169   38.9117 O   0  0  0  0  0  0  0  0  0  0  0  0
    0.5080   17.6558   41.0447 C   0  0  0  0  0  0  0  0  0  0  0  0
    1.5208   18.6061   40.7121 O   0  0  0  0  0  0  0  0  0  0  0  0
   -6.3231   17.1466   38.5494 C   0  0  2  0  0  0  0  0  0  0  0  0
   -7.7015   17.5268   38.3299 N   0  0  0  0  0  0  0  0  0  0  0  0
   -5.3745   18.3876   38.3282 C   0  0  0  0  0  0  0  0  0  0  0  0
   -3.8712   17.9999   38.5563 C   0  0  2  0  0  0  0  0  0  0  0  0
   -3.0276   19.1726   38.3351 N   0  0  0  0  0  0  0  0  0  0  0  0
   -3.3897   16.8326   37.5848 C   0  0  2  0  0  0  0  0  0  0  0  0
   -4.3100   15.6043   37.8411 C   0  0  2  0  0  0  0  0  0  0  0  0
   -3.7844   14.5490   36.8962 O   0  0  0  0  0  0  0  0  0  0  0  0
   -5.8602   15.9948   37.5378 C   0  0  1  0  0  0  0  0  0  0  0  0
   -6.8280   14.9282   37.7984 O   0  0  0  0  0  0  0  0  0  0  0  0
   -4.6166   13.4616   36.8490 C   0  0  1  0  0  0  0  0  0  0  0  0
   -4.0929   12.3716   36.0190 C   0  0  2  0  0  0  0  0  0  0  0  0
   -4.2082   12.7688   34.6902 O   0  0  0  0  0  0  0  0  0  0  0  0
   -4.9166   11.1751   36.5417 C   0  0  2  0  0  0  0  0  0  0  0  0
   -5.6768   10.6705   35.4205 O   0  0  0  0  0  0  0  0  0  0  0  0
   -5.7867   11.7470   37.6121 C   0  0  2  0  0  0  0  0  0  0  0  0
   -4.8543   12.7886   38.0742 O   0  0  0  0  0  0  0  0  0  0  0  0
   -6.0586   10.7085   38.7619 C   0  0  0  0  0  0  0  0  0  0  0  0
   -6.6947    9.4786   38.3016 O   0  0  0  0  0  0  0  0  0  0  0  0
   -4.9196   10.0743   34.3242 C   0  0  2  0  0  0  0  0  0  0  0  0
   -5.8729   10.0050   33.0201 C   0  0  2  0  0  0  0  0  0  0  0  0
   -7.0976    9.2050   33.3470 N   0  0  0  0  0  0  0  0  0  0  0  0
   -5.0308    9.3510   31.8171 C   0  0  1  0  0  0  0  0  0  0  0  0
   -3.8656   10.2011   31.5909 O   0  0  0  0  0  0  0  0  0  0  0  0
   -4.5924    7.8711   32.2196 C   0  0  2  0  0  0  0  0  0  0  0  0
   -5.8218    7.0713   32.4174 O   0  0  0  0  0  0  0  0  0  0  0  0
   -3.6802    7.9604   33.5694 C   0  0  1  0  0  0  0  0  0  0  0  0
   -4.4623    8.6410   34.6647 O   0  0  0  0  0  0  0  0  0  0  0  0
   -3.2458    6.5213   34.0039 C   0  0  0  0  0  0  0  0  0  0  0  0
   -2.3557    6.5219   35.2060 N   0  0  0  0  0  0  0  0  0  0  0  0
  1  3  1  0  0  0  0
  1  2  1  1  0  0  0
  3  4  1  6  0  0  0
  3  5  1  0  0  0  0
  5  6  1  6  0  0  0
  7  8  1  1  0  0  0
  7  5  1  0  0  0  0
  9 11  1  1  0  0  0
  9  7  1  0  0  0  0
 10  9  1  0  0  0  0
 10  1  1  0  0  0  0
 12 11  1  0  0  0  0
 13 14  1  6  0  0  0
 15 13  1  0  0  0  0
 16 17  1  6  0  0  0
 16 15  1  0  0  0  0
 18  2  1  1  0  0  0
 18 19  1  0  0  0  0
 18 16  1  0  0  0  0
 19 20  1  6  0  0  0
 19 21  1  0  0  0  0
 21 22  1  1  0  0  0
 21 13  1  0  0  0  0
 23 20  1  1  0  0  0
 23 29  1  0  0  0  0
 24 25  1  6  0  0  0
 24 26  1  0  0  0  0
 24 23  1  0  0  0  0
 26 27  1  6  0  0  0
 26 28  1  0  0  0  0
 28 30  1  1  0  0  0
 29 28  1  0  0  0  0
 30 31  1  0  0  0  0
 32 27  1  1  0  0  0
 32 40  1  0  0  0  0
 33 35  1  0  0  0  0
 33 32  1  0  0  0  0
 33 34  1  1  0  0  0
 35 36  1  1  0  0  0
 35 37  1  0  0  0  0
 37 38  1  1  0  0  0
 37 39  1  0  0  0  0
 39 41  1  1  0  0  0
 40 39  1  0  0  0  0
 41 42  1  0  0  0  0
M  END
>  <CHROM.1>
-132.45563577,62.09373827,-65.55309135,-170.74165066,-175.74674926,66.17387115
-58.51424565,-162.60176156,177.60027056,-3.41076554,13.47063876,36.68545791
-1.19107644,0.02002133,-2.62902529

>  <Name>
lig.pdb

>  <RI>
0

>  <Rbt.Current_Directory>
/home/itssahil/PROJECTS/Mol_Feturizer/New_Systems/rnas/4wcr

>  <Rbt.Executable>
rbdock ($Id: //depot/dev/client3/rdock/2013.1/src/exe/rbdock.cxx#4 $)

>  <Rbt.Library>
libRbt.so (2013.1, Build901 2013/11/27)

>  <Rbt.Parameter_File>
/export/apps/rDock/src/rDock_2013.1_src/data/scripts/dock_solv.prm

>  <Rbt.Receptor>
prm/pocket_docking_7.prm

>  <SCORE>
-4.25103

>  <SCORE.INTER>
-0.110768

>  <SCORE.INTER.CONST>
1

>  <SCORE.INTER.POLAR>
0

>  <SCORE.INTER.ROT>
9

>  <SCORE.INTER.SOLV>
32.171

>  <SCORE.INTER.VDW>
-20.3975

>  <SCORE.INTER.norm>
-0.00263734

>  <SCORE.INTRA>
-4.14026

>  <SCORE.INTRA.DIHEDRAL>
-7.0088

>  <SCORE.INTRA.DIHEDRAL.0>
16.2863

>  <SCORE.INTRA.POLAR>
0

>  <SCORE.INTRA.POLAR.0>
0

>  <SCORE.INTRA.REPUL>
-0.314433

>  <SCORE.INTRA.REPUL.0>
0.314433

>  <SCORE.INTRA.SOLV>
-3.48669

>  <SCORE.INTRA.SOLV.lig_0>
-103.824

>  <SCORE.INTRA.VDW>
2.67965

>  <SCORE.INTRA.VDW.0>
-5.30945

>  <SCORE.INTRA.norm>
-0.0985777

>  <SCORE.RESTR>
0

>  <SCORE.RESTR.CAVITY>
0

>  <SCORE.RESTR.norm>
0

>  <SCORE.SYSTEM>
0

>  <SCORE.SYSTEM.CONST>
0

>  <SCORE.SYSTEM.DIHEDRAL>
0

>  <SCORE.SYSTEM.SOLV>
0

>  <SCORE.SYSTEM.norm>
0

>  <SCORE.heavy>
42

>  <SCORE.norm>
-0.101215

>  <RMSD>
3.472

$$$$
lig.pdb
 OpenBabel11021811513D
libRbt.so/2013.1/901 2013/11/27
 42 45  0  0  0  0  0  0  0  0999 V2000
   -0.8484   18.0440   34.8411 C   0  0  2  0  0  0  0  0  0  0  0  0
   -1.4695   18.4485   36.1012 O   0  0  0  0  0  0  0  0  0  0  0  0
    0.0706   19.2648   34.3882 C   0  0  2  0  0  0  0  0  0  0  0  0
    1.1212   19.5065   35.3809 N   0  0  0  0  0  0  0  0  0  0  0  0
   -0.8588   20.5551   34.1618 C   0  0  1  0  0  0  0  0  0  0  0  0
   -0.0772   21.6919   33.7380 O   0  0  0  0  0  0  0  0  0  0  0  0
   -1.9181   20.1738   33.1136 C   0  0  2  0  0  0  0  0  0  0  0  0
   -2.7426   21.2672   32.8935 O   0  0  0  0  0  0  0  0  0  0  0  0
   -2.7614   18.9183   33.6245 C   0  0  2  0  0  0  0  0  0  0  0  0
   -1.9173   17.7834   33.8546 O   0  0  0  0  0  0  0  0  0  0  0  0
   -3.8001   18.4928   32.6259 C   0  0  0  0  0  0  0  0  0  0  0  0
   -4.6772   19.6001   32.4160 O   0  0  0  0  0  0  0  0  0  0  0  0
   -3.5832   16.1289   39.2514 C   0  0  2  0  0  0  0  0  0  0  0  0
   -4.6161   15.3932   39.9477 N   0  0  0  0  0  0  0  0  0  0  0  0
   -4.1217   17.5480   38.8216 C   0  0  0  0  0  0  0  0  0  0  0  0
   -3.0201   18.3654   38.0595 C   0  0  2  0  0  0  0  0  0  0  0  0
   -3.5604   19.6673   37.6736 N   0  0  0  0  0  0  0  0  0  0  0  0
   -2.5037   17.6175   36.7509 C   0  0  2  0  0  0  0  0  0  0  0  0
   -1.9418   16.2361   37.1954 C   0  0  2  0  0  0  0  0  0  0  0  0
   -1.4684   15.6017   35.9085 O   0  0  0  0  0  0  0  0  0  0  0  0
   -3.1080   15.3673   37.9253 C   0  0  1  0  0  0  0  0  0  0  0  0
   -2.6790   14.0650   38.4372 O   0  0  0  0  0  0  0  0  0  0  0  0
   -0.8663   14.3928   36.1395 C   0  0  1  0  0  0  0  0  0  0  0  0
   -1.0775   13.4281   35.0551 C   0  0  2  0  0  0  0  0  0  0  0  0
   -2.4023   13.0077   35.1249 O   0  0  0  0  0  0  0  0  0  0  0  0
    0.0661   12.4254   35.3197 C   0  0  2  0  0  0  0  0  0  0  0  0
   -0.5535   11.1456   35.5806 O   0  0  0  0  0  0  0  0  0  0  0  0
    0.7833   12.9676   36.5119 C   0  0  2  0  0  0  0  0  0  0  0  0
    0.5482   14.3950   36.2382 O   0  0  0  0  0  0  0  0  0  0  0  0
    2.3229   12.6487   36.4633 C   0  0  0  0  0  0  0  0  0  0  0  0
    2.6320   11.2304   36.6123 O   0  0  0  0  0  0  0  0  0  0  0  0
    0.3129    9.9715   35.5371 C   0  0  2  0  0  0  0  0  0  0  0  0
    0.3080    9.3857   34.0301 C   0  0  2  0  0  0  0  0  0  0  0  0
   -1.0989    9.0510   33.6360 N   0  0  0  0  0  0  0  0  0  0  0  0
    1.2667    8.0960   33.9901 C   0  0  1  0  0  0  0  0  0  0  0  0
    2.5992    8.5331   34.3963 O   0  0  0  0  0  0  0  0  0  0  0  0
    0.7003    6.9828   34.9822 C   0  0  2  0  0  0  0  0  0  0  0  0
   -0.6401    6.5832   34.4985 O   0  0  0  0  0  0  0  0  0  0  0  0
    0.6601    7.6149   36.4858 C   0  0  1  0  0  0  0  0  0  0  0  0
   -0.1858    8.8636   36.4874 O   0  0  0  0  0  0  0  0  0  0  0  0
    0.0916    6.5532   37.4850 C   0  0  0  0  0  0  0  0  0  0  0  0
   -1.3317    6.1922   37.2003 N   0  0  0  0  0  0  0  0  0  0  0  0
  1  3  1  0  0  0  0
  1  2  1  1  0  0  0
  3  4  1  1  0  0  0
  3  5  1  0  0  0  0
  5  6  1  6  0  0  0
  7  8  1  1  0  0  0
  7  5  1  0  0  0  0
  9 11  1  6  0  0  0
  9  7  1  0  0  0  0
 10  9  1  0  0  0  0
 10  1  1  0  0  0  0
 12 11  1  0  0  0  0
 13 14  1  6  0  0  0
 15 13  1  0  0  0  0
 16 17  1  6  0  0  0
 16 15  1  0  0  0  0
 18  2  1  1  0  0  0
 18 19  1  0  0  0  0
 18 16  1  0  0  0  0
 19 20  1  6  0  0  0
 19 21  1  0  0  0  0
 21 22  1  1  0  0  0
 21 13  1  0  0  0  0
 23 20  1  6  0  0  0
 23 29  1  0  0  0  0
 24 25  1  1  0  0  0
 24 26  1  0  0  0  0
 24 23  1  0  0  0  0
 26 27  1  1  0  0  0
 26 28  1  0  0  0  0
 28 30  1  6  0  0  0
 29 28  1  0  0  0  0
 30 31  1  0  0  0  0
 32 27  1  6  0  0  0
 32 40  1  0  0  0  0
 33 35  1  0  0  0  0
 33 32  1  0  0  0  0
 33 34  1  1  0  0  0
 35 36  1  1  0  0  0
 35 37  1  0  0  0  0
 37 38  1  6  0  0  0
 37 39  1  0  0  0  0
 39 41  1  1  0  0  0
 40 39  1  0  0  0  0
 41 42  1  0  0  0  0
M  END
>  <CHROM.1>
173.53871924,-59.67894297,-177.39172128,176.44663214,146.93328485,165.42375743
-67.97595458,-90.69491366,-64.40008962,-1.09983663,14.36073525,35.66449426
-1.97060132,-0.94023878,2.75057206

>  <Name>
lig.pdb

>  <RI>
0

>  <Rbt.Current_Directory>
/home/itssahil/PROJECTS/Mol_Feturizer/New_Systems/rnas/4wcr

>  <Rbt.Executable>
rbdock ($Id: //depot/dev/client3/rdock/2013.1/src/exe/rbdock.cxx#4 $)

>  <Rbt.Library>
libRbt.so (2013.1, Build901 2013/11/27)

>  <Rbt.Parameter_File>
/export/apps/rDock/src/rDock_2013.1_src/data/scripts/dock_solv.prm

>  <Rbt.Receptor>
prm/pocket_docking_6.prm

>  <SCORE>
-13.4817

>  <SCORE.INTER>
-8.42314

>  <SCORE.INTER.CONST>
1

>  <SCORE.INTER.POLAR>
0

>  <SCORE.INTER.ROT>
9

>  <SCORE.INTER.SOLV>
22.6126

>  <SCORE.INTER.VDW>
-22.753

>  <SCORE.INTER.norm>
-0.200551

>  <SCORE.INTRA>
-5.05855

>  <SCORE.INTRA.DIHEDRAL>
-6.30178

>  <SCORE.INTRA.DIHEDRAL.0>
16.2863

>  <SCORE.INTRA.POLAR>
0

>  <SCORE.INTRA.POLAR.0>
0

>  <SCORE.INTRA.REPUL>
-0.314433

>  <SCORE.INTRA.REPUL.0>
0.314433

>  <SCORE.INTRA.SOLV>
-3.16688

>  <SCORE.INTRA.SOLV.lig_0>
-103.824

>  <SCORE.INTRA.VDW>
1.24794

>  <SCORE.INTRA.VDW.0>
-5.30945

>  <SCORE.INTRA.norm>
-0.120442

>  <SCORE.RESTR>
0

>  <SCORE.RESTR.CAVITY>
0

>  <SCORE.RESTR.norm>
0

>  <SCORE.SYSTEM>
0

>  <SCORE.SYSTEM.CONST>
0

>  <SCORE.SYSTEM.DIHEDRAL>
0

>  <SCORE.SYSTEM.SOLV>
0

>  <SCORE.SYSTEM.norm>
0

>  <SCORE.heavy>
42

>  <SCORE.norm>
-0.320993

>  <RMSD>
3.567

$$$$
lig.pdb
 OpenBabel11021811513D
libRbt.so/2013.1/901 2013/11/27
 42 45  0  0  0  0  0  0  0  0999 V2000
    0.0035   16.0396   36.5337 C   0  0  2  0  0  0  0  0  0  0  0  0
   -0.5988   16.3964   37.8171 O   0  0  0  0  0  0  0  0  0  0  0  0
    1.2453   17.0195   36.3394 C   0  0  2  0  0  0  0  0  0  0  0  0
    2.2312   16.8087   37.4030 N   0  0  0  0  0  0  0  0  0  0  0  0
    0.7084   18.5328   36.3009 C   0  0  1  0  0  0  0  0  0  0  0  0
    1.7936   19.4658   36.1148 O   0  0  0  0  0  0  0  0  0  0  0  0
   -0.3174   18.6221   35.1580 C   0  0  2  0  0  0  0  0  0  0  0  0
   -0.8053   19.9190   35.0960 O   0  0  0  0  0  0  0  0  0  0  0  0
   -1.5006   17.5797   35.4066 C   0  0  2  0  0  0  0  0  0  0  0  0
   -1.0054   16.2365   35.4720 O   0  0  0  0  0  0  0  0  0  0  0  0
   -2.5224   17.6136   34.3057 C   0  0  0  0  0  0  0  0  0  0  0  0
   -1.8629   17.2498   33.0924 O   0  0  0  0  0  0  0  0  0  0  0  0
   -2.9860   14.1356   40.8109 C   0  0  2  0  0  0  0  0  0  0  0  0
   -4.0874   13.4376   41.4375 N   0  0  0  0  0  0  0  0  0  0  0  0
   -3.4383   15.5813   40.3703 C   0  0  0  0  0  0  0  0  0  0  0  0
   -2.2612   16.3588   39.6829 C   0  0  2  0  0  0  0  0  0  0  0  0
   -2.7227   17.6869   39.2845 N   0  0  0  0  0  0  0  0  0  0  0  0
   -1.7028   15.6037   38.3959 C   0  0  2  0  0  0  0  0  0  0  0  0
   -1.2264   14.1945   38.8530 C   0  0  2  0  0  0  0  0  0  0  0  0
   -0.7074   13.5545   37.5866 O   0  0  0  0  0  0  0  0  0  0  0  0
   -2.4683   13.3689   39.5038 C   0  0  1  0  0  0  0  0  0  0  0  0
   -2.1249   12.0438   40.0217 O   0  0  0  0  0  0  0  0  0  0  0  0
   -0.2160   12.2983   37.8270 C   0  0  1  0  0  0  0  0  0  0  0  0
   -0.1023   11.4828   36.6132 C   0  0  2  0  0  0  0  0  0  0  0  0
   -1.3914   11.1231   36.2319 O   0  0  0  0  0  0  0  0  0  0  0  0
    0.8977   10.4001   37.0727 C   0  0  2  0  0  0  0  0  0  0  0  0
    0.2142    9.1305   36.9699 O   0  0  0  0  0  0  0  0  0  0  0  0
    1.2294   10.7587   38.4838 C   0  0  2  0  0  0  0  0  0  0  0  0
    1.1033   12.2186   38.3402 O   0  0  0  0  0  0  0  0  0  0  0  0
    2.7088   10.3722   38.8531 C   0  0  0  0  0  0  0  0  0  0  0  0
    3.1127   10.8086   40.1857 O   0  0  0  0  0  0  0  0  0  0  0  0
    0.9933    7.9345   37.2755 C   0  0  2  0  0  0  0  0  0  0  0  0
    0.1437    6.6375   36.8171 C   0  0  2  0  0  0  0  0  0  0  0  0
   -1.1757    6.6361   37.5284 N   0  0  0  0  0  0  0  0  0  0  0  0
    1.0098    5.3258   37.1534 C   0  0  1  0  0  0  0  0  0  0  0  0
    2.2670    5.4360   36.4194 O   0  0  0  0  0  0  0  0  0  0  0  0
    1.2676    5.2490   38.7257 C   0  0  2  0  0  0  0  0  0  0  0  0
   -0.0462    5.1253   39.3957 O   0  0  0  0  0  0  0  0  0  0  0  0
    2.0748    6.5939   39.1748 C   0  0  1  0  0  0  0  0  0  0  0  0
    1.2793    7.8150   38.7865 O   0  0  0  0  0  0  0  0  0  0  0  0
    2.3301    6.5604   40.7182 C   0  0  0  0  0  0  0  0  0  0  0  0
    3.1245    7.7323   41.2006 N   0  0  0  0  0  0  0  0  0  0  0  0
  1  3  1  0  0  0  0
  1  2  1  1  0  0  0
  3  4  1  1  0  0  0
  3  5  1  0  0  0  0
  5  6  1  6  0  0  0
  7  8  1  1  0  0  0
  7  5  1  0  0  0  0
  9 11  1  6  0  0  0
  9  7  1  0  0  0  0
 10  9  1  0  0  0  0
 10  1  1  0  0  0  0
 12 11  1  0  0  0  0
 13 14  1  6  0  0  0
 15 13  1  0  0  0  0
 16 17  1  6  0  0  0
 16 15  1  0  0  0  0
 18  2  1  1  0  0  0
 18 19  1  0  0  0  0
 18 16  1  0  0  0  0
 19 20  1  6  0  0  0
 19 21  1  0  0  0  0
 21 22  1  1  0  0  0
 21 13  1  0  0  0  0
 23 20  1  6  0  0  0
 23 29  1  0  0  0  0
 24 25  1  1  0  0  0
 24 26  1  0  0  0  0
 24 23  1  0  0  0  0
 26 27  1  1  0  0  0
 26 28  1  0  0  0  0
 28 30  1  6  0  0  0
 29 28  1  0  0  0  0
 30 31  1  0  0  0  0
 32 27  1  1  0  0  0
 32 40  1  0  0  0  0
 33 35  1  0  0  0  0
 33 32  1  0  0  0  0
 33 34  1  1  0  0  0
 35 36  1  6  0  0  0
 35 37  1  0  0  0  0
 37 38  1  1  0  0  0
 37 39  1  0  0  0  0
 39 41  1  1  0  0  0
 40 39  1  0  0  0  0
 41 42  1  0  0  0  0
M  END
>  <CHROM.1>
-173.82153464,61.47845300,-172.37879141,178.67612768,161.61068118,176.29431611
175.01008799,-168.78857750,177.29424420,-0.12031060,12.55296890,37.80511898
-1.89203915,-0.91194135,2.69602654

>  <Name>
lig.pdb

>  <RI>
0

>  <Rbt.Current_Directory>
/home/itssahil/PROJECTS/Mol_Feturizer/New_Systems/rnas/4wcr

>  <Rbt.Executable>
rbdock ($Id: //depot/dev/client3/rdock/2013.1/src/exe/rbdock.cxx#4 $)

>  <Rbt.Library>
libRbt.so (2013.1, Build901 2013/11/27)

>  <Rbt.Parameter_File>
/export/apps/rDock/src/rDock_2013.1_src/data/scripts/dock_solv.prm

>  <Rbt.Receptor>
prm/pocket_docking_6.prm

>  <SCORE>
-9.09438

>  <SCORE.INTER>
-0.181077

>  <SCORE.INTER.CONST>
1

>  <SCORE.INTER.POLAR>
0

>  <SCORE.INTER.ROT>
9

>  <SCORE.INTER.SOLV>
18.8061

>  <SCORE.INTER.VDW>
-15.9894

>  <SCORE.INTER.norm>
-0.00431137

>  <SCORE.INTRA>
-8.91331

>  <SCORE.INTRA.DIHEDRAL>
-12.9282

>  <SCORE.INTRA.DIHEDRAL.0>
16.2863

>  <SCORE.INTRA.POLAR>
0

>  <SCORE.INTRA.POLAR.0>
0

>  <SCORE.INTRA.REPUL>
-0.314433

>  <SCORE.INTRA.REPUL.0>
0.314433

>  <SCORE.INTRA.SOLV>
-4.08001

>  <SCORE.INTRA.SOLV.lig_0>
-103.824

>  <SCORE.INTRA.VDW>
1.16298

>  <SCORE.INTRA.VDW.0>
-5.30945

>  <SCORE.INTRA.norm>
-0.212222

>  <SCORE.RESTR>
0

>  <SCORE.RESTR.CAVITY>
0

>  <SCORE.RESTR.norm>
0

>  <SCORE.SYSTEM>
0

>  <SCORE.SYSTEM.CONST>
0

>  <SCORE.SYSTEM.DIHEDRAL>
0

>  <SCORE.SYSTEM.SOLV>
0

>  <SCORE.SYSTEM.norm>
0

>  <SCORE.heavy>
42

>  <SCORE.norm>
-0.216533

>  <RMSD>
3.615

$$$$
lig.pdb
 OpenBabel11021811513D
libRbt.so/2013.1/901 2013/11/27
 42 45  0  0  0  0  0  0  0  0999 V2000
   -1.0987   17.0881   35.0618 C   0  0  2  0  0  0  0  0  0  0  0  0
   -1.8938   17.2187   36.2816 O   0  0  0  0  0  0  0  0  0  0  0  0
    0.4157   17.3369   35.4913 C   0  0  2  0  0  0  0  0  0  0  0  0
    0.8463   16.3172   36.4518 N   0  0  0  0  0  0  0  0  0  0  0  0
    0.5470   18.8235   36.0849 C   0  0  1  0  0  0  0  0  0  0  0  0
    1.9052   19.1081   36.4810 O   0  0  0  0  0  0  0  0  0  0  0  0
    0.0604   19.7930   34.9941 C   0  0  2  0  0  0  0  0  0  0  0  0
    0.1581   21.0907   35.4739 O   0  0  0  0  0  0  0  0  0  0  0  0
   -1.4449   19.4466   34.5909 C   0  0  2  0  0  0  0  0  0  0  0  0
   -1.5552   18.1071   34.0938 O   0  0  0  0  0  0  0  0  0  0  0  0
   -1.9629   20.3551   33.5122 C   0  0  0  0  0  0  0  0  0  0  0  0
   -0.9370   20.4852   32.5271 O   0  0  0  0  0  0  0  0  0  0  0  0
   -5.4674   15.0361   37.7777 C   0  0  2  0  0  0  0  0  0  0  0  0
   -6.8376   14.5982   37.9323 N   0  0  0  0  0  0  0  0  0  0  0  0
   -5.3756   16.6029   37.9379 C   0  0  0  0  0  0  0  0  0  0  0  0
   -3.8982   17.1043   37.7700 C   0  0  2  0  0  0  0  0  0  0  0  0
   -3.8582   18.5577   37.9181 N   0  0  0  0  0  0  0  0  0  0  0  0
   -3.2815   16.7171   36.3530 C   0  0  2  0  0  0  0  0  0  0  0  0
   -3.3446   15.1675   36.2255 C   0  0  2  0  0  0  0  0  0  0  0  0
   -2.7371   14.8861   34.8711 O   0  0  0  0  0  0  0  0  0  0  0  0
   -4.8870   14.6605   36.3334 C   0  0  1  0  0  0  0  0  0  0  0  0
   -5.0647   13.2086   36.2817 O   0  0  0  0  0  0  0  0  0  0  0  0
   -2.2650   13.6023   34.7924 C   0  0  1  0  0  0  0  0  0  0  0  0
   -2.1321   13.1214   33.4132 C   0  0  2  0  0  0  0  0  0  0  0  0
   -3.4159   12.8920   32.9275 O   0  0  0  0  0  0  0  0  0  0  0  0
   -1.1547   11.9413   33.6005 C   0  0  2  0  0  0  0  0  0  0  0  0
   -1.8493   10.7512   33.1636 O   0  0  0  0  0  0  0  0  0  0  0  0
   -0.8518   11.9227   35.0626 C   0  0  2  0  0  0  0  0  0  0  0  0
   -0.9588   13.3728   35.2940 O   0  0  0  0  0  0  0  0  0  0  0  0
    0.6144   11.4307   35.3499 C   0  0  0  0  0  0  0  0  0  0  0  0
    0.8355   10.0262   35.0219 O   0  0  0  0  0  0  0  0  0  0  0  0
   -1.0373    9.5607   32.9307 C   0  0  2  0  0  0  0  0  0  0  0  0
    0.0246    9.8858   31.7556 C   0  0  2  0  0  0  0  0  0  0  0  0
   -0.7178   10.3003   30.5212 N   0  0  0  0  0  0  0  0  0  0  0  0
    0.9168    8.5717   31.5080 C   0  0  1  0  0  0  0  0  0  0  0  0
    1.5838    8.2564   32.7679 O   0  0  0  0  0  0  0  0  0  0  0  0
   -0.0244    7.3717   31.0405 C   0  0  2  0  0  0  0  0  0  0  0  0
   -0.6505    7.7594   29.7568 O   0  0  0  0  0  0  0  0  0  0  0  0
   -1.1231    7.0999   32.2156 C   0  0  1  0  0  0  0  0  0  0  0  0
   -1.9013    8.3639   32.4831 O   0  0  0  0  0  0  0  0  0  0  0  0
   -2.0767    5.9374   31.7821 C   0  0  0  0  0  0  0  0  0  0  0  0
   -3.0578    5.5637   32.8475 N   0  0  0  0  0  0  0  0  0  0  0  0
  1  3  1  0  0  0  0
  1  2  1  1  0  0  0
  3  4  1  1  0  0  0
  3  5  1  0  0  0  0
  5  6  1  6  0  0  0
  7  8  1  1  0  0  0
  7  5  1  0  0  0  0
  9 11  1  6  0  0  0
  9  7  1  0  0  0  0
 10  9  1  0  0  0  0
 10  1  1  0  0  0  0
 12 11  1  0  0  0  0
 13 14  1  6  0  0  0
 15 13  1  0  0  0  0
 16 17  1  6  0  0  0
 16 15  1  0  0  0  0
 18  2  1  1  0  0  0
 18 19  1  0  0  0  0
 18 16  1  0  0  0  0
 19 20  1  6  0  0  0
 19 21  1  0  0  0  0
 21 22  1  1  0  0  0
 21 13  1  0  0  0  0
 23 20  1  6  0  0  0
 23 29  1  0  0  0  0
 24 25  1  1  0  0  0
 24 26  1  0  0  0  0
 24 23  1  0  0  0  0
 26 27  1  1  0  0  0
 26 28  1  0  0  0  0
 28 30  1  6  0  0  0
 29 28  1  0  0  0  0
 30 31  1  0  0  0  0
 32 27  1  6  0  0  0
 32 40  1  0  0  0  0
 33 35  1  0  0  0  0
 33 32  1  0  0  0  0
 33 34  1  6  0  0  0
 35 36  1  1  0  0  0
 35 37  1  0  0  0  0
 37 38  1  6  0  0  0
 37 39  1  0  0  0  0
 39 41  1  6  0  0  0
 40 39  1  0  0  0  0
 41 42  1  0  0  0  0
M  END
>  <CHROM.1>
-163.89567972,43.91327677,-175.98537514,157.62915840,158.60228161,165.24758717
-67.41096191,-61.38568385,176.10524399,-1.62201673,13.80060161,34.47142814
-1.66195991,-0.54454588,-2.84845918

>  <Name>
lig.pdb

>  <RI>
0

>  <Rbt.Current_Directory>
/home/itssahil/PROJECTS/Mol_Feturizer/New_Systems/rnas/4wcr

>  <Rbt.Executable>
rbdock ($Id: //depot/dev/client3/rdock/2013.1/src/exe/rbdock.cxx#4 $)

>  <Rbt.Library>
libRbt.so (2013.1, Build901 2013/11/27)

>  <Rbt.Parameter_File>
/export/apps/rDock/src/rDock_2013.1_src/data/scripts/dock_solv.prm

>  <Rbt.Receptor>
prm/pocket_docking_8.prm

>  <SCORE>
-13.3072

>  <SCORE.INTER>
-6.65209

>  <SCORE.INTER.CONST>
1

>  <SCORE.INTER.POLAR>
0

>  <SCORE.INTER.ROT>
9

>  <SCORE.INTER.SOLV>
23.2477

>  <SCORE.INTER.VDW>
-21.784

>  <SCORE.INTER.norm>
-0.158383

>  <SCORE.INTRA>
-6.65515

>  <SCORE.INTRA.DIHEDRAL>
-8.11439

>  <SCORE.INTRA.DIHEDRAL.0>
16.2863

>  <SCORE.INTRA.POLAR>
0

>  <SCORE.INTRA.POLAR.0>
0

>  <SCORE.INTRA.REPUL>
-0.314433

>  <SCORE.INTRA.REPUL.0>
0.314433

>  <SCORE.INTRA.SOLV>
-3.96267

>  <SCORE.INTRA.SOLV.lig_0>
-103.824

>  <SCORE.INTRA.VDW>
0.955545

>  <SCORE.INTRA.VDW.0>
-5.30945

>  <SCORE.INTRA.norm>
-0.158456

>  <SCORE.RESTR>
0

>  <SCORE.RESTR.CAVITY>
0

>  <SCORE.RESTR.norm>
0

>  <SCORE.SYSTEM>
0

>  <SCORE.SYSTEM.CONST>
0

>  <SCORE.SYSTEM.DIHEDRAL>
0

>  <SCORE.SYSTEM.SOLV>
0

>  <SCORE.SYSTEM.norm>
0

>  <SCORE.heavy>
42

>  <SCORE.norm>
-0.316839

>  <RMSD>
3.645

$$$$
lig.pdb
 OpenBabel11021811513D
libRbt.so/2013.1/901 2013/11/27
 42 45  0  0  0  0  0  0  0  0999 V2000
   -1.4737   18.2259   36.7892 C   0  0  2  0  0  0  0  0  0  0  0  0
   -2.0454   17.0293   36.1740 O   0  0  0  0  0  0  0  0  0  0  0  0
    0.0686   18.2368   36.3877 C   0  0  2  0  0  0  0  0  0  0  0  0
    0.2149   18.3333   34.9327 N   0  0  0  0  0  0  0  0  0  0  0  0
    0.7666   16.9177   36.9816 C   0  0  1  0  0  0  0  0  0  0  0  0
    2.1721   16.8810   36.6564 O   0  0  0  0  0  0  0  0  0  0  0  0
    0.5373   16.9280   38.5027 C   0  0  2  0  0  0  0  0  0  0  0  0
    1.1269   15.7986   39.0509 O   0  0  0  0  0  0  0  0  0  0  0  0
   -1.0275   16.9629   38.8165 C   0  0  2  0  0  0  0  0  0  0  0  0
   -1.6452   18.1270   38.2536 O   0  0  0  0  0  0  0  0  0  0  0  0
   -1.3059   16.9932   40.2926 C   0  0  0  0  0  0  0  0  0  0  0  0
   -0.8975   15.7369   40.8354 O   0  0  0  0  0  0  0  0  0  0  0  0
   -4.3495   16.6519   32.3896 C   0  0  2  0  0  0  0  0  0  0  0  0
   -4.6821   16.6789   30.9819 N   0  0  0  0  0  0  0  0  0  0  0  0
   -3.8124   18.0624   32.8489 C   0  0  0  0  0  0  0  0  0  0  0  0
   -3.4399   18.0583   34.3732 C   0  0  2  0  0  0  0  0  0  0  0  0
   -2.9413   19.3778   34.7555 N   0  0  0  0  0  0  0  0  0  0  0  0
   -2.3308   16.9702   34.7257 C   0  0  2  0  0  0  0  0  0  0  0  0
   -2.8899   15.5813   34.3017 C   0  0  2  0  0  0  0  0  0  0  0  0
   -1.7912   14.6141   34.6761 O   0  0  0  0  0  0  0  0  0  0  0  0
   -3.2108   15.5716   32.7066 C   0  0  1  0  0  0  0  0  0  0  0  0
   -3.7959   14.3285   32.2021 O   0  0  0  0  0  0  0  0  0  0  0  0
   -2.2435   13.3208   34.6783 C   0  0  1  0  0  0  0  0  0  0  0  0
   -1.2125   12.3511   35.0626 C   0  0  2  0  0  0  0  0  0  0  0  0
   -0.3210   12.2487   33.9989 O   0  0  0  0  0  0  0  0  0  0  0  0
   -2.0780   11.1376   35.4646 C   0  0  2  0  0  0  0  0  0  0  0  0
   -1.7157   10.0550   34.5778 O   0  0  0  0  0  0  0  0  0  0  0  0
   -3.4874   11.5902   35.2690 C   0  0  2  0  0  0  0  0  0  0  0  0
   -3.2755   13.0093   35.5994 O   0  0  0  0  0  0  0  0  0  0  0  0
   -4.4642   10.9275   36.3087 C   0  0  0  0  0  0  0  0  0  0  0  0
   -4.2217   11.3420   37.6866 O   0  0  0  0  0  0  0  0  0  0  0  0
   -1.7005    8.7113   35.1480 C   0  0  2  0  0  0  0  0  0  0  0  0
   -1.2958    7.6644   33.9841 C   0  0  2  0  0  0  0  0  0  0  0  0
   -2.2775    7.7769   32.8571 N   0  0  0  0  0  0  0  0  0  0  0  0
   -1.2777    6.1886   34.6209 C   0  0  1  0  0  0  0  0  0  0  0  0
   -0.3004    6.1960   35.7056 O   0  0  0  0  0  0  0  0  0  0  0  0
   -2.7338    5.8265   35.1623 C   0  0  2  0  0  0  0  0  0  0  0  0
   -3.6600    5.8254   34.0081 O   0  0  0  0  0  0  0  0  0  0  0  0
   -3.1444    6.9285   36.2931 C   0  0  1  0  0  0  0  0  0  0  0  0
   -3.0860    8.3122   35.6959 O   0  0  0  0  0  0  0  0  0  0  0  0
   -4.5781    6.6134   36.8350 C   0  0  0  0  0  0  0  0  0  0  0  0
   -5.0312    7.5859   37.8772 N   0  0  0  0  0  0  0  0  0  0  0  0
  1  3  1  0  0  0  0
  1  2  1  6  0  0  0
  3  4  1  6  0  0  0
  3  5  1  0  0  0  0
  5  6  1  1  0  0  0
  7  8  1  1  0  0  0
  7  5  1  0  0  0  0
  9 11  1  1  0  0  0
  9  7  1  0  0  0  0
 10  9  1  0  0  0  0
 10  1  1  0  0  0  0
 12 11  1  0  0  0  0
 13 14  1  6  0  0  0
 15 13  1  0  0  0  0
 16 17  1  6  0  0  0
 16 15  1  0  0  0  0
 18  2  1  1  0  0  0
 18 19  1  0  0  0  0
 18 16  1  0  0  0  0
 19 20  1  6  0  0  0
 19 21  1  0  0  0  0
 21 22  1  1  0  0  0
 21 13  1  0  0  0  0
 23 20  1  1  0  0  0
 23 29  1  0  0  0  0
 24 25  1  6  0  0  0
 24 26  1  0  0  0  0
 24 23  1  0  0  0  0
 26 27  1  6  0  0  0
 26 28  1  0  0  0  0
 28 30  1  1  0  0  0
 29 28  1  0  0  0  0
 30 31  1  0  0  0  0
 32 27  1  6  0  0  0
 32 40  1  0  0  0  0
 33 35  1  0  0  0  0
 33 32  1  0  0  0  0
 33 34  1  6  0  0  0
 35 36  1  1  0  0  0
 35 37  1  0  0  0  0
 37 38  1  6  0  0  0
 37 39  1  0  0  0  0
 39 41  1  6  0  0  0
 40 39  1  0  0  0  0
 41 42  1  0  0  0  0
M  END
>  <CHROM.1>
-75.55277518,-67.47802880,-63.33325490,164.92154873,-178.88093654,143.78479085
66.16209203,179.09210352,-179.81348080,-2.10136047,13.20725882,35.61322145
-1.28106557,1.08052856,2.97939286

>  <Name>
lig.pdb

>  <RI>
0

>  <Rbt.Current_Directory>
/home/itssahil/PROJECTS/Mol_Feturizer/New_Systems/rnas/4wcr

>  <Rbt.Executable>
rbdock ($Id: //depot/dev/client3/rdock/2013.1/src/exe/rbdock.cxx#4 $)

>  <Rbt.Library>
libRbt.so (2013.1, Build901 2013/11/27)

>  <Rbt.Parameter_File>
/export/apps/rDock/src/rDock_2013.1_src/data/scripts/dock_solv.prm

>  <Rbt.Receptor>
prm/pocket_docking_7.prm

>  <SCORE>
-8.56547

>  <SCORE.INTER>
-3.63263

>  <SCORE.INTER.CONST>
1

>  <SCORE.INTER.POLAR>
0

>  <SCORE.INTER.ROT>
9

>  <SCORE.INTER.SOLV>
30.8041

>  <SCORE.INTER.VDW>
-22.2898

>  <SCORE.INTER.norm>
-0.0864913

>  <SCORE.INTRA>
-4.964

>  <SCORE.INTRA.DIHEDRAL>
-8.56997

>  <SCORE.INTRA.DIHEDRAL.0>
16.2863

>  <SCORE.INTRA.POLAR>
0

>  <SCORE.INTRA.POLAR.0>
0

>  <SCORE.INTRA.REPUL>
-0.308251

>  <SCORE.INTRA.REPUL.0>
0.314433

>  <SCORE.INTRA.SOLV>
-0.638054

>  <SCORE.INTRA.SOLV.lig_0>
-103.824

>  <SCORE.INTRA.VDW>
1.18127

>  <SCORE.INTRA.VDW.0>
-5.30945

>  <SCORE.INTRA.norm>
-0.118191

>  <SCORE.RESTR>
0.0311649

>  <SCORE.RESTR.CAVITY>
0.0311649

>  <SCORE.RESTR.norm>
0.000742021

>  <SCORE.SYSTEM>
0

>  <SCORE.SYSTEM.CONST>
0

>  <SCORE.SYSTEM.DIHEDRAL>
0

>  <SCORE.SYSTEM.SOLV>
0

>  <SCORE.SYSTEM.norm>
0

>  <SCORE.heavy>
42

>  <SCORE.norm>
-0.20394

>  <RMSD>
3.739

$$$$
lig.pdb
 OpenBabel11021811513D
libRbt.so/2013.1/901 2013/11/27
 42 45  0  0  0  0  0  0  0  0999 V2000
   -1.9731   17.1612   34.4498 C   0  0  2  0  0  0  0  0  0  0  0  0
   -2.6524   17.4006   35.7220 O   0  0  0  0  0  0  0  0  0  0  0  0
   -0.6839   18.0982   34.4527 C   0  0  2  0  0  0  0  0  0  0  0  0
    0.2138   17.7252   35.5493 N   0  0  0  0  0  0  0  0  0  0  0  0
   -1.1583   19.6295   34.5509 C   0  0  1  0  0  0  0  0  0  0  0  0
   -0.0276   20.5263   34.5460 O   0  0  0  0  0  0  0  0  0  0  0  0
   -2.0948   19.8926   33.3592 C   0  0  2  0  0  0  0  0  0  0  0  0
   -2.5269   21.2094   33.4128 O   0  0  0  0  0  0  0  0  0  0  0  0
   -3.3319   18.8847   33.4070 C   0  0  2  0  0  0  0  0  0  0  0  0
   -2.8945   17.5212   33.3520 O   0  0  0  0  0  0  0  0  0  0  0  0
   -4.2696   19.0879   32.2509 C   0  0  0  0  0  0  0  0  0  0  0  0
   -4.8362   20.3927   32.3780 O   0  0  0  0  0  0  0  0  0  0  0  0
   -5.5037   14.7227   37.8365 C   0  0  2  0  0  0  0  0  0  0  0  0
   -6.7393   14.0985   38.2568 N   0  0  0  0  0  0  0  0  0  0  0  0
   -5.5839   16.2841   38.0470 C   0  0  0  0  0  0  0  0  0  0  0  0
   -4.2556   16.9862   37.5940 C   0  0  2  0  0  0  0  0  0  0  0  0
   -4.3737   18.4284   37.7982 N   0  0  0  0  0  0  0  0  0  0  0  0
   -3.9146   16.7125   36.0619 C   0  0  2  0  0  0  0  0  0  0  0  0
   -3.8019   15.1714   35.8781 C   0  0  2  0  0  0  0  0  0  0  0  0
   -3.4701   15.0002   34.4141 O   0  0  0  0  0  0  0  0  0  0  0  0
   -5.2052   14.4560   36.2860 C   0  0  1  0  0  0  0  0  0  0  0  0
   -5.1997   12.9947   36.2051 O   0  0  0  0  0  0  0  0  0  0  0  0
   -2.8595   13.7966   34.1778 C   0  0  1  0  0  0  0  0  0  0  0  0
   -2.6684   13.5186   32.7504 C   0  0  2  0  0  0  0  0  0  0  0  0
   -3.9170   13.2174   32.2148 O   0  0  0  0  0  0  0  0  0  0  0  0
   -1.5682   12.4368   32.8009 C   0  0  2  0  0  0  0  0  0  0  0  0
   -2.1260   11.2464   32.1997 O   0  0  0  0  0  0  0  0  0  0  0  0
   -1.2716   12.2590   34.2535 C   0  0  2  0  0  0  0  0  0  0  0  0
   -1.5382   13.6459   34.6698 O   0  0  0  0  0  0  0  0  0  0  0  0
    0.2384   11.8951   34.5020 C   0  0  0  0  0  0  0  0  0  0  0  0
    0.5587   11.6507   35.9044 O   0  0  0  0  0  0  0  0  0  0  0  0
   -1.1827   10.2969   31.6169 C   0  0  2  0  0  0  0  0  0  0  0  0
   -2.0199    9.0820   30.9557 C   0  0  2  0  0  0  0  0  0  0  0  0
   -2.8724    8.4407   32.0086 N   0  0  0  0  0  0  0  0  0  0  0  0
   -0.9745    8.0435   30.3133 C   0  0  1  0  0  0  0  0  0  0  0  0
   -0.1977    8.7717   29.3144 O   0  0  0  0  0  0  0  0  0  0  0  0
   -0.0321    7.4611   31.4609 C   0  0  2  0  0  0  0  0  0  0  0  0
   -0.8866    6.7288   32.4220 O   0  0  0  0  0  0  0  0  0  0  0  0
    0.7587    8.7098   32.1519 C   0  0  1  0  0  0  0  0  0  0  0  0
   -0.2387    9.7076   32.6850 O   0  0  0  0  0  0  0  0  0  0  0  0
    1.6818    8.1756   33.2969 C   0  0  0  0  0  0  0  0  0  0  0  0
    0.9110    7.6163   34.4504 N   0  0  0  0  0  0  0  0  0  0  0  0
  1  3  1  0  0  0  0
  1  2  1  1  0  0  0
  3  4  1  1  0  0  0
  3  5  1  0  0  0  0
  5  6  1  6  0  0  0
  7  8  1  1  0  0  0
  7  5  1  0  0  0  0
  9 11  1  6  0  0  0
  9  7  1  0  0  0  0
 10  9  1  0  0  0  0
 10  1  1  0  0  0  0
 12 11  1  0  0  0  0
 13 14  1  6  0  0  0
 15 13  1  0  0  0  0
 16 17  1  6  0  0  0
 16 15  1  0  0  0  0
 18  2  1  1  0  0  0
 18 19  1  0  0  0  0
 18 16  1  0  0  0  0
 19 20  1  6  0  0  0
 19 21  1  0  0  0  0
 21 22  1  1  0  0  0
 21 13  1  0  0  0  0
 23 20  1  6  0  0  0
 23 29  1  0  0  0  0
 24 25  1  1  0  0  0
 24 26  1  0  0  0  0
 24 23  1  0  0  0  0
 26 27  1  1  0  0  0
 26 28  1  0  0  0  0
 28 30  1  6  0  0  0
 29 28  1  0  0  0  0
 30 31  1  0  0  0  0
 32 27  1  1  0  0  0
 32 40  1  0  0  0  0
 33 35  1  0  0  0  0
 33 32  1  0  0  0  0
 33 34  1  1  0  0  0
 35 36  1  6  0  0  0
 35 37  1  0  0  0  0
 37 38  1  1  0  0  0
 37 39  1  0  0  0  0
 39 41  1  1  0  0  0
 40 39  1  0  0  0  0
 41 42  1  0  0  0  0
M  END
>  <CHROM.1>
178.93069599,-64.50665697,170.12188381,157.43328066,172.96647758,154.81578917
-177.29023552,-177.78464571,-67.01457394,-2.24288833,14.03661002,34.02679809
-1.97405010,-0.85762514,3.10903580

>  <Name>
lig.pdb

>  <RI>
0

>  <Rbt.Current_Directory>
/home/itssahil/PROJECTS/Mol_Feturizer/New_Systems/rnas/4wcr

>  <Rbt.Executable>
rbdock ($Id: //depot/dev/client3/rdock/2013.1/src/exe/rbdock.cxx#4 $)

>  <Rbt.Library>
libRbt.so (2013.1, Build901 2013/11/27)

>  <Rbt.Parameter_File>
/export/apps/rDock/src/rDock_2013.1_src/data/scripts/dock_solv.prm

>  <Rbt.Receptor>
prm/pocket_docking_7.prm

>  <SCORE>
-15.3243

>  <SCORE.INTER>
-8.08399

>  <SCORE.INTER.CONST>
1

>  <SCORE.INTER.POLAR>
0

>  <SCORE.INTER.ROT>
9

>  <SCORE.INTER.SOLV>
24.6327

>  <SCORE.INTER.VDW>
-23.2002

>  <SCORE.INTER.norm>
-0.192476

>  <SCORE.INTRA>
-7.24028

>  <SCORE.INTRA.DIHEDRAL>
-9.87599

>  <SCORE.INTRA.DIHEDRAL.0>
16.2863

>  <SCORE.INTRA.POLAR>
0

>  <SCORE.INTRA.POLAR.0>
0

>  <SCORE.INTRA.REPUL>
-0.314433

>  <SCORE.INTRA.REPUL.0>
0.314433

>  <SCORE.INTRA.SOLV>
-4.24916

>  <SCORE.INTRA.SOLV.lig_0>
-103.824

>  <SCORE.INTRA.VDW>
1.39446

>  <SCORE.INTRA.VDW.0>
-5.30945

>  <SCORE.INTRA.norm>
-0.172388

>  <SCORE.RESTR>
0

>  <SCORE.RESTR.CAVITY>
0

>  <SCORE.RESTR.norm>
0

>  <SCORE.SYSTEM>
0

>  <SCORE.SYSTEM.CONST>
0

>  <SCORE.SYSTEM.DIHEDRAL>
0

>  <SCORE.SYSTEM.SOLV>
0

>  <SCORE.SYSTEM.norm>
0

>  <SCORE.heavy>
42

>  <SCORE.norm>
-0.364864

>  <RMSD>
3.913

$$$$
lig.pdb
 OpenBabel11021811513D
libRbt.so/2013.1/901 2013/11/27
 42 45  0  0  0  0  0  0  0  0999 V2000
    0.5725   14.6163   37.4404 C   0  0  2  0  0  0  0  0  0  0  0  0
   -0.8525   14.6797   37.7606 O   0  0  0  0  0  0  0  0  0  0  0  0
    1.3461   14.8527   38.8135 C   0  0  2  0  0  0  0  0  0  0  0  0
    1.0248   13.7885   39.7684 N   0  0  0  0  0  0  0  0  0  0  0  0
    0.9663   16.3082   39.3766 C   0  0  1  0  0  0  0  0  0  0  0  0
    1.6501   16.5810   40.6179 O   0  0  0  0  0  0  0  0  0  0  0  0
    1.3405   17.3286   38.2879 C   0  0  2  0  0  0  0  0  0  0  0  0
    1.0237   18.6008   38.7402 O   0  0  0  0  0  0  0  0  0  0  0  0
    0.5590   16.9934   36.9369 C   0  0  2  0  0  0  0  0  0  0  0  0
    0.8804   15.6801   36.4620 O   0  0  0  0  0  0  0  0  0  0  0  0
    0.9046   17.9520   35.8329 C   0  0  0  0  0  0  0  0  0  0  0  0
   -0.0227   17.7376   34.7681 O   0  0  0  0  0  0  0  0  0  0  0  0
   -4.5710   12.6701   36.3797 C   0  0  2  0  0  0  0  0  0  0  0  0
   -5.6339   12.2028   35.5167 N   0  0  0  0  0  0  0  0  0  0  0  0
   -4.4377   14.2388   36.2782 C   0  0  0  0  0  0  0  0  0  0  0  0
   -3.2870   14.7710   37.2029 C   0  0  2  0  0  0  0  0  0  0  0  0
   -3.1924   16.2237   37.0742 N   0  0  0  0  0  0  0  0  0  0  0  0
   -1.8725   14.1321   36.8430 C   0  0  2  0  0  0  0  0  0  0  0  0
   -2.0095   12.5884   36.9839 C   0  0  2  0  0  0  0  0  0  0  0  0
   -0.6349   12.0655   36.6382 O   0  0  0  0  0  0  0  0  0  0  0  0
   -3.1583   12.0350   35.9732 C   0  0  1  0  0  0  0  0  0  0  0  0
   -3.4147   10.5966   36.0582 O   0  0  0  0  0  0  0  0  0  0  0  0
   -0.4481   10.7959   37.1184 C   0  0  1  0  0  0  0  0  0  0  0  0
    0.8505   10.2249   36.7460 C   0  0  2  0  0  0  0  0  0  0  0  0
    0.7965    9.9191   35.3895 O   0  0  0  0  0  0  0  0  0  0  0  0
    0.9901    9.0942   37.7878 C   0  0  2  0  0  0  0  0  0  0  0  0
    1.0665    7.8539   37.0492 O   0  0  0  0  0  0  0  0  0  0  0  0
   -0.2442    9.1878   38.6229 C   0  0  2  0  0  0  0  0  0  0  0  0
   -0.4239   10.6461   38.5282 O   0  0  0  0  0  0  0  0  0  0  0  0
    0.0253    8.7666   40.1143 C   0  0  0  0  0  0  0  0  0  0  0  0
    0.9988    9.6139   40.7952 O   0  0  0  0  0  0  0  0  0  0  0  0
    1.2604    6.6335   37.8265 C   0  0  2  0  0  0  0  0  0  0  0  0
    1.5529    5.4153   36.8045 C   0  0  2  0  0  0  0  0  0  0  0  0
    0.4052    5.2872   35.8490 N   0  0  0  0  0  0  0  0  0  0  0  0
    1.7688    4.0768   37.6680 C   0  0  1  0  0  0  0  0  0  0  0  0
    2.8975    4.3151   38.5629 O   0  0  0  0  0  0  0  0  0  0  0  0
    0.4407    3.7567   38.4915 C   0  0  2  0  0  0  0  0  0  0  0  0
   -0.6488    3.5144   37.5196 O   0  0  0  0  0  0  0  0  0  0  0  0
    0.1335    5.0232   39.4731 C   0  0  1  0  0  0  0  0  0  0  0  0
    0.0053    6.2812   38.6510 O   0  0  0  0  0  0  0  0  0  0  0  0
   -1.1758    4.7504   40.2855 C   0  0  0  0  0  0  0  0  0  0  0  0
   -1.0406    3.6032   41.2357 N   0  0  0  0  0  0  0  0  0  0  0  0
  1  3  1  0  0  0  0
  1  2  1  1  0  0  0
  3  4  1  1  0  0  0
  3  5  1  0  0  0  0
  5  6  1  1  0  0  0
  7  8  1  1  0  0  0
  7  5  1  0  0  0  0
  9 11  1  6  0  0  0
  9  7  1  0  0  0  0
 10  9  1  0  0  0  0
 10  1  1  0  0  0  0
 12 11  1  0  0  0  0
 13 14  1  6  0  0  0
 15 13  1  0  0  0  0
 16 17  1  6  0  0  0
 16 15  1  0  0  0  0
 18  2  1  1  0  0  0
 18 19  1  0  0  0  0
 18 16  1  0  0  0  0
 19 20  1  6  0  0  0
 19 21  1  0  0  0  0
 21 22  1  1  0  0  0
 21 13  1  0  0  0  0
 23 20  1  1  0  0  0
 23 29  1  0  0  0  0
 24 25  1  6  0  0  0
 24 26  1  0  0  0  0
 24 23  1  0  0  0  0
 26 27  1  6  0  0  0
 26 28  1  0  0  0  0
 28 30  1  1  0  0  0
 29 28  1  0  0  0  0
 30 31  1  0  0  0  0
 32 27  1  6  0  0  0
 32 40  1  0  0  0  0
 33 35  1  0  0  0  0
 33 32  1  0  0  0  0
 33 34  1  6  0  0  0
 35 36  1  1  0  0  0
 35 37  1  0  0  0  0
 37 38  1  6  0  0  0
 37 39  1  0  0  0  0
 39 41  1  6  0  0  0
 40 39  1  0  0  0  0
 41 42  1  0  0  0  0
M  END
>  <CHROM.1>
-162.16278018,-168.86180855,-160.97983467,160.29708698,177.10975339,177.48718594
61.68400102,-171.04081143,65.50936178,-0.30179240,11.09095179,37.72215925
-1.65822678,0.50922337,3.08530230

>  <Name>
lig.pdb

>  <RI>
0

>  <Rbt.Current_Directory>
/home/itssahil/PROJECTS/Mol_Feturizer/New_Systems/rnas/4wcr

>  <Rbt.Executable>
rbdock ($Id: //depot/dev/client3/rdock/2013.1/src/exe/rbdock.cxx#4 $)

>  <Rbt.Library>
libRbt.so (2013.1, Build901 2013/11/27)

>  <Rbt.Parameter_File>
/export/apps/rDock/src/rDock_2013.1_src/data/scripts/dock_solv.prm

>  <Rbt.Receptor>
prm/pocket_docking_7.prm

>  <SCORE>
-6.96252

>  <SCORE.INTER>
1.08032

>  <SCORE.INTER.CONST>
1

>  <SCORE.INTER.POLAR>
0

>  <SCORE.INTER.ROT>
9

>  <SCORE.INTER.SOLV>
16.2158

>  <SCORE.INTER.VDW>
-14.2851

>  <SCORE.INTER.norm>
0.025722

>  <SCORE.INTRA>
-8.05373

>  <SCORE.INTRA.DIHEDRAL>
-9.87677

>  <SCORE.INTRA.DIHEDRAL.0>
16.2863

>  <SCORE.INTRA.POLAR>
0

>  <SCORE.INTRA.POLAR.0>
0

>  <SCORE.INTRA.REPUL>
-0.314433

>  <SCORE.INTRA.REPUL.0>
0.314433

>  <SCORE.INTRA.SOLV>
-4.3751

>  <SCORE.INTRA.SOLV.lig_0>
-103.824

>  <SCORE.INTRA.VDW>
0.644373

>  <SCORE.INTRA.VDW.0>
-5.30945

>  <SCORE.INTRA.norm>
-0.191755

>  <SCORE.RESTR>
0.0108853

>  <SCORE.RESTR.CAVITY>
0.0108853

>  <SCORE.RESTR.norm>
0.000259173

>  <SCORE.SYSTEM>
0

>  <SCORE.SYSTEM.CONST>
0

>  <SCORE.SYSTEM.DIHEDRAL>
0

>  <SCORE.SYSTEM.SOLV>
0

>  <SCORE.SYSTEM.norm>
0

>  <SCORE.heavy>
42

>  <SCORE.norm>
-0.165774

>  <RMSD>
3.979

$$$$
lig.pdb
 OpenBabel11021811513D
libRbt.so/2013.1/901 2013/11/27
 42 45  0  0  0  0  0  0  0  0999 V2000
   -2.9980   16.2687   34.3516 C   0  0  2  0  0  0  0  0  0  0  0  0
   -3.8891   16.5266   35.4816 O   0  0  0  0  0  0  0  0  0  0  0  0
   -1.6427   17.0443   34.6702 C   0  0  2  0  0  0  0  0  0  0  0  0
   -1.0286   16.5154   35.8912 N   0  0  0  0  0  0  0  0  0  0  0  0
   -1.9600   18.6148   34.7817 C   0  0  1  0  0  0  0  0  0  0  0  0
   -0.7618   19.3698   35.0591 O   0  0  0  0  0  0  0  0  0  0  0  0
   -2.6046   19.0438   33.4524 C   0  0  2  0  0  0  0  0  0  0  0  0
   -2.8948   20.3987   33.5135 O   0  0  0  0  0  0  0  0  0  0  0  0
   -3.9269   18.1893   33.1886 C   0  0  2  0  0  0  0  0  0  0  0  0
   -3.6363   16.7875   33.1240 O   0  0  0  0  0  0  0  0  0  0  0  0
   -4.5862   18.5574   31.8897 C   0  0  0  0  0  0  0  0  0  0  0  0
   -5.0940   19.8855   32.0238 O   0  0  0  0  0  0  0  0  0  0  0  0
   -2.1356   14.3480   38.9387 C   0  0  2  0  0  0  0  0  0  0  0  0
   -2.0230   13.6432   40.1971 N   0  0  0  0  0  0  0  0  0  0  0  0
   -2.8328   15.7460   39.1586 C   0  0  0  0  0  0  0  0  0  0  0  0
   -2.9711   16.5296   37.8061 C   0  0  2  0  0  0  0  0  0  0  0  0
   -3.6266   17.8124   38.0521 N   0  0  0  0  0  0  0  0  0  0  0  0
   -3.8136   15.7244   36.7198 C   0  0  2  0  0  0  0  0  0  0  0  0
   -3.0934   14.3648   36.4862 C   0  0  2  0  0  0  0  0  0  0  0  0
   -3.9433   13.6740   35.4454 O   0  0  0  0  0  0  0  0  0  0  0  0
   -3.0134   13.5284   37.8795 C   0  0  1  0  0  0  0  0  0  0  0  0
   -2.3047   12.2508   37.7929 O   0  0  0  0  0  0  0  0  0  0  0  0
   -3.4056   12.4672   35.0823 C   0  0  1  0  0  0  0  0  0  0  0  0
   -4.1138   11.8346   33.9645 C   0  0  2  0  0  0  0  0  0  0  0  0
   -5.3318   11.3713   34.4529 O   0  0  0  0  0  0  0  0  0  0  0  0
   -3.0505   10.8329   33.4652 C   0  0  2  0  0  0  0  0  0  0  0  0
   -3.6225    9.5128   33.6062 O   0  0  0  0  0  0  0  0  0  0  0  0
   -1.8738   11.0452   34.3595 C   0  0  2  0  0  0  0  0  0  0  0  0
   -2.0745   12.4848   34.5940 O   0  0  0  0  0  0  0  0  0  0  0  0
   -0.5148   10.7989   33.6065 C   0  0  0  0  0  0  0  0  0  0  0  0
    0.6604   10.9300   34.4614 O   0  0  0  0  0  0  0  0  0  0  0  0
   -2.7823    8.3841   33.2174 C   0  0  2  0  0  0  0  0  0  0  0  0
   -2.5481    8.4454   31.6188 C   0  0  2  0  0  0  0  0  0  0  0  0
   -3.8761    8.4125   30.9246 N   0  0  0  0  0  0  0  0  0  0  0  0
   -1.6194    7.2021   31.1998 C   0  0  1  0  0  0  0  0  0  0  0  0
   -0.3649    7.3301   31.9356 O   0  0  0  0  0  0  0  0  0  0  0  0
   -2.3623    5.8384   31.5643 C   0  0  2  0  0  0  0  0  0  0  0  0
   -3.6110    5.7760   30.7724 O   0  0  0  0  0  0  0  0  0  0  0  0
   -2.6396    5.8245   33.1720 C   0  0  1  0  0  0  0  0  0  0  0  0
   -3.4513    7.0362   33.5561 O   0  0  0  0  0  0  0  0  0  0  0  0
   -3.3847    4.5053   33.5634 C   0  0  0  0  0  0  0  0  0  0  0  0
   -2.5545    3.2815   33.3393 N   0  0  0  0  0  0  0  0  0  0  0  0
  1  3  1  0  0  0  0
  1  2  1  1  0  0  0
  3  4  1  1  0  0  0
  3  5  1  0  0  0  0
  5  6  1  6  0  0  0
  7  8  1  1  0  0  0
  7  5  1  0  0  0  0
  9 11  1  6  0  0  0
  9  7  1  0  0  0  0
 10  9  1  0  0  0  0
 10  1  1  0  0  0  0
 12 11  1  0  0  0  0
 13 14  1  1  0  0  0
 15 13  1  0  0  0  0
 16 17  1  1  0  0  0
 16 15  1  0  0  0  0
 18  2  1  6  0  0  0
 18 19  1  0  0  0  0
 18 16  1  0  0  0  0
 19 20  1  6  0  0  0
 19 21  1  0  0  0  0
 21 22  1  6  0  0  0
 21 13  1  0  0  0  0
 23 20  1  6  0  0  0
 23 29  1  0  0  0  0
 24 25  1  1  0  0  0
 24 26  1  0  0  0  0
 24 23  1  0  0  0  0
 26 27  1  1  0  0  0
 26 28  1  0  0  0  0
 28 30  1  6  0  0  0
 29 28  1  0  0  0  0
 30 31  1  0  0  0  0
 32 27  1  6  0  0  0
 32 40  1  0  0  0  0
 33 35  1  0  0  0  0
 33 32  1  0  0  0  0
 33 34  1  6  0  0  0
 35 36  1  1  0  0  0
 35 37  1  0  0  0  0
 37 38  1  6  0  0  0
 37 39  1  0  0  0  0
 39 41  1  6  0  0  0
 40 39  1  0  0  0  0
 41 42  1  0  0  0  0
M  END
>  <CHROM.1>
-83.59418044,-67.90442050,98.90786289,177.43625274,-173.36112554,-178.82255978
-177.08947269,-66.88703091,65.16848939,-2.79781536,12.82247817,34.46036090
1.76963129,-1.40379054,0.42270688

>  <Name>
lig.pdb

>  <RI>
0

>  <Rbt.Current_Directory>
/home/itssahil/PROJECTS/Mol_Feturizer/New_Systems/rnas/4wcr

>  <Rbt.Executable>
rbdock ($Id: //depot/dev/client3/rdock/2013.1/src/exe/rbdock.cxx#4 $)

>  <Rbt.Library>
libRbt.so (2013.1, Build901 2013/11/27)

>  <Rbt.Parameter_File>
/export/apps/rDock/src/rDock_2013.1_src/data/scripts/dock_solv.prm

>  <Rbt.Receptor>
prm/pocket_docking_5.prm

>  <SCORE>
-5.79467

>  <SCORE.INTER>
-2.76509

>  <SCORE.INTER.CONST>
1

>  <SCORE.INTER.POLAR>
0

>  <SCORE.INTER.ROT>
9

>  <SCORE.INTER.SOLV>
12.9461

>  <SCORE.INTER.VDW>
-15.7588

>  <SCORE.INTER.norm>
-0.0658355

>  <SCORE.INTRA>
-3.02958

>  <SCORE.INTRA.DIHEDRAL>
-7.30334

>  <SCORE.INTRA.DIHEDRAL.0>
16.2863

>  <SCORE.INTRA.POLAR>
0

>  <SCORE.INTRA.POLAR.0>
0

>  <SCORE.INTRA.REPUL>
-0.314433

>  <SCORE.INTRA.REPUL.0>
0.314433

>  <SCORE.INTRA.SOLV>
0.152159

>  <SCORE.INTRA.SOLV.lig_0>
-103.824

>  <SCORE.INTRA.VDW>
2.11818

>  <SCORE.INTRA.VDW.0>
-5.30945

>  <SCORE.INTRA.norm>
-0.0721328

>  <SCORE.RESTR>
0

>  <SCORE.RESTR.CAVITY>
0

>  <SCORE.RESTR.norm>
0

>  <SCORE.SYSTEM>
0

>  <SCORE.SYSTEM.CONST>
0

>  <SCORE.SYSTEM.DIHEDRAL>
0

>  <SCORE.SYSTEM.SOLV>
0

>  <SCORE.SYSTEM.norm>
0

>  <SCORE.heavy>
42

>  <SCORE.norm>
-0.137968

>  <RMSD>
3.999

$$$$
lig.pdb
 OpenBabel11021811513D
libRbt.so/2013.1/901 2013/11/27
 42 45  0  0  0  0  0  0  0  0999 V2000
   -1.1579   15.2648   36.6852 C   0  0  2  0  0  0  0  0  0  0  0  0
   -2.0282   14.4062   37.4868 O   0  0  0  0  0  0  0  0  0  0  0  0
   -0.8104   14.4374   35.3682 C   0  0  2  0  0  0  0  0  0  0  0  0
   -2.0310   14.1543   34.6081 N   0  0  0  0  0  0  0  0  0  0  0  0
   -0.0337   13.0964   35.7903 C   0  0  1  0  0  0  0  0  0  0  0  0
    0.3169   12.3109   34.6315 O   0  0  0  0  0  0  0  0  0  0  0  0
    1.2135   13.5239   36.5829 C   0  0  2  0  0  0  0  0  0  0  0  0
    1.9101   12.3876   36.9667 O   0  0  0  0  0  0  0  0  0  0  0  0
    0.7801   14.3836   37.8564 C   0  0  2  0  0  0  0  0  0  0  0  0
    0.0595   15.5601   37.4691 O   0  0  0  0  0  0  0  0  0  0  0  0
    1.9659   14.8432   38.6564 C   0  0  0  0  0  0  0  0  0  0  0  0
    2.7577   15.6809   37.8132 O   0  0  0  0  0  0  0  0  0  0  0  0
   -6.4061   13.7650   37.9285 C   0  0  2  0  0  0  0  0  0  0  0  0
   -7.8094   13.6334   37.6020 N   0  0  0  0  0  0  0  0  0  0  0  0
   -5.8593   15.1576   37.4283 C   0  0  0  0  0  0  0  0  0  0  0  0
   -4.3361   15.3234   37.7669 C   0  0  2  0  0  0  0  0  0  0  0  0
   -3.8683   16.6201   37.2816 N   0  0  0  0  0  0  0  0  0  0  0  0
   -3.4397   14.1792   37.1146 C   0  0  2  0  0  0  0  0  0  0  0  0
   -3.9667   12.8149   37.6463 C   0  0  2  0  0  0  0  0  0  0  0  0
   -3.0646   11.7939   36.9934 O   0  0  0  0  0  0  0  0  0  0  0  0
   -5.5285   12.6201   37.2333 C   0  0  1  0  0  0  0  0  0  0  0  0
   -6.1496   11.3912   37.7293 O   0  0  0  0  0  0  0  0  0  0  0  0
   -3.3172   10.5316   37.4625 C   0  0  1  0  0  0  0  0  0  0  0  0
   -2.6511    9.4835   36.6821 C   0  0  2  0  0  0  0  0  0  0  0  0
   -3.3203    9.3820   35.4661 O   0  0  0  0  0  0  0  0  0  0  0  0
   -2.6779    8.3052   37.6792 C   0  0  2  0  0  0  0  0  0  0  0  0
   -3.4440    7.2493   37.0564 O   0  0  0  0  0  0  0  0  0  0  0  0
   -3.3427    8.8509   38.8998 C   0  0  2  0  0  0  0  0  0  0  0  0
   -2.8604   10.2361   38.7719 O   0  0  0  0  0  0  0  0  0  0  0  0
   -2.7799    8.1960   40.2146 C   0  0  0  0  0  0  0  0  0  0  0  0
   -3.3435    8.7595   41.4370 O   0  0  0  0  0  0  0  0  0  0  0  0
   -3.4555    5.9553   37.7319 C   0  0  2  0  0  0  0  0  0  0  0  0
   -1.9396    5.3966   37.7964 C   0  0  2  0  0  0  0  0  0  0  0  0
   -1.3940    5.2901   36.4044 N   0  0  0  0  0  0  0  0  0  0  0  0
   -1.9606    3.9740   38.5446 C   0  0  1  0  0  0  0  0  0  0  0  0
   -2.5135    4.1932   39.8779 O   0  0  0  0  0  0  0  0  0  0  0  0
   -2.8569    2.9500   37.7124 C   0  0  2  0  0  0  0  0  0  0  0  0
   -2.2271    2.7701   36.3853 O   0  0  0  0  0  0  0  0  0  0  0  0
   -4.3661    3.5615   37.6111 C   0  0  1  0  0  0  0  0  0  0  0  0
   -4.3173    4.9265   36.9716 O   0  0  0  0  0  0  0  0  0  0  0  0
   -5.2707    2.5886   36.7841 C   0  0  0  0  0  0  0  0  0  0  0  0
   -4.7974    2.4120   35.3763 N   0  0  0  0  0  0  0  0  0  0  0  0
  1  3  1  0  0  0  0
  1  2  1  1  0  0  0
  3  4  1  1  0  0  0
  3  5  1  0  0  0  0
  5  6  1  6  0  0  0
  7  8  1  1  0  0  0
  7  5  1  0  0  0  0
  9 11  1  6  0  0  0
  9  7  1  0  0  0  0
 10  9  1  0  0  0  0
 10  1  1  0  0  0  0
 12 11  1  0  0  0  0
 13 14  1  6  0  0  0
 15 13  1  0  0  0  0
 16 17  1  6  0  0  0
 16 15  1  0  0  0  0
 18  2  1  1  0  0  0
 18 19  1  0  0  0  0
 18 16  1  0  0  0  0
 19 20  1  6  0  0  0
 19 21  1  0  0  0  0
 21 22  1  1  0  0  0
 21 13  1  0  0  0  0
 23 20  1  6  0  0  0
 23 29  1  0  0  0  0
 24 25  1  6  0  0  0
 24 26  1  0  0  0  0
 24 23  1  0  0  0  0
 26 27  1  6  0  0  0
 26 28  1  0  0  0  0
 28 30  1  1  0  0  0
 29 28  1  0  0  0  0
 30 31  1  0  0  0  0
 32 27  1  6  0  0  0
 32 40  1  0  0  0  0
 33 35  1  0  0  0  0
 33 32  1  0  0  0  0
 33 34  1  6  0  0  0
 35 36  1  1  0  0  0
 35 37  1  0  0  0  0
 37 38  1  6  0  0  0
 37 39  1  0  0  0  0
 39 41  1  6  0  0  0
 40 39  1  0  0  0  0
 41 42  1  0  0  0  0
M  END
>  <CHROM.1>
-74.11687137,61.67645242,-87.78559229,174.15288673,169.08015395,171.75685083
176.43070429,-61.37613887,-61.95680462,-2.59766862,10.27935792,37.37543854
-1.38705781,-0.08257677,3.11616414

>  <Name>
lig.pdb

>  <RI>
0

>  <Rbt.Current_Directory>
/home/itssahil/PROJECTS/Mol_Feturizer/New_Systems/rnas/4wcr

>  <Rbt.Executable>
rbdock ($Id: //depot/dev/client3/rdock/2013.1/src/exe/rbdock.cxx#4 $)

>  <Rbt.Library>
libRbt.so (2013.1, Build901 2013/11/27)

>  <Rbt.Parameter_File>
/export/apps/rDock/src/rDock_2013.1_src/data/scripts/dock_solv.prm

>  <Rbt.Receptor>
prm/pocket_docking_5.prm

>  <SCORE>
-4.65533

>  <SCORE.INTER>
1.4612

>  <SCORE.INTER.CONST>
1

>  <SCORE.INTER.POLAR>
0

>  <SCORE.INTER.ROT>
9

>  <SCORE.INTER.SOLV>
17.5413

>  <SCORE.INTER.VDW>
-14.473

>  <SCORE.INTER.norm>
0.0347906

>  <SCORE.INTRA>
-6.11654

>  <SCORE.INTRA.DIHEDRAL>
-10.4751

>  <SCORE.INTRA.DIHEDRAL.0>
16.2863

>  <SCORE.INTRA.POLAR>
0

>  <SCORE.INTRA.POLAR.0>
0

>  <SCORE.INTRA.REPUL>
-0.314433

>  <SCORE.INTRA.REPUL.0>
0.314433

>  <SCORE.INTRA.SOLV>
-0.606369

>  <SCORE.INTRA.SOLV.lig_0>
-103.824

>  <SCORE.INTRA.VDW>
0.996342

>  <SCORE.INTRA.VDW.0>
-5.30945

>  <SCORE.INTRA.norm>
-0.145632

>  <SCORE.RESTR>
0

>  <SCORE.RESTR.CAVITY>
0

>  <SCORE.RESTR.norm>
0

>  <SCORE.SYSTEM>
0

>  <SCORE.SYSTEM.CONST>
0

>  <SCORE.SYSTEM.DIHEDRAL>
0

>  <SCORE.SYSTEM.SOLV>
0

>  <SCORE.SYSTEM.norm>
0

>  <SCORE.heavy>
42

>  <SCORE.norm>
-0.110841

>  <RMSD>
4.066

$$$$
lig.pdb
 OpenBabel11021811513D
libRbt.so/2013.1/901 2013/11/27
 42 45  0  0  0  0  0  0  0  0999 V2000
   -2.8136   15.7249   34.9578 C   0  0  2  0  0  0  0  0  0  0  0  0
   -3.5398   15.4578   36.1982 O   0  0  0  0  0  0  0  0  0  0  0  0
   -2.3608   14.3044   34.3948 C   0  0  2  0  0  0  0  0  0  0  0  0
   -3.5337   13.4797   34.0917 N   0  0  0  0  0  0  0  0  0  0  0  0
   -1.3907   13.6081   35.4690 C   0  0  1  0  0  0  0  0  0  0  0  0
   -0.9395   12.3185   35.0043 O   0  0  0  0  0  0  0  0  0  0  0  0
   -0.2125   14.5683   35.7068 C   0  0  2  0  0  0  0  0  0  0  0  0
    0.6478   13.9987   36.6337 O   0  0  0  0  0  0  0  0  0  0  0  0
   -0.7554   15.9775   36.2244 C   0  0  2  0  0  0  0  0  0  0  0  0
   -1.6454   16.5735   35.2725 O   0  0  0  0  0  0  0  0  0  0  0  0
    0.3574   16.9603   36.4545 C   0  0  0  0  0  0  0  0  0  0  0  0
    1.1664   16.4562   37.5180 O   0  0  0  0  0  0  0  0  0  0  0  0
   -5.8972   17.7583   39.1853 C   0  0  2  0  0  0  0  0  0  0  0  0
   -6.7646   18.7601   39.7658 N   0  0  0  0  0  0  0  0  0  0  0  0
   -4.7026   18.4497   38.4213 C   0  0  0  0  0  0  0  0  0  0  0  0
   -3.7481   17.3832   37.7780 C   0  0  2  0  0  0  0  0  0  0  0  0
   -2.6619   18.0634   37.0757 N   0  0  0  0  0  0  0  0  0  0  0  0
   -4.5052   16.4307   36.7494 C   0  0  2  0  0  0  0  0  0  0  0  0
   -5.6562   15.7281   37.5261 C   0  0  2  0  0  0  0  0  0  0  0  0
   -6.3110   14.8443   36.4904 O   0  0  0  0  0  0  0  0  0  0  0  0
   -6.6790   16.8382   38.1336 C   0  0  1  0  0  0  0  0  0  0  0  0
   -7.7765   16.2936   38.9344 O   0  0  0  0  0  0  0  0  0  0  0  0
   -6.0474   13.5204   36.7248 C   0  0  1  0  0  0  0  0  0  0  0  0
   -6.8442   12.9601   37.8212 C   0  0  2  0  0  0  0  0  0  0  0  0
   -6.3379   13.4777   39.0097 O   0  0  0  0  0  0  0  0  0  0  0  0
   -6.7348   11.4483   37.5286 C   0  0  2  0  0  0  0  0  0  0  0  0
   -6.0923   10.8470   38.6755 O   0  0  0  0  0  0  0  0  0  0  0  0
   -5.9020   11.3563   36.2926 C   0  0  2  0  0  0  0  0  0  0  0  0
   -6.3459   12.6164   35.6739 O   0  0  0  0  0  0  0  0  0  0  0  0
   -6.3179   10.1320   35.3968 C   0  0  0  0  0  0  0  0  0  0  0  0
   -5.6657    8.8824   35.7737 O   0  0  0  0  0  0  0  0  0  0  0  0
   -4.6608   11.0866   38.8314 C   0  0  2  0  0  0  0  0  0  0  0  0
   -3.8574    9.9283   38.0394 C   0  0  2  0  0  0  0  0  0  0  0  0
   -4.2578    8.5904   38.5839 N   0  0  0  0  0  0  0  0  0  0  0  0
   -2.2828   10.2015   38.2129 C   0  0  1  0  0  0  0  0  0  0  0  0
   -2.0086   11.5247   37.6603 O   0  0  0  0  0  0  0  0  0  0  0  0
   -1.9001   10.1346   39.7600 C   0  0  2  0  0  0  0  0  0  0  0  0
   -2.1921    8.7659   40.2412 O   0  0  0  0  0  0  0  0  0  0  0  0
   -2.7646   11.2724   40.5473 C   0  0  1  0  0  0  0  0  0  0  0  0
   -4.2366   11.0412   40.3137 O   0  0  0  0  0  0  0  0  0  0  0  0
   -2.4264   11.2236   42.0743 C   0  0  0  0  0  0  0  0  0  0  0  0
   -3.1057   12.3042   42.8540 N   0  0  0  0  0  0  0  0  0  0  0  0
  1  3  1  0  0  0  0
  1  2  1  1  0  0  0
  3  4  1  1  0  0  0
  3  5  1  0  0  0  0
  5  6  1  6  0  0  0
  7  8  1  1  0  0  0
  7  5  1  0  0  0  0
  9 11  1  6  0  0  0
  9  7  1  0  0  0  0
 10  9  1  0  0  0  0
 10  1  1  0  0  0  0
 12 11  1  0  0  0  0
 13 14  1  6  0  0  0
 15 13  1  0  0  0  0
 16 17  1  6  0  0  0
 16 15  1  0  0  0  0
 18  2  1  1  0  0  0
 18 19  1  0  0  0  0
 18 16  1  0  0  0  0
 19 20  1  6  0  0  0
 19 21  1  0  0  0  0
 21 22  1  1  0  0  0
 21 13  1  0  0  0  0
 23 20  1  6  0  0  0
 23 29  1  0  0  0  0
 24 25  1  1  0  0  0
 24 26  1  0  0  0  0
 24 23  1  0  0  0  0
 26 27  1  1  0  0  0
 26 28  1  0  0  0  0
 28 30  1  6  0  0  0
 29 28  1  0  0  0  0
 30 31  1  0  0  0  0
 32 27  1  1  0  0  0
 32 40  1  0  0  0  0
 33 35  1  0  0  0  0
 33 32  1  0  0  0  0
 33 34  1  1  0  0  0
 35 36  1  1  0  0  0
 35 37  1  0  0  0  0
 37 38  1  1  0  0  0
 37 39  1  0  0  0  0
 39 41  1  1  0  0  0
 40 39  1  0  0  0  0
 41 42  1  0  0  0  0
M  END
>  <CHROM.1>
-157.89425865,-64.78205670,-92.38942470,108.78276739,76.73118457,-73.54358726
-85.89050261,-89.09412601,175.83653085,-3.79127635,13.57485158,37.56941420
-1.40926599,-0.29252728,2.93080545

>  <Name>
lig.pdb

>  <RI>
0

>  <Rbt.Current_Directory>
/home/itssahil/PROJECTS/Mol_Feturizer/New_Systems/rnas/4wcr

>  <Rbt.Executable>
rbdock ($Id: //depot/dev/client3/rdock/2013.1/src/exe/rbdock.cxx#4 $)

>  <Rbt.Library>
libRbt.so (2013.1, Build901 2013/11/27)

>  <Rbt.Parameter_File>
/export/apps/rDock/src/rDock_2013.1_src/data/scripts/dock_solv.prm

>  <Rbt.Receptor>
prm/pocket_docking_4.prm

>  <SCORE>
0.399981

>  <SCORE.INTER>
-2.48644

>  <SCORE.INTER.CONST>
1

>  <SCORE.INTER.POLAR>
0

>  <SCORE.INTER.ROT>
9

>  <SCORE.INTER.SOLV>
16.5314

>  <SCORE.INTER.VDW>
-16.7681

>  <SCORE.INTER.norm>
-0.059201

>  <SCORE.INTRA>
2.88069

>  <SCORE.INTRA.DIHEDRAL>
4.58806

>  <SCORE.INTRA.DIHEDRAL.0>
16.2863

>  <SCORE.INTRA.POLAR>
0

>  <SCORE.INTRA.POLAR.0>
0

>  <SCORE.INTRA.REPUL>
-0.314433

>  <SCORE.INTRA.REPUL.0>
0.314433

>  <SCORE.INTRA.SOLV>
2.52131

>  <SCORE.INTRA.SOLV.lig_0>
-103.824

>  <SCORE.INTRA.VDW>
0.898169

>  <SCORE.INTRA.VDW.0>
-5.30945

>  <SCORE.INTRA.norm>
0.0685878

>  <SCORE.RESTR>
0.00573195

>  <SCORE.RESTR.CAVITY>
0.00573195

>  <SCORE.RESTR.norm>
0.000136475

>  <SCORE.SYSTEM>
0

>  <SCORE.SYSTEM.CONST>
0

>  <SCORE.SYSTEM.DIHEDRAL>
0

>  <SCORE.SYSTEM.SOLV>
0

>  <SCORE.SYSTEM.norm>
0

>  <SCORE.heavy>
42

>  <SCORE.norm>
0.00952335

>  <RMSD>
4.094

$$$$
lig.pdb
 OpenBabel11021811513D
libRbt.so/2013.1/901 2013/11/27
 42 45  0  0  0  0  0  0  0  0999 V2000
   -0.6751   16.5590   37.6088 C   0  0  2  0  0  0  0  0  0  0  0  0
   -0.0257   16.5122   36.2999 O   0  0  0  0  0  0  0  0  0  0  0  0
    0.4997   16.6097   38.6846 C   0  0  2  0  0  0  0  0  0  0  0  0
    1.3005   17.8241   38.5067 N   0  0  0  0  0  0  0  0  0  0  0  0
    1.3829   15.2750   38.5487 C   0  0  1  0  0  0  0  0  0  0  0  0
    2.4588   15.2624   39.5104 O   0  0  0  0  0  0  0  0  0  0  0  0
    0.4340   14.0802   38.7449 C   0  0  2  0  0  0  0  0  0  0  0  0
    1.1643   12.9066   38.6319 O   0  0  0  0  0  0  0  0  0  0  0  0
   -0.7352   14.1303   37.6590 C   0  0  2  0  0  0  0  0  0  0  0  0
   -1.4954   15.3402   37.7685 O   0  0  0  0  0  0  0  0  0  0  0  0
   -1.7029   12.9924   37.8196 C   0  0  0  0  0  0  0  0  0  0  0  0
   -0.9895   11.7801   37.5719 O   0  0  0  0  0  0  0  0  0  0  0  0
   -3.2620   18.0667   33.6763 C   0  0  2  0  0  0  0  0  0  0  0  0
   -3.9618   18.5434   32.5033 N   0  0  0  0  0  0  0  0  0  0  0  0
   -1.9643   18.9290   33.9236 C   0  0  0  0  0  0  0  0  0  0  0  0
   -1.1837   18.4286   35.1896 C   0  0  2  0  0  0  0  0  0  0  0  0
    0.0121   19.2471   35.3786 N   0  0  0  0  0  0  0  0  0  0  0  0
   -0.7450   16.9016   35.0697 C   0  0  2  0  0  0  0  0  0  0  0  0
   -2.0380   16.0605   34.8638 C   0  0  2  0  0  0  0  0  0  0  0  0
   -1.5387   14.6376   34.7706 O   0  0  0  0  0  0  0  0  0  0  0  0
   -2.8071   16.5401   33.5125 C   0  0  1  0  0  0  0  0  0  0  0  0
   -4.0717   15.8534   33.2451 O   0  0  0  0  0  0  0  0  0  0  0  0
   -2.5734   13.7550   34.6043 C   0  0  1  0  0  0  0  0  0  0  0  0
   -2.1410   12.3536   34.6096 C   0  0  2  0  0  0  0  0  0  0  0  0
   -1.4822   12.1174   33.4067 O   0  0  0  0  0  0  0  0  0  0  0  0
   -3.4703   11.6313   34.9169 C   0  0  2  0  0  0  0  0  0  0  0  0
   -3.7469   10.7694   33.7899 O   0  0  0  0  0  0  0  0  0  0  0  0
   -4.4765   12.7251   35.0613 C   0  0  2  0  0  0  0  0  0  0  0  0
   -3.5680   13.7430   35.6149 O   0  0  0  0  0  0  0  0  0  0  0  0
   -5.5910   12.3600   36.1095 C   0  0  0  0  0  0  0  0  0  0  0  0
   -6.3516   11.1640   35.7628 O   0  0  0  0  0  0  0  0  0  0  0  0
   -3.0617    9.4807   33.7604 C   0  0  2  0  0  0  0  0  0  0  0  0
   -3.3825    8.7612   32.3484 C   0  0  2  0  0  0  0  0  0  0  0  0
   -4.8658    8.6036   32.2014 N   0  0  0  0  0  0  0  0  0  0  0  0
   -2.6217    7.3454   32.3225 C   0  0  1  0  0  0  0  0  0  0  0  0
   -1.1957    7.6161   32.4801 O   0  0  0  0  0  0  0  0  0  0  0  0
   -3.1667    6.4286   33.5086 C   0  0  2  0  0  0  0  0  0  0  0  0
   -4.6077    6.1885   33.2715 O   0  0  0  0  0  0  0  0  0  0  0  0
   -2.8845    7.1999   34.9183 C   0  0  1  0  0  0  0  0  0  0  0  0
   -3.5463    8.5550   34.8950 O   0  0  0  0  0  0  0  0  0  0  0  0
   -3.4235    6.3348   36.1056 C   0  0  0  0  0  0  0  0  0  0  0  0
   -3.1591    6.9536   37.4414 N   0  0  0  0  0  0  0  0  0  0  0  0
  1  3  1  0  0  0  0
  1  2  1  6  0  0  0
  3  4  1  6  0  0  0
  3  5  1  0  0  0  0
  5  6  1  1  0  0  0
  7  8  1  6  0  0  0
  7  5  1  0  0  0  0
  9 11  1  1  0  0  0
  9  7  1  0  0  0  0
 10  9  1  0  0  0  0
 10  1  1  0  0  0  0
 12 11  1  0  0  0  0
 13 14  1  6  0  0  0
 15 13  1  0  0  0  0
 16 17  1  6  0  0  0
 16 15  1  0  0  0  0
 18  2  1  1  0  0  0
 18 19  1  0  0  0  0
 18 16  1  0  0  0  0
 19 20  1  6  0  0  0
 19 21  1  0  0  0  0
 21 22  1  1  0  0  0
 21 13  1  0  0  0  0
 23 20  1  1  0  0  0
 23 29  1  0  0  0  0
 24 25  1  6  0  0  0
 24 26  1  0  0  0  0
 24 23  1  0  0  0  0
 26 27  1  6  0  0  0
 26 28  1  0  0  0  0
 28 30  1  1  0  0  0
 29 28  1  0  0  0  0
 30 31  1  0  0  0  0
 32 27  1  6  0  0  0
 32 40  1  0  0  0  0
 33 35  1  0  0  0  0
 33 32  1  0  0  0  0
 33 34  1  1  0  0  0
 35 36  1  1  0  0  0
 35 37  1  0  0  0  0
 37 38  1  6  0  0  0
 37 39  1  0  0  0  0
 39 41  1  1  0  0  0
 40 39  1  0  0  0  0
 41 42  1  0  0  0  0
M  END
>  <CHROM.1>
-159.45303558,-63.94342888,61.19205297,179.14574987,-175.70294350,81.54112368
-60.29498121,-173.67462228,177.99094840,-2.12858788,12.97254893,35.40546561
-1.07972146,0.87998893,3.00290983

>  <Name>
lig.pdb

>  <RI>
0

>  <Rbt.Current_Directory>
/home/itssahil/PROJECTS/Mol_Feturizer/New_Systems/rnas/4wcr

>  <Rbt.Executable>
rbdock ($Id: //depot/dev/client3/rdock/2013.1/src/exe/rbdock.cxx#4 $)

>  <Rbt.Library>
libRbt.so (2013.1, Build901 2013/11/27)

>  <Rbt.Parameter_File>
/export/apps/rDock/src/rDock_2013.1_src/data/scripts/dock_solv.prm

>  <Rbt.Receptor>
prm/pocket_docking_7.prm

>  <SCORE>
-9.01196

>  <SCORE.INTER>
0.12084

>  <SCORE.INTER.CONST>
1

>  <SCORE.INTER.POLAR>
0

>  <SCORE.INTER.ROT>
9

>  <SCORE.INTER.SOLV>
21.6503

>  <SCORE.INTER.VDW>
-16.7362

>  <SCORE.INTER.norm>
0.00287715

>  <SCORE.INTRA>
-9.1328

>  <SCORE.INTRA.DIHEDRAL>
-11.4791

>  <SCORE.INTRA.DIHEDRAL.0>
16.2863

>  <SCORE.INTRA.POLAR>
0

>  <SCORE.INTRA.POLAR.0>
0

>  <SCORE.INTRA.REPUL>
-0.314433

>  <SCORE.INTRA.REPUL.0>
0.314433

>  <SCORE.INTRA.SOLV>
-3.01684

>  <SCORE.INTRA.SOLV.lig_0>
-103.824

>  <SCORE.INTRA.VDW>
-0.312676

>  <SCORE.INTRA.VDW.0>
-5.30945

>  <SCORE.INTRA.norm>
-0.217448

>  <SCORE.RESTR>
0

>  <SCORE.RESTR.CAVITY>
0

>  <SCORE.RESTR.norm>
0

>  <SCORE.SYSTEM>
0

>  <SCORE.SYSTEM.CONST>
0

>  <SCORE.SYSTEM.DIHEDRAL>
0

>  <SCORE.SYSTEM.SOLV>
0

>  <SCORE.SYSTEM.norm>
0

>  <SCORE.heavy>
42

>  <SCORE.norm>
-0.21457

>  <RMSD>
4.244

$$$$
lig.pdb
 OpenBabel11021811513D
libRbt.so/2013.1/901 2013/11/27
 42 45  0  0  0  0  0  0  0  0999 V2000
   -0.2349   17.9798   37.5525 C   0  0  2  0  0  0  0  0  0  0  0  0
   -1.0605   16.9780   36.8802 O   0  0  0  0  0  0  0  0  0  0  0  0
    1.2768   17.6137   37.2049 C   0  0  2  0  0  0  0  0  0  0  0  0
    1.5026   17.7028   35.7597 N   0  0  0  0  0  0  0  0  0  0  0  0
    1.5994   16.1493   37.7804 C   0  0  1  0  0  0  0  0  0  0  0  0
    2.9638   15.7697   37.5030 O   0  0  0  0  0  0  0  0  0  0  0  0
    1.3172   16.1828   39.2923 C   0  0  2  0  0  0  0  0  0  0  0  0
    1.5840   14.9301   39.8244 O   0  0  0  0  0  0  0  0  0  0  0  0
   -0.2013   16.6007   39.5529 C   0  0  2  0  0  0  0  0  0  0  0  0
   -0.4860   17.8945   39.0062 O   0  0  0  0  0  0  0  0  0  0  0  0
   -0.5242   16.6670   41.0187 C   0  0  0  0  0  0  0  0  0  0  0  0
   -0.4511   15.3386   41.5379 O   0  0  0  0  0  0  0  0  0  0  0  0
   -3.6048   17.3960   33.2575 C   0  0  2  0  0  0  0  0  0  0  0  0
   -4.0060   17.6234   31.8862 N   0  0  0  0  0  0  0  0  0  0  0  0
   -2.7955   18.6365   33.8005 C   0  0  0  0  0  0  0  0  0  0  0  0
   -2.3445   18.4127   35.2867 C   0  0  2  0  0  0  0  0  0  0  0  0
   -1.5938   19.5786   35.7480 N   0  0  0  0  0  0  0  0  0  0  0  0
   -1.4332   17.1170   35.4575 C   0  0  2  0  0  0  0  0  0  0  0  0
   -2.2583   15.8978   34.9530 C   0  0  2  0  0  0  0  0  0  0  0  0
   -1.3340   14.7201   35.1571 O   0  0  0  0  0  0  0  0  0  0  0  0
   -2.6652   16.1063   33.3915 C   0  0  1  0  0  0  0  0  0  0  0  0
   -3.4938   15.0427   32.8220 O   0  0  0  0  0  0  0  0  0  0  0  0
   -1.9835   13.5327   34.9440 C   0  0  1  0  0  0  0  0  0  0  0  0
   -1.1496   12.3609   35.2316 C   0  0  2  0  0  0  0  0  0  0  0  0
   -0.2089   12.2596   34.2111 O   0  0  0  0  0  0  0  0  0  0  0  0
   -2.2230   11.2648   35.4043 C   0  0  2  0  0  0  0  0  0  0  0  0
   -1.9711   10.2704   34.3858 O   0  0  0  0  0  0  0  0  0  0  0  0
   -3.5250   11.9688   35.2070 C   0  0  2  0  0  0  0  0  0  0  0  0
   -3.1172   13.2731   35.7551 O   0  0  0  0  0  0  0  0  0  0  0  0
   -4.6685   11.3407   36.0858 C   0  0  0  0  0  0  0  0  0  0  0  0
   -5.1210   10.0365   35.6130 O   0  0  0  0  0  0  0  0  0  0  0  0
   -2.6940    9.0076   34.5029 C   0  0  2  0  0  0  0  0  0  0  0  0
   -2.1859    8.2471   35.8361 C   0  0  2  0  0  0  0  0  0  0  0  0
   -0.7052    8.0316   35.7466 N   0  0  0  0  0  0  0  0  0  0  0  0
   -2.9890    6.8601   35.9595 C   0  0  1  0  0  0  0  0  0  0  0  0
   -4.4102    7.1866   36.0314 O   0  0  0  0  0  0  0  0  0  0  0  0
   -2.6727    5.9490   34.6890 C   0  0  2  0  0  0  0  0  0  0  0  0
   -1.2231    5.6509   34.6938 O   0  0  0  0  0  0  0  0  0  0  0  0
   -3.1404    6.7599   33.3528 C   0  0  1  0  0  0  0  0  0  0  0  0
   -2.4296    8.0887   33.2925 O   0  0  0  0  0  0  0  0  0  0  0  0
   -2.8280    5.9006   32.0828 C   0  0  0  0  0  0  0  0  0  0  0  0
   -3.2948    6.5457   30.8166 N   0  0  0  0  0  0  0  0  0  0  0  0
  1  3  1  0  0  0  0
  1  2  1  6  0  0  0
  3  4  1  6  0  0  0
  3  5  1  0  0  0  0
  5  6  1  1  0  0  0
  7  8  1  6  0  0  0
  7  5  1  0  0  0  0
  9 11  1  1  0  0  0
  9  7  1  0  0  0  0
 10  9  1  0  0  0  0
 10  1  1  0  0  0  0
 12 11  1  0  0  0  0
 13 14  1  6  0  0  0
 15 13  1  0  0  0  0
 16 17  1  6  0  0  0
 16 15  1  0  0  0  0
 18  2  1  1  0  0  0
 18 19  1  0  0  0  0
 18 16  1  0  0  0  0
 19 20  1  6  0  0  0
 19 21  1  0  0  0  0
 21 22  1  1  0  0  0
 21 13  1  0  0  0  0
 23 20  1  1  0  0  0
 23 29  1  0  0  0  0
 24 25  1  6  0  0  0
 24 26  1  0  0  0  0
 24 23  1  0  0  0  0
 26 27  1  6  0  0  0
 26 28  1  0  0  0  0
 28 30  1  1  0  0  0
 29 28  1  0  0  0  0
 30 31  1  0  0  0  0
 32 27  1  6  0  0  0
 32 40  1  0  0  0  0
 33 35  1  0  0  0  0
 33 32  1  0  0  0  0
 33 34  1  6  0  0  0
 35 36  1  6  0  0  0
 35 37  1  0  0  0  0
 37 38  1  6  0  0  0
 37 39  1  0  0  0  0
 39 41  1  6  0  0  0
 40 39  1  0  0  0  0
 41 42  1  0  0  0  0
M  END
>  <CHROM.1>
-83.42617691,-66.91559053,-64.01610600,171.02476041,-175.59574536,168.56047658
-72.37963320,-65.83600700,176.95936543,-1.67751718,13.17892403,35.70139992
-1.12933804,1.00809802,3.06084392

>  <Name>
lig.pdb

>  <RI>
0

>  <Rbt.Current_Directory>
/home/itssahil/PROJECTS/Mol_Feturizer/New_Systems/rnas/4wcr

>  <Rbt.Executable>
rbdock ($Id: //depot/dev/client3/rdock/2013.1/src/exe/rbdock.cxx#4 $)

>  <Rbt.Library>
libRbt.so (2013.1, Build901 2013/11/27)

>  <Rbt.Parameter_File>
/export/apps/rDock/src/rDock_2013.1_src/data/scripts/dock_solv.prm

>  <Rbt.Receptor>
prm/pocket_docking_5.prm

>  <SCORE>
-8.59307

>  <SCORE.INTER>
-2.2595

>  <SCORE.INTER.CONST>
1

>  <SCORE.INTER.POLAR>
0

>  <SCORE.INTER.ROT>
9

>  <SCORE.INTER.SOLV>
27.8512

>  <SCORE.INTER.VDW>
-20.3901

>  <SCORE.INTER.norm>
-0.0537976

>  <SCORE.INTRA>
-6.33358

>  <SCORE.INTRA.DIHEDRAL>
-11.3105

>  <SCORE.INTRA.DIHEDRAL.0>
16.2863

>  <SCORE.INTRA.POLAR>
0

>  <SCORE.INTRA.POLAR.0>
0

>  <SCORE.INTRA.REPUL>
-0.314433

>  <SCORE.INTRA.REPUL.0>
0.314433

>  <SCORE.INTRA.SOLV>
-1.3452

>  <SCORE.INTRA.SOLV.lig_0>
-103.824

>  <SCORE.INTRA.VDW>
1.56645

>  <SCORE.INTRA.VDW.0>
-5.30945

>  <SCORE.INTRA.norm>
-0.150799

>  <SCORE.RESTR>
0

>  <SCORE.RESTR.CAVITY>
0

>  <SCORE.RESTR.norm>
0

>  <SCORE.SYSTEM>
0

>  <SCORE.SYSTEM.CONST>
0

>  <SCORE.SYSTEM.DIHEDRAL>
0

>  <SCORE.SYSTEM.SOLV>
0

>  <SCORE.SYSTEM.norm>
0

>  <SCORE.heavy>
42

>  <SCORE.norm>
-0.204597

>  <RMSD>
4.292

$$$$
lig.pdb
 OpenBabel11021811513D
libRbt.so/2013.1/901 2013/11/27
 42 45  0  0  0  0  0  0  0  0999 V2000
   -0.1885   17.5720   35.3230 C   0  0  2  0  0  0  0  0  0  0  0  0
   -0.6092   17.7227   36.7150 O   0  0  0  0  0  0  0  0  0  0  0  0
    0.4130   18.9820   34.8869 C   0  0  2  0  0  0  0  0  0  0  0  0
    1.5835   19.3109   35.7051 N   0  0  0  0  0  0  0  0  0  0  0  0
   -0.7403   20.0939   35.0027 C   0  0  1  0  0  0  0  0  0  0  0  0
   -0.2523   21.3933   34.6076 O   0  0  0  0  0  0  0  0  0  0  0  0
   -1.9073   19.6327   34.1130 C   0  0  2  0  0  0  0  0  0  0  0  0
   -2.9257   20.5710   34.1900 O   0  0  0  0  0  0  0  0  0  0  0  0
   -2.4186   18.1969   34.5878 C   0  0  2  0  0  0  0  0  0  0  0  0
   -1.3724   17.2206   34.5114 O   0  0  0  0  0  0  0  0  0  0  0  0
   -3.5488   17.6911   33.7368 C   0  0  0  0  0  0  0  0  0  0  0  0
   -3.0757   17.6135   32.3915 O   0  0  0  0  0  0  0  0  0  0  0  0
   -1.5459   14.8157   39.9468 C   0  0  2  0  0  0  0  0  0  0  0  0
   -2.2354   13.8083   40.7232 N   0  0  0  0  0  0  0  0  0  0  0  0
   -2.4903   16.0556   39.7030 C   0  0  0  0  0  0  0  0  0  0  0  0
   -1.7663   17.1622   38.8581 C   0  0  2  0  0  0  0  0  0  0  0  0
   -2.6755   18.2871   38.6493 N   0  0  0  0  0  0  0  0  0  0  0  0
   -1.2826   16.6247   37.4384 C   0  0  2  0  0  0  0  0  0  0  0  0
   -0.3233   15.4269   37.6963 C   0  0  2  0  0  0  0  0  0  0  0  0
    0.0935   14.9867   36.3124 O   0  0  0  0  0  0  0  0  0  0  0  0
   -1.1007   14.2548   38.5145 C   0  0  1  0  0  0  0  0  0  0  0  0
   -0.2781   13.0956   38.8633 O   0  0  0  0  0  0  0  0  0  0  0  0
    0.2261   13.6249   36.2402 C   0  0  1  0  0  0  0  0  0  0  0  0
   -0.1126   13.0828   34.9202 C   0  0  2  0  0  0  0  0  0  0  0  0
   -1.4955   13.1560   34.7832 O   0  0  0  0  0  0  0  0  0  0  0  0
    0.5866   11.7074   34.9730 C   0  0  2  0  0  0  0  0  0  0  0  0
   -0.4478   10.7080   34.8289 O   0  0  0  0  0  0  0  0  0  0  0  0
    1.2430   11.6623   36.3135 C   0  0  2  0  0  0  0  0  0  0  0  0
    1.5304   13.1017   36.4294 O   0  0  0  0  0  0  0  0  0  0  0  0
    2.5829   10.8389   36.2811 C   0  0  0  0  0  0  0  0  0  0  0  0
    3.1604   10.6083   37.6011 O   0  0  0  0  0  0  0  0  0  0  0  0
   -0.0731    9.4601   34.1706 C   0  0  2  0  0  0  0  0  0  0  0  0
    0.2654    9.7784   32.6219 C   0  0  2  0  0  0  0  0  0  0  0  0
   -0.9312   10.4083   31.9754 N   0  0  0  0  0  0  0  0  0  0  0  0
    0.6804    8.4005   31.9056 C   0  0  1  0  0  0  0  0  0  0  0  0
    1.8424    7.8748   32.6164 O   0  0  0  0  0  0  0  0  0  0  0  0
   -0.5431    7.3791   31.9709 C   0  0  2  0  0  0  0  0  0  0  0  0
   -1.6715    7.9738   31.2204 O   0  0  0  0  0  0  0  0  0  0  0  0
   -0.9040    7.1177   33.5404 C   0  0  1  0  0  0  0  0  0  0  0  0
   -1.2208    8.4304   34.2122 O   0  0  0  0  0  0  0  0  0  0  0  0
   -2.1145    6.1313   33.6420 C   0  0  0  0  0  0  0  0  0  0  0  0
   -1.7849    4.7562   33.1542 N   0  0  0  0  0  0  0  0  0  0  0  0
  1  3  1  0  0  0  0
  1  2  1  1  0  0  0
  3  4  1  1  0  0  0
  3  5  1  0  0  0  0
  5  6  1  6  0  0  0
  7  8  1  1  0  0  0
  7  5  1  0  0  0  0
  9 11  1  6  0  0  0
  9  7  1  0  0  0  0
 10  9  1  0  0  0  0
 10  1  1  0  0  0  0
 12 11  1  0  0  0  0
 13 14  1  6  0  0  0
 15 13  1  0  0  0  0
 16 17  1  6  0  0  0
 16 15  1  0  0  0  0
 18  2  1  1  0  0  0
 18 19  1  0  0  0  0
 18 16  1  0  0  0  0
 19 20  1  6  0  0  0
 19 21  1  0  0  0  0
 21 22  1  1  0  0  0
 21 13  1  0  0  0  0
 23 20  1  6  0  0  0
 23 29  1  0  0  0  0
 24 25  1  1  0  0  0
 24 26  1  0  0  0  0
 24 23  1  0  0  0  0
 26 27  1  1  0  0  0
 26 28  1  0  0  0  0
 28 30  1  6  0  0  0
 29 28  1  0  0  0  0
 30 31  1  0  0  0  0
 32 27  1  1  0  0  0
 32 40  1  0  0  0  0
 33 35  1  0  0  0  0
 33 32  1  0  0  0  0
 33 34  1  6  0  0  0
 35 36  1  1  0  0  0
 35 37  1  0  0  0  0
 37 38  1  6  0  0  0
 37 39  1  0  0  0  0
 39 41  1  6  0  0  0
 40 39  1  0  0  0  0
 41 42  1  0  0  0  0
M  END
>  <CHROM.1>
176.88358636,59.30078889,-173.12854235,-143.64770267,147.86995034,148.99165558
-171.82016519,-66.74178675,66.59977860,-0.65927953,13.73191724,35.35664683
2.03324567,-1.34753823,0.69021982

>  <Name>
lig.pdb

>  <RI>
0

>  <Rbt.Current_Directory>
/home/itssahil/PROJECTS/Mol_Feturizer/New_Systems/rnas/4wcr

>  <Rbt.Executable>
rbdock ($Id: //depot/dev/client3/rdock/2013.1/src/exe/rbdock.cxx#4 $)

>  <Rbt.Library>
libRbt.so (2013.1, Build901 2013/11/27)

>  <Rbt.Parameter_File>
/export/apps/rDock/src/rDock_2013.1_src/data/scripts/dock_solv.prm

>  <Rbt.Receptor>
prm/pocket_docking_6.prm

>  <SCORE>
-9.20603

>  <SCORE.INTER>
-7.29109

>  <SCORE.INTER.CONST>
1

>  <SCORE.INTER.POLAR>
0

>  <SCORE.INTER.ROT>
9

>  <SCORE.INTER.SOLV>
24.328

>  <SCORE.INTER.VDW>
-22.5701

>  <SCORE.INTER.norm>
-0.173597

>  <SCORE.INTRA>
-1.91494

>  <SCORE.INTRA.DIHEDRAL>
-2.48461

>  <SCORE.INTRA.DIHEDRAL.0>
16.2863

>  <SCORE.INTRA.POLAR>
0

>  <SCORE.INTRA.POLAR.0>
0

>  <SCORE.INTRA.REPUL>
-0.314433

>  <SCORE.INTRA.REPUL.0>
0.314433

>  <SCORE.INTRA.SOLV>
-4.54903

>  <SCORE.INTRA.SOLV.lig_0>
-103.824

>  <SCORE.INTRA.VDW>
3.17405

>  <SCORE.INTRA.VDW.0>
-5.30945

>  <SCORE.INTRA.norm>
-0.0455938

>  <SCORE.RESTR>
0

>  <SCORE.RESTR.CAVITY>
0

>  <SCORE.RESTR.norm>
0

>  <SCORE.SYSTEM>
0

>  <SCORE.SYSTEM.CONST>
0

>  <SCORE.SYSTEM.DIHEDRAL>
0

>  <SCORE.SYSTEM.SOLV>
0

>  <SCORE.SYSTEM.norm>
0

>  <SCORE.heavy>
42

>  <SCORE.norm>
-0.219191

>  <RMSD>
4.305

$$$$
lig.pdb
 OpenBabel11021811513D
libRbt.so/2013.1/901 2013/11/27
 42 45  0  0  0  0  0  0  0  0999 V2000
   -0.7787   15.1953   36.0380 C   0  0  2  0  0  0  0  0  0  0  0  0
   -2.0051   15.9421   35.7635 O   0  0  0  0  0  0  0  0  0  0  0  0
   -0.9086   14.6651   37.5353 C   0  0  2  0  0  0  0  0  0  0  0  0
   -2.0546   13.7598   37.6569 N   0  0  0  0  0  0  0  0  0  0  0  0
   -1.0246   15.9270   38.5221 C   0  0  1  0  0  0  0  0  0  0  0  0
   -1.1338   15.5041   39.8976 O   0  0  0  0  0  0  0  0  0  0  0  0
    0.2228   16.7979   38.2948 C   0  0  2  0  0  0  0  0  0  0  0  0
    0.1556   17.9017   39.1319 O   0  0  0  0  0  0  0  0  0  0  0  0
    0.3009   17.2472   36.7650 C   0  0  2  0  0  0  0  0  0  0  0  0
    0.3707   16.1126   35.8924 O   0  0  0  0  0  0  0  0  0  0  0  0
    1.5150   18.0867   36.4852 C   0  0  0  0  0  0  0  0  0  0  0  0
    1.3266   18.7090   35.2135 O   0  0  0  0  0  0  0  0  0  0  0  0
   -4.5654   17.0418   32.2982 C   0  0  2  0  0  0  0  0  0  0  0  0
   -4.9696   17.4964   30.9856 N   0  0  0  0  0  0  0  0  0  0  0  0
   -3.6817   18.1403   33.0062 C   0  0  0  0  0  0  0  0  0  0  0  0
   -3.2261   17.6691   34.4319 C   0  0  2  0  0  0  0  0  0  0  0  0
   -2.4061   18.7096   35.0490 N   0  0  0  0  0  0  0  0  0  0  0  0
   -2.3865   16.3158   34.3861 C   0  0  2  0  0  0  0  0  0  0  0  0
   -3.2842   15.2333   33.7197 C   0  0  2  0  0  0  0  0  0  0  0  0
   -2.4247   13.9908   33.7244 O   0  0  0  0  0  0  0  0  0  0  0  0
   -3.6976   15.6985   32.2163 C   0  0  1  0  0  0  0  0  0  0  0  0
   -4.5910   14.7797   31.5094 O   0  0  0  0  0  0  0  0  0  0  0  0
   -3.1293   12.8944   33.3015 C   0  0  1  0  0  0  0  0  0  0  0  0
   -2.3409   11.6580   33.3286 C   0  0  2  0  0  0  0  0  0  0  0  0
   -1.4275   11.7244   32.2807 O   0  0  0  0  0  0  0  0  0  0  0  0
   -3.4567   10.5912   33.3143 C   0  0  2  0  0  0  0  0  0  0  0  0
   -3.2699    9.8086   32.1133 O   0  0  0  0  0  0  0  0  0  0  0  0
   -4.7310   11.3694   33.2977 C   0  0  2  0  0  0  0  0  0  0  0  0
   -4.2555   12.5232   34.0790 O   0  0  0  0  0  0  0  0  0  0  0  0
   -5.8815   10.6242   34.0694 C   0  0  0  0  0  0  0  0  0  0  0  0
   -5.6642   10.5448   35.5101 O   0  0  0  0  0  0  0  0  0  0  0  0
   -2.2978    8.7214   32.1782 C   0  0  2  0  0  0  0  0  0  0  0  0
   -2.1536    8.0733   30.7040 C   0  0  2  0  0  0  0  0  0  0  0  0
   -3.4959    7.5897   30.2448 N   0  0  0  0  0  0  0  0  0  0  0  0
   -1.0793    6.8802   30.7834 C   0  0  1  0  0  0  0  0  0  0  0  0
    0.1789    7.4592   31.2453 O   0  0  0  0  0  0  0  0  0  0  0  0
   -1.6019    5.7620   31.7938 C   0  0  2  0  0  0  0  0  0  0  0  0
   -2.8664    5.2161   31.2522 O   0  0  0  0  0  0  0  0  0  0  0  0
   -1.7950    6.4516   33.2597 C   0  0  1  0  0  0  0  0  0  0  0  0
   -2.7510    7.6131   33.1506 O   0  0  0  0  0  0  0  0  0  0  0  0
   -2.3249    5.3848   34.2745 C   0  0  0  0  0  0  0  0  0  0  0  0
   -1.3664    4.2556   34.4826 N   0  0  0  0  0  0  0  0  0  0  0  0
  1  3  1  0  0  0  0
  1  2  1  1  0  0  0
  3  4  1  6  0  0  0
  3  5  1  0  0  0  0
  5  6  1  1  0  0  0
  7  8  1  1  0  0  0
  7  5  1  0  0  0  0
  9 11  1  1  0  0  0
  9  7  1  0  0  0  0
 10  9  1  0  0  0  0
 10  1  1  0  0  0  0
 12 11  1  0  0  0  0
 13 14  1  6  0  0  0
 15 13  1  0  0  0  0
 16 17  1  6  0  0  0
 16 15  1  0  0  0  0
 18  2  1  1  0  0  0
 18 19  1  0  0  0  0
 18 16  1  0  0  0  0
 19 20  1  6  0  0  0
 19 21  1  0  0  0  0
 21 22  1  1  0  0  0
 21 13  1  0  0  0  0
 23 20  1  1  0  0  0
 23 29  1  0  0  0  0
 24 25  1  6  0  0  0
 24 26  1  0  0  0  0
 24 23  1  0  0  0  0
 26 27  1  6  0  0  0
 26 28  1  0  0  0  0
 28 30  1  1  0  0  0
 29 28  1  0  0  0  0
 30 31  1  0  0  0  0
 32 27  1  6  0  0  0
 32 40  1  0  0  0  0
 33 35  1  0  0  0  0
 33 32  1  0  0  0  0
 33 34  1  1  0  0  0
 35 36  1  1  0  0  0
 35 37  1  0  0  0  0
 37 38  1  6  0  0  0
 37 39  1  0  0  0  0
 39 41  1  1  0  0  0
 40 39  1  0  0  0  0
 41 42  1  0  0  0  0
M  END
>  <CHROM.1>
-165.62087968,-165.64877256,-150.34760813,173.18964541,-178.31956814,83.44233650
68.21153485,-174.96070554,62.59953981,-2.25160831,12.75793463,34.13726052
-1.38178215,0.93186501,-2.93206923

>  <Name>
lig.pdb

>  <RI>
0

>  <Rbt.Current_Directory>
/home/itssahil/PROJECTS/Mol_Feturizer/New_Systems/rnas/4wcr

>  <Rbt.Executable>
rbdock ($Id: //depot/dev/client3/rdock/2013.1/src/exe/rbdock.cxx#4 $)

>  <Rbt.Library>
libRbt.so (2013.1, Build901 2013/11/27)

>  <Rbt.Parameter_File>
/export/apps/rDock/src/rDock_2013.1_src/data/scripts/dock_solv.prm

>  <Rbt.Receptor>
prm/pocket_docking_6.prm

>  <SCORE>
-15.9632

>  <SCORE.INTER>
-9.1646

>  <SCORE.INTER.CONST>
1

>  <SCORE.INTER.POLAR>
0

>  <SCORE.INTER.ROT>
9

>  <SCORE.INTER.SOLV>
25.3286

>  <SCORE.INTER.VDW>
-24.1526

>  <SCORE.INTER.norm>
-0.218205

>  <SCORE.INTRA>
-6.79859

>  <SCORE.INTRA.DIHEDRAL>
-7.63405

>  <SCORE.INTRA.DIHEDRAL.0>
16.2863

>  <SCORE.INTRA.POLAR>
0

>  <SCORE.INTRA.POLAR.0>
0

>  <SCORE.INTRA.REPUL>
-0.314433

>  <SCORE.INTRA.REPUL.0>
0.314433

>  <SCORE.INTRA.SOLV>
-4.00003

>  <SCORE.INTRA.SOLV.lig_0>
-103.824

>  <SCORE.INTRA.VDW>
0.590612

>  <SCORE.INTRA.VDW.0>
-5.30945

>  <SCORE.INTRA.norm>
-0.161871

>  <SCORE.RESTR>
0

>  <SCORE.RESTR.CAVITY>
0

>  <SCORE.RESTR.norm>
0

>  <SCORE.SYSTEM>
0

>  <SCORE.SYSTEM.CONST>
0

>  <SCORE.SYSTEM.DIHEDRAL>
0

>  <SCORE.SYSTEM.SOLV>
0

>  <SCORE.SYSTEM.norm>
0

>  <SCORE.heavy>
42

>  <SCORE.norm>
-0.380076

>  <RMSD>
4.339

$$$$
lig.pdb
 OpenBabel11021811513D
libRbt.so/2013.1/901 2013/11/27
 42 45  0  0  0  0  0  0  0  0999 V2000
   -0.6020   17.7498   38.3616 C   0  0  2  0  0  0  0  0  0  0  0  0
   -0.3847   16.3206   38.1442 O   0  0  0  0  0  0  0  0  0  0  0  0
   -2.0568   18.0681   37.7938 C   0  0  2  0  0  0  0  0  0  0  0  0
   -3.0696   17.3139   38.5376 N   0  0  0  0  0  0  0  0  0  0  0  0
   -2.0830   17.7336   36.2231 C   0  0  1  0  0  0  0  0  0  0  0  0
   -3.3783   18.0149   35.6524 O   0  0  0  0  0  0  0  0  0  0  0  0
   -0.9779   18.5741   35.5609 C   0  0  2  0  0  0  0  0  0  0  0  0
   -0.9699   18.3087   34.1996 O   0  0  0  0  0  0  0  0  0  0  0  0
    0.4356   18.2277   36.2170 C   0  0  2  0  0  0  0  0  0  0  0  0
    0.4365   18.4990   37.6242 O   0  0  0  0  0  0  0  0  0  0  0  0
    1.5495   19.0378   35.6170 C   0  0  0  0  0  0  0  0  0  0  0  0
    1.3169   20.4067   35.9511 O   0  0  0  0  0  0  0  0  0  0  0  0
   -1.4040   12.5443   40.2593 C   0  0  2  0  0  0  0  0  0  0  0  0
   -2.1326   11.5650   41.0358 N   0  0  0  0  0  0  0  0  0  0  0  0
   -1.2700   13.8911   41.0699 C   0  0  0  0  0  0  0  0  0  0  0  0
   -0.4862   14.9728   40.2464 C   0  0  2  0  0  0  0  0  0  0  0  0
   -0.3908   16.2040   41.0280 N   0  0  0  0  0  0  0  0  0  0  0  0
   -1.1869   15.3035   38.8543 C   0  0  2  0  0  0  0  0  0  0  0  0
   -1.2779   13.9735   38.0514 C   0  0  2  0  0  0  0  0  0  0  0  0
   -1.9389   14.3736   36.7531 O   0  0  0  0  0  0  0  0  0  0  0  0
   -2.1490   12.8783   38.8817 C   0  0  1  0  0  0  0  0  0  0  0  0
   -2.2563   11.5644   38.2460 O   0  0  0  0  0  0  0  0  0  0  0  0
   -2.0217   13.3147   35.8876 C   0  0  1  0  0  0  0  0  0  0  0  0
   -2.6126   13.6734   34.5941 C   0  0  2  0  0  0  0  0  0  0  0  0
   -3.9749   13.8699   34.7997 O   0  0  0  0  0  0  0  0  0  0  0  0
   -2.1256   12.5064   33.7086 C   0  0  2  0  0  0  0  0  0  0  0  0
   -3.3072   11.8294   33.2239 O   0  0  0  0  0  0  0  0  0  0  0  0
   -1.3081   11.6500   34.6186 C   0  0  2  0  0  0  0  0  0  0  0  0
   -0.7965   12.7283   35.4807 O   0  0  0  0  0  0  0  0  0  0  0  0
   -0.1227   10.9516   33.8561 C   0  0  0  0  0  0  0  0  0  0  0  0
    0.5947    9.9698   34.6628 O   0  0  0  0  0  0  0  0  0  0  0  0
   -3.1084   10.7998   32.2083 C   0  0  2  0  0  0  0  0  0  0  0  0
   -4.5524   10.3783   31.6154 C   0  0  2  0  0  0  0  0  0  0  0  0
   -5.4219    9.8916   32.7351 N   0  0  0  0  0  0  0  0  0  0  0  0
   -4.3244    9.2475   30.4958 C   0  0  1  0  0  0  0  0  0  0  0  0
   -3.4640    9.8234   29.4664 O   0  0  0  0  0  0  0  0  0  0  0  0
   -3.6436    7.9690   31.1640 C   0  0  2  0  0  0  0  0  0  0  0  0
   -4.5776    7.4370   32.1813 O   0  0  0  0  0  0  0  0  0  0  0  0
   -2.2161    8.4301   31.8054 C   0  0  1  0  0  0  0  0  0  0  0  0
   -2.4434    9.5404   32.8005 O   0  0  0  0  0  0  0  0  0  0  0  0
   -1.5269    7.2013   32.4864 C   0  0  0  0  0  0  0  0  0  0  0  0
   -2.3440    6.6187   33.5954 N   0  0  0  0  0  0  0  0  0  0  0  0
  1  3  1  0  0  0  0
  1  2  1  6  0  0  0
  3  4  1  1  0  0  0
  3  5  1  0  0  0  0
  5  6  1  6  0  0  0
  7  8  1  6  0  0  0
  7  5  1  0  0  0  0
  9 11  1  6  0  0  0
  9  7  1  0  0  0  0
 10  9  1  0  0  0  0
 10  1  1  0  0  0  0
 12 11  1  0  0  0  0
 13 14  1  1  0  0  0
 15 13  1  0  0  0  0
 16 17  1  1  0  0  0
 16 15  1  0  0  0  0
 18  2  1  6  0  0  0
 18 19  1  0  0  0  0
 18 16  1  0  0  0  0
 19 20  1  6  0  0  0
 19 21  1  0  0  0  0
 21 22  1  6  0  0  0
 21 13  1  0  0  0  0
 23 20  1  1  0  0  0
 23 29  1  0  0  0  0
 24 25  1  1  0  0  0
 24 26  1  0  0  0  0
 24 23  1  0  0  0  0
 26 27  1  1  0  0  0
 26 28  1  0  0  0  0
 28 30  1  6  0  0  0
 29 28  1  0  0  0  0
 30 31  1  0  0  0  0
 32 27  1  1  0  0  0
 32 40  1  0  0  0  0
 33 35  1  0  0  0  0
 33 32  1  0  0  0  0
 33 34  1  1  0  0  0
 35 36  1  6  0  0  0
 35 37  1  0  0  0  0
 37 38  1  1  0  0  0
 37 39  1  0  0  0  0
 39 41  1  1  0  0  0
 40 39  1  0  0  0  0
 41 42  1  0  0  0  0
M  END
>  <CHROM.1>
-66.13520502,65.26650685,-87.83713086,176.33486340,-177.84186090,171.56317664
-172.34659198,-169.47890634,-60.59925092,-1.84009747,13.42430707,35.58063598
0.06968408,-1.33262036,-0.90456172

>  <Name>
lig.pdb

>  <RI>
0

>  <Rbt.Current_Directory>
/home/itssahil/PROJECTS/Mol_Feturizer/New_Systems/rnas/4wcr

>  <Rbt.Executable>
rbdock ($Id: //depot/dev/client3/rdock/2013.1/src/exe/rbdock.cxx#4 $)

>  <Rbt.Library>
libRbt.so (2013.1, Build901 2013/11/27)

>  <Rbt.Parameter_File>
/export/apps/rDock/src/rDock_2013.1_src/data/scripts/dock_solv.prm

>  <Rbt.Receptor>
prm/pocket_docking_7.prm

>  <SCORE>
-6.22177

>  <SCORE.INTER>
0.158426

>  <SCORE.INTER.CONST>
1

>  <SCORE.INTER.POLAR>
0

>  <SCORE.INTER.ROT>
9

>  <SCORE.INTER.SOLV>
12.3648

>  <SCORE.INTER.VDW>
-13.616

>  <SCORE.INTER.norm>
0.00377205

>  <SCORE.INTRA>
-6.3802

>  <SCORE.INTRA.DIHEDRAL>
-11.1547

>  <SCORE.INTRA.DIHEDRAL.0>
16.2863

>  <SCORE.INTRA.POLAR>
0

>  <SCORE.INTRA.POLAR.0>
0

>  <SCORE.INTRA.REPUL>
-0.314433

>  <SCORE.INTRA.REPUL.0>
0.314433

>  <SCORE.INTRA.SOLV>
-0.289826

>  <SCORE.INTRA.SOLV.lig_0>
-103.824

>  <SCORE.INTRA.VDW>
0.914228

>  <SCORE.INTRA.VDW.0>
-5.30945

>  <SCORE.INTRA.norm>
-0.151909

>  <SCORE.RESTR>
0

>  <SCORE.RESTR.CAVITY>
0

>  <SCORE.RESTR.norm>
0

>  <SCORE.SYSTEM>
0

>  <SCORE.SYSTEM.CONST>
0

>  <SCORE.SYSTEM.DIHEDRAL>
0

>  <SCORE.SYSTEM.SOLV>
0

>  <SCORE.SYSTEM.norm>
0

>  <SCORE.heavy>
42

>  <SCORE.norm>
-0.148137

>  <RMSD>
4.381

$$$$
lig.pdb
 OpenBabel11021811513D
libRbt.so/2013.1/901 2013/11/27
 42 45  0  0  0  0  0  0  0  0999 V2000
   -2.8022   17.7017   35.7301 C   0  0  2  0  0  0  0  0  0  0  0  0
   -1.3975   17.3746   35.4918 O   0  0  0  0  0  0  0  0  0  0  0  0
   -3.5720   17.3618   34.3767 C   0  0  2  0  0  0  0  0  0  0  0  0
   -3.4609   15.9324   34.0731 N   0  0  0  0  0  0  0  0  0  0  0  0
   -2.9785   18.2800   33.2001 C   0  0  1  0  0  0  0  0  0  0  0  0
   -3.6494   18.0212   31.9488 O   0  0  0  0  0  0  0  0  0  0  0  0
   -3.1446   19.7450   33.6391 C   0  0  2  0  0  0  0  0  0  0  0  0
   -2.6394   20.5694   32.6447 O   0  0  0  0  0  0  0  0  0  0  0  0
   -2.3838   19.9879   35.0214 C   0  0  2  0  0  0  0  0  0  0  0  0
   -2.8996   19.1399   36.0551 O   0  0  0  0  0  0  0  0  0  0  0  0
   -2.5314   21.4027   35.5051 C   0  0  0  0  0  0  0  0  0  0  0  0
   -1.8332   22.2475   34.5894 O   0  0  0  0  0  0  0  0  0  0  0  0
    2.0733   15.5272   37.5687 C   0  0  2  0  0  0  0  0  0  0  0  0
    3.0111   15.1660   38.6095 N   0  0  0  0  0  0  0  0  0  0  0  0
    1.9680   17.0969   37.4520 C   0  0  0  0  0  0  0  0  0  0  0  0
    0.9523   17.5153   36.3313 C   0  0  2  0  0  0  0  0  0  0  0  0
    0.8791   18.9732   36.2610 N   0  0  0  0  0  0  0  0  0  0  0  0
   -0.5110   16.9413   36.5913 C   0  0  2  0  0  0  0  0  0  0  0  0
   -0.3965   15.3912   36.6664 C   0  0  2  0  0  0  0  0  0  0  0  0
   -1.8157   14.9299   36.9026 O   0  0  0  0  0  0  0  0  0  0  0  0
    0.6062   14.9630   37.8742 C   0  0  1  0  0  0  0  0  0  0  0  0
    0.8349   13.5234   38.0058 O   0  0  0  0  0  0  0  0  0  0  0  0
   -1.9101   13.5636   36.8628 C   0  0  1  0  0  0  0  0  0  0  0  0
   -3.2905   13.0788   36.9644 C   0  0  2  0  0  0  0  0  0  0  0  0
   -3.7020   13.2688   38.2802 O   0  0  0  0  0  0  0  0  0  0  0  0
   -3.1482   11.6496   36.3985 C   0  0  2  0  0  0  0  0  0  0  0  0
   -3.5358   10.7422   37.4549 O   0  0  0  0  0  0  0  0  0  0  0  0
   -1.7052   11.5227   36.0360 C   0  0  2  0  0  0  0  0  0  0  0  0
   -1.4801   12.9307   35.6690 O   0  0  0  0  0  0  0  0  0  0  0  0
   -1.4960   10.5923   34.7850 C   0  0  0  0  0  0  0  0  0  0  0  0
   -0.0949   10.4014   34.4250 O   0  0  0  0  0  0  0  0  0  0  0  0
   -3.4745    9.3149   37.1549 C   0  0  2  0  0  0  0  0  0  0  0  0
   -4.3675    8.5225   38.2453 C   0  0  2  0  0  0  0  0  0  0  0  0
   -3.8487    8.8228   39.6191 N   0  0  0  0  0  0  0  0  0  0  0  0
   -4.2977    6.9528   37.9059 C   0  0  1  0  0  0  0  0  0  0  0  0
   -4.8161    6.7782   36.5522 O   0  0  0  0  0  0  0  0  0  0  0  0
   -2.7862    6.4541   38.0107 C   0  0  2  0  0  0  0  0  0  0  0  0
   -2.3394    6.6497   39.4079 O   0  0  0  0  0  0  0  0  0  0  0  0
   -1.8943    7.3068   36.9433 C   0  0  1  0  0  0  0  0  0  0  0  0
   -2.0297    8.7805   37.2340 O   0  0  0  0  0  0  0  0  0  0  0  0
   -0.3988    6.8547   37.0315 C   0  0  0  0  0  0  0  0  0  0  0  0
    0.4767    7.5482   36.0366 N   0  0  0  0  0  0  0  0  0  0  0  0
  1  3  1  0  0  0  0
  1  2  1  6  0  0  0
  3  4  1  6  0  0  0
  3  5  1  0  0  0  0
  5  6  1  6  0  0  0
  7  8  1  6  0  0  0
  7  5  1  0  0  0  0
  9 11  1  1  0  0  0
  9  7  1  0  0  0  0
 10  9  1  0  0  0  0
 10  1  1  0  0  0  0
 12 11  1  0  0  0  0
 13 14  1  1  0  0  0
 15 13  1  0  0  0  0
 16 17  1  1  0  0  0
 16 15  1  0  0  0  0
 18  2  1  6  0  0  0
 18 19  1  0  0  0  0
 18 16  1  0  0  0  0
 19 20  1  1  0  0  0
 19 21  1  0  0  0  0
 21 22  1  6  0  0  0
 21 13  1  0  0  0  0
 23 20  1  6  0  0  0
 23 29  1  0  0  0  0
 24 25  1  1  0  0  0
 24 26  1  0  0  0  0
 24 23  1  0  0  0  0
 26 27  1  1  0  0  0
 26 28  1  0  0  0  0
 28 30  1  6  0  0  0
 29 28  1  0  0  0  0
 30 31  1  0  0  0  0
 32 27  1  1  0  0  0
 32 40  1  0  0  0  0
 33 35  1  0  0  0  0
 33 32  1  0  0  0  0
 33 34  1  1  0  0  0
 35 36  1  6  0  0  0
 35 37  1  0  0  0  0
 37 38  1  1  0  0  0
 37 39  1  0  0  0  0
 39 41  1  1  0  0  0
 40 39  1  0  0  0  0
 41 42  1  0  0  0  0
M  END
>  <CHROM.1>
-150.62655389,-66.96099738,-144.78670349,174.01217803,-174.70517100,-179.63545746
-177.90730322,-162.14485249,177.37800528,-1.81791495,13.80619791,36.30757158
1.49639474,-0.43354407,-0.25806914

>  <Name>
lig.pdb

>  <RI>
0

>  <Rbt.Current_Directory>
/home/itssahil/PROJECTS/Mol_Feturizer/New_Systems/rnas/4wcr

>  <Rbt.Executable>
rbdock ($Id: //depot/dev/client3/rdock/2013.1/src/exe/rbdock.cxx#4 $)

>  <Rbt.Library>
libRbt.so (2013.1, Build901 2013/11/27)

>  <Rbt.Parameter_File>
/export/apps/rDock/src/rDock_2013.1_src/data/scripts/dock_solv.prm

>  <Rbt.Receptor>
prm/pocket_docking_4.prm

>  <SCORE>
-8.24072

>  <SCORE.INTER>
-3.48755

>  <SCORE.INTER.CONST>
1

>  <SCORE.INTER.POLAR>
0

>  <SCORE.INTER.ROT>
9

>  <SCORE.INTER.SOLV>
25.7041

>  <SCORE.INTER.VDW>
-20.4931

>  <SCORE.INTER.norm>
-0.0830369

>  <SCORE.INTRA>
-4.85899

>  <SCORE.INTRA.DIHEDRAL>
-5.72062

>  <SCORE.INTRA.DIHEDRAL.0>
16.2863

>  <SCORE.INTRA.POLAR>
0

>  <SCORE.INTRA.POLAR.0>
0

>  <SCORE.INTRA.REPUL>
-0.314433

>  <SCORE.INTRA.REPUL.0>
0.314433

>  <SCORE.INTRA.SOLV>
-1.72396

>  <SCORE.INTRA.SOLV.lig_0>
-103.824

>  <SCORE.INTRA.VDW>
0.435466

>  <SCORE.INTRA.VDW.0>
-5.30945

>  <SCORE.INTRA.norm>
-0.11569

>  <SCORE.RESTR>
0.105816

>  <SCORE.RESTR.CAVITY>
0.105816

>  <SCORE.RESTR.norm>
0.00251942

>  <SCORE.SYSTEM>
0

>  <SCORE.SYSTEM.CONST>
0

>  <SCORE.SYSTEM.DIHEDRAL>
0

>  <SCORE.SYSTEM.SOLV>
0

>  <SCORE.SYSTEM.norm>
0

>  <SCORE.heavy>
42

>  <SCORE.norm>
-0.196208

>  <RMSD>
4.391

$$$$
lig.pdb
 OpenBabel11021811513D
libRbt.so/2013.1/901 2013/11/27
 42 45  0  0  0  0  0  0  0  0999 V2000
   -0.7573   15.3527   35.9540 C   0  0  2  0  0  0  0  0  0  0  0  0
   -1.9801   16.1124   35.6996 O   0  0  0  0  0  0  0  0  0  0  0  0
   -0.8802   14.8015   37.4443 C   0  0  2  0  0  0  0  0  0  0  0  0
   -2.0320   13.9030   37.5612 N   0  0  0  0  0  0  0  0  0  0  0  0
   -0.9797   16.0496   38.4504 C   0  0  1  0  0  0  0  0  0  0  0  0
   -1.0819   15.6074   39.8203 O   0  0  0  0  0  0  0  0  0  0  0  0
    0.2725   16.9147   38.2266 C   0  0  2  0  0  0  0  0  0  0  0  0
    0.2196   18.0065   39.0802 O   0  0  0  0  0  0  0  0  0  0  0  0
    0.3427   17.3858   36.7029 C   0  0  2  0  0  0  0  0  0  0  0  0
    0.3977   16.2636   35.8134 O   0  0  0  0  0  0  0  0  0  0  0  0
    1.5610   18.2204   36.4264 C   0  0  0  0  0  0  0  0  0  0  0  0
    1.3952   18.8135   35.1378 O   0  0  0  0  0  0  0  0  0  0  0  0
   -4.6116   17.1527   32.2695 C   0  0  2  0  0  0  0  0  0  0  0  0
   -5.0438   17.5968   30.9622 N   0  0  0  0  0  0  0  0  0  0  0  0
   -3.7414   18.2707   32.9636 C   0  0  0  0  0  0  0  0  0  0  0  0
   -3.2559   17.8112   34.3834 C   0  0  2  0  0  0  0  0  0  0  0  0
   -2.4495   18.8697   34.9876 N   0  0  0  0  0  0  0  0  0  0  0  0
   -2.3887   16.4759   34.3273 C   0  0  2  0  0  0  0  0  0  0  0  0
   -3.2727   15.3738   33.6749 C   0  0  2  0  0  0  0  0  0  0  0  0
   -2.3872   14.1496   33.6690 O   0  0  0  0  0  0  0  0  0  0  0  0
   -3.7169   15.8279   32.1770 C   0  0  1  0  0  0  0  0  0  0  0  0
   -4.6006   14.8894   31.4838 O   0  0  0  0  0  0  0  0  0  0  0  0
   -3.0614   13.0476   33.2126 C   0  0  1  0  0  0  0  0  0  0  0  0
   -2.2322   11.8383   33.1795 C   0  0  2  0  0  0  0  0  0  0  0  0
   -1.3375   11.9766   32.1226 O   0  0  0  0  0  0  0  0  0  0  0  0
   -3.3121   10.7360   33.1381 C   0  0  2  0  0  0  0  0  0  0  0  0
   -3.1178   10.0079   31.9045 O   0  0  0  0  0  0  0  0  0  0  0  0
   -4.6116   11.4708   33.1702 C   0  0  2  0  0  0  0  0  0  0  0  0
   -4.1629   12.6084   33.9901 O   0  0  0  0  0  0  0  0  0  0  0  0
   -5.7250   10.6576   33.9274 C   0  0  0  0  0  0  0  0  0  0  0  0
   -5.9935    9.3480   33.3425 O   0  0  0  0  0  0  0  0  0  0  0  0
   -2.1071    8.9546   31.9117 C   0  0  2  0  0  0  0  0  0  0  0  0
   -2.0904    8.2494   30.4568 C   0  0  2  0  0  0  0  0  0  0  0  0
   -3.4548    7.7061   30.1569 N   0  0  0  0  0  0  0  0  0  0  0  0
   -0.9729    7.0940   30.4720 C   0  0  1  0  0  0  0  0  0  0  0  0
    0.3047    7.7302   30.7796 O   0  0  0  0  0  0  0  0  0  0  0  0
   -1.3516    6.0042   31.5735 C   0  0  2  0  0  0  0  0  0  0  0  0
   -2.6447    5.3976   31.1862 O   0  0  0  0  0  0  0  0  0  0  0  0
   -1.4191    6.7490   33.0235 C   0  0  1  0  0  0  0  0  0  0  0  0
   -2.4208    7.8751   32.9679 O   0  0  0  0  0  0  0  0  0  0  0  0
   -1.8062    5.7103   34.1280 C   0  0  0  0  0  0  0  0  0  0  0  0
   -1.9092    6.3219   35.4892 N   0  0  0  0  0  0  0  0  0  0  0  0
  1  3  1  0  0  0  0
  1  2  1  1  0  0  0
  3  4  1  6  0  0  0
  3  5  1  0  0  0  0
  5  6  1  1  0  0  0
  7  8  1  1  0  0  0
  7  5  1  0  0  0  0
  9 11  1  1  0  0  0
  9  7  1  0  0  0  0
 10  9  1  0  0  0  0
 10  1  1  0  0  0  0
 12 11  1  0  0  0  0
 13 14  1  6  0  0  0
 15 13  1  0  0  0  0
 16 17  1  6  0  0  0
 16 15  1  0  0  0  0
 18  2  1  1  0  0  0
 18 19  1  0  0  0  0
 18 16  1  0  0  0  0
 19 20  1  6  0  0  0
 19 21  1  0  0  0  0
 21 22  1  1  0  0  0
 21 13  1  0  0  0  0
 23 20  1  1  0  0  0
 23 29  1  0  0  0  0
 24 25  1  6  0  0  0
 24 26  1  0  0  0  0
 24 23  1  0  0  0  0
 26 27  1  6  0  0  0
 26 28  1  0  0  0  0
 28 30  1  1  0  0  0
 29 28  1  0  0  0  0
 30 31  1  0  0  0  0
 32 27  1  6  0  0  0
 32 40  1  0  0  0  0
 33 35  1  0  0  0  0
 33 32  1  0  0  0  0
 33 34  1  1  0  0  0
 35 36  1  1  0  0  0
 35 37  1  0  0  0  0
 37 38  1  6  0  0  0
 37 39  1  0  0  0  0
 39 41  1  1  0  0  0
 40 39  1  0  0  0  0
 41 42  1  0  0  0  0
M  END
>  <CHROM.1>
-163.85969499,-168.28310174,-152.44036305,175.32838443,179.47605152,83.29492226
-58.88843400,178.29929878,-179.14348157,-2.19141953,12.92629627,33.99181028
-1.37810487,0.90333581,-2.90235851

>  <Name>
lig.pdb

>  <RI>
0

>  <Rbt.Current_Directory>
/home/itssahil/PROJECTS/Mol_Feturizer/New_Systems/rnas/4wcr

>  <Rbt.Executable>
rbdock ($Id: //depot/dev/client3/rdock/2013.1/src/exe/rbdock.cxx#4 $)

>  <Rbt.Library>
libRbt.so (2013.1, Build901 2013/11/27)

>  <Rbt.Parameter_File>
/export/apps/rDock/src/rDock_2013.1_src/data/scripts/dock_solv.prm

>  <Rbt.Receptor>
prm/pocket_docking_6.prm

>  <SCORE>
-17.5767

>  <SCORE.INTER>
-10.0571

>  <SCORE.INTER.CONST>
1

>  <SCORE.INTER.POLAR>
0

>  <SCORE.INTER.ROT>
9

>  <SCORE.INTER.SOLV>
25.0829

>  <SCORE.INTER.VDW>
-24.6657

>  <SCORE.INTER.norm>
-0.239455

>  <SCORE.INTRA>
-7.5196

>  <SCORE.INTRA.DIHEDRAL>
-8.48073

>  <SCORE.INTRA.DIHEDRAL.0>
16.2863

>  <SCORE.INTRA.POLAR>
0

>  <SCORE.INTRA.POLAR.0>
0

>  <SCORE.INTRA.REPUL>
-0.31432

>  <SCORE.INTRA.REPUL.0>
0.314433

>  <SCORE.INTRA.SOLV>
-4.60058

>  <SCORE.INTRA.SOLV.lig_0>
-103.824

>  <SCORE.INTRA.VDW>
0.59266

>  <SCORE.INTRA.VDW.0>
-5.30945

>  <SCORE.INTRA.norm>
-0.179038

>  <SCORE.RESTR>
0

>  <SCORE.RESTR.CAVITY>
0

>  <SCORE.RESTR.norm>
0

>  <SCORE.SYSTEM>
0

>  <SCORE.SYSTEM.CONST>
0

>  <SCORE.SYSTEM.DIHEDRAL>
0

>  <SCORE.SYSTEM.SOLV>
0

>  <SCORE.SYSTEM.norm>
0

>  <SCORE.heavy>
42

>  <SCORE.norm>
-0.418494

>  <RMSD>
4.423

$$$$
lig.pdb
 OpenBabel11021811513D
libRbt.so/2013.1/901 2013/11/27
 42 45  0  0  0  0  0  0  0  0999 V2000
   -2.5758   14.4406   38.1819 C   0  0  2  0  0  0  0  0  0  0  0  0
   -3.9995   14.1188   38.0996 O   0  0  0  0  0  0  0  0  0  0  0  0
   -2.4453   15.5982   39.2694 C   0  0  2  0  0  0  0  0  0  0  0  0
   -2.9021   15.1212   40.5777 N   0  0  0  0  0  0  0  0  0  0  0  0
   -3.2768   16.8767   38.7655 C   0  0  1  0  0  0  0  0  0  0  0  0
   -3.1840   17.9637   39.7103 O   0  0  0  0  0  0  0  0  0  0  0  0
   -2.7127   17.2724   37.3901 C   0  0  2  0  0  0  0  0  0  0  0  0
   -3.4105   18.3757   36.9217 O   0  0  0  0  0  0  0  0  0  0  0  0
   -2.8403   16.0455   36.3767 C   0  0  2  0  0  0  0  0  0  0  0  0
   -2.1220   14.9005   36.8529 O   0  0  0  0  0  0  0  0  0  0  0  0
   -2.2847   16.3746   35.0202 C   0  0  0  0  0  0  0  0  0  0  0  0
   -2.5974   15.2866   34.1494 O   0  0  0  0  0  0  0  0  0  0  0  0
   -6.3369   10.6829   36.5175 C   0  0  2  0  0  0  0  0  0  0  0  0
   -6.9238    9.7372   35.5932 N   0  0  0  0  0  0  0  0  0  0  0  0
   -6.7246   12.1562   36.1078 C   0  0  0  0  0  0  0  0  0  0  0  0
   -6.0959   13.2028   37.0935 C   0  0  2  0  0  0  0  0  0  0  0  0
   -6.4722   14.5517   36.6755 N   0  0  0  0  0  0  0  0  0  0  0  0
   -4.5064   13.1088   37.1481 C   0  0  2  0  0  0  0  0  0  0  0  0
   -4.1405   11.6621   37.5896 C   0  0  2  0  0  0  0  0  0  0  0  0
   -2.6300   11.6609   37.6255 O   0  0  0  0  0  0  0  0  0  0  0  0
   -4.7386   10.5855   36.5262 C   0  0  1  0  0  0  0  0  0  0  0  0
   -4.5026    9.1824   36.8693 O   0  0  0  0  0  0  0  0  0  0  0  0
   -2.1388   10.4199   37.9353 C   0  0  1  0  0  0  0  0  0  0  0  0
   -0.6731   10.3715   37.9626 C   0  0  2  0  0  0  0  0  0  0  0  0
   -0.2305   10.4379   36.6449 O   0  0  0  0  0  0  0  0  0  0  0  0
   -0.4314    9.0941   38.7952 C   0  0  2  0  0  0  0  0  0  0  0  0
    0.2925    8.1743   37.9469 O   0  0  0  0  0  0  0  0  0  0  0  0
   -1.7966    8.5987   39.1424 C   0  0  2  0  0  0  0  0  0  0  0  0
   -2.4578    9.9119   39.2201 O   0  0  0  0  0  0  0  0  0  0  0  0
   -1.8221    7.8906   40.5468 C   0  0  0  0  0  0  0  0  0  0  0  0
   -1.4808    8.7761   41.6553 O   0  0  0  0  0  0  0  0  0  0  0  0
    0.5761    6.8523   38.4973 C   0  0  2  0  0  0  0  0  0  0  0  0
    1.5831    6.0835   37.4928 C   0  0  2  0  0  0  0  0  0  0  0  0
    0.9531    5.9951   36.1356 N   0  0  0  0  0  0  0  0  0  0  0  0
    1.8931    4.6310   38.1076 C   0  0  1  0  0  0  0  0  0  0  0  0
    2.4928    4.8356   39.4230 O   0  0  0  0  0  0  0  0  0  0  0  0
    0.5354    3.8010   38.2184 C   0  0  2  0  0  0  0  0  0  0  0  0
   -0.0012    3.6239   36.8506 O   0  0  0  0  0  0  0  0  0  0  0  0
   -0.4855    4.6234   39.1896 C   0  0  1  0  0  0  0  0  0  0  0  0
   -0.7074    6.0079   38.6340 O   0  0  0  0  0  0  0  0  0  0  0  0
   -1.8377    3.8447   39.3071 C   0  0  0  0  0  0  0  0  0  0  0  0
   -2.5816    3.7750   38.0113 N   0  0  0  0  0  0  0  0  0  0  0  0
  1  3  1  0  0  0  0
  1  2  1  6  0  0  0
  3  4  1  1  0  0  0
  3  5  1  0  0  0  0
  5  6  1  1  0  0  0
  7  8  1  6  0  0  0
  7  5  1  0  0  0  0
  9 11  1  6  0  0  0
  9  7  1  0  0  0  0
 10  9  1  0  0  0  0
 10  1  1  0  0  0  0
 12 11  1  0  0  0  0
 13 14  1  6  0  0  0
 15 13  1  0  0  0  0
 16 17  1  6  0  0  0
 16 15  1  0  0  0  0
 18  2  1  1  0  0  0
 18 19  1  0  0  0  0
 18 16  1  0  0  0  0
 19 20  1  6  0  0  0
 19 21  1  0  0  0  0
 21 22  1  1  0  0  0
 21 13  1  0  0  0  0
 23 20  1  1  0  0  0
 23 29  1  0  0  0  0
 24 25  1  6  0  0  0
 24 26  1  0  0  0  0
 24 23  1  0  0  0  0
 26 27  1  6  0  0  0
 26 28  1  0  0  0  0
 28 30  1  1  0  0  0
 29 28  1  0  0  0  0
 30 31  1  0  0  0  0
 32 27  1  6  0  0  0
 32 40  1  0  0  0  0
 33 35  1  0  0  0  0
 33 32  1  0  0  0  0
 33 34  1  6  0  0  0
 35 36  1  1  0  0  0
 35 37  1  0  0  0  0
 37 38  1  6  0  0  0
 37 39  1  0  0  0  0
 39 41  1  6  0  0  0
 40 39  1  0  0  0  0
 41 42  1  0  0  0  0
M  END
>  <CHROM.1>
177.88261830,-172.76778323,-168.63714568,-176.85885070,179.21905779,-176.76728095
62.87138977,-171.06090902,-65.67722740,-2.25953083,10.64597887,37.82898701
-1.93783715,0.37213878,-3.10578414

>  <Name>
lig.pdb

>  <RI>
0

>  <Rbt.Current_Directory>
/home/itssahil/PROJECTS/Mol_Feturizer/New_Systems/rnas/4wcr

>  <Rbt.Executable>
rbdock ($Id: //depot/dev/client3/rdock/2013.1/src/exe/rbdock.cxx#4 $)

>  <Rbt.Library>
libRbt.so (2013.1, Build901 2013/11/27)

>  <Rbt.Parameter_File>
/export/apps/rDock/src/rDock_2013.1_src/data/scripts/dock_solv.prm

>  <Rbt.Receptor>
prm/pocket_docking_5.prm

>  <SCORE>
-2.27948

>  <SCORE.INTER>
6.9427

>  <SCORE.INTER.CONST>
1

>  <SCORE.INTER.POLAR>
0

>  <SCORE.INTER.ROT>
9

>  <SCORE.INTER.SOLV>
15.4145

>  <SCORE.INTER.VDW>
-10.1097

>  <SCORE.INTER.norm>
0.165302

>  <SCORE.INTRA>
-9.22218

>  <SCORE.INTRA.DIHEDRAL>
-14.2853

>  <SCORE.INTRA.DIHEDRAL.0>
16.2863

>  <SCORE.INTRA.POLAR>
0

>  <SCORE.INTRA.POLAR.0>
0

>  <SCORE.INTRA.REPUL>
-0.314433

>  <SCORE.INTRA.REPUL.0>
0.314433

>  <SCORE.INTRA.SOLV>
-3.8886

>  <SCORE.INTRA.SOLV.lig_0>
-103.824

>  <SCORE.INTRA.VDW>
1.43692

>  <SCORE.INTRA.VDW.0>
-5.30945

>  <SCORE.INTRA.norm>
-0.219576

>  <SCORE.RESTR>
0

>  <SCORE.RESTR.CAVITY>
0

>  <SCORE.RESTR.norm>
0

>  <SCORE.SYSTEM>
0

>  <SCORE.SYSTEM.CONST>
0

>  <SCORE.SYSTEM.DIHEDRAL>
0

>  <SCORE.SYSTEM.SOLV>
0

>  <SCORE.SYSTEM.norm>
0

>  <SCORE.heavy>
42

>  <SCORE.norm>
-0.0542734

>  <RMSD>
4.591

$$$$
lig.pdb
 OpenBabel11021811513D
libRbt.so/2013.1/901 2013/11/27
 42 45  0  0  0  0  0  0  0  0999 V2000
   -1.3335   15.8851   36.7963 C   0  0  2  0  0  0  0  0  0  0  0  0
   -1.7071   16.2125   38.1712 O   0  0  0  0  0  0  0  0  0  0  0  0
   -0.1005   14.8806   36.8994 C   0  0  2  0  0  0  0  0  0  0  0  0
   -0.5018   13.6515   37.5892 N   0  0  0  0  0  0  0  0  0  0  0  0
    1.1123   15.6258   37.6434 C   0  0  1  0  0  0  0  0  0  0  0  0
    2.2638   14.7630   37.7547 O   0  0  0  0  0  0  0  0  0  0  0  0
    1.4314   16.8943   36.8338 C   0  0  2  0  0  0  0  0  0  0  0  0
    2.4765   17.5664   37.4501 O   0  0  0  0  0  0  0  0  0  0  0  0
    0.1346   17.8206   36.7408 C   0  0  2  0  0  0  0  0  0  0  0  0
   -0.9507   17.1339   36.1050 O   0  0  0  0  0  0  0  0  0  0  0  0
    0.3884   19.0673   35.9418 C   0  0  0  0  0  0  0  0  0  0  0  0
    1.4252   19.7979   36.5983 O   0  0  0  0  0  0  0  0  0  0  0  0
   -5.8370   17.2276   39.4695 C   0  0  2  0  0  0  0  0  0  0  0  0
   -6.9981   17.9974   39.8599 N   0  0  0  0  0  0  0  0  0  0  0  0
   -4.6089   17.5901   40.3910 C   0  0  0  0  0  0  0  0  0  0  0  0
   -3.3339   16.7706   39.9845 C   0  0  2  0  0  0  0  0  0  0  0  0
   -2.2201   17.1404   40.8555 N   0  0  0  0  0  0  0  0  0  0  0  0
   -2.9053   17.0228   38.4709 C   0  0  2  0  0  0  0  0  0  0  0  0
   -4.1126   16.6257   37.5729 C   0  0  2  0  0  0  0  0  0  0  0  0
   -3.6238   16.8831   36.1667 O   0  0  0  0  0  0  0  0  0  0  0  0
   -5.4128   17.5264   37.9546 C   0  0  1  0  0  0  0  0  0  0  0  0
   -6.6295   17.2016   37.2086 O   0  0  0  0  0  0  0  0  0  0  0  0
   -3.8438   15.8011   35.3554 C   0  0  1  0  0  0  0  0  0  0  0  0
   -3.1363   15.8894   34.0737 C   0  0  2  0  0  0  0  0  0  0  0  0
   -3.7867   16.8503   33.3054 O   0  0  0  0  0  0  0  0  0  0  0  0
   -3.1399   14.4116   33.6275 C   0  0  2  0  0  0  0  0  0  0  0  0
   -3.8655   14.3548   32.3785 O   0  0  0  0  0  0  0  0  0  0  0  0
   -3.8363   13.6806   34.7276 C   0  0  2  0  0  0  0  0  0  0  0  0
   -3.3947   14.5446   35.8350 O   0  0  0  0  0  0  0  0  0  0  0  0
   -3.2705   12.2245   34.9121 C   0  0  0  0  0  0  0  0  0  0  0  0
   -1.8535   12.1865   35.2584 O   0  0  0  0  0  0  0  0  0  0  0  0
   -3.9049   13.0652   31.6958 C   0  0  2  0  0  0  0  0  0  0  0  0
   -4.5291   13.2844   30.2205 C   0  0  2  0  0  0  0  0  0  0  0  0
   -5.8962   13.8856   30.3482 N   0  0  0  0  0  0  0  0  0  0  0  0
   -4.5655   11.8609   29.4745 C   0  0  1  0  0  0  0  0  0  0  0  0
   -3.1926   11.3680   29.4132 O   0  0  0  0  0  0  0  0  0  0  0  0
   -5.4998   10.8580   30.2904 C   0  0  2  0  0  0  0  0  0  0  0  0
   -6.8700   11.4171   30.2960 O   0  0  0  0  0  0  0  0  0  0  0  0
   -4.8834   10.6972   31.7924 C   0  0  1  0  0  0  0  0  0  0  0  0
   -4.7907   12.0517   32.4491 O   0  0  0  0  0  0  0  0  0  0  0  0
   -5.7871    9.7312   32.6285 C   0  0  0  0  0  0  0  0  0  0  0  0
   -5.2514    9.4789   34.0020 N   0  0  0  0  0  0  0  0  0  0  0  0
  1  3  1  0  0  0  0
  1  2  1  1  0  0  0
  3  4  1  1  0  0  0
  3  5  1  0  0  0  0
  5  6  1  6  0  0  0
  7  8  1  1  0  0  0
  7  5  1  0  0  0  0
  9 11  1  6  0  0  0
  9  7  1  0  0  0  0
 10  9  1  0  0  0  0
 10  1  1  0  0  0  0
 12 11  1  0  0  0  0
 13 14  1  1  0  0  0
 15 13  1  0  0  0  0
 16 17  1  1  0  0  0
 16 15  1  0  0  0  0
 18  2  1  6  0  0  0
 18 19  1  0  0  0  0
 18 16  1  0  0  0  0
 19 20  1  6  0  0  0
 19 21  1  0  0  0  0
 21 22  1  6  0  0  0
 21 13  1  0  0  0  0
 23 20  1  1  0  0  0
 23 29  1  0  0  0  0
 24 25  1  6  0  0  0
 24 26  1  0  0  0  0
 24 23  1  0  0  0  0
 26 27  1  6  0  0  0
 26 28  1  0  0  0  0
 28 30  1  1  0  0  0
 29 28  1  0  0  0  0
 30 31  1  0  0  0  0
 32 27  1  1  0  0  0
 32 40  1  0  0  0  0
 33 35  1  0  0  0  0
 33 32  1  0  0  0  0
 33 34  1  1  0  0  0
 35 36  1  1  0  0  0
 35 37  1  0  0  0  0
 37 38  1  1  0  0  0
 37 39  1  0  0  0  0
 39 41  1  1  0  0  0
 40 39  1  0  0  0  0
 41 42  1  0  0  0  0
M  END
>  <CHROM.1>
-173.91856192,-60.62714339,159.82617307,129.89187398,-167.64303633,174.87724184
60.82394535,-170.14567474,177.23595233,-2.98187100,14.98119111,35.32802824
-1.18201266,-0.11327032,-2.19994383

>  <Name>
lig.pdb

>  <RI>
0

>  <Rbt.Current_Directory>
/home/itssahil/PROJECTS/Mol_Feturizer/New_Systems/rnas/4wcr

>  <Rbt.Executable>
rbdock ($Id: //depot/dev/client3/rdock/2013.1/src/exe/rbdock.cxx#4 $)

>  <Rbt.Library>
libRbt.so (2013.1, Build901 2013/11/27)

>  <Rbt.Parameter_File>
/export/apps/rDock/src/rDock_2013.1_src/data/scripts/dock_solv.prm

>  <Rbt.Receptor>
prm/pocket_docking_7.prm

>  <SCORE>
-8.08287

>  <SCORE.INTER>
-5.32514

>  <SCORE.INTER.CONST>
1

>  <SCORE.INTER.POLAR>
0

>  <SCORE.INTER.ROT>
9

>  <SCORE.INTER.SOLV>
25.7632

>  <SCORE.INTER.VDW>
-21.7378

>  <SCORE.INTER.norm>
-0.126789

>  <SCORE.INTRA>
-2.76227

>  <SCORE.INTRA.DIHEDRAL>
-5.664

>  <SCORE.INTRA.DIHEDRAL.0>
16.2863

>  <SCORE.INTRA.POLAR>
0

>  <SCORE.INTRA.POLAR.0>
0

>  <SCORE.INTRA.REPUL>
-0.314433

>  <SCORE.INTRA.REPUL.0>
0.314433

>  <SCORE.INTRA.SOLV>
-2.51587

>  <SCORE.INTRA.SOLV.lig_0>
-103.824

>  <SCORE.INTRA.VDW>
2.89983

>  <SCORE.INTRA.VDW.0>
-5.30945

>  <SCORE.INTRA.norm>
-0.0657684

>  <SCORE.RESTR>
0.00453555

>  <SCORE.RESTR.CAVITY>
0.00453555

>  <SCORE.RESTR.norm>
0.000107989

>  <SCORE.SYSTEM>
0

>  <SCORE.SYSTEM.CONST>
0

>  <SCORE.SYSTEM.DIHEDRAL>
0

>  <SCORE.SYSTEM.SOLV>
0

>  <SCORE.SYSTEM.norm>
0

>  <SCORE.heavy>
42

>  <SCORE.norm>
-0.192449

>  <RMSD>
4.642

$$$$
lig.pdb
 OpenBabel11021811513D
libRbt.so/2013.1/901 2013/11/27
 42 45  0  0  0  0  0  0  0  0999 V2000
   -1.6409   18.2080   36.6999 C   0  0  2  0  0  0  0  0  0  0  0  0
   -2.1466   16.9819   36.0849 O   0  0  0  0  0  0  0  0  0  0  0  0
   -0.1070   18.3139   36.2806 C   0  0  2  0  0  0  0  0  0  0  0  0
    0.0160   18.4258   34.8246 N   0  0  0  0  0  0  0  0  0  0  0  0
    0.6763   17.0367   36.8594 C   0  0  1  0  0  0  0  0  0  0  0  0
    2.0776   17.0864   36.5179 O   0  0  0  0  0  0  0  0  0  0  0  0
    0.4649   17.0261   38.3831 C   0  0  2  0  0  0  0  0  0  0  0  0
    1.1281   15.9318   38.9184 O   0  0  0  0  0  0  0  0  0  0  0  0
   -1.0953   16.9649   38.7152 C   0  0  2  0  0  0  0  0  0  0  0  0
   -1.7888   18.0922   38.1657 O   0  0  0  0  0  0  0  0  0  0  0  0
   -1.3576   16.9716   40.1945 C   0  0  0  0  0  0  0  0  0  0  0  0
   -0.8636   15.7417   40.7266 O   0  0  0  0  0  0  0  0  0  0  0  0
   -4.4043   16.5733   32.2759 C   0  0  2  0  0  0  0  0  0  0  0  0
   -4.7172   16.5808   30.8635 N   0  0  0  0  0  0  0  0  0  0  0  0
   -3.8524   17.9834   32.7185 C   0  0  0  0  0  0  0  0  0  0  0  0
   -3.5009   18.0001   34.2477 C   0  0  2  0  0  0  0  0  0  0  0  0
   -2.9877   19.3185   34.6143 N   0  0  0  0  0  0  0  0  0  0  0  0
   -2.4131   16.9020   34.6341 C   0  0  2  0  0  0  0  0  0  0  0  0
   -2.9872   15.5144   34.2262 C   0  0  2  0  0  0  0  0  0  0  0  0
   -1.9084   14.5377   34.6322 O   0  0  0  0  0  0  0  0  0  0  0  0
   -3.2864   15.4818   32.6271 C   0  0  1  0  0  0  0  0  0  0  0  0
   -3.8832   14.2390   32.1358 O   0  0  0  0  0  0  0  0  0  0  0  0
   -2.2364   13.2554   34.2780 C   0  0  1  0  0  0  0  0  0  0  0  0
   -1.3008   12.2558   34.8040 C   0  0  2  0  0  0  0  0  0  0  0  0
   -0.1201   12.3680   34.0759 O   0  0  0  0  0  0  0  0  0  0  0  0
   -2.1498   10.9702   34.7054 C   0  0  2  0  0  0  0  0  0  0  0  0
   -1.4484   10.0746   33.8135 O   0  0  0  0  0  0  0  0  0  0  0  0
   -3.4617   11.4187   34.1507 C   0  0  2  0  0  0  0  0  0  0  0  0
   -3.4739   12.7589   34.7601 O   0  0  0  0  0  0  0  0  0  0  0  0
   -4.6558   10.5567   34.7033 C   0  0  0  0  0  0  0  0  0  0  0  0
   -5.9516   10.9231   34.1413 O   0  0  0  0  0  0  0  0  0  0  0  0
   -1.9643    8.7133   33.7046 C   0  0  2  0  0  0  0  0  0  0  0  0
   -0.8201    7.7824   33.0424 C   0  0  2  0  0  0  0  0  0  0  0  0
   -0.4439    8.3412   31.7034 N   0  0  0  0  0  0  0  0  0  0  0  0
   -1.3945    6.2853   32.9295 C   0  0  1  0  0  0  0  0  0  0  0  0
   -1.7333    5.8476   34.2805 O   0  0  0  0  0  0  0  0  0  0  0  0
   -2.6798    6.2800   31.9849 C   0  0  2  0  0  0  0  0  0  0  0  0
   -2.2546    6.7196   30.6373 O   0  0  0  0  0  0  0  0  0  0  0  0
   -3.7979    7.2699   32.6422 C   0  0  1  0  0  0  0  0  0  0  0  0
   -3.2165    8.6519   32.8060 O   0  0  0  0  0  0  0  0  0  0  0  0
   -5.0690    7.3026   31.7302 C   0  0  0  0  0  0  0  0  0  0  0  0
   -5.6629    5.9470   31.5138 N   0  0  0  0  0  0  0  0  0  0  0  0
  1  3  1  0  0  0  0
  1  2  1  6  0  0  0
  3  4  1  6  0  0  0
  3  5  1  0  0  0  0
  5  6  1  1  0  0  0
  7  8  1  6  0  0  0
  7  5  1  0  0  0  0
  9 11  1  1  0  0  0
  9  7  1  0  0  0  0
 10  9  1  0  0  0  0
 10  1  1  0  0  0  0
 12 11  1  0  0  0  0
 13 14  1  6  0  0  0
 15 13  1  0  0  0  0
 16 17  1  6  0  0  0
 16 15  1  0  0  0  0
 18  2  1  1  0  0  0
 18 19  1  0  0  0  0
 18 16  1  0  0  0  0
 19 20  1  6  0  0  0
 19 21  1  0  0  0  0
 21 22  1  1  0  0  0
 21 13  1  0  0  0  0
 23 20  1  1  0  0  0
 23 29  1  0  0  0  0
 24 25  1  6  0  0  0
 24 26  1  0  0  0  0
 24 23  1  0  0  0  0
 26 27  1  6  0  0  0
 26 28  1  0  0  0  0
 28 30  1  1  0  0  0
 29 28  1  0  0  0  0
 30 31  1  0  0  0  0
 32 27  1  6  0  0  0
 32 40  1  0  0  0  0
 33 35  1  0  0  0  0
 33 32  1  0  0  0  0
 33 34  1  6  0  0  0
 35 36  1  1  0  0  0
 35 37  1  0  0  0  0
 37 38  1  6  0  0  0
 37 39  1  0  0  0  0
 39 41  1  6  0  0  0
 40 39  1  0  0  0  0
 41 42  1  0  0  0  0
M  END
>  <CHROM.1>
-74.00363006,-67.28606775,-59.59896489,-177.08499462,-172.61511875,171.77807710
-177.44978457,-163.10202825,57.56628725,-2.18923411,13.20706134,34.59080348
1.30348470,-0.89021376,0.18795480

>  <Name>
lig.pdb

>  <RI>
0

>  <Rbt.Current_Directory>
/home/itssahil/PROJECTS/Mol_Feturizer/New_Systems/rnas/4wcr

>  <Rbt.Executable>
rbdock ($Id: //depot/dev/client3/rdock/2013.1/src/exe/rbdock.cxx#4 $)

>  <Rbt.Library>
libRbt.so (2013.1, Build901 2013/11/27)

>  <Rbt.Parameter_File>
/export/apps/rDock/src/rDock_2013.1_src/data/scripts/dock_solv.prm

>  <Rbt.Receptor>
prm/pocket_docking_7.prm

>  <SCORE>
-10.5023

>  <SCORE.INTER>
-4.45123

>  <SCORE.INTER.CONST>
1

>  <SCORE.INTER.POLAR>
0

>  <SCORE.INTER.ROT>
9

>  <SCORE.INTER.SOLV>
30.4213

>  <SCORE.INTER.VDW>
-22.7079

>  <SCORE.INTER.norm>
-0.105982

>  <SCORE.INTRA>
-6.0511

>  <SCORE.INTRA.DIHEDRAL>
-12.6506

>  <SCORE.INTRA.DIHEDRAL.0>
16.2863

>  <SCORE.INTRA.POLAR>
0

>  <SCORE.INTRA.POLAR.0>
0

>  <SCORE.INTRA.REPUL>
-0.314433

>  <SCORE.INTRA.REPUL.0>
0.314433

>  <SCORE.INTRA.SOLV>
-0.783977

>  <SCORE.INTRA.SOLV.lig_0>
-103.824

>  <SCORE.INTRA.VDW>
2.23833

>  <SCORE.INTRA.VDW.0>
-5.30945

>  <SCORE.INTRA.norm>
-0.144074

>  <SCORE.RESTR>
0

>  <SCORE.RESTR.CAVITY>
0

>  <SCORE.RESTR.norm>
0

>  <SCORE.SYSTEM>
0

>  <SCORE.SYSTEM.CONST>
0

>  <SCORE.SYSTEM.DIHEDRAL>
0

>  <SCORE.SYSTEM.SOLV>
0

>  <SCORE.SYSTEM.norm>
0

>  <SCORE.heavy>
42

>  <SCORE.norm>
-0.250055

>  <RMSD>
4.648

$$$$
lig.pdb
 OpenBabel11021811513D
libRbt.so/2013.1/901 2013/11/27
 42 45  0  0  0  0  0  0  0  0999 V2000
   -1.8556   16.8670   38.6964 C   0  0  2  0  0  0  0  0  0  0  0  0
   -1.5966   15.4986   38.2517 O   0  0  0  0  0  0  0  0  0  0  0  0
   -1.7240   17.7861   37.4011 C   0  0  2  0  0  0  0  0  0  0  0  0
   -2.7317   17.4101   36.4057 N   0  0  0  0  0  0  0  0  0  0  0  0
   -0.2287   17.6606   36.8281 C   0  0  1  0  0  0  0  0  0  0  0  0
   -0.0490   18.4842   35.6568 O   0  0  0  0  0  0  0  0  0  0  0  0
    0.7279   18.0707   37.9608 C   0  0  2  0  0  0  0  0  0  0  0  0
    2.0328   17.9723   37.5011 O   0  0  0  0  0  0  0  0  0  0  0  0
    0.4996   17.1323   39.2319 C   0  0  2  0  0  0  0  0  0  0  0  0
   -0.8466   17.2277   39.7139 O   0  0  0  0  0  0  0  0  0  0  0  0
    1.3990   17.5046   40.3764 C   0  0  0  0  0  0  0  0  0  0  0  0
    1.0370   18.8194   40.8006 O   0  0  0  0  0  0  0  0  0  0  0  0
   -1.6655   13.3060   42.1196 C   0  0  2  0  0  0  0  0  0  0  0  0
   -1.7393   12.2250   43.0783 N   0  0  0  0  0  0  0  0  0  0  0  0
   -2.9319   13.2863   41.1789 C   0  0  0  0  0  0  0  0  0  0  0  0
   -2.8737   14.4480   40.1256 C   0  0  2  0  0  0  0  0  0  0  0  0
   -4.0583   14.3899   39.2717 N   0  0  0  0  0  0  0  0  0  0  0  0
   -1.5754   14.3706   39.2054 C   0  0  2  0  0  0  0  0  0  0  0  0
   -0.3355   14.4289   40.1440 C   0  0  2  0  0  0  0  0  0  0  0  0
    0.8422   14.3609   39.2000 O   0  0  0  0  0  0  0  0  0  0  0  0
   -0.3676   13.1828   41.1898 C   0  0  1  0  0  0  0  0  0  0  0  0
    0.7258   13.1649   42.1627 O   0  0  0  0  0  0  0  0  0  0  0  0
    0.9491   13.1228   38.6231 C   0  0  1  0  0  0  0  0  0  0  0  0
    1.6593   13.1450   37.3400 C   0  0  2  0  0  0  0  0  0  0  0  0
    0.8097   13.7282   36.4047 O   0  0  0  0  0  0  0  0  0  0  0  0
    2.0647   11.6624   37.1965 C   0  0  2  0  0  0  0  0  0  0  0  0
    1.4311   11.1713   35.9936 O   0  0  0  0  0  0  0  0  0  0  0  0
    1.5424   11.0011   38.4293 C   0  0  2  0  0  0  0  0  0  0  0  0
    1.6947   12.1505   39.3368 O   0  0  0  0  0  0  0  0  0  0  0  0
    2.4651    9.8141   38.8920 C   0  0  0  0  0  0  0  0  0  0  0  0
    1.9208    9.0510   40.0102 O   0  0  0  0  0  0  0  0  0  0  0  0
    1.6446    9.7660   35.6613 C   0  0  2  0  0  0  0  0  0  0  0  0
    0.9903    9.4764   34.2115 C   0  0  2  0  0  0  0  0  0  0  0  0
   -0.4679    9.8209   34.2511 N   0  0  0  0  0  0  0  0  0  0  0  0
    1.2330    7.9286   33.8516 C   0  0  1  0  0  0  0  0  0  0  0  0
    2.6758    7.7049   33.8485 O   0  0  0  0  0  0  0  0  0  0  0  0
    0.5121    7.0116   34.9397 C   0  0  2  0  0  0  0  0  0  0  0  0
   -0.9409    7.2841   34.8722 O   0  0  0  0  0  0  0  0  0  0  0  0
    1.1473    7.3619   36.4011 C   0  0  1  0  0  0  0  0  0  0  0  0
    0.9734    8.8321   36.6892 O   0  0  0  0  0  0  0  0  0  0  0  0
    0.4493    6.4909   37.4978 C   0  0  0  0  0  0  0  0  0  0  0  0
    0.7338    5.0302   37.3467 N   0  0  0  0  0  0  0  0  0  0  0  0
  1  3  1  0  0  0  0
  1  2  1  6  0  0  0
  3  4  1  6  0  0  0
  3  5  1  0  0  0  0
  5  6  1  6  0  0  0
  7  8  1  6  0  0  0
  7  5  1  0  0  0  0
  9 11  1  1  0  0  0
  9  7  1  0  0  0  0
 10  9  1  0  0  0  0
 10  1  1  0  0  0  0
 12 11  1  0  0  0  0
 13 14  1  1  0  0  0
 15 13  1  0  0  0  0
 16 17  1  6  0  0  0
 16 15  1  0  0  0  0
 18  2  1  6  0  0  0
 18 19  1  0  0  0  0
 18 16  1  0  0  0  0
 19 20  1  6  0  0  0
 19 21  1  0  0  0  0
 21 22  1  1  0  0  0
 21 13  1  0  0  0  0
 23 20  1  1  0  0  0
 23 29  1  0  0  0  0
 24 25  1  6  0  0  0
 24 26  1  0  0  0  0
 24 23  1  0  0  0  0
 26 27  1  6  0  0  0
 26 28  1  0  0  0  0
 28 30  1  1  0  0  0
 29 28  1  0  0  0  0
 30 31  1  0  0  0  0
 32 27  1  1  0  0  0
 32 40  1  0  0  0  0
 33 35  1  0  0  0  0
 33 32  1  0  0  0  0
 33 34  1  1  0  0  0
 35 36  1  1  0  0  0
 35 37  1  0  0  0  0
 37 38  1  1  0  0  0
 37 39  1  0  0  0  0
 39 41  1  1  0  0  0
 40 39  1  0  0  0  0
 41 42  1  0  0  0  0
M  END
>  <CHROM.1>
177.30413632,64.38067186,48.57726843,-69.65569583,155.64730155,-178.58065679
-173.95932601,-173.86373447,65.81109253,0.17659522,12.84957512,38.05290261
-2.30186689,-1.32189416,2.75933506

>  <Name>
lig.pdb

>  <RI>
0

>  <Rbt.Current_Directory>
/home/itssahil/PROJECTS/Mol_Feturizer/New_Systems/rnas/4wcr

>  <Rbt.Executable>
rbdock ($Id: //depot/dev/client3/rdock/2013.1/src/exe/rbdock.cxx#4 $)

>  <Rbt.Library>
libRbt.so (2013.1, Build901 2013/11/27)

>  <Rbt.Parameter_File>
/export/apps/rDock/src/rDock_2013.1_src/data/scripts/dock_solv.prm

>  <Rbt.Receptor>
prm/pocket_docking_7.prm

>  <SCORE>
-9.35598

>  <SCORE.INTER>
-2.084

>  <SCORE.INTER.CONST>
1

>  <SCORE.INTER.POLAR>
0

>  <SCORE.INTER.ROT>
9

>  <SCORE.INTER.SOLV>
19.7487

>  <SCORE.INTER.VDW>
-17.5722

>  <SCORE.INTER.norm>
-0.049619

>  <SCORE.INTRA>
-7.27198

>  <SCORE.INTRA.DIHEDRAL>
-11.6251

>  <SCORE.INTRA.DIHEDRAL.0>
16.2863

>  <SCORE.INTRA.POLAR>
0

>  <SCORE.INTRA.POLAR.0>
0

>  <SCORE.INTRA.REPUL>
-0.314433

>  <SCORE.INTRA.REPUL.0>
0.314433

>  <SCORE.INTRA.SOLV>
-4.19694

>  <SCORE.INTRA.SOLV.lig_0>
-103.824

>  <SCORE.INTRA.VDW>
2.21119

>  <SCORE.INTRA.VDW.0>
-5.30945

>  <SCORE.INTRA.norm>
-0.173142

>  <SCORE.RESTR>
0

>  <SCORE.RESTR.CAVITY>
0

>  <SCORE.RESTR.norm>
0

>  <SCORE.SYSTEM>
0

>  <SCORE.SYSTEM.CONST>
0

>  <SCORE.SYSTEM.DIHEDRAL>
0

>  <SCORE.SYSTEM.SOLV>
0

>  <SCORE.SYSTEM.norm>
0

>  <SCORE.heavy>
42

>  <SCORE.norm>
-0.222761

>  <RMSD>
4.666

$$$$
lig.pdb
 OpenBabel11021811513D
libRbt.so/2013.1/901 2013/11/27
 42 45  0  0  0  0  0  0  0  0999 V2000
   -3.0668   15.4228   36.7847 C   0  0  2  0  0  0  0  0  0  0  0  0
   -2.4736   15.2459   38.1091 O   0  0  0  0  0  0  0  0  0  0  0  0
   -2.2091   16.5557   36.0628 C   0  0  2  0  0  0  0  0  0  0  0  0
   -0.8186   16.1197   35.9074 N   0  0  0  0  0  0  0  0  0  0  0  0
   -2.3279   17.9138   36.9120 C   0  0  1  0  0  0  0  0  0  0  0  0
   -1.5768   18.9808   36.2956 O   0  0  0  0  0  0  0  0  0  0  0  0
   -3.8239   18.2584   37.0111 C   0  0  2  0  0  0  0  0  0  0  0  0
   -3.9652   19.4287   37.7419 O   0  0  0  0  0  0  0  0  0  0  0  0
   -4.6142   17.0560   37.7026 C   0  0  2  0  0  0  0  0  0  0  0  0
   -4.4736   15.8423   36.9539 O   0  0  0  0  0  0  0  0  0  0  0  0
   -6.0868   17.3352   37.8065 C   0  0  0  0  0  0  0  0  0  0  0  0
   -6.2639   18.3646   38.7804 O   0  0  0  0  0  0  0  0  0  0  0  0
   -2.1880   11.8389   40.9522 C   0  0  2  0  0  0  0  0  0  0  0  0
   -2.5639   10.8148   41.9024 N   0  0  0  0  0  0  0  0  0  0  0  0
   -2.6612   13.2547   41.4625 C   0  0  0  0  0  0  0  0  0  0  0  0
   -2.2688   14.3839   40.4460 C   0  0  2  0  0  0  0  0  0  0  0  0
   -2.7304   15.6751   40.9516 N   0  0  0  0  0  0  0  0  0  0  0  0
   -2.8959   14.1464   39.0008 C   0  0  2  0  0  0  0  0  0  0  0  0
   -2.3905   12.7641   38.4954 C   0  0  2  0  0  0  0  0  0  0  0  0
   -3.0173   12.6223   37.1280 O   0  0  0  0  0  0  0  0  0  0  0  0
   -2.8587   11.5897   39.5196 C   0  0  1  0  0  0  0  0  0  0  0  0
   -2.3914   10.2464   39.1737 O   0  0  0  0  0  0  0  0  0  0  0  0
   -2.4338   11.6091   36.4137 C   0  0  1  0  0  0  0  0  0  0  0  0
   -2.9710   11.4791   35.0552 C   0  0  2  0  0  0  0  0  0  0  0  0
   -4.2481   10.9370   35.1634 O   0  0  0  0  0  0  0  0  0  0  0  0
   -1.8473   10.6769   34.3645 C   0  0  2  0  0  0  0  0  0  0  0  0
   -2.4356    9.4338   33.9193 O   0  0  0  0  0  0  0  0  0  0  0  0
   -0.8143   10.4742   35.4235 C   0  0  2  0  0  0  0  0  0  0  0  0
   -1.0454   11.7320   36.1532 O   0  0  0  0  0  0  0  0  0  0  0  0
    0.6401   10.4496   34.8248 C   0  0  0  0  0  0  0  0  0  0  0  0
    1.6821   10.2480   35.8262 O   0  0  0  0  0  0  0  0  0  0  0  0
   -1.5558    8.4982   33.2253 C   0  0  2  0  0  0  0  0  0  0  0  0
   -1.1345    9.1469   31.8055 C   0  0  2  0  0  0  0  0  0  0  0  0
   -2.3713    9.4381   31.0104 N   0  0  0  0  0  0  0  0  0  0  0  0
   -0.1634    8.1126   31.0497 C   0  0  1  0  0  0  0  0  0  0  0  0
    0.9955    7.8970   31.9111 O   0  0  0  0  0  0  0  0  0  0  0  0
   -0.9447    6.7472   30.7859 C   0  0  2  0  0  0  0  0  0  0  0  0
   -2.0912    7.0444   29.8985 O   0  0  0  0  0  0  0  0  0  0  0  0
   -1.4098    6.1408   32.2274 C   0  0  1  0  0  0  0  0  0  0  0  0
   -2.2607    7.1538   32.9517 O   0  0  0  0  0  0  0  0  0  0  0  0
   -2.1965    4.8066   32.0048 C   0  0  0  0  0  0  0  0  0  0  0  0
   -2.6252    4.1651   33.2862 N   0  0  0  0  0  0  0  0  0  0  0  0
  1  3  1  0  0  0  0
  1  2  1  1  0  0  0
  3  4  1  1  0  0  0
  3  5  1  0  0  0  0
  5  6  1  6  0  0  0
  7  8  1  1  0  0  0
  7  5  1  0  0  0  0
  9 11  1  6  0  0  0
  9  7  1  0  0  0  0
 10  9  1  0  0  0  0
 10  1  1  0  0  0  0
 12 11  1  0  0  0  0
 13 14  1  1  0  0  0
 15 13  1  0  0  0  0
 16 17  1  1  0  0  0
 16 15  1  0  0  0  0
 18  2  1  6  0  0  0
 18 19  1  0  0  0  0
 18 16  1  0  0  0  0
 19 20  1  6  0  0  0
 19 21  1  0  0  0  0
 21 22  1  6  0  0  0
 21 13  1  0  0  0  0
 23 20  1  6  0  0  0
 23 29  1  0  0  0  0
 24 25  1  1  0  0  0
 24 26  1  0  0  0  0
 24 23  1  0  0  0  0
 26 27  1  1  0  0  0
 26 28  1  0  0  0  0
 28 30  1  6  0  0  0
 29 28  1  0  0  0  0
 30 31  1  0  0  0  0
 32 27  1  6  0  0  0
 32 40  1  0  0  0  0
 33 35  1  0  0  0  0
 33 32  1  0  0  0  0
 33 34  1  6  0  0  0
 35 36  1  1  0  0  0
 35 37  1  0  0  0  0
 37 38  1  6  0  0  0
 37 39  1  0  0  0  0
 39 41  1  6  0  0  0
 40 39  1  0  0  0  0
 41 42  1  0  0  0  0
M  END
>  <CHROM.1>
-171.73723247,-70.17062544,-169.74309554,165.87915756,-177.27896304,179.84275243
-179.77051828,-67.45974759,178.35365292,-2.31450839,12.15774194,35.99740110
2.91261108,-1.37457505,1.92331605

>  <Name>
lig.pdb

>  <RI>
0

>  <Rbt.Current_Directory>
/home/itssahil/PROJECTS/Mol_Feturizer/New_Systems/rnas/4wcr

>  <Rbt.Executable>
rbdock ($Id: //depot/dev/client3/rdock/2013.1/src/exe/rbdock.cxx#4 $)

>  <Rbt.Library>
libRbt.so (2013.1, Build901 2013/11/27)

>  <Rbt.Parameter_File>
/export/apps/rDock/src/rDock_2013.1_src/data/scripts/dock_solv.prm

>  <Rbt.Receptor>
prm/pocket_docking_5.prm

>  <SCORE>
-6.14917

>  <SCORE.INTER>
3.84175

>  <SCORE.INTER.CONST>
1

>  <SCORE.INTER.POLAR>
0

>  <SCORE.INTER.ROT>
9

>  <SCORE.INTER.SOLV>
13.1085

>  <SCORE.INTER.VDW>
-11.4083

>  <SCORE.INTER.norm>
0.0914703

>  <SCORE.INTRA>
-9.99242

>  <SCORE.INTRA.DIHEDRAL>
-13.2853

>  <SCORE.INTRA.DIHEDRAL.0>
16.2863

>  <SCORE.INTRA.POLAR>
0

>  <SCORE.INTRA.POLAR.0>
0

>  <SCORE.INTRA.REPUL>
-0.314433

>  <SCORE.INTRA.REPUL.0>
0.314433

>  <SCORE.INTRA.SOLV>
-5.89874

>  <SCORE.INTRA.SOLV.lig_0>
-103.824

>  <SCORE.INTRA.VDW>
1.17175

>  <SCORE.INTRA.VDW.0>
-5.30945

>  <SCORE.INTRA.norm>
-0.237915

>  <SCORE.RESTR>
0.00149824

>  <SCORE.RESTR.CAVITY>
0.00149824

>  <SCORE.RESTR.norm>
3.56725e-05

>  <SCORE.SYSTEM>
0

>  <SCORE.SYSTEM.CONST>
0

>  <SCORE.SYSTEM.DIHEDRAL>
0

>  <SCORE.SYSTEM.SOLV>
0

>  <SCORE.SYSTEM.norm>
0

>  <SCORE.heavy>
42

>  <SCORE.norm>
-0.146409

>  <RMSD>
4.694

$$$$
lig.pdb
 OpenBabel11021811513D
libRbt.so/2013.1/901 2013/11/27
 42 45  0  0  0  0  0  0  0  0999 V2000
   -0.6475   16.8511   36.4024 C   0  0  2  0  0  0  0  0  0  0  0  0
   -1.3569   17.6827   37.3731 O   0  0  0  0  0  0  0  0  0  0  0  0
    0.5481   17.7446   35.8436 C   0  0  2  0  0  0  0  0  0  0  0  0
    1.4675   18.1001   36.9280 N   0  0  0  0  0  0  0  0  0  0  0  0
   -0.0685   19.0400   35.1216 C   0  0  1  0  0  0  0  0  0  0  0  0
    0.9732   19.8823   34.5849 O   0  0  0  0  0  0  0  0  0  0  0  0
   -1.0154   18.5378   34.0182 C   0  0  2  0  0  0  0  0  0  0  0  0
   -1.5695   19.6331   33.3724 O   0  0  0  0  0  0  0  0  0  0  0  0
   -2.1530   17.6168   34.6555 C   0  0  2  0  0  0  0  0  0  0  0  0
   -1.5893   16.4821   35.3250 O   0  0  0  0  0  0  0  0  0  0  0  0
   -3.0958   17.0836   33.6143 C   0  0  0  0  0  0  0  0  0  0  0  0
   -2.3732   16.1443   32.8173 O   0  0  0  0  0  0  0  0  0  0  0  0
   -4.0947   16.9317   40.7956 C   0  0  2  0  0  0  0  0  0  0  0  0
   -5.2541   16.5155   41.5543 N   0  0  0  0  0  0  0  0  0  0  0  0
   -4.5245   17.9203   39.6438 C   0  0  0  0  0  0  0  0  0  0  0  0
   -3.2839   18.3837   38.8021 C   0  0  2  0  0  0  0  0  0  0  0  0
   -3.7251   19.2902   37.7441 N   0  0  0  0  0  0  0  0  0  0  0  0
   -2.5082   17.1609   38.1377 C   0  0  2  0  0  0  0  0  0  0  0  0
   -2.0585   16.2145   39.2882 C   0  0  2  0  0  0  0  0  0  0  0  0
   -1.3289   15.0972   38.5797 O   0  0  0  0  0  0  0  0  0  0  0  0
   -3.3558   15.6846   40.1151 C   0  0  1  0  0  0  0  0  0  0  0  0
   -3.0497   14.8265   41.2605 O   0  0  0  0  0  0  0  0  0  0  0  0
   -0.7233   14.2516   39.4716 C   0  0  1  0  0  0  0  0  0  0  0  0
   -0.0015   13.1518   38.8230 C   0  0  2  0  0  0  0  0  0  0  0  0
   -0.9530   12.2673   38.3241 O   0  0  0  0  0  0  0  0  0  0  0  0
    0.9473   12.7069   39.9566 C   0  0  2  0  0  0  0  0  0  0  0  0
    0.6212   11.3312   40.2576 O   0  0  0  0  0  0  0  0  0  0  0  0
    0.6460   13.6281   41.0925 C   0  0  2  0  0  0  0  0  0  0  0  0
    0.2939   14.8092   40.2871 O   0  0  0  0  0  0  0  0  0  0  0  0
    1.9233   13.9215   41.9624 C   0  0  0  0  0  0  0  0  0  0  0  0
    2.9692   14.6408   41.2427 O   0  0  0  0  0  0  0  0  0  0  0  0
   -0.5083   11.1011   41.1533 C   0  0  2  0  0  0  0  0  0  0  0  0
   -0.5452    9.5316   41.5399 C   0  0  2  0  0  0  0  0  0  0  0  0
   -0.6575    8.7177   40.2862 N   0  0  0  0  0  0  0  0  0  0  0  0
   -1.7888    9.2875   42.5287 C   0  0  1  0  0  0  0  0  0  0  0  0
   -1.5807   10.1292   43.7034 O   0  0  0  0  0  0  0  0  0  0  0  0
   -3.1446    9.6705   41.7807 C   0  0  2  0  0  0  0  0  0  0  0  0
   -3.2907    8.7692   40.6160 O   0  0  0  0  0  0  0  0  0  0  0  0
   -3.0609   11.2418   41.3494 C   0  0  1  0  0  0  0  0  0  0  0  0
   -1.8481   11.4643   40.4809 O   0  0  0  0  0  0  0  0  0  0  0  0
   -4.3706   11.6483   40.5957 C   0  0  0  0  0  0  0  0  0  0  0  0
   -5.5975   11.4871   41.4360 N   0  0  0  0  0  0  0  0  0  0  0  0
  1  3  1  0  0  0  0
  1  2  1  1  0  0  0
  3  4  1  1  0  0  0
  3  5  1  0  0  0  0
  5  6  1  6  0  0  0
  7  8  1  1  0  0  0
  7  5  1  0  0  0  0
  9 11  1  6  0  0  0
  9  7  1  0  0  0  0
 10  9  1  0  0  0  0
 10  1  1  0  0  0  0
 12 11  1  0  0  0  0
 13 14  1  6  0  0  0
 15 13  1  0  0  0  0
 16 17  1  6  0  0  0
 16 15  1  0  0  0  0
 18  2  1  1  0  0  0
 18 19  1  0  0  0  0
 18 16  1  0  0  0  0
 19 20  1  6  0  0  0
 19 21  1  0  0  0  0
 21 22  1  1  0  0  0
 21 13  1  0  0  0  0
 23 20  1  6  0  0  0
 23 29  1  0  0  0  0
 24 25  1  1  0  0  0
 24 26  1  0  0  0  0
 24 23  1  0  0  0  0
 26 27  1  1  0  0  0
 26 28  1  0  0  0  0
 28 30  1  1  0  0  0
 29 28  1  0  0  0  0
 30 31  1  0  0  0  0
 32 27  1  6  0  0  0
 32 40  1  0  0  0  0
 33 35  1  0  0  0  0
 33 32  1  0  0  0  0
 33 34  1  6  0  0  0
 35 36  1  1  0  0  0
 35 37  1  0  0  0  0
 37 38  1  6  0  0  0
 37 39  1  0  0  0  0
 39 41  1  6  0  0  0
 40 39  1  0  0  0  0
 41 42  1  0  0  0  0
M  END
>  <CHROM.1>
-177.76387905,68.93952887,-165.24938160,172.63951132,-179.93550975,-82.59435510
64.58213731,-170.95206562,60.77405254,-1.52048612,14.67297314,38.85388484
-1.53499104,-0.26149668,2.46897713

>  <Name>
lig.pdb

>  <RI>
0

>  <Rbt.Current_Directory>
/home/itssahil/PROJECTS/Mol_Feturizer/New_Systems/rnas/4wcr

>  <Rbt.Executable>
rbdock ($Id: //depot/dev/client3/rdock/2013.1/src/exe/rbdock.cxx#4 $)

>  <Rbt.Library>
libRbt.so (2013.1, Build901 2013/11/27)

>  <Rbt.Parameter_File>
/export/apps/rDock/src/rDock_2013.1_src/data/scripts/dock_solv.prm

>  <Rbt.Receptor>
prm/pocket_docking_7.prm

>  <SCORE>
-8.28793

>  <SCORE.INTER>
-0.802687

>  <SCORE.INTER.CONST>
1

>  <SCORE.INTER.POLAR>
0

>  <SCORE.INTER.ROT>
9

>  <SCORE.INTER.SOLV>
21.6149

>  <SCORE.INTER.VDW>
-17.3401

>  <SCORE.INTER.norm>
-0.0191116

>  <SCORE.INTRA>
-7.48524

>  <SCORE.INTRA.DIHEDRAL>
-11.5167

>  <SCORE.INTRA.DIHEDRAL.0>
16.2863

>  <SCORE.INTRA.POLAR>
0

>  <SCORE.INTRA.POLAR.0>
0

>  <SCORE.INTRA.REPUL>
-0.314433

>  <SCORE.INTRA.REPUL.0>
0.314433

>  <SCORE.INTRA.SOLV>
-3.6961

>  <SCORE.INTRA.SOLV.lig_0>
-103.824

>  <SCORE.INTRA.VDW>
1.69334

>  <SCORE.INTRA.VDW.0>
-5.30945

>  <SCORE.INTRA.norm>
-0.17822

>  <SCORE.RESTR>
0

>  <SCORE.RESTR.CAVITY>
0

>  <SCORE.RESTR.norm>
0

>  <SCORE.SYSTEM>
0

>  <SCORE.SYSTEM.CONST>
0

>  <SCORE.SYSTEM.DIHEDRAL>
0

>  <SCORE.SYSTEM.SOLV>
0

>  <SCORE.SYSTEM.norm>
0

>  <SCORE.heavy>
42

>  <SCORE.norm>
-0.197332

>  <RMSD>
4.747

$$$$
lig.pdb
 OpenBabel11021811513D
libRbt.so/2013.1/901 2013/11/27
 42 45  0  0  0  0  0  0  0  0999 V2000
   -1.9936   16.8604   34.5903 C   0  0  2  0  0  0  0  0  0  0  0  0
   -0.6079   16.9447   35.0484 O   0  0  0  0  0  0  0  0  0  0  0  0
   -2.3785   18.3178   34.0725 C   0  0  2  0  0  0  0  0  0  0  0  0
   -1.5258   18.6981   32.9429 N   0  0  0  0  0  0  0  0  0  0  0  0
   -2.2588   19.3497   35.2975 C   0  0  1  0  0  0  0  0  0  0  0  0
   -2.6082   20.6883   34.8868 O   0  0  0  0  0  0  0  0  0  0  0  0
   -3.1865   18.8396   36.4137 C   0  0  2  0  0  0  0  0  0  0  0  0
   -3.1072   19.7082   37.4921 O   0  0  0  0  0  0  0  0  0  0  0  0
   -2.7616   17.3612   36.8406 C   0  0  2  0  0  0  0  0  0  0  0  0
   -2.8406   16.4566   35.7319 O   0  0  0  0  0  0  0  0  0  0  0  0
   -3.6508   16.8080   37.9178 C   0  0  0  0  0  0  0  0  0  0  0  0
   -3.1034   15.5545   38.3287 O   0  0  0  0  0  0  0  0  0  0  0  0
    1.9381   14.8637   38.0417 C   0  0  2  0  0  0  0  0  0  0  0  0
    2.4243   14.3513   39.3043 N   0  0  0  0  0  0  0  0  0  0  0  0
    1.7304   16.4250   38.1319 C   0  0  0  0  0  0  0  0  0  0  0  0
    1.1985   17.0054   36.7745 C   0  0  2  0  0  0  0  0  0  0  0  0
    1.0133   18.4494   36.9024 N   0  0  0  0  0  0  0  0  0  0  0  0
   -0.1844   16.3493   36.3323 C   0  0  2  0  0  0  0  0  0  0  0  0
    0.0459   14.8150   36.2114 C   0  0  2  0  0  0  0  0  0  0  0  0
   -1.2985   14.2753   35.7826 O   0  0  0  0  0  0  0  0  0  0  0  0
    0.5329   14.2089   37.6407 C   0  0  1  0  0  0  0  0  0  0  0  0
    0.8345   12.7767   37.6334 O   0  0  0  0  0  0  0  0  0  0  0  0
   -1.2010   12.9797   35.3476 C   0  0  1  0  0  0  0  0  0  0  0  0
   -2.3798   12.1717   35.6771 C   0  0  2  0  0  0  0  0  0  0  0  0
   -2.3454   11.9254   37.0463 O   0  0  0  0  0  0  0  0  0  0  0  0
   -2.2310   11.0040   34.6783 C   0  0  2  0  0  0  0  0  0  0  0  0
   -2.1025    9.7973   35.4637 O   0  0  0  0  0  0  0  0  0  0  0  0
   -0.9932   11.3173   33.9039 C   0  0  2  0  0  0  0  0  0  0  0  0
   -1.1127   12.7841   33.9460 O   0  0  0  0  0  0  0  0  0  0  0  0
   -1.0862   10.8042   32.4198 C   0  0  0  0  0  0  0  0  0  0  0  0
   -2.1827   11.3985   31.6625 O   0  0  0  0  0  0  0  0  0  0  0  0
   -3.3392    9.1173   35.8366 C   0  0  2  0  0  0  0  0  0  0  0  0
   -3.7403    9.5678   37.3367 C   0  0  2  0  0  0  0  0  0  0  0  0
   -2.6180    9.2276   38.2701 N   0  0  0  0  0  0  0  0  0  0  0  0
   -5.1044    8.8179   37.7379 C   0  0  1  0  0  0  0  0  0  0  0  0
   -6.1189    9.2128   36.7650 O   0  0  0  0  0  0  0  0  0  0  0  0
   -4.8694    7.2404   37.7143 C   0  0  2  0  0  0  0  0  0  0  0  0
   -3.8436    6.9190   38.7315 O   0  0  0  0  0  0  0  0  0  0  0  0
   -4.4101    6.8173   36.2070 C   0  0  1  0  0  0  0  0  0  0  0  0
   -3.1699    7.5842   35.8218 O   0  0  0  0  0  0  0  0  0  0  0  0
   -4.1533    5.2747   36.1516 C   0  0  0  0  0  0  0  0  0  0  0  0
   -2.9825    4.8512   36.9807 N   0  0  0  0  0  0  0  0  0  0  0  0
  1  3  1  0  0  0  0
  1  2  1  1  0  0  0
  3  4  1  6  0  0  0
  3  5  1  0  0  0  0
  5  6  1  6  0  0  0
  7  8  1  1  0  0  0
  7  5  1  0  0  0  0
  9 11  1  1  0  0  0
  9  7  1  0  0  0  0
 10  9  1  0  0  0  0
 10  1  1  0  0  0  0
 12 11  1  0  0  0  0
 13 14  1  1  0  0  0
 15 13  1  0  0  0  0
 16 17  1  1  0  0  0
 16 15  1  0  0  0  0
 18  2  1  6  0  0  0
 18 19  1  0  0  0  0
 18 16  1  0  0  0  0
 19 20  1  1  0  0  0
 19 21  1  0  0  0  0
 21 22  1  6  0  0  0
 21 13  1  0  0  0  0
 23 20  1  6  0  0  0
 23 29  1  0  0  0  0
 24 25  1  1  0  0  0
 24 26  1  0  0  0  0
 24 23  1  0  0  0  0
 26 27  1  1  0  0  0
 26 28  1  0  0  0  0
 28 30  1  6  0  0  0
 29 28  1  0  0  0  0
 30 31  1  0  0  0  0
 32 27  1  1  0  0  0
 32 40  1  0  0  0  0
 33 35  1  0  0  0  0
 33 32  1  0  0  0  0
 33 34  1  1  0  0  0
 35 36  1  6  0  0  0
 35 37  1  0  0  0  0
 37 38  1  1  0  0  0
 37 39  1  0  0  0  0
 39 41  1  1  0  0  0
 40 39  1  0  0  0  0
 41 42  1  0  0  0  0
M  END
>  <CHROM.1>
134.55630490,-173.74451712,-161.23363013,166.67659656,145.42494321,88.31359101
60.59257439,-97.19306584,-66.37345331,-1.96757520,13.27621910,36.18469885
1.27495120,-0.69344771,-0.23973020

>  <Name>
lig.pdb

>  <RI>
0

>  <Rbt.Current_Directory>
/home/itssahil/PROJECTS/Mol_Feturizer/New_Systems/rnas/4wcr

>  <Rbt.Executable>
rbdock ($Id: //depot/dev/client3/rdock/2013.1/src/exe/rbdock.cxx#4 $)

>  <Rbt.Library>
libRbt.so (2013.1, Build901 2013/11/27)

>  <Rbt.Parameter_File>
/export/apps/rDock/src/rDock_2013.1_src/data/scripts/dock_solv.prm

>  <Rbt.Receptor>
prm/pocket_docking_4.prm

>  <SCORE>
-2.83032

>  <SCORE.INTER>
-4.68578

>  <SCORE.INTER.CONST>
1

>  <SCORE.INTER.POLAR>
0

>  <SCORE.INTER.ROT>
9

>  <SCORE.INTER.SOLV>
25.9513

>  <SCORE.INTER.VDW>
-21.3743

>  <SCORE.INTER.norm>
-0.111566

>  <SCORE.INTRA>
1.85546

>  <SCORE.INTRA.DIHEDRAL>
5.72782

>  <SCORE.INTRA.DIHEDRAL.0>
16.2863

>  <SCORE.INTRA.POLAR>
0

>  <SCORE.INTRA.POLAR.0>
0

>  <SCORE.INTRA.REPUL>
-0.314433

>  <SCORE.INTRA.REPUL.0>
0.314433

>  <SCORE.INTRA.SOLV>
-0.819181

>  <SCORE.INTRA.SOLV.lig_0>
-103.824

>  <SCORE.INTRA.VDW>
0.973311

>  <SCORE.INTRA.VDW.0>
-5.30945

>  <SCORE.INTRA.norm>
0.0441777

>  <SCORE.RESTR>
0

>  <SCORE.RESTR.CAVITY>
0

>  <SCORE.RESTR.norm>
0

>  <SCORE.SYSTEM>
0

>  <SCORE.SYSTEM.CONST>
0

>  <SCORE.SYSTEM.DIHEDRAL>
0

>  <SCORE.SYSTEM.SOLV>
0

>  <SCORE.SYSTEM.norm>
0

>  <SCORE.heavy>
42

>  <SCORE.norm>
-0.0673886

>  <RMSD>
4.763

$$$$
lig.pdb
 OpenBabel11021811513D
libRbt.so/2013.1/901 2013/11/27
 42 45  0  0  0  0  0  0  0  0999 V2000
   -3.4803   13.6734   37.0472 C   0  0  2  0  0  0  0  0  0  0  0  0
   -2.5531   13.9009   38.1543 O   0  0  0  0  0  0  0  0  0  0  0  0
   -2.7250   14.1577   35.7300 C   0  0  2  0  0  0  0  0  0  0  0  0
   -1.5176   13.3563   35.5121 N   0  0  0  0  0  0  0  0  0  0  0  0
   -2.3970   15.7239   35.8686 C   0  0  1  0  0  0  0  0  0  0  0  0
   -1.7204   16.2201   34.6945 O   0  0  0  0  0  0  0  0  0  0  0  0
   -3.7335   16.4493   36.1010 C   0  0  2  0  0  0  0  0  0  0  0  0
   -3.4880   17.8085   36.2276 O   0  0  0  0  0  0  0  0  0  0  0  0
   -4.4438   15.8745   37.4100 C   0  0  2  0  0  0  0  0  0  0  0  0
   -4.7015   14.4701   37.2879 O   0  0  0  0  0  0  0  0  0  0  0  0
   -5.7659   16.5383   37.6716 C   0  0  0  0  0  0  0  0  0  0  0  0
   -6.2818   16.0077   38.8931 O   0  0  0  0  0  0  0  0  0  0  0  0
   -1.8828   12.0371   42.1354 C   0  0  2  0  0  0  0  0  0  0  0  0
   -2.0999   11.6127   43.5013 N   0  0  0  0  0  0  0  0  0  0  0  0
   -2.0622   13.5999   42.0162 C   0  0  0  0  0  0  0  0  0  0  0  0
   -1.8359   14.0856   40.5413 C   0  0  2  0  0  0  0  0  0  0  0  0
   -2.0179   15.5340   40.4730 N   0  0  0  0  0  0  0  0  0  0  0  0
   -2.8376   13.3949   39.5127 C   0  0  2  0  0  0  0  0  0  0  0  0
   -2.6225   11.8571   39.6148 C   0  0  2  0  0  0  0  0  0  0  0  0
   -3.5940   11.2836   38.6099 O   0  0  0  0  0  0  0  0  0  0  0  0
   -2.9242   11.3504   41.1313 C   0  0  1  0  0  0  0  0  0  0  0  0
   -2.7004    9.9223   41.3611 O   0  0  0  0  0  0  0  0  0  0  0  0
   -3.3522    9.9540   38.3838 C   0  0  1  0  0  0  0  0  0  0  0  0
   -4.2058    9.3837   37.3363 C   0  0  2  0  0  0  0  0  0  0  0  0
   -5.4884    9.2663   37.8635 O   0  0  0  0  0  0  0  0  0  0  0  0
   -3.4080    8.1179   36.9564 C   0  0  2  0  0  0  0  0  0  0  0  0
   -4.2632    6.9865   37.2359 O   0  0  0  0  0  0  0  0  0  0  0  0
   -2.1980    8.1504   37.8307 C   0  0  2  0  0  0  0  0  0  0  0  0
   -2.0611    9.6145   37.9060 O   0  0  0  0  0  0  0  0  0  0  0  0
   -0.9447    7.5207   37.1186 C   0  0  0  0  0  0  0  0  0  0  0  0
    0.2446    7.4711   37.9624 O   0  0  0  0  0  0  0  0  0  0  0  0
   -3.7084    5.6605   36.9811 C   0  0  2  0  0  0  0  0  0  0  0  0
   -3.3054    5.5645   35.4182 C   0  0  2  0  0  0  0  0  0  0  0  0
   -4.5193    5.8278   34.5793 N   0  0  0  0  0  0  0  0  0  0  0  0
   -2.6922    4.1036   35.1470 C   0  0  1  0  0  0  0  0  0  0  0  0
   -1.5285    3.9533   36.0159 O   0  0  0  0  0  0  0  0  0  0  0  0
   -3.7954    2.9971   35.4681 C   0  0  2  0  0  0  0  0  0  0  0  0
   -4.9307    3.2059   34.5421 O   0  0  0  0  0  0  0  0  0  0  0  0
   -4.2284    3.1503   37.0337 C   0  0  1  0  0  0  0  0  0  0  0  0
   -4.7339    4.5490   37.2844 O   0  0  0  0  0  0  0  0  0  0  0  0
   -5.3249    2.0890   37.3798 C   0  0  0  0  0  0  0  0  0  0  0  0
   -6.5247    2.1834   36.4917 N   0  0  0  0  0  0  0  0  0  0  0  0
  1  3  1  0  0  0  0
  1  2  1  1  0  0  0
  3  4  1  1  0  0  0
  3  5  1  0  0  0  0
  5  6  1  6  0  0  0
  7  8  1  1  0  0  0
  7  5  1  0  0  0  0
  9 11  1  6  0  0  0
  9  7  1  0  0  0  0
 10  9  1  0  0  0  0
 10  1  1  0  0  0  0
 12 11  1  0  0  0  0
 13 14  1  1  0  0  0
 15 13  1  0  0  0  0
 16 17  1  1  0  0  0
 16 15  1  0  0  0  0
 18  2  1  6  0  0  0
 18 19  1  0  0  0  0
 18 16  1  0  0  0  0
 19 20  1  6  0  0  0
 19 21  1  0  0  0  0
 21 22  1  6  0  0  0
 21 13  1  0  0  0  0
 23 20  1  6  0  0  0
 23 29  1  0  0  0  0
 24 25  1  1  0  0  0
 24 26  1  0  0  0  0
 24 23  1  0  0  0  0
 26 27  1  1  0  0  0
 26 28  1  0  0  0  0
 28 30  1  6  0  0  0
 29 28  1  0  0  0  0
 30 31  1  0  0  0  0
 32 27  1  6  0  0  0
 32 40  1  0  0  0  0
 33 35  1  0  0  0  0
 33 32  1  0  0  0  0
 33 34  1  6  0  0  0
 35 36  1  1  0  0  0
 35 37  1  0  0  0  0
 37 38  1  6  0  0  0
 37 39  1  0  0  0  0
 39 41  1  6  0  0  0
 40 39  1  0  0  0  0
 41 42  1  0  0  0  0
M  END
>  <CHROM.1>
-171.30185495,-176.99326520,-166.83202465,168.13987465,-175.48975160,-178.67965425
-177.10401290,-59.32210956,-56.39344330,-3.30443869,10.20791965,37.71278086
1.32346476,-1.31909821,-0.07700240

>  <Name>
lig.pdb

>  <RI>
0

>  <Rbt.Current_Directory>
/home/itssahil/PROJECTS/Mol_Feturizer/New_Systems/rnas/4wcr

>  <Rbt.Executable>
rbdock ($Id: //depot/dev/client3/rdock/2013.1/src/exe/rbdock.cxx#4 $)

>  <Rbt.Library>
libRbt.so (2013.1, Build901 2013/11/27)

>  <Rbt.Parameter_File>
/export/apps/rDock/src/rDock_2013.1_src/data/scripts/dock_solv.prm

>  <Rbt.Receptor>
prm/pocket_docking_5.prm

>  <SCORE>
-2.84996

>  <SCORE.INTER>
6.33001

>  <SCORE.INTER.CONST>
1

>  <SCORE.INTER.POLAR>
0

>  <SCORE.INTER.ROT>
9

>  <SCORE.INTER.SOLV>
12.0164

>  <SCORE.INTER.VDW>
-9.38547

>  <SCORE.INTER.norm>
0.150715

>  <SCORE.INTRA>
-9.17997

>  <SCORE.INTRA.DIHEDRAL>
-13.6727

>  <SCORE.INTRA.DIHEDRAL.0>
16.2863

>  <SCORE.INTRA.POLAR>
0

>  <SCORE.INTRA.POLAR.0>
0

>  <SCORE.INTRA.REPUL>
-0.314433

>  <SCORE.INTRA.REPUL.0>
0.314433

>  <SCORE.INTRA.SOLV>
-3.8809

>  <SCORE.INTRA.SOLV.lig_0>
-103.824

>  <SCORE.INTRA.VDW>
1.16901

>  <SCORE.INTRA.VDW.0>
-5.30945

>  <SCORE.INTRA.norm>
-0.218571

>  <SCORE.RESTR>
0

>  <SCORE.RESTR.CAVITY>
0

>  <SCORE.RESTR.norm>
0

>  <SCORE.SYSTEM>
0

>  <SCORE.SYSTEM.CONST>
0

>  <SCORE.SYSTEM.DIHEDRAL>
0

>  <SCORE.SYSTEM.SOLV>
0

>  <SCORE.SYSTEM.norm>
0

>  <SCORE.heavy>
42

>  <SCORE.norm>
-0.0678561

>  <RMSD>
4.831

$$$$
lig.pdb
 OpenBabel11021811513D
libRbt.so/2013.1/901 2013/11/27
 42 45  0  0  0  0  0  0  0  0999 V2000
   -2.0109   17.9303   33.8271 C   0  0  2  0  0  0  0  0  0  0  0  0
   -3.4323   17.7234   33.5554 O   0  0  0  0  0  0  0  0  0  0  0  0
   -1.8547   17.9053   35.4130 C   0  0  2  0  0  0  0  0  0  0  0  0
   -2.2557   16.5993   35.9433 N   0  0  0  0  0  0  0  0  0  0  0  0
   -2.7211   19.1055   36.0365 C   0  0  1  0  0  0  0  0  0  0  0  0
   -2.6070   19.1375   37.4748 O   0  0  0  0  0  0  0  0  0  0  0  0
   -2.2144   20.4106   35.3991 C   0  0  2  0  0  0  0  0  0  0  0  0
   -2.9436   21.4719   35.9144 O   0  0  0  0  0  0  0  0  0  0  0  0
   -2.3640   20.3343   33.8116 C   0  0  2  0  0  0  0  0  0  0  0  0
   -1.6134   19.2401   33.2703 O   0  0  0  0  0  0  0  0  0  0  0  0
   -1.8641   21.5805   33.1376 C   0  0  0  0  0  0  0  0  0  0  0  0
   -2.2680   21.5235   31.7690 O   0  0  0  0  0  0  0  0  0  0  0  0
   -6.1767   16.2704   30.3727 C   0  0  2  0  0  0  0  0  0  0  0  0
   -6.7036   15.9401   29.0664 N   0  0  0  0  0  0  0  0  0  0  0  0
   -5.7634   17.7920   30.4238 C   0  0  0  0  0  0  0  0  0  0  0  0
   -5.1839   18.1752   31.8308 C   0  0  2  0  0  0  0  0  0  0  0  0
   -4.8076   19.5873   31.8337 N   0  0  0  0  0  0  0  0  0  0  0  0
   -3.9077   17.3047   32.2209 C   0  0  2  0  0  0  0  0  0  0  0  0
   -4.3404   15.8101   32.2027 C   0  0  2  0  0  0  0  0  0  0  0  0
   -3.0867   15.0608   32.5896 O   0  0  0  0  0  0  0  0  0  0  0  0
   -4.8775   15.4019   30.7220 C   0  0  1  0  0  0  0  0  0  0  0  0
   -5.3654   14.0275   30.5993 O   0  0  0  0  0  0  0  0  0  0  0  0
   -3.3584   13.7503   32.8828 C   0  0  1  0  0  0  0  0  0  0  0  0
   -2.1526   12.9566   33.1419 C   0  0  2  0  0  0  0  0  0  0  0  0
   -1.5144   12.7596   31.9210 O   0  0  0  0  0  0  0  0  0  0  0  0
   -2.7449   11.7535   33.9068 C   0  0  2  0  0  0  0  0  0  0  0  0
   -2.4538   10.5756   33.1211 O   0  0  0  0  0  0  0  0  0  0  0  0
   -4.2085   12.0367   33.9927 C   0  0  2  0  0  0  0  0  0  0  0  0
   -4.1114   13.5043   34.0588 O   0  0  0  0  0  0  0  0  0  0  0  0
   -4.8369   11.4708   35.3191 C   0  0  0  0  0  0  0  0  0  0  0  0
   -6.2924   11.5646   35.3639 O   0  0  0  0  0  0  0  0  0  0  0  0
   -1.0683   10.1161   33.1086 C   0  0  2  0  0  0  0  0  0  0  0  0
   -1.0179    8.6565   32.4148 C   0  0  2  0  0  0  0  0  0  0  0  0
   -1.9059    7.7185   33.1753 N   0  0  0  0  0  0  0  0  0  0  0  0
    0.5108    8.1597   32.4016 C   0  0  1  0  0  0  0  0  0  0  0  0
    1.2805    9.1443   31.6468 O   0  0  0  0  0  0  0  0  0  0  0  0
    1.0431    8.0412   33.9006 C   0  0  2  0  0  0  0  0  0  0  0  0
    0.2263    7.0196   34.5930 O   0  0  0  0  0  0  0  0  0  0  0  0
    0.9291    9.5116   34.5983 C   0  0  1  0  0  0  0  0  0  0  0  0
   -0.4994    9.9916   34.5369 O   0  0  0  0  0  0  0  0  0  0  0  0
    1.4279    9.4285   36.0792 C   0  0  0  0  0  0  0  0  0  0  0  0
    1.2905   10.7256   36.8114 N   0  0  0  0  0  0  0  0  0  0  0  0
  1  3  1  0  0  0  0
  1  2  1  1  0  0  0
  3  4  1  1  0  0  0
  3  5  1  0  0  0  0
  5  6  1  1  0  0  0
  7  8  1  1  0  0  0
  7  5  1  0  0  0  0
  9 11  1  6  0  0  0
  9  7  1  0  0  0  0
 10  9  1  0  0  0  0
 10  1  1  0  0  0  0
 12 11  1  0  0  0  0
 13 14  1  6  0  0  0
 15 13  1  0  0  0  0
 16 17  1  6  0  0  0
 16 15  1  0  0  0  0
 18  2  1  1  0  0  0
 18 19  1  0  0  0  0
 18 16  1  0  0  0  0
 19 20  1  6  0  0  0
 19 21  1  0  0  0  0
 21 22  1  1  0  0  0
 21 13  1  0  0  0  0
 23 20  1  1  0  0  0
 23 29  1  0  0  0  0
 24 25  1  6  0  0  0
 24 26  1  0  0  0  0
 24 23  1  0  0  0  0
 26 27  1  6  0  0  0
 26 28  1  0  0  0  0
 28 30  1  1  0  0  0
 29 28  1  0  0  0  0
 30 31  1  0  0  0  0
 32 27  1  1  0  0  0
 32 40  1  0  0  0  0
 33 35  1  0  0  0  0
 33 32  1  0  0  0  0
 33 34  1  1  0  0  0
 35 36  1  6  0  0  0
 35 37  1  0  0  0  0
 37 38  1  1  0  0  0
 37 39  1  0  0  0  0
 39 41  1  1  0  0  0
 40 39  1  0  0  0  0
 41 42  1  0  0  0  0
M  END
>  <CHROM.1>
-162.31646542,-169.22186752,-135.72699038,167.78494210,174.63490924,72.72613656
-172.20545881,169.48488991,-177.11420312,-2.56468836,14.46052876,33.45066116
-1.94942767,0.75737959,-2.92131815

>  <Name>
lig.pdb

>  <RI>
0

>  <Rbt.Current_Directory>
/home/itssahil/PROJECTS/Mol_Feturizer/New_Systems/rnas/4wcr

>  <Rbt.Executable>
rbdock ($Id: //depot/dev/client3/rdock/2013.1/src/exe/rbdock.cxx#4 $)

>  <Rbt.Library>
libRbt.so (2013.1, Build901 2013/11/27)

>  <Rbt.Parameter_File>
/export/apps/rDock/src/rDock_2013.1_src/data/scripts/dock_solv.prm

>  <Rbt.Receptor>
prm/pocket_docking_8.prm

>  <SCORE>
-16.2479

>  <SCORE.INTER>
-11.2288

>  <SCORE.INTER.CONST>
1

>  <SCORE.INTER.POLAR>
0

>  <SCORE.INTER.ROT>
9

>  <SCORE.INTER.SOLV>
27.8454

>  <SCORE.INTER.VDW>
-26.3676

>  <SCORE.INTER.norm>
-0.267352

>  <SCORE.INTRA>
-5.01913

>  <SCORE.INTRA.DIHEDRAL>
-5.53487

>  <SCORE.INTRA.DIHEDRAL.0>
16.2863

>  <SCORE.INTRA.POLAR>
0

>  <SCORE.INTRA.POLAR.0>
0

>  <SCORE.INTRA.REPUL>
-0.266342

>  <SCORE.INTRA.REPUL.0>
0.314433

>  <SCORE.INTRA.SOLV>
-3.11809

>  <SCORE.INTRA.SOLV.lig_0>
-103.824

>  <SCORE.INTRA.VDW>
0.639064

>  <SCORE.INTRA.VDW.0>
-5.30945

>  <SCORE.INTRA.norm>
-0.119503

>  <SCORE.RESTR>
0

>  <SCORE.RESTR.CAVITY>
0

>  <SCORE.RESTR.norm>
0

>  <SCORE.SYSTEM>
0

>  <SCORE.SYSTEM.CONST>
0

>  <SCORE.SYSTEM.DIHEDRAL>
0

>  <SCORE.SYSTEM.SOLV>
0

>  <SCORE.SYSTEM.norm>
0

>  <SCORE.heavy>
42

>  <SCORE.norm>
-0.386855

>  <RMSD>
4.849

$$$$
lig.pdb
 OpenBabel11021811513D
libRbt.so/2013.1/901 2013/11/27
 42 45  0  0  0  0  0  0  0  0999 V2000
   -1.8097   16.3541   38.3884 C   0  0  2  0  0  0  0  0  0  0  0  0
   -2.0734   15.0537   37.7748 O   0  0  0  0  0  0  0  0  0  0  0  0
   -2.6977   17.4092   37.5895 C   0  0  2  0  0  0  0  0  0  0  0  0
   -4.1208   17.0925   37.7379 N   0  0  0  0  0  0  0  0  0  0  0  0
   -2.2344   17.4152   36.0516 C   0  0  1  0  0  0  0  0  0  0  0  0
   -3.0005   18.3646   35.2807 O   0  0  0  0  0  0  0  0  0  0  0  0
   -0.7329   17.7490   36.0306 C   0  0  2  0  0  0  0  0  0  0  0  0
   -0.2964   17.7611   34.7141 O   0  0  0  0  0  0  0  0  0  0  0  0
    0.0755   16.6727   36.8888 C   0  0  2  0  0  0  0  0  0  0  0  0
   -0.3691   16.6533   38.2510 O   0  0  0  0  0  0  0  0  0  0  0  0
    1.5489   16.9649   36.9161 C   0  0  0  0  0  0  0  0  0  0  0  0
    1.7222   18.2600   37.4926 O   0  0  0  0  0  0  0  0  0  0  0  0
    0.0473   12.3358   40.5833 C   0  0  2  0  0  0  0  0  0  0  0  0
    0.4813   11.1301   41.2549 N   0  0  0  0  0  0  0  0  0  0  0  0
   -1.5254   12.4497   40.6322 C   0  0  0  0  0  0  0  0  0  0  0  0
   -2.0225   13.7487   39.9057 C   0  0  2  0  0  0  0  0  0  0  0  0
   -3.4813   13.8123   39.9672 N   0  0  0  0  0  0  0  0  0  0  0  0
   -1.5719   13.8021   38.3784 C   0  0  2  0  0  0  0  0  0  0  0  0
   -0.0179   13.7267   38.3486 C   0  0  2  0  0  0  0  0  0  0  0  0
    0.3241   13.7927   36.8785 O   0  0  0  0  0  0  0  0  0  0  0  0
    0.4877   12.3451   39.0438 C   0  0  1  0  0  0  0  0  0  0  0  0
    1.9409   12.1896   39.1228 O   0  0  0  0  0  0  0  0  0  0  0  0
    0.0386   12.6114   36.2456 C   0  0  1  0  0  0  0  0  0  0  0  0
   -0.0699   12.7501   34.7896 C   0  0  2  0  0  0  0  0  0  0  0  0
   -1.2643   13.4128   34.5231 O   0  0  0  0  0  0  0  0  0  0  0  0
    0.1198   11.2871   34.3347 C   0  0  2  0  0  0  0  0  0  0  0  0
   -1.0917   10.9044   33.6452 O   0  0  0  0  0  0  0  0  0  0  0  0
    0.3274   10.5170   35.5970 C   0  0  2  0  0  0  0  0  0  0  0  0
    1.0062   11.5808   36.3555 O   0  0  0  0  0  0  0  0  0  0  0  0
    1.2953    9.2953   35.3843 C   0  0  0  0  0  0  0  0  0  0  0  0
    0.8543    8.3733   34.3429 O   0  0  0  0  0  0  0  0  0  0  0  0
   -2.2051   10.4469   34.4710 C   0  0  2  0  0  0  0  0  0  0  0  0
   -3.2667    9.6806   33.5224 C   0  0  2  0  0  0  0  0  0  0  0  0
   -3.7248   10.6130   32.4420 N   0  0  0  0  0  0  0  0  0  0  0  0
   -4.4870    9.1770   34.4397 C   0  0  1  0  0  0  0  0  0  0  0  0
   -3.9288    8.2885   35.4548 O   0  0  0  0  0  0  0  0  0  0  0  0
   -5.2023   10.4359   35.1089 C   0  0  2  0  0  0  0  0  0  0  0  0
   -5.7515   11.2769   34.0220 O   0  0  0  0  0  0  0  0  0  0  0  0
   -4.0986   11.2258   36.0144 C   0  0  1  0  0  0  0  0  0  0  0  0
   -2.9291   11.6271   35.1507 O   0  0  0  0  0  0  0  0  0  0  0  0
   -4.7631   12.4798   36.6738 C   0  0  0  0  0  0  0  0  0  0  0  0
   -5.8751   12.1232   37.6084 N   0  0  0  0  0  0  0  0  0  0  0  0
  1  3  1  0  0  0  0
  1  2  1  6  0  0  0
  3  4  1  6  0  0  0
  3  5  1  0  0  0  0
  5  6  1  6  0  0  0
  7  8  1  6  0  0  0
  7  5  1  0  0  0  0
  9 11  1  1  0  0  0
  9  7  1  0  0  0  0
 10  9  1  0  0  0  0
 10  1  1  0  0  0  0
 12 11  1  0  0  0  0
 13 14  1  6  0  0  0
 15 13  1  0  0  0  0
 16 17  1  6  0  0  0
 16 15  1  0  0  0  0
 18  2  1  1  0  0  0
 18 19  1  0  0  0  0
 18 16  1  0  0  0  0
 19 20  1  6  0  0  0
 19 21  1  0  0  0  0
 21 22  1  1  0  0  0
 21 13  1  0  0  0  0
 23 20  1  1  0  0  0
 23 29  1  0  0  0  0
 24 25  1  1  0  0  0
 24 26  1  0  0  0  0
 24 23  1  0  0  0  0
 26 27  1  1  0  0  0
 26 28  1  0  0  0  0
 28 30  1  6  0  0  0
 29 28  1  0  0  0  0
 30 31  1  0  0  0  0
 32 27  1  6  0  0  0
 32 40  1  0  0  0  0
 33 35  1  0  0  0  0
 33 32  1  0  0  0  0
 33 34  1  6  0  0  0
 35 36  1  1  0  0  0
 35 37  1  0  0  0  0
 37 38  1  6  0  0  0
 37 39  1  0  0  0  0
 39 41  1  6  0  0  0
 40 39  1  0  0  0  0
 41 42  1  0  0  0  0
M  END
>  <CHROM.1>
-171.07995102,59.63850324,52.60967350,-74.20623257,161.10605940,-83.68516041
-56.55315771,-163.77598519,62.48180578,-1.50952940,13.18255256,36.57192640
1.24820662,-0.57001198,0.22388988

>  <Name>
lig.pdb

>  <RI>
0

>  <Rbt.Current_Directory>
/home/itssahil/PROJECTS/Mol_Feturizer/New_Systems/rnas/4wcr

>  <Rbt.Executable>
rbdock ($Id: //depot/dev/client3/rdock/2013.1/src/exe/rbdock.cxx#4 $)

>  <Rbt.Library>
libRbt.so (2013.1, Build901 2013/11/27)

>  <Rbt.Parameter_File>
/export/apps/rDock/src/rDock_2013.1_src/data/scripts/dock_solv.prm

>  <Rbt.Receptor>
prm/pocket_docking_5.prm

>  <SCORE>
-6.31663

>  <SCORE.INTER>
-1.26056

>  <SCORE.INTER.CONST>
1

>  <SCORE.INTER.POLAR>
0

>  <SCORE.INTER.ROT>
9

>  <SCORE.INTER.SOLV>
10.3862

>  <SCORE.INTER.VDW>
-13.9024

>  <SCORE.INTER.norm>
-0.0300132

>  <SCORE.INTRA>
-5.06283

>  <SCORE.INTRA.DIHEDRAL>
-8.89448

>  <SCORE.INTRA.DIHEDRAL.0>
16.2863

>  <SCORE.INTRA.POLAR>
0

>  <SCORE.INTRA.POLAR.0>
0

>  <SCORE.INTRA.REPUL>
-0.314412

>  <SCORE.INTRA.REPUL.0>
0.314433

>  <SCORE.INTRA.SOLV>
-1.55319

>  <SCORE.INTRA.SOLV.lig_0>
-103.824

>  <SCORE.INTRA.VDW>
1.73307

>  <SCORE.INTRA.VDW.0>
-5.30945

>  <SCORE.INTRA.norm>
-0.120544

>  <SCORE.RESTR>
0.00675406

>  <SCORE.RESTR.CAVITY>
0.00675406

>  <SCORE.RESTR.norm>
0.000160811

>  <SCORE.SYSTEM>
0

>  <SCORE.SYSTEM.CONST>
0

>  <SCORE.SYSTEM.DIHEDRAL>
0

>  <SCORE.SYSTEM.SOLV>
0

>  <SCORE.SYSTEM.norm>
0

>  <SCORE.heavy>
42

>  <SCORE.norm>
-0.150396

>  <RMSD>
4.877

$$$$
lig.pdb
 OpenBabel11021811513D
libRbt.so/2013.1/901 2013/11/27
 42 45  0  0  0  0  0  0  0  0999 V2000
   -1.3921   15.8990   38.2846 C   0  0  2  0  0  0  0  0  0  0  0  0
   -0.9143   14.5592   37.9473 O   0  0  0  0  0  0  0  0  0  0  0  0
   -2.8146   16.0518   37.5824 C   0  0  2  0  0  0  0  0  0  0  0  0
   -3.7547   15.0626   38.1164 N   0  0  0  0  0  0  0  0  0  0  0  0
   -2.6243   15.9122   35.9936 C   0  0  1  0  0  0  0  0  0  0  0  0
   -3.8839   16.0543   35.3038 O   0  0  0  0  0  0  0  0  0  0  0  0
   -1.6165   16.9906   35.5601 C   0  0  2  0  0  0  0  0  0  0  0  0
   -1.4256   16.8984   34.1895 O   0  0  0  0  0  0  0  0  0  0  0  0
   -0.2387   16.7928   36.3417 C   0  0  2  0  0  0  0  0  0  0  0  0
   -0.4265   16.8866   37.7593 O   0  0  0  0  0  0  0  0  0  0  0  0
    0.7765   17.8352   35.9674 C   0  0  0  0  0  0  0  0  0  0  0  0
    2.0152   17.4711   36.5779 O   0  0  0  0  0  0  0  0  0  0  0  0
   -0.1332   10.9039   40.3560 C   0  0  2  0  0  0  0  0  0  0  0  0
   -0.3180    9.8188   41.2948 N   0  0  0  0  0  0  0  0  0  0  0  0
   -0.3568   12.2899   41.0755 C   0  0  0  0  0  0  0  0  0  0  0  0
   -0.1662   13.4847   40.0762 C   0  0  2  0  0  0  0  0  0  0  0  0
   -0.3886   14.7466   40.7790 N   0  0  0  0  0  0  0  0  0  0  0  0
   -1.1643   13.4065   38.8368 C   0  0  2  0  0  0  0  0  0  0  0  0
   -0.9060   12.0518   38.1159 C   0  0  2  0  0  0  0  0  0  0  0  0
   -1.8767   12.0618   36.9582 O   0  0  0  0  0  0  0  0  0  0  0  0
   -1.1707   10.8149   39.1394 C   0  0  1  0  0  0  0  0  0  0  0  0
   -0.9047    9.4868   38.5848 O   0  0  0  0  0  0  0  0  0  0  0  0
   -1.8349   10.8830   36.2611 C   0  0  1  0  0  0  0  0  0  0  0  0
   -2.9682   10.7154   35.3453 C   0  0  2  0  0  0  0  0  0  0  0  0
   -4.0930   10.4490   36.1203 O   0  0  0  0  0  0  0  0  0  0  0  0
   -2.4198    9.6389   34.3843 C   0  0  2  0  0  0  0  0  0  0  0  0
   -3.2960    8.4946   34.4961 O   0  0  0  0  0  0  0  0  0  0  0  0
   -1.0394    9.3528   34.8766 C   0  0  2  0  0  0  0  0  0  0  0  0
   -0.7375   10.7026   35.3814 O   0  0  0  0  0  0  0  0  0  0  0  0
   -0.0645    8.9793   33.7000 C   0  0  0  0  0  0  0  0  0  0  0  0
    0.0281   10.0065   32.6678 O   0  0  0  0  0  0  0  0  0  0  0  0
   -2.8996    7.2867   33.7786 C   0  0  2  0  0  0  0  0  0  0  0  0
   -3.0491    7.5599   32.1920 C   0  0  2  0  0  0  0  0  0  0  0  0
   -4.4660    7.9440   31.8896 N   0  0  0  0  0  0  0  0  0  0  0  0
   -2.6073    6.2270   31.4096 C   0  0  1  0  0  0  0  0  0  0  0  0
   -1.2242    5.9438   31.7818 O   0  0  0  0  0  0  0  0  0  0  0  0
   -3.5709    5.0249   31.8232 C   0  0  2  0  0  0  0  0  0  0  0  0
   -4.9448    5.3792   31.4025 O   0  0  0  0  0  0  0  0  0  0  0  0
   -3.4469    4.8055   33.4351 C   0  0  1  0  0  0  0  0  0  0  0  0
   -3.7962    6.0875   34.1487 O   0  0  0  0  0  0  0  0  0  0  0  0
   -4.3945    3.6422   33.8795 C   0  0  0  0  0  0  0  0  0  0  0  0
   -4.3243    3.3654   35.3478 N   0  0  0  0  0  0  0  0  0  0  0  0
  1  3  1  0  0  0  0
  1  2  1  6  0  0  0
  3  4  1  1  0  0  0
  3  5  1  0  0  0  0
  5  6  1  6  0  0  0
  7  8  1  6  0  0  0
  7  5  1  0  0  0  0
  9 11  1  6  0  0  0
  9  7  1  0  0  0  0
 10  9  1  0  0  0  0
 10  1  1  0  0  0  0
 12 11  1  0  0  0  0
 13 14  1  1  0  0  0
 15 13  1  0  0  0  0
 16 17  1  1  0  0  0
 16 15  1  0  0  0  0
 18  2  1  6  0  0  0
 18 19  1  0  0  0  0
 18 16  1  0  0  0  0
 19 20  1  6  0  0  0
 19 21  1  0  0  0  0
 21 22  1  6  0  0  0
 21 13  1  0  0  0  0
 23 20  1  6  0  0  0
 23 29  1  0  0  0  0
 24 25  1  1  0  0  0
 24 26  1  0  0  0  0
 24 23  1  0  0  0  0
 26 27  1  1  0  0  0
 26 28  1  0  0  0  0
 28 30  1  6  0  0  0
 29 28  1  0  0  0  0
 30 31  1  0  0  0  0
 32 27  1  1  0  0  0
 32 40  1  0  0  0  0
 33 35  1  0  0  0  0
 33 32  1  0  0  0  0
 33 34  1  1  0  0  0
 35 36  1  1  0  0  0
 35 37  1  0  0  0  0
 37 38  1  1  0  0  0
 37 39  1  0  0  0  0
 39 41  1  1  0  0  0
 40 39  1  0  0  0  0
 41 42  1  0  0  0  0
M  END
>  <CHROM.1>
-93.09744676,-172.50208525,-76.49963647,-176.12362621,166.01321818,-173.81411275
57.35533926,-69.43328699,179.21024129,-1.87356086,11.15353253,35.89820786
-0.52620777,1.30590791,2.55861417

>  <Name>
lig.pdb

>  <RI>
0

>  <Rbt.Current_Directory>
/home/itssahil/PROJECTS/Mol_Feturizer/New_Systems/rnas/4wcr

>  <Rbt.Executable>
rbdock ($Id: //depot/dev/client3/rdock/2013.1/src/exe/rbdock.cxx#4 $)

>  <Rbt.Library>
libRbt.so (2013.1, Build901 2013/11/27)

>  <Rbt.Parameter_File>
/export/apps/rDock/src/rDock_2013.1_src/data/scripts/dock_solv.prm

>  <Rbt.Receptor>
prm/pocket_docking_5.prm

>  <SCORE>
-2.1875

>  <SCORE.INTER>
3.60279

>  <SCORE.INTER.CONST>
1

>  <SCORE.INTER.POLAR>
0

>  <SCORE.INTER.ROT>
9

>  <SCORE.INTER.SOLV>
9.01828

>  <SCORE.INTER.VDW>
-10.2042

>  <SCORE.INTER.norm>
0.0857806

>  <SCORE.INTRA>
-5.79028

>  <SCORE.INTRA.DIHEDRAL>
-8.45542

>  <SCORE.INTRA.DIHEDRAL.0>
16.2863

>  <SCORE.INTRA.POLAR>
0

>  <SCORE.INTRA.POLAR.0>
0

>  <SCORE.INTRA.REPUL>
-0.314433

>  <SCORE.INTRA.REPUL.0>
0.314433

>  <SCORE.INTRA.SOLV>
-3.14684

>  <SCORE.INTRA.SOLV.lig_0>
-103.824

>  <SCORE.INTRA.VDW>
1.58301

>  <SCORE.INTRA.VDW.0>
-5.30945

>  <SCORE.INTRA.norm>
-0.137864

>  <SCORE.RESTR>
0

>  <SCORE.RESTR.CAVITY>
0

>  <SCORE.RESTR.norm>
0

>  <SCORE.SYSTEM>
0

>  <SCORE.SYSTEM.CONST>
0

>  <SCORE.SYSTEM.DIHEDRAL>
0

>  <SCORE.SYSTEM.SOLV>
0

>  <SCORE.SYSTEM.norm>
0

>  <SCORE.heavy>
42

>  <SCORE.norm>
-0.0520832

>  <RMSD>
4.879

$$$$
lig.pdb
 OpenBabel11021811513D
libRbt.so/2013.1/901 2013/11/27
 42 45  0  0  0  0  0  0  0  0999 V2000
   -2.1774   18.3721   34.9998 C   0  0  2  0  0  0  0  0  0  0  0  0
   -3.2957   18.4420   35.9388 O   0  0  0  0  0  0  0  0  0  0  0  0
   -2.3920   19.5656   33.9657 C   0  0  2  0  0  0  0  0  0  0  0  0
   -2.3500   20.8550   34.6610 N   0  0  0  0  0  0  0  0  0  0  0  0
   -3.7820   19.3372   33.1940 C   0  0  1  0  0  0  0  0  0  0  0  0
   -4.0228   20.3868   32.2333 O   0  0  0  0  0  0  0  0  0  0  0  0
   -3.7051   17.9575   32.5181 C   0  0  2  0  0  0  0  0  0  0  0  0
   -4.8933   17.7248   31.8415 O   0  0  0  0  0  0  0  0  0  0  0  0
   -3.4441   16.8281   33.6157 C   0  0  2  0  0  0  0  0  0  0  0  0
   -2.2179   17.0606   34.3200 O   0  0  0  0  0  0  0  0  0  0  0  0
   -3.3415   15.4599   33.0034 C   0  0  0  0  0  0  0  0  0  0  0  0
   -3.2350   14.5160   34.0699 O   0  0  0  0  0  0  0  0  0  0  0  0
   -3.2554   17.5673   40.2984 C   0  0  2  0  0  0  0  0  0  0  0  0
   -3.3441   16.8475   41.5502 N   0  0  0  0  0  0  0  0  0  0  0  0
   -4.5845   17.3822   39.4689 C   0  0  0  0  0  0  0  0  0  0  0  0
   -4.5118   18.1507   38.1027 C   0  0  2  0  0  0  0  0  0  0  0  0
   -5.7563   17.9481   37.3640 N   0  0  0  0  0  0  0  0  0  0  0  0
   -3.2941   17.6668   37.1964 C   0  0  2  0  0  0  0  0  0  0  0  0
   -1.9884   17.8903   38.0130 C   0  0  2  0  0  0  0  0  0  0  0  0
   -0.8916   17.4197   37.0865 O   0  0  0  0  0  0  0  0  0  0  0  0
   -2.0424   17.0371   39.3974 C   0  0  1  0  0  0  0  0  0  0  0  0
   -0.8859   17.2135   40.2769 O   0  0  0  0  0  0  0  0  0  0  0  0
   -0.5431   16.1200   37.3447 C   0  0  1  0  0  0  0  0  0  0  0  0
    0.1474   15.4755   36.2227 C   0  0  2  0  0  0  0  0  0  0  0  0
   -0.8016   15.2348   35.2336 O   0  0  0  0  0  0  0  0  0  0  0  0
    0.8373   14.2926   36.9355 C   0  0  2  0  0  0  0  0  0  0  0  0
    0.3117   13.0840   36.3416 O   0  0  0  0  0  0  0  0  0  0  0  0
    0.4571   14.4363   38.3723 C   0  0  2  0  0  0  0  0  0  0  0  0
    0.3804   15.9064   38.3992 O   0  0  0  0  0  0  0  0  0  0  0  0
    1.5964   13.9313   39.3322 C   0  0  0  0  0  0  0  0  0  0  0  0
    2.7763   14.7897   39.3428 O   0  0  0  0  0  0  0  0  0  0  0  0
    1.1452   11.8888   36.4293 C   0  0  2  0  0  0  0  0  0  0  0  0
    0.3504   10.6577   35.7460 C   0  0  2  0  0  0  0  0  0  0  0  0
   -0.9624   10.4702   36.4446 N   0  0  0  0  0  0  0  0  0  0  0  0
    1.2760    9.3471   35.8434 C   0  0  1  0  0  0  0  0  0  0  0  0
    2.5219    9.6427   35.1419 O   0  0  0  0  0  0  0  0  0  0  0  0
    1.5483    9.0027   37.3769 C   0  0  2  0  0  0  0  0  0  0  0  0
    0.2462    8.7026   38.0129 O   0  0  0  0  0  0  0  0  0  0  0  0
    2.2985   10.2806   38.0596 C   0  0  1  0  0  0  0  0  0  0  0  0
    1.4470   11.5145   37.8949 O   0  0  0  0  0  0  0  0  0  0  0  0
    2.5661    9.9837   39.5725 C   0  0  0  0  0  0  0  0  0  0  0  0
    3.4165   11.0258   40.2267 N   0  0  0  0  0  0  0  0  0  0  0  0
  1  3  1  0  0  0  0
  1  2  1  1  0  0  0
  3  4  1  1  0  0  0
  3  5  1  0  0  0  0
  5  6  1  6  0  0  0
  7  8  1  1  0  0  0
  7  5  1  0  0  0  0
  9 11  1  6  0  0  0
  9  7  1  0  0  0  0
 10  9  1  0  0  0  0
 10  1  1  0  0  0  0
 12 11  1  0  0  0  0
 13 14  1  1  0  0  0
 15 13  1  0  0  0  0
 16 17  1  6  0  0  0
 16 15  1  0  0  0  0
 18  2  1  6  0  0  0
 18 19  1  0  0  0  0
 18 16  1  0  0  0  0
 19 20  1  6  0  0  0
 19 21  1  0  0  0  0
 21 22  1  1  0  0  0
 21 13  1  0  0  0  0
 23 20  1  6  0  0  0
 23 29  1  0  0  0  0
 24 25  1  6  0  0  0
 24 26  1  0  0  0  0
 24 23  1  0  0  0  0
 26 27  1  6  0  0  0
 26 28  1  0  0  0  0
 28 30  1  1  0  0  0
 29 28  1  0  0  0  0
 30 31  1  0  0  0  0
 32 27  1  1  0  0  0
 32 40  1  0  0  0  0
 33 35  1  0  0  0  0
 33 32  1  0  0  0  0
 33 34  1  1  0  0  0
 35 36  1  6  0  0  0
 35 37  1  0  0  0  0
 37 38  1  1  0  0  0
 37 39  1  0  0  0  0
 39 41  1  1  0  0  0
 40 39  1  0  0  0  0
 41 42  1  0  0  0  0
M  END
>  <CHROM.1>
-167.53932436,-174.66945054,170.18944831,-95.56814961,159.97175173,155.94668068
69.94959343,178.34302733,172.12455381,-1.13837459,15.16783618,36.68037852
3.09797648,-1.00624736,1.17184448

>  <Name>
lig.pdb

>  <RI>
0

>  <Rbt.Current_Directory>
/home/itssahil/PROJECTS/Mol_Feturizer/New_Systems/rnas/4wcr

>  <Rbt.Executable>
rbdock ($Id: //depot/dev/client3/rdock/2013.1/src/exe/rbdock.cxx#4 $)

>  <Rbt.Library>
libRbt.so (2013.1, Build901 2013/11/27)

>  <Rbt.Parameter_File>
/export/apps/rDock/src/rDock_2013.1_src/data/scripts/dock_solv.prm

>  <Rbt.Receptor>
prm/pocket_docking_7.prm

>  <SCORE>
-9.27301

>  <SCORE.INTER>
-7.11158

>  <SCORE.INTER.CONST>
1

>  <SCORE.INTER.POLAR>
0

>  <SCORE.INTER.ROT>
9

>  <SCORE.INTER.SOLV>
23.9303

>  <SCORE.INTER.VDW>
-22.3178

>  <SCORE.INTER.norm>
-0.169323

>  <SCORE.INTRA>
-2.1821

>  <SCORE.INTRA.DIHEDRAL>
-5.07994

>  <SCORE.INTRA.DIHEDRAL.0>
16.2863

>  <SCORE.INTRA.POLAR>
0

>  <SCORE.INTRA.POLAR.0>
0

>  <SCORE.INTRA.REPUL>
-0.263544

>  <SCORE.INTRA.REPUL.0>
0.314433

>  <SCORE.INTRA.SOLV>
-3.54089

>  <SCORE.INTRA.SOLV.lig_0>
-103.824

>  <SCORE.INTRA.VDW>
3.44603

>  <SCORE.INTRA.VDW.0>
-5.30945

>  <SCORE.INTRA.norm>
-0.0519548

>  <SCORE.RESTR>
0.0206653

>  <SCORE.RESTR.CAVITY>
0.0206653

>  <SCORE.RESTR.norm>
0.000492031

>  <SCORE.SYSTEM>
0

>  <SCORE.SYSTEM.CONST>
0

>  <SCORE.SYSTEM.DIHEDRAL>
0

>  <SCORE.SYSTEM.SOLV>
0

>  <SCORE.SYSTEM.norm>
0

>  <SCORE.heavy>
42

>  <SCORE.norm>
-0.220786

>  <RMSD>
4.909

$$$$
lig.pdb
 OpenBabel11021811513D
libRbt.so/2013.1/901 2013/11/27
 42 45  0  0  0  0  0  0  0  0999 V2000
    0.3404   16.3191   36.3426 C   0  0  2  0  0  0  0  0  0  0  0  0
   -0.3596   16.5479   37.6054 O   0  0  0  0  0  0  0  0  0  0  0  0
    0.4388   17.7397   35.6268 C   0  0  2  0  0  0  0  0  0  0  0  0
    1.2238   18.6683   36.4449 N   0  0  0  0  0  0  0  0  0  0  0  0
   -1.0472   18.2825   35.3493 C   0  0  1  0  0  0  0  0  0  0  0  0
   -1.0180   19.5659   34.6898 O   0  0  0  0  0  0  0  0  0  0  0  0
   -1.7659   17.2235   34.4958 C   0  0  2  0  0  0  0  0  0  0  0  0
   -3.0570   17.6593   34.2373 O   0  0  0  0  0  0  0  0  0  0  0  0
   -1.7800   15.8242   35.2640 C   0  0  2  0  0  0  0  0  0  0  0  0
   -0.4495   15.3662   35.5353 O   0  0  0  0  0  0  0  0  0  0  0  0
   -2.4558   14.7480   34.4626 C   0  0  0  0  0  0  0  0  0  0  0  0
   -2.4982   13.5703   35.2694 O   0  0  0  0  0  0  0  0  0  0  0  0
    2.2975   14.6418   40.6186 C   0  0  2  0  0  0  0  0  0  0  0  0
    2.7671   14.0705   41.8620 N   0  0  0  0  0  0  0  0  0  0  0  0
    1.7443   16.0987   40.8639 C   0  0  0  0  0  0  0  0  0  0  0  0
    1.2239   16.7397   39.5294 C   0  0  2  0  0  0  0  0  0  0  0  0
    0.7148   18.0824   39.8011 N   0  0  0  0  0  0  0  0  0  0  0  0
    0.0655   15.8803   38.8528 C   0  0  2  0  0  0  0  0  0  0  0  0
    0.6376   14.4585   38.5829 C   0  0  2  0  0  0  0  0  0  0  0  0
   -0.5104   13.7180   37.9376 O   0  0  0  0  0  0  0  0  0  0  0  0
    1.1133   13.7734   39.9800 C   0  0  1  0  0  0  0  0  0  0  0  0
    1.7219   12.4494   39.8426 O   0  0  0  0  0  0  0  0  0  0  0  0
   -0.2020   12.3987   37.7336 C   0  0  1  0  0  0  0  0  0  0  0  0
   -1.2592   11.6622   37.0326 C   0  0  2  0  0  0  0  0  0  0  0  0
   -2.3078   11.4854   37.9303 O   0  0  0  0  0  0  0  0  0  0  0  0
   -0.4756   10.4392   36.5097 C   0  0  2  0  0  0  0  0  0  0  0  0
   -1.0807    9.2699   37.1065 O   0  0  0  0  0  0  0  0  0  0  0  0
    0.9275   10.6565   36.9720 C   0  0  2  0  0  0  0  0  0  0  0  0
    0.9193   12.1275   36.9093 O   0  0  0  0  0  0  0  0  0  0  0  0
    1.9756   10.0724   35.9548 C   0  0  0  0  0  0  0  0  0  0  0  0
    3.3620   10.2668   36.3662 O   0  0  0  0  0  0  0  0  0  0  0  0
   -2.4021    8.8879   36.6176 C   0  0  2  0  0  0  0  0  0  0  0  0
   -2.9051    7.5980   37.4526 C   0  0  2  0  0  0  0  0  0  0  0  0
   -1.9116    6.4875   37.2897 N   0  0  0  0  0  0  0  0  0  0  0  0
   -4.3615    7.1863   36.9110 C   0  0  1  0  0  0  0  0  0  0  0  0
   -5.2394    8.3358   37.1103 O   0  0  0  0  0  0  0  0  0  0  0  0
   -4.2634    6.7997   35.3665 C   0  0  2  0  0  0  0  0  0  0  0  0
   -3.3721    5.6241   35.2486 O   0  0  0  0  0  0  0  0  0  0  0  0
   -3.6997    8.0965   34.5526 C   0  0  1  0  0  0  0  0  0  0  0  0
   -2.3661    8.5111   35.1223 O   0  0  0  0  0  0  0  0  0  0  0  0
   -3.5739    7.7465   33.0326 C   0  0  0  0  0  0  0  0  0  0  0  0
   -4.8944    7.4572   32.3926 N   0  0  0  0  0  0  0  0  0  0  0  0
  1  3  1  0  0  0  0
  1  2  1  1  0  0  0
  3  4  1  1  0  0  0
  3  5  1  0  0  0  0
  5  6  1  6  0  0  0
  7  8  1  1  0  0  0
  7  5  1  0  0  0  0
  9 11  1  6  0  0  0
  9  7  1  0  0  0  0
 10  9  1  0  0  0  0
 10  1  1  0  0  0  0
 12 11  1  0  0  0  0
 13 14  1  1  0  0  0
 15 13  1  0  0  0  0
 16 17  1  1  0  0  0
 16 15  1  0  0  0  0
 18  2  1  6  0  0  0
 18 19  1  0  0  0  0
 18 16  1  0  0  0  0
 19 20  1  1  0  0  0
 19 21  1  0  0  0  0
 21 22  1  6  0  0  0
 21 13  1  0  0  0  0
 23 20  1  6  0  0  0
 23 29  1  0  0  0  0
 24 25  1  1  0  0  0
 24 26  1  0  0  0  0
 24 23  1  0  0  0  0
 26 27  1  1  0  0  0
 26 28  1  0  0  0  0
 28 30  1  6  0  0  0
 29 28  1  0  0  0  0
 30 31  1  0  0  0  0
 32 27  1  1  0  0  0
 32 40  1  0  0  0  0
 33 35  1  0  0  0  0
 33 32  1  0  0  0  0
 33 34  1  6  0  0  0
 35 36  1  6  0  0  0
 35 37  1  0  0  0  0
 37 38  1  1  0  0  0
 37 39  1  0  0  0  0
 39 41  1  6  0  0  0
 40 39  1  0  0  0  0
 41 42  1  0  0  0  0
M  END
>  <CHROM.1>
-139.06272577,-176.04926612,85.33561160,-174.97129333,-176.42070713,71.62991927
179.82873661,-178.00516189,64.41909031,-0.91172105,12.66320653,36.80626184
1.03482725,-0.84030657,-0.21246233

>  <Name>
lig.pdb

>  <RI>
0

>  <Rbt.Current_Directory>
/home/itssahil/PROJECTS/Mol_Feturizer/New_Systems/rnas/4wcr

>  <Rbt.Executable>
rbdock ($Id: //depot/dev/client3/rdock/2013.1/src/exe/rbdock.cxx#4 $)

>  <Rbt.Library>
libRbt.so (2013.1, Build901 2013/11/27)

>  <Rbt.Parameter_File>
/export/apps/rDock/src/rDock_2013.1_src/data/scripts/dock_solv.prm

>  <Rbt.Receptor>
prm/pocket_docking_6.prm

>  <SCORE>
-7.36437

>  <SCORE.INTER>
-2.33763

>  <SCORE.INTER.CONST>
1

>  <SCORE.INTER.POLAR>
0

>  <SCORE.INTER.ROT>
9

>  <SCORE.INTER.SOLV>
20.5588

>  <SCORE.INTER.VDW>
-18.0114

>  <SCORE.INTER.norm>
-0.0556579

>  <SCORE.INTRA>
-5.02674

>  <SCORE.INTRA.DIHEDRAL>
-6.49799

>  <SCORE.INTRA.DIHEDRAL.0>
16.2863

>  <SCORE.INTRA.POLAR>
0

>  <SCORE.INTRA.POLAR.0>
0

>  <SCORE.INTRA.REPUL>
-0.304581

>  <SCORE.INTRA.REPUL.0>
0.314433

>  <SCORE.INTRA.SOLV>
-2.5762

>  <SCORE.INTRA.SOLV.lig_0>
-103.824

>  <SCORE.INTRA.VDW>
1.03326

>  <SCORE.INTRA.VDW.0>
-5.30945

>  <SCORE.INTRA.norm>
-0.119684

>  <SCORE.RESTR>
0

>  <SCORE.RESTR.CAVITY>
0

>  <SCORE.RESTR.norm>
0

>  <SCORE.SYSTEM>
0

>  <SCORE.SYSTEM.CONST>
0

>  <SCORE.SYSTEM.DIHEDRAL>
0

>  <SCORE.SYSTEM.SOLV>
0

>  <SCORE.SYSTEM.norm>
0

>  <SCORE.heavy>
42

>  <SCORE.norm>
-0.175342

>  <RMSD>
4.916

$$$$
lig.pdb
 OpenBabel11021811513D
libRbt.so/2013.1/901 2013/11/27
 42 45  0  0  0  0  0  0  0  0999 V2000
   -1.6787   12.8541   37.6055 C   0  0  2  0  0  0  0  0  0  0  0  0
   -2.1836   13.7113   36.5343 O   0  0  0  0  0  0  0  0  0  0  0  0
   -1.5635   13.7806   38.8972 C   0  0  2  0  0  0  0  0  0  0  0  0
   -2.8839   14.2901   39.2774 N   0  0  0  0  0  0  0  0  0  0  0  0
   -0.5210   14.9640   38.5929 C   0  0  1  0  0  0  0  0  0  0  0  0
   -0.3685   15.8306   39.7368 O   0  0  0  0  0  0  0  0  0  0  0  0
    0.8124   14.3052   38.2000 C   0  0  2  0  0  0  0  0  0  0  0  0
    1.7392   15.3004   37.9275 O   0  0  0  0  0  0  0  0  0  0  0  0
    0.5994   13.3620   36.9298 C   0  0  2  0  0  0  0  0  0  0  0  0
   -0.3570   12.3303   37.2025 O   0  0  0  0  0  0  0  0  0  0  0  0
    1.8714   12.6779   36.5159 C   0  0  0  0  0  0  0  0  0  0  0  0
    1.5694   11.8450   35.3957 O   0  0  0  0  0  0  0  0  0  0  0  0
   -4.0337   12.6761   32.6256 C   0  0  2  0  0  0  0  0  0  0  0  0
   -4.1755   12.2870   31.2394 N   0  0  0  0  0  0  0  0  0  0  0  0
   -3.0916   13.9360   32.7434 C   0  0  0  0  0  0  0  0  0  0  0  0
   -2.9178   14.3759   34.2396 C   0  0  2  0  0  0  0  0  0  0  0  0
   -2.0347   15.5385   34.3052 N   0  0  0  0  0  0  0  0  0  0  0  0
   -2.3072   13.2177   35.1474 C   0  0  2  0  0  0  0  0  0  0  0  0
   -3.2662   11.9960   35.0507 C   0  0  2  0  0  0  0  0  0  0  0  0
   -2.6254   10.9558   35.9396 O   0  0  0  0  0  0  0  0  0  0  0  0
   -3.3890   11.5033   33.5049 C   0  0  1  0  0  0  0  0  0  0  0  0
   -4.3120   10.3892   33.2834 O   0  0  0  0  0  0  0  0  0  0  0  0
   -3.4624    9.8908   36.1457 C   0  0  1  0  0  0  0  0  0  0  0  0
   -2.8401    8.8108   36.9187 C   0  0  2  0  0  0  0  0  0  0  0  0
   -1.9184    8.1821   36.0868 O   0  0  0  0  0  0  0  0  0  0  0  0
   -4.0838    8.0420   37.4138 C   0  0  2  0  0  0  0  0  0  0  0  0
   -3.9910    6.7052   36.8717 O   0  0  0  0  0  0  0  0  0  0  0  0
   -5.2471    8.8018   36.8668 C   0  0  2  0  0  0  0  0  0  0  0  0
   -4.6325   10.1391   36.9071 O   0  0  0  0  0  0  0  0  0  0  0  0
   -6.4894    8.7426   37.8300 C   0  0  0  0  0  0  0  0  0  0  0  0
   -7.6710    9.4178   37.3035 O   0  0  0  0  0  0  0  0  0  0  0  0
   -2.9060    5.8648   37.3692 C   0  0  2  0  0  0  0  0  0  0  0  0
   -3.0228    4.4103   36.6727 C   0  0  2  0  0  0  0  0  0  0  0  0
   -4.3661    3.8220   36.9825 N   0  0  0  0  0  0  0  0  0  0  0  0
   -1.8230    3.4928   37.2227 C   0  0  1  0  0  0  0  0  0  0  0  0
   -0.5719    4.1602   36.8751 O   0  0  0  0  0  0  0  0  0  0  0  0
   -1.9647    3.3253   38.8027 C   0  0  2  0  0  0  0  0  0  0  0  0
   -3.2439    2.6320   39.0728 O   0  0  0  0  0  0  0  0  0  0  0  0
   -1.9020    4.8088   39.4789 C   0  0  1  0  0  0  0  0  0  0  0  0
   -2.9903    5.6762   38.8977 O   0  0  0  0  0  0  0  0  0  0  0  0
   -2.0558    4.6835   41.0311 C   0  0  0  0  0  0  0  0  0  0  0  0
   -1.8321    5.9799   41.7429 N   0  0  0  0  0  0  0  0  0  0  0  0
  1  3  1  0  0  0  0
  1  2  1  6  0  0  0
  3  4  1  6  0  0  0
  3  5  1  0  0  0  0
  5  6  1  1  0  0  0
  7  8  1  6  0  0  0
  7  5  1  0  0  0  0
  9 11  1  1  0  0  0
  9  7  1  0  0  0  0
 10  9  1  0  0  0  0
 10  1  1  0  0  0  0
 12 11  1  0  0  0  0
 13 14  1  6  0  0  0
 15 13  1  0  0  0  0
 16 17  1  6  0  0  0
 16 15  1  0  0  0  0
 18  2  1  1  0  0  0
 18 19  1  0  0  0  0
 18 16  1  0  0  0  0
 19 20  1  1  0  0  0
 19 21  1  0  0  0  0
 21 22  1  1  0  0  0
 21 13  1  0  0  0  0
 23 20  1  1  0  0  0
 23 29  1  0  0  0  0
 24 25  1  6  0  0  0
 24 26  1  0  0  0  0
 24 23  1  0  0  0  0
 26 27  1  6  0  0  0
 26 28  1  0  0  0  0
 28 30  1  1  0  0  0
 29 28  1  0  0  0  0
 30 31  1  0  0  0  0
 32 27  1  6  0  0  0
 32 40  1  0  0  0  0
 33 35  1  0  0  0  0
 33 32  1  0  0  0  0
 33 34  1  1  0  0  0
 35 36  1  1  0  0  0
 35 37  1  0  0  0  0
 37 38  1  6  0  0  0
 37 39  1  0  0  0  0
 39 41  1  1  0  0  0
 40 39  1  0  0  0  0
 41 42  1  0  0  0  0
M  END
>  <CHROM.1>
174.60436675,178.93301429,178.58814044,169.74242021,175.55560267,67.02992286
-177.16194013,178.05850875,172.55077580,-2.42455559,9.98343465,36.85388605
-1.31850200,0.80017900,2.73049629

>  <Name>
lig.pdb

>  <RI>
0

>  <Rbt.Current_Directory>
/home/itssahil/PROJECTS/Mol_Feturizer/New_Systems/rnas/4wcr

>  <Rbt.Executable>
rbdock ($Id: //depot/dev/client3/rdock/2013.1/src/exe/rbdock.cxx#4 $)

>  <Rbt.Library>
libRbt.so (2013.1, Build901 2013/11/27)

>  <Rbt.Parameter_File>
/export/apps/rDock/src/rDock_2013.1_src/data/scripts/dock_solv.prm

>  <Rbt.Receptor>
prm/pocket_docking_7.prm

>  <SCORE>
-9.49061

>  <SCORE.INTER>
0.58788

>  <SCORE.INTER.CONST>
1

>  <SCORE.INTER.POLAR>
0

>  <SCORE.INTER.ROT>
9

>  <SCORE.INTER.SOLV>
17.3587

>  <SCORE.INTER.VDW>
-14.9943

>  <SCORE.INTER.norm>
0.0139971

>  <SCORE.INTRA>
-10.0785

>  <SCORE.INTRA.DIHEDRAL>
-14.5101

>  <SCORE.INTRA.DIHEDRAL.0>
16.2863

>  <SCORE.INTRA.POLAR>
0

>  <SCORE.INTRA.POLAR.0>
0

>  <SCORE.INTRA.REPUL>
-0.314433

>  <SCORE.INTRA.REPUL.0>
0.314433

>  <SCORE.INTRA.SOLV>
-6.51527

>  <SCORE.INTRA.SOLV.lig_0>
-103.824

>  <SCORE.INTRA.VDW>
2.00638

>  <SCORE.INTRA.VDW.0>
-5.30945

>  <SCORE.INTRA.norm>
-0.239964

>  <SCORE.RESTR>
0

>  <SCORE.RESTR.CAVITY>
0

>  <SCORE.RESTR.norm>
0

>  <SCORE.SYSTEM>
0

>  <SCORE.SYSTEM.CONST>
0

>  <SCORE.SYSTEM.DIHEDRAL>
0

>  <SCORE.SYSTEM.SOLV>
0

>  <SCORE.SYSTEM.norm>
0

>  <SCORE.heavy>
42

>  <SCORE.norm>
-0.225967

>  <RMSD>
4.916

$$$$
lig.pdb
 OpenBabel11021811513D
libRbt.so/2013.1/901 2013/11/27
 42 45  0  0  0  0  0  0  0  0999 V2000
   -5.3104   14.7772   36.9275 C   0  0  2  0  0  0  0  0  0  0  0  0
   -4.9486   14.2099   38.2254 O   0  0  0  0  0  0  0  0  0  0  0  0
   -3.9918   15.4739   36.3655 C   0  0  2  0  0  0  0  0  0  0  0  0
   -2.9335   14.4787   36.1718 N   0  0  0  0  0  0  0  0  0  0  0  0
   -3.5508   16.6392   37.3790 C   0  0  1  0  0  0  0  0  0  0  0  0
   -2.3638   17.3140   36.9119 O   0  0  0  0  0  0  0  0  0  0  0  0
   -4.7401   17.6069   37.5040 C   0  0  2  0  0  0  0  0  0  0  0  0
   -4.3949   18.6287   38.3760 O   0  0  0  0  0  0  0  0  0  0  0  0
   -6.0274   16.8216   38.0279 C   0  0  2  0  0  0  0  0  0  0  0  0
   -6.3915   15.7635   37.1325 O   0  0  0  0  0  0  0  0  0  0  0  0
   -7.2253   17.7202   38.1495 C   0  0  0  0  0  0  0  0  0  0  0  0
   -8.2343   17.0016   38.8602 O   0  0  0  0  0  0  0  0  0  0  0  0
   -6.0281   10.6256   40.6256 C   0  0  2  0  0  0  0  0  0  0  0  0
   -6.8133    9.6481   41.3472 N   0  0  0  0  0  0  0  0  0  0  0  0
   -6.2949   12.0701   41.2011 C   0  0  0  0  0  0  0  0  0  0  0  0
   -5.4570   13.1507   40.4313 C   0  0  2  0  0  0  0  0  0  0  0  0
   -5.7379   14.4720   40.9891 N   0  0  0  0  0  0  0  0  0  0  0  0
   -5.7809   13.1744   38.8715 C   0  0  2  0  0  0  0  0  0  0  0  0
   -5.4774   11.7546   38.3114 C   0  0  2  0  0  0  0  0  0  0  0  0
   -5.7983   11.8650   36.8392 O   0  0  0  0  0  0  0  0  0  0  0  0
   -6.3986   10.6471   39.0678 C   0  0  1  0  0  0  0  0  0  0  0  0
   -6.1589    9.2620   38.6600 O   0  0  0  0  0  0  0  0  0  0  0  0
   -5.2340   10.8398   36.1267 C   0  0  1  0  0  0  0  0  0  0  0  0
   -5.3976   10.9882   34.6767 C   0  0  2  0  0  0  0  0  0  0  0  0
   -6.7318   10.7266   34.3801 O   0  0  0  0  0  0  0  0  0  0  0  0
   -4.2911   10.0478   34.1529 C   0  0  2  0  0  0  0  0  0  0  0  0
   -4.9491    9.0220   33.3756 O   0  0  0  0  0  0  0  0  0  0  0  0
   -3.6369    9.5044   35.3803 C   0  0  2  0  0  0  0  0  0  0  0  0
   -3.8282   10.6887   36.2339 O   0  0  0  0  0  0  0  0  0  0  0  0
   -2.1034    9.2354   35.1554 C   0  0  0  0  0  0  0  0  0  0  0  0
   -1.4435    8.6167   36.3004 O   0  0  0  0  0  0  0  0  0  0  0  0
   -4.0910    8.0580   32.6933 C   0  0  2  0  0  0  0  0  0  0  0  0
   -4.9208    7.4111   31.4656 C   0  0  2  0  0  0  0  0  0  0  0  0
   -6.1650    6.7662   31.9974 N   0  0  0  0  0  0  0  0  0  0  0  0
   -3.9681    6.3542   30.7178 C   0  0  1  0  0  0  0  0  0  0  0  0
   -2.7928    7.0840   30.2513 O   0  0  0  0  0  0  0  0  0  0  0  0
   -3.5586    5.1963   31.7356 C   0  0  2  0  0  0  0  0  0  0  0  0
   -4.7956    4.4977   32.1500 O   0  0  0  0  0  0  0  0  0  0  0  0
   -2.7740    5.8786   32.9929 C   0  0  1  0  0  0  0  0  0  0  0  0
   -3.6574    6.9176   33.6370 O   0  0  0  0  0  0  0  0  0  0  0  0
   -2.3717    4.7709   34.0223 C   0  0  0  0  0  0  0  0  0  0  0  0
   -1.4396    3.7534   33.4452 N   0  0  0  0  0  0  0  0  0  0  0  0
  1  3  1  0  0  0  0
  1  2  1  1  0  0  0
  3  4  1  1  0  0  0
  3  5  1  0  0  0  0
  5  6  1  6  0  0  0
  7  8  1  1  0  0  0
  7  5  1  0  0  0  0
  9 11  1  6  0  0  0
  9  7  1  0  0  0  0
 10  9  1  0  0  0  0
 10  1  1  0  0  0  0
 12 11  1  0  0  0  0
 13 14  1  1  0  0  0
 15 13  1  0  0  0  0
 16 17  1  1  0  0  0
 16 15  1  0  0  0  0
 18  2  1  6  0  0  0
 18 19  1  0  0  0  0
 18 16  1  0  0  0  0
 19 20  1  6  0  0  0
 19 21  1  0  0  0  0
 21 22  1  6  0  0  0
 21 13  1  0  0  0  0
 23 20  1  1  0  0  0
 23 29  1  0  0  0  0
 24 25  1  6  0  0  0
 24 26  1  0  0  0  0
 24 23  1  0  0  0  0
 26 27  1  1  0  0  0
 26 28  1  0  0  0  0
 28 30  1  6  0  0  0
 29 28  1  0  0  0  0
 30 31  1  0  0  0  0
 32 27  1  1  0  0  0
 32 40  1  0  0  0  0
 33 35  1  0  0  0  0
 33 32  1  0  0  0  0
 33 34  1  1  0  0  0
 35 36  1  1  0  0  0
 35 37  1  0  0  0  0
 37 38  1  1  0  0  0
 37 39  1  0  0  0  0
 39 41  1  1  0  0  0
 40 39  1  0  0  0  0
 41 42  1  0  0  0  0
M  END
>  <CHROM.1>
-162.48653410,-168.93403802,-159.49820171,162.54714796,-173.72772814,175.84719367
-175.97587858,-157.66631396,61.68755483,-4.71900348,11.19043586,36.11560383
-2.08158564,-1.21582595,-3.06931000

>  <Name>
lig.pdb

>  <RI>
0

>  <Rbt.Current_Directory>
/home/itssahil/PROJECTS/Mol_Feturizer/New_Systems/rnas/4wcr

>  <Rbt.Executable>
rbdock ($Id: //depot/dev/client3/rdock/2013.1/src/exe/rbdock.cxx#4 $)

>  <Rbt.Library>
libRbt.so (2013.1, Build901 2013/11/27)

>  <Rbt.Parameter_File>
/export/apps/rDock/src/rDock_2013.1_src/data/scripts/dock_solv.prm

>  <Rbt.Receptor>
prm/pocket_docking_6.prm

>  <SCORE>
-6.57056

>  <SCORE.INTER>
0.915029

>  <SCORE.INTER.CONST>
1

>  <SCORE.INTER.POLAR>
0

>  <SCORE.INTER.ROT>
9

>  <SCORE.INTER.SOLV>
22.6855

>  <SCORE.INTER.VDW>
-16.5518

>  <SCORE.INTER.norm>
0.0217864

>  <SCORE.INTRA>
-7.48558

>  <SCORE.INTRA.DIHEDRAL>
-8.1014

>  <SCORE.INTRA.DIHEDRAL.0>
16.2863

>  <SCORE.INTRA.POLAR>
0

>  <SCORE.INTRA.POLAR.0>
0

>  <SCORE.INTRA.REPUL>
-0.314433

>  <SCORE.INTRA.REPUL.0>
0.314433

>  <SCORE.INTRA.SOLV>
-4.63984

>  <SCORE.INTRA.SOLV.lig_0>
-103.824

>  <SCORE.INTRA.VDW>
0.457199

>  <SCORE.INTRA.VDW.0>
-5.30945

>  <SCORE.INTRA.norm>
-0.178228

>  <SCORE.RESTR>
0

>  <SCORE.RESTR.CAVITY>
0

>  <SCORE.RESTR.norm>
0

>  <SCORE.SYSTEM>
0

>  <SCORE.SYSTEM.CONST>
0

>  <SCORE.SYSTEM.DIHEDRAL>
0

>  <SCORE.SYSTEM.SOLV>
0

>  <SCORE.SYSTEM.norm>
0

>  <SCORE.heavy>
42

>  <SCORE.norm>
-0.156442

>  <RMSD>
4.938

$$$$
lig.pdb
 OpenBabel11021811513D
libRbt.so/2013.1/901 2013/11/27
 42 45  0  0  0  0  0  0  0  0999 V2000
   -0.1635   17.0694   36.2867 C   0  0  2  0  0  0  0  0  0  0  0  0
   -0.9819   17.7277   37.3036 O   0  0  0  0  0  0  0  0  0  0  0  0
    1.1490   17.9596   36.1297 C   0  0  2  0  0  0  0  0  0  0  0  0
    1.8941   17.9946   37.3912 N   0  0  0  0  0  0  0  0  0  0  0  0
    0.7220   19.4273   35.6363 C   0  0  1  0  0  0  0  0  0  0  0  0
    1.8768   20.2759   35.4659 O   0  0  0  0  0  0  0  0  0  0  0  0
   -0.0541   19.2560   34.3191 C   0  0  2  0  0  0  0  0  0  0  0  0
   -0.4416   20.5072   33.8631 O   0  0  0  0  0  0  0  0  0  0  0  0
   -1.3236   18.3171   34.5542 C   0  0  2  0  0  0  0  0  0  0  0  0
   -0.9324   17.0216   35.0257 O   0  0  0  0  0  0  0  0  0  0  0  0
   -2.1073   18.1019   33.2906 C   0  0  0  0  0  0  0  0  0  0  0  0
   -3.2776   17.3568   33.6294 O   0  0  0  0  0  0  0  0  0  0  0  0
   -3.9953   16.4043   40.2937 C   0  0  2  0  0  0  0  0  0  0  0  0
   -5.2066   15.8579   40.8656 N   0  0  0  0  0  0  0  0  0  0  0  0
   -4.3460   17.5598   39.2786 C   0  0  0  0  0  0  0  0  0  0  0  0
   -3.0475   18.1671   38.6402 C   0  0  2  0  0  0  0  0  0  0  0  0
   -3.4159   19.2264   37.7032 N   0  0  0  0  0  0  0  0  0  0  0  0
   -2.1829   17.0762   37.8652 C   0  0  2  0  0  0  0  0  0  0  0  0
   -1.8133   15.9628   38.8877 C   0  0  2  0  0  0  0  0  0  0  0  0
   -0.9934   14.9825   38.0817 O   0  0  0  0  0  0  0  0  0  0  0  0
   -3.1651   15.2916   39.4956 C   0  0  1  0  0  0  0  0  0  0  0  0
   -2.9404   14.2645   40.5138 O   0  0  0  0  0  0  0  0  0  0  0  0
   -0.3064   14.1193   38.8942 C   0  0  1  0  0  0  0  0  0  0  0  0
    0.4211   13.0851   38.1509 C   0  0  2  0  0  0  0  0  0  0  0  0
   -0.5211   12.1875   37.6576 O   0  0  0  0  0  0  0  0  0  0  0  0
    1.4482   12.6241   39.2072 C   0  0  2  0  0  0  0  0  0  0  0  0
    1.1938   11.2223   39.4521 O   0  0  0  0  0  0  0  0  0  0  0  0
    1.1743   13.4731   40.4045 C   0  0  2  0  0  0  0  0  0  0  0  0
    0.7317   14.6775   39.6824 O   0  0  0  0  0  0  0  0  0  0  0  0
    2.4854   13.7759   41.2192 C   0  0  0  0  0  0  0  0  0  0  0  0
    3.4291   14.6350   40.5116 O   0  0  0  0  0  0  0  0  0  0  0  0
    2.2096   10.4877   40.2001 C   0  0  2  0  0  0  0  0  0  0  0  0
    3.4927   10.2664   39.2416 C   0  0  2  0  0  0  0  0  0  0  0  0
    3.0663    9.5246   38.0108 N   0  0  0  0  0  0  0  0  0  0  0  0
    4.6074    9.4605   40.0735 C   0  0  1  0  0  0  0  0  0  0  0  0
    4.9401   10.2651   41.2455 O   0  0  0  0  0  0  0  0  0  0  0  0
    4.0257    8.0378   40.5000 C   0  0  2  0  0  0  0  0  0  0  0  0
    3.7275    7.2803   39.2641 O   0  0  0  0  0  0  0  0  0  0  0  0
    2.6996    8.2851   41.4177 C   0  0  1  0  0  0  0  0  0  0  0  0
    1.6952    9.1035   40.6456 O   0  0  0  0  0  0  0  0  0  0  0  0
    2.0911    6.9069   41.8406 C   0  0  0  0  0  0  0  0  0  0  0  0
    2.9934    6.1266   42.7430 N   0  0  0  0  0  0  0  0  0  0  0  0
  1  3  1  0  0  0  0
  1  2  1  1  0  0  0
  3  4  1  1  0  0  0
  3  5  1  0  0  0  0
  5  6  1  6  0  0  0
  7  8  1  1  0  0  0
  7  5  1  0  0  0  0
  9 11  1  6  0  0  0
  9  7  1  0  0  0  0
 10  9  1  0  0  0  0
 10  1  1  0  0  0  0
 12 11  1  0  0  0  0
 13 14  1  6  0  0  0
 15 13  1  0  0  0  0
 16 17  1  6  0  0  0
 16 15  1  0  0  0  0
 18  2  1  1  0  0  0
 18 19  1  0  0  0  0
 18 16  1  0  0  0  0
 19 20  1  6  0  0  0
 19 21  1  0  0  0  0
 21 22  1  1  0  0  0
 21 13  1  0  0  0  0
 23 20  1  6  0  0  0
 23 29  1  0  0  0  0
 24 25  1  1  0  0  0
 24 26  1  0  0  0  0
 24 23  1  0  0  0  0
 26 27  1  1  0  0  0
 26 28  1  0  0  0  0
 28 30  1  6  0  0  0
 29 28  1  0  0  0  0
 30 31  1  0  0  0  0
 32 27  1  6  0  0  0
 32 40  1  0  0  0  0
 33 35  1  0  0  0  0
 33 32  1  0  0  0  0
 33 34  1  6  0  0  0
 35 36  1  1  0  0  0
 35 37  1  0  0  0  0
 37 38  1  6  0  0  0
 37 39  1  0  0  0  0
 39 41  1  6  0  0  0
 40 39  1  0  0  0  0
 41 42  1  0  0  0  0
M  END
>  <CHROM.1>
-170.43732620,-174.84586124,-165.46176634,164.62535035,175.55543217,167.39852167
67.75221740,-72.73808218,65.52729086,0.26976463,14.31690876,38.43037330,-2.02217270
-0.42902546,2.49344488

>  <Name>
lig.pdb

>  <RI>
0

>  <Rbt.Current_Directory>
/home/itssahil/PROJECTS/Mol_Feturizer/New_Systems/rnas/4wcr

>  <Rbt.Executable>
rbdock ($Id: //depot/dev/client3/rdock/2013.1/src/exe/rbdock.cxx#4 $)

>  <Rbt.Library>
libRbt.so (2013.1, Build901 2013/11/27)

>  <Rbt.Parameter_File>
/export/apps/rDock/src/rDock_2013.1_src/data/scripts/dock_solv.prm

>  <Rbt.Receptor>
prm/pocket_docking_8.prm

>  <SCORE>
-12.2617

>  <SCORE.INTER>
-3.11683

>  <SCORE.INTER.CONST>
1

>  <SCORE.INTER.POLAR>
0

>  <SCORE.INTER.ROT>
9

>  <SCORE.INTER.SOLV>
26.2988

>  <SCORE.INTER.VDW>
-20.4442

>  <SCORE.INTER.norm>
-0.0742102

>  <SCORE.INTRA>
-9.14491

>  <SCORE.INTRA.DIHEDRAL>
-11.2372

>  <SCORE.INTRA.DIHEDRAL.0>
16.2863

>  <SCORE.INTRA.POLAR>
0

>  <SCORE.INTRA.POLAR.0>
0

>  <SCORE.INTRA.REPUL>
-0.314433

>  <SCORE.INTRA.REPUL.0>
0.314433

>  <SCORE.INTRA.SOLV>
-5.27095

>  <SCORE.INTRA.SOLV.lig_0>
-103.824

>  <SCORE.INTRA.VDW>
0.681328

>  <SCORE.INTRA.VDW.0>
-5.30945

>  <SCORE.INTRA.norm>
-0.217736

>  <SCORE.RESTR>
0

>  <SCORE.RESTR.CAVITY>
0

>  <SCORE.RESTR.norm>
0

>  <SCORE.SYSTEM>
0

>  <SCORE.SYSTEM.CONST>
0

>  <SCORE.SYSTEM.DIHEDRAL>
0

>  <SCORE.SYSTEM.SOLV>
0

>  <SCORE.SYSTEM.norm>
0

>  <SCORE.heavy>
42

>  <SCORE.norm>
-0.291946

>  <RMSD>
4.945

$$$$
lig.pdb
 OpenBabel11021811513D
libRbt.so/2013.1/901 2013/11/27
 42 45  0  0  0  0  0  0  0  0999 V2000
   -2.9568   15.8490   40.1798 C   0  0  2  0  0  0  0  0  0  0  0  0
   -2.4514   14.8158   39.2775 O   0  0  0  0  0  0  0  0  0  0  0  0
   -4.0744   15.1481   41.0741 C   0  0  2  0  0  0  0  0  0  0  0  0
   -3.4855   14.0675   41.8699 N   0  0  0  0  0  0  0  0  0  0  0  0
   -5.2504   14.6234   40.1142 C   0  0  1  0  0  0  0  0  0  0  0  0
   -6.2989   13.9875   40.8751 O   0  0  0  0  0  0  0  0  0  0  0  0
   -5.7759   15.8397   39.3326 C   0  0  2  0  0  0  0  0  0  0  0  0
   -6.7949   15.4225   38.4892 O   0  0  0  0  0  0  0  0  0  0  0  0
   -4.5871   16.5076   38.5026 C   0  0  2  0  0  0  0  0  0  0  0  0
   -3.5293   16.9419   39.3664 O   0  0  0  0  0  0  0  0  0  0  0  0
   -5.0447   17.7148   37.7342 C   0  0  0  0  0  0  0  0  0  0  0  0
   -3.9077   18.2540   37.0589 O   0  0  0  0  0  0  0  0  0  0  0  0
    0.5346   17.1147   36.9170 C   0  0  2  0  0  0  0  0  0  0  0  0
    1.6508   17.4194   36.0484 N   0  0  0  0  0  0  0  0  0  0  0  0
    1.0086   16.1995   38.1114 C   0  0  0  0  0  0  0  0  0  0  0  0
   -0.1862   15.8506   39.0670 C   0  0  2  0  0  0  0  0  0  0  0  0
    0.2927   14.9979   40.1530 N   0  0  0  0  0  0  0  0  0  0  0  0
   -1.3707   15.0997   38.3111 C   0  0  2  0  0  0  0  0  0  0  0  0
   -1.8523   16.0300   37.1603 C   0  0  2  0  0  0  0  0  0  0  0  0
   -2.9722   15.2546   36.5066 O   0  0  0  0  0  0  0  0  0  0  0  0
   -0.6247   16.3331   36.1363 C   0  0  1  0  0  0  0  0  0  0  0  0
   -0.9472   17.2463   35.0389 O   0  0  0  0  0  0  0  0  0  0  0  0
   -2.5795   13.9806   36.1905 C   0  0  1  0  0  0  0  0  0  0  0  0
   -3.7003   13.1049   35.8325 C   0  0  2  0  0  0  0  0  0  0  0  0
   -4.3923   12.8154   37.0047 O   0  0  0  0  0  0  0  0  0  0  0  0
   -2.9691   11.9798   35.0692 C   0  0  2  0  0  0  0  0  0  0  0  0
   -3.2113   10.7555   35.7986 O   0  0  0  0  0  0  0  0  0  0  0  0
   -1.5304   12.3792   35.0833 C   0  0  2  0  0  0  0  0  0  0  0  0
   -1.7406   13.8362   35.0565 O   0  0  0  0  0  0  0  0  0  0  0  0
   -0.7809   11.9117   33.7817 C   0  0  0  0  0  0  0  0  0  0  0  0
   -1.4094   12.3704   32.5474 O   0  0  0  0  0  0  0  0  0  0  0  0
   -2.6642    9.5280   35.2285 C   0  0  2  0  0  0  0  0  0  0  0  0
   -3.2987    9.3187   33.7561 C   0  0  2  0  0  0  0  0  0  0  0  0
   -4.7923    9.2603   33.8670 N   0  0  0  0  0  0  0  0  0  0  0  0
   -2.6885    7.9678   33.1343 C   0  0  1  0  0  0  0  0  0  0  0  0
   -1.2386    8.1312   33.0803 O   0  0  0  0  0  0  0  0  0  0  0  0
   -3.0929    6.7298   34.0553 C   0  0  2  0  0  0  0  0  0  0  0  0
   -4.5688    6.6217   34.0482 O   0  0  0  0  0  0  0  0  0  0  0  0
   -2.4917    6.9900   35.5496 C   0  0  1  0  0  0  0  0  0  0  0  0
   -3.0195    8.2968   36.0869 O   0  0  0  0  0  0  0  0  0  0  0  0
   -2.8853    5.8003   36.4867 C   0  0  0  0  0  0  0  0  0  0  0  0
   -2.2701    4.5031   36.0672 N   0  0  0  0  0  0  0  0  0  0  0  0
  1  3  1  0  0  0  0
  1  2  1  6  0  0  0
  3  4  1  6  0  0  0
  3  5  1  0  0  0  0
  5  6  1  1  0  0  0
  7  8  1  6  0  0  0
  7  5  1  0  0  0  0
  9 11  1  1  0  0  0
  9  7  1  0  0  0  0
 10  9  1  0  0  0  0
 10  1  1  0  0  0  0
 12 11  1  0  0  0  0
 13 14  1  6  0  0  0
 15 13  1  0  0  0  0
 16 17  1  1  0  0  0
 16 15  1  0  0  0  0
 18  2  1  1  0  0  0
 18 19  1  0  0  0  0
 18 16  1  0  0  0  0
 19 20  1  6  0  0  0
 19 21  1  0  0  0  0
 21 22  1  6  0  0  0
 21 13  1  0  0  0  0
 23 20  1  6  0  0  0
 23 29  1  0  0  0  0
 24 25  1  1  0  0  0
 24 26  1  0  0  0  0
 24 23  1  0  0  0  0
 26 27  1  1  0  0  0
 26 28  1  0  0  0  0
 28 30  1  6  0  0  0
 29 28  1  0  0  0  0
 30 31  1  0  0  0  0
 32 27  1  1  0  0  0
 32 40  1  0  0  0  0
 33 35  1  0  0  0  0
 33 32  1  0  0  0  0
 33 34  1  1  0  0  0
 35 36  1  1  0  0  0
 35 37  1  0  0  0  0
 37 38  1  1  0  0  0
 37 39  1  0  0  0  0
 39 41  1  1  0  0  0
 40 39  1  0  0  0  0
 41 42  1  0  0  0  0
M  END
>  <CHROM.1>
-178.66160616,178.53173476,48.25217210,-51.49374968,167.25155114,177.26091655
54.96355644,-59.62905510,64.53603426,-2.74193613,13.02700422,36.76800941
1.55175539,0.74622879,0.44877204

>  <Name>
lig.pdb

>  <RI>
0

>  <Rbt.Current_Directory>
/home/itssahil/PROJECTS/Mol_Feturizer/New_Systems/rnas/4wcr

>  <Rbt.Executable>
rbdock ($Id: //depot/dev/client3/rdock/2013.1/src/exe/rbdock.cxx#4 $)

>  <Rbt.Library>
libRbt.so (2013.1, Build901 2013/11/27)

>  <Rbt.Parameter_File>
/export/apps/rDock/src/rDock_2013.1_src/data/scripts/dock_solv.prm

>  <Rbt.Receptor>
prm/pocket_docking_4.prm

>  <SCORE>
-2.46072

>  <SCORE.INTER>
5.35697

>  <SCORE.INTER.CONST>
1

>  <SCORE.INTER.POLAR>
0

>  <SCORE.INTER.ROT>
9

>  <SCORE.INTER.SOLV>
13.2685

>  <SCORE.INTER.VDW>
-10.4515

>  <SCORE.INTER.norm>
0.127547

>  <SCORE.INTRA>
-7.81768

>  <SCORE.INTRA.DIHEDRAL>
-13.739

>  <SCORE.INTRA.DIHEDRAL.0>
16.2863

>  <SCORE.INTRA.POLAR>
0

>  <SCORE.INTRA.POLAR.0>
0

>  <SCORE.INTRA.REPUL>
-0.314433

>  <SCORE.INTRA.REPUL.0>
0.314433

>  <SCORE.INTRA.SOLV>
-3.00003

>  <SCORE.INTRA.SOLV.lig_0>
-103.824

>  <SCORE.INTRA.VDW>
2.12398

>  <SCORE.INTRA.VDW.0>
-5.30945

>  <SCORE.INTRA.norm>
-0.186135

>  <SCORE.RESTR>
0

>  <SCORE.RESTR.CAVITY>
0

>  <SCORE.RESTR.norm>
0

>  <SCORE.SYSTEM>
0

>  <SCORE.SYSTEM.CONST>
0

>  <SCORE.SYSTEM.DIHEDRAL>
0

>  <SCORE.SYSTEM.SOLV>
0

>  <SCORE.SYSTEM.norm>
0

>  <SCORE.heavy>
42

>  <SCORE.norm>
-0.0585885

>  <RMSD>
4.960

$$$$
lig.pdb
 OpenBabel11021811513D
libRbt.so/2013.1/901 2013/11/27
 42 45  0  0  0  0  0  0  0  0999 V2000
   -0.0975   17.9983   35.4513 C   0  0  2  0  0  0  0  0  0  0  0  0
   -0.9420   18.2869   36.6092 O   0  0  0  0  0  0  0  0  0  0  0  0
    0.0175   19.3627   34.6357 C   0  0  2  0  0  0  0  0  0  0  0  0
    0.6661   20.3913   35.4536 N   0  0  0  0  0  0  0  0  0  0  0  0
   -1.4509   19.8043   34.1576 C   0  0  1  0  0  0  0  0  0  0  0  0
   -1.4050   21.0328   33.4017 O   0  0  0  0  0  0  0  0  0  0  0  0
   -2.0242   18.6466   33.3224 C   0  0  2  0  0  0  0  0  0  0  0  0
   -3.2966   18.9931   32.8927 O   0  0  0  0  0  0  0  0  0  0  0  0
   -2.0622   17.3118   34.1971 C   0  0  2  0  0  0  0  0  0  0  0  0
   -0.7511   16.9461   34.6455 O   0  0  0  0  0  0  0  0  0  0  0  0
   -2.5978   16.1432   33.4195 C   0  0  0  0  0  0  0  0  0  0  0  0
   -3.9576   16.4299   33.0901 O   0  0  0  0  0  0  0  0  0  0  0  0
   -1.4493   16.3764   40.5923 C   0  0  2  0  0  0  0  0  0  0  0  0
   -1.8167   15.4209   41.6145 N   0  0  0  0  0  0  0  0  0  0  0  0
   -2.7165   16.7797   39.7437 C   0  0  0  0  0  0  0  0  0  0  0  0
   -2.3433   17.8136   38.6237 C   0  0  2  0  0  0  0  0  0  0  0  0
   -3.5405   18.1545   37.8581 N   0  0  0  0  0  0  0  0  0  0  0  0
   -1.2378   17.2534   37.6225 C   0  0  2  0  0  0  0  0  0  0  0  0
    0.0182   16.8955   38.4686 C   0  0  2  0  0  0  0  0  0  0  0  0
    1.0124   16.3862   37.4514 O   0  0  0  0  0  0  0  0  0  0  0  0
   -0.3611   15.7733   39.5842 C   0  0  1  0  0  0  0  0  0  0  0  0
    0.7345   15.3973   40.4790 O   0  0  0  0  0  0  0  0  0  0  0  0
    0.9522   15.0225   37.3334 C   0  0  1  0  0  0  0  0  0  0  0  0
   -0.0129   14.5742   36.3240 C   0  0  2  0  0  0  0  0  0  0  0  0
   -1.2864   14.7858   36.8437 O   0  0  0  0  0  0  0  0  0  0  0  0
    0.4821   13.1371   36.0541 C   0  0  2  0  0  0  0  0  0  0  0  0
   -0.6009   12.2489   36.4117 O   0  0  0  0  0  0  0  0  0  0  0  0
    1.6745   12.9700   36.9373 C   0  0  2  0  0  0  0  0  0  0  0  0
    2.1330   14.3686   36.8989 O   0  0  0  0  0  0  0  0  0  0  0  0
    2.7527   12.0240   36.2917 C   0  0  0  0  0  0  0  0  0  0  0  0
    2.2672   10.6721   36.0351 O   0  0  0  0  0  0  0  0  0  0  0  0
   -1.7866   12.2774   35.5606 C   0  0  2  0  0  0  0  0  0  0  0  0
   -2.9219   11.3414   36.2307 C   0  0  2  0  0  0  0  0  0  0  0  0
   -2.3851    9.9506   36.3866 N   0  0  0  0  0  0  0  0  0  0  0  0
   -4.2247   11.3813   35.2899 C   0  0  1  0  0  0  0  0  0  0  0  0
   -4.6541   12.7739   35.2024 O   0  0  0  0  0  0  0  0  0  0  0  0
   -3.8570   10.8021   33.8498 C   0  0  2  0  0  0  0  0  0  0  0  0
   -3.4470    9.3903   34.0195 O   0  0  0  0  0  0  0  0  0  0  0  0
   -2.6707   11.7267   33.2177 C   0  0  1  0  0  0  0  0  0  0  0  0
   -1.4843   11.7342   34.1490 O   0  0  0  0  0  0  0  0  0  0  0  0
   -2.2718   11.1754   31.8086 C   0  0  0  0  0  0  0  0  0  0  0  0
   -1.2795   12.0454   31.1047 N   0  0  0  0  0  0  0  0  0  0  0  0
  1  3  1  0  0  0  0
  1  2  1  1  0  0  0
  3  4  1  1  0  0  0
  3  5  1  0  0  0  0
  5  6  1  6  0  0  0
  7  8  1  1  0  0  0
  7  5  1  0  0  0  0
  9 11  1  6  0  0  0
  9  7  1  0  0  0  0
 10  9  1  0  0  0  0
 10  1  1  0  0  0  0
 12 11  1  0  0  0  0
 13 14  1  1  0  0  0
 15 13  1  0  0  0  0
 16 17  1  6  0  0  0
 16 15  1  0  0  0  0
 18  2  1  6  0  0  0
 18 19  1  0  0  0  0
 18 16  1  0  0  0  0
 19 20  1  6  0  0  0
 19 21  1  0  0  0  0
 21 22  1  1  0  0  0
 21 13  1  0  0  0  0
 23 20  1  6  0  0  0
 23 29  1  0  0  0  0
 24 25  1  1  0  0  0
 24 26  1  0  0  0  0
 24 23  1  0  0  0  0
 26 27  1  1  0  0  0
 26 28  1  0  0  0  0
 28 30  1  6  0  0  0
 29 28  1  0  0  0  0
 30 31  1  0  0  0  0
 32 27  1  1  0  0  0
 32 40  1  0  0  0  0
 33 35  1  0  0  0  0
 33 32  1  0  0  0  0
 33 34  1  6  0  0  0
 35 36  1  6  0  0  0
 35 37  1  0  0  0  0
 37 38  1  1  0  0  0
 37 39  1  0  0  0  0
 39 41  1  6  0  0  0
 40 39  1  0  0  0  0
 41 42  1  0  0  0  0
M  END
>  <CHROM.1>
-178.17368752,-64.15136949,-171.73845851,-93.69153224,89.35148407,68.91638721
-60.76829752,-173.76499584,174.52724101,-1.23806421,15.03585179,35.91047290
1.33570394,-1.13016118,0.00747336

>  <Name>
lig.pdb

>  <RI>
0

>  <Rbt.Current_Directory>
/home/itssahil/PROJECTS/Mol_Feturizer/New_Systems/rnas/4wcr

>  <Rbt.Executable>
rbdock ($Id: //depot/dev/client3/rdock/2013.1/src/exe/rbdock.cxx#4 $)

>  <Rbt.Library>
libRbt.so (2013.1, Build901 2013/11/27)

>  <Rbt.Parameter_File>
/export/apps/rDock/src/rDock_2013.1_src/data/scripts/dock_solv.prm

>  <Rbt.Receptor>
prm/pocket_docking_7.prm

>  <SCORE>
-10.8488

>  <SCORE.INTER>
-6.74781

>  <SCORE.INTER.CONST>
1

>  <SCORE.INTER.POLAR>
0

>  <SCORE.INTER.ROT>
9

>  <SCORE.INTER.SOLV>
20.8717

>  <SCORE.INTER.VDW>
-21.0558

>  <SCORE.INTER.norm>
-0.160662

>  <SCORE.INTRA>
-4.10098

>  <SCORE.INTRA.DIHEDRAL>
-6.91443

>  <SCORE.INTRA.DIHEDRAL.0>
16.2863

>  <SCORE.INTRA.POLAR>
0

>  <SCORE.INTRA.POLAR.0>
0

>  <SCORE.INTRA.REPUL>
-0.314433

>  <SCORE.INTRA.REPUL.0>
0.314433

>  <SCORE.INTRA.SOLV>
-4.43896

>  <SCORE.INTRA.SOLV.lig_0>
-103.824

>  <SCORE.INTRA.VDW>
3.14788

>  <SCORE.INTRA.VDW.0>
-5.30945

>  <SCORE.INTRA.norm>
-0.0976425

>  <SCORE.RESTR>
0

>  <SCORE.RESTR.CAVITY>
0

>  <SCORE.RESTR.norm>
0

>  <SCORE.SYSTEM>
0

>  <SCORE.SYSTEM.CONST>
0

>  <SCORE.SYSTEM.DIHEDRAL>
0

>  <SCORE.SYSTEM.SOLV>
0

>  <SCORE.SYSTEM.norm>
0

>  <SCORE.heavy>
42

>  <SCORE.norm>
-0.258305

>  <RMSD>
4.981

$$$$
lig.pdb
 OpenBabel11021811513D
libRbt.so/2013.1/901 2013/11/27
 42 45  0  0  0  0  0  0  0  0999 V2000
   -0.0115   17.6819   35.4548 C   0  0  2  0  0  0  0  0  0  0  0  0
   -0.8137   17.9730   36.6418 O   0  0  0  0  0  0  0  0  0  0  0  0
    0.2655   19.0853   34.7522 C   0  0  2  0  0  0  0  0  0  0  0  0
    1.0341   19.9581   35.6440 N   0  0  0  0  0  0  0  0  0  0  0  0
   -1.1399   19.7372   34.3282 C   0  0  1  0  0  0  0  0  0  0  0  0
   -0.9477   21.0095   33.6746 O   0  0  0  0  0  0  0  0  0  0  0  0
   -1.8491   18.7292   33.4077 C   0  0  2  0  0  0  0  0  0  0  0  0
   -3.0713   19.2596   33.0220 O   0  0  0  0  0  0  0  0  0  0  0  0
   -2.0461   17.3410   34.1709 C   0  0  2  0  0  0  0  0  0  0  0  0
   -0.7879   16.7854   34.5732 O   0  0  0  0  0  0  0  0  0  0  0  0
   -2.7192   16.3130   33.3065 C   0  0  0  0  0  0  0  0  0  0  0  0
   -4.0450   16.7727   33.0409 O   0  0  0  0  0  0  0  0  0  0  0  0
   -1.3541   16.0044   40.5921 C   0  0  2  0  0  0  0  0  0  0  0  0
   -1.7341   15.0360   41.5975 N   0  0  0  0  0  0  0  0  0  0  0  0
   -2.6143   16.4321   39.7449 C   0  0  0  0  0  0  0  0  0  0  0  0
   -2.2274   17.4802   38.6430 C   0  0  2  0  0  0  0  0  0  0  0  0
   -3.4184   17.8437   37.8780 N   0  0  0  0  0  0  0  0  0  0  0  0
   -1.1227   16.9263   37.6374 C   0  0  2  0  0  0  0  0  0  0  0  0
    0.1266   16.5441   38.4828 C   0  0  2  0  0  0  0  0  0  0  0  0
    1.1206   16.0422   37.4617 O   0  0  0  0  0  0  0  0  0  0  0  0
   -0.2670   15.4078   39.5789 C   0  0  1  0  0  0  0  0  0  0  0  0
    0.8214   15.0081   40.4720 O   0  0  0  0  0  0  0  0  0  0  0  0
    1.0066   14.6895   37.2764 C   0  0  1  0  0  0  0  0  0  0  0  0
    0.1918   14.3350   36.1095 C   0  0  2  0  0  0  0  0  0  0  0  0
   -1.1350   14.6047   36.4317 O   0  0  0  0  0  0  0  0  0  0  0  0
    0.6453   12.8809   35.8583 C   0  0  2  0  0  0  0  0  0  0  0  0
   -0.5270   12.0476   36.0025 O   0  0  0  0  0  0  0  0  0  0  0  0
    1.6711   12.6122   36.9096 C   0  0  2  0  0  0  0  0  0  0  0  0
    2.2045   13.9813   37.0046 O   0  0  0  0  0  0  0  0  0  0  0  0
    2.7859   11.6260   36.4006 C   0  0  0  0  0  0  0  0  0  0  0  0
    2.2668   10.3409   35.9443 O   0  0  0  0  0  0  0  0  0  0  0  0
   -1.5537   12.1683   34.9718 C   0  0  2  0  0  0  0  0  0  0  0  0
   -2.7754   11.1776   35.3459 C   0  0  2  0  0  0  0  0  0  0  0  0
   -2.2579    9.7748   35.4507 N   0  0  0  0  0  0  0  0  0  0  0  0
   -3.9026   11.3193   34.2087 C   0  0  1  0  0  0  0  0  0  0  0  0
   -4.3258   12.7165   34.1890 O   0  0  0  0  0  0  0  0  0  0  0  0
   -3.2931   10.8840   32.8004 C   0  0  2  0  0  0  0  0  0  0  0  0
   -2.9026    9.4597   32.8954 O   0  0  0  0  0  0  0  0  0  0  0  0
   -2.0273   11.8593   32.4709 C   0  0  1  0  0  0  0  0  0  0  0  0
   -1.0138   11.7664   33.5840 O   0  0  0  0  0  0  0  0  0  0  0  0
   -1.3925   11.4484   31.1010 C   0  0  0  0  0  0  0  0  0  0  0  0
   -2.3406   11.5986   29.9538 N   0  0  0  0  0  0  0  0  0  0  0  0
  1  3  1  0  0  0  0
  1  2  1  1  0  0  0
  3  4  1  1  0  0  0
  3  5  1  0  0  0  0
  5  6  1  6  0  0  0
  7  8  1  1  0  0  0
  7  5  1  0  0  0  0
  9 11  1  6  0  0  0
  9  7  1  0  0  0  0
 10  9  1  0  0  0  0
 10  1  1  0  0  0  0
 12 11  1  0  0  0  0
 13 14  1  1  0  0  0
 15 13  1  0  0  0  0
 16 17  1  6  0  0  0
 16 15  1  0  0  0  0
 18  2  1  6  0  0  0
 18 19  1  0  0  0  0
 18 16  1  0  0  0  0
 19 20  1  6  0  0  0
 19 21  1  0  0  0  0
 21 22  1  1  0  0  0
 21 13  1  0  0  0  0
 23 20  1  6  0  0  0
 23 29  1  0  0  0  0
 24 25  1  1  0  0  0
 24 26  1  0  0  0  0
 24 23  1  0  0  0  0
 26 27  1  1  0  0  0
 26 28  1  0  0  0  0
 28 30  1  6  0  0  0
 29 28  1  0  0  0  0
 30 31  1  0  0  0  0
 32 27  1  1  0  0  0
 32 40  1  0  0  0  0
 33 35  1  0  0  0  0
 33 32  1  0  0  0  0
 33 34  1  6  0  0  0
 35 36  1  6  0  0  0
 35 37  1  0  0  0  0
 37 38  1  1  0  0  0
 37 39  1  0  0  0  0
 39 41  1  6  0  0  0
 40 39  1  0  0  0  0
 41 42  1  0  0  0  0
M  END
>  <CHROM.1>
-172.32056686,-65.38837262,-169.24086640,-90.87542634,97.34027947,69.42220824
-57.62290903,-178.86288642,62.08036345,-1.07758065,14.86419340,35.66689008
1.31889873,-1.14558392,0.18652923

>  <Name>
lig.pdb

>  <RI>
0

>  <Rbt.Current_Directory>
/home/itssahil/PROJECTS/Mol_Feturizer/New_Systems/rnas/4wcr

>  <Rbt.Executable>
rbdock ($Id: //depot/dev/client3/rdock/2013.1/src/exe/rbdock.cxx#4 $)

>  <Rbt.Library>
libRbt.so (2013.1, Build901 2013/11/27)

>  <Rbt.Parameter_File>
/export/apps/rDock/src/rDock_2013.1_src/data/scripts/dock_solv.prm

>  <Rbt.Receptor>
prm/pocket_docking_6.prm

>  <SCORE>
-12.3527

>  <SCORE.INTER>
-8.69342

>  <SCORE.INTER.CONST>
1

>  <SCORE.INTER.POLAR>
0

>  <SCORE.INTER.ROT>
9

>  <SCORE.INTER.SOLV>
18.7966

>  <SCORE.INTER.VDW>
-21.6611

>  <SCORE.INTER.norm>
-0.206986

>  <SCORE.INTRA>
-3.65925

>  <SCORE.INTRA.DIHEDRAL>
-5.67737

>  <SCORE.INTRA.DIHEDRAL.0>
16.2863

>  <SCORE.INTRA.POLAR>
0

>  <SCORE.INTRA.POLAR.0>
0

>  <SCORE.INTRA.REPUL>
-0.314433

>  <SCORE.INTRA.REPUL.0>
0.314433

>  <SCORE.INTRA.SOLV>
-3.81755

>  <SCORE.INTRA.SOLV.lig_0>
-103.824

>  <SCORE.INTRA.VDW>
2.66037

>  <SCORE.INTRA.VDW.0>
-5.30945

>  <SCORE.INTRA.norm>
-0.0871251

>  <SCORE.RESTR>
0

>  <SCORE.RESTR.CAVITY>
0

>  <SCORE.RESTR.norm>
0

>  <SCORE.SYSTEM>
0

>  <SCORE.SYSTEM.CONST>
0

>  <SCORE.SYSTEM.DIHEDRAL>
0

>  <SCORE.SYSTEM.SOLV>
0

>  <SCORE.SYSTEM.norm>
0

>  <SCORE.heavy>
42

>  <SCORE.norm>
-0.294111

>  <RMSD>
5.055

$$$$
lig.pdb
 OpenBabel11021811513D
libRbt.so/2013.1/901 2013/11/27
 42 45  0  0  0  0  0  0  0  0999 V2000
   -4.4973   15.9706   36.8901 C   0  0  2  0  0  0  0  0  0  0  0  0
   -3.0954   15.5565   36.8748 O   0  0  0  0  0  0  0  0  0  0  0  0
   -4.8064   16.4336   38.3834 C   0  0  2  0  0  0  0  0  0  0  0  0
   -3.9675   17.5796   38.7448 N   0  0  0  0  0  0  0  0  0  0  0  0
   -4.5841   15.1843   39.3682 C   0  0  1  0  0  0  0  0  0  0  0  0
   -4.8619   15.5449   40.7377 O   0  0  0  0  0  0  0  0  0  0  0  0
   -5.5064   14.0530   38.8824 C   0  0  2  0  0  0  0  0  0  0  0  0
   -5.3392   12.9535   39.7111 O   0  0  0  0  0  0  0  0  0  0  0  0
   -5.1616   13.6827   37.3683 C   0  0  2  0  0  0  0  0  0  0  0  0
   -5.3317   14.8134   36.5045 O   0  0  0  0  0  0  0  0  0  0  0  0
   -6.0494   12.5927   36.8383 C   0  0  0  0  0  0  0  0  0  0  0  0
   -5.5860   12.2556   35.5301 O   0  0  0  0  0  0  0  0  0  0  0  0
    0.5650   17.7663   35.6537 C   0  0  2  0  0  0  0  0  0  0  0  0
    1.5993   18.7764   35.6004 N   0  0  0  0  0  0  0  0  0  0  0  0
   -0.8544   18.4311   35.4747 C   0  0  0  0  0  0  0  0  0  0  0  0
   -1.9957   17.3557   35.5333 C   0  0  2  0  0  0  0  0  0  0  0  0
   -3.2912   18.0121   35.3709 N   0  0  0  0  0  0  0  0  0  0  0  0
   -2.0000   16.5472   36.9061 C   0  0  2  0  0  0  0  0  0  0  0  0
   -0.6078   15.8671   37.0503 C   0  0  2  0  0  0  0  0  0  0  0  0
   -0.6987   15.1202   38.3605 O   0  0  0  0  0  0  0  0  0  0  0  0
    0.5663   16.9936   37.0563 C   0  0  1  0  0  0  0  0  0  0  0  0
    1.9289   16.4649   37.1322 O   0  0  0  0  0  0  0  0  0  0  0  0
   -0.3821   13.7963   38.2038 C   0  0  1  0  0  0  0  0  0  0  0  0
   -1.4716   13.0097   37.6161 C   0  0  2  0  0  0  0  0  0  0  0  0
   -2.4535   12.8658   38.5918 O   0  0  0  0  0  0  0  0  0  0  0  0
   -0.7044   11.7718   37.1039 C   0  0  2  0  0  0  0  0  0  0  0  0
   -1.2471   10.6272   37.8003 O   0  0  0  0  0  0  0  0  0  0  0  0
    0.7229   12.0323   37.4566 C   0  0  2  0  0  0  0  0  0  0  0  0
    0.6850   13.4978   37.3191 O   0  0  0  0  0  0  0  0  0  0  0  0
    1.7093   11.4102   36.4009 C   0  0  0  0  0  0  0  0  0  0  0  0
    1.5681   11.9759   35.0633 O   0  0  0  0  0  0  0  0  0  0  0  0
   -0.7116    9.3186   37.4374 C   0  0  2  0  0  0  0  0  0  0  0  0
   -1.1123    9.0079   35.9021 C   0  0  2  0  0  0  0  0  0  0  0  0
   -2.6041    9.0541   35.7632 N   0  0  0  0  0  0  0  0  0  0  0  0
   -0.5160    7.5677   35.5095 C   0  0  1  0  0  0  0  0  0  0  0  0
    0.9315    7.6342   35.6880 O   0  0  0  0  0  0  0  0  0  0  0  0
   -1.1600    6.4524   36.4506 C   0  0  2  0  0  0  0  0  0  0  0  0
   -2.6190    6.4367   36.2030 O   0  0  0  0  0  0  0  0  0  0  0  0
   -0.7917    6.8178   37.9975 C   0  0  1  0  0  0  0  0  0  0  0  0
   -1.2966    8.2008   38.3248 O   0  0  0  0  0  0  0  0  0  0  0  0
   -1.4240    5.7513   38.9522 C   0  0  0  0  0  0  0  0  0  0  0  0
   -1.1795    6.0488   40.3975 N   0  0  0  0  0  0  0  0  0  0  0  0
  1  3  1  0  0  0  0
  1  2  1  1  0  0  0
  3  4  1  1  0  0  0
  3  5  1  0  0  0  0
  5  6  1  1  0  0  0
  7  8  1  1  0  0  0
  7  5  1  0  0  0  0
  9 11  1  6  0  0  0
  9  7  1  0  0  0  0
 10  9  1  0  0  0  0
 10  1  1  0  0  0  0
 12 11  1  0  0  0  0
 13 14  1  1  0  0  0
 15 13  1  0  0  0  0
 16 17  1  1  0  0  0
 16 15  1  0  0  0  0
 18  2  1  6  0  0  0
 18 19  1  0  0  0  0
 18 16  1  0  0  0  0
 19 20  1  1  0  0  0
 19 21  1  0  0  0  0
 21 22  1  6  0  0  0
 21 13  1  0  0  0  0
 23 20  1  6  0  0  0
 23 29  1  0  0  0  0
 24 25  1  1  0  0  0
 24 26  1  0  0  0  0
 24 23  1  0  0  0  0
 26 27  1  1  0  0  0
 26 28  1  0  0  0  0
 28 30  1  6  0  0  0
 29 28  1  0  0  0  0
 30 31  1  0  0  0  0
 32 27  1  1  0  0  0
 32 40  1  0  0  0  0
 33 35  1  0  0  0  0
 33 32  1  0  0  0  0
 33 34  1  1  0  0  0
 35 36  1  1  0  0  0
 35 37  1  0  0  0  0
 37 38  1  1  0  0  0
 37 39  1  0  0  0  0
 39 41  1  1  0  0  0
 40 39  1  0  0  0  0
 41 42  1  0  0  0  0
M  END
>  <CHROM.1>
-74.74926976,-174.93999220,-68.12030817,125.91919395,-77.82533264,177.48017593
62.65550166,-65.11723482,-177.56483096,-1.85508315,12.85689752,37.25127532
1.69946224,0.30498353,-0.06297457

>  <Name>
lig.pdb

>  <RI>
0

>  <Rbt.Current_Directory>
/home/itssahil/PROJECTS/Mol_Feturizer/New_Systems/rnas/4wcr

>  <Rbt.Executable>
rbdock ($Id: //depot/dev/client3/rdock/2013.1/src/exe/rbdock.cxx#4 $)

>  <Rbt.Library>
libRbt.so (2013.1, Build901 2013/11/27)

>  <Rbt.Parameter_File>
/export/apps/rDock/src/rDock_2013.1_src/data/scripts/dock_solv.prm

>  <Rbt.Receptor>
prm/pocket_docking_4.prm

>  <SCORE>
-2.0657

>  <SCORE.INTER>
2.28062

>  <SCORE.INTER.CONST>
1

>  <SCORE.INTER.POLAR>
0

>  <SCORE.INTER.ROT>
9

>  <SCORE.INTER.SOLV>
15.6664

>  <SCORE.INTER.VDW>
-13.3017

>  <SCORE.INTER.norm>
0.0543005

>  <SCORE.INTRA>
-4.38048

>  <SCORE.INTRA.DIHEDRAL>
-5.6412

>  <SCORE.INTRA.DIHEDRAL.0>
16.2863

>  <SCORE.INTRA.POLAR>
0

>  <SCORE.INTRA.POLAR.0>
0

>  <SCORE.INTRA.REPUL>
-0.314433

>  <SCORE.INTRA.REPUL.0>
0.314433

>  <SCORE.INTRA.SOLV>
-0.450534

>  <SCORE.INTRA.SOLV.lig_0>
-103.824

>  <SCORE.INTRA.VDW>
0.237554

>  <SCORE.INTRA.VDW.0>
-5.30945

>  <SCORE.INTRA.norm>
-0.104297

>  <SCORE.RESTR>
0.0341596

>  <SCORE.RESTR.CAVITY>
0.0341596

>  <SCORE.RESTR.norm>
0.000813323

>  <SCORE.SYSTEM>
0

>  <SCORE.SYSTEM.CONST>
0

>  <SCORE.SYSTEM.DIHEDRAL>
0

>  <SCORE.SYSTEM.SOLV>
0

>  <SCORE.SYSTEM.norm>
0

>  <SCORE.heavy>
42

>  <SCORE.norm>
-0.0491832

>  <RMSD>
5.156

$$$$
lig.pdb
 OpenBabel11021811513D
libRbt.so/2013.1/901 2013/11/27
 42 45  0  0  0  0  0  0  0  0999 V2000
   -5.0842   16.4676   37.4598 C   0  0  2  0  0  0  0  0  0  0  0  0
   -4.1705   16.1325   38.5506 O   0  0  0  0  0  0  0  0  0  0  0  0
   -6.4395   16.9464   38.1483 C   0  0  2  0  0  0  0  0  0  0  0  0
   -6.2033   18.1456   38.9569 N   0  0  0  0  0  0  0  0  0  0  0  0
   -7.0330   15.7344   39.0192 C   0  0  1  0  0  0  0  0  0  0  0  0
   -8.2710   16.1101   39.6586 O   0  0  0  0  0  0  0  0  0  0  0  0
   -7.2268   14.5424   38.0664 C   0  0  2  0  0  0  0  0  0  0  0  0
   -7.7380   13.4732   38.7868 O   0  0  0  0  0  0  0  0  0  0  0  0
   -5.8345   14.1576   37.3868 C   0  0  2  0  0  0  0  0  0  0  0  0
   -5.2987   15.2570   36.6399 O   0  0  0  0  0  0  0  0  0  0  0  0
   -5.9730   13.0077   36.4297 C   0  0  0  0  0  0  0  0  0  0  0  0
   -4.7364   12.8788   35.7270 O   0  0  0  0  0  0  0  0  0  0  0  0
   -0.2174   16.5809   36.5646 C   0  0  2  0  0  0  0  0  0  0  0  0
    1.2030   16.7780   36.3733 N   0  0  0  0  0  0  0  0  0  0  0  0
   -0.8270   17.7804   37.3881 C   0  0  0  0  0  0  0  0  0  0  0  0
   -2.3681   17.5882   37.6134 C   0  0  2  0  0  0  0  0  0  0  0  0
   -2.8911   18.7142   38.3843 N   0  0  0  0  0  0  0  0  0  0  0  0
   -2.7060   16.2372   38.3873 C   0  0  2  0  0  0  0  0  0  0  0  0
   -2.1316   15.0617   37.5447 C   0  0  2  0  0  0  0  0  0  0  0  0
   -2.5005   13.8288   38.3362 O   0  0  0  0  0  0  0  0  0  0  0  0
   -0.5227   15.2322   37.3720 C   0  0  1  0  0  0  0  0  0  0  0  0
    0.1216   14.2092   36.5470 O   0  0  0  0  0  0  0  0  0  0  0  0
   -2.1675   12.6838   37.6614 C   0  0  1  0  0  0  0  0  0  0  0  0
   -3.1492   11.6079   37.8338 C   0  0  2  0  0  0  0  0  0  0  0  0
   -3.0105   11.1226   39.1307 O   0  0  0  0  0  0  0  0  0  0  0  0
   -2.8143   10.7014   36.6299 C   0  0  2  0  0  0  0  0  0  0  0  0
   -2.4181    9.4204   37.1700 O   0  0  0  0  0  0  0  0  0  0  0  0
   -1.6956   11.3964   35.9262 C   0  0  2  0  0  0  0  0  0  0  0  0
   -2.1001   12.7750   36.2480 O   0  0  0  0  0  0  0  0  0  0  0  0
   -1.7466   11.1612   34.3717 C   0  0  0  0  0  0  0  0  0  0  0  0
   -2.9133   11.7554   33.7276 O   0  0  0  0  0  0  0  0  0  0  0  0
   -2.2741    8.3201   36.2216 C   0  0  2  0  0  0  0  0  0  0  0  0
   -3.6793    8.1234   35.4464 C   0  0  2  0  0  0  0  0  0  0  0  0
   -4.7611    7.8535   36.4481 N   0  0  0  0  0  0  0  0  0  0  0  0
   -3.5111    6.9131   34.4020 C   0  0  1  0  0  0  0  0  0  0  0  0
   -2.4341    7.2771   33.4858 O   0  0  0  0  0  0  0  0  0  0  0  0
   -3.1627    5.5732   35.1943 C   0  0  2  0  0  0  0  0  0  0  0  0
   -4.3020    5.2644   36.0869 O   0  0  0  0  0  0  0  0  0  0  0  0
   -1.7728    5.8141   36.0141 C   0  0  1  0  0  0  0  0  0  0  0  0
   -1.9276    6.9976   36.9360 O   0  0  0  0  0  0  0  0  0  0  0  0
   -1.4090    4.5223   36.8188 C   0  0  0  0  0  0  0  0  0  0  0  0
   -2.4531    4.1514   37.8237 N   0  0  0  0  0  0  0  0  0  0  0  0
  1  3  1  0  0  0  0
  1  2  1  1  0  0  0
  3  4  1  1  0  0  0
  3  5  1  0  0  0  0
  5  6  1  6  0  0  0
  7  8  1  1  0  0  0
  7  5  1  0  0  0  0
  9 11  1  6  0  0  0
  9  7  1  0  0  0  0
 10  9  1  0  0  0  0
 10  1  1  0  0  0  0
 12 11  1  0  0  0  0
 13 14  1  1  0  0  0
 15 13  1  0  0  0  0
 16 17  1  1  0  0  0
 16 15  1  0  0  0  0
 18  2  1  6  0  0  0
 18 19  1  0  0  0  0
 18 16  1  0  0  0  0
 19 20  1  1  0  0  0
 19 21  1  0  0  0  0
 21 22  1  6  0  0  0
 21 13  1  0  0  0  0
 23 20  1  1  0  0  0
 23 29  1  0  0  0  0
 24 25  1  1  0  0  0
 24 26  1  0  0  0  0
 24 23  1  0  0  0  0
 26 27  1  1  0  0  0
 26 28  1  0  0  0  0
 28 30  1  6  0  0  0
 29 28  1  0  0  0  0
 30 31  1  0  0  0  0
 32 27  1  1  0  0  0
 32 40  1  0  0  0  0
 33 35  1  0  0  0  0
 33 32  1  0  0  0  0
 33 34  1  1  0  0  0
 35 36  1  6  0  0  0
 35 37  1  0  0  0  0
 37 38  1  1  0  0  0
 37 39  1  0  0  0  0
 39 41  1  1  0  0  0
 40 39  1  0  0  0  0
 41 42  1  0  0  0  0
M  END
>  <CHROM.1>
-152.09459701,171.10988588,42.74294716,174.49406189,-142.61742682,169.69687274
65.64126235,-57.60489982,-60.82133432,-3.36216094,12.31083612,36.97147750
1.70967997,0.27113050,0.16534485

>  <Name>
lig.pdb

>  <RI>
0

>  <Rbt.Current_Directory>
/home/itssahil/PROJECTS/Mol_Feturizer/New_Systems/rnas/4wcr

>  <Rbt.Executable>
rbdock ($Id: //depot/dev/client3/rdock/2013.1/src/exe/rbdock.cxx#4 $)

>  <Rbt.Library>
libRbt.so (2013.1, Build901 2013/11/27)

>  <Rbt.Parameter_File>
/export/apps/rDock/src/rDock_2013.1_src/data/scripts/dock_solv.prm

>  <Rbt.Receptor>
prm/pocket_docking_2.prm

>  <SCORE>
4.52571

>  <SCORE.INTER>
6.39044

>  <SCORE.INTER.CONST>
1

>  <SCORE.INTER.POLAR>
0

>  <SCORE.INTER.ROT>
9

>  <SCORE.INTER.SOLV>
17.7955

>  <SCORE.INTER.VDW>
-11.2716

>  <SCORE.INTER.norm>
0.152153

>  <SCORE.INTRA>
-3.19036

>  <SCORE.INTRA.DIHEDRAL>
-5.2205

>  <SCORE.INTRA.DIHEDRAL.0>
16.2863

>  <SCORE.INTRA.POLAR>
0

>  <SCORE.INTRA.POLAR.0>
0

>  <SCORE.INTRA.REPUL>
-0.314433

>  <SCORE.INTRA.REPUL.0>
0.314433

>  <SCORE.INTRA.SOLV>
1.02248

>  <SCORE.INTRA.SOLV.lig_0>
-103.824

>  <SCORE.INTRA.VDW>
0.480815

>  <SCORE.INTRA.VDW.0>
-5.30945

>  <SCORE.INTRA.norm>
-0.075961

>  <SCORE.RESTR>
1.32564

>  <SCORE.RESTR.CAVITY>
1.32564

>  <SCORE.RESTR.norm>
0.0315628

>  <SCORE.SYSTEM>
0

>  <SCORE.SYSTEM.CONST>
0

>  <SCORE.SYSTEM.DIHEDRAL>
0

>  <SCORE.SYSTEM.SOLV>
0

>  <SCORE.SYSTEM.norm>
0

>  <SCORE.heavy>
42

>  <SCORE.norm>
0.107755

>  <RMSD>
5.157

$$$$
lig.pdb
 OpenBabel11021811513D
libRbt.so/2013.1/901 2013/11/27
 42 45  0  0  0  0  0  0  0  0999 V2000
   -3.5535   15.6572   35.2095 C   0  0  2  0  0  0  0  0  0  0  0  0
   -2.2254   15.7610   35.8117 O   0  0  0  0  0  0  0  0  0  0  0  0
   -4.4216   14.7628   36.2027 C   0  0  2  0  0  0  0  0  0  0  0  0
   -4.5403   15.4200   37.5072 N   0  0  0  0  0  0  0  0  0  0  0  0
   -3.7458   13.3100   36.3144 C   0  0  1  0  0  0  0  0  0  0  0  0
   -4.4997   12.4514   37.1959 O   0  0  0  0  0  0  0  0  0  0  0  0
   -3.6702   12.7333   34.8902 C   0  0  2  0  0  0  0  0  0  0  0  0
   -3.0883   11.4757   34.9479 O   0  0  0  0  0  0  0  0  0  0  0  0
   -2.8245   13.7098   33.9523 C   0  0  2  0  0  0  0  0  0  0  0  0
   -3.4188   15.0121   33.8868 O   0  0  0  0  0  0  0  0  0  0  0  0
   -2.7364   13.2002   32.5417 C   0  0  0  0  0  0  0  0  0  0  0  0
   -1.9184   12.0296   32.5553 O   0  0  0  0  0  0  0  0  0  0  0  0
    0.8131   18.9043   34.9991 C   0  0  2  0  0  0  0  0  0  0  0  0
    1.4839   20.1859   34.9787 N   0  0  0  0  0  0  0  0  0  0  0  0
   -0.6428   19.0428   34.4076 C   0  0  0  0  0  0  0  0  0  0  0  0
   -1.3943   17.6653   34.4227 C   0  0  2  0  0  0  0  0  0  0  0  0
   -2.7380   17.8384   33.8748 N   0  0  0  0  0  0  0  0  0  0  0  0
   -1.5144   17.0537   35.8889 C   0  0  2  0  0  0  0  0  0  0  0  0
   -0.0701   16.8881   36.4440 C   0  0  2  0  0  0  0  0  0  0  0  0
   -0.2719   16.2990   37.8206 O   0  0  0  0  0  0  0  0  0  0  0  0
    0.6801   18.3313   36.4885 C   0  0  1  0  0  0  0  0  0  0  0  0
    2.0704   18.2906   36.9440 O   0  0  0  0  0  0  0  0  0  0  0  0
   -0.0231   14.9516   37.8287 C   0  0  1  0  0  0  0  0  0  0  0  0
   -1.2444   14.1406   37.7865 C   0  0  2  0  0  0  0  0  0  0  0  0
   -1.8519   14.2388   39.0347 O   0  0  0  0  0  0  0  0  0  0  0  0
   -0.6867   12.7846   37.3034 C   0  0  2  0  0  0  0  0  0  0  0  0
   -0.9700   11.8225   38.3444 O   0  0  0  0  0  0  0  0  0  0  0  0
    0.7772   13.0154   37.1206 C   0  0  2  0  0  0  0  0  0  0  0  0
    0.6951   14.4306   36.7227 O   0  0  0  0  0  0  0  0  0  0  0  0
    1.3633   12.1507   35.9445 C   0  0  0  0  0  0  0  0  0  0  0  0
    0.7200   12.3988   34.6585 O   0  0  0  0  0  0  0  0  0  0  0  0
   -1.4669   10.5172   37.9196 C   0  0  2  0  0  0  0  0  0  0  0  0
   -1.8673    9.6675   39.2356 C   0  0  2  0  0  0  0  0  0  0  0  0
   -0.6670    9.5410   40.1245 N   0  0  0  0  0  0  0  0  0  0  0  0
   -2.4166    8.2339   38.7592 C   0  0  1  0  0  0  0  0  0  0  0  0
   -3.5715    8.4756   37.8993 O   0  0  0  0  0  0  0  0  0  0  0  0
   -1.2658    7.4599   37.9710 C   0  0  2  0  0  0  0  0  0  0  0  0
   -0.1418    7.2410   38.9084 O   0  0  0  0  0  0  0  0  0  0  0  0
   -0.8380    8.3622   36.6808 C   0  0  1  0  0  0  0  0  0  0  0  0
   -0.3936    9.7274   37.1430 O   0  0  0  0  0  0  0  0  0  0  0  0
    0.3042    7.6397   35.8922 C   0  0  0  0  0  0  0  0  0  0  0  0
   -0.1372    6.3442   35.2885 N   0  0  0  0  0  0  0  0  0  0  0  0
  1  3  1  0  0  0  0
  1  2  1  1  0  0  0
  3  4  1  1  0  0  0
  3  5  1  0  0  0  0
  5  6  1  1  0  0  0
  7  8  1  1  0  0  0
  7  5  1  0  0  0  0
  9 11  1  6  0  0  0
  9  7  1  0  0  0  0
 10  9  1  0  0  0  0
 10  1  1  0  0  0  0
 12 11  1  0  0  0  0
 13 14  1  1  0  0  0
 15 13  1  0  0  0  0
 16 17  1  1  0  0  0
 16 15  1  0  0  0  0
 18  2  1  6  0  0  0
 18 19  1  0  0  0  0
 18 16  1  0  0  0  0
 19 20  1  1  0  0  0
 19 21  1  0  0  0  0
 21 22  1  6  0  0  0
 21 13  1  0  0  0  0
 23 20  1  6  0  0  0
 23 29  1  0  0  0  0
 24 25  1  1  0  0  0
 24 26  1  0  0  0  0
 24 23  1  0  0  0  0
 26 27  1  1  0  0  0
 26 28  1  0  0  0  0
 28 30  1  6  0  0  0
 29 28  1  0  0  0  0
 30 31  1  0  0  0  0
 32 27  1  1  0  0  0
 32 40  1  0  0  0  0
 33 35  1  0  0  0  0
 33 32  1  0  0  0  0
 33 34  1  1  0  0  0
 35 36  1  6  0  0  0
 35 37  1  0  0  0  0
 37 38  1  1  0  0  0
 37 39  1  0  0  0  0
 39 41  1  1  0  0  0
 40 39  1  0  0  0  0
 41 42  1  0  0  0  0
M  END
>  <CHROM.1>
-134.60573423,-68.96331264,-55.95216780,101.93340172,-100.59601531,136.84764550
58.26565304,-173.86972662,65.00572016,-1.32611901,13.28237792,36.37879110
1.49477393,-0.61060896,-0.26977029

>  <Name>
lig.pdb

>  <RI>
0

>  <Rbt.Current_Directory>
/home/itssahil/PROJECTS/Mol_Feturizer/New_Systems/rnas/4wcr

>  <Rbt.Executable>
rbdock ($Id: //depot/dev/client3/rdock/2013.1/src/exe/rbdock.cxx#4 $)

>  <Rbt.Library>
libRbt.so (2013.1, Build901 2013/11/27)

>  <Rbt.Parameter_File>
/export/apps/rDock/src/rDock_2013.1_src/data/scripts/dock_solv.prm

>  <Rbt.Receptor>
prm/pocket_docking_4.prm

>  <SCORE>
-0.623126

>  <SCORE.INTER>
-2.80724

>  <SCORE.INTER.CONST>
1

>  <SCORE.INTER.POLAR>
0

>  <SCORE.INTER.ROT>
9

>  <SCORE.INTER.SOLV>
18.1189

>  <SCORE.INTER.VDW>
-17.5111

>  <SCORE.INTER.norm>
-0.066839

>  <SCORE.INTRA>
2.18411

>  <SCORE.INTRA.DIHEDRAL>
7.98646

>  <SCORE.INTRA.DIHEDRAL.0>
16.2863

>  <SCORE.INTRA.POLAR>
0

>  <SCORE.INTRA.POLAR.0>
0

>  <SCORE.INTRA.REPUL>
-0.314433

>  <SCORE.INTRA.REPUL.0>
0.314433

>  <SCORE.INTRA.SOLV>
0.27975

>  <SCORE.INTRA.SOLV.lig_0>
-103.824

>  <SCORE.INTRA.VDW>
-0.376828

>  <SCORE.INTRA.VDW.0>
-5.30945

>  <SCORE.INTRA.norm>
0.0520026

>  <SCORE.RESTR>
0

>  <SCORE.RESTR.CAVITY>
0

>  <SCORE.RESTR.norm>
0

>  <SCORE.SYSTEM>
0

>  <SCORE.SYSTEM.CONST>
0

>  <SCORE.SYSTEM.DIHEDRAL>
0

>  <SCORE.SYSTEM.SOLV>
0

>  <SCORE.SYSTEM.norm>
0

>  <SCORE.heavy>
42

>  <SCORE.norm>
-0.0148363

>  <RMSD>
5.466

$$$$
lig.pdb
 OpenBabel11021811513D
libRbt.so/2013.1/901 2013/11/27
 42 45  0  0  0  0  0  0  0  0999 V2000
   -1.0723   13.6793   36.8970 C   0  0  2  0  0  0  0  0  0  0  0  0
   -1.7226   12.5499   37.5595 O   0  0  0  0  0  0  0  0  0  0  0  0
   -1.6992   13.7554   35.4337 C   0  0  2  0  0  0  0  0  0  0  0  0
   -3.1398   14.0133   35.5101 N   0  0  0  0  0  0  0  0  0  0  0  0
   -1.3676   12.3888   34.6578 C   0  0  1  0  0  0  0  0  0  0  0  0
   -1.9040   12.4072   33.3181 O   0  0  0  0  0  0  0  0  0  0  0  0
    0.1623   12.2286   34.6530 C   0  0  2  0  0  0  0  0  0  0  0  0
    0.4864   11.0539   33.9905 O   0  0  0  0  0  0  0  0  0  0  0  0
    0.7115   12.2073   36.1517 C   0  0  2  0  0  0  0  0  0  0  0  0
    0.3811   13.4177   36.8441 O   0  0  0  0  0  0  0  0  0  0  0  0
    2.2069   12.0714   36.2024 C   0  0  0  0  0  0  0  0  0  0  0  0
    2.5362   10.7530   35.7629 O   0  0  0  0  0  0  0  0  0  0  0  0
   -5.2665   12.2728   40.2309 C   0  0  2  0  0  0  0  0  0  0  0  0
   -6.6142   12.4209   40.7356 N   0  0  0  0  0  0  0  0  0  0  0  0
   -4.6660   13.6839   39.8608 C   0  0  0  0  0  0  0  0  0  0  0  0
   -3.2042   13.5502   39.3060 C   0  0  2  0  0  0  0  0  0  0  0  0
   -2.6886   14.8756   38.9694 N   0  0  0  0  0  0  0  0  0  0  0  0
   -3.1274   12.6269   38.0099 C   0  0  2  0  0  0  0  0  0  0  0  0
   -3.6879   11.2287   38.4004 C   0  0  2  0  0  0  0  0  0  0  0  0
   -3.5711   10.4191   37.1301 O   0  0  0  0  0  0  0  0  0  0  0  0
   -5.2265   11.3665   38.9114 C   0  0  1  0  0  0  0  0  0  0  0  0
   -5.8426   10.1167   39.3595 O   0  0  0  0  0  0  0  0  0  0  0  0
   -3.8592    9.0980   37.3514 C   0  0  1  0  0  0  0  0  0  0  0  0
   -3.6990    8.2656   36.1546 C   0  0  2  0  0  0  0  0  0  0  0  0
   -4.7564    8.5598   35.2990 O   0  0  0  0  0  0  0  0  0  0  0  0
   -3.5807    6.8598   36.7814 C   0  0  2  0  0  0  0  0  0  0  0  0
   -4.6863    6.0811   36.2705 O   0  0  0  0  0  0  0  0  0  0  0  0
   -3.6735    7.0877   38.2542 C   0  0  2  0  0  0  0  0  0  0  0  0
   -3.0336    8.4134   38.2789 O   0  0  0  0  0  0  0  0  0  0  0  0
   -2.8107    6.0498   39.0621 C   0  0  0  0  0  0  0  0  0  0  0  0
   -1.3887    6.0921   38.7378 O   0  0  0  0  0  0  0  0  0  0  0  0
   -4.7486    4.6794   36.6735 C   0  0  2  0  0  0  0  0  0  0  0  0
   -3.3891    3.9469   36.1946 C   0  0  2  0  0  0  0  0  0  0  0  0
   -3.2489    4.0906   34.7092 N   0  0  0  0  0  0  0  0  0  0  0  0
   -3.4641    2.4057   36.6452 C   0  0  1  0  0  0  0  0  0  0  0  0
   -3.6068    2.3849   38.0981 O   0  0  0  0  0  0  0  0  0  0  0  0
   -4.7095    1.7055   35.9358 C   0  0  2  0  0  0  0  0  0  0  0  0
   -4.4853    1.7538   34.4738 O   0  0  0  0  0  0  0  0  0  0  0  0
   -6.0629    2.4965   36.3879 C   0  0  1  0  0  0  0  0  0  0  0  0
   -5.9434    3.9545   36.0208 O   0  0  0  0  0  0  0  0  0  0  0  0
   -7.3058    1.8456   35.6950 C   0  0  0  0  0  0  0  0  0  0  0  0
   -8.6042    2.3624   36.2283 N   0  0  0  0  0  0  0  0  0  0  0  0
  1  3  1  0  0  0  0
  1  2  1  1  0  0  0
  3  4  1  1  0  0  0
  3  5  1  0  0  0  0
  5  6  1  6  0  0  0
  7  8  1  1  0  0  0
  7  5  1  0  0  0  0
  9 11  1  6  0  0  0
  9  7  1  0  0  0  0
 10  9  1  0  0  0  0
 10  1  1  0  0  0  0
 12 11  1  0  0  0  0
 13 14  1  6  0  0  0
 15 13  1  0  0  0  0
 16 17  1  6  0  0  0
 16 15  1  0  0  0  0
 18  2  1  1  0  0  0
 18 19  1  0  0  0  0
 18 16  1  0  0  0  0
 19 20  1  6  0  0  0
 19 21  1  0  0  0  0
 21 22  1  1  0  0  0
 21 13  1  0  0  0  0
 23 20  1  6  0  0  0
 23 29  1  0  0  0  0
 24 25  1  6  0  0  0
 24 26  1  0  0  0  0
 24 23  1  0  0  0  0
 26 27  1  6  0  0  0
 26 28  1  0  0  0  0
 28 30  1  1  0  0  0
 29 28  1  0  0  0  0
 30 31  1  0  0  0  0
 32 27  1  6  0  0  0
 32 40  1  0  0  0  0
 33 35  1  0  0  0  0
 33 32  1  0  0  0  0
 33 34  1  6  0  0  0
 35 36  1  1  0  0  0
 35 37  1  0  0  0  0
 37 38  1  6  0  0  0
 37 39  1  0  0  0  0
 39 41  1  6  0  0  0
 40 39  1  0  0  0  0
 41 42  1  0  0  0  0
M  END
>  <CHROM.1>
-72.87932585,-69.39776493,-73.71694067,171.82303210,-177.42252016,176.94881893
60.04226678,-58.82006023,170.47903841,-3.19830132,8.81276125,36.91029284
-1.16024397,-0.58673827,-2.83813431

>  <Name>
lig.pdb

>  <RI>
0

>  <Rbt.Current_Directory>
/home/itssahil/PROJECTS/Mol_Feturizer/New_Systems/rnas/4wcr

>  <Rbt.Executable>
rbdock ($Id: //depot/dev/client3/rdock/2013.1/src/exe/rbdock.cxx#4 $)

>  <Rbt.Library>
libRbt.so (2013.1, Build901 2013/11/27)

>  <Rbt.Parameter_File>
/export/apps/rDock/src/rDock_2013.1_src/data/scripts/dock_solv.prm

>  <Rbt.Receptor>
prm/pocket_docking_8.prm

>  <SCORE>
-6.74158

>  <SCORE.INTER>
0.61344

>  <SCORE.INTER.CONST>
1

>  <SCORE.INTER.POLAR>
0

>  <SCORE.INTER.ROT>
9

>  <SCORE.INTER.SOLV>
16.6168

>  <SCORE.INTER.VDW>
-14.73

>  <SCORE.INTER.norm>
0.0146057

>  <SCORE.INTRA>
-7.35502

>  <SCORE.INTRA.DIHEDRAL>
-13.0224

>  <SCORE.INTRA.DIHEDRAL.0>
16.2863

>  <SCORE.INTRA.POLAR>
0

>  <SCORE.INTRA.POLAR.0>
0

>  <SCORE.INTRA.REPUL>
-0.314433

>  <SCORE.INTRA.REPUL.0>
0.314433

>  <SCORE.INTRA.SOLV>
-1.59327

>  <SCORE.INTRA.SOLV.lig_0>
-103.824

>  <SCORE.INTRA.VDW>
1.52497

>  <SCORE.INTRA.VDW.0>
-5.30945

>  <SCORE.INTRA.norm>
-0.175119

>  <SCORE.RESTR>
0

>  <SCORE.RESTR.CAVITY>
0

>  <SCORE.RESTR.norm>
0

>  <SCORE.SYSTEM>
0

>  <SCORE.SYSTEM.CONST>
0

>  <SCORE.SYSTEM.DIHEDRAL>
0

>  <SCORE.SYSTEM.SOLV>
0

>  <SCORE.SYSTEM.norm>
0

>  <SCORE.heavy>
42

>  <SCORE.norm>
-0.160514

>  <RMSD>
5.491

$$$$
lig.pdb
 OpenBabel11021811513D
libRbt.so/2013.1/901 2013/11/27
 42 45  0  0  0  0  0  0  0  0999 V2000
   -5.6854   16.6986   37.5197 C   0  0  2  0  0  0  0  0  0  0  0  0
   -4.6609   16.6093   38.5588 O   0  0  0  0  0  0  0  0  0  0  0  0
   -6.8967   17.5120   38.1607 C   0  0  2  0  0  0  0  0  0  0  0  0
   -6.4661   18.8653   38.5224 N   0  0  0  0  0  0  0  0  0  0  0  0
   -7.4561   16.6949   39.4254 C   0  0  1  0  0  0  0  0  0  0  0  0
   -8.5659   17.3827   40.0402 O   0  0  0  0  0  0  0  0  0  0  0  0
   -7.8637   15.3000   38.9210 C   0  0  2  0  0  0  0  0  0  0  0  0
   -8.3514   14.5633   39.9901 O   0  0  0  0  0  0  0  0  0  0  0  0
   -6.6075   14.5741   38.2550 C   0  0  2  0  0  0  0  0  0  0  0  0
   -6.0968   15.3286   37.1488 O   0  0  0  0  0  0  0  0  0  0  0  0
   -6.9579   13.2116   37.7276 C   0  0  0  0  0  0  0  0  0  0  0  0
   -5.9839   12.8660   36.7420 O   0  0  0  0  0  0  0  0  0  0  0  0
   -0.9470   16.8121   36.1218 C   0  0  2  0  0  0  0  0  0  0  0  0
    0.4459   16.9614   35.7607 N   0  0  0  0  0  0  0  0  0  0  0  0
   -1.4446   18.0855   36.9089 C   0  0  0  0  0  0  0  0  0  0  0  0
   -2.9536   17.9464   37.3164 C   0  0  2  0  0  0  0  0  0  0  0  0
   -3.3719   19.1405   38.0477 N   0  0  0  0  0  0  0  0  0  0  0  0
   -3.2223   16.6677   38.2280 C   0  0  2  0  0  0  0  0  0  0  0  0
   -2.7616   15.4176   37.4239 C   0  0  2  0  0  0  0  0  0  0  0  0
   -3.0574   14.2586   38.3470 O   0  0  0  0  0  0  0  0  0  0  0  0
   -1.1796   15.5375   37.0628 C   0  0  1  0  0  0  0  0  0  0  0  0
   -0.6453   14.4391   36.2564 O   0  0  0  0  0  0  0  0  0  0  0  0
   -2.8549   13.0569   37.7207 C   0  0  1  0  0  0  0  0  0  0  0  0
   -3.4538   11.9262   38.4375 C   0  0  2  0  0  0  0  0  0  0  0  0
   -2.6785   11.6941   39.5697 O   0  0  0  0  0  0  0  0  0  0  0  0
   -3.5233   10.8653   37.3182 C   0  0  2  0  0  0  0  0  0  0  0  0
   -2.7102    9.7505   37.7492 O   0  0  0  0  0  0  0  0  0  0  0  0
   -2.9681   11.5453   36.1104 C   0  0  2  0  0  0  0  0  0  0  0  0
   -3.4294   12.9057   36.4332 O   0  0  0  0  0  0  0  0  0  0  0  0
   -3.6505   11.0370   34.7874 C   0  0  0  0  0  0  0  0  0  0  0  0
   -3.4876    9.6053   34.5573 O   0  0  0  0  0  0  0  0  0  0  0  0
   -3.0651    8.4339   37.2281 C   0  0  2  0  0  0  0  0  0  0  0  0
   -3.0745    7.3816   38.4555 C   0  0  2  0  0  0  0  0  0  0  0  0
   -1.7252    7.3738   39.1083 N   0  0  0  0  0  0  0  0  0  0  0  0
   -3.4696    5.9360   37.8741 C   0  0  1  0  0  0  0  0  0  0  0  0
   -4.7877    6.0613   37.2588 O   0  0  0  0  0  0  0  0  0  0  0  0
   -2.3781    5.4777   36.8050 C   0  0  2  0  0  0  0  0  0  0  0  0
   -1.0791    5.3603   37.5043 O   0  0  0  0  0  0  0  0  0  0  0  0
   -2.3455    6.5834   35.6057 C   0  0  1  0  0  0  0  0  0  0  0  0
   -2.0439    7.9448   36.1806 O   0  0  0  0  0  0  0  0  0  0  0  0
   -1.2704    6.1738   34.5450 C   0  0  0  0  0  0  0  0  0  0  0  0
   -1.2349    7.0967   33.3685 N   0  0  0  0  0  0  0  0  0  0  0  0
  1  3  1  0  0  0  0
  1  2  1  1  0  0  0
  3  4  1  1  0  0  0
  3  5  1  0  0  0  0
  5  6  1  6  0  0  0
  7  8  1  1  0  0  0
  7  5  1  0  0  0  0
  9 11  1  6  0  0  0
  9  7  1  0  0  0  0
 10  9  1  0  0  0  0
 10  1  1  0  0  0  0
 12 11  1  0  0  0  0
 13 14  1  1  0  0  0
 15 13  1  0  0  0  0
 16 17  1  1  0  0  0
 16 15  1  0  0  0  0
 18  2  1  6  0  0  0
 18 19  1  0  0  0  0
 18 16  1  0  0  0  0
 19 20  1  1  0  0  0
 19 21  1  0  0  0  0
 21 22  1  6  0  0  0
 21 13  1  0  0  0  0
 23 20  1  1  0  0  0
 23 29  1  0  0  0  0
 24 25  1  1  0  0  0
 24 26  1  0  0  0  0
 24 23  1  0  0  0  0
 26 27  1  1  0  0  0
 26 28  1  0  0  0  0
 28 30  1  6  0  0  0
 29 28  1  0  0  0  0
 30 31  1  0  0  0  0
 32 27  1  1  0  0  0
 32 40  1  0  0  0  0
 33 35  1  0  0  0  0
 33 32  1  0  0  0  0
 33 34  1  6  0  0  0
 35 36  1  6  0  0  0
 35 37  1  0  0  0  0
 37 38  1  1  0  0  0
 37 39  1  0  0  0  0
 39 41  1  6  0  0  0
 40 39  1  0  0  0  0
 41 42  1  0  0  0  0
M  END
>  <CHROM.1>
-144.22485724,158.34077690,51.17128795,172.71730796,-164.89013348,152.74505668
-59.85881029,-133.42951954,176.59493301,-3.72836976,12.61039629,37.36354142
1.85502071,0.42275866,0.04189843

>  <Name>
lig.pdb

>  <RI>
0

>  <Rbt.Current_Directory>
/home/itssahil/PROJECTS/Mol_Feturizer/New_Systems/rnas/4wcr

>  <Rbt.Executable>
rbdock ($Id: //depot/dev/client3/rdock/2013.1/src/exe/rbdock.cxx#4 $)

>  <Rbt.Library>
libRbt.so (2013.1, Build901 2013/11/27)

>  <Rbt.Parameter_File>
/export/apps/rDock/src/rDock_2013.1_src/data/scripts/dock_solv.prm

>  <Rbt.Receptor>
prm/pocket_docking_2.prm

>  <SCORE>
4.77042

>  <SCORE.INTER>
4.95154

>  <SCORE.INTER.CONST>
1

>  <SCORE.INTER.POLAR>
0

>  <SCORE.INTER.ROT>
9

>  <SCORE.INTER.SOLV>
21.653

>  <SCORE.INTER.VDW>
-13.5166

>  <SCORE.INTER.norm>
0.117894

>  <SCORE.INTRA>
-1.42864

>  <SCORE.INTRA.DIHEDRAL>
1.52093

>  <SCORE.INTRA.DIHEDRAL.0>
16.2863

>  <SCORE.INTRA.POLAR>
0

>  <SCORE.INTRA.POLAR.0>
0

>  <SCORE.INTRA.REPUL>
-0.314433

>  <SCORE.INTRA.REPUL.0>
0.314433

>  <SCORE.INTRA.SOLV>
-0.666004

>  <SCORE.INTRA.SOLV.lig_0>
-103.824

>  <SCORE.INTRA.VDW>
-0.283938

>  <SCORE.INTRA.VDW.0>
-5.30945

>  <SCORE.INTRA.norm>
-0.0340152

>  <SCORE.RESTR>
1.24751

>  <SCORE.RESTR.CAVITY>
1.24751

>  <SCORE.RESTR.norm>
0.0297027

>  <SCORE.SYSTEM>
0

>  <SCORE.SYSTEM.CONST>
0

>  <SCORE.SYSTEM.DIHEDRAL>
0

>  <SCORE.SYSTEM.SOLV>
0

>  <SCORE.SYSTEM.norm>
0

>  <SCORE.heavy>
42

>  <SCORE.norm>
0.113581

>  <RMSD>
5.502

$$$$
lig.pdb
 OpenBabel11021811513D
libRbt.so/2013.1/901 2013/11/27
 42 45  0  0  0  0  0  0  0  0999 V2000
   -5.5271   16.5970   37.5706 C   0  0  2  0  0  0  0  0  0  0  0  0
   -4.5072   16.6328   38.6173 O   0  0  0  0  0  0  0  0  0  0  0  0
   -6.8147   17.3099   38.1821 C   0  0  2  0  0  0  0  0  0  0  0  0
   -6.5160   18.7071   38.5083 N   0  0  0  0  0  0  0  0  0  0  0  0
   -7.3050   16.4785   39.4658 C   0  0  1  0  0  0  0  0  0  0  0  0
   -8.4794   17.0752   40.0552 O   0  0  0  0  0  0  0  0  0  0  0  0
   -7.5757   15.0382   38.9982 C   0  0  2  0  0  0  0  0  0  0  0  0
   -8.0007   14.2882   40.0847 O   0  0  0  0  0  0  0  0  0  0  0  0
   -6.2516   14.4159   38.3595 C   0  0  2  0  0  0  0  0  0  0  0  0
   -5.8051   15.1848   37.2356 O   0  0  0  0  0  0  0  0  0  0  0  0
   -6.4682   13.0127   37.8683 C   0  0  0  0  0  0  0  0  0  0  0  0
   -7.4978   13.0550   36.8795 O   0  0  0  0  0  0  0  0  0  0  0  0
   -0.7883   16.7753   36.1837 C   0  0  2  0  0  0  0  0  0  0  0  0
    0.6068   16.9051   35.8235 N   0  0  0  0  0  0  0  0  0  0  0  0
   -1.2708   18.0593   36.9630 C   0  0  0  0  0  0  0  0  0  0  0  0
   -2.7819   17.9413   37.3694 C   0  0  2  0  0  0  0  0  0  0  0  0
   -3.1861   19.1447   38.0935 N   0  0  0  0  0  0  0  0  0  0  0  0
   -3.0676   16.6713   38.2880 C   0  0  2  0  0  0  0  0  0  0  0  0
   -2.6216   15.4110   37.4915 C   0  0  2  0  0  0  0  0  0  0  0  0
   -2.9330   14.2611   38.4208 O   0  0  0  0  0  0  0  0  0  0  0  0
   -1.0378   15.5091   37.1317 C   0  0  1  0  0  0  0  0  0  0  0  0
   -0.5164   14.3995   36.3321 O   0  0  0  0  0  0  0  0  0  0  0  0
   -2.9588   13.0679   37.7477 C   0  0  1  0  0  0  0  0  0  0  0  0
   -3.3812   11.9422   38.5878 C   0  0  2  0  0  0  0  0  0  0  0  0
   -2.3337   11.6574   39.4586 O   0  0  0  0  0  0  0  0  0  0  0  0
   -3.7985   10.9105   37.5179 C   0  0  2  0  0  0  0  0  0  0  0  0
   -2.9429    9.7587   37.6933 O   0  0  0  0  0  0  0  0  0  0  0  0
   -3.5713   11.5987   36.2124 C   0  0  2  0  0  0  0  0  0  0  0  0
   -3.8714   12.9664   36.6673 O   0  0  0  0  0  0  0  0  0  0  0  0
   -4.6115   11.1449   35.1231 C   0  0  0  0  0  0  0  0  0  0  0  0
   -4.7228    9.6964   34.9873 O   0  0  0  0  0  0  0  0  0  0  0  0
   -3.4041    8.4996   37.1163 C   0  0  2  0  0  0  0  0  0  0  0  0
   -2.9679    7.2936   38.1008 C   0  0  2  0  0  0  0  0  0  0  0  0
   -1.4790    7.3118   38.2727 N   0  0  0  0  0  0  0  0  0  0  0  0
   -3.4825    5.9119   37.4604 C   0  0  1  0  0  0  0  0  0  0  0  0
   -4.9337    6.0072   37.3318 O   0  0  0  0  0  0  0  0  0  0  0  0
   -2.7929    5.6970   36.0382 C   0  0  2  0  0  0  0  0  0  0  0  0
   -1.3320    5.5964   36.2526 O   0  0  0  0  0  0  0  0  0  0  0  0
   -3.1998    6.9538   35.0808 C   0  0  1  0  0  0  0  0  0  0  0  0
   -2.7726    8.2453   35.7322 O   0  0  0  0  0  0  0  0  0  0  0  0
   -2.5246    6.7844   33.6793 C   0  0  0  0  0  0  0  0  0  0  0  0
   -1.0477    7.0186   33.7146 N   0  0  0  0  0  0  0  0  0  0  0  0
  1  3  1  0  0  0  0
  1  2  1  1  0  0  0
  3  4  1  1  0  0  0
  3  5  1  0  0  0  0
  5  6  1  6  0  0  0
  7  8  1  1  0  0  0
  7  5  1  0  0  0  0
  9 11  1  6  0  0  0
  9  7  1  0  0  0  0
 10  9  1  0  0  0  0
 10  1  1  0  0  0  0
 12 11  1  0  0  0  0
 13 14  1  1  0  0  0
 15 13  1  0  0  0  0
 16 17  1  1  0  0  0
 16 15  1  0  0  0  0
 18  2  1  6  0  0  0
 18 19  1  0  0  0  0
 18 16  1  0  0  0  0
 19 20  1  1  0  0  0
 19 21  1  0  0  0  0
 21 22  1  6  0  0  0
 21 13  1  0  0  0  0
 23 20  1  1  0  0  0
 23 29  1  0  0  0  0
 24 25  1  6  0  0  0
 24 26  1  0  0  0  0
 24 23  1  0  0  0  0
 26 27  1  6  0  0  0
 26 28  1  0  0  0  0
 28 30  1  6  0  0  0
 29 28  1  0  0  0  0
 30 31  1  0  0  0  0
 32 27  1  1  0  0  0
 32 40  1  0  0  0  0
 33 35  1  0  0  0  0
 33 32  1  0  0  0  0
 33 34  1  6  0  0  0
 35 36  1  6  0  0  0
 35 37  1  0  0  0  0
 37 38  1  1  0  0  0
 37 39  1  0  0  0  0
 39 41  1  6  0  0  0
 40 39  1  0  0  0  0
 41 42  1  0  0  0  0
M  END
>  <CHROM.1>
-150.88155452,59.66800671,57.24027695,162.77757143,-174.58848273,160.56964360
-50.84470142,-144.01659407,-71.93875337,-3.84345847,12.60772620,37.30698525
1.78228149,0.35674694,0.12618586

>  <Name>
lig.pdb

>  <RI>
0

>  <Rbt.Current_Directory>
/home/itssahil/PROJECTS/Mol_Feturizer/New_Systems/rnas/4wcr

>  <Rbt.Executable>
rbdock ($Id: //depot/dev/client3/rdock/2013.1/src/exe/rbdock.cxx#4 $)

>  <Rbt.Library>
libRbt.so (2013.1, Build901 2013/11/27)

>  <Rbt.Parameter_File>
/export/apps/rDock/src/rDock_2013.1_src/data/scripts/dock_solv.prm

>  <Rbt.Receptor>
prm/pocket_docking_2.prm

>  <SCORE>
2.9928

>  <SCORE.INTER>
5.61235

>  <SCORE.INTER.CONST>
1

>  <SCORE.INTER.POLAR>
0

>  <SCORE.INTER.ROT>
9

>  <SCORE.INTER.SOLV>
21.9247

>  <SCORE.INTER.VDW>
-13.1667

>  <SCORE.INTER.norm>
0.133627

>  <SCORE.INTRA>
-3.68798

>  <SCORE.INTRA.DIHEDRAL>
-3.66742

>  <SCORE.INTRA.DIHEDRAL.0>
16.2863

>  <SCORE.INTRA.POLAR>
0

>  <SCORE.INTRA.POLAR.0>
0

>  <SCORE.INTRA.REPUL>
-0.232927

>  <SCORE.INTRA.REPUL.0>
0.314433

>  <SCORE.INTRA.SOLV>
-0.211228

>  <SCORE.INTRA.SOLV.lig_0>
-103.824

>  <SCORE.INTRA.VDW>
-0.584022

>  <SCORE.INTRA.VDW.0>
-5.30945

>  <SCORE.INTRA.norm>
-0.0878091

>  <SCORE.RESTR>
1.06843

>  <SCORE.RESTR.CAVITY>
1.06843

>  <SCORE.RESTR.norm>
0.0254389

>  <SCORE.SYSTEM>
0

>  <SCORE.SYSTEM.CONST>
0

>  <SCORE.SYSTEM.DIHEDRAL>
0

>  <SCORE.SYSTEM.SOLV>
0

>  <SCORE.SYSTEM.norm>
0

>  <SCORE.heavy>
42

>  <SCORE.norm>
0.0712572

>  <RMSD>
5.525

$$$$
lig.pdb
 OpenBabel11021811513D
libRbt.so/2013.1/901 2013/11/27
 42 45  0  0  0  0  0  0  0  0999 V2000
   -5.5701   16.7392   37.4664 C   0  0  2  0  0  0  0  0  0  0  0  0
   -4.5707   16.6866   38.5320 O   0  0  0  0  0  0  0  0  0  0  0  0
   -6.8668   17.4078   38.1078 C   0  0  2  0  0  0  0  0  0  0  0  0
   -6.5697   18.7731   38.5497 N   0  0  0  0  0  0  0  0  0  0  0  0
   -7.3851   16.4795   39.3117 C   0  0  1  0  0  0  0  0  0  0  0  0
   -8.5687   17.0334   39.9240 O   0  0  0  0  0  0  0  0  0  0  0  0
   -7.6517   15.0823   38.7259 C   0  0  2  0  0  0  0  0  0  0  0  0
   -8.1004   14.2505   39.7410 O   0  0  0  0  0  0  0  0  0  0  0  0
   -6.3175   14.5061   38.0653 C   0  0  2  0  0  0  0  0  0  0  0  0
   -5.8464   15.3595   37.0149 O   0  0  0  0  0  0  0  0  0  0  0  0
   -6.5294   13.1474   37.4601 C   0  0  0  0  0  0  0  0  0  0  0  0
   -6.9610   12.2722   38.5028 O   0  0  0  0  0  0  0  0  0  0  0  0
   -0.8015   16.7997   36.1754 C   0  0  2  0  0  0  0  0  0  0  0  0
    0.6026   16.9098   35.8452 N   0  0  0  0  0  0  0  0  0  0  0  0
   -1.2767   18.0799   36.9653 C   0  0  0  0  0  0  0  0  0  0  0  0
   -2.7976   17.9830   37.3397 C   0  0  2  0  0  0  0  0  0  0  0  0
   -3.1948   19.1821   38.0747 N   0  0  0  0  0  0  0  0  0  0  0  0
   -3.1243   16.7042   38.2320 C   0  0  2  0  0  0  0  0  0  0  0  0
   -2.6848   15.4485   37.4246 C   0  0  2  0  0  0  0  0  0  0  0  0
   -3.0353   14.2901   38.3290 O   0  0  0  0  0  0  0  0  0  0  0  0
   -1.0926   15.5236   37.0980 C   0  0  1  0  0  0  0  0  0  0  0  0
   -0.5750   14.4174   36.2914 O   0  0  0  0  0  0  0  0  0  0  0  0
   -2.9067   13.0914   37.6780 C   0  0  1  0  0  0  0  0  0  0  0  0
   -3.5994   11.9908   38.3562 C   0  0  2  0  0  0  0  0  0  0  0  0
   -2.8656   11.6781   39.4966 O   0  0  0  0  0  0  0  0  0  0  0  0
   -3.7220   10.9632   37.2107 C   0  0  2  0  0  0  0  0  0  0  0  0
   -2.9996    9.7834   37.6298 O   0  0  0  0  0  0  0  0  0  0  0  0
   -3.0953   11.6286   36.0300 C   0  0  2  0  0  0  0  0  0  0  0  0
   -3.4645   13.0111   36.3768 O   0  0  0  0  0  0  0  0  0  0  0  0
   -3.7855   11.2008   34.6828 C   0  0  0  0  0  0  0  0  0  0  0  0
   -5.1005   11.8007   34.4824 O   0  0  0  0  0  0  0  0  0  0  0  0
   -3.3822    8.5193   37.0081 C   0  0  2  0  0  0  0  0  0  0  0  0
   -3.0677    7.3206   38.0466 C   0  0  2  0  0  0  0  0  0  0  0  0
   -1.6115    7.3453   38.4012 N   0  0  0  0  0  0  0  0  0  0  0  0
   -3.4951    5.9334   37.3561 C   0  0  1  0  0  0  0  0  0  0  0  0
   -4.9195    6.0227   37.0483 O   0  0  0  0  0  0  0  0  0  0  0  0
   -2.6341    5.7127   36.0315 C   0  0  2  0  0  0  0  0  0  0  0  0
   -1.2107    5.6187   36.4256 O   0  0  0  0  0  0  0  0  0  0  0  0
   -2.9231    6.9624   35.0232 C   0  0  1  0  0  0  0  0  0  0  0  0
   -2.5835    8.2592   35.7144 O   0  0  0  0  0  0  0  0  0  0  0  0
   -2.0792    6.7873   33.7171 C   0  0  0  0  0  0  0  0  0  0  0  0
   -2.4920    5.5941   32.9152 N   0  0  0  0  0  0  0  0  0  0  0  0
  1  3  1  0  0  0  0
  1  2  1  1  0  0  0
  3  4  1  1  0  0  0
  3  5  1  0  0  0  0
  5  6  1  6  0  0  0
  7  8  1  1  0  0  0
  7  5  1  0  0  0  0
  9 11  1  6  0  0  0
  9  7  1  0  0  0  0
 10  9  1  0  0  0  0
 10  1  1  0  0  0  0
 12 11  1  0  0  0  0
 13 14  1  1  0  0  0
 15 13  1  0  0  0  0
 16 17  1  1  0  0  0
 16 15  1  0  0  0  0
 18  2  1  6  0  0  0
 18 19  1  0  0  0  0
 18 16  1  0  0  0  0
 19 20  1  1  0  0  0
 19 21  1  0  0  0  0
 21 22  1  6  0  0  0
 21 13  1  0  0  0  0
 23 20  1  1  0  0  0
 23 29  1  0  0  0  0
 24 25  1  1  0  0  0
 24 26  1  0  0  0  0
 24 23  1  0  0  0  0
 26 27  1  1  0  0  0
 26 28  1  0  0  0  0
 28 30  1  6  0  0  0
 29 28  1  0  0  0  0
 30 31  1  0  0  0  0
 32 27  1  1  0  0  0
 32 40  1  0  0  0  0
 33 35  1  0  0  0  0
 33 32  1  0  0  0  0
 33 34  1  6  0  0  0
 35 36  1  6  0  0  0
 35 37  1  0  0  0  0
 37 38  1  1  0  0  0
 37 39  1  0  0  0  0
 39 41  1  6  0  0  0
 40 39  1  0  0  0  0
 41 42  1  0  0  0  0
M  END
>  <CHROM.1>
-152.68874986,-59.59672030,54.77668525,170.32688542,-162.91046742,156.45063629
73.91390097,-151.74336637,65.47105097,-3.85321477,12.64397157,37.21863776
1.78486493,0.38909431,0.12156946

>  <Name>
lig.pdb

>  <RI>
0

>  <Rbt.Current_Directory>
/home/itssahil/PROJECTS/Mol_Feturizer/New_Systems/rnas/4wcr

>  <Rbt.Executable>
rbdock ($Id: //depot/dev/client3/rdock/2013.1/src/exe/rbdock.cxx#4 $)

>  <Rbt.Library>
libRbt.so (2013.1, Build901 2013/11/27)

>  <Rbt.Parameter_File>
/export/apps/rDock/src/rDock_2013.1_src/data/scripts/dock_solv.prm

>  <Rbt.Receptor>
prm/pocket_docking_2.prm

>  <SCORE>
1.33705

>  <SCORE.INTER>
5.25021

>  <SCORE.INTER.CONST>
1

>  <SCORE.INTER.POLAR>
0

>  <SCORE.INTER.ROT>
9

>  <SCORE.INTER.SOLV>
21.6944

>  <SCORE.INTER.VDW>
-13.3313

>  <SCORE.INTER.norm>
0.125005

>  <SCORE.INTRA>
-5.65976

>  <SCORE.INTRA.DIHEDRAL>
-4.48278

>  <SCORE.INTRA.DIHEDRAL.0>
16.2863

>  <SCORE.INTRA.POLAR>
0

>  <SCORE.INTRA.POLAR.0>
0

>  <SCORE.INTRA.REPUL>
-0.314433

>  <SCORE.INTRA.REPUL.0>
0.314433

>  <SCORE.INTRA.SOLV>
-2.24655

>  <SCORE.INTRA.SOLV.lig_0>
-103.824

>  <SCORE.INTRA.VDW>
-0.722936

>  <SCORE.INTRA.VDW.0>
-5.30945

>  <SCORE.INTRA.norm>
-0.134756

>  <SCORE.RESTR>
1.7466

>  <SCORE.RESTR.CAVITY>
1.7466

>  <SCORE.RESTR.norm>
0.0415857

>  <SCORE.SYSTEM>
0

>  <SCORE.SYSTEM.CONST>
0

>  <SCORE.SYSTEM.DIHEDRAL>
0

>  <SCORE.SYSTEM.SOLV>
0

>  <SCORE.SYSTEM.norm>
0

>  <SCORE.heavy>
42

>  <SCORE.norm>
0.0318346

>  <RMSD>
5.575

$$$$
lig.pdb
 OpenBabel11021811513D
libRbt.so/2013.1/901 2013/11/27
 42 45  0  0  0  0  0  0  0  0999 V2000
   -2.6934   20.8057   34.4620 C   0  0  2  0  0  0  0  0  0  0  0  0
   -1.6288   19.8408   34.1924 O   0  0  0  0  0  0  0  0  0  0  0  0
   -3.5830   20.8646   33.1409 C   0  0  2  0  0  0  0  0  0  0  0  0
   -4.1838   19.5550   32.8733 N   0  0  0  0  0  0  0  0  0  0  0  0
   -2.6668   21.3722   31.9232 C   0  0  1  0  0  0  0  0  0  0  0  0
   -3.4269   21.4554   30.6993 O   0  0  0  0  0  0  0  0  0  0  0  0
   -2.0918   22.7407   32.3269 C   0  0  2  0  0  0  0  0  0  0  0  0
   -1.2911   23.2103   31.2963 O   0  0  0  0  0  0  0  0  0  0  0  0
   -1.2556   22.6015   33.6796 C   0  0  2  0  0  0  0  0  0  0  0  0
   -2.0753   22.1166   34.7504 O   0  0  0  0  0  0  0  0  0  0  0  0
   -0.6867   23.9176   34.1286 C   0  0  0  0  0  0  0  0  0  0  0  0
    0.2432   23.6506   35.1792 O   0  0  0  0  0  0  0  0  0  0  0  0
    1.5079   17.4562   36.2533 C   0  0  2  0  0  0  0  0  0  0  0  0
    2.3439   16.9090   37.2996 N   0  0  0  0  0  0  0  0  0  0  0  0
    1.5764   19.0322   36.2706 C   0  0  0  0  0  0  0  0  0  0  0  0
    0.6734   19.6513   35.1463 C   0  0  2  0  0  0  0  0  0  0  0  0
    0.7594   21.1091   35.2013 N   0  0  0  0  0  0  0  0  0  0  0  0
   -0.8545   19.2230   35.2884 C   0  0  2  0  0  0  0  0  0  0  0  0
   -0.9096   17.6688   35.2320 C   0  0  2  0  0  0  0  0  0  0  0  0
   -2.3805   17.3493   35.3623 O   0  0  0  0  0  0  0  0  0  0  0  0
   -0.0253   17.0343   36.4415 C   0  0  1  0  0  0  0  0  0  0  0  0
    0.0417   15.5723   36.4561 O   0  0  0  0  0  0  0  0  0  0  0  0
   -2.6008   15.9970   35.3507 C   0  0  1  0  0  0  0  0  0  0  0  0
   -3.9349   15.6270   35.8351 C   0  0  2  0  0  0  0  0  0  0  0  0
   -3.9446   15.8189   37.2134 O   0  0  0  0  0  0  0  0  0  0  0  0
   -4.0812   14.2050   35.2521 C   0  0  2  0  0  0  0  0  0  0  0  0
   -4.2361   13.3079   36.3750 O   0  0  0  0  0  0  0  0  0  0  0  0
   -2.8134   13.9667   34.5000 C   0  0  2  0  0  0  0  0  0  0  0  0
   -2.5780   15.3594   34.0844 O   0  0  0  0  0  0  0  0  0  0  0  0
   -3.0435   13.0526   33.2406 C   0  0  0  0  0  0  0  0  0  0  0  0
   -3.4224   11.6832   33.5725 O   0  0  0  0  0  0  0  0  0  0  0  0
   -4.6634   11.9444   36.0767 C   0  0  2  0  0  0  0  0  0  0  0  0
   -6.1761   11.9935   35.5078 C   0  0  2  0  0  0  0  0  0  0  0  0
   -7.0646   12.6425   36.5257 N   0  0  0  0  0  0  0  0  0  0  0  0
   -6.6374   10.4893   35.1784 C   0  0  1  0  0  0  0  0  0  0  0  0
   -5.7047    9.9560   34.1899 O   0  0  0  0  0  0  0  0  0  0  0  0
   -6.6135    9.6220   36.5169 C   0  0  2  0  0  0  0  0  0  0  0  0
   -7.5896   10.2138   37.4588 O   0  0  0  0  0  0  0  0  0  0  0  0
   -5.0912    9.6342   37.1036 C   0  0  1  0  0  0  0  0  0  0  0  0
   -4.6509   11.0575   37.3386 O   0  0  0  0  0  0  0  0  0  0  0  0
   -5.0344    8.8052   38.4295 C   0  0  0  0  0  0  0  0  0  0  0  0
   -3.6570    8.7288   39.0076 N   0  0  0  0  0  0  0  0  0  0  0  0
  1  3  1  0  0  0  0
  1  2  1  6  0  0  0
  3  4  1  6  0  0  0
  3  5  1  0  0  0  0
  5  6  1  6  0  0  0
  7  8  1  6  0  0  0
  7  5  1  0  0  0  0
  9 11  1  1  0  0  0
  9  7  1  0  0  0  0
 10  9  1  0  0  0  0
 10  1  1  0  0  0  0
 12 11  1  0  0  0  0
 13 14  1  1  0  0  0
 15 13  1  0  0  0  0
 16 17  1  1  0  0  0
 16 15  1  0  0  0  0
 18  2  1  6  0  0  0
 18 19  1  0  0  0  0
 18 16  1  0  0  0  0
 19 20  1  1  0  0  0
 19 21  1  0  0  0  0
 21 22  1  6  0  0  0
 21 13  1  0  0  0  0
 23 20  1  6  0  0  0
 23 29  1  0  0  0  0
 24 25  1  1  0  0  0
 24 26  1  0  0  0  0
 24 23  1  0  0  0  0
 26 27  1  1  0  0  0
 26 28  1  0  0  0  0
 28 30  1  6  0  0  0
 29 28  1  0  0  0  0
 30 31  1  0  0  0  0
 32 27  1  1  0  0  0
 32 40  1  0  0  0  0
 33 35  1  0  0  0  0
 33 32  1  0  0  0  0
 33 34  1  1  0  0  0
 35 36  1  6  0  0  0
 35 37  1  0  0  0  0
 37 38  1  1  0  0  0
 37 39  1  0  0  0  0
 39 41  1  1  0  0  0
 40 39  1  0  0  0  0
 41 42  1  0  0  0  0
M  END
>  <CHROM.1>
-161.61887545,-168.95588642,-117.16203166,-179.07166961,164.24129400,167.85457876
-66.84215368,-66.62695877,178.03153580,-2.77507451,16.36460262,35.14271661
1.14997790,-0.53096537,-0.46081922

>  <Name>
lig.pdb

>  <RI>
0

>  <Rbt.Current_Directory>
/home/itssahil/PROJECTS/Mol_Feturizer/New_Systems/rnas/4wcr

>  <Rbt.Executable>
rbdock ($Id: //depot/dev/client3/rdock/2013.1/src/exe/rbdock.cxx#4 $)

>  <Rbt.Library>
libRbt.so (2013.1, Build901 2013/11/27)

>  <Rbt.Parameter_File>
/export/apps/rDock/src/rDock_2013.1_src/data/scripts/dock_solv.prm

>  <Rbt.Receptor>
prm/pocket_docking_6.prm

>  <SCORE>
-10.8111

>  <SCORE.INTER>
-7.50917

>  <SCORE.INTER.CONST>
1

>  <SCORE.INTER.POLAR>
0

>  <SCORE.INTER.ROT>
9

>  <SCORE.INTER.SOLV>
31.4002

>  <SCORE.INTER.VDW>
-25.0728

>  <SCORE.INTER.norm>
-0.17879

>  <SCORE.INTRA>
-3.30193

>  <SCORE.INTRA.DIHEDRAL>
-4.378

>  <SCORE.INTRA.DIHEDRAL.0>
16.2863

>  <SCORE.INTRA.POLAR>
0

>  <SCORE.INTRA.POLAR.0>
0

>  <SCORE.INTRA.REPUL>
-0.314433

>  <SCORE.INTRA.REPUL.0>
0.314433

>  <SCORE.INTRA.SOLV>
-0.733516

>  <SCORE.INTRA.SOLV.lig_0>
-103.824

>  <SCORE.INTRA.VDW>
0.825987

>  <SCORE.INTRA.VDW.0>
-5.30945

>  <SCORE.INTRA.norm>
-0.0786175

>  <SCORE.RESTR>
0

>  <SCORE.RESTR.CAVITY>
0

>  <SCORE.RESTR.norm>
0

>  <SCORE.SYSTEM>
0

>  <SCORE.SYSTEM.CONST>
0

>  <SCORE.SYSTEM.DIHEDRAL>
0

>  <SCORE.SYSTEM.SOLV>
0

>  <SCORE.SYSTEM.norm>
0

>  <SCORE.heavy>
42

>  <SCORE.norm>
-0.257407

>  <RMSD>
5.608

$$$$
lig.pdb
 OpenBabel11021811513D
libRbt.so/2013.1/901 2013/11/27
 42 45  0  0  0  0  0  0  0  0999 V2000
   -0.6178   11.9826   35.1819 C   0  0  2  0  0  0  0  0  0  0  0  0
   -1.3179   11.2640   36.2452 O   0  0  0  0  0  0  0  0  0  0  0  0
    0.3513   10.9210   34.4934 C   0  0  2  0  0  0  0  0  0  0  0  0
   -0.4279    9.8315   33.8988 N   0  0  0  0  0  0  0  0  0  0  0  0
    1.3984   10.3901   35.5896 C   0  0  1  0  0  0  0  0  0  0  0  0
    2.3112    9.4308   35.0160 O   0  0  0  0  0  0  0  0  0  0  0  0
    2.1414   11.6191   36.1409 C   0  0  2  0  0  0  0  0  0  0  0  0
    3.0557   11.1975   37.0948 O   0  0  0  0  0  0  0  0  0  0  0  0
    1.0965   12.6493   36.7697 C   0  0  2  0  0  0  0  0  0  0  0  0
    0.1475   13.0905   35.7907 O   0  0  0  0  0  0  0  0  0  0  0  0
    1.7713   13.8795   37.3068 C   0  0  0  0  0  0  0  0  0  0  0  0
    0.7712   14.6806   37.9375 O   0  0  0  0  0  0  0  0  0  0  0  0
   -4.9012   12.2033   38.7049 C   0  0  2  0  0  0  0  0  0  0  0  0
   -6.2448   12.5955   39.0711 N   0  0  0  0  0  0  0  0  0  0  0  0
   -4.2226   13.3320   37.8363 C   0  0  0  0  0  0  0  0  0  0  0  0
   -2.7639   12.9285   37.4220 C   0  0  2  0  0  0  0  0  0  0  0  0
   -2.1751   13.9950   36.6148 N   0  0  0  0  0  0  0  0  0  0  0  0
   -2.7216   11.5721   36.5872 C   0  0  2  0  0  0  0  0  0  0  0  0
   -3.3598   10.4615   37.4709 C   0  0  2  0  0  0  0  0  0  0  0  0
   -3.2718    9.2181   36.6171 O   0  0  0  0  0  0  0  0  0  0  0  0
   -4.8946   10.8551   37.8409 C   0  0  1  0  0  0  0  0  0  0  0  0
   -5.5810    9.9060   38.7185 O   0  0  0  0  0  0  0  0  0  0  0  0
   -3.5190    8.0888   37.3525 C   0  0  1  0  0  0  0  0  0  0  0  0
   -3.3550    6.8522   36.5809 C   0  0  2  0  0  0  0  0  0  0  0  0
   -4.4342    6.7614   35.7071 O   0  0  0  0  0  0  0  0  0  0  0  0
   -3.1868    5.8143   37.7113 C   0  0  2  0  0  0  0  0  0  0  0  0
   -4.2783    4.8754   37.5810 O   0  0  0  0  0  0  0  0  0  0  0  0
   -3.2619    6.6073   38.9743 C   0  0  2  0  0  0  0  0  0  0  0  0
   -2.6593    7.8457   38.4535 O   0  0  0  0  0  0  0  0  0  0  0  0
   -2.3570    5.9933   40.1051 C   0  0  0  0  0  0  0  0  0  0  0  0
   -0.9331    6.0053   39.7866 O   0  0  0  0  0  0  0  0  0  0  0  0
   -4.2710    4.0138   36.4026 C   0  0  2  0  0  0  0  0  0  0  0  0
   -5.4453    2.9142   36.5636 C   0  0  2  0  0  0  0  0  0  0  0  0
   -5.2196    2.1329   37.8227 N   0  0  0  0  0  0  0  0  0  0  0  0
   -5.4329    1.9725   35.2610 C   0  0  1  0  0  0  0  0  0  0  0  0
   -5.6523    2.8325   34.1017 O   0  0  0  0  0  0  0  0  0  0  0  0
   -4.0286    1.2224   35.1620 C   0  0  2  0  0  0  0  0  0  0  0  0
   -3.8868    0.3644   36.3595 O   0  0  0  0  0  0  0  0  0  0  0  0
   -2.8554    2.3514   35.0585 C   0  0  1  0  0  0  0  0  0  0  0  0
   -2.9288    3.2685   36.2536 O   0  0  0  0  0  0  0  0  0  0  0  0
   -1.4591    1.6496   34.9773 C   0  0  0  0  0  0  0  0  0  0  0  0
   -1.1259    0.8757   36.2132 N   0  0  0  0  0  0  0  0  0  0  0  0
  1  3  1  0  0  0  0
  1  2  1  1  0  0  0
  3  4  1  1  0  0  0
  3  5  1  0  0  0  0
  5  6  1  6  0  0  0
  7  8  1  1  0  0  0
  7  5  1  0  0  0  0
  9 11  1  6  0  0  0
  9  7  1  0  0  0  0
 10  9  1  0  0  0  0
 10  1  1  0  0  0  0
 12 11  1  0  0  0  0
 13 14  1  6  0  0  0
 15 13  1  0  0  0  0
 16 17  1  6  0  0  0
 16 15  1  0  0  0  0
 18  2  1  1  0  0  0
 18 19  1  0  0  0  0
 18 16  1  0  0  0  0
 19 20  1  6  0  0  0
 19 21  1  0  0  0  0
 21 22  1  1  0  0  0
 21 13  1  0  0  0  0
 23 20  1  6  0  0  0
 23 29  1  0  0  0  0
 24 25  1  1  0  0  0
 24 26  1  0  0  0  0
 24 23  1  0  0  0  0
 26 27  1  1  0  0  0
 26 28  1  0  0  0  0
 28 30  1  1  0  0  0
 29 28  1  0  0  0  0
 30 31  1  0  0  0  0
 32 27  1  1  0  0  0
 32 40  1  0  0  0  0
 33 35  1  0  0  0  0
 33 32  1  0  0  0  0
 33 34  1  1  0  0  0
 35 36  1  6  0  0  0
 35 37  1  0  0  0  0
 37 38  1  1  0  0  0
 37 39  1  0  0  0  0
 39 41  1  1  0  0  0
 40 39  1  0  0  0  0
 41 42  1  0  0  0  0
M  END
>  <CHROM.1>
-145.02671127,-175.46387006,-76.13814607,166.54925820,-176.13396225,67.69186653
63.56716976,172.02580126,-64.05871038,-2.35203399,8.09445281,36.78884823
-1.23657300,-0.34060870,-2.96703959

>  <Name>
lig.pdb

>  <RI>
0

>  <Rbt.Current_Directory>
/home/itssahil/PROJECTS/Mol_Feturizer/New_Systems/rnas/4wcr

>  <Rbt.Executable>
rbdock ($Id: //depot/dev/client3/rdock/2013.1/src/exe/rbdock.cxx#4 $)

>  <Rbt.Library>
libRbt.so (2013.1, Build901 2013/11/27)

>  <Rbt.Parameter_File>
/export/apps/rDock/src/rDock_2013.1_src/data/scripts/dock_solv.prm

>  <Rbt.Receptor>
prm/pocket_docking_7.prm

>  <SCORE>
-4.71097

>  <SCORE.INTER>
-0.0292645

>  <SCORE.INTER.CONST>
1

>  <SCORE.INTER.POLAR>
0

>  <SCORE.INTER.ROT>
9

>  <SCORE.INTER.SOLV>
12.6266

>  <SCORE.INTER.VDW>
-13.8284

>  <SCORE.INTER.norm>
-0.000696775

>  <SCORE.INTRA>
-4.68171

>  <SCORE.INTRA.DIHEDRAL>
-8.32073

>  <SCORE.INTRA.DIHEDRAL.0>
16.2863

>  <SCORE.INTRA.POLAR>
0

>  <SCORE.INTRA.POLAR.0>
0

>  <SCORE.INTRA.REPUL>
-0.312978

>  <SCORE.INTRA.REPUL.0>
0.314433

>  <SCORE.INTRA.SOLV>
-0.67744

>  <SCORE.INTRA.SOLV.lig_0>
-103.824

>  <SCORE.INTRA.VDW>
1.38227

>  <SCORE.INTRA.VDW.0>
-5.30945

>  <SCORE.INTRA.norm>
-0.111469

>  <SCORE.RESTR>
0

>  <SCORE.RESTR.CAVITY>
0

>  <SCORE.RESTR.norm>
0

>  <SCORE.SYSTEM>
0

>  <SCORE.SYSTEM.CONST>
0

>  <SCORE.SYSTEM.DIHEDRAL>
0

>  <SCORE.SYSTEM.SOLV>
0

>  <SCORE.SYSTEM.norm>
0

>  <SCORE.heavy>
42

>  <SCORE.norm>
-0.112166

>  <RMSD>
5.674

$$$$
lig.pdb
 OpenBabel11021811513D
libRbt.so/2013.1/901 2013/11/27
 42 45  0  0  0  0  0  0  0  0999 V2000
   -4.6052   17.4414   37.1026 C   0  0  2  0  0  0  0  0  0  0  0  0
   -4.6777   15.9891   37.2534 O   0  0  0  0  0  0  0  0  0  0  0  0
   -3.5764   17.9508   38.2080 C   0  0  2  0  0  0  0  0  0  0  0  0
   -2.2480   17.3803   37.9682 N   0  0  0  0  0  0  0  0  0  0  0  0
   -4.1473   17.5697   39.6601 C   0  0  1  0  0  0  0  0  0  0  0  0
   -3.2577   18.0190   40.7038 O   0  0  0  0  0  0  0  0  0  0  0  0
   -5.5383   18.2148   39.7851 C   0  0  2  0  0  0  0  0  0  0  0  0
   -6.0644   17.9042   41.0303 O   0  0  0  0  0  0  0  0  0  0  0  0
   -6.4896   17.6866   38.6170 C   0  0  2  0  0  0  0  0  0  0  0  0
   -5.9535   18.0033   37.3263 O   0  0  0  0  0  0  0  0  0  0  0  0
   -7.8584   18.3025   38.6827 C   0  0  0  0  0  0  0  0  0  0  0  0
   -7.7138   19.7035   38.4464 O   0  0  0  0  0  0  0  0  0  0  0  0
   -2.5851   12.5429   35.3781 C   0  0  2  0  0  0  0  0  0  0  0  0
   -1.5302   11.7064   34.8484 N   0  0  0  0  0  0  0  0  0  0  0  0
   -2.5632   13.9558   34.6766 C   0  0  0  0  0  0  0  0  0  0  0  0
   -3.6967   14.8848   35.2374 C   0  0  2  0  0  0  0  0  0  0  0  0
   -3.6371   16.1827   34.5684 N   0  0  0  0  0  0  0  0  0  0  0  0
   -3.5740   15.1133   36.8094 C   0  0  2  0  0  0  0  0  0  0  0  0
   -3.6349   13.7148   37.4893 C   0  0  2  0  0  0  0  0  0  0  0  0
   -3.5231   14.0195   38.9649 O   0  0  0  0  0  0  0  0  0  0  0  0
   -2.4164   12.7794   36.9528 C   0  0  1  0  0  0  0  0  0  0  0  0
   -2.4046   11.4158   37.4846 O   0  0  0  0  0  0  0  0  0  0  0  0
   -3.7053   12.8927   39.7228 C   0  0  1  0  0  0  0  0  0  0  0  0
   -3.4345   13.1078   41.1481 C   0  0  2  0  0  0  0  0  0  0  0  0
   -2.0558   13.2268   41.2959 O   0  0  0  0  0  0  0  0  0  0  0  0
   -4.1784   11.9107   41.7780 C   0  0  2  0  0  0  0  0  0  0  0  0
   -3.1852   11.1189   42.4682 O   0  0  0  0  0  0  0  0  0  0  0  0
   -4.7860   11.1858   40.6225 C   0  0  2  0  0  0  0  0  0  0  0  0
   -5.0189   12.3608   39.7664 O   0  0  0  0  0  0  0  0  0  0  0  0
   -6.1539   10.5119   41.0088 C   0  0  0  0  0  0  0  0  0  0  0  0
   -6.0368    9.5140   42.0669 O   0  0  0  0  0  0  0  0  0  0  0  0
   -2.4530   10.1383   41.6725 C   0  0  2  0  0  0  0  0  0  0  0  0
   -1.5751    9.2191   42.6718 C   0  0  2  0  0  0  0  0  0  0  0  0
   -0.6493   10.0946   43.4612 N   0  0  0  0  0  0  0  0  0  0  0  0
   -0.7753    8.1401   41.7886 C   0  0  1  0  0  0  0  0  0  0  0  0
   -1.7674    7.3536   41.0614 O   0  0  0  0  0  0  0  0  0  0  0  0
    0.2048    8.8984   40.7842 C   0  0  2  0  0  0  0  0  0  0  0  0
    1.1844    9.6580   41.5927 O   0  0  0  0  0  0  0  0  0  0  0  0
   -0.6966    9.8625   39.8250 C   0  0  1  0  0  0  0  0  0  0  0  0
   -1.4936   10.8198   40.6754 O   0  0  0  0  0  0  0  0  0  0  0  0
    0.2366   10.6370   38.8361 C   0  0  0  0  0  0  0  0  0  0  0  0
    0.9707    9.7300   37.9003 N   0  0  0  0  0  0  0  0  0  0  0  0
  1  3  1  0  0  0  0
  1  2  1  1  0  0  0
  3  4  1  6  0  0  0
  3  5  1  0  0  0  0
  5  6  1  1  0  0  0
  7  8  1  1  0  0  0
  7  5  1  0  0  0  0
  9 11  1  1  0  0  0
  9  7  1  0  0  0  0
 10  9  1  0  0  0  0
 10  1  1  0  0  0  0
 12 11  1  0  0  0  0
 13 14  1  6  0  0  0
 15 13  1  0  0  0  0
 16 17  1  6  0  0  0
 16 15  1  0  0  0  0
 18  2  1  1  0  0  0
 18 19  1  0  0  0  0
 18 16  1  0  0  0  0
 19 20  1  1  0  0  0
 19 21  1  0  0  0  0
 21 22  1  1  0  0  0
 21 13  1  0  0  0  0
 23 20  1  6  0  0  0
 23 29  1  0  0  0  0
 24 25  1  6  0  0  0
 24 26  1  0  0  0  0
 24 23  1  0  0  0  0
 26 27  1  6  0  0  0
 26 28  1  0  0  0  0
 28 30  1  1  0  0  0
 29 28  1  0  0  0  0
 30 31  1  0  0  0  0
 32 27  1  1  0  0  0
 32 40  1  0  0  0  0
 33 35  1  0  0  0  0
 33 32  1  0  0  0  0
 33 34  1  6  0  0  0
 35 36  1  6  0  0  0
 35 37  1  0  0  0  0
 37 38  1  1  0  0  0
 37 39  1  0  0  0  0
 39 41  1  6  0  0  0
 40 39  1  0  0  0  0
 41 42  1  0  0  0  0
M  END
>  <CHROM.1>
-73.77293067,64.71538447,-81.14496004,173.46335321,172.57183930,-85.05215360
-61.09458265,-171.27562092,63.20947060,-3.28505851,13.36180321,39.25898771
-2.29782563,-0.89063973,2.18281346

>  <Name>
lig.pdb

>  <RI>
0

>  <Rbt.Current_Directory>
/home/itssahil/PROJECTS/Mol_Feturizer/New_Systems/rnas/4wcr

>  <Rbt.Executable>
rbdock ($Id: //depot/dev/client3/rdock/2013.1/src/exe/rbdock.cxx#4 $)

>  <Rbt.Library>
libRbt.so (2013.1, Build901 2013/11/27)

>  <Rbt.Parameter_File>
/export/apps/rDock/src/rDock_2013.1_src/data/scripts/dock_solv.prm

>  <Rbt.Receptor>
prm/pocket_docking_5.prm

>  <SCORE>
-2.96405

>  <SCORE.INTER>
1.86517

>  <SCORE.INTER.CONST>
1

>  <SCORE.INTER.POLAR>
0

>  <SCORE.INTER.ROT>
9

>  <SCORE.INTER.SOLV>
15.3038

>  <SCORE.INTER.VDW>
-13.4578

>  <SCORE.INTER.norm>
0.0444088

>  <SCORE.INTRA>
-4.83004

>  <SCORE.INTRA.DIHEDRAL>
-9.2776

>  <SCORE.INTRA.DIHEDRAL.0>
16.2863

>  <SCORE.INTRA.POLAR>
0

>  <SCORE.INTRA.POLAR.0>
0

>  <SCORE.INTRA.REPUL>
-0.314433

>  <SCORE.INTRA.REPUL.0>
0.314433

>  <SCORE.INTRA.SOLV>
0.00819823

>  <SCORE.INTRA.SOLV.lig_0>
-103.824

>  <SCORE.INTRA.VDW>
1.37682

>  <SCORE.INTRA.VDW.0>
-5.30945

>  <SCORE.INTRA.norm>
-0.115001

>  <SCORE.RESTR>
0.000821564

>  <SCORE.RESTR.CAVITY>
0.000821564

>  <SCORE.RESTR.norm>
1.9561e-05

>  <SCORE.SYSTEM>
0

>  <SCORE.SYSTEM.CONST>
0

>  <SCORE.SYSTEM.DIHEDRAL>
0

>  <SCORE.SYSTEM.SOLV>
0

>  <SCORE.SYSTEM.norm>
0

>  <SCORE.heavy>
42

>  <SCORE.norm>
-0.0705727

>  <RMSD>
5.766

$$$$
lig.pdb
 OpenBabel11021811513D
libRbt.so/2013.1/901 2013/11/27
 42 45  0  0  0  0  0  0  0  0999 V2000
    1.1456   17.2829   39.9880 C   0  0  2  0  0  0  0  0  0  0  0  0
    1.6336   15.9374   39.6905 O   0  0  0  0  0  0  0  0  0  0  0  0
   -0.4158   17.1352   40.2715 C   0  0  2  0  0  0  0  0  0  0  0  0
   -0.6423   16.2779   41.4383 N   0  0  0  0  0  0  0  0  0  0  0  0
   -1.1290   16.5636   38.9508 C   0  0  1  0  0  0  0  0  0  0  0  0
   -2.5514   16.4200   39.1478 O   0  0  0  0  0  0  0  0  0  0  0  0
   -0.8119   17.5393   37.8045 C   0  0  2  0  0  0  0  0  0  0  0  0
   -1.4123   17.0750   36.6437 O   0  0  0  0  0  0  0  0  0  0  0  0
    0.7687   17.6636   37.6179 C   0  0  2  0  0  0  0  0  0  0  0  0
    1.3976   18.1429   38.8130 O   0  0  0  0  0  0  0  0  0  0  0  0
    1.1331   18.6221   36.5199 C   0  0  0  0  0  0  0  0  0  0  0  0
    0.7058   18.0469   35.2845 O   0  0  0  0  0  0  0  0  0  0  0  0
    3.6820   12.8726   42.1773 C   0  0  2  0  0  0  0  0  0  0  0  0
    3.9701   11.9617   43.2637 N   0  0  0  0  0  0  0  0  0  0  0  0
    3.4861   14.3364   42.7321 C   0  0  0  0  0  0  0  0  0  0  0  0
    3.1677   15.3444   41.5723 C   0  0  2  0  0  0  0  0  0  0  0  0
    2.9867   16.6838   42.1281 N   0  0  0  0  0  0  0  0  0  0  0  0
    1.8554   14.9449   40.7620 C   0  0  2  0  0  0  0  0  0  0  0  0
    2.0786   13.5150   40.1900 C   0  0  2  0  0  0  0  0  0  0  0  0
    0.8040   13.2193   39.4346 O   0  0  0  0  0  0  0  0  0  0  0  0
    2.3416   12.4629   41.4030 C   0  0  1  0  0  0  0  0  0  0  0  0
    2.6202   11.0898   40.9798 O   0  0  0  0  0  0  0  0  0  0  0  0
    0.8646   12.0014   38.8100 C   0  0  1  0  0  0  0  0  0  0  0  0
   -0.4016   11.6145   38.1790 C   0  0  2  0  0  0  0  0  0  0  0  0
   -1.2861   11.2725   39.1976 O   0  0  0  0  0  0  0  0  0  0  0  0
    0.0781   10.5402   37.1795 C   0  0  2  0  0  0  0  0  0  0  0  0
   -0.5818    9.3069   37.5444 O   0  0  0  0  0  0  0  0  0  0  0  0
    1.5579   10.4748   37.3678 C   0  0  2  0  0  0  0  0  0  0  0  0
    1.7643   11.8895   37.7198 O   0  0  0  0  0  0  0  0  0  0  0  0
    2.3037   10.1316   36.0260 C   0  0  0  0  0  0  0  0  0  0  0  0
    1.8080    8.9247   35.3728 O   0  0  0  0  0  0  0  0  0  0  0  0
   -2.0214    9.2348   37.3135 C   0  0  2  0  0  0  0  0  0  0  0  0
   -2.5733    7.8510   37.9416 C   0  0  2  0  0  0  0  0  0  0  0  0
   -1.8522    6.6999   37.3077 N   0  0  0  0  0  0  0  0  0  0  0  0
   -4.1588    7.7813   37.6865 C   0  0  1  0  0  0  0  0  0  0  0  0
   -4.7543    8.9456   38.3358 O   0  0  0  0  0  0  0  0  0  0  0  0
   -4.4446    7.7902   36.1172 C   0  0  2  0  0  0  0  0  0  0  0  0
   -3.8248    6.5785   35.5361 O   0  0  0  0  0  0  0  0  0  0  0  0
   -3.8288    9.1675   35.4961 C   0  0  1  0  0  0  0  0  0  0  0  0
   -2.3554    9.2486   35.8077 O   0  0  0  0  0  0  0  0  0  0  0  0
   -4.0764    9.2017   33.9514 C   0  0  0  0  0  0  0  0  0  0  0  0
   -5.5264    9.3017   33.5982 N   0  0  0  0  0  0  0  0  0  0  0  0
  1  3  1  0  0  0  0
  1  2  1  6  0  0  0
  3  4  1  1  0  0  0
  3  5  1  0  0  0  0
  5  6  1  1  0  0  0
  7  8  1  6  0  0  0
  7  5  1  0  0  0  0
  9 11  1  6  0  0  0
  9  7  1  0  0  0  0
 10  9  1  0  0  0  0
 10  1  1  0  0  0  0
 12 11  1  0  0  0  0
 13 14  1  1  0  0  0
 15 13  1  0  0  0  0
 16 17  1  1  0  0  0
 16 15  1  0  0  0  0
 18  2  1  6  0  0  0
 18 19  1  0  0  0  0
 18 16  1  0  0  0  0
 19 20  1  1  0  0  0
 19 21  1  0  0  0  0
 21 22  1  6  0  0  0
 21 13  1  0  0  0  0
 23 20  1  6  0  0  0
 23 29  1  0  0  0  0
 24 25  1  1  0  0  0
 24 26  1  0  0  0  0
 24 23  1  0  0  0  0
 26 27  1  1  0  0  0
 26 28  1  0  0  0  0
 28 30  1  6  0  0  0
 29 28  1  0  0  0  0
 30 31  1  0  0  0  0
 32 27  1  6  0  0  0
 32 40  1  0  0  0  0
 33 35  1  0  0  0  0
 33 32  1  0  0  0  0
 33 34  1  6  0  0  0
 35 36  1  1  0  0  0
 35 37  1  0  0  0  0
 37 38  1  6  0  0  0
 37 39  1  0  0  0  0
 39 41  1  6  0  0  0
 40 39  1  0  0  0  0
 41 42  1  0  0  0  0
M  END
>  <CHROM.1>
-76.67173483,-67.36775964,-73.59658862,177.21563176,174.13090970,69.42101617
-53.47173329,-173.64601391,66.28236093,-0.16857623,12.63952995,38.37267908
0.89219709,-0.76029038,-0.06342273

>  <Name>
lig.pdb

>  <RI>
0

>  <Rbt.Current_Directory>
/home/itssahil/PROJECTS/Mol_Feturizer/New_Systems/rnas/4wcr

>  <Rbt.Executable>
rbdock ($Id: //depot/dev/client3/rdock/2013.1/src/exe/rbdock.cxx#4 $)

>  <Rbt.Library>
libRbt.so (2013.1, Build901 2013/11/27)

>  <Rbt.Parameter_File>
/export/apps/rDock/src/rDock_2013.1_src/data/scripts/dock_solv.prm

>  <Rbt.Receptor>
prm/pocket_docking_8.prm

>  <SCORE>
-8.85164

>  <SCORE.INTER>
-2.05552

>  <SCORE.INTER.CONST>
1

>  <SCORE.INTER.POLAR>
0

>  <SCORE.INTER.ROT>
9

>  <SCORE.INTER.SOLV>
16.7313

>  <SCORE.INTER.VDW>
-16.5474

>  <SCORE.INTER.norm>
-0.0489409

>  <SCORE.INTRA>
-6.79612

>  <SCORE.INTRA.DIHEDRAL>
-12.3248

>  <SCORE.INTRA.DIHEDRAL.0>
16.2863

>  <SCORE.INTRA.POLAR>
0

>  <SCORE.INTRA.POLAR.0>
0

>  <SCORE.INTRA.REPUL>
-0.314433

>  <SCORE.INTRA.REPUL.0>
0.314433

>  <SCORE.INTRA.SOLV>
-1.92994

>  <SCORE.INTRA.SOLV.lig_0>
-103.824

>  <SCORE.INTRA.VDW>
1.9034

>  <SCORE.INTRA.VDW.0>
-5.30945

>  <SCORE.INTRA.norm>
-0.161812

>  <SCORE.RESTR>
0

>  <SCORE.RESTR.CAVITY>
0

>  <SCORE.RESTR.norm>
0

>  <SCORE.SYSTEM>
0

>  <SCORE.SYSTEM.CONST>
0

>  <SCORE.SYSTEM.DIHEDRAL>
0

>  <SCORE.SYSTEM.SOLV>
0

>  <SCORE.SYSTEM.norm>
0

>  <SCORE.heavy>
42

>  <SCORE.norm>
-0.210753

>  <RMSD>
5.804

$$$$
lig.pdb
 OpenBabel11021811513D
libRbt.so/2013.1/901 2013/11/27
 42 45  0  0  0  0  0  0  0  0999 V2000
   -1.8434   11.6444   34.4826 C   0  0  2  0  0  0  0  0  0  0  0  0
   -3.2929   11.5028   34.6097 O   0  0  0  0  0  0  0  0  0  0  0  0
   -1.2958   10.2148   34.0395 C   0  0  2  0  0  0  0  0  0  0  0  0
   -1.8533    9.8375   32.7378 N   0  0  0  0  0  0  0  0  0  0  0  0
   -1.6524    9.1470   35.1850 C   0  0  1  0  0  0  0  0  0  0  0  0
   -1.1681    7.8320   34.8401 O   0  0  0  0  0  0  0  0  0  0  0  0
   -1.0238    9.6568   36.4932 C   0  0  2  0  0  0  0  0  0  0  0  0
   -1.3140    8.7575   37.5084 O   0  0  0  0  0  0  0  0  0  0  0  0
   -1.5905   11.1086   36.8391 C   0  0  2  0  0  0  0  0  0  0  0  0
   -1.2951   12.0448   35.7952 O   0  0  0  0  0  0  0  0  0  0  0  0
   -0.9921   11.6613   38.1015 C   0  0  0  0  0  0  0  0  0  0  0  0
   -1.6344   12.9072   38.3749 O   0  0  0  0  0  0  0  0  0  0  0  0
   -4.6611   14.9568   37.0531 C   0  0  2  0  0  0  0  0  0  0  0  0
   -5.4136   16.1145   37.4849 N   0  0  0  0  0  0  0  0  0  0  0  0
   -4.0780   15.1954   35.6068 C   0  0  0  0  0  0  0  0  0  0  0  0
   -3.2600   13.9506   35.1129 C   0  0  2  0  0  0  0  0  0  0  0  0
   -2.7446   14.2091   33.7700 N   0  0  0  0  0  0  0  0  0  0  0  0
   -4.1373   12.6211   35.0772 C   0  0  2  0  0  0  0  0  0  0  0  0
   -4.6742   12.3789   36.5176 C   0  0  2  0  0  0  0  0  0  0  0  0
   -5.4797   11.1061   36.3992 O   0  0  0  0  0  0  0  0  0  0  0  0
   -5.5771   13.6445   36.9974 C   0  0  1  0  0  0  0  0  0  0  0  0
   -6.0925   13.5524   38.3642 O   0  0  0  0  0  0  0  0  0  0  0  0
   -4.7857   10.0288   36.8842 C   0  0  1  0  0  0  0  0  0  0  0  0
   -4.8011    9.9461   38.3485 C   0  0  2  0  0  0  0  0  0  0  0  0
   -3.9695   10.9524   38.8304 O   0  0  0  0  0  0  0  0  0  0  0  0
   -4.4280    8.4643   38.5684 C   0  0  2  0  0  0  0  0  0  0  0  0
   -3.1933    8.4523   39.3199 O   0  0  0  0  0  0  0  0  0  0  0  0
   -4.2673    7.9014   37.1947 C   0  0  2  0  0  0  0  0  0  0  0  0
   -5.2726    8.7456   36.5279 O   0  0  0  0  0  0  0  0  0  0  0  0
   -4.6941    6.3889   37.1287 C   0  0  0  0  0  0  0  0  0  0  0  0
   -4.6025    5.8125   35.7913 O   0  0  0  0  0  0  0  0  0  0  0  0
   -2.8420    7.2054   39.9930 C   0  0  2  0  0  0  0  0  0  0  0  0
   -1.5027    7.4523   40.8643 C   0  0  2  0  0  0  0  0  0  0  0  0
   -0.4046    7.9212   39.9582 N   0  0  0  0  0  0  0  0  0  0  0  0
   -1.1251    6.0764   41.6047 C   0  0  1  0  0  0  0  0  0  0  0  0
   -2.2597    5.7120   42.4482 O   0  0  0  0  0  0  0  0  0  0  0  0
   -0.8350    4.9492   40.5139 C   0  0  2  0  0  0  0  0  0  0  0  0
    0.3308    5.3828   39.7120 O   0  0  0  0  0  0  0  0  0  0  0  0
   -2.1800    4.7581   39.6103 C   0  0  1  0  0  0  0  0  0  0  0  0
   -2.5587    6.0757   38.9817 O   0  0  0  0  0  0  0  0  0  0  0  0
   -1.9250    3.6692   38.5158 C   0  0  0  0  0  0  0  0  0  0  0  0
   -0.9213    4.0983   37.4931 N   0  0  0  0  0  0  0  0  0  0  0  0
  1  3  1  0  0  0  0
  1  2  1  1  0  0  0
  3  4  1  6  0  0  0
  3  5  1  0  0  0  0
  5  6  1  6  0  0  0
  7  8  1  1  0  0  0
  7  5  1  0  0  0  0
  9 11  1  1  0  0  0
  9  7  1  0  0  0  0
 10  9  1  0  0  0  0
 10  1  1  0  0  0  0
 12 11  1  0  0  0  0
 13 14  1  6  0  0  0
 15 13  1  0  0  0  0
 16 17  1  6  0  0  0
 16 15  1  0  0  0  0
 18  2  1  1  0  0  0
 18 19  1  0  0  0  0
 18 16  1  0  0  0  0
 19 20  1  6  0  0  0
 19 21  1  0  0  0  0
 21 22  1  1  0  0  0
 21 13  1  0  0  0  0
 23 20  1  1  0  0  0
 23 29  1  0  0  0  0
 24 25  1  1  0  0  0
 24 26  1  0  0  0  0
 24 23  1  0  0  0  0
 26 27  1  1  0  0  0
 26 28  1  0  0  0  0
 28 30  1  1  0  0  0
 29 28  1  0  0  0  0
 30 31  1  0  0  0  0
 32 27  1  6  0  0  0
 32 40  1  0  0  0  0
 33 35  1  0  0  0  0
 33 32  1  0  0  0  0
 33 34  1  6  0  0  0
 35 36  1  1  0  0  0
 35 37  1  0  0  0  0
 37 38  1  6  0  0  0
 37 39  1  0  0  0  0
 39 41  1  6  0  0  0
 40 39  1  0  0  0  0
 41 42  1  0  0  0  0
M  END
>  <CHROM.1>
176.78999348,-175.67334008,10.64381084,101.93851676,78.67833917,162.22713985
177.72712814,-175.35652809,-67.11080336,-2.89027042,9.59488658,37.38546020
-2.13170961,-1.09818755,2.20515621

>  <Name>
lig.pdb

>  <RI>
0

>  <Rbt.Current_Directory>
/home/itssahil/PROJECTS/Mol_Feturizer/New_Systems/rnas/4wcr

>  <Rbt.Executable>
rbdock ($Id: //depot/dev/client3/rdock/2013.1/src/exe/rbdock.cxx#4 $)

>  <Rbt.Library>
libRbt.so (2013.1, Build901 2013/11/27)

>  <Rbt.Parameter_File>
/export/apps/rDock/src/rDock_2013.1_src/data/scripts/dock_solv.prm

>  <Rbt.Receptor>
prm/pocket_docking_4.prm

>  <SCORE>
3.39706

>  <SCORE.INTER>
5.72747

>  <SCORE.INTER.CONST>
1

>  <SCORE.INTER.POLAR>
0

>  <SCORE.INTER.ROT>
9

>  <SCORE.INTER.SOLV>
12.0086

>  <SCORE.INTER.VDW>
-9.78455

>  <SCORE.INTER.norm>
0.136368

>  <SCORE.INTRA>
-2.33041

>  <SCORE.INTRA.DIHEDRAL>
0.0289442

>  <SCORE.INTRA.DIHEDRAL.0>
16.2863

>  <SCORE.INTRA.POLAR>
0

>  <SCORE.INTRA.POLAR.0>
0

>  <SCORE.INTRA.REPUL>
-0.285866

>  <SCORE.INTRA.REPUL.0>
0.314433

>  <SCORE.INTRA.SOLV>
2.23113

>  <SCORE.INTRA.SOLV.lig_0>
-103.824

>  <SCORE.INTRA.VDW>
-2.03112

>  <SCORE.INTRA.VDW.0>
-5.30945

>  <SCORE.INTRA.norm>
-0.0554859

>  <SCORE.RESTR>
0

>  <SCORE.RESTR.CAVITY>
0

>  <SCORE.RESTR.norm>
0

>  <SCORE.SYSTEM>
0

>  <SCORE.SYSTEM.CONST>
0

>  <SCORE.SYSTEM.DIHEDRAL>
0

>  <SCORE.SYSTEM.SOLV>
0

>  <SCORE.SYSTEM.norm>
0

>  <SCORE.heavy>
42

>  <SCORE.norm>
0.0808824

>  <RMSD>
5.817

$$$$
lig.pdb
 OpenBabel11021811513D
libRbt.so/2013.1/901 2013/11/27
 42 45  0  0  0  0  0  0  0  0999 V2000
   -1.4920   21.2987   34.7353 C   0  0  2  0  0  0  0  0  0  0  0  0
   -1.2760   21.3053   33.2895 O   0  0  0  0  0  0  0  0  0  0  0  0
   -0.8294   22.6385   35.2884 C   0  0  2  0  0  0  0  0  0  0  0  0
   -1.4949   23.8105   34.7128 N   0  0  0  0  0  0  0  0  0  0  0  0
    0.7426   22.6112   34.9602 C   0  0  1  0  0  0  0  0  0  0  0  0
    1.3977   23.8000   35.4505 O   0  0  0  0  0  0  0  0  0  0  0  0
    1.3196   21.3396   35.6058 C   0  0  2  0  0  0  0  0  0  0  0  0
    2.6797   21.2817   35.3404 O   0  0  0  0  0  0  0  0  0  0  0  0
    0.5720   20.0512   35.0319 C   0  0  2  0  0  0  0  0  0  0  0  0
   -0.8345   20.1026   35.3016 O   0  0  0  0  0  0  0  0  0  0  0  0
    1.0867   18.7804   35.6461 C   0  0  0  0  0  0  0  0  0  0  0  0
    0.3558   17.6959   35.0721 O   0  0  0  0  0  0  0  0  0  0  0  0
   -5.4401   21.4458   31.7360 C   0  0  2  0  0  0  0  0  0  0  0  0
   -6.5586   21.4493   30.8185 N   0  0  0  0  0  0  0  0  0  0  0  0
   -4.4148   22.5803   31.3483 C   0  0  0  0  0  0  0  0  0  0  0  0
   -3.1884   22.5948   32.3272 C   0  0  2  0  0  0  0  0  0  0  0  0
   -2.2616   23.6526   31.9299 N   0  0  0  0  0  0  0  0  0  0  0  0
   -2.4054   21.2074   32.3422 C   0  0  2  0  0  0  0  0  0  0  0  0
   -3.4200   20.1048   32.7624 C   0  0  2  0  0  0  0  0  0  0  0  0
   -2.6020   18.8345   32.7615 O   0  0  0  0  0  0  0  0  0  0  0  0
   -4.6554   20.0503   31.7050 C   0  0  1  0  0  0  0  0  0  0  0  0
   -5.7044   19.0829   32.0304 O   0  0  0  0  0  0  0  0  0  0  0  0
   -3.0449   17.9545   33.7137 C   0  0  1  0  0  0  0  0  0  0  0  0
   -2.1615   16.7959   33.8820 C   0  0  2  0  0  0  0  0  0  0  0  0
   -2.3268   15.9816   32.7656 O   0  0  0  0  0  0  0  0  0  0  0  0
   -2.5915   16.2917   35.2763 C   0  0  2  0  0  0  0  0  0  0  0  0
   -3.0941   14.9482   35.0972 O   0  0  0  0  0  0  0  0  0  0  0  0
   -3.6521   17.2452   35.7185 C   0  0  2  0  0  0  0  0  0  0  0  0
   -3.1215   18.4412   35.0433 O   0  0  0  0  0  0  0  0  0  0  0  0
   -3.6419   17.4492   37.2782 C   0  0  0  0  0  0  0  0  0  0  0  0
   -3.8605   16.2185   38.0311 O   0  0  0  0  0  0  0  0  0  0  0  0
   -2.1337   13.9354   34.6697 C   0  0  2  0  0  0  0  0  0  0  0  0
   -2.8888   12.5073   34.6043 C   0  0  2  0  0  0  0  0  0  0  0  0
   -3.4638   12.1917   35.9521 N   0  0  0  0  0  0  0  0  0  0  0  0
   -1.8258   11.3989   34.1295 C   0  0  1  0  0  0  0  0  0  0  0  0
   -1.3282   11.8082   32.8193 O   0  0  0  0  0  0  0  0  0  0  0  0
   -0.6398   11.3115   35.1926 C   0  0  2  0  0  0  0  0  0  0  0  0
   -1.2189   10.8795   36.4842 O   0  0  0  0  0  0  0  0  0  0  0  0
    0.0700   12.7776   35.2841 C   0  0  1  0  0  0  0  0  0  0  0  0
   -0.9580   13.8149   35.6608 O   0  0  0  0  0  0  0  0  0  0  0  0
    1.2300   12.7331   36.3334 C   0  0  0  0  0  0  0  0  0  0  0  0
    2.2894   11.7363   35.9852 N   0  0  0  0  0  0  0  0  0  0  0  0
  1  3  1  0  0  0  0
  1  2  1  6  0  0  0
  3  4  1  6  0  0  0
  3  5  1  0  0  0  0
  5  6  1  1  0  0  0
  7  8  1  6  0  0  0
  7  5  1  0  0  0  0
  9 11  1  1  0  0  0
  9  7  1  0  0  0  0
 10  9  1  0  0  0  0
 10  1  1  0  0  0  0
 12 11  1  0  0  0  0
 13 14  1  6  0  0  0
 15 13  1  0  0  0  0
 16 17  1  6  0  0  0
 16 15  1  0  0  0  0
 18  2  1  1  0  0  0
 18 19  1  0  0  0  0
 18 16  1  0  0  0  0
 19 20  1  6  0  0  0
 19 21  1  0  0  0  0
 21 22  1  1  0  0  0
 21 13  1  0  0  0  0
 23 20  1  6  0  0  0
 23 29  1  0  0  0  0
 24 25  1  6  0  0  0
 24 26  1  0  0  0  0
 24 23  1  0  0  0  0
 26 27  1  6  0  0  0
 26 28  1  0  0  0  0
 28 30  1  1  0  0  0
 29 28  1  0  0  0  0
 30 31  1  0  0  0  0
 32 27  1  1  0  0  0
 32 40  1  0  0  0  0
 33 35  1  0  0  0  0
 33 32  1  0  0  0  0
 33 34  1  1  0  0  0
 35 36  1  6  0  0  0
 35 37  1  0  0  0  0
 37 38  1  1  0  0  0
 37 39  1  0  0  0  0
 39 41  1  1  0  0  0
 40 39  1  0  0  0  0
 41 42  1  0  0  0  0
M  END
>  <CHROM.1>
-123.39036665,179.85330575,73.58686614,147.87260532,-171.52922641,65.68376993
-59.73126339,177.25517898,60.05555134,-1.81098764,17.88084809,34.40358230
-1.66958678,0.49422672,2.98562454

>  <Name>
lig.pdb

>  <RI>
0

>  <Rbt.Current_Directory>
/home/itssahil/PROJECTS/Mol_Feturizer/New_Systems/rnas/4wcr

>  <Rbt.Executable>
rbdock ($Id: //depot/dev/client3/rdock/2013.1/src/exe/rbdock.cxx#4 $)

>  <Rbt.Library>
libRbt.so (2013.1, Build901 2013/11/27)

>  <Rbt.Parameter_File>
/export/apps/rDock/src/rDock_2013.1_src/data/scripts/dock_solv.prm

>  <Rbt.Receptor>
prm/pocket_docking_8.prm

>  <SCORE>
-15.712

>  <SCORE.INTER>
-13.9896

>  <SCORE.INTER.CONST>
1

>  <SCORE.INTER.POLAR>
0

>  <SCORE.INTER.ROT>
9

>  <SCORE.INTER.SOLV>
23.6047

>  <SCORE.INTER.VDW>
-26.7947

>  <SCORE.INTER.norm>
-0.333086

>  <SCORE.INTRA>
-1.72234

>  <SCORE.INTRA.DIHEDRAL>
-3.18935

>  <SCORE.INTRA.DIHEDRAL.0>
16.2863

>  <SCORE.INTRA.POLAR>
0

>  <SCORE.INTRA.POLAR.0>
0

>  <SCORE.INTRA.REPUL>
0.0771937

>  <SCORE.INTRA.REPUL.0>
0.314433

>  <SCORE.INTRA.SOLV>
-0.782358

>  <SCORE.INTRA.SOLV.lig_0>
-103.824

>  <SCORE.INTRA.VDW>
-0.122452

>  <SCORE.INTRA.VDW.0>
-5.30945

>  <SCORE.INTRA.norm>
-0.041008

>  <SCORE.RESTR>
0

>  <SCORE.RESTR.CAVITY>
0

>  <SCORE.RESTR.norm>
0

>  <SCORE.SYSTEM>
0

>  <SCORE.SYSTEM.CONST>
0

>  <SCORE.SYSTEM.DIHEDRAL>
0

>  <SCORE.SYSTEM.SOLV>
0

>  <SCORE.SYSTEM.norm>
0

>  <SCORE.heavy>
42

>  <SCORE.norm>
-0.374094

>  <RMSD>
6.135

$$$$
lig.pdb
 OpenBabel11021811513D
libRbt.so/2013.1/901 2013/11/27
 42 45  0  0  0  0  0  0  0  0999 V2000
    0.0507   12.9541   39.8925 C   0  0  2  0  0  0  0  0  0  0  0  0
   -0.1252   14.3921   40.0887 O   0  0  0  0  0  0  0  0  0  0  0  0
   -1.0569   12.2453   40.7930 C   0  0  2  0  0  0  0  0  0  0  0  0
   -2.3986   12.6266   40.3433 N   0  0  0  0  0  0  0  0  0  0  0  0
   -0.7991   12.6332   42.3301 C   0  0  1  0  0  0  0  0  0  0  0  0
   -1.7701   12.0073   43.1950 O   0  0  0  0  0  0  0  0  0  0  0  0
    0.6339   12.1932   42.6757 C   0  0  2  0  0  0  0  0  0  0  0  0
    0.8931   12.5152   43.9996 O   0  0  0  0  0  0  0  0  0  0  0  0
    1.6735   12.9123   41.7006 C   0  0  2  0  0  0  0  0  0  0  0  0
    1.4131   12.5851   40.3299 O   0  0  0  0  0  0  0  0  0  0  0  0
    3.0903   12.5008   41.9847 C   0  0  0  0  0  0  0  0  0  0  0  0
    3.9471   13.3301   41.1987 O   0  0  0  0  0  0  0  0  0  0  0  0
    0.4148   17.8928   37.4006 C   0  0  2  0  0  0  0  0  0  0  0  0
    1.0480   18.9265   36.6109 N   0  0  0  0  0  0  0  0  0  0  0  0
    0.9273   17.9564   38.8913 C   0  0  0  0  0  0  0  0  0  0  0  0
    0.2579   16.8410   39.7689 C   0  0  2  0  0  0  0  0  0  0  0  0
    0.7637   16.9298   41.1372 N   0  0  0  0  0  0  0  0  0  0  0  0
    0.5429   15.3757   39.2121 C   0  0  2  0  0  0  0  0  0  0  0  0
   -0.0013   15.3172   37.7554 C   0  0  2  0  0  0  0  0  0  0  0  0
    0.2971   13.9050   37.3091 O   0  0  0  0  0  0  0  0  0  0  0  0
    0.7457   16.4318   36.8349 C   0  0  1  0  0  0  0  0  0  0  0  0
    0.2737   16.5069   35.4515 O   0  0  0  0  0  0  0  0  0  0  0  0
   -0.2537   13.6418   36.0825 C   0  0  1  0  0  0  0  0  0  0  0  0
   -0.2534   12.2144   35.7456 C   0  0  2  0  0  0  0  0  0  0  0  0
    1.0597   11.8560   35.4556 O   0  0  0  0  0  0  0  0  0  0  0  0
   -1.3291   12.1677   34.6393 C   0  0  2  0  0  0  0  0  0  0  0  0
   -0.6747   11.6922   33.4413 O   0  0  0  0  0  0  0  0  0  0  0  0
   -1.8071   13.5763   34.5096 C   0  0  2  0  0  0  0  0  0  0  0  0
   -1.6242   13.9662   35.9176 O   0  0  0  0  0  0  0  0  0  0  0  0
   -3.3290   13.6439   34.1177 C   0  0  0  0  0  0  0  0  0  0  0  0
   -3.7882   14.9877   33.7824 O   0  0  0  0  0  0  0  0  0  0  0  0
   -0.2851   10.2856   33.4156 C   0  0  2  0  0  0  0  0  0  0  0  0
    0.1516    9.9015   31.9070 C   0  0  2  0  0  0  0  0  0  0  0  0
   -0.9919   10.1768   30.9778 N   0  0  0  0  0  0  0  0  0  0  0  0
    0.5824    8.3530   31.8882 C   0  0  1  0  0  0  0  0  0  0  0  0
    1.6895    8.1993   32.8275 O   0  0  0  0  0  0  0  0  0  0  0  0
   -0.6620    7.4508   32.3146 C   0  0  2  0  0  0  0  0  0  0  0  0
   -1.7318    7.6498   31.3116 O   0  0  0  0  0  0  0  0  0  0  0  0
   -1.1213    7.8950   33.8158 C   0  0  1  0  0  0  0  0  0  0  0  0
   -1.4526    9.3664   33.8291 O   0  0  0  0  0  0  0  0  0  0  0  0
   -2.3542    7.0402   34.2606 C   0  0  0  0  0  0  0  0  0  0  0  0
   -2.0178    5.5965   34.4598 N   0  0  0  0  0  0  0  0  0  0  0  0
  1  3  1  0  0  0  0
  1  2  1  1  0  0  0
  3  4  1  6  0  0  0
  3  5  1  0  0  0  0
  5  6  1  1  0  0  0
  7  8  1  1  0  0  0
  7  5  1  0  0  0  0
  9 11  1  1  0  0  0
  9  7  1  0  0  0  0
 10  9  1  0  0  0  0
 10  1  1  0  0  0  0
 12 11  1  0  0  0  0
 13 14  1  6  0  0  0
 15 13  1  0  0  0  0
 16 17  1  1  0  0  0
 16 15  1  0  0  0  0
 18  2  1  1  0  0  0
 18 19  1  0  0  0  0
 18 16  1  0  0  0  0
 19 20  1  6  0  0  0
 19 21  1  0  0  0  0
 21 22  1  6  0  0  0
 21 13  1  0  0  0  0
 23 20  1  1  0  0  0
 23 29  1  0  0  0  0
 24 25  1  6  0  0  0
 24 26  1  0  0  0  0
 24 23  1  0  0  0  0
 26 27  1  6  0  0  0
 26 28  1  0  0  0  0
 28 30  1  1  0  0  0
 29 28  1  0  0  0  0
 30 31  1  0  0  0  0
 32 27  1  6  0  0  0
 32 40  1  0  0  0  0
 33 35  1  0  0  0  0
 33 32  1  0  0  0  0
 33 34  1  6  0  0  0
 35 36  1  1  0  0  0
 35 37  1  0  0  0  0
 37 38  1  6  0  0  0
 37 39  1  0  0  0  0
 39 41  1  6  0  0  0
 40 39  1  0  0  0  0
 41 42  1  0  0  0  0
M  END
>  <CHROM.1>
-167.61650603,-171.97725667,-174.81591232,173.43103271,-167.01182431,71.23503509
-171.21723862,168.98401694,67.43383645,-0.22089600,12.57394758,36.99172427
-0.43054600,1.38358527,2.96810596

>  <Name>
lig.pdb

>  <RI>
0

>  <Rbt.Current_Directory>
/home/itssahil/PROJECTS/Mol_Feturizer/New_Systems/rnas/4wcr

>  <Rbt.Executable>
rbdock ($Id: //depot/dev/client3/rdock/2013.1/src/exe/rbdock.cxx#4 $)

>  <Rbt.Library>
libRbt.so (2013.1, Build901 2013/11/27)

>  <Rbt.Parameter_File>
/export/apps/rDock/src/rDock_2013.1_src/data/scripts/dock_solv.prm

>  <Rbt.Receptor>
prm/pocket_docking_6.prm

>  <SCORE>
-9.1908

>  <SCORE.INTER>
-0.427228

>  <SCORE.INTER.CONST>
1

>  <SCORE.INTER.POLAR>
0

>  <SCORE.INTER.ROT>
9

>  <SCORE.INTER.SOLV>
18.234

>  <SCORE.INTER.VDW>
-15.9628

>  <SCORE.INTER.norm>
-0.0101721

>  <SCORE.INTRA>
-8.76357

>  <SCORE.INTRA.DIHEDRAL>
-12.0703

>  <SCORE.INTRA.DIHEDRAL.0>
16.2863

>  <SCORE.INTRA.POLAR>
0

>  <SCORE.INTRA.POLAR.0>
0

>  <SCORE.INTRA.REPUL>
-0.314433

>  <SCORE.INTRA.REPUL.0>
0.314433

>  <SCORE.INTRA.SOLV>
-5.8596

>  <SCORE.INTRA.SOLV.lig_0>
-103.824

>  <SCORE.INTRA.VDW>
1.77352

>  <SCORE.INTRA.VDW.0>
-5.30945

>  <SCORE.INTRA.norm>
-0.208656

>  <SCORE.RESTR>
0

>  <SCORE.RESTR.CAVITY>
0

>  <SCORE.RESTR.norm>
0

>  <SCORE.SYSTEM>
0

>  <SCORE.SYSTEM.CONST>
0

>  <SCORE.SYSTEM.DIHEDRAL>
0

>  <SCORE.SYSTEM.SOLV>
0

>  <SCORE.SYSTEM.norm>
0

>  <SCORE.heavy>
42

>  <SCORE.norm>
-0.218829

>  <RMSD>
6.214

$$$$
lig.pdb
 OpenBabel11021811513D
libRbt.so/2013.1/901 2013/11/27
 42 45  0  0  0  0  0  0  0  0999 V2000
   -5.9842   16.8707   39.4957 C   0  0  2  0  0  0  0  0  0  0  0  0
   -5.0449   17.8141   40.0996 O   0  0  0  0  0  0  0  0  0  0  0  0
   -6.5350   17.5765   38.1772 C   0  0  2  0  0  0  0  0  0  0  0  0
   -5.4387   17.8246   37.2369 N   0  0  0  0  0  0  0  0  0  0  0  0
   -7.2948   18.9289   38.5939 C   0  0  1  0  0  0  0  0  0  0  0  0
   -7.8258   19.6060   37.4354 O   0  0  0  0  0  0  0  0  0  0  0  0
   -8.4079   18.5389   39.5815 C   0  0  2  0  0  0  0  0  0  0  0  0
   -9.0863   19.6861   39.9657 O   0  0  0  0  0  0  0  0  0  0  0  0
   -7.7769   17.7995   40.8478 C   0  0  2  0  0  0  0  0  0  0  0  0
   -7.0737   16.6125   40.4601 O   0  0  0  0  0  0  0  0  0  0  0  0
   -8.8271   17.3797   41.8368 C   0  0  0  0  0  0  0  0  0  0  0  0
   -9.4272   18.5655   42.3595 O   0  0  0  0  0  0  0  0  0  0  0  0
   -1.2944   17.4145   42.4547 C   0  0  2  0  0  0  0  0  0  0  0  0
   -0.3842   17.1049   43.5357 N   0  0  0  0  0  0  0  0  0  0  0  0
   -2.4543   18.3506   42.9714 C   0  0  0  0  0  0  0  0  0  0  0  0
   -3.4591   18.6981   41.8171 C   0  0  2  0  0  0  0  0  0  0  0  0
   -4.5192   19.5587   42.3379 N   0  0  0  0  0  0  0  0  0  0  0  0
   -4.1228   17.3991   41.1765 C   0  0  2  0  0  0  0  0  0  0  0  0
   -2.9691   16.5040   40.6384 C   0  0  2  0  0  0  0  0  0  0  0  0
   -3.6785   15.3098   40.0440 O   0  0  0  0  0  0  0  0  0  0  0  0
   -1.9683   16.0922   41.8534 C   0  0  1  0  0  0  0  0  0  0  0  0
   -0.8095   15.2921   41.4545 O   0  0  0  0  0  0  0  0  0  0  0  0
   -2.7994   14.4704   39.4117 C   0  0  1  0  0  0  0  0  0  0  0  0
   -3.4544   13.3181   38.7837 C   0  0  2  0  0  0  0  0  0  0  0  0
   -3.8518   12.4590   39.8039 O   0  0  0  0  0  0  0  0  0  0  0  0
   -2.3736   12.8722   37.7756 C   0  0  2  0  0  0  0  0  0  0  0  0
   -1.9985   11.5234   38.1357 O   0  0  0  0  0  0  0  0  0  0  0  0
   -1.2553   13.8449   37.9572 C   0  0  2  0  0  0  0  0  0  0  0  0
   -2.0787   15.0113   38.3170 O   0  0  0  0  0  0  0  0  0  0  0  0
   -0.4883   14.1126   36.6102 C   0  0  0  0  0  0  0  0  0  0  0  0
   -1.3237   14.6988   35.5673 O   0  0  0  0  0  0  0  0  0  0  0  0
   -1.1457   10.8020   37.1959 C   0  0  2  0  0  0  0  0  0  0  0  0
   -1.1481    9.2361   37.5986 C   0  0  2  0  0  0  0  0  0  0  0  0
   -0.6651    9.0896   39.0100 N   0  0  0  0  0  0  0  0  0  0  0  0
   -0.2102    8.4488   36.5572 C   0  0  1  0  0  0  0  0  0  0  0  0
   -0.7650    8.6653   35.2242 O   0  0  0  0  0  0  0  0  0  0  0  0
    1.2800    9.0088   36.6570 C   0  0  2  0  0  0  0  0  0  0  0  0
    1.7751    8.7409   38.0257 O   0  0  0  0  0  0  0  0  0  0  0  0
    1.2495   10.6012   36.3031 C   0  0  1  0  0  0  0  0  0  0  0  0
    0.3095   11.3110   37.2452 O   0  0  0  0  0  0  0  0  0  0  0  0
    2.6959   11.1888   36.4085 C   0  0  0  0  0  0  0  0  0  0  0  0
    2.7291   12.6776   36.2682 N   0  0  0  0  0  0  0  0  0  0  0  0
  1  3  1  0  0  0  0
  1  2  1  1  0  0  0
  3  4  1  6  0  0  0
  3  5  1  0  0  0  0
  5  6  1  6  0  0  0
  7  8  1  1  0  0  0
  7  5  1  0  0  0  0
  9 11  1  1  0  0  0
  9  7  1  0  0  0  0
 10  9  1  0  0  0  0
 10  1  1  0  0  0  0
 12 11  1  0  0  0  0
 13 14  1  1  0  0  0
 15 13  1  0  0  0  0
 16 17  1  1  0  0  0
 16 15  1  0  0  0  0
 18  2  1  6  0  0  0
 18 19  1  0  0  0  0
 18 16  1  0  0  0  0
 19 20  1  1  0  0  0
 19 21  1  0  0  0  0
 21 22  1  6  0  0  0
 21 13  1  0  0  0  0
 23 20  1  6  0  0  0
 23 29  1  0  0  0  0
 24 25  1  1  0  0  0
 24 26  1  0  0  0  0
 24 23  1  0  0  0  0
 26 27  1  1  0  0  0
 26 28  1  0  0  0  0
 28 30  1  6  0  0  0
 29 28  1  0  0  0  0
 30 31  1  0  0  0  0
 32 27  1  1  0  0  0
 32 40  1  0  0  0  0
 33 35  1  0  0  0  0
 33 32  1  0  0  0  0
 33 34  1  1  0  0  0
 35 36  1  6  0  0  0
 35 37  1  0  0  0  0
 37 38  1  1  0  0  0
 37 39  1  0  0  0  0
 39 41  1  1  0  0  0
 40 39  1  0  0  0  0
 41 42  1  0  0  0  0
M  END
>  <CHROM.1>
-166.84216989,-64.95597659,-168.43496888,174.49485076,-178.19090754,170.27446898
61.69405100,-166.32624230,-172.74195121,-3.06966150,14.78440814,39.11334600
2.32949546,-0.40738984,0.77672088

>  <Name>
lig.pdb

>  <RI>
0

>  <Rbt.Current_Directory>
/home/itssahil/PROJECTS/Mol_Feturizer/New_Systems/rnas/4wcr

>  <Rbt.Executable>
rbdock ($Id: //depot/dev/client3/rdock/2013.1/src/exe/rbdock.cxx#4 $)

>  <Rbt.Library>
libRbt.so (2013.1, Build901 2013/11/27)

>  <Rbt.Parameter_File>
/export/apps/rDock/src/rDock_2013.1_src/data/scripts/dock_solv.prm

>  <Rbt.Receptor>
prm/pocket_docking_8.prm

>  <SCORE>
-5.30538

>  <SCORE.INTER>
3.81764

>  <SCORE.INTER.CONST>
1

>  <SCORE.INTER.POLAR>
0

>  <SCORE.INTER.ROT>
9

>  <SCORE.INTER.SOLV>
20.501

>  <SCORE.INTER.VDW>
-13.8886

>  <SCORE.INTER.norm>
0.0908963

>  <SCORE.INTRA>
-9.12302

>  <SCORE.INTRA.DIHEDRAL>
-12.5119

>  <SCORE.INTRA.DIHEDRAL.0>
16.2863

>  <SCORE.INTRA.POLAR>
0

>  <SCORE.INTRA.POLAR.0>
0

>  <SCORE.INTRA.REPUL>
-0.314433

>  <SCORE.INTRA.REPUL.0>
0.314433

>  <SCORE.INTRA.SOLV>
-4.46467

>  <SCORE.INTRA.SOLV.lig_0>
-103.824

>  <SCORE.INTRA.VDW>
0.937449

>  <SCORE.INTRA.VDW.0>
-5.30945

>  <SCORE.INTRA.norm>
-0.217215

>  <SCORE.RESTR>
0

>  <SCORE.RESTR.CAVITY>
0

>  <SCORE.RESTR.norm>
0

>  <SCORE.SYSTEM>
0

>  <SCORE.SYSTEM.CONST>
0

>  <SCORE.SYSTEM.DIHEDRAL>
0

>  <SCORE.SYSTEM.SOLV>
0

>  <SCORE.SYSTEM.norm>
0

>  <SCORE.heavy>
42

>  <SCORE.norm>
-0.126319

>  <RMSD>
6.240

$$$$
lig.pdb
 OpenBabel11021811513D
libRbt.so/2013.1/901 2013/11/27
 42 45  0  0  0  0  0  0  0  0999 V2000
    0.8939   12.9689   39.8206 C   0  0  2  0  0  0  0  0  0  0  0  0
    0.4579   14.3599   39.9308 O   0  0  0  0  0  0  0  0  0  0  0  0
    0.0114   12.1443   40.8604 C   0  0  2  0  0  0  0  0  0  0  0  0
   -1.4074   12.2283   40.5029 N   0  0  0  0  0  0  0  0  0  0  0  0
    0.2986   12.7023   42.3389 C   0  0  1  0  0  0  0  0  0  0  0  0
   -0.4687   11.9814   43.3258 O   0  0  0  0  0  0  0  0  0  0  0  0
    1.8106   12.5691   42.5891 C   0  0  2  0  0  0  0  0  0  0  0  0
    2.0967   13.0448   43.8602 O   0  0  0  0  0  0  0  0  0  0  0  0
    2.6192   13.3847   41.4804 C   0  0  2  0  0  0  0  0  0  0  0  0
    2.3297   12.8997   40.1633 O   0  0  0  0  0  0  0  0  0  0  0  0
    4.1054   13.2711   41.6689 C   0  0  0  0  0  0  0  0  0  0  0  0
    4.4517   11.8905   41.5520 O   0  0  0  0  0  0  0  0  0  0  0  0
    0.2449   17.8275   37.1553 C   0  0  2  0  0  0  0  0  0  0  0  0
    0.6487   18.8971   36.2689 N   0  0  0  0  0  0  0  0  0  0  0  0
    0.9633   17.9778   38.5518 C   0  0  0  0  0  0  0  0  0  0  0  0
    0.5449   16.8255   39.5315 C   0  0  2  0  0  0  0  0  0  0  0  0
    1.2362   16.9972   40.8076 N   0  0  0  0  0  0  0  0  0  0  0  0
    0.8883   15.3810   38.9538 C   0  0  2  0  0  0  0  0  0  0  0  0
    0.1431   15.2336   37.5956 C   0  0  2  0  0  0  0  0  0  0  0  0
    0.5107   13.8458   37.1247 O   0  0  0  0  0  0  0  0  0  0  0  0
    0.6315   16.3913   36.5619 C   0  0  1  0  0  0  0  0  0  0  0  0
   -0.0449   16.3856   35.2640 O   0  0  0  0  0  0  0  0  0  0  0  0
   -0.1612   13.5132   35.9778 C   0  0  1  0  0  0  0  0  0  0  0  0
   -0.0575   12.0892   35.6424 C   0  0  2  0  0  0  0  0  0  0  0  0
    1.2380   11.8627   35.1873 O   0  0  0  0  0  0  0  0  0  0  0  0
   -1.2542   11.9201   34.6819 C   0  0  2  0  0  0  0  0  0  0  0  0
   -0.7116   11.4991   33.4098 O   0  0  0  0  0  0  0  0  0  0  0  0
   -1.8864   13.2712   34.6153 C   0  0  2  0  0  0  0  0  0  0  0  0
   -1.5675   13.6946   35.9889 O   0  0  0  0  0  0  0  0  0  0  0  0
   -3.4445   13.1790   34.4203 C   0  0  0  0  0  0  0  0  0  0  0  0
   -3.8416   12.4933   33.1950 O   0  0  0  0  0  0  0  0  0  0  0  0
   -0.2806   10.1084   33.3035 C   0  0  2  0  0  0  0  0  0  0  0  0
    0.2159    9.8395   31.7885 C   0  0  2  0  0  0  0  0  0  0  0  0
   -0.9042   10.1464   30.8410 N   0  0  0  0  0  0  0  0  0  0  0  0
    0.6920    8.3079   31.6810 C   0  0  1  0  0  0  0  0  0  0  0  0
    1.7719    8.1205   32.6455 O   0  0  0  0  0  0  0  0  0  0  0  0
   -0.5389    7.3458   32.0029 C   0  0  2  0  0  0  0  0  0  0  0  0
   -1.5808    7.5836   30.9792 O   0  0  0  0  0  0  0  0  0  0  0  0
   -1.0596    7.6747   33.5138 C   0  0  1  0  0  0  0  0  0  0  0  0
   -1.4338    9.1323   33.6141 O   0  0  0  0  0  0  0  0  0  0  0  0
   -2.2810    6.7589   33.8576 C   0  0  0  0  0  0  0  0  0  0  0  0
   -1.9129    5.3122   33.9527 N   0  0  0  0  0  0  0  0  0  0  0  0
  1  3  1  0  0  0  0
  1  2  1  1  0  0  0
  3  4  1  6  0  0  0
  3  5  1  0  0  0  0
  5  6  1  1  0  0  0
  7  8  1  1  0  0  0
  7  5  1  0  0  0  0
  9 11  1  1  0  0  0
  9  7  1  0  0  0  0
 10  9  1  0  0  0  0
 10  1  1  0  0  0  0
 12 11  1  0  0  0  0
 13 14  1  6  0  0  0
 15 13  1  0  0  0  0
 16 17  1  1  0  0  0
 16 15  1  0  0  0  0
 18  2  1  1  0  0  0
 18 19  1  0  0  0  0
 18 16  1  0  0  0  0
 19 20  1  6  0  0  0
 19 21  1  0  0  0  0
 21 22  1  6  0  0  0
 21 13  1  0  0  0  0
 23 20  1  1  0  0  0
 23 29  1  0  0  0  0
 24 25  1  6  0  0  0
 24 26  1  0  0  0  0
 24 23  1  0  0  0  0
 26 27  1  6  0  0  0
 26 28  1  0  0  0  0
 28 30  1  1  0  0  0
 29 28  1  0  0  0  0
 30 31  1  0  0  0  0
 32 27  1  6  0  0  0
 32 40  1  0  0  0  0
 33 35  1  0  0  0  0
 33 32  1  0  0  0  0
 33 34  1  6  0  0  0
 35 36  1  1  0  0  0
 35 37  1  0  0  0  0
 37 38  1  6  0  0  0
 37 39  1  0  0  0  0
 39 41  1  6  0  0  0
 40 39  1  0  0  0  0
 41 42  1  0  0  0  0
M  END
>  <CHROM.1>
-169.27026533,61.03694757,-166.58364837,174.98561747,-167.82870041,75.79004977
-60.26612387,177.14061742,66.64395251,0.09746883,12.43056324,36.83970200
-0.72382210,1.24910216,-2.99591176

>  <Name>
lig.pdb

>  <RI>
0

>  <Rbt.Current_Directory>
/home/itssahil/PROJECTS/Mol_Feturizer/New_Systems/rnas/4wcr

>  <Rbt.Executable>
rbdock ($Id: //depot/dev/client3/rdock/2013.1/src/exe/rbdock.cxx#4 $)

>  <Rbt.Library>
libRbt.so (2013.1, Build901 2013/11/27)

>  <Rbt.Parameter_File>
/export/apps/rDock/src/rDock_2013.1_src/data/scripts/dock_solv.prm

>  <Rbt.Receptor>
prm/pocket_docking_8.prm

>  <SCORE>
-11.1953

>  <SCORE.INTER>
-2.35241

>  <SCORE.INTER.CONST>
1

>  <SCORE.INTER.POLAR>
0

>  <SCORE.INTER.ROT>
9

>  <SCORE.INTER.SOLV>
19.1736

>  <SCORE.INTER.VDW>
-17.5595

>  <SCORE.INTER.norm>
-0.0560097

>  <SCORE.INTRA>
-8.84293

>  <SCORE.INTRA.DIHEDRAL>
-12.1764

>  <SCORE.INTRA.DIHEDRAL.0>
16.2863

>  <SCORE.INTRA.POLAR>
0

>  <SCORE.INTRA.POLAR.0>
0

>  <SCORE.INTRA.REPUL>
-0.314433

>  <SCORE.INTRA.REPUL.0>
0.314433

>  <SCORE.INTRA.SOLV>
-5.12351

>  <SCORE.INTRA.SOLV.lig_0>
-103.824

>  <SCORE.INTRA.VDW>
1.37919

>  <SCORE.INTRA.VDW.0>
-5.30945

>  <SCORE.INTRA.norm>
-0.210546

>  <SCORE.RESTR>
0

>  <SCORE.RESTR.CAVITY>
0

>  <SCORE.RESTR.norm>
0

>  <SCORE.SYSTEM>
0

>  <SCORE.SYSTEM.CONST>
0

>  <SCORE.SYSTEM.DIHEDRAL>
0

>  <SCORE.SYSTEM.SOLV>
0

>  <SCORE.SYSTEM.norm>
0

>  <SCORE.heavy>
42

>  <SCORE.norm>
-0.266556

>  <RMSD>
6.248

$$$$
lig.pdb
 OpenBabel11021811513D
libRbt.so/2013.1/901 2013/11/27
 42 45  0  0  0  0  0  0  0  0999 V2000
   -4.3215   12.9637   39.7615 C   0  0  2  0  0  0  0  0  0  0  0  0
   -3.5837   11.8936   39.0924 O   0  0  0  0  0  0  0  0  0  0  0  0
   -5.8630   12.6959   39.4578 C   0  0  2  0  0  0  0  0  0  0  0  0
   -6.2764   11.4079   40.0216 N   0  0  0  0  0  0  0  0  0  0  0  0
   -6.0969   12.7666   37.8703 C   0  0  1  0  0  0  0  0  0  0  0  0
   -7.4830   12.5417   37.5377 O   0  0  0  0  0  0  0  0  0  0  0  0
   -5.6197   14.1520   37.4019 C   0  0  2  0  0  0  0  0  0  0  0  0
   -5.8055   14.2485   36.0309 O   0  0  0  0  0  0  0  0  0  0  0  0
   -4.0833   14.3559   37.7842 C   0  0  2  0  0  0  0  0  0  0  0  0
   -3.8819   14.2579   39.1997 O   0  0  0  0  0  0  0  0  0  0  0  0
   -3.5720   15.7048   37.3644 C   0  0  0  0  0  0  0  0  0  0  0  0
   -4.3014   16.6906   38.0963 O   0  0  0  0  0  0  0  0  0  0  0  0
   -2.3368    7.8941   40.5830 C   0  0  2  0  0  0  0  0  0  0  0  0
   -2.4037    6.5512   41.1169 N   0  0  0  0  0  0  0  0  0  0  0  0
   -3.0752    8.9005   41.5478 C   0  0  0  0  0  0  0  0  0  0  0  0
   -3.0205   10.3656   40.9883 C   0  0  2  0  0  0  0  0  0  0  0  0
   -3.7202   11.2628   41.9055 N   0  0  0  0  0  0  0  0  0  0  0  0
   -3.6833   10.4908   39.5448 C   0  0  2  0  0  0  0  0  0  0  0  0
   -2.9206    9.5209   38.5967 C   0  0  2  0  0  0  0  0  0  0  0  0
   -3.5986    9.7070   37.2594 O   0  0  0  0  0  0  0  0  0  0  0  0
   -3.0382    7.9942   39.1470 C   0  0  1  0  0  0  0  0  0  0  0  0
   -2.3096    6.9969   38.3617 O   0  0  0  0  0  0  0  0  0  0  0  0
   -2.8697    9.1409   36.2467 C   0  0  1  0  0  0  0  0  0  0  0  0
   -3.4484    9.3765   34.9197 C   0  0  2  0  0  0  0  0  0  0  0  0
   -4.5859    8.5816   34.8152 O   0  0  0  0  0  0  0  0  0  0  0  0
   -2.2308    9.1062   34.0100 C   0  0  2  0  0  0  0  0  0  0  0  0
   -2.5883    7.9980   33.1533 O   0  0  0  0  0  0  0  0  0  0  0  0
   -1.1188    8.7690   34.9478 C   0  0  2  0  0  0  0  0  0  0  0  0
   -1.5499    9.6261   36.0646 O   0  0  0  0  0  0  0  0  0  0  0  0
    0.2751    9.2479   34.3984 C   0  0  0  0  0  0  0  0  0  0  0  0
    0.5559    8.7955   33.0398 O   0  0  0  0  0  0  0  0  0  0  0  0
   -2.4156    6.6565   33.7024 C   0  0  2  0  0  0  0  0  0  0  0  0
   -2.6435    5.5828   32.5153 C   0  0  2  0  0  0  0  0  0  0  0  0
   -4.0128    5.7722   31.9357 N   0  0  0  0  0  0  0  0  0  0  0  0
   -2.4479    4.1092   33.1271 C   0  0  1  0  0  0  0  0  0  0  0  0
   -1.0930    4.0398   33.6665 O   0  0  0  0  0  0  0  0  0  0  0  0
   -3.5339    3.8603   34.2686 C   0  0  2  0  0  0  0  0  0  0  0  0
   -4.8737    3.9322   33.6440 O   0  0  0  0  0  0  0  0  0  0  0  0
   -3.3220    4.9896   35.4269 C   0  0  1  0  0  0  0  0  0  0  0  0
   -3.4383    6.3653   34.8197 O   0  0  0  0  0  0  0  0  0  0  0  0
   -4.3846    4.7857   36.5574 C   0  0  0  0  0  0  0  0  0  0  0  0
   -4.2598    3.4601   37.2389 N   0  0  0  0  0  0  0  0  0  0  0  0
  1  3  1  0  0  0  0
  1  2  1  6  0  0  0
  3  4  1  6  0  0  0
  3  5  1  0  0  0  0
  5  6  1  1  0  0  0
  7  8  1  6  0  0  0
  7  5  1  0  0  0  0
  9 11  1  1  0  0  0
  9  7  1  0  0  0  0
 10  9  1  0  0  0  0
 10  1  1  0  0  0  0
 12 11  1  0  0  0  0
 13 14  1  1  0  0  0
 15 13  1  0  0  0  0
 16 17  1  1  0  0  0
 16 15  1  0  0  0  0
 18  2  1  6  0  0  0
 18 19  1  0  0  0  0
 18 16  1  0  0  0  0
 19 20  1  6  0  0  0
 19 21  1  0  0  0  0
 21 22  1  6  0  0  0
 21 13  1  0  0  0  0
 23 20  1  1  0  0  0
 23 29  1  0  0  0  0
 24 25  1  6  0  0  0
 24 26  1  0  0  0  0
 24 23  1  0  0  0  0
 26 27  1  6  0  0  0
 26 28  1  0  0  0  0
 28 30  1  6  0  0  0
 29 28  1  0  0  0  0
 30 31  1  0  0  0  0
 32 27  1  6  0  0  0
 32 40  1  0  0  0  0
 33 35  1  0  0  0  0
 33 32  1  0  0  0  0
 33 34  1  1  0  0  0
 35 36  1  1  0  0  0
 35 37  1  0  0  0  0
 37 38  1  6  0  0  0
 37 39  1  0  0  0  0
 39 41  1  1  0  0  0
 40 39  1  0  0  0  0
 41 42  1  0  0  0  0
M  END
>  <CHROM.1>
-67.69696070,63.49422064,-66.96859606,166.99107818,-176.17130754,-83.41816984
-52.24346683,-171.07328109,61.91637632,-3.45347068,9.25015749,36.80026982
3.00789383,1.36774880,-0.89797511

>  <Name>
lig.pdb

>  <RI>
0

>  <Rbt.Current_Directory>
/home/itssahil/PROJECTS/Mol_Feturizer/New_Systems/rnas/4wcr

>  <Rbt.Executable>
rbdock ($Id: //depot/dev/client3/rdock/2013.1/src/exe/rbdock.cxx#4 $)

>  <Rbt.Library>
libRbt.so (2013.1, Build901 2013/11/27)

>  <Rbt.Parameter_File>
/export/apps/rDock/src/rDock_2013.1_src/data/scripts/dock_solv.prm

>  <Rbt.Receptor>
prm/pocket_docking_4.prm

>  <SCORE>
0.843461

>  <SCORE.INTER>
5.43936

>  <SCORE.INTER.CONST>
1

>  <SCORE.INTER.POLAR>
0

>  <SCORE.INTER.ROT>
9

>  <SCORE.INTER.SOLV>
14.8598

>  <SCORE.INTER.VDW>
-10.927

>  <SCORE.INTER.norm>
0.129509

>  <SCORE.INTRA>
-4.5959

>  <SCORE.INTRA.DIHEDRAL>
-11.4202

>  <SCORE.INTRA.DIHEDRAL.0>
16.2863

>  <SCORE.INTRA.POLAR>
0

>  <SCORE.INTRA.POLAR.0>
0

>  <SCORE.INTRA.REPUL>
-0.313284

>  <SCORE.INTRA.REPUL.0>
0.314433

>  <SCORE.INTRA.SOLV>
0.620765

>  <SCORE.INTRA.SOLV.lig_0>
-103.824

>  <SCORE.INTRA.VDW>
2.37022

>  <SCORE.INTRA.VDW.0>
-5.30945

>  <SCORE.INTRA.norm>
-0.109426

>  <SCORE.RESTR>
0

>  <SCORE.RESTR.CAVITY>
0

>  <SCORE.RESTR.norm>
0

>  <SCORE.SYSTEM>
0

>  <SCORE.SYSTEM.CONST>
0

>  <SCORE.SYSTEM.DIHEDRAL>
0

>  <SCORE.SYSTEM.SOLV>
0

>  <SCORE.SYSTEM.norm>
0

>  <SCORE.heavy>
42

>  <SCORE.norm>
0.0200824

>  <RMSD>
6.267

$$$$
lig.pdb
 OpenBabel11021811513D
libRbt.so/2013.1/901 2013/11/27
 42 45  0  0  0  0  0  0  0  0999 V2000
    1.5097   15.4765   37.8049 C   0  0  2  0  0  0  0  0  0  0  0  0
    0.5192   15.2825   38.8625 O   0  0  0  0  0  0  0  0  0  0  0  0
    0.7579   16.2469   36.6296 C   0  0  2  0  0  0  0  0  0  0  0  0
    0.2949   17.5573   37.0946 N   0  0  0  0  0  0  0  0  0  0  0  0
   -0.4496   15.3296   36.1000 C   0  0  1  0  0  0  0  0  0  0  0  0
   -1.1608   15.9757   35.0233 O   0  0  0  0  0  0  0  0  0  0  0  0
    0.1599   13.9899   35.6525 C   0  0  2  0  0  0  0  0  0  0  0  0
   -0.8574   13.1689   35.1892 O   0  0  0  0  0  0  0  0  0  0  0  0
    0.9306   13.3084   36.8731 C   0  0  2  0  0  0  0  0  0  0  0  0
    1.9840   14.1501   37.3584 O   0  0  0  0  0  0  0  0  0  0  0  0
    1.5622   12.0023   36.4825 C   0  0  0  0  0  0  0  0  0  0  0  0
    0.5095   11.0923   36.1608 O   0  0  0  0  0  0  0  0  0  0  0  0
    3.0497   13.6271   42.1227 C   0  0  2  0  0  0  0  0  0  0  0  0
    3.4908   13.2173   43.4381 N   0  0  0  0  0  0  0  0  0  0  0  0
    2.6448   15.1518   42.1352 C   0  0  0  0  0  0  0  0  0  0  0  0
    2.1578   15.6207   40.7190 C   0  0  2  0  0  0  0  0  0  0  0  0
    1.7864   17.0330   40.7755 N   0  0  0  0  0  0  0  0  0  0  0  0
    0.9068   14.7831   40.1976 C   0  0  2  0  0  0  0  0  0  0  0  0
    1.3333   13.2871   40.1551 C   0  0  2  0  0  0  0  0  0  0  0  0
    0.1050   12.5701   39.6454 O   0  0  0  0  0  0  0  0  0  0  0  0
    1.7731   12.7892   41.6404 C   0  0  1  0  0  0  0  0  0  0  0  0
    2.2484   11.4068   41.7127 O   0  0  0  0  0  0  0  0  0  0  0  0
    0.2120   11.2145   39.8135 C   0  0  1  0  0  0  0  0  0  0  0  0
   -1.0013   10.4886   39.4238 C   0  0  2  0  0  0  0  0  0  0  0  0
   -1.9640   10.7350   40.3981 O   0  0  0  0  0  0  0  0  0  0  0  0
   -0.4466    9.0611   39.2295 C   0  0  2  0  0  0  0  0  0  0  0  0
   -1.1358    8.2135   40.1763 O   0  0  0  0  0  0  0  0  0  0  0  0
    1.0136    9.1743   39.5202 C   0  0  2  0  0  0  0  0  0  0  0  0
    1.1946   10.5525   39.0345 O   0  0  0  0  0  0  0  0  0  0  0  0
    1.8621    8.1738   38.6522 C   0  0  0  0  0  0  0  0  0  0  0  0
    3.2935    8.2255   38.9307 O   0  0  0  0  0  0  0  0  0  0  0  0
   -0.9704    6.7722   40.0145 C   0  0  2  0  0  0  0  0  0  0  0  0
   -2.0524    6.0229   40.9537 C   0  0  2  0  0  0  0  0  0  0  0  0
   -1.8481    6.4478   42.3765 N   0  0  0  0  0  0  0  0  0  0  0  0
   -1.8662    4.4372   40.7669 C   0  0  1  0  0  0  0  0  0  0  0  0
   -2.0780    4.1390   39.3535 O   0  0  0  0  0  0  0  0  0  0  0  0
   -0.3981    4.0174   41.2286 C   0  0  2  0  0  0  0  0  0  0  0  0
   -0.2662    4.3365   42.6676 O   0  0  0  0  0  0  0  0  0  0  0  0
    0.6762    4.8285   40.3067 C   0  0  1  0  0  0  0  0  0  0  0  0
    0.4390    6.3120   40.4400 O   0  0  0  0  0  0  0  0  0  0  0  0
    2.1307    4.4532   40.7450 C   0  0  0  0  0  0  0  0  0  0  0  0
    3.1783    5.1255   39.9156 N   0  0  0  0  0  0  0  0  0  0  0  0
  1  3  1  0  0  0  0
  1  2  1  1  0  0  0
  3  4  1  1  0  0  0
  3  5  1  0  0  0  0
  5  6  1  6  0  0  0
  7  8  1  1  0  0  0
  7  5  1  0  0  0  0
  9 11  1  6  0  0  0
  9  7  1  0  0  0  0
 10  9  1  0  0  0  0
 10  1  1  0  0  0  0
 12 11  1  0  0  0  0
 13 14  1  1  0  0  0
 15 13  1  0  0  0  0
 16 17  1  1  0  0  0
 16 15  1  0  0  0  0
 18  2  1  6  0  0  0
 18 19  1  0  0  0  0
 18 16  1  0  0  0  0
 19 20  1  1  0  0  0
 19 21  1  0  0  0  0
 21 22  1  6  0  0  0
 21 13  1  0  0  0  0
 23 20  1  6  0  0  0
 23 29  1  0  0  0  0
 24 25  1  1  0  0  0
 24 26  1  0  0  0  0
 24 23  1  0  0  0  0
 26 27  1  1  0  0  0
 26 28  1  0  0  0  0
 28 30  1  6  0  0  0
 29 28  1  0  0  0  0
 30 31  1  0  0  0  0
 32 27  1  1  0  0  0
 32 40  1  0  0  0  0
 33 35  1  0  0  0  0
 33 32  1  0  0  0  0
 33 34  1  1  0  0  0
 35 36  1  6  0  0  0
 35 37  1  0  0  0  0
 37 38  1  1  0  0  0
 37 39  1  0  0  0  0
 39 41  1  1  0  0  0
 40 39  1  0  0  0  0
 41 42  1  0  0  0  0
M  END
>  <CHROM.1>
-170.56935580,-65.27048180,48.62137508,-167.14709210,175.69174687,168.62925082
-178.43044288,-168.11577046,178.18805868,0.58908689,10.82587349,39.39851087
1.35017297,-1.06750687,-0.45038175

>  <Name>
lig.pdb

>  <RI>
0

>  <Rbt.Current_Directory>
/home/itssahil/PROJECTS/Mol_Feturizer/New_Systems/rnas/4wcr

>  <Rbt.Executable>
rbdock ($Id: //depot/dev/client3/rdock/2013.1/src/exe/rbdock.cxx#4 $)

>  <Rbt.Library>
libRbt.so (2013.1, Build901 2013/11/27)

>  <Rbt.Parameter_File>
/export/apps/rDock/src/rDock_2013.1_src/data/scripts/dock_solv.prm

>  <Rbt.Receptor>
prm/pocket_docking_8.prm

>  <SCORE>
-6.86957

>  <SCORE.INTER>
1.79406

>  <SCORE.INTER.CONST>
1

>  <SCORE.INTER.POLAR>
0

>  <SCORE.INTER.ROT>
9

>  <SCORE.INTER.SOLV>
12.7968

>  <SCORE.INTER.VDW>
-12.6696

>  <SCORE.INTER.norm>
0.0427157

>  <SCORE.INTRA>
-8.66363

>  <SCORE.INTRA.DIHEDRAL>
-12.4257

>  <SCORE.INTRA.DIHEDRAL.0>
16.2863

>  <SCORE.INTRA.POLAR>
0

>  <SCORE.INTRA.POLAR.0>
0

>  <SCORE.INTRA.REPUL>
-0.314433

>  <SCORE.INTRA.REPUL.0>
0.314433

>  <SCORE.INTRA.SOLV>
-1.78036

>  <SCORE.INTRA.SOLV.lig_0>
-103.824

>  <SCORE.INTRA.VDW>
0.0115509

>  <SCORE.INTRA.VDW.0>
-5.30945

>  <SCORE.INTRA.norm>
-0.206277

>  <SCORE.RESTR>
0

>  <SCORE.RESTR.CAVITY>
0

>  <SCORE.RESTR.norm>
0

>  <SCORE.SYSTEM>
0

>  <SCORE.SYSTEM.CONST>
0

>  <SCORE.SYSTEM.DIHEDRAL>
0

>  <SCORE.SYSTEM.SOLV>
0

>  <SCORE.SYSTEM.norm>
0

>  <SCORE.heavy>
42

>  <SCORE.norm>
-0.163561

>  <RMSD>
6.271

$$$$
lig.pdb
 OpenBabel11021811513D
libRbt.so/2013.1/901 2013/11/27
 42 45  0  0  0  0  0  0  0  0999 V2000
   -0.9547   12.2784   41.9350 C   0  0  2  0  0  0  0  0  0  0  0  0
   -0.5803   12.6982   40.5857 O   0  0  0  0  0  0  0  0  0  0  0  0
    0.3615   11.6610   42.5881 C   0  0  2  0  0  0  0  0  0  0  0  0
    1.4101   12.6806   42.6805 N   0  0  0  0  0  0  0  0  0  0  0  0
    0.8237   10.3922   41.7184 C   0  0  1  0  0  0  0  0  0  0  0  0
    2.0094    9.7847   42.2731 O   0  0  0  0  0  0  0  0  0  0  0  0
   -0.3570    9.4065   41.6896 C   0  0  2  0  0  0  0  0  0  0  0  0
    0.0066    8.2956   40.9431 O   0  0  0  0  0  0  0  0  0  0  0  0
   -1.6430   10.1166   41.0648 C   0  0  2  0  0  0  0  0  0  0  0  0
   -2.0260   11.2660   41.8301 O   0  0  0  0  0  0  0  0  0  0  0  0
   -2.8328    9.1998   41.0314 C   0  0  0  0  0  0  0  0  0  0  0  0
   -3.9214    9.9251   40.4581 O   0  0  0  0  0  0  0  0  0  0  0  0
    0.5096   16.6841   38.9434 C   0  0  2  0  0  0  0  0  0  0  0  0
    1.1892   17.9476   38.7566 N   0  0  0  0  0  0  0  0  0  0  0  0
   -0.0034   16.5568   40.4298 C   0  0  0  0  0  0  0  0  0  0  0  0
   -0.7413   15.1912   40.6598 C   0  0  2  0  0  0  0  0  0  0  0  0
   -1.1932   15.1103   42.0473 N   0  0  0  0  0  0  0  0  0  0  0  0
    0.1907   13.9364   40.3512 C   0  0  2  0  0  0  0  0  0  0  0  0
    0.6580   14.0563   38.8717 C   0  0  2  0  0  0  0  0  0  0  0  0
    1.5205   12.8341   38.6596 O   0  0  0  0  0  0  0  0  0  0  0  0
    1.4806   15.4435   38.6564 C   0  0  1  0  0  0  0  0  0  0  0  0
    1.9243   15.6917   37.2839 O   0  0  0  0  0  0  0  0  0  0  0  0
    0.7610   11.7304   38.3728 C   0  0  1  0  0  0  0  0  0  0  0  0
    0.1278   11.7949   37.0514 C   0  0  2  0  0  0  0  0  0  0  0  0
   -0.9001   12.7299   37.1283 O   0  0  0  0  0  0  0  0  0  0  0  0
   -0.1987   10.3067   36.8029 C   0  0  2  0  0  0  0  0  0  0  0  0
   -1.6348   10.2119   36.6673 O   0  0  0  0  0  0  0  0  0  0  0  0
    0.3099    9.5953   38.0133 C   0  0  2  0  0  0  0  0  0  0  0  0
    1.4447   10.4907   38.2933 O   0  0  0  0  0  0  0  0  0  0  0  0
    0.8268    8.1503   37.6684 C   0  0  0  0  0  0  0  0  0  0  0  0
    1.4931    7.4852   38.7832 O   0  0  0  0  0  0  0  0  0  0  0  0
   -2.1877    8.8851   36.4126 C   0  0  2  0  0  0  0  0  0  0  0  0
   -3.7087    9.0546   35.8909 C   0  0  2  0  0  0  0  0  0  0  0  0
   -4.5034    9.7975   36.9220 N   0  0  0  0  0  0  0  0  0  0  0  0
   -4.3087    7.5901   35.6094 C   0  0  1  0  0  0  0  0  0  0  0  0
   -3.4590    6.9591   34.6037 O   0  0  0  0  0  0  0  0  0  0  0  0
   -4.3148    6.7496   36.9651 C   0  0  2  0  0  0  0  0  0  0  0  0
   -5.2042    7.4418   37.9243 O   0  0  0  0  0  0  0  0  0  0  0  0
   -2.7783    6.6408   37.5028 C   0  0  1  0  0  0  0  0  0  0  0  0
   -2.2094    8.0247   37.6925 O   0  0  0  0  0  0  0  0  0  0  0  0
   -2.7488    5.8354   38.8441 C   0  0  0  0  0  0  0  0  0  0  0  0
   -1.3595    5.5560   39.3227 N   0  0  0  0  0  0  0  0  0  0  0  0
  1  3  1  0  0  0  0
  1  2  1  6  0  0  0
  3  4  1  6  0  0  0
  3  5  1  0  0  0  0
  5  6  1  1  0  0  0
  7  8  1  6  0  0  0
  7  5  1  0  0  0  0
  9 11  1  1  0  0  0
  9  7  1  0  0  0  0
 10  9  1  0  0  0  0
 10  1  1  0  0  0  0
 12 11  1  0  0  0  0
 13 14  1  1  0  0  0
 15 13  1  0  0  0  0
 16 17  1  1  0  0  0
 16 15  1  0  0  0  0
 18  2  1  6  0  0  0
 18 19  1  0  0  0  0
 18 16  1  0  0  0  0
 19 20  1  1  0  0  0
 19 21  1  0  0  0  0
 21 22  1  6  0  0  0
 21 13  1  0  0  0  0
 23 20  1  6  0  0  0
 23 29  1  0  0  0  0
 24 25  1  1  0  0  0
 24 26  1  0  0  0  0
 24 23  1  0  0  0  0
 26 27  1  1  0  0  0
 26 28  1  0  0  0  0
 28 30  1  6  0  0  0
 29 28  1  0  0  0  0
 30 31  1  0  0  0  0
 32 27  1  1  0  0  0
 32 40  1  0  0  0  0
 33 35  1  0  0  0  0
 33 32  1  0  0  0  0
 33 34  1  1  0  0  0
 35 36  1  6  0  0  0
 35 37  1  0  0  0  0
 37 38  1  1  0  0  0
 37 39  1  0  0  0  0
 39 41  1  1  0  0  0
 40 39  1  0  0  0  0
 41 42  1  0  0  0  0
M  END
>  <CHROM.1>
-76.88579091,-179.94505462,-70.37495636,82.49682414,69.59145144,179.52203396
172.37370069,-164.34303591,173.42680692,-0.87308045,10.82552820,39.03883063
-0.42980273,1.09774810,2.37600737

>  <Name>
lig.pdb

>  <RI>
0

>  <Rbt.Current_Directory>
/home/itssahil/PROJECTS/Mol_Feturizer/New_Systems/rnas/4wcr

>  <Rbt.Executable>
rbdock ($Id: //depot/dev/client3/rdock/2013.1/src/exe/rbdock.cxx#4 $)

>  <Rbt.Library>
libRbt.so (2013.1, Build901 2013/11/27)

>  <Rbt.Parameter_File>
/export/apps/rDock/src/rDock_2013.1_src/data/scripts/dock_solv.prm

>  <Rbt.Receptor>
prm/pocket_docking_6.prm

>  <SCORE>
-0.469865

>  <SCORE.INTER>
5.98627

>  <SCORE.INTER.CONST>
1

>  <SCORE.INTER.POLAR>
0

>  <SCORE.INTER.ROT>
9

>  <SCORE.INTER.SOLV>
13.0446

>  <SCORE.INTER.VDW>
-9.95734

>  <SCORE.INTER.norm>
0.14253

>  <SCORE.INTRA>
-6.45614

>  <SCORE.INTRA.DIHEDRAL>
-9.73386

>  <SCORE.INTRA.DIHEDRAL.0>
16.2863

>  <SCORE.INTRA.POLAR>
0

>  <SCORE.INTRA.POLAR.0>
0

>  <SCORE.INTRA.REPUL>
-0.313593

>  <SCORE.INTRA.REPUL.0>
0.314433

>  <SCORE.INTRA.SOLV>
2.30239

>  <SCORE.INTRA.SOLV.lig_0>
-103.824

>  <SCORE.INTRA.VDW>
-1.17244

>  <SCORE.INTRA.VDW.0>
-5.30945

>  <SCORE.INTRA.norm>
-0.153718

>  <SCORE.RESTR>
0

>  <SCORE.RESTR.CAVITY>
0

>  <SCORE.RESTR.norm>
0

>  <SCORE.SYSTEM>
0

>  <SCORE.SYSTEM.CONST>
0

>  <SCORE.SYSTEM.DIHEDRAL>
0

>  <SCORE.SYSTEM.SOLV>
0

>  <SCORE.SYSTEM.norm>
0

>  <SCORE.heavy>
42

>  <SCORE.norm>
-0.0111873

>  <RMSD>
6.359

$$$$
lig.pdb
 OpenBabel11021811513D
libRbt.so/2013.1/901 2013/11/27
 42 45  0  0  0  0  0  0  0  0999 V2000
   -6.8058   14.5414   41.6678 C   0  0  2  0  0  0  0  0  0  0  0  0
   -6.8831   15.4075   40.4927 O   0  0  0  0  0  0  0  0  0  0  0  0
   -8.2021   14.6916   42.4215 C   0  0  2  0  0  0  0  0  0  0  0  0
   -9.2963   14.2316   41.5620 N   0  0  0  0  0  0  0  0  0  0  0  0
   -8.3852   16.2230   42.8697 C   0  0  1  0  0  0  0  0  0  0  0  0
   -9.6326   16.4152   43.5694 O   0  0  0  0  0  0  0  0  0  0  0  0
   -7.1789   16.5855   43.7528 C   0  0  2  0  0  0  0  0  0  0  0  0
   -7.3028   17.9061   44.1582 O   0  0  0  0  0  0  0  0  0  0  0  0
   -5.8234   16.3642   42.9392 C   0  0  2  0  0  0  0  0  0  0  0  0
   -5.6870   15.0018   42.5162 O   0  0  0  0  0  0  0  0  0  0  0  0
   -4.6108   16.6868   43.7655 C   0  0  0  0  0  0  0  0  0  0  0  0
   -3.4617   16.4994   42.9384 O   0  0  0  0  0  0  0  0  0  0  0  0
   -4.4875   15.5606   36.7496 C   0  0  2  0  0  0  0  0  0  0  0  0
   -3.4010   15.8204   35.8303 N   0  0  0  0  0  0  0  0  0  0  0  0
   -4.9350   16.8988   37.4551 C   0  0  0  0  0  0  0  0  0  0  0  0
   -6.1111   16.6431   38.4620 C   0  0  2  0  0  0  0  0  0  0  0  0
   -6.4898   17.9033   39.0977 N   0  0  0  0  0  0  0  0  0  0  0  0
   -5.7235   15.5938   39.5965 C   0  0  2  0  0  0  0  0  0  0  0  0
   -5.3208   14.2686   38.8872 C   0  0  2  0  0  0  0  0  0  0  0  0
   -4.9807   13.3332   40.0238 O   0  0  0  0  0  0  0  0  0  0  0  0
   -4.0574   14.5277   37.8951 C   0  0  1  0  0  0  0  0  0  0  0  0
   -3.6240   13.3583   37.1290 O   0  0  0  0  0  0  0  0  0  0  0  0
   -4.7253   12.0663   39.5687 C   0  0  1  0  0  0  0  0  0  0  0  0
   -4.1144   11.2022   40.5842 C   0  0  2  0  0  0  0  0  0  0  0  0
   -2.7985   11.6232   40.7511 O   0  0  0  0  0  0  0  0  0  0  0  0
   -4.4098    9.8027   40.0034 C   0  0  2  0  0  0  0  0  0  0  0  0
   -3.1312    9.1723   39.7636 O   0  0  0  0  0  0  0  0  0  0  0  0
   -5.1650   10.0628   38.7418 C   0  0  2  0  0  0  0  0  0  0  0  0
   -5.8477   11.2907   39.1823 O   0  0  0  0  0  0  0  0  0  0  0  0
   -6.2158    8.9304   38.4450 C   0  0  0  0  0  0  0  0  0  0  0  0
   -7.0240    9.1787   37.2558 O   0  0  0  0  0  0  0  0  0  0  0  0
   -3.1457    7.7447   39.4591 C   0  0  2  0  0  0  0  0  0  0  0  0
   -1.6213    7.2057   39.4536 C   0  0  2  0  0  0  0  0  0  0  0  0
   -0.8287    7.9796   38.4439 N   0  0  0  0  0  0  0  0  0  0  0  0
   -1.6464    5.6332   39.1213 C   0  0  1  0  0  0  0  0  0  0  0  0
   -2.4460    4.9838   40.1560 O   0  0  0  0  0  0  0  0  0  0  0  0
   -2.2831    5.4062   37.6765 C   0  0  2  0  0  0  0  0  0  0  0  0
   -1.4129    6.0786   36.6862 O   0  0  0  0  0  0  0  0  0  0  0  0
   -3.7992    6.0090   37.6887 C   0  0  1  0  0  0  0  0  0  0  0  0
   -3.7609    7.4671   38.0722 O   0  0  0  0  0  0  0  0  0  0  0  0
   -4.4496    5.8187   36.2782 C   0  0  0  0  0  0  0  0  0  0  0  0
   -3.7353    6.5745   35.2031 N   0  0  0  0  0  0  0  0  0  0  0  0
  1  3  1  0  0  0  0
  1  2  1  6  0  0  0
  3  4  1  6  0  0  0
  3  5  1  0  0  0  0
  5  6  1  1  0  0  0
  7  8  1  6  0  0  0
  7  5  1  0  0  0  0
  9 11  1  1  0  0  0
  9  7  1  0  0  0  0
 10  9  1  0  0  0  0
 10  1  1  0  0  0  0
 12 11  1  0  0  0  0
 13 14  1  6  0  0  0
 15 13  1  0  0  0  0
 16 17  1  1  0  0  0
 16 15  1  0  0  0  0
 18  2  1  1  0  0  0
 18 19  1  0  0  0  0
 18 16  1  0  0  0  0
 19 20  1  1  0  0  0
 19 21  1  0  0  0  0
 21 22  1  6  0  0  0
 21 13  1  0  0  0  0
 23 20  1  1  0  0  0
 23 29  1  0  0  0  0
 24 25  1  6  0  0  0
 24 26  1  0  0  0  0
 24 23  1  0  0  0  0
 26 27  1  6  0  0  0
 26 28  1  0  0  0  0
 28 30  1  1  0  0  0
 29 28  1  0  0  0  0
 30 31  1  0  0  0  0
 32 27  1  6  0  0  0
 32 40  1  0  0  0  0
 33 35  1  0  0  0  0
 33 32  1  0  0  0  0
 33 34  1  6  0  0  0
 35 36  1  1  0  0  0
 35 37  1  0  0  0  0
 37 38  1  6  0  0  0
 37 39  1  0  0  0  0
 39 41  1  6  0  0  0
 40 39  1  0  0  0  0
 41 42  1  0  0  0  0
M  END
>  <CHROM.1>
175.83654931,-178.15441809,-177.30781066,174.12944421,167.55421972,168.38396600
177.07907973,-171.41766874,-63.15640906,-4.87848615,12.10553676,39.69209565
2.56833134,1.15803031,-0.58485919

>  <Name>
lig.pdb

>  <RI>
0

>  <Rbt.Current_Directory>
/home/itssahil/PROJECTS/Mol_Feturizer/New_Systems/rnas/4wcr

>  <Rbt.Executable>
rbdock ($Id: //depot/dev/client3/rdock/2013.1/src/exe/rbdock.cxx#4 $)

>  <Rbt.Library>
libRbt.so (2013.1, Build901 2013/11/27)

>  <Rbt.Parameter_File>
/export/apps/rDock/src/rDock_2013.1_src/data/scripts/dock_solv.prm

>  <Rbt.Receptor>
prm/pocket_docking_8.prm

>  <SCORE>
-5.74104

>  <SCORE.INTER>
3.68699

>  <SCORE.INTER.CONST>
1

>  <SCORE.INTER.POLAR>
0

>  <SCORE.INTER.ROT>
9

>  <SCORE.INTER.SOLV>
13.266

>  <SCORE.INTER.VDW>
-11.564

>  <SCORE.INTER.norm>
0.0877854

>  <SCORE.INTRA>
-9.42803

>  <SCORE.INTRA.DIHEDRAL>
-13.6419

>  <SCORE.INTRA.DIHEDRAL.0>
16.2863

>  <SCORE.INTRA.POLAR>
0

>  <SCORE.INTRA.POLAR.0>
0

>  <SCORE.INTRA.REPUL>
-0.314433

>  <SCORE.INTRA.REPUL.0>
0.314433

>  <SCORE.INTRA.SOLV>
-4.36467

>  <SCORE.INTRA.SOLV.lig_0>
-103.824

>  <SCORE.INTRA.VDW>
1.14742

>  <SCORE.INTRA.VDW.0>
-5.30945

>  <SCORE.INTRA.norm>
-0.224477

>  <SCORE.RESTR>
0

>  <SCORE.RESTR.CAVITY>
0

>  <SCORE.RESTR.norm>
0

>  <SCORE.SYSTEM>
0

>  <SCORE.SYSTEM.CONST>
0

>  <SCORE.SYSTEM.DIHEDRAL>
0

>  <SCORE.SYSTEM.SOLV>
0

>  <SCORE.SYSTEM.norm>
0

>  <SCORE.heavy>
42

>  <SCORE.norm>
-0.136692

>  <RMSD>
6.416

$$$$
lig.pdb
 OpenBabel11021811513D
libRbt.so/2013.1/901 2013/11/27
 42 45  0  0  0  0  0  0  0  0999 V2000
   -5.8485   14.3667   37.2194 C   0  0  2  0  0  0  0  0  0  0  0  0
   -4.4736   14.3562   37.7163 O   0  0  0  0  0  0  0  0  0  0  0  0
   -6.7205   15.0839   38.3443 C   0  0  2  0  0  0  0  0  0  0  0  0
   -6.2715   16.4662   38.5321 N   0  0  0  0  0  0  0  0  0  0  0  0
   -6.6245   14.2253   39.6983 C   0  0  1  0  0  0  0  0  0  0  0  0
   -7.4076   14.8250   40.7518 O   0  0  0  0  0  0  0  0  0  0  0  0
   -7.1111   12.8033   39.3703 C   0  0  2  0  0  0  0  0  0  0  0  0
   -7.0400   12.0306   40.5198 O   0  0  0  0  0  0  0  0  0  0  0  0
   -6.2156   12.1770   38.2067 C   0  0  2  0  0  0  0  0  0  0  0  0
   -6.2831   12.9693   37.0145 O   0  0  0  0  0  0  0  0  0  0  0  0
   -6.6629   10.7918   37.8345 C   0  0  0  0  0  0  0  0  0  0  0  0
   -7.9382   10.9049   37.2017 O   0  0  0  0  0  0  0  0  0  0  0  0
   -2.3296   12.4650   34.3105 C   0  0  2  0  0  0  0  0  0  0  0  0
   -1.2632   12.0585   33.4214 N   0  0  0  0  0  0  0  0  0  0  0  0
   -2.3460   14.0356   34.4580 C   0  0  0  0  0  0  0  0  0  0  0  0
   -3.4925   14.5025   35.4223 C   0  0  2  0  0  0  0  0  0  0  0  0
   -3.4685   15.9592   35.5369 N   0  0  0  0  0  0  0  0  0  0  0  0
   -3.3566   13.8723   36.8793 C   0  0  2  0  0  0  0  0  0  0  0  0
   -3.3797   12.3244   36.7210 C   0  0  2  0  0  0  0  0  0  0  0  0
   -3.2574   11.8094   38.1361 O   0  0  0  0  0  0  0  0  0  0  0  0
   -2.1478   11.8413   35.7741 C   0  0  1  0  0  0  0  0  0  0  0  0
   -2.1006   10.4028   35.5084 O   0  0  0  0  0  0  0  0  0  0  0  0
   -3.0852   10.4503   38.1599 C   0  0  1  0  0  0  0  0  0  0  0  0
   -3.1493    9.8856   39.5120 C   0  0  2  0  0  0  0  0  0  0  0  0
   -1.9770   10.2467   40.1692 O   0  0  0  0  0  0  0  0  0  0  0  0
   -3.4354    8.4005   39.2028 C   0  0  2  0  0  0  0  0  0  0  0  0
   -2.3278    7.6420   39.7391 O   0  0  0  0  0  0  0  0  0  0  0  0
   -3.5115    8.3267   37.7133 C   0  0  2  0  0  0  0  0  0  0  0  0
   -4.0622    9.6733   37.4874 O   0  0  0  0  0  0  0  0  0  0  0  0
   -4.5334    7.2313   37.2334 C   0  0  0  0  0  0  0  0  0  0  0  0
   -4.5444    7.0342   35.7877 O   0  0  0  0  0  0  0  0  0  0  0  0
   -2.3499    6.1985   39.5229 C   0  0  2  0  0  0  0  0  0  0  0  0
   -1.2333    5.5199   40.4752 C   0  0  2  0  0  0  0  0  0  0  0  0
    0.1085    6.1073   40.1572 N   0  0  0  0  0  0  0  0  0  0  0  0
   -1.2667    3.9309   40.2340 C   0  0  1  0  0  0  0  0  0  0  0  0
   -2.6121    3.4701   40.5646 O   0  0  0  0  0  0  0  0  0  0  0  0
   -0.9106    3.6179   38.7110 C   0  0  2  0  0  0  0  0  0  0  0  0
    0.4659    4.0994   38.4584 O   0  0  0  0  0  0  0  0  0  0  0  0
   -2.0160    4.3596   37.7676 C   0  0  1  0  0  0  0  0  0  0  0  0
   -2.0194    5.8392   38.0598 O   0  0  0  0  0  0  0  0  0  0  0  0
   -1.6864    4.0877   36.2623 C   0  0  0  0  0  0  0  0  0  0  0  0
   -2.7383    4.6079   35.3348 N   0  0  0  0  0  0  0  0  0  0  0  0
  1  3  1  0  0  0  0
  1  2  1  1  0  0  0
  3  4  1  1  0  0  0
  3  5  1  0  0  0  0
  5  6  1  1  0  0  0
  7  8  1  1  0  0  0
  7  5  1  0  0  0  0
  9 11  1  6  0  0  0
  9  7  1  0  0  0  0
 10  9  1  0  0  0  0
 10  1  1  0  0  0  0
 12 11  1  0  0  0  0
 13 14  1  6  0  0  0
 15 13  1  0  0  0  0
 16 17  1  1  0  0  0
 16 15  1  0  0  0  0
 18  2  1  1  0  0  0
 18 19  1  0  0  0  0
 18 16  1  0  0  0  0
 19 20  1  1  0  0  0
 19 21  1  0  0  0  0
 21 22  1  6  0  0  0
 21 13  1  0  0  0  0
 23 20  1  1  0  0  0
 23 29  1  0  0  0  0
 24 25  1  6  0  0  0
 24 26  1  0  0  0  0
 24 23  1  0  0  0  0
 26 27  1  6  0  0  0
 26 28  1  0  0  0  0
 28 30  1  1  0  0  0
 29 28  1  0  0  0  0
 30 31  1  0  0  0  0
 32 27  1  6  0  0  0
 32 40  1  0  0  0  0
 33 35  1  0  0  0  0
 33 32  1  0  0  0  0
 33 34  1  6  0  0  0
 35 36  1  6  0  0  0
 35 37  1  0  0  0  0
 37 38  1  6  0  0  0
 37 39  1  0  0  0  0
 39 41  1  6  0  0  0
 40 39  1  0  0  0  0
 41 42  1  0  0  0  0
M  END
>  <CHROM.1>
-174.49423873,68.58077209,45.83333847,-172.01083074,-171.96647867,-177.79887770
-174.35058879,-167.07577480,173.68541646,-3.65101793,10.00046016,37.85374753
2.15865938,0.82722900,-0.56890783

>  <Name>
lig.pdb

>  <RI>
0

>  <Rbt.Current_Directory>
/home/itssahil/PROJECTS/Mol_Feturizer/New_Systems/rnas/4wcr

>  <Rbt.Executable>
rbdock ($Id: //depot/dev/client3/rdock/2013.1/src/exe/rbdock.cxx#4 $)

>  <Rbt.Library>
libRbt.so (2013.1, Build901 2013/11/27)

>  <Rbt.Parameter_File>
/export/apps/rDock/src/rDock_2013.1_src/data/scripts/dock_solv.prm

>  <Rbt.Receptor>
prm/pocket_docking_4.prm

>  <SCORE>
-3.90926

>  <SCORE.INTER>
4.61927

>  <SCORE.INTER.CONST>
1

>  <SCORE.INTER.POLAR>
0

>  <SCORE.INTER.ROT>
9

>  <SCORE.INTER.SOLV>
12.4037

>  <SCORE.INTER.VDW>
-10.6551

>  <SCORE.INTER.norm>
0.109983

>  <SCORE.INTRA>
-8.52853

>  <SCORE.INTRA.DIHEDRAL>
-12.719

>  <SCORE.INTRA.DIHEDRAL.0>
16.2863

>  <SCORE.INTRA.POLAR>
0

>  <SCORE.INTRA.POLAR.0>
0

>  <SCORE.INTRA.REPUL>
-0.314433

>  <SCORE.INTRA.REPUL.0>
0.314433

>  <SCORE.INTRA.SOLV>
-2.42311

>  <SCORE.INTRA.SOLV.lig_0>
-103.824

>  <SCORE.INTRA.VDW>
0.614677

>  <SCORE.INTRA.VDW.0>
-5.30945

>  <SCORE.INTRA.norm>
-0.20306

>  <SCORE.RESTR>
0

>  <SCORE.RESTR.CAVITY>
0

>  <SCORE.RESTR.norm>
0

>  <SCORE.SYSTEM>
0

>  <SCORE.SYSTEM.CONST>
0

>  <SCORE.SYSTEM.DIHEDRAL>
0

>  <SCORE.SYSTEM.SOLV>
0

>  <SCORE.SYSTEM.norm>
0

>  <SCORE.heavy>
42

>  <SCORE.norm>
-0.0930775

>  <RMSD>
6.459

$$$$
lig.pdb
 OpenBabel11021811513D
libRbt.so/2013.1/901 2013/11/27
 42 45  0  0  0  0  0  0  0  0999 V2000
   -1.6451   21.0069   33.4392 C   0  0  2  0  0  0  0  0  0  0  0  0
   -3.0632   21.1409   33.1104 O   0  0  0  0  0  0  0  0  0  0  0  0
   -1.2789   22.2672   34.3433 C   0  0  2  0  0  0  0  0  0  0  0  0
   -2.0592   22.2475   35.5837 N   0  0  0  0  0  0  0  0  0  0  0  0
   -1.5286   23.6051   33.4905 C   0  0  1  0  0  0  0  0  0  0  0  0
   -1.2011   24.7815   34.2595 O   0  0  0  0  0  0  0  0  0  0  0  0
   -0.6676   23.5014   32.2199 C   0  0  2  0  0  0  0  0  0  0  0  0
   -0.8599   24.6427   31.4556 O   0  0  0  0  0  0  0  0  0  0  0  0
   -1.0662   22.1919   31.3984 C   0  0  2  0  0  0  0  0  0  0  0  0
   -0.8705   21.0073   32.1807 O   0  0  0  0  0  0  0  0  0  0  0  0
   -0.2390   22.0333   30.1543 C   0  0  0  0  0  0  0  0  0  0  0  0
    1.1236   21.8877   30.5568 O   0  0  0  0  0  0  0  0  0  0  0  0
   -5.9958   18.2565   31.4212 C   0  0  2  0  0  0  0  0  0  0  0  0
   -6.7151   17.4341   30.4730 N   0  0  0  0  0  0  0  0  0  0  0  0
   -6.0172   19.7649   30.9594 C   0  0  0  0  0  0  0  0  0  0  0  0
   -5.2387   20.6784   31.9703 C   0  0  2  0  0  0  0  0  0  0  0  0
   -5.2762   22.0626   31.5032 N   0  0  0  0  0  0  0  0  0  0  0  0
   -3.7174   20.2373   32.1419 C   0  0  2  0  0  0  0  0  0  0  0  0
   -3.7134   18.7608   32.6333 C   0  0  2  0  0  0  0  0  0  0  0  0
   -2.2471   18.4270   32.7790 O   0  0  0  0  0  0  0  0  0  0  0  0
   -4.4636   17.8087   31.5478 C   0  0  1  0  0  0  0  0  0  0  0  0
   -4.5696   16.4001   31.9310 O   0  0  0  0  0  0  0  0  0  0  0  0
   -1.9460   18.0477   34.0607 C   0  0  1  0  0  0  0  0  0  0  0  0
   -2.2669   16.6433   34.3358 C   0  0  2  0  0  0  0  0  0  0  0  0
   -3.6524   16.5419   34.4181 O   0  0  0  0  0  0  0  0  0  0  0  0
   -1.3975   16.3765   35.5833 C   0  0  2  0  0  0  0  0  0  0  0  0
   -2.3019   16.0221   36.6538 O   0  0  0  0  0  0  0  0  0  0  0  0
   -0.6865   17.6647   35.8378 C   0  0  2  0  0  0  0  0  0  0  0  0
   -0.5794   18.0993   34.4351 O   0  0  0  0  0  0  0  0  0  0  0  0
    0.7445   17.4322   36.4482 C   0  0  0  0  0  0  0  0  0  0  0  0
    0.7274   16.7463   37.7360 O   0  0  0  0  0  0  0  0  0  0  0  0
   -3.0013   14.7465   36.5324 C   0  0  2  0  0  0  0  0  0  0  0  0
   -3.9935   14.5826   37.7984 C   0  0  2  0  0  0  0  0  0  0  0  0
   -3.1940   14.6578   39.0640 N   0  0  0  0  0  0  0  0  0  0  0  0
   -4.7620   13.1780   37.6550 C   0  0  1  0  0  0  0  0  0  0  0  0
   -5.4959   13.2117   36.3933 O   0  0  0  0  0  0  0  0  0  0  0  0
   -3.6997   11.9881   37.6698 C   0  0  2  0  0  0  0  0  0  0  0  0
   -3.0102   12.0114   38.9791 O   0  0  0  0  0  0  0  0  0  0  0  0
   -2.6750   12.2058   36.4190 C   0  0  1  0  0  0  0  0  0  0  0  0
   -2.0176   13.5584   36.5330 O   0  0  0  0  0  0  0  0  0  0  0  0
   -1.6059   11.0632   36.4131 C   0  0  0  0  0  0  0  0  0  0  0  0
   -0.5787   11.2351   35.3395 N   0  0  0  0  0  0  0  0  0  0  0  0
  1  3  1  0  0  0  0
  1  2  1  6  0  0  0
  3  4  1  1  0  0  0
  3  5  1  0  0  0  0
  5  6  1  1  0  0  0
  7  8  1  6  0  0  0
  7  5  1  0  0  0  0
  9 11  1  6  0  0  0
  9  7  1  0  0  0  0
 10  9  1  0  0  0  0
 10  1  1  0  0  0  0
 12 11  1  0  0  0  0
 13 14  1  6  0  0  0
 15 13  1  0  0  0  0
 16 17  1  6  0  0  0
 16 15  1  0  0  0  0
 18  2  1  1  0  0  0
 18 19  1  0  0  0  0
 18 16  1  0  0  0  0
 19 20  1  6  0  0  0
 19 21  1  0  0  0  0
 21 22  1  1  0  0  0
 21 13  1  0  0  0  0
 23 20  1  6  0  0  0
 23 29  1  0  0  0  0
 24 25  1  1  0  0  0
 24 26  1  0  0  0  0
 24 23  1  0  0  0  0
 26 27  1  1  0  0  0
 26 28  1  0  0  0  0
 28 30  1  6  0  0  0
 29 28  1  0  0  0  0
 30 31  1  0  0  0  0
 32 27  1  1  0  0  0
 32 40  1  0  0  0  0
 33 35  1  0  0  0  0
 33 32  1  0  0  0  0
 33 34  1  1  0  0  0
 35 36  1  6  0  0  0
 35 37  1  0  0  0  0
 37 38  1  1  0  0  0
 37 39  1  0  0  0  0
 39 41  1  1  0  0  0
 40 39  1  0  0  0  0
 41 42  1  0  0  0  0
M  END
>  <CHROM.1>
172.29916886,62.11473594,-178.01277864,121.36203860,81.55765726,68.24665464
-61.18013302,-177.81194239,-176.69334020,-2.50619379,18.00898771,34.24166807
-1.46301083,0.59349169,2.58601393

>  <Name>
lig.pdb

>  <RI>
0

>  <Rbt.Current_Directory>
/home/itssahil/PROJECTS/Mol_Feturizer/New_Systems/rnas/4wcr

>  <Rbt.Executable>
rbdock ($Id: //depot/dev/client3/rdock/2013.1/src/exe/rbdock.cxx#4 $)

>  <Rbt.Library>
libRbt.so (2013.1, Build901 2013/11/27)

>  <Rbt.Parameter_File>
/export/apps/rDock/src/rDock_2013.1_src/data/scripts/dock_solv.prm

>  <Rbt.Receptor>
prm/pocket_docking_8.prm

>  <SCORE>
-16.8932

>  <SCORE.INTER>
-11.6275

>  <SCORE.INTER.CONST>
1

>  <SCORE.INTER.POLAR>
0

>  <SCORE.INTER.ROT>
9

>  <SCORE.INTER.SOLV>
20.5873

>  <SCORE.INTER.VDW>
-24.2141

>  <SCORE.INTER.norm>
-0.276846

>  <SCORE.INTRA>
-5.26566

>  <SCORE.INTRA.DIHEDRAL>
-5.79054

>  <SCORE.INTRA.DIHEDRAL.0>
16.2863

>  <SCORE.INTRA.POLAR>
0

>  <SCORE.INTRA.POLAR.0>
0

>  <SCORE.INTRA.REPUL>
-0.314433

>  <SCORE.INTRA.REPUL.0>
0.314433

>  <SCORE.INTRA.SOLV>
-5.01705

>  <SCORE.INTRA.SOLV.lig_0>
-103.824

>  <SCORE.INTRA.VDW>
1.7103

>  <SCORE.INTRA.VDW.0>
-5.30945

>  <SCORE.INTRA.norm>
-0.125373

>  <SCORE.RESTR>
0

>  <SCORE.RESTR.CAVITY>
0

>  <SCORE.RESTR.norm>
0

>  <SCORE.SYSTEM>
0

>  <SCORE.SYSTEM.CONST>
0

>  <SCORE.SYSTEM.DIHEDRAL>
0

>  <SCORE.SYSTEM.SOLV>
0

>  <SCORE.SYSTEM.norm>
0

>  <SCORE.heavy>
42

>  <SCORE.norm>
-0.402219

>  <RMSD>
6.547

$$$$
lig.pdb
 OpenBabel11021811513D
libRbt.so/2013.1/901 2013/11/27
 42 45  0  0  0  0  0  0  0  0999 V2000
   -4.0523   10.5587   40.8264 C   0  0  2  0  0  0  0  0  0  0  0  0
   -3.0310   11.4013   40.2066 O   0  0  0  0  0  0  0  0  0  0  0  0
   -3.2919    9.2677   41.3694 C   0  0  2  0  0  0  0  0  0  0  0  0
   -2.3067    9.6473   42.3858 N   0  0  0  0  0  0  0  0  0  0  0  0
   -2.6186    8.5038   40.1273 C   0  0  1  0  0  0  0  0  0  0  0  0
   -1.9233    7.3160   40.5613 O   0  0  0  0  0  0  0  0  0  0  0  0
   -3.7453    8.1695   39.1346 C   0  0  2  0  0  0  0  0  0  0  0  0
   -3.1987    7.5086   38.0446 O   0  0  0  0  0  0  0  0  0  0  0  0
   -4.4824    9.5096   38.6773 C   0  0  2  0  0  0  0  0  0  0  0  0
   -5.0504   10.1993   39.7977 O   0  0  0  0  0  0  0  0  0  0  0  0
   -5.6068    9.2357   37.7192 C   0  0  0  0  0  0  0  0  0  0  0  0
   -6.5818    8.4529   38.4093 O   0  0  0  0  0  0  0  0  0  0  0  0
   -5.4444   14.8603   38.7982 C   0  0  2  0  0  0  0  0  0  0  0  0
   -5.8046   16.1981   38.3818 N   0  0  0  0  0  0  0  0  0  0  0  0
   -4.7697   14.8974   40.2238 C   0  0  0  0  0  0  0  0  0  0  0  0
   -4.3651   13.4570   40.6971 C   0  0  2  0  0  0  0  0  0  0  0  0
   -3.7387   13.5362   42.0151 N   0  0  0  0  0  0  0  0  0  0  0  0
   -3.3531   12.7478   39.6914 C   0  0  2  0  0  0  0  0  0  0  0  0
   -4.0469   12.6851   38.2999 C   0  0  2  0  0  0  0  0  0  0  0  0
   -3.0337   11.9962   37.4159 O   0  0  0  0  0  0  0  0  0  0  0  0
   -4.4031   14.1869   37.7851 C   0  0  1  0  0  0  0  0  0  0  0  0
   -5.1112   14.2493   36.5057 O   0  0  0  0  0  0  0  0  0  0  0  0
   -3.5004   11.8578   36.1352 C   0  0  1  0  0  0  0  0  0  0  0  0
   -2.6942   10.9387   35.3250 C   0  0  2  0  0  0  0  0  0  0  0  0
   -1.4966   11.5841   35.0321 O   0  0  0  0  0  0  0  0  0  0  0  0
   -3.6830   10.5935   34.1908 C   0  0  2  0  0  0  0  0  0  0  0  0
   -3.0741   11.0374   32.9572 O   0  0  0  0  0  0  0  0  0  0  0  0
   -4.9256   11.3528   34.5212 C   0  0  2  0  0  0  0  0  0  0  0  0
   -4.7945   11.2974   35.9866 O   0  0  0  0  0  0  0  0  0  0  0  0
   -6.2195   10.5866   34.0594 C   0  0  0  0  0  0  0  0  0  0  0  0
   -6.4631    9.3514   34.7971 O   0  0  0  0  0  0  0  0  0  0  0  0
   -2.1717   10.1021   32.2924 C   0  0  2  0  0  0  0  0  0  0  0  0
   -3.0170    8.7938   31.8588 C   0  0  2  0  0  0  0  0  0  0  0  0
   -3.6449    8.1868   33.0770 N   0  0  0  0  0  0  0  0  0  0  0  0
   -2.0175    7.7712   31.1245 C   0  0  1  0  0  0  0  0  0  0  0  0
   -1.4616    8.4645   29.9661 O   0  0  0  0  0  0  0  0  0  0  0  0
   -0.8666    7.3338   32.1388 C   0  0  2  0  0  0  0  0  0  0  0  0
   -1.5048    6.6292   33.2730 O   0  0  0  0  0  0  0  0  0  0  0  0
   -0.0647    8.6753   32.6069 C   0  0  1  0  0  0  0  0  0  0  0  0
   -1.0315    9.6519   33.2285 O   0  0  0  0  0  0  0  0  0  0  0  0
    1.0633    8.2847   33.6186 C   0  0  0  0  0  0  0  0  0  0  0  0
    0.5275    7.7146   34.8934 N   0  0  0  0  0  0  0  0  0  0  0  0
  1  3  1  0  0  0  0
  1  2  1  6  0  0  0
  3  4  1  1  0  0  0
  3  5  1  0  0  0  0
  5  6  1  1  0  0  0
  7  8  1  6  0  0  0
  7  5  1  0  0  0  0
  9 11  1  6  0  0  0
  9  7  1  0  0  0  0
 10  9  1  0  0  0  0
 10  1  1  0  0  0  0
 12 11  1  0  0  0  0
 13 14  1  6  0  0  0
 15 13  1  0  0  0  0
 16 17  1  1  0  0  0
 16 15  1  0  0  0  0
 18  2  1  1  0  0  0
 18 19  1  0  0  0  0
 18 16  1  0  0  0  0
 19 20  1  6  0  0  0
 19 21  1  0  0  0  0
 21 22  1  6  0  0  0
 21 13  1  0  0  0  0
 23 20  1  1  0  0  0
 23 29  1  0  0  0  0
 24 25  1  6  0  0  0
 24 26  1  0  0  0  0
 24 23  1  0  0  0  0
 26 27  1  6  0  0  0
 26 28  1  0  0  0  0
 28 30  1  1  0  0  0
 29 28  1  0  0  0  0
 30 31  1  0  0  0  0
 32 27  1  1  0  0  0
 32 40  1  0  0  0  0
 33 35  1  0  0  0  0
 33 32  1  0  0  0  0
 33 34  1  1  0  0  0
 35 36  1  6  0  0  0
 35 37  1  0  0  0  0
 37 38  1  1  0  0  0
 37 39  1  0  0  0  0
 39 41  1  1  0  0  0
 40 39  1  0  0  0  0
 41 42  1  0  0  0  0
M  END
>  <CHROM.1>
-174.67497804,63.30006651,39.44056011,179.84535677,-166.99697174,86.74105688
67.24355309,63.03796925,-64.44226099,-3.36146147,10.41897446,36.60131537
-2.25831019,1.09484797,-1.38546592

>  <Name>
lig.pdb

>  <RI>
0

>  <Rbt.Current_Directory>
/home/itssahil/PROJECTS/Mol_Feturizer/New_Systems/rnas/4wcr

>  <Rbt.Executable>
rbdock ($Id: //depot/dev/client3/rdock/2013.1/src/exe/rbdock.cxx#4 $)

>  <Rbt.Library>
libRbt.so (2013.1, Build901 2013/11/27)

>  <Rbt.Parameter_File>
/export/apps/rDock/src/rDock_2013.1_src/data/scripts/dock_solv.prm

>  <Rbt.Receptor>
prm/pocket_docking_5.prm

>  <SCORE>
-0.558275

>  <SCORE.INTER>
4.24855

>  <SCORE.INTER.CONST>
1

>  <SCORE.INTER.POLAR>
0

>  <SCORE.INTER.ROT>
9

>  <SCORE.INTER.SOLV>
13.5308

>  <SCORE.INTER.VDW>
-11.2779

>  <SCORE.INTER.norm>
0.101156

>  <SCORE.INTRA>
-4.80921

>  <SCORE.INTRA.DIHEDRAL>
-9.71387

>  <SCORE.INTRA.DIHEDRAL.0>
16.2863

>  <SCORE.INTRA.POLAR>
0

>  <SCORE.INTRA.POLAR.0>
0

>  <SCORE.INTRA.REPUL>
-0.314433

>  <SCORE.INTRA.REPUL.0>
0.314433

>  <SCORE.INTRA.SOLV>
1.43641

>  <SCORE.INTRA.SOLV.lig_0>
-103.824

>  <SCORE.INTRA.VDW>
0.901684

>  <SCORE.INTRA.VDW.0>
-5.30945

>  <SCORE.INTRA.norm>
-0.114505

>  <SCORE.RESTR>
0.00238338

>  <SCORE.RESTR.CAVITY>
0.00238338

>  <SCORE.RESTR.norm>
5.6747e-05

>  <SCORE.SYSTEM>
0

>  <SCORE.SYSTEM.CONST>
0

>  <SCORE.SYSTEM.DIHEDRAL>
0

>  <SCORE.SYSTEM.SOLV>
0

>  <SCORE.SYSTEM.norm>
0

>  <SCORE.heavy>
42

>  <SCORE.norm>
-0.0132923

>  <RMSD>
6.552

$$$$
lig.pdb
 OpenBabel11021811513D
libRbt.so/2013.1/901 2013/11/27
 42 45  0  0  0  0  0  0  0  0999 V2000
   -4.3029   15.1730   44.2297 C   0  0  2  0  0  0  0  0  0  0  0  0
   -4.6381   14.6412   42.9099 O   0  0  0  0  0  0  0  0  0  0  0  0
   -3.0015   16.0705   44.0284 C   0  0  2  0  0  0  0  0  0  0  0  0
   -3.2885   17.1874   43.1240 N   0  0  0  0  0  0  0  0  0  0  0  0
   -1.8109   15.1398   43.4844 C   0  0  1  0  0  0  0  0  0  0  0  0
   -0.5999   15.9014   43.2940 O   0  0  0  0  0  0  0  0  0  0  0  0
   -1.6135   14.0093   44.5088 C   0  0  2  0  0  0  0  0  0  0  0  0
   -0.5908   13.1819   44.0695 O   0  0  0  0  0  0  0  0  0  0  0  0
   -2.9729   13.1907   44.6839 C   0  0  2  0  0  0  0  0  0  0  0  0
   -4.0357   14.0381   45.1378 O   0  0  0  0  0  0  0  0  0  0  0  0
   -2.8388   12.0838   45.6908 C   0  0  0  0  0  0  0  0  0  0  0  0
   -2.3843   12.6646   46.9138 O   0  0  0  0  0  0  0  0  0  0  0  0
   -6.8107   16.2804   39.3934 C   0  0  2  0  0  0  0  0  0  0  0  0
   -7.2256   17.1800   38.3392 N   0  0  0  0  0  0  0  0  0  0  0  0
   -6.9258   16.9950   40.7952 C   0  0  0  0  0  0  0  0  0  0  0  0
   -6.4766   16.0403   41.9568 C   0  0  2  0  0  0  0  0  0  0  0  0
   -6.5912   16.7412   43.2340 N   0  0  0  0  0  0  0  0  0  0  0  0
   -4.9756   15.5350   41.7832 C   0  0  2  0  0  0  0  0  0  0  0  0
   -4.8871   14.8003   40.4143 C   0  0  2  0  0  0  0  0  0  0  0  0
   -3.4477   14.3484   40.3333 O   0  0  0  0  0  0  0  0  0  0  0  0
   -5.2895   15.8157   39.2082 C   0  0  1  0  0  0  0  0  0  0  0  0
   -5.2953   15.2167   37.8728 O   0  0  0  0  0  0  0  0  0  0  0  0
   -3.2757   13.4009   39.3586 C   0  0  1  0  0  0  0  0  0  0  0  0
   -1.8811   12.9706   39.2138 C   0  0  2  0  0  0  0  0  0  0  0  0
   -1.1862   14.0114   38.6050 O   0  0  0  0  0  0  0  0  0  0  0  0
   -2.0578   11.6252   38.4778 C   0  0  2  0  0  0  0  0  0  0  0  0
   -1.3746   11.7506   37.2100 O   0  0  0  0  0  0  0  0  0  0  0  0
   -3.5340   11.4660   38.3190 C   0  0  2  0  0  0  0  0  0  0  0  0
   -3.9308   12.1589   39.5560 O   0  0  0  0  0  0  0  0  0  0  0  0
   -3.9689    9.9554   38.3758 C   0  0  0  0  0  0  0  0  0  0  0  0
   -5.4012    9.7509   38.1867 O   0  0  0  0  0  0  0  0  0  0  0  0
    0.0810   11.8521   37.2516 C   0  0  2  0  0  0  0  0  0  0  0  0
    0.6287   11.9983   35.7374 C   0  0  2  0  0  0  0  0  0  0  0  0
    0.1785   10.8156   34.9341 N   0  0  0  0  0  0  0  0  0  0  0  0
    2.2311   12.1132   35.7923 C   0  0  1  0  0  0  0  0  0  0  0  0
    2.5546   13.2855   36.6002 O   0  0  0  0  0  0  0  0  0  0  0  0
    2.8364   10.7861   36.4380 C   0  0  2  0  0  0  0  0  0  0  0  0
    2.4798    9.6502   35.5590 O   0  0  0  0  0  0  0  0  0  0  0  0
    2.2257   10.6286   37.9427 C   0  0  1  0  0  0  0  0  0  0  0  0
    0.7194   10.5946   37.8766 O   0  0  0  0  0  0  0  0  0  0  0  0
    2.7860    9.3244   38.6013 C   0  0  0  0  0  0  0  0  0  0  0  0
    2.4420    9.2133   40.0527 N   0  0  0  0  0  0  0  0  0  0  0  0
  1  3  1  0  0  0  0
  1  2  1  6  0  0  0
  3  4  1  6  0  0  0
  3  5  1  0  0  0  0
  5  6  1  1  0  0  0
  7  8  1  6  0  0  0
  7  5  1  0  0  0  0
  9 11  1  1  0  0  0
  9  7  1  0  0  0  0
 10  9  1  0  0  0  0
 10  1  1  0  0  0  0
 12 11  1  0  0  0  0
 13 14  1  6  0  0  0
 15 13  1  0  0  0  0
 16 17  1  1  0  0  0
 16 15  1  0  0  0  0
 18  2  1  1  0  0  0
 18 19  1  0  0  0  0
 18 16  1  0  0  0  0
 19 20  1  6  0  0  0
 19 21  1  0  0  0  0
 21 22  1  6  0  0  0
 21 13  1  0  0  0  0
 23 20  1  1  0  0  0
 23 29  1  0  0  0  0
 24 25  1  6  0  0  0
 24 26  1  0  0  0  0
 24 23  1  0  0  0  0
 26 27  1  6  0  0  0
 26 28  1  0  0  0  0
 28 30  1  1  0  0  0
 29 28  1  0  0  0  0
 30 31  1  0  0  0  0
 32 27  1  6  0  0  0
 32 40  1  0  0  0  0
 33 35  1  0  0  0  0
 33 32  1  0  0  0  0
 33 34  1  6  0  0  0
 35 36  1  1  0  0  0
 35 37  1  0  0  0  0
 37 38  1  6  0  0  0
 37 39  1  0  0  0  0
 39 41  1  6  0  0  0
 40 39  1  0  0  0  0
 41 42  1  0  0  0  0
M  END
>  <CHROM.1>
-61.17566324,55.59703327,-78.09798704,164.60965756,177.88641723,68.07895154
-178.36121677,-179.41689840,171.22257349,-2.30110912,13.29602326,40.23275675
-2.36562630,0.53966947,-1.72800806

>  <Name>
lig.pdb

>  <RI>
0

>  <Rbt.Current_Directory>
/home/itssahil/PROJECTS/Mol_Feturizer/New_Systems/rnas/4wcr

>  <Rbt.Executable>
rbdock ($Id: //depot/dev/client3/rdock/2013.1/src/exe/rbdock.cxx#4 $)

>  <Rbt.Library>
libRbt.so (2013.1, Build901 2013/11/27)

>  <Rbt.Parameter_File>
/export/apps/rDock/src/rDock_2013.1_src/data/scripts/dock_solv.prm

>  <Rbt.Receptor>
prm/pocket_docking_8.prm

>  <SCORE>
-3.47365

>  <SCORE.INTER>
3.08389

>  <SCORE.INTER.CONST>
1

>  <SCORE.INTER.POLAR>
0

>  <SCORE.INTER.ROT>
9

>  <SCORE.INTER.SOLV>
14.085

>  <SCORE.INTER.VDW>
-12.2391

>  <SCORE.INTER.norm>
0.073426

>  <SCORE.INTRA>
-6.55754

>  <SCORE.INTRA.DIHEDRAL>
-12.4498

>  <SCORE.INTRA.DIHEDRAL.0>
16.2863

>  <SCORE.INTRA.POLAR>
0

>  <SCORE.INTRA.POLAR.0>
0

>  <SCORE.INTRA.REPUL>
-0.308093

>  <SCORE.INTRA.REPUL.0>
0.314433

>  <SCORE.INTRA.SOLV>
-1.79711

>  <SCORE.INTRA.SOLV.lig_0>
-103.824

>  <SCORE.INTRA.VDW>
2.10639

>  <SCORE.INTRA.VDW.0>
-5.30945

>  <SCORE.INTRA.norm>
-0.156132

>  <SCORE.RESTR>
0

>  <SCORE.RESTR.CAVITY>
0

>  <SCORE.RESTR.norm>
0

>  <SCORE.SYSTEM>
0

>  <SCORE.SYSTEM.CONST>
0

>  <SCORE.SYSTEM.DIHEDRAL>
0

>  <SCORE.SYSTEM.SOLV>
0

>  <SCORE.SYSTEM.norm>
0

>  <SCORE.heavy>
42

>  <SCORE.norm>
-0.082706

>  <RMSD>
6.583

$$$$
lig.pdb
 OpenBabel11021811513D
libRbt.so/2013.1/901 2013/11/27
 42 45  0  0  0  0  0  0  0  0999 V2000
   -2.0392   20.9669   34.1755 C   0  0  2  0  0  0  0  0  0  0  0  0
   -3.3484   20.6987   33.5830 O   0  0  0  0  0  0  0  0  0  0  0  0
   -2.2642   22.1337   35.2375 C   0  0  2  0  0  0  0  0  0  0  0  0
   -3.1823   21.6926   36.2912 N   0  0  0  0  0  0  0  0  0  0  0  0
   -2.8044   23.4359   34.4680 C   0  0  1  0  0  0  0  0  0  0  0  0
   -3.0157   24.5315   35.3833 O   0  0  0  0  0  0  0  0  0  0  0  0
   -1.7654   23.7907   33.3905 C   0  0  2  0  0  0  0  0  0  0  0  0
   -2.2010   24.9133   32.7022 O   0  0  0  0  0  0  0  0  0  0  0  0
   -1.5673   22.5557   32.3985 C   0  0  2  0  0  0  0  0  0  0  0  0
   -1.1171   21.3908   33.1014 O   0  0  0  0  0  0  0  0  0  0  0  0
   -0.5457   22.8446   31.3355 C   0  0  0  0  0  0  0  0  0  0  0  0
   -0.5210   21.7283   30.4450 O   0  0  0  0  0  0  0  0  0  0  0  0
   -5.2817   17.2067   31.6230 C   0  0  2  0  0  0  0  0  0  0  0  0
   -5.5619   16.1542   30.6708 N   0  0  0  0  0  0  0  0  0  0  0  0
   -5.2575   18.6063   30.8953 C   0  0  0  0  0  0  0  0  0  0  0  0
   -4.9508   19.7660   31.9070 C   0  0  2  0  0  0  0  0  0  0  0  0
   -4.9303   21.0412   31.1934 N   0  0  0  0  0  0  0  0  0  0  0  0
   -3.5544   19.5725   32.6493 C   0  0  2  0  0  0  0  0  0  0  0  0
   -3.6075   18.2063   33.3924 C   0  0  2  0  0  0  0  0  0  0  0  0
   -2.2618   18.1060   34.0718 O   0  0  0  0  0  0  0  0  0  0  0  0
   -3.8589   17.0012   32.3285 C   0  0  1  0  0  0  0  0  0  0  0  0
   -3.9826   15.6691   32.9222 O   0  0  0  0  0  0  0  0  0  0  0  0
   -2.3781   17.5951   35.3378 C   0  0  1  0  0  0  0  0  0  0  0  0
   -1.0869   17.4342   36.0145 C   0  0  2  0  0  0  0  0  0  0  0  0
   -0.4390   16.3543   35.4223 O   0  0  0  0  0  0  0  0  0  0  0  0
   -1.5307   17.3537   37.4909 C   0  0  2  0  0  0  0  0  0  0  0  0
   -1.1112   16.0607   37.9825 O   0  0  0  0  0  0  0  0  0  0  0  0
   -3.0166   17.4969   37.4529 C   0  0  2  0  0  0  0  0  0  0  0  0
   -3.0891   18.3823   36.2787 O   0  0  0  0  0  0  0  0  0  0  0  0
   -3.5658   18.2356   38.7285 C   0  0  0  0  0  0  0  0  0  0  0  0
   -5.0208   18.3396   38.7638 O   0  0  0  0  0  0  0  0  0  0  0  0
   -2.0116   14.9378   37.7390 C   0  0  2  0  0  0  0  0  0  0  0  0
   -1.5024   13.6737   38.6090 C   0  0  2  0  0  0  0  0  0  0  0  0
   -0.0915   13.3463   38.2231 N   0  0  0  0  0  0  0  0  0  0  0  0
   -2.5008   12.4433   38.3382 C   0  0  1  0  0  0  0  0  0  0  0  0
   -3.8373   12.8728   38.7393 O   0  0  0  0  0  0  0  0  0  0  0  0
   -2.4615   12.0589   36.7906 C   0  0  2  0  0  0  0  0  0  0  0  0
   -1.0850   11.6229   36.4660 O   0  0  0  0  0  0  0  0  0  0  0  0
   -2.9233   13.3659   35.9301 C   0  0  1  0  0  0  0  0  0  0  0  0
   -2.0186   14.5290   36.2518 O   0  0  0  0  0  0  0  0  0  0  0  0
   -2.8796   13.0292   34.4026 C   0  0  0  0  0  0  0  0  0  0  0  0
   -1.5234   12.5981   33.9420 N   0  0  0  0  0  0  0  0  0  0  0  0
  1  3  1  0  0  0  0
  1  2  1  6  0  0  0
  3  4  1  1  0  0  0
  3  5  1  0  0  0  0
  5  6  1  1  0  0  0
  7  8  1  6  0  0  0
  7  5  1  0  0  0  0
  9 11  1  6  0  0  0
  9  7  1  0  0  0  0
 10  9  1  0  0  0  0
 10  1  1  0  0  0  0
 12 11  1  0  0  0  0
 13 14  1  6  0  0  0
 15 13  1  0  0  0  0
 16 17  1  6  0  0  0
 16 15  1  0  0  0  0
 18  2  1  1  0  0  0
 18 19  1  0  0  0  0
 18 16  1  0  0  0  0
 19 20  1  6  0  0  0
 19 21  1  0  0  0  0
 21 22  1  1  0  0  0
 21 13  1  0  0  0  0
 23 20  1  6  0  0  0
 23 29  1  0  0  0  0
 24 25  1  6  0  0  0
 24 26  1  0  0  0  0
 24 23  1  0  0  0  0
 26 27  1  6  0  0  0
 26 28  1  0  0  0  0
 28 30  1  1  0  0  0
 29 28  1  0  0  0  0
 30 31  1  0  0  0  0
 32 27  1  6  0  0  0
 32 40  1  0  0  0  0
 33 35  1  0  0  0  0
 33 32  1  0  0  0  0
 33 34  1  6  0  0  0
 35 36  1  6  0  0  0
 35 37  1  0  0  0  0
 37 38  1  6  0  0  0
 37 39  1  0  0  0  0
 39 41  1  6  0  0  0
 40 39  1  0  0  0  0
 41 42  1  0  0  0  0
M  END
>  <CHROM.1>
-173.54790690,-175.47422624,-165.74331577,139.12735865,177.84193193,-85.12514752
-177.18188383,-168.99811221,-58.41562625,-2.64448982,17.95943618,34.84395454
-1.71758579,1.29361118,2.83981791

>  <Name>
lig.pdb

>  <RI>
0

>  <Rbt.Current_Directory>
/home/itssahil/PROJECTS/Mol_Feturizer/New_Systems/rnas/4wcr

>  <Rbt.Executable>
rbdock ($Id: //depot/dev/client3/rdock/2013.1/src/exe/rbdock.cxx#4 $)

>  <Rbt.Library>
libRbt.so (2013.1, Build901 2013/11/27)

>  <Rbt.Parameter_File>
/export/apps/rDock/src/rDock_2013.1_src/data/scripts/dock_solv.prm

>  <Rbt.Receptor>
prm/pocket_docking_6.prm

>  <SCORE>
-13.3799

>  <SCORE.INTER>
-8.71006

>  <SCORE.INTER.CONST>
1

>  <SCORE.INTER.POLAR>
0

>  <SCORE.INTER.ROT>
9

>  <SCORE.INTER.SOLV>
25.7856

>  <SCORE.INTER.VDW>
-24.0019

>  <SCORE.INTER.norm>
-0.207382

>  <SCORE.INTRA>
-4.6779

>  <SCORE.INTRA.DIHEDRAL>
-5.72078

>  <SCORE.INTRA.DIHEDRAL.0>
16.2863

>  <SCORE.INTRA.POLAR>
0

>  <SCORE.INTRA.POLAR.0>
0

>  <SCORE.INTRA.REPUL>
-0.314433

>  <SCORE.INTRA.REPUL.0>
0.314433

>  <SCORE.INTRA.SOLV>
-1.78215

>  <SCORE.INTRA.SOLV.lig_0>
-103.824

>  <SCORE.INTRA.VDW>
0.645732

>  <SCORE.INTRA.VDW.0>
-5.30945

>  <SCORE.INTRA.norm>
-0.111379

>  <SCORE.RESTR>
0.0080333

>  <SCORE.RESTR.CAVITY>
0.0080333

>  <SCORE.RESTR.norm>
0.000191269

>  <SCORE.SYSTEM>
0

>  <SCORE.SYSTEM.CONST>
0

>  <SCORE.SYSTEM.DIHEDRAL>
0

>  <SCORE.SYSTEM.SOLV>
0

>  <SCORE.SYSTEM.norm>
0

>  <SCORE.heavy>
42

>  <SCORE.norm>
-0.31857

>  <RMSD>
6.591

$$$$
lig.pdb
 OpenBabel11021811513D
libRbt.so/2013.1/901 2013/11/27
 42 45  0  0  0  0  0  0  0  0999 V2000
   -2.2935   11.7469   41.5152 C   0  0  2  0  0  0  0  0  0  0  0  0
   -3.0662   11.3087   40.3542 O   0  0  0  0  0  0  0  0  0  0  0  0
   -2.6931   13.2695   41.7642 C   0  0  2  0  0  0  0  0  0  0  0  0
   -4.1213   13.3765   42.0748 N   0  0  0  0  0  0  0  0  0  0  0  0
   -2.2877   14.1287   40.4691 C   0  0  1  0  0  0  0  0  0  0  0  0
   -2.6178   15.5225   40.6447 O   0  0  0  0  0  0  0  0  0  0  0  0
   -0.7791   13.9280   40.2446 C   0  0  2  0  0  0  0  0  0  0  0  0
   -0.3927   14.6564   39.1294 O   0  0  0  0  0  0  0  0  0  0  0  0
   -0.4601   12.3760   40.0499 C   0  0  2  0  0  0  0  0  0  0  0  0
   -0.8562   11.6154   41.1980 O   0  0  0  0  0  0  0  0  0  0  0  0
    1.0068   12.1233   39.8454 C   0  0  0  0  0  0  0  0  0  0  0  0
    1.1772   10.7230   39.6225 O   0  0  0  0  0  0  0  0  0  0  0  0
   -1.2657    7.3421   39.4611 C   0  0  2  0  0  0  0  0  0  0  0  0
   -1.1239    5.9733   39.0150 N   0  0  0  0  0  0  0  0  0  0  0  0
   -2.4473    7.4562   40.5001 C   0  0  0  0  0  0  0  0  0  0  0  0
   -2.6249    8.9341   40.9967 C   0  0  2  0  0  0  0  0  0  0  0  0
   -3.7312    8.9973   41.9496 N   0  0  0  0  0  0  0  0  0  0  0  0
   -2.9199    9.9462   39.8022 C   0  0  2  0  0  0  0  0  0  0  0  0
   -1.7287    9.8499   38.8055 C   0  0  2  0  0  0  0  0  0  0  0  0
   -2.0795   10.8387   37.7184 O   0  0  0  0  0  0  0  0  0  0  0  0
   -1.5925    8.3291   38.2432 C   0  0  1  0  0  0  0  0  0  0  0  0
   -0.4666    8.1051   37.3352 O   0  0  0  0  0  0  0  0  0  0  0  0
   -1.1108   10.8814   36.7504 C   0  0  1  0  0  0  0  0  0  0  0  0
   -1.4545   11.7643   35.6307 C   0  0  2  0  0  0  0  0  0  0  0  0
   -2.4479   11.1298   34.8909 O   0  0  0  0  0  0  0  0  0  0  0  0
   -0.0644   12.0103   35.0060 C   0  0  2  0  0  0  0  0  0  0  0  0
   -0.1187   11.5010   33.6542 O   0  0  0  0  0  0  0  0  0  0  0  0
    0.8844   11.2448   35.8683 C   0  0  2  0  0  0  0  0  0  0  0  0
    0.1515   11.3996   37.1358 O   0  0  0  0  0  0  0  0  0  0  0  0
    2.2886   11.9478   35.9601 C   0  0  0  0  0  0  0  0  0  0  0  0
    3.3079   11.1359   36.6166 O   0  0  0  0  0  0  0  0  0  0  0  0
    0.1154   10.0709   33.4776 C   0  0  2  0  0  0  0  0  0  0  0  0
    0.2047    9.7573   31.8940 C   0  0  2  0  0  0  0  0  0  0  0  0
   -1.0664   10.1967   31.2321 N   0  0  0  0  0  0  0  0  0  0  0  0
    0.4661    8.1821   31.7084 C   0  0  1  0  0  0  0  0  0  0  0  0
    1.7158    7.8660   32.3938 O   0  0  0  0  0  0  0  0  0  0  0  0
   -0.7535    7.3649   32.3320 C   0  0  2  0  0  0  0  0  0  0  0  0
   -1.9750    7.7271   31.5790 O   0  0  0  0  0  0  0  0  0  0  0  0
   -0.8604    7.7407   33.9161 C   0  0  1  0  0  0  0  0  0  0  0  0
   -1.0335    9.2308   34.0720 O   0  0  0  0  0  0  0  0  0  0  0  0
   -2.0604    6.9681   34.5577 C   0  0  0  0  0  0  0  0  0  0  0  0
   -1.8481    5.4878   34.5875 N   0  0  0  0  0  0  0  0  0  0  0  0
  1  3  1  0  0  0  0
  1  2  1  6  0  0  0
  3  4  1  6  0  0  0
  3  5  1  0  0  0  0
  5  6  1  1  0  0  0
  7  8  1  6  0  0  0
  7  5  1  0  0  0  0
  9 11  1  1  0  0  0
  9  7  1  0  0  0  0
 10  9  1  0  0  0  0
 10  1  1  0  0  0  0
 12 11  1  0  0  0  0
 13 14  1  6  0  0  0
 15 13  1  0  0  0  0
 16 17  1  1  0  0  0
 16 15  1  0  0  0  0
 18  2  1  1  0  0  0
 18 19  1  0  0  0  0
 18 16  1  0  0  0  0
 19 20  1  6  0  0  0
 19 21  1  0  0  0  0
 21 22  1  6  0  0  0
 21 13  1  0  0  0  0
 23 20  1  1  0  0  0
 23 29  1  0  0  0  0
 24 25  1  6  0  0  0
 24 26  1  0  0  0  0
 24 23  1  0  0  0  0
 26 27  1  6  0  0  0
 26 28  1  0  0  0  0
 28 30  1  1  0  0  0
 29 28  1  0  0  0  0
 30 31  1  0  0  0  0
 32 27  1  6  0  0  0
 32 40  1  0  0  0  0
 33 35  1  0  0  0  0
 33 32  1  0  0  0  0
 33 34  1  6  0  0  0
 35 36  1  1  0  0  0
 35 37  1  0  0  0  0
 37 38  1  6  0  0  0
 37 39  1  0  0  0  0
 39 41  1  6  0  0  0
 40 39  1  0  0  0  0
 41 42  1  0  0  0  0
M  END
>  <CHROM.1>
178.08149472,-177.43894641,33.72034273,179.62973750,176.19045442,-83.72903831
-170.95323482,-172.55010907,66.40203973,-1.00255409,10.35965721,37.22088997
2.03295055,1.13388213,0.71746554

>  <Name>
lig.pdb

>  <RI>
0

>  <Rbt.Current_Directory>
/home/itssahil/PROJECTS/Mol_Feturizer/New_Systems/rnas/4wcr

>  <Rbt.Executable>
rbdock ($Id: //depot/dev/client3/rdock/2013.1/src/exe/rbdock.cxx#4 $)

>  <Rbt.Library>
libRbt.so (2013.1, Build901 2013/11/27)

>  <Rbt.Parameter_File>
/export/apps/rDock/src/rDock_2013.1_src/data/scripts/dock_solv.prm

>  <Rbt.Receptor>
prm/pocket_docking_7.prm

>  <SCORE>
-3.91891

>  <SCORE.INTER>
3.45738

>  <SCORE.INTER.CONST>
1

>  <SCORE.INTER.POLAR>
0

>  <SCORE.INTER.ROT>
9

>  <SCORE.INTER.SOLV>
14.0165

>  <SCORE.INTER.VDW>
-11.9673

>  <SCORE.INTER.norm>
0.0823187

>  <SCORE.INTRA>
-7.37629

>  <SCORE.INTRA.DIHEDRAL>
-9.72293

>  <SCORE.INTRA.DIHEDRAL.0>
16.2863

>  <SCORE.INTRA.POLAR>
0

>  <SCORE.INTRA.POLAR.0>
0

>  <SCORE.INTRA.REPUL>
-0.314433

>  <SCORE.INTRA.REPUL.0>
0.314433

>  <SCORE.INTRA.SOLV>
-1.71984

>  <SCORE.INTRA.SOLV.lig_0>
-103.824

>  <SCORE.INTRA.VDW>
-0.0827369

>  <SCORE.INTRA.VDW.0>
-5.30945

>  <SCORE.INTRA.norm>
-0.175626

>  <SCORE.RESTR>
0

>  <SCORE.RESTR.CAVITY>
0

>  <SCORE.RESTR.norm>
0

>  <SCORE.SYSTEM>
0

>  <SCORE.SYSTEM.CONST>
0

>  <SCORE.SYSTEM.DIHEDRAL>
0

>  <SCORE.SYSTEM.SOLV>
0

>  <SCORE.SYSTEM.norm>
0

>  <SCORE.heavy>
42

>  <SCORE.norm>
-0.0933073

>  <RMSD>
6.696

$$$$
lig.pdb
 OpenBabel11021811513D
libRbt.so/2013.1/901 2013/11/27
 42 45  0  0  0  0  0  0  0  0999 V2000
   -3.0675   22.2909   32.4217 C   0  0  2  0  0  0  0  0  0  0  0  0
   -3.8970   21.1599   32.8339 O   0  0  0  0  0  0  0  0  0  0  0  0
   -1.9143   22.4161   33.5146 C   0  0  2  0  0  0  0  0  0  0  0  0
   -1.0923   21.2029   33.5284 N   0  0  0  0  0  0  0  0  0  0  0  0
   -2.5862   22.7101   34.9436 C   0  0  1  0  0  0  0  0  0  0  0  0
   -1.5836   22.8445   35.9727 O   0  0  0  0  0  0  0  0  0  0  0  0
   -3.4228   23.9927   34.7971 C   0  0  2  0  0  0  0  0  0  0  0  0
   -4.0215   24.2771   36.0155 O   0  0  0  0  0  0  0  0  0  0  0  0
   -4.5208   23.7983   33.6547 C   0  0  2  0  0  0  0  0  0  0  0  0
   -3.9109   23.5039   32.3917 O   0  0  0  0  0  0  0  0  0  0  0  0
   -5.3546   25.0325   33.4582 C   0  0  0  0  0  0  0  0  0  0  0  0
   -4.4813   26.0819   33.0391 O   0  0  0  0  0  0  0  0  0  0  0  0
   -6.1466   17.8805   30.8445 C   0  0  2  0  0  0  0  0  0  0  0  0
   -6.5097   16.8495   29.8968 N   0  0  0  0  0  0  0  0  0  0  0  0
   -5.9279   19.2530   30.0980 C   0  0  0  0  0  0  0  0  0  0  0  0
   -5.5282   20.3885   31.1047 C   0  0  2  0  0  0  0  0  0  0  0  0
   -5.3285   21.6382   30.3738 N   0  0  0  0  0  0  0  0  0  0  0  0
   -4.1959   20.0475   31.9090 C   0  0  2  0  0  0  0  0  0  0  0  0
   -4.4400   18.7118   32.6692 C   0  0  2  0  0  0  0  0  0  0  0  0
   -3.1443   18.4680   33.4071 O   0  0  0  0  0  0  0  0  0  0  0  0
   -4.7880   17.5236   31.6134 C   0  0  1  0  0  0  0  0  0  0  0  0
   -5.0919   16.2272   32.2209 O   0  0  0  0  0  0  0  0  0  0  0  0
   -3.3146   17.5780   34.4349 C   0  0  1  0  0  0  0  0  0  0  0  0
   -2.0857   16.8561   34.7807 C   0  0  2  0  0  0  0  0  0  0  0  0
   -1.8411   15.9400   33.7621 O   0  0  0  0  0  0  0  0  0  0  0  0
   -2.4211   16.3584   36.2030 C   0  0  2  0  0  0  0  0  0  0  0  0
   -2.3768   14.9142   36.1607 O   0  0  0  0  0  0  0  0  0  0  0  0
   -3.7925   16.8810   36.4786 C   0  0  2  0  0  0  0  0  0  0  0  0
   -3.6816   18.1209   35.6923 O   0  0  0  0  0  0  0  0  0  0  0  0
   -3.9953   17.2168   38.0019 C   0  0  0  0  0  0  0  0  0  0  0  0
   -3.7585   16.0821   38.8882 O   0  0  0  0  0  0  0  0  0  0  0  0
   -1.0554   14.2949   36.1246 C   0  0  2  0  0  0  0  0  0  0  0  0
   -1.2422   12.6943   35.9928 C   0  0  2  0  0  0  0  0  0  0  0  0
   -2.0561   12.1963   37.1487 N   0  0  0  0  0  0  0  0  0  0  0  0
    0.2167   12.0207   35.9499 C   0  0  1  0  0  0  0  0  0  0  0  0
    0.9192   12.5800   34.7987 O   0  0  0  0  0  0  0  0  0  0  0  0
    0.9903   12.3436   37.3070 C   0  0  2  0  0  0  0  0  0  0  0  0
    0.2278   11.7351   38.4200 O   0  0  0  0  0  0  0  0  0  0  0  0
    1.1162   13.9643   37.4472 C   0  0  1  0  0  0  0  0  0  0  0  0
   -0.2587   14.5834   37.4135 O   0  0  0  0  0  0  0  0  0  0  0  0
    1.8564   14.3186   38.7796 C   0  0  0  0  0  0  0  0  0  0  0  0
    1.7842   15.7746   39.1140 N   0  0  0  0  0  0  0  0  0  0  0  0
  1  3  1  0  0  0  0
  1  2  1  1  0  0  0
  3  4  1  1  0  0  0
  3  5  1  0  0  0  0
  5  6  1  1  0  0  0
  7  8  1  1  0  0  0
  7  5  1  0  0  0  0
  9 11  1  6  0  0  0
  9  7  1  0  0  0  0
 10  9  1  0  0  0  0
 10  1  1  0  0  0  0
 12 11  1  0  0  0  0
 13 14  1  6  0  0  0
 15 13  1  0  0  0  0
 16 17  1  6  0  0  0
 16 15  1  0  0  0  0
 18  2  1  1  0  0  0
 18 19  1  0  0  0  0
 18 16  1  0  0  0  0
 19 20  1  6  0  0  0
 19 21  1  0  0  0  0
 21 22  1  1  0  0  0
 21 13  1  0  0  0  0
 23 20  1  6  0  0  0
 23 29  1  0  0  0  0
 24 25  1  6  0  0  0
 24 26  1  0  0  0  0
 24 23  1  0  0  0  0
 26 27  1  6  0  0  0
 26 28  1  0  0  0  0
 28 30  1  1  0  0  0
 29 28  1  0  0  0  0
 30 31  1  0  0  0  0
 32 27  1  1  0  0  0
 32 40  1  0  0  0  0
 33 35  1  0  0  0  0
 33 32  1  0  0  0  0
 33 34  1  1  0  0  0
 35 36  1  6  0  0  0
 35 37  1  0  0  0  0
 37 38  1  1  0  0  0
 37 39  1  0  0  0  0
 39 41  1  1  0  0  0
 40 39  1  0  0  0  0
 41 42  1  0  0  0  0
M  END
>  <CHROM.1>
-126.70564383,62.08228346,-89.84160048,161.17097412,154.04807738,75.54108648
-57.38167909,-176.70304631,-169.01948503,-2.75004722,18.17224024,34.64028690
-2.24516299,0.93570752,-3.00986805

>  <Name>
lig.pdb

>  <RI>
0

>  <Rbt.Current_Directory>
/home/itssahil/PROJECTS/Mol_Feturizer/New_Systems/rnas/4wcr

>  <Rbt.Executable>
rbdock ($Id: //depot/dev/client3/rdock/2013.1/src/exe/rbdock.cxx#4 $)

>  <Rbt.Library>
libRbt.so (2013.1, Build901 2013/11/27)

>  <Rbt.Parameter_File>
/export/apps/rDock/src/rDock_2013.1_src/data/scripts/dock_solv.prm

>  <Rbt.Receptor>
prm/pocket_docking_7.prm

>  <SCORE>
-14.9016

>  <SCORE.INTER>
-12.9107

>  <SCORE.INTER.CONST>
1

>  <SCORE.INTER.POLAR>
0

>  <SCORE.INTER.ROT>
9

>  <SCORE.INTER.SOLV>
21.9821

>  <SCORE.INTER.VDW>
-25.5345

>  <SCORE.INTER.norm>
-0.307398

>  <SCORE.INTRA>
-2.00262

>  <SCORE.INTRA.DIHEDRAL>
0.834448

>  <SCORE.INTRA.DIHEDRAL.0>
16.2863

>  <SCORE.INTRA.POLAR>
0

>  <SCORE.INTRA.POLAR.0>
0

>  <SCORE.INTRA.REPUL>
-0.309226

>  <SCORE.INTRA.REPUL.0>
0.314433

>  <SCORE.INTRA.SOLV>
-3.16369

>  <SCORE.INTRA.SOLV.lig_0>
-103.824

>  <SCORE.INTRA.VDW>
0.708134

>  <SCORE.INTRA.VDW.0>
-5.30945

>  <SCORE.INTRA.norm>
-0.0476814

>  <SCORE.RESTR>
0.0116877

>  <SCORE.RESTR.CAVITY>
0.0116877

>  <SCORE.RESTR.norm>
0.000278279

>  <SCORE.SYSTEM>
0

>  <SCORE.SYSTEM.CONST>
0

>  <SCORE.SYSTEM.DIHEDRAL>
0

>  <SCORE.SYSTEM.SOLV>
0

>  <SCORE.SYSTEM.norm>
0

>  <SCORE.heavy>
42

>  <SCORE.norm>
-0.354801

>  <RMSD>
6.722

$$$$
lig.pdb
 OpenBabel11021811513D
libRbt.so/2013.1/901 2013/11/27
 42 45  0  0  0  0  0  0  0  0999 V2000
   -3.9589   22.9016   32.2701 C   0  0  2  0  0  0  0  0  0  0  0  0
   -4.1923   21.5439   32.7593 O   0  0  0  0  0  0  0  0  0  0  0  0
   -2.5343   22.8764   31.5559 C   0  0  2  0  0  0  0  0  0  0  0  0
   -2.5530   21.9561   30.4156 N   0  0  0  0  0  0  0  0  0  0  0  0
   -1.4195   22.4761   32.6407 C   0  0  1  0  0  0  0  0  0  0  0  0
   -0.1035   22.4487   32.0491 O   0  0  0  0  0  0  0  0  0  0  0  0
   -1.5060   23.5039   33.7819 C   0  0  2  0  0  0  0  0  0  0  0  0
   -0.5556   23.1875   34.7411 O   0  0  0  0  0  0  0  0  0  0  0  0
   -2.9736   23.4967   34.4101 C   0  0  2  0  0  0  0  0  0  0  0  0
   -3.9625   23.8228   33.4256 O   0  0  0  0  0  0  0  0  0  0  0  0
   -3.1169   24.4995   35.5196 C   0  0  0  0  0  0  0  0  0  0  0  0
   -4.4214   24.3417   36.0790 O   0  0  0  0  0  0  0  0  0  0  0  0
   -6.2083   18.0588   30.8719 C   0  0  2  0  0  0  0  0  0  0  0  0
   -6.5310   17.0113   29.9277 N   0  0  0  0  0  0  0  0  0  0  0  0
   -6.2222   19.4628   30.1527 C   0  0  0  0  0  0  0  0  0  0  0  0
   -5.8704   20.6172   31.1558 C   0  0  2  0  0  0  0  0  0  0  0  0
   -5.8870   21.8967   30.4499 N   0  0  0  0  0  0  0  0  0  0  0  0
   -4.4398   20.4229   31.8295 C   0  0  2  0  0  0  0  0  0  0  0  0
   -4.4542   19.0521   32.5658 C   0  0  2  0  0  0  0  0  0  0  0  0
   -3.0774   18.9513   33.1798 O   0  0  0  0  0  0  0  0  0  0  0  0
   -4.7531   17.8527   31.5076 C   0  0  1  0  0  0  0  0  0  0  0  0
   -4.8452   16.5168   32.0984 O   0  0  0  0  0  0  0  0  0  0  0  0
   -3.0365   17.9953   34.1604 C   0  0  1  0  0  0  0  0  0  0  0  0
   -1.9400   17.0372   33.9849 C   0  0  2  0  0  0  0  0  0  0  0  0
   -2.2763   16.2121   32.9158 O   0  0  0  0  0  0  0  0  0  0  0  0
   -1.8253   16.4496   35.4078 C   0  0  2  0  0  0  0  0  0  0  0  0
   -2.0933   15.0335   35.2971 O   0  0  0  0  0  0  0  0  0  0  0  0
   -2.8642   17.1680   36.2042 C   0  0  2  0  0  0  0  0  0  0  0  0
   -2.7997   18.4498   35.4825 O   0  0  0  0  0  0  0  0  0  0  0  0
   -2.4231   17.3618   37.7016 C   0  0  0  0  0  0  0  0  0  0  0  0
   -1.1684   18.0913   37.8527 O   0  0  0  0  0  0  0  0  0  0  0  0
   -2.0561   14.2558   36.5319 C   0  0  2  0  0  0  0  0  0  0  0  0
   -0.5333   14.2269   37.0744 C   0  0  2  0  0  0  0  0  0  0  0  0
    0.3541   13.6361   36.0207 N   0  0  0  0  0  0  0  0  0  0  0  0
   -0.5017   13.3723   38.4356 C   0  0  1  0  0  0  0  0  0  0  0  0
   -1.4003   14.0286   39.3808 O   0  0  0  0  0  0  0  0  0  0  0  0
   -0.9750   11.8789   38.1355 C   0  0  2  0  0  0  0  0  0  0  0  0
   -0.0113   11.2794   37.1857 O   0  0  0  0  0  0  0  0  0  0  0  0
   -2.4912   11.9369   37.5356 C   0  0  1  0  0  0  0  0  0  0  0  0
   -2.5137   12.8012   36.2999 O   0  0  0  0  0  0  0  0  0  0  0  0
   -2.9823   10.4867   37.2127 C   0  0  0  0  0  0  0  0  0  0  0  0
   -4.3947   10.4482   36.7219 N   0  0  0  0  0  0  0  0  0  0  0  0
  1  3  1  0  0  0  0
  1  2  1  1  0  0  0
  3  4  1  6  0  0  0
  3  5  1  0  0  0  0
  5  6  1  6  0  0  0
  7  8  1  1  0  0  0
  7  5  1  0  0  0  0
  9 11  1  1  0  0  0
  9  7  1  0  0  0  0
 10  9  1  0  0  0  0
 10  1  1  0  0  0  0
 12 11  1  0  0  0  0
 13 14  1  6  0  0  0
 15 13  1  0  0  0  0
 16 17  1  6  0  0  0
 16 15  1  0  0  0  0
 18  2  1  1  0  0  0
 18 19  1  0  0  0  0
 18 16  1  0  0  0  0
 19 20  1  6  0  0  0
 19 21  1  0  0  0  0
 21 22  1  1  0  0  0
 21 13  1  0  0  0  0
 23 20  1  6  0  0  0
 23 29  1  0  0  0  0
 24 25  1  6  0  0  0
 24 26  1  0  0  0  0
 24 23  1  0  0  0  0
 26 27  1  6  0  0  0
 26 28  1  0  0  0  0
 28 30  1  1  0  0  0
 29 28  1  0  0  0  0
 30 31  1  0  0  0  0
 32 27  1  6  0  0  0
 32 40  1  0  0  0  0
 33 35  1  0  0  0  0
 33 32  1  0  0  0  0
 33 34  1  6  0  0  0
 35 36  1  1  0  0  0
 35 37  1  0  0  0  0
 37 38  1  6  0  0  0
 37 39  1  0  0  0  0
 39 41  1  6  0  0  0
 40 39  1  0  0  0  0
 41 42  1  0  0  0  0
M  END
>  <CHROM.1>
-69.35456160,-175.56013959,-69.70347763,163.15418513,128.49744597,-179.36012287
57.91103867,-67.30354346,177.06587276,-2.87082095,18.08120952,34.38593010
-1.85978016,0.92757583,2.92519622

>  <Name>
lig.pdb

>  <RI>
0

>  <Rbt.Current_Directory>
/home/itssahil/PROJECTS/Mol_Feturizer/New_Systems/rnas/4wcr

>  <Rbt.Executable>
rbdock ($Id: //depot/dev/client3/rdock/2013.1/src/exe/rbdock.cxx#4 $)

>  <Rbt.Library>
libRbt.so (2013.1, Build901 2013/11/27)

>  <Rbt.Parameter_File>
/export/apps/rDock/src/rDock_2013.1_src/data/scripts/dock_solv.prm

>  <Rbt.Receptor>
prm/pocket_docking_7.prm

>  <SCORE>
-15.1127

>  <SCORE.INTER>
-11.0609

>  <SCORE.INTER.CONST>
1

>  <SCORE.INTER.POLAR>
0

>  <SCORE.INTER.ROT>
9

>  <SCORE.INTER.SOLV>
22.6489

>  <SCORE.INTER.VDW>
-24.5236

>  <SCORE.INTER.norm>
-0.263356

>  <SCORE.INTRA>
-4.06248

>  <SCORE.INTRA.DIHEDRAL>
-6.36833

>  <SCORE.INTRA.DIHEDRAL.0>
16.2863

>  <SCORE.INTRA.POLAR>
0

>  <SCORE.INTRA.POLAR.0>
0

>  <SCORE.INTRA.REPUL>
-0.314433

>  <SCORE.INTRA.REPUL.0>
0.314433

>  <SCORE.INTRA.SOLV>
-1.10439

>  <SCORE.INTRA.SOLV.lig_0>
-103.824

>  <SCORE.INTRA.VDW>
1.24604

>  <SCORE.INTRA.VDW.0>
-5.30945

>  <SCORE.INTRA.norm>
-0.0967258

>  <SCORE.RESTR>
0.0106794

>  <SCORE.RESTR.CAVITY>
0.0106794

>  <SCORE.RESTR.norm>
0.000254273

>  <SCORE.SYSTEM>
0

>  <SCORE.SYSTEM.CONST>
0

>  <SCORE.SYSTEM.DIHEDRAL>
0

>  <SCORE.SYSTEM.SOLV>
0

>  <SCORE.SYSTEM.norm>
0

>  <SCORE.heavy>
42

>  <SCORE.norm>
-0.359827

>  <RMSD>
6.744

$$$$
lig.pdb
 OpenBabel11021811513D
libRbt.so/2013.1/901 2013/11/27
 42 45  0  0  0  0  0  0  0  0999 V2000
   -3.0928   21.8741   34.0135 C   0  0  2  0  0  0  0  0  0  0  0  0
   -2.9389   21.9441   32.5614 O   0  0  0  0  0  0  0  0  0  0  0  0
   -2.9274   23.3661   34.5489 C   0  0  2  0  0  0  0  0  0  0  0  0
   -3.9809   24.2238   33.9992 N   0  0  0  0  0  0  0  0  0  0  0  0
   -1.4577   23.8913   34.1696 C   0  0  1  0  0  0  0  0  0  0  0  0
   -1.2482   25.2387   34.6421 O   0  0  0  0  0  0  0  0  0  0  0  0
   -0.4497   22.9099   34.7918 C   0  0  2  0  0  0  0  0  0  0  0  0
    0.8345   23.3324   34.4821 O   0  0  0  0  0  0  0  0  0  0  0  0
   -0.7134   21.4359   34.2385 C   0  0  2  0  0  0  0  0  0  0  0  0
   -2.0385   20.9910   34.5542 O   0  0  0  0  0  0  0  0  0  0  0  0
    0.2352   20.4330   34.8315 C   0  0  0  0  0  0  0  0  0  0  0  0
    0.0299   19.1917   34.1556 O   0  0  0  0  0  0  0  0  0  0  0  0
   -6.3653   19.6435   30.9062 C   0  0  2  0  0  0  0  0  0  0  0  0
   -7.1763   18.8579   30.0017 N   0  0  0  0  0  0  0  0  0  0  0  0
   -5.8906   20.9708   30.1979 C   0  0  0  0  0  0  0  0  0  0  0  0
   -5.0042   21.8399   31.1579 C   0  0  2  0  0  0  0  0  0  0  0  0
   -4.5805   23.0536   30.4628 N   0  0  0  0  0  0  0  0  0  0  0  0
   -3.7094   21.0606   31.6625 C   0  0  2  0  0  0  0  0  0  0  0  0
   -4.1948   19.7740   32.3910 C   0  0  2  0  0  0  0  0  0  0  0  0
   -2.9177   19.1047   32.8426 O   0  0  0  0  0  0  0  0  0  0  0  0
   -5.0567   18.8455   31.3701 C   0  0  1  0  0  0  0  0  0  0  0  0
   -5.6139   17.6289   31.9631 O   0  0  0  0  0  0  0  0  0  0  0  0
   -3.1698   18.1055   33.7455 C   0  0  1  0  0  0  0  0  0  0  0  0
   -2.0471   17.1749   33.9025 C   0  0  2  0  0  0  0  0  0  0  0  0
   -1.9903   16.3943   32.7518 O   0  0  0  0  0  0  0  0  0  0  0  0
   -2.3852   16.5245   35.2611 C   0  0  2  0  0  0  0  0  0  0  0  0
   -2.5585   15.1107   35.0150 O   0  0  0  0  0  0  0  0  0  0  0  0
   -3.6488   17.1881   35.7000 C   0  0  2  0  0  0  0  0  0  0  0  0
   -3.3918   18.5025   35.0885 O   0  0  0  0  0  0  0  0  0  0  0  0
   -3.7270   17.3201   37.2655 C   0  0  0  0  0  0  0  0  0  0  0  0
   -2.6653   18.1416   37.8375 O   0  0  0  0  0  0  0  0  0  0  0  0
   -3.0287   14.2985   36.1332 C   0  0  2  0  0  0  0  0  0  0  0  0
   -2.8170   12.7397   35.7600 C   0  0  2  0  0  0  0  0  0  0  0  0
   -3.5632   12.4295   34.4976 N   0  0  0  0  0  0  0  0  0  0  0  0
   -3.3336   11.8529   36.9973 C   0  0  1  0  0  0  0  0  0  0  0  0
   -2.5494   12.2406   38.1662 O   0  0  0  0  0  0  0  0  0  0  0  0
   -4.8877   12.1246   37.2325 C   0  0  2  0  0  0  0  0  0  0  0  0
   -5.6128   11.6954   36.0159 O   0  0  0  0  0  0  0  0  0  0  0  0
   -5.0837   13.7128   37.5503 C   0  0  1  0  0  0  0  0  0  0  0  0
   -4.5284   14.5293   36.4102 O   0  0  0  0  0  0  0  0  0  0  0  0
   -6.6025   14.0193   37.7696 C   0  0  0  0  0  0  0  0  0  0  0  0
   -7.1589   13.3527   38.9876 N   0  0  0  0  0  0  0  0  0  0  0  0
  1  3  1  0  0  0  0
  1  2  1  6  0  0  0
  3  4  1  6  0  0  0
  3  5  1  0  0  0  0
  5  6  1  1  0  0  0
  7  8  1  6  0  0  0
  7  5  1  0  0  0  0
  9 11  1  1  0  0  0
  9  7  1  0  0  0  0
 10  9  1  0  0  0  0
 10  1  1  0  0  0  0
 12 11  1  0  0  0  0
 13 14  1  6  0  0  0
 15 13  1  0  0  0  0
 16 17  1  6  0  0  0
 16 15  1  0  0  0  0
 18  2  1  1  0  0  0
 18 19  1  0  0  0  0
 18 16  1  0  0  0  0
 19 20  1  6  0  0  0
 19 21  1  0  0  0  0
 21 22  1  1  0  0  0
 21 13  1  0  0  0  0
 23 20  1  6  0  0  0
 23 29  1  0  0  0  0
 24 25  1  6  0  0  0
 24 26  1  0  0  0  0
 24 23  1  0  0  0  0
 26 27  1  6  0  0  0
 26 28  1  0  0  0  0
 28 30  1  1  0  0  0
 29 28  1  0  0  0  0
 30 31  1  0  0  0  0
 32 27  1  6  0  0  0
 32 40  1  0  0  0  0
 33 35  1  0  0  0  0
 33 32  1  0  0  0  0
 33 34  1  6  0  0  0
 35 36  1  1  0  0  0
 35 37  1  0  0  0  0
 37 38  1  6  0  0  0
 37 39  1  0  0  0  0
 39 41  1  6  0  0  0
 40 39  1  0  0  0  0
 41 42  1  0  0  0  0
M  END
>  <CHROM.1>
-145.23993090,-172.91828506,95.94189350,167.06236746,162.53937257,-173.57541476
61.97590373,-166.69718448,65.49027890,-3.37223513,18.25580573,34.44868155
-1.34284833,0.72822858,2.61075960

>  <Name>
lig.pdb

>  <RI>
0

>  <Rbt.Current_Directory>
/home/itssahil/PROJECTS/Mol_Feturizer/New_Systems/rnas/4wcr

>  <Rbt.Executable>
rbdock ($Id: //depot/dev/client3/rdock/2013.1/src/exe/rbdock.cxx#4 $)

>  <Rbt.Library>
libRbt.so (2013.1, Build901 2013/11/27)

>  <Rbt.Parameter_File>
/export/apps/rDock/src/rDock_2013.1_src/data/scripts/dock_solv.prm

>  <Rbt.Receptor>
prm/pocket_docking_8.prm

>  <SCORE>
-11.6884

>  <SCORE.INTER>
-10.0003

>  <SCORE.INTER.CONST>
1

>  <SCORE.INTER.POLAR>
0

>  <SCORE.INTER.ROT>
9

>  <SCORE.INTER.SOLV>
20.4243

>  <SCORE.INTER.VDW>
-23.075

>  <SCORE.INTER.norm>
-0.238102

>  <SCORE.INTRA>
-1.68814

>  <SCORE.INTRA.DIHEDRAL>
-3.04262

>  <SCORE.INTRA.DIHEDRAL.0>
16.2863

>  <SCORE.INTRA.POLAR>
0

>  <SCORE.INTRA.POLAR.0>
0

>  <SCORE.INTRA.REPUL>
0.247523

>  <SCORE.INTRA.REPUL.0>
0.314433

>  <SCORE.INTRA.SOLV>
-2.87804

>  <SCORE.INTRA.SOLV.lig_0>
-103.824

>  <SCORE.INTRA.VDW>
0.0345778

>  <SCORE.INTRA.VDW.0>
-5.30945

>  <SCORE.INTRA.norm>
-0.0401938

>  <SCORE.RESTR>
0

>  <SCORE.RESTR.CAVITY>
0

>  <SCORE.RESTR.norm>
0

>  <SCORE.SYSTEM>
0

>  <SCORE.SYSTEM.CONST>
0

>  <SCORE.SYSTEM.DIHEDRAL>
0

>  <SCORE.SYSTEM.SOLV>
0

>  <SCORE.SYSTEM.norm>
0

>  <SCORE.heavy>
42

>  <SCORE.norm>
-0.278296

>  <RMSD>
6.745

$$$$
lig.pdb
 OpenBabel11021811513D
libRbt.so/2013.1/901 2013/11/27
 42 45  0  0  0  0  0  0  0  0999 V2000
   -2.7124   22.6740   32.1451 C   0  0  2  0  0  0  0  0  0  0  0  0
   -3.3966   21.4506   32.5601 O   0  0  0  0  0  0  0  0  0  0  0  0
   -1.4473   22.8210   33.1031 C   0  0  2  0  0  0  0  0  0  0  0  0
   -0.5397   21.6842   32.9254 N   0  0  0  0  0  0  0  0  0  0  0  0
   -1.9601   22.9568   34.6191 C   0  0  1  0  0  0  0  0  0  0  0  0
   -0.8525   23.1045   35.5323 O   0  0  0  0  0  0  0  0  0  0  0  0
   -2.9038   24.1705   34.6726 C   0  0  2  0  0  0  0  0  0  0  0  0
   -3.3690   24.3177   35.9709 O   0  0  0  0  0  0  0  0  0  0  0  0
   -4.1150   23.9629   33.6537 C   0  0  2  0  0  0  0  0  0  0  0  0
   -3.6434   23.8099   32.3092 O   0  0  0  0  0  0  0  0  0  0  0  0
   -5.0584   25.1322   33.6535 C   0  0  0  0  0  0  0  0  0  0  0  0
   -6.1131   24.8366   32.7370 O   0  0  0  0  0  0  0  0  0  0  0  0
   -6.6267   19.0620   30.6538 C   0  0  2  0  0  0  0  0  0  0  0  0
   -7.3629   18.2917   29.6752 N   0  0  0  0  0  0  0  0  0  0  0  0
   -6.2191   20.4613   30.0500 C   0  0  0  0  0  0  0  0  0  0  0  0
   -5.4145   21.3156   31.0917 C   0  0  2  0  0  0  0  0  0  0  0  0
   -5.0508   22.5978   30.4919 N   0  0  0  0  0  0  0  0  0  0  0  0
   -4.0862   20.5849   31.5817 C   0  0  2  0  0  0  0  0  0  0  0  0
   -4.5076   19.2241   32.2082 C   0  0  2  0  0  0  0  0  0  0  0  0
   -3.2027   18.6053   32.6522 O   0  0  0  0  0  0  0  0  0  0  0  0
   -5.2825   18.3162   31.1024 C   0  0  1  0  0  0  0  0  0  0  0  0
   -5.7765   17.0300   31.5961 O   0  0  0  0  0  0  0  0  0  0  0  0
   -3.3968   17.7031   33.6649 C   0  0  1  0  0  0  0  0  0  0  0  0
   -2.3287   16.7022   33.7566 C   0  0  2  0  0  0  0  0  0  0  0  0
   -2.4816   15.8315   32.6818 O   0  0  0  0  0  0  0  0  0  0  0  0
   -2.5223   16.1893   35.1998 C   0  0  2  0  0  0  0  0  0  0  0  0
   -2.8226   14.7785   35.1041 O   0  0  0  0  0  0  0  0  0  0  0  0
   -3.6668   16.9828   35.7384 C   0  0  2  0  0  0  0  0  0  0  0  0
   -3.4070   18.2208   34.9849 O   0  0  0  0  0  0  0  0  0  0  0  0
   -3.5225   17.2432   37.2830 C   0  0  0  0  0  0  0  0  0  0  0  0
   -4.6104   18.0350   37.8474 O   0  0  0  0  0  0  0  0  0  0  0  0
   -3.0899   14.0741   36.3545 C   0  0  2  0  0  0  0  0  0  0  0  0
   -1.7539   14.1181   37.2640 C   0  0  2  0  0  0  0  0  0  0  0  0
   -0.6215   13.4926   36.5068 N   0  0  0  0  0  0  0  0  0  0  0  0
   -2.0577   13.3440   38.6396 C   0  0  1  0  0  0  0  0  0  0  0  0
   -3.1743   14.0283   39.2851 O   0  0  0  0  0  0  0  0  0  0  0  0
   -2.4214   11.8234   38.3236 C   0  0  2  0  0  0  0  0  0  0  0  0
   -1.2414   11.1973   37.6866 O   0  0  0  0  0  0  0  0  0  0  0  0
   -3.7369   11.8053   37.3585 C   0  0  1  0  0  0  0  0  0  0  0  0
   -3.4562   12.5966   36.1056 O   0  0  0  0  0  0  0  0  0  0  0  0
   -4.1125   10.3260   37.0132 C   0  0  0  0  0  0  0  0  0  0  0  0
   -4.5429    9.5417   38.2119 N   0  0  0  0  0  0  0  0  0  0  0  0
  1  3  1  0  0  0  0
  1  2  1  1  0  0  0
  3  4  1  1  0  0  0
  3  5  1  0  0  0  0
  5  6  1  1  0  0  0
  7  8  1  1  0  0  0
  7  5  1  0  0  0  0
  9 11  1  6  0  0  0
  9  7  1  0  0  0  0
 10  9  1  0  0  0  0
 10  1  1  0  0  0  0
 12 11  1  0  0  0  0
 13 14  1  6  0  0  0
 15 13  1  0  0  0  0
 16 17  1  6  0  0  0
 16 15  1  0  0  0  0
 18  2  1  1  0  0  0
 18 19  1  0  0  0  0
 18 16  1  0  0  0  0
 19 20  1  6  0  0  0
 19 21  1  0  0  0  0
 21 22  1  1  0  0  0
 21 13  1  0  0  0  0
 23 20  1  6  0  0  0
 23 29  1  0  0  0  0
 24 25  1  6  0  0  0
 24 26  1  0  0  0  0
 24 23  1  0  0  0  0
 26 27  1  6  0  0  0
 26 28  1  0  0  0  0
 28 30  1  1  0  0  0
 29 28  1  0  0  0  0
 30 31  1  0  0  0  0
 32 27  1  6  0  0  0
 32 40  1  0  0  0  0
 33 35  1  0  0  0  0
 33 32  1  0  0  0  0
 33 34  1  6  0  0  0
 35 36  1  6  0  0  0
 35 37  1  0  0  0  0
 37 38  1  6  0  0  0
 37 39  1  0  0  0  0
 39 41  1  6  0  0  0
 40 39  1  0  0  0  0
 41 42  1  0  0  0  0
M  END
>  <CHROM.1>
-145.76754762,-178.80043385,-71.97917183,155.69088227,156.22212854,-178.14491572
179.06590281,-63.37598175,65.07644924,-3.53710248,18.20782696,34.40342442
-1.76083038,1.00440552,2.87838795

>  <Name>
lig.pdb

>  <RI>
0

>  <Rbt.Current_Directory>
/home/itssahil/PROJECTS/Mol_Feturizer/New_Systems/rnas/4wcr

>  <Rbt.Executable>
rbdock ($Id: //depot/dev/client3/rdock/2013.1/src/exe/rbdock.cxx#4 $)

>  <Rbt.Library>
libRbt.so (2013.1, Build901 2013/11/27)

>  <Rbt.Parameter_File>
/export/apps/rDock/src/rDock_2013.1_src/data/scripts/dock_solv.prm

>  <Rbt.Receptor>
prm/pocket_docking_8.prm

>  <SCORE>
-15.453

>  <SCORE.INTER>
-11.3685

>  <SCORE.INTER.CONST>
1

>  <SCORE.INTER.POLAR>
0

>  <SCORE.INTER.ROT>
9

>  <SCORE.INTER.SOLV>
17.0645

>  <SCORE.INTER.VDW>
-22.8672

>  <SCORE.INTER.norm>
-0.270678

>  <SCORE.INTRA>
-4.08455

>  <SCORE.INTRA.DIHEDRAL>
-5.51794

>  <SCORE.INTRA.DIHEDRAL.0>
16.2863

>  <SCORE.INTRA.POLAR>
0

>  <SCORE.INTRA.POLAR.0>
0

>  <SCORE.INTRA.REPUL>
-0.265406

>  <SCORE.INTRA.REPUL.0>
0.314433

>  <SCORE.INTRA.SOLV>
-2.27589

>  <SCORE.INTRA.SOLV.lig_0>
-103.824

>  <SCORE.INTRA.VDW>
1.1394

>  <SCORE.INTRA.VDW.0>
-5.30945

>  <SCORE.INTRA.norm>
-0.0972511

>  <SCORE.RESTR>
0

>  <SCORE.RESTR.CAVITY>
0

>  <SCORE.RESTR.norm>
0

>  <SCORE.SYSTEM>
0

>  <SCORE.SYSTEM.CONST>
0

>  <SCORE.SYSTEM.DIHEDRAL>
0

>  <SCORE.SYSTEM.SOLV>
0

>  <SCORE.SYSTEM.norm>
0

>  <SCORE.heavy>
42

>  <SCORE.norm>
-0.367929

>  <RMSD>
6.794

$$$$
lig.pdb
 OpenBabel11021811513D
libRbt.so/2013.1/901 2013/11/27
 42 45  0  0  0  0  0  0  0  0999 V2000
   -0.6321   11.4089   35.3300 C   0  0  2  0  0  0  0  0  0  0  0  0
   -1.5992   10.5810   36.0487 O   0  0  0  0  0  0  0  0  0  0  0  0
   -0.5432   10.8082   33.8565 C   0  0  2  0  0  0  0  0  0  0  0  0
   -1.8436   10.9059   33.1878 N   0  0  0  0  0  0  0  0  0  0  0  0
   -0.0198    9.2924   33.9471 C   0  0  1  0  0  0  0  0  0  0  0  0
    0.0909    8.7005   32.6356 O   0  0  0  0  0  0  0  0  0  0  0  0
    1.3372    9.3228   34.6710 C   0  0  2  0  0  0  0  0  0  0  0  0
    1.8201    8.0263   34.7693 O   0  0  0  0  0  0  0  0  0  0  0  0
    1.1678    9.9786   36.1165 C   0  0  2  0  0  0  0  0  0  0  0  0
    0.6691   11.3189   36.0245 O   0  0  0  0  0  0  0  0  0  0  0  0
    2.4716   10.0495   36.8598 C   0  0  0  0  0  0  0  0  0  0  0  0
    3.3291   10.9398   36.1444 O   0  0  0  0  0  0  0  0  0  0  0  0
   -5.8223   11.2005   37.2954 C   0  0  2  0  0  0  0  0  0  0  0  0
   -7.2297   11.5312   37.2431 N   0  0  0  0  0  0  0  0  0  0  0  0
   -4.9571   12.4248   36.8042 C   0  0  0  0  0  0  0  0  0  0  0  0
   -3.4247   12.0897   36.8473 C   0  0  2  0  0  0  0  0  0  0  0  0
   -2.6610   13.2443   36.3790 N   0  0  0  0  0  0  0  0  0  0  0  0
   -3.0517   10.8298   35.9462 C   0  0  2  0  0  0  0  0  0  0  0  0
   -3.8844    9.6225   36.4664 C   0  0  2  0  0  0  0  0  0  0  0  0
   -3.4676    8.4777   35.5729 O   0  0  0  0  0  0  0  0  0  0  0  0
   -5.4741    9.9513   36.3560 C   0  0  1  0  0  0  0  0  0  0  0  0
   -6.3583    8.9044   36.8702 O   0  0  0  0  0  0  0  0  0  0  0  0
   -3.8522    7.2708   36.0951 C   0  0  1  0  0  0  0  0  0  0  0  0
   -3.7194    6.1630   35.1431 C   0  0  2  0  0  0  0  0  0  0  0  0
   -4.7317    6.3033   34.1984 O   0  0  0  0  0  0  0  0  0  0  0  0
   -3.7150    4.9484   36.0959 C   0  0  2  0  0  0  0  0  0  0  0  0
   -4.8584    4.1375   35.7430 O   0  0  0  0  0  0  0  0  0  0  0  0
   -3.8295    5.5344   37.4645 C   0  0  2  0  0  0  0  0  0  0  0  0
   -3.1001    6.7844   37.1943 O   0  0  0  0  0  0  0  0  0  0  0  0
   -3.0617    4.6747   38.5350 C   0  0  0  0  0  0  0  0  0  0  0  0
   -1.6311    4.5556   38.2736 O   0  0  0  0  0  0  0  0  0  0  0  0
   -4.9069    2.7877   36.2970 C   0  0  2  0  0  0  0  0  0  0  0  0
   -6.0845    1.9687   35.5509 C   0  0  2  0  0  0  0  0  0  0  0  0
   -7.3837    2.6920   35.7397 N   0  0  0  0  0  0  0  0  0  0  0  0
   -6.1286    0.4833   36.1638 C   0  0  1  0  0  0  0  0  0  0  0  0
   -4.8195   -0.1204   35.9326 O   0  0  0  0  0  0  0  0  0  0  0  0
   -6.4574    0.5621   37.7226 C   0  0  2  0  0  0  0  0  0  0  0  0
   -7.7986    1.1692   37.8735 O   0  0  0  0  0  0  0  0  0  0  0  0
   -5.2879    1.4407   38.4452 C   0  0  1  0  0  0  0  0  0  0  0  0
   -5.2142    2.8060   37.8084 O   0  0  0  0  0  0  0  0  0  0  0  0
   -5.5885    1.5536   39.9767 C   0  0  0  0  0  0  0  0  0  0  0  0
   -5.4796    0.2421   40.6876 N   0  0  0  0  0  0  0  0  0  0  0  0
  1  3  1  0  0  0  0
  1  2  1  1  0  0  0
  3  4  1  1  0  0  0
  3  5  1  0  0  0  0
  5  6  1  6  0  0  0
  7  8  1  1  0  0  0
  7  5  1  0  0  0  0
  9 11  1  6  0  0  0
  9  7  1  0  0  0  0
 10  9  1  0  0  0  0
 10  1  1  0  0  0  0
 12 11  1  0  0  0  0
 13 14  1  6  0  0  0
 15 13  1  0  0  0  0
 16 17  1  6  0  0  0
 16 15  1  0  0  0  0
 18  2  1  1  0  0  0
 18 19  1  0  0  0  0
 18 16  1  0  0  0  0
 19 20  1  6  0  0  0
 19 21  1  0  0  0  0
 21 22  1  1  0  0  0
 21 13  1  0  0  0  0
 23 20  1  6  0  0  0
 23 29  1  0  0  0  0
 24 25  1  6  0  0  0
 24 26  1  0  0  0  0
 24 23  1  0  0  0  0
 26 27  1  6  0  0  0
 26 28  1  0  0  0  0
 28 30  1  1  0  0  0
 29 28  1  0  0  0  0
 30 31  1  0  0  0  0
 32 27  1  6  0  0  0
 32 40  1  0  0  0  0
 33 35  1  0  0  0  0
 33 32  1  0  0  0  0
 33 34  1  1  0  0  0
 35 36  1  1  0  0  0
 35 37  1  0  0  0  0
 37 38  1  6  0  0  0
 37 39  1  0  0  0  0
 39 41  1  1  0  0  0
 40 39  1  0  0  0  0
 41 42  1  0  0  0  0
M  END
>  <CHROM.1>
-83.65165302,64.90222805,-76.85178207,165.00660554,168.10648205,166.72339838
60.35052529,-168.70788537,67.00496392,-3.24842063,7.01427139,36.33644167
-1.06375097,-0.21005902,3.04218695

>  <Name>
lig.pdb

>  <RI>
0

>  <Rbt.Current_Directory>
/home/itssahil/PROJECTS/Mol_Feturizer/New_Systems/rnas/4wcr

>  <Rbt.Executable>
rbdock ($Id: //depot/dev/client3/rdock/2013.1/src/exe/rbdock.cxx#4 $)

>  <Rbt.Library>
libRbt.so (2013.1, Build901 2013/11/27)

>  <Rbt.Parameter_File>
/export/apps/rDock/src/rDock_2013.1_src/data/scripts/dock_solv.prm

>  <Rbt.Receptor>
prm/pocket_docking_8.prm

>  <SCORE>
-5.51798

>  <SCORE.INTER>
0.663789

>  <SCORE.INTER.CONST>
1

>  <SCORE.INTER.POLAR>
0

>  <SCORE.INTER.ROT>
9

>  <SCORE.INTER.SOLV>
19.5153

>  <SCORE.INTER.VDW>
-15.6626

>  <SCORE.INTER.norm>
0.0158045

>  <SCORE.INTRA>
-6.18177

>  <SCORE.INTRA.DIHEDRAL>
-8.59339

>  <SCORE.INTRA.DIHEDRAL.0>
16.2863

>  <SCORE.INTRA.POLAR>
0

>  <SCORE.INTRA.POLAR.0>
0

>  <SCORE.INTRA.REPUL>
-0.308489

>  <SCORE.INTRA.REPUL.0>
0.314433

>  <SCORE.INTRA.SOLV>
-2.50277

>  <SCORE.INTRA.SOLV.lig_0>
-103.824

>  <SCORE.INTRA.VDW>
0.908762

>  <SCORE.INTRA.VDW.0>
-5.30945

>  <SCORE.INTRA.norm>
-0.147185

>  <SCORE.RESTR>
0

>  <SCORE.RESTR.CAVITY>
0

>  <SCORE.RESTR.norm>
0

>  <SCORE.SYSTEM>
0

>  <SCORE.SYSTEM.CONST>
0

>  <SCORE.SYSTEM.DIHEDRAL>
0

>  <SCORE.SYSTEM.SOLV>
0

>  <SCORE.SYSTEM.norm>
0

>  <SCORE.heavy>
42

>  <SCORE.norm>
-0.13138

>  <RMSD>
6.978

$$$$
lig.pdb
 OpenBabel11021811513D
libRbt.so/2013.1/901 2013/11/27
 42 45  0  0  0  0  0  0  0  0999 V2000
   -3.2879   10.4122   35.2122 C   0  0  2  0  0  0  0  0  0  0  0  0
   -1.8371   10.3050   35.0677 O   0  0  0  0  0  0  0  0  0  0  0  0
   -3.9031   10.0510   33.7871 C   0  0  2  0  0  0  0  0  0  0  0  0
   -3.5617    8.6739   33.4197 N   0  0  0  0  0  0  0  0  0  0  0  0
   -3.3707   11.1162   32.7093 C   0  0  1  0  0  0  0  0  0  0  0  0
   -3.9072   10.8427   31.3979 O   0  0  0  0  0  0  0  0  0  0  0  0
   -3.7808   12.5121   33.2091 C   0  0  2  0  0  0  0  0  0  0  0  0
   -3.3345   13.4607   32.3010 O   0  0  0  0  0  0  0  0  0  0  0  0
   -3.1624   12.7746   34.6572 C   0  0  2  0  0  0  0  0  0  0  0  0
   -3.6184   11.7987   35.6024 O   0  0  0  0  0  0  0  0  0  0  0  0
   -3.5500   14.1207   35.2003 C   0  0  0  0  0  0  0  0  0  0  0  0
   -2.8662   14.2994   36.4413 O   0  0  0  0  0  0  0  0  0  0  0  0
    1.5283    9.7465   37.9198 C   0  0  2  0  0  0  0  0  0  0  0  0
    2.4907   10.0069   38.9681 N   0  0  0  0  0  0  0  0  0  0  0  0
    1.6076   10.8713   36.8165 C   0  0  0  0  0  0  0  0  0  0  0  0
    0.5690   10.6139   35.6688 C   0  0  2  0  0  0  0  0  0  0  0  0
    0.6699   11.6794   34.6736 N   0  0  0  0  0  0  0  0  0  0  0  0
   -0.9298   10.5559   36.2061 C   0  0  2  0  0  0  0  0  0  0  0  0
   -1.0009    9.4180   37.2653 C   0  0  2  0  0  0  0  0  0  0  0  0
   -2.4439    9.4235   37.7128 O   0  0  0  0  0  0  0  0  0  0  0  0
    0.0304    9.7256   38.4857 C   0  0  1  0  0  0  0  0  0  0  0  0
    0.0902    8.6909   39.5191 O   0  0  0  0  0  0  0  0  0  0  0  0
   -2.8464    8.1776   38.1166 C   0  0  1  0  0  0  0  0  0  0  0  0
   -2.6842    7.1553   37.0775 C   0  0  2  0  0  0  0  0  0  0  0  0
   -3.6654    7.3801   36.1166 O   0  0  0  0  0  0  0  0  0  0  0  0
   -2.7116    5.8633   37.9219 C   0  0  2  0  0  0  0  0  0  0  0  0
   -3.8439    5.0900   37.4642 O   0  0  0  0  0  0  0  0  0  0  0  0
   -2.8695    6.3298   39.3315 C   0  0  2  0  0  0  0  0  0  0  0  0
   -2.1305    7.5957   39.1934 O   0  0  0  0  0  0  0  0  0  0  0  0
   -2.1373    5.3783   40.3480 C   0  0  0  0  0  0  0  0  0  0  0  0
   -0.6945    5.3023   40.1437 O   0  0  0  0  0  0  0  0  0  0  0  0
   -3.7483    4.5053   36.1301 C   0  0  2  0  0  0  0  0  0  0  0  0
   -5.1355    3.7415   35.8038 C   0  0  2  0  0  0  0  0  0  0  0  0
   -5.3808    2.6968   36.8504 N   0  0  0  0  0  0  0  0  0  0  0  0
   -5.0234    3.1041   34.3324 C   0  0  1  0  0  0  0  0  0  0  0  0
   -4.7784    4.2018   33.4016 O   0  0  0  0  0  0  0  0  0  0  0  0
   -3.8287    2.0475   34.3016 C   0  0  2  0  0  0  0  0  0  0  0  0
   -4.1558    0.9645   35.2557 O   0  0  0  0  0  0  0  0  0  0  0  0
   -2.4496    2.8281   34.6897 C   0  0  1  0  0  0  0  0  0  0  0  0
   -2.6000    3.4792   36.0418 O   0  0  0  0  0  0  0  0  0  0  0  0
   -1.2564    1.8157   34.6863 C   0  0  0  0  0  0  0  0  0  0  0  0
   -1.0105    1.2132   33.3395 N   0  0  0  0  0  0  0  0  0  0  0  0
  1  3  1  0  0  0  0
  1  2  1  6  0  0  0
  3  4  1  6  0  0  0
  3  5  1  0  0  0  0
  5  6  1  6  0  0  0
  7  8  1  6  0  0  0
  7  5  1  0  0  0  0
  9 11  1  1  0  0  0
  9  7  1  0  0  0  0
 10  9  1  0  0  0  0
 10  1  1  0  0  0  0
 12 11  1  0  0  0  0
 13 14  1  1  0  0  0
 15 13  1  0  0  0  0
 16 17  1  6  0  0  0
 16 15  1  0  0  0  0
 18  2  1  6  0  0  0
 18 19  1  0  0  0  0
 18 16  1  0  0  0  0
 19 20  1  1  0  0  0
 19 21  1  0  0  0  0
 21 22  1  1  0  0  0
 21 13  1  0  0  0  0
 23 20  1  6  0  0  0
 23 29  1  0  0  0  0
 24 25  1  6  0  0  0
 24 26  1  0  0  0  0
 24 23  1  0  0  0  0
 26 27  1  6  0  0  0
 26 28  1  0  0  0  0
 28 30  1  1  0  0  0
 29 28  1  0  0  0  0
 30 31  1  0  0  0  0
 32 27  1  1  0  0  0
 32 40  1  0  0  0  0
 33 35  1  0  0  0  0
 33 32  1  0  0  0  0
 33 34  1  1  0  0  0
 35 36  1  6  0  0  0
 35 37  1  0  0  0  0
 37 38  1  1  0  0  0
 37 39  1  0  0  0  0
 39 41  1  1  0  0  0
 40 39  1  0  0  0  0
 41 42  1  0  0  0  0
M  END
>  <CHROM.1>
-179.20159846,-175.52054584,-170.05071910,151.05375774,-57.43005855,69.69883502
61.77372623,-177.75832394,62.74644716,-2.40894184,7.86359664,36.02603490
1.30837440,-0.95946000,-0.28334936

>  <Name>
lig.pdb

>  <RI>
0

>  <Rbt.Current_Directory>
/home/itssahil/PROJECTS/Mol_Feturizer/New_Systems/rnas/4wcr

>  <Rbt.Executable>
rbdock ($Id: //depot/dev/client3/rdock/2013.1/src/exe/rbdock.cxx#4 $)

>  <Rbt.Library>
libRbt.so (2013.1, Build901 2013/11/27)

>  <Rbt.Parameter_File>
/export/apps/rDock/src/rDock_2013.1_src/data/scripts/dock_solv.prm

>  <Rbt.Receptor>
prm/pocket_docking_6.prm

>  <SCORE>
-1.98114

>  <SCORE.INTER>
5.0209

>  <SCORE.INTER.CONST>
1

>  <SCORE.INTER.POLAR>
0

>  <SCORE.INTER.ROT>
9

>  <SCORE.INTER.SOLV>
13.37

>  <SCORE.INTER.VDW>
-10.7094

>  <SCORE.INTER.norm>
0.119545

>  <SCORE.INTRA>
-7.00203

>  <SCORE.INTRA.DIHEDRAL>
-11.2545

>  <SCORE.INTRA.DIHEDRAL.0>
16.2863

>  <SCORE.INTRA.POLAR>
0

>  <SCORE.INTRA.POLAR.0>
0

>  <SCORE.INTRA.REPUL>
-0.314433

>  <SCORE.INTRA.REPUL.0>
0.314433

>  <SCORE.INTRA.SOLV>
-3.1519

>  <SCORE.INTRA.SOLV.lig_0>
-103.824

>  <SCORE.INTRA.VDW>
1.77331

>  <SCORE.INTRA.VDW.0>
-5.30945

>  <SCORE.INTRA.norm>
-0.166715

>  <SCORE.RESTR>
0

>  <SCORE.RESTR.CAVITY>
0

>  <SCORE.RESTR.norm>
0

>  <SCORE.SYSTEM>
0

>  <SCORE.SYSTEM.CONST>
0

>  <SCORE.SYSTEM.DIHEDRAL>
0

>  <SCORE.SYSTEM.SOLV>
0

>  <SCORE.SYSTEM.norm>
0

>  <SCORE.heavy>
42

>  <SCORE.norm>
-0.04717

>  <RMSD>
7.011

$$$$
lig.pdb
 OpenBabel11021811513D
libRbt.so/2013.1/901 2013/11/27
 42 45  0  0  0  0  0  0  0  0999 V2000
   -4.8803   12.0517   38.8280 C   0  0  2  0  0  0  0  0  0  0  0  0
   -3.9716   12.6951   39.7752 O   0  0  0  0  0  0  0  0  0  0  0  0
   -5.2967   13.1772   37.7792 C   0  0  2  0  0  0  0  0  0  0  0  0
   -4.1173   13.6593   37.0551 N   0  0  0  0  0  0  0  0  0  0  0  0
   -6.0531   14.3583   38.5618 C   0  0  1  0  0  0  0  0  0  0  0  0
   -6.4643   15.4035   37.6556 O   0  0  0  0  0  0  0  0  0  0  0  0
   -7.2571   13.7278   39.2825 C   0  0  2  0  0  0  0  0  0  0  0  0
   -7.9351   14.7215   39.9727 O   0  0  0  0  0  0  0  0  0  0  0  0
   -6.7572   12.5833   40.2768 C   0  0  2  0  0  0  0  0  0  0  0  0
   -6.0552   11.5518   39.5719 O   0  0  0  0  0  0  0  0  0  0  0  0
   -7.8993   11.9208   40.9936 C   0  0  0  0  0  0  0  0  0  0  0  0
   -7.3660   10.8222   41.7341 O   0  0  0  0  0  0  0  0  0  0  0  0
   -1.0758   10.9951   42.6902 C   0  0  2  0  0  0  0  0  0  0  0  0
   -0.5380   10.3784   43.8833 N   0  0  0  0  0  0  0  0  0  0  0  0
   -1.9213   12.2713   43.0711 C   0  0  0  0  0  0  0  0  0  0  0  0
   -2.5201   12.9569   41.7929 C   0  0  2  0  0  0  0  0  0  0  0  0
   -3.3000   14.1275   42.1892 N   0  0  0  0  0  0  0  0  0  0  0  0
   -3.4579   11.9755   40.9588 C   0  0  2  0  0  0  0  0  0  0  0  0
   -2.6003   10.7402   40.5586 C   0  0  2  0  0  0  0  0  0  0  0  0
   -3.5531    9.8726   39.7698 O   0  0  0  0  0  0  0  0  0  0  0  0
   -2.0381    9.9951   41.8914 C   0  0  1  0  0  0  0  0  0  0  0  0
   -1.1688    8.8457   41.6358 O   0  0  0  0  0  0  0  0  0  0  0  0
   -2.9010    9.1888   38.7776 C   0  0  1  0  0  0  0  0  0  0  0  0
   -2.4887   10.0473   37.6621 C   0  0  2  0  0  0  0  0  0  0  0  0
   -3.6365   10.3845   36.9510 O   0  0  0  0  0  0  0  0  0  0  0  0
   -1.3986    9.1766   37.0014 C   0  0  2  0  0  0  0  0  0  0  0  0
   -1.8445    8.9012   35.6543 O   0  0  0  0  0  0  0  0  0  0  0  0
   -1.3283    7.9456   37.8438 C   0  0  2  0  0  0  0  0  0  0  0  0
   -1.6702    8.5785   39.1285 O   0  0  0  0  0  0  0  0  0  0  0  0
    0.1289    7.3555   37.8966 C   0  0  0  0  0  0  0  0  0  0  0  0
    0.5601    6.7474   36.6422 O   0  0  0  0  0  0  0  0  0  0  0  0
   -0.8651    8.3216   34.7400 C   0  0  2  0  0  0  0  0  0  0  0  0
    0.3722    9.3520   34.5929 C   0  0  2  0  0  0  0  0  0  0  0  0
   -0.1402   10.6692   34.0936 N   0  0  0  0  0  0  0  0  0  0  0  0
    1.4472    8.7050   33.5881 C   0  0  1  0  0  0  0  0  0  0  0  0
    1.8691    7.4320   34.1651 O   0  0  0  0  0  0  0  0  0  0  0  0
    0.7751    8.4922   32.1572 C   0  0  2  0  0  0  0  0  0  0  0  0
    0.3892    9.8220   31.6346 O   0  0  0  0  0  0  0  0  0  0  0  0
   -0.5042    7.4962   32.3395 C   0  0  1  0  0  0  0  0  0  0  0  0
   -1.4668    8.0865   33.3394 O   0  0  0  0  0  0  0  0  0  0  0  0
   -1.1999    7.2787   30.9548 C   0  0  0  0  0  0  0  0  0  0  0  0
   -2.3885    6.3745   31.0382 N   0  0  0  0  0  0  0  0  0  0  0  0
  1  3  1  0  0  0  0
  1  2  1  1  0  0  0
  3  4  1  1  0  0  0
  3  5  1  0  0  0  0
  5  6  1  6  0  0  0
  7  8  1  1  0  0  0
  7  5  1  0  0  0  0
  9 11  1  6  0  0  0
  9  7  1  0  0  0  0
 10  9  1  0  0  0  0
 10  1  1  0  0  0  0
 12 11  1  0  0  0  0
 13 14  1  1  0  0  0
 15 13  1  0  0  0  0
 16 17  1  1  0  0  0
 16 15  1  0  0  0  0
 18  2  1  6  0  0  0
 18 19  1  0  0  0  0
 18 16  1  0  0  0  0
 19 20  1  1  0  0  0
 19 21  1  0  0  0  0
 21 22  1  6  0  0  0
 21 13  1  0  0  0  0
 23 20  1  1  0  0  0
 23 29  1  0  0  0  0
 24 25  1  6  0  0  0
 24 26  1  0  0  0  0
 24 23  1  0  0  0  0
 26 27  1  6  0  0  0
 26 28  1  0  0  0  0
 28 30  1  1  0  0  0
 29 28  1  0  0  0  0
 30 31  1  0  0  0  0
 32 27  1  1  0  0  0
 32 40  1  0  0  0  0
 33 35  1  0  0  0  0
 33 32  1  0  0  0  0
 33 34  1  6  0  0  0
 35 36  1  1  0  0  0
 35 37  1  0  0  0  0
 37 38  1  1  0  0  0
 37 39  1  0  0  0  0
 39 41  1  6  0  0  0
 40 39  1  0  0  0  0
 41 42  1  0  0  0  0
M  END
>  <CHROM.1>
175.29626913,173.51336674,-179.05847393,146.83805326,-72.36878489,168.00392002
-71.00945559,-60.51849903,-179.91813489,-2.69845207,10.44394763,37.84892667
2.24107792,-0.64879650,1.45859727

>  <Name>
lig.pdb

>  <RI>
0

>  <Rbt.Current_Directory>
/home/itssahil/PROJECTS/Mol_Feturizer/New_Systems/rnas/4wcr

>  <Rbt.Executable>
rbdock ($Id: //depot/dev/client3/rdock/2013.1/src/exe/rbdock.cxx#4 $)

>  <Rbt.Library>
libRbt.so (2013.1, Build901 2013/11/27)

>  <Rbt.Parameter_File>
/export/apps/rDock/src/rDock_2013.1_src/data/scripts/dock_solv.prm

>  <Rbt.Receptor>
prm/pocket_docking_6.prm

>  <SCORE>
-2.69642

>  <SCORE.INTER>
3.61174

>  <SCORE.INTER.CONST>
1

>  <SCORE.INTER.POLAR>
0

>  <SCORE.INTER.ROT>
9

>  <SCORE.INTER.SOLV>
12.7563

>  <SCORE.INTER.VDW>
-11.4443

>  <SCORE.INTER.norm>
0.0859939

>  <SCORE.INTRA>
-6.30943

>  <SCORE.INTRA.DIHEDRAL>
-9.49113

>  <SCORE.INTRA.DIHEDRAL.0>
16.2863

>  <SCORE.INTRA.POLAR>
0

>  <SCORE.INTRA.POLAR.0>
0

>  <SCORE.INTRA.REPUL>
-0.314433

>  <SCORE.INTRA.REPUL.0>
0.314433

>  <SCORE.INTRA.SOLV>
-2.87053

>  <SCORE.INTRA.SOLV.lig_0>
-103.824

>  <SCORE.INTRA.VDW>
1.44356

>  <SCORE.INTRA.VDW.0>
-5.30945

>  <SCORE.INTRA.norm>
-0.150225

>  <SCORE.RESTR>
0.00126931

>  <SCORE.RESTR.CAVITY>
0.00126931

>  <SCORE.RESTR.norm>
3.02216e-05

>  <SCORE.SYSTEM>
0

>  <SCORE.SYSTEM.CONST>
0

>  <SCORE.SYSTEM.DIHEDRAL>
0

>  <SCORE.SYSTEM.SOLV>
0

>  <SCORE.SYSTEM.norm>
0

>  <SCORE.heavy>
42

>  <SCORE.norm>
-0.0642005

>  <RMSD>
7.014

$$$$
lig.pdb
 OpenBabel11021811513D
libRbt.so/2013.1/901 2013/11/27
 42 45  0  0  0  0  0  0  0  0999 V2000
   -6.4362   13.1994   42.1126 C   0  0  2  0  0  0  0  0  0  0  0  0
   -5.8528   14.3950   41.5065 O   0  0  0  0  0  0  0  0  0  0  0  0
   -7.7518   13.6839   42.8705 C   0  0  2  0  0  0  0  0  0  0  0  0
   -8.7095   14.2497   41.9163 N   0  0  0  0  0  0  0  0  0  0  0  0
   -7.3343   14.7377   44.0084 C   0  0  1  0  0  0  0  0  0  0  0  0
   -8.4900   15.2029   44.7367 O   0  0  0  0  0  0  0  0  0  0  0  0
   -6.3280   14.0324   44.9338 C   0  0  2  0  0  0  0  0  0  0  0  0
   -5.9426   14.9162   45.9309 O   0  0  0  0  0  0  0  0  0  0  0  0
   -5.0655   13.5403   44.0897 C   0  0  2  0  0  0  0  0  0  0  0  0
   -5.4544   12.6264   43.0568 O   0  0  0  0  0  0  0  0  0  0  0  0
   -4.0584   12.8263   44.9460 C   0  0  0  0  0  0  0  0  0  0  0  0
   -3.2129   13.8152   45.5349 O   0  0  0  0  0  0  0  0  0  0  0  0
   -2.6979   14.8433   38.4051 C   0  0  2  0  0  0  0  0  0  0  0  0
   -1.3961   14.9129   37.7779 N   0  0  0  0  0  0  0  0  0  0  0  0
   -2.7824   15.8713   39.5987 C   0  0  0  0  0  0  0  0  0  0  0  0
   -4.1853   15.8124   40.2995 C   0  0  2  0  0  0  0  0  0  0  0  0
   -4.2193   16.7721   41.4010 N   0  0  0  0  0  0  0  0  0  0  0  0
   -4.5188   14.3636   40.8725 C   0  0  2  0  0  0  0  0  0  0  0  0
   -4.4685   13.3676   39.6779 C   0  0  2  0  0  0  0  0  0  0  0  0
   -4.8029   12.0320   40.3001 O   0  0  0  0  0  0  0  0  0  0  0  0
   -2.9903   13.3849   38.9981 C   0  0  1  0  0  0  0  0  0  0  0  0
   -2.8403   12.5232   37.8245 O   0  0  0  0  0  0  0  0  0  0  0  0
   -4.8223   11.0344   39.3611 C   0  0  1  0  0  0  0  0  0  0  0  0
   -5.1181    9.7149   39.9291 C   0  0  2  0  0  0  0  0  0  0  0  0
   -3.9908    9.3036   40.6338 O   0  0  0  0  0  0  0  0  0  0  0  0
   -5.5674    8.9413   38.6710 C   0  0  2  0  0  0  0  0  0  0  0  0
   -4.6431    7.8423   38.5050 O   0  0  0  0  0  0  0  0  0  0  0  0
   -5.4812    9.9344   37.5591 C   0  0  2  0  0  0  0  0  0  0  0  0
   -5.8127   11.1306   38.3509 O   0  0  0  0  0  0  0  0  0  0  0  0
   -6.5814    9.6826   36.4635 C   0  0  0  0  0  0  0  0  0  0  0  0
   -7.9200    9.4900   37.0114 O   0  0  0  0  0  0  0  0  0  0  0  0
   -4.8079    7.0152   37.3136 C   0  0  2  0  0  0  0  0  0  0  0  0
   -3.9927    5.6357   37.5298 C   0  0  2  0  0  0  0  0  0  0  0  0
   -2.5507    5.9511   37.7902 N   0  0  0  0  0  0  0  0  0  0  0  0
   -4.1824    4.7296   36.2156 C   0  0  1  0  0  0  0  0  0  0  0  0
   -5.6140    4.4925   36.0550 O   0  0  0  0  0  0  0  0  0  0  0  0
   -3.5818    5.4956   34.9519 C   0  0  2  0  0  0  0  0  0  0  0  0
   -2.1324    5.6853   35.1827 O   0  0  0  0  0  0  0  0  0  0  0  0
   -4.3797    6.9092   34.7878 C   0  0  1  0  0  0  0  0  0  0  0  0
   -4.2498    7.7138   36.0568 O   0  0  0  0  0  0  0  0  0  0  0  0
   -3.8032    7.6969   33.5648 C   0  0  0  0  0  0  0  0  0  0  0  0
   -4.5240    8.9826   33.3105 N   0  0  0  0  0  0  0  0  0  0  0  0
  1  3  1  0  0  0  0
  1  2  1  1  0  0  0
  3  4  1  6  0  0  0
  3  5  1  0  0  0  0
  5  6  1  1  0  0  0
  7  8  1  1  0  0  0
  7  5  1  0  0  0  0
  9 11  1  1  0  0  0
  9  7  1  0  0  0  0
 10  9  1  0  0  0  0
 10  1  1  0  0  0  0
 12 11  1  0  0  0  0
 13 14  1  1  0  0  0
 15 13  1  0  0  0  0
 16 17  1  1  0  0  0
 16 15  1  0  0  0  0
 18  2  1  6  0  0  0
 18 19  1  0  0  0  0
 18 16  1  0  0  0  0
 19 20  1  1  0  0  0
 19 21  1  0  0  0  0
 21 22  1  6  0  0  0
 21 13  1  0  0  0  0
 23 20  1  1  0  0  0
 23 29  1  0  0  0  0
 24 25  1  6  0  0  0
 24 26  1  0  0  0  0
 24 23  1  0  0  0  0
 26 27  1  6  0  0  0
 26 28  1  0  0  0  0
 28 30  1  6  0  0  0
 29 28  1  0  0  0  0
 30 31  1  0  0  0  0
 32 27  1  1  0  0  0
 32 40  1  0  0  0  0
 33 35  1  0  0  0  0
 33 32  1  0  0  0  0
 33 34  1  6  0  0  0
 35 36  1  6  0  0  0
 35 37  1  0  0  0  0
 37 38  1  1  0  0  0
 37 39  1  0  0  0  0
 39 41  1  6  0  0  0
 40 39  1  0  0  0  0
 41 42  1  0  0  0  0
M  END
>  <CHROM.1>
171.58793820,-85.01123017,179.38735576,178.98527159,178.88736254,-175.67115935
47.94914821,-163.78481228,177.51530321,-4.84803785,11.14050596,39.54648638
1.80642250,1.00693354,0.55719265

>  <Name>
lig.pdb

>  <RI>
0

>  <Rbt.Current_Directory>
/home/itssahil/PROJECTS/Mol_Feturizer/New_Systems/rnas/4wcr

>  <Rbt.Executable>
rbdock ($Id: //depot/dev/client3/rdock/2013.1/src/exe/rbdock.cxx#4 $)

>  <Rbt.Library>
libRbt.so (2013.1, Build901 2013/11/27)

>  <Rbt.Parameter_File>
/export/apps/rDock/src/rDock_2013.1_src/data/scripts/dock_solv.prm

>  <Rbt.Receptor>
prm/pocket_docking_8.prm

>  <SCORE>
-9.52302

>  <SCORE.INTER>
-1.04164

>  <SCORE.INTER.CONST>
1

>  <SCORE.INTER.POLAR>
0

>  <SCORE.INTER.ROT>
9

>  <SCORE.INTER.SOLV>
17.896

>  <SCORE.INTER.VDW>
-16.2598

>  <SCORE.INTER.norm>
-0.0248009

>  <SCORE.INTRA>
-8.48138

>  <SCORE.INTRA.DIHEDRAL>
-11.6327

>  <SCORE.INTRA.DIHEDRAL.0>
16.2863

>  <SCORE.INTRA.POLAR>
0

>  <SCORE.INTRA.POLAR.0>
0

>  <SCORE.INTRA.REPUL>
-0.314433

>  <SCORE.INTRA.REPUL.0>
0.314433

>  <SCORE.INTRA.SOLV>
-5.07839

>  <SCORE.INTRA.SOLV.lig_0>
-103.824

>  <SCORE.INTRA.VDW>
1.44632

>  <SCORE.INTRA.VDW.0>
-5.30945

>  <SCORE.INTRA.norm>
-0.201938

>  <SCORE.RESTR>
0

>  <SCORE.RESTR.CAVITY>
0

>  <SCORE.RESTR.norm>
0

>  <SCORE.SYSTEM>
0

>  <SCORE.SYSTEM.CONST>
0

>  <SCORE.SYSTEM.DIHEDRAL>
0

>  <SCORE.SYSTEM.SOLV>
0

>  <SCORE.SYSTEM.norm>
0

>  <SCORE.heavy>
42

>  <SCORE.norm>
-0.226738

>  <RMSD>
7.025

$$$$
lig.pdb
 OpenBabel11021811513D
libRbt.so/2013.1/901 2013/11/27
 42 45  0  0  0  0  0  0  0  0999 V2000
   -5.0241   12.6035   38.9468 C   0  0  2  0  0  0  0  0  0  0  0  0
   -3.7137   11.9739   38.7933 O   0  0  0  0  0  0  0  0  0  0  0  0
   -5.7530   11.8264   40.1320 C   0  0  2  0  0  0  0  0  0  0  0  0
   -5.0011   11.9815   41.3803 N   0  0  0  0  0  0  0  0  0  0  0  0
   -5.9216   10.2852   39.7126 C   0  0  1  0  0  0  0  0  0  0  0  0
   -6.5885    9.5336   40.7485 O   0  0  0  0  0  0  0  0  0  0  0  0
   -6.7131   10.2570   38.3938 C   0  0  2  0  0  0  0  0  0  0  0  0
   -6.8767    8.9375   37.9991 O   0  0  0  0  0  0  0  0  0  0  0  0
   -5.9383   11.0938   37.2767 C   0  0  2  0  0  0  0  0  0  0  0  0
   -5.7647   12.4590   37.6763 O   0  0  0  0  0  0  0  0  0  0  0  0
   -6.6810   11.1137   35.9708 C   0  0  0  0  0  0  0  0  0  0  0  0
   -5.8781   11.8247   35.0277 O   0  0  0  0  0  0  0  0  0  0  0  0
    0.1194   13.7655   37.4256 C   0  0  2  0  0  0  0  0  0  0  0  0
    1.2980   14.6031   37.3781 N   0  0  0  0  0  0  0  0  0  0  0  0
   -1.1783   14.6574   37.5219 C   0  0  0  0  0  0  0  0  0  0  0  0
   -2.4722   13.7714   37.5793 C   0  0  2  0  0  0  0  0  0  0  0  0
   -3.6482   14.6338   37.6751 N   0  0  0  0  0  0  0  0  0  0  0  0
   -2.4696   12.7701   38.8186 C   0  0  2  0  0  0  0  0  0  0  0  0
   -1.2048   11.8728   38.6894 C   0  0  2  0  0  0  0  0  0  0  0  0
   -1.2832   10.9544   39.8865 O   0  0  0  0  0  0  0  0  0  0  0  0
    0.1366   12.7937   38.6982 C   0  0  1  0  0  0  0  0  0  0  0  0
    1.3909   12.0592   38.5263 O   0  0  0  0  0  0  0  0  0  0  0  0
   -1.6163    9.6781   39.5160 C   0  0  1  0  0  0  0  0  0  0  0  0
   -1.7268    8.7588   40.6534 C   0  0  2  0  0  0  0  0  0  0  0  0
   -0.4366    8.5040   41.1087 O   0  0  0  0  0  0  0  0  0  0  0  0
   -2.5674    7.6200   40.0373 C   0  0  2  0  0  0  0  0  0  0  0  0
   -1.7587    6.4235   40.1005 O   0  0  0  0  0  0  0  0  0  0  0  0
   -2.8348    8.0565   38.6346 C   0  0  2  0  0  0  0  0  0  0  0  0
   -2.8791    9.5050   38.8948 O   0  0  0  0  0  0  0  0  0  0  0  0
   -4.2330    7.5510   38.1211 C   0  0  0  0  0  0  0  0  0  0  0  0
   -4.5006    7.8860   36.7263 O   0  0  0  0  0  0  0  0  0  0  0  0
   -2.4289    5.1579   39.8179 C   0  0  2  0  0  0  0  0  0  0  0  0
   -1.3819    3.9535   40.0777 C   0  0  2  0  0  0  0  0  0  0  0  0
   -0.1785    4.1501   39.2058 N   0  0  0  0  0  0  0  0  0  0  0  0
   -2.1284    2.5640   39.7680 C   0  0  1  0  0  0  0  0  0  0  0  0
   -3.2801    2.4818   40.6615 O   0  0  0  0  0  0  0  0  0  0  0  0
   -2.5842    2.5358   38.2396 C   0  0  2  0  0  0  0  0  0  0  0  0
   -1.3667    2.6084   37.4014 O   0  0  0  0  0  0  0  0  0  0  0  0
   -3.5938    3.7923   37.9868 C   0  0  1  0  0  0  0  0  0  0  0  0
   -2.8992    5.0807   38.3509 O   0  0  0  0  0  0  0  0  0  0  0  0
   -4.0481    3.8058   36.4895 C   0  0  0  0  0  0  0  0  0  0  0  0
   -4.8467    2.5980   36.1145 N   0  0  0  0  0  0  0  0  0  0  0  0
  1  3  1  0  0  0  0
  1  2  1  6  0  0  0
  3  4  1  1  0  0  0
  3  5  1  0  0  0  0
  5  6  1  1  0  0  0
  7  8  1  6  0  0  0
  7  5  1  0  0  0  0
  9 11  1  6  0  0  0
  9  7  1  0  0  0  0
 10  9  1  0  0  0  0
 10  1  1  0  0  0  0
 12 11  1  0  0  0  0
 13 14  1  1  0  0  0
 15 13  1  0  0  0  0
 16 17  1  1  0  0  0
 16 15  1  0  0  0  0
 18  2  1  6  0  0  0
 18 19  1  0  0  0  0
 18 16  1  0  0  0  0
 19 20  1  1  0  0  0
 19 21  1  0  0  0  0
 21 22  1  6  0  0  0
 21 13  1  0  0  0  0
 23 20  1  1  0  0  0
 23 29  1  0  0  0  0
 24 25  1  6  0  0  0
 24 26  1  0  0  0  0
 24 23  1  0  0  0  0
 26 27  1  6  0  0  0
 26 28  1  0  0  0  0
 28 30  1  1  0  0  0
 29 28  1  0  0  0  0
 30 31  1  0  0  0  0
 32 27  1  6  0  0  0
 32 40  1  0  0  0  0
 33 35  1  0  0  0  0
 33 32  1  0  0  0  0
 33 34  1  6  0  0  0
 35 36  1  1  0  0  0
 35 37  1  0  0  0  0
 37 38  1  6  0  0  0
 37 39  1  0  0  0  0
 39 41  1  6  0  0  0
 40 39  1  0  0  0  0
 41 42  1  0  0  0  0
M  END
>  <CHROM.1>
-126.73837527,-177.14217327,-63.57938365,107.62726531,-178.95626251,168.36317654
-176.47667729,-174.81741424,63.87020049,-3.11884613,8.98854070,38.61579473
1.58676300,-0.21642000,-0.05350613

>  <Name>
lig.pdb

>  <RI>
0

>  <Rbt.Current_Directory>
/home/itssahil/PROJECTS/Mol_Feturizer/New_Systems/rnas/4wcr

>  <Rbt.Executable>
rbdock ($Id: //depot/dev/client3/rdock/2013.1/src/exe/rbdock.cxx#4 $)

>  <Rbt.Library>
libRbt.so (2013.1, Build901 2013/11/27)

>  <Rbt.Parameter_File>
/export/apps/rDock/src/rDock_2013.1_src/data/scripts/dock_solv.prm

>  <Rbt.Receptor>
prm/pocket_docking_6.prm

>  <SCORE>
2.76333

>  <SCORE.INTER>
1.59887

>  <SCORE.INTER.CONST>
1

>  <SCORE.INTER.POLAR>
0

>  <SCORE.INTER.ROT>
9

>  <SCORE.INTER.SOLV>
12.1332

>  <SCORE.INTER.VDW>
-12.5785

>  <SCORE.INTER.norm>
0.0380684

>  <SCORE.INTRA>
1.16446

>  <SCORE.INTRA.DIHEDRAL>
-1.35451

>  <SCORE.INTRA.DIHEDRAL.0>
16.2863

>  <SCORE.INTRA.POLAR>
0

>  <SCORE.INTRA.POLAR.0>
0

>  <SCORE.INTRA.REPUL>
0.685567

>  <SCORE.INTRA.REPUL.0>
0.314433

>  <SCORE.INTRA.SOLV>
-2.16545

>  <SCORE.INTRA.SOLV.lig_0>
-103.824

>  <SCORE.INTRA.VDW>
-0.503399

>  <SCORE.INTRA.VDW.0>
-5.30945

>  <SCORE.INTRA.norm>
0.0277252

>  <SCORE.RESTR>
0

>  <SCORE.RESTR.CAVITY>
0

>  <SCORE.RESTR.norm>
0

>  <SCORE.SYSTEM>
0

>  <SCORE.SYSTEM.CONST>
0

>  <SCORE.SYSTEM.DIHEDRAL>
0

>  <SCORE.SYSTEM.SOLV>
0

>  <SCORE.SYSTEM.norm>
0

>  <SCORE.heavy>
42

>  <SCORE.norm>
0.0657936

>  <RMSD>
7.045

$$$$
lig.pdb
 OpenBabel11021811513D
libRbt.so/2013.1/901 2013/11/27
 42 45  0  0  0  0  0  0  0  0999 V2000
   -8.5919   14.5601   41.4049 C   0  0  2  0  0  0  0  0  0  0  0  0
   -8.2367   15.7437   40.6238 O   0  0  0  0  0  0  0  0  0  0  0  0
   -9.9867   14.8909   42.1012 C   0  0  2  0  0  0  0  0  0  0  0  0
  -11.0199   15.1200   41.0874 N   0  0  0  0  0  0  0  0  0  0  0  0
   -9.7937   16.1587   43.0683 C   0  0  1  0  0  0  0  0  0  0  0  0
  -11.0276   16.4968   43.7361 O   0  0  0  0  0  0  0  0  0  0  0  0
   -8.6860   15.7992   44.0733 C   0  0  2  0  0  0  0  0  0  0  0  0
   -8.4903   16.8752   44.9262 O   0  0  0  0  0  0  0  0  0  0  0  0
   -7.3406   15.4384   43.2936 C   0  0  2  0  0  0  0  0  0  0  0  0
   -7.5336   14.3271   42.4096 O   0  0  0  0  0  0  0  0  0  0  0  0
   -6.2294   15.0604   44.2315 C   0  0  0  0  0  0  0  0  0  0  0  0
   -5.0649   14.8103   43.4435 O   0  0  0  0  0  0  0  0  0  0  0  0
   -5.2454   16.0925   37.3523 C   0  0  2  0  0  0  0  0  0  0  0  0
   -3.9902   16.2949   36.6621 N   0  0  0  0  0  0  0  0  0  0  0  0
   -5.5792   17.3441   38.2527 C   0  0  0  0  0  0  0  0  0  0  0  0
   -6.9358   17.1474   39.0165 C   0  0  2  0  0  0  0  0  0  0  0  0
   -7.2037   18.3229   39.8425 N   0  0  0  0  0  0  0  0  0  0  0  0
   -6.9266   15.8569   39.9508 C   0  0  2  0  0  0  0  0  0  0  0  0
   -6.6335   14.6273   39.0431 C   0  0  2  0  0  0  0  0  0  0  0  0
   -6.6520   13.4553   39.9965 O   0  0  0  0  0  0  0  0  0  0  0  0
   -5.1941   14.8074   38.3062 C   0  0  1  0  0  0  0  0  0  0  0  0
   -4.8358   13.7321   37.3801 O   0  0  0  0  0  0  0  0  0  0  0  0
   -6.3031   12.2912   39.3639 C   0  0  1  0  0  0  0  0  0  0  0  0
   -6.0935   11.1733   40.2899 C   0  0  2  0  0  0  0  0  0  0  0  0
   -4.8941   11.4052   40.9566 O   0  0  0  0  0  0  0  0  0  0  0  0
   -6.2266    9.9662   39.3369 C   0  0  2  0  0  0  0  0  0  0  0  0
   -4.9630    9.2649   39.3733 O   0  0  0  0  0  0  0  0  0  0  0  0
   -6.5109   10.5639   37.9984 C   0  0  2  0  0  0  0  0  0  0  0  0
   -7.2591   11.7395   38.4738 O   0  0  0  0  0  0  0  0  0  0  0  0
   -7.4413    9.6390   37.1305 C   0  0  0  0  0  0  0  0  0  0  0  0
   -7.4087    8.2359   37.5297 O   0  0  0  0  0  0  0  0  0  0  0  0
   -4.7754    8.1915   38.4018 C   0  0  2  0  0  0  0  0  0  0  0  0
   -3.4343    7.3763   38.7905 C   0  0  2  0  0  0  0  0  0  0  0  0
   -2.2703    8.3206   38.8046 N   0  0  0  0  0  0  0  0  0  0  0  0
   -3.2371    6.1946   37.7187 C   0  0  1  0  0  0  0  0  0  0  0  0
   -4.4238    5.3467   37.7846 O   0  0  0  0  0  0  0  0  0  0  0  0
   -3.0602    6.8226   36.2631 C   0  0  2  0  0  0  0  0  0  0  0  0
   -1.8352    7.6529   36.2728 O   0  0  0  0  0  0  0  0  0  0  0  0
   -4.3995    7.6872   35.9162 C   0  0  1  0  0  0  0  0  0  0  0  0
   -4.6070    8.7443   36.9717 O   0  0  0  0  0  0  0  0  0  0  0  0
   -4.2528    8.3336   34.4987 C   0  0  0  0  0  0  0  0  0  0  0  0
   -3.1323    9.3217   34.4248 N   0  0  0  0  0  0  0  0  0  0  0  0
  1  3  1  0  0  0  0
  1  2  1  6  0  0  0
  3  4  1  6  0  0  0
  3  5  1  0  0  0  0
  5  6  1  1  0  0  0
  7  8  1  1  0  0  0
  7  5  1  0  0  0  0
  9 11  1  1  0  0  0
  9  7  1  0  0  0  0
 10  9  1  0  0  0  0
 10  1  1  0  0  0  0
 12 11  1  0  0  0  0
 13 14  1  1  0  0  0
 15 13  1  0  0  0  0
 16 17  1  1  0  0  0
 16 15  1  0  0  0  0
 18  2  1  6  0  0  0
 18 19  1  0  0  0  0
 18 16  1  0  0  0  0
 19 20  1  1  0  0  0
 19 21  1  0  0  0  0
 21 22  1  6  0  0  0
 21 13  1  0  0  0  0
 23 20  1  1  0  0  0
 23 29  1  0  0  0  0
 24 25  1  6  0  0  0
 24 26  1  0  0  0  0
 24 23  1  0  0  0  0
 26 27  1  6  0  0  0
 26 28  1  0  0  0  0
 28 30  1  6  0  0  0
 29 28  1  0  0  0  0
 30 31  1  0  0  0  0
 32 27  1  1  0  0  0
 32 40  1  0  0  0  0
 33 35  1  0  0  0  0
 33 32  1  0  0  0  0
 33 34  1  6  0  0  0
 35 36  1  6  0  0  0
 35 37  1  0  0  0  0
 37 38  1  1  0  0  0
 37 39  1  0  0  0  0
 39 41  1  6  0  0  0
 40 39  1  0  0  0  0
 41 42  1  0  0  0  0
M  END
>  <CHROM.1>
173.42327984,-177.72350095,171.60454765,-175.21378159,170.52837598,-171.34515448
-22.83554766,-169.69501998,-63.74832279,-6.13609724,12.39085203,39.46231004
2.44073037,1.02384637,-0.23324681

>  <Name>
lig.pdb

>  <RI>
0

>  <Rbt.Current_Directory>
/home/itssahil/PROJECTS/Mol_Feturizer/New_Systems/rnas/4wcr

>  <Rbt.Executable>
rbdock ($Id: //depot/dev/client3/rdock/2013.1/src/exe/rbdock.cxx#4 $)

>  <Rbt.Library>
libRbt.so (2013.1, Build901 2013/11/27)

>  <Rbt.Parameter_File>
/export/apps/rDock/src/rDock_2013.1_src/data/scripts/dock_solv.prm

>  <Rbt.Receptor>
prm/pocket_docking_7.prm

>  <SCORE>
-6.64775

>  <SCORE.INTER>
-0.640365

>  <SCORE.INTER.CONST>
1

>  <SCORE.INTER.POLAR>
0

>  <SCORE.INTER.ROT>
9

>  <SCORE.INTER.SOLV>
18.1958

>  <SCORE.INTER.VDW>
-16.0922

>  <SCORE.INTER.norm>
-0.0152468

>  <SCORE.INTRA>
-6.00738

>  <SCORE.INTRA.DIHEDRAL>
-10.7065

>  <SCORE.INTRA.DIHEDRAL.0>
16.2863

>  <SCORE.INTRA.POLAR>
0

>  <SCORE.INTRA.POLAR.0>
0

>  <SCORE.INTRA.REPUL>
-0.314433

>  <SCORE.INTRA.REPUL.0>
0.314433

>  <SCORE.INTRA.SOLV>
-3.39421

>  <SCORE.INTRA.SOLV.lig_0>
-103.824

>  <SCORE.INTRA.VDW>
2.61515

>  <SCORE.INTRA.VDW.0>
-5.30945

>  <SCORE.INTRA.norm>
-0.143033

>  <SCORE.RESTR>
0

>  <SCORE.RESTR.CAVITY>
0

>  <SCORE.RESTR.norm>
0

>  <SCORE.SYSTEM>
0

>  <SCORE.SYSTEM.CONST>
0

>  <SCORE.SYSTEM.DIHEDRAL>
0

>  <SCORE.SYSTEM.SOLV>
0

>  <SCORE.SYSTEM.norm>
0

>  <SCORE.heavy>
42

>  <SCORE.norm>
-0.15828

>  <RMSD>
7.115

$$$$
lig.pdb
 OpenBabel11021811513D
libRbt.so/2013.1/901 2013/11/27
 42 45  0  0  0  0  0  0  0  0999 V2000
   -4.9119   11.4742   37.2923 C   0  0  2  0  0  0  0  0  0  0  0  0
   -3.7932   12.0004   36.5120 O   0  0  0  0  0  0  0  0  0  0  0  0
   -6.2365   11.9617   36.5521 C   0  0  2  0  0  0  0  0  0  0  0  0
   -6.2969   11.4048   35.1978 N   0  0  0  0  0  0  0  0  0  0  0  0
   -6.2660   13.5676   36.5497 C   0  0  1  0  0  0  0  0  0  0  0  0
   -7.4541   14.0656   35.8994 O   0  0  0  0  0  0  0  0  0  0  0  0
   -6.1890   14.0256   38.0163 C   0  0  2  0  0  0  0  0  0  0  0  0
   -6.2103   15.4119   38.0529 O   0  0  0  0  0  0  0  0  0  0  0  0
   -4.8596   13.4583   38.6940 C   0  0  2  0  0  0  0  0  0  0  0  0
   -4.8291   12.0260   38.6606 O   0  0  0  0  0  0  0  0  0  0  0  0
   -4.7456   13.8625   40.1365 C   0  0  0  0  0  0  0  0  0  0  0  0
   -3.4715   13.4230   40.6091 O   0  0  0  0  0  0  0  0  0  0  0  0
    0.3746   10.5971   35.8547 C   0  0  2  0  0  0  0  0  0  0  0  0
    1.7701   10.2966   36.0899 N   0  0  0  0  0  0  0  0  0  0  0  0
    0.0915   12.1230   36.1381 C   0  0  0  0  0  0  0  0  0  0  0  0
   -1.4184   12.4742   35.8942 C   0  0  2  0  0  0  0  0  0  0  0  0
   -1.6393   13.8915   36.1739 N   0  0  0  0  0  0  0  0  0  0  0  0
   -2.3988   11.6132   36.8084 C   0  0  2  0  0  0  0  0  0  0  0  0
   -2.1341   10.1130   36.4907 C   0  0  2  0  0  0  0  0  0  0  0  0
   -3.1022    9.3729   37.3839 O   0  0  0  0  0  0  0  0  0  0  0  0
   -0.5829    9.7396   36.8097 C   0  0  1  0  0  0  0  0  0  0  0  0
   -0.2023    8.3618   36.4954 O   0  0  0  0  0  0  0  0  0  0  0  0
   -3.1940    8.0513   37.0342 C   0  0  1  0  0  0  0  0  0  0  0  0
   -4.1331    7.2982   37.8720 C   0  0  2  0  0  0  0  0  0  0  0  0
   -3.5377    7.1336   39.1191 O   0  0  0  0  0  0  0  0  0  0  0  0
   -4.4103    6.0689   36.9802 C   0  0  2  0  0  0  0  0  0  0  0  0
   -3.9709    4.9083   37.7215 O   0  0  0  0  0  0  0  0  0  0  0  0
   -3.6014    6.3000   35.7466 C   0  0  2  0  0  0  0  0  0  0  0  0
   -3.6913    7.7696   35.7366 O   0  0  0  0  0  0  0  0  0  0  0  0
   -4.2982    5.7016   34.4696 C   0  0  0  0  0  0  0  0  0  0  0  0
   -4.9436    4.4141   34.7038 O   0  0  0  0  0  0  0  0  0  0  0  0
   -3.9183    3.6426   36.9962 C   0  0  2  0  0  0  0  0  0  0  0  0
   -3.7900    2.4407   38.0701 C   0  0  2  0  0  0  0  0  0  0  0  0
   -2.5622    2.6533   38.9032 N   0  0  0  0  0  0  0  0  0  0  0  0
   -3.7366    1.0511   37.2639 C   0  0  1  0  0  0  0  0  0  0  0  0
   -4.9685    0.9527   36.4867 O   0  0  0  0  0  0  0  0  0  0  0  0
   -2.4555    1.0379   36.3136 C   0  0  2  0  0  0  0  0  0  0  0  0
   -1.2529    1.1262   37.1716 O   0  0  0  0  0  0  0  0  0  0  0  0
   -2.5783    2.2921   35.2773 C   0  0  1  0  0  0  0  0  0  0  0  0
   -2.6993    3.5797   36.0533 O   0  0  0  0  0  0  0  0  0  0  0  0
   -1.3264    2.3203   34.3389 C   0  0  0  0  0  0  0  0  0  0  0  0
   -1.2449    1.1246   33.4440 N   0  0  0  0  0  0  0  0  0  0  0  0
  1  3  1  0  0  0  0
  1  2  1  6  0  0  0
  3  4  1  6  0  0  0
  3  5  1  0  0  0  0
  5  6  1  1  0  0  0
  7  8  1  6  0  0  0
  7  5  1  0  0  0  0
  9 11  1  1  0  0  0
  9  7  1  0  0  0  0
 10  9  1  0  0  0  0
 10  1  1  0  0  0  0
 12 11  1  0  0  0  0
 13 14  1  1  0  0  0
 15 13  1  0  0  0  0
 16 17  1  1  0  0  0
 16 15  1  0  0  0  0
 18  2  1  6  0  0  0
 18 19  1  0  0  0  0
 18 16  1  0  0  0  0
 19 20  1  1  0  0  0
 19 21  1  0  0  0  0
 21 22  1  6  0  0  0
 21 13  1  0  0  0  0
 23 20  1  1  0  0  0
 23 29  1  0  0  0  0
 24 25  1  1  0  0  0
 24 26  1  0  0  0  0
 24 23  1  0  0  0  0
 26 27  1  1  0  0  0
 26 28  1  0  0  0  0
 28 30  1  6  0  0  0
 29 28  1  0  0  0  0
 30 31  1  0  0  0  0
 32 27  1  1  0  0  0
 32 40  1  0  0  0  0
 33 35  1  0  0  0  0
 33 32  1  0  0  0  0
 33 34  1  6  0  0  0
 35 36  1  6  0  0  0
 35 37  1  0  0  0  0
 37 38  1  1  0  0  0
 37 39  1  0  0  0  0
 39 41  1  6  0  0  0
 40 39  1  0  0  0  0
 41 42  1  0  0  0  0
M  END
>  <CHROM.1>
-172.56211286,-174.34067812,-173.82983667,167.56259884,-179.55912602,-169.82510736
-39.30292855,-165.27788603,64.90731575,-3.37217397,8.21401825,36.82550010
1.70676194,0.21507917,0.08606858

>  <Name>
lig.pdb

>  <RI>
0

>  <Rbt.Current_Directory>
/home/itssahil/PROJECTS/Mol_Feturizer/New_Systems/rnas/4wcr

>  <Rbt.Executable>
rbdock ($Id: //depot/dev/client3/rdock/2013.1/src/exe/rbdock.cxx#4 $)

>  <Rbt.Library>
libRbt.so (2013.1, Build901 2013/11/27)

>  <Rbt.Parameter_File>
/export/apps/rDock/src/rDock_2013.1_src/data/scripts/dock_solv.prm

>  <Rbt.Receptor>
prm/pocket_docking_8.prm

>  <SCORE>
-2.6085

>  <SCORE.INTER>
5.12903

>  <SCORE.INTER.CONST>
1

>  <SCORE.INTER.POLAR>
0

>  <SCORE.INTER.ROT>
9

>  <SCORE.INTER.SOLV>
15.75

>  <SCORE.INTER.VDW>
-11.4307

>  <SCORE.INTER.norm>
0.12212

>  <SCORE.INTRA>
-7.73753

>  <SCORE.INTRA.DIHEDRAL>
-11.7102

>  <SCORE.INTRA.DIHEDRAL.0>
16.2863

>  <SCORE.INTRA.POLAR>
0

>  <SCORE.INTRA.POLAR.0>
0

>  <SCORE.INTRA.REPUL>
-0.314433

>  <SCORE.INTRA.REPUL.0>
0.314433

>  <SCORE.INTRA.SOLV>
-4.89927

>  <SCORE.INTRA.SOLV.lig_0>
-103.824

>  <SCORE.INTRA.VDW>
2.13937

>  <SCORE.INTRA.VDW.0>
-5.30945

>  <SCORE.INTRA.norm>
-0.184227

>  <SCORE.RESTR>
0

>  <SCORE.RESTR.CAVITY>
0

>  <SCORE.RESTR.norm>
0

>  <SCORE.SYSTEM>
0

>  <SCORE.SYSTEM.CONST>
0

>  <SCORE.SYSTEM.DIHEDRAL>
0

>  <SCORE.SYSTEM.SOLV>
0

>  <SCORE.SYSTEM.norm>
0

>  <SCORE.heavy>
42

>  <SCORE.norm>
-0.0621071

>  <RMSD>
7.124

$$$$
lig.pdb
 OpenBabel11021811513D
libRbt.so/2013.1/901 2013/11/27
 42 45  0  0  0  0  0  0  0  0999 V2000
   -0.5650   11.3589   34.4773 C   0  0  2  0  0  0  0  0  0  0  0  0
   -1.5189   10.8105   35.4399 O   0  0  0  0  0  0  0  0  0  0  0  0
   -0.6373   10.4150   33.1952 C   0  0  2  0  0  0  0  0  0  0  0  0
   -1.9802   10.4539   32.6097 N   0  0  0  0  0  0  0  0  0  0  0  0
   -0.2044    8.9286   33.6227 C   0  0  1  0  0  0  0  0  0  0  0  0
   -0.2409    8.0305   32.4937 O   0  0  0  0  0  0  0  0  0  0  0  0
    1.2074    9.0222   34.2263 C   0  0  2  0  0  0  0  0  0  0  0  0
    1.6144    7.7530   34.6098 O   0  0  0  0  0  0  0  0  0  0  0  0
    1.2008   10.0192   35.4731 C   0  0  2  0  0  0  0  0  0  0  0  0
    0.7814   11.3336   35.0859 O   0  0  0  0  0  0  0  0  0  0  0  0
    2.5638   10.1611   36.0888 C   0  0  0  0  0  0  0  0  0  0  0  0
    2.4426   11.0374   37.2100 O   0  0  0  0  0  0  0  0  0  0  0  0
   -5.6701   11.6955   36.7652 C   0  0  2  0  0  0  0  0  0  0  0  0
   -7.0598   12.0966   36.7346 N   0  0  0  0  0  0  0  0  0  0  0  0
   -4.7573   12.8536   36.2045 C   0  0  0  0  0  0  0  0  0  0  0  0
   -3.2433   12.4413   36.2230 C   0  0  2  0  0  0  0  0  0  0  0  0
   -2.4347   13.5360   35.6905 N   0  0  0  0  0  0  0  0  0  0  0  0
   -2.9591   11.1302   35.3636 C   0  0  2  0  0  0  0  0  0  0  0  0
   -3.8379    9.9885   35.9517 C   0  0  2  0  0  0  0  0  0  0  0  0
   -3.5039    8.7902   35.0943 O   0  0  0  0  0  0  0  0  0  0  0  0
   -5.4112   10.3949   35.8677 C   0  0  1  0  0  0  0  0  0  0  0  0
   -6.3334    9.4158   36.4448 O   0  0  0  0  0  0  0  0  0  0  0  0
   -4.0017    7.6342   35.6357 C   0  0  1  0  0  0  0  0  0  0  0  0
   -3.9583    6.4989   34.7083 C   0  0  2  0  0  0  0  0  0  0  0  0
   -4.9429    6.7092   33.7475 O   0  0  0  0  0  0  0  0  0  0  0  0
   -4.0743    5.3095   35.6856 C   0  0  2  0  0  0  0  0  0  0  0  0
   -5.2820    4.5971   35.3340 O   0  0  0  0  0  0  0  0  0  0  0  0
   -4.1513    5.9326   37.0404 C   0  0  2  0  0  0  0  0  0  0  0  0
   -3.3092    7.1060   36.7546 O   0  0  0  0  0  0  0  0  0  0  0  0
   -3.4765    5.0305   38.1383 C   0  0  0  0  0  0  0  0  0  0  0  0
   -4.0668    3.7005   38.2472 O   0  0  0  0  0  0  0  0  0  0  0  0
   -5.4755    3.2847   35.9430 C   0  0  2  0  0  0  0  0  0  0  0  0
   -4.2799    2.3114   35.4557 C   0  0  2  0  0  0  0  0  0  0  0  0
   -4.2867    2.2340   33.9588 N   0  0  0  0  0  0  0  0  0  0  0  0
   -4.4982    0.8703   36.1335 C   0  0  1  0  0  0  0  0  0  0  0  0
   -4.4820    1.0644   37.5804 O   0  0  0  0  0  0  0  0  0  0  0  0
   -5.8921    0.2629   35.6512 C   0  0  2  0  0  0  0  0  0  0  0  0
   -5.8255    0.0831   34.1837 O   0  0  0  0  0  0  0  0  0  0  0  0
   -7.0774    1.2890   36.1028 C   0  0  1  0  0  0  0  0  0  0  0  0
   -6.8164    2.6535   35.5156 O   0  0  0  0  0  0  0  0  0  0  0  0
   -8.4608    0.7318   35.6294 C   0  0  0  0  0  0  0  0  0  0  0  0
   -9.6029    1.6244   35.9984 N   0  0  0  0  0  0  0  0  0  0  0  0
  1  3  1  0  0  0  0
  1  2  1  1  0  0  0
  3  4  1  1  0  0  0
  3  5  1  0  0  0  0
  5  6  1  6  0  0  0
  7  8  1  1  0  0  0
  7  5  1  0  0  0  0
  9 11  1  6  0  0  0
  9  7  1  0  0  0  0
 10  9  1  0  0  0  0
 10  1  1  0  0  0  0
 12 11  1  0  0  0  0
 13 14  1  6  0  0  0
 15 13  1  0  0  0  0
 16 17  1  6  0  0  0
 16 15  1  0  0  0  0
 18  2  1  1  0  0  0
 18 19  1  0  0  0  0
 18 16  1  0  0  0  0
 19 20  1  6  0  0  0
 19 21  1  0  0  0  0
 21 22  1  1  0  0  0
 21 13  1  0  0  0  0
 23 20  1  6  0  0  0
 23 29  1  0  0  0  0
 24 25  1  6  0  0  0
 24 26  1  0  0  0  0
 24 23  1  0  0  0  0
 26 27  1  6  0  0  0
 26 28  1  0  0  0  0
 28 30  1  1  0  0  0
 29 28  1  0  0  0  0
 30 31  1  0  0  0  0
 32 27  1  6  0  0  0
 32 40  1  0  0  0  0
 33 35  1  0  0  0  0
 33 32  1  0  0  0  0
 33 34  1  6  0  0  0
 35 36  1  1  0  0  0
 35 37  1  0  0  0  0
 37 38  1  6  0  0  0
 37 39  1  0  0  0  0
 39 41  1  6  0  0  0
 40 39  1  0  0  0  0
 41 42  1  0  0  0  0
M  END
>  <CHROM.1>
-82.82458387,-178.39456101,-89.57825972,168.45389959,167.54673169,168.33774435
-58.76663835,-62.43210066,-179.59447207,-3.42141120,7.12865355,35.53508276
-1.05602797,-0.18407643,-3.10159838

>  <Name>
lig.pdb

>  <RI>
0

>  <Rbt.Current_Directory>
/home/itssahil/PROJECTS/Mol_Feturizer/New_Systems/rnas/4wcr

>  <Rbt.Executable>
rbdock ($Id: //depot/dev/client3/rdock/2013.1/src/exe/rbdock.cxx#4 $)

>  <Rbt.Library>
libRbt.so (2013.1, Build901 2013/11/27)

>  <Rbt.Parameter_File>
/export/apps/rDock/src/rDock_2013.1_src/data/scripts/dock_solv.prm

>  <Rbt.Receptor>
prm/pocket_docking_8.prm

>  <SCORE>
-6.59311

>  <SCORE.INTER>
-0.787204

>  <SCORE.INTER.CONST>
1

>  <SCORE.INTER.POLAR>
0

>  <SCORE.INTER.ROT>
9

>  <SCORE.INTER.SOLV>
17.9461

>  <SCORE.INTER.VDW>
-16.1069

>  <SCORE.INTER.norm>
-0.0187429

>  <SCORE.INTRA>
-5.8059

>  <SCORE.INTRA.DIHEDRAL>
-7.90102

>  <SCORE.INTRA.DIHEDRAL.0>
16.2863

>  <SCORE.INTRA.POLAR>
0

>  <SCORE.INTRA.POLAR.0>
0

>  <SCORE.INTRA.REPUL>
-0.314307

>  <SCORE.INTRA.REPUL.0>
0.314433

>  <SCORE.INTRA.SOLV>
-2.30369

>  <SCORE.INTRA.SOLV.lig_0>
-103.824

>  <SCORE.INTRA.VDW>
0.867988

>  <SCORE.INTRA.VDW.0>
-5.30945

>  <SCORE.INTRA.norm>
-0.138236

>  <SCORE.RESTR>
0

>  <SCORE.RESTR.CAVITY>
0

>  <SCORE.RESTR.norm>
0

>  <SCORE.SYSTEM>
0

>  <SCORE.SYSTEM.CONST>
0

>  <SCORE.SYSTEM.DIHEDRAL>
0

>  <SCORE.SYSTEM.SOLV>
0

>  <SCORE.SYSTEM.norm>
0

>  <SCORE.heavy>
42

>  <SCORE.norm>
-0.156979

>  <RMSD>
7.169

$$$$
lig.pdb
 OpenBabel11021811513D
libRbt.so/2013.1/901 2013/11/27
 42 45  0  0  0  0  0  0  0  0999 V2000
   -0.3993   16.5601   36.8305 C   0  0  2  0  0  0  0  0  0  0  0  0
    0.2203   15.5094   36.0246 O   0  0  0  0  0  0  0  0  0  0  0  0
   -1.9648   16.4726   36.5447 C   0  0  2  0  0  0  0  0  0  0  0  0
   -2.4884   15.1726   36.9732 N   0  0  0  0  0  0  0  0  0  0  0  0
   -2.2210   16.7450   34.9827 C   0  0  1  0  0  0  0  0  0  0  0  0
   -3.6283   16.6888   34.6683 O   0  0  0  0  0  0  0  0  0  0  0  0
   -1.6229   18.1245   34.6579 C   0  0  2  0  0  0  0  0  0  0  0  0
   -1.8246   18.3933   33.3123 O   0  0  0  0  0  0  0  0  0  0  0  0
   -0.0670   18.1403   35.0148 C   0  0  2  0  0  0  0  0  0  0  0  0
    0.1510   17.8635   36.4039 O   0  0  0  0  0  0  0  0  0  0  0  0
    0.5626   19.4751   34.7331 C   0  0  0  0  0  0  0  0  0  0  0  0
    1.9173   19.4173   35.1814 O   0  0  0  0  0  0  0  0  0  0  0  0
    1.5051   11.2748   36.4605 C   0  0  2  0  0  0  0  0  0  0  0  0
    1.5887    9.9132   36.9421 N   0  0  0  0  0  0  0  0  0  0  0  0
    1.7069   12.2872   37.6534 C   0  0  0  0  0  0  0  0  0  0  0  0
    1.6162   13.7732   37.1574 C   0  0  2  0  0  0  0  0  0  0  0  0
    1.8009   14.6765   38.2913 N   0  0  0  0  0  0  0  0  0  0  0  0
    0.2186   14.0995   36.4656 C   0  0  2  0  0  0  0  0  0  0  0  0
    0.0511   13.1186   35.2691 C   0  0  2  0  0  0  0  0  0  0  0  0
   -1.2817   13.4985   34.6676 O   0  0  0  0  0  0  0  0  0  0  0  0
    0.0789   11.5807   35.7996 C   0  0  1  0  0  0  0  0  0  0  0  0
   -0.0155   10.5640   34.7509 O   0  0  0  0  0  0  0  0  0  0  0  0
   -1.7158   12.5519   33.7771 C   0  0  1  0  0  0  0  0  0  0  0  0
   -2.8063   13.0264   32.9187 C   0  0  2  0  0  0  0  0  0  0  0  0
   -3.9520   13.1006   33.7052 O   0  0  0  0  0  0  0  0  0  0  0  0
   -2.7327   12.0150   31.7548 C   0  0  2  0  0  0  0  0  0  0  0  0
   -4.0013   11.3228   31.7229 O   0  0  0  0  0  0  0  0  0  0  0  0
   -1.5963   11.1112   32.1035 C   0  0  2  0  0  0  0  0  0  0  0  0
   -0.7762   12.1072   32.8128 O   0  0  0  0  0  0  0  0  0  0  0  0
   -0.8434   10.5969   30.8217 C   0  0  0  0  0  0  0  0  0  0  0  0
   -1.6809    9.8009   29.9306 O   0  0  0  0  0  0  0  0  0  0  0  0
   -5.0662   11.9320   30.9317 C   0  0  2  0  0  0  0  0  0  0  0  0
   -4.9661   11.3714   29.4185 C   0  0  2  0  0  0  0  0  0  0  0  0
   -3.6111   11.6911   28.8632 N   0  0  0  0  0  0  0  0  0  0  0  0
   -6.1437   12.0438   28.5554 C   0  0  1  0  0  0  0  0  0  0  0  0
   -7.4081   11.6761   29.1860 O   0  0  0  0  0  0  0  0  0  0  0  0
   -5.9503   13.6271   28.5369 C   0  0  2  0  0  0  0  0  0  0  0  0
   -4.6602   13.9191   27.8733 O   0  0  0  0  0  0  0  0  0  0  0  0
   -5.9972   14.1630   30.0772 C   0  0  1  0  0  0  0  0  0  0  0  0
   -4.9317   13.4679   30.8875 O   0  0  0  0  0  0  0  0  0  0  0  0
   -5.7927   15.7142   30.0983 C   0  0  0  0  0  0  0  0  0  0  0  0
   -6.9207   16.4570   29.4555 N   0  0  0  0  0  0  0  0  0  0  0  0
  1  3  1  0  0  0  0
  1  2  1  6  0  0  0
  3  4  1  6  0  0  0
  3  5  1  0  0  0  0
  5  6  1  1  0  0  0
  7  8  1  6  0  0  0
  7  5  1  0  0  0  0
  9 11  1  1  0  0  0
  9  7  1  0  0  0  0
 10  9  1  0  0  0  0
 10  1  1  0  0  0  0
 12 11  1  0  0  0  0
 13 14  1  1  0  0  0
 15 13  1  0  0  0  0
 16 17  1  1  0  0  0
 16 15  1  0  0  0  0
 18  2  1  6  0  0  0
 18 19  1  0  0  0  0
 18 16  1  0  0  0  0
 19 20  1  1  0  0  0
 19 21  1  0  0  0  0
 21 22  1  6  0  0  0
 21 13  1  0  0  0  0
 23 20  1  6  0  0  0
 23 29  1  0  0  0  0
 24 25  1  1  0  0  0
 24 26  1  0  0  0  0
 24 23  1  0  0  0  0
 26 27  1  1  0  0  0
 26 28  1  0  0  0  0
 28 30  1  6  0  0  0
 29 28  1  0  0  0  0
 30 31  1  0  0  0  0
 32 27  1  1  0  0  0
 32 40  1  0  0  0  0
 33 35  1  0  0  0  0
 33 32  1  0  0  0  0
 33 34  1  6  0  0  0
 35 36  1  1  0  0  0
 35 37  1  0  0  0  0
 37 38  1  1  0  0  0
 37 39  1  0  0  0  0
 39 41  1  6  0  0  0
 40 39  1  0  0  0  0
 41 42  1  0  0  0  0
M  END
>  <CHROM.1>
-79.82718228,175.51275211,-97.88437136,-167.15916084,-164.98003851,87.98286772
-62.05994021,89.23920339,66.18343260,-2.04850224,13.94226713,33.36031310
0.48253344,-0.81273797,0.23685633

>  <Name>
lig.pdb

>  <RI>
0

>  <Rbt.Current_Directory>
/home/itssahil/PROJECTS/Mol_Feturizer/New_Systems/rnas/4wcr

>  <Rbt.Executable>
rbdock ($Id: //depot/dev/client3/rdock/2013.1/src/exe/rbdock.cxx#4 $)

>  <Rbt.Library>
libRbt.so (2013.1, Build901 2013/11/27)

>  <Rbt.Parameter_File>
/export/apps/rDock/src/rDock_2013.1_src/data/scripts/dock_solv.prm

>  <Rbt.Receptor>
prm/pocket_docking_8.prm

>  <SCORE>
-11.4835

>  <SCORE.INTER>
-11.6513

>  <SCORE.INTER.CONST>
1

>  <SCORE.INTER.POLAR>
0

>  <SCORE.INTER.ROT>
9

>  <SCORE.INTER.SOLV>
23.9082

>  <SCORE.INTER.VDW>
-25.3369

>  <SCORE.INTER.norm>
-0.277411

>  <SCORE.INTRA>
0.141049

>  <SCORE.INTRA.DIHEDRAL>
-0.286255

>  <SCORE.INTRA.DIHEDRAL.0>
16.2863

>  <SCORE.INTRA.POLAR>
0

>  <SCORE.INTRA.POLAR.0>
0

>  <SCORE.INTRA.REPUL>
-0.314433

>  <SCORE.INTRA.REPUL.0>
0.314433

>  <SCORE.INTRA.SOLV>
0.951774

>  <SCORE.INTRA.SOLV.lig_0>
-103.824

>  <SCORE.INTRA.VDW>
1.38045

>  <SCORE.INTRA.VDW.0>
-5.30945

>  <SCORE.INTRA.norm>
0.0033583

>  <SCORE.RESTR>
0.0267072

>  <SCORE.RESTR.CAVITY>
0.0267072

>  <SCORE.RESTR.norm>
0.000635885

>  <SCORE.SYSTEM>
0

>  <SCORE.SYSTEM.CONST>
0

>  <SCORE.SYSTEM.DIHEDRAL>
0

>  <SCORE.SYSTEM.SOLV>
0

>  <SCORE.SYSTEM.norm>
0

>  <SCORE.heavy>
42

>  <SCORE.norm>
-0.273417

>  <RMSD>
7.200

$$$$
lig.pdb
 OpenBabel11021811513D
libRbt.so/2013.1/901 2013/11/27
 42 45  0  0  0  0  0  0  0  0999 V2000
   -3.8525   12.2555   34.3143 C   0  0  2  0  0  0  0  0  0  0  0  0
   -2.9841   11.2102   33.7754 O   0  0  0  0  0  0  0  0  0  0  0  0
   -3.0898   12.8572   35.5778 C   0  0  2  0  0  0  0  0  0  0  0  0
   -1.8190   13.4595   35.1657 N   0  0  0  0  0  0  0  0  0  0  0  0
   -2.8849   11.6900   36.6618 C   0  0  1  0  0  0  0  0  0  0  0  0
   -2.2066   12.1832   37.8363 O   0  0  0  0  0  0  0  0  0  0  0  0
   -4.2792   11.1372   37.0035 C   0  0  2  0  0  0  0  0  0  0  0  0
   -4.1406   10.1224   37.9388 O   0  0  0  0  0  0  0  0  0  0  0  0
   -4.9899   10.5982   35.6796 C   0  0  2  0  0  0  0  0  0  0  0  0
   -5.1374   11.6405   34.7072 O   0  0  0  0  0  0  0  0  0  0  0  0
   -6.3663   10.0634   35.9564 C   0  0  0  0  0  0  0  0  0  0  0  0
   -7.1390   11.1266   36.5151 O   0  0  0  0  0  0  0  0  0  0  0  0
   -3.3423    8.7938   30.0598 C   0  0  2  0  0  0  0  0  0  0  0  0
   -3.4442    8.4442   28.6597 N   0  0  0  0  0  0  0  0  0  0  0  0
   -4.4806    9.8140   30.4502 C   0  0  0  0  0  0  0  0  0  0  0  0
   -4.3893   10.2129   31.9651 C   0  0  2  0  0  0  0  0  0  0  0  0
   -5.4540   11.1621   32.2830 N   0  0  0  0  0  0  0  0  0  0  0  0
   -2.9876   10.8727   32.3372 C   0  0  2  0  0  0  0  0  0  0  0  0
   -1.8784    9.8408   31.9817 C   0  0  2  0  0  0  0  0  0  0  0  0
   -0.5940   10.5347   32.3709 O   0  0  0  0  0  0  0  0  0  0  0  0
   -1.9363    9.4826   30.3955 C   0  0  1  0  0  0  0  0  0  0  0  0
   -0.9700    8.4757   29.9542 O   0  0  0  0  0  0  0  0  0  0  0  0
   -0.3587   10.4318   33.7168 C   0  0  1  0  0  0  0  0  0  0  0  0
    0.0057    9.0742   34.1353 C   0  0  2  0  0  0  0  0  0  0  0  0
   -1.1471    8.2970   34.0743 O   0  0  0  0  0  0  0  0  0  0  0  0
    0.6794    9.3512   35.4964 C   0  0  2  0  0  0  0  0  0  0  0  0
   -0.0976    8.6535   36.4959 O   0  0  0  0  0  0  0  0  0  0  0  0
    0.6205   10.8344   35.6585 C   0  0  2  0  0  0  0  0  0  0  0  0
    0.7281   11.1828   34.2320 O   0  0  0  0  0  0  0  0  0  0  0  0
    1.8627   11.3860   36.4504 C   0  0  0  0  0  0  0  0  0  0  0  0
    1.8426   12.8331   36.6369 O   0  0  0  0  0  0  0  0  0  0  0  0
   -0.0121    7.1962   36.5000 C   0  0  2  0  0  0  0  0  0  0  0  0
   -1.1542    6.6179   37.4877 C   0  0  2  0  0  0  0  0  0  0  0  0
   -0.9546    7.1885   38.8593 N   0  0  0  0  0  0  0  0  0  0  0  0
   -1.0557    5.0135   37.4835 C   0  0  1  0  0  0  0  0  0  0  0  0
   -1.2557    4.5700   36.1070 O   0  0  0  0  0  0  0  0  0  0  0  0
    0.3761    4.5684   38.0279 C   0  0  2  0  0  0  0  0  0  0  0  0
    0.4971    5.0398   39.4255 O   0  0  0  0  0  0  0  0  0  0  0  0
    1.5137    5.2104   37.0503 C   0  0  1  0  0  0  0  0  0  0  0  0
    1.3596    6.7102   37.0113 O   0  0  0  0  0  0  0  0  0  0  0  0
    2.9351    4.8076   37.5661 C   0  0  0  0  0  0  0  0  0  0  0  0
    3.1463    3.3270   37.5882 N   0  0  0  0  0  0  0  0  0  0  0  0
  1  3  1  0  0  0  0
  1  2  1  1  0  0  0
  3  4  1  6  0  0  0
  3  5  1  0  0  0  0
  5  6  1  1  0  0  0
  7  8  1  1  0  0  0
  7  5  1  0  0  0  0
  9 11  1  1  0  0  0
  9  7  1  0  0  0  0
 10  9  1  0  0  0  0
 10  1  1  0  0  0  0
 12 11  1  0  0  0  0
 13 14  1  6  0  0  0
 15 13  1  0  0  0  0
 16 17  1  6  0  0  0
 16 15  1  0  0  0  0
 18  2  1  1  0  0  0
 18 19  1  0  0  0  0
 18 16  1  0  0  0  0
 19 20  1  6  0  0  0
 19 21  1  0  0  0  0
 21 22  1  1  0  0  0
 21 13  1  0  0  0  0
 23 20  1  6  0  0  0
 23 29  1  0  0  0  0
 24 25  1  1  0  0  0
 24 26  1  0  0  0  0
 24 23  1  0  0  0  0
 26 27  1  1  0  0  0
 26 28  1  0  0  0  0
 28 30  1  1  0  0  0
 29 28  1  0  0  0  0
 30 31  1  0  0  0  0
 32 27  1  1  0  0  0
 32 40  1  0  0  0  0
 33 35  1  0  0  0  0
 33 32  1  0  0  0  0
 33 34  1  1  0  0  0
 35 36  1  6  0  0  0
 35 37  1  0  0  0  0
 37 38  1  1  0  0  0
 37 39  1  0  0  0  0
 39 41  1  1  0  0  0
 40 39  1  0  0  0  0
 41 42  1  0  0  0  0
M  END
>  <CHROM.1>
-150.60206305,59.48684555,-67.49095837,81.04242347,70.67232798,70.74559152
-179.74866201,-169.32634432,60.34954093,-1.63013190,9.25439612,35.06669746
2.66328755,0.85466912,-1.69342935

>  <Name>
lig.pdb

>  <RI>
0

>  <Rbt.Current_Directory>
/home/itssahil/PROJECTS/Mol_Feturizer/New_Systems/rnas/4wcr

>  <Rbt.Executable>
rbdock ($Id: //depot/dev/client3/rdock/2013.1/src/exe/rbdock.cxx#4 $)

>  <Rbt.Library>
libRbt.so (2013.1, Build901 2013/11/27)

>  <Rbt.Parameter_File>
/export/apps/rDock/src/rDock_2013.1_src/data/scripts/dock_solv.prm

>  <Rbt.Receptor>
prm/pocket_docking_8.prm

>  <SCORE>
-1.17137

>  <SCORE.INTER>
2.62245

>  <SCORE.INTER.CONST>
1

>  <SCORE.INTER.POLAR>
0

>  <SCORE.INTER.ROT>
9

>  <SCORE.INTER.SOLV>
11.9372

>  <SCORE.INTER.VDW>
-11.8308

>  <SCORE.INTER.norm>
0.0624392

>  <SCORE.INTRA>
-3.79382

>  <SCORE.INTRA.DIHEDRAL>
-8.37568

>  <SCORE.INTRA.DIHEDRAL.0>
16.2863

>  <SCORE.INTRA.POLAR>
0

>  <SCORE.INTRA.POLAR.0>
0

>  <SCORE.INTRA.REPUL>
-0.314433

>  <SCORE.INTRA.REPUL.0>
0.314433

>  <SCORE.INTRA.SOLV>
-0.0420916

>  <SCORE.INTRA.SOLV.lig_0>
-103.824

>  <SCORE.INTRA.VDW>
1.98724

>  <SCORE.INTRA.VDW.0>
-5.30945

>  <SCORE.INTRA.norm>
-0.0903289

>  <SCORE.RESTR>
0

>  <SCORE.RESTR.CAVITY>
0

>  <SCORE.RESTR.norm>
0

>  <SCORE.SYSTEM>
0

>  <SCORE.SYSTEM.CONST>
0

>  <SCORE.SYSTEM.DIHEDRAL>
0

>  <SCORE.SYSTEM.SOLV>
0

>  <SCORE.SYSTEM.norm>
0

>  <SCORE.heavy>
42

>  <SCORE.norm>
-0.0278897

>  <RMSD>
7.203

$$$$
lig.pdb
 OpenBabel11021811513D
libRbt.so/2013.1/901 2013/11/27
 42 45  0  0  0  0  0  0  0  0999 V2000
   -7.8947   17.5401   39.8806 C   0  0  2  0  0  0  0  0  0  0  0  0
   -7.0001   18.4387   40.6082 O   0  0  0  0  0  0  0  0  0  0  0  0
   -9.1421   18.4247   39.4315 C   0  0  2  0  0  0  0  0  0  0  0  0
   -8.7080   19.4964   38.5310 N   0  0  0  0  0  0  0  0  0  0  0  0
   -9.8716   18.9936   40.7445 C   0  0  1  0  0  0  0  0  0  0  0  0
  -11.0195   19.7958   40.3961 O   0  0  0  0  0  0  0  0  0  0  0  0
  -10.2678   17.7818   41.6053 C   0  0  2  0  0  0  0  0  0  0  0  0
  -10.9009   18.2367   42.7525 O   0  0  0  0  0  0  0  0  0  0  0  0
   -8.9701   16.9274   41.9717 C   0  0  2  0  0  0  0  0  0  0  0  0
   -8.3093   16.4531   40.7918 O   0  0  0  0  0  0  0  0  0  0  0  0
   -9.3057   15.7185   42.7981 C   0  0  0  0  0  0  0  0  0  0  0  0
   -9.7655   16.1783   44.0697 O   0  0  0  0  0  0  0  0  0  0  0  0
   -2.6772   17.9852   41.5459 C   0  0  2  0  0  0  0  0  0  0  0  0
   -1.4564   17.5906   42.2143 N   0  0  0  0  0  0  0  0  0  0  0  0
   -3.6272   18.7439   42.5513 C   0  0  0  0  0  0  0  0  0  0  0  0
   -4.9622   19.1793   41.8509 C   0  0  2  0  0  0  0  0  0  0  0  0
   -5.8146   19.8705   42.8160 N   0  0  0  0  0  0  0  0  0  0  0  0
   -5.7668   17.9416   41.2517 C   0  0  2  0  0  0  0  0  0  0  0  0
   -4.8308   17.2262   40.2349 C   0  0  2  0  0  0  0  0  0  0  0  0
   -5.6660   16.0815   39.7106 O   0  0  0  0  0  0  0  0  0  0  0  0
   -3.4781   16.7180   40.9829 C   0  0  1  0  0  0  0  0  0  0  0  0
   -2.4940   16.0761   40.1101 O   0  0  0  0  0  0  0  0  0  0  0  0
   -4.9803   15.3494   38.7773 C   0  0  1  0  0  0  0  0  0  0  0  0
   -5.6537   14.0962   38.4207 C   0  0  2  0  0  0  0  0  0  0  0  0
   -5.5126   13.2273   39.4986 O   0  0  0  0  0  0  0  0  0  0  0  0
   -4.9801   13.7681   37.0709 C   0  0  2  0  0  0  0  0  0  0  0  0
   -4.3108   12.4976   37.2368 O   0  0  0  0  0  0  0  0  0  0  0  0
   -4.0250   14.8916   36.8359 C   0  0  2  0  0  0  0  0  0  0  0  0
   -4.8084   15.9453   37.5022 O   0  0  0  0  0  0  0  0  0  0  0  0
   -3.8671   15.2144   35.3045 C   0  0  0  0  0  0  0  0  0  0  0  0
   -2.9534   16.3185   35.0300 O   0  0  0  0  0  0  0  0  0  0  0  0
   -5.0892   11.2980   36.9433 C   0  0  2  0  0  0  0  0  0  0  0  0
   -5.8283   10.8211   38.2999 C   0  0  2  0  0  0  0  0  0  0  0  0
   -4.7985   10.5680   39.3592 N   0  0  0  0  0  0  0  0  0  0  0  0
   -6.6856    9.5026   37.9673 C   0  0  1  0  0  0  0  0  0  0  0  0
   -7.6444    9.8598   36.9258 O   0  0  0  0  0  0  0  0  0  0  0  0
   -5.7068    8.3438   37.4738 C   0  0  2  0  0  0  0  0  0  0  0  0
   -4.7793    8.0298   38.5834 O   0  0  0  0  0  0  0  0  0  0  0  0
   -4.9300    8.8687   36.1385 C   0  0  1  0  0  0  0  0  0  0  0  0
   -4.1900   10.1449   36.4524 O   0  0  0  0  0  0  0  0  0  0  0  0
   -3.9459    7.7609   35.6358 C   0  0  0  0  0  0  0  0  0  0  0  0
   -3.2138    8.1557   34.3927 N   0  0  0  0  0  0  0  0  0  0  0  0
  1  3  1  0  0  0  0
  1  2  1  1  0  0  0
  3  4  1  6  0  0  0
  3  5  1  0  0  0  0
  5  6  1  6  0  0  0
  7  8  1  1  0  0  0
  7  5  1  0  0  0  0
  9 11  1  1  0  0  0
  9  7  1  0  0  0  0
 10  9  1  0  0  0  0
 10  1  1  0  0  0  0
 12 11  1  0  0  0  0
 13 14  1  1  0  0  0
 15 13  1  0  0  0  0
 16 17  1  1  0  0  0
 16 15  1  0  0  0  0
 18  2  1  6  0  0  0
 18 19  1  0  0  0  0
 18 16  1  0  0  0  0
 19 20  1  1  0  0  0
 19 21  1  0  0  0  0
 21 22  1  6  0  0  0
 21 13  1  0  0  0  0
 23 20  1  1  0  0  0
 23 29  1  0  0  0  0
 24 25  1  1  0  0  0
 24 26  1  0  0  0  0
 24 23  1  0  0  0  0
 26 27  1  1  0  0  0
 26 28  1  0  0  0  0
 28 30  1  6  0  0  0
 29 28  1  0  0  0  0
 30 31  1  0  0  0  0
 32 27  1  1  0  0  0
 32 40  1  0  0  0  0
 33 35  1  0  0  0  0
 33 32  1  0  0  0  0
 33 34  1  1  0  0  0
 35 36  1  6  0  0  0
 35 37  1  0  0  0  0
 37 38  1  1  0  0  0
 37 39  1  0  0  0  0
 39 41  1  1  0  0  0
 40 39  1  0  0  0  0
 41 42  1  0  0  0  0
M  END
>  <CHROM.1>
176.13059795,-67.13384112,175.37961759,179.29386117,169.61504221,89.15185291
179.30931113,-90.02070544,178.77590050,-5.96404667,14.89740787,39.29930572
1.89627977,0.29908922,0.41551878

>  <Name>
lig.pdb

>  <RI>
0

>  <Rbt.Current_Directory>
/home/itssahil/PROJECTS/Mol_Feturizer/New_Systems/rnas/4wcr

>  <Rbt.Executable>
rbdock ($Id: //depot/dev/client3/rdock/2013.1/src/exe/rbdock.cxx#4 $)

>  <Rbt.Library>
libRbt.so (2013.1, Build901 2013/11/27)

>  <Rbt.Parameter_File>
/export/apps/rDock/src/rDock_2013.1_src/data/scripts/dock_solv.prm

>  <Rbt.Receptor>
prm/pocket_docking_7.prm

>  <SCORE>
-2.38672

>  <SCORE.INTER>
3.01973

>  <SCORE.INTER.CONST>
1

>  <SCORE.INTER.POLAR>
0

>  <SCORE.INTER.ROT>
9

>  <SCORE.INTER.SOLV>
15.5935

>  <SCORE.INTER.VDW>
-12.7847

>  <SCORE.INTER.norm>
0.0718983

>  <SCORE.INTRA>
-5.40644

>  <SCORE.INTRA.DIHEDRAL>
-7.9057

>  <SCORE.INTRA.DIHEDRAL.0>
16.2863

>  <SCORE.INTRA.POLAR>
0

>  <SCORE.INTRA.POLAR.0>
0

>  <SCORE.INTRA.REPUL>
-0.314433

>  <SCORE.INTRA.REPUL.0>
0.314433

>  <SCORE.INTRA.SOLV>
-4.51591

>  <SCORE.INTRA.SOLV.lig_0>
-103.824

>  <SCORE.INTRA.VDW>
2.37653

>  <SCORE.INTRA.VDW.0>
-5.30945

>  <SCORE.INTRA.norm>
-0.128725

>  <SCORE.RESTR>
0

>  <SCORE.RESTR.CAVITY>
0

>  <SCORE.RESTR.norm>
0

>  <SCORE.SYSTEM>
0

>  <SCORE.SYSTEM.CONST>
0

>  <SCORE.SYSTEM.DIHEDRAL>
0

>  <SCORE.SYSTEM.SOLV>
0

>  <SCORE.SYSTEM.norm>
0

>  <SCORE.heavy>
42

>  <SCORE.norm>
-0.0568266

>  <RMSD>
7.219

$$$$
lig.pdb
 OpenBabel11021811513D
libRbt.so/2013.1/901 2013/11/27
 42 45  0  0  0  0  0  0  0  0999 V2000
   -1.6800   11.3573   36.0583 C   0  0  2  0  0  0  0  0  0  0  0  0
   -1.7861   11.4450   34.6029 O   0  0  0  0  0  0  0  0  0  0  0  0
   -2.4497   12.6277   36.6360 C   0  0  2  0  0  0  0  0  0  0  0  0
   -3.8649   12.5804   36.2581 N   0  0  0  0  0  0  0  0  0  0  0  0
   -1.7237   13.9579   36.1040 C   0  0  1  0  0  0  0  0  0  0  0  0
   -2.3748   15.1434   36.6073 O   0  0  0  0  0  0  0  0  0  0  0  0
   -0.2544   13.8846   36.5538 C   0  0  2  0  0  0  0  0  0  0  0  0
    0.4062   15.0201   36.1089 O   0  0  0  0  0  0  0  0  0  0  0  0
    0.4274   12.5639   35.9712 C   0  0  2  0  0  0  0  0  0  0  0  0
   -0.2490   11.3852   36.4261 O   0  0  0  0  0  0  0  0  0  0  0  0
    1.8620   12.4346   36.3984 C   0  0  0  0  0  0  0  0  0  0  0  0
    2.3676   11.2160   35.8515 O   0  0  0  0  0  0  0  0  0  0  0  0
   -1.2977    8.2332   31.5667 C   0  0  2  0  0  0  0  0  0  0  0  0
   -0.6834    7.3220   30.6258 N   0  0  0  0  0  0  0  0  0  0  0  0
   -0.9202    9.7223   31.2076 C   0  0  0  0  0  0  0  0  0  0  0  0
   -1.5716   10.7316   32.2173 C   0  0  2  0  0  0  0  0  0  0  0  0
   -1.1922   12.0955   31.8544 N   0  0  0  0  0  0  0  0  0  0  0  0
   -1.1256   10.4596   33.7225 C   0  0  2  0  0  0  0  0  0  0  0  0
   -1.5380    9.0008   34.0738 C   0  0  2  0  0  0  0  0  0  0  0  0
   -1.0924    8.8292   35.5073 O   0  0  0  0  0  0  0  0  0  0  0  0
   -0.8059    7.9550   33.0650 C   0  0  1  0  0  0  0  0  0  0  0  0
   -1.1632    6.5500   33.2663 O   0  0  0  0  0  0  0  0  0  0  0  0
   -1.6382    7.7049   36.0688 C   0  0  1  0  0  0  0  0  0  0  0  0
   -1.2416    7.5094   37.4673 C   0  0  2  0  0  0  0  0  0  0  0  0
    0.0904    7.1066   37.4690 O   0  0  0  0  0  0  0  0  0  0  0  0
   -2.3413    6.5435   37.9580 C   0  0  2  0  0  0  0  0  0  0  0  0
   -1.6752    5.3297   38.3734 O   0  0  0  0  0  0  0  0  0  0  0  0
   -3.2249    6.3343   36.7725 C   0  0  2  0  0  0  0  0  0  0  0  0
   -3.0519    7.6679   36.1729 O   0  0  0  0  0  0  0  0  0  0  0  0
   -4.7248    6.1149   37.1924 C   0  0  0  0  0  0  0  0  0  0  0  0
   -5.3237    7.2713   37.8506 O   0  0  0  0  0  0  0  0  0  0  0  0
   -2.5119    4.2812   38.9491 C   0  0  2  0  0  0  0  0  0  0  0  0
   -1.5507    3.1129   39.5197 C   0  0  2  0  0  0  0  0  0  0  0  0
   -0.6957    2.5900   38.4051 N   0  0  0  0  0  0  0  0  0  0  0  0
   -2.4792    1.9647   40.1548 C   0  0  1  0  0  0  0  0  0  0  0  0
   -3.2683    2.5827   41.2165 O   0  0  0  0  0  0  0  0  0  0  0  0
   -3.4204    1.3555   39.0202 C   0  0  2  0  0  0  0  0  0  0  0  0
   -2.5520    0.7383   37.9930 O   0  0  0  0  0  0  0  0  0  0  0  0
   -4.3394    2.5624   38.4197 C   0  0  1  0  0  0  0  0  0  0  0  0
   -3.4506    3.6615   37.8936 O   0  0  0  0  0  0  0  0  0  0  0  0
   -5.2652    2.0027   37.2891 C   0  0  0  0  0  0  0  0  0  0  0  0
   -6.2563    1.0021   37.7929 N   0  0  0  0  0  0  0  0  0  0  0  0
  1  3  1  0  0  0  0
  1  2  1  6  0  0  0
  3  4  1  6  0  0  0
  3  5  1  0  0  0  0
  5  6  1  1  0  0  0
  7  8  1  6  0  0  0
  7  5  1  0  0  0  0
  9 11  1  1  0  0  0
  9  7  1  0  0  0  0
 10  9  1  0  0  0  0
 10  1  1  0  0  0  0
 12 11  1  0  0  0  0
 13 14  1  6  0  0  0
 15 13  1  0  0  0  0
 16 17  1  6  0  0  0
 16 15  1  0  0  0  0
 18  2  1  1  0  0  0
 18 19  1  0  0  0  0
 18 16  1  0  0  0  0
 19 20  1  1  0  0  0
 19 21  1  0  0  0  0
 21 22  1  1  0  0  0
 21 13  1  0  0  0  0
 23 20  1  1  0  0  0
 23 29  1  0  0  0  0
 24 25  1  6  0  0  0
 24 26  1  0  0  0  0
 24 23  1  0  0  0  0
 26 27  1  6  0  0  0
 26 28  1  0  0  0  0
 28 30  1  1  0  0  0
 29 28  1  0  0  0  0
 30 31  1  0  0  0  0
 32 27  1  6  0  0  0
 32 40  1  0  0  0  0
 33 35  1  0  0  0  0
 33 32  1  0  0  0  0
 33 34  1  6  0  0  0
 35 36  1  1  0  0  0
 35 37  1  0  0  0  0
 37 38  1  6  0  0  0
 37 39  1  0  0  0  0
 39 41  1  6  0  0  0
 40 39  1  0  0  0  0
 41 42  1  0  0  0  0
M  END
>  <CHROM.1>
176.96403823,178.82421181,173.45122728,166.63432337,-179.36455067,176.81669283
63.79445411,-172.49539239,64.39215882,-1.88668781,7.91130747,36.27728317
0.17096746,1.31928409,1.03316693

>  <Name>
lig.pdb

>  <RI>
0

>  <Rbt.Current_Directory>
/home/itssahil/PROJECTS/Mol_Feturizer/New_Systems/rnas/4wcr

>  <Rbt.Executable>
rbdock ($Id: //depot/dev/client3/rdock/2013.1/src/exe/rbdock.cxx#4 $)

>  <Rbt.Library>
libRbt.so (2013.1, Build901 2013/11/27)

>  <Rbt.Parameter_File>
/export/apps/rDock/src/rDock_2013.1_src/data/scripts/dock_solv.prm

>  <Rbt.Receptor>
prm/pocket_docking_8.prm

>  <SCORE>
-6.35551

>  <SCORE.INTER>
3.40916

>  <SCORE.INTER.CONST>
1

>  <SCORE.INTER.POLAR>
0

>  <SCORE.INTER.ROT>
9

>  <SCORE.INTER.SOLV>
14.3103

>  <SCORE.INTER.VDW>
-12.0973

>  <SCORE.INTER.norm>
0.0811706

>  <SCORE.INTRA>
-9.76468

>  <SCORE.INTRA.DIHEDRAL>
-14.2101

>  <SCORE.INTRA.DIHEDRAL.0>
16.2863

>  <SCORE.INTRA.POLAR>
0

>  <SCORE.INTRA.POLAR.0>
0

>  <SCORE.INTRA.REPUL>
-0.314433

>  <SCORE.INTRA.REPUL.0>
0.314433

>  <SCORE.INTRA.SOLV>
-5.76281

>  <SCORE.INTRA.SOLV.lig_0>
-103.824

>  <SCORE.INTRA.VDW>
1.79397

>  <SCORE.INTRA.VDW.0>
-5.30945

>  <SCORE.INTRA.norm>
-0.232492

>  <SCORE.RESTR>
0

>  <SCORE.RESTR.CAVITY>
0

>  <SCORE.RESTR.norm>
0

>  <SCORE.SYSTEM>
0

>  <SCORE.SYSTEM.CONST>
0

>  <SCORE.SYSTEM.DIHEDRAL>
0

>  <SCORE.SYSTEM.SOLV>
0

>  <SCORE.SYSTEM.norm>
0

>  <SCORE.heavy>
42

>  <SCORE.norm>
-0.151322

>  <RMSD>
7.241

$$$$
lig.pdb
 OpenBabel11021811513D
libRbt.so/2013.1/901 2013/11/27
 42 45  0  0  0  0  0  0  0  0999 V2000
   -3.6892   10.8043   36.5665 C   0  0  2  0  0  0  0  0  0  0  0  0
   -3.0381   11.6935   37.5270 O   0  0  0  0  0  0  0  0  0  0  0  0
   -4.6485   11.7262   35.6890 C   0  0  2  0  0  0  0  0  0  0  0  0
   -3.8646   12.7253   34.9575 N   0  0  0  0  0  0  0  0  0  0  0  0
   -5.7417   12.4001   36.6536 C   0  0  1  0  0  0  0  0  0  0  0  0
   -6.6474   13.2401   35.9074 O   0  0  0  0  0  0  0  0  0  0  0  0
   -6.4859   11.2572   37.3653 C   0  0  2  0  0  0  0  0  0  0  0  0
   -7.4398   11.8037   38.2109 O   0  0  0  0  0  0  0  0  0  0  0  0
   -5.4492   10.3585   38.1814 C   0  0  2  0  0  0  0  0  0  0  0  0
   -4.4595    9.7895   37.3152 O   0  0  0  0  0  0  0  0  0  0  0  0
   -6.1247    9.2136   38.8816 C   0  0  0  0  0  0  0  0  0  0  0  0
   -6.7034    8.3755   37.8804 O   0  0  0  0  0  0  0  0  0  0  0  0
    0.7457   10.9881   39.7537 C   0  0  2  0  0  0  0  0  0  0  0  0
    1.6667   10.5724   40.7890 N   0  0  0  0  0  0  0  0  0  0  0  0
   -0.3602   11.9370   40.3582 C   0  0  0  0  0  0  0  0  0  0  0  0
   -1.3757   12.3991   39.2547 C   0  0  2  0  0  0  0  0  0  0  0  0
   -2.3851   13.2681   39.8560 N   0  0  0  0  0  0  0  0  0  0  0  0
   -2.1099   11.1724   38.5513 C   0  0  2  0  0  0  0  0  0  0  0  0
   -1.0090   10.2662   37.9281 C   0  0  2  0  0  0  0  0  0  0  0  0
   -1.7832    9.1430   37.2787 O   0  0  0  0  0  0  0  0  0  0  0  0
    0.0012    9.7362   39.0884 C   0  0  1  0  0  0  0  0  0  0  0  0
    1.1146    8.9155   38.6100 O   0  0  0  0  0  0  0  0  0  0  0  0
   -0.9623    8.3331   36.5388 C   0  0  1  0  0  0  0  0  0  0  0  0
   -1.6630    7.1869   35.9501 C   0  0  2  0  0  0  0  0  0  0  0  0
   -1.9438    6.2967   36.9823 O   0  0  0  0  0  0  0  0  0  0  0  0
   -0.6846    6.7829   34.8265 C   0  0  2  0  0  0  0  0  0  0  0  0
   -0.2578    5.4314   35.1111 O   0  0  0  0  0  0  0  0  0  0  0  0
    0.4340    7.7677   34.9195 C   0  0  2  0  0  0  0  0  0  0  0  0
   -0.3633    8.9121   35.3913 O   0  0  0  0  0  0  0  0  0  0  0  0
    1.0567    8.0806   33.5093 C   0  0  0  0  0  0  0  0  0  0  0  0
    0.1135    8.6837   32.5735 O   0  0  0  0  0  0  0  0  0  0  0  0
   -1.1679    4.3568   34.7266 C   0  0  2  0  0  0  0  0  0  0  0  0
   -1.3318    4.3740   33.1182 C   0  0  2  0  0  0  0  0  0  0  0  0
   -1.8457    5.7152   32.6895 N   0  0  0  0  0  0  0  0  0  0  0  0
   -2.3319    3.1860   32.7030 C   0  0  1  0  0  0  0  0  0  0  0  0
   -1.7404    1.9367   33.1731 O   0  0  0  0  0  0  0  0  0  0  0  0
   -3.7579    3.4343   33.3734 C   0  0  2  0  0  0  0  0  0  0  0  0
   -4.2957    4.7052   32.8389 O   0  0  0  0  0  0  0  0  0  0  0  0
   -3.5592    3.4705   34.9923 C   0  0  1  0  0  0  0  0  0  0  0  0
   -2.5636    4.5434   35.3561 O   0  0  0  0  0  0  0  0  0  0  0  0
   -4.9388    3.7303   35.6835 C   0  0  0  0  0  0  0  0  0  0  0  0
   -4.8635    3.6560   37.1755 N   0  0  0  0  0  0  0  0  0  0  0  0
  1  3  1  0  0  0  0
  1  2  1  1  0  0  0
  3  4  1  1  0  0  0
  3  5  1  0  0  0  0
  5  6  1  6  0  0  0
  7  8  1  1  0  0  0
  7  5  1  0  0  0  0
  9 11  1  6  0  0  0
  9  7  1  0  0  0  0
 10  9  1  0  0  0  0
 10  1  1  0  0  0  0
 12 11  1  0  0  0  0
 13 14  1  1  0  0  0
 15 13  1  0  0  0  0
 16 17  1  1  0  0  0
 16 15  1  0  0  0  0
 18  2  1  6  0  0  0
 18 19  1  0  0  0  0
 18 16  1  0  0  0  0
 19 20  1  1  0  0  0
 19 21  1  0  0  0  0
 21 22  1  6  0  0  0
 21 13  1  0  0  0  0
 23 20  1  6  0  0  0
 23 29  1  0  0  0  0
 24 25  1  1  0  0  0
 24 26  1  0  0  0  0
 24 23  1  0  0  0  0
 26 27  1  1  0  0  0
 26 28  1  0  0  0  0
 28 30  1  6  0  0  0
 29 28  1  0  0  0  0
 30 31  1  0  0  0  0
 32 27  1  6  0  0  0
 32 40  1  0  0  0  0
 33 35  1  0  0  0  0
 33 32  1  0  0  0  0
 33 34  1  1  0  0  0
 35 36  1  1  0  0  0
 35 37  1  0  0  0  0
 37 38  1  6  0  0  0
 37 39  1  0  0  0  0
 39 41  1  1  0  0  0
 40 39  1  0  0  0  0
 41 42  1  0  0  0  0
M  END
>  <CHROM.1>
177.46635997,62.73497244,169.78785337,172.64180701,176.86853906,80.48245925
61.88063888,63.35030196,174.84616167,-2.55528499,8.37544253,36.37107070,1.70425941
-0.11342284,0.53771880

>  <Name>
lig.pdb

>  <RI>
0

>  <Rbt.Current_Directory>
/home/itssahil/PROJECTS/Mol_Feturizer/New_Systems/rnas/4wcr

>  <Rbt.Executable>
rbdock ($Id: //depot/dev/client3/rdock/2013.1/src/exe/rbdock.cxx#4 $)

>  <Rbt.Library>
libRbt.so (2013.1, Build901 2013/11/27)

>  <Rbt.Parameter_File>
/export/apps/rDock/src/rDock_2013.1_src/data/scripts/dock_solv.prm

>  <Rbt.Receptor>
prm/pocket_docking_8.prm

>  <SCORE>
-3.34468

>  <SCORE.INTER>
2.73781

>  <SCORE.INTER.CONST>
1

>  <SCORE.INTER.POLAR>
0

>  <SCORE.INTER.ROT>
9

>  <SCORE.INTER.SOLV>
16.8213

>  <SCORE.INTER.VDW>
-13.3819

>  <SCORE.INTER.norm>
0.0651859

>  <SCORE.INTRA>
-6.08249

>  <SCORE.INTRA.DIHEDRAL>
-12.8782

>  <SCORE.INTRA.DIHEDRAL.0>
16.2863

>  <SCORE.INTRA.POLAR>
0

>  <SCORE.INTRA.POLAR.0>
0

>  <SCORE.INTRA.REPUL>
-0.314433

>  <SCORE.INTRA.REPUL.0>
0.314433

>  <SCORE.INTRA.SOLV>
-2.43342

>  <SCORE.INTRA.SOLV.lig_0>
-103.824

>  <SCORE.INTRA.VDW>
3.14549

>  <SCORE.INTRA.VDW.0>
-5.30945

>  <SCORE.INTRA.norm>
-0.144821

>  <SCORE.RESTR>
0

>  <SCORE.RESTR.CAVITY>
0

>  <SCORE.RESTR.norm>
0

>  <SCORE.SYSTEM>
0

>  <SCORE.SYSTEM.CONST>
0

>  <SCORE.SYSTEM.DIHEDRAL>
0

>  <SCORE.SYSTEM.SOLV>
0

>  <SCORE.SYSTEM.norm>
0

>  <SCORE.heavy>
42

>  <SCORE.norm>
-0.0796353

>  <RMSD>
7.263

$$$$
lig.pdb
 OpenBabel11021811513D
libRbt.so/2013.1/901 2013/11/27
 42 45  0  0  0  0  0  0  0  0999 V2000
   -4.9067   12.0651   37.2083 C   0  0  2  0  0  0  0  0  0  0  0  0
   -3.9844   10.9968   37.5895 O   0  0  0  0  0  0  0  0  0  0  0  0
   -6.3648   11.5501   37.5938 C   0  0  2  0  0  0  0  0  0  0  0  0
   -6.4614   11.3311   39.0396 N   0  0  0  0  0  0  0  0  0  0  0  0
   -6.6803   10.2168   36.7556 C   0  0  1  0  0  0  0  0  0  0  0  0
   -7.9977    9.7112   37.0580 O   0  0  0  0  0  0  0  0  0  0  0  0
   -6.5385   10.5725   35.2657 C   0  0  2  0  0  0  0  0  0  0  0  0
   -6.8029    9.4405   34.5091 O   0  0  0  0  0  0  0  0  0  0  0  0
   -5.0677   11.1210   34.9752 C   0  0  2  0  0  0  0  0  0  0  0  0
   -4.7858   12.2911   35.7530 O   0  0  0  0  0  0  0  0  0  0  0  0
   -4.8825   11.5016   33.5337 C   0  0  0  0  0  0  0  0  0  0  0  0
   -3.5408   11.9657   33.3781 O   0  0  0  0  0  0  0  0  0  0  0  0
   -1.6933    9.9364   41.2500 C   0  0  2  0  0  0  0  0  0  0  0  0
   -1.3598    9.7240   42.6416 N   0  0  0  0  0  0  0  0  0  0  0  0
   -2.1837   11.4193   41.0282 C   0  0  0  0  0  0  0  0  0  0  0  0
   -2.5564   11.6745   39.5254 C   0  0  2  0  0  0  0  0  0  0  0  0
   -3.0113   13.0540   39.3647 N   0  0  0  0  0  0  0  0  0  0  0  0
   -3.7008   10.6945   39.0074 C   0  0  2  0  0  0  0  0  0  0  0  0
   -3.1877    9.2378   39.1978 C   0  0  2  0  0  0  0  0  0  0  0  0
   -4.3178    8.3803   38.6778 O   0  0  0  0  0  0  0  0  0  0  0  0
   -2.8670    8.9593   40.7685 C   0  0  1  0  0  0  0  0  0  0  0  0
   -2.3231    7.6325   41.0617 O   0  0  0  0  0  0  0  0  0  0  0  0
   -3.9663    7.7401   37.5185 C   0  0  1  0  0  0  0  0  0  0  0  0
   -4.4177    6.3454   37.4716 C   0  0  2  0  0  0  0  0  0  0  0  0
   -3.6184    5.6201   38.3502 O   0  0  0  0  0  0  0  0  0  0  0  0
   -4.3542    6.0611   35.9556 C   0  0  2  0  0  0  0  0  0  0  0  0
   -3.4070    4.9846   35.7725 O   0  0  0  0  0  0  0  0  0  0  0  0
   -3.8899    7.3419   35.3444 C   0  0  2  0  0  0  0  0  0  0  0  0
   -4.5183    8.2516   36.3167 O   0  0  0  0  0  0  0  0  0  0  0  0
   -4.5042    7.5635   33.9133 C   0  0  0  0  0  0  0  0  0  0  0  0
   -3.9059    8.6778   33.1855 O   0  0  0  0  0  0  0  0  0  0  0  0
   -3.2637    4.4540   34.4202 C   0  0  2  0  0  0  0  0  0  0  0  0
   -4.6262    3.6778   34.0264 C   0  0  2  0  0  0  0  0  0  0  0  0
   -4.8792    2.5888   35.0248 N   0  0  0  0  0  0  0  0  0  0  0  0
   -4.4616    3.1002   32.5353 C   0  0  1  0  0  0  0  0  0  0  0  0
   -4.2131    4.2376   31.6544 O   0  0  0  0  0  0  0  0  0  0  0  0
   -3.2460    2.0680   32.4974 C   0  0  2  0  0  0  0  0  0  0  0  0
   -3.5775    0.9429   33.3997 O   0  0  0  0  0  0  0  0  0  0  0  0
   -1.8935    2.8585   32.9534 C   0  0  1  0  0  0  0  0  0  0  0  0
   -2.0934    3.4537   34.3247 O   0  0  0  0  0  0  0  0  0  0  0  0
   -0.6810    1.8695   32.9445 C   0  0  0  0  0  0  0  0  0  0  0  0
   -0.8171    0.7754   33.9553 N   0  0  0  0  0  0  0  0  0  0  0  0
  1  3  1  0  0  0  0
  1  2  1  6  0  0  0
  3  4  1  1  0  0  0
  3  5  1  0  0  0  0
  5  6  1  6  0  0  0
  7  8  1  6  0  0  0
  7  5  1  0  0  0  0
  9 11  1  6  0  0  0
  9  7  1  0  0  0  0
 10  9  1  0  0  0  0
 10  1  1  0  0  0  0
 12 11  1  0  0  0  0
 13 14  1  1  0  0  0
 15 13  1  0  0  0  0
 16 17  1  1  0  0  0
 16 15  1  0  0  0  0
 18  2  1  6  0  0  0
 18 19  1  0  0  0  0
 18 16  1  0  0  0  0
 19 20  1  1  0  0  0
 19 21  1  0  0  0  0
 21 22  1  6  0  0  0
 21 13  1  0  0  0  0
 23 20  1  1  0  0  0
 23 29  1  0  0  0  0
 24 25  1  1  0  0  0
 24 26  1  0  0  0  0
 24 23  1  0  0  0  0
 26 27  1  1  0  0  0
 26 28  1  0  0  0  0
 28 30  1  6  0  0  0
 29 28  1  0  0  0  0
 30 31  1  0  0  0  0
 32 27  1  1  0  0  0
 32 40  1  0  0  0  0
 33 35  1  0  0  0  0
 33 32  1  0  0  0  0
 33 34  1  1  0  0  0
 35 36  1  6  0  0  0
 35 37  1  0  0  0  0
 37 38  1  1  0  0  0
 37 39  1  0  0  0  0
 39 41  1  1  0  0  0
 40 39  1  0  0  0  0
 41 42  1  0  0  0  0
M  END
>  <CHROM.1>
-70.96246895,-179.53166180,-84.29053726,111.43077057,138.13167082,174.68798794
-170.03303256,-68.68409507,-64.73422428,-3.94991360,7.75344705,36.31873549
1.78145408,-1.04299194,0.74271926

>  <Name>
lig.pdb

>  <RI>
0

>  <Rbt.Current_Directory>
/home/itssahil/PROJECTS/Mol_Feturizer/New_Systems/rnas/4wcr

>  <Rbt.Executable>
rbdock ($Id: //depot/dev/client3/rdock/2013.1/src/exe/rbdock.cxx#4 $)

>  <Rbt.Library>
libRbt.so (2013.1, Build901 2013/11/27)

>  <Rbt.Parameter_File>
/export/apps/rDock/src/rDock_2013.1_src/data/scripts/dock_solv.prm

>  <Rbt.Receptor>
prm/pocket_docking_6.prm

>  <SCORE>
-3.77019

>  <SCORE.INTER>
-1.67139

>  <SCORE.INTER.CONST>
1

>  <SCORE.INTER.POLAR>
0

>  <SCORE.INTER.ROT>
9

>  <SCORE.INTER.SOLV>
17.8689

>  <SCORE.INTER.VDW>
-16.6706

>  <SCORE.INTER.norm>
-0.0397949

>  <SCORE.INTRA>
-2.0988

>  <SCORE.INTRA.DIHEDRAL>
0.706121

>  <SCORE.INTRA.DIHEDRAL.0>
16.2863

>  <SCORE.INTRA.POLAR>
0

>  <SCORE.INTRA.POLAR.0>
0

>  <SCORE.INTRA.REPUL>
-0.292564

>  <SCORE.INTRA.REPUL.0>
0.314433

>  <SCORE.INTRA.SOLV>
1.30879

>  <SCORE.INTRA.SOLV.lig_0>
-103.824

>  <SCORE.INTRA.VDW>
-1.64343

>  <SCORE.INTRA.VDW.0>
-5.30945

>  <SCORE.INTRA.norm>
-0.0499714

>  <SCORE.RESTR>
0

>  <SCORE.RESTR.CAVITY>
0

>  <SCORE.RESTR.norm>
0

>  <SCORE.SYSTEM>
0

>  <SCORE.SYSTEM.CONST>
0

>  <SCORE.SYSTEM.DIHEDRAL>
0

>  <SCORE.SYSTEM.SOLV>
0

>  <SCORE.SYSTEM.norm>
0

>  <SCORE.heavy>
42

>  <SCORE.norm>
-0.0897663

>  <RMSD>
7.397

$$$$
lig.pdb
 OpenBabel11021811513D
libRbt.so/2013.1/901 2013/11/27
 42 45  0  0  0  0  0  0  0  0999 V2000
   -6.4232   16.8196   30.9199 C   0  0  2  0  0  0  0  0  0  0  0  0
   -5.1396   17.5186   30.8897 O   0  0  0  0  0  0  0  0  0  0  0  0
   -6.3895   15.7790   29.7133 C   0  0  2  0  0  0  0  0  0  0  0  0
   -5.3123   14.8052   29.9110 N   0  0  0  0  0  0  0  0  0  0  0  0
   -6.2294   16.5897   28.3360 C   0  0  1  0  0  0  0  0  0  0  0  0
   -6.2043   15.6942   27.2046 O   0  0  0  0  0  0  0  0  0  0  0  0
   -7.4057   17.5773   28.2506 C   0  0  2  0  0  0  0  0  0  0  0  0
   -7.2987   18.2984   27.0707 O   0  0  0  0  0  0  0  0  0  0  0  0
   -7.3918   18.5503   29.5161 C   0  0  2  0  0  0  0  0  0  0  0  0
   -7.5019   17.8134   30.7402 O   0  0  0  0  0  0  0  0  0  0  0  0
   -8.5349   19.5249   29.4905 C   0  0  0  0  0  0  0  0  0  0  0  0
   -8.3183   20.4727   30.5367 O   0  0  0  0  0  0  0  0  0  0  0  0
   -2.6212   20.2401   33.3440 C   0  0  2  0  0  0  0  0  0  0  0  0
   -2.2326   21.2473   34.3071 N   0  0  0  0  0  0  0  0  0  0  0  0
   -3.6646   20.8377   32.3227 C   0  0  0  0  0  0  0  0  0  0  0  0
   -4.1060   19.7623   31.2686 C   0  0  2  0  0  0  0  0  0  0  0  0
   -5.0755   20.3528   30.3483 N   0  0  0  0  0  0  0  0  0  0  0  0
   -4.7608   18.4781   31.9472 C   0  0  2  0  0  0  0  0  0  0  0  0
   -3.7070   17.8787   32.9228 C   0  0  2  0  0  0  0  0  0  0  0  0
   -4.3977   16.6706   33.5112 O   0  0  0  0  0  0  0  0  0  0  0  0
   -3.3040   18.9773   34.0534 C   0  0  1  0  0  0  0  0  0  0  0  0
   -2.2743   18.5419   34.9980 O   0  0  0  0  0  0  0  0  0  0  0  0
   -3.5673   15.9828   34.3566 C   0  0  1  0  0  0  0  0  0  0  0  0
   -2.2504   15.7081   33.7722 C   0  0  2  0  0  0  0  0  0  0  0  0
   -2.4211   14.7170   32.8103 O   0  0  0  0  0  0  0  0  0  0  0  0
   -1.4154   15.4201   35.0383 C   0  0  2  0  0  0  0  0  0  0  0  0
   -0.9298   14.0639   34.9180 O   0  0  0  0  0  0  0  0  0  0  0  0
   -2.3706   15.5871   36.1738 C   0  0  2  0  0  0  0  0  0  0  0  0
   -3.2058   16.6345   35.5629 O   0  0  0  0  0  0  0  0  0  0  0  0
   -1.6570   16.1401   37.4620 C   0  0  0  0  0  0  0  0  0  0  0  0
   -1.1187   17.4867   37.3007 O   0  0  0  0  0  0  0  0  0  0  0  0
    0.3441   13.7590   35.5624 C   0  0  2  0  0  0  0  0  0  0  0  0
    0.5476   12.1550   35.5639 C   0  0  2  0  0  0  0  0  0  0  0  0
   -0.6028   11.5130   36.2790 N   0  0  0  0  0  0  0  0  0  0  0  0
    1.9534   11.8282   36.2715 C   0  0  1  0  0  0  0  0  0  0  0  0
    2.9938   12.5048   35.5024 O   0  0  0  0  0  0  0  0  0  0  0  0
    1.9227   12.3496   37.7787 C   0  0  2  0  0  0  0  0  0  0  0  0
    0.8578   11.6107   38.4930 O   0  0  0  0  0  0  0  0  0  0  0  0
    1.6590   13.9595   37.7545 C   0  0  1  0  0  0  0  0  0  0  0  0
    0.3718   14.2505   37.0242 O   0  0  0  0  0  0  0  0  0  0  0  0
    1.6052   14.5033   39.2207 C   0  0  0  0  0  0  0  0  0  0  0  0
    2.9552   14.8588   39.7577 N   0  0  0  0  0  0  0  0  0  0  0  0
  1  3  1  0  0  0  0
  1  2  1  6  0  0  0
  3  4  1  1  0  0  0
  3  5  1  0  0  0  0
  5  6  1  6  0  0  0
  7  8  1  6  0  0  0
  7  5  1  0  0  0  0
  9 11  1  6  0  0  0
  9  7  1  0  0  0  0
 10  9  1  0  0  0  0
 10  1  1  0  0  0  0
 12 11  1  0  0  0  0
 13 14  1  1  0  0  0
 15 13  1  0  0  0  0
 16 17  1  6  0  0  0
 16 15  1  0  0  0  0
 18  2  1  6  0  0  0
 18 19  1  0  0  0  0
 18 16  1  0  0  0  0
 19 20  1  1  0  0  0
 19 21  1  0  0  0  0
 21 22  1  1  0  0  0
 21 13  1  0  0  0  0
 23 20  1  6  0  0  0
 23 29  1  0  0  0  0
 24 25  1  6  0  0  0
 24 26  1  0  0  0  0
 24 23  1  0  0  0  0
 26 27  1  6  0  0  0
 26 28  1  0  0  0  0
 28 30  1  1  0  0  0
 29 28  1  0  0  0  0
 30 31  1  0  0  0  0
 32 27  1  1  0  0  0
 32 40  1  0  0  0  0
 33 35  1  0  0  0  0
 33 32  1  0  0  0  0
 33 34  1  1  0  0  0
 35 36  1  6  0  0  0
 35 37  1  0  0  0  0
 37 38  1  1  0  0  0
 37 39  1  0  0  0  0
 39 41  1  1  0  0  0
 40 39  1  0  0  0  0
 41 42  1  0  0  0  0
M  END
>  <CHROM.1>
-174.23268555,-171.15221527,-136.55183615,177.05054525,-49.26245731,150.40617929
64.50403466,168.70777873,86.93411367,-2.93188726,16.36468943,33.52681634
3.02182701,-0.86492841,0.40172408

>  <Name>
lig.pdb

>  <RI>
0

>  <Rbt.Current_Directory>
/home/itssahil/PROJECTS/Mol_Feturizer/New_Systems/rnas/4wcr

>  <Rbt.Executable>
rbdock ($Id: //depot/dev/client3/rdock/2013.1/src/exe/rbdock.cxx#4 $)

>  <Rbt.Library>
libRbt.so (2013.1, Build901 2013/11/27)

>  <Rbt.Parameter_File>
/export/apps/rDock/src/rDock_2013.1_src/data/scripts/dock_solv.prm

>  <Rbt.Receptor>
prm/blind_docking_100.prm

>  <SCORE>
3.93208

>  <SCORE.INTER>
-3.27833

>  <SCORE.INTER.CONST>
1

>  <SCORE.INTER.POLAR>
0

>  <SCORE.INTER.ROT>
9

>  <SCORE.INTER.SOLV>
32.7402

>  <SCORE.INTER.VDW>
-22.6989

>  <SCORE.INTER.norm>
-0.0780556

>  <SCORE.INTRA>
2.51672

>  <SCORE.INTRA.DIHEDRAL>
-2.48705

>  <SCORE.INTRA.DIHEDRAL.0>
16.2863

>  <SCORE.INTRA.POLAR>
0

>  <SCORE.INTRA.POLAR.0>
0

>  <SCORE.INTRA.REPUL>
-0.297429

>  <SCORE.INTRA.REPUL.0>
0.314433

>  <SCORE.INTRA.SOLV>
-1.32

>  <SCORE.INTRA.SOLV.lig_0>
-103.824

>  <SCORE.INTRA.VDW>
5.90739

>  <SCORE.INTRA.VDW.0>
-5.30945

>  <SCORE.INTRA.norm>
0.0599219

>  <SCORE.RESTR>
4.6937

>  <SCORE.RESTR.CAVITY>
4.6937

>  <SCORE.RESTR.norm>
0.111755

>  <SCORE.SYSTEM>
0

>  <SCORE.SYSTEM.CONST>
0

>  <SCORE.SYSTEM.DIHEDRAL>
0

>  <SCORE.SYSTEM.SOLV>
0

>  <SCORE.SYSTEM.norm>
0

>  <SCORE.heavy>
42

>  <SCORE.norm>
0.093621

>  <RMSD>
7.526

$$$$
lig.pdb
 OpenBabel11021811513D
libRbt.so/2013.1/901 2013/11/27
 42 45  0  0  0  0  0  0  0  0999 V2000
   -0.7416   18.1724   37.0757 C   0  0  2  0  0  0  0  0  0  0  0  0
   -0.7216   16.9874   36.2199 O   0  0  0  0  0  0  0  0  0  0  0  0
   -2.0580   18.9804   36.6830 C   0  0  2  0  0  0  0  0  0  0  0  0
   -3.2507   18.1744   36.9578 N   0  0  0  0  0  0  0  0  0  0  0  0
   -1.9589   19.4106   35.1387 C   0  0  1  0  0  0  0  0  0  0  0  0
   -3.1241   20.1579   34.7305 O   0  0  0  0  0  0  0  0  0  0  0  0
   -0.6715   20.2372   34.9789 C   0  0  2  0  0  0  0  0  0  0  0  0
   -0.5517   20.6256   33.6528 O   0  0  0  0  0  0  0  0  0  0  0  0
    0.5903   19.3722   35.4352 C   0  0  2  0  0  0  0  0  0  0  0  0
    0.4749   18.9664   36.8048 O   0  0  0  0  0  0  0  0  0  0  0  0
    1.8747   20.1425   35.3163 C   0  0  0  0  0  0  0  0  0  0  0  0
    2.0215   20.5297   33.9495 O   0  0  0  0  0  0  0  0  0  0  0  0
    1.5759   13.1893   36.4825 C   0  0  2  0  0  0  0  0  0  0  0  0
    2.1161   11.9500   36.9975 N   0  0  0  0  0  0  0  0  0  0  0  0
    1.8970   14.3755   37.4717 C   0  0  0  0  0  0  0  0  0  0  0  0
    1.3170   15.7322   36.9373 C   0  0  2  0  0  0  0  0  0  0  0  0
    1.6293   16.8010   37.8838 N   0  0  0  0  0  0  0  0  0  0  0  0
   -0.2615   15.6788   36.7281 C   0  0  2  0  0  0  0  0  0  0  0  0
   -0.5592   14.5295   35.7221 C   0  0  2  0  0  0  0  0  0  0  0  0
   -2.0625   14.5533   35.5729 O   0  0  0  0  0  0  0  0  0  0  0  0
   -0.0147   13.1147   36.3132 C   0  0  1  0  0  0  0  0  0  0  0  0
   -0.1912   11.9653   35.4244 O   0  0  0  0  0  0  0  0  0  0  0  0
   -2.4343   15.0003   34.3323 C   0  0  1  0  0  0  0  0  0  0  0  0
   -3.5651   14.2563   33.7674 C   0  0  2  0  0  0  0  0  0  0  0  0
   -3.0922   13.0019   33.3940 O   0  0  0  0  0  0  0  0  0  0  0  0
   -4.0663   15.2443   32.6924 C   0  0  2  0  0  0  0  0  0  0  0  0
   -3.9447   14.5716   31.4187 O   0  0  0  0  0  0  0  0  0  0  0  0
   -3.1596   16.4254   32.8045 C   0  0  2  0  0  0  0  0  0  0  0  0
   -2.9110   16.3333   34.2528 O   0  0  0  0  0  0  0  0  0  0  0  0
   -3.9036   17.7685   32.4626 C   0  0  0  0  0  0  0  0  0  0  0  0
   -3.0427   18.9453   32.5182 O   0  0  0  0  0  0  0  0  0  0  0  0
   -5.1765   14.3561   30.6655 C   0  0  2  0  0  0  0  0  0  0  0  0
   -4.9501   13.1136   29.6560 C   0  0  2  0  0  0  0  0  0  0  0  0
   -3.7939   13.4176   28.7519 N   0  0  0  0  0  0  0  0  0  0  0  0
   -6.3115   12.8807   28.8337 C   0  0  1  0  0  0  0  0  0  0  0  0
   -7.3639   12.6023   29.8067 O   0  0  0  0  0  0  0  0  0  0  0  0
   -6.6474   14.1873   27.9826 C   0  0  2  0  0  0  0  0  0  0  0  0
   -5.5471   14.3938   27.0146 O   0  0  0  0  0  0  0  0  0  0  0  0
   -6.8145   15.4384   29.0163 C   0  0  1  0  0  0  0  0  0  0  0  0
   -5.5534   15.5957   29.8285 O   0  0  0  0  0  0  0  0  0  0  0  0
   -7.1281   16.7436   28.2122 C   0  0  0  0  0  0  0  0  0  0  0  0
   -7.2532   17.9492   29.0887 N   0  0  0  0  0  0  0  0  0  0  0  0
  1  3  1  0  0  0  0
  1  2  1  6  0  0  0
  3  4  1  6  0  0  0
  3  5  1  0  0  0  0
  5  6  1  1  0  0  0
  7  8  1  6  0  0  0
  7  5  1  0  0  0  0
  9 11  1  1  0  0  0
  9  7  1  0  0  0  0
 10  9  1  0  0  0  0
 10  1  1  0  0  0  0
 12 11  1  0  0  0  0
 13 14  1  1  0  0  0
 15 13  1  0  0  0  0
 16 17  1  1  0  0  0
 16 15  1  0  0  0  0
 18  2  1  6  0  0  0
 18 19  1  0  0  0  0
 18 16  1  0  0  0  0
 19 20  1  1  0  0  0
 19 21  1  0  0  0  0
 21 22  1  6  0  0  0
 21 13  1  0  0  0  0
 23 20  1  1  0  0  0
 23 29  1  0  0  0  0
 24 25  1  6  0  0  0
 24 26  1  0  0  0  0
 24 23  1  0  0  0  0
 26 27  1  6  0  0  0
 26 28  1  0  0  0  0
 28 30  1  1  0  0  0
 29 28  1  0  0  0  0
 30 31  1  0  0  0  0
 32 27  1  6  0  0  0
 32 40  1  0  0  0  0
 33 35  1  0  0  0  0
 33 32  1  0  0  0  0
 33 34  1  6  0  0  0
 35 36  1  1  0  0  0
 35 37  1  0  0  0  0
 37 38  1  6  0  0  0
 37 39  1  0  0  0  0
 39 41  1  6  0  0  0
 40 39  1  0  0  0  0
 41 42  1  0  0  0  0
M  END
>  <CHROM.1>
-142.01512455,-59.16261469,-71.27481761,109.92648719,139.78952424,118.56441933
-178.14989680,-156.56430641,-178.17424510,-2.37164087,16.11611673,33.52374500
0.26297543,-0.83519062,0.01127138

>  <Name>
lig.pdb

>  <RI>
0

>  <Rbt.Current_Directory>
/home/itssahil/PROJECTS/Mol_Feturizer/New_Systems/rnas/4wcr

>  <Rbt.Executable>
rbdock ($Id: //depot/dev/client3/rdock/2013.1/src/exe/rbdock.cxx#4 $)

>  <Rbt.Library>
libRbt.so (2013.1, Build901 2013/11/27)

>  <Rbt.Parameter_File>
/export/apps/rDock/src/rDock_2013.1_src/data/scripts/dock_solv.prm

>  <Rbt.Receptor>
prm/blind_docking_100.prm

>  <SCORE>
-3.39579

>  <SCORE.INTER>
-9.68599

>  <SCORE.INTER.CONST>
1

>  <SCORE.INTER.POLAR>
0

>  <SCORE.INTER.ROT>
9

>  <SCORE.INTER.SOLV>
32.0245

>  <SCORE.INTER.VDW>
-26.7321

>  <SCORE.INTER.norm>
-0.230619

>  <SCORE.INTRA>
4.02809

>  <SCORE.INTRA.DIHEDRAL>
11.4246

>  <SCORE.INTRA.DIHEDRAL.0>
16.2863

>  <SCORE.INTRA.POLAR>
0

>  <SCORE.INTRA.POLAR.0>
0

>  <SCORE.INTRA.REPUL>
-0.247857

>  <SCORE.INTRA.REPUL.0>
0.314433

>  <SCORE.INTRA.SOLV>
-1.01666

>  <SCORE.INTRA.SOLV.lig_0>
-103.824

>  <SCORE.INTRA.VDW>
0.0634242

>  <SCORE.INTRA.VDW.0>
-5.30945

>  <SCORE.INTRA.norm>
0.095907

>  <SCORE.RESTR>
2.2621

>  <SCORE.RESTR.CAVITY>
2.2621

>  <SCORE.RESTR.norm>
0.0538595

>  <SCORE.SYSTEM>
0

>  <SCORE.SYSTEM.CONST>
0

>  <SCORE.SYSTEM.DIHEDRAL>
0

>  <SCORE.SYSTEM.SOLV>
0

>  <SCORE.SYSTEM.norm>
0

>  <SCORE.heavy>
42

>  <SCORE.norm>
-0.0808522

>  <RMSD>
7.702

$$$$
lig.pdb
 OpenBabel11021811513D
libRbt.so/2013.1/901 2013/11/27
 42 45  0  0  0  0  0  0  0  0999 V2000
   -0.8934   18.1135   37.0079 C   0  0  2  0  0  0  0  0  0  0  0  0
   -0.8053   16.9306   36.1534 O   0  0  0  0  0  0  0  0  0  0  0  0
   -2.1701   18.9265   36.5088 C   0  0  2  0  0  0  0  0  0  0  0  0
   -3.3839   18.1234   36.6806 N   0  0  0  0  0  0  0  0  0  0  0  0
   -1.9409   19.3604   34.9794 C   0  0  1  0  0  0  0  0  0  0  0  0
   -3.0657   20.1124   34.4774 O   0  0  0  0  0  0  0  0  0  0  0  0
   -0.6423   20.1835   34.9303 C   0  0  2  0  0  0  0  0  0  0  0  0
   -0.4108   20.5750   33.6200 O   0  0  0  0  0  0  0  0  0  0  0  0
    0.5744   19.3134   35.4881 C   0  0  2  0  0  0  0  0  0  0  0  0
    0.3438   18.9044   36.8420 O   0  0  0  0  0  0  0  0  0  0  0  0
    1.8665   20.0801   35.4792 C   0  0  0  0  0  0  0  0  0  0  0  0
    2.2004   20.3485   34.1168 O   0  0  0  0  0  0  0  0  0  0  0  0
    1.5645   13.1833   36.4915 C   0  0  2  0  0  0  0  0  0  0  0  0
    2.1184   11.9584   37.0261 N   0  0  0  0  0  0  0  0  0  0  0  0
    1.8373   14.3812   37.4812 C   0  0  0  0  0  0  0  0  0  0  0  0
    1.2418   15.7225   36.9255 C   0  0  2  0  0  0  0  0  0  0  0  0
    1.5092   16.8026   37.8730 N   0  0  0  0  0  0  0  0  0  0  0  0
   -0.3299   15.6347   36.6797 C   0  0  2  0  0  0  0  0  0  0  0  0
   -0.5797   14.4741   35.6736 C   0  0  2  0  0  0  0  0  0  0  0  0
   -2.0792   14.4654   35.4891 O   0  0  0  0  0  0  0  0  0  0  0  0
   -0.0197   13.0743   36.2855 C   0  0  1  0  0  0  0  0  0  0  0  0
   -0.1510   11.9168   35.3994 O   0  0  0  0  0  0  0  0  0  0  0  0
   -2.4330   14.9362   34.2520 C   0  0  1  0  0  0  0  0  0  0  0  0
   -3.6002   14.2506   33.6874 C   0  0  2  0  0  0  0  0  0  0  0  0
   -3.1897   12.9767   33.3061 O   0  0  0  0  0  0  0  0  0  0  0  0
   -4.0566   15.2672   32.6190 C   0  0  2  0  0  0  0  0  0  0  0  0
   -3.9717   14.5959   31.3416 O   0  0  0  0  0  0  0  0  0  0  0  0
   -3.0936   16.4025   32.7339 C   0  0  2  0  0  0  0  0  0  0  0  0
   -2.8450   16.2911   34.1808 O   0  0  0  0  0  0  0  0  0  0  0  0
   -3.7730   17.7817   32.4012 C   0  0  0  0  0  0  0  0  0  0  0  0
   -5.1769   17.6661   32.0206 O   0  0  0  0  0  0  0  0  0  0  0  0
   -5.2316   14.2994   30.6665 C   0  0  2  0  0  0  0  0  0  0  0  0
   -4.9777   13.1039   29.6080 C   0  0  2  0  0  0  0  0  0  0  0  0
   -3.9144   13.5223   28.6379 N   0  0  0  0  0  0  0  0  0  0  0  0
   -6.3699   12.7812   28.8721 C   0  0  1  0  0  0  0  0  0  0  0  0
   -7.3272   12.3952   29.9047 O   0  0  0  0  0  0  0  0  0  0  0  0
   -6.8663   14.0763   28.0842 C   0  0  2  0  0  0  0  0  0  0  0  0
   -5.8553   14.3945   27.0513 O   0  0  0  0  0  0  0  0  0  0  0  0
   -7.0602   15.2846   29.1632 C   0  0  1  0  0  0  0  0  0  0  0  0
   -5.7625   15.5241   29.8935 O   0  0  0  0  0  0  0  0  0  0  0  0
   -7.5310   16.5790   28.4207 C   0  0  0  0  0  0  0  0  0  0  0  0
   -6.4934   17.1253   27.4921 N   0  0  0  0  0  0  0  0  0  0  0  0
  1  3  1  0  0  0  0
  1  2  1  6  0  0  0
  3  4  1  6  0  0  0
  3  5  1  0  0  0  0
  5  6  1  1  0  0  0
  7  8  1  6  0  0  0
  7  5  1  0  0  0  0
  9 11  1  1  0  0  0
  9  7  1  0  0  0  0
 10  9  1  0  0  0  0
 10  1  1  0  0  0  0
 12 11  1  0  0  0  0
 13 14  1  1  0  0  0
 15 13  1  0  0  0  0
 16 17  1  1  0  0  0
 16 15  1  0  0  0  0
 18  2  1  6  0  0  0
 18 19  1  0  0  0  0
 18 16  1  0  0  0  0
 19 20  1  1  0  0  0
 19 21  1  0  0  0  0
 21 22  1  6  0  0  0
 21 13  1  0  0  0  0
 23 20  1  1  0  0  0
 23 29  1  0  0  0  0
 24 25  1  6  0  0  0
 24 26  1  0  0  0  0
 24 23  1  0  0  0  0
 26 27  1  6  0  0  0
 26 28  1  0  0  0  0
 28 30  1  1  0  0  0
 29 28  1  0  0  0  0
 30 31  1  0  0  0  0
 32 27  1  6  0  0  0
 32 40  1  0  0  0  0
 33 35  1  0  0  0  0
 33 32  1  0  0  0  0
 33 34  1  6  0  0  0
 35 36  1  1  0  0  0
 35 37  1  0  0  0  0
 37 38  1  6  0  0  0
 37 39  1  0  0  0  0
 39 41  1  6  0  0  0
 40 39  1  0  0  0  0
 41 42  1  0  0  0  0
M  END
>  <CHROM.1>
-145.04268609,-65.15932283,-72.40960898,108.08873661,144.40706049,111.35632671
-1.46242672,-158.62240970,-66.06450544,-2.45840060,16.01599953,33.45103553
0.24578418,-0.83256646,-0.00432568

>  <Name>
lig.pdb

>  <RI>
0

>  <Rbt.Current_Directory>
/home/itssahil/PROJECTS/Mol_Feturizer/New_Systems/rnas/4wcr

>  <Rbt.Executable>
rbdock ($Id: //depot/dev/client3/rdock/2013.1/src/exe/rbdock.cxx#4 $)

>  <Rbt.Library>
libRbt.so (2013.1, Build901 2013/11/27)

>  <Rbt.Parameter_File>
/export/apps/rDock/src/rDock_2013.1_src/data/scripts/dock_solv.prm

>  <Rbt.Receptor>
prm/blind_docking_60.prm

>  <SCORE>
-1.70247

>  <SCORE.INTER>
-10.5432

>  <SCORE.INTER.CONST>
1

>  <SCORE.INTER.POLAR>
0

>  <SCORE.INTER.ROT>
9

>  <SCORE.INTER.SOLV>
35.8447

>  <SCORE.INTER.VDW>
-28.577

>  <SCORE.INTER.norm>
-0.251028

>  <SCORE.INTRA>
6.46967

>  <SCORE.INTRA.DIHEDRAL>
14.02

>  <SCORE.INTRA.DIHEDRAL.0>
16.2863

>  <SCORE.INTRA.POLAR>
0

>  <SCORE.INTRA.POLAR.0>
0

>  <SCORE.INTRA.REPUL>
-0.148245

>  <SCORE.INTRA.REPUL.0>
0.314433

>  <SCORE.INTRA.SOLV>
1.12244

>  <SCORE.INTRA.SOLV.lig_0>
-103.824

>  <SCORE.INTRA.VDW>
-0.360342

>  <SCORE.INTRA.VDW.0>
-5.30945

>  <SCORE.INTRA.norm>
0.15404

>  <SCORE.RESTR>
2.37103

>  <SCORE.RESTR.CAVITY>
2.37103

>  <SCORE.RESTR.norm>
0.0564531

>  <SCORE.SYSTEM>
0

>  <SCORE.SYSTEM.CONST>
0

>  <SCORE.SYSTEM.DIHEDRAL>
0

>  <SCORE.SYSTEM.SOLV>
0

>  <SCORE.SYSTEM.norm>
0

>  <SCORE.heavy>
42

>  <SCORE.norm>
-0.0405351

>  <RMSD>
7.706

$$$$
lig.pdb
 OpenBabel11021811513D
libRbt.so/2013.1/901 2013/11/27
 42 45  0  0  0  0  0  0  0  0999 V2000
   -1.5427   18.6713   36.5424 C   0  0  2  0  0  0  0  0  0  0  0  0
   -1.6701   17.3623   35.9040 O   0  0  0  0  0  0  0  0  0  0  0  0
   -0.3892   19.4382   35.7542 C   0  0  2  0  0  0  0  0  0  0  0  0
   -0.7703   19.6275   34.3518 N   0  0  0  0  0  0  0  0  0  0  0  0
    0.9786   18.6099   35.9048 C   0  0  1  0  0  0  0  0  0  0  0  0
    2.0638   19.2671   35.2171 O   0  0  0  0  0  0  0  0  0  0  0  0
    1.2630   18.4722   37.4103 C   0  0  2  0  0  0  0  0  0  0  0  0
    2.4400   17.7581   37.5791 O   0  0  0  0  0  0  0  0  0  0  0  0
    0.0423   17.7363   38.1293 C   0  0  2  0  0  0  0  0  0  0  0  0
   -1.1785   18.4675   37.9600 O   0  0  0  0  0  0  0  0  0  0  0  0
    0.2624   17.5933   39.6086 C   0  0  0  0  0  0  0  0  0  0  0  0
    1.3838   16.7292   39.7972 O   0  0  0  0  0  0  0  0  0  0  0  0
   -5.1255   14.6608   36.6351 C   0  0  2  0  0  0  0  0  0  0  0  0
   -6.4437   14.0713   36.5471 N   0  0  0  0  0  0  0  0  0  0  0  0
   -5.2382   16.1964   36.9788 C   0  0  0  0  0  0  0  0  0  0  0  0
   -3.8200   16.8612   37.0757 C   0  0  2  0  0  0  0  0  0  0  0  0
   -3.9688   18.2811   37.3877 N   0  0  0  0  0  0  0  0  0  0  0  0
   -2.9876   16.7186   35.7248 C   0  0  2  0  0  0  0  0  0  0  0  0
   -2.8529   15.1987   35.4192 C   0  0  2  0  0  0  0  0  0  0  0  0
   -2.0498   15.1517   34.1403 O   0  0  0  0  0  0  0  0  0  0  0  0
   -4.3267   14.5294   35.2535 C   0  0  1  0  0  0  0  0  0  0  0  0
   -4.3259   13.0850   35.0173 O   0  0  0  0  0  0  0  0  0  0  0  0
   -2.7262   15.7396   33.1039 C   0  0  1  0  0  0  0  0  0  0  0  0
   -3.8083   14.9029   32.5746 C   0  0  2  0  0  0  0  0  0  0  0  0
   -3.2188   13.8621   31.8632 O   0  0  0  0  0  0  0  0  0  0  0  0
   -4.6659   15.9538   31.8375 C   0  0  2  0  0  0  0  0  0  0  0  0
   -4.6883   15.5706   30.4438 O   0  0  0  0  0  0  0  0  0  0  0  0
   -3.9610   17.2506   32.0632 C   0  0  2  0  0  0  0  0  0  0  0  0
   -3.4211   16.9402   33.3973 O   0  0  0  0  0  0  0  0  0  0  0  0
   -4.9676   18.4564   32.1485 C   0  0  0  0  0  0  0  0  0  0  0  0
   -5.7149   18.6836   30.9159 O   0  0  0  0  0  0  0  0  0  0  0  0
   -5.9324   15.0006   29.9356 C   0  0  2  0  0  0  0  0  0  0  0  0
   -5.5749   13.6960   29.0499 C   0  0  2  0  0  0  0  0  0  0  0  0
   -4.6525   14.0934   27.9373 N   0  0  0  0  0  0  0  0  0  0  0  0
   -6.9498   13.0726   28.4975 C   0  0  1  0  0  0  0  0  0  0  0  0
   -7.7683   12.7313   29.6573 O   0  0  0  0  0  0  0  0  0  0  0  0
   -7.6840   14.1441   27.5717 C   0  0  2  0  0  0  0  0  0  0  0  0
   -6.8025   14.4264   26.4170 O   0  0  0  0  0  0  0  0  0  0  0  0
   -7.9828   15.4726   28.4704 C   0  0  1  0  0  0  0  0  0  0  0  0
   -6.6893   16.0009   29.0382 O   0  0  0  0  0  0  0  0  0  0  0  0
   -8.6888   16.5543   27.5871 C   0  0  0  0  0  0  0  0  0  0  0  0
   -8.7820   17.8852   28.2634 N   0  0  0  0  0  0  0  0  0  0  0  0
  1  3  1  0  0  0  0
  1  2  1  6  0  0  0
  3  4  1  6  0  0  0
  3  5  1  0  0  0  0
  5  6  1  6  0  0  0
  7  8  1  6  0  0  0
  7  5  1  0  0  0  0
  9 11  1  1  0  0  0
  9  7  1  0  0  0  0
 10  9  1  0  0  0  0
 10  1  1  0  0  0  0
 12 11  1  0  0  0  0
 13 14  1  6  0  0  0
 15 13  1  0  0  0  0
 16 17  1  6  0  0  0
 16 15  1  0  0  0  0
 18  2  1  1  0  0  0
 18 19  1  0  0  0  0
 18 16  1  0  0  0  0
 19 20  1  6  0  0  0
 19 21  1  0  0  0  0
 21 22  1  1  0  0  0
 21 13  1  0  0  0  0
 23 20  1  1  0  0  0
 23 29  1  0  0  0  0
 24 25  1  6  0  0  0
 24 26  1  0  0  0  0
 24 23  1  0  0  0  0
 26 27  1  6  0  0  0
 26 28  1  0  0  0  0
 28 30  1  1  0  0  0
 29 28  1  0  0  0  0
 30 31  1  0  0  0  0
 32 27  1  6  0  0  0
 32 40  1  0  0  0  0
 33 35  1  0  0  0  0
 33 32  1  0  0  0  0
 33 34  1  6  0  0  0
 35 36  1  1  0  0  0
 35 37  1  0  0  0  0
 37 38  1  6  0  0  0
 37 39  1  0  0  0  0
 39 41  1  6  0  0  0
 40 39  1  0  0  0  0
 41 42  1  0  0  0  0
M  END
>  <CHROM.1>
-142.47794455,-64.84054279,-44.73190381,-63.59881539,-75.66625323,106.56144615
-63.20185169,-134.71676617,-169.92934198,-3.61218725,16.30641702,33.44954474
-0.64716482,-0.73289944,-1.16105678

>  <Name>
lig.pdb

>  <RI>
0

>  <Rbt.Current_Directory>
/home/itssahil/PROJECTS/Mol_Feturizer/New_Systems/rnas/4wcr

>  <Rbt.Executable>
rbdock ($Id: //depot/dev/client3/rdock/2013.1/src/exe/rbdock.cxx#4 $)

>  <Rbt.Library>
libRbt.so (2013.1, Build901 2013/11/27)

>  <Rbt.Parameter_File>
/export/apps/rDock/src/rDock_2013.1_src/data/scripts/dock_solv.prm

>  <Rbt.Receptor>
prm/blind_docking_60.prm

>  <SCORE>
17.7213

>  <SCORE.INTER>
3.48773

>  <SCORE.INTER.CONST>
1

>  <SCORE.INTER.POLAR>
0

>  <SCORE.INTER.ROT>
9

>  <SCORE.INTER.SOLV>
37.9675

>  <SCORE.INTER.VDW>
-19.9307

>  <SCORE.INTER.norm>
0.0830411

>  <SCORE.INTRA>
8.89971

>  <SCORE.INTRA.DIHEDRAL>
4.36304

>  <SCORE.INTRA.DIHEDRAL.0>
16.2863

>  <SCORE.INTRA.POLAR>
0

>  <SCORE.INTRA.POLAR.0>
0

>  <SCORE.INTRA.REPUL>
-0.314433

>  <SCORE.INTRA.REPUL.0>
0.314433

>  <SCORE.INTRA.SOLV>
-1.93173

>  <SCORE.INTRA.SOLV.lig_0>
-103.824

>  <SCORE.INTRA.VDW>
9.25622

>  <SCORE.INTRA.VDW.0>
-5.30945

>  <SCORE.INTRA.norm>
0.211898

>  <SCORE.RESTR>
5.33384

>  <SCORE.RESTR.CAVITY>
5.33384

>  <SCORE.RESTR.norm>
0.126996

>  <SCORE.SYSTEM>
0

>  <SCORE.SYSTEM.CONST>
0

>  <SCORE.SYSTEM.DIHEDRAL>
0

>  <SCORE.SYSTEM.SOLV>
0

>  <SCORE.SYSTEM.norm>
0

>  <SCORE.heavy>
42

>  <SCORE.norm>
0.421935

>  <RMSD>
7.707

$$$$
lig.pdb
 OpenBabel11021811513D
libRbt.so/2013.1/901 2013/11/27
 42 45  0  0  0  0  0  0  0  0999 V2000
   -0.6417   18.3216   36.9088 C   0  0  2  0  0  0  0  0  0  0  0  0
   -0.5965   17.0863   36.1284 O   0  0  0  0  0  0  0  0  0  0  0  0
   -1.9611   19.0882   36.4490 C   0  0  2  0  0  0  0  0  0  0  0  0
   -3.1487   18.2867   36.7570 N   0  0  0  0  0  0  0  0  0  0  0  0
   -1.8447   19.4233   34.8825 C   0  0  1  0  0  0  0  0  0  0  0  0
   -3.0121   20.1301   34.4131 O   0  0  0  0  0  0  0  0  0  0  0  0
   -0.5642   20.2535   34.6892 C   0  0  2  0  0  0  0  0  0  0  0  0
   -0.4298   20.5606   33.3434 O   0  0  0  0  0  0  0  0  0  0  0  0
    0.7002   19.4333   35.2153 C   0  0  2  0  0  0  0  0  0  0  0  0
    0.5699   19.1116   36.6057 O   0  0  0  0  0  0  0  0  0  0  0  0
    1.9777   20.2098   35.0663 C   0  0  0  0  0  0  0  0  0  0  0  0
    1.8401   21.4167   35.8173 O   0  0  0  0  0  0  0  0  0  0  0  0
    1.5991   13.2602   36.6880 C   0  0  2  0  0  0  0  0  0  0  0  0
    2.1040   12.0491   37.2973 N   0  0  0  0  0  0  0  0  0  0  0  0
    1.9460   14.5079   37.5890 C   0  0  0  0  0  0  0  0  0  0  0  0
    1.4047   15.8356   36.9514 C   0  0  2  0  0  0  0  0  0  0  0  0
    1.7398   16.9634   37.8184 N   0  0  0  0  0  0  0  0  0  0  0  0
   -0.1736   15.8076   36.7354 C   0  0  2  0  0  0  0  0  0  0  0  0
   -0.4960   14.5948   35.8151 C   0  0  2  0  0  0  0  0  0  0  0  0
   -1.9974   14.6462   35.6538 O   0  0  0  0  0  0  0  0  0  0  0  0
    0.0080   13.2143   36.5133 C   0  0  1  0  0  0  0  0  0  0  0  0
   -0.1938   12.0070   35.7108 O   0  0  0  0  0  0  0  0  0  0  0  0
   -2.3508   15.0248   34.3853 C   0  0  1  0  0  0  0  0  0  0  0  0
   -3.5607   14.3527   33.9000 C   0  0  2  0  0  0  0  0  0  0  0  0
   -3.2207   13.0313   33.6263 O   0  0  0  0  0  0  0  0  0  0  0  0
   -3.9865   15.2942   32.7531 C   0  0  2  0  0  0  0  0  0  0  0  0
   -3.9588   14.5108   31.5385 O   0  0  0  0  0  0  0  0  0  0  0  0
   -2.9667   16.3849   32.7538 C   0  0  2  0  0  0  0  0  0  0  0  0
   -2.6967   16.3875   34.2012 O   0  0  0  0  0  0  0  0  0  0  0  0
   -3.5834   17.7626   32.3109 C   0  0  0  0  0  0  0  0  0  0  0  0
   -4.5067   18.3316   33.2871 O   0  0  0  0  0  0  0  0  0  0  0  0
   -5.1798   14.4894   30.7387 C   0  0  2  0  0  0  0  0  0  0  0  0
   -5.0973   13.2452   29.7094 C   0  0  2  0  0  0  0  0  0  0  0  0
   -3.8763   13.3945   28.8528 N   0  0  0  0  0  0  0  0  0  0  0  0
   -6.4464   13.2266   28.8355 C   0  0  1  0  0  0  0  0  0  0  0  0
   -7.5635   13.0866   29.7651 O   0  0  0  0  0  0  0  0  0  0  0  0
   -6.5583   14.5830   28.0035 C   0  0  2  0  0  0  0  0  0  0  0  0
   -5.4043   14.6449   27.0790 O   0  0  0  0  0  0  0  0  0  0  0  0
   -6.5819   15.8266   29.0593 C   0  0  1  0  0  0  0  0  0  0  0  0
   -5.3425   15.7851   29.9178 O   0  0  0  0  0  0  0  0  0  0  0  0
   -6.6737   17.1775   28.2749 C   0  0  0  0  0  0  0  0  0  0  0  0
   -6.9003   18.3541   29.1702 N   0  0  0  0  0  0  0  0  0  0  0  0
  1  3  1  0  0  0  0
  1  2  1  6  0  0  0
  3  4  1  6  0  0  0
  3  5  1  0  0  0  0
  5  6  1  1  0  0  0
  7  8  1  6  0  0  0
  7  5  1  0  0  0  0
  9 11  1  1  0  0  0
  9  7  1  0  0  0  0
 10  9  1  0  0  0  0
 10  1  1  0  0  0  0
 12 11  1  0  0  0  0
 13 14  1  1  0  0  0
 15 13  1  0  0  0  0
 16 17  1  1  0  0  0
 16 15  1  0  0  0  0
 18  2  1  6  0  0  0
 18 19  1  0  0  0  0
 18 16  1  0  0  0  0
 19 20  1  1  0  0  0
 19 21  1  0  0  0  0
 21 22  1  6  0  0  0
 21 13  1  0  0  0  0
 23 20  1  1  0  0  0
 23 29  1  0  0  0  0
 24 25  1  6  0  0  0
 24 26  1  0  0  0  0
 24 23  1  0  0  0  0
 26 27  1  6  0  0  0
 26 28  1  0  0  0  0
 28 30  1  1  0  0  0
 29 28  1  0  0  0  0
 30 31  1  0  0  0  0
 32 27  1  6  0  0  0
 32 40  1  0  0  0  0
 33 35  1  0  0  0  0
 33 32  1  0  0  0  0
 33 34  1  6  0  0  0
 35 36  1  1  0  0  0
 35 37  1  0  0  0  0
 37 38  1  6  0  0  0
 37 39  1  0  0  0  0
 39 41  1  6  0  0  0
 40 39  1  0  0  0  0
 41 42  1  0  0  0  0
M  END
>  <CHROM.1>
-139.88617125,59.31450231,-73.78682083,109.20395388,144.40529754,125.70442686
69.61380126,-163.12119580,171.64144018,-2.33667856,16.23989504,33.58488808
0.22115539,-0.83564583,-0.01890482

>  <Name>
lig.pdb

>  <RI>
0

>  <Rbt.Current_Directory>
/home/itssahil/PROJECTS/Mol_Feturizer/New_Systems/rnas/4wcr

>  <Rbt.Executable>
rbdock ($Id: //depot/dev/client3/rdock/2013.1/src/exe/rbdock.cxx#4 $)

>  <Rbt.Library>
libRbt.so (2013.1, Build901 2013/11/27)

>  <Rbt.Parameter_File>
/export/apps/rDock/src/rDock_2013.1_src/data/scripts/dock_solv.prm

>  <Rbt.Receptor>
prm/blind_docking_60.prm

>  <SCORE>
-3.07377

>  <SCORE.INTER>
-8.59185

>  <SCORE.INTER.CONST>
1

>  <SCORE.INTER.POLAR>
0

>  <SCORE.INTER.ROT>
9

>  <SCORE.INTER.SOLV>
33.2603

>  <SCORE.INTER.VDW>
-26.4147

>  <SCORE.INTER.norm>
-0.204568

>  <SCORE.INTRA>
3.24796

>  <SCORE.INTRA.DIHEDRAL>
10.4736

>  <SCORE.INTRA.DIHEDRAL.0>
16.2863

>  <SCORE.INTRA.POLAR>
0

>  <SCORE.INTRA.POLAR.0>
0

>  <SCORE.INTRA.REPUL>
-0.144972

>  <SCORE.INTRA.REPUL.0>
0.314433

>  <SCORE.INTRA.SOLV>
-0.643834

>  <SCORE.INTRA.SOLV.lig_0>
-103.824

>  <SCORE.INTRA.VDW>
-0.942078

>  <SCORE.INTRA.VDW.0>
-5.30945

>  <SCORE.INTRA.norm>
0.0773325

>  <SCORE.RESTR>
2.27012

>  <SCORE.RESTR.CAVITY>
2.27012

>  <SCORE.RESTR.norm>
0.0540505

>  <SCORE.SYSTEM>
0

>  <SCORE.SYSTEM.CONST>
0

>  <SCORE.SYSTEM.DIHEDRAL>
0

>  <SCORE.SYSTEM.SOLV>
0

>  <SCORE.SYSTEM.norm>
0

>  <SCORE.heavy>
42

>  <SCORE.norm>
-0.0731849

>  <RMSD>
7.730

$$$$
lig.pdb
 OpenBabel11021811513D
libRbt.so/2013.1/901 2013/11/27
 42 45  0  0  0  0  0  0  0  0999 V2000
   -2.7753   21.9058   33.4283 C   0  0  2  0  0  0  0  0  0  0  0  0
   -3.9421   21.4429   32.6790 O   0  0  0  0  0  0  0  0  0  0  0  0
   -3.0000   23.4633   33.6805 C   0  0  2  0  0  0  0  0  0  0  0  0
   -4.2022   23.6794   34.4903 N   0  0  0  0  0  0  0  0  0  0  0  0
   -3.0823   24.2102   32.2609 C   0  0  1  0  0  0  0  0  0  0  0  0
   -3.2747   25.6304   32.4301 O   0  0  0  0  0  0  0  0  0  0  0  0
   -1.7765   23.9013   31.5086 C   0  0  2  0  0  0  0  0  0  0  0  0
   -1.8131   24.5307   30.2732 O   0  0  0  0  0  0  0  0  0  0  0  0
   -1.6069   22.3231   31.3390 C   0  0  2  0  0  0  0  0  0  0  0  0
   -1.5680   21.6643   32.6110 O   0  0  0  0  0  0  0  0  0  0  0  0
   -0.3340   21.9663   30.6251 C   0  0  0  0  0  0  0  0  0  0  0  0
   -0.4176   22.4964   29.3015 O   0  0  0  0  0  0  0  0  0  0  0  0
   -5.2880   17.3149   31.7194 C   0  0  2  0  0  0  0  0  0  0  0  0
   -5.4044   16.0325   31.0600 N   0  0  0  0  0  0  0  0  0  0  0  0
   -5.5236   18.4821   30.6845 C   0  0  0  0  0  0  0  0  0  0  0  0
   -5.3982   19.8857   31.3748 C   0  0  2  0  0  0  0  0  0  0  0  0
   -5.6157   20.9367   30.3828 N   0  0  0  0  0  0  0  0  0  0  0  0
   -3.9722   20.1066   32.0501 C   0  0  2  0  0  0  0  0  0  0  0  0
   -3.7705   18.9703   33.0941 C   0  0  2  0  0  0  0  0  0  0  0  0
   -2.4120   19.2569   33.6898 O   0  0  0  0  0  0  0  0  0  0  0  0
   -3.8348   17.5195   32.3601 C   0  0  1  0  0  0  0  0  0  0  0  0
   -3.7120   16.3685   33.2558 O   0  0  0  0  0  0  0  0  0  0  0  0
   -2.1514   18.4375   34.7566 C   0  0  1  0  0  0  0  0  0  0  0  0
   -0.8734   18.7347   35.4119 C   0  0  2  0  0  0  0  0  0  0  0  0
    0.1398   18.2909   34.5674 O   0  0  0  0  0  0  0  0  0  0  0  0
   -1.0801   18.0662   36.7880 C   0  0  2  0  0  0  0  0  0  0  0  0
   -0.0614   17.0485   36.9145 O   0  0  0  0  0  0  0  0  0  0  0  0
   -2.4578   17.4930   36.7327 C   0  0  2  0  0  0  0  0  0  0  0  0
   -3.0495   18.5132   35.8512 O   0  0  0  0  0  0  0  0  0  0  0  0
   -3.1579   17.5160   38.1412 C   0  0  0  0  0  0  0  0  0  0  0  0
   -3.4193   18.8609   38.6432 O   0  0  0  0  0  0  0  0  0  0  0  0
    0.1539   16.4916   38.2466 C   0  0  2  0  0  0  0  0  0  0  0  0
    1.4983   15.5940   38.2165 C   0  0  2  0  0  0  0  0  0  0  0  0
    1.3494   14.5180   37.1836 N   0  0  0  0  0  0  0  0  0  0  0  0
    1.7300   14.9879   39.6872 C   0  0  1  0  0  0  0  0  0  0  0  0
    1.8528   16.1154   40.6067 O   0  0  0  0  0  0  0  0  0  0  0  0
    0.4937   14.0593   40.0792 C   0  0  2  0  0  0  0  0  0  0  0  0
    0.4446   12.9378   39.1147 O   0  0  0  0  0  0  0  0  0  0  0  0
   -0.8582   14.9721   40.0469 C   0  0  1  0  0  0  0  0  0  0  0  0
   -1.0195   15.5892   38.6802 O   0  0  0  0  0  0  0  0  0  0  0  0
   -2.0963   14.0869   40.4104 C   0  0  0  0  0  0  0  0  0  0  0  0
   -2.0512   13.5748   41.8150 N   0  0  0  0  0  0  0  0  0  0  0  0
  1  3  1  0  0  0  0
  1  2  1  6  0  0  0
  3  4  1  6  0  0  0
  3  5  1  0  0  0  0
  5  6  1  1  0  0  0
  7  8  1  6  0  0  0
  7  5  1  0  0  0  0
  9 11  1  1  0  0  0
  9  7  1  0  0  0  0
 10  9  1  0  0  0  0
 10  1  1  0  0  0  0
 12 11  1  0  0  0  0
 13 14  1  6  0  0  0
 15 13  1  0  0  0  0
 16 17  1  6  0  0  0
 16 15  1  0  0  0  0
 18  2  1  1  0  0  0
 18 19  1  0  0  0  0
 18 16  1  0  0  0  0
 19 20  1  6  0  0  0
 19 21  1  0  0  0  0
 21 22  1  1  0  0  0
 21 13  1  0  0  0  0
 23 20  1  6  0  0  0
 23 29  1  0  0  0  0
 24 25  1  6  0  0  0
 24 26  1  0  0  0  0
 24 23  1  0  0  0  0
 26 27  1  6  0  0  0
 26 28  1  0  0  0  0
 28 30  1  1  0  0  0
 29 28  1  0  0  0  0
 30 31  1  0  0  0  0
 32 27  1  6  0  0  0
 32 40  1  0  0  0  0
 33 35  1  0  0  0  0
 33 32  1  0  0  0  0
 33 34  1  6  0  0  0
 35 36  1  1  0  0  0
 35 37  1  0  0  0  0
 37 38  1  6  0  0  0
 37 39  1  0  0  0  0
 39 41  1  6  0  0  0
 40 39  1  0  0  0  0
 41 42  1  0  0  0  0
M  END
>  <CHROM.1>
168.58608775,-63.93154997,177.39869952,172.29143518,-176.72818914,165.94658682
65.65722437,-169.54156236,65.15558812,-2.05908525,18.77826546,34.90979801
-1.93177632,0.75265446,2.56834461

>  <Name>
lig.pdb

>  <RI>
0

>  <Rbt.Current_Directory>
/home/itssahil/PROJECTS/Mol_Feturizer/New_Systems/rnas/4wcr

>  <Rbt.Executable>
rbdock ($Id: //depot/dev/client3/rdock/2013.1/src/exe/rbdock.cxx#4 $)

>  <Rbt.Library>
libRbt.so (2013.1, Build901 2013/11/27)

>  <Rbt.Parameter_File>
/export/apps/rDock/src/rDock_2013.1_src/data/scripts/dock_solv.prm

>  <Rbt.Receptor>
prm/pocket_docking_8.prm

>  <SCORE>
-20.4971

>  <SCORE.INTER>
-11.2521

>  <SCORE.INTER.CONST>
1

>  <SCORE.INTER.POLAR>
0

>  <SCORE.INTER.ROT>
9

>  <SCORE.INTER.SOLV>
26.2725

>  <SCORE.INTER.VDW>
-25.8589

>  <SCORE.INTER.norm>
-0.267906

>  <SCORE.INTRA>
-9.24501

>  <SCORE.INTRA.DIHEDRAL>
-13.0832

>  <SCORE.INTRA.DIHEDRAL.0>
16.2863

>  <SCORE.INTRA.POLAR>
0

>  <SCORE.INTRA.POLAR.0>
0

>  <SCORE.INTRA.REPUL>
-0.314433

>  <SCORE.INTRA.REPUL.0>
0.314433

>  <SCORE.INTRA.SOLV>
-5.37851

>  <SCORE.INTRA.SOLV.lig_0>
-103.824

>  <SCORE.INTRA.VDW>
1.55803

>  <SCORE.INTRA.VDW.0>
-5.30945

>  <SCORE.INTRA.norm>
-0.220119

>  <SCORE.RESTR>
0

>  <SCORE.RESTR.CAVITY>
0

>  <SCORE.RESTR.norm>
0

>  <SCORE.SYSTEM>
0

>  <SCORE.SYSTEM.CONST>
0

>  <SCORE.SYSTEM.DIHEDRAL>
0

>  <SCORE.SYSTEM.SOLV>
0

>  <SCORE.SYSTEM.norm>
0

>  <SCORE.heavy>
42

>  <SCORE.norm>
-0.488026

>  <RMSD>
7.747

$$$$
lig.pdb
 OpenBabel11021811513D
libRbt.so/2013.1/901 2013/11/27
 42 45  0  0  0  0  0  0  0  0999 V2000
   -0.2193   17.9973   37.1532 C   0  0  2  0  0  0  0  0  0  0  0  0
   -0.4024   16.8338   36.2872 O   0  0  0  0  0  0  0  0  0  0  0  0
   -1.6323   18.2652   37.8399 C   0  0  2  0  0  0  0  0  0  0  0  0
   -2.0246   17.1171   38.6618 N   0  0  0  0  0  0  0  0  0  0  0  0
   -2.7107   18.5881   36.6942 C   0  0  1  0  0  0  0  0  0  0  0  0
   -4.0111   18.8509   37.2623 O   0  0  0  0  0  0  0  0  0  0  0  0
   -2.1841   19.7971   35.9020 C   0  0  2  0  0  0  0  0  0  0  0  0
   -3.0920   20.1041   34.8996 O   0  0  0  0  0  0  0  0  0  0  0  0
   -0.7493   19.4614   35.2877 C   0  0  2  0  0  0  0  0  0  0  0  0
    0.1956   19.1428   36.3169 O   0  0  0  0  0  0  0  0  0  0  0  0
   -0.1806   20.6196   34.5181 C   0  0  0  0  0  0  0  0  0  0  0  0
    1.1068   20.2294   34.0386 O   0  0  0  0  0  0  0  0  0  0  0  0
    1.5834   12.8555   36.3368 C   0  0  2  0  0  0  0  0  0  0  0  0
    2.0392   11.5595   36.7902 N   0  0  0  0  0  0  0  0  0  0  0  0
    2.0383   13.9769   37.3489 C   0  0  0  0  0  0  0  0  0  0  0  0
    1.5519   15.3937   36.8813 C   0  0  2  0  0  0  0  0  0  0  0  0
    1.9867   16.4004   37.8474 N   0  0  0  0  0  0  0  0  0  0  0  0
   -0.0325   15.4755   36.7350 C   0  0  2  0  0  0  0  0  0  0  0  0
   -0.4616   14.3895   35.7063 C   0  0  2  0  0  0  0  0  0  0  0  0
   -1.9625   14.5399   35.6193 O   0  0  0  0  0  0  0  0  0  0  0  0
   -0.0132   12.9157   36.2301 C   0  0  1  0  0  0  0  0  0  0  0  0
   -0.3172   11.8158   35.3136 O   0  0  0  0  0  0  0  0  0  0  0  0
   -2.3478   14.9990   34.3872 C   0  0  1  0  0  0  0  0  0  0  0  0
   -3.5188   14.2968   33.8517 C   0  0  2  0  0  0  0  0  0  0  0  0
   -3.1020   13.0253   33.4693 O   0  0  0  0  0  0  0  0  0  0  0  0
   -4.0094   15.3015   32.7872 C   0  0  2  0  0  0  0  0  0  0  0  0
   -3.9440   14.6233   31.5123 O   0  0  0  0  0  0  0  0  0  0  0  0
   -3.0571   16.4483   32.8747 C   0  0  2  0  0  0  0  0  0  0  0  0
   -2.7766   16.3487   34.3167 O   0  0  0  0  0  0  0  0  0  0  0  0
   -3.7591   17.8176   32.5484 C   0  0  0  0  0  0  0  0  0  0  0  0
   -2.8752   18.9723   32.6696 O   0  0  0  0  0  0  0  0  0  0  0  0
   -5.1765   14.5633   30.7323 C   0  0  2  0  0  0  0  0  0  0  0  0
   -5.0764   13.3152   29.7095 C   0  0  2  0  0  0  0  0  0  0  0  0
   -3.8738   13.4921   28.8325 N   0  0  0  0  0  0  0  0  0  0  0  0
   -6.4382   13.2540   28.8576 C   0  0  1  0  0  0  0  0  0  0  0  0
   -7.5361   13.0896   29.8058 O   0  0  0  0  0  0  0  0  0  0  0  0
   -6.6005   14.6013   28.0192 C   0  0  2  0  0  0  0  0  0  0  0  0
   -5.4635   14.6887   27.0759 O   0  0  0  0  0  0  0  0  0  0  0  0
   -6.6413   15.8508   29.0676 C   0  0  1  0  0  0  0  0  0  0  0  0
   -5.3877   15.8487   29.9063 O   0  0  0  0  0  0  0  0  0  0  0  0
   -6.7826   17.1935   28.2766 C   0  0  0  0  0  0  0  0  0  0  0  0
   -6.8919   18.3861   29.1727 N   0  0  0  0  0  0  0  0  0  0  0  0
  1  3  1  0  0  0  0
  1  2  1  6  0  0  0
  3  4  1  6  0  0  0
  3  5  1  0  0  0  0
  5  6  1  1  0  0  0
  7  8  1  6  0  0  0
  7  5  1  0  0  0  0
  9 11  1  1  0  0  0
  9  7  1  0  0  0  0
 10  9  1  0  0  0  0
 10  1  1  0  0  0  0
 12 11  1  0  0  0  0
 13 14  1  1  0  0  0
 15 13  1  0  0  0  0
 16 17  1  1  0  0  0
 16 15  1  0  0  0  0
 18  2  1  6  0  0  0
 18 19  1  0  0  0  0
 18 16  1  0  0  0  0
 19 20  1  1  0  0  0
 19 21  1  0  0  0  0
 21 22  1  6  0  0  0
 21 13  1  0  0  0  0
 23 20  1  1  0  0  0
 23 29  1  0  0  0  0
 24 25  1  6  0  0  0
 24 26  1  0  0  0  0
 24 23  1  0  0  0  0
 26 27  1  6  0  0  0
 26 28  1  0  0  0  0
 28 30  1  1  0  0  0
 29 28  1  0  0  0  0
 30 31  1  0  0  0  0
 32 27  1  6  0  0  0
 32 40  1  0  0  0  0
 33 35  1  0  0  0  0
 33 32  1  0  0  0  0
 33 34  1  6  0  0  0
 35 36  1  1  0  0  0
 35 37  1  0  0  0  0
 37 38  1  6  0  0  0
 37 39  1  0  0  0  0
 39 41  1  6  0  0  0
 40 39  1  0  0  0  0
 41 42  1  0  0  0  0
M  END
>  <CHROM.1>
-97.09149517,178.75645913,-67.66214243,112.77522868,136.70795856,124.16133846
177.90045868,-157.14900906,177.30359035,-2.50893683,16.03464360,33.73128607
0.35020199,-0.85562295,0.25006034

>  <Name>
lig.pdb

>  <RI>
0

>  <Rbt.Current_Directory>
/home/itssahil/PROJECTS/Mol_Feturizer/New_Systems/rnas/4wcr

>  <Rbt.Executable>
rbdock ($Id: //depot/dev/client3/rdock/2013.1/src/exe/rbdock.cxx#4 $)

>  <Rbt.Library>
libRbt.so (2013.1, Build901 2013/11/27)

>  <Rbt.Parameter_File>
/export/apps/rDock/src/rDock_2013.1_src/data/scripts/dock_solv.prm

>  <Rbt.Receptor>
prm/blind_docking_100.prm

>  <SCORE>
-1.12062

>  <SCORE.INTER>
-6.2429

>  <SCORE.INTER.CONST>
1

>  <SCORE.INTER.POLAR>
0

>  <SCORE.INTER.ROT>
9

>  <SCORE.INTER.SOLV>
33.3783

>  <SCORE.INTER.VDW>
-24.888

>  <SCORE.INTER.norm>
-0.148641

>  <SCORE.INTRA>
2.66418

>  <SCORE.INTRA.DIHEDRAL>
11.5105

>  <SCORE.INTRA.DIHEDRAL.0>
16.2863

>  <SCORE.INTRA.POLAR>
0

>  <SCORE.INTRA.POLAR.0>
0

>  <SCORE.INTRA.REPUL>
-0.29693

>  <SCORE.INTRA.REPUL.0>
0.314433

>  <SCORE.INTRA.SOLV>
-2.45606

>  <SCORE.INTRA.SOLV.lig_0>
-103.824

>  <SCORE.INTRA.VDW>
-0.378409

>  <SCORE.INTRA.VDW.0>
-5.30945

>  <SCORE.INTRA.norm>
0.0634329

>  <SCORE.RESTR>
2.4581

>  <SCORE.RESTR.CAVITY>
2.4581

>  <SCORE.RESTR.norm>
0.0585261

>  <SCORE.SYSTEM>
0

>  <SCORE.SYSTEM.CONST>
0

>  <SCORE.SYSTEM.DIHEDRAL>
0

>  <SCORE.SYSTEM.SOLV>
0

>  <SCORE.SYSTEM.norm>
0

>  <SCORE.heavy>
42

>  <SCORE.norm>
-0.0266815

>  <RMSD>
7.769

$$$$
lig.pdb
 OpenBabel11021811513D
libRbt.so/2013.1/901 2013/11/27
 42 45  0  0  0  0  0  0  0  0999 V2000
   -2.5936   22.6092   34.0993 C   0  0  2  0  0  0  0  0  0  0  0  0
   -3.9039   22.5388   33.4550 O   0  0  0  0  0  0  0  0  0  0  0  0
   -2.7586   23.6071   35.3310 C   0  0  2  0  0  0  0  0  0  0  0  0
   -3.7324   23.0763   36.2890 N   0  0  0  0  0  0  0  0  0  0  0  0
   -3.1825   25.0520   34.7723 C   0  0  1  0  0  0  0  0  0  0  0  0
   -3.3355   26.0019   35.8479 O   0  0  0  0  0  0  0  0  0  0  0  0
   -2.0940   25.4923   33.7786 C   0  0  2  0  0  0  0  0  0  0  0  0
   -2.4289   26.7396   33.2728 O   0  0  0  0  0  0  0  0  0  0  0  0
   -1.9626   24.4183   32.6048 C   0  0  2  0  0  0  0  0  0  0  0  0
   -1.6166   23.1260   33.1185 O   0  0  0  0  0  0  0  0  0  0  0  0
   -0.8965   24.7927   31.6147 C   0  0  0  0  0  0  0  0  0  0  0  0
   -1.3582   25.9362   30.8942 O   0  0  0  0  0  0  0  0  0  0  0  0
   -5.9411   19.3142   31.1692 C   0  0  2  0  0  0  0  0  0  0  0  0
   -6.2956   18.4141   30.0935 N   0  0  0  0  0  0  0  0  0  0  0  0
   -6.0413   20.8112   30.6814 C   0  0  0  0  0  0  0  0  0  0  0  0
   -5.6569   21.8087   31.8301 C   0  0  2  0  0  0  0  0  0  0  0  0
   -5.7555   23.1806   31.3361 N   0  0  0  0  0  0  0  0  0  0  0  0
   -4.1804   21.5668   32.3775 C   0  0  2  0  0  0  0  0  0  0  0  0
   -4.1082   20.0989   32.8890 C   0  0  2  0  0  0  0  0  0  0  0  0
   -2.6919   19.9564   33.3953 O   0  0  0  0  0  0  0  0  0  0  0  0
   -4.4422   19.0674   31.6757 C   0  0  1  0  0  0  0  0  0  0  0  0
   -4.4580   17.6536   32.0539 O   0  0  0  0  0  0  0  0  0  0  0  0
   -2.5060   18.7554   34.0280 C   0  0  1  0  0  0  0  0  0  0  0  0
   -1.3217   18.7377   34.8930 C   0  0  2  0  0  0  0  0  0  0  0  0
   -0.2032   18.7025   34.0657 O   0  0  0  0  0  0  0  0  0  0  0  0
   -1.6404   17.5392   35.8124 C   0  0  2  0  0  0  0  0  0  0  0  0
   -0.5914   16.5660   35.6076 O   0  0  0  0  0  0  0  0  0  0  0  0
   -2.9739   17.0482   35.3537 C   0  0  2  0  0  0  0  0  0  0  0  0
   -3.5184   18.3503   34.9343 O   0  0  0  0  0  0  0  0  0  0  0  0
   -3.8206   16.4594   36.5415 C   0  0  0  0  0  0  0  0  0  0  0  0
   -3.2718   15.2268   37.0971 O   0  0  0  0  0  0  0  0  0  0  0  0
   -0.4279   15.5447   36.6377 C   0  0  2  0  0  0  0  0  0  0  0  0
    0.0351   16.2674   38.0079 C   0  0  2  0  0  0  0  0  0  0  0  0
    1.3100   17.0167   37.7634 N   0  0  0  0  0  0  0  0  0  0  0  0
    0.2091   15.1369   39.1374 C   0  0  1  0  0  0  0  0  0  0  0  0
   -1.0813   14.4704   39.2867 O   0  0  0  0  0  0  0  0  0  0  0  0
    1.3393   14.1056   38.6862 C   0  0  2  0  0  0  0  0  0  0  0  0
    2.6132   14.8500   38.5708 O   0  0  0  0  0  0  0  0  0  0  0  0
    0.8781   13.4318   37.2737 C   0  0  1  0  0  0  0  0  0  0  0  0
    0.6507   14.5135   36.2475 O   0  0  0  0  0  0  0  0  0  0  0  0
    1.9744   12.4250   36.7913 C   0  0  0  0  0  0  0  0  0  0  0  0
    1.5614   11.6551   35.5771 N   0  0  0  0  0  0  0  0  0  0  0  0
  1  3  1  0  0  0  0
  1  2  1  6  0  0  0
  3  4  1  1  0  0  0
  3  5  1  0  0  0  0
  5  6  1  1  0  0  0
  7  8  1  6  0  0  0
  7  5  1  0  0  0  0
  9 11  1  6  0  0  0
  9  7  1  0  0  0  0
 10  9  1  0  0  0  0
 10  1  1  0  0  0  0
 12 11  1  0  0  0  0
 13 14  1  6  0  0  0
 15 13  1  0  0  0  0
 16 17  1  6  0  0  0
 16 15  1  0  0  0  0
 18  2  1  1  0  0  0
 18 19  1  0  0  0  0
 18 16  1  0  0  0  0
 19 20  1  6  0  0  0
 19 21  1  0  0  0  0
 21 22  1  1  0  0  0
 21 13  1  0  0  0  0
 23 20  1  1  0  0  0
 23 29  1  0  0  0  0
 24 25  1  6  0  0  0
 24 26  1  0  0  0  0
 24 23  1  0  0  0  0
 26 27  1  6  0  0  0
 26 28  1  0  0  0  0
 28 30  1  1  0  0  0
 29 28  1  0  0  0  0
 30 31  1  0  0  0  0
 32 27  1  6  0  0  0
 32 40  1  0  0  0  0
 33 35  1  0  0  0  0
 33 32  1  0  0  0  0
 33 34  1  6  0  0  0
 35 36  1  6  0  0  0
 35 37  1  0  0  0  0
 37 38  1  6  0  0  0
 37 39  1  0  0  0  0
 39 41  1  6  0  0  0
 40 39  1  0  0  0  0
 41 42  1  0  0  0  0
M  END
>  <CHROM.1>
-171.75762764,-69.59994954,-176.44814601,172.93490782,-161.59429179,161.49785014
-67.58308644,-65.05369889,173.84130247,-2.12766241,19.34423673,34.64620231
-2.06072135,0.75592435,3.03128040

>  <Name>
lig.pdb

>  <RI>
0

>  <Rbt.Current_Directory>
/home/itssahil/PROJECTS/Mol_Feturizer/New_Systems/rnas/4wcr

>  <Rbt.Executable>
rbdock ($Id: //depot/dev/client3/rdock/2013.1/src/exe/rbdock.cxx#4 $)

>  <Rbt.Library>
libRbt.so (2013.1, Build901 2013/11/27)

>  <Rbt.Parameter_File>
/export/apps/rDock/src/rDock_2013.1_src/data/scripts/dock_solv.prm

>  <Rbt.Receptor>
prm/pocket_docking_8.prm

>  <SCORE>
-20.4112

>  <SCORE.INTER>
-12.1207

>  <SCORE.INTER.CONST>
1

>  <SCORE.INTER.POLAR>
0

>  <SCORE.INTER.ROT>
9

>  <SCORE.INTER.SOLV>
27.9983

>  <SCORE.INTER.VDW>
-27.0132

>  <SCORE.INTER.norm>
-0.288588

>  <SCORE.INTRA>
-8.29048

>  <SCORE.INTRA.DIHEDRAL>
-11.2631

>  <SCORE.INTRA.DIHEDRAL.0>
16.2863

>  <SCORE.INTRA.POLAR>
0

>  <SCORE.INTRA.POLAR.0>
0

>  <SCORE.INTRA.REPUL>
-0.314433

>  <SCORE.INTRA.REPUL.0>
0.314433

>  <SCORE.INTRA.SOLV>
-4.92379

>  <SCORE.INTRA.SOLV.lig_0>
-103.824

>  <SCORE.INTRA.VDW>
1.37514

>  <SCORE.INTRA.VDW.0>
-5.30945

>  <SCORE.INTRA.norm>
-0.197392

>  <SCORE.RESTR>
0

>  <SCORE.RESTR.CAVITY>
0

>  <SCORE.RESTR.norm>
0

>  <SCORE.SYSTEM>
0

>  <SCORE.SYSTEM.CONST>
0

>  <SCORE.SYSTEM.DIHEDRAL>
0

>  <SCORE.SYSTEM.SOLV>
0

>  <SCORE.SYSTEM.norm>
0

>  <SCORE.heavy>
42

>  <SCORE.norm>
-0.48598

>  <RMSD>
7.793

$$$$
lig.pdb
 OpenBabel11021811513D
libRbt.so/2013.1/901 2013/11/27
 42 45  0  0  0  0  0  0  0  0999 V2000
   -0.8039    9.8295   37.1558 C   0  0  2  0  0  0  0  0  0  0  0  0
   -2.0973    9.3087   37.5950 O   0  0  0  0  0  0  0  0  0  0  0  0
   -0.6321    9.3683   35.6399 C   0  0  2  0  0  0  0  0  0  0  0  0
   -1.6878    9.9519   34.8077 N   0  0  0  0  0  0  0  0  0  0  0  0
   -0.6337    7.7631   35.5848 C   0  0  1  0  0  0  0  0  0  0  0  0
   -0.4693    7.2883   34.2320 O   0  0  0  0  0  0  0  0  0  0  0  0
    0.5042    7.2758   36.4981 C   0  0  2  0  0  0  0  0  0  0  0  0
    0.5317    5.8893   36.4766 O   0  0  0  0  0  0  0  0  0  0  0  0
    0.2799    7.8180   37.9827 C   0  0  2  0  0  0  0  0  0  0  0  0
    0.2501    9.2504   38.0145 O   0  0  0  0  0  0  0  0  0  0  0  0
    1.3773    7.3849   38.9130 C   0  0  0  0  0  0  0  0  0  0  0  0
    1.2718    5.9700   39.0767 O   0  0  0  0  0  0  0  0  0  0  0  0
   -4.4127   10.3818   41.2364 C   0  0  2  0  0  0  0  0  0  0  0  0
   -5.1862   11.1474   42.1896 N   0  0  0  0  0  0  0  0  0  0  0  0
   -3.0558   11.1210   40.9180 C   0  0  0  0  0  0  0  0  0  0  0  0
   -2.1991   10.3119   39.8818 C   0  0  2  0  0  0  0  0  0  0  0  0
   -0.9572   11.0326   39.6095 N   0  0  0  0  0  0  0  0  0  0  0  0
   -2.9681   10.0796   38.5059 C   0  0  2  0  0  0  0  0  0  0  0  0
   -4.2850    9.3172   38.8317 C   0  0  2  0  0  0  0  0  0  0  0  0
   -4.9429    9.1300   37.4845 O   0  0  0  0  0  0  0  0  0  0  0  0
   -5.1989   10.1926   39.8544 C   0  0  1  0  0  0  0  0  0  0  0  0
   -6.4432    9.5479   40.2766 O   0  0  0  0  0  0  0  0  0  0  0  0
   -4.3705    8.0981   36.7881 C   0  0  1  0  0  0  0  0  0  0  0  0
   -4.6468    6.7834   37.3767 C   0  0  2  0  0  0  0  0  0  0  0  0
   -3.8908    6.6820   38.5407 O   0  0  0  0  0  0  0  0  0  0  0  0
   -4.3524    5.8524   36.1810 C   0  0  2  0  0  0  0  0  0  0  0  0
   -3.2708    4.9830   36.5858 O   0  0  0  0  0  0  0  0  0  0  0  0
   -3.9639    6.7689   35.0680 C   0  0  2  0  0  0  0  0  0  0  0  0
   -4.8158    7.9054   35.4558 O   0  0  0  0  0  0  0  0  0  0  0  0
   -4.4067    6.2078   33.6667 C   0  0  0  0  0  0  0  0  0  0  0  0
   -4.0428    7.0718   32.5486 O   0  0  0  0  0  0  0  0  0  0  0  0
   -3.5383    4.0665   37.6901 C   0  0  2  0  0  0  0  0  0  0  0  0
   -2.2097    3.1852   37.9589 C   0  0  2  0  0  0  0  0  0  0  0  0
   -1.8440    2.4500   36.7049 N   0  0  0  0  0  0  0  0  0  0  0  0
   -2.5114    2.1818   39.1780 C   0  0  1  0  0  0  0  0  0  0  0  0
   -2.8619    2.9990   40.3360 O   0  0  0  0  0  0  0  0  0  0  0  0
   -3.7095    1.2073   38.7791 C   0  0  2  0  0  0  0  0  0  0  0  0
   -3.2746    0.4070   37.6127 O   0  0  0  0  0  0  0  0  0  0  0  0
   -5.0222    2.1210   38.4566 C   0  0  1  0  0  0  0  0  0  0  0  0
   -4.6975    3.1040   37.3598 O   0  0  0  0  0  0  0  0  0  0  0  0
   -6.2151    1.1963   38.0437 C   0  0  0  0  0  0  0  0  0  0  0  0
   -5.9471    0.4295   36.7877 N   0  0  0  0  0  0  0  0  0  0  0  0
  1  3  1  0  0  0  0
  1  2  1  1  0  0  0
  3  4  1  6  0  0  0
  3  5  1  0  0  0  0
  5  6  1  6  0  0  0
  7  8  1  1  0  0  0
  7  5  1  0  0  0  0
  9 11  1  1  0  0  0
  9  7  1  0  0  0  0
 10  9  1  0  0  0  0
 10  1  1  0  0  0  0
 12 11  1  0  0  0  0
 13 14  1  1  0  0  0
 15 13  1  0  0  0  0
 16 17  1  6  0  0  0
 16 15  1  0  0  0  0
 18  2  1  6  0  0  0
 18 19  1  0  0  0  0
 18 16  1  0  0  0  0
 19 20  1  6  0  0  0
 19 21  1  0  0  0  0
 21 22  1  1  0  0  0
 21 13  1  0  0  0  0
 23 20  1  1  0  0  0
 23 29  1  0  0  0  0
 24 25  1  1  0  0  0
 24 26  1  0  0  0  0
 24 23  1  0  0  0  0
 26 27  1  1  0  0  0
 26 28  1  0  0  0  0
 28 30  1  6  0  0  0
 29 28  1  0  0  0  0
 30 31  1  0  0  0  0
 32 27  1  6  0  0  0
 32 40  1  0  0  0  0
 33 35  1  0  0  0  0
 33 32  1  0  0  0  0
 33 34  1  6  0  0  0
 35 36  1  1  0  0  0
 35 37  1  0  0  0  0
 37 38  1  6  0  0  0
 37 39  1  0  0  0  0
 39 41  1  6  0  0  0
 40 39  1  0  0  0  0
 41 42  1  0  0  0  0
M  END
>  <CHROM.1>
-143.15850438,-67.84932684,-61.25238810,78.54727295,68.93860326,64.12476073
-179.83252476,179.27399381,-62.94246407,-2.88402673,6.71590903,37.63991080
-1.33911472,-0.67419051,-2.84415964

>  <Name>
lig.pdb

>  <RI>
0

>  <Rbt.Current_Directory>
/home/itssahil/PROJECTS/Mol_Feturizer/New_Systems/rnas/4wcr

>  <Rbt.Executable>
rbdock ($Id: //depot/dev/client3/rdock/2013.1/src/exe/rbdock.cxx#4 $)

>  <Rbt.Library>
libRbt.so (2013.1, Build901 2013/11/27)

>  <Rbt.Parameter_File>
/export/apps/rDock/src/rDock_2013.1_src/data/scripts/dock_solv.prm

>  <Rbt.Receptor>
prm/pocket_docking_6.prm

>  <SCORE>
-0.772456

>  <SCORE.INTER>
2.84822

>  <SCORE.INTER.CONST>
1

>  <SCORE.INTER.POLAR>
0

>  <SCORE.INTER.ROT>
9

>  <SCORE.INTER.SOLV>
12.6201

>  <SCORE.INTER.VDW>
-11.9079

>  <SCORE.INTER.norm>
0.0678148

>  <SCORE.INTRA>
-3.62068

>  <SCORE.INTRA.DIHEDRAL>
-8.58666

>  <SCORE.INTRA.DIHEDRAL.0>
16.2863

>  <SCORE.INTRA.POLAR>
0

>  <SCORE.INTRA.POLAR.0>
0

>  <SCORE.INTRA.REPUL>
-0.314433

>  <SCORE.INTRA.REPUL.0>
0.314433

>  <SCORE.INTRA.SOLV>
0.555134

>  <SCORE.INTRA.SOLV.lig_0>
-103.824

>  <SCORE.INTRA.VDW>
1.96725

>  <SCORE.INTRA.VDW.0>
-5.30945

>  <SCORE.INTRA.norm>
-0.0862066

>  <SCORE.RESTR>
0

>  <SCORE.RESTR.CAVITY>
0

>  <SCORE.RESTR.norm>
0

>  <SCORE.SYSTEM>
0

>  <SCORE.SYSTEM.CONST>
0

>  <SCORE.SYSTEM.DIHEDRAL>
0

>  <SCORE.SYSTEM.SOLV>
0

>  <SCORE.SYSTEM.norm>
0

>  <SCORE.heavy>
42

>  <SCORE.norm>
-0.0183918

>  <RMSD>
7.829

$$$$
lig.pdb
 OpenBabel11021811513D
libRbt.so/2013.1/901 2013/11/27
 42 45  0  0  0  0  0  0  0  0999 V2000
    0.0691   18.3844   37.0039 C   0  0  2  0  0  0  0  0  0  0  0  0
    0.1110   17.2391   36.0963 O   0  0  0  0  0  0  0  0  0  0  0  0
   -1.3854   18.3807   37.6552 C   0  0  2  0  0  0  0  0  0  0  0  0
   -1.5938   17.1530   38.4279 N   0  0  0  0  0  0  0  0  0  0  0  0
   -2.4748   18.5553   36.4878 C   0  0  1  0  0  0  0  0  0  0  0  0
   -3.8146   18.5702   37.0239 O   0  0  0  0  0  0  0  0  0  0  0  0
   -2.1452   19.8647   35.7508 C   0  0  2  0  0  0  0  0  0  0  0  0
   -3.0675   20.0478   34.7313 O   0  0  0  0  0  0  0  0  0  0  0  0
   -0.6594   19.8029   35.1704 C   0  0  2  0  0  0  0  0  0  0  0  0
    0.3007   19.6139   36.2174 O   0  0  0  0  0  0  0  0  0  0  0  0
   -0.2802   21.0688   34.4556 C   0  0  0  0  0  0  0  0  0  0  0  0
    1.0107   20.8690   33.8781 O   0  0  0  0  0  0  0  0  0  0  0  0
    0.5999   12.8230   36.2752 C   0  0  2  0  0  0  0  0  0  0  0  0
    0.6061   11.4665   36.7780 N   0  0  0  0  0  0  0  0  0  0  0  0
    1.4733   13.7517   37.2044 C   0  0  0  0  0  0  0  0  0  0  0  0
    1.4793   15.2315   36.6824 C   0  0  2  0  0  0  0  0  0  0  0  0
    2.2915   16.0581   37.5729 N   0  0  0  0  0  0  0  0  0  0  0  0
    0.0150   15.8539   36.6005 C   0  0  2  0  0  0  0  0  0  0  0  0
   -0.8231   14.9489   35.6517 C   0  0  2  0  0  0  0  0  0  0  0  0
   -2.1820   15.6086   35.6216 O   0  0  0  0  0  0  0  0  0  0  0  0
   -0.8810   13.4308   36.2346 C   0  0  1  0  0  0  0  0  0  0  0  0
   -1.5999   12.4733   35.3929 O   0  0  0  0  0  0  0  0  0  0  0  0
   -2.5916   15.8503   34.3366 C   0  0  1  0  0  0  0  0  0  0  0  0
   -3.6867   14.9742   33.9072 C   0  0  2  0  0  0  0  0  0  0  0  0
   -3.1509   13.7050   33.7104 O   0  0  0  0  0  0  0  0  0  0  0  0
   -4.2529   15.7678   32.7102 C   0  0  2  0  0  0  0  0  0  0  0  0
   -4.1096   14.9240   31.5452 O   0  0  0  0  0  0  0  0  0  0  0  0
   -3.4103   16.9981   32.6328 C   0  0  2  0  0  0  0  0  0  0  0  0
   -3.1406   17.1310   34.0741 O   0  0  0  0  0  0  0  0  0  0  0  0
   -4.2298   18.2366   32.1142 C   0  0  0  0  0  0  0  0  0  0  0  0
   -3.5224   19.5055   32.2507 O   0  0  0  0  0  0  0  0  0  0  0  0
   -5.2816   14.7782   30.6873 C   0  0  2  0  0  0  0  0  0  0  0  0
   -5.1402   13.3991   29.8553 C   0  0  2  0  0  0  0  0  0  0  0  0
   -3.8711   13.4321   29.0586 N   0  0  0  0  0  0  0  0  0  0  0  0
   -6.4358   13.2444   28.9164 C   0  0  1  0  0  0  0  0  0  0  0  0
   -7.6056   13.2317   29.7900 O   0  0  0  0  0  0  0  0  0  0  0  0
   -6.4974   14.4655   27.8919 C   0  0  2  0  0  0  0  0  0  0  0  0
   -5.2912   14.4019   27.0368 O   0  0  0  0  0  0  0  0  0  0  0  0
   -6.5815   15.8484   28.7536 C   0  0  1  0  0  0  0  0  0  0  0  0
   -5.3947   15.9405   29.6796 O   0  0  0  0  0  0  0  0  0  0  0  0
   -6.6259   17.0711   27.7781 C   0  0  0  0  0  0  0  0  0  0  0  0
   -7.9062   17.1538   27.0091 N   0  0  0  0  0  0  0  0  0  0  0  0
  1  3  1  0  0  0  0
  1  2  1  6  0  0  0
  3  4  1  6  0  0  0
  3  5  1  0  0  0  0
  5  6  1  1  0  0  0
  7  8  1  6  0  0  0
  7  5  1  0  0  0  0
  9 11  1  1  0  0  0
  9  7  1  0  0  0  0
 10  9  1  0  0  0  0
 10  1  1  0  0  0  0
 12 11  1  0  0  0  0
 13 14  1  1  0  0  0
 15 13  1  0  0  0  0
 16 17  1  1  0  0  0
 16 15  1  0  0  0  0
 18  2  1  6  0  0  0
 18 19  1  0  0  0  0
 18 16  1  0  0  0  0
 19 20  1  1  0  0  0
 19 21  1  0  0  0  0
 21 22  1  6  0  0  0
 21 13  1  0  0  0  0
 23 20  1  1  0  0  0
 23 29  1  0  0  0  0
 24 25  1  6  0  0  0
 24 26  1  0  0  0  0
 24 23  1  0  0  0  0
 26 27  1  6  0  0  0
 26 28  1  0  0  0  0
 28 30  1  1  0  0  0
 29 28  1  0  0  0  0
 30 31  1  0  0  0  0
 32 27  1  1  0  0  0
 32 40  1  0  0  0  0
 33 35  1  0  0  0  0
 33 32  1  0  0  0  0
 33 34  1  6  0  0  0
 35 36  1  1  0  0  0
 35 37  1  0  0  0  0
 37 38  1  1  0  0  0
 37 39  1  0  0  0  0
 39 41  1  6  0  0  0
 40 39  1  0  0  0  0
 41 42  1  0  0  0  0
M  END
>  <CHROM.1>
-65.05752889,-175.02696750,-99.37937029,126.85169056,108.62482250,131.72777658
169.49321482,-156.85824833,69.06535406,-2.67376574,16.25037894,33.56790797
0.24658149,-0.90386186,0.06526794

>  <Name>
lig.pdb

>  <RI>
0

>  <Rbt.Current_Directory>
/home/itssahil/PROJECTS/Mol_Feturizer/New_Systems/rnas/4wcr

>  <Rbt.Executable>
rbdock ($Id: //depot/dev/client3/rdock/2013.1/src/exe/rbdock.cxx#4 $)

>  <Rbt.Library>
libRbt.so (2013.1, Build901 2013/11/27)

>  <Rbt.Parameter_File>
/export/apps/rDock/src/rDock_2013.1_src/data/scripts/dock_solv.prm

>  <Rbt.Receptor>
prm/blind_docking_100.prm

>  <SCORE>
3.40696

>  <SCORE.INTER>
-2.2465

>  <SCORE.INTER.CONST>
1

>  <SCORE.INTER.POLAR>
0

>  <SCORE.INTER.ROT>
9

>  <SCORE.INTER.SOLV>
32.1142

>  <SCORE.INTER.VDW>
-21.8024

>  <SCORE.INTER.norm>
-0.053488

>  <SCORE.INTRA>
3.55754

>  <SCORE.INTRA.DIHEDRAL>
12.6155

>  <SCORE.INTRA.DIHEDRAL.0>
16.2863

>  <SCORE.INTRA.POLAR>
0

>  <SCORE.INTRA.POLAR.0>
0

>  <SCORE.INTRA.REPUL>
-0.314433

>  <SCORE.INTRA.REPUL.0>
0.314433

>  <SCORE.INTRA.SOLV>
-0.665445

>  <SCORE.INTRA.SOLV.lig_0>
-103.824

>  <SCORE.INTRA.VDW>
-0.845314

>  <SCORE.INTRA.VDW.0>
-5.30945

>  <SCORE.INTRA.norm>
0.0847034

>  <SCORE.RESTR>
2.09591

>  <SCORE.RESTR.CAVITY>
2.09591

>  <SCORE.RESTR.norm>
0.0499027

>  <SCORE.SYSTEM>
0

>  <SCORE.SYSTEM.CONST>
0

>  <SCORE.SYSTEM.DIHEDRAL>
0

>  <SCORE.SYSTEM.SOLV>
0

>  <SCORE.SYSTEM.norm>
0

>  <SCORE.heavy>
42

>  <SCORE.norm>
0.081118

>  <RMSD>
7.834

$$$$
lig.pdb
 OpenBabel11021811513D
libRbt.so/2013.1/901 2013/11/27
 42 45  0  0  0  0  0  0  0  0999 V2000
   -5.3309    9.9343   32.5166 C   0  0  2  0  0  0  0  0  0  0  0  0
   -4.1200   10.6971   32.8151 O   0  0  0  0  0  0  0  0  0  0  0  0
   -4.8516    8.6292   31.7375 C   0  0  2  0  0  0  0  0  0  0  0  0
   -3.9771    7.8197   32.5906 N   0  0  0  0  0  0  0  0  0  0  0  0
   -4.1262    9.0771   30.3764 C   0  0  1  0  0  0  0  0  0  0  0  0
   -3.6800    7.9304   29.6223 O   0  0  0  0  0  0  0  0  0  0  0  0
   -5.1360    9.9208   29.5795 C   0  0  2  0  0  0  0  0  0  0  0  0
   -4.5412   10.3279   28.3945 O   0  0  0  0  0  0  0  0  0  0  0  0
   -5.5975   11.1790   30.4468 C   0  0  2  0  0  0  0  0  0  0  0  0
   -6.2134   10.7676   31.6736 O   0  0  0  0  0  0  0  0  0  0  0  0
   -6.6013   12.0277   29.7192 C   0  0  0  0  0  0  0  0  0  0  0  0
   -5.9066   12.7305   28.6881 O   0  0  0  0  0  0  0  0  0  0  0  0
   -2.8707   13.9602   35.5654 C   0  0  2  0  0  0  0  0  0  0  0  0
   -2.8474   15.2270   36.2637 N   0  0  0  0  0  0  0  0  0  0  0  0
   -2.8678   14.1985   34.0059 C   0  0  0  0  0  0  0  0  0  0  0  0
   -2.8972   12.8380   33.2245 C   0  0  2  0  0  0  0  0  0  0  0  0
   -2.9009   13.1027   31.7872 N   0  0  0  0  0  0  0  0  0  0  0  0
   -4.1742   11.9563   33.5856 C   0  0  2  0  0  0  0  0  0  0  0  0
   -4.1430   11.6984   35.1199 C   0  0  2  0  0  0  0  0  0  0  0  0
   -5.3706   10.8554   35.3749 O   0  0  0  0  0  0  0  0  0  0  0  0
   -4.1805   13.1119   35.9249 C   0  0  1  0  0  0  0  0  0  0  0  0
   -4.0996   12.9952   37.3816 O   0  0  0  0  0  0  0  0  0  0  0  0
   -5.2634   10.1596   36.5504 C   0  0  1  0  0  0  0  0  0  0  0  0
   -6.5620    9.7637   37.1053 C   0  0  2  0  0  0  0  0  0  0  0  0
   -7.1669   10.9119   37.6077 O   0  0  0  0  0  0  0  0  0  0  0  0
   -6.1441    8.6282   38.0641 C   0  0  2  0  0  0  0  0  0  0  0  0
   -6.5351    9.0399   39.3935 O   0  0  0  0  0  0  0  0  0  0  0  0
   -4.6626    8.5224   37.9104 C   0  0  2  0  0  0  0  0  0  0  0  0
   -4.5936    8.9112   36.4920 O   0  0  0  0  0  0  0  0  0  0  0  0
   -4.1594    7.0437   38.0963 C   0  0  0  0  0  0  0  0  0  0  0  0
   -2.7075    6.9082   38.0428 O   0  0  0  0  0  0  0  0  0  0  0  0
   -5.8477   10.1990   39.9547 C   0  0  2  0  0  0  0  0  0  0  0  0
   -5.3288    9.8192   41.4382 C   0  0  2  0  0  0  0  0  0  0  0  0
   -6.4992    9.4083   42.2795 N   0  0  0  0  0  0  0  0  0  0  0  0
   -4.5701   11.0989   42.0472 C   0  0  1  0  0  0  0  0  0  0  0  0
   -3.4618   11.4136   41.1505 O   0  0  0  0  0  0  0  0  0  0  0  0
   -5.5901   12.3209   42.1504 C   0  0  2  0  0  0  0  0  0  0  0  0
   -6.6716   11.9321   43.0828 O   0  0  0  0  0  0  0  0  0  0  0  0
   -6.1441   12.6487   40.6512 C   0  0  1  0  0  0  0  0  0  0  0  0
   -6.7888   11.4157   40.0691 O   0  0  0  0  0  0  0  0  0  0  0  0
   -7.1633   13.8343   40.7173 C   0  0  0  0  0  0  0  0  0  0  0  0
   -7.6066   14.2944   39.3649 N   0  0  0  0  0  0  0  0  0  0  0  0
  1  3  1  0  0  0  0
  1  2  1  6  0  0  0
  3  4  1  1  0  0  0
  3  5  1  0  0  0  0
  5  6  1  6  0  0  0
  7  8  1  6  0  0  0
  7  5  1  0  0  0  0
  9 11  1  6  0  0  0
  9  7  1  0  0  0  0
 10  9  1  0  0  0  0
 10  1  1  0  0  0  0
 12 11  1  0  0  0  0
 13 14  1  1  0  0  0
 15 13  1  0  0  0  0
 16 17  1  6  0  0  0
 16 15  1  0  0  0  0
 18  2  1  6  0  0  0
 18 19  1  0  0  0  0
 18 16  1  0  0  0  0
 19 20  1  1  0  0  0
 19 21  1  0  0  0  0
 21 22  1  1  0  0  0
 21 13  1  0  0  0  0
 23 20  1  6  0  0  0
 23 29  1  0  0  0  0
 24 25  1  1  0  0  0
 24 26  1  0  0  0  0
 24 23  1  0  0  0  0
 26 27  1  1  0  0  0
 26 28  1  0  0  0  0
 28 30  1  6  0  0  0
 29 28  1  0  0  0  0
 30 31  1  0  0  0  0
 32 27  1  1  0  0  0
 32 40  1  0  0  0  0
 33 35  1  0  0  0  0
 33 32  1  0  0  0  0
 33 34  1  1  0  0  0
 35 36  1  6  0  0  0
 35 37  1  0  0  0  0
 37 38  1  1  0  0  0
 37 39  1  0  0  0  0
 39 41  1  1  0  0  0
 40 39  1  0  0  0  0
 41 42  1  0  0  0  0
M  END
>  <CHROM.1>
-177.55745174,-72.98157986,-155.96095114,158.96764596,157.42285434,-65.93512968
-176.13578950,-130.25561927,173.79105861,-5.00649758,10.91780288,35.90540002
0.11851591,-1.46322905,-3.06292960

>  <Name>
lig.pdb

>  <RI>
0

>  <Rbt.Current_Directory>
/home/itssahil/PROJECTS/Mol_Feturizer/New_Systems/rnas/4wcr

>  <Rbt.Executable>
rbdock ($Id: //depot/dev/client3/rdock/2013.1/src/exe/rbdock.cxx#4 $)

>  <Rbt.Library>
libRbt.so (2013.1, Build901 2013/11/27)

>  <Rbt.Parameter_File>
/export/apps/rDock/src/rDock_2013.1_src/data/scripts/dock_solv.prm

>  <Rbt.Receptor>
prm/pocket_docking_7.prm

>  <SCORE>
-6.73638

>  <SCORE.INTER>
-3.73751

>  <SCORE.INTER.CONST>
1

>  <SCORE.INTER.POLAR>
0

>  <SCORE.INTER.ROT>
9

>  <SCORE.INTER.SOLV>
26.1098

>  <SCORE.INTER.VDW>
-20.7949

>  <SCORE.INTER.norm>
-0.0889884

>  <SCORE.INTRA>
-3.00434

>  <SCORE.INTRA.DIHEDRAL>
-1.42714

>  <SCORE.INTRA.DIHEDRAL.0>
16.2863

>  <SCORE.INTRA.POLAR>
0

>  <SCORE.INTRA.POLAR.0>
0

>  <SCORE.INTRA.REPUL>
-0.297254

>  <SCORE.INTRA.REPUL.0>
0.314433

>  <SCORE.INTRA.SOLV>
-4.12797

>  <SCORE.INTRA.SOLV.lig_0>
-103.824

>  <SCORE.INTRA.VDW>
1.25949

>  <SCORE.INTRA.VDW.0>
-5.30945

>  <SCORE.INTRA.norm>
-0.0715318

>  <SCORE.RESTR>
0.00546601

>  <SCORE.RESTR.CAVITY>
0.00546601

>  <SCORE.RESTR.norm>
0.000130143

>  <SCORE.SYSTEM>
0

>  <SCORE.SYSTEM.CONST>
0

>  <SCORE.SYSTEM.DIHEDRAL>
0

>  <SCORE.SYSTEM.SOLV>
0

>  <SCORE.SYSTEM.norm>
0

>  <SCORE.heavy>
42

>  <SCORE.norm>
-0.16039

>  <RMSD>
7.878

$$$$
lig.pdb
 OpenBabel11021811513D
libRbt.so/2013.1/901 2013/11/27
 42 45  0  0  0  0  0  0  0  0999 V2000
   -0.7842   18.2597   36.8517 C   0  0  2  0  0  0  0  0  0  0  0  0
   -0.7559   17.0385   36.0486 O   0  0  0  0  0  0  0  0  0  0  0  0
   -2.0761   19.0675   36.3842 C   0  0  2  0  0  0  0  0  0  0  0  0
   -3.2884   18.2904   36.6566 N   0  0  0  0  0  0  0  0  0  0  0  0
   -1.9241   19.4289   34.8267 C   0  0  1  0  0  0  0  0  0  0  0  0
   -3.0652   20.1734   34.3511 O   0  0  0  0  0  0  0  0  0  0  0  0
   -0.6203   20.2304   34.6712 C   0  0  2  0  0  0  0  0  0  0  0  0
   -0.4549   20.5592   33.3340 O   0  0  0  0  0  0  0  0  0  0  0  0
    0.6141   19.3690   35.2029 C   0  0  2  0  0  0  0  0  0  0  0  0
    0.4515   19.0247   36.5844 O   0  0  0  0  0  0  0  0  0  0  0  0
    1.9128   20.1160   35.0906 C   0  0  0  0  0  0  0  0  0  0  0  0
    1.8407   21.2424   35.9657 O   0  0  0  0  0  0  0  0  0  0  0  0
    1.4965   13.2323   36.5090 C   0  0  2  0  0  0  0  0  0  0  0  0
    2.0190   12.0130   37.0864 N   0  0  0  0  0  0  0  0  0  0  0  0
    1.8237   14.4606   37.4434 C   0  0  0  0  0  0  0  0  0  0  0  0
    1.2631   15.7966   36.8407 C   0  0  2  0  0  0  0  0  0  0  0  0
    1.5803   16.9057   37.7380 N   0  0  0  0  0  0  0  0  0  0  0  0
   -0.3144   15.7506   36.6219 C   0  0  2  0  0  0  0  0  0  0  0  0
   -0.6176   14.5581   35.6691 C   0  0  2  0  0  0  0  0  0  0  0  0
   -2.1194   14.5912   35.5071 O   0  0  0  0  0  0  0  0  0  0  0  0
   -0.0935   13.1671   36.3310 C   0  0  1  0  0  0  0  0  0  0  0  0
   -0.2764   11.9788   35.4962 O   0  0  0  0  0  0  0  0  0  0  0  0
   -2.4792   15.1020   34.2878 C   0  0  1  0  0  0  0  0  0  0  0  0
   -3.6313   14.4160   33.6935 C   0  0  2  0  0  0  0  0  0  0  0  0
   -3.1950   13.1659   33.2651 O   0  0  0  0  0  0  0  0  0  0  0  0
   -4.1047   15.4637   32.6632 C   0  0  2  0  0  0  0  0  0  0  0  0
   -4.0035   14.8436   31.3614 O   0  0  0  0  0  0  0  0  0  0  0  0
   -3.1642   16.6123   32.8246 C   0  0  2  0  0  0  0  0  0  0  0  0
   -2.9173   16.4504   34.2670 O   0  0  0  0  0  0  0  0  0  0  0  0
   -3.8695   17.9898   32.5426 C   0  0  0  0  0  0  0  0  0  0  0  0
   -4.5520   18.0452   31.2541 O   0  0  0  0  0  0  0  0  0  0  0  0
   -5.2346   14.7341   30.5847 C   0  0  2  0  0  0  0  0  0  0  0  0
   -5.1582   13.3905   29.6884 C   0  0  2  0  0  0  0  0  0  0  0  0
   -3.9494   13.4559   28.8045 N   0  0  0  0  0  0  0  0  0  0  0  0
   -6.5184   13.2756   28.8396 C   0  0  1  0  0  0  0  0  0  0  0  0
   -7.6225   13.2273   29.7937 O   0  0  0  0  0  0  0  0  0  0  0  0
   -6.6492   14.5380   27.8734 C   0  0  2  0  0  0  0  0  0  0  0  0
   -5.5078   14.5093   26.9319 O   0  0  0  0  0  0  0  0  0  0  0  0
   -6.6663   15.8841   28.7953 C   0  0  1  0  0  0  0  0  0  0  0  0
   -5.4157   15.9372   29.6366 O   0  0  0  0  0  0  0  0  0  0  0  0
   -6.7764   17.1462   27.8768 C   0  0  0  0  0  0  0  0  0  0  0  0
   -8.1164   17.2743   27.2247 N   0  0  0  0  0  0  0  0  0  0  0  0
  1  3  1  0  0  0  0
  1  2  1  6  0  0  0
  3  4  1  6  0  0  0
  3  5  1  0  0  0  0
  5  6  1  1  0  0  0
  7  8  1  6  0  0  0
  7  5  1  0  0  0  0
  9 11  1  1  0  0  0
  9  7  1  0  0  0  0
 10  9  1  0  0  0  0
 10  1  1  0  0  0  0
 12 11  1  0  0  0  0
 13 14  1  1  0  0  0
 15 13  1  0  0  0  0
 16 17  1  1  0  0  0
 16 15  1  0  0  0  0
 18  2  1  6  0  0  0
 18 19  1  0  0  0  0
 18 16  1  0  0  0  0
 19 20  1  1  0  0  0
 19 21  1  0  0  0  0
 21 22  1  6  0  0  0
 21 13  1  0  0  0  0
 23 20  1  1  0  0  0
 23 29  1  0  0  0  0
 24 25  1  6  0  0  0
 24 26  1  0  0  0  0
 24 23  1  0  0  0  0
 26 27  1  6  0  0  0
 26 28  1  0  0  0  0
 28 30  1  1  0  0  0
 29 28  1  0  0  0  0
 30 31  1  0  0  0  0
 32 27  1  6  0  0  0
 32 40  1  0  0  0  0
 33 35  1  0  0  0  0
 33 32  1  0  0  0  0
 33 34  1  6  0  0  0
 35 36  1  1  0  0  0
 35 37  1  0  0  0  0
 37 38  1  6  0  0  0
 37 39  1  0  0  0  0
 39 41  1  6  0  0  0
 40 39  1  0  0  0  0
 41 42  1  0  0  0  0
M  END
>  <CHROM.1>
-142.80612299,64.95253758,-72.02380318,104.21718983,141.57215678,120.41489764
-53.14317165,-147.76814785,70.07175238,-2.46117629,16.22998757,33.39427808
0.19528342,-0.84603917,-0.01739852

>  <Name>
lig.pdb

>  <RI>
0

>  <Rbt.Current_Directory>
/home/itssahil/PROJECTS/Mol_Feturizer/New_Systems/rnas/4wcr

>  <Rbt.Executable>
rbdock ($Id: //depot/dev/client3/rdock/2013.1/src/exe/rbdock.cxx#4 $)

>  <Rbt.Library>
libRbt.so (2013.1, Build901 2013/11/27)

>  <Rbt.Parameter_File>
/export/apps/rDock/src/rDock_2013.1_src/data/scripts/dock_solv.prm

>  <Rbt.Receptor>
prm/blind_docking_60.prm

>  <SCORE>
-5.01813

>  <SCORE.INTER>
-11.9026

>  <SCORE.INTER.CONST>
1

>  <SCORE.INTER.POLAR>
0

>  <SCORE.INTER.ROT>
9

>  <SCORE.INTER.SOLV>
31.8585

>  <SCORE.INTER.VDW>
-28.1546

>  <SCORE.INTER.norm>
-0.283396

>  <SCORE.INTRA>
4.94421

>  <SCORE.INTRA.DIHEDRAL>
12.5884

>  <SCORE.INTRA.DIHEDRAL.0>
16.2863

>  <SCORE.INTRA.POLAR>
0

>  <SCORE.INTRA.POLAR.0>
0

>  <SCORE.INTRA.REPUL>
-0.0935974

>  <SCORE.INTRA.REPUL.0>
0.314433

>  <SCORE.INTRA.SOLV>
-0.108858

>  <SCORE.INTRA.SOLV.lig_0>
-103.824

>  <SCORE.INTRA.VDW>
-0.827592

>  <SCORE.INTRA.VDW.0>
-5.30945

>  <SCORE.INTRA.norm>
0.117719

>  <SCORE.RESTR>
1.94028

>  <SCORE.RESTR.CAVITY>
1.94028

>  <SCORE.RESTR.norm>
0.0461972

>  <SCORE.SYSTEM>
0

>  <SCORE.SYSTEM.CONST>
0

>  <SCORE.SYSTEM.DIHEDRAL>
0

>  <SCORE.SYSTEM.SOLV>
0

>  <SCORE.SYSTEM.norm>
0

>  <SCORE.heavy>
42

>  <SCORE.norm>
-0.119479

>  <RMSD>
7.897

$$$$
lig.pdb
 OpenBabel11021811513D
libRbt.so/2013.1/901 2013/11/27
 42 45  0  0  0  0  0  0  0  0999 V2000
   -1.6127   19.2642   34.9816 C   0  0  2  0  0  0  0  0  0  0  0  0
   -1.5100   18.9388   36.4031 O   0  0  0  0  0  0  0  0  0  0  0  0
   -0.1167   19.3972   34.4483 C   0  0  2  0  0  0  0  0  0  0  0  0
    0.5910   18.1223   34.5950 N   0  0  0  0  0  0  0  0  0  0  0  0
    0.6105   20.5897   35.2413 C   0  0  1  0  0  0  0  0  0  0  0  0
    1.9700   20.7627   34.7890 O   0  0  0  0  0  0  0  0  0  0  0  0
   -0.2266   21.8608   35.0180 C   0  0  2  0  0  0  0  0  0  0  0  0
    0.3726   22.9144   35.6922 O   0  0  0  0  0  0  0  0  0  0  0  0
   -1.7183   21.6276   35.5366 C   0  0  2  0  0  0  0  0  0  0  0  0
   -2.3454   20.5403   34.8451 O   0  0  0  0  0  0  0  0  0  0  0  0
   -2.5847   22.8363   35.3235 C   0  0  0  0  0  0  0  0  0  0  0  0
   -2.7766   22.9880   33.9164 O   0  0  0  0  0  0  0  0  0  0  0  0
    0.8549   15.1765   36.5627 C   0  0  2  0  0  0  0  0  0  0  0  0
    1.3955   13.9193   37.0317 N   0  0  0  0  0  0  0  0  0  0  0  0
    1.0985   16.3075   37.6352 C   0  0  0  0  0  0  0  0  0  0  0  0
    0.5166   17.6823   37.1516 C   0  0  2  0  0  0  0  0  0  0  0  0
    0.7561   18.6985   38.1743 N   0  0  0  0  0  0  0  0  0  0  0  0
   -1.0475   17.6113   36.8572 C   0  0  2  0  0  0  0  0  0  0  0  0
   -1.2677   16.5186   35.7713 C   0  0  2  0  0  0  0  0  0  0  0  0
   -2.7616   16.5224   35.5451 O   0  0  0  0  0  0  0  0  0  0  0  0
   -0.7229   15.0817   36.3062 C   0  0  1  0  0  0  0  0  0  0  0  0
   -0.8280   13.9843   35.3434 O   0  0  0  0  0  0  0  0  0  0  0  0
   -3.0645   16.5895   34.2106 C   0  0  1  0  0  0  0  0  0  0  0  0
   -4.1532   15.6870   33.8214 C   0  0  2  0  0  0  0  0  0  0  0  0
   -3.6475   14.3908   33.8462 O   0  0  0  0  0  0  0  0  0  0  0  0
   -4.6002   16.3163   32.4845 C   0  0  2  0  0  0  0  0  0  0  0  0
   -4.3981   15.3134   31.4633 O   0  0  0  0  0  0  0  0  0  0  0  0
   -3.7129   17.5037   32.3040 C   0  0  2  0  0  0  0  0  0  0  0  0
   -3.5484   17.8326   33.7297 O   0  0  0  0  0  0  0  0  0  0  0  0
   -4.4484   18.6751   31.5548 C   0  0  0  0  0  0  0  0  0  0  0  0
   -5.8425   18.8405   31.9528 O   0  0  0  0  0  0  0  0  0  0  0  0
   -5.5206   15.0457   30.5693 C   0  0  2  0  0  0  0  0  0  0  0  0
   -5.2806   13.6133   29.8589 C   0  0  2  0  0  0  0  0  0  0  0  0
   -3.9776   13.6424   29.1187 N   0  0  0  0  0  0  0  0  0  0  0  0
   -6.5223   13.3246   28.8797 C   0  0  1  0  0  0  0  0  0  0  0  0
   -7.7307   13.3264   29.6991 O   0  0  0  0  0  0  0  0  0  0  0  0
   -6.5875   14.4566   27.7578 C   0  0  2  0  0  0  0  0  0  0  0  0
   -5.3404   14.3820   26.9645 O   0  0  0  0  0  0  0  0  0  0  0  0
   -6.7719   15.8978   28.4999 C   0  0  1  0  0  0  0  0  0  0  0  0
   -5.6354   16.1182   29.4667 O   0  0  0  0  0  0  0  0  0  0  0  0
   -6.8223   17.0363   27.4275 C   0  0  0  0  0  0  0  0  0  0  0  0
   -8.0577   16.9861   26.5857 N   0  0  0  0  0  0  0  0  0  0  0  0
  1  3  1  0  0  0  0
  1  2  1  1  0  0  0
  3  4  1  1  0  0  0
  3  5  1  0  0  0  0
  5  6  1  6  0  0  0
  7  8  1  1  0  0  0
  7  5  1  0  0  0  0
  9 11  1  6  0  0  0
  9  7  1  0  0  0  0
 10  9  1  0  0  0  0
 10  1  1  0  0  0  0
 12 11  1  0  0  0  0
 13 14  1  1  0  0  0
 15 13  1  0  0  0  0
 16 17  1  1  0  0  0
 16 15  1  0  0  0  0
 18  2  1  6  0  0  0
 18 19  1  0  0  0  0
 18 16  1  0  0  0  0
 19 20  1  1  0  0  0
 19 21  1  0  0  0  0
 21 22  1  6  0  0  0
 21 13  1  0  0  0  0
 23 20  1  1  0  0  0
 23 29  1  0  0  0  0
 24 25  1  6  0  0  0
 24 26  1  0  0  0  0
 24 23  1  0  0  0  0
 26 27  1  6  0  0  0
 26 28  1  0  0  0  0
 28 30  1  6  0  0  0
 29 28  1  0  0  0  0
 30 31  1  0  0  0  0
 32 27  1  1  0  0  0
 32 40  1  0  0  0  0
 33 35  1  0  0  0  0
 33 32  1  0  0  0  0
 33 34  1  6  0  0  0
 35 36  1  1  0  0  0
 35 37  1  0  0  0  0
 37 38  1  1  0  0  0
 37 39  1  0  0  0  0
 39 41  1  6  0  0  0
 40 39  1  0  0  0  0
 41 42  1  0  0  0  0
M  END
>  <CHROM.1>
-71.45242765,68.51570932,94.96910226,130.62152282,137.25801964,129.90198393
39.11475460,-161.55138895,68.23538086,-2.80616876,17.31823769,33.25661062
0.40843370,-0.86784155,-0.00800916

>  <Name>
lig.pdb

>  <RI>
0

>  <Rbt.Current_Directory>
/home/itssahil/PROJECTS/Mol_Feturizer/New_Systems/rnas/4wcr

>  <Rbt.Executable>
rbdock ($Id: //depot/dev/client3/rdock/2013.1/src/exe/rbdock.cxx#4 $)

>  <Rbt.Library>
libRbt.so (2013.1, Build901 2013/11/27)

>  <Rbt.Parameter_File>
/export/apps/rDock/src/rDock_2013.1_src/data/scripts/dock_solv.prm

>  <Rbt.Receptor>
prm/blind_docking_100.prm

>  <SCORE>
4.7179

>  <SCORE.INTER>
-4.16465

>  <SCORE.INTER.CONST>
1

>  <SCORE.INTER.POLAR>
0

>  <SCORE.INTER.ROT>
9

>  <SCORE.INTER.SOLV>
38.8373

>  <SCORE.INTER.VDW>
-25.3222

>  <SCORE.INTER.norm>
-0.0991582

>  <SCORE.INTRA>
7.77538

>  <SCORE.INTRA.DIHEDRAL>
11.7176

>  <SCORE.INTRA.DIHEDRAL.0>
16.2863

>  <SCORE.INTRA.POLAR>
0

>  <SCORE.INTRA.POLAR.0>
0

>  <SCORE.INTRA.REPUL>
-0.314433

>  <SCORE.INTRA.REPUL.0>
0.314433

>  <SCORE.INTRA.SOLV>
2.19836

>  <SCORE.INTRA.SOLV.lig_0>
-103.824

>  <SCORE.INTRA.VDW>
2.38955

>  <SCORE.INTRA.VDW.0>
-5.30945

>  <SCORE.INTRA.norm>
0.185128

>  <SCORE.RESTR>
1.10717

>  <SCORE.RESTR.CAVITY>
1.10717

>  <SCORE.RESTR.norm>
0.0263613

>  <SCORE.SYSTEM>
0

>  <SCORE.SYSTEM.CONST>
0

>  <SCORE.SYSTEM.DIHEDRAL>
0

>  <SCORE.SYSTEM.SOLV>
0

>  <SCORE.SYSTEM.norm>
0

>  <SCORE.heavy>
42

>  <SCORE.norm>
0.112331

>  <RMSD>
7.918

$$$$
lig.pdb
 OpenBabel11021811513D
libRbt.so/2013.1/901 2013/11/27
 42 45  0  0  0  0  0  0  0  0999 V2000
   -2.3211   21.0327   33.1404 C   0  0  2  0  0  0  0  0  0  0  0  0
   -3.7242   20.6347   33.0390 O   0  0  0  0  0  0  0  0  0  0  0  0
   -2.2437   22.0826   34.3369 C   0  0  2  0  0  0  0  0  0  0  0  0
   -2.6516   21.4513   35.5950 N   0  0  0  0  0  0  0  0  0  0  0  0
   -3.1573   23.3518   33.9706 C   0  0  1  0  0  0  0  0  0  0  0  0
   -3.1153   24.3433   35.0184 O   0  0  0  0  0  0  0  0  0  0  0  0
   -2.6384   23.9154   32.6366 C   0  0  2  0  0  0  0  0  0  0  0  0
   -3.4076   25.0153   32.2870 O   0  0  0  0  0  0  0  0  0  0  0  0
   -2.7078   22.7896   31.5069 C   0  0  2  0  0  0  0  0  0  0  0  0
   -1.9154   21.6489   31.8600 O   0  0  0  0  0  0  0  0  0  0  0  0
   -2.1930   23.2847   30.1852 C   0  0  0  0  0  0  0  0  0  0  0  0
   -0.8193   23.6341   30.3597 O   0  0  0  0  0  0  0  0  0  0  0  0
   -6.0649   17.3678   31.1362 C   0  0  2  0  0  0  0  0  0  0  0  0
   -6.5978   16.4717   30.1332 N   0  0  0  0  0  0  0  0  0  0  0  0
   -6.3169   18.8672   30.7153 C   0  0  0  0  0  0  0  0  0  0  0  0
   -5.7434   19.8606   31.7862 C   0  0  2  0  0  0  0  0  0  0  0  0
   -5.9905   21.2352   31.3558 N   0  0  0  0  0  0  0  0  0  0  0  0
   -4.1785   19.6700   32.0167 C   0  0  2  0  0  0  0  0  0  0  0  0
   -3.9502   18.1981   32.4672 C   0  0  2  0  0  0  0  0  0  0  0  0
   -2.4562   18.1051   32.6721 O   0  0  0  0  0  0  0  0  0  0  0  0
   -4.4863   17.1739   31.3221 C   0  0  1  0  0  0  0  0  0  0  0  0
   -4.3731   15.7546   31.6612 O   0  0  0  0  0  0  0  0  0  0  0  0
   -2.1268   18.2045   33.9983 C   0  0  1  0  0  0  0  0  0  0  0  0
   -2.4285   16.9874   34.7591 C   0  0  2  0  0  0  0  0  0  0  0  0
   -3.8111   16.9184   34.9016 O   0  0  0  0  0  0  0  0  0  0  0  0
   -1.5327   17.1811   36.0013 C   0  0  2  0  0  0  0  0  0  0  0  0
   -2.4127   17.2262   37.1472 O   0  0  0  0  0  0  0  0  0  0  0  0
   -0.8295   18.4777   35.7685 C   0  0  2  0  0  0  0  0  0  0  0  0
   -0.7537   18.3883   34.3008 O   0  0  0  0  0  0  0  0  0  0  0  0
    0.6152   18.4795   36.3907 C   0  0  0  0  0  0  0  0  0  0  0  0
    0.6248   18.4278   37.8489 O   0  0  0  0  0  0  0  0  0  0  0  0
   -1.7826   17.2326   38.4639 C   0  0  2  0  0  0  0  0  0  0  0  0
   -0.9618   15.8516   38.6468 C   0  0  2  0  0  0  0  0  0  0  0  0
   -1.9018   14.6950   38.4881 N   0  0  0  0  0  0  0  0  0  0  0  0
   -0.2683   15.8684   40.0969 C   0  0  1  0  0  0  0  0  0  0  0  0
    0.6129   17.0316   40.1429 O   0  0  0  0  0  0  0  0  0  0  0  0
   -1.3948   15.9564   41.2228 C   0  0  2  0  0  0  0  0  0  0  0  0
   -2.2342   14.7419   41.1210 O   0  0  0  0  0  0  0  0  0  0  0  0
   -2.2463   17.3275   40.9839 C   0  0  1  0  0  0  0  0  0  0  0  0
   -2.8294   17.3252   39.5930 O   0  0  0  0  0  0  0  0  0  0  0  0
   -3.3742   17.4380   42.0629 C   0  0  0  0  0  0  0  0  0  0  0  0
   -2.8370   17.5967   43.4498 N   0  0  0  0  0  0  0  0  0  0  0  0
  1  3  1  0  0  0  0
  1  2  1  6  0  0  0
  3  4  1  1  0  0  0
  3  5  1  0  0  0  0
  5  6  1  1  0  0  0
  7  8  1  6  0  0  0
  7  5  1  0  0  0  0
  9 11  1  6  0  0  0
  9  7  1  0  0  0  0
 10  9  1  0  0  0  0
 10  1  1  0  0  0  0
 12 11  1  0  0  0  0
 13 14  1  6  0  0  0
 15 13  1  0  0  0  0
 16 17  1  6  0  0  0
 16 15  1  0  0  0  0
 18  2  1  1  0  0  0
 18 19  1  0  0  0  0
 18 16  1  0  0  0  0
 19 20  1  6  0  0  0
 19 21  1  0  0  0  0
 21 22  1  1  0  0  0
 21 13  1  0  0  0  0
 23 20  1  6  0  0  0
 23 29  1  0  0  0  0
 24 25  1  1  0  0  0
 24 26  1  0  0  0  0
 24 23  1  0  0  0  0
 26 27  1  1  0  0  0
 26 28  1  0  0  0  0
 28 30  1  1  0  0  0
 29 28  1  0  0  0  0
 30 31  1  0  0  0  0
 32 27  1  6  0  0  0
 32 40  1  0  0  0  0
 33 35  1  0  0  0  0
 33 32  1  0  0  0  0
 33 34  1  1  0  0  0
 35 36  1  6  0  0  0
 35 37  1  0  0  0  0
 37 38  1  6  0  0  0
 37 39  1  0  0  0  0
 39 41  1  1  0  0  0
 40 39  1  0  0  0  0
 41 42  1  0  0  0  0
M  END
>  <CHROM.1>
179.38094579,62.03002559,-158.49494100,100.10131130,74.76502853,172.38371001
-66.96216781,-62.56927551,65.23910619,-2.66530117,18.99710472,35.11531713
-2.02096375,1.07333842,2.48734793

>  <Name>
lig.pdb

>  <RI>
0

>  <Rbt.Current_Directory>
/home/itssahil/PROJECTS/Mol_Feturizer/New_Systems/rnas/4wcr

>  <Rbt.Executable>
rbdock ($Id: //depot/dev/client3/rdock/2013.1/src/exe/rbdock.cxx#4 $)

>  <Rbt.Library>
libRbt.so (2013.1, Build901 2013/11/27)

>  <Rbt.Parameter_File>
/export/apps/rDock/src/rDock_2013.1_src/data/scripts/dock_solv.prm

>  <Rbt.Receptor>
prm/pocket_docking_7.prm

>  <SCORE>
-16.4469

>  <SCORE.INTER>
-12.0167

>  <SCORE.INTER.CONST>
1

>  <SCORE.INTER.POLAR>
0

>  <SCORE.INTER.ROT>
9

>  <SCORE.INTER.SOLV>
23.9751

>  <SCORE.INTER.VDW>
-25.6028

>  <SCORE.INTER.norm>
-0.286112

>  <SCORE.INTRA>
-4.43015

>  <SCORE.INTRA.DIHEDRAL>
-6.66565

>  <SCORE.INTRA.DIHEDRAL.0>
16.2863

>  <SCORE.INTRA.POLAR>
0

>  <SCORE.INTRA.POLAR.0>
0

>  <SCORE.INTRA.REPUL>
-0.314433

>  <SCORE.INTRA.REPUL.0>
0.314433

>  <SCORE.INTRA.SOLV>
-0.959923

>  <SCORE.INTRA.SOLV.lig_0>
-103.824

>  <SCORE.INTRA.VDW>
0.954799

>  <SCORE.INTRA.VDW.0>
-5.30945

>  <SCORE.INTRA.norm>
-0.10548

>  <SCORE.RESTR>
0

>  <SCORE.RESTR.CAVITY>
0

>  <SCORE.RESTR.norm>
0

>  <SCORE.SYSTEM>
0

>  <SCORE.SYSTEM.CONST>
0

>  <SCORE.SYSTEM.DIHEDRAL>
0

>  <SCORE.SYSTEM.SOLV>
0

>  <SCORE.SYSTEM.norm>
0

>  <SCORE.heavy>
42

>  <SCORE.norm>
-0.391592

>  <RMSD>
7.935

$$$$
lig.pdb
 OpenBabel11021811513D
libRbt.so/2013.1/901 2013/11/27
 42 45  0  0  0  0  0  0  0  0999 V2000
   -0.5977   13.9402   35.3497 C   0  0  2  0  0  0  0  0  0  0  0  0
   -1.6875   13.7281   36.3009 O   0  0  0  0  0  0  0  0  0  0  0  0
    0.4868   12.8144   35.6603 C   0  0  2  0  0  0  0  0  0  0  0  0
   -0.0846   11.4829   35.4404 N   0  0  0  0  0  0  0  0  0  0  0  0
    1.0155   13.0071   37.1646 C   0  0  1  0  0  0  0  0  0  0  0  0
    2.0118   12.0175   37.4972 O   0  0  0  0  0  0  0  0  0  0  0  0
    1.5785   14.4348   37.2692 C   0  0  2  0  0  0  0  0  0  0  0  0
    2.0441   14.6380   38.5597 O   0  0  0  0  0  0  0  0  0  0  0  0
    0.4439   15.4952   36.8994 C   0  0  2  0  0  0  0  0  0  0  0  0
   -0.0432   15.2926   35.5670 O   0  0  0  0  0  0  0  0  0  0  0  0
    0.9491   16.9084   36.9678 C   0  0  0  0  0  0  0  0  0  0  0  0
    1.2903   17.1801   38.3278 O   0  0  0  0  0  0  0  0  0  0  0  0
   -5.5214   11.5570   35.7005 C   0  0  2  0  0  0  0  0  0  0  0  0
   -6.4640   10.4870   35.4566 N   0  0  0  0  0  0  0  0  0  0  0  0
   -4.4627   11.6262   34.5329 C   0  0  0  0  0  0  0  0  0  0  0  0
   -3.4248   12.7776   34.7762 C   0  0  2  0  0  0  0  0  0  0  0  0
   -2.4602   12.8028   33.6785 N   0  0  0  0  0  0  0  0  0  0  0  0
   -2.6340   12.6042   36.1484 C   0  0  2  0  0  0  0  0  0  0  0  0
   -3.6882   12.5754   37.2927 C   0  0  2  0  0  0  0  0  0  0  0  0
   -2.8622   12.4199   38.5482 O   0  0  0  0  0  0  0  0  0  0  0  0
   -4.7209   11.3379   37.0699 C   0  0  1  0  0  0  0  0  0  0  0  0
   -5.7948   11.2439   38.0600 O   0  0  0  0  0  0  0  0  0  0  0  0
   -3.5563   12.8287   39.6566 C   0  0  1  0  0  0  0  0  0  0  0  0
   -4.1514   14.1605   39.5043 C   0  0  2  0  0  0  0  0  0  0  0  0
   -3.1156   15.0879   39.5644 O   0  0  0  0  0  0  0  0  0  0  0  0
   -5.2299   14.1344   40.6086 C   0  0  2  0  0  0  0  0  0  0  0  0
   -4.9060   15.1976   41.5329 O   0  0  0  0  0  0  0  0  0  0  0  0
   -5.1111   12.7812   41.2286 C   0  0  2  0  0  0  0  0  0  0  0  0
   -4.6898   12.0572   40.0178 O   0  0  0  0  0  0  0  0  0  0  0  0
   -6.5017   12.2435   41.7301 C   0  0  0  0  0  0  0  0  0  0  0  0
   -7.4644   12.0192   40.6567 O   0  0  0  0  0  0  0  0  0  0  0  0
   -5.0592   16.5653   41.0461 C   0  0  2  0  0  0  0  0  0  0  0  0
   -4.8275   17.5795   42.2838 C   0  0  2  0  0  0  0  0  0  0  0  0
   -5.8113   17.2645   43.3699 N   0  0  0  0  0  0  0  0  0  0  0  0
   -4.9942   19.0825   41.7387 C   0  0  1  0  0  0  0  0  0  0  0  0
   -3.9995   19.2757   40.6875 O   0  0  0  0  0  0  0  0  0  0  0  0
   -6.4726   19.2812   41.1739 C   0  0  2  0  0  0  0  0  0  0  0  0
   -7.4175   19.0841   42.2957 O   0  0  0  0  0  0  0  0  0  0  0  0
   -6.7035   18.2094   39.9656 C   0  0  1  0  0  0  0  0  0  0  0  0
   -6.4727   16.8102   40.4793 O   0  0  0  0  0  0  0  0  0  0  0  0
   -8.1535   18.3645   39.3981 C   0  0  0  0  0  0  0  0  0  0  0  0
   -8.3826   19.6910   38.7462 N   0  0  0  0  0  0  0  0  0  0  0  0
  1  3  1  0  0  0  0
  1  2  1  1  0  0  0
  3  4  1  1  0  0  0
  3  5  1  0  0  0  0
  5  6  1  6  0  0  0
  7  8  1  1  0  0  0
  7  5  1  0  0  0  0
  9 11  1  6  0  0  0
  9  7  1  0  0  0  0
 10  9  1  0  0  0  0
 10  1  1  0  0  0  0
 12 11  1  0  0  0  0
 13 14  1  6  0  0  0
 15 13  1  0  0  0  0
 16 17  1  6  0  0  0
 16 15  1  0  0  0  0
 18  2  1  1  0  0  0
 18 19  1  0  0  0  0
 18 16  1  0  0  0  0
 19 20  1  1  0  0  0
 19 21  1  0  0  0  0
 21 22  1  1  0  0  0
 21 13  1  0  0  0  0
 23 20  1  6  0  0  0
 23 29  1  0  0  0  0
 24 25  1  1  0  0  0
 24 26  1  0  0  0  0
 24 23  1  0  0  0  0
 26 27  1  1  0  0  0
 26 28  1  0  0  0  0
 28 30  1  6  0  0  0
 29 28  1  0  0  0  0
 30 31  1  0  0  0  0
 32 27  1  1  0  0  0
 32 40  1  0  0  0  0
 33 35  1  0  0  0  0
 33 32  1  0  0  0  0
 33 34  1  1  0  0  0
 35 36  1  6  0  0  0
 35 37  1  0  0  0  0
 37 38  1  1  0  0  0
 37 39  1  0  0  0  0
 39 41  1  1  0  0  0
 40 39  1  0  0  0  0
 41 42  1  0  0  0  0
M  END
>  <CHROM.1>
-73.99662518,-64.69718335,-62.32989669,159.12690850,-50.51203713,68.60461314
64.36989027,172.96915920,64.93767620,-3.50114563,14.58319160,38.55421462
-0.78857375,0.34490340,0.53181639

>  <Name>
lig.pdb

>  <RI>
0

>  <Rbt.Current_Directory>
/home/itssahil/PROJECTS/Mol_Feturizer/New_Systems/rnas/4wcr

>  <Rbt.Executable>
rbdock ($Id: //depot/dev/client3/rdock/2013.1/src/exe/rbdock.cxx#4 $)

>  <Rbt.Library>
libRbt.so (2013.1, Build901 2013/11/27)

>  <Rbt.Parameter_File>
/export/apps/rDock/src/rDock_2013.1_src/data/scripts/dock_solv.prm

>  <Rbt.Receptor>
prm/pocket_docking_7.prm

>  <SCORE>
-3.67465

>  <SCORE.INTER>
-0.587914

>  <SCORE.INTER.CONST>
1

>  <SCORE.INTER.POLAR>
0

>  <SCORE.INTER.ROT>
9

>  <SCORE.INTER.SOLV>
19.3785

>  <SCORE.INTER.VDW>
-16.4514

>  <SCORE.INTER.norm>
-0.013998

>  <SCORE.INTRA>
-3.08673

>  <SCORE.INTRA.DIHEDRAL>
-11.6173

>  <SCORE.INTRA.DIHEDRAL.0>
16.2863

>  <SCORE.INTRA.POLAR>
0

>  <SCORE.INTRA.POLAR.0>
0

>  <SCORE.INTRA.REPUL>
-0.314433

>  <SCORE.INTRA.REPUL.0>
0.314433

>  <SCORE.INTRA.SOLV>
0.117376

>  <SCORE.INTRA.SOLV.lig_0>
-103.824

>  <SCORE.INTRA.VDW>
4.2354

>  <SCORE.INTRA.VDW.0>
-5.30945

>  <SCORE.INTRA.norm>
-0.0734937

>  <SCORE.RESTR>
0

>  <SCORE.RESTR.CAVITY>
0

>  <SCORE.RESTR.norm>
0

>  <SCORE.SYSTEM>
0

>  <SCORE.SYSTEM.CONST>
0

>  <SCORE.SYSTEM.DIHEDRAL>
0

>  <SCORE.SYSTEM.SOLV>
0

>  <SCORE.SYSTEM.norm>
0

>  <SCORE.heavy>
42

>  <SCORE.norm>
-0.0874916

>  <RMSD>
7.944

$$$$
lig.pdb
 OpenBabel11021811513D
libRbt.so/2013.1/901 2013/11/27
 42 45  0  0  0  0  0  0  0  0999 V2000
    1.1069   14.5997   37.2332 C   0  0  2  0  0  0  0  0  0  0  0  0
   -0.2493   14.1819   37.5843 O   0  0  0  0  0  0  0  0  0  0  0  0
    1.7707   15.1286   38.5822 C   0  0  2  0  0  0  0  0  0  0  0  0
    1.8459   14.0485   39.5698 N   0  0  0  0  0  0  0  0  0  0  0  0
    0.9228   16.3830   39.1182 C   0  0  1  0  0  0  0  0  0  0  0  0
    1.4880   16.9112   40.3364 O   0  0  0  0  0  0  0  0  0  0  0  0
    0.9106   17.4358   37.9966 C   0  0  2  0  0  0  0  0  0  0  0  0
    0.1831   18.5363   38.4249 O   0  0  0  0  0  0  0  0  0  0  0  0
    0.2734   16.8123   36.6724 C   0  0  2  0  0  0  0  0  0  0  0  0
    1.0190   15.6741   36.2225 O   0  0  0  0  0  0  0  0  0  0  0  0
    0.2553   17.7969   35.5378 C   0  0  0  0  0  0  0  0  0  0  0  0
   -0.6523   18.8426   35.8874 O   0  0  0  0  0  0  0  0  0  0  0  0
   -1.5252   12.1752   33.8269 C   0  0  2  0  0  0  0  0  0  0  0  0
   -2.2989   11.3901   32.8899 N   0  0  0  0  0  0  0  0  0  0  0  0
   -1.1797   11.3143   35.1030 C   0  0  0  0  0  0  0  0  0  0  0  0
   -0.3434   12.1456   36.1383 C   0  0  2  0  0  0  0  0  0  0  0  0
   -0.0512   11.3161   37.3055 N   0  0  0  0  0  0  0  0  0  0  0  0
   -1.1052   13.4588   36.6215 C   0  0  2  0  0  0  0  0  0  0  0  0
   -1.4057   14.3146   35.3571 C   0  0  2  0  0  0  0  0  0  0  0  0
   -2.1134   15.5342   35.8997 O   0  0  0  0  0  0  0  0  0  0  0  0
   -2.3295   13.4700   34.3175 C   0  0  1  0  0  0  0  0  0  0  0  0
   -2.6317   14.1574   33.0612 O   0  0  0  0  0  0  0  0  0  0  0  0
   -3.2018   15.1853   36.6552 C   0  0  1  0  0  0  0  0  0  0  0  0
   -3.8609   16.3364   37.2811 C   0  0  2  0  0  0  0  0  0  0  0  0
   -3.0362   16.7779   38.3114 O   0  0  0  0  0  0  0  0  0  0  0  0
   -5.2509   15.7469   37.6030 C   0  0  2  0  0  0  0  0  0  0  0  0
   -5.4107   15.8154   39.0380 O   0  0  0  0  0  0  0  0  0  0  0  0
   -5.1974   14.3421   37.0996 C   0  0  2  0  0  0  0  0  0  0  0  0
   -4.2865   14.5834   35.9684 O   0  0  0  0  0  0  0  0  0  0  0  0
   -6.5988   13.8540   36.5777 C   0  0  0  0  0  0  0  0  0  0  0  0
   -6.5995   12.4732   36.1061 O   0  0  0  0  0  0  0  0  0  0  0  0
   -5.6198   17.1392   39.6166 C   0  0  2  0  0  0  0  0  0  0  0  0
   -5.5057   17.0201   41.2251 C   0  0  2  0  0  0  0  0  0  0  0  0
   -6.5197   16.0330   41.7192 N   0  0  0  0  0  0  0  0  0  0  0  0
   -5.7333   18.4819   41.8538 C   0  0  1  0  0  0  0  0  0  0  0  0
   -4.7030   19.3568   41.3018 O   0  0  0  0  0  0  0  0  0  0  0  0
   -7.1925   19.0018   41.4733 C   0  0  2  0  0  0  0  0  0  0  0  0
   -8.1762   18.0757   42.0774 O   0  0  0  0  0  0  0  0  0  0  0  0
   -7.3037   19.0590   39.8466 C   0  0  1  0  0  0  0  0  0  0  0  0
   -7.0167   17.6946   39.2715 O   0  0  0  0  0  0  0  0  0  0  0  0
   -8.7319   19.5495   39.4364 C   0  0  0  0  0  0  0  0  0  0  0  0
   -9.8216   18.6767   39.9731 N   0  0  0  0  0  0  0  0  0  0  0  0
  1  3  1  0  0  0  0
  1  2  1  1  0  0  0
  3  4  1  1  0  0  0
  3  5  1  0  0  0  0
  5  6  1  1  0  0  0
  7  8  1  1  0  0  0
  7  5  1  0  0  0  0
  9 11  1  6  0  0  0
  9  7  1  0  0  0  0
 10  9  1  0  0  0  0
 10  1  1  0  0  0  0
 12 11  1  0  0  0  0
 13 14  1  6  0  0  0
 15 13  1  0  0  0  0
 16 17  1  1  0  0  0
 16 15  1  0  0  0  0
 18  2  1  1  0  0  0
 18 19  1  0  0  0  0
 18 16  1  0  0  0  0
 19 20  1  1  0  0  0
 19 21  1  0  0  0  0
 21 22  1  6  0  0  0
 21 13  1  0  0  0  0
 23 20  1  6  0  0  0
 23 29  1  0  0  0  0
 24 25  1  1  0  0  0
 24 26  1  0  0  0  0
 24 23  1  0  0  0  0
 26 27  1  1  0  0  0
 26 28  1  0  0  0  0
 28 30  1  6  0  0  0
 29 28  1  0  0  0  0
 30 31  1  0  0  0  0
 32 27  1  6  0  0  0
 32 40  1  0  0  0  0
 33 35  1  0  0  0  0
 33 32  1  0  0  0  0
 33 34  1  1  0  0  0
 35 36  1  6  0  0  0
 35 37  1  0  0  0  0
 37 38  1  6  0  0  0
 37 39  1  0  0  0  0
 39 41  1  1  0  0  0
 40 39  1  0  0  0  0
 41 42  1  0  0  0  0
M  END
>  <CHROM.1>
-171.30786940,-66.73043849,56.16577239,-54.61168617,175.83272405,71.90596922
-178.57743944,-169.92675007,-58.15086541,-3.00846788,15.76302068,37.76563384
-0.70829857,0.04699546,0.77294039

>  <Name>
lig.pdb

>  <RI>
0

>  <Rbt.Current_Directory>
/home/itssahil/PROJECTS/Mol_Feturizer/New_Systems/rnas/4wcr

>  <Rbt.Executable>
rbdock ($Id: //depot/dev/client3/rdock/2013.1/src/exe/rbdock.cxx#4 $)

>  <Rbt.Library>
libRbt.so (2013.1, Build901 2013/11/27)

>  <Rbt.Parameter_File>
/export/apps/rDock/src/rDock_2013.1_src/data/scripts/dock_solv.prm

>  <Rbt.Receptor>
prm/pocket_docking_6.prm

>  <SCORE>
-10.79

>  <SCORE.INTER>
-3.66234

>  <SCORE.INTER.CONST>
1

>  <SCORE.INTER.POLAR>
0

>  <SCORE.INTER.ROT>
9

>  <SCORE.INTER.SOLV>
17.5511

>  <SCORE.INTER.VDW>
-17.8919

>  <SCORE.INTER.norm>
-0.0871985

>  <SCORE.INTRA>
-7.12769

>  <SCORE.INTRA.DIHEDRAL>
-13.7538

>  <SCORE.INTRA.DIHEDRAL.0>
16.2863

>  <SCORE.INTRA.POLAR>
0

>  <SCORE.INTRA.POLAR.0>
0

>  <SCORE.INTRA.REPUL>
-0.314433

>  <SCORE.INTRA.REPUL.0>
0.314433

>  <SCORE.INTRA.SOLV>
-2.2432

>  <SCORE.INTRA.SOLV.lig_0>
-103.824

>  <SCORE.INTRA.VDW>
2.44299

>  <SCORE.INTRA.VDW.0>
-5.30945

>  <SCORE.INTRA.norm>
-0.169707

>  <SCORE.RESTR>
0

>  <SCORE.RESTR.CAVITY>
0

>  <SCORE.RESTR.norm>
0

>  <SCORE.SYSTEM>
0

>  <SCORE.SYSTEM.CONST>
0

>  <SCORE.SYSTEM.DIHEDRAL>
0

>  <SCORE.SYSTEM.SOLV>
0

>  <SCORE.SYSTEM.norm>
0

>  <SCORE.heavy>
42

>  <SCORE.norm>
-0.256905

>  <RMSD>
7.971

$$$$
lig.pdb
 OpenBabel11021811513D
libRbt.so/2013.1/901 2013/11/27
 42 45  0  0  0  0  0  0  0  0999 V2000
   -1.9325   16.3772   35.7608 C   0  0  2  0  0  0  0  0  0  0  0  0
   -2.8118   17.5096   36.0468 O   0  0  0  0  0  0  0  0  0  0  0  0
   -1.8162   15.5524   37.1196 C   0  0  2  0  0  0  0  0  0  0  0  0
   -3.1311   15.0448   37.5208 N   0  0  0  0  0  0  0  0  0  0  0  0
   -1.1615   16.4960   38.2425 C   0  0  1  0  0  0  0  0  0  0  0  0
   -1.0216   15.7940   39.4956 O   0  0  0  0  0  0  0  0  0  0  0  0
    0.1996   16.9676   37.7026 C   0  0  2  0  0  0  0  0  0  0  0  0
    0.7949   17.7890   38.6485 O   0  0  0  0  0  0  0  0  0  0  0  0
   -0.0021   17.7424   36.3216 C   0  0  2  0  0  0  0  0  0  0  0  0
   -0.6170   16.9009   35.3379 O   0  0  0  0  0  0  0  0  0  0  0  0
    1.3027   18.2087   35.7410 C   0  0  0  0  0  0  0  0  0  0  0  0
    1.0039   19.1212   34.6837 O   0  0  0  0  0  0  0  0  0  0  0  0
   -3.2312   21.7821   34.8882 C   0  0  2  0  0  0  0  0  0  0  0  0
   -2.9025   23.1646   34.6167 N   0  0  0  0  0  0  0  0  0  0  0  0
   -2.8097   21.4016   36.3600 C   0  0  0  0  0  0  0  0  0  0  0  0
   -3.1520   19.9036   36.6785 C   0  0  2  0  0  0  0  0  0  0  0  0
   -2.7401   19.5906   38.0453 N   0  0  0  0  0  0  0  0  0  0  0  0
   -2.4321   18.8899   35.6822 C   0  0  2  0  0  0  0  0  0  0  0  0
   -2.8866   19.2537   34.2391 C   0  0  2  0  0  0  0  0  0  0  0  0
   -2.1731   18.2483   33.3657 O   0  0  0  0  0  0  0  0  0  0  0  0
   -2.4685   20.7874   33.8917 C   0  0  1  0  0  0  0  0  0  0  0  0
   -2.8954   21.2604   32.5741 O   0  0  0  0  0  0  0  0  0  0  0  0
   -3.0215   17.6995   32.4403 C   0  0  1  0  0  0  0  0  0  0  0  0
   -3.5826   16.4129   32.8654 C   0  0  2  0  0  0  0  0  0  0  0  0
   -2.5634   15.4685   32.7863 O   0  0  0  0  0  0  0  0  0  0  0  0
   -4.8122   16.3017   31.9387 C   0  0  2  0  0  0  0  0  0  0  0  0
   -4.6242   15.1136   31.1371 O   0  0  0  0  0  0  0  0  0  0  0  0
   -4.7914   17.5519   31.1224 C   0  0  2  0  0  0  0  0  0  0  0  0
   -4.1988   18.4319   32.1434 O   0  0  0  0  0  0  0  0  0  0  0  0
   -6.2428   18.0374   30.7590 C   0  0  0  0  0  0  0  0  0  0  0  0
   -6.2708   19.2870   30.0061 O   0  0  0  0  0  0  0  0  0  0  0  0
   -5.7956   14.5990   30.4343 C   0  0  2  0  0  0  0  0  0  0  0  0
   -5.3366   13.3471   29.5198 C   0  0  2  0  0  0  0  0  0  0  0  0
   -4.2720   13.7980   28.5658 N   0  0  0  0  0  0  0  0  0  0  0  0
   -6.6323   12.7843   28.7528 C   0  0  1  0  0  0  0  0  0  0  0  0
   -7.5995   12.3846   29.7708 O   0  0  0  0  0  0  0  0  0  0  0  0
   -7.2284   13.9252   27.8107 C   0  0  2  0  0  0  0  0  0  0  0  0
   -6.1999   14.2646   26.8022 O   0  0  0  0  0  0  0  0  0  0  0  0
   -7.6308   15.1991   28.7473 C   0  0  1  0  0  0  0  0  0  0  0  0
   -6.4186   15.6674   29.5127 O   0  0  0  0  0  0  0  0  0  0  0  0
   -8.2044   16.3469   27.8516 C   0  0  0  0  0  0  0  0  0  0  0  0
   -7.2377   16.8054   26.8064 N   0  0  0  0  0  0  0  0  0  0  0  0
  1  3  1  0  0  0  0
  1  2  1  1  0  0  0
  3  4  1  1  0  0  0
  3  5  1  0  0  0  0
  5  6  1  1  0  0  0
  7  8  1  1  0  0  0
  7  5  1  0  0  0  0
  9 11  1  6  0  0  0
  9  7  1  0  0  0  0
 10  9  1  0  0  0  0
 10  1  1  0  0  0  0
 12 11  1  0  0  0  0
 13 14  1  6  0  0  0
 15 13  1  0  0  0  0
 16 17  1  1  0  0  0
 16 15  1  0  0  0  0
 18  2  1  1  0  0  0
 18 19  1  0  0  0  0
 18 16  1  0  0  0  0
 19 20  1  6  0  0  0
 19 21  1  0  0  0  0
 21 22  1  6  0  0  0
 21 13  1  0  0  0  0
 23 20  1  1  0  0  0
 23 29  1  0  0  0  0
 24 25  1  6  0  0  0
 24 26  1  0  0  0  0
 24 23  1  0  0  0  0
 26 27  1  6  0  0  0
 26 28  1  0  0  0  0
 28 30  1  1  0  0  0
 29 28  1  0  0  0  0
 30 31  1  0  0  0  0
 32 27  1  6  0  0  0
 32 40  1  0  0  0  0
 33 35  1  0  0  0  0
 33 32  1  0  0  0  0
 33 34  1  6  0  0  0
 35 36  1  1  0  0  0
 35 37  1  0  0  0  0
 37 38  1  6  0  0  0
 37 39  1  0  0  0  0
 39 41  1  6  0  0  0
 40 39  1  0  0  0  0
 41 42  1  0  0  0  0
M  END
>  <CHROM.1>
130.30453036,-167.77205716,-152.77936946,133.79185170,-96.20261469,164.54807219
177.68255478,175.73999165,-58.71773653,-3.54641459,17.16909659,33.14706529
-0.32996072,0.98291338,3.12924449

>  <Name>
lig.pdb

>  <RI>
0

>  <Rbt.Current_Directory>
/home/itssahil/PROJECTS/Mol_Feturizer/New_Systems/rnas/4wcr

>  <Rbt.Executable>
rbdock ($Id: //depot/dev/client3/rdock/2013.1/src/exe/rbdock.cxx#4 $)

>  <Rbt.Library>
libRbt.so (2013.1, Build901 2013/11/27)

>  <Rbt.Parameter_File>
/export/apps/rDock/src/rDock_2013.1_src/data/scripts/dock_solv.prm

>  <Rbt.Receptor>
prm/blind_docking_60.prm

>  <SCORE>
4.80386

>  <SCORE.INTER>
-5.59058

>  <SCORE.INTER.CONST>
1

>  <SCORE.INTER.POLAR>
0

>  <SCORE.INTER.ROT>
9

>  <SCORE.INTER.SOLV>
34.7081

>  <SCORE.INTER.VDW>
-24.8964

>  <SCORE.INTER.norm>
-0.133109

>  <SCORE.INTRA>
3.4486

>  <SCORE.INTRA.DIHEDRAL>
6.76229

>  <SCORE.INTRA.DIHEDRAL.0>
16.2863

>  <SCORE.INTRA.POLAR>
0

>  <SCORE.INTRA.POLAR.0>
0

>  <SCORE.INTRA.REPUL>
-0.314433

>  <SCORE.INTRA.REPUL.0>
0.314433

>  <SCORE.INTRA.SOLV>
-0.702571

>  <SCORE.INTRA.SOLV.lig_0>
-103.824

>  <SCORE.INTRA.VDW>
1.99091

>  <SCORE.INTRA.VDW.0>
-5.30945

>  <SCORE.INTRA.norm>
0.0821095

>  <SCORE.RESTR>
6.94585

>  <SCORE.RESTR.CAVITY>
6.94585

>  <SCORE.RESTR.norm>
0.165377

>  <SCORE.SYSTEM>
0

>  <SCORE.SYSTEM.CONST>
0

>  <SCORE.SYSTEM.DIHEDRAL>
0

>  <SCORE.SYSTEM.SOLV>
0

>  <SCORE.SYSTEM.norm>
0

>  <SCORE.heavy>
42

>  <SCORE.norm>
0.114378

>  <RMSD>
8.026

$$$$
lig.pdb
 OpenBabel11021811513D
libRbt.so/2013.1/901 2013/11/27
 42 45  0  0  0  0  0  0  0  0999 V2000
   -0.3859   19.2669   34.6252 C   0  0  2  0  0  0  0  0  0  0  0  0
   -0.8043   18.8966   35.9761 O   0  0  0  0  0  0  0  0  0  0  0  0
    1.1333   19.7335   34.7442 C   0  0  2  0  0  0  0  0  0  0  0  0
    1.9702   18.6265   35.2152 N   0  0  0  0  0  0  0  0  0  0  0  0
    1.2077   21.0078   35.7190 C   0  0  1  0  0  0  0  0  0  0  0  0
    2.5643   21.4812   35.8547 O   0  0  0  0  0  0  0  0  0  0  0  0
    0.2877   22.0884   35.1254 C   0  0  2  0  0  0  0  0  0  0  0  0
    0.3256   23.2068   35.9449 O   0  0  0  0  0  0  0  0  0  0  0  0
   -1.2007   21.5255   34.9985 C   0  0  2  0  0  0  0  0  0  0  0  0
   -1.2494   20.3693   34.1532 O   0  0  0  0  0  0  0  0  0  0  0  0
   -2.1379   22.5385   34.4046 C   0  0  0  0  0  0  0  0  0  0  0  0
   -3.4424   21.9577   34.3789 O   0  0  0  0  0  0  0  0  0  0  0  0
    0.2213   14.5717   36.1028 C   0  0  2  0  0  0  0  0  0  0  0  0
    0.3438   13.2078   36.5695 N   0  0  0  0  0  0  0  0  0  0  0  0
    0.8584   15.5645   37.1502 C   0  0  0  0  0  0  0  0  0  0  0  0
    0.7342   17.0529   36.6688 C   0  0  2  0  0  0  0  0  0  0  0  0
    1.3284   17.9384   37.6682 N   0  0  0  0  0  0  0  0  0  0  0  0
   -0.7789   17.4915   36.4316 C   0  0  2  0  0  0  0  0  0  0  0  0
   -1.3820   16.5273   35.3694 C   0  0  2  0  0  0  0  0  0  0  0  0
   -2.8019   17.0141   35.1968 O   0  0  0  0  0  0  0  0  0  0  0  0
   -1.3110   14.9922   35.9042 C   0  0  1  0  0  0  0  0  0  0  0  0
   -1.8021   13.9865   34.9611 O   0  0  0  0  0  0  0  0  0  0  0  0
   -3.1869   16.9754   33.8825 C   0  0  1  0  0  0  0  0  0  0  0  0
   -4.1926   15.9438   33.6074 C   0  0  2  0  0  0  0  0  0  0  0  0
   -3.5495   14.7110   33.6632 O   0  0  0  0  0  0  0  0  0  0  0  0
   -4.7813   16.4482   32.2724 C   0  0  2  0  0  0  0  0  0  0  0  0
   -4.5315   15.4171   31.2905 O   0  0  0  0  0  0  0  0  0  0  0  0
   -4.0391   17.7101   31.9785 C   0  0  2  0  0  0  0  0  0  0  0  0
   -3.8289   18.1325   33.3732 O   0  0  0  0  0  0  0  0  0  0  0  0
   -4.9386   18.7550   31.2212 C   0  0  0  0  0  0  0  0  0  0  0  0
   -4.2843   20.0406   31.0016 O   0  0  0  0  0  0  0  0  0  0  0  0
   -5.6435   15.0533   30.4176 C   0  0  2  0  0  0  0  0  0  0  0  0
   -5.3204   13.6186   29.7457 C   0  0  2  0  0  0  0  0  0  0  0  0
   -4.0291   13.7080   28.9900 N   0  0  0  0  0  0  0  0  0  0  0  0
   -6.5508   13.2239   28.7895 C   0  0  1  0  0  0  0  0  0  0  0  0
   -7.7488   13.1736   29.6224 O   0  0  0  0  0  0  0  0  0  0  0  0
   -6.6983   14.3162   27.6365 C   0  0  2  0  0  0  0  0  0  0  0  0
   -5.4567   14.2970   26.8314 O   0  0  0  0  0  0  0  0  0  0  0  0
   -6.9662   15.7641   28.3392 C   0  0  1  0  0  0  0  0  0  0  0  0
   -5.8367   16.0837   29.2862 O   0  0  0  0  0  0  0  0  0  0  0  0
   -7.0989   16.8652   27.2354 C   0  0  0  0  0  0  0  0  0  0  0  0
   -8.2985   16.6709   26.3632 N   0  0  0  0  0  0  0  0  0  0  0  0
  1  3  1  0  0  0  0
  1  2  1  1  0  0  0
  3  4  1  1  0  0  0
  3  5  1  0  0  0  0
  5  6  1  6  0  0  0
  7  8  1  1  0  0  0
  7  5  1  0  0  0  0
  9 11  1  6  0  0  0
  9  7  1  0  0  0  0
 10  9  1  0  0  0  0
 10  1  1  0  0  0  0
 12 11  1  0  0  0  0
 13 14  1  1  0  0  0
 15 13  1  0  0  0  0
 16 17  1  1  0  0  0
 16 15  1  0  0  0  0
 18  2  1  6  0  0  0
 18 19  1  0  0  0  0
 18 16  1  0  0  0  0
 19 20  1  1  0  0  0
 19 21  1  0  0  0  0
 21 22  1  6  0  0  0
 21 13  1  0  0  0  0
 23 20  1  1  0  0  0
 23 29  1  0  0  0  0
 24 25  1  6  0  0  0
 24 26  1  0  0  0  0
 24 23  1  0  0  0  0
 26 27  1  6  0  0  0
 26 28  1  0  0  0  0
 28 30  1  6  0  0  0
 29 28  1  0  0  0  0
 30 31  1  0  0  0  0
 32 27  1  1  0  0  0
 32 40  1  0  0  0  0
 33 35  1  0  0  0  0
 33 32  1  0  0  0  0
 33 34  1  6  0  0  0
 35 36  1  1  0  0  0
 35 37  1  0  0  0  0
 37 38  1  1  0  0  0
 37 39  1  0  0  0  0
 39 41  1  6  0  0  0
 40 39  1  0  0  0  0
 41 42  1  0  0  0  0
M  END
>  <CHROM.1>
-96.59999034,-177.96968879,73.20816256,140.07061328,110.23050791,134.23506389
175.69719367,-162.39848116,65.18470008,-2.71733907,17.31582609,33.05305668
0.35142842,-0.85003192,-0.10424418

>  <Name>
lig.pdb

>  <RI>
0

>  <Rbt.Current_Directory>
/home/itssahil/PROJECTS/Mol_Feturizer/New_Systems/rnas/4wcr

>  <Rbt.Executable>
rbdock ($Id: //depot/dev/client3/rdock/2013.1/src/exe/rbdock.cxx#4 $)

>  <Rbt.Library>
libRbt.so (2013.1, Build901 2013/11/27)

>  <Rbt.Parameter_File>
/export/apps/rDock/src/rDock_2013.1_src/data/scripts/dock_solv.prm

>  <Rbt.Receptor>
prm/blind_docking_100.prm

>  <SCORE>
2.78583

>  <SCORE.INTER>
-6.32833

>  <SCORE.INTER.CONST>
1

>  <SCORE.INTER.POLAR>
0

>  <SCORE.INTER.ROT>
9

>  <SCORE.INTER.SOLV>
36.3869

>  <SCORE.INTER.VDW>
-25.9479

>  <SCORE.INTER.norm>
-0.150675

>  <SCORE.INTRA>
8.27494

>  <SCORE.INTRA.DIHEDRAL>
9.65747

>  <SCORE.INTRA.DIHEDRAL.0>
16.2863

>  <SCORE.INTRA.POLAR>
0

>  <SCORE.INTRA.POLAR.0>
0

>  <SCORE.INTRA.REPUL>
-0.314433

>  <SCORE.INTRA.REPUL.0>
0.314433

>  <SCORE.INTRA.SOLV>
0.666313

>  <SCORE.INTRA.SOLV.lig_0>
-103.824

>  <SCORE.INTRA.VDW>
4.68521

>  <SCORE.INTRA.VDW.0>
-5.30945

>  <SCORE.INTRA.norm>
0.197022

>  <SCORE.RESTR>
0.839229

>  <SCORE.RESTR.CAVITY>
0.839229

>  <SCORE.RESTR.norm>
0.0199817

>  <SCORE.SYSTEM>
0

>  <SCORE.SYSTEM.CONST>
0

>  <SCORE.SYSTEM.DIHEDRAL>
0

>  <SCORE.SYSTEM.SOLV>
0

>  <SCORE.SYSTEM.norm>
0

>  <SCORE.heavy>
42

>  <SCORE.norm>
0.0663294

>  <RMSD>
8.042

$$$$
lig.pdb
 OpenBabel11021811513D
libRbt.so/2013.1/901 2013/11/27
 42 45  0  0  0  0  0  0  0  0999 V2000
   -1.0362   15.3679   35.1583 C   0  0  2  0  0  0  0  0  0  0  0  0
   -2.0522   16.0010   35.9975 O   0  0  0  0  0  0  0  0  0  0  0  0
   -1.1579   13.8008   35.4214 C   0  0  2  0  0  0  0  0  0  0  0  0
   -2.4803   13.3177   35.0143 N   0  0  0  0  0  0  0  0  0  0  0  0
   -0.8575   13.5123   36.9726 C   0  0  1  0  0  0  0  0  0  0  0  0
   -0.9432   12.1019   37.2660 O   0  0  0  0  0  0  0  0  0  0  0  0
    0.5440   14.0695   37.2754 C   0  0  2  0  0  0  0  0  0  0  0  0
    0.8373   13.8391   38.6112 O   0  0  0  0  0  0  0  0  0  0  0  0
    0.5922   15.6301   36.9427 C   0  0  2  0  0  0  0  0  0  0  0  0
    0.2902   15.8777   35.5639 O   0  0  0  0  0  0  0  0  0  0  0  0
    1.9488   16.2206   37.2039 C   0  0  0  0  0  0  0  0  0  0  0  0
    1.9738   17.5225   36.6172 O   0  0  0  0  0  0  0  0  0  0  0  0
   -3.4674   20.1077   36.9486 C   0  0  2  0  0  0  0  0  0  0  0  0
   -3.4611   21.5012   37.3375 N   0  0  0  0  0  0  0  0  0  0  0  0
   -2.7913   19.2270   38.0693 C   0  0  0  0  0  0  0  0  0  0  0  0
   -2.7816   17.7097   37.6691 C   0  0  2  0  0  0  0  0  0  0  0  0
   -2.1420   16.9316   38.7280 N   0  0  0  0  0  0  0  0  0  0  0  0
   -2.0079   17.4459   36.3016 C   0  0  2  0  0  0  0  0  0  0  0  0
   -2.7090   18.2917   35.1994 C   0  0  2  0  0  0  0  0  0  0  0  0
   -1.9273   17.9791   33.9449 O   0  0  0  0  0  0  0  0  0  0  0  0
   -2.6560   19.8707   35.5886 C   0  0  1  0  0  0  0  0  0  0  0  0
   -3.3361   20.7617   34.6475 O   0  0  0  0  0  0  0  0  0  0  0  0
   -2.7581   17.6330   32.9118 C   0  0  1  0  0  0  0  0  0  0  0  0
   -3.4226   16.3415   33.1155 C   0  0  2  0  0  0  0  0  0  0  0  0
   -2.4633   15.3485   32.9411 O   0  0  0  0  0  0  0  0  0  0  0  0
   -4.6053   16.4546   32.1297 C   0  0  2  0  0  0  0  0  0  0  0  0
   -4.4510   15.3856   31.1689 O   0  0  0  0  0  0  0  0  0  0  0  0
   -4.4605   17.8057   31.5107 C   0  0  2  0  0  0  0  0  0  0  0  0
   -3.8684   18.4829   32.6763 O   0  0  0  0  0  0  0  0  0  0  0  0
   -5.8562   18.4413   31.1606 C   0  0  0  0  0  0  0  0  0  0  0  0
   -5.7631   19.6374   30.3301 O   0  0  0  0  0  0  0  0  0  0  0  0
   -5.6226   15.0432   30.3683 C   0  0  2  0  0  0  0  0  0  0  0  0
   -5.3473   13.6290   29.6346 C   0  0  2  0  0  0  0  0  0  0  0  0
   -4.1139   13.7435   28.7907 N   0  0  0  0  0  0  0  0  0  0  0  0
   -6.6430   13.2576   28.7587 C   0  0  1  0  0  0  0  0  0  0  0  0
   -7.7779   13.1803   29.6739 O   0  0  0  0  0  0  0  0  0  0  0  0
   -6.8743   14.3816   27.6507 C   0  0  2  0  0  0  0  0  0  0  0  0
   -5.6939   14.3888   26.7580 O   0  0  0  0  0  0  0  0  0  0  0  0
   -7.0923   15.8083   28.4115 C   0  0  1  0  0  0  0  0  0  0  0  0
   -5.8977   16.1045   29.2834 O   0  0  0  0  0  0  0  0  0  0  0  0
   -7.3052   16.9396   27.3517 C   0  0  0  0  0  0  0  0  0  0  0  0
   -7.7543   18.2293   27.9619 N   0  0  0  0  0  0  0  0  0  0  0  0
  1  3  1  0  0  0  0
  1  2  1  1  0  0  0
  3  4  1  1  0  0  0
  3  5  1  0  0  0  0
  5  6  1  6  0  0  0
  7  8  1  1  0  0  0
  7  5  1  0  0  0  0
  9 11  1  6  0  0  0
  9  7  1  0  0  0  0
 10  9  1  0  0  0  0
 10  1  1  0  0  0  0
 12 11  1  0  0  0  0
 13 14  1  1  0  0  0
 15 13  1  0  0  0  0
 16 17  1  1  0  0  0
 16 15  1  0  0  0  0
 18  2  1  6  0  0  0
 18 19  1  0  0  0  0
 18 16  1  0  0  0  0
 19 20  1  6  0  0  0
 19 21  1  0  0  0  0
 21 22  1  6  0  0  0
 21 13  1  0  0  0  0
 23 20  1  1  0  0  0
 23 29  1  0  0  0  0
 24 25  1  6  0  0  0
 24 26  1  0  0  0  0
 24 23  1  0  0  0  0
 26 27  1  6  0  0  0
 26 28  1  0  0  0  0
 28 30  1  1  0  0  0
 29 28  1  0  0  0  0
 30 31  1  0  0  0  0
 32 27  1  6  0  0  0
 32 40  1  0  0  0  0
 33 35  1  0  0  0  0
 33 32  1  0  0  0  0
 33 34  1  6  0  0  0
 35 36  1  1  0  0  0
 35 37  1  0  0  0  0
 37 38  1  6  0  0  0
 37 39  1  0  0  0  0
 39 41  1  6  0  0  0
 40 39  1  0  0  0  0
 41 42  1  0  0  0  0
M  END
>  <CHROM.1>
163.28057036,167.85824783,-155.20155026,130.07210815,-68.73728813,163.17924268
-169.00462360,-166.69647989,169.68756335,-3.25515557,16.36458734,33.44051147
-0.42288796,0.90642095,-2.71428399

>  <Name>
lig.pdb

>  <RI>
0

>  <Rbt.Current_Directory>
/home/itssahil/PROJECTS/Mol_Feturizer/New_Systems/rnas/4wcr

>  <Rbt.Executable>
rbdock ($Id: //depot/dev/client3/rdock/2013.1/src/exe/rbdock.cxx#4 $)

>  <Rbt.Library>
libRbt.so (2013.1, Build901 2013/11/27)

>  <Rbt.Parameter_File>
/export/apps/rDock/src/rDock_2013.1_src/data/scripts/dock_solv.prm

>  <Rbt.Receptor>
prm/blind_docking_100.prm

>  <SCORE>
-3.19192

>  <SCORE.INTER>
-4.09933

>  <SCORE.INTER.CONST>
1

>  <SCORE.INTER.POLAR>
0

>  <SCORE.INTER.ROT>
9

>  <SCORE.INTER.SOLV>
36.7767

>  <SCORE.INTER.VDW>
-24.5918

>  <SCORE.INTER.norm>
-0.0976032

>  <SCORE.INTRA>
-2.1459

>  <SCORE.INTRA.DIHEDRAL>
-1.42667

>  <SCORE.INTRA.DIHEDRAL.0>
16.2863

>  <SCORE.INTRA.POLAR>
0

>  <SCORE.INTRA.POLAR.0>
0

>  <SCORE.INTRA.REPUL>
-0.314433

>  <SCORE.INTRA.REPUL.0>
0.314433

>  <SCORE.INTRA.SOLV>
-1.19514

>  <SCORE.INTRA.SOLV.lig_0>
-103.824

>  <SCORE.INTRA.VDW>
0.737168

>  <SCORE.INTRA.VDW.0>
-5.30945

>  <SCORE.INTRA.norm>
-0.0510929

>  <SCORE.RESTR>
3.05331

>  <SCORE.RESTR.CAVITY>
3.05331

>  <SCORE.RESTR.norm>
0.0726978

>  <SCORE.SYSTEM>
0

>  <SCORE.SYSTEM.CONST>
0

>  <SCORE.SYSTEM.DIHEDRAL>
0

>  <SCORE.SYSTEM.SOLV>
0

>  <SCORE.SYSTEM.norm>
0

>  <SCORE.heavy>
42

>  <SCORE.norm>
-0.0759982

>  <RMSD>
8.047

$$$$
lig.pdb
 OpenBabel11021811513D
libRbt.so/2013.1/901 2013/11/27
 42 45  0  0  0  0  0  0  0  0999 V2000
   -0.3920   19.4166   35.7881 C   0  0  2  0  0  0  0  0  0  0  0  0
   -0.3106   18.1097   35.1381 O   0  0  0  0  0  0  0  0  0  0  0  0
   -1.8653   19.9579   35.5117 C   0  0  2  0  0  0  0  0  0  0  0  0
   -2.8575   19.0637   36.1147 N   0  0  0  0  0  0  0  0  0  0  0  0
   -2.0706   20.1110   33.9260 C   0  0  1  0  0  0  0  0  0  0  0  0
   -3.3889   20.6105   33.6175 O   0  0  0  0  0  0  0  0  0  0  0  0
   -0.9720   21.0587   33.4149 C   0  0  2  0  0  0  0  0  0  0  0  0
   -1.1176   21.2133   32.0443 O   0  0  0  0  0  0  0  0  0  0  0  0
    0.4667   20.4661   33.7717 C   0  0  2  0  0  0  0  0  0  0  0  0
    0.6259   20.3030   35.1865 O   0  0  0  0  0  0  0  0  0  0  0  0
    1.5775   21.3659   33.3096 C   0  0  0  0  0  0  0  0  0  0  0  0
    2.8125   20.7005   33.5774 O   0  0  0  0  0  0  0  0  0  0  0  0
   -0.4889   13.7696   36.0893 C   0  0  2  0  0  0  0  0  0  0  0  0
   -0.6782   12.5361   36.8212 N   0  0  0  0  0  0  0  0  0  0  0  0
    0.5305   14.7027   36.8501 C   0  0  0  0  0  0  0  0  0  0  0  0
    0.7500   16.0510   36.0778 C   0  0  2  0  0  0  0  0  0  0  0  0
    1.6930   16.8873   36.8177 N   0  0  0  0  0  0  0  0  0  0  0  0
   -0.6052   16.8639   35.8754 C   0  0  2  0  0  0  0  0  0  0  0  0
   -1.5865   15.9451   35.0916 C   0  0  2  0  0  0  0  0  0  0  0  0
   -2.8309   16.7874   34.9346 O   0  0  0  0  0  0  0  0  0  0  0  0
   -1.8620   14.5781   35.9299 C   0  0  1  0  0  0  0  0  0  0  0  0
   -2.7316   13.6087   35.2619 O   0  0  0  0  0  0  0  0  0  0  0  0
   -3.2598   16.8073   33.6335 C   0  0  1  0  0  0  0  0  0  0  0  0
   -4.2077   15.7320   33.3234 C   0  0  2  0  0  0  0  0  0  0  0  0
   -3.4866   14.5426   33.2775 O   0  0  0  0  0  0  0  0  0  0  0  0
   -4.8747   16.2807   32.0438 C   0  0  2  0  0  0  0  0  0  0  0  0
   -4.5959   15.3326   30.9888 O   0  0  0  0  0  0  0  0  0  0  0  0
   -4.2245   17.6044   31.8100 C   0  0  2  0  0  0  0  0  0  0  0  0
   -3.9914   17.9502   33.2221 O   0  0  0  0  0  0  0  0  0  0  0  0
   -5.2148   18.6344   31.1520 C   0  0  0  0  0  0  0  0  0  0  0  0
   -5.6479   18.2555   29.8111 O   0  0  0  0  0  0  0  0  0  0  0  0
   -5.7460   14.7284   30.3231 C   0  0  2  0  0  0  0  0  0  0  0  0
   -5.2414   13.4270   29.5071 C   0  0  2  0  0  0  0  0  0  0  0  0
   -4.1866   13.8394   28.5253 N   0  0  0  0  0  0  0  0  0  0  0  0
   -6.5138   12.7660   28.7804 C   0  0  1  0  0  0  0  0  0  0  0  0
   -7.4735   12.4126   29.8225 O   0  0  0  0  0  0  0  0  0  0  0  0
   -7.1412   13.8126   27.7531 C   0  0  2  0  0  0  0  0  0  0  0  0
   -6.1184   14.1086   26.7252 O   0  0  0  0  0  0  0  0  0  0  0  0
   -7.5900   15.1395   28.5896 C   0  0  1  0  0  0  0  0  0  0  0  0
   -6.3980   15.7036   29.3214 O   0  0  0  0  0  0  0  0  0  0  0  0
   -8.1953   16.1973   27.6081 C   0  0  0  0  0  0  0  0  0  0  0  0
   -7.1908   16.7275   26.6349 N   0  0  0  0  0  0  0  0  0  0  0  0
  1  3  1  0  0  0  0
  1  2  1  6  0  0  0
  3  4  1  6  0  0  0
  3  5  1  0  0  0  0
  5  6  1  1  0  0  0
  7  8  1  6  0  0  0
  7  5  1  0  0  0  0
  9 11  1  1  0  0  0
  9  7  1  0  0  0  0
 10  9  1  0  0  0  0
 10  1  1  0  0  0  0
 12 11  1  0  0  0  0
 13 14  1  1  0  0  0
 15 13  1  0  0  0  0
 16 17  1  1  0  0  0
 16 15  1  0  0  0  0
 18  2  1  6  0  0  0
 18 19  1  0  0  0  0
 18 16  1  0  0  0  0
 19 20  1  1  0  0  0
 19 21  1  0  0  0  0
 21 22  1  6  0  0  0
 21 13  1  0  0  0  0
 23 20  1  1  0  0  0
 23 29  1  0  0  0  0
 24 25  1  6  0  0  0
 24 26  1  0  0  0  0
 24 23  1  0  0  0  0
 26 27  1  6  0  0  0
 26 28  1  0  0  0  0
 28 30  1  1  0  0  0
 29 28  1  0  0  0  0
 30 31  1  0  0  0  0
 32 27  1  6  0  0  0
 32 40  1  0  0  0  0
 33 35  1  0  0  0  0
 33 32  1  0  0  0  0
 33 34  1  6  0  0  0
 35 36  1  1  0  0  0
 35 37  1  0  0  0  0
 37 38  1  6  0  0  0
 37 39  1  0  0  0  0
 39 41  1  6  0  0  0
 40 39  1  0  0  0  0
 41 42  1  0  0  0  0
M  END
>  <CHROM.1>
-93.06623365,-175.42756675,-110.15034882,129.83756689,90.16491159,121.07875436
-64.59902109,-163.97788934,-65.52826146,-3.02219037,16.78772710,32.68799926
0.10634617,-0.84905493,-0.37653695

>  <Name>
lig.pdb

>  <RI>
0

>  <Rbt.Current_Directory>
/home/itssahil/PROJECTS/Mol_Feturizer/New_Systems/rnas/4wcr

>  <Rbt.Executable>
rbdock ($Id: //depot/dev/client3/rdock/2013.1/src/exe/rbdock.cxx#4 $)

>  <Rbt.Library>
libRbt.so (2013.1, Build901 2013/11/27)

>  <Rbt.Parameter_File>
/export/apps/rDock/src/rDock_2013.1_src/data/scripts/dock_solv.prm

>  <Rbt.Receptor>
prm/blind_docking_100.prm

>  <SCORE>
3.52553

>  <SCORE.INTER>
-6.54797

>  <SCORE.INTER.CONST>
1

>  <SCORE.INTER.POLAR>
0

>  <SCORE.INTER.ROT>
9

>  <SCORE.INTER.SOLV>
34.2049

>  <SCORE.INTER.VDW>
-25.3669

>  <SCORE.INTER.norm>
-0.155904

>  <SCORE.INTRA>
6.89417

>  <SCORE.INTRA.DIHEDRAL>
13.9511

>  <SCORE.INTRA.DIHEDRAL.0>
16.2863

>  <SCORE.INTRA.POLAR>
0

>  <SCORE.INTRA.POLAR.0>
0

>  <SCORE.INTRA.REPUL>
-0.314433

>  <SCORE.INTRA.REPUL.0>
0.314433

>  <SCORE.INTRA.SOLV>
1.75124

>  <SCORE.INTRA.SOLV.lig_0>
-103.824

>  <SCORE.INTRA.VDW>
0.61515

>  <SCORE.INTRA.VDW.0>
-5.30945

>  <SCORE.INTRA.norm>
0.164147

>  <SCORE.RESTR>
3.17933

>  <SCORE.RESTR.CAVITY>
3.17933

>  <SCORE.RESTR.norm>
0.0756984

>  <SCORE.SYSTEM>
0

>  <SCORE.SYSTEM.CONST>
0

>  <SCORE.SYSTEM.DIHEDRAL>
0

>  <SCORE.SYSTEM.SOLV>
0

>  <SCORE.SYSTEM.norm>
0

>  <SCORE.heavy>
42

>  <SCORE.norm>
0.0839411

>  <RMSD>
8.069

$$$$
lig.pdb
 OpenBabel11021811513D
libRbt.so/2013.1/901 2013/11/27
 42 45  0  0  0  0  0  0  0  0999 V2000
   -3.4572    8.7935   36.1162 C   0  0  2  0  0  0  0  0  0  0  0  0
   -4.2459    9.9001   35.5771 O   0  0  0  0  0  0  0  0  0  0  0  0
   -1.9845    9.3630   36.3322 C   0  0  2  0  0  0  0  0  0  0  0  0
   -1.9998   10.4564   37.3079 N   0  0  0  0  0  0  0  0  0  0  0  0
   -1.3958    9.8259   34.9113 C   0  0  1  0  0  0  0  0  0  0  0  0
   -0.0548   10.3417   35.0463 O   0  0  0  0  0  0  0  0  0  0  0  0
   -1.4407    8.6021   33.9803 C   0  0  2  0  0  0  0  0  0  0  0  0
   -0.9399    8.9663   32.7393 O   0  0  0  0  0  0  0  0  0  0  0  0
   -2.9402    8.0687   33.8553 C   0  0  2  0  0  0  0  0  0  0  0  0
   -3.4659    7.6899   35.1334 O   0  0  0  0  0  0  0  0  0  0  0  0
   -3.0363    6.8591   32.9694 C   0  0  0  0  0  0  0  0  0  0  0  0
   -2.6683    7.2600   31.6490 O   0  0  0  0  0  0  0  0  0  0  0  0
   -7.0458   12.6200   37.7067 C   0  0  2  0  0  0  0  0  0  0  0  0
   -7.5491   13.6275   38.6148 N   0  0  0  0  0  0  0  0  0  0  0  0
   -6.2650   11.5073   38.5073 C   0  0  0  0  0  0  0  0  0  0  0  0
   -5.7044   10.4033   37.5433 C   0  0  2  0  0  0  0  0  0  0  0  0
   -4.9837    9.3982   38.3219 N   0  0  0  0  0  0  0  0  0  0  0  0
   -4.7199   11.0001   36.4419 C   0  0  2  0  0  0  0  0  0  0  0  0
   -5.5150   12.0684   35.6367 C   0  0  2  0  0  0  0  0  0  0  0  0
   -4.5213   12.5727   34.6164 O   0  0  0  0  0  0  0  0  0  0  0  0
   -6.0359   13.2449   36.6326 C   0  0  1  0  0  0  0  0  0  0  0  0
   -6.8467   14.2818   35.9924 O   0  0  0  0  0  0  0  0  0  0  0  0
   -3.7247   13.5573   35.1392 C   0  0  1  0  0  0  0  0  0  0  0  0
   -2.5490   13.8465   34.3115 C   0  0  2  0  0  0  0  0  0  0  0  0
   -1.6672   12.7795   34.4549 O   0  0  0  0  0  0  0  0  0  0  0  0
   -2.1567   15.2474   34.8280 C   0  0  2  0  0  0  0  0  0  0  0  0
   -0.8232   15.1322   35.3741 O   0  0  0  0  0  0  0  0  0  0  0  0
   -3.1759   15.5712   35.8702 C   0  0  2  0  0  0  0  0  0  0  0  0
   -4.3032   14.8462   35.2607 O   0  0  0  0  0  0  0  0  0  0  0  0
   -3.4849   17.1125   35.9273 C   0  0  0  0  0  0  0  0  0  0  0  0
   -2.3093   17.9359   36.1902 O   0  0  0  0  0  0  0  0  0  0  0  0
   -0.4657   16.0585   36.4443 C   0  0  2  0  0  0  0  0  0  0  0  0
    1.1066   15.8781   36.7751 C   0  0  2  0  0  0  0  0  0  0  0  0
    1.3681   14.4544   37.1643 N   0  0  0  0  0  0  0  0  0  0  0  0
    1.4928   16.9037   37.9512 C   0  0  1  0  0  0  0  0  0  0  0  0
    1.1921   18.2488   37.4699 O   0  0  0  0  0  0  0  0  0  0  0  0
    0.6439   16.5578   39.2567 C   0  0  2  0  0  0  0  0  0  0  0  0
    1.0129   15.1914   39.6892 O   0  0  0  0  0  0  0  0  0  0  0  0
   -0.9389   16.6902   38.8838 C   0  0  1  0  0  0  0  0  0  0  0  0
   -1.2658   15.7733   37.7318 O   0  0  0  0  0  0  0  0  0  0  0  0
   -1.8037   16.3399   40.1400 C   0  0  0  0  0  0  0  0  0  0  0  0
   -1.9719   17.4991   41.0702 N   0  0  0  0  0  0  0  0  0  0  0  0
  1  3  1  0  0  0  0
  1  2  1  6  0  0  0
  3  4  1  1  0  0  0
  3  5  1  0  0  0  0
  5  6  1  1  0  0  0
  7  8  1  6  0  0  0
  7  5  1  0  0  0  0
  9 11  1  6  0  0  0
  9  7  1  0  0  0  0
 10  9  1  0  0  0  0
 10  1  1  0  0  0  0
 12 11  1  0  0  0  0
 13 14  1  1  0  0  0
 15 13  1  0  0  0  0
 16 17  1  1  0  0  0
 16 15  1  0  0  0  0
 18  2  1  6  0  0  0
 18 19  1  0  0  0  0
 18 16  1  0  0  0  0
 19 20  1  6  0  0  0
 19 21  1  0  0  0  0
 21 22  1  6  0  0  0
 21 13  1  0  0  0  0
 23 20  1  6  0  0  0
 23 29  1  0  0  0  0
 24 25  1  1  0  0  0
 24 26  1  0  0  0  0
 24 23  1  0  0  0  0
 26 27  1  1  0  0  0
 26 28  1  0  0  0  0
 28 30  1  6  0  0  0
 29 28  1  0  0  0  0
 30 31  1  0  0  0  0
 32 27  1  6  0  0  0
 32 40  1  0  0  0  0
 33 35  1  0  0  0  0
 33 32  1  0  0  0  0
 33 34  1  1  0  0  0
 35 36  1  6  0  0  0
 35 37  1  0  0  0  0
 37 38  1  6  0  0  0
 37 39  1  0  0  0  0
 39 41  1  1  0  0  0
 40 39  1  0  0  0  0
 41 42  1  0  0  0  0
M  END
>  <CHROM.1>
-76.33679927,-64.74298926,-62.41727642,-84.31084434,166.01032457,-151.83313110
-57.96684916,-173.13666409,83.39126735,-2.61455942,12.91822038,36.28686195
1.88641670,-0.23434553,-2.66190431

>  <Name>
lig.pdb

>  <RI>
0

>  <Rbt.Current_Directory>
/home/itssahil/PROJECTS/Mol_Feturizer/New_Systems/rnas/4wcr

>  <Rbt.Executable>
rbdock ($Id: //depot/dev/client3/rdock/2013.1/src/exe/rbdock.cxx#4 $)

>  <Rbt.Library>
libRbt.so (2013.1, Build901 2013/11/27)

>  <Rbt.Parameter_File>
/export/apps/rDock/src/rDock_2013.1_src/data/scripts/dock_solv.prm

>  <Rbt.Receptor>
prm/pocket_docking_4.prm

>  <SCORE>
0.921093

>  <SCORE.INTER>
0.230712

>  <SCORE.INTER.CONST>
1

>  <SCORE.INTER.POLAR>
0

>  <SCORE.INTER.ROT>
9

>  <SCORE.INTER.SOLV>
16.3844

>  <SCORE.INTER.VDW>
-14.9077

>  <SCORE.INTER.norm>
0.00549315

>  <SCORE.INTRA>
0.69038

>  <SCORE.INTRA.DIHEDRAL>
-5.79735

>  <SCORE.INTRA.DIHEDRAL.0>
16.2863

>  <SCORE.INTRA.POLAR>
0

>  <SCORE.INTRA.POLAR.0>
0

>  <SCORE.INTRA.REPUL>
-0.314433

>  <SCORE.INTRA.REPUL.0>
0.314433

>  <SCORE.INTRA.SOLV>
1.00793

>  <SCORE.INTRA.SOLV.lig_0>
-103.824

>  <SCORE.INTRA.VDW>
4.65726

>  <SCORE.INTRA.VDW.0>
-5.30945

>  <SCORE.INTRA.norm>
0.0164376

>  <SCORE.RESTR>
0

>  <SCORE.RESTR.CAVITY>
0

>  <SCORE.RESTR.norm>
0

>  <SCORE.SYSTEM>
0

>  <SCORE.SYSTEM.CONST>
0

>  <SCORE.SYSTEM.DIHEDRAL>
0

>  <SCORE.SYSTEM.SOLV>
0

>  <SCORE.SYSTEM.norm>
0

>  <SCORE.heavy>
42

>  <SCORE.norm>
0.0219308

>  <RMSD>
8.094

$$$$
lig.pdb
 OpenBabel11021811513D
libRbt.so/2013.1/901 2013/11/27
 42 45  0  0  0  0  0  0  0  0999 V2000
   -2.3623   19.6723   35.0660 C   0  0  2  0  0  0  0  0  0  0  0  0
   -1.1362   19.3622   35.7992 O   0  0  0  0  0  0  0  0  0  0  0  0
   -1.9002   20.2486   33.6537 C   0  0  2  0  0  0  0  0  0  0  0  0
   -1.1458   19.2342   32.9124 N   0  0  0  0  0  0  0  0  0  0  0  0
   -1.0435   21.5853   33.8963 C   0  0  1  0  0  0  0  0  0  0  0  0
   -0.6070   22.1583   32.6457 O   0  0  0  0  0  0  0  0  0  0  0  0
   -1.9350   22.5597   34.6850 C   0  0  2  0  0  0  0  0  0  0  0  0
   -1.2248   23.7286   34.9151 O   0  0  0  0  0  0  0  0  0  0  0  0
   -2.3892   21.8891   36.0607 C   0  0  2  0  0  0  0  0  0  0  0  0
   -3.1241   20.6802   35.8325 O   0  0  0  0  0  0  0  0  0  0  0  0
   -3.2800   22.7951   36.8625 C   0  0  0  0  0  0  0  0  0  0  0  0
   -4.2826   23.3050   35.9824 O   0  0  0  0  0  0  0  0  0  0  0  0
    0.3388   15.1725   36.0064 C   0  0  2  0  0  0  0  0  0  0  0  0
    0.6880   13.8692   36.5286 N   0  0  0  0  0  0  0  0  0  0  0  0
    1.0547   16.3030   36.8419 C   0  0  0  0  0  0  0  0  0  0  0  0
    0.6883   17.7285   36.2975 C   0  0  2  0  0  0  0  0  0  0  0  0
    1.3644   18.7446   37.1013 N   0  0  0  0  0  0  0  0  0  0  0  0
   -0.8798   18.0085   36.3320 C   0  0  2  0  0  0  0  0  0  0  0  0
   -1.5682   16.9081   35.4736 C   0  0  2  0  0  0  0  0  0  0  0  0
   -3.0379   17.2496   35.5501 O   0  0  0  0  0  0  0  0  0  0  0  0
   -1.2387   15.4361   36.0837 C   0  0  1  0  0  0  0  0  0  0  0  0
   -1.7911   14.3145   35.3226 O   0  0  0  0  0  0  0  0  0  0  0  0
   -3.7052   16.8393   34.4259 C   0  0  1  0  0  0  0  0  0  0  0  0
   -3.5444   17.7577   33.2937 C   0  0  2  0  0  0  0  0  0  0  0  0
   -4.2989   18.8940   33.5699 O   0  0  0  0  0  0  0  0  0  0  0  0
   -3.9290   16.8440   32.1103 C   0  0  2  0  0  0  0  0  0  0  0  0
   -5.0817   17.4443   31.4775 O   0  0  0  0  0  0  0  0  0  0  0  0
   -4.2408   15.5225   32.7317 C   0  0  2  0  0  0  0  0  0  0  0  0
   -3.2877   15.6125   33.8504 O   0  0  0  0  0  0  0  0  0  0  0  0
   -3.8593   14.3261   31.7844 C   0  0  0  0  0  0  0  0  0  0  0  0
   -4.2850   13.0236   32.2857 O   0  0  0  0  0  0  0  0  0  0  0  0
   -5.4130   16.9812   30.1333 C   0  0  2  0  0  0  0  0  0  0  0  0
   -6.6278   17.8838   29.5644 C   0  0  2  0  0  0  0  0  0  0  0  0
   -7.7997   17.7744   30.4926 N   0  0  0  0  0  0  0  0  0  0  0  0
   -6.9837   17.3701   28.0834 C   0  0  1  0  0  0  0  0  0  0  0  0
   -5.7778   17.5133   27.2730 O   0  0  0  0  0  0  0  0  0  0  0  0
   -7.4541   15.8473   28.1488 C   0  0  2  0  0  0  0  0  0  0  0  0
   -8.6827   15.7866   28.9716 O   0  0  0  0  0  0  0  0  0  0  0  0
   -6.2348   14.9651   28.7789 C   0  0  1  0  0  0  0  0  0  0  0  0
   -5.8676   15.5072   30.1376 O   0  0  0  0  0  0  0  0  0  0  0  0
   -6.6690   13.4648   28.8742 C   0  0  0  0  0  0  0  0  0  0  0  0
   -5.5814   12.5778   29.3916 N   0  0  0  0  0  0  0  0  0  0  0  0
  1  3  1  0  0  0  0
  1  2  1  1  0  0  0
  3  4  1  1  0  0  0
  3  5  1  0  0  0  0
  5  6  1  6  0  0  0
  7  8  1  1  0  0  0
  7  5  1  0  0  0  0
  9 11  1  6  0  0  0
  9  7  1  0  0  0  0
 10  9  1  0  0  0  0
 10  1  1  0  0  0  0
 12 11  1  0  0  0  0
 13 14  1  1  0  0  0
 15 13  1  0  0  0  0
 16 17  1  1  0  0  0
 16 15  1  0  0  0  0
 18  2  1  6  0  0  0
 18 19  1  0  0  0  0
 18 16  1  0  0  0  0
 19 20  1  1  0  0  0
 19 21  1  0  0  0  0
 21 22  1  6  0  0  0
 21 13  1  0  0  0  0
 23 20  1  1  0  0  0
 23 29  1  0  0  0  0
 24 25  1  1  0  0  0
 24 26  1  0  0  0  0
 24 23  1  0  0  0  0
 26 27  1  1  0  0  0
 26 28  1  0  0  0  0
 28 30  1  6  0  0  0
 29 28  1  0  0  0  0
 30 31  1  0  0  0  0
 32 27  1  1  0  0  0
 32 40  1  0  0  0  0
 33 35  1  0  0  0  0
 33 32  1  0  0  0  0
 33 34  1  1  0  0  0
 35 36  1  6  0  0  0
 35 37  1  0  0  0  0
 37 38  1  1  0  0  0
 37 39  1  0  0  0  0
 39 41  1  1  0  0  0
 40 39  1  0  0  0  0
 41 42  1  0  0  0  0
M  END
>  <CHROM.1>
-123.77354269,47.67504936,147.76081965,151.16388094,-80.10325334,163.71583386
-173.42134480,-174.23326243,177.62482750,-3.31384357,17.70568114,33.21547264
0.58320741,-0.82784327,0.12964209

>  <Name>
lig.pdb

>  <RI>
0

>  <Rbt.Current_Directory>
/home/itssahil/PROJECTS/Mol_Feturizer/New_Systems/rnas/4wcr

>  <Rbt.Executable>
rbdock ($Id: //depot/dev/client3/rdock/2013.1/src/exe/rbdock.cxx#4 $)

>  <Rbt.Library>
libRbt.so (2013.1, Build901 2013/11/27)

>  <Rbt.Parameter_File>
/export/apps/rDock/src/rDock_2013.1_src/data/scripts/dock_solv.prm

>  <Rbt.Receptor>
prm/blind_docking_100.prm

>  <SCORE>
12.7891

>  <SCORE.INTER>
3.81224

>  <SCORE.INTER.CONST>
1

>  <SCORE.INTER.POLAR>
0

>  <SCORE.INTER.ROT>
9

>  <SCORE.INTER.SOLV>
39.9852

>  <SCORE.INTER.VDW>
-20.3869

>  <SCORE.INTER.norm>
0.0907676

>  <SCORE.INTRA>
6.1349

>  <SCORE.INTRA.DIHEDRAL>
2.59497

>  <SCORE.INTRA.DIHEDRAL.0>
16.2863

>  <SCORE.INTRA.POLAR>
0

>  <SCORE.INTRA.POLAR.0>
0

>  <SCORE.INTRA.REPUL>
-0.314433

>  <SCORE.INTRA.REPUL.0>
0.314433

>  <SCORE.INTRA.SOLV>
1.06992

>  <SCORE.INTRA.SOLV.lig_0>
-103.824

>  <SCORE.INTRA.VDW>
5.87462

>  <SCORE.INTRA.VDW.0>
-5.30945

>  <SCORE.INTRA.norm>
0.146069

>  <SCORE.RESTR>
2.84193

>  <SCORE.RESTR.CAVITY>
2.84193

>  <SCORE.RESTR.norm>
0.067665

>  <SCORE.SYSTEM>
0

>  <SCORE.SYSTEM.CONST>
0

>  <SCORE.SYSTEM.DIHEDRAL>
0

>  <SCORE.SYSTEM.SOLV>
0

>  <SCORE.SYSTEM.norm>
0

>  <SCORE.heavy>
42

>  <SCORE.norm>
0.304502

>  <RMSD>
8.139

$$$$
lig.pdb
 OpenBabel11021811513D
libRbt.so/2013.1/901 2013/11/27
 42 45  0  0  0  0  0  0  0  0999 V2000
    1.0879   21.0322   33.6209 C   0  0  2  0  0  0  0  0  0  0  0  0
    0.0137   20.4912   34.4519 O   0  0  0  0  0  0  0  0  0  0  0  0
    1.9412   21.9891   34.5675 C   0  0  2  0  0  0  0  0  0  0  0  0
    2.5311   21.2218   35.6680 N   0  0  0  0  0  0  0  0  0  0  0  0
    0.9936   23.1744   35.0937 C   0  0  1  0  0  0  0  0  0  0  0  0
    1.7202   24.0809   35.9498 O   0  0  0  0  0  0  0  0  0  0  0  0
    0.4334   23.8927   33.8541 C   0  0  2  0  0  0  0  0  0  0  0  0
   -0.3938   24.9247   34.2715 O   0  0  0  0  0  0  0  0  0  0  0  0
   -0.3659   22.8563   32.9400 C   0  0  2  0  0  0  0  0  0  0  0  0
    0.4814   21.7860   32.5039 O   0  0  0  0  0  0  0  0  0  0  0  0
   -0.9189   23.5053   31.7030 C   0  0  0  0  0  0  0  0  0  0  0  0
   -1.9348   24.4216   32.1129 O   0  0  0  0  0  0  0  0  0  0  0  0
   -2.9029   17.1397   34.6358 C   0  0  2  0  0  0  0  0  0  0  0  0
   -3.6737   15.9747   34.2595 N   0  0  0  0  0  0  0  0  0  0  0  0
   -3.0767   18.2785   33.5579 C   0  0  0  0  0  0  0  0  0  0  0  0
   -2.2459   19.5534   33.9411 C   0  0  2  0  0  0  0  0  0  0  0  0
   -2.4282   20.5789   32.9159 N   0  0  0  0  0  0  0  0  0  0  0  0
   -0.6895   19.2448   34.0852 C   0  0  2  0  0  0  0  0  0  0  0  0
   -0.5316   18.1477   35.1774 C   0  0  2  0  0  0  0  0  0  0  0  0
    0.9603   17.9230   35.2581 O   0  0  0  0  0  0  0  0  0  0  0  0
   -1.3406   16.8050   34.7416 C   0  0  1  0  0  0  0  0  0  0  0  0
   -1.3088   15.7192   35.7225 O   0  0  0  0  0  0  0  0  0  0  0  0
    1.2903   17.1421   36.3345 C   0  0  1  0  0  0  0  0  0  0  0  0
    0.5644   17.5081   37.5553 C   0  0  2  0  0  0  0  0  0  0  0  0
    1.0968   18.7106   38.0106 O   0  0  0  0  0  0  0  0  0  0  0  0
    0.7267   16.2238   38.3964 C   0  0  2  0  0  0  0  0  0  0  0  0
    1.4415   16.5984   39.5957 O   0  0  0  0  0  0  0  0  0  0  0  0
    1.5109   15.2944   37.5297 C   0  0  2  0  0  0  0  0  0  0  0  0
    0.9878   15.7604   36.2347 O   0  0  0  0  0  0  0  0  0  0  0  0
    1.1113   13.7923   37.7714 C   0  0  0  0  0  0  0  0  0  0  0  0
    1.8098   12.8532   36.8999 O   0  0  0  0  0  0  0  0  0  0  0  0
    0.7178   17.4106   40.5692 C   0  0  2  0  0  0  0  0  0  0  0  0
    1.6678   17.6346   41.8581 C   0  0  2  0  0  0  0  0  0  0  0  0
    2.0517   16.3013   42.4251 N   0  0  0  0  0  0  0  0  0  0  0  0
    0.8653   18.5324   42.9230 C   0  0  1  0  0  0  0  0  0  0  0  0
    0.5375   19.7947   42.2666 O   0  0  0  0  0  0  0  0  0  0  0  0
   -0.4552   17.7621   43.3782 C   0  0  2  0  0  0  0  0  0  0  0  0
   -0.0416   16.5067   44.0439 O   0  0  0  0  0  0  0  0  0  0  0  0
   -1.3707   17.4961   42.0542 C   0  0  1  0  0  0  0  0  0  0  0  0
   -0.5761   16.7142   41.0383 O   0  0  0  0  0  0  0  0  0  0  0  0
   -2.6696   16.7247   42.4622 C   0  0  0  0  0  0  0  0  0  0  0  0
   -3.5723   16.4533   41.3008 N   0  0  0  0  0  0  0  0  0  0  0  0
  1  3  1  0  0  0  0
  1  2  1  1  0  0  0
  3  4  1  1  0  0  0
  3  5  1  0  0  0  0
  5  6  1  1  0  0  0
  7  8  1  1  0  0  0
  7  5  1  0  0  0  0
  9 11  1  6  0  0  0
  9  7  1  0  0  0  0
 10  9  1  0  0  0  0
 10  1  1  0  0  0  0
 12 11  1  0  0  0  0
 13 14  1  6  0  0  0
 15 13  1  0  0  0  0
 16 17  1  6  0  0  0
 16 15  1  0  0  0  0
 18  2  1  1  0  0  0
 18 19  1  0  0  0  0
 18 16  1  0  0  0  0
 19 20  1  6  0  0  0
 19 21  1  0  0  0  0
 21 22  1  1  0  0  0
 21 13  1  0  0  0  0
 23 20  1  6  0  0  0
 23 29  1  0  0  0  0
 24 25  1  1  0  0  0
 24 26  1  0  0  0  0
 24 23  1  0  0  0  0
 26 27  1  1  0  0  0
 26 28  1  0  0  0  0
 28 30  1  1  0  0  0
 29 28  1  0  0  0  0
 30 31  1  0  0  0  0
 32 27  1  6  0  0  0
 32 40  1  0  0  0  0
 33 35  1  0  0  0  0
 33 32  1  0  0  0  0
 33 34  1  1  0  0  0
 35 36  1  6  0  0  0
 35 37  1  0  0  0  0
 37 38  1  6  0  0  0
 37 39  1  0  0  0  0
 39 41  1  1  0  0  0
 40 39  1  0  0  0  0
 41 42  1  0  0  0  0
M  END
>  <CHROM.1>
-158.72072635,-67.49165237,-121.82870734,169.85211953,-43.19138251,70.70928149
177.31261492,176.65679462,179.43021849,-0.08003252,18.76892009,36.99319482
-1.78877625,1.32549397,2.41400467

>  <Name>
lig.pdb

>  <RI>
0

>  <Rbt.Current_Directory>
/home/itssahil/PROJECTS/Mol_Feturizer/New_Systems/rnas/4wcr

>  <Rbt.Executable>
rbdock ($Id: //depot/dev/client3/rdock/2013.1/src/exe/rbdock.cxx#4 $)

>  <Rbt.Library>
libRbt.so (2013.1, Build901 2013/11/27)

>  <Rbt.Parameter_File>
/export/apps/rDock/src/rDock_2013.1_src/data/scripts/dock_solv.prm

>  <Rbt.Receptor>
prm/pocket_docking_7.prm

>  <SCORE>
-11.3255

>  <SCORE.INTER>
-11.1159

>  <SCORE.INTER.CONST>
1

>  <SCORE.INTER.POLAR>
0

>  <SCORE.INTER.ROT>
9

>  <SCORE.INTER.SOLV>
24.8237

>  <SCORE.INTER.VDW>
-25.2852

>  <SCORE.INTER.norm>
-0.264665

>  <SCORE.INTRA>
-0.209579

>  <SCORE.INTRA.DIHEDRAL>
-3.94259

>  <SCORE.INTRA.DIHEDRAL.0>
16.2863

>  <SCORE.INTRA.POLAR>
0

>  <SCORE.INTRA.POLAR.0>
0

>  <SCORE.INTRA.REPUL>
-0.295549

>  <SCORE.INTRA.REPUL.0>
0.314433

>  <SCORE.INTRA.SOLV>
-1.40938

>  <SCORE.INTRA.SOLV.lig_0>
-103.824

>  <SCORE.INTRA.VDW>
3.94415

>  <SCORE.INTRA.VDW.0>
-5.30945

>  <SCORE.INTRA.norm>
-0.00498999

>  <SCORE.RESTR>
0

>  <SCORE.RESTR.CAVITY>
0

>  <SCORE.RESTR.norm>
0

>  <SCORE.SYSTEM>
0

>  <SCORE.SYSTEM.CONST>
0

>  <SCORE.SYSTEM.DIHEDRAL>
0

>  <SCORE.SYSTEM.SOLV>
0

>  <SCORE.SYSTEM.norm>
0

>  <SCORE.heavy>
42

>  <SCORE.norm>
-0.269655

>  <RMSD>
8.162

$$$$
lig.pdb
 OpenBabel11021811513D
libRbt.so/2013.1/901 2013/11/27
 42 45  0  0  0  0  0  0  0  0999 V2000
    0.0696   18.9883   36.6586 C   0  0  2  0  0  0  0  0  0  0  0  0
    0.1771   19.1715   35.2122 O   0  0  0  0  0  0  0  0  0  0  0  0
    0.8572   17.6441   36.9946 C   0  0  2  0  0  0  0  0  0  0  0  0
    2.2716   17.7797   36.6357 N   0  0  0  0  0  0  0  0  0  0  0  0
    0.1500   16.4246   36.2249 C   0  0  1  0  0  0  0  0  0  0  0  0
    0.8177   15.1759   36.5033 O   0  0  0  0  0  0  0  0  0  0  0  0
   -1.3202   16.3935   36.6767 C   0  0  2  0  0  0  0  0  0  0  0  0
   -1.9647   15.3503   36.0286 O   0  0  0  0  0  0  0  0  0  0  0  0
   -2.0205   17.7893   36.3452 C   0  0  2  0  0  0  0  0  0  0  0  0
   -1.3608   18.8734   37.0110 O   0  0  0  0  0  0  0  0  0  0  0  0
   -3.4568   17.8179   36.7850 C   0  0  0  0  0  0  0  0  0  0  0  0
   -3.4709   17.8748   38.2120 O   0  0  0  0  0  0  0  0  0  0  0  0
   -2.8960   22.2857   34.4182 C   0  0  2  0  0  0  0  0  0  0  0  0
   -3.5869   23.4026   33.8115 N   0  0  0  0  0  0  0  0  0  0  0  0
   -1.4316   22.7082   34.8257 C   0  0  0  0  0  0  0  0  0  0  0  0
   -0.6584   21.5113   35.4829 C   0  0  2  0  0  0  0  0  0  0  0  0
    0.6924   21.9414   35.8381 N   0  0  0  0  0  0  0  0  0  0  0  0
   -0.5560   20.2489   34.5164 C   0  0  2  0  0  0  0  0  0  0  0  0
   -2.0076   19.8213   34.1537 C   0  0  2  0  0  0  0  0  0  0  0  0
   -1.8222   18.6236   33.2515 O   0  0  0  0  0  0  0  0  0  0  0  0
   -2.7817   21.0453   33.4120 C   0  0  1  0  0  0  0  0  0  0  0  0
   -4.1795   20.7758   33.0717 O   0  0  0  0  0  0  0  0  0  0  0  0
   -2.8876   17.7661   33.3343 C   0  0  1  0  0  0  0  0  0  0  0  0
   -3.3487   17.2929   32.0249 C   0  0  2  0  0  0  0  0  0  0  0  0
   -3.9964   18.3563   31.4031 O   0  0  0  0  0  0  0  0  0  0  0  0
   -4.1441   16.0319   32.4255 C   0  0  2  0  0  0  0  0  0  0  0  0
   -5.5091   16.2477   32.0015 O   0  0  0  0  0  0  0  0  0  0  0  0
   -4.0121   15.9511   33.9107 C   0  0  2  0  0  0  0  0  0  0  0  0
   -2.6664   16.5399   34.0111 O   0  0  0  0  0  0  0  0  0  0  0  0
   -3.9955   14.4616   34.4162 C   0  0  0  0  0  0  0  0  0  0  0  0
   -2.8163   13.7131   33.9939 O   0  0  0  0  0  0  0  0  0  0  0  0
   -5.7418   16.3793   30.5664 C   0  0  2  0  0  0  0  0  0  0  0  0
   -6.7238   17.6398   30.3193 C   0  0  2  0  0  0  0  0  0  0  0  0
   -8.0026   17.4229   31.0704 N   0  0  0  0  0  0  0  0  0  0  0  0
   -6.9718   17.7800   28.7373 C   0  0  1  0  0  0  0  0  0  0  0  0
   -5.6685   17.9782   28.1097 O   0  0  0  0  0  0  0  0  0  0  0  0
   -7.6767   16.4572   28.1915 C   0  0  2  0  0  0  0  0  0  0  0  0
   -8.9909   16.3340   28.8608 O   0  0  0  0  0  0  0  0  0  0  0  0
   -6.6946   15.1922   28.5031 C   0  0  1  0  0  0  0  0  0  0  0  0
   -6.4162   15.1204   29.9837 O   0  0  0  0  0  0  0  0  0  0  0  0
   -7.3642   13.8721   27.9955 C   0  0  0  0  0  0  0  0  0  0  0  0
   -6.6131   12.6455   28.4059 N   0  0  0  0  0  0  0  0  0  0  0  0
  1  3  1  0  0  0  0
  1  2  1  6  0  0  0
  3  4  1  6  0  0  0
  3  5  1  0  0  0  0
  5  6  1  1  0  0  0
  7  8  1  6  0  0  0
  7  5  1  0  0  0  0
  9 11  1  1  0  0  0
  9  7  1  0  0  0  0
 10  9  1  0  0  0  0
 10  1  1  0  0  0  0
 12 11  1  0  0  0  0
 13 14  1  6  0  0  0
 15 13  1  0  0  0  0
 16 17  1  6  0  0  0
 16 15  1  0  0  0  0
 18  2  1  1  0  0  0
 18 19  1  0  0  0  0
 18 16  1  0  0  0  0
 19 20  1  6  0  0  0
 19 21  1  0  0  0  0
 21 22  1  1  0  0  0
 21 13  1  0  0  0  0
 23 20  1  6  0  0  0
 23 29  1  0  0  0  0
 24 25  1  1  0  0  0
 24 26  1  0  0  0  0
 24 23  1  0  0  0  0
 26 27  1  1  0  0  0
 26 28  1  0  0  0  0
 28 30  1  6  0  0  0
 29 28  1  0  0  0  0
 30 31  1  0  0  0  0
 32 27  1  1  0  0  0
 32 40  1  0  0  0  0
 33 35  1  0  0  0  0
 33 32  1  0  0  0  0
 33 34  1  1  0  0  0
 35 36  1  6  0  0  0
 35 37  1  0  0  0  0
 37 38  1  1  0  0  0
 37 39  1  0  0  0  0
 39 41  1  1  0  0  0
 40 39  1  0  0  0  0
 41 42  1  0  0  0  0
M  END
>  <CHROM.1>
173.59580731,71.39166931,33.36183880,151.62722779,135.15280194,63.79432259
66.58084477,-134.34198821,-172.30738484,-3.31396150,17.69739871,33.34520790
-0.26828175,0.84008374,3.05771835

>  <Name>
lig.pdb

>  <RI>
0

>  <Rbt.Current_Directory>
/home/itssahil/PROJECTS/Mol_Feturizer/New_Systems/rnas/4wcr

>  <Rbt.Executable>
rbdock ($Id: //depot/dev/client3/rdock/2013.1/src/exe/rbdock.cxx#4 $)

>  <Rbt.Library>
libRbt.so (2013.1, Build901 2013/11/27)

>  <Rbt.Parameter_File>
/export/apps/rDock/src/rDock_2013.1_src/data/scripts/dock_solv.prm

>  <Rbt.Receptor>
prm/blind_docking_100.prm

>  <SCORE>
40.0566

>  <SCORE.INTER>
37.408

>  <SCORE.INTER.CONST>
1

>  <SCORE.INTER.POLAR>
0

>  <SCORE.INTER.ROT>
9

>  <SCORE.INTER.SOLV>
42.961

>  <SCORE.INTER.VDW>
1.01833

>  <SCORE.INTER.norm>
0.890667

>  <SCORE.INTRA>
0.986971

>  <SCORE.INTRA.DIHEDRAL>
3.86465

>  <SCORE.INTRA.DIHEDRAL.0>
16.2863

>  <SCORE.INTRA.POLAR>
0

>  <SCORE.INTRA.POLAR.0>
0

>  <SCORE.INTRA.REPUL>
-0.314433

>  <SCORE.INTRA.REPUL.0>
0.314433

>  <SCORE.INTRA.SOLV>
-2.24352

>  <SCORE.INTRA.SOLV.lig_0>
-103.824

>  <SCORE.INTRA.VDW>
1.74857

>  <SCORE.INTRA.VDW.0>
-5.30945

>  <SCORE.INTRA.norm>
0.0234993

>  <SCORE.RESTR>
1.6616

>  <SCORE.RESTR.CAVITY>
1.6616

>  <SCORE.RESTR.norm>
0.039562

>  <SCORE.SYSTEM>
0

>  <SCORE.SYSTEM.CONST>
0

>  <SCORE.SYSTEM.DIHEDRAL>
0

>  <SCORE.SYSTEM.SOLV>
0

>  <SCORE.SYSTEM.norm>
0

>  <SCORE.heavy>
42

>  <SCORE.norm>
0.953728

>  <RMSD>
8.187

$$$$
lig.pdb
 OpenBabel11021811513D
libRbt.so/2013.1/901 2013/11/27
 42 45  0  0  0  0  0  0  0  0999 V2000
   -4.7611   10.0606   39.9646 C   0  0  2  0  0  0  0  0  0  0  0  0
   -3.8054   11.0481   40.4633 O   0  0  0  0  0  0  0  0  0  0  0  0
   -4.8813   10.3134   38.3957 C   0  0  2  0  0  0  0  0  0  0  0  0
   -3.5869   10.0944   37.7443 N   0  0  0  0  0  0  0  0  0  0  0  0
   -5.4390   11.7999   38.1530 C   0  0  1  0  0  0  0  0  0  0  0  0
   -5.5789   12.0801   36.7442 O   0  0  0  0  0  0  0  0  0  0  0  0
   -6.7863   11.9055   38.8878 C   0  0  2  0  0  0  0  0  0  0  0  0
   -7.2983   13.1809   38.7011 O   0  0  0  0  0  0  0  0  0  0  0  0
   -6.5847   11.5943   40.4405 C   0  0  2  0  0  0  0  0  0  0  0  0
   -6.0559   10.2779   40.6429 O   0  0  0  0  0  0  0  0  0  0  0  0
   -7.8777   11.6658   41.2024 C   0  0  0  0  0  0  0  0  0  0  0  0
   -8.3441   13.0140   41.1367 O   0  0  0  0  0  0  0  0  0  0  0  0
   -0.8456   11.2574   43.7752 C   0  0  2  0  0  0  0  0  0  0  0  0
   -0.2814   11.2648   45.1073 N   0  0  0  0  0  0  0  0  0  0  0  0
   -1.9760   12.3516   43.6571 C   0  0  0  0  0  0  0  0  0  0  0  0
   -2.6080   12.3610   42.2208 C   0  0  2  0  0  0  0  0  0  0  0  0
   -3.6527   13.3808   42.1558 N   0  0  0  0  0  0  0  0  0  0  0  0
   -3.2414   10.9536   41.8254 C   0  0  2  0  0  0  0  0  0  0  0  0
   -2.1067    9.8920   41.9103 C   0  0  2  0  0  0  0  0  0  0  0  0
   -2.7830    8.6003   41.5144 O   0  0  0  0  0  0  0  0  0  0  0  0
   -1.5017    9.8406   43.4198 C   0  0  1  0  0  0  0  0  0  0  0  0
   -0.3856    8.9123   43.6063 O   0  0  0  0  0  0  0  0  0  0  0  0
   -1.8668    7.6441   41.1630 C   0  0  1  0  0  0  0  0  0  0  0  0
   -2.4846    6.4079   40.6717 C   0  0  2  0  0  0  0  0  0  0  0  0
   -3.0413    5.7571   41.7686 O   0  0  0  0  0  0  0  0  0  0  0  0
   -1.3053    5.7663   39.9096 C   0  0  2  0  0  0  0  0  0  0  0  0
   -1.0337    4.4998   40.5514 O   0  0  0  0  0  0  0  0  0  0  0  0
   -0.1797    6.7361   40.0583 C   0  0  2  0  0  0  0  0  0  0  0  0
   -0.9932    7.9628   40.0926 O   0  0  0  0  0  0  0  0  0  0  0  0
    0.7601    6.7393   38.7968 C   0  0  0  0  0  0  0  0  0  0  0  0
    1.4226    5.4615   38.5571 O   0  0  0  0  0  0  0  0  0  0  0  0
   -2.0488    3.4596   40.4155 C   0  0  2  0  0  0  0  0  0  0  0  0
   -1.4583    2.0835   41.0252 C   0  0  2  0  0  0  0  0  0  0  0  0
   -0.1966    1.7246   40.3000 N   0  0  0  0  0  0  0  0  0  0  0  0
   -2.5829    0.9448   40.8751 C   0  0  1  0  0  0  0  0  0  0  0  0
   -3.7611    1.3994   41.6077 O   0  0  0  0  0  0  0  0  0  0  0  0
   -2.9156    0.7281   39.3302 C   0  0  2  0  0  0  0  0  0  0  0  0
   -1.6822    0.2567   38.6619 O   0  0  0  0  0  0  0  0  0  0  0  0
   -3.4547    2.1432   38.7228 C   0  0  1  0  0  0  0  0  0  0  0  0
   -2.4151    3.2147   38.9373 O   0  0  0  0  0  0  0  0  0  0  0  0
   -3.7750    1.9716   37.2008 C   0  0  0  0  0  0  0  0  0  0  0  0
   -2.5625    1.6525   36.3851 N   0  0  0  0  0  0  0  0  0  0  0  0
  1  3  1  0  0  0  0
  1  2  1  1  0  0  0
  3  4  1  6  0  0  0
  3  5  1  0  0  0  0
  5  6  1  6  0  0  0
  7  8  1  1  0  0  0
  7  5  1  0  0  0  0
  9 11  1  1  0  0  0
  9  7  1  0  0  0  0
 10  9  1  0  0  0  0
 10  1  1  0  0  0  0
 12 11  1  0  0  0  0
 13 14  1  1  0  0  0
 15 13  1  0  0  0  0
 16 17  1  1  0  0  0
 16 15  1  0  0  0  0
 18  2  1  6  0  0  0
 18 19  1  0  0  0  0
 18 16  1  0  0  0  0
 19 20  1  1  0  0  0
 19 21  1  0  0  0  0
 21 22  1  6  0  0  0
 21 13  1  0  0  0  0
 23 20  1  6  0  0  0
 23 29  1  0  0  0  0
 24 25  1  1  0  0  0
 24 26  1  0  0  0  0
 24 23  1  0  0  0  0
 26 27  1  1  0  0  0
 26 28  1  0  0  0  0
 28 30  1  6  0  0  0
 29 28  1  0  0  0  0
 30 31  1  0  0  0  0
 32 27  1  6  0  0  0
 32 40  1  0  0  0  0
 33 35  1  0  0  0  0
 33 32  1  0  0  0  0
 33 34  1  6  0  0  0
 35 36  1  1  0  0  0
 35 37  1  0  0  0  0
 37 38  1  6  0  0  0
 37 39  1  0  0  0  0
 39 41  1  6  0  0  0
 40 39  1  0  0  0  0
 41 42  1  0  0  0  0
M  END
>  <CHROM.1>
-167.93249092,-64.27161196,-163.04332548,162.43719761,-175.50929199,68.02567687
-62.54468067,172.32138248,-64.08213738,-3.01144195,7.67024768,40.38300563
1.95073461,-0.64517387,0.37190433

>  <Name>
lig.pdb

>  <RI>
0

>  <Rbt.Current_Directory>
/home/itssahil/PROJECTS/Mol_Feturizer/New_Systems/rnas/4wcr

>  <Rbt.Executable>
rbdock ($Id: //depot/dev/client3/rdock/2013.1/src/exe/rbdock.cxx#4 $)

>  <Rbt.Library>
libRbt.so (2013.1, Build901 2013/11/27)

>  <Rbt.Parameter_File>
/export/apps/rDock/src/rDock_2013.1_src/data/scripts/dock_solv.prm

>  <Rbt.Receptor>
prm/pocket_docking_7.prm

>  <SCORE>
-4.9204

>  <SCORE.INTER>
2.83946

>  <SCORE.INTER.CONST>
1

>  <SCORE.INTER.POLAR>
0

>  <SCORE.INTER.ROT>
9

>  <SCORE.INTER.SOLV>
9.87404

>  <SCORE.INTER.VDW>
-10.9984

>  <SCORE.INTER.norm>
0.0676061

>  <SCORE.INTRA>
-7.75986

>  <SCORE.INTRA.DIHEDRAL>
-11.4552

>  <SCORE.INTRA.DIHEDRAL.0>
16.2863

>  <SCORE.INTRA.POLAR>
0

>  <SCORE.INTRA.POLAR.0>
0

>  <SCORE.INTRA.REPUL>
-0.314433

>  <SCORE.INTRA.REPUL.0>
0.314433

>  <SCORE.INTRA.SOLV>
-3.37215

>  <SCORE.INTRA.SOLV.lig_0>
-103.824

>  <SCORE.INTRA.VDW>
1.22597

>  <SCORE.INTRA.VDW.0>
-5.30945

>  <SCORE.INTRA.norm>
-0.184759

>  <SCORE.RESTR>
0

>  <SCORE.RESTR.CAVITY>
0

>  <SCORE.RESTR.norm>
0

>  <SCORE.SYSTEM>
0

>  <SCORE.SYSTEM.CONST>
0

>  <SCORE.SYSTEM.DIHEDRAL>
0

>  <SCORE.SYSTEM.SOLV>
0

>  <SCORE.SYSTEM.norm>
0

>  <SCORE.heavy>
42

>  <SCORE.norm>
-0.117152

>  <RMSD>
8.229

$$$$
lig.pdb
 OpenBabel11021811513D
libRbt.so/2013.1/901 2013/11/27
 42 45  0  0  0  0  0  0  0  0999 V2000
    1.0545    7.2679   35.0180 C   0  0  2  0  0  0  0  0  0  0  0  0
   -0.2960    7.7565   34.7450 O   0  0  0  0  0  0  0  0  0  0  0  0
    0.9629    6.4521   36.3841 C   0  0  2  0  0  0  0  0  0  0  0  0
    0.0632    5.3053   36.2325 N   0  0  0  0  0  0  0  0  0  0  0  0
    0.4850    7.4484   37.5498 C   0  0  1  0  0  0  0  0  0  0  0  0
    0.3953    6.7627   38.8164 O   0  0  0  0  0  0  0  0  0  0  0  0
    1.4978    8.6051   37.6026 C   0  0  2  0  0  0  0  0  0  0  0  0
    1.1147    9.4891   38.6003 O   0  0  0  0  0  0  0  0  0  0  0  0
    1.5608    9.3378   36.1857 C   0  0  2  0  0  0  0  0  0  0  0  0
    1.9561    8.4315   35.1484 O   0  0  0  0  0  0  0  0  0  0  0  0
    2.5521   10.4667   36.1783 C   0  0  0  0  0  0  0  0  0  0  0  0
    2.0240   11.5111   36.9968 O   0  0  0  0  0  0  0  0  0  0  0  0
   -1.6442    9.8579   31.0655 C   0  0  2  0  0  0  0  0  0  0  0  0
   -2.0266   10.1021   29.6917 N   0  0  0  0  0  0  0  0  0  0  0  0
   -0.2056    9.2131   31.1234 C   0  0  0  0  0  0  0  0  0  0  0  0
    0.2313    8.9339   32.6045 C   0  0  2  0  0  0  0  0  0  0  0  0
    1.5628    8.3317   32.6134 N   0  0  0  0  0  0  0  0  0  0  0  0
   -0.7760    7.9599   33.3628 C   0  0  2  0  0  0  0  0  0  0  0  0
   -2.1817    8.6266   33.3299 C   0  0  2  0  0  0  0  0  0  0  0  0
   -3.0668    7.6523   34.0716 O   0  0  0  0  0  0  0  0  0  0  0  0
   -2.6574    8.8516   31.7902 C   0  0  1  0  0  0  0  0  0  0  0  0
   -3.9475    9.5250   31.6348 O   0  0  0  0  0  0  0  0  0  0  0  0
   -3.2577    8.0408   35.3716 C   0  0  1  0  0  0  0  0  0  0  0  0
   -4.6694    8.0463   35.7693 C   0  0  2  0  0  0  0  0  0  0  0  0
   -5.2726    9.1342   35.1455 O   0  0  0  0  0  0  0  0  0  0  0  0
   -4.5470    8.0083   37.3078 C   0  0  2  0  0  0  0  0  0  0  0  0
   -5.1688    9.2147   37.8054 O   0  0  0  0  0  0  0  0  0  0  0  0
   -3.0784    7.9695   37.5748 C   0  0  2  0  0  0  0  0  0  0  0  0
   -2.6899    7.2129   36.3730 O   0  0  0  0  0  0  0  0  0  0  0  0
   -2.7412    7.1454   38.8715 C   0  0  0  0  0  0  0  0  0  0  0  0
   -3.1306    5.7415   38.7908 O   0  0  0  0  0  0  0  0  0  0  0  0
   -5.2912    9.3452   39.2542 C   0  0  2  0  0  0  0  0  0  0  0  0
   -6.3337   10.5384   39.5758 C   0  0  2  0  0  0  0  0  0  0  0  0
   -5.8418   11.8060   38.9449 N   0  0  0  0  0  0  0  0  0  0  0  0
   -6.4655   10.6729   41.1722 C   0  0  1  0  0  0  0  0  0  0  0  0
   -6.9406    9.3884   41.6781 O   0  0  0  0  0  0  0  0  0  0  0  0
   -5.0435   11.0440   41.7925 C   0  0  2  0  0  0  0  0  0  0  0  0
   -4.6384   12.3580   41.2453 O   0  0  0  0  0  0  0  0  0  0  0  0
   -3.9947    9.8552   41.4067 C   0  0  1  0  0  0  0  0  0  0  0  0
   -3.9389    9.6963   39.9080 O   0  0  0  0  0  0  0  0  0  0  0  0
   -2.5814   10.1956   41.9859 C   0  0  0  0  0  0  0  0  0  0  0  0
   -1.5780    9.1139   41.7408 N   0  0  0  0  0  0  0  0  0  0  0  0
  1  3  1  0  0  0  0
  1  2  1  1  0  0  0
  3  4  1  6  0  0  0
  3  5  1  0  0  0  0
  5  6  1  1  0  0  0
  7  8  1  1  0  0  0
  7  5  1  0  0  0  0
  9 11  1  1  0  0  0
  9  7  1  0  0  0  0
 10  9  1  0  0  0  0
 10  1  1  0  0  0  0
 12 11  1  0  0  0  0
 13 14  1  6  0  0  0
 15 13  1  0  0  0  0
 16 17  1  6  0  0  0
 16 15  1  0  0  0  0
 18  2  1  1  0  0  0
 18 19  1  0  0  0  0
 18 16  1  0  0  0  0
 19 20  1  1  0  0  0
 19 21  1  0  0  0  0
 21 22  1  1  0  0  0
 21 13  1  0  0  0  0
 23 20  1  6  0  0  0
 23 29  1  0  0  0  0
 24 25  1  1  0  0  0
 24 26  1  0  0  0  0
 24 23  1  0  0  0  0
 26 27  1  1  0  0  0
 26 28  1  0  0  0  0
 28 30  1  1  0  0  0
 29 28  1  0  0  0  0
 30 31  1  0  0  0  0
 32 27  1  6  0  0  0
 32 40  1  0  0  0  0
 33 35  1  0  0  0  0
 33 32  1  0  0  0  0
 33 34  1  1  0  0  0
 35 36  1  1  0  0  0
 35 37  1  0  0  0  0
 37 38  1  6  0  0  0
 37 39  1  0  0  0  0
 39 41  1  6  0  0  0
 40 39  1  0  0  0  0
 41 42  1  0  0  0  0
M  END
>  <CHROM.1>
-149.84269366,-70.06923423,-55.30458438,98.84155537,130.08229645,174.30362503
62.20203130,-165.32964551,176.74196436,-2.11488175,8.86887154,36.75403653
-1.01261617,-0.19526134,1.51477504

>  <Name>
lig.pdb

>  <RI>
0

>  <Rbt.Current_Directory>
/home/itssahil/PROJECTS/Mol_Feturizer/New_Systems/rnas/4wcr

>  <Rbt.Executable>
rbdock ($Id: //depot/dev/client3/rdock/2013.1/src/exe/rbdock.cxx#4 $)

>  <Rbt.Library>
libRbt.so (2013.1, Build901 2013/11/27)

>  <Rbt.Parameter_File>
/export/apps/rDock/src/rDock_2013.1_src/data/scripts/dock_solv.prm

>  <Rbt.Receptor>
prm/pocket_docking_6.prm

>  <SCORE>
-4.3695

>  <SCORE.INTER>
-3.44569

>  <SCORE.INTER.CONST>
1

>  <SCORE.INTER.POLAR>
0

>  <SCORE.INTER.ROT>
9

>  <SCORE.INTER.SOLV>
20.763

>  <SCORE.INTER.VDW>
-18.8181

>  <SCORE.INTER.norm>
-0.0820403

>  <SCORE.INTRA>
-0.923806

>  <SCORE.INTRA.DIHEDRAL>
1.41791

>  <SCORE.INTRA.DIHEDRAL.0>
16.2863

>  <SCORE.INTRA.POLAR>
0

>  <SCORE.INTRA.POLAR.0>
0

>  <SCORE.INTRA.REPUL>
-0.314433

>  <SCORE.INTRA.REPUL.0>
0.314433

>  <SCORE.INTRA.SOLV>
-0.124629

>  <SCORE.INTRA.SOLV.lig_0>
-103.824

>  <SCORE.INTRA.VDW>
0.00171877

>  <SCORE.INTRA.VDW.0>
-5.30945

>  <SCORE.INTRA.norm>
-0.0219954

>  <SCORE.RESTR>
0

>  <SCORE.RESTR.CAVITY>
0

>  <SCORE.RESTR.norm>
0

>  <SCORE.SYSTEM>
0

>  <SCORE.SYSTEM.CONST>
0

>  <SCORE.SYSTEM.DIHEDRAL>
0

>  <SCORE.SYSTEM.SOLV>
0

>  <SCORE.SYSTEM.norm>
0

>  <SCORE.heavy>
42

>  <SCORE.norm>
-0.104036

>  <RMSD>
8.279

$$$$
lig.pdb
 OpenBabel11021811513D
libRbt.so/2013.1/901 2013/11/27
 42 45  0  0  0  0  0  0  0  0999 V2000
   -1.1167   16.5019   36.6414 C   0  0  2  0  0  0  0  0  0  0  0  0
   -0.0762   17.3199   36.0207 O   0  0  0  0  0  0  0  0  0  0  0  0
   -0.6414   16.2427   38.1403 C   0  0  2  0  0  0  0  0  0  0  0  0
   -0.5359   17.5109   38.8671 N   0  0  0  0  0  0  0  0  0  0  0  0
    0.7512   15.4431   38.1099 C   0  0  1  0  0  0  0  0  0  0  0  0
    1.2245   15.1706   39.4457 O   0  0  0  0  0  0  0  0  0  0  0  0
    0.5133   14.1460   37.3179 C   0  0  2  0  0  0  0  0  0  0  0  0
    1.6991   13.4283   37.2693 O   0  0  0  0  0  0  0  0  0  0  0  0
   -0.0027   14.4935   35.8477 C   0  0  2  0  0  0  0  0  0  0  0  0
   -1.2282   15.2353   35.8883 O   0  0  0  0  0  0  0  0  0  0  0  0
   -0.2691   13.2571   35.0368 C   0  0  0  0  0  0  0  0  0  0  0  0
    0.9792   12.5919   34.8401 O   0  0  0  0  0  0  0  0  0  0  0  0
   -1.2143   20.8879   33.6235 C   0  0  2  0  0  0  0  0  0  0  0  0
   -1.4146   21.7709   32.4952 N   0  0  0  0  0  0  0  0  0  0  0  0
    0.2961   20.4392   33.7019 C   0  0  0  0  0  0  0  0  0  0  0  0
    0.5391   19.4759   34.9166 C   0  0  2  0  0  0  0  0  0  0  0  0
    1.9452   19.0791   34.9488 N   0  0  0  0  0  0  0  0  0  0  0  0
   -0.3614   18.1637   34.8422 C   0  0  2  0  0  0  0  0  0  0  0  0
   -1.8483   18.6210   34.8034 C   0  0  2  0  0  0  0  0  0  0  0  0
   -2.6280   17.3282   34.7440 O   0  0  0  0  0  0  0  0  0  0  0  0
   -2.1087   19.5650   33.5039 C   0  0  1  0  0  0  0  0  0  0  0  0
   -3.4657   20.1019   33.3927 O   0  0  0  0  0  0  0  0  0  0  0  0
   -3.2296   17.1633   33.5241 C   0  0  1  0  0  0  0  0  0  0  0  0
   -3.9408   15.8865   33.4010 C   0  0  2  0  0  0  0  0  0  0  0  0
   -2.9808   14.8854   33.2869 O   0  0  0  0  0  0  0  0  0  0  0  0
   -4.8896   16.1850   32.2205 C   0  0  2  0  0  0  0  0  0  0  0  0
   -4.5537   15.2515   31.1691 O   0  0  0  0  0  0  0  0  0  0  0  0
   -4.5990   17.6003   31.8434 C   0  0  2  0  0  0  0  0  0  0  0  0
   -4.2537   18.0854   33.1900 O   0  0  0  0  0  0  0  0  0  0  0  0
   -5.8813   18.3385   31.3093 C   0  0  0  0  0  0  0  0  0  0  0  0
   -5.6467   19.7328   30.9486 O   0  0  0  0  0  0  0  0  0  0  0  0
   -5.6636   14.6904   30.4048 C   0  0  2  0  0  0  0  0  0  0  0  0
   -5.1338   13.3825   29.6155 C   0  0  2  0  0  0  0  0  0  0  0  0
   -3.9907   13.7722   28.7277 N   0  0  0  0  0  0  0  0  0  0  0  0
   -6.3623   12.7689   28.7799 C   0  0  1  0  0  0  0  0  0  0  0  0
   -7.4136   12.4346   29.7362 O   0  0  0  0  0  0  0  0  0  0  0  0
   -6.8723   13.8452   27.7188 C   0  0  2  0  0  0  0  0  0  0  0  0
   -5.7610   14.1200   26.7809 O   0  0  0  0  0  0  0  0  0  0  0  0
   -7.3475   15.1766   28.5333 C   0  0  1  0  0  0  0  0  0  0  0  0
   -6.2024   15.6957   29.3664 O   0  0  0  0  0  0  0  0  0  0  0  0
   -7.8389   16.2628   27.5198 C   0  0  0  0  0  0  0  0  0  0  0  0
   -6.7186   16.8891   26.7518 N   0  0  0  0  0  0  0  0  0  0  0  0
  1  3  1  0  0  0  0
  1  2  1  6  0  0  0
  3  4  1  6  0  0  0
  3  5  1  0  0  0  0
  5  6  1  1  0  0  0
  7  8  1  6  0  0  0
  7  5  1  0  0  0  0
  9 11  1  6  0  0  0
  9  7  1  0  0  0  0
 10  9  1  0  0  0  0
 10  1  1  0  0  0  0
 12 11  1  0  0  0  0
 13 14  1  6  0  0  0
 15 13  1  0  0  0  0
 16 17  1  6  0  0  0
 16 15  1  0  0  0  0
 18  2  1  1  0  0  0
 18 19  1  0  0  0  0
 18 16  1  0  0  0  0
 19 20  1  6  0  0  0
 19 21  1  0  0  0  0
 21 22  1  1  0  0  0
 21 13  1  0  0  0  0
 23 20  1  1  0  0  0
 23 29  1  0  0  0  0
 24 25  1  6  0  0  0
 24 26  1  0  0  0  0
 24 23  1  0  0  0  0
 26 27  1  6  0  0  0
 26 28  1  0  0  0  0
 28 30  1  1  0  0  0
 29 28  1  0  0  0  0
 30 31  1  0  0  0  0
 32 27  1  6  0  0  0
 32 40  1  0  0  0  0
 33 35  1  0  0  0  0
 33 32  1  0  0  0  0
 33 34  1  6  0  0  0
 35 36  1  1  0  0  0
 35 37  1  0  0  0  0
 37 38  1  6  0  0  0
 37 39  1  0  0  0  0
 39 41  1  6  0  0  0
 40 39  1  0  0  0  0
 41 42  1  0  0  0  0
M  END
>  <CHROM.1>
-157.21630485,-65.18926654,146.64501958,-110.61059229,177.04563241,140.92303339
179.08468904,-163.28690398,-72.40167743,-2.81831618,16.37823544,33.07785185
-0.10412009,0.87708104,3.10590933

>  <Name>
lig.pdb

>  <RI>
0

>  <Rbt.Current_Directory>
/home/itssahil/PROJECTS/Mol_Feturizer/New_Systems/rnas/4wcr

>  <Rbt.Executable>
rbdock ($Id: //depot/dev/client3/rdock/2013.1/src/exe/rbdock.cxx#4 $)

>  <Rbt.Library>
libRbt.so (2013.1, Build901 2013/11/27)

>  <Rbt.Parameter_File>
/export/apps/rDock/src/rDock_2013.1_src/data/scripts/dock_solv.prm

>  <Rbt.Receptor>
prm/blind_docking_100.prm

>  <SCORE>
1.99373

>  <SCORE.INTER>
-9.00445

>  <SCORE.INTER.CONST>
1

>  <SCORE.INTER.POLAR>
0

>  <SCORE.INTER.ROT>
9

>  <SCORE.INTER.SOLV>
38.4386

>  <SCORE.INTER.VDW>
-28.4158

>  <SCORE.INTER.norm>
-0.214392

>  <SCORE.INTRA>
9.4113

>  <SCORE.INTRA.DIHEDRAL>
4.60498

>  <SCORE.INTRA.DIHEDRAL.0>
16.2863

>  <SCORE.INTRA.POLAR>
0

>  <SCORE.INTRA.POLAR.0>
0

>  <SCORE.INTRA.REPUL>
-0.314433

>  <SCORE.INTRA.REPUL.0>
0.314433

>  <SCORE.INTRA.SOLV>
-3.11461

>  <SCORE.INTRA.SOLV.lig_0>
-103.824

>  <SCORE.INTRA.VDW>
10.2383

>  <SCORE.INTRA.VDW.0>
-5.30945

>  <SCORE.INTRA.norm>
0.224078

>  <SCORE.RESTR>
1.58689

>  <SCORE.RESTR.CAVITY>
1.58689

>  <SCORE.RESTR.norm>
0.037783

>  <SCORE.SYSTEM>
0

>  <SCORE.SYSTEM.CONST>
0

>  <SCORE.SYSTEM.DIHEDRAL>
0

>  <SCORE.SYSTEM.SOLV>
0

>  <SCORE.SYSTEM.norm>
0

>  <SCORE.heavy>
42

>  <SCORE.norm>
0.0474698

>  <RMSD>
8.294

$$$$
lig.pdb
 OpenBabel11021811513D
libRbt.so/2013.1/901 2013/11/27
 42 45  0  0  0  0  0  0  0  0999 V2000
   -0.8286   16.4686   36.8228 C   0  0  2  0  0  0  0  0  0  0  0  0
   -0.2856   17.8077   36.6008 O   0  0  0  0  0  0  0  0  0  0  0  0
   -1.5140   16.5014   38.2613 C   0  0  2  0  0  0  0  0  0  0  0  0
   -2.6136   17.4700   38.2791 N   0  0  0  0  0  0  0  0  0  0  0  0
   -0.3921   16.8366   39.3608 C   0  0  1  0  0  0  0  0  0  0  0  0
   -0.9570   16.8680   40.6884 O   0  0  0  0  0  0  0  0  0  0  0  0
    0.7018   15.7623   39.2361 C   0  0  2  0  0  0  0  0  0  0  0  0
    1.6916   16.0218   40.1724 O   0  0  0  0  0  0  0  0  0  0  0  0
    1.3019   15.7663   37.7568 C   0  0  2  0  0  0  0  0  0  0  0  0
    0.2857   15.4989   36.7824 O   0  0  0  0  0  0  0  0  0  0  0  0
    2.3641   14.7193   37.5764 C   0  0  0  0  0  0  0  0  0  0  0  0
    1.7618   13.4467   37.8159 O   0  0  0  0  0  0  0  0  0  0  0  0
   -0.7629   20.7341   33.2871 C   0  0  2  0  0  0  0  0  0  0  0  0
   -0.6243   21.3755   31.9977 N   0  0  0  0  0  0  0  0  0  0  0  0
    0.6570   20.4983   33.9328 C   0  0  0  0  0  0  0  0  0  0  0  0
    0.5343   19.7988   35.3322 C   0  0  2  0  0  0  0  0  0  0  0  0
    1.8686   19.5926   35.8914 N   0  0  0  0  0  0  0  0  0  0  0  0
   -0.2076   18.3915   35.2460 C   0  0  2  0  0  0  0  0  0  0  0  0
   -1.6193   18.6456   34.6425 C   0  0  2  0  0  0  0  0  0  0  0  0
   -2.2538   17.2749   34.6048 O   0  0  0  0  0  0  0  0  0  0  0  0
   -1.4832   19.3093   33.1632 C   0  0  1  0  0  0  0  0  0  0  0  0
   -2.7532   19.6447   32.5177 O   0  0  0  0  0  0  0  0  0  0  0  0
   -2.9700   17.0876   33.4518 C   0  0  1  0  0  0  0  0  0  0  0  0
   -3.6468   15.7875   33.3995 C   0  0  2  0  0  0  0  0  0  0  0  0
   -2.6703   14.8188   33.1874 O   0  0  0  0  0  0  0  0  0  0  0  0
   -4.7196   16.0518   32.3214 C   0  0  2  0  0  0  0  0  0  0  0  0
   -4.4607   15.1279   31.2401 O   0  0  0  0  0  0  0  0  0  0  0  0
   -4.5162   17.4752   31.9188 C   0  0  2  0  0  0  0  0  0  0  0  0
   -4.0528   17.9742   33.2243 O   0  0  0  0  0  0  0  0  0  0  0  0
   -5.8699   18.1691   31.5183 C   0  0  0  0  0  0  0  0  0  0  0  0
   -5.7015   19.5157   30.9824 O   0  0  0  0  0  0  0  0  0  0  0  0
   -5.6201   14.6245   30.5098 C   0  0  2  0  0  0  0  0  0  0  0  0
   -5.1629   13.3365   29.6461 C   0  0  2  0  0  0  0  0  0  0  0  0
   -4.0537   13.7331   28.7192 N   0  0  0  0  0  0  0  0  0  0  0  0
   -6.4454   12.7863   28.8484 C   0  0  1  0  0  0  0  0  0  0  0  0
   -7.4582   12.4400   29.8413 O   0  0  0  0  0  0  0  0  0  0  0  0
   -6.9772   13.9157   27.8554 C   0  0  2  0  0  0  0  0  0  0  0  0
   -5.9051   14.2004   26.8757 O   0  0  0  0  0  0  0  0  0  0  0  0
   -7.3780   15.2250   28.7425 C   0  0  1  0  0  0  0  0  0  0  0  0
   -6.1813   15.6829   29.5382 O   0  0  0  0  0  0  0  0  0  0  0  0
   -7.8888   16.3621   27.7965 C   0  0  0  0  0  0  0  0  0  0  0  0
   -6.8413   16.8345   26.8390 N   0  0  0  0  0  0  0  0  0  0  0  0
  1  3  1  0  0  0  0
  1  2  1  1  0  0  0
  3  4  1  6  0  0  0
  3  5  1  0  0  0  0
  5  6  1  1  0  0  0
  7  8  1  1  0  0  0
  7  5  1  0  0  0  0
  9 11  1  1  0  0  0
  9  7  1  0  0  0  0
 10  9  1  0  0  0  0
 10  1  1  0  0  0  0
 12 11  1  0  0  0  0
 13 14  1  6  0  0  0
 15 13  1  0  0  0  0
 16 17  1  6  0  0  0
 16 15  1  0  0  0  0
 18  2  1  1  0  0  0
 18 19  1  0  0  0  0
 18 16  1  0  0  0  0
 19 20  1  6  0  0  0
 19 21  1  0  0  0  0
 21 22  1  1  0  0  0
 21 13  1  0  0  0  0
 23 20  1  1  0  0  0
 23 29  1  0  0  0  0
 24 25  1  6  0  0  0
 24 26  1  0  0  0  0
 24 23  1  0  0  0  0
 26 27  1  6  0  0  0
 26 28  1  0  0  0  0
 28 30  1  1  0  0  0
 29 28  1  0  0  0  0
 30 31  1  0  0  0  0
 32 27  1  6  0  0  0
 32 40  1  0  0  0  0
 33 35  1  0  0  0  0
 33 32  1  0  0  0  0
 33 34  1  6  0  0  0
 35 36  1  1  0  0  0
 35 37  1  0  0  0  0
 37 38  1  6  0  0  0
 37 39  1  0  0  0  0
 39 41  1  6  0  0  0
 40 39  1  0  0  0  0
 41 42  1  0  0  0  0
M  END
>  <CHROM.1>
-148.28409178,60.89065131,-175.44746114,-139.77372735,-177.71778405,146.46642908
-173.81756836,-164.70880459,-62.84178989,-2.70894590,16.63715727,33.49786673
0.14518538,0.92339536,2.75687300

>  <Name>
lig.pdb

>  <RI>
0

>  <Rbt.Current_Directory>
/home/itssahil/PROJECTS/Mol_Feturizer/New_Systems/rnas/4wcr

>  <Rbt.Executable>
rbdock ($Id: //depot/dev/client3/rdock/2013.1/src/exe/rbdock.cxx#4 $)

>  <Rbt.Library>
libRbt.so (2013.1, Build901 2013/11/27)

>  <Rbt.Parameter_File>
/export/apps/rDock/src/rDock_2013.1_src/data/scripts/dock_solv.prm

>  <Rbt.Receptor>
prm/blind_docking_60.prm

>  <SCORE>
-3.38463

>  <SCORE.INTER>
-10.0958

>  <SCORE.INTER.CONST>
1

>  <SCORE.INTER.POLAR>
0

>  <SCORE.INTER.ROT>
9

>  <SCORE.INTER.SOLV>
37.2399

>  <SCORE.INTER.VDW>
-28.7438

>  <SCORE.INTER.norm>
-0.240376

>  <SCORE.INTRA>
3.55091

>  <SCORE.INTRA.DIHEDRAL>
-0.887661

>  <SCORE.INTRA.DIHEDRAL.0>
16.2863

>  <SCORE.INTRA.POLAR>
0

>  <SCORE.INTRA.POLAR.0>
0

>  <SCORE.INTRA.REPUL>
-0.314433

>  <SCORE.INTRA.REPUL.0>
0.314433

>  <SCORE.INTRA.SOLV>
-2.71006

>  <SCORE.INTRA.SOLV.lig_0>
-103.824

>  <SCORE.INTRA.VDW>
6.92194

>  <SCORE.INTRA.VDW.0>
-5.30945

>  <SCORE.INTRA.norm>
0.0845456

>  <SCORE.RESTR>
3.16023

>  <SCORE.RESTR.CAVITY>
3.16023

>  <SCORE.RESTR.norm>
0.0752436

>  <SCORE.SYSTEM>
0

>  <SCORE.SYSTEM.CONST>
0

>  <SCORE.SYSTEM.DIHEDRAL>
0

>  <SCORE.SYSTEM.SOLV>
0

>  <SCORE.SYSTEM.norm>
0

>  <SCORE.heavy>
42

>  <SCORE.norm>
-0.0805864

>  <RMSD>
8.299

$$$$
lig.pdb
 OpenBabel11021811513D
libRbt.so/2013.1/901 2013/11/27
 42 45  0  0  0  0  0  0  0  0999 V2000
   -5.5685    9.9306   38.2142 C   0  0  2  0  0  0  0  0  0  0  0  0
   -4.3020   10.6415   38.3806 O   0  0  0  0  0  0  0  0  0  0  0  0
   -6.5578   10.9507   37.4926 C   0  0  2  0  0  0  0  0  0  0  0  0
   -6.0387   11.3145   36.1713 N   0  0  0  0  0  0  0  0  0  0  0  0
   -6.7591   12.2325   38.4394 C   0  0  1  0  0  0  0  0  0  0  0  0
   -7.6582   13.1879   37.8382 O   0  0  0  0  0  0  0  0  0  0  0  0
   -7.2947   11.7217   39.7880 C   0  0  2  0  0  0  0  0  0  0  0  0
   -7.4794   12.8048   40.6345 O   0  0  0  0  0  0  0  0  0  0  0  0
   -6.2687   10.6741   40.4190 C   0  0  2  0  0  0  0  0  0  0  0  0
   -6.0718    9.5511   39.5508 O   0  0  0  0  0  0  0  0  0  0  0  0
   -6.7553   10.1291   41.7318 C   0  0  0  0  0  0  0  0  0  0  0  0
   -5.7110    9.3230   42.2789 O   0  0  0  0  0  0  0  0  0  0  0  0
   -0.1004    9.2313   38.7410 C   0  0  2  0  0  0  0  0  0  0  0  0
    1.1094    8.6635   39.2952 N   0  0  0  0  0  0  0  0  0  0  0  0
   -0.6196   10.4057   39.6574 C   0  0  0  0  0  0  0  0  0  0  0  0
   -1.9353   11.0364   39.0797 C   0  0  2  0  0  0  0  0  0  0  0  0
   -2.3858   12.1127   39.9596 N   0  0  0  0  0  0  0  0  0  0  0  0
   -3.1091    9.9689   38.9345 C   0  0  2  0  0  0  0  0  0  0  0  0
   -2.5956    8.8367   37.9986 C   0  0  2  0  0  0  0  0  0  0  0  0
   -3.7615    7.8802   37.9067 O   0  0  0  0  0  0  0  0  0  0  0  0
   -1.2698    8.1423   38.6373 C   0  0  1  0  0  0  0  0  0  0  0  0
   -0.6637    7.0952   37.8136 O   0  0  0  0  0  0  0  0  0  0  0  0
   -3.6285    7.0318   36.8391 C   0  0  1  0  0  0  0  0  0  0  0  0
   -4.5451    5.8881   36.8952 C   0  0  2  0  0  0  0  0  0  0  0  0
   -4.0809    5.0319   37.8894 O   0  0  0  0  0  0  0  0  0  0  0  0
   -4.5445    5.4315   35.4205 C   0  0  2  0  0  0  0  0  0  0  0  0
   -4.0375    4.0779   35.4033 O   0  0  0  0  0  0  0  0  0  0  0  0
   -3.6380    6.3910   34.7224 C   0  0  2  0  0  0  0  0  0  0  0  0
   -3.9286    7.5662   35.5605 O   0  0  0  0  0  0  0  0  0  0  0  0
   -4.0930    6.6520   33.2394 C   0  0  0  0  0  0  0  0  0  0  0  0
   -5.4140    7.2622   33.1310 O   0  0  0  0  0  0  0  0  0  0  0  0
   -3.7651    3.4914   34.0945 C   0  0  2  0  0  0  0  0  0  0  0  0
   -5.1649    3.0028   33.4497 C   0  0  2  0  0  0  0  0  0  0  0  0
   -5.8158    2.0180   34.3734 N   0  0  0  0  0  0  0  0  0  0  0  0
   -4.8567    2.3621   32.0080 C   0  0  1  0  0  0  0  0  0  0  0  0
   -4.2213    3.3985   31.1995 O   0  0  0  0  0  0  0  0  0  0  0  0
   -3.8964    1.1004   32.1825 C   0  0  2  0  0  0  0  0  0  0  0  0
   -4.6128    0.0937   32.9970 O   0  0  0  0  0  0  0  0  0  0  0  0
   -2.5145    1.6068   32.8868 C   0  0  1  0  0  0  0  0  0  0  0  0
   -2.8312    2.2687   34.2045 O   0  0  0  0  0  0  0  0  0  0  0  0
   -1.5534    0.3888   33.0896 C   0  0  0  0  0  0  0  0  0  0  0  0
   -0.2618    0.7708   33.7400 N   0  0  0  0  0  0  0  0  0  0  0  0
  1  3  1  0  0  0  0
  1  2  1  1  0  0  0
  3  4  1  6  0  0  0
  3  5  1  0  0  0  0
  5  6  1  6  0  0  0
  7  8  1  1  0  0  0
  7  5  1  0  0  0  0
  9 11  1  1  0  0  0
  9  7  1  0  0  0  0
 10  9  1  0  0  0  0
 10  1  1  0  0  0  0
 12 11  1  0  0  0  0
 13 14  1  1  0  0  0
 15 13  1  0  0  0  0
 16 17  1  1  0  0  0
 16 15  1  0  0  0  0
 18  2  1  6  0  0  0
 18 19  1  0  0  0  0
 18 16  1  0  0  0  0
 19 20  1  1  0  0  0
 19 21  1  0  0  0  0
 21 22  1  6  0  0  0
 21 13  1  0  0  0  0
 23 20  1  1  0  0  0
 23 29  1  0  0  0  0
 24 25  1  1  0  0  0
 24 26  1  0  0  0  0
 24 23  1  0  0  0  0
 26 27  1  1  0  0  0
 26 28  1  0  0  0  0
 28 30  1  6  0  0  0
 29 28  1  0  0  0  0
 30 31  1  0  0  0  0
 32 27  1  1  0  0  0
 32 40  1  0  0  0  0
 33 35  1  0  0  0  0
 33 32  1  0  0  0  0
 33 34  1  1  0  0  0
 35 36  1  6  0  0  0
 35 37  1  0  0  0  0
 37 38  1  1  0  0  0
 37 39  1  0  0  0  0
 39 41  1  1  0  0  0
 40 39  1  0  0  0  0
 41 42  1  0  0  0  0
M  END
>  <CHROM.1>
-175.66790880,-173.76618440,-176.08119656,162.75644254,165.84649845,-171.62557103
62.28928044,-79.13167739,-179.67150013,-4.05398528,7.17707573,36.72592156
1.72321866,-0.31983997,0.66328536

>  <Name>
lig.pdb

>  <RI>
0

>  <Rbt.Current_Directory>
/home/itssahil/PROJECTS/Mol_Feturizer/New_Systems/rnas/4wcr

>  <Rbt.Executable>
rbdock ($Id: //depot/dev/client3/rdock/2013.1/src/exe/rbdock.cxx#4 $)

>  <Rbt.Library>
libRbt.so (2013.1, Build901 2013/11/27)

>  <Rbt.Parameter_File>
/export/apps/rDock/src/rDock_2013.1_src/data/scripts/dock_solv.prm

>  <Rbt.Receptor>
prm/pocket_docking_7.prm

>  <SCORE>
-9.85734

>  <SCORE.INTER>
-0.847618

>  <SCORE.INTER.CONST>
1

>  <SCORE.INTER.POLAR>
0

>  <SCORE.INTER.ROT>
9

>  <SCORE.INTER.SOLV>
17.4295

>  <SCORE.INTER.VDW>
-15.9749

>  <SCORE.INTER.norm>
-0.0201814

>  <SCORE.INTRA>
-9.00972

>  <SCORE.INTRA.DIHEDRAL>
-11.1225

>  <SCORE.INTRA.DIHEDRAL.0>
16.2863

>  <SCORE.INTRA.POLAR>
0

>  <SCORE.INTRA.POLAR.0>
0

>  <SCORE.INTRA.REPUL>
-0.314433

>  <SCORE.INTRA.REPUL.0>
0.314433

>  <SCORE.INTRA.SOLV>
-6.00313

>  <SCORE.INTRA.SOLV.lig_0>
-103.824

>  <SCORE.INTRA.VDW>
1.12524

>  <SCORE.INTRA.VDW.0>
-5.30945

>  <SCORE.INTRA.norm>
-0.214517

>  <SCORE.RESTR>
0

>  <SCORE.RESTR.CAVITY>
0

>  <SCORE.RESTR.norm>
0

>  <SCORE.SYSTEM>
0

>  <SCORE.SYSTEM.CONST>
0

>  <SCORE.SYSTEM.DIHEDRAL>
0

>  <SCORE.SYSTEM.SOLV>
0

>  <SCORE.SYSTEM.norm>
0

>  <SCORE.heavy>
42

>  <SCORE.norm>
-0.234699

>  <RMSD>
8.337

$$$$
lig.pdb
 OpenBabel11021811513D
libRbt.so/2013.1/901 2013/11/27
 42 45  0  0  0  0  0  0  0  0999 V2000
   -0.9595   16.2057   36.4455 C   0  0  2  0  0  0  0  0  0  0  0  0
   -0.0149   17.2285   35.9997 O   0  0  0  0  0  0  0  0  0  0  0  0
   -1.2183   16.4859   37.9929 C   0  0  2  0  0  0  0  0  0  0  0  0
   -1.8255   17.8071   38.1762 N   0  0  0  0  0  0  0  0  0  0  0  0
    0.1722   16.3422   38.7838 C   0  0  1  0  0  0  0  0  0  0  0  0
   -0.0059   16.5754   40.1968 O   0  0  0  0  0  0  0  0  0  0  0  0
    0.7085   14.9273   38.5067 C   0  0  2  0  0  0  0  0  0  0  0  0
    1.9135   14.7675   39.1746 O   0  0  0  0  0  0  0  0  0  0  0  0
    0.8956   14.7148   36.9356 C   0  0  2  0  0  0  0  0  0  0  0  0
   -0.3450   14.8780   36.2371 O   0  0  0  0  0  0  0  0  0  0  0  0
    1.4009   13.3381   36.6091 C   0  0  0  0  0  0  0  0  0  0  0  0
    0.3779   12.4067   36.9638 O   0  0  0  0  0  0  0  0  0  0  0  0
   -1.2499   20.9948   33.9842 C   0  0  2  0  0  0  0  0  0  0  0  0
   -1.5041   21.9724   32.9485 N   0  0  0  0  0  0  0  0  0  0  0  0
    0.2581   20.5335   33.9386 C   0  0  0  0  0  0  0  0  0  0  0  0
    0.5589   19.4683   35.0509 C   0  0  2  0  0  0  0  0  0  0  0  0
    1.9608   19.0632   34.9698 N   0  0  0  0  0  0  0  0  0  0  0  0
   -0.3571   18.1718   34.9155 C   0  0  2  0  0  0  0  0  0  0  0  0
   -1.8393   18.6382   34.9998 C   0  0  2  0  0  0  0  0  0  0  0  0
   -2.6337   17.3591   34.8743 O   0  0  0  0  0  0  0  0  0  0  0  0
   -2.1624   19.6915   33.8026 C   0  0  1  0  0  0  0  0  0  0  0  0
   -3.5182   20.2427   33.8143 O   0  0  0  0  0  0  0  0  0  0  0  0
   -3.2041   17.2451   33.6338 C   0  0  1  0  0  0  0  0  0  0  0  0
   -3.9518   15.9958   33.4567 C   0  0  2  0  0  0  0  0  0  0  0  0
   -3.0214   14.9671   33.3436 O   0  0  0  0  0  0  0  0  0  0  0  0
   -4.8554   16.3553   32.2577 C   0  0  2  0  0  0  0  0  0  0  0  0
   -4.5187   15.4383   31.1922 O   0  0  0  0  0  0  0  0  0  0  0  0
   -4.5087   17.7694   31.9267 C   0  0  2  0  0  0  0  0  0  0  0  0
   -4.1879   18.2084   33.2949 O   0  0  0  0  0  0  0  0  0  0  0  0
   -5.7505   18.5625   31.3758 C   0  0  0  0  0  0  0  0  0  0  0  0
   -6.0854   18.2390   29.9930 O   0  0  0  0  0  0  0  0  0  0  0  0
   -5.6193   14.9572   30.3626 C   0  0  2  0  0  0  0  0  0  0  0  0
   -5.2147   13.5121   29.7609 C   0  0  2  0  0  0  0  0  0  0  0  0
   -3.9450   13.6434   28.9752 N   0  0  0  0  0  0  0  0  0  0  0  0
   -6.4328   12.9881   28.8522 C   0  0  1  0  0  0  0  0  0  0  0  0
   -7.6107   12.9060   29.7109 O   0  0  0  0  0  0  0  0  0  0  0  0
   -6.6709   14.0049   27.6465 C   0  0  2  0  0  0  0  0  0  0  0  0
   -5.4446   14.0221   26.8182 O   0  0  0  0  0  0  0  0  0  0  0  0
   -7.0207   15.4684   28.2771 C   0  0  1  0  0  0  0  0  0  0  0  0
   -5.8985   15.9106   29.1826 O   0  0  0  0  0  0  0  0  0  0  0  0
   -7.2437   16.4975   27.1197 C   0  0  0  0  0  0  0  0  0  0  0  0
   -7.7095   17.8313   27.6109 N   0  0  0  0  0  0  0  0  0  0  0  0
  1  3  1  0  0  0  0
  1  2  1  1  0  0  0
  3  4  1  6  0  0  0
  3  5  1  0  0  0  0
  5  6  1  1  0  0  0
  7  8  1  1  0  0  0
  7  5  1  0  0  0  0
  9 11  1  1  0  0  0
  9  7  1  0  0  0  0
 10  9  1  0  0  0  0
 10  1  1  0  0  0  0
 12 11  1  0  0  0  0
 13 14  1  6  0  0  0
 15 13  1  0  0  0  0
 16 17  1  6  0  0  0
 16 15  1  0  0  0  0
 18  2  1  1  0  0  0
 18 19  1  0  0  0  0
 18 16  1  0  0  0  0
 19 20  1  6  0  0  0
 19 21  1  0  0  0  0
 21 22  1  1  0  0  0
 21 13  1  0  0  0  0
 23 20  1  1  0  0  0
 23 29  1  0  0  0  0
 24 25  1  6  0  0  0
 24 26  1  0  0  0  0
 24 23  1  0  0  0  0
 26 27  1  6  0  0  0
 26 28  1  0  0  0  0
 28 30  1  1  0  0  0
 29 28  1  0  0  0  0
 30 31  1  0  0  0  0
 32 27  1  6  0  0  0
 32 40  1  0  0  0  0
 33 35  1  0  0  0  0
 33 32  1  0  0  0  0
 33 34  1  6  0  0  0
 35 36  1  1  0  0  0
 35 37  1  0  0  0  0
 37 38  1  1  0  0  0
 37 39  1  0  0  0  0
 39 41  1  6  0  0  0
 40 39  1  0  0  0  0
 41 42  1  0  0  0  0
M  END
>  <CHROM.1>
-120.63588818,66.29827215,157.50777969,-105.02276682,178.25755225,142.27889405
-76.23073274,-153.36780514,173.99053819,-2.82241242,16.55137596,33.34253311
-0.05140054,0.91664837,3.06776222

>  <Name>
lig.pdb

>  <RI>
0

>  <Rbt.Current_Directory>
/home/itssahil/PROJECTS/Mol_Feturizer/New_Systems/rnas/4wcr

>  <Rbt.Executable>
rbdock ($Id: //depot/dev/client3/rdock/2013.1/src/exe/rbdock.cxx#4 $)

>  <Rbt.Library>
libRbt.so (2013.1, Build901 2013/11/27)

>  <Rbt.Parameter_File>
/export/apps/rDock/src/rDock_2013.1_src/data/scripts/dock_solv.prm

>  <Rbt.Receptor>
prm/blind_docking_60.prm

>  <SCORE>
2.87445

>  <SCORE.INTER>
-11.4296

>  <SCORE.INTER.CONST>
1

>  <SCORE.INTER.POLAR>
0

>  <SCORE.INTER.ROT>
9

>  <SCORE.INTER.SOLV>
32.0996

>  <SCORE.INTER.VDW>
-27.9196

>  <SCORE.INTER.norm>
-0.272134

>  <SCORE.INTRA>
11.8341

>  <SCORE.INTRA.DIHEDRAL>
8.78055

>  <SCORE.INTRA.DIHEDRAL.0>
16.2863

>  <SCORE.INTRA.POLAR>
0

>  <SCORE.INTRA.POLAR.0>
0

>  <SCORE.INTRA.REPUL>
-0.312182

>  <SCORE.INTRA.REPUL.0>
0.314433

>  <SCORE.INTRA.SOLV>
-1.75313

>  <SCORE.INTRA.SOLV.lig_0>
-103.824

>  <SCORE.INTRA.VDW>
9.88131

>  <SCORE.INTRA.VDW.0>
-5.30945

>  <SCORE.INTRA.norm>
0.281765

>  <SCORE.RESTR>
2.46996

>  <SCORE.RESTR.CAVITY>
2.46996

>  <SCORE.RESTR.norm>
0.0588086

>  <SCORE.SYSTEM>
0

>  <SCORE.SYSTEM.CONST>
0

>  <SCORE.SYSTEM.DIHEDRAL>
0

>  <SCORE.SYSTEM.SOLV>
0

>  <SCORE.SYSTEM.norm>
0

>  <SCORE.heavy>
42

>  <SCORE.norm>
0.0684392

>  <RMSD>
8.344

$$$$
lig.pdb
 OpenBabel11021811513D
libRbt.so/2013.1/901 2013/11/27
 42 45  0  0  0  0  0  0  0  0999 V2000
   -1.0340   16.3507   36.6686 C   0  0  2  0  0  0  0  0  0  0  0  0
   -0.0113   17.1502   35.9962 O   0  0  0  0  0  0  0  0  0  0  0  0
   -0.4881   16.0810   38.1415 C   0  0  2  0  0  0  0  0  0  0  0  0
   -0.3225   17.3462   38.8624 N   0  0  0  0  0  0  0  0  0  0  0  0
    0.8862   15.2559   38.0402 C   0  0  1  0  0  0  0  0  0  0  0  0
    1.4214   14.9730   39.3502 O   0  0  0  0  0  0  0  0  0  0  0  0
    0.5845   13.9644   37.2609 C   0  0  2  0  0  0  0  0  0  0  0  0
    1.7529   13.2250   37.1520 O   0  0  0  0  0  0  0  0  0  0  0  0
    0.0011   14.3231   35.8189 C   0  0  2  0  0  0  0  0  0  0  0  0
   -1.2068   15.0873   35.9217 O   0  0  0  0  0  0  0  0  0  0  0  0
   -0.3289   13.0929   35.0221 C   0  0  0  0  0  0  0  0  0  0  0  0
    0.9003   12.4325   34.7177 O   0  0  0  0  0  0  0  0  0  0  0  0
   -1.2614   20.9571   34.0682 C   0  0  2  0  0  0  0  0  0  0  0  0
   -1.5252   21.9551   33.0546 N   0  0  0  0  0  0  0  0  0  0  0  0
    0.2451   20.4944   33.9971 C   0  0  0  0  0  0  0  0  0  0  0  0
    0.5562   19.4071   35.0850 C   0  0  2  0  0  0  0  0  0  0  0  0
    1.9563   19.0014   34.9807 N   0  0  0  0  0  0  0  0  0  0  0  0
   -0.3636   18.1150   34.9345 C   0  0  2  0  0  0  0  0  0  0  0  0
   -1.8440   18.5820   35.0441 C   0  0  2  0  0  0  0  0  0  0  0  0
   -2.6420   17.3069   34.9024 O   0  0  0  0  0  0  0  0  0  0  0  0
   -2.1783   19.6591   33.8712 C   0  0  1  0  0  0  0  0  0  0  0  0
   -3.5329   20.2121   33.9086 O   0  0  0  0  0  0  0  0  0  0  0  0
   -3.2002   17.2030   33.6554 C   0  0  1  0  0  0  0  0  0  0  0  0
   -3.9862   15.9777   33.4770 C   0  0  2  0  0  0  0  0  0  0  0  0
   -3.0887   14.9183   33.3826 O   0  0  0  0  0  0  0  0  0  0  0  0
   -4.8624   16.3581   32.2642 C   0  0  2  0  0  0  0  0  0  0  0  0
   -4.5425   15.4232   31.2090 O   0  0  0  0  0  0  0  0  0  0  0  0
   -4.4653   17.7578   31.9284 C   0  0  2  0  0  0  0  0  0  0  0  0
   -4.1475   18.1956   33.2977 O   0  0  0  0  0  0  0  0  0  0  0  0
   -5.6734   18.5873   31.3565 C   0  0  0  0  0  0  0  0  0  0  0  0
   -5.3215   19.9535   30.9843 O   0  0  0  0  0  0  0  0  0  0  0  0
   -5.6454   14.9832   30.3600 C   0  0  2  0  0  0  0  0  0  0  0  0
   -5.2602   13.5489   29.7207 C   0  0  2  0  0  0  0  0  0  0  0  0
   -3.9836   13.6814   28.9464 N   0  0  0  0  0  0  0  0  0  0  0  0
   -6.4808   13.0701   28.7907 C   0  0  1  0  0  0  0  0  0  0  0  0
   -7.6652   12.9833   29.6399 O   0  0  0  0  0  0  0  0  0  0  0  0
   -6.6950   14.1236   27.6123 C   0  0  2  0  0  0  0  0  0  0  0  0
   -5.4633   14.1440   26.7920 O   0  0  0  0  0  0  0  0  0  0  0  0
   -7.0252   15.5746   28.2814 C   0  0  1  0  0  0  0  0  0  0  0  0
   -5.9018   15.9733   29.2053 O   0  0  0  0  0  0  0  0  0  0  0  0
   -7.2245   16.6388   27.1517 C   0  0  0  0  0  0  0  0  0  0  0  0
   -7.6928   17.9596   27.6748 N   0  0  0  0  0  0  0  0  0  0  0  0
  1  3  1  0  0  0  0
  1  2  1  6  0  0  0
  3  4  1  6  0  0  0
  3  5  1  0  0  0  0
  5  6  1  1  0  0  0
  7  8  1  6  0  0  0
  7  5  1  0  0  0  0
  9 11  1  1  0  0  0
  9  7  1  0  0  0  0
 10  9  1  0  0  0  0
 10  1  1  0  0  0  0
 12 11  1  0  0  0  0
 13 14  1  6  0  0  0
 15 13  1  0  0  0  0
 16 17  1  6  0  0  0
 16 15  1  0  0  0  0
 18  2  1  1  0  0  0
 18 19  1  0  0  0  0
 18 16  1  0  0  0  0
 19 20  1  6  0  0  0
 19 21  1  0  0  0  0
 21 22  1  1  0  0  0
 21 13  1  0  0  0  0
 23 20  1  1  0  0  0
 23 29  1  0  0  0  0
 24 25  1  6  0  0  0
 24 26  1  0  0  0  0
 24 23  1  0  0  0  0
 26 27  1  6  0  0  0
 26 28  1  0  0  0  0
 28 30  1  1  0  0  0
 29 28  1  0  0  0  0
 30 31  1  0  0  0  0
 32 27  1  1  0  0  0
 32 40  1  0  0  0  0
 33 35  1  0  0  0  0
 33 32  1  0  0  0  0
 33 34  1  6  0  0  0
 35 36  1  1  0  0  0
 35 37  1  0  0  0  0
 37 38  1  1  0  0  0
 37 39  1  0  0  0  0
 39 41  1  6  0  0  0
 40 39  1  0  0  0  0
 41 42  1  0  0  0  0
M  END
>  <CHROM.1>
-150.20896776,-67.39969554,141.85799081,-103.59010245,-179.92361408,142.88804557
-178.60094024,-155.80383972,173.08006653,-2.78192497,16.45085890,33.15451547
-0.11762351,0.87033076,-3.09929421

>  <Name>
lig.pdb

>  <RI>
0

>  <Rbt.Current_Directory>
/home/itssahil/PROJECTS/Mol_Feturizer/New_Systems/rnas/4wcr

>  <Rbt.Executable>
rbdock ($Id: //depot/dev/client3/rdock/2013.1/src/exe/rbdock.cxx#4 $)

>  <Rbt.Library>
libRbt.so (2013.1, Build901 2013/11/27)

>  <Rbt.Parameter_File>
/export/apps/rDock/src/rDock_2013.1_src/data/scripts/dock_solv.prm

>  <Rbt.Receptor>
prm/blind_docking_100.prm

>  <SCORE>
-0.151143

>  <SCORE.INTER>
-11.2765

>  <SCORE.INTER.CONST>
1

>  <SCORE.INTER.POLAR>
0

>  <SCORE.INTER.ROT>
9

>  <SCORE.INTER.SOLV>
33.8188

>  <SCORE.INTER.VDW>
-28.3906

>  <SCORE.INTER.norm>
-0.268487

>  <SCORE.INTRA>
9.73217

>  <SCORE.INTRA.DIHEDRAL>
6.51173

>  <SCORE.INTRA.DIHEDRAL.0>
16.2863

>  <SCORE.INTRA.POLAR>
0

>  <SCORE.INTRA.POLAR.0>
0

>  <SCORE.INTRA.REPUL>
-0.314433

>  <SCORE.INTRA.REPUL.0>
0.314433

>  <SCORE.INTRA.SOLV>
-4.55173

>  <SCORE.INTRA.SOLV.lig_0>
-103.824

>  <SCORE.INTRA.VDW>
10.3243

>  <SCORE.INTRA.VDW.0>
-5.30945

>  <SCORE.INTRA.norm>
0.231718

>  <SCORE.RESTR>
1.39314

>  <SCORE.RESTR.CAVITY>
1.39314

>  <SCORE.RESTR.norm>
0.0331701

>  <SCORE.SYSTEM>
0

>  <SCORE.SYSTEM.CONST>
0

>  <SCORE.SYSTEM.DIHEDRAL>
0

>  <SCORE.SYSTEM.SOLV>
0

>  <SCORE.SYSTEM.norm>
0

>  <SCORE.heavy>
42

>  <SCORE.norm>
-0.00359865

>  <RMSD>
8.353

$$$$
lig.pdb
 OpenBabel11021811513D
libRbt.so/2013.1/901 2013/11/27
 42 45  0  0  0  0  0  0  0  0999 V2000
   -0.0846   17.3548   36.9948 C   0  0  2  0  0  0  0  0  0  0  0  0
    0.2999   17.3366   35.5845 O   0  0  0  0  0  0  0  0  0  0  0  0
    0.9746   16.4378   37.7546 C   0  0  2  0  0  0  0  0  0  0  0  0
    2.3218   16.9988   37.6211 N   0  0  0  0  0  0  0  0  0  0  0  0
    0.8784   14.9447   37.1707 C   0  0  1  0  0  0  0  0  0  0  0  0
    1.8114   14.0653   37.8332 O   0  0  0  0  0  0  0  0  0  0  0  0
   -0.5743   14.4753   37.3600 C   0  0  2  0  0  0  0  0  0  0  0  0
   -0.6954   13.1859   36.8636 O   0  0  0  0  0  0  0  0  0  0  0  0
   -1.5699   15.4710   36.6079 C   0  0  2  0  0  0  0  0  0  0  0  0
   -1.4515   16.8063   37.1147 O   0  0  0  0  0  0  0  0  0  0  0  0
   -3.0068   15.0668   36.7782 C   0  0  0  0  0  0  0  0  0  0  0  0
   -3.4263   14.4404   35.5652 O   0  0  0  0  0  0  0  0  0  0  0  0
   -1.4434   21.1354   34.0671 C   0  0  2  0  0  0  0  0  0  0  0  0
   -1.8741   22.1767   33.1599 N   0  0  0  0  0  0  0  0  0  0  0  0
    0.0910   20.8331   33.8593 C   0  0  0  0  0  0  0  0  0  0  0  0
    0.5825   19.7024   34.8300 C   0  0  2  0  0  0  0  0  0  0  0  0
    2.0034   19.4486   34.6009 N   0  0  0  0  0  0  0  0  0  0  0  0
   -0.2191   18.3398   34.6324 C   0  0  2  0  0  0  0  0  0  0  0  0
   -1.7251   18.6459   34.8771 C   0  0  2  0  0  0  0  0  0  0  0  0
   -2.4067   17.3118   34.6817 O   0  0  0  0  0  0  0  0  0  0  0  0
   -2.2450   19.7708   33.8227 C   0  0  1  0  0  0  0  0  0  0  0  0
   -3.6395   20.1805   33.9945 O   0  0  0  0  0  0  0  0  0  0  0  0
   -3.0527   17.2529   33.4748 C   0  0  1  0  0  0  0  0  0  0  0  0
   -3.7596   15.9857   33.2616 C   0  0  2  0  0  0  0  0  0  0  0  0
   -2.7982   15.0087   33.0211 O   0  0  0  0  0  0  0  0  0  0  0  0
   -4.7540   16.3813   32.1490 C   0  0  2  0  0  0  0  0  0  0  0  0
   -4.4517   15.5509   31.0050 O   0  0  0  0  0  0  0  0  0  0  0  0
   -4.4869   17.8279   31.8926 C   0  0  2  0  0  0  0  0  0  0  0  0
   -4.0945   18.1914   33.2643 O   0  0  0  0  0  0  0  0  0  0  0  0
   -5.7931   18.5989   31.4759 C   0  0  0  0  0  0  0  0  0  0  0  0
   -6.2180   18.3330   30.1055 O   0  0  0  0  0  0  0  0  0  0  0  0
   -5.5804   15.1171   30.1872 C   0  0  2  0  0  0  0  0  0  0  0  0
   -5.2555   13.6446   29.6038 C   0  0  2  0  0  0  0  0  0  0  0  0
   -3.9848   13.6983   28.8105 N   0  0  0  0  0  0  0  0  0  0  0  0
   -6.5042   13.1730   28.7081 C   0  0  1  0  0  0  0  0  0  0  0  0
   -7.6801   13.1646   29.5733 O   0  0  0  0  0  0  0  0  0  0  0  0
   -6.6950   14.1845   27.4895 C   0  0  2  0  0  0  0  0  0  0  0  0
   -5.4739   14.1260   26.6554 O   0  0  0  0  0  0  0  0  0  0  0  0
   -6.9642   15.6728   28.1014 C   0  0  1  0  0  0  0  0  0  0  0  0
   -5.8155   16.0676   28.9955 O   0  0  0  0  0  0  0  0  0  0  0  0
   -7.1391   16.6964   26.9308 C   0  0  0  0  0  0  0  0  0  0  0  0
   -7.7197   17.9992   27.3811 N   0  0  0  0  0  0  0  0  0  0  0  0
  1  3  1  0  0  0  0
  1  2  1  6  0  0  0
  3  4  1  6  0  0  0
  3  5  1  0  0  0  0
  5  6  1  1  0  0  0
  7  8  1  6  0  0  0
  7  5  1  0  0  0  0
  9 11  1  1  0  0  0
  9  7  1  0  0  0  0
 10  9  1  0  0  0  0
 10  1  1  0  0  0  0
 12 11  1  0  0  0  0
 13 14  1  6  0  0  0
 15 13  1  0  0  0  0
 16 17  1  6  0  0  0
 16 15  1  0  0  0  0
 18  2  1  1  0  0  0
 18 19  1  0  0  0  0
 18 16  1  0  0  0  0
 19 20  1  6  0  0  0
 19 21  1  0  0  0  0
 21 22  1  1  0  0  0
 21 13  1  0  0  0  0
 23 20  1  1  0  0  0
 23 29  1  0  0  0  0
 24 25  1  6  0  0  0
 24 26  1  0  0  0  0
 24 23  1  0  0  0  0
 26 27  1  6  0  0  0
 26 28  1  0  0  0  0
 28 30  1  1  0  0  0
 29 28  1  0  0  0  0
 30 31  1  0  0  0  0
 32 27  1  6  0  0  0
 32 40  1  0  0  0  0
 33 35  1  0  0  0  0
 33 32  1  0  0  0  0
 33 34  1  6  0  0  0
 35 36  1  1  0  0  0
 35 37  1  0  0  0  0
 37 38  1  6  0  0  0
 37 39  1  0  0  0  0
 39 41  1  6  0  0  0
 40 39  1  0  0  0  0
 41 42  1  0  0  0  0
M  END
>  <CHROM.1>
-163.62052550,-102.82941688,78.07842729,-104.14853927,-178.40459611,144.49482502
-75.24389313,-146.73950330,165.71199630,-2.96528514,16.65565482,33.04115340
0.00071334,0.89025396,2.93851343

>  <Name>
lig.pdb

>  <RI>
0

>  <Rbt.Current_Directory>
/home/itssahil/PROJECTS/Mol_Feturizer/New_Systems/rnas/4wcr

>  <Rbt.Executable>
rbdock ($Id: //depot/dev/client3/rdock/2013.1/src/exe/rbdock.cxx#4 $)

>  <Rbt.Library>
libRbt.so (2013.1, Build901 2013/11/27)

>  <Rbt.Parameter_File>
/export/apps/rDock/src/rDock_2013.1_src/data/scripts/dock_solv.prm

>  <Rbt.Receptor>
prm/blind_docking_60.prm

>  <SCORE>
4.92365

>  <SCORE.INTER>
-9.05975

>  <SCORE.INTER.CONST>
1

>  <SCORE.INTER.POLAR>
0

>  <SCORE.INTER.ROT>
9

>  <SCORE.INTER.SOLV>
36.3896

>  <SCORE.INTER.VDW>
-27.7697

>  <SCORE.INTER.norm>
-0.215708

>  <SCORE.INTRA>
11.1114

>  <SCORE.INTRA.DIHEDRAL>
7.44148

>  <SCORE.INTRA.DIHEDRAL.0>
16.2863

>  <SCORE.INTRA.POLAR>
0

>  <SCORE.INTRA.POLAR.0>
0

>  <SCORE.INTRA.REPUL>
-0.30773

>  <SCORE.INTRA.REPUL.0>
0.314433

>  <SCORE.INTRA.SOLV>
-1.56864

>  <SCORE.INTRA.SOLV.lig_0>
-103.824

>  <SCORE.INTRA.VDW>
9.71366

>  <SCORE.INTRA.VDW.0>
-5.30945

>  <SCORE.INTRA.norm>
0.264558

>  <SCORE.RESTR>
2.87197

>  <SCORE.RESTR.CAVITY>
2.87197

>  <SCORE.RESTR.norm>
0.0683803

>  <SCORE.SYSTEM>
0

>  <SCORE.SYSTEM.CONST>
0

>  <SCORE.SYSTEM.DIHEDRAL>
0

>  <SCORE.SYSTEM.SOLV>
0

>  <SCORE.SYSTEM.norm>
0

>  <SCORE.heavy>
42

>  <SCORE.norm>
0.11723

>  <RMSD>
8.373

$$$$
lig.pdb
 OpenBabel11021811513D
libRbt.so/2013.1/901 2013/11/27
 42 45  0  0  0  0  0  0  0  0999 V2000
   -3.4091   13.5059   34.1527 C   0  0  2  0  0  0  0  0  0  0  0  0
   -4.3102   13.4149   35.3002 O   0  0  0  0  0  0  0  0  0  0  0  0
   -1.9652   13.0972   34.6897 C   0  0  2  0  0  0  0  0  0  0  0  0
   -1.9763   11.7155   35.1781 N   0  0  0  0  0  0  0  0  0  0  0  0
   -1.5233   14.1399   35.8287 C   0  0  1  0  0  0  0  0  0  0  0  0
   -0.2133   13.8232   36.3447 O   0  0  0  0  0  0  0  0  0  0  0  0
   -1.5599   15.5431   35.1992 C   0  0  2  0  0  0  0  0  0  0  0  0
   -1.1845   16.4726   36.1577 O   0  0  0  0  0  0  0  0  0  0  0  0
   -3.0255   15.8536   34.6478 C   0  0  2  0  0  0  0  0  0  0  0  0
   -3.4218   14.8977   33.6565 O   0  0  0  0  0  0  0  0  0  0  0  0
   -3.1104   17.2086   34.0043 C   0  0  0  0  0  0  0  0  0  0  0  0
   -2.1806   17.2314   32.9205 O   0  0  0  0  0  0  0  0  0  0  0  0
   -7.0111   10.1936   36.7497 C   0  0  2  0  0  0  0  0  0  0  0  0
   -7.4840    8.8975   37.1850 N   0  0  0  0  0  0  0  0  0  0  0  0
   -6.3366   10.0774   35.3284 C   0  0  0  0  0  0  0  0  0  0  0  0
   -5.8105   11.4710   34.8348 C   0  0  2  0  0  0  0  0  0  0  0  0
   -5.1882   11.3185   33.5214 N   0  0  0  0  0  0  0  0  0  0  0  0
   -4.7463   12.1084   35.8345 C   0  0  2  0  0  0  0  0  0  0  0  0
   -5.4376   12.2513   37.2213 C   0  0  2  0  0  0  0  0  0  0  0  0
   -4.3734   12.8666   38.0997 O   0  0  0  0  0  0  0  0  0  0  0  0
   -5.9207   10.7931   37.7576 C   0  0  1  0  0  0  0  0  0  0  0  0
   -6.6363   10.8107   39.0342 O   0  0  0  0  0  0  0  0  0  0  0  0
   -4.9241   13.4990   39.1832 C   0  0  1  0  0  0  0  0  0  0  0  0
   -6.0050   14.4225   38.8227 C   0  0  2  0  0  0  0  0  0  0  0  0
   -5.4199   15.5322   38.2202 O   0  0  0  0  0  0  0  0  0  0  0  0
   -6.7341   14.5724   40.1751 C   0  0  2  0  0  0  0  0  0  0  0  0
   -6.6613   15.9705   40.5353 O   0  0  0  0  0  0  0  0  0  0  0  0
   -5.9757   13.6982   41.1186 C   0  0  2  0  0  0  0  0  0  0  0  0
   -5.5695   12.6756   40.1403 O   0  0  0  0  0  0  0  0  0  0  0  0
   -6.9132   13.0659   42.2120 C   0  0  0  0  0  0  0  0  0  0  0  0
   -7.9096   12.1484   41.6694 O   0  0  0  0  0  0  0  0  0  0  0  0
   -7.4793   16.8962   39.7575 C   0  0  2  0  0  0  0  0  0  0  0  0
   -6.9743   18.4028   40.0565 C   0  0  2  0  0  0  0  0  0  0  0  0
   -7.0767   18.6742   41.5270 N   0  0  0  0  0  0  0  0  0  0  0  0
   -7.8771   19.4151   39.1938 C   0  0  1  0  0  0  0  0  0  0  0  0
   -7.7085   19.0568   37.7885 O   0  0  0  0  0  0  0  0  0  0  0  0
   -9.4020   19.2795   39.6420 C   0  0  2  0  0  0  0  0  0  0  0  0
   -9.4930   19.6710   41.0663 O   0  0  0  0  0  0  0  0  0  0  0  0
   -9.8722   17.7384   39.3854 C   0  0  1  0  0  0  0  0  0  0  0  0
   -8.9689   16.8003   40.1460 O   0  0  0  0  0  0  0  0  0  0  0  0
  -11.3620   17.5645   39.8314 C   0  0  0  0  0  0  0  0  0  0  0  0
  -11.5575   17.7807   41.2985 N   0  0  0  0  0  0  0  0  0  0  0  0
  1  3  1  0  0  0  0
  1  2  1  1  0  0  0
  3  4  1  1  0  0  0
  3  5  1  0  0  0  0
  5  6  1  6  0  0  0
  7  8  1  1  0  0  0
  7  5  1  0  0  0  0
  9 11  1  6  0  0  0
  9  7  1  0  0  0  0
 10  9  1  0  0  0  0
 10  1  1  0  0  0  0
 12 11  1  0  0  0  0
 13 14  1  1  0  0  0
 15 13  1  0  0  0  0
 16 17  1  6  0  0  0
 16 15  1  0  0  0  0
 18  2  1  6  0  0  0
 18 19  1  0  0  0  0
 18 16  1  0  0  0  0
 19 20  1  1  0  0  0
 19 21  1  0  0  0  0
 21 22  1  1  0  0  0
 21 13  1  0  0  0  0
 23 20  1  6  0  0  0
 23 29  1  0  0  0  0
 24 25  1  1  0  0  0
 24 26  1  0  0  0  0
 24 23  1  0  0  0  0
 26 27  1  1  0  0  0
 26 28  1  0  0  0  0
 28 30  1  1  0  0  0
 29 28  1  0  0  0  0
 30 31  1  0  0  0  0
 32 27  1  1  0  0  0
 32 40  1  0  0  0  0
 33 35  1  0  0  0  0
 33 32  1  0  0  0  0
 33 34  1  1  0  0  0
 35 36  1  6  0  0  0
 35 37  1  0  0  0  0
 37 38  1  1  0  0  0
 37 39  1  0  0  0  0
 39 41  1  1  0  0  0
 40 39  1  0  0  0  0
 41 42  1  0  0  0  0
M  END
>  <CHROM.1>
-73.99993562,59.67570764,-73.84728734,157.95021740,-50.15972708,71.49676675
64.73576214,-165.67296354,-63.83630343,-5.71604019,14.65587404,37.76162041
-0.50183934,0.76134842,0.00092011

>  <Name>
lig.pdb

>  <RI>
0

>  <Rbt.Current_Directory>
/home/itssahil/PROJECTS/Mol_Feturizer/New_Systems/rnas/4wcr

>  <Rbt.Executable>
rbdock ($Id: //depot/dev/client3/rdock/2013.1/src/exe/rbdock.cxx#4 $)

>  <Rbt.Library>
libRbt.so (2013.1, Build901 2013/11/27)

>  <Rbt.Parameter_File>
/export/apps/rDock/src/rDock_2013.1_src/data/scripts/dock_solv.prm

>  <Rbt.Receptor>
prm/pocket_docking_7.prm

>  <SCORE>
-7.28412

>  <SCORE.INTER>
-4.39442

>  <SCORE.INTER.CONST>
1

>  <SCORE.INTER.POLAR>
0

>  <SCORE.INTER.ROT>
9

>  <SCORE.INTER.SOLV>
23.2513

>  <SCORE.INTER.VDW>
-20.28

>  <SCORE.INTER.norm>
-0.104629

>  <SCORE.INTRA>
-2.8897

>  <SCORE.INTRA.DIHEDRAL>
-9.61561

>  <SCORE.INTRA.DIHEDRAL.0>
16.2863

>  <SCORE.INTRA.POLAR>
0

>  <SCORE.INTRA.POLAR.0>
0

>  <SCORE.INTRA.REPUL>
-0.314433

>  <SCORE.INTRA.REPUL.0>
0.314433

>  <SCORE.INTRA.SOLV>
0.848117

>  <SCORE.INTRA.SOLV.lig_0>
-103.824

>  <SCORE.INTRA.VDW>
3.06621

>  <SCORE.INTRA.VDW.0>
-5.30945

>  <SCORE.INTRA.norm>
-0.0688024

>  <SCORE.RESTR>
0

>  <SCORE.RESTR.CAVITY>
0

>  <SCORE.RESTR.norm>
0

>  <SCORE.SYSTEM>
0

>  <SCORE.SYSTEM.CONST>
0

>  <SCORE.SYSTEM.DIHEDRAL>
0

>  <SCORE.SYSTEM.SOLV>
0

>  <SCORE.SYSTEM.norm>
0

>  <SCORE.heavy>
42

>  <SCORE.norm>
-0.173432

>  <RMSD>
8.376

$$$$
lig.pdb
 OpenBabel11021811513D
libRbt.so/2013.1/901 2013/11/27
 42 45  0  0  0  0  0  0  0  0999 V2000
   -1.2744   10.3137   37.9950 C   0  0  2  0  0  0  0  0  0  0  0  0
   -2.1202   10.4292   36.8082 O   0  0  0  0  0  0  0  0  0  0  0  0
   -2.2651   10.1132   39.2272 C   0  0  2  0  0  0  0  0  0  0  0  0
   -3.0324    8.8750   39.0671 N   0  0  0  0  0  0  0  0  0  0  0  0
   -3.2136   11.4042   39.3431 C   0  0  1  0  0  0  0  0  0  0  0  0
   -4.1270   11.2813   40.4535 O   0  0  0  0  0  0  0  0  0  0  0  0
   -2.2965   12.6296   39.4972 C   0  0  2  0  0  0  0  0  0  0  0  0
   -3.0839   13.7669   39.5985 O   0  0  0  0  0  0  0  0  0  0  0  0
   -1.3087   12.7302   38.2471 C   0  0  2  0  0  0  0  0  0  0  0  0
   -0.4909   11.5588   38.1347 O   0  0  0  0  0  0  0  0  0  0  0  0
   -0.3762   13.9029   38.3584 C   0  0  0  0  0  0  0  0  0  0  0  0
    0.4304   13.9271   37.1800 O   0  0  0  0  0  0  0  0  0  0  0  0
   -3.0378    7.4091   33.6762 C   0  0  2  0  0  0  0  0  0  0  0  0
   -3.5197    6.2039   33.0371 N   0  0  0  0  0  0  0  0  0  0  0  0
   -2.0655    7.0437   34.8636 C   0  0  0  0  0  0  0  0  0  0  0  0
   -1.5316    8.3354   35.5770 C   0  0  2  0  0  0  0  0  0  0  0  0
   -0.6425    7.9537   36.6723 N   0  0  0  0  0  0  0  0  0  0  0  0
   -2.7072    9.2371   36.1627 C   0  0  2  0  0  0  0  0  0  0  0  0
   -3.6363    9.6201   34.9746 C   0  0  2  0  0  0  0  0  0  0  0  0
   -4.7087   10.4749   35.6087 O   0  0  0  0  0  0  0  0  0  0  0  0
   -4.2395    8.2772   34.2817 C   0  0  1  0  0  0  0  0  0  0  0  0
   -5.0879    8.5134   33.1127 O   0  0  0  0  0  0  0  0  0  0  0  0
   -4.2296   11.7161   35.9360 C   0  0  1  0  0  0  0  0  0  0  0  0
   -3.8060   12.4959   34.7682 C   0  0  2  0  0  0  0  0  0  0  0  0
   -2.6175   11.9390   34.3056 O   0  0  0  0  0  0  0  0  0  0  0  0
   -3.8149   13.9277   35.3452 C   0  0  2  0  0  0  0  0  0  0  0  0
   -2.4623   14.4271   35.2425 O   0  0  0  0  0  0  0  0  0  0  0  0
   -4.2597   13.7676   36.7616 C   0  0  2  0  0  0  0  0  0  0  0  0
   -5.1437   12.6093   36.5501 O   0  0  0  0  0  0  0  0  0  0  0  0
   -5.0925   15.0068   37.2568 C   0  0  0  0  0  0  0  0  0  0  0  0
   -5.5121   14.9108   38.6510 O   0  0  0  0  0  0  0  0  0  0  0  0
   -2.2070   15.7584   35.7843 C   0  0  2  0  0  0  0  0  0  0  0  0
   -3.0671   16.8319   34.9345 C   0  0  2  0  0  0  0  0  0  0  0  0
   -2.6816   16.7387   33.4890 N   0  0  0  0  0  0  0  0  0  0  0  0
   -2.7833   18.2939   35.5396 C   0  0  1  0  0  0  0  0  0  0  0  0
   -3.1852   18.2681   36.9430 O   0  0  0  0  0  0  0  0  0  0  0  0
   -1.2326   18.6371   35.3925 C   0  0  2  0  0  0  0  0  0  0  0  0
   -0.9072   18.6583   33.9489 O   0  0  0  0  0  0  0  0  0  0  0  0
   -0.3825   17.5091   36.2090 C   0  0  1  0  0  0  0  0  0  0  0  0
   -0.7162   16.1388   35.6746 O   0  0  0  0  0  0  0  0  0  0  0  0
    1.1478   17.8055   36.0714 C   0  0  0  0  0  0  0  0  0  0  0  0
    1.5332   19.1386   36.6296 N   0  0  0  0  0  0  0  0  0  0  0  0
  1  3  1  0  0  0  0
  1  2  1  6  0  0  0
  3  4  1  6  0  0  0
  3  5  1  0  0  0  0
  5  6  1  1  0  0  0
  7  8  1  6  0  0  0
  7  5  1  0  0  0  0
  9 11  1  1  0  0  0
  9  7  1  0  0  0  0
 10  9  1  0  0  0  0
 10  1  1  0  0  0  0
 12 11  1  0  0  0  0
 13 14  1  1  0  0  0
 15 13  1  0  0  0  0
 16 17  1  1  0  0  0
 16 15  1  0  0  0  0
 18  2  1  6  0  0  0
 18 19  1  0  0  0  0
 18 16  1  0  0  0  0
 19 20  1  1  0  0  0
 19 21  1  0  0  0  0
 21 22  1  6  0  0  0
 21 13  1  0  0  0  0
 23 20  1  6  0  0  0
 23 29  1  0  0  0  0
 24 25  1  1  0  0  0
 24 26  1  0  0  0  0
 24 23  1  0  0  0  0
 26 27  1  1  0  0  0
 26 28  1  0  0  0  0
 28 30  1  6  0  0  0
 29 28  1  0  0  0  0
 30 31  1  0  0  0  0
 32 27  1  6  0  0  0
 32 40  1  0  0  0  0
 33 35  1  0  0  0  0
 33 32  1  0  0  0  0
 33 34  1  6  0  0  0
 35 36  1  1  0  0  0
 35 37  1  0  0  0  0
 37 38  1  6  0  0  0
 37 39  1  0  0  0  0
 39 41  1  6  0  0  0
 40 39  1  0  0  0  0
 41 42  1  0  0  0  0
M  END
>  <CHROM.1>
-79.06811180,-178.22384812,-64.94665531,73.50010796,63.55027235,-177.42220680
-178.18042274,-63.71039577,60.70388128,-2.52709449,12.85566213,36.37702868
-2.45261147,-1.32109111,-0.83360038

>  <Name>
lig.pdb

>  <RI>
0

>  <Rbt.Current_Directory>
/home/itssahil/PROJECTS/Mol_Feturizer/New_Systems/rnas/4wcr

>  <Rbt.Executable>
rbdock ($Id: //depot/dev/client3/rdock/2013.1/src/exe/rbdock.cxx#4 $)

>  <Rbt.Library>
libRbt.so (2013.1, Build901 2013/11/27)

>  <Rbt.Parameter_File>
/export/apps/rDock/src/rDock_2013.1_src/data/scripts/dock_solv.prm

>  <Rbt.Receptor>
prm/pocket_docking_3.prm

>  <SCORE>
-3.46367

>  <SCORE.INTER>
3.4467

>  <SCORE.INTER.CONST>
1

>  <SCORE.INTER.POLAR>
0

>  <SCORE.INTER.ROT>
9

>  <SCORE.INTER.SOLV>
15.6324

>  <SCORE.INTER.VDW>
-12.513

>  <SCORE.INTER.norm>
0.0820642

>  <SCORE.INTRA>
-6.91037

>  <SCORE.INTRA.DIHEDRAL>
-12.9264

>  <SCORE.INTRA.DIHEDRAL.0>
16.2863

>  <SCORE.INTRA.POLAR>
0

>  <SCORE.INTRA.POLAR.0>
0

>  <SCORE.INTRA.REPUL>
-0.314433

>  <SCORE.INTRA.REPUL.0>
0.314433

>  <SCORE.INTRA.SOLV>
1.2277

>  <SCORE.INTRA.SOLV.lig_0>
-103.824

>  <SCORE.INTRA.VDW>
0.511156

>  <SCORE.INTRA.VDW.0>
-5.30945

>  <SCORE.INTRA.norm>
-0.164533

>  <SCORE.RESTR>
0

>  <SCORE.RESTR.CAVITY>
0

>  <SCORE.RESTR.norm>
0

>  <SCORE.SYSTEM>
0

>  <SCORE.SYSTEM.CONST>
0

>  <SCORE.SYSTEM.DIHEDRAL>
0

>  <SCORE.SYSTEM.SOLV>
0

>  <SCORE.SYSTEM.norm>
0

>  <SCORE.heavy>
42

>  <SCORE.norm>
-0.0824684

>  <RMSD>
8.379

$$$$
lig.pdb
 OpenBabel11021811513D
libRbt.so/2013.1/901 2013/11/27
 42 45  0  0  0  0  0  0  0  0999 V2000
   -3.6907    9.9538   33.8968 C   0  0  2  0  0  0  0  0  0  0  0  0
   -4.6809    9.7134   34.9450 O   0  0  0  0  0  0  0  0  0  0  0  0
   -3.6459    8.6259   33.0166 C   0  0  2  0  0  0  0  0  0  0  0  0
   -4.9501    8.3844   32.3932 N   0  0  0  0  0  0  0  0  0  0  0  0
   -3.1834    7.4030   33.9494 C   0  0  1  0  0  0  0  0  0  0  0  0
   -3.1144    6.1725   33.1986 O   0  0  0  0  0  0  0  0  0  0  0  0
   -1.8168    7.7789   34.5472 C   0  0  2  0  0  0  0  0  0  0  0  0
   -1.3857    6.7431   35.3627 O   0  0  0  0  0  0  0  0  0  0  0  0
   -1.9400    9.1399   35.3723 C   0  0  2  0  0  0  0  0  0  0  0  0
   -2.3850   10.2161   34.5372 O   0  0  0  0  0  0  0  0  0  0  0  0
   -0.6247    9.5625   35.9627 C   0  0  0  0  0  0  0  0  0  0  0  0
   -0.8594   10.7311   36.7493 O   0  0  0  0  0  0  0  0  0  0  0  0
   -6.9100   12.5101   37.5874 C   0  0  2  0  0  0  0  0  0  0  0  0
   -7.2151   13.4165   38.6730 N   0  0  0  0  0  0  0  0  0  0  0  0
   -6.3848   11.1359   38.1573 C   0  0  0  0  0  0  0  0  0  0  0  0
   -6.0422   10.1353   36.9981 C   0  0  2  0  0  0  0  0  0  0  0  0
   -5.5537    8.8809   37.5670 N   0  0  0  0  0  0  0  0  0  0  0  0
   -4.9379   10.7106   36.0041 C   0  0  2  0  0  0  0  0  0  0  0  0
   -5.4858   12.0458   35.4220 C   0  0  2  0  0  0  0  0  0  0  0  0
   -4.3926   12.5156   34.4909 O   0  0  0  0  0  0  0  0  0  0  0  0
   -5.7755   13.1024   36.6250 C   0  0  1  0  0  0  0  0  0  0  0  0
   -6.3481   14.3804   36.1996 O   0  0  0  0  0  0  0  0  0  0  0  0
   -3.6430   13.5100   35.0623 C   0  0  1  0  0  0  0  0  0  0  0  0
   -2.3549   13.7171   34.3921 C   0  0  2  0  0  0  0  0  0  0  0  0
   -1.5382   12.6388   34.7189 O   0  0  0  0  0  0  0  0  0  0  0  0
   -1.9904   15.1369   34.8764 C   0  0  2  0  0  0  0  0  0  0  0  0
   -0.7500   15.0217   35.6097 O   0  0  0  0  0  0  0  0  0  0  0  0
   -3.1323   15.5506   35.7451 C   0  0  2  0  0  0  0  0  0  0  0  0
   -4.1885   14.8183   35.0268 O   0  0  0  0  0  0  0  0  0  0  0  0
   -3.3937   17.0999   35.6691 C   0  0  0  0  0  0  0  0  0  0  0  0
   -3.6966   17.5772   34.3240 O   0  0  0  0  0  0  0  0  0  0  0  0
   -0.3860   16.1421   36.4718 C   0  0  2  0  0  0  0  0  0  0  0  0
    1.1756   16.0001   36.8660 C   0  0  2  0  0  0  0  0  0  0  0  0
    1.3941   14.6830   37.5473 N   0  0  0  0  0  0  0  0  0  0  0  0
    1.5689   17.2390   37.8117 C   0  0  1  0  0  0  0  0  0  0  0  0
    1.3108   18.4610   37.0557 O   0  0  0  0  0  0  0  0  0  0  0  0
    0.6905   17.1905   39.1423 C   0  0  2  0  0  0  0  0  0  0  0  0
    1.0172   15.9362   39.8565 O   0  0  0  0  0  0  0  0  0  0  0  0
   -0.8821   17.2771   38.7168 C   0  0  1  0  0  0  0  0  0  0  0  0
   -1.2139   16.1482   37.7732 O   0  0  0  0  0  0  0  0  0  0  0  0
   -1.7759   17.2144   39.9997 C   0  0  0  0  0  0  0  0  0  0  0  0
   -3.2313   17.3885   39.7020 N   0  0  0  0  0  0  0  0  0  0  0  0
  1  3  1  0  0  0  0
  1  2  1  1  0  0  0
  3  4  1  1  0  0  0
  3  5  1  0  0  0  0
  5  6  1  6  0  0  0
  7  8  1  1  0  0  0
  7  5  1  0  0  0  0
  9 11  1  6  0  0  0
  9  7  1  0  0  0  0
 10  9  1  0  0  0  0
 10  1  1  0  0  0  0
 12 11  1  0  0  0  0
 13 14  1  1  0  0  0
 15 13  1  0  0  0  0
 16 17  1  1  0  0  0
 16 15  1  0  0  0  0
 18  2  1  6  0  0  0
 18 19  1  0  0  0  0
 18 16  1  0  0  0  0
 19 20  1  6  0  0  0
 19 21  1  0  0  0  0
 21 22  1  6  0  0  0
 21 13  1  0  0  0  0
 23 20  1  6  0  0  0
 23 29  1  0  0  0  0
 24 25  1  1  0  0  0
 24 26  1  0  0  0  0
 24 23  1  0  0  0  0
 26 27  1  1  0  0  0
 26 28  1  0  0  0  0
 28 30  1  6  0  0  0
 29 28  1  0  0  0  0
 30 31  1  0  0  0  0
 32 27  1  6  0  0  0
 32 40  1  0  0  0  0
 33 35  1  0  0  0  0
 33 32  1  0  0  0  0
 33 34  1  1  0  0  0
 35 36  1  6  0  0  0
 35 37  1  0  0  0  0
 37 38  1  6  0  0  0
 37 39  1  0  0  0  0
 39 41  1  1  0  0  0
 40 39  1  0  0  0  0
 41 42  1  0  0  0  0
M  END
>  <CHROM.1>
176.55589912,-176.15977536,-178.84892742,-101.85691841,162.73260092,-163.68241058
59.14381900,-164.73533630,175.81074469,-2.74864878,12.90977814,36.13000998
-1.92165976,0.04227598,0.36801899

>  <Name>
lig.pdb

>  <RI>
0

>  <Rbt.Current_Directory>
/home/itssahil/PROJECTS/Mol_Feturizer/New_Systems/rnas/4wcr

>  <Rbt.Executable>
rbdock ($Id: //depot/dev/client3/rdock/2013.1/src/exe/rbdock.cxx#4 $)

>  <Rbt.Library>
libRbt.so (2013.1, Build901 2013/11/27)

>  <Rbt.Parameter_File>
/export/apps/rDock/src/rDock_2013.1_src/data/scripts/dock_solv.prm

>  <Rbt.Receptor>
prm/pocket_docking_4.prm

>  <SCORE>
-4.40228

>  <SCORE.INTER>
-1.7263

>  <SCORE.INTER.CONST>
1

>  <SCORE.INTER.POLAR>
0

>  <SCORE.INTER.ROT>
9

>  <SCORE.INTER.SOLV>
18.4784

>  <SCORE.INTER.VDW>
-16.9103

>  <SCORE.INTER.norm>
-0.0411024

>  <SCORE.INTRA>
-2.68274

>  <SCORE.INTRA.DIHEDRAL>
-6.20165

>  <SCORE.INTRA.DIHEDRAL.0>
16.2863

>  <SCORE.INTRA.POLAR>
0

>  <SCORE.INTRA.POLAR.0>
0

>  <SCORE.INTRA.REPUL>
-0.270312

>  <SCORE.INTRA.REPUL.0>
0.314433

>  <SCORE.INTRA.SOLV>
-3.82876

>  <SCORE.INTRA.SOLV.lig_0>
-103.824

>  <SCORE.INTRA.VDW>
3.68403

>  <SCORE.INTRA.VDW.0>
-5.30945

>  <SCORE.INTRA.norm>
-0.0638747

>  <SCORE.RESTR>
0.00675499

>  <SCORE.RESTR.CAVITY>
0.00675499

>  <SCORE.RESTR.norm>
0.000160833

>  <SCORE.SYSTEM>
0

>  <SCORE.SYSTEM.CONST>
0

>  <SCORE.SYSTEM.DIHEDRAL>
0

>  <SCORE.SYSTEM.SOLV>
0

>  <SCORE.SYSTEM.norm>
0

>  <SCORE.heavy>
42

>  <SCORE.norm>
-0.104816

>  <RMSD>
8.380

$$$$
lig.pdb
 OpenBabel11021811513D
libRbt.so/2013.1/901 2013/11/27
 42 45  0  0  0  0  0  0  0  0999 V2000
   -1.0493   16.5885   36.9472 C   0  0  2  0  0  0  0  0  0  0  0  0
   -0.4108   17.8833   36.7174 O   0  0  0  0  0  0  0  0  0  0  0  0
   -1.6143   16.6313   38.4368 C   0  0  2  0  0  0  0  0  0  0  0  0
   -2.6204   17.6886   38.5693 N   0  0  0  0  0  0  0  0  0  0  0  0
   -0.3847   16.8334   39.4503 C   0  0  1  0  0  0  0  0  0  0  0  0
   -0.8389   16.8683   40.8196 O   0  0  0  0  0  0  0  0  0  0  0  0
    0.5982   15.6748   39.2090 C   0  0  2  0  0  0  0  0  0  0  0  0
    1.6772   15.8181   40.0686 O   0  0  0  0  0  0  0  0  0  0  0  0
    1.0784   15.6773   37.6866 C   0  0  2  0  0  0  0  0  0  0  0  0
   -0.0305   15.5296   36.7910 O   0  0  0  0  0  0  0  0  0  0  0  0
    2.0279   14.5505   37.3931 C   0  0  0  0  0  0  0  0  0  0  0  0
    1.3301   13.3260   37.6241 O   0  0  0  0  0  0  0  0  0  0  0  0
   -0.6339   20.7778   33.3492 C   0  0  2  0  0  0  0  0  0  0  0  0
   -0.4266   21.3885   32.0542 N   0  0  0  0  0  0  0  0  0  0  0  0
    0.7537   20.4691   34.0334 C   0  0  0  0  0  0  0  0  0  0  0  0
    0.5562   19.8013   35.4396 C   0  0  2  0  0  0  0  0  0  0  0  0
    1.8622   19.5258   36.0349 N   0  0  0  0  0  0  0  0  0  0  0  0
   -0.2658   18.4390   35.3563 C   0  0  2  0  0  0  0  0  0  0  0  0
   -1.6451   18.7662   34.7143 C   0  0  2  0  0  0  0  0  0  0  0  0
   -2.3590   17.4350   34.6815 O   0  0  0  0  0  0  0  0  0  0  0  0
   -1.4345   19.3962   33.2290 C   0  0  1  0  0  0  0  0  0  0  0  0
   -2.6666   19.7955   32.5473 O   0  0  0  0  0  0  0  0  0  0  0  0
   -3.0426   17.2636   33.5065 C   0  0  1  0  0  0  0  0  0  0  0  0
   -3.7372   15.9743   33.4274 C   0  0  2  0  0  0  0  0  0  0  0  0
   -2.7695   14.9917   33.2404 O   0  0  0  0  0  0  0  0  0  0  0  0
   -4.7726   16.2596   32.3186 C   0  0  2  0  0  0  0  0  0  0  0  0
   -4.4950   15.3366   31.2413 O   0  0  0  0  0  0  0  0  0  0  0  0
   -4.5354   17.6815   31.9292 C   0  0  2  0  0  0  0  0  0  0  0  0
   -4.1044   18.1677   33.2504 O   0  0  0  0  0  0  0  0  0  0  0  0
   -5.8657   18.3977   31.4911 C   0  0  0  0  0  0  0  0  0  0  0  0
   -5.7023   19.8225   31.2221 O   0  0  0  0  0  0  0  0  0  0  0  0
   -5.6175   14.9631   30.3860 C   0  0  2  0  0  0  0  0  0  0  0  0
   -5.2836   13.5412   29.6927 C   0  0  2  0  0  0  0  0  0  0  0  0
   -4.0088   13.6602   28.9133 N   0  0  0  0  0  0  0  0  0  0  0  0
   -6.5255   13.1357   28.7561 C   0  0  1  0  0  0  0  0  0  0  0  0
   -7.7062   13.0566   29.6112 O   0  0  0  0  0  0  0  0  0  0  0  0
   -6.7135   14.2374   27.6179 C   0  0  2  0  0  0  0  0  0  0  0  0
   -5.4876   14.2475   26.7890 O   0  0  0  0  0  0  0  0  0  0  0  0
   -6.9918   15.6731   28.3411 C   0  0  1  0  0  0  0  0  0  0  0  0
   -5.8497   16.0019   29.2696 O   0  0  0  0  0  0  0  0  0  0  0  0
   -7.1643   16.7833   27.2519 C   0  0  0  0  0  0  0  0  0  0  0  0
   -7.5625   18.1048   27.8282 N   0  0  0  0  0  0  0  0  0  0  0  0
  1  3  1  0  0  0  0
  1  2  1  1  0  0  0
  3  4  1  6  0  0  0
  3  5  1  0  0  0  0
  5  6  1  1  0  0  0
  7  8  1  1  0  0  0
  7  5  1  0  0  0  0
  9 11  1  1  0  0  0
  9  7  1  0  0  0  0
 10  9  1  0  0  0  0
 10  1  1  0  0  0  0
 12 11  1  0  0  0  0
 13 14  1  6  0  0  0
 15 13  1  0  0  0  0
 16 17  1  6  0  0  0
 16 15  1  0  0  0  0
 18  2  1  1  0  0  0
 18 19  1  0  0  0  0
 18 16  1  0  0  0  0
 19 20  1  6  0  0  0
 19 21  1  0  0  0  0
 21 22  1  1  0  0  0
 21 13  1  0  0  0  0
 23 20  1  1  0  0  0
 23 29  1  0  0  0  0
 24 25  1  6  0  0  0
 24 26  1  0  0  0  0
 24 23  1  0  0  0  0
 26 27  1  6  0  0  0
 26 28  1  0  0  0  0
 28 30  1  1  0  0  0
 29 28  1  0  0  0  0
 30 31  1  0  0  0  0
 32 27  1  1  0  0  0
 32 40  1  0  0  0  0
 33 35  1  0  0  0  0
 33 32  1  0  0  0  0
 33 34  1  6  0  0  0
 35 36  1  1  0  0  0
 35 37  1  0  0  0  0
 37 38  1  1  0  0  0
 37 39  1  0  0  0  0
 39 41  1  6  0  0  0
 40 39  1  0  0  0  0
 41 42  1  0  0  0  0
M  END
>  <CHROM.1>
-154.64936506,61.90095870,-176.05362077,-138.95093927,179.28603004,152.70380209
174.58029949,-156.78071921,174.08454730,-2.72837464,16.79335549,33.51622987
0.15164581,0.93957484,2.79463616

>  <Name>
lig.pdb

>  <RI>
0

>  <Rbt.Current_Directory>
/home/itssahil/PROJECTS/Mol_Feturizer/New_Systems/rnas/4wcr

>  <Rbt.Executable>
rbdock ($Id: //depot/dev/client3/rdock/2013.1/src/exe/rbdock.cxx#4 $)

>  <Rbt.Library>
libRbt.so (2013.1, Build901 2013/11/27)

>  <Rbt.Parameter_File>
/export/apps/rDock/src/rDock_2013.1_src/data/scripts/dock_solv.prm

>  <Rbt.Receptor>
prm/blind_docking_60.prm

>  <SCORE>
-7.77226

>  <SCORE.INTER>
-12.3752

>  <SCORE.INTER.CONST>
1

>  <SCORE.INTER.POLAR>
0

>  <SCORE.INTER.ROT>
9

>  <SCORE.INTER.SOLV>
34.423

>  <SCORE.INTER.VDW>
-29.3244

>  <SCORE.INTER.norm>
-0.294647

>  <SCORE.INTRA>
1.33883

>  <SCORE.INTRA.DIHEDRAL>
-1.75284

>  <SCORE.INTRA.DIHEDRAL.0>
16.2863

>  <SCORE.INTRA.POLAR>
0

>  <SCORE.INTRA.POLAR.0>
0

>  <SCORE.INTRA.REPUL>
-0.314433

>  <SCORE.INTRA.REPUL.0>
0.314433

>  <SCORE.INTRA.SOLV>
-4.42552

>  <SCORE.INTRA.SOLV.lig_0>
-103.824

>  <SCORE.INTRA.VDW>
6.00018

>  <SCORE.INTRA.VDW.0>
-5.30945

>  <SCORE.INTRA.norm>
0.0318769

>  <SCORE.RESTR>
3.26408

>  <SCORE.RESTR.CAVITY>
3.26408

>  <SCORE.RESTR.norm>
0.0777161

>  <SCORE.SYSTEM>
0

>  <SCORE.SYSTEM.CONST>
0

>  <SCORE.SYSTEM.DIHEDRAL>
0

>  <SCORE.SYSTEM.SOLV>
0

>  <SCORE.SYSTEM.norm>
0

>  <SCORE.heavy>
42

>  <SCORE.norm>
-0.185054

>  <RMSD>
8.427

$$$$
lig.pdb
 OpenBabel11021811513D
libRbt.so/2013.1/901 2013/11/27
 42 45  0  0  0  0  0  0  0  0999 V2000
   -3.0912   24.5138   32.8921 C   0  0  2  0  0  0  0  0  0  0  0  0
   -2.9580   23.7753   34.1468 O   0  0  0  0  0  0  0  0  0  0  0  0
   -4.6242   24.3996   32.4715 C   0  0  2  0  0  0  0  0  0  0  0  0
   -5.4779   25.0251   33.4852 N   0  0  0  0  0  0  0  0  0  0  0  0
   -4.9844   22.8506   32.2467 C   0  0  1  0  0  0  0  0  0  0  0  0
   -6.3630   22.6885   31.8518 O   0  0  0  0  0  0  0  0  0  0  0  0
   -4.0213   22.3108   31.1755 C   0  0  2  0  0  0  0  0  0  0  0  0
   -4.3029   20.9706   30.9562 O   0  0  0  0  0  0  0  0  0  0  0  0
   -2.5110   22.5045   31.6550 C   0  0  2  0  0  0  0  0  0  0  0  0
   -2.2111   23.8869   31.8841 O   0  0  0  0  0  0  0  0  0  0  0  0
   -1.5272   22.0093   30.6332 C   0  0  0  0  0  0  0  0  0  0  0  0
   -0.2255   22.0803   31.2165 O   0  0  0  0  0  0  0  0  0  0  0  0
    1.3026   22.5056   34.2375 C   0  0  2  0  0  0  0  0  0  0  0  0
    2.6375   22.2285   34.7213 N   0  0  0  0  0  0  0  0  0  0  0  0
    0.9213   24.0094   34.5238 C   0  0  0  0  0  0  0  0  0  0  0  0
   -0.5259   24.3347   34.0118 C   0  0  2  0  0  0  0  0  0  0  0  0
   -0.8419   25.7318   34.3021 N   0  0  0  0  0  0  0  0  0  0  0  0
   -1.6327   23.4088   34.6869 C   0  0  2  0  0  0  0  0  0  0  0  0
   -1.2640   21.9318   34.3643 C   0  0  2  0  0  0  0  0  0  0  0  0
   -2.3587   21.1278   35.0261 O   0  0  0  0  0  0  0  0  0  0  0  0
    0.2103   21.5818   34.9570 C   0  0  1  0  0  0  0  0  0  0  0  0
    0.6883   20.2297   34.6648 O   0  0  0  0  0  0  0  0  0  0  0  0
   -2.4175   19.8548   34.5228 C   0  0  1  0  0  0  0  0  0  0  0  0
   -2.9266   18.8765   35.4897 C   0  0  2  0  0  0  0  0  0  0  0  0
   -1.9283   18.6705   36.4372 O   0  0  0  0  0  0  0  0  0  0  0  0
   -3.3530   17.7250   34.5541 C   0  0  2  0  0  0  0  0  0  0  0  0
   -2.5624   16.5727   34.9239 O   0  0  0  0  0  0  0  0  0  0  0  0
   -3.0424   18.2142   33.1779 C   0  0  2  0  0  0  0  0  0  0  0  0
   -3.2920   19.6437   33.4268 O   0  0  0  0  0  0  0  0  0  0  0  0
   -4.0614   17.6589   32.1159 C   0  0  0  0  0  0  0  0  0  0  0  0
   -5.3040   18.4202   32.0428 O   0  0  0  0  0  0  0  0  0  0  0  0
   -2.8720   15.9428   36.2039 C   0  0  2  0  0  0  0  0  0  0  0  0
   -1.7707   14.7942   36.4903 C   0  0  2  0  0  0  0  0  0  0  0  0
   -1.7888   13.8029   35.3662 N   0  0  0  0  0  0  0  0  0  0  0  0
   -2.1164   14.1086   37.9025 C   0  0  1  0  0  0  0  0  0  0  0  0
   -2.0784   15.1591   38.9157 O   0  0  0  0  0  0  0  0  0  0  0  0
   -3.5609   13.4362   37.8263 C   0  0  2  0  0  0  0  0  0  0  0  0
   -3.5151   12.3781   36.7926 O   0  0  0  0  0  0  0  0  0  0  0  0
   -4.6472   14.6030   37.4798 C   0  0  1  0  0  0  0  0  0  0  0  0
   -4.2657   15.2822   36.1883 O   0  0  0  0  0  0  0  0  0  0  0  0
   -6.0767   13.9745   37.3799 C   0  0  0  0  0  0  0  0  0  0  0  0
   -6.1608   12.8831   36.3606 N   0  0  0  0  0  0  0  0  0  0  0  0
  1  3  1  0  0  0  0
  1  2  1  1  0  0  0
  3  4  1  1  0  0  0
  3  5  1  0  0  0  0
  5  6  1  6  0  0  0
  7  8  1  1  0  0  0
  7  5  1  0  0  0  0
  9 11  1  6  0  0  0
  9  7  1  0  0  0  0
 10  9  1  0  0  0  0
 10  1  1  0  0  0  0
 12 11  1  0  0  0  0
 13 14  1  1  0  0  0
 15 13  1  0  0  0  0
 16 17  1  1  0  0  0
 16 15  1  0  0  0  0
 18  2  1  6  0  0  0
 18 19  1  0  0  0  0
 18 16  1  0  0  0  0
 19 20  1  1  0  0  0
 19 21  1  0  0  0  0
 21 22  1  6  0  0  0
 21 13  1  0  0  0  0
 23 20  1  1  0  0  0
 23 29  1  0  0  0  0
 24 25  1  1  0  0  0
 24 26  1  0  0  0  0
 24 23  1  0  0  0  0
 26 27  1  1  0  0  0
 26 28  1  0  0  0  0
 28 30  1  6  0  0  0
 29 28  1  0  0  0  0
 30 31  1  0  0  0  0
 32 27  1  6  0  0  0
 32 40  1  0  0  0  0
 33 35  1  0  0  0  0
 33 32  1  0  0  0  0
 33 34  1  6  0  0  0
 35 36  1  1  0  0  0
 35 37  1  0  0  0  0
 37 38  1  6  0  0  0
 37 39  1  0  0  0  0
 39 41  1  6  0  0  0
 40 39  1  0  0  0  0
 41 42  1  0  0  0  0
M  END
>  <CHROM.1>
166.34752245,-173.30174351,19.17509339,162.05294221,151.42214987,70.75384085
82.62070886,-173.65677334,-57.28165174,-2.65672235,19.64729109,34.35931771
1.40259013,-0.44054262,-0.46590327

>  <Name>
lig.pdb

>  <RI>
0

>  <Rbt.Current_Directory>
/home/itssahil/PROJECTS/Mol_Feturizer/New_Systems/rnas/4wcr

>  <Rbt.Executable>
rbdock ($Id: //depot/dev/client3/rdock/2013.1/src/exe/rbdock.cxx#4 $)

>  <Rbt.Library>
libRbt.so (2013.1, Build901 2013/11/27)

>  <Rbt.Parameter_File>
/export/apps/rDock/src/rDock_2013.1_src/data/scripts/dock_solv.prm

>  <Rbt.Receptor>
prm/pocket_docking_7.prm

>  <SCORE>
-6.96343

>  <SCORE.INTER>
-3.98252

>  <SCORE.INTER.CONST>
1

>  <SCORE.INTER.POLAR>
0

>  <SCORE.INTER.ROT>
9

>  <SCORE.INTER.SOLV>
21.057

>  <SCORE.INTER.VDW>
-19.274

>  <SCORE.INTER.norm>
-0.0948219

>  <SCORE.INTRA>
-2.98092

>  <SCORE.INTRA.DIHEDRAL>
-2.29727

>  <SCORE.INTRA.DIHEDRAL.0>
16.2863

>  <SCORE.INTRA.POLAR>
0

>  <SCORE.INTRA.POLAR.0>
0

>  <SCORE.INTRA.REPUL>
-0.314433

>  <SCORE.INTRA.REPUL.0>
0.314433

>  <SCORE.INTRA.SOLV>
-0.68926

>  <SCORE.INTRA.SOLV.lig_0>
-103.824

>  <SCORE.INTRA.VDW>
0.0845119

>  <SCORE.INTRA.VDW.0>
-5.30945

>  <SCORE.INTRA.norm>
-0.0709742

>  <SCORE.RESTR>
0

>  <SCORE.RESTR.CAVITY>
0

>  <SCORE.RESTR.norm>
0

>  <SCORE.SYSTEM>
0

>  <SCORE.SYSTEM.CONST>
0

>  <SCORE.SYSTEM.DIHEDRAL>
0

>  <SCORE.SYSTEM.SOLV>
0

>  <SCORE.SYSTEM.norm>
0

>  <SCORE.heavy>
42

>  <SCORE.norm>
-0.165796

>  <RMSD>
8.429

$$$$
lig.pdb
 OpenBabel11021811513D
libRbt.so/2013.1/901 2013/11/27
 42 45  0  0  0  0  0  0  0  0999 V2000
   -0.3417   17.9751   36.5334 C   0  0  2  0  0  0  0  0  0  0  0  0
    0.0682   17.9388   35.1306 O   0  0  0  0  0  0  0  0  0  0  0  0
    0.9155   17.4744   37.3754 C   0  0  2  0  0  0  0  0  0  0  0  0
    2.0490   18.3839   37.1869 N   0  0  0  0  0  0  0  0  0  0  0  0
    1.2653   15.9695   36.9363 C   0  0  1  0  0  0  0  0  0  0  0  0
    2.3934   15.4596   37.6780 O   0  0  0  0  0  0  0  0  0  0  0  0
    0.0031   15.1223   37.1719 C   0  0  2  0  0  0  0  0  0  0  0  0
    0.2685   13.8126   36.8007 O   0  0  0  0  0  0  0  0  0  0  0  0
   -1.2159   15.7171   36.3301 C   0  0  2  0  0  0  0  0  0  0  0  0
   -1.4973   17.0706   36.7072 O   0  0  0  0  0  0  0  0  0  0  0  0
   -2.4812   14.9347   36.5404 C   0  0  0  0  0  0  0  0  0  0  0  0
   -3.5105   15.5637   35.7757 O   0  0  0  0  0  0  0  0  0  0  0  0
   -1.9421   21.5046   33.3938 C   0  0  2  0  0  0  0  0  0  0  0  0
   -2.4686   22.4426   32.4264 N   0  0  0  0  0  0  0  0  0  0  0  0
   -0.4050   21.2615   33.1352 C   0  0  0  0  0  0  0  0  0  0  0  0
    0.1899   20.2429   34.1701 C   0  0  2  0  0  0  0  0  0  0  0  0
    1.6102   20.0406   33.8919 N   0  0  0  0  0  0  0  0  0  0  0  0
   -0.5464   18.8307   34.1261 C   0  0  2  0  0  0  0  0  0  0  0  0
   -2.0538   19.0822   34.4198 C   0  0  2  0  0  0  0  0  0  0  0  0
   -2.6718   17.7045   34.3696 O   0  0  0  0  0  0  0  0  0  0  0  0
   -2.6804   20.0865   33.3034 C   0  0  1  0  0  0  0  0  0  0  0  0
   -4.0854   20.4403   33.5104 O   0  0  0  0  0  0  0  0  0  0  0  0
   -3.3190   17.4903   33.1811 C   0  0  1  0  0  0  0  0  0  0  0  0
   -3.9406   16.1647   33.0950 C   0  0  2  0  0  0  0  0  0  0  0  0
   -2.9171   15.2354   32.9350 O   0  0  0  0  0  0  0  0  0  0  0  0
   -4.9654   16.3877   31.9622 C   0  0  2  0  0  0  0  0  0  0  0  0
   -4.6144   15.4758   30.8968 O   0  0  0  0  0  0  0  0  0  0  0  0
   -4.7974   17.8184   31.5693 C   0  0  2  0  0  0  0  0  0  0  0  0
   -4.4226   18.3339   32.8966 O   0  0  0  0  0  0  0  0  0  0  0  0
   -6.1546   18.4589   31.0981 C   0  0  0  0  0  0  0  0  0  0  0  0
   -6.0290   19.8482   30.6700 O   0  0  0  0  0  0  0  0  0  0  0  0
   -5.7099   14.9598   30.0817 C   0  0  2  0  0  0  0  0  0  0  0  0
   -5.2732   13.5213   29.4864 C   0  0  2  0  0  0  0  0  0  0  0  0
   -4.0151   13.6801   28.6873 N   0  0  0  0  0  0  0  0  0  0  0  0
   -6.4858   12.9587   28.5936 C   0  0  1  0  0  0  0  0  0  0  0  0
   -7.6527   12.8520   29.4646 O   0  0  0  0  0  0  0  0  0  0  0  0
   -6.7623   13.9598   27.3830 C   0  0  2  0  0  0  0  0  0  0  0  0
   -5.5450   14.0031   26.5426 O   0  0  0  0  0  0  0  0  0  0  0  0
   -7.1445   15.4183   28.0066 C   0  0  1  0  0  0  0  0  0  0  0  0
   -6.0256   15.8966   28.8976 O   0  0  0  0  0  0  0  0  0  0  0  0
   -7.4058   16.4325   26.8440 C   0  0  0  0  0  0  0  0  0  0  0  0
   -8.6229   16.0955   26.0425 N   0  0  0  0  0  0  0  0  0  0  0  0
  1  3  1  0  0  0  0
  1  2  1  6  0  0  0
  3  4  1  6  0  0  0
  3  5  1  0  0  0  0
  5  6  1  1  0  0  0
  7  8  1  6  0  0  0
  7  5  1  0  0  0  0
  9 11  1  1  0  0  0
  9  7  1  0  0  0  0
 10  9  1  0  0  0  0
 10  1  1  0  0  0  0
 12 11  1  0  0  0  0
 13 14  1  6  0  0  0
 15 13  1  0  0  0  0
 16 17  1  6  0  0  0
 16 15  1  0  0  0  0
 18  2  1  1  0  0  0
 18 19  1  0  0  0  0
 18 16  1  0  0  0  0
 19 20  1  6  0  0  0
 19 21  1  0  0  0  0
 21 22  1  1  0  0  0
 21 13  1  0  0  0  0
 23 20  1  1  0  0  0
 23 29  1  0  0  0  0
 24 25  1  6  0  0  0
 24 26  1  0  0  0  0
 24 23  1  0  0  0  0
 26 27  1  6  0  0  0
 26 28  1  0  0  0  0
 28 30  1  1  0  0  0
 29 28  1  0  0  0  0
 30 31  1  0  0  0  0
 32 27  1  6  0  0  0
 32 40  1  0  0  0  0
 33 35  1  0  0  0  0
 33 32  1  0  0  0  0
 33 34  1  6  0  0  0
 35 36  1  1  0  0  0
 35 37  1  0  0  0  0
 37 38  1  6  0  0  0
 37 39  1  0  0  0  0
 39 41  1  6  0  0  0
 40 39  1  0  0  0  0
 41 42  1  0  0  0  0
M  END
>  <CHROM.1>
-153.25993213,178.56654883,83.76176403,-101.50180903,-179.67088247,148.28143234
-178.43062093,-153.14713787,66.56816550,-3.08685499,16.93030599,32.74850787
-0.14608518,0.87310136,3.01682459

>  <Name>
lig.pdb

>  <RI>
0

>  <Rbt.Current_Directory>
/home/itssahil/PROJECTS/Mol_Feturizer/New_Systems/rnas/4wcr

>  <Rbt.Executable>
rbdock ($Id: //depot/dev/client3/rdock/2013.1/src/exe/rbdock.cxx#4 $)

>  <Rbt.Library>
libRbt.so (2013.1, Build901 2013/11/27)

>  <Rbt.Parameter_File>
/export/apps/rDock/src/rDock_2013.1_src/data/scripts/dock_solv.prm

>  <Rbt.Receptor>
prm/blind_docking_100.prm

>  <SCORE>
-3.95059

>  <SCORE.INTER>
-12.7755

>  <SCORE.INTER.CONST>
1

>  <SCORE.INTER.POLAR>
0

>  <SCORE.INTER.ROT>
9

>  <SCORE.INTER.SOLV>
36.7872

>  <SCORE.INTER.VDW>
-30.3794

>  <SCORE.INTER.norm>
-0.304178

>  <SCORE.INTRA>
6.3085

>  <SCORE.INTRA.DIHEDRAL>
2.31262

>  <SCORE.INTRA.DIHEDRAL.0>
16.2863

>  <SCORE.INTRA.POLAR>
0

>  <SCORE.INTRA.POLAR.0>
0

>  <SCORE.INTRA.REPUL>
-0.314433

>  <SCORE.INTRA.REPUL.0>
0.314433

>  <SCORE.INTRA.SOLV>
-2.39865

>  <SCORE.INTRA.SOLV.lig_0>
-103.824

>  <SCORE.INTRA.VDW>
7.92368

>  <SCORE.INTRA.VDW.0>
-5.30945

>  <SCORE.INTRA.norm>
0.150202

>  <SCORE.RESTR>
2.51641

>  <SCORE.RESTR.CAVITY>
2.51641

>  <SCORE.RESTR.norm>
0.0599144

>  <SCORE.SYSTEM>
0

>  <SCORE.SYSTEM.CONST>
0

>  <SCORE.SYSTEM.DIHEDRAL>
0

>  <SCORE.SYSTEM.SOLV>
0

>  <SCORE.SYSTEM.norm>
0

>  <SCORE.heavy>
42

>  <SCORE.norm>
-0.0940617

>  <RMSD>
8.449

$$$$
lig.pdb
 OpenBabel11021811513D
libRbt.so/2013.1/901 2013/11/27
 42 45  0  0  0  0  0  0  0  0999 V2000
   -0.3491   18.5750   36.2489 C   0  0  2  0  0  0  0  0  0  0  0  0
   -0.3417   18.1742   34.8430 O   0  0  0  0  0  0  0  0  0  0  0  0
    0.5111   17.4812   37.0259 C   0  0  2  0  0  0  0  0  0  0  0  0
    1.8931   17.4802   36.5384 N   0  0  0  0  0  0  0  0  0  0  0  0
   -0.1949   16.0491   36.8516 C   0  0  1  0  0  0  0  0  0  0  0  0
    0.5383   15.0190   37.5471 O   0  0  0  0  0  0  0  0  0  0  0  0
   -1.6308   16.1821   37.3873 C   0  0  2  0  0  0  0  0  0  0  0  0
   -2.2735   14.9607   37.2506 O   0  0  0  0  0  0  0  0  0  0  0  0
   -2.4057   17.3261   36.5878 C   0  0  2  0  0  0  0  0  0  0  0  0
   -1.7484   18.5923   36.7236 O   0  0  0  0  0  0  0  0  0  0  0  0
   -3.8109   17.5097   37.0867 C   0  0  0  0  0  0  0  0  0  0  0  0
   -3.7345   17.9275   38.4503 O   0  0  0  0  0  0  0  0  0  0  0  0
   -2.3725   21.6468   32.9485 C   0  0  2  0  0  0  0  0  0  0  0  0
   -2.9029   22.5383   31.9400 N   0  0  0  0  0  0  0  0  0  0  0  0
   -0.8329   21.4039   32.7045 C   0  0  0  0  0  0  0  0  0  0  0  0
   -0.2337   20.4354   33.7840 C   0  0  2  0  0  0  0  0  0  0  0  0
    1.1888   20.2316   33.5184 N   0  0  0  0  0  0  0  0  0  0  0  0
   -0.9598   19.0173   33.7993 C   0  0  2  0  0  0  0  0  0  0  0  0
   -2.4697   19.2704   34.0780 C   0  0  2  0  0  0  0  0  0  0  0  0
   -3.0778   17.8873   34.0860 O   0  0  0  0  0  0  0  0  0  0  0  0
   -3.1003   20.2208   32.9176 C   0  0  1  0  0  0  0  0  0  0  0  0
   -4.5084   20.5731   33.1056 O   0  0  0  0  0  0  0  0  0  0  0  0
   -3.6662   17.5934   32.8840 C   0  0  1  0  0  0  0  0  0  0  0  0
   -4.2852   16.2641   32.8560 C   0  0  2  0  0  0  0  0  0  0  0  0
   -3.2568   15.3277   32.8088 O   0  0  0  0  0  0  0  0  0  0  0  0
   -5.2527   16.4096   31.6619 C   0  0  2  0  0  0  0  0  0  0  0  0
   -4.8515   15.4293   30.6782 O   0  0  0  0  0  0  0  0  0  0  0  0
   -5.0630   17.8112   31.1833 C   0  0  2  0  0  0  0  0  0  0  0  0
   -4.7529   18.4146   32.4900 O   0  0  0  0  0  0  0  0  0  0  0  0
   -6.3943   18.4169   30.6043 C   0  0  0  0  0  0  0  0  0  0  0  0
   -7.5170   17.4850   30.6202 O   0  0  0  0  0  0  0  0  0  0  0  0
   -5.9166   14.7838   29.9167 C   0  0  2  0  0  0  0  0  0  0  0  0
   -5.3312   13.4240   29.2667 C   0  0  2  0  0  0  0  0  0  0  0  0
   -4.1550   13.7587   28.4000 N   0  0  0  0  0  0  0  0  0  0  0  0
   -6.5107   12.7179   28.4335 C   0  0  1  0  0  0  0  0  0  0  0  0
   -7.5992   12.4460   29.3677 O   0  0  0  0  0  0  0  0  0  0  0  0
   -6.9883   13.6900   27.2624 C   0  0  2  0  0  0  0  0  0  0  0  0
   -5.8398   13.9054   26.3544 O   0  0  0  0  0  0  0  0  0  0  0  0
   -7.5207   15.0765   27.9379 C   0  0  1  0  0  0  0  0  0  0  0  0
   -6.4229   15.6865   28.7731 O   0  0  0  0  0  0  0  0  0  0  0  0
   -7.9821   16.0628   26.8142 C   0  0  0  0  0  0  0  0  0  0  0  0
   -8.5765   17.3236   27.3569 N   0  0  0  0  0  0  0  0  0  0  0  0
  1  3  1  0  0  0  0
  1  2  1  6  0  0  0
  3  4  1  6  0  0  0
  3  5  1  0  0  0  0
  5  6  1  1  0  0  0
  7  8  1  6  0  0  0
  7  5  1  0  0  0  0
  9 11  1  1  0  0  0
  9  7  1  0  0  0  0
 10  9  1  0  0  0  0
 10  1  1  0  0  0  0
 12 11  1  0  0  0  0
 13 14  1  6  0  0  0
 15 13  1  0  0  0  0
 16 17  1  6  0  0  0
 16 15  1  0  0  0  0
 18  2  1  1  0  0  0
 18 19  1  0  0  0  0
 18 16  1  0  0  0  0
 19 20  1  6  0  0  0
 19 21  1  0  0  0  0
 21 22  1  1  0  0  0
 21 13  1  0  0  0  0
 23 20  1  1  0  0  0
 23 29  1  0  0  0  0
 24 25  1  6  0  0  0
 24 26  1  0  0  0  0
 24 23  1  0  0  0  0
 26 27  1  6  0  0  0
 26 28  1  0  0  0  0
 28 30  1  1  0  0  0
 29 28  1  0  0  0  0
 30 31  1  0  0  0  0
 32 27  1  6  0  0  0
 32 40  1  0  0  0  0
 33 35  1  0  0  0  0
 33 32  1  0  0  0  0
 33 34  1  6  0  0  0
 35 36  1  1  0  0  0
 35 37  1  0  0  0  0
 37 38  1  6  0  0  0
 37 39  1  0  0  0  0
 39 41  1  6  0  0  0
 40 39  1  0  0  0  0
 41 42  1  0  0  0  0
M  END
>  <CHROM.1>
-175.26776234,62.48841135,60.20204793,-98.67679566,-179.23101508,143.74926449
-1.55634615,-161.24499861,175.89965082,-3.61274237,17.13104673,32.66061789
-0.10740430,0.95298064,2.86978908

>  <Name>
lig.pdb

>  <RI>
0

>  <Rbt.Current_Directory>
/home/itssahil/PROJECTS/Mol_Feturizer/New_Systems/rnas/4wcr

>  <Rbt.Executable>
rbdock ($Id: //depot/dev/client3/rdock/2013.1/src/exe/rbdock.cxx#4 $)

>  <Rbt.Library>
libRbt.so (2013.1, Build901 2013/11/27)

>  <Rbt.Parameter_File>
/export/apps/rDock/src/rDock_2013.1_src/data/scripts/dock_solv.prm

>  <Rbt.Receptor>
prm/blind_docking_100.prm

>  <SCORE>
-4.40533

>  <SCORE.INTER>
-14.2208

>  <SCORE.INTER.CONST>
1

>  <SCORE.INTER.POLAR>
0

>  <SCORE.INTER.ROT>
9

>  <SCORE.INTER.SOLV>
34.1941

>  <SCORE.INTER.VDW>
-30.4786

>  <SCORE.INTER.norm>
-0.33859

>  <SCORE.INTRA>
5.53026

>  <SCORE.INTRA.DIHEDRAL>
0.343404

>  <SCORE.INTRA.DIHEDRAL.0>
16.2863

>  <SCORE.INTRA.POLAR>
0

>  <SCORE.INTRA.POLAR.0>
0

>  <SCORE.INTRA.REPUL>
-0.314433

>  <SCORE.INTRA.REPUL.0>
0.314433

>  <SCORE.INTRA.SOLV>
-2.55613

>  <SCORE.INTRA.SOLV.lig_0>
-103.824

>  <SCORE.INTRA.VDW>
8.20879

>  <SCORE.INTRA.VDW.0>
-5.30945

>  <SCORE.INTRA.norm>
0.131673

>  <SCORE.RESTR>
4.28519

>  <SCORE.RESTR.CAVITY>
4.28519

>  <SCORE.RESTR.norm>
0.102028

>  <SCORE.SYSTEM>
0

>  <SCORE.SYSTEM.CONST>
0

>  <SCORE.SYSTEM.DIHEDRAL>
0

>  <SCORE.SYSTEM.SOLV>
0

>  <SCORE.SYSTEM.norm>
0

>  <SCORE.heavy>
42

>  <SCORE.norm>
-0.104889

>  <RMSD>
8.467

$$$$
lig.pdb
 OpenBabel11021811513D
libRbt.so/2013.1/901 2013/11/27
 42 45  0  0  0  0  0  0  0  0999 V2000
   -3.1784    9.6501   35.2192 C   0  0  2  0  0  0  0  0  0  0  0  0
   -3.0122   10.9099   35.9421 O   0  0  0  0  0  0  0  0  0  0  0  0
   -2.3500    9.8031   33.8663 C   0  0  2  0  0  0  0  0  0  0  0  0
   -0.9277    9.9995   34.1599 N   0  0  0  0  0  0  0  0  0  0  0  0
   -2.9677   11.0181   33.0167 C   0  0  1  0  0  0  0  0  0  0  0  0
   -2.2604   11.1952   31.7713 O   0  0  0  0  0  0  0  0  0  0  0  0
   -4.4545   10.6997   32.7831 C   0  0  2  0  0  0  0  0  0  0  0  0
   -5.0228   11.7319   32.0515 O   0  0  0  0  0  0  0  0  0  0  0  0
   -5.1982   10.5177   34.1838 C   0  0  2  0  0  0  0  0  0  0  0  0
   -4.6174    9.4528   34.9468 O   0  0  0  0  0  0  0  0  0  0  0  0
   -6.6532   10.1856   34.0107 C   0  0  0  0  0  0  0  0  0  0  0  0
   -6.7326    8.9388   33.3187 O   0  0  0  0  0  0  0  0  0  0  0  0
   -5.8410   10.3652   39.3294 C   0  0  2  0  0  0  0  0  0  0  0  0
   -6.4769   10.5216   40.6194 N   0  0  0  0  0  0  0  0  0  0  0  0
   -4.3129   10.0196   39.5144 C   0  0  0  0  0  0  0  0  0  0  0  0
   -3.5983    9.8490   38.1278 C   0  0  2  0  0  0  0  0  0  0  0  0
   -2.1868    9.5375   38.3432 N   0  0  0  0  0  0  0  0  0  0  0  0
   -3.7016   11.1577   37.2249 C   0  0  2  0  0  0  0  0  0  0  0  0
   -5.2136   11.4640   37.0203 C   0  0  2  0  0  0  0  0  0  0  0  0
   -5.2228   12.7016   36.1538 O   0  0  0  0  0  0  0  0  0  0  0  0
   -5.9341   11.7061   38.4590 C   0  0  1  0  0  0  0  0  0  0  0  0
   -7.3759   11.9494   38.3942 O   0  0  0  0  0  0  0  0  0  0  0  0
   -4.8735   13.8159   36.8706 C   0  0  1  0  0  0  0  0  0  0  0  0
   -3.6522   14.4595   36.3753 C   0  0  2  0  0  0  0  0  0  0  0  0
   -2.5801   13.6477   36.7335 O   0  0  0  0  0  0  0  0  0  0  0  0
   -3.7896   15.8712   36.9847 C   0  0  2  0  0  0  0  0  0  0  0  0
   -2.6511   16.0623   37.8548 O   0  0  0  0  0  0  0  0  0  0  0  0
   -5.0822   15.8422   37.7317 C   0  0  2  0  0  0  0  0  0  0  0  0
   -5.7878   14.8995   36.8479 O   0  0  0  0  0  0  0  0  0  0  0  0
   -5.7973   17.2432   37.7178 C   0  0  0  0  0  0  0  0  0  0  0  0
   -4.9904   18.3181   38.2857 O   0  0  0  0  0  0  0  0  0  0  0  0
   -1.3463   16.1986   37.2146 C   0  0  2  0  0  0  0  0  0  0  0  0
   -0.2127   16.2520   38.3662 C   0  0  2  0  0  0  0  0  0  0  0  0
   -0.5001   17.3987   39.2878 N   0  0  0  0  0  0  0  0  0  0  0  0
    1.2205   16.3983   37.6531 C   0  0  1  0  0  0  0  0  0  0  0  0
    1.3907   15.2407   36.7798 O   0  0  0  0  0  0  0  0  0  0  0  0
    1.2621   17.7576   36.8195 C   0  0  2  0  0  0  0  0  0  0  0  0
    1.0978   18.8790   37.7712 O   0  0  0  0  0  0  0  0  0  0  0  0
    0.0739   17.7056   35.7026 C   0  0  1  0  0  0  0  0  0  0  0  0
   -1.2542   17.4963   36.3859 O   0  0  0  0  0  0  0  0  0  0  0  0
    0.0741   19.0341   34.8757 C   0  0  0  0  0  0  0  0  0  0  0  0
   -1.1231   19.1658   33.9888 N   0  0  0  0  0  0  0  0  0  0  0  0
  1  3  1  0  0  0  0
  1  2  1  1  0  0  0
  3  4  1  1  0  0  0
  3  5  1  0  0  0  0
  5  6  1  6  0  0  0
  7  8  1  1  0  0  0
  7  5  1  0  0  0  0
  9 11  1  6  0  0  0
  9  7  1  0  0  0  0
 10  9  1  0  0  0  0
 10  1  1  0  0  0  0
 12 11  1  0  0  0  0
 13 14  1  1  0  0  0
 15 13  1  0  0  0  0
 16 17  1  1  0  0  0
 16 15  1  0  0  0  0
 18  2  1  6  0  0  0
 18 19  1  0  0  0  0
 18 16  1  0  0  0  0
 19 20  1  6  0  0  0
 19 21  1  0  0  0  0
 21 22  1  6  0  0  0
 21 13  1  0  0  0  0
 23 20  1  6  0  0  0
 23 29  1  0  0  0  0
 24 25  1  1  0  0  0
 24 26  1  0  0  0  0
 24 23  1  0  0  0  0
 26 27  1  1  0  0  0
 26 28  1  0  0  0  0
 28 30  1  6  0  0  0
 29 28  1  0  0  0  0
 30 31  1  0  0  0  0
 32 27  1  1  0  0  0
 32 40  1  0  0  0  0
 33 35  1  0  0  0  0
 33 32  1  0  0  0  0
 33 34  1  1  0  0  0
 35 36  1  6  0  0  0
 35 37  1  0  0  0  0
 37 38  1  1  0  0  0
 37 39  1  0  0  0  0
 39 41  1  1  0  0  0
 40 39  1  0  0  0  0
 41 42  1  0  0  0  0
M  END
>  <CHROM.1>
176.97125383,62.10373736,43.16202375,-74.27658667,118.22159669,69.59127739
-58.24191090,-174.38850283,-170.32361071,-3.24935264,13.47256513,36.37431323
-2.30685426,0.75118188,0.74050659

>  <Name>
lig.pdb

>  <RI>
0

>  <Rbt.Current_Directory>
/home/itssahil/PROJECTS/Mol_Feturizer/New_Systems/rnas/4wcr

>  <Rbt.Executable>
rbdock ($Id: //depot/dev/client3/rdock/2013.1/src/exe/rbdock.cxx#4 $)

>  <Rbt.Library>
libRbt.so (2013.1, Build901 2013/11/27)

>  <Rbt.Parameter_File>
/export/apps/rDock/src/rDock_2013.1_src/data/scripts/dock_solv.prm

>  <Rbt.Receptor>
prm/pocket_docking_5.prm

>  <SCORE>
-7.7529

>  <SCORE.INTER>
-3.61106

>  <SCORE.INTER.CONST>
1

>  <SCORE.INTER.POLAR>
0

>  <SCORE.INTER.ROT>
9

>  <SCORE.INTER.SOLV>
20.6331

>  <SCORE.INTER.VDW>
-18.8851

>  <SCORE.INTER.norm>
-0.0859775

>  <SCORE.INTRA>
-4.14184

>  <SCORE.INTRA.DIHEDRAL>
-5.36669

>  <SCORE.INTRA.DIHEDRAL.0>
16.2863

>  <SCORE.INTRA.POLAR>
0

>  <SCORE.INTRA.POLAR.0>
0

>  <SCORE.INTRA.REPUL>
-0.314433

>  <SCORE.INTRA.REPUL.0>
0.314433

>  <SCORE.INTRA.SOLV>
-4.42947

>  <SCORE.INTRA.SOLV.lig_0>
-103.824

>  <SCORE.INTRA.VDW>
2.3284

>  <SCORE.INTRA.VDW.0>
-5.30945

>  <SCORE.INTRA.norm>
-0.0986153

>  <SCORE.RESTR>
0

>  <SCORE.RESTR.CAVITY>
0

>  <SCORE.RESTR.norm>
0

>  <SCORE.SYSTEM>
0

>  <SCORE.SYSTEM.CONST>
0

>  <SCORE.SYSTEM.DIHEDRAL>
0

>  <SCORE.SYSTEM.SOLV>
0

>  <SCORE.SYSTEM.norm>
0

>  <SCORE.heavy>
42

>  <SCORE.norm>
-0.184593

>  <RMSD>
8.468

$$$$
lig.pdb
 OpenBabel11021811513D
libRbt.so/2013.1/901 2013/11/27
 42 45  0  0  0  0  0  0  0  0999 V2000
   -1.0396   16.5757   36.9644 C   0  0  2  0  0  0  0  0  0  0  0  0
   -0.3889   17.8654   36.7399 O   0  0  0  0  0  0  0  0  0  0  0  0
   -1.6073   16.6191   38.4530 C   0  0  2  0  0  0  0  0  0  0  0  0
   -2.6042   17.6850   38.5866 N   0  0  0  0  0  0  0  0  0  0  0  0
   -0.3781   16.8069   39.4696 C   0  0  1  0  0  0  0  0  0  0  0  0
   -0.8348   16.8416   40.8381 O   0  0  0  0  0  0  0  0  0  0  0  0
    0.5948   15.6402   39.2268 C   0  0  2  0  0  0  0  0  0  0  0  0
    1.6732   15.7711   40.0890 O   0  0  0  0  0  0  0  0  0  0  0  0
    1.0782   15.6431   37.7054 C   0  0  2  0  0  0  0  0  0  0  0  0
   -0.0301   15.5081   36.8070 O   0  0  0  0  0  0  0  0  0  0  0  0
    2.0181   14.5087   37.4104 C   0  0  0  0  0  0  0  0  0  0  0  0
    1.3074   13.2898   37.6317 O   0  0  0  0  0  0  0  0  0  0  0  0
   -0.6148   20.7739   33.3840 C   0  0  2  0  0  0  0  0  0  0  0  0
   -0.4070   21.3911   32.0921 N   0  0  0  0  0  0  0  0  0  0  0  0
    0.7723   20.4670   34.0698 C   0  0  0  0  0  0  0  0  0  0  0  0
    0.5741   19.7923   35.4727 C   0  0  2  0  0  0  0  0  0  0  0  0
    1.8798   19.5187   36.0694 N   0  0  0  0  0  0  0  0  0  0  0  0
   -0.2430   18.4276   35.3816 C   0  0  2  0  0  0  0  0  0  0  0  0
   -1.6221   18.7528   34.7381 C   0  0  2  0  0  0  0  0  0  0  0  0
   -2.3313   17.4194   34.6979 O   0  0  0  0  0  0  0  0  0  0  0  0
   -1.4105   19.3901   33.2560 C   0  0  1  0  0  0  0  0  0  0  0  0
   -2.6425   19.7882   32.5734 O   0  0  0  0  0  0  0  0  0  0  0  0
   -3.0237   17.2570   33.5268 C   0  0  1  0  0  0  0  0  0  0  0  0
   -3.7299   15.9739   33.4488 C   0  0  2  0  0  0  0  0  0  0  0  0
   -2.7721   14.9835   33.2532 O   0  0  0  0  0  0  0  0  0  0  0  0
   -4.7698   16.2711   32.3473 C   0  0  2  0  0  0  0  0  0  0  0  0
   -4.5070   15.3485   31.2659 O   0  0  0  0  0  0  0  0  0  0  0  0
   -4.5228   17.6919   31.9600 C   0  0  2  0  0  0  0  0  0  0  0  0
   -4.0793   18.1709   33.2797 O   0  0  0  0  0  0  0  0  0  0  0  0
   -5.8495   18.4207   31.5322 C   0  0  0  0  0  0  0  0  0  0  0  0
   -5.6434   19.7909   31.0746 O   0  0  0  0  0  0  0  0  0  0  0  0
   -5.6329   15.0054   30.4024 C   0  0  2  0  0  0  0  0  0  0  0  0
   -5.3262   13.5813   29.7009 C   0  0  2  0  0  0  0  0  0  0  0  0
   -4.0451   13.6780   28.9288 N   0  0  0  0  0  0  0  0  0  0  0  0
   -6.5717   13.2092   28.7552 C   0  0  1  0  0  0  0  0  0  0  0  0
   -7.7582   13.1498   29.6038 O   0  0  0  0  0  0  0  0  0  0  0  0
   -6.7299   14.3225   27.6238 C   0  0  2  0  0  0  0  0  0  0  0  0
   -5.4998   14.3118   26.8011 O   0  0  0  0  0  0  0  0  0  0  0  0
   -6.9809   15.7589   28.3556 C   0  0  1  0  0  0  0  0  0  0  0  0
   -5.8367   16.0565   29.2921 O   0  0  0  0  0  0  0  0  0  0  0  0
   -7.1236   16.8800   27.2733 C   0  0  0  0  0  0  0  0  0  0  0  0
   -8.3182   16.6887   26.3937 N   0  0  0  0  0  0  0  0  0  0  0  0
  1  3  1  0  0  0  0
  1  2  1  1  0  0  0
  3  4  1  6  0  0  0
  3  5  1  0  0  0  0
  5  6  1  1  0  0  0
  7  8  1  1  0  0  0
  7  5  1  0  0  0  0
  9 11  1  1  0  0  0
  9  7  1  0  0  0  0
 10  9  1  0  0  0  0
 10  1  1  0  0  0  0
 12 11  1  0  0  0  0
 13 14  1  6  0  0  0
 15 13  1  0  0  0  0
 16 17  1  6  0  0  0
 16 15  1  0  0  0  0
 18  2  1  1  0  0  0
 18 19  1  0  0  0  0
 18 16  1  0  0  0  0
 19 20  1  6  0  0  0
 19 21  1  0  0  0  0
 21 22  1  1  0  0  0
 21 13  1  0  0  0  0
 23 20  1  1  0  0  0
 23 29  1  0  0  0  0
 24 25  1  6  0  0  0
 24 26  1  0  0  0  0
 24 23  1  0  0  0  0
 26 27  1  6  0  0  0
 26 28  1  0  0  0  0
 28 30  1  1  0  0  0
 29 28  1  0  0  0  0
 30 31  1  0  0  0  0
 32 27  1  1  0  0  0
 32 40  1  0  0  0  0
 33 35  1  0  0  0  0
 33 32  1  0  0  0  0
 33 34  1  6  0  0  0
 35 36  1  1  0  0  0
 35 37  1  0  0  0  0
 37 38  1  1  0  0  0
 37 39  1  0  0  0  0
 39 41  1  6  0  0  0
 40 39  1  0  0  0  0
 41 42  1  0  0  0  0
M  END
>  <CHROM.1>
-154.29453396,62.09172770,-176.88945522,-139.61274961,-179.88586707,153.75395466
-176.78842614,-156.84839212,63.81557410,-2.74100515,16.76644941,33.49801008
0.17985830,0.93700097,2.75831401

>  <Name>
lig.pdb

>  <RI>
0

>  <Rbt.Current_Directory>
/home/itssahil/PROJECTS/Mol_Feturizer/New_Systems/rnas/4wcr

>  <Rbt.Executable>
rbdock ($Id: //depot/dev/client3/rdock/2013.1/src/exe/rbdock.cxx#4 $)

>  <Rbt.Library>
libRbt.so (2013.1, Build901 2013/11/27)

>  <Rbt.Parameter_File>
/export/apps/rDock/src/rDock_2013.1_src/data/scripts/dock_solv.prm

>  <Rbt.Receptor>
prm/blind_docking_60.prm

>  <SCORE>
-7.46182

>  <SCORE.INTER>
-11.991

>  <SCORE.INTER.CONST>
1

>  <SCORE.INTER.POLAR>
0

>  <SCORE.INTER.ROT>
9

>  <SCORE.INTER.SOLV>
34.1223

>  <SCORE.INTER.VDW>
-28.9681

>  <SCORE.INTER.norm>
-0.2855

>  <SCORE.INTRA>
1.34543

>  <SCORE.INTRA.DIHEDRAL>
-2.19182

>  <SCORE.INTRA.DIHEDRAL.0>
16.2863

>  <SCORE.INTRA.POLAR>
0

>  <SCORE.INTRA.POLAR.0>
0

>  <SCORE.INTRA.REPUL>
-0.314433

>  <SCORE.INTRA.REPUL.0>
0.314433

>  <SCORE.INTRA.SOLV>
-4.47931

>  <SCORE.INTRA.SOLV.lig_0>
-103.824

>  <SCORE.INTRA.VDW>
6.25317

>  <SCORE.INTRA.VDW.0>
-5.30945

>  <SCORE.INTRA.norm>
0.0320342

>  <SCORE.RESTR>
3.18373

>  <SCORE.RESTR.CAVITY>
3.18373

>  <SCORE.RESTR.norm>
0.075803

>  <SCORE.SYSTEM>
0

>  <SCORE.SYSTEM.CONST>
0

>  <SCORE.SYSTEM.DIHEDRAL>
0

>  <SCORE.SYSTEM.SOLV>
0

>  <SCORE.SYSTEM.norm>
0

>  <SCORE.heavy>
42

>  <SCORE.norm>
-0.177662

>  <RMSD>
8.469

$$$$
lig.pdb
 OpenBabel11021811513D
libRbt.so/2013.1/901 2013/11/27
 42 45  0  0  0  0  0  0  0  0999 V2000
   -6.5007   16.8777   30.9283 C   0  0  2  0  0  0  0  0  0  0  0  0
   -5.1296   17.3847   30.9420 O   0  0  0  0  0  0  0  0  0  0  0  0
   -6.4947   15.6101   29.9623 C   0  0  2  0  0  0  0  0  0  0  0  0
   -5.6079   14.5706   30.4922 N   0  0  0  0  0  0  0  0  0  0  0  0
   -6.0618   16.0844   28.4901 C   0  0  1  0  0  0  0  0  0  0  0  0
   -6.0503   14.9745   27.5678 O   0  0  0  0  0  0  0  0  0  0  0  0
   -7.0561   17.1737   28.0528 C   0  0  2  0  0  0  0  0  0  0  0  0
   -6.7109   17.6096   26.7822 O   0  0  0  0  0  0  0  0  0  0  0  0
   -7.0322   18.3821   29.0957 C   0  0  2  0  0  0  0  0  0  0  0  0
   -7.3879   17.9406   30.4118 O   0  0  0  0  0  0  0  0  0  0  0  0
   -8.0024   19.4672   28.7237 C   0  0  0  0  0  0  0  0  0  0  0  0
   -7.5672   20.0304   27.4855 O   0  0  0  0  0  0  0  0  0  0  0  0
   -2.7184   20.4922   33.0162 C   0  0  2  0  0  0  0  0  0  0  0  0
   -2.2808   21.4447   34.0133 N   0  0  0  0  0  0  0  0  0  0  0  0
   -4.2006   20.8066   32.5769 C   0  0  0  0  0  0  0  0  0  0  0  0
   -4.7012   19.7834   31.4976 C   0  0  2  0  0  0  0  0  0  0  0  0
   -6.0770   20.1048   31.1241 N   0  0  0  0  0  0  0  0  0  0  0  0
   -4.6501   18.2779   32.0165 C   0  0  2  0  0  0  0  0  0  0  0  0
   -3.1763   17.9710   32.4105 C   0  0  2  0  0  0  0  0  0  0  0  0
   -3.2133   16.5347   32.8778 O   0  0  0  0  0  0  0  0  0  0  0  0
   -2.6857   18.9929   33.5778 C   0  0  1  0  0  0  0  0  0  0  0  0
   -1.2909   18.8336   33.9917 O   0  0  0  0  0  0  0  0  0  0  0  0
   -3.2912   16.4556   34.2434 C   0  0  1  0  0  0  0  0  0  0  0  0
   -1.9905   16.6079   34.9038 C   0  0  2  0  0  0  0  0  0  0  0  0
   -1.2699   15.4391   34.6771 O   0  0  0  0  0  0  0  0  0  0  0  0
   -2.4246   16.9819   36.3373 C   0  0  2  0  0  0  0  0  0  0  0  0
   -1.9147   15.9487   37.2104 O   0  0  0  0  0  0  0  0  0  0  0  0
   -3.9169   17.0074   36.2916 C   0  0  2  0  0  0  0  0  0  0  0  0
   -4.0535   17.4572   34.8963 O   0  0  0  0  0  0  0  0  0  0  0  0
   -4.5138   18.0824   37.2727 C   0  0  0  0  0  0  0  0  0  0  0  0
   -3.9576   18.0182   38.6202 O   0  0  0  0  0  0  0  0  0  0  0  0
   -0.7194   16.2691   37.9847 C   0  0  2  0  0  0  0  0  0  0  0  0
    0.4532   16.7065   36.9611 C   0  0  2  0  0  0  0  0  0  0  0  0
    0.7033   15.5905   35.9923 N   0  0  0  0  0  0  0  0  0  0  0  0
    1.7639   17.0610   37.8216 C   0  0  1  0  0  0  0  0  0  0  0  0
    1.4060   18.1465   38.7300 O   0  0  0  0  0  0  0  0  0  0  0  0
    2.2343   15.7681   38.6288 C   0  0  2  0  0  0  0  0  0  0  0  0
    2.5913   14.7229   37.6438 O   0  0  0  0  0  0  0  0  0  0  0  0
    1.0151   15.3112   39.6120 C   0  0  1  0  0  0  0  0  0  0  0  0
   -0.2251   15.0524   38.7937 O   0  0  0  0  0  0  0  0  0  0  0  0
    1.4364   14.0319   40.4087 C   0  0  0  0  0  0  0  0  0  0  0  0
    2.5836   14.2777   41.3364 N   0  0  0  0  0  0  0  0  0  0  0  0
  1  3  1  0  0  0  0
  1  2  1  6  0  0  0
  3  4  1  1  0  0  0
  3  5  1  0  0  0  0
  5  6  1  6  0  0  0
  7  8  1  6  0  0  0
  7  5  1  0  0  0  0
  9 11  1  6  0  0  0
  9  7  1  0  0  0  0
 10  9  1  0  0  0  0
 10  1  1  0  0  0  0
 12 11  1  0  0  0  0
 13 14  1  1  0  0  0
 15 13  1  0  0  0  0
 16 17  1  1  0  0  0
 16 15  1  0  0  0  0
 18  2  1  6  0  0  0
 18 19  1  0  0  0  0
 18 16  1  0  0  0  0
 19 20  1  1  0  0  0
 19 21  1  0  0  0  0
 21 22  1  6  0  0  0
 21 13  1  0  0  0  0
 23 20  1  6  0  0  0
 23 29  1  0  0  0  0
 24 25  1  1  0  0  0
 24 26  1  0  0  0  0
 24 23  1  0  0  0  0
 26 27  1  1  0  0  0
 26 28  1  0  0  0  0
 28 30  1  1  0  0  0
 29 28  1  0  0  0  0
 30 31  1  0  0  0  0
 32 27  1  6  0  0  0
 32 40  1  0  0  0  0
 33 35  1  0  0  0  0
 33 32  1  0  0  0  0
 33 34  1  6  0  0  0
 35 36  1  1  0  0  0
 35 37  1  0  0  0  0
 37 38  1  6  0  0  0
 37 39  1  0  0  0  0
 39 41  1  6  0  0  0
 40 39  1  0  0  0  0
 41 42  1  0  0  0  0
M  END
>  <CHROM.1>
-161.10403010,-64.75064652,-98.96269157,-97.72739505,-81.66038001,102.51043940
-48.88094688,-56.76819422,64.40623907,-3.07075043,17.23356710,33.90474946
-3.03303996,-0.92444350,0.35098981

>  <Name>
lig.pdb

>  <RI>
0

>  <Rbt.Current_Directory>
/home/itssahil/PROJECTS/Mol_Feturizer/New_Systems/rnas/4wcr

>  <Rbt.Executable>
rbdock ($Id: //depot/dev/client3/rdock/2013.1/src/exe/rbdock.cxx#4 $)

>  <Rbt.Library>
libRbt.so (2013.1, Build901 2013/11/27)

>  <Rbt.Parameter_File>
/export/apps/rDock/src/rDock_2013.1_src/data/scripts/dock_solv.prm

>  <Rbt.Receptor>
prm/blind_docking_60.prm

>  <SCORE>
9.17231

>  <SCORE.INTER>
-6.44223

>  <SCORE.INTER.CONST>
1

>  <SCORE.INTER.POLAR>
0

>  <SCORE.INTER.ROT>
9

>  <SCORE.INTER.SOLV>
33.3012

>  <SCORE.INTER.VDW>
-24.9952

>  <SCORE.INTER.norm>
-0.153386

>  <SCORE.INTRA>
12.5396

>  <SCORE.INTRA.DIHEDRAL>
4.33993

>  <SCORE.INTRA.DIHEDRAL.0>
16.2863

>  <SCORE.INTRA.POLAR>
0

>  <SCORE.INTRA.POLAR.0>
0

>  <SCORE.INTRA.REPUL>
-0.314433

>  <SCORE.INTRA.REPUL.0>
0.314433

>  <SCORE.INTRA.SOLV>
2.22205

>  <SCORE.INTRA.SOLV.lig_0>
-103.824

>  <SCORE.INTRA.VDW>
10.8307

>  <SCORE.INTRA.VDW.0>
-5.30945

>  <SCORE.INTRA.norm>
0.298561

>  <SCORE.RESTR>
3.07497

>  <SCORE.RESTR.CAVITY>
3.07497

>  <SCORE.RESTR.norm>
0.0732136

>  <SCORE.SYSTEM>
0

>  <SCORE.SYSTEM.CONST>
0

>  <SCORE.SYSTEM.DIHEDRAL>
0

>  <SCORE.SYSTEM.SOLV>
0

>  <SCORE.SYSTEM.norm>
0

>  <SCORE.heavy>
42

>  <SCORE.norm>
0.218388

>  <RMSD>
8.474

$$$$
lig.pdb
 OpenBabel11021811513D
libRbt.so/2013.1/901 2013/11/27
 42 45  0  0  0  0  0  0  0  0999 V2000
   -2.0182   20.3812   33.1478 C   0  0  2  0  0  0  0  0  0  0  0  0
   -1.1417   19.2717   33.5192 O   0  0  0  0  0  0  0  0  0  0  0  0
   -1.0588   21.5769   32.7119 C   0  0  2  0  0  0  0  0  0  0  0  0
   -0.2607   21.1896   31.5455 N   0  0  0  0  0  0  0  0  0  0  0  0
   -0.1422   21.9872   33.9654 C   0  0  1  0  0  0  0  0  0  0  0  0
    0.7418   23.0773   33.6294 O   0  0  0  0  0  0  0  0  0  0  0  0
   -1.0896   22.3611   35.1182 C   0  0  2  0  0  0  0  0  0  0  0  0
   -0.3302   22.7202   36.2219 O   0  0  0  0  0  0  0  0  0  0  0  0
   -2.0433   21.1275   35.4601 C   0  0  2  0  0  0  0  0  0  0  0  0
   -2.8321   20.7494   34.3249 O   0  0  0  0  0  0  0  0  0  0  0  0
   -3.0038   21.4480   36.5700 C   0  0  0  0  0  0  0  0  0  0  0  0
   -3.6724   22.6622   36.2258 O   0  0  0  0  0  0  0  0  0  0  0  0
   -1.5969   15.4394   35.7280 C   0  0  2  0  0  0  0  0  0  0  0  0
   -1.8585   14.4980   36.7949 N   0  0  0  0  0  0  0  0  0  0  0  0
   -0.5077   16.4867   36.1814 C   0  0  0  0  0  0  0  0  0  0  0  0
   -0.2087   17.5231   35.0417 C   0  0  2  0  0  0  0  0  0  0  0  0
    0.7974   18.4771   35.5037 N   0  0  0  0  0  0  0  0  0  0  0  0
   -1.5091   18.3274   34.5942 C   0  0  2  0  0  0  0  0  0  0  0  0
   -2.5597   17.2843   34.1148 C   0  0  2  0  0  0  0  0  0  0  0  0
   -3.7470   18.1228   33.7026 O   0  0  0  0  0  0  0  0  0  0  0  0
   -2.9149   16.2536   35.3227 C   0  0  1  0  0  0  0  0  0  0  0  0
   -3.8559   15.1895   34.9698 O   0  0  0  0  0  0  0  0  0  0  0  0
   -4.1845   17.7868   32.4484 C   0  0  1  0  0  0  0  0  0  0  0  0
   -4.9177   16.5170   32.4155 C   0  0  2  0  0  0  0  0  0  0  0  0
   -3.9874   15.4955   32.5825 O   0  0  0  0  0  0  0  0  0  0  0  0
   -5.6876   16.6504   31.0841 C   0  0  2  0  0  0  0  0  0  0  0  0
   -5.2467   15.5654   30.2368 O   0  0  0  0  0  0  0  0  0  0  0  0
   -5.2986   17.9889   30.5487 C   0  0  2  0  0  0  0  0  0  0  0  0
   -5.1206   18.6642   31.8449 O   0  0  0  0  0  0  0  0  0  0  0  0
   -6.4701   18.6587   29.7404 C   0  0  0  0  0  0  0  0  0  0  0  0
   -7.6174   19.0224   30.5653 O   0  0  0  0  0  0  0  0  0  0  0  0
   -5.8188   15.5007   28.8954 C   0  0  2  0  0  0  0  0  0  0  0  0
   -7.3814   15.1056   29.0224 C   0  0  2  0  0  0  0  0  0  0  0  0
   -7.5016   13.7950   29.7398 N   0  0  0  0  0  0  0  0  0  0  0  0
   -8.0044   15.0402   27.5420 C   0  0  1  0  0  0  0  0  0  0  0  0
   -7.8268   16.3575   26.9380 O   0  0  0  0  0  0  0  0  0  0  0  0
   -7.2509   13.9154   26.6985 C   0  0  2  0  0  0  0  0  0  0  0  0
   -7.4884   12.6144   27.3627 O   0  0  0  0  0  0  0  0  0  0  0  0
   -5.6678   14.3045   26.6325 C   0  0  1  0  0  0  0  0  0  0  0  0
   -5.1191   14.4313   28.0317 O   0  0  0  0  0  0  0  0  0  0  0  0
   -4.8930   13.2106   25.8251 C   0  0  0  0  0  0  0  0  0  0  0  0
   -4.8723   11.8846   26.5169 N   0  0  0  0  0  0  0  0  0  0  0  0
  1  3  1  0  0  0  0
  1  2  1  1  0  0  0
  3  4  1  6  0  0  0
  3  5  1  0  0  0  0
  5  6  1  6  0  0  0
  7  8  1  1  0  0  0
  7  5  1  0  0  0  0
  9 11  1  1  0  0  0
  9  7  1  0  0  0  0
 10  9  1  0  0  0  0
 10  1  1  0  0  0  0
 12 11  1  0  0  0  0
 13 14  1  1  0  0  0
 15 13  1  0  0  0  0
 16 17  1  1  0  0  0
 16 15  1  0  0  0  0
 18  2  1  6  0  0  0
 18 19  1  0  0  0  0
 18 16  1  0  0  0  0
 19 20  1  1  0  0  0
 19 21  1  0  0  0  0
 21 22  1  6  0  0  0
 21 13  1  0  0  0  0
 23 20  1  1  0  0  0
 23 29  1  0  0  0  0
 24 25  1  6  0  0  0
 24 26  1  0  0  0  0
 24 23  1  0  0  0  0
 26 27  1  6  0  0  0
 26 28  1  0  0  0  0
 28 30  1  6  0  0  0
 29 28  1  0  0  0  0
 30 31  1  0  0  0  0
 32 27  1  1  0  0  0
 32 40  1  0  0  0  0
 33 35  1  0  0  0  0
 33 32  1  0  0  0  0
 33 34  1  6  0  0  0
 35 36  1  6  0  0  0
 35 37  1  0  0  0  0
 37 38  1  1  0  0  0
 37 39  1  0  0  0  0
 39 41  1  6  0  0  0
 40 39  1  0  0  0  0
 41 42  1  0  0  0  0
M  END
>  <CHROM.1>
146.46532938,52.11949437,-163.69319991,129.40338615,74.79994863,-178.54885360
66.91975350,-69.14979742,-66.49424163,-3.71427008,17.61145511,32.12182659
0.50244614,-0.97189739,-0.11796932

>  <Name>
lig.pdb

>  <RI>
0

>  <Rbt.Current_Directory>
/home/itssahil/PROJECTS/Mol_Feturizer/New_Systems/rnas/4wcr

>  <Rbt.Executable>
rbdock ($Id: //depot/dev/client3/rdock/2013.1/src/exe/rbdock.cxx#4 $)

>  <Rbt.Library>
libRbt.so (2013.1, Build901 2013/11/27)

>  <Rbt.Parameter_File>
/export/apps/rDock/src/rDock_2013.1_src/data/scripts/dock_solv.prm

>  <Rbt.Receptor>
prm/blind_docking_100.prm

>  <SCORE>
2.63342

>  <SCORE.INTER>
-5.68701

>  <SCORE.INTER.CONST>
1

>  <SCORE.INTER.POLAR>
0

>  <SCORE.INTER.ROT>
9

>  <SCORE.INTER.SOLV>
35.6625

>  <SCORE.INTER.VDW>
-25.2788

>  <SCORE.INTER.norm>
-0.135405

>  <SCORE.INTRA>
-0.910814

>  <SCORE.INTRA.DIHEDRAL>
-1.55275

>  <SCORE.INTRA.DIHEDRAL.0>
16.2863

>  <SCORE.INTRA.POLAR>
0

>  <SCORE.INTRA.POLAR.0>
0

>  <SCORE.INTRA.REPUL>
-0.314433

>  <SCORE.INTRA.REPUL.0>
0.314433

>  <SCORE.INTRA.SOLV>
-1.84153

>  <SCORE.INTRA.SOLV.lig_0>
-103.824

>  <SCORE.INTRA.VDW>
2.35849

>  <SCORE.INTRA.VDW.0>
-5.30945

>  <SCORE.INTRA.norm>
-0.021686

>  <SCORE.RESTR>
9.23125

>  <SCORE.RESTR.CAVITY>
9.23125

>  <SCORE.RESTR.norm>
0.219792

>  <SCORE.SYSTEM>
0

>  <SCORE.SYSTEM.CONST>
0

>  <SCORE.SYSTEM.DIHEDRAL>
0

>  <SCORE.SYSTEM.SOLV>
0

>  <SCORE.SYSTEM.norm>
0

>  <SCORE.heavy>
42

>  <SCORE.norm>
0.0627005

>  <RMSD>
8.483

$$$$
lig.pdb
 OpenBabel11021811513D
libRbt.so/2013.1/901 2013/11/27
 42 45  0  0  0  0  0  0  0  0999 V2000
   -1.8458   16.6606   36.0257 C   0  0  2  0  0  0  0  0  0  0  0  0
   -0.8205   17.4934   35.3994 O   0  0  0  0  0  0  0  0  0  0  0  0
   -1.5316   16.6711   37.5881 C   0  0  2  0  0  0  0  0  0  0  0  0
   -1.6350   18.0332   38.1188 N   0  0  0  0  0  0  0  0  0  0  0  0
   -0.0759   16.0357   37.8268 C   0  0  1  0  0  0  0  0  0  0  0  0
    0.2571   16.0096   39.2308 O   0  0  0  0  0  0  0  0  0  0  0  0
   -0.0929   14.6211   37.2225 C   0  0  2  0  0  0  0  0  0  0  0  0
    1.1529   14.0406   37.4092 O   0  0  0  0  0  0  0  0  0  0  0  0
   -0.4591   14.6971   35.6706 C   0  0  2  0  0  0  0  0  0  0  0  0
   -1.7453   15.2957   35.4683 O   0  0  0  0  0  0  0  0  0  0  0  0
   -0.5077   13.3364   35.0355 C   0  0  0  0  0  0  0  0  0  0  0  0
    0.8076   12.7833   35.0973 O   0  0  0  0  0  0  0  0  0  0  0  0
   -2.0788   21.2294   33.3422 C   0  0  2  0  0  0  0  0  0  0  0  0
   -2.3240   22.2001   32.2979 N   0  0  0  0  0  0  0  0  0  0  0  0
   -0.5603   20.8018   33.3420 C   0  0  0  0  0  0  0  0  0  0  0  0
   -0.2688   19.7446   34.4644 C   0  0  2  0  0  0  0  0  0  0  0  0
    1.1434   19.3708   34.4255 N   0  0  0  0  0  0  0  0  0  0  0  0
   -1.1513   18.4279   34.3041 C   0  0  2  0  0  0  0  0  0  0  0  0
   -2.6454   18.8611   34.3438 C   0  0  2  0  0  0  0  0  0  0  0  0
   -3.4070   17.5645   34.1968 O   0  0  0  0  0  0  0  0  0  0  0  0
   -2.9564   19.9059   33.1358 C   0  0  1  0  0  0  0  0  0  0  0  0
   -4.3239   20.4267   33.1065 O   0  0  0  0  0  0  0  0  0  0  0  0
   -3.8615   17.3947   32.9154 C   0  0  1  0  0  0  0  0  0  0  0  0
   -4.5178   16.1001   32.7044 C   0  0  2  0  0  0  0  0  0  0  0  0
   -3.5232   15.1268   32.6939 O   0  0  0  0  0  0  0  0  0  0  0  0
   -5.3346   16.3836   31.4255 C   0  0  2  0  0  0  0  0  0  0  0  0
   -4.8553   15.4695   30.4134 O   0  0  0  0  0  0  0  0  0  0  0  0
   -5.0431   17.8098   31.0927 C   0  0  2  0  0  0  0  0  0  0  0  0
   -4.8667   18.2915   32.4727 O   0  0  0  0  0  0  0  0  0  0  0  0
   -6.2769   18.5175   30.4209 C   0  0  0  0  0  0  0  0  0  0  0  0
   -7.5594   17.9172   30.7729 O   0  0  0  0  0  0  0  0  0  0  0  0
   -5.5889   15.4375   29.1518 C   0  0  2  0  0  0  0  0  0  0  0  0
   -7.1106   14.9826   29.4544 C   0  0  2  0  0  0  0  0  0  0  0  0
   -7.1002   13.6413   30.1235 N   0  0  0  0  0  0  0  0  0  0  0  0
   -7.9122   14.9535   28.0613 C   0  0  1  0  0  0  0  0  0  0  0  0
   -7.8517   16.2990   27.4979 O   0  0  0  0  0  0  0  0  0  0  0  0
   -7.2367   13.8902   27.0827 C   0  0  2  0  0  0  0  0  0  0  0  0
   -7.3497   12.5565   27.7140 O   0  0  0  0  0  0  0  0  0  0  0  0
   -5.6869   14.3374   26.8378 C   0  0  1  0  0  0  0  0  0  0  0  0
   -4.9711   14.4284   28.1622 O   0  0  0  0  0  0  0  0  0  0  0  0
   -4.9869   13.3043   25.8937 C   0  0  0  0  0  0  0  0  0  0  0  0
   -3.5193   13.5532   25.7478 N   0  0  0  0  0  0  0  0  0  0  0  0
  1  3  1  0  0  0  0
  1  2  1  6  0  0  0
  3  4  1  6  0  0  0
  3  5  1  0  0  0  0
  5  6  1  1  0  0  0
  7  8  1  6  0  0  0
  7  5  1  0  0  0  0
  9 11  1  1  0  0  0
  9  7  1  0  0  0  0
 10  9  1  0  0  0  0
 10  1  1  0  0  0  0
 12 11  1  0  0  0  0
 13 14  1  6  0  0  0
 15 13  1  0  0  0  0
 16 17  1  6  0  0  0
 16 15  1  0  0  0  0
 18  2  1  1  0  0  0
 18 19  1  0  0  0  0
 18 16  1  0  0  0  0
 19 20  1  6  0  0  0
 19 21  1  0  0  0  0
 21 22  1  1  0  0  0
 21 13  1  0  0  0  0
 23 20  1  1  0  0  0
 23 29  1  0  0  0  0
 24 25  1  6  0  0  0
 24 26  1  0  0  0  0
 24 23  1  0  0  0  0
 26 27  1  6  0  0  0
 26 28  1  0  0  0  0
 28 30  1  1  0  0  0
 29 28  1  0  0  0  0
 30 31  1  0  0  0  0
 32 27  1  1  0  0  0
 32 40  1  0  0  0  0
 33 35  1  0  0  0  0
 33 32  1  0  0  0  0
 33 34  1  6  0  0  0
 35 36  1  6  0  0  0
 35 37  1  0  0  0  0
 37 38  1  1  0  0  0
 37 39  1  0  0  0  0
 39 41  1  6  0  0  0
 40 39  1  0  0  0  0
 41 42  1  0  0  0  0
M  END
>  <CHROM.1>
-139.34522849,-64.13836266,143.29073164,-100.95508491,175.58813872,172.90120446
25.50116388,-61.09546782,-173.24230168,-3.34304811,16.50560741,32.56984272
-0.34954785,0.91740293,-2.95661892

>  <Name>
lig.pdb

>  <RI>
0

>  <Rbt.Current_Directory>
/home/itssahil/PROJECTS/Mol_Feturizer/New_Systems/rnas/4wcr

>  <Rbt.Executable>
rbdock ($Id: //depot/dev/client3/rdock/2013.1/src/exe/rbdock.cxx#4 $)

>  <Rbt.Library>
libRbt.so (2013.1, Build901 2013/11/27)

>  <Rbt.Parameter_File>
/export/apps/rDock/src/rDock_2013.1_src/data/scripts/dock_solv.prm

>  <Rbt.Receptor>
prm/blind_docking_100.prm

>  <SCORE>
10.8933

>  <SCORE.INTER>
-1.22478

>  <SCORE.INTER.CONST>
1

>  <SCORE.INTER.POLAR>
0

>  <SCORE.INTER.ROT>
9

>  <SCORE.INTER.SOLV>
35.5949

>  <SCORE.INTER.VDW>
-22.2815

>  <SCORE.INTER.norm>
-0.0291613

>  <SCORE.INTRA>
6.84407

>  <SCORE.INTRA.DIHEDRAL>
3.54928

>  <SCORE.INTRA.DIHEDRAL.0>
16.2863

>  <SCORE.INTRA.POLAR>
0

>  <SCORE.INTRA.POLAR.0>
0

>  <SCORE.INTRA.REPUL>
-0.314433

>  <SCORE.INTRA.REPUL.0>
0.314433

>  <SCORE.INTRA.SOLV>
-3.33084

>  <SCORE.INTRA.SOLV.lig_0>
-103.824

>  <SCORE.INTRA.VDW>
8.30701

>  <SCORE.INTRA.VDW.0>
-5.30945

>  <SCORE.INTRA.norm>
0.162954

>  <SCORE.RESTR>
5.27397

>  <SCORE.RESTR.CAVITY>
5.27397

>  <SCORE.RESTR.norm>
0.125571

>  <SCORE.SYSTEM>
0

>  <SCORE.SYSTEM.CONST>
0

>  <SCORE.SYSTEM.DIHEDRAL>
0

>  <SCORE.SYSTEM.SOLV>
0

>  <SCORE.SYSTEM.norm>
0

>  <SCORE.heavy>
42

>  <SCORE.norm>
0.259363

>  <RMSD>
8.487

$$$$
lig.pdb
 OpenBabel11021811513D
libRbt.so/2013.1/901 2013/11/27
 42 45  0  0  0  0  0  0  0  0999 V2000
   -2.4439   20.8079   34.8206 C   0  0  2  0  0  0  0  0  0  0  0  0
   -1.6445   19.6009   34.6177 O   0  0  0  0  0  0  0  0  0  0  0  0
   -3.0648   21.1722   33.3987 C   0  0  2  0  0  0  0  0  0  0  0  0
   -3.9412   20.0932   32.9346 N   0  0  0  0  0  0  0  0  0  0  0  0
   -1.8658   21.4648   32.3708 C   0  0  1  0  0  0  0  0  0  0  0  0
   -2.3725   21.8123   31.0650 O   0  0  0  0  0  0  0  0  0  0  0  0
   -1.0200   22.6011   32.9707 C   0  0  2  0  0  0  0  0  0  0  0  0
    0.0294   22.8802   32.1079 O   0  0  0  0  0  0  0  0  0  0  0  0
   -0.4762   22.1729   34.4093 C   0  0  2  0  0  0  0  0  0  0  0  0
   -1.5542   21.8825   35.3077 O   0  0  0  0  0  0  0  0  0  0  0  0
    0.3427   23.2584   35.0484 C   0  0  0  0  0  0  0  0  0  0  0  0
    0.9508   22.7091   36.2181 O   0  0  0  0  0  0  0  0  0  0  0  0
    0.5318   16.4936   36.9374 C   0  0  2  0  0  0  0  0  0  0  0  0
    1.3161   15.8594   37.9746 N   0  0  0  0  0  0  0  0  0  0  0  0
    1.3160   17.7244   36.3382 C   0  0  0  0  0  0  0  0  0  0  0  0
    0.4837   18.4333   35.2125 C   0  0  2  0  0  0  0  0  0  0  0  0
    1.2406   19.5692   34.6904 N   0  0  0  0  0  0  0  0  0  0  0  0
   -0.9272   18.9559   35.7366 C   0  0  2  0  0  0  0  0  0  0  0  0
   -1.7032   17.7257   36.2897 C   0  0  2  0  0  0  0  0  0  0  0  0
   -3.0210   18.3015   36.7528 O   0  0  0  0  0  0  0  0  0  0  0  0
   -0.8653   17.0356   37.5018 C   0  0  1  0  0  0  0  0  0  0  0  0
   -1.4749   15.8304   38.0659 O   0  0  0  0  0  0  0  0  0  0  0  0
   -3.8412   17.3278   37.2591 C   0  0  1  0  0  0  0  0  0  0  0  0
   -5.1503   17.8389   37.6790 C   0  0  2  0  0  0  0  0  0  0  0  0
   -4.9567   18.5655   38.8500 O   0  0  0  0  0  0  0  0  0  0  0  0
   -5.9844   16.5401   37.7047 C   0  0  2  0  0  0  0  0  0  0  0  0
   -6.4432   16.3661   39.0645 O   0  0  0  0  0  0  0  0  0  0  0  0
   -5.0370   15.4675   37.2788 C   0  0  2  0  0  0  0  0  0  0  0  0
   -4.2199   16.2895   36.3708 O   0  0  0  0  0  0  0  0  0  0  0  0
   -5.7662   14.3279   36.4762 C   0  0  0  0  0  0  0  0  0  0  0  0
   -6.7515   13.5951   37.2644 O   0  0  0  0  0  0  0  0  0  0  0  0
   -7.7739   16.8751   39.3826 C   0  0  2  0  0  0  0  0  0  0  0  0
   -7.6421   18.4324   39.7969 C   0  0  2  0  0  0  0  0  0  0  0  0
   -6.7086   18.5548   40.9633 N   0  0  0  0  0  0  0  0  0  0  0  0
   -9.1114   18.9858   40.1419 C   0  0  1  0  0  0  0  0  0  0  0  0
   -9.9322   18.8115   38.9472 O   0  0  0  0  0  0  0  0  0  0  0  0
   -9.7101   18.1691   41.3743 C   0  0  2  0  0  0  0  0  0  0  0  0
   -8.8355   18.4065   42.5442 O   0  0  0  0  0  0  0  0  0  0  0  0
   -9.7800   16.5940   40.9545 C   0  0  1  0  0  0  0  0  0  0  0  0
   -8.4046   16.1124   40.5657 O   0  0  0  0  0  0  0  0  0  0  0  0
  -10.3479   15.7584   42.1494 C   0  0  0  0  0  0  0  0  0  0  0  0
  -11.7646   16.1067   42.4795 N   0  0  0  0  0  0  0  0  0  0  0  0
  1  3  1  0  0  0  0
  1  2  1  6  0  0  0
  3  4  1  6  0  0  0
  3  5  1  0  0  0  0
  5  6  1  6  0  0  0
  7  8  1  6  0  0  0
  7  5  1  0  0  0  0
  9 11  1  1  0  0  0
  9  7  1  0  0  0  0
 10  9  1  0  0  0  0
 10  1  1  0  0  0  0
 12 11  1  0  0  0  0
 13 14  1  1  0  0  0
 15 13  1  0  0  0  0
 16 17  1  1  0  0  0
 16 15  1  0  0  0  0
 18  2  1  6  0  0  0
 18 19  1  0  0  0  0
 18 16  1  0  0  0  0
 19 20  1  1  0  0  0
 19 21  1  0  0  0  0
 21 22  1  6  0  0  0
 21 13  1  0  0  0  0
 23 20  1  6  0  0  0
 23 29  1  0  0  0  0
 24 25  1  1  0  0  0
 24 26  1  0  0  0  0
 24 23  1  0  0  0  0
 26 27  1  1  0  0  0
 26 28  1  0  0  0  0
 28 30  1  6  0  0  0
 29 28  1  0  0  0  0
 30 31  1  0  0  0  0
 32 27  1  1  0  0  0
 32 40  1  0  0  0  0
 33 35  1  0  0  0  0
 33 32  1  0  0  0  0
 33 34  1  1  0  0  0
 35 36  1  6  0  0  0
 35 37  1  0  0  0  0
 37 38  1  1  0  0  0
 37 39  1  0  0  0  0
 39 41  1  1  0  0  0
 40 39  1  0  0  0  0
 41 42  1  0  0  0  0
M  END
>  <CHROM.1>
-179.12726384,-171.03485573,-141.49165446,179.19073077,-178.06155111,94.86143591
-64.13337238,-86.99342360,64.72699226,-4.01735888,18.46954460,37.09631063
0.62870987,0.38895827,-0.52517088

>  <Name>
lig.pdb

>  <RI>
0

>  <Rbt.Current_Directory>
/home/itssahil/PROJECTS/Mol_Feturizer/New_Systems/rnas/4wcr

>  <Rbt.Executable>
rbdock ($Id: //depot/dev/client3/rdock/2013.1/src/exe/rbdock.cxx#4 $)

>  <Rbt.Library>
libRbt.so (2013.1, Build901 2013/11/27)

>  <Rbt.Parameter_File>
/export/apps/rDock/src/rDock_2013.1_src/data/scripts/dock_solv.prm

>  <Rbt.Receptor>
prm/pocket_docking_7.prm

>  <SCORE>
-10.6664

>  <SCORE.INTER>
-7.70651

>  <SCORE.INTER.CONST>
1

>  <SCORE.INTER.POLAR>
0

>  <SCORE.INTER.ROT>
9

>  <SCORE.INTER.SOLV>
23.898

>  <SCORE.INTER.VDW>
-22.7037

>  <SCORE.INTER.norm>
-0.183488

>  <SCORE.INTRA>
-2.95986

>  <SCORE.INTRA.DIHEDRAL>
-2.71376

>  <SCORE.INTRA.DIHEDRAL.0>
16.2863

>  <SCORE.INTRA.POLAR>
0

>  <SCORE.INTRA.POLAR.0>
0

>  <SCORE.INTRA.REPUL>
-0.314433

>  <SCORE.INTRA.REPUL.0>
0.314433

>  <SCORE.INTRA.SOLV>
-1.44223

>  <SCORE.INTRA.SOLV.lig_0>
-103.824

>  <SCORE.INTRA.VDW>
0.690302

>  <SCORE.INTRA.VDW.0>
-5.30945

>  <SCORE.INTRA.norm>
-0.0704729

>  <SCORE.RESTR>
0

>  <SCORE.RESTR.CAVITY>
0

>  <SCORE.RESTR.norm>
0

>  <SCORE.SYSTEM>
0

>  <SCORE.SYSTEM.CONST>
0

>  <SCORE.SYSTEM.DIHEDRAL>
0

>  <SCORE.SYSTEM.SOLV>
0

>  <SCORE.SYSTEM.norm>
0

>  <SCORE.heavy>
42

>  <SCORE.norm>
-0.253961

>  <RMSD>
8.511

$$$$
lig.pdb
 OpenBabel11021811513D
libRbt.so/2013.1/901 2013/11/27
 42 45  0  0  0  0  0  0  0  0999 V2000
   -3.7573    9.8277   39.7410 C   0  0  2  0  0  0  0  0  0  0  0  0
   -2.9407   10.8566   40.3828 O   0  0  0  0  0  0  0  0  0  0  0  0
   -4.0796   10.3675   38.2765 C   0  0  2  0  0  0  0  0  0  0  0  0
   -2.8405   10.5371   37.5126 N   0  0  0  0  0  0  0  0  0  0  0  0
   -4.9079   11.7379   38.4015 C   0  0  1  0  0  0  0  0  0  0  0  0
   -5.2377   12.2676   37.1002 O   0  0  0  0  0  0  0  0  0  0  0  0
   -6.1706   11.4322   39.2251 C   0  0  2  0  0  0  0  0  0  0  0  0
   -6.9119   12.5972   39.3554 O   0  0  0  0  0  0  0  0  0  0  0  0
   -5.7602   10.8553   40.6558 C   0  0  2  0  0  0  0  0  0  0  0  0
   -4.9937    9.6509   40.5308 O   0  0  0  0  0  0  0  0  0  0  0  0
   -6.9610   10.5217   41.4949 C   0  0  0  0  0  0  0  0  0  0  0  0
   -7.6225   11.7477   41.8096 O   0  0  0  0  0  0  0  0  0  0  0  0
   -0.0412   10.5847   43.7430 C   0  0  2  0  0  0  0  0  0  0  0  0
    0.4952   10.5108   45.0846 N   0  0  0  0  0  0  0  0  0  0  0  0
   -0.9574   11.8602   43.5929 C   0  0  0  0  0  0  0  0  0  0  0  0
   -1.5559   11.9611   42.1458 C   0  0  2  0  0  0  0  0  0  0  0  0
   -2.4017   13.1491   42.0512 N   0  0  0  0  0  0  0  0  0  0  0  0
   -2.4232   10.6830   41.7555 C   0  0  2  0  0  0  0  0  0  0  0  0
   -1.4965    9.4382   41.8720 C   0  0  2  0  0  0  0  0  0  0  0  0
   -2.3854    8.2815   41.4791 O   0  0  0  0  0  0  0  0  0  0  0  0
   -0.9330    9.3018   43.3923 C   0  0  1  0  0  0  0  0  0  0  0  0
   -0.0025    8.1929   43.6087 O   0  0  0  0  0  0  0  0  0  0  0  0
   -1.6490    7.1683   41.1696 C   0  0  1  0  0  0  0  0  0  0  0  0
   -2.4702    6.0462   40.7032 C   0  0  2  0  0  0  0  0  0  0  0  0
   -3.1455    5.5376   41.8087 O   0  0  0  0  0  0  0  0  0  0  0  0
   -1.4147    5.1836   39.9787 C   0  0  2  0  0  0  0  0  0  0  0  0
   -1.3786    3.9092   40.6602 O   0  0  0  0  0  0  0  0  0  0  0  0
   -0.1370    5.9435   40.1185 C   0  0  2  0  0  0  0  0  0  0  0  0
   -0.7209    7.2951   40.1051 O   0  0  0  0  0  0  0  0  0  0  0  0
    0.8025    5.7423   38.8729 C   0  0  0  0  0  0  0  0  0  0  0  0
    0.2272    6.2245   37.6217 O   0  0  0  0  0  0  0  0  0  0  0  0
   -2.5321    3.0324   40.4823 C   0  0  2  0  0  0  0  0  0  0  0  0
   -2.2510    1.6485   41.2697 C   0  0  2  0  0  0  0  0  0  0  0  0
   -0.9949    1.0261   40.7391 N   0  0  0  0  0  0  0  0  0  0  0  0
   -3.5267    0.6907   41.0720 C   0  0  1  0  0  0  0  0  0  0  0  0
   -4.6858    1.3949   41.6126 O   0  0  0  0  0  0  0  0  0  0  0  0
   -3.7184    0.3760   39.5200 C   0  0  2  0  0  0  0  0  0  0  0  0
   -2.5151   -0.3469   39.0514 O   0  0  0  0  0  0  0  0  0  0  0  0
   -3.9428    1.7904   38.7383 C   0  0  1  0  0  0  0  0  0  0  0  0
   -2.7688    2.7019   38.9944 O   0  0  0  0  0  0  0  0  0  0  0  0
   -4.1174    1.5203   37.2070 C   0  0  0  0  0  0  0  0  0  0  0  0
   -2.9217    0.8636   36.5935 N   0  0  0  0  0  0  0  0  0  0  0  0
  1  3  1  0  0  0  0
  1  2  1  1  0  0  0
  3  4  1  1  0  0  0
  3  5  1  0  0  0  0
  5  6  1  6  0  0  0
  7  8  1  1  0  0  0
  7  5  1  0  0  0  0
  9 11  1  1  0  0  0
  9  7  1  0  0  0  0
 10  9  1  0  0  0  0
 10  1  1  0  0  0  0
 12 11  1  0  0  0  0
 13 14  1  1  0  0  0
 15 13  1  0  0  0  0
 16 17  1  1  0  0  0
 16 15  1  0  0  0  0
 18  2  1  6  0  0  0
 18 19  1  0  0  0  0
 18 16  1  0  0  0  0
 19 20  1  1  0  0  0
 19 21  1  0  0  0  0
 21 22  1  6  0  0  0
 21 13  1  0  0  0  0
 23 20  1  6  0  0  0
 23 29  1  0  0  0  0
 24 25  1  1  0  0  0
 24 26  1  0  0  0  0
 24 23  1  0  0  0  0
 26 27  1  1  0  0  0
 26 28  1  0  0  0  0
 28 30  1  6  0  0  0
 29 28  1  0  0  0  0
 30 31  1  0  0  0  0
 32 27  1  6  0  0  0
 32 40  1  0  0  0  0
 33 35  1  0  0  0  0
 33 32  1  0  0  0  0
 33 34  1  6  0  0  0
 35 36  1  6  0  0  0
 35 37  1  0  0  0  0
 37 38  1  6  0  0  0
 37 39  1  0  0  0  0
 39 41  1  6  0  0  0
 40 39  1  0  0  0  0
 41 42  1  0  0  0  0
M  END
>  <CHROM.1>
-178.56504339,-66.98349526,178.96242316,163.14842836,-176.46583067,71.00386404
62.04235160,177.45184440,-60.79166495,-2.82376012,7.23639937,40.45133955
1.71975031,-0.63018677,0.22931222

>  <Name>
lig.pdb

>  <RI>
0

>  <Rbt.Current_Directory>
/home/itssahil/PROJECTS/Mol_Feturizer/New_Systems/rnas/4wcr

>  <Rbt.Executable>
rbdock ($Id: //depot/dev/client3/rdock/2013.1/src/exe/rbdock.cxx#4 $)

>  <Rbt.Library>
libRbt.so (2013.1, Build901 2013/11/27)

>  <Rbt.Parameter_File>
/export/apps/rDock/src/rDock_2013.1_src/data/scripts/dock_solv.prm

>  <Rbt.Receptor>
prm/pocket_docking_7.prm

>  <SCORE>
-4.74884

>  <SCORE.INTER>
3.94523

>  <SCORE.INTER.CONST>
1

>  <SCORE.INTER.POLAR>
0

>  <SCORE.INTER.ROT>
9

>  <SCORE.INTER.SOLV>
8.6886

>  <SCORE.INTER.VDW>
-9.86605

>  <SCORE.INTER.norm>
0.093934

>  <SCORE.INTRA>
-8.69406

>  <SCORE.INTRA.DIHEDRAL>
-13.5742

>  <SCORE.INTRA.DIHEDRAL.0>
16.2863

>  <SCORE.INTRA.POLAR>
0

>  <SCORE.INTRA.POLAR.0>
0

>  <SCORE.INTRA.REPUL>
-0.314433

>  <SCORE.INTRA.REPUL.0>
0.314433

>  <SCORE.INTRA.SOLV>
-4.01769

>  <SCORE.INTRA.SOLV.lig_0>
-103.824

>  <SCORE.INTRA.VDW>
1.67405

>  <SCORE.INTRA.VDW.0>
-5.30945

>  <SCORE.INTRA.norm>
-0.207002

>  <SCORE.RESTR>
0

>  <SCORE.RESTR.CAVITY>
0

>  <SCORE.RESTR.norm>
0

>  <SCORE.SYSTEM>
0

>  <SCORE.SYSTEM.CONST>
0

>  <SCORE.SYSTEM.DIHEDRAL>
0

>  <SCORE.SYSTEM.SOLV>
0

>  <SCORE.SYSTEM.norm>
0

>  <SCORE.heavy>
42

>  <SCORE.norm>
-0.113068

>  <RMSD>
8.534

$$$$
lig.pdb
 OpenBabel11021811513D
libRbt.so/2013.1/901 2013/11/27
 42 45  0  0  0  0  0  0  0  0999 V2000
   -0.0985   18.4386   37.2460 C   0  0  2  0  0  0  0  0  0  0  0  0
   -1.2223   18.9434   36.4590 O   0  0  0  0  0  0  0  0  0  0  0  0
    0.5591   17.2721   36.3819 C   0  0  2  0  0  0  0  0  0  0  0  0
    1.0663   17.8025   35.1134 N   0  0  0  0  0  0  0  0  0  0  0  0
   -0.5318   16.1138   36.1624 C   0  0  1  0  0  0  0  0  0  0  0  0
    0.0152   15.0225   35.3925 O   0  0  0  0  0  0  0  0  0  0  0  0
   -0.9891   15.6502   37.5561 C   0  0  2  0  0  0  0  0  0  0  0  0
   -1.9360   14.6480   37.4051 O   0  0  0  0  0  0  0  0  0  0  0  0
   -1.5912   16.8848   38.3694 C   0  0  2  0  0  0  0  0  0  0  0  0
   -0.6192   17.9255   38.5303 O   0  0  0  0  0  0  0  0  0  0  0  0
   -2.0364   16.4883   39.7484 C   0  0  0  0  0  0  0  0  0  0  0  0
   -3.1669   15.6271   39.6067 O   0  0  0  0  0  0  0  0  0  0  0  0
   -1.5471   21.5915   32.9016 C   0  0  2  0  0  0  0  0  0  0  0  0
   -1.3117   22.1570   31.5910 N   0  0  0  0  0  0  0  0  0  0  0  0
   -0.1981   21.5277   33.7170 C   0  0  0  0  0  0  0  0  0  0  0  0
   -0.4260   20.9131   35.1427 C   0  0  2  0  0  0  0  0  0  0  0  0
    0.8461   20.8653   35.8606 N   0  0  0  0  0  0  0  0  0  0  0  0
   -1.0344   19.4419   35.0811 C   0  0  2  0  0  0  0  0  0  0  0  0
   -2.3817   19.5274   34.3072 C   0  0  2  0  0  0  0  0  0  0  0  0
   -2.8926   18.1055   34.3027 O   0  0  0  0  0  0  0  0  0  0  0  0
   -2.1283   20.1024   32.8063 C   0  0  1  0  0  0  0  0  0  0  0  0
   -3.3373   20.2788   32.0004 O   0  0  0  0  0  0  0  0  0  0  0  0
   -3.5391   17.8108   33.1312 C   0  0  1  0  0  0  0  0  0  0  0  0
   -4.1074   16.4588   33.1118 C   0  0  2  0  0  0  0  0  0  0  0  0
   -3.0484   15.5647   32.9856 O   0  0  0  0  0  0  0  0  0  0  0  0
   -5.1484   16.5879   31.9792 C   0  0  2  0  0  0  0  0  0  0  0  0
   -4.7685   15.6423   30.9539 O   0  0  0  0  0  0  0  0  0  0  0  0
   -5.0409   18.0045   31.5193 C   0  0  2  0  0  0  0  0  0  0  0  0
   -4.6778   18.5956   32.8180 O   0  0  0  0  0  0  0  0  0  0  0  0
   -6.4262   18.5677   31.0313 C   0  0  0  0  0  0  0  0  0  0  0  0
   -6.6867   18.3348   29.6146 O   0  0  0  0  0  0  0  0  0  0  0  0
   -5.8472   15.0558   30.1643 C   0  0  2  0  0  0  0  0  0  0  0  0
   -5.3747   13.5959   29.6546 C   0  0  2  0  0  0  0  0  0  0  0  0
   -4.1155   13.7373   28.8538 N   0  0  0  0  0  0  0  0  0  0  0  0
   -6.5688   12.9558   28.7896 C   0  0  1  0  0  0  0  0  0  0  0  0
   -7.7384   12.8727   29.6595 O   0  0  0  0  0  0  0  0  0  0  0  0
   -6.8602   13.8795   27.5222 C   0  0  2  0  0  0  0  0  0  0  0  0
   -5.6390   13.9023   26.6867 O   0  0  0  0  0  0  0  0  0  0  0  0
   -7.2788   15.3622   28.0593 C   0  0  1  0  0  0  0  0  0  0  0  0
   -6.1764   15.9159   28.9270 O   0  0  0  0  0  0  0  0  0  0  0  0
   -7.5555   16.3021   26.8392 C   0  0  0  0  0  0  0  0  0  0  0  0
   -8.1135   17.6295   27.2442 N   0  0  0  0  0  0  0  0  0  0  0  0
  1  3  1  0  0  0  0
  1  2  1  6  0  0  0
  3  4  1  6  0  0  0
  3  5  1  0  0  0  0
  5  6  1  1  0  0  0
  7  8  1  6  0  0  0
  7  5  1  0  0  0  0
  9 11  1  1  0  0  0
  9  7  1  0  0  0  0
 10  9  1  0  0  0  0
 10  1  1  0  0  0  0
 12 11  1  0  0  0  0
 13 14  1  6  0  0  0
 15 13  1  0  0  0  0
 16 17  1  6  0  0  0
 16 15  1  0  0  0  0
 18  2  1  1  0  0  0
 18 19  1  0  0  0  0
 18 16  1  0  0  0  0
 19 20  1  6  0  0  0
 19 21  1  0  0  0  0
 21 22  1  6  0  0  0
 21 13  1  0  0  0  0
 23 20  1  1  0  0  0
 23 29  1  0  0  0  0
 24 25  1  6  0  0  0
 24 26  1  0  0  0  0
 24 23  1  0  0  0  0
 26 27  1  6  0  0  0
 26 28  1  0  0  0  0
 28 30  1  1  0  0  0
 29 28  1  0  0  0  0
 30 31  1  0  0  0  0
 32 27  1  6  0  0  0
 32 40  1  0  0  0  0
 33 35  1  0  0  0  0
 33 32  1  0  0  0  0
 33 34  1  6  0  0  0
 35 36  1  1  0  0  0
 35 37  1  0  0  0  0
 37 38  1  6  0  0  0
 37 39  1  0  0  0  0
 39 41  1  6  0  0  0
 40 39  1  0  0  0  0
 41 42  1  0  0  0  0
M  END
>  <CHROM.1>
-56.20966577,-67.93208502,-78.25879550,-144.28890292,-177.23130511,148.87682404
-89.02377403,-152.09859084,172.67817161,-3.34883212,17.16366836,32.98823183
0.19280426,0.97165788,2.57471158

>  <Name>
lig.pdb

>  <RI>
0

>  <Rbt.Current_Directory>
/home/itssahil/PROJECTS/Mol_Feturizer/New_Systems/rnas/4wcr

>  <Rbt.Executable>
rbdock ($Id: //depot/dev/client3/rdock/2013.1/src/exe/rbdock.cxx#4 $)

>  <Rbt.Library>
libRbt.so (2013.1, Build901 2013/11/27)

>  <Rbt.Parameter_File>
/export/apps/rDock/src/rDock_2013.1_src/data/scripts/dock_solv.prm

>  <Rbt.Receptor>
prm/blind_docking_100.prm

>  <SCORE>
7.32951

>  <SCORE.INTER>
-4.49342

>  <SCORE.INTER.CONST>
1

>  <SCORE.INTER.POLAR>
0

>  <SCORE.INTER.ROT>
9

>  <SCORE.INTER.SOLV>
33.8623

>  <SCORE.INTER.VDW>
-23.883

>  <SCORE.INTER.norm>
-0.106986

>  <SCORE.INTRA>
5.07685

>  <SCORE.INTRA.DIHEDRAL>
0.0786291

>  <SCORE.INTRA.DIHEDRAL.0>
16.2863

>  <SCORE.INTRA.POLAR>
0

>  <SCORE.INTRA.POLAR.0>
0

>  <SCORE.INTRA.REPUL>
-0.314433

>  <SCORE.INTRA.REPUL.0>
0.314433

>  <SCORE.INTRA.SOLV>
1.58102

>  <SCORE.INTRA.SOLV.lig_0>
-103.824

>  <SCORE.INTRA.VDW>
5.81919

>  <SCORE.INTRA.VDW.0>
-5.30945

>  <SCORE.INTRA.norm>
0.120877

>  <SCORE.RESTR>
6.74607

>  <SCORE.RESTR.CAVITY>
6.74607

>  <SCORE.RESTR.norm>
0.160621

>  <SCORE.SYSTEM>
0

>  <SCORE.SYSTEM.CONST>
0

>  <SCORE.SYSTEM.DIHEDRAL>
0

>  <SCORE.SYSTEM.SOLV>
0

>  <SCORE.SYSTEM.norm>
0

>  <SCORE.heavy>
42

>  <SCORE.norm>
0.174512

>  <RMSD>
8.566

$$$$
lig.pdb
 OpenBabel11021811513D
libRbt.so/2013.1/901 2013/11/27
 42 45  0  0  0  0  0  0  0  0999 V2000
   -2.0199   16.1361   34.4410 C   0  0  2  0  0  0  0  0  0  0  0  0
   -2.8709   17.2559   34.8396 O   0  0  0  0  0  0  0  0  0  0  0  0
   -2.4836   14.8916   35.3221 C   0  0  2  0  0  0  0  0  0  0  0  0
   -3.8801   14.5550   35.0322 N   0  0  0  0  0  0  0  0  0  0  0  0
   -2.2531   15.2417   36.8726 C   0  0  1  0  0  0  0  0  0  0  0  0
   -2.6471   14.1413   37.7191 O   0  0  0  0  0  0  0  0  0  0  0  0
   -0.7631   15.5832   37.0448 C   0  0  2  0  0  0  0  0  0  0  0  0
   -0.5268   15.8936   38.3758 O   0  0  0  0  0  0  0  0  0  0  0  0
   -0.3726   16.8067   36.0966 C   0  0  2  0  0  0  0  0  0  0  0  0
   -0.6135   16.4947   34.7189 O   0  0  0  0  0  0  0  0  0  0  0  0
    1.0809   17.1687   36.2131 C   0  0  0  0  0  0  0  0  0  0  0  0
    1.3019   17.6484   37.5400 O   0  0  0  0  0  0  0  0  0  0  0  0
   -3.1489   21.6856   34.5688 C   0  0  2  0  0  0  0  0  0  0  0  0
   -2.7729   23.0720   34.3972 N   0  0  0  0  0  0  0  0  0  0  0  0
   -2.2668   21.0178   35.6934 C   0  0  0  0  0  0  0  0  0  0  0  0
   -2.6526   19.5103   35.8961 C   0  0  2  0  0  0  0  0  0  0  0  0
   -1.8096   18.9286   36.9386 N   0  0  0  0  0  0  0  0  0  0  0  0
   -2.4824   18.6541   34.5633 C   0  0  2  0  0  0  0  0  0  0  0  0
   -3.3864   19.3023   33.4750 C   0  0  2  0  0  0  0  0  0  0  0  0
   -3.1759   18.4321   32.2580 O   0  0  0  0  0  0  0  0  0  0  0  0
   -2.9370   20.8455   33.2221 C   0  0  1  0  0  0  0  0  0  0  0  0
   -3.7558   21.5762   32.2536 O   0  0  0  0  0  0  0  0  0  0  0  0
   -4.2624   18.4686   31.4239 C   0  0  1  0  0  0  0  0  0  0  0  0
   -5.4697   17.8933   32.0260 C   0  0  2  0  0  0  0  0  0  0  0  0
   -5.2964   16.5131   32.0673 O   0  0  0  0  0  0  0  0  0  0  0  0
   -6.5704   18.5072   31.1343 C   0  0  2  0  0  0  0  0  0  0  0  0
   -7.2572   17.4042   30.5009 O   0  0  0  0  0  0  0  0  0  0  0  0
   -5.8372   19.3631   30.1547 C   0  0  2  0  0  0  0  0  0  0  0  0
   -4.7273   19.7521   31.0405 O   0  0  0  0  0  0  0  0  0  0  0  0
   -6.6753   20.6285   29.7416 C   0  0  0  0  0  0  0  0  0  0  0  0
   -7.0116   21.4997   30.8628 O   0  0  0  0  0  0  0  0  0  0  0  0
   -6.5020   16.6329   29.5181 C   0  0  2  0  0  0  0  0  0  0  0  0
   -7.4103   16.4627   28.1914 C   0  0  2  0  0  0  0  0  0  0  0  0
   -8.6961   15.7851   28.5580 N   0  0  0  0  0  0  0  0  0  0  0  0
   -6.5704   15.6161   27.1135 C   0  0  1  0  0  0  0  0  0  0  0  0
   -5.3444   16.3594   26.8380 O   0  0  0  0  0  0  0  0  0  0  0  0
   -6.2452   14.1727   27.7094 C   0  0  2  0  0  0  0  0  0  0  0  0
   -7.5310   13.4797   27.9477 O   0  0  0  0  0  0  0  0  0  0  0  0
   -5.3782   14.3708   29.0772 C   0  0  1  0  0  0  0  0  0  0  0  0
   -6.1527   15.2270   30.0477 O   0  0  0  0  0  0  0  0  0  0  0  0
   -5.0556   12.9720   29.6998 C   0  0  0  0  0  0  0  0  0  0  0  0
   -6.2748   12.2639   30.1992 N   0  0  0  0  0  0  0  0  0  0  0  0
  1  3  1  0  0  0  0
  1  2  1  1  0  0  0
  3  4  1  1  0  0  0
  3  5  1  0  0  0  0
  5  6  1  1  0  0  0
  7  8  1  1  0  0  0
  7  5  1  0  0  0  0
  9 11  1  6  0  0  0
  9  7  1  0  0  0  0
 10  9  1  0  0  0  0
 10  1  1  0  0  0  0
 12 11  1  0  0  0  0
 13 14  1  6  0  0  0
 15 13  1  0  0  0  0
 16 17  1  1  0  0  0
 16 15  1  0  0  0  0
 18  2  1  1  0  0  0
 18 19  1  0  0  0  0
 18 16  1  0  0  0  0
 19 20  1  6  0  0  0
 19 21  1  0  0  0  0
 21 22  1  6  0  0  0
 21 13  1  0  0  0  0
 23 20  1  1  0  0  0
 23 29  1  0  0  0  0
 24 25  1  6  0  0  0
 24 26  1  0  0  0  0
 24 23  1  0  0  0  0
 26 27  1  6  0  0  0
 26 28  1  0  0  0  0
 28 30  1  1  0  0  0
 29 28  1  0  0  0  0
 30 31  1  0  0  0  0
 32 27  1  1  0  0  0
 32 40  1  0  0  0  0
 33 35  1  0  0  0  0
 33 32  1  0  0  0  0
 33 34  1  1  0  0  0
 35 36  1  1  0  0  0
 35 37  1  0  0  0  0
 37 38  1  1  0  0  0
 37 39  1  0  0  0  0
 39 41  1  1  0  0  0
 40 39  1  0  0  0  0
 41 42  1  0  0  0  0
M  END
>  <CHROM.1>
160.76071731,-65.23217642,-131.31095626,153.57569665,-64.95976369,-67.95353236
60.07007255,-131.75895379,-66.91210736,-4.01387162,17.33378031,32.65465544
-0.20552216,0.93845157,-3.09844435

>  <Name>
lig.pdb

>  <RI>
0

>  <Rbt.Current_Directory>
/home/itssahil/PROJECTS/Mol_Feturizer/New_Systems/rnas/4wcr

>  <Rbt.Executable>
rbdock ($Id: //depot/dev/client3/rdock/2013.1/src/exe/rbdock.cxx#4 $)

>  <Rbt.Library>
libRbt.so (2013.1, Build901 2013/11/27)

>  <Rbt.Parameter_File>
/export/apps/rDock/src/rDock_2013.1_src/data/scripts/dock_solv.prm

>  <Rbt.Receptor>
prm/blind_docking_100.prm

>  <SCORE>
10.281

>  <SCORE.INTER>
1.98569

>  <SCORE.INTER.CONST>
1

>  <SCORE.INTER.POLAR>
0

>  <SCORE.INTER.ROT>
9

>  <SCORE.INTER.SOLV>
32.6591

>  <SCORE.INTER.VDW>
-19.1626

>  <SCORE.INTER.norm>
0.0472784

>  <SCORE.INTRA>
4.10557

>  <SCORE.INTRA.DIHEDRAL>
2.66427

>  <SCORE.INTRA.DIHEDRAL.0>
16.2863

>  <SCORE.INTRA.POLAR>
0

>  <SCORE.INTRA.POLAR.0>
0

>  <SCORE.INTRA.REPUL>
-0.314433

>  <SCORE.INTRA.REPUL.0>
0.314433

>  <SCORE.INTRA.SOLV>
2.17196

>  <SCORE.INTRA.SOLV.lig_0>
-103.824

>  <SCORE.INTRA.VDW>
3.25962

>  <SCORE.INTRA.VDW.0>
-5.30945

>  <SCORE.INTRA.norm>
0.0977516

>  <SCORE.RESTR>
4.18975

>  <SCORE.RESTR.CAVITY>
4.18975

>  <SCORE.RESTR.norm>
0.099756

>  <SCORE.SYSTEM>
0

>  <SCORE.SYSTEM.CONST>
0

>  <SCORE.SYSTEM.DIHEDRAL>
0

>  <SCORE.SYSTEM.SOLV>
0

>  <SCORE.SYSTEM.norm>
0

>  <SCORE.heavy>
42

>  <SCORE.norm>
0.244786

>  <RMSD>
8.581

$$$$
lig.pdb
 OpenBabel11021811513D
libRbt.so/2013.1/901 2013/11/27
 42 45  0  0  0  0  0  0  0  0999 V2000
   -3.0690   16.7174   35.4304 C   0  0  2  0  0  0  0  0  0  0  0  0
   -2.1782   16.9747   34.3001 O   0  0  0  0  0  0  0  0  0  0  0  0
   -2.6037   17.7017   36.5943 C   0  0  2  0  0  0  0  0  0  0  0  0
   -2.7593   19.0968   36.1734 N   0  0  0  0  0  0  0  0  0  0  0  0
   -1.0867   17.3529   36.9904 C   0  0  1  0  0  0  0  0  0  0  0  0
   -0.6155   18.2097   38.0518 O   0  0  0  0  0  0  0  0  0  0  0  0
   -1.0537   15.8711   37.4019 C   0  0  2  0  0  0  0  0  0  0  0  0
    0.2457   15.5330   37.7500 O   0  0  0  0  0  0  0  0  0  0  0  0
   -1.5763   14.9609   36.1991 C   0  0  2  0  0  0  0  0  0  0  0  0
   -2.9187   15.3034   35.8327 O   0  0  0  0  0  0  0  0  0  0  0  0
   -1.5818   13.5018   36.5573 C   0  0  0  0  0  0  0  0  0  0  0  0
   -0.2243   13.0596   36.5899 O   0  0  0  0  0  0  0  0  0  0  0  0
   -2.8048   21.2648   33.3129 C   0  0  2  0  0  0  0  0  0  0  0  0
   -2.8343   22.5086   32.5746 N   0  0  0  0  0  0  0  0  0  0  0  0
   -1.3498   20.6553   33.2940 C   0  0  0  0  0  0  0  0  0  0  0  0
   -1.2919   19.3016   34.0856 C   0  0  2  0  0  0  0  0  0  0  0  0
    0.0678   18.7681   34.0377 N   0  0  0  0  0  0  0  0  0  0  0  0
   -2.2912   18.2093   33.4969 C   0  0  2  0  0  0  0  0  0  0  0  0
   -3.7255   18.8101   33.5568 C   0  0  2  0  0  0  0  0  0  0  0  0
   -4.6044   17.7172   32.9948 O   0  0  0  0  0  0  0  0  0  0  0  0
   -3.7952   20.1781   32.6786 C   0  0  1  0  0  0  0  0  0  0  0  0
   -5.0876   20.8644   32.7062 O   0  0  0  0  0  0  0  0  0  0  0  0
   -5.0813   18.0484   31.7538 C   0  0  1  0  0  0  0  0  0  0  0  0
   -5.4958   16.8824   30.9665 C   0  0  2  0  0  0  0  0  0  0  0  0
   -4.3397   16.2195   30.5655 O   0  0  0  0  0  0  0  0  0  0  0  0
   -6.4122   17.5423   29.9140 C   0  0  2  0  0  0  0  0  0  0  0  0
   -5.8216   17.2767   28.6216 O   0  0  0  0  0  0  0  0  0  0  0  0
   -6.4067   18.9954   30.2579 C   0  0  2  0  0  0  0  0  0  0  0  0
   -6.2556   18.8421   31.7144 O   0  0  0  0  0  0  0  0  0  0  0  0
   -7.7815   19.6814   29.9208 C   0  0  0  0  0  0  0  0  0  0  0  0
   -8.2004   19.5032   28.5344 O   0  0  0  0  0  0  0  0  0  0  0  0
   -5.9330   15.9132   28.1124 C   0  0  2  0  0  0  0  0  0  0  0  0
   -7.4988   15.5712   27.8995 C   0  0  2  0  0  0  0  0  0  0  0  0
   -8.2209   15.7367   29.2026 N   0  0  0  0  0  0  0  0  0  0  0  0
   -7.6124   14.0702   27.3354 C   0  0  1  0  0  0  0  0  0  0  0  0
   -6.8724   14.0222   26.0778 O   0  0  0  0  0  0  0  0  0  0  0  0
   -6.9989   13.0548   28.4018 C   0  0  2  0  0  0  0  0  0  0  0  0
   -7.8072   13.1513   29.6377 O   0  0  0  0  0  0  0  0  0  0  0  0
   -5.4357   13.4546   28.6436 C   0  0  1  0  0  0  0  0  0  0  0  0
   -5.3453   14.8880   29.1038 O   0  0  0  0  0  0  0  0  0  0  0  0
   -4.8054   12.4874   29.7000 C   0  0  0  0  0  0  0  0  0  0  0  0
   -5.4682   12.5779   31.0378 N   0  0  0  0  0  0  0  0  0  0  0  0
  1  3  1  0  0  0  0
  1  2  1  6  0  0  0
  3  4  1  6  0  0  0
  3  5  1  0  0  0  0
  5  6  1  1  0  0  0
  7  8  1  6  0  0  0
  7  5  1  0  0  0  0
  9 11  1  1  0  0  0
  9  7  1  0  0  0  0
 10  9  1  0  0  0  0
 10  1  1  0  0  0  0
 12 11  1  0  0  0  0
 13 14  1  6  0  0  0
 15 13  1  0  0  0  0
 16 17  1  6  0  0  0
 16 15  1  0  0  0  0
 18  2  1  1  0  0  0
 18 19  1  0  0  0  0
 18 16  1  0  0  0  0
 19 20  1  6  0  0  0
 19 21  1  0  0  0  0
 21 22  1  1  0  0  0
 21 13  1  0  0  0  0
 23 20  1  1  0  0  0
 23 29  1  0  0  0  0
 24 25  1  6  0  0  0
 24 26  1  0  0  0  0
 24 23  1  0  0  0  0
 26 27  1  6  0  0  0
 26 28  1  0  0  0  0
 28 30  1  1  0  0  0
 29 28  1  0  0  0  0
 30 31  1  0  0  0  0
 32 27  1  1  0  0  0
 32 40  1  0  0  0  0
 33 35  1  0  0  0  0
 33 32  1  0  0  0  0
 33 34  1  1  0  0  0
 35 36  1  6  0  0  0
 35 37  1  0  0  0  0
 37 38  1  1  0  0  0
 37 39  1  0  0  0  0
 39 41  1  1  0  0  0
 40 39  1  0  0  0  0
 41 42  1  0  0  0  0
M  END
>  <CHROM.1>
-72.86821679,-72.51631332,93.43369061,-108.77969936,158.34187413,73.21115884
-54.97927513,63.09654871,-62.05857597,-4.16900019,16.89445784,32.33512140
-0.22940230,0.93151796,-3.08795236

>  <Name>
lig.pdb

>  <RI>
0

>  <Rbt.Current_Directory>
/home/itssahil/PROJECTS/Mol_Feturizer/New_Systems/rnas/4wcr

>  <Rbt.Executable>
rbdock ($Id: //depot/dev/client3/rdock/2013.1/src/exe/rbdock.cxx#4 $)

>  <Rbt.Library>
libRbt.so (2013.1, Build901 2013/11/27)

>  <Rbt.Parameter_File>
/export/apps/rDock/src/rDock_2013.1_src/data/scripts/dock_solv.prm

>  <Rbt.Receptor>
prm/blind_docking_100.prm

>  <SCORE>
21.2981

>  <SCORE.INTER>
5.93811

>  <SCORE.INTER.CONST>
1

>  <SCORE.INTER.POLAR>
0

>  <SCORE.INTER.ROT>
9

>  <SCORE.INTER.SOLV>
32.3656

>  <SCORE.INTER.VDW>
-16.4298

>  <SCORE.INTER.norm>
0.141384

>  <SCORE.INTRA>
12.0992

>  <SCORE.INTRA.DIHEDRAL>
-0.600582

>  <SCORE.INTRA.DIHEDRAL.0>
16.2863

>  <SCORE.INTRA.POLAR>
0

>  <SCORE.INTRA.POLAR.0>
0

>  <SCORE.INTRA.REPUL>
-0.314433

>  <SCORE.INTRA.REPUL.0>
0.314433

>  <SCORE.INTRA.SOLV>
7.1813

>  <SCORE.INTRA.SOLV.lig_0>
-103.824

>  <SCORE.INTRA.VDW>
10.381

>  <SCORE.INTRA.VDW.0>
-5.30945

>  <SCORE.INTRA.norm>
0.288076

>  <SCORE.RESTR>
3.26077

>  <SCORE.RESTR.CAVITY>
3.26077

>  <SCORE.RESTR.norm>
0.0776373

>  <SCORE.SYSTEM>
0

>  <SCORE.SYSTEM.CONST>
0

>  <SCORE.SYSTEM.DIHEDRAL>
0

>  <SCORE.SYSTEM.SOLV>
0

>  <SCORE.SYSTEM.norm>
0

>  <SCORE.heavy>
42

>  <SCORE.norm>
0.507096

>  <RMSD>
8.584

$$$$
lig.pdb
 OpenBabel11021811513D
libRbt.so/2013.1/901 2013/11/27
 42 45  0  0  0  0  0  0  0  0999 V2000
   -0.0403   17.6149   34.7097 C   0  0  2  0  0  0  0  0  0  0  0  0
   -1.2859   18.3779   34.7670 O   0  0  0  0  0  0  0  0  0  0  0  0
   -0.0904   16.5924   35.9312 C   0  0  2  0  0  0  0  0  0  0  0  0
   -1.2203   15.6717   35.7780 N   0  0  0  0  0  0  0  0  0  0  0  0
   -0.1693   17.4272   37.3010 C   0  0  1  0  0  0  0  0  0  0  0  0
   -0.2058   16.5484   38.4451 O   0  0  0  0  0  0  0  0  0  0  0  0
    1.0569   18.3554   37.3389 C   0  0  2  0  0  0  0  0  0  0  0  0
    1.0209   19.0956   38.5112 O   0  0  0  0  0  0  0  0  0  0  0  0
    1.0544   19.3120   36.0609 C   0  0  2  0  0  0  0  0  0  0  0  0
    1.0916   18.5553   34.8445 O   0  0  0  0  0  0  0  0  0  0  0  0
    2.2450   20.2281   36.0400 C   0  0  0  0  0  0  0  0  0  0  0  0
    1.7931   21.5327   36.4051 O   0  0  0  0  0  0  0  0  0  0  0  0
   -2.9253   21.8186   32.4765 C   0  0  2  0  0  0  0  0  0  0  0  0
   -3.3020   22.6700   31.3691 N   0  0  0  0  0  0  0  0  0  0  0  0
   -1.3840   21.4888   32.4094 C   0  0  0  0  0  0  0  0  0  0  0  0
   -0.9504   20.5617   33.5989 C   0  0  2  0  0  0  0  0  0  0  0  0
    0.4790   20.2750   33.4958 N   0  0  0  0  0  0  0  0  0  0  0  0
   -1.7487   19.1831   33.6182 C   0  0  2  0  0  0  0  0  0  0  0  0
   -3.2636   19.5238   33.7223 C   0  0  2  0  0  0  0  0  0  0  0  0
   -3.9421   18.1741   33.7448 O   0  0  0  0  0  0  0  0  0  0  0  0
   -3.7212   20.4293   32.4503 C   0  0  1  0  0  0  0  0  0  0  0  0
   -5.1203   20.8585   32.4693 O   0  0  0  0  0  0  0  0  0  0  0  0
   -4.3937   17.8213   32.5003 C   0  0  1  0  0  0  0  0  0  0  0  0
   -4.9384   16.4604   32.4500 C   0  0  2  0  0  0  0  0  0  0  0  0
   -3.8640   15.5795   32.5294 O   0  0  0  0  0  0  0  0  0  0  0  0
   -5.7900   16.5262   31.1641 C   0  0  2  0  0  0  0  0  0  0  0  0
   -5.2445   15.5461   30.2522 O   0  0  0  0  0  0  0  0  0  0  0  0
   -5.6257   17.9244   30.6665 C   0  0  2  0  0  0  0  0  0  0  0  0
   -5.4768   18.5738   31.9795 O   0  0  0  0  0  0  0  0  0  0  0  0
   -6.9228   18.4444   29.9442 C   0  0  0  0  0  0  0  0  0  0  0  0
   -6.7243   19.6887   29.2084 O   0  0  0  0  0  0  0  0  0  0  0  0
   -6.2010   14.7392   29.5005 C   0  0  2  0  0  0  0  0  0  0  0  0
   -5.4540   13.3982   28.9928 C   0  0  2  0  0  0  0  0  0  0  0  0
   -4.2717   13.7800   28.1544 N   0  0  0  0  0  0  0  0  0  0  0  0
   -6.5146   12.5141   28.1697 C   0  0  1  0  0  0  0  0  0  0  0  0
   -7.6194   12.2086   29.0740 O   0  0  0  0  0  0  0  0  0  0  0  0
   -7.0216   13.3383   26.9016 C   0  0  2  0  0  0  0  0  0  0  0  0
   -5.8531   13.5958   26.0307 O   0  0  0  0  0  0  0  0  0  0  0  0
   -7.7198   14.7131   27.4348 C   0  0  1  0  0  0  0  0  0  0  0  0
   -6.7313   15.4940   28.2642 O   0  0  0  0  0  0  0  0  0  0  0  0
   -8.2146   15.5569   26.2134 C   0  0  0  0  0  0  0  0  0  0  0  0
   -8.7896   16.8779   26.6155 N   0  0  0  0  0  0  0  0  0  0  0  0
  1  3  1  0  0  0  0
  1  2  1  1  0  0  0
  3  4  1  6  0  0  0
  3  5  1  0  0  0  0
  5  6  1  1  0  0  0
  7  8  1  1  0  0  0
  7  5  1  0  0  0  0
  9 11  1  1  0  0  0
  9  7  1  0  0  0  0
 10  9  1  0  0  0  0
 10  1  1  0  0  0  0
 12 11  1  0  0  0  0
 13 14  1  6  0  0  0
 15 13  1  0  0  0  0
 16 17  1  6  0  0  0
 16 15  1  0  0  0  0
 18  2  1  1  0  0  0
 18 19  1  0  0  0  0
 18 16  1  0  0  0  0
 19 20  1  6  0  0  0
 19 21  1  0  0  0  0
 21 22  1  1  0  0  0
 21 13  1  0  0  0  0
 23 20  1  1  0  0  0
 23 29  1  0  0  0  0
 24 25  1  6  0  0  0
 24 26  1  0  0  0  0
 24 23  1  0  0  0  0
 26 27  1  6  0  0  0
 26 28  1  0  0  0  0
 28 30  1  1  0  0  0
 29 28  1  0  0  0  0
 30 31  1  0  0  0  0
 32 27  1  6  0  0  0
 32 40  1  0  0  0  0
 33 35  1  0  0  0  0
 33 32  1  0  0  0  0
 33 34  1  6  0  0  0
 35 36  1  1  0  0  0
 35 37  1  0  0  0  0
 37 38  1  6  0  0  0
 37 39  1  0  0  0  0
 39 41  1  6  0  0  0
 40 39  1  0  0  0  0
 41 42  1  0  0  0  0
M  END
>  <CHROM.1>
-164.73806413,-105.06948317,-79.68461132,-97.33241396,174.21192314,138.17737511
-168.20370295,-159.31037260,-176.30035266,-3.43025231,17.55196045,32.19337546
-0.37152590,0.84155942,3.12218675

>  <Name>
lig.pdb

>  <RI>
0

>  <Rbt.Current_Directory>
/home/itssahil/PROJECTS/Mol_Feturizer/New_Systems/rnas/4wcr

>  <Rbt.Executable>
rbdock ($Id: //depot/dev/client3/rdock/2013.1/src/exe/rbdock.cxx#4 $)

>  <Rbt.Library>
libRbt.so (2013.1, Build901 2013/11/27)

>  <Rbt.Parameter_File>
/export/apps/rDock/src/rDock_2013.1_src/data/scripts/dock_solv.prm

>  <Rbt.Receptor>
prm/blind_docking_100.prm

>  <SCORE>
1.89536

>  <SCORE.INTER>
-11.8035

>  <SCORE.INTER.CONST>
1

>  <SCORE.INTER.POLAR>
0

>  <SCORE.INTER.ROT>
9

>  <SCORE.INTER.SOLV>
33.9967

>  <SCORE.INTER.VDW>
-28.8013

>  <SCORE.INTER.norm>
-0.281037

>  <SCORE.INTRA>
7.74924

>  <SCORE.INTRA.DIHEDRAL>
4.558

>  <SCORE.INTRA.DIHEDRAL.0>
16.2863

>  <SCORE.INTRA.POLAR>
0

>  <SCORE.INTRA.POLAR.0>
0

>  <SCORE.INTRA.REPUL>
-0.312233

>  <SCORE.INTRA.REPUL.0>
0.314433

>  <SCORE.INTRA.SOLV>
-0.938054

>  <SCORE.INTRA.SOLV.lig_0>
-103.824

>  <SCORE.INTRA.VDW>
7.50043

>  <SCORE.INTRA.VDW.0>
-5.30945

>  <SCORE.INTRA.norm>
0.184506

>  <SCORE.RESTR>
5.94967

>  <SCORE.RESTR.CAVITY>
5.94967

>  <SCORE.RESTR.norm>
0.141659

>  <SCORE.SYSTEM>
0

>  <SCORE.SYSTEM.CONST>
0

>  <SCORE.SYSTEM.DIHEDRAL>
0

>  <SCORE.SYSTEM.SOLV>
0

>  <SCORE.SYSTEM.norm>
0

>  <SCORE.heavy>
42

>  <SCORE.norm>
0.0451275

>  <RMSD>
8.626

$$$$
lig.pdb
 OpenBabel11021811513D
libRbt.so/2013.1/901 2013/11/27
 42 45  0  0  0  0  0  0  0  0999 V2000
    0.1038   17.7606   35.3557 C   0  0  2  0  0  0  0  0  0  0  0  0
   -0.8702   18.8456   35.2499 O   0  0  0  0  0  0  0  0  0  0  0  0
   -0.7365   16.4067   35.3293 C   0  0  2  0  0  0  0  0  0  0  0  0
   -1.4556   16.2788   34.0587 N   0  0  0  0  0  0  0  0  0  0  0  0
   -1.7284   16.3894   36.5924 C   0  0  1  0  0  0  0  0  0  0  0  0
   -2.5090   15.1760   36.6249 O   0  0  0  0  0  0  0  0  0  0  0  0
   -0.8606   16.5384   37.8538 C   0  0  2  0  0  0  0  0  0  0  0  0
   -1.6866   16.5294   38.9679 O   0  0  0  0  0  0  0  0  0  0  0  0
   -0.0203   17.8936   37.7787 C   0  0  2  0  0  0  0  0  0  0  0  0
    0.8364   17.9115   36.6301 O   0  0  0  0  0  0  0  0  0  0  0  0
    0.8608   18.0780   38.9816 C   0  0  0  0  0  0  0  0  0  0  0  0
    1.6812   16.9149   39.0989 O   0  0  0  0  0  0  0  0  0  0  0  0
   -2.4264   21.7565   32.2703 C   0  0  2  0  0  0  0  0  0  0  0  0
   -2.7117   22.4002   31.0065 N   0  0  0  0  0  0  0  0  0  0  0  0
   -0.8707   21.5571   32.4404 C   0  0  0  0  0  0  0  0  0  0  0  0
   -0.5347   20.8559   33.8034 C   0  0  2  0  0  0  0  0  0  0  0  0
    0.9121   20.6839   33.9181 N   0  0  0  0  0  0  0  0  0  0  0  0
   -1.2320   19.4301   33.9423 C   0  0  2  0  0  0  0  0  0  0  0  0
   -2.7672   19.6479   33.8100 C   0  0  2  0  0  0  0  0  0  0  0  0
   -3.3484   18.2616   33.9619 O   0  0  0  0  0  0  0  0  0  0  0  0
   -3.1146   20.3138   32.3666 C   0  0  1  0  0  0  0  0  0  0  0  0
   -4.5302   20.6164   32.1509 O   0  0  0  0  0  0  0  0  0  0  0  0
   -3.9438   17.8398   32.8021 C   0  0  1  0  0  0  0  0  0  0  0  0
   -4.4191   16.4540   32.8702 C   0  0  2  0  0  0  0  0  0  0  0  0
   -3.2996   15.6282   32.8315 O   0  0  0  0  0  0  0  0  0  0  0  0
   -5.4374   16.4295   31.7102 C   0  0  2  0  0  0  0  0  0  0  0  0
   -4.9689   15.4414   30.7648 O   0  0  0  0  0  0  0  0  0  0  0  0
   -5.4139   17.8135   31.1501 C   0  0  2  0  0  0  0  0  0  0  0  0
   -5.1243   18.5198   32.4092 O   0  0  0  0  0  0  0  0  0  0  0  0
   -6.8211   18.2435   30.5941 C   0  0  0  0  0  0  0  0  0  0  0  0
   -6.8283   19.5668   29.9792 O   0  0  0  0  0  0  0  0  0  0  0  0
   -5.9807   14.7748   29.9505 C   0  0  2  0  0  0  0  0  0  0  0  0
   -5.3401   13.4201   29.3435 C   0  0  2  0  0  0  0  0  0  0  0  0
   -4.1230   13.7673   28.5404 N   0  0  0  0  0  0  0  0  0  0  0  0
   -6.4611   12.6907   28.4517 C   0  0  1  0  0  0  0  0  0  0  0  0
   -7.5953   12.4081   29.3266 O   0  0  0  0  0  0  0  0  0  0  0  0
   -6.8881   13.6479   27.2493 C   0  0  2  0  0  0  0  0  0  0  0  0
   -5.6946   13.8751   26.4042 O   0  0  0  0  0  0  0  0  0  0  0  0
   -7.4775   15.0303   27.8845 C   0  0  1  0  0  0  0  0  0  0  0  0
   -6.4367   15.6624   28.7743 O   0  0  0  0  0  0  0  0  0  0  0  0
   -7.8911   16.0023   26.7300 C   0  0  0  0  0  0  0  0  0  0  0  0
   -8.4675   17.2878   27.2324 N   0  0  0  0  0  0  0  0  0  0  0  0
  1  3  1  0  0  0  0
  1  2  1  1  0  0  0
  3  4  1  6  0  0  0
  3  5  1  0  0  0  0
  5  6  1  1  0  0  0
  7  8  1  1  0  0  0
  7  5  1  0  0  0  0
  9 11  1  1  0  0  0
  9  7  1  0  0  0  0
 10  9  1  0  0  0  0
 10  1  1  0  0  0  0
 12 11  1  0  0  0  0
 13 14  1  6  0  0  0
 15 13  1  0  0  0  0
 16 17  1  6  0  0  0
 16 15  1  0  0  0  0
 18  2  1  1  0  0  0
 18 19  1  0  0  0  0
 18 16  1  0  0  0  0
 19 20  1  6  0  0  0
 19 21  1  0  0  0  0
 21 22  1  1  0  0  0
 21 13  1  0  0  0  0
 23 20  1  1  0  0  0
 23 29  1  0  0  0  0
 24 25  1  6  0  0  0
 24 26  1  0  0  0  0
 24 23  1  0  0  0  0
 26 27  1  6  0  0  0
 26 28  1  0  0  0  0
 28 30  1  1  0  0  0
 29 28  1  0  0  0  0
 30 31  1  0  0  0  0
 32 27  1  6  0  0  0
 32 40  1  0  0  0  0
 33 35  1  0  0  0  0
 33 32  1  0  0  0  0
 33 34  1  6  0  0  0
 35 36  1  1  0  0  0
 35 37  1  0  0  0  0
 37 38  1  6  0  0  0
 37 39  1  0  0  0  0
 39 41  1  6  0  0  0
 40 39  1  0  0  0  0
 41 42  1  0  0  0  0
M  END
>  <CHROM.1>
-93.32438966,55.02640262,-105.07320451,-114.11399839,175.02908670,151.87076912
-177.25179442,-161.73594012,178.91708076,-3.47529523,17.23991581,32.57360977
-0.06182949,0.93739466,2.85916805

>  <Name>
lig.pdb

>  <RI>
0

>  <Rbt.Current_Directory>
/home/itssahil/PROJECTS/Mol_Feturizer/New_Systems/rnas/4wcr

>  <Rbt.Executable>
rbdock ($Id: //depot/dev/client3/rdock/2013.1/src/exe/rbdock.cxx#4 $)

>  <Rbt.Library>
libRbt.so (2013.1, Build901 2013/11/27)

>  <Rbt.Parameter_File>
/export/apps/rDock/src/rDock_2013.1_src/data/scripts/dock_solv.prm

>  <Rbt.Receptor>
prm/blind_docking_100.prm

>  <SCORE>
4.07231

>  <SCORE.INTER>
-12.2343

>  <SCORE.INTER.CONST>
1

>  <SCORE.INTER.POLAR>
0

>  <SCORE.INTER.ROT>
9

>  <SCORE.INTER.SOLV>
31.6377

>  <SCORE.INTER.VDW>
-28.3021

>  <SCORE.INTER.norm>
-0.291292

>  <SCORE.INTRA>
11.358

>  <SCORE.INTRA.DIHEDRAL>
6.56168

>  <SCORE.INTRA.DIHEDRAL.0>
16.2863

>  <SCORE.INTRA.POLAR>
0

>  <SCORE.INTRA.POLAR.0>
0

>  <SCORE.INTRA.REPUL>
-0.314433

>  <SCORE.INTRA.REPUL.0>
0.314433

>  <SCORE.INTRA.SOLV>
1.093

>  <SCORE.INTRA.SOLV.lig_0>
-103.824

>  <SCORE.INTRA.VDW>
9.10278

>  <SCORE.INTRA.VDW.0>
-5.30945

>  <SCORE.INTRA.norm>
0.270428

>  <SCORE.RESTR>
4.94861

>  <SCORE.RESTR.CAVITY>
4.94861

>  <SCORE.RESTR.norm>
0.117824

>  <SCORE.SYSTEM>
0

>  <SCORE.SYSTEM.CONST>
0

>  <SCORE.SYSTEM.DIHEDRAL>
0

>  <SCORE.SYSTEM.SOLV>
0

>  <SCORE.SYSTEM.norm>
0

>  <SCORE.heavy>
42

>  <SCORE.norm>
0.0969598

>  <RMSD>
8.627

$$$$
lig.pdb
 OpenBabel11021811513D
libRbt.so/2013.1/901 2013/11/27
 42 45  0  0  0  0  0  0  0  0999 V2000
   -6.3712   16.7062   30.9405 C   0  0  2  0  0  0  0  0  0  0  0  0
   -5.0546   17.3405   30.9032 O   0  0  0  0  0  0  0  0  0  0  0  0
   -6.3814   15.6368   29.7590 C   0  0  2  0  0  0  0  0  0  0  0  0
   -5.3547   14.6163   29.9874 N   0  0  0  0  0  0  0  0  0  0  0  0
   -6.1732   16.4056   28.3642 C   0  0  1  0  0  0  0  0  0  0  0  0
   -6.1854   15.4832   27.2543 O   0  0  0  0  0  0  0  0  0  0  0  0
   -7.2989   17.4474   28.2470 C   0  0  2  0  0  0  0  0  0  0  0  0
   -7.1494   18.1341   27.0513 O   0  0  0  0  0  0  0  0  0  0  0  0
   -7.2448   18.4485   29.4894 C   0  0  2  0  0  0  0  0  0  0  0  0
   -7.3986   17.7472   30.7296 O   0  0  0  0  0  0  0  0  0  0  0  0
   -8.3384   19.4771   29.4326 C   0  0  0  0  0  0  0  0  0  0  0  0
   -8.1136   20.4059   30.4939 O   0  0  0  0  0  0  0  0  0  0  0  0
   -2.4108   20.0302   33.2587 C   0  0  2  0  0  0  0  0  0  0  0  0
   -1.9470   20.9338   34.2890 N   0  0  0  0  0  0  0  0  0  0  0  0
   -3.7150   20.6023   32.5801 C   0  0  0  0  0  0  0  0  0  0  0  0
   -4.2414   19.6371   31.4604 C   0  0  2  0  0  0  0  0  0  0  0  0
   -5.4513   20.1989   30.8635 N   0  0  0  0  0  0  0  0  0  0  0  0
   -4.5740   18.1822   32.0180 C   0  0  2  0  0  0  0  0  0  0  0  0
   -3.2695   17.6166   32.6504 C   0  0  2  0  0  0  0  0  0  0  0  0
   -3.6656   16.2437   33.1414 O   0  0  0  0  0  0  0  0  0  0  0  0
   -2.7664   18.5873   33.8554 C   0  0  1  0  0  0  0  0  0  0  0  0
   -1.5116   18.1828   34.4911 O   0  0  0  0  0  0  0  0  0  0  0  0
   -2.7656   15.7610   34.0548 C   0  0  1  0  0  0  0  0  0  0  0  0
   -3.3424   15.5806   35.3911 C   0  0  2  0  0  0  0  0  0  0  0  0
   -3.5239   16.8466   35.9398 O   0  0  0  0  0  0  0  0  0  0  0  0
   -2.3300   14.6022   36.0244 C   0  0  2  0  0  0  0  0  0  0  0  0
   -1.7613   15.2746   37.1707 O   0  0  0  0  0  0  0  0  0  0  0  0
   -1.3222   14.3464   34.9528 C   0  0  2  0  0  0  0  0  0  0  0  0
   -2.2350   14.4702   33.8042 O   0  0  0  0  0  0  0  0  0  0  0  0
   -0.7405   12.8870   35.0331 C   0  0  0  0  0  0  0  0  0  0  0  0
   -0.0661   12.5941   36.2935 O   0  0  0  0  0  0  0  0  0  0  0  0
   -0.4183   15.8250   37.0142 C   0  0  2  0  0  0  0  0  0  0  0  0
    0.3500   15.7149   38.4325 C   0  0  2  0  0  0  0  0  0  0  0  0
   -0.4332   16.4531   39.4758 N   0  0  0  0  0  0  0  0  0  0  0  0
    1.8284   16.3192   38.2506 C   0  0  1  0  0  0  0  0  0  0  0  0
    2.4928   15.5356   37.2133 O   0  0  0  0  0  0  0  0  0  0  0  0
    1.7259   17.8553   37.8329 C   0  0  2  0  0  0  0  0  0  0  0  0
    1.0572   18.5818   38.9352 O   0  0  0  0  0  0  0  0  0  0  0  0
    0.8978   17.9465   36.4301 C   0  0  1  0  0  0  0  0  0  0  0  0
   -0.4590   17.3106   36.6012 O   0  0  0  0  0  0  0  0  0  0  0  0
    0.7628   19.4445   35.9984 C   0  0  0  0  0  0  0  0  0  0  0  0
    2.0605   20.0388   35.5511 N   0  0  0  0  0  0  0  0  0  0  0  0
  1  3  1  0  0  0  0
  1  2  1  6  0  0  0
  3  4  1  1  0  0  0
  3  5  1  0  0  0  0
  5  6  1  6  0  0  0
  7  8  1  6  0  0  0
  7  5  1  0  0  0  0
  9 11  1  6  0  0  0
  9  7  1  0  0  0  0
 10  9  1  0  0  0  0
 10  1  1  0  0  0  0
 12 11  1  0  0  0  0
 13 14  1  1  0  0  0
 15 13  1  0  0  0  0
 16 17  1  1  0  0  0
 16 15  1  0  0  0  0
 18  2  1  6  0  0  0
 18 19  1  0  0  0  0
 18 16  1  0  0  0  0
 19 20  1  1  0  0  0
 19 21  1  0  0  0  0
 21 22  1  6  0  0  0
 21 13  1  0  0  0  0
 23 20  1  6  0  0  0
 23 29  1  0  0  0  0
 24 25  1  1  0  0  0
 24 26  1  0  0  0  0
 24 23  1  0  0  0  0
 26 27  1  1  0  0  0
 26 28  1  0  0  0  0
 28 30  1  1  0  0  0
 29 28  1  0  0  0  0
 30 31  1  0  0  0  0
 32 27  1  1  0  0  0
 32 40  1  0  0  0  0
 33 35  1  0  0  0  0
 33 32  1  0  0  0  0
 33 34  1  1  0  0  0
 35 36  1  6  0  0  0
 35 37  1  0  0  0  0
 37 38  1  1  0  0  0
 37 39  1  0  0  0  0
 39 41  1  1  0  0  0
 40 39  1  0  0  0  0
 41 42  1  0  0  0  0
M  END
>  <CHROM.1>
-167.05807071,-173.58702516,-121.69685755,-162.41774331,115.43876280,-102.84674141
-60.18632923,-146.75704191,70.43987692,-2.93262333,17.16257540,33.60944137
2.99963696,-0.83270370,-0.02402049

>  <Name>
lig.pdb

>  <RI>
0

>  <Rbt.Current_Directory>
/home/itssahil/PROJECTS/Mol_Feturizer/New_Systems/rnas/4wcr

>  <Rbt.Executable>
rbdock ($Id: //depot/dev/client3/rdock/2013.1/src/exe/rbdock.cxx#4 $)

>  <Rbt.Library>
libRbt.so (2013.1, Build901 2013/11/27)

>  <Rbt.Parameter_File>
/export/apps/rDock/src/rDock_2013.1_src/data/scripts/dock_solv.prm

>  <Rbt.Receptor>
prm/blind_docking_60.prm

>  <SCORE>
-3.75964

>  <SCORE.INTER>
-14.5805

>  <SCORE.INTER.CONST>
1

>  <SCORE.INTER.POLAR>
0

>  <SCORE.INTER.ROT>
9

>  <SCORE.INTER.SOLV>
34.4844

>  <SCORE.INTER.VDW>
-30.8151

>  <SCORE.INTER.norm>
-0.347155

>  <SCORE.INTRA>
8.83676

>  <SCORE.INTRA.DIHEDRAL>
11.1107

>  <SCORE.INTRA.DIHEDRAL.0>
16.2863

>  <SCORE.INTRA.POLAR>
0

>  <SCORE.INTRA.POLAR.0>
0

>  <SCORE.INTRA.REPUL>
-0.0109756

>  <SCORE.INTRA.REPUL.0>
0.314433

>  <SCORE.INTRA.SOLV>
1.29237

>  <SCORE.INTRA.SOLV.lig_0>
-103.824

>  <SCORE.INTRA.VDW>
2.69008

>  <SCORE.INTRA.VDW.0>
-5.30945

>  <SCORE.INTRA.norm>
0.210399

>  <SCORE.RESTR>
1.98411

>  <SCORE.RESTR.CAVITY>
1.98411

>  <SCORE.RESTR.norm>
0.0472406

>  <SCORE.SYSTEM>
0

>  <SCORE.SYSTEM.CONST>
0

>  <SCORE.SYSTEM.DIHEDRAL>
0

>  <SCORE.SYSTEM.SOLV>
0

>  <SCORE.SYSTEM.norm>
0

>  <SCORE.heavy>
42

>  <SCORE.norm>
-0.0895152

>  <RMSD>
8.676

$$$$
lig.pdb
 OpenBabel11021811513D
libRbt.so/2013.1/901 2013/11/27
 42 45  0  0  0  0  0  0  0  0999 V2000
   -4.2000    7.8450   37.2320 C   0  0  2  0  0  0  0  0  0  0  0  0
   -2.8120    8.3037   37.2516 O   0  0  0  0  0  0  0  0  0  0  0  0
   -4.2363    6.5846   36.2573 C   0  0  2  0  0  0  0  0  0  0  0  0
   -3.3874    5.5112   36.7817 N   0  0  0  0  0  0  0  0  0  0  0  0
   -3.7841    7.0534   34.7891 C   0  0  1  0  0  0  0  0  0  0  0  0
   -3.8094    5.9501   33.8593 O   0  0  0  0  0  0  0  0  0  0  0  0
   -4.7389    8.1797   34.3575 C   0  0  2  0  0  0  0  0  0  0  0  0
   -4.3760    8.6120   33.0906 O   0  0  0  0  0  0  0  0  0  0  0  0
   -4.6749    9.3795   35.4087 C   0  0  2  0  0  0  0  0  0  0  0  0
   -5.0485    8.9418   36.7211 O   0  0  0  0  0  0  0  0  0  0  0  0
   -5.6059   10.5003   35.0423 C   0  0  0  0  0  0  0  0  0  0  0  0
   -5.1561   11.0480   33.8025 O   0  0  0  0  0  0  0  0  0  0  0  0
   -2.8131   10.8776   40.8776 C   0  0  2  0  0  0  0  0  0  0  0  0
   -2.3433   11.6834   41.9835 N   0  0  0  0  0  0  0  0  0  0  0  0
   -2.1486    9.4476   40.9254 C   0  0  0  0  0  0  0  0  0  0  0  0
   -2.6391    8.5543   39.7322 C   0  0  2  0  0  0  0  0  0  0  0  0
   -1.9962    7.2442   39.8092 N   0  0  0  0  0  0  0  0  0  0  0  0
   -2.3133    9.2016   38.3134 C   0  0  2  0  0  0  0  0  0  0  0  0
   -3.0060   10.5943   38.2670 C   0  0  2  0  0  0  0  0  0  0  0  0
   -2.6587   11.1309   36.8979 O   0  0  0  0  0  0  0  0  0  0  0  0
   -2.4431   11.5384   39.4667 C   0  0  1  0  0  0  0  0  0  0  0  0
   -3.0657   12.8600   39.5561 O   0  0  0  0  0  0  0  0  0  0  0  0
   -3.1199   12.4103   36.7312 C   0  0  1  0  0  0  0  0  0  0  0  0
   -2.9627   12.9046   35.3593 C   0  0  2  0  0  0  0  0  0  0  0  0
   -1.6081   13.1532   35.1597 O   0  0  0  0  0  0  0  0  0  0  0  0
   -3.9727   14.0719   35.3441 C   0  0  2  0  0  0  0  0  0  0  0  0
   -3.2165   15.2741   35.0749 O   0  0  0  0  0  0  0  0  0  0  0  0
   -4.5799   14.0713   36.7084 C   0  0  2  0  0  0  0  0  0  0  0  0
   -4.5058   12.6201   36.9453 O   0  0  0  0  0  0  0  0  0  0  0  0
   -6.0799   14.5443   36.6812 C   0  0  0  0  0  0  0  0  0  0  0  0
   -6.6723   14.6887   38.0069 O   0  0  0  0  0  0  0  0  0  0  0  0
   -2.5689   15.9160   36.2148 C   0  0  2  0  0  0  0  0  0  0  0  0
   -2.0111   17.3584   35.7430 C   0  0  2  0  0  0  0  0  0  0  0  0
   -1.0602   17.1691   34.5998 N   0  0  0  0  0  0  0  0  0  0  0  0
   -1.3032   18.0597   37.0043 C   0  0  1  0  0  0  0  0  0  0  0  0
   -2.3113   18.1862   38.0527 O   0  0  0  0  0  0  0  0  0  0  0  0
   -0.0775   17.1625   37.4914 C   0  0  2  0  0  0  0  0  0  0  0  0
    0.9027   17.0937   36.3847 O   0  0  0  0  0  0  0  0  0  0  0  0
   -0.6557   15.6947   37.9075 C   0  0  1  0  0  0  0  0  0  0  0  0
   -1.3780   15.0838   36.7328 O   0  0  0  0  0  0  0  0  0  0  0  0
    0.5249   14.7803   38.3750 C   0  0  0  0  0  0  0  0  0  0  0  0
    1.5046   14.4932   37.2817 N   0  0  0  0  0  0  0  0  0  0  0  0
  1  3  1  0  0  0  0
  1  2  1  6  0  0  0
  3  4  1  1  0  0  0
  3  5  1  0  0  0  0
  5  6  1  6  0  0  0
  7  8  1  6  0  0  0
  7  5  1  0  0  0  0
  9 11  1  6  0  0  0
  9  7  1  0  0  0  0
 10  9  1  0  0  0  0
 10  1  1  0  0  0  0
 12 11  1  0  0  0  0
 13 14  1  1  0  0  0
 15 13  1  0  0  0  0
 16 17  1  6  0  0  0
 16 15  1  0  0  0  0
 18  2  1  6  0  0  0
 18 19  1  0  0  0  0
 18 16  1  0  0  0  0
 19 20  1  6  0  0  0
 19 21  1  0  0  0  0
 21 22  1  1  0  0  0
 21 13  1  0  0  0  0
 23 20  1  6  0  0  0
 23 29  1  0  0  0  0
 24 25  1  1  0  0  0
 24 26  1  0  0  0  0
 24 23  1  0  0  0  0
 26 27  1  1  0  0  0
 26 28  1  0  0  0  0
 28 30  1  6  0  0  0
 29 28  1  0  0  0  0
 30 31  1  0  0  0  0
 32 27  1  6  0  0  0
 32 40  1  0  0  0  0
 33 35  1  0  0  0  0
 33 32  1  0  0  0  0
 33 34  1  6  0  0  0
 35 36  1  1  0  0  0
 35 37  1  0  0  0  0
 37 38  1  6  0  0  0
 37 39  1  0  0  0  0
 39 41  1  6  0  0  0
 40 39  1  0  0  0  0
 41 42  1  0  0  0  0
M  END
>  <CHROM.1>
-162.76081566,-64.21085382,53.66302931,-175.59406207,-172.32895633,-83.55246973
-174.14126831,-170.10881390,-64.37687331,-2.92971418,12.05911351,36.92315934
-2.15715278,-1.06861219,-0.47712375

>  <Name>
lig.pdb

>  <RI>
0

>  <Rbt.Current_Directory>
/home/itssahil/PROJECTS/Mol_Feturizer/New_Systems/rnas/4wcr

>  <Rbt.Executable>
rbdock ($Id: //depot/dev/client3/rdock/2013.1/src/exe/rbdock.cxx#4 $)

>  <Rbt.Library>
libRbt.so (2013.1, Build901 2013/11/27)

>  <Rbt.Parameter_File>
/export/apps/rDock/src/rDock_2013.1_src/data/scripts/dock_solv.prm

>  <Rbt.Receptor>
prm/pocket_docking_3.prm

>  <SCORE>
-3.42214

>  <SCORE.INTER>
3.10525

>  <SCORE.INTER.CONST>
1

>  <SCORE.INTER.POLAR>
0

>  <SCORE.INTER.ROT>
9

>  <SCORE.INTER.SOLV>
15.6399

>  <SCORE.INTER.VDW>
-12.7431

>  <SCORE.INTER.norm>
0.0739344

>  <SCORE.INTRA>
-6.52739

>  <SCORE.INTRA.DIHEDRAL>
-10.7638

>  <SCORE.INTRA.DIHEDRAL.0>
16.2863

>  <SCORE.INTRA.POLAR>
0

>  <SCORE.INTRA.POLAR.0>
0

>  <SCORE.INTRA.REPUL>
-0.314433

>  <SCORE.INTRA.REPUL.0>
0.314433

>  <SCORE.INTRA.SOLV>
-0.162034

>  <SCORE.INTRA.SOLV.lig_0>
-103.824

>  <SCORE.INTRA.VDW>
0.507671

>  <SCORE.INTRA.VDW.0>
-5.30945

>  <SCORE.INTRA.norm>
-0.155414

>  <SCORE.RESTR>
0

>  <SCORE.RESTR.CAVITY>
0

>  <SCORE.RESTR.norm>
0

>  <SCORE.SYSTEM>
0

>  <SCORE.SYSTEM.CONST>
0

>  <SCORE.SYSTEM.DIHEDRAL>
0

>  <SCORE.SYSTEM.SOLV>
0

>  <SCORE.SYSTEM.norm>
0

>  <SCORE.heavy>
42

>  <SCORE.norm>
-0.0814796

>  <RMSD>
8.686

$$$$
lig.pdb
 OpenBabel11021811513D
libRbt.so/2013.1/901 2013/11/27
 42 45  0  0  0  0  0  0  0  0999 V2000
   -1.9724    8.9070   30.9690 C   0  0  2  0  0  0  0  0  0  0  0  0
   -2.8583    8.2672   31.9400 O   0  0  0  0  0  0  0  0  0  0  0  0
   -0.4979    8.4177   31.3249 C   0  0  2  0  0  0  0  0  0  0  0  0
   -0.3950    6.9633   31.1774 N   0  0  0  0  0  0  0  0  0  0  0  0
   -0.1371    8.9038   32.8126 C   0  0  1  0  0  0  0  0  0  0  0  0
    1.1964    8.4963   33.1845 O   0  0  0  0  0  0  0  0  0  0  0  0
   -0.2898   10.4343   32.8402 C   0  0  2  0  0  0  0  0  0  0  0  0
    0.0131   10.8906   34.1144 O   0  0  0  0  0  0  0  0  0  0  0  0
   -1.7781   10.8398   32.4289 C   0  0  2  0  0  0  0  0  0  0  0  0
   -2.0998   10.3722   31.1130 O   0  0  0  0  0  0  0  0  0  0  0  0
   -1.9751   12.3292   32.4218 C   0  0  0  0  0  0  0  0  0  0  0  0
   -3.3580   12.5810   32.1690 O   0  0  0  0  0  0  0  0  0  0  0  0
   -4.9686    4.3543   32.0321 C   0  0  2  0  0  0  0  0  0  0  0  0
   -5.2168    2.9315   31.9487 N   0  0  0  0  0  0  0  0  0  0  0  0
   -4.3307    4.8751   30.6865 C   0  0  0  0  0  0  0  0  0  0  0  0
   -4.0474    6.4171   30.7529 C   0  0  2  0  0  0  0  0  0  0  0  0
   -3.4517    6.8568   29.4929 N   0  0  0  0  0  0  0  0  0  0  0  0
   -3.0652    6.8045   31.9460 C   0  0  2  0  0  0  0  0  0  0  0  0
   -3.7251    6.3183   33.2688 C   0  0  2  0  0  0  0  0  0  0  0  0
   -2.7434    6.7298   34.3410 O   0  0  0  0  0  0  0  0  0  0  0  0
   -3.9544    4.7081   33.2196 C   0  0  1  0  0  0  0  0  0  0  0  0
   -4.6221    4.1434   34.3933 O   0  0  0  0  0  0  0  0  0  0  0  0
   -3.2942    6.6212   35.5908 C   0  0  1  0  0  0  0  0  0  0  0  0
   -2.3468    6.9325   36.6663 C   0  0  2  0  0  0  0  0  0  0  0  0
   -1.4503    5.8715   36.7506 O   0  0  0  0  0  0  0  0  0  0  0  0
   -3.3091    7.2255   37.8373 C   0  0  2  0  0  0  0  0  0  0  0  0
   -3.0185    6.2552   38.8687 O   0  0  0  0  0  0  0  0  0  0  0  0
   -4.6764    7.0563   37.2615 C   0  0  2  0  0  0  0  0  0  0  0  0
   -4.3606    7.5048   35.8951 O   0  0  0  0  0  0  0  0  0  0  0  0
   -5.7166    8.0295   37.9288 C   0  0  0  0  0  0  0  0  0  0  0  0
   -5.4041    9.4418   37.7364 O   0  0  0  0  0  0  0  0  0  0  0  0
   -1.7827    6.4431   39.6227 C   0  0  2  0  0  0  0  0  0  0  0  0
   -1.4602    5.0786   40.4277 C   0  0  2  0  0  0  0  0  0  0  0  0
   -2.6140    4.7527   41.3273 N   0  0  0  0  0  0  0  0  0  0  0  0
   -0.0968    5.2925   41.2519 C   0  0  1  0  0  0  0  0  0  0  0  0
    0.9496    5.6102   40.2846 O   0  0  0  0  0  0  0  0  0  0  0  0
   -0.2906    6.4802   42.2990 C   0  0  2  0  0  0  0  0  0  0  0  0
   -1.3521    6.0792   43.2490 O   0  0  0  0  0  0  0  0  0  0  0  0
   -0.6716    7.8324   41.4692 C   0  0  1  0  0  0  0  0  0  0  0  0
   -1.9124    7.5889   40.6472 O   0  0  0  0  0  0  0  0  0  0  0  0
   -0.8866    9.0169   42.4688 C   0  0  0  0  0  0  0  0  0  0  0  0
   -1.2570   10.2941   41.7841 N   0  0  0  0  0  0  0  0  0  0  0  0
  1  3  1  0  0  0  0
  1  2  1  1  0  0  0
  3  4  1  1  0  0  0
  3  5  1  0  0  0  0
  5  6  1  6  0  0  0
  7  8  1  1  0  0  0
  7  5  1  0  0  0  0
  9 11  1  6  0  0  0
  9  7  1  0  0  0  0
 10  9  1  0  0  0  0
 10  1  1  0  0  0  0
 12 11  1  0  0  0  0
 13 14  1  6  0  0  0
 15 13  1  0  0  0  0
 16 17  1  6  0  0  0
 16 15  1  0  0  0  0
 18  2  1  1  0  0  0
 18 19  1  0  0  0  0
 18 16  1  0  0  0  0
 19 20  1  1  0  0  0
 19 21  1  0  0  0  0
 21 22  1  1  0  0  0
 21 13  1  0  0  0  0
 23 20  1  6  0  0  0
 23 29  1  0  0  0  0
 24 25  1  1  0  0  0
 24 26  1  0  0  0  0
 24 23  1  0  0  0  0
 26 27  1  1  0  0  0
 26 28  1  0  0  0  0
 28 30  1  1  0  0  0
 29 28  1  0  0  0  0
 30 31  1  0  0  0  0
 32 27  1  1  0  0  0
 32 40  1  0  0  0  0
 33 35  1  0  0  0  0
 33 32  1  0  0  0  0
 33 34  1  1  0  0  0
 35 36  1  6  0  0  0
 35 37  1  0  0  0  0
 37 38  1  1  0  0  0
 37 39  1  0  0  0  0
 39 41  1  1  0  0  0
 40 39  1  0  0  0  0
 41 42  1  0  0  0  0
M  END
>  <CHROM.1>
-67.01885811,-174.59196437,-76.66948628,167.56867130,176.45627242,73.54118157
61.62139736,-165.35993431,-179.29813773,-2.36000953,7.43356945,35.68927709
-1.82075197,1.06024899,1.91179082

>  <Name>
lig.pdb

>  <RI>
0

>  <Rbt.Current_Directory>
/home/itssahil/PROJECTS/Mol_Feturizer/New_Systems/rnas/4wcr

>  <Rbt.Executable>
rbdock ($Id: //depot/dev/client3/rdock/2013.1/src/exe/rbdock.cxx#4 $)

>  <Rbt.Library>
libRbt.so (2013.1, Build901 2013/11/27)

>  <Rbt.Parameter_File>
/export/apps/rDock/src/rDock_2013.1_src/data/scripts/dock_solv.prm

>  <Rbt.Receptor>
prm/pocket_docking_6.prm

>  <SCORE>
-4.99306

>  <SCORE.INTER>
1.83482

>  <SCORE.INTER.CONST>
1

>  <SCORE.INTER.POLAR>
0

>  <SCORE.INTER.ROT>
9

>  <SCORE.INTER.SOLV>
16.8687

>  <SCORE.INTER.VDW>
-13.9997

>  <SCORE.INTER.norm>
0.0436863

>  <SCORE.INTRA>
-6.82788

>  <SCORE.INTRA.DIHEDRAL>
-11.4532

>  <SCORE.INTRA.DIHEDRAL.0>
16.2863

>  <SCORE.INTRA.POLAR>
0

>  <SCORE.INTRA.POLAR.0>
0

>  <SCORE.INTRA.REPUL>
-0.3132

>  <SCORE.INTRA.REPUL.0>
0.314433

>  <SCORE.INTRA.SOLV>
-2.18844

>  <SCORE.INTRA.SOLV.lig_0>
-103.824

>  <SCORE.INTRA.VDW>
1.55893

>  <SCORE.INTRA.VDW.0>
-5.30945

>  <SCORE.INTRA.norm>
-0.162569

>  <SCORE.RESTR>
0

>  <SCORE.RESTR.CAVITY>
0

>  <SCORE.RESTR.norm>
0

>  <SCORE.SYSTEM>
0

>  <SCORE.SYSTEM.CONST>
0

>  <SCORE.SYSTEM.DIHEDRAL>
0

>  <SCORE.SYSTEM.SOLV>
0

>  <SCORE.SYSTEM.norm>
0

>  <SCORE.heavy>
42

>  <SCORE.norm>
-0.118882

>  <RMSD>
8.698

$$$$
lig.pdb
 OpenBabel11021811513D
libRbt.so/2013.1/901 2013/11/27
 42 45  0  0  0  0  0  0  0  0999 V2000
    0.0021   20.4713   33.3997 C   0  0  2  0  0  0  0  0  0  0  0  0
    0.1751   19.2694   34.2137 O   0  0  0  0  0  0  0  0  0  0  0  0
    1.3745   21.2754   33.4994 C   0  0  2  0  0  0  0  0  0  0  0  0
    2.4724   20.4787   32.9448 N   0  0  0  0  0  0  0  0  0  0  0  0
    1.6293   21.6744   35.0342 C   0  0  1  0  0  0  0  0  0  0  0  0
    2.8578   22.4171   35.1821 O   0  0  0  0  0  0  0  0  0  0  0  0
    0.4130   22.4937   35.4988 C   0  0  2  0  0  0  0  0  0  0  0  0
    0.5980   22.8552   36.8249 O   0  0  0  0  0  0  0  0  0  0  0  0
   -0.9207   21.6340   35.3235 C   0  0  2  0  0  0  0  0  0  0  0  0
   -1.1200   21.2559   33.9557 O   0  0  0  0  0  0  0  0  0  0  0  0
   -2.1434   22.3978   35.7465 C   0  0  0  0  0  0  0  0  0  0  0  0
   -3.1723   21.4470   36.0244 O   0  0  0  0  0  0  0  0  0  0  0  0
   -1.9639   17.0716   37.4335 C   0  0  2  0  0  0  0  0  0  0  0  0
   -2.6875   16.7993   38.6563 N   0  0  0  0  0  0  0  0  0  0  0  0
   -0.6176   17.8285   37.7551 C   0  0  0  0  0  0  0  0  0  0  0  0
    0.1851   18.1398   36.4431 C   0  0  2  0  0  0  0  0  0  0  0  0
    1.4185   18.8458   36.7836 N   0  0  0  0  0  0  0  0  0  0  0  0
   -0.6475   19.0301   35.4172 C   0  0  2  0  0  0  0  0  0  0  0  0
   -1.9538   18.2540   35.0809 C   0  0  2  0  0  0  0  0  0  0  0  0
   -2.6738   19.1542   34.1042 O   0  0  0  0  0  0  0  0  0  0  0  0
   -2.8137   17.9935   36.4375 C   0  0  1  0  0  0  0  0  0  0  0  0
   -4.0421   17.2200   36.2508 O   0  0  0  0  0  0  0  0  0  0  0  0
   -3.6072   18.4602   33.3800 C   0  0  1  0  0  0  0  0  0  0  0  0
   -3.8655   19.0476   32.0611 C   0  0  2  0  0  0  0  0  0  0  0  0
   -4.5964   20.2147   32.2620 O   0  0  0  0  0  0  0  0  0  0  0  0
   -4.5055   17.8531   31.3217 C   0  0  2  0  0  0  0  0  0  0  0  0
   -5.8396   18.2624   30.9446 O   0  0  0  0  0  0  0  0  0  0  0  0
   -4.5083   16.7417   32.3189 C   0  0  2  0  0  0  0  0  0  0  0  0
   -3.2780   17.1260   33.0305 O   0  0  0  0  0  0  0  0  0  0  0  0
   -4.3259   15.3386   31.6315 C   0  0  0  0  0  0  0  0  0  0  0  0
   -3.9335   14.2803   32.5562 O   0  0  0  0  0  0  0  0  0  0  0  0
   -6.2560   17.9757   29.5751 C   0  0  2  0  0  0  0  0  0  0  0  0
   -7.6548   18.7363   29.2941 C   0  0  2  0  0  0  0  0  0  0  0  0
   -8.6749   18.2762   30.2912 N   0  0  0  0  0  0  0  0  0  0  0  0
   -8.1040   18.4186   27.7837 C   0  0  1  0  0  0  0  0  0  0  0  0
   -7.0413   18.8982   26.9050 O   0  0  0  0  0  0  0  0  0  0  0  0
   -8.3236   16.8477   27.6149 C   0  0  2  0  0  0  0  0  0  0  0  0
   -9.4197   16.4424   28.5228 O   0  0  0  0  0  0  0  0  0  0  0  0
   -6.9162   16.0977   27.9591 C   0  0  1  0  0  0  0  0  0  0  0  0
   -6.4750   16.4650   29.3538 O   0  0  0  0  0  0  0  0  0  0  0  0
   -7.1001   14.5500   27.8202 C   0  0  0  0  0  0  0  0  0  0  0  0
   -6.0031   13.7740   28.4772 N   0  0  0  0  0  0  0  0  0  0  0  0
  1  3  1  0  0  0  0
  1  2  1  1  0  0  0
  3  4  1  1  0  0  0
  3  5  1  0  0  0  0
  5  6  1  6  0  0  0
  7  8  1  1  0  0  0
  7  5  1  0  0  0  0
  9 11  1  6  0  0  0
  9  7  1  0  0  0  0
 10  9  1  0  0  0  0
 10  1  1  0  0  0  0
 12 11  1  0  0  0  0
 13 14  1  1  0  0  0
 15 13  1  0  0  0  0
 16 17  1  1  0  0  0
 16 15  1  0  0  0  0
 18  2  1  6  0  0  0
 18 19  1  0  0  0  0
 18 16  1  0  0  0  0
 19 20  1  6  0  0  0
 19 21  1  0  0  0  0
 21 22  1  6  0  0  0
 21 13  1  0  0  0  0
 23 20  1  6  0  0  0
 23 29  1  0  0  0  0
 24 25  1  1  0  0  0
 24 26  1  0  0  0  0
 24 23  1  0  0  0  0
 26 27  1  1  0  0  0
 26 28  1  0  0  0  0
 28 30  1  6  0  0  0
 29 28  1  0  0  0  0
 30 31  1  0  0  0  0
 32 27  1  1  0  0  0
 32 40  1  0  0  0  0
 33 35  1  0  0  0  0
 33 32  1  0  0  0  0
 33 34  1  1  0  0  0
 35 36  1  6  0  0  0
 35 37  1  0  0  0  0
 37 38  1  1  0  0  0
 37 39  1  0  0  0  0
 39 41  1  1  0  0  0
 40 39  1  0  0  0  0
 41 42  1  0  0  0  0
M  END
>  <CHROM.1>
116.47395557,-159.11700782,-151.69732807,160.24523703,-152.66105196,133.62100640
163.05084878,-170.21319985,-163.79485641,-3.20650288,18.62264632,32.97652580
-0.18888252,-0.80045611,-0.75101479

>  <Name>
lig.pdb

>  <RI>
0

>  <Rbt.Current_Directory>
/home/itssahil/PROJECTS/Mol_Feturizer/New_Systems/rnas/4wcr

>  <Rbt.Executable>
rbdock ($Id: //depot/dev/client3/rdock/2013.1/src/exe/rbdock.cxx#4 $)

>  <Rbt.Library>
libRbt.so (2013.1, Build901 2013/11/27)

>  <Rbt.Parameter_File>
/export/apps/rDock/src/rDock_2013.1_src/data/scripts/dock_solv.prm

>  <Rbt.Receptor>
prm/blind_docking_100.prm

>  <SCORE>
2.03844

>  <SCORE.INTER>
-4.01126

>  <SCORE.INTER.CONST>
1

>  <SCORE.INTER.POLAR>
0

>  <SCORE.INTER.ROT>
9

>  <SCORE.INTER.SOLV>
36.4841

>  <SCORE.INTER.VDW>
-24.4355

>  <SCORE.INTER.norm>
-0.0955061

>  <SCORE.INTRA>
4.65197

>  <SCORE.INTRA.DIHEDRAL>
9.32856

>  <SCORE.INTRA.DIHEDRAL.0>
16.2863

>  <SCORE.INTRA.POLAR>
0

>  <SCORE.INTRA.POLAR.0>
0

>  <SCORE.INTRA.REPUL>
-0.314433

>  <SCORE.INTRA.REPUL.0>
0.314433

>  <SCORE.INTRA.SOLV>
-2.36691

>  <SCORE.INTRA.SOLV.lig_0>
-103.824

>  <SCORE.INTRA.VDW>
2.74331

>  <SCORE.INTRA.VDW.0>
-5.30945

>  <SCORE.INTRA.norm>
0.110761

>  <SCORE.RESTR>
1.39773

>  <SCORE.RESTR.CAVITY>
1.39773

>  <SCORE.RESTR.norm>
0.0332794

>  <SCORE.SYSTEM>
0

>  <SCORE.SYSTEM.CONST>
0

>  <SCORE.SYSTEM.DIHEDRAL>
0

>  <SCORE.SYSTEM.SOLV>
0

>  <SCORE.SYSTEM.norm>
0

>  <SCORE.heavy>
42

>  <SCORE.norm>
0.0485343

>  <RMSD>
8.721

$$$$
lig.pdb
 OpenBabel11021811513D
libRbt.so/2013.1/901 2013/11/27
 42 45  0  0  0  0  0  0  0  0999 V2000
   -1.5073    8.7065   32.7928 C   0  0  2  0  0  0  0  0  0  0  0  0
   -1.8313    7.6943   33.7966 O   0  0  0  0  0  0  0  0  0  0  0  0
   -0.0648    9.2652   33.1765 C   0  0  2  0  0  0  0  0  0  0  0  0
    0.9309    8.1920   33.1092 N   0  0  0  0  0  0  0  0  0  0  0  0
   -0.1403    9.9322   34.6357 C   0  0  1  0  0  0  0  0  0  0  0  0
    1.1406   10.4668   35.0308 O   0  0  0  0  0  0  0  0  0  0  0  0
   -1.2182   11.0283   34.5791 C   0  0  2  0  0  0  0  0  0  0  0  0
   -1.3126   11.6268   35.8267 O   0  0  0  0  0  0  0  0  0  0  0  0
   -2.6170   10.3934   34.1447 C   0  0  2  0  0  0  0  0  0  0  0  0
   -2.5288    9.7726   32.8561 O   0  0  0  0  0  0  0  0  0  0  0  0
   -3.7025   11.4283   34.0556 C   0  0  0  0  0  0  0  0  0  0  0  0
   -4.9050   10.7614   33.6698 O   0  0  0  0  0  0  0  0  0  0  0  0
   -1.8505    3.2579   33.4954 C   0  0  2  0  0  0  0  0  0  0  0  0
   -1.3982    1.8982   33.2964 N   0  0  0  0  0  0  0  0  0  0  0  0
   -1.5177    4.1333   32.2259 C   0  0  0  0  0  0  0  0  0  0  0  0
   -1.9950    5.6157   32.4185 C   0  0  2  0  0  0  0  0  0  0  0  0
   -1.6622    6.3926   31.2262 N   0  0  0  0  0  0  0  0  0  0  0  0
   -1.3248    6.3110   33.6858 C   0  0  2  0  0  0  0  0  0  0  0  0
   -1.6930    5.4576   34.9339 C   0  0  2  0  0  0  0  0  0  0  0  0
   -1.0331    6.1845   36.0824 O   0  0  0  0  0  0  0  0  0  0  0  0
   -1.1362    3.9391   34.7563 C   0  0  1  0  0  0  0  0  0  0  0  0
   -1.4725    3.0263   35.8499 O   0  0  0  0  0  0  0  0  0  0  0  0
   -1.7864    7.2511   36.4972 C   0  0  1  0  0  0  0  0  0  0  0  0
   -2.9994    6.8531   37.2194 C   0  0  2  0  0  0  0  0  0  0  0  0
   -3.8884    6.3330   36.2835 O   0  0  0  0  0  0  0  0  0  0  0  0
   -3.3430    8.1580   37.9693 C   0  0  2  0  0  0  0  0  0  0  0  0
   -4.6477    8.5738   37.5061 O   0  0  0  0  0  0  0  0  0  0  0  0
   -2.2660    9.1173   37.5828 C   0  0  2  0  0  0  0  0  0  0  0  0
   -1.1831    8.1314   37.4309 O   0  0  0  0  0  0  0  0  0  0  0  0
   -1.9313   10.1210   38.7469 C   0  0  0  0  0  0  0  0  0  0  0  0
   -0.7868   10.9817   38.4669 O   0  0  0  0  0  0  0  0  0  0  0  0
   -5.1698    9.8274   38.0417 C   0  0  2  0  0  0  0  0  0  0  0  0
   -6.7205    9.9656   37.6054 C   0  0  2  0  0  0  0  0  0  0  0  0
   -6.8179    9.9185   36.1104 N   0  0  0  0  0  0  0  0  0  0  0  0
   -7.2886   11.3459   38.2019 C   0  0  1  0  0  0  0  0  0  0  0  0
   -7.1381   11.2860   39.6529 O   0  0  0  0  0  0  0  0  0  0  0  0
   -6.4655   12.5672   37.5892 C   0  0  2  0  0  0  0  0  0  0  0  0
   -6.6786   12.5690   36.1247 O   0  0  0  0  0  0  0  0  0  0  0  0
   -4.8963   12.3764   37.9930 C   0  0  1  0  0  0  0  0  0  0  0  0
   -4.4019   11.0445   37.4866 O   0  0  0  0  0  0  0  0  0  0  0  0
   -4.0545   13.5506   37.3921 C   0  0  0  0  0  0  0  0  0  0  0  0
   -2.6556   13.5911   37.9198 N   0  0  0  0  0  0  0  0  0  0  0  0
  1  3  1  0  0  0  0
  1  2  1  1  0  0  0
  3  4  1  1  0  0  0
  3  5  1  0  0  0  0
  5  6  1  6  0  0  0
  7  8  1  1  0  0  0
  7  5  1  0  0  0  0
  9 11  1  6  0  0  0
  9  7  1  0  0  0  0
 10  9  1  0  0  0  0
 10  1  1  0  0  0  0
 12 11  1  0  0  0  0
 13 14  1  6  0  0  0
 15 13  1  0  0  0  0
 16 17  1  6  0  0  0
 16 15  1  0  0  0  0
 18  2  1  1  0  0  0
 18 19  1  0  0  0  0
 18 16  1  0  0  0  0
 19 20  1  1  0  0  0
 19 21  1  0  0  0  0
 21 22  1  1  0  0  0
 21 13  1  0  0  0  0
 23 20  1  1  0  0  0
 23 29  1  0  0  0  0
 24 25  1  6  0  0  0
 24 26  1  0  0  0  0
 24 23  1  0  0  0  0
 26 27  1  6  0  0  0
 26 28  1  0  0  0  0
 28 30  1  1  0  0  0
 29 28  1  0  0  0  0
 30 31  1  0  0  0  0
 32 27  1  6  0  0  0
 32 40  1  0  0  0  0
 33 35  1  0  0  0  0
 33 32  1  0  0  0  0
 33 34  1  6  0  0  0
 35 36  1  1  0  0  0
 35 37  1  0  0  0  0
 37 38  1  6  0  0  0
 37 39  1  0  0  0  0
 39 41  1  6  0  0  0
 40 39  1  0  0  0  0
 41 42  1  0  0  0  0
M  END
>  <CHROM.1>
-82.37336931,-179.70412960,-66.68961827,80.92481070,72.29247929,-177.68503043
173.71805661,-170.08181041,169.46809075,-2.81119568,8.81432039,35.67714537
-0.94923034,0.68067476,0.10408055

>  <Name>
lig.pdb

>  <RI>
0

>  <Rbt.Current_Directory>
/home/itssahil/PROJECTS/Mol_Feturizer/New_Systems/rnas/4wcr

>  <Rbt.Executable>
rbdock ($Id: //depot/dev/client3/rdock/2013.1/src/exe/rbdock.cxx#4 $)

>  <Rbt.Library>
libRbt.so (2013.1, Build901 2013/11/27)

>  <Rbt.Parameter_File>
/export/apps/rDock/src/rDock_2013.1_src/data/scripts/dock_solv.prm

>  <Rbt.Receptor>
prm/pocket_docking_5.prm

>  <SCORE>
-3.89434

>  <SCORE.INTER>
2.18735

>  <SCORE.INTER.CONST>
1

>  <SCORE.INTER.POLAR>
0

>  <SCORE.INTER.ROT>
9

>  <SCORE.INTER.SOLV>
15.8189

>  <SCORE.INTER.VDW>
-13.4147

>  <SCORE.INTER.norm>
0.0520797

>  <SCORE.INTRA>
-6.08348

>  <SCORE.INTRA.DIHEDRAL>
-9.61265

>  <SCORE.INTRA.DIHEDRAL.0>
16.2863

>  <SCORE.INTRA.POLAR>
0

>  <SCORE.INTRA.POLAR.0>
0

>  <SCORE.INTRA.REPUL>
-0.314433

>  <SCORE.INTRA.REPUL.0>
0.314433

>  <SCORE.INTRA.SOLV>
3.47875

>  <SCORE.INTRA.SOLV.lig_0>
-103.824

>  <SCORE.INTRA.VDW>
-1.44437

>  <SCORE.INTRA.VDW.0>
-5.30945

>  <SCORE.INTRA.norm>
-0.144845

>  <SCORE.RESTR>
0.0017937

>  <SCORE.RESTR.CAVITY>
0.0017937

>  <SCORE.RESTR.norm>
4.27071e-05

>  <SCORE.SYSTEM>
0

>  <SCORE.SYSTEM.CONST>
0

>  <SCORE.SYSTEM.DIHEDRAL>
0

>  <SCORE.SYSTEM.SOLV>
0

>  <SCORE.SYSTEM.norm>
0

>  <SCORE.heavy>
42

>  <SCORE.norm>
-0.0927224

>  <RMSD>
8.754

$$$$
lig.pdb
 OpenBabel11021811513D
libRbt.so/2013.1/901 2013/11/27
 42 45  0  0  0  0  0  0  0  0999 V2000
   -3.1873    9.9336   36.3319 C   0  0  2  0  0  0  0  0  0  0  0  0
   -3.0809   11.3685   36.5904 O   0  0  0  0  0  0  0  0  0  0  0  0
   -3.1984    9.7686   34.7467 C   0  0  2  0  0  0  0  0  0  0  0  0
   -1.9432   10.2637   34.1748 N   0  0  0  0  0  0  0  0  0  0  0  0
   -4.4791   10.5371   34.1561 C   0  0  1  0  0  0  0  0  0  0  0  0
   -4.5457   10.4108   32.7201 O   0  0  0  0  0  0  0  0  0  0  0  0
   -5.7222    9.9374   34.8355 C   0  0  2  0  0  0  0  0  0  0  0  0
   -6.8509   10.5805   34.3495 O   0  0  0  0  0  0  0  0  0  0  0  0
   -5.6096   10.1036   36.4192 C   0  0  2  0  0  0  0  0  0  0  0  0
   -4.4458    9.4419   36.9303 O   0  0  0  0  0  0  0  0  0  0  0  0
   -6.7934    9.5154   37.1333 C   0  0  0  0  0  0  0  0  0  0  0  0
   -6.5660    9.6567   38.5362 O   0  0  0  0  0  0  0  0  0  0  0  0
   -3.0806   11.4504   41.0363 C   0  0  2  0  0  0  0  0  0  0  0  0
   -2.9033   11.9113   42.3961 N   0  0  0  0  0  0  0  0  0  0  0  0
   -1.7195   11.5526   40.2453 C   0  0  0  0  0  0  0  0  0  0  0  0
   -1.8863   11.0619   38.7641 C   0  0  2  0  0  0  0  0  0  0  0  0
   -0.6078   11.1793   38.0661 N   0  0  0  0  0  0  0  0  0  0  0  0
   -2.9836   11.8973   37.9663 C   0  0  2  0  0  0  0  0  0  0  0  0
   -4.3278   11.7562   38.7376 C   0  0  2  0  0  0  0  0  0  0  0  0
   -5.3075   12.5619   37.9169 O   0  0  0  0  0  0  0  0  0  0  0  0
   -4.1656   12.3289   40.2519 C   0  0  1  0  0  0  0  0  0  0  0  0
   -5.3564   12.1971   41.0927 O   0  0  0  0  0  0  0  0  0  0  0  0
   -5.0924   13.9074   38.0613 C   0  0  1  0  0  0  0  0  0  0  0  0
   -4.8168   14.5858   36.7905 C   0  0  2  0  0  0  0  0  0  0  0  0
   -3.5339   14.2202   36.3939 O   0  0  0  0  0  0  0  0  0  0  0  0
   -5.1216   16.0528   37.1622 C   0  0  2  0  0  0  0  0  0  0  0  0
   -3.8955   16.7945   36.9724 O   0  0  0  0  0  0  0  0  0  0  0  0
   -5.5461   16.0056   38.5931 C   0  0  2  0  0  0  0  0  0  0  0  0
   -6.1763   14.6754   38.5572 O   0  0  0  0  0  0  0  0  0  0  0  0
   -6.6180   17.1088   38.9219 C   0  0  0  0  0  0  0  0  0  0  0  0
   -6.1994   18.4586   38.5585 O   0  0  0  0  0  0  0  0  0  0  0  0
   -3.6345   17.3065   35.6305 C   0  0  2  0  0  0  0  0  0  0  0  0
   -2.5860   16.3169   34.8986 C   0  0  2  0  0  0  0  0  0  0  0  0
   -1.3314   16.2372   35.7150 N   0  0  0  0  0  0  0  0  0  0  0  0
   -2.3070   16.8854   33.4211 C   0  0  1  0  0  0  0  0  0  0  0  0
   -3.5888   16.9274   32.7233 O   0  0  0  0  0  0  0  0  0  0  0  0
   -1.6621   18.3406   33.5256 C   0  0  2  0  0  0  0  0  0  0  0  0
   -0.3663   18.2134   34.2290 O   0  0  0  0  0  0  0  0  0  0  0  0
   -2.7119   19.3063   34.3175 C   0  0  1  0  0  0  0  0  0  0  0  0
   -3.0162   18.7190   35.6729 O   0  0  0  0  0  0  0  0  0  0  0  0
   -2.1027   20.7412   34.4539 C   0  0  0  0  0  0  0  0  0  0  0  0
   -0.7671   20.7429   35.1273 N   0  0  0  0  0  0  0  0  0  0  0  0
  1  3  1  0  0  0  0
  1  2  1  6  0  0  0
  3  4  1  6  0  0  0
  3  5  1  0  0  0  0
  5  6  1  6  0  0  0
  7  8  1  6  0  0  0
  7  5  1  0  0  0  0
  9 11  1  1  0  0  0
  9  7  1  0  0  0  0
 10  9  1  0  0  0  0
 10  1  1  0  0  0  0
 12 11  1  0  0  0  0
 13 14  1  1  0  0  0
 15 13  1  0  0  0  0
 16 17  1  6  0  0  0
 16 15  1  0  0  0  0
 18  2  1  6  0  0  0
 18 19  1  0  0  0  0
 18 16  1  0  0  0  0
 19 20  1  6  0  0  0
 19 21  1  0  0  0  0
 21 22  1  1  0  0  0
 21 13  1  0  0  0  0
 23 20  1  6  0  0  0
 23 29  1  0  0  0  0
 24 25  1  1  0  0  0
 24 26  1  0  0  0  0
 24 23  1  0  0  0  0
 26 27  1  1  0  0  0
 26 28  1  0  0  0  0
 28 30  1  6  0  0  0
 29 28  1  0  0  0  0
 30 31  1  0  0  0  0
 32 27  1  1  0  0  0
 32 40  1  0  0  0  0
 33 35  1  0  0  0  0
 33 32  1  0  0  0  0
 33 34  1  1  0  0  0
 35 36  1  6  0  0  0
 35 37  1  0  0  0  0
 37 38  1  1  0  0  0
 37 39  1  0  0  0  0
 39 41  1  1  0  0  0
 40 39  1  0  0  0  0
 41 42  1  0  0  0  0
M  END
>  <CHROM.1>
-177.32053129,177.24065899,47.57225233,-73.21689559,121.88484437,86.38345481
-54.09358533,-100.34441925,-56.04972208,-3.83815903,13.84324662,36.73473235
-2.46282656,1.29433466,0.56069171

>  <Name>
lig.pdb

>  <RI>
0

>  <Rbt.Current_Directory>
/home/itssahil/PROJECTS/Mol_Feturizer/New_Systems/rnas/4wcr

>  <Rbt.Executable>
rbdock ($Id: //depot/dev/client3/rdock/2013.1/src/exe/rbdock.cxx#4 $)

>  <Rbt.Library>
libRbt.so (2013.1, Build901 2013/11/27)

>  <Rbt.Parameter_File>
/export/apps/rDock/src/rDock_2013.1_src/data/scripts/dock_solv.prm

>  <Rbt.Receptor>
prm/pocket_docking_4.prm

>  <SCORE>
-1.77982

>  <SCORE.INTER>
-1.87198

>  <SCORE.INTER.CONST>
1

>  <SCORE.INTER.POLAR>
0

>  <SCORE.INTER.ROT>
9

>  <SCORE.INTER.SOLV>
13.6939

>  <SCORE.INTER.VDW>
-15.4126

>  <SCORE.INTER.norm>
-0.0445709

>  <SCORE.INTRA>
0.0921588

>  <SCORE.INTRA.DIHEDRAL>
1.44107

>  <SCORE.INTRA.DIHEDRAL.0>
16.2863

>  <SCORE.INTRA.POLAR>
0

>  <SCORE.INTRA.POLAR.0>
0

>  <SCORE.INTRA.REPUL>
-0.314433

>  <SCORE.INTRA.REPUL.0>
0.314433

>  <SCORE.INTRA.SOLV>
-0.896826

>  <SCORE.INTRA.SOLV.lig_0>
-103.824

>  <SCORE.INTRA.VDW>
1.3922

>  <SCORE.INTRA.VDW.0>
-5.30945

>  <SCORE.INTRA.norm>
0.00219426

>  <SCORE.RESTR>
0

>  <SCORE.RESTR.CAVITY>
0

>  <SCORE.RESTR.norm>
0

>  <SCORE.SYSTEM>
0

>  <SCORE.SYSTEM.CONST>
0

>  <SCORE.SYSTEM.DIHEDRAL>
0

>  <SCORE.SYSTEM.SOLV>
0

>  <SCORE.SYSTEM.norm>
0

>  <SCORE.heavy>
42

>  <SCORE.norm>
-0.0423766

>  <RMSD>
8.796

$$$$
lig.pdb
 OpenBabel11021811513D
libRbt.so/2013.1/901 2013/11/27
 42 45  0  0  0  0  0  0  0  0999 V2000
   -3.1385    8.1560   33.0202 C   0  0  2  0  0  0  0  0  0  0  0  0
   -2.3469    8.9460   33.9618 O   0  0  0  0  0  0  0  0  0  0  0  0
   -2.8996    8.8071   31.5853 C   0  0  2  0  0  0  0  0  0  0  0  0
   -1.4852    8.7141   31.2134 N   0  0  0  0  0  0  0  0  0  0  0  0
   -3.4211   10.3260   31.6137 C   0  0  1  0  0  0  0  0  0  0  0  0
   -3.2389   10.9632   30.3317 O   0  0  0  0  0  0  0  0  0  0  0  0
   -4.9036   10.2900   32.0226 C   0  0  2  0  0  0  0  0  0  0  0  0
   -5.3885   11.5889   32.0595 O   0  0  0  0  0  0  0  0  0  0  0  0
   -5.0582    9.5836   33.4458 C   0  0  2  0  0  0  0  0  0  0  0  0
   -4.5595    8.2405   33.4169 O   0  0  0  0  0  0  0  0  0  0  0  0
   -6.4932    9.5057   33.8837 C   0  0  0  0  0  0  0  0  0  0  0  0
   -6.8613   10.7897   34.3892 O   0  0  0  0  0  0  0  0  0  0  0  0
   -2.8408    6.5768   37.6922 C   0  0  2  0  0  0  0  0  0  0  0  0
   -2.6588    6.1058   39.0479 N   0  0  0  0  0  0  0  0  0  0  0  0
   -1.4661    6.5529   36.9187 C   0  0  0  0  0  0  0  0  0  0  0  0
   -1.6359    7.0642   35.4448 C   0  0  2  0  0  0  0  0  0  0  0  0
   -0.3414    7.0331   34.7672 N   0  0  0  0  0  0  0  0  0  0  0  0
   -2.2129    8.5477   35.3780 C   0  0  2  0  0  0  0  0  0  0  0  0
   -3.5852    8.5469   36.1118 C   0  0  2  0  0  0  0  0  0  0  0  0
   -4.0642    9.9750   35.9949 O   0  0  0  0  0  0  0  0  0  0  0  0
   -3.3914    8.0801   37.6585 C   0  0  1  0  0  0  0  0  0  0  0  0
   -4.6284    7.9883   38.4354 O   0  0  0  0  0  0  0  0  0  0  0  0
   -3.1751   10.8483   36.5643 C   0  0  1  0  0  0  0  0  0  0  0  0
   -3.2836   12.2100   36.0304 C   0  0  2  0  0  0  0  0  0  0  0  0
   -2.7527   12.1955   34.7440 O   0  0  0  0  0  0  0  0  0  0  0  0
   -2.5894   13.0240   37.1433 C   0  0  2  0  0  0  0  0  0  0  0  0
   -1.4485   13.6718   36.5363 O   0  0  0  0  0  0  0  0  0  0  0  0
   -2.1947   12.0128   38.1686 C   0  0  2  0  0  0  0  0  0  0  0  0
   -3.3163   11.0830   37.9556 O   0  0  0  0  0  0  0  0  0  0  0  0
   -2.2460   12.6055   39.6248 C   0  0  0  0  0  0  0  0  0  0  0  0
   -1.8098   11.6680   40.6543 O   0  0  0  0  0  0  0  0  0  0  0  0
   -1.0409   14.9554   37.0996 C   0  0  2  0  0  0  0  0  0  0  0  0
    0.3966   15.3556   36.4773 C   0  0  2  0  0  0  0  0  0  0  0  0
    1.3868   14.2744   36.7888 N   0  0  0  0  0  0  0  0  0  0  0  0
    0.8362   16.7712   37.0995 C   0  0  1  0  0  0  0  0  0  0  0  0
   -0.1961   17.7406   36.7441 O   0  0  0  0  0  0  0  0  0  0  0  0
    0.9751   16.6346   38.6826 C   0  0  2  0  0  0  0  0  0  0  0  0
    2.0444   15.6501   38.9613 O   0  0  0  0  0  0  0  0  0  0  0  0
   -0.4709   16.1745   39.2821 C   0  0  1  0  0  0  0  0  0  0  0  0
   -0.8993   14.8818   38.6338 O   0  0  0  0  0  0  0  0  0  0  0  0
   -0.3666   16.0134   40.8351 C   0  0  0  0  0  0  0  0  0  0  0  0
    0.0836   17.2650   41.5193 N   0  0  0  0  0  0  0  0  0  0  0  0
  1  3  1  0  0  0  0
  1  2  1  1  0  0  0
  3  4  1  1  0  0  0
  3  5  1  0  0  0  0
  5  6  1  6  0  0  0
  7  8  1  1  0  0  0
  7  5  1  0  0  0  0
  9 11  1  6  0  0  0
  9  7  1  0  0  0  0
 10  9  1  0  0  0  0
 10  1  1  0  0  0  0
 12 11  1  0  0  0  0
 13 14  1  1  0  0  0
 15 13  1  0  0  0  0
 16 17  1  1  0  0  0
 16 15  1  0  0  0  0
 18  2  1  6  0  0  0
 18 19  1  0  0  0  0
 18 16  1  0  0  0  0
 19 20  1  1  0  0  0
 19 21  1  0  0  0  0
 21 22  1  1  0  0  0
 21 13  1  0  0  0  0
 23 20  1  6  0  0  0
 23 29  1  0  0  0  0
 24 25  1  6  0  0  0
 24 26  1  0  0  0  0
 24 23  1  0  0  0  0
 26 27  1  6  0  0  0
 26 28  1  0  0  0  0
 28 30  1  1  0  0  0
 29 28  1  0  0  0  0
 30 31  1  0  0  0  0
 32 27  1  6  0  0  0
 32 40  1  0  0  0  0
 33 35  1  0  0  0  0
 33 32  1  0  0  0  0
 33 34  1  1  0  0  0
 35 36  1  1  0  0  0
 35 37  1  0  0  0  0
 37 38  1  6  0  0  0
 37 39  1  0  0  0  0
 39 41  1  1  0  0  0
 40 39  1  0  0  0  0
 41 42  1  0  0  0  0
M  END
>  <CHROM.1>
-173.62846627,-78.84894551,56.23538521,-59.02101413,156.62091050,149.65084971
-177.40323955,169.19004576,57.67575292,-2.32642465,11.39119116,36.14126287
3.07014297,1.16462379,2.25324162

>  <Name>
lig.pdb

>  <RI>
0

>  <Rbt.Current_Directory>
/home/itssahil/PROJECTS/Mol_Feturizer/New_Systems/rnas/4wcr

>  <Rbt.Executable>
rbdock ($Id: //depot/dev/client3/rdock/2013.1/src/exe/rbdock.cxx#4 $)

>  <Rbt.Library>
libRbt.so (2013.1, Build901 2013/11/27)

>  <Rbt.Parameter_File>
/export/apps/rDock/src/rDock_2013.1_src/data/scripts/dock_solv.prm

>  <Rbt.Receptor>
prm/pocket_docking_5.prm

>  <SCORE>
-1.13598

>  <SCORE.INTER>
4.59718

>  <SCORE.INTER.CONST>
1

>  <SCORE.INTER.POLAR>
0

>  <SCORE.INTER.ROT>
9

>  <SCORE.INTER.SOLV>
14.4036

>  <SCORE.INTER.VDW>
-11.3364

>  <SCORE.INTER.norm>
0.109457

>  <SCORE.INTRA>
-5.73316

>  <SCORE.INTRA.DIHEDRAL>
-7.77997

>  <SCORE.INTRA.DIHEDRAL.0>
16.2863

>  <SCORE.INTRA.POLAR>
0

>  <SCORE.INTRA.POLAR.0>
0

>  <SCORE.INTRA.REPUL>
-0.314433

>  <SCORE.INTRA.REPUL.0>
0.314433

>  <SCORE.INTRA.SOLV>
-3.38804

>  <SCORE.INTRA.SOLV.lig_0>
-103.824

>  <SCORE.INTRA.VDW>
1.42301

>  <SCORE.INTRA.VDW.0>
-5.30945

>  <SCORE.INTRA.norm>
-0.136504

>  <SCORE.RESTR>
0

>  <SCORE.RESTR.CAVITY>
0

>  <SCORE.RESTR.norm>
0

>  <SCORE.SYSTEM>
0

>  <SCORE.SYSTEM.CONST>
0

>  <SCORE.SYSTEM.DIHEDRAL>
0

>  <SCORE.SYSTEM.SOLV>
0

>  <SCORE.SYSTEM.norm>
0

>  <SCORE.heavy>
42

>  <SCORE.norm>
-0.0270472

>  <RMSD>
8.801

$$$$
lig.pdb
 OpenBabel11021811513D
libRbt.so/2013.1/901 2013/11/27
 42 45  0  0  0  0  0  0  0  0999 V2000
   -4.2265    7.9143   37.0930 C   0  0  2  0  0  0  0  0  0  0  0  0
   -2.8904    8.5063   37.0535 O   0  0  0  0  0  0  0  0  0  0  0  0
   -4.1460    6.5805   36.2244 C   0  0  2  0  0  0  0  0  0  0  0  0
   -3.1915    5.6418   36.8207 N   0  0  0  0  0  0  0  0  0  0  0  0
   -3.7535    6.9689   34.7161 C   0  0  1  0  0  0  0  0  0  0  0  0
   -3.6772    5.7956   33.8793 O   0  0  0  0  0  0  0  0  0  0  0  0
   -4.8180    7.9573   34.2098 C   0  0  2  0  0  0  0  0  0  0  0  0
   -4.5092    8.3172   32.9064 O   0  0  0  0  0  0  0  0  0  0  0  0
   -4.8644    9.2399   35.1591 C   0  0  2  0  0  0  0  0  0  0  0  0
   -5.1829    8.8772   36.5084 O   0  0  0  0  0  0  0  0  0  0  0  0
   -5.9041   10.2306   34.7178 C   0  0  0  0  0  0  0  0  0  0  0  0
   -5.9643   11.2621   35.7037 O   0  0  0  0  0  0  0  0  0  0  0  0
   -2.8925   10.8790   40.8142 C   0  0  2  0  0  0  0  0  0  0  0  0
   -2.4263   11.6582   41.9405 N   0  0  0  0  0  0  0  0  0  0  0  0
   -2.1261    9.5016   40.7509 C   0  0  0  0  0  0  0  0  0  0  0  0
   -2.6111    8.6383   39.5336 C   0  0  2  0  0  0  0  0  0  0  0  0
   -1.8732    7.3771   39.5071 N   0  0  0  0  0  0  0  0  0  0  0  0
   -2.4042    9.3816   38.1397 C   0  0  2  0  0  0  0  0  0  0  0  0
   -3.1960   10.7197   38.2036 C   0  0  2  0  0  0  0  0  0  0  0  0
   -2.9573   11.3517   36.8521 O   0  0  0  0  0  0  0  0  0  0  0  0
   -2.6422   11.6386   39.4269 C   0  0  1  0  0  0  0  0  0  0  0  0
   -3.3522   12.9040   39.6191 O   0  0  0  0  0  0  0  0  0  0  0  0
   -3.4059   12.6459   36.8197 C   0  0  1  0  0  0  0  0  0  0  0  0
   -3.5454   13.1728   35.4580 C   0  0  2  0  0  0  0  0  0  0  0  0
   -2.2632   13.3937   34.9645 O   0  0  0  0  0  0  0  0  0  0  0  0
   -4.4981   14.3643   35.6943 C   0  0  2  0  0  0  0  0  0  0  0  0
   -3.7861   15.5546   35.2870 O   0  0  0  0  0  0  0  0  0  0  0  0
   -4.7840   14.3419   37.1597 C   0  0  2  0  0  0  0  0  0  0  0  0
   -4.7018   12.8835   37.3440 O   0  0  0  0  0  0  0  0  0  0  0  0
   -6.2372   14.8517   37.4801 C   0  0  0  0  0  0  0  0  0  0  0  0
   -6.3922   16.2969   37.3521 O   0  0  0  0  0  0  0  0  0  0  0  0
   -2.8528   16.1284   36.2517 C   0  0  2  0  0  0  0  0  0  0  0  0
   -2.5245   17.6478   35.8068 C   0  0  2  0  0  0  0  0  0  0  0  0
   -1.9551   17.6432   34.4203 N   0  0  0  0  0  0  0  0  0  0  0  0
   -1.4997   18.2732   36.8758 C   0  0  1  0  0  0  0  0  0  0  0  0
   -2.1496   18.2205   38.1821 O   0  0  0  0  0  0  0  0  0  0  0  0
   -0.1476   17.4270   36.8724 C   0  0  2  0  0  0  0  0  0  0  0  0
    0.4557   17.5405   35.5258 O   0  0  0  0  0  0  0  0  0  0  0  0
   -0.5111   15.8863   37.2674 C   0  0  1  0  0  0  0  0  0  0  0  0
   -1.5272   15.3410   36.2954 O   0  0  0  0  0  0  0  0  0  0  0  0
    0.7930   15.0215   37.2568 C   0  0  0  0  0  0  0  0  0  0  0  0
    1.7354   15.3790   38.3619 N   0  0  0  0  0  0  0  0  0  0  0  0
  1  3  1  0  0  0  0
  1  2  1  6  0  0  0
  3  4  1  1  0  0  0
  3  5  1  0  0  0  0
  5  6  1  6  0  0  0
  7  8  1  6  0  0  0
  7  5  1  0  0  0  0
  9 11  1  6  0  0  0
  9  7  1  0  0  0  0
 10  9  1  0  0  0  0
 10  1  1  0  0  0  0
 12 11  1  0  0  0  0
 13 14  1  1  0  0  0
 15 13  1  0  0  0  0
 16 17  1  6  0  0  0
 16 15  1  0  0  0  0
 18  2  1  6  0  0  0
 18 19  1  0  0  0  0
 18 16  1  0  0  0  0
 19 20  1  6  0  0  0
 19 21  1  0  0  0  0
 21 22  1  1  0  0  0
 21 13  1  0  0  0  0
 23 20  1  6  0  0  0
 23 29  1  0  0  0  0
 24 25  1  1  0  0  0
 24 26  1  0  0  0  0
 24 23  1  0  0  0  0
 26 27  1  1  0  0  0
 26 28  1  0  0  0  0
 28 30  1  6  0  0  0
 29 28  1  0  0  0  0
 30 31  1  0  0  0  0
 32 27  1  6  0  0  0
 32 40  1  0  0  0  0
 33 35  1  0  0  0  0
 33 32  1  0  0  0  0
 33 34  1  6  0  0  0
 35 36  1  1  0  0  0
 35 37  1  0  0  0  0
 37 38  1  6  0  0  0
 37 39  1  0  0  0  0
 39 41  1  6  0  0  0
 40 39  1  0  0  0  0
 41 42  1  0  0  0  0
M  END
>  <CHROM.1>
-153.71101612,173.91519147,51.73860842,-169.92353177,-163.82494506,-81.88989798
-74.32141202,-162.76378056,68.59276108,-3.09906716,12.24387522,36.88397833
-2.00742895,-1.00910346,-0.33958938

>  <Name>
lig.pdb

>  <RI>
0

>  <Rbt.Current_Directory>
/home/itssahil/PROJECTS/Mol_Feturizer/New_Systems/rnas/4wcr

>  <Rbt.Executable>
rbdock ($Id: //depot/dev/client3/rdock/2013.1/src/exe/rbdock.cxx#4 $)

>  <Rbt.Library>
libRbt.so (2013.1, Build901 2013/11/27)

>  <Rbt.Parameter_File>
/export/apps/rDock/src/rDock_2013.1_src/data/scripts/dock_solv.prm

>  <Rbt.Receptor>
prm/pocket_docking_3.prm

>  <SCORE>
-2.30034

>  <SCORE.INTER>
1.25998

>  <SCORE.INTER.CONST>
1

>  <SCORE.INTER.POLAR>
0

>  <SCORE.INTER.ROT>
9

>  <SCORE.INTER.SOLV>
14.3423

>  <SCORE.INTER.VDW>
-13.5408

>  <SCORE.INTER.norm>
0.0299996

>  <SCORE.INTRA>
-3.56032

>  <SCORE.INTRA.DIHEDRAL>
-6.33776

>  <SCORE.INTRA.DIHEDRAL.0>
16.2863

>  <SCORE.INTRA.POLAR>
0

>  <SCORE.INTRA.POLAR.0>
0

>  <SCORE.INTRA.REPUL>
-0.314433

>  <SCORE.INTRA.REPUL.0>
0.314433

>  <SCORE.INTRA.SOLV>
-1.08907

>  <SCORE.INTRA.SOLV.lig_0>
-103.824

>  <SCORE.INTRA.VDW>
1.72525

>  <SCORE.INTRA.VDW.0>
-5.30945

>  <SCORE.INTRA.norm>
-0.0847696

>  <SCORE.RESTR>
0

>  <SCORE.RESTR.CAVITY>
0

>  <SCORE.RESTR.norm>
0

>  <SCORE.SYSTEM>
0

>  <SCORE.SYSTEM.CONST>
0

>  <SCORE.SYSTEM.DIHEDRAL>
0

>  <SCORE.SYSTEM.SOLV>
0

>  <SCORE.SYSTEM.norm>
0

>  <SCORE.heavy>
42

>  <SCORE.norm>
-0.05477

>  <RMSD>
8.802

$$$$
lig.pdb
 OpenBabel11021811513D
libRbt.so/2013.1/901 2013/11/27
 42 45  0  0  0  0  0  0  0  0999 V2000
   -6.4491   16.8672   30.9387 C   0  0  2  0  0  0  0  0  0  0  0  0
   -5.0499   16.6747   30.5615 O   0  0  0  0  0  0  0  0  0  0  0  0
   -7.3062   16.5700   29.6284 C   0  0  2  0  0  0  0  0  0  0  0  0
   -7.1154   15.1816   29.1996 N   0  0  0  0  0  0  0  0  0  0  0  0
   -6.8875   17.6203   28.4877 C   0  0  1  0  0  0  0  0  0  0  0  0
   -7.6435   17.4038   27.2776 O   0  0  0  0  0  0  0  0  0  0  0  0
   -7.1237   19.0292   29.0584 C   0  0  2  0  0  0  0  0  0  0  0  0
   -6.7699   19.9653   28.0981 O   0  0  0  0  0  0  0  0  0  0  0  0
   -6.2659   19.2273   30.3901 C   0  0  2  0  0  0  0  0  0  0  0  0
   -6.6250   18.2639   31.3883 O   0  0  0  0  0  0  0  0  0  0  0  0
   -6.4760   20.5844   30.9995 C   0  0  0  0  0  0  0  0  0  0  0  0
   -5.5039   20.7495   32.0326 O   0  0  0  0  0  0  0  0  0  0  0  0
   -3.8416   13.4327   33.3547 C   0  0  2  0  0  0  0  0  0  0  0  0
   -3.0511   12.4079   34.0013 N   0  0  0  0  0  0  0  0  0  0  0  0
   -3.9492   13.1419   31.8079 C   0  0  0  0  0  0  0  0  0  0  0  0
   -4.7992   14.2431   31.0818 C   0  0  2  0  0  0  0  0  0  0  0  0
   -4.8682   13.9411   29.6536 N   0  0  0  0  0  0  0  0  0  0  0  0
   -4.1893   15.7032   31.2672 C   0  0  2  0  0  0  0  0  0  0  0  0
   -4.1244   15.9900   32.7954 C   0  0  2  0  0  0  0  0  0  0  0  0
   -3.5496   17.3845   32.8824 O   0  0  0  0  0  0  0  0  0  0  0  0
   -3.1866   14.8831   33.5321 C   0  0  1  0  0  0  0  0  0  0  0  0
   -3.0957   15.0205   34.9864 O   0  0  0  0  0  0  0  0  0  0  0  0
   -3.0072   17.6250   34.1175 C   0  0  1  0  0  0  0  0  0  0  0  0
   -2.1632   18.8240   34.1519 C   0  0  2  0  0  0  0  0  0  0  0  0
   -0.9865   18.5236   33.4723 O   0  0  0  0  0  0  0  0  0  0  0  0
   -2.1263   19.1207   35.6664 C   0  0  2  0  0  0  0  0  0  0  0  0
   -0.7420   19.0373   36.0741 O   0  0  0  0  0  0  0  0  0  0  0  0
   -2.9705   18.0564   36.2862 C   0  0  2  0  0  0  0  0  0  0  0  0
   -3.9175   17.8954   35.1704 O   0  0  0  0  0  0  0  0  0  0  0  0
   -3.7199   18.5765   37.5677 C   0  0  0  0  0  0  0  0  0  0  0  0
   -3.9677   20.0144   37.5579 O   0  0  0  0  0  0  0  0  0  0  0  0
   -0.4011   18.0030   37.0462 C   0  0  2  0  0  0  0  0  0  0  0  0
    0.9526   18.4447   37.8121 C   0  0  2  0  0  0  0  0  0  0  0  0
    2.0461   18.6415   36.8061 N   0  0  0  0  0  0  0  0  0  0  0  0
    1.3187   17.3029   38.8828 C   0  0  1  0  0  0  0  0  0  0  0  0
    0.1893   17.1912   39.8013 O   0  0  0  0  0  0  0  0  0  0  0  0
    1.5782   15.9254   38.1215 C   0  0  2  0  0  0  0  0  0  0  0  0
    2.7402   16.1142   37.2248 O   0  0  0  0  0  0  0  0  0  0  0  0
    0.2194   15.5292   37.3100 C   0  0  1  0  0  0  0  0  0  0  0  0
   -0.1474   16.6438   36.3625 O   0  0  0  0  0  0  0  0  0  0  0  0
    0.4443   14.1883   36.5354 C   0  0  0  0  0  0  0  0  0  0  0  0
   -0.7764   13.7295   35.8028 N   0  0  0  0  0  0  0  0  0  0  0  0
  1  3  1  0  0  0  0
  1  2  1  6  0  0  0
  3  4  1  6  0  0  0
  3  5  1  0  0  0  0
  5  6  1  6  0  0  0
  7  8  1  6  0  0  0
  7  5  1  0  0  0  0
  9 11  1  1  0  0  0
  9  7  1  0  0  0  0
 10  9  1  0  0  0  0
 10  1  1  0  0  0  0
 12 11  1  0  0  0  0
 13 14  1  1  0  0  0
 15 13  1  0  0  0  0
 16 17  1  6  0  0  0
 16 15  1  0  0  0  0
 18  2  1  6  0  0  0
 18 19  1  0  0  0  0
 18 16  1  0  0  0  0
 19 20  1  6  0  0  0
 19 21  1  0  0  0  0
 21 22  1  1  0  0  0
 21 13  1  0  0  0  0
 23 20  1  6  0  0  0
 23 29  1  0  0  0  0
 24 25  1  1  0  0  0
 24 26  1  0  0  0  0
 24 23  1  0  0  0  0
 26 27  1  1  0  0  0
 26 28  1  0  0  0  0
 28 30  1  1  0  0  0
 29 28  1  0  0  0  0
 30 31  1  0  0  0  0
 32 27  1  6  0  0  0
 32 40  1  0  0  0  0
 33 35  1  0  0  0  0
 33 32  1  0  0  0  0
 33 34  1  6  0  0  0
 35 36  1  1  0  0  0
 35 37  1  0  0  0  0
 37 38  1  6  0  0  0
 37 39  1  0  0  0  0
 39 41  1  6  0  0  0
 40 39  1  0  0  0  0
 41 42  1  0  0  0  0
M  END
>  <CHROM.1>
-122.33692433,-169.98473022,61.57283676,-159.39389226,166.20337958,-117.34601293
26.87740457,-156.57870531,177.92414040,-3.17536367,17.03622905,33.69947079
-2.95913885,-0.84469950,0.30046814

>  <Name>
lig.pdb

>  <RI>
0

>  <Rbt.Current_Directory>
/home/itssahil/PROJECTS/Mol_Feturizer/New_Systems/rnas/4wcr

>  <Rbt.Executable>
rbdock ($Id: //depot/dev/client3/rdock/2013.1/src/exe/rbdock.cxx#4 $)

>  <Rbt.Library>
libRbt.so (2013.1, Build901 2013/11/27)

>  <Rbt.Parameter_File>
/export/apps/rDock/src/rDock_2013.1_src/data/scripts/dock_solv.prm

>  <Rbt.Receptor>
prm/blind_docking_100.prm

>  <SCORE>
4.60187

>  <SCORE.INTER>
-5.61222

>  <SCORE.INTER.CONST>
1

>  <SCORE.INTER.POLAR>
0

>  <SCORE.INTER.ROT>
9

>  <SCORE.INTER.SOLV>
41.2056

>  <SCORE.INTER.VDW>
-27.0767

>  <SCORE.INTER.norm>
-0.133624

>  <SCORE.INTRA>
6.64871

>  <SCORE.INTRA.DIHEDRAL>
6.65274

>  <SCORE.INTRA.DIHEDRAL.0>
16.2863

>  <SCORE.INTRA.POLAR>
0

>  <SCORE.INTRA.POLAR.0>
0

>  <SCORE.INTRA.REPUL>
-0.314433

>  <SCORE.INTRA.REPUL.0>
0.314433

>  <SCORE.INTRA.SOLV>
2.90679

>  <SCORE.INTRA.SOLV.lig_0>
-103.824

>  <SCORE.INTRA.VDW>
3.44111

>  <SCORE.INTRA.VDW.0>
-5.30945

>  <SCORE.INTRA.norm>
0.158303

>  <SCORE.RESTR>
3.56538

>  <SCORE.RESTR.CAVITY>
3.56538

>  <SCORE.RESTR.norm>
0.0848899

>  <SCORE.SYSTEM>
0

>  <SCORE.SYSTEM.CONST>
0

>  <SCORE.SYSTEM.DIHEDRAL>
0

>  <SCORE.SYSTEM.SOLV>
0

>  <SCORE.SYSTEM.norm>
0

>  <SCORE.heavy>
42

>  <SCORE.norm>
0.109568

>  <RMSD>
8.820

$$$$
lig.pdb
 OpenBabel11021811513D
libRbt.so/2013.1/901 2013/11/27
 42 45  0  0  0  0  0  0  0  0999 V2000
   -6.4515   16.5066   30.6808 C   0  0  2  0  0  0  0  0  0  0  0  0
   -5.1868   17.2396   30.6581 O   0  0  0  0  0  0  0  0  0  0  0  0
   -6.2856   15.3049   29.6471 C   0  0  2  0  0  0  0  0  0  0  0  0
   -5.2083   14.4091   30.0768 N   0  0  0  0  0  0  0  0  0  0  0  0
   -6.0213   15.9140   28.1846 C   0  0  1  0  0  0  0  0  0  0  0  0
   -5.8741   14.8664   27.2030 O   0  0  0  0  0  0  0  0  0  0  0  0
   -7.2078   16.8361   27.8552 C   0  0  2  0  0  0  0  0  0  0  0  0
   -7.0121   17.3831   26.5957 O   0  0  0  0  0  0  0  0  0  0  0  0
   -7.3300   17.9811   28.9608 C   0  0  2  0  0  0  0  0  0  0  0  0
   -7.5325   17.4247   30.2658 O   0  0  0  0  0  0  0  0  0  0  0  0
   -8.4884   18.9001   28.6950 C   0  0  0  0  0  0  0  0  0  0  0  0
   -8.2538   19.5395   27.4397 O   0  0  0  0  0  0  0  0  0  0  0  0
   -2.7790   20.1187   33.0426 C   0  0  2  0  0  0  0  0  0  0  0  0
   -2.4055   21.0754   34.0615 N   0  0  0  0  0  0  0  0  0  0  0  0
   -4.0704   20.6106   32.2816 C   0  0  0  0  0  0  0  0  0  0  0  0
   -4.4994   19.5867   31.1725 C   0  0  2  0  0  0  0  0  0  0  0  0
   -5.7004   20.0752   30.4981 N   0  0  0  0  0  0  0  0  0  0  0  0
   -4.7983   18.1381   31.7645 C   0  0  2  0  0  0  0  0  0  0  0  0
   -3.5045   17.6511   32.4790 C   0  0  2  0  0  0  0  0  0  0  0  0
   -3.8668   16.2794   32.9984 O   0  0  0  0  0  0  0  0  0  0  0  0
   -3.1033   18.6824   33.6719 C   0  0  1  0  0  0  0  0  0  0  0  0
   -1.8660   18.3542   34.3817 O   0  0  0  0  0  0  0  0  0  0  0  0
   -2.9570   15.8392   33.9235 C   0  0  1  0  0  0  0  0  0  0  0  0
   -3.5245   15.7020   35.2689 C   0  0  2  0  0  0  0  0  0  0  0  0
   -3.7156   16.9854   35.7722 O   0  0  0  0  0  0  0  0  0  0  0  0
   -2.4990   14.7573   35.9315 C   0  0  2  0  0  0  0  0  0  0  0  0
   -1.9306   15.4767   37.0491 O   0  0  0  0  0  0  0  0  0  0  0  0
   -1.4946   14.4725   34.8639 C   0  0  2  0  0  0  0  0  0  0  0  0
   -2.4150   14.5453   33.7171 O   0  0  0  0  0  0  0  0  0  0  0  0
   -0.8979   13.0228   34.9940 C   0  0  0  0  0  0  0  0  0  0  0  0
   -0.1102   12.8203   36.2055 O   0  0  0  0  0  0  0  0  0  0  0  0
   -0.5616   15.9597   36.8960 C   0  0  2  0  0  0  0  0  0  0  0  0
    0.2022   15.7945   38.3115 C   0  0  2  0  0  0  0  0  0  0  0  0
   -0.5408   16.5598   39.3646 N   0  0  0  0  0  0  0  0  0  0  0  0
    1.7092   16.3247   38.1334 C   0  0  1  0  0  0  0  0  0  0  0  0
    2.3313   15.5201   37.0859 O   0  0  0  0  0  0  0  0  0  0  0  0
    1.6845   17.8687   37.7332 C   0  0  2  0  0  0  0  0  0  0  0  0
    1.0553   18.6158   38.8450 O   0  0  0  0  0  0  0  0  0  0  0  0
    0.8601   18.0179   36.3333 C   0  0  1  0  0  0  0  0  0  0  0  0
   -0.5271   17.4500   36.4999 O   0  0  0  0  0  0  0  0  0  0  0  0
    0.8009   19.5257   35.9187 C   0  0  0  0  0  0  0  0  0  0  0  0
    2.1466   20.0908   35.5917 N   0  0  0  0  0  0  0  0  0  0  0  0
  1  3  1  0  0  0  0
  1  2  1  6  0  0  0
  3  4  1  1  0  0  0
  3  5  1  0  0  0  0
  5  6  1  6  0  0  0
  7  8  1  6  0  0  0
  7  5  1  0  0  0  0
  9 11  1  6  0  0  0
  9  7  1  0  0  0  0
 10  9  1  0  0  0  0
 10  1  1  0  0  0  0
 12 11  1  0  0  0  0
 13 14  1  1  0  0  0
 15 13  1  0  0  0  0
 16 17  1  1  0  0  0
 16 15  1  0  0  0  0
 18  2  1  6  0  0  0
 18 19  1  0  0  0  0
 18 16  1  0  0  0  0
 19 20  1  1  0  0  0
 19 21  1  0  0  0  0
 21 22  1  6  0  0  0
 21 13  1  0  0  0  0
 23 20  1  6  0  0  0
 23 29  1  0  0  0  0
 24 25  1  1  0  0  0
 24 26  1  0  0  0  0
 24 23  1  0  0  0  0
 26 27  1  1  0  0  0
 26 28  1  0  0  0  0
 28 30  1  1  0  0  0
 29 28  1  0  0  0  0
 30 31  1  0  0  0  0
 32 27  1  1  0  0  0
 32 40  1  0  0  0  0
 33 35  1  0  0  0  0
 33 32  1  0  0  0  0
 33 34  1  1  0  0  0
 35 36  1  6  0  0  0
 35 37  1  0  0  0  0
 37 38  1  1  0  0  0
 37 39  1  0  0  0  0
 39 41  1  1  0  0  0
 40 39  1  0  0  0  0
 41 42  1  0  0  0  0
M  END
>  <CHROM.1>
-160.33453925,-62.06882699,-124.30737384,-165.39971495,114.12036130,-106.67839828
-65.45720063,-142.18911302,65.35315917,-3.05001485,17.08342250,33.34896532
3.02422349,-0.86328060,-0.05803605

>  <Name>
lig.pdb

>  <RI>
0

>  <Rbt.Current_Directory>
/home/itssahil/PROJECTS/Mol_Feturizer/New_Systems/rnas/4wcr

>  <Rbt.Executable>
rbdock ($Id: //depot/dev/client3/rdock/2013.1/src/exe/rbdock.cxx#4 $)

>  <Rbt.Library>
libRbt.so (2013.1, Build901 2013/11/27)

>  <Rbt.Parameter_File>
/export/apps/rDock/src/rDock_2013.1_src/data/scripts/dock_solv.prm

>  <Rbt.Receptor>
prm/blind_docking_60.prm

>  <SCORE>
-3.487

>  <SCORE.INTER>
-14.4222

>  <SCORE.INTER.CONST>
1

>  <SCORE.INTER.POLAR>
0

>  <SCORE.INTER.ROT>
9

>  <SCORE.INTER.SOLV>
33.9819

>  <SCORE.INTER.VDW>
-30.5421

>  <SCORE.INTER.norm>
-0.343386

>  <SCORE.INTRA>
9.98857

>  <SCORE.INTRA.DIHEDRAL>
12.5182

>  <SCORE.INTRA.DIHEDRAL.0>
16.2863

>  <SCORE.INTRA.POLAR>
0

>  <SCORE.INTRA.POLAR.0>
0

>  <SCORE.INTRA.REPUL>
0.195982

>  <SCORE.INTRA.REPUL.0>
0.314433

>  <SCORE.INTRA.SOLV>
0.0801391

>  <SCORE.INTRA.SOLV.lig_0>
-103.824

>  <SCORE.INTRA.VDW>
2.70949

>  <SCORE.INTRA.VDW.0>
-5.30945

>  <SCORE.INTRA.norm>
0.237823

>  <SCORE.RESTR>
0.946631

>  <SCORE.RESTR.CAVITY>
0.946631

>  <SCORE.RESTR.norm>
0.0225388

>  <SCORE.SYSTEM>
0

>  <SCORE.SYSTEM.CONST>
0

>  <SCORE.SYSTEM.DIHEDRAL>
0

>  <SCORE.SYSTEM.SOLV>
0

>  <SCORE.SYSTEM.norm>
0

>  <SCORE.heavy>
42

>  <SCORE.norm>
-0.0830238

>  <RMSD>
8.830

$$$$
lig.pdb
 OpenBabel11021811513D
libRbt.so/2013.1/901 2013/11/27
 42 45  0  0  0  0  0  0  0  0999 V2000
   -6.5210   16.5102   30.6030 C   0  0  2  0  0  0  0  0  0  0  0  0
   -5.2541   17.2397   30.5983 O   0  0  0  0  0  0  0  0  0  0  0  0
   -6.3441   15.3083   29.5714 C   0  0  2  0  0  0  0  0  0  0  0  0
   -5.2754   14.4094   30.0159 N   0  0  0  0  0  0  0  0  0  0  0  0
   -6.0577   15.9171   28.1130 C   0  0  1  0  0  0  0  0  0  0  0  0
   -5.8998   14.8693   27.1332 O   0  0  0  0  0  0  0  0  0  0  0  0
   -7.2369   16.8426   27.7672 C   0  0  2  0  0  0  0  0  0  0  0  0
   -7.0221   17.3894   26.5108 O   0  0  0  0  0  0  0  0  0  0  0  0
   -7.3712   17.9876   28.8714 C   0  0  2  0  0  0  0  0  0  0  0  0
   -7.5935   17.4315   30.1733 O   0  0  0  0  0  0  0  0  0  0  0  0
   -8.5232   18.9100   28.5897 C   0  0  0  0  0  0  0  0  0  0  0  0
   -8.2588   19.5654   27.3487 O   0  0  0  0  0  0  0  0  0  0  0  0
   -2.8966   20.1516   32.9931 C   0  0  2  0  0  0  0  0  0  0  0  0
   -2.5369   21.1046   34.0204 N   0  0  0  0  0  0  0  0  0  0  0  0
   -4.2099   20.6182   32.2540 C   0  0  0  0  0  0  0  0  0  0  0  0
   -4.6244   19.5977   31.1363 C   0  0  2  0  0  0  0  0  0  0  0  0
   -5.8462   20.0621   30.4826 N   0  0  0  0  0  0  0  0  0  0  0  0
   -4.8767   18.1338   31.7121 C   0  0  2  0  0  0  0  0  0  0  0  0
   -3.5617   17.6729   32.4048 C   0  0  2  0  0  0  0  0  0  0  0  0
   -3.8804   16.2850   32.9098 O   0  0  0  0  0  0  0  0  0  0  0  0
   -3.1742   18.6988   33.6067 C   0  0  1  0  0  0  0  0  0  0  0  0
   -1.9201   18.3952   34.2975 O   0  0  0  0  0  0  0  0  0  0  0  0
   -2.9794   15.8798   33.8591 C   0  0  1  0  0  0  0  0  0  0  0  0
   -3.5580   15.7985   35.2044 C   0  0  2  0  0  0  0  0  0  0  0  0
   -3.7490   17.1016   35.6540 O   0  0  0  0  0  0  0  0  0  0  0  0
   -2.5409   14.8783   35.9126 C   0  0  2  0  0  0  0  0  0  0  0  0
   -1.9790   15.6404   37.0049 O   0  0  0  0  0  0  0  0  0  0  0  0
   -1.5289   14.5477   34.8655 C   0  0  2  0  0  0  0  0  0  0  0  0
   -2.4400   14.5770   33.7093 O   0  0  0  0  0  0  0  0  0  0  0  0
   -0.9381   13.1027   35.0586 C   0  0  0  0  0  0  0  0  0  0  0  0
   -0.2890   12.9033   36.3502 O   0  0  0  0  0  0  0  0  0  0  0  0
   -0.5698   16.0061   36.8988 C   0  0  2  0  0  0  0  0  0  0  0  0
    0.1406   15.7309   38.3249 C   0  0  2  0  0  0  0  0  0  0  0  0
   -0.5596   16.5254   39.3857 N   0  0  0  0  0  0  0  0  0  0  0  0
    1.6920   16.1323   38.1984 C   0  0  1  0  0  0  0  0  0  0  0  0
    2.2682   15.3091   37.1392 O   0  0  0  0  0  0  0  0  0  0  0  0
    1.8117   17.6841   37.8490 C   0  0  2  0  0  0  0  0  0  0  0  0
    1.2217   18.4488   38.9704 O   0  0  0  0  0  0  0  0  0  0  0  0
    1.0391   17.9482   36.4365 C   0  0  1  0  0  0  0  0  0  0  0  0
   -0.3960   17.4992   36.5530 O   0  0  0  0  0  0  0  0  0  0  0  0
    1.1216   19.4675   36.0707 C   0  0  0  0  0  0  0  0  0  0  0  0
    0.4727   19.7851   34.7611 N   0  0  0  0  0  0  0  0  0  0  0  0
  1  3  1  0  0  0  0
  1  2  1  6  0  0  0
  3  4  1  1  0  0  0
  3  5  1  0  0  0  0
  5  6  1  6  0  0  0
  7  8  1  6  0  0  0
  7  5  1  0  0  0  0
  9 11  1  6  0  0  0
  9  7  1  0  0  0  0
 10  9  1  0  0  0  0
 10  1  1  0  0  0  0
 12 11  1  0  0  0  0
 13 14  1  1  0  0  0
 15 13  1  0  0  0  0
 16 17  1  1  0  0  0
 16 15  1  0  0  0  0
 18  2  1  6  0  0  0
 18 19  1  0  0  0  0
 18 16  1  0  0  0  0
 19 20  1  1  0  0  0
 19 21  1  0  0  0  0
 21 22  1  6  0  0  0
 21 13  1  0  0  0  0
 23 20  1  6  0  0  0
 23 29  1  0  0  0  0
 24 25  1  1  0  0  0
 24 26  1  0  0  0  0
 24 23  1  0  0  0  0
 26 27  1  1  0  0  0
 26 28  1  0  0  0  0
 28 30  1  1  0  0  0
 29 28  1  0  0  0  0
 30 31  1  0  0  0  0
 32 27  1  1  0  0  0
 32 40  1  0  0  0  0
 33 35  1  0  0  0  0
 33 32  1  0  0  0  0
 33 34  1  1  0  0  0
 35 36  1  6  0  0  0
 35 37  1  0  0  0  0
 37 38  1  1  0  0  0
 37 39  1  0  0  0  0
 39 41  1  1  0  0  0
 40 39  1  0  0  0  0
 41 42  1  0  0  0  0
M  END
>  <CHROM.1>
-160.15455486,-63.00177432,-122.01716757,-162.87494519,110.33441291,-112.22102607
-58.97723426,-135.57137463,178.11508578,-3.11598964,17.08023850,33.30797045
3.04219087,-0.87461287,-0.01740743

>  <Name>
lig.pdb

>  <RI>
0

>  <Rbt.Current_Directory>
/home/itssahil/PROJECTS/Mol_Feturizer/New_Systems/rnas/4wcr

>  <Rbt.Executable>
rbdock ($Id: //depot/dev/client3/rdock/2013.1/src/exe/rbdock.cxx#4 $)

>  <Rbt.Library>
libRbt.so (2013.1, Build901 2013/11/27)

>  <Rbt.Parameter_File>
/export/apps/rDock/src/rDock_2013.1_src/data/scripts/dock_solv.prm

>  <Rbt.Receptor>
prm/blind_docking_60.prm

>  <SCORE>
-2.82746

>  <SCORE.INTER>
-16.4461

>  <SCORE.INTER.CONST>
1

>  <SCORE.INTER.POLAR>
0

>  <SCORE.INTER.ROT>
9

>  <SCORE.INTER.SOLV>
30.7874

>  <SCORE.INTER.VDW>
-30.8265

>  <SCORE.INTER.norm>
-0.391574

>  <SCORE.INTRA>
12.8122

>  <SCORE.INTRA.DIHEDRAL>
14.0731

>  <SCORE.INTRA.DIHEDRAL.0>
16.2863

>  <SCORE.INTRA.POLAR>
0

>  <SCORE.INTRA.POLAR.0>
0

>  <SCORE.INTRA.REPUL>
0.199733

>  <SCORE.INTRA.REPUL.0>
0.314433

>  <SCORE.INTRA.SOLV>
2.90173

>  <SCORE.INTRA.SOLV.lig_0>
-103.824

>  <SCORE.INTRA.VDW>
3.3261

>  <SCORE.INTRA.VDW.0>
-5.30945

>  <SCORE.INTRA.norm>
0.305052

>  <SCORE.RESTR>
0.806473

>  <SCORE.RESTR.CAVITY>
0.806473

>  <SCORE.RESTR.norm>
0.0192017

>  <SCORE.SYSTEM>
0

>  <SCORE.SYSTEM.CONST>
0

>  <SCORE.SYSTEM.DIHEDRAL>
0

>  <SCORE.SYSTEM.SOLV>
0

>  <SCORE.SYSTEM.norm>
0

>  <SCORE.heavy>
42

>  <SCORE.norm>
-0.0673204

>  <RMSD>
8.834

$$$$
lig.pdb
 OpenBabel11021811513D
libRbt.so/2013.1/901 2013/11/27
 42 45  0  0  0  0  0  0  0  0999 V2000
   -1.9000   16.1200   34.4015 C   0  0  2  0  0  0  0  0  0  0  0  0
   -2.7885   17.2196   34.7738 O   0  0  0  0  0  0  0  0  0  0  0  0
   -2.3599   14.8654   35.2701 C   0  0  2  0  0  0  0  0  0  0  0  0
   -3.7390   14.4959   34.9399 N   0  0  0  0  0  0  0  0  0  0  0  0
   -2.1830   15.2215   36.8263 C   0  0  1  0  0  0  0  0  0  0  0  0
   -2.5756   14.1125   37.6621 O   0  0  0  0  0  0  0  0  0  0  0  0
   -0.7071   15.5981   37.0414 C   0  0  2  0  0  0  0  0  0  0  0  0
   -0.5172   15.9146   38.3784 O   0  0  0  0  0  0  0  0  0  0  0  0
   -0.3180   16.8300   36.1037 C   0  0  2  0  0  0  0  0  0  0  0  0
   -0.5112   16.5117   34.7198 O   0  0  0  0  0  0  0  0  0  0  0  0
    1.1226   17.2261   36.2621 C   0  0  0  0  0  0  0  0  0  0  0  0
    1.3152   18.4495   35.5508 O   0  0  0  0  0  0  0  0  0  0  0  0
   -3.2193   21.6293   34.3975 C   0  0  2  0  0  0  0  0  0  0  0  0
   -2.8931   23.0225   34.1838 N   0  0  0  0  0  0  0  0  0  0  0  0
   -2.2942   21.0201   35.5208 C   0  0  0  0  0  0  0  0  0  0  0  0
   -2.6255   19.5064   35.7689 C   0  0  2  0  0  0  0  0  0  0  0  0
   -1.7439   18.9797   36.8087 N   0  0  0  0  0  0  0  0  0  0  0  0
   -2.4522   18.6223   34.4548 C   0  0  2  0  0  0  0  0  0  0  0  0
   -3.3978   19.2122   33.3688 C   0  0  2  0  0  0  0  0  0  0  0  0
   -3.1815   18.3184   32.1700 O   0  0  0  0  0  0  0  0  0  0  0  0
   -3.0050   20.7623   33.0683 C   0  0  1  0  0  0  0  0  0  0  0  0
   -3.8660   21.4405   32.0983 O   0  0  0  0  0  0  0  0  0  0  0  0
   -4.2987   18.2653   31.3785 C   0  0  1  0  0  0  0  0  0  0  0  0
   -5.4848   17.7759   32.0890 C   0  0  2  0  0  0  0  0  0  0  0  0
   -5.3158   16.4089   32.2873 O   0  0  0  0  0  0  0  0  0  0  0  0
   -6.6158   18.2894   31.1724 C   0  0  2  0  0  0  0  0  0  0  0  0
   -7.3309   17.1252   30.7002 O   0  0  0  0  0  0  0  0  0  0  0  0
   -5.9168   19.0169   30.0716 C   0  0  2  0  0  0  0  0  0  0  0  0
   -4.7724   19.4984   30.8630 O   0  0  0  0  0  0  0  0  0  0  0  0
   -6.7646   20.2318   29.5427 C   0  0  0  0  0  0  0  0  0  0  0  0
   -7.2895   21.0853   30.6034 O   0  0  0  0  0  0  0  0  0  0  0  0
   -6.8030   16.4635   29.5109 C   0  0  2  0  0  0  0  0  0  0  0  0
   -7.5103   17.1089   28.2081 C   0  0  2  0  0  0  0  0  0  0  0  0
   -8.9957   16.9435   28.3209 N   0  0  0  0  0  0  0  0  0  0  0  0
   -6.9211   16.3778   26.9033 C   0  0  1  0  0  0  0  0  0  0  0  0
   -5.4774   16.5954   26.8988 O   0  0  0  0  0  0  0  0  0  0  0  0
   -7.2671   14.8219   26.9653 C   0  0  2  0  0  0  0  0  0  0  0  0
   -8.7405   14.6836   26.9524 O   0  0  0  0  0  0  0  0  0  0  0  0
   -6.5925   14.2044   28.3165 C   0  0  1  0  0  0  0  0  0  0  0  0
   -7.1033   14.9506   29.5236 O   0  0  0  0  0  0  0  0  0  0  0  0
   -6.9274   12.6793   28.4189 C   0  0  0  0  0  0  0  0  0  0  0  0
   -6.6723   12.1195   29.7823 N   0  0  0  0  0  0  0  0  0  0  0  0
  1  3  1  0  0  0  0
  1  2  1  1  0  0  0
  3  4  1  1  0  0  0
  3  5  1  0  0  0  0
  5  6  1  1  0  0  0
  7  8  1  1  0  0  0
  7  5  1  0  0  0  0
  9 11  1  6  0  0  0
  9  7  1  0  0  0  0
 10  9  1  0  0  0  0
 10  1  1  0  0  0  0
 12 11  1  0  0  0  0
 13 14  1  6  0  0  0
 15 13  1  0  0  0  0
 16 17  1  1  0  0  0
 16 15  1  0  0  0  0
 18  2  1  1  0  0  0
 18 19  1  0  0  0  0
 18 16  1  0  0  0  0
 19 20  1  6  0  0  0
 19 21  1  0  0  0  0
 21 22  1  6  0  0  0
 21 13  1  0  0  0  0
 23 20  1  1  0  0  0
 23 29  1  0  0  0  0
 24 25  1  6  0  0  0
 24 26  1  0  0  0  0
 24 23  1  0  0  0  0
 26 27  1  6  0  0  0
 26 28  1  0  0  0  0
 28 30  1  1  0  0  0
 29 28  1  0  0  0  0
 30 31  1  0  0  0  0
 32 27  1  1  0  0  0
 32 40  1  0  0  0  0
 33 35  1  0  0  0  0
 33 32  1  0  0  0  0
 33 34  1  1  0  0  0
 35 36  1  1  0  0  0
 35 37  1  0  0  0  0
 37 38  1  1  0  0  0
 37 39  1  0  0  0  0
 39 41  1  1  0  0  0
 40 39  1  0  0  0  0
 41 42  1  0  0  0  0
M  END
>  <CHROM.1>
163.45130954,-171.13289280,-130.52799400,151.71558286,-58.63439789,-85.80809393
48.04223493,-90.98131083,-164.55671852,-4.20377565,17.37039425,32.43374752
-0.12578938,0.90697100,3.10345074

>  <Name>
lig.pdb

>  <RI>
0

>  <Rbt.Current_Directory>
/home/itssahil/PROJECTS/Mol_Feturizer/New_Systems/rnas/4wcr

>  <Rbt.Executable>
rbdock ($Id: //depot/dev/client3/rdock/2013.1/src/exe/rbdock.cxx#4 $)

>  <Rbt.Library>
libRbt.so (2013.1, Build901 2013/11/27)

>  <Rbt.Parameter_File>
/export/apps/rDock/src/rDock_2013.1_src/data/scripts/dock_solv.prm

>  <Rbt.Receptor>
prm/blind_docking_100.prm

>  <SCORE>
9.22285

>  <SCORE.INTER>
1.67051

>  <SCORE.INTER.CONST>
1

>  <SCORE.INTER.POLAR>
0

>  <SCORE.INTER.ROT>
9

>  <SCORE.INTER.SOLV>
32.0675

>  <SCORE.INTER.VDW>
-19.1755

>  <SCORE.INTER.norm>
0.0397741

>  <SCORE.INTRA>
3.57411

>  <SCORE.INTRA.DIHEDRAL>
3.55785

>  <SCORE.INTRA.DIHEDRAL.0>
16.2863

>  <SCORE.INTRA.POLAR>
0

>  <SCORE.INTRA.POLAR.0>
0

>  <SCORE.INTRA.REPUL>
-0.314433

>  <SCORE.INTRA.REPUL.0>
0.314433

>  <SCORE.INTRA.SOLV>
0.933805

>  <SCORE.INTRA.SOLV.lig_0>
-103.824

>  <SCORE.INTRA.VDW>
2.90045

>  <SCORE.INTRA.VDW.0>
-5.30945

>  <SCORE.INTRA.norm>
0.085098

>  <SCORE.RESTR>
3.97823

>  <SCORE.RESTR.CAVITY>
3.97823

>  <SCORE.RESTR.norm>
0.0947197

>  <SCORE.SYSTEM>
0

>  <SCORE.SYSTEM.CONST>
0

>  <SCORE.SYSTEM.DIHEDRAL>
0

>  <SCORE.SYSTEM.SOLV>
0

>  <SCORE.SYSTEM.norm>
0

>  <SCORE.heavy>
42

>  <SCORE.norm>
0.219592

>  <RMSD>
8.851

$$$$
lig.pdb
 OpenBabel11021811513D
libRbt.so/2013.1/901 2013/11/27
 42 45  0  0  0  0  0  0  0  0999 V2000
   -0.3846   11.7215   33.8421 C   0  0  2  0  0  0  0  0  0  0  0  0
   -0.8961   12.1985   35.1259 O   0  0  0  0  0  0  0  0  0  0  0  0
   -1.6363   11.1149   33.0642 C   0  0  2  0  0  0  0  0  0  0  0  0
   -2.6376   12.1568   32.8203 N   0  0  0  0  0  0  0  0  0  0  0  0
   -2.2303    9.8899   33.9165 C   0  0  1  0  0  0  0  0  0  0  0  0
   -3.3632    9.2933   33.2508 O   0  0  0  0  0  0  0  0  0  0  0  0
   -1.0896    8.8763   34.1112 C   0  0  2  0  0  0  0  0  0  0  0  0
   -1.5673    7.8022   34.8473 O   0  0  0  0  0  0  0  0  0  0  0  0
    0.1380    9.5753   34.8546 C   0  0  2  0  0  0  0  0  0  0  0  0
    0.6382   10.6867   34.1008 O   0  0  0  0  0  0  0  0  0  0  0  0
    1.2892    8.6305   35.0527 C   0  0  0  0  0  0  0  0  0  0  0  0
    0.8689    7.6244   35.9752 O   0  0  0  0  0  0  0  0  0  0  0  0
    0.8918   14.5065   38.4798 C   0  0  2  0  0  0  0  0  0  0  0  0
    1.6114   15.5307   39.2052 N   0  0  0  0  0  0  0  0  0  0  0  0
    1.8227   13.8622   37.3811 C   0  0  0  0  0  0  0  0  0  0  0  0
    1.0633   12.7496   36.5761 C   0  0  2  0  0  0  0  0  0  0  0  0
    1.9562   12.1848   35.5664 N   0  0  0  0  0  0  0  0  0  0  0  0
   -0.2417   13.3065   35.8513 C   0  0  2  0  0  0  0  0  0  0  0  0
   -1.1658   13.9046   36.9512 C   0  0  2  0  0  0  0  0  0  0  0  0
   -2.3731   14.3968   36.1877 O   0  0  0  0  0  0  0  0  0  0  0  0
   -0.3954   15.1030   37.7372 C   0  0  1  0  0  0  0  0  0  0  0  0
   -1.1511   15.7065   38.8358 O   0  0  0  0  0  0  0  0  0  0  0  0
   -3.4064   14.7061   37.0327 C   0  0  1  0  0  0  0  0  0  0  0  0
   -4.5032   15.4151   36.3652 C   0  0  2  0  0  0  0  0  0  0  0  0
   -4.0638   16.7097   36.1051 O   0  0  0  0  0  0  0  0  0  0  0  0
   -5.6613   15.1772   37.3578 C   0  0  2  0  0  0  0  0  0  0  0  0
   -6.0883   16.4786   37.8200 O   0  0  0  0  0  0  0  0  0  0  0  0
   -5.0670   14.3490   38.4490 C   0  0  2  0  0  0  0  0  0  0  0  0
   -4.0967   13.6153   37.6195 O   0  0  0  0  0  0  0  0  0  0  0  0
   -6.1179   13.3554   39.0676 C   0  0  0  0  0  0  0  0  0  0  0  0
   -6.6341   12.3800   38.1130 O   0  0  0  0  0  0  0  0  0  0  0  0
   -7.2825   16.5224   38.6585 C   0  0  2  0  0  0  0  0  0  0  0  0
   -7.7662   18.0602   38.7826 C   0  0  2  0  0  0  0  0  0  0  0  0
   -6.6534   18.8818   39.3599 N   0  0  0  0  0  0  0  0  0  0  0  0
   -9.0830   18.0992   39.7037 C   0  0  1  0  0  0  0  0  0  0  0  0
  -10.0911   17.2656   39.0552 O   0  0  0  0  0  0  0  0  0  0  0  0
   -8.7298   17.5465   41.1578 C   0  0  2  0  0  0  0  0  0  0  0  0
   -7.7175   18.4476   41.7524 O   0  0  0  0  0  0  0  0  0  0  0  0
   -8.1899   16.0148   41.0022 C   0  0  1  0  0  0  0  0  0  0  0  0
   -6.9984   15.9896   40.0779 O   0  0  0  0  0  0  0  0  0  0  0  0
   -7.8166   15.4456   42.4112 C   0  0  0  0  0  0  0  0  0  0  0  0
   -8.9942   15.3482   43.3283 N   0  0  0  0  0  0  0  0  0  0  0  0
  1  3  1  0  0  0  0
  1  2  1  1  0  0  0
  3  4  1  1  0  0  0
  3  5  1  0  0  0  0
  5  6  1  6  0  0  0
  7  8  1  1  0  0  0
  7  5  1  0  0  0  0
  9 11  1  6  0  0  0
  9  7  1  0  0  0  0
 10  9  1  0  0  0  0
 10  1  1  0  0  0  0
 12 11  1  0  0  0  0
 13 14  1  6  0  0  0
 15 13  1  0  0  0  0
 16 17  1  6  0  0  0
 16 15  1  0  0  0  0
 18  2  1  1  0  0  0
 18 19  1  0  0  0  0
 18 16  1  0  0  0  0
 19 20  1  6  0  0  0
 19 21  1  0  0  0  0
 21 22  1  1  0  0  0
 21 13  1  0  0  0  0
 23 20  1  6  0  0  0
 23 29  1  0  0  0  0
 24 25  1  1  0  0  0
 24 26  1  0  0  0  0
 24 23  1  0  0  0  0
 26 27  1  1  0  0  0
 26 28  1  0  0  0  0
 28 30  1  6  0  0  0
 29 28  1  0  0  0  0
 30 31  1  0  0  0  0
 32 27  1  6  0  0  0
 32 40  1  0  0  0  0
 33 35  1  0  0  0  0
 33 32  1  0  0  0  0
 33 34  1  1  0  0  0
 35 36  1  6  0  0  0
 35 37  1  0  0  0  0
 37 38  1  6  0  0  0
 37 39  1  0  0  0  0
 39 41  1  1  0  0  0
 40 39  1  0  0  0  0
 41 42  1  0  0  0  0
M  END
>  <CHROM.1>
-152.65523871,-66.83250788,-77.85230130,167.53965814,169.42546969,173.18729567
62.14031027,-167.47355171,63.49386254,-3.44323994,13.80129977,37.30526566
0.80943106,-0.09065410,-2.53144748

>  <Name>
lig.pdb

>  <RI>
0

>  <Rbt.Current_Directory>
/home/itssahil/PROJECTS/Mol_Feturizer/New_Systems/rnas/4wcr

>  <Rbt.Executable>
rbdock ($Id: //depot/dev/client3/rdock/2013.1/src/exe/rbdock.cxx#4 $)

>  <Rbt.Library>
libRbt.so (2013.1, Build901 2013/11/27)

>  <Rbt.Parameter_File>
/export/apps/rDock/src/rDock_2013.1_src/data/scripts/dock_solv.prm

>  <Rbt.Receptor>
prm/pocket_docking_7.prm

>  <SCORE>
-4.01676

>  <SCORE.INTER>
1.50214

>  <SCORE.INTER.CONST>
1

>  <SCORE.INTER.POLAR>
0

>  <SCORE.INTER.ROT>
9

>  <SCORE.INTER.SOLV>
16.4012

>  <SCORE.INTER.VDW>
-14.0656

>  <SCORE.INTER.norm>
0.0357653

>  <SCORE.INTRA>
-5.5189

>  <SCORE.INTRA.DIHEDRAL>
-8.72756

>  <SCORE.INTRA.DIHEDRAL.0>
16.2863

>  <SCORE.INTRA.POLAR>
0

>  <SCORE.INTRA.POLAR.0>
0

>  <SCORE.INTRA.REPUL>
-0.313177

>  <SCORE.INTRA.REPUL.0>
0.314433

>  <SCORE.INTRA.SOLV>
-2.26261

>  <SCORE.INTRA.SOLV.lig_0>
-103.824

>  <SCORE.INTRA.VDW>
1.54207

>  <SCORE.INTRA.VDW.0>
-5.30945

>  <SCORE.INTRA.norm>
-0.131402

>  <SCORE.RESTR>
0

>  <SCORE.RESTR.CAVITY>
0

>  <SCORE.RESTR.norm>
0

>  <SCORE.SYSTEM>
0

>  <SCORE.SYSTEM.CONST>
0

>  <SCORE.SYSTEM.DIHEDRAL>
0

>  <SCORE.SYSTEM.SOLV>
0

>  <SCORE.SYSTEM.norm>
0

>  <SCORE.heavy>
42

>  <SCORE.norm>
-0.0956371

>  <RMSD>
8.860

$$$$
lig.pdb
 OpenBabel11021811513D
libRbt.so/2013.1/901 2013/11/27
 42 45  0  0  0  0  0  0  0  0999 V2000
   -5.3901   16.8078   29.7833 C   0  0  2  0  0  0  0  0  0  0  0  0
   -6.1057   17.2416   30.9820 O   0  0  0  0  0  0  0  0  0  0  0  0
   -6.4801   16.7202   28.6239 C   0  0  2  0  0  0  0  0  0  0  0  0
   -7.0671   18.0401   28.3766 N   0  0  0  0  0  0  0  0  0  0  0  0
   -7.5868   15.6316   29.0362 C   0  0  1  0  0  0  0  0  0  0  0  0
   -8.5965   15.5024   28.0133 O   0  0  0  0  0  0  0  0  0  0  0  0
   -6.8498   14.3026   29.2755 C   0  0  2  0  0  0  0  0  0  0  0  0
   -7.7771   13.3364   29.6364 O   0  0  0  0  0  0  0  0  0  0  0  0
   -5.7485   14.4892   30.4159 C   0  0  2  0  0  0  0  0  0  0  0  0
   -4.7858   15.4862   30.0513 O   0  0  0  0  0  0  0  0  0  0  0  0
   -4.9851   13.2215   30.6753 C   0  0  0  0  0  0  0  0  0  0  0  0
   -4.3127   12.8667   29.4663 O   0  0  0  0  0  0  0  0  0  0  0  0
   -3.1931   20.0734   32.7904 C   0  0  2  0  0  0  0  0  0  0  0  0
   -2.5905   21.0162   33.7073 N   0  0  0  0  0  0  0  0  0  0  0  0
   -4.6159   20.5853   32.3406 C   0  0  0  0  0  0  0  0  0  0  0  0
   -5.2935   19.5767   31.3476 C   0  0  2  0  0  0  0  0  0  0  0  0
   -6.6089   20.0835   30.9620 N   0  0  0  0  0  0  0  0  0  0  0  0
   -5.4696   18.1252   31.9805 C   0  0  2  0  0  0  0  0  0  0  0  0
   -4.0547   17.6187   32.3844 C   0  0  2  0  0  0  0  0  0  0  0  0
   -4.3080   16.2454   32.9613 O   0  0  0  0  0  0  0  0  0  0  0  0
   -3.3855   18.6341   33.4654 C   0  0  1  0  0  0  0  0  0  0  0  0
   -2.0250   18.2869   33.8785 O   0  0  0  0  0  0  0  0  0  0  0  0
   -3.3275   15.8880   33.8491 C   0  0  1  0  0  0  0  0  0  0  0  0
   -3.8113   15.7838   35.2297 C   0  0  2  0  0  0  0  0  0  0  0  0
   -4.0353   17.0777   35.6904 O   0  0  0  0  0  0  0  0  0  0  0  0
   -2.7059   14.9166   35.8695 C   0  0  2  0  0  0  0  0  0  0  0  0
   -2.1109   15.7092   36.9218 O   0  0  0  0  0  0  0  0  0  0  0  0
   -1.7505   14.6317   34.7579 C   0  0  2  0  0  0  0  0  0  0  0  0
   -2.7364   14.6124   33.6645 O   0  0  0  0  0  0  0  0  0  0  0  0
   -1.0785   13.2179   34.9121 C   0  0  0  0  0  0  0  0  0  0  0  0
   -0.3776   13.0378   36.1792 O   0  0  0  0  0  0  0  0  0  0  0  0
   -0.6991   16.0499   36.7740 C   0  0  2  0  0  0  0  0  0  0  0  0
    0.0099   15.9394   38.2229 C   0  0  2  0  0  0  0  0  0  0  0  0
   -0.6842   16.8581   39.1825 N   0  0  0  0  0  0  0  0  0  0  0  0
    1.5640   16.3123   38.0507 C   0  0  1  0  0  0  0  0  0  0  0  0
    2.1340   15.3662   37.0959 O   0  0  0  0  0  0  0  0  0  0  0  0
    1.6945   17.8113   37.5212 C   0  0  2  0  0  0  0  0  0  0  0  0
    1.1104   18.7067   38.5446 O   0  0  0  0  0  0  0  0  0  0  0  0
    0.9232   17.9129   36.0871 C   0  0  1  0  0  0  0  0  0  0  0  0
   -0.5150   17.4907   36.2550 O   0  0  0  0  0  0  0  0  0  0  0  0
    1.0162   19.3779   35.5452 C   0  0  0  0  0  0  0  0  0  0  0  0
    0.3571   19.5469   34.2132 N   0  0  0  0  0  0  0  0  0  0  0  0
  1  3  1  0  0  0  0
  1  2  1  1  0  0  0
  3  4  1  1  0  0  0
  3  5  1  0  0  0  0
  5  6  1  6  0  0  0
  7  8  1  1  0  0  0
  7  5  1  0  0  0  0
  9 11  1  6  0  0  0
  9  7  1  0  0  0  0
 10  9  1  0  0  0  0
 10  1  1  0  0  0  0
 12 11  1  0  0  0  0
 13 14  1  1  0  0  0
 15 13  1  0  0  0  0
 16 17  1  1  0  0  0
 16 15  1  0  0  0  0
 18  2  1  6  0  0  0
 18 19  1  0  0  0  0
 18 16  1  0  0  0  0
 19 20  1  1  0  0  0
 19 21  1  0  0  0  0
 21 22  1  6  0  0  0
 21 13  1  0  0  0  0
 23 20  1  6  0  0  0
 23 29  1  0  0  0  0
 24 25  1  1  0  0  0
 24 26  1  0  0  0  0
 24 23  1  0  0  0  0
 26 27  1  1  0  0  0
 26 28  1  0  0  0  0
 28 30  1  1  0  0  0
 29 28  1  0  0  0  0
 30 31  1  0  0  0  0
 32 27  1  1  0  0  0
 32 40  1  0  0  0  0
 33 35  1  0  0  0  0
 33 32  1  0  0  0  0
 33 34  1  1  0  0  0
 35 36  1  6  0  0  0
 35 37  1  0  0  0  0
 37 38  1  1  0  0  0
 37 39  1  0  0  0  0
 39 41  1  1  0  0  0
 40 39  1  0  0  0  0
 41 42  1  0  0  0  0
M  END
>  <CHROM.1>
-145.31262092,61.42439238,69.84202427,-154.49536690,113.11448727,-117.09555912
-56.85993112,-140.41606819,178.68664960,-3.14711356,16.62774555,33.44939559
3.06916127,0.83015854,3.12363491

>  <Name>
lig.pdb

>  <RI>
0

>  <Rbt.Current_Directory>
/home/itssahil/PROJECTS/Mol_Feturizer/New_Systems/rnas/4wcr

>  <Rbt.Executable>
rbdock ($Id: //depot/dev/client3/rdock/2013.1/src/exe/rbdock.cxx#4 $)

>  <Rbt.Library>
libRbt.so (2013.1, Build901 2013/11/27)

>  <Rbt.Parameter_File>
/export/apps/rDock/src/rDock_2013.1_src/data/scripts/dock_solv.prm

>  <Rbt.Receptor>
prm/blind_docking_100.prm

>  <SCORE>
1.30855

>  <SCORE.INTER>
-9.58798

>  <SCORE.INTER.CONST>
1

>  <SCORE.INTER.POLAR>
0

>  <SCORE.INTER.ROT>
9

>  <SCORE.INTER.SOLV>
34.832

>  <SCORE.INTER.VDW>
-27.6026

>  <SCORE.INTER.norm>
-0.228285

>  <SCORE.INTRA>
10.1339

>  <SCORE.INTRA.DIHEDRAL>
11.1974

>  <SCORE.INTRA.DIHEDRAL.0>
16.2863

>  <SCORE.INTRA.POLAR>
0

>  <SCORE.INTRA.POLAR.0>
0

>  <SCORE.INTRA.REPUL>
0.0763015

>  <SCORE.INTRA.REPUL.0>
0.314433

>  <SCORE.INTRA.SOLV>
2.40483

>  <SCORE.INTRA.SOLV.lig_0>
-103.824

>  <SCORE.INTRA.VDW>
2.95123

>  <SCORE.INTRA.VDW.0>
-5.30945

>  <SCORE.INTRA.norm>
0.241283

>  <SCORE.RESTR>
0.762661

>  <SCORE.RESTR.CAVITY>
0.762661

>  <SCORE.RESTR.norm>
0.0181586

>  <SCORE.SYSTEM>
0

>  <SCORE.SYSTEM.CONST>
0

>  <SCORE.SYSTEM.DIHEDRAL>
0

>  <SCORE.SYSTEM.SOLV>
0

>  <SCORE.SYSTEM.norm>
0

>  <SCORE.heavy>
42

>  <SCORE.norm>
0.031156

>  <RMSD>
8.875

$$$$
lig.pdb
 OpenBabel11021811513D
libRbt.so/2013.1/901 2013/11/27
 42 45  0  0  0  0  0  0  0  0999 V2000
   -1.6762    7.9599   38.7735 C   0  0  2  0  0  0  0  0  0  0  0  0
   -1.8883    9.3986   38.6242 O   0  0  0  0  0  0  0  0  0  0  0  0
   -0.7370    7.7805   40.0486 C   0  0  2  0  0  0  0  0  0  0  0  0
   -1.4057    8.2902   41.2489 N   0  0  0  0  0  0  0  0  0  0  0  0
    0.6597    8.5232   39.7703 C   0  0  1  0  0  0  0  0  0  0  0  0
    1.5566    8.3829   40.8921 O   0  0  0  0  0  0  0  0  0  0  0  0
    1.2534    7.9100   38.4904 C   0  0  2  0  0  0  0  0  0  0  0  0
    2.4633    8.5307   38.2175 O   0  0  0  0  0  0  0  0  0  0  0  0
    0.2331    8.0922   37.2763 C   0  0  2  0  0  0  0  0  0  0  0  0
   -1.0204    7.4538   37.5498 O   0  0  0  0  0  0  0  0  0  0  0  0
    0.7586    7.4918   36.0033 C   0  0  0  0  0  0  0  0  0  0  0  0
    0.9930    6.1038   36.2445 O   0  0  0  0  0  0  0  0  0  0  0  0
   -5.2831    9.4797   35.7535 C   0  0  2  0  0  0  0  0  0  0  0  0
   -6.3516    9.9726   34.9119 N   0  0  0  0  0  0  0  0  0  0  0  0
   -5.4961    9.9606   37.2408 C   0  0  0  0  0  0  0  0  0  0  0  0
   -4.3463    9.4420   38.1744 C   0  0  2  0  0  0  0  0  0  0  0  0
   -4.5769    9.9143   39.5381 N   0  0  0  0  0  0  0  0  0  0  0  0
   -2.9076    9.9342   37.6988 C   0  0  2  0  0  0  0  0  0  0  0  0
   -2.6970    9.4207   36.2450 C   0  0  2  0  0  0  0  0  0  0  0  0
   -1.3184    9.9175   35.8769 O   0  0  0  0  0  0  0  0  0  0  0  0
   -3.8544   10.0167   35.2689 C   0  0  1  0  0  0  0  0  0  0  0  0
   -3.7899    9.5554   33.8814 O   0  0  0  0  0  0  0  0  0  0  0  0
   -1.2251   11.2778   36.0119 C   0  0  1  0  0  0  0  0  0  0  0  0
    0.1090   11.7976   35.6938 C   0  0  2  0  0  0  0  0  0  0  0  0
    0.9558   11.4351   36.7370 O   0  0  0  0  0  0  0  0  0  0  0  0
   -0.2040   13.2869   35.4349 C   0  0  2  0  0  0  0  0  0  0  0  0
    0.5443   14.0461   36.4113 O   0  0  0  0  0  0  0  0  0  0  0  0
   -1.6801   13.4073   35.6255 C   0  0  2  0  0  0  0  0  0  0  0  0
   -2.0399   12.0596   35.1543 O   0  0  0  0  0  0  0  0  0  0  0  0
   -2.3045   14.5003   34.6822 C   0  0  0  0  0  0  0  0  0  0  0  0
   -3.7350   14.7025   34.8870 O   0  0  0  0  0  0  0  0  0  0  0  0
    0.4195   15.4995   36.3544 C   0  0  2  0  0  0  0  0  0  0  0  0
    1.6083   16.1515   37.2352 C   0  0  2  0  0  0  0  0  0  0  0  0
    1.5158   15.6420   38.6418 N   0  0  0  0  0  0  0  0  0  0  0  0
    1.4659   17.7511   37.1643 C   0  0  1  0  0  0  0  0  0  0  0  0
    1.5620   18.1333   35.7585 O   0  0  0  0  0  0  0  0  0  0  0  0
    0.0618   18.1867   37.7831 C   0  0  2  0  0  0  0  0  0  0  0  0
    0.0467   17.7794   39.2059 O   0  0  0  0  0  0  0  0  0  0  0  0
   -1.1202   17.4716   36.9150 C   0  0  1  0  0  0  0  0  0  0  0  0
   -0.9281   15.9758   36.9344 O   0  0  0  0  0  0  0  0  0  0  0  0
   -2.5147   17.8640   37.5066 C   0  0  0  0  0  0  0  0  0  0  0  0
   -2.8452   19.3087   37.3044 N   0  0  0  0  0  0  0  0  0  0  0  0
  1  3  1  0  0  0  0
  1  2  1  6  0  0  0
  3  4  1  1  0  0  0
  3  5  1  0  0  0  0
  5  6  1  1  0  0  0
  7  8  1  6  0  0  0
  7  5  1  0  0  0  0
  9 11  1  6  0  0  0
  9  7  1  0  0  0  0
 10  9  1  0  0  0  0
 10  1  1  0  0  0  0
 12 11  1  0  0  0  0
 13 14  1  6  0  0  0
 15 13  1  0  0  0  0
 16 17  1  1  0  0  0
 16 15  1  0  0  0  0
 18  2  1  1  0  0  0
 18 19  1  0  0  0  0
 18 16  1  0  0  0  0
 19 20  1  6  0  0  0
 19 21  1  0  0  0  0
 21 22  1  6  0  0  0
 21 13  1  0  0  0  0
 23 20  1  6  0  0  0
 23 29  1  0  0  0  0
 24 25  1  1  0  0  0
 24 26  1  0  0  0  0
 24 23  1  0  0  0  0
 26 27  1  1  0  0  0
 26 28  1  0  0  0  0
 28 30  1  6  0  0  0
 29 28  1  0  0  0  0
 30 31  1  0  0  0  0
 32 27  1  1  0  0  0
 32 40  1  0  0  0  0
 33 35  1  0  0  0  0
 33 32  1  0  0  0  0
 33 34  1  1  0  0  0
 35 36  1  6  0  0  0
 35 37  1  0  0  0  0
 37 38  1  1  0  0  0
 37 39  1  0  0  0  0
 39 41  1  1  0  0  0
 40 39  1  0  0  0  0
 41 42  1  0  0  0  0
M  END
>  <CHROM.1>
-168.60470840,58.78407993,62.54691516,-56.48419447,178.65381244,179.31310980
-176.84839627,-164.96373370,68.30451362,-1.15539170,11.89432232,37.11121506
-1.67793516,-0.43890139,-0.14067723

>  <Name>
lig.pdb

>  <RI>
0

>  <Rbt.Current_Directory>
/home/itssahil/PROJECTS/Mol_Feturizer/New_Systems/rnas/4wcr

>  <Rbt.Executable>
rbdock ($Id: //depot/dev/client3/rdock/2013.1/src/exe/rbdock.cxx#4 $)

>  <Rbt.Library>
libRbt.so (2013.1, Build901 2013/11/27)

>  <Rbt.Parameter_File>
/export/apps/rDock/src/rDock_2013.1_src/data/scripts/dock_solv.prm

>  <Rbt.Receptor>
prm/pocket_docking_5.prm

>  <SCORE>
-9.08866

>  <SCORE.INTER>
-1.11347

>  <SCORE.INTER.CONST>
1

>  <SCORE.INTER.POLAR>
0

>  <SCORE.INTER.ROT>
9

>  <SCORE.INTER.SOLV>
20.7957

>  <SCORE.INTER.VDW>
-17.2742

>  <SCORE.INTER.norm>
-0.0265113

>  <SCORE.INTRA>
-7.97519

>  <SCORE.INTRA.DIHEDRAL>
-13.6869

>  <SCORE.INTRA.DIHEDRAL.0>
16.2863

>  <SCORE.INTRA.POLAR>
0

>  <SCORE.INTRA.POLAR.0>
0

>  <SCORE.INTRA.REPUL>
-0.314433

>  <SCORE.INTRA.REPUL.0>
0.314433

>  <SCORE.INTRA.SOLV>
-3.63576

>  <SCORE.INTRA.SOLV.lig_0>
-103.824

>  <SCORE.INTRA.VDW>
2.25832

>  <SCORE.INTRA.VDW.0>
-5.30945

>  <SCORE.INTRA.norm>
-0.189885

>  <SCORE.RESTR>
0

>  <SCORE.RESTR.CAVITY>
0

>  <SCORE.RESTR.norm>
0

>  <SCORE.SYSTEM>
0

>  <SCORE.SYSTEM.CONST>
0

>  <SCORE.SYSTEM.DIHEDRAL>
0

>  <SCORE.SYSTEM.SOLV>
0

>  <SCORE.SYSTEM.norm>
0

>  <SCORE.heavy>
42

>  <SCORE.norm>
-0.216397

>  <RMSD>
8.889

$$$$
lig.pdb
 OpenBabel11021811513D
libRbt.so/2013.1/901 2013/11/27
 42 45  0  0  0  0  0  0  0  0999 V2000
   -1.2240   18.8539   34.1993 C   0  0  2  0  0  0  0  0  0  0  0  0
   -1.7778   18.5906   35.5264 O   0  0  0  0  0  0  0  0  0  0  0  0
   -0.0608   19.9231   34.4088 C   0  0  2  0  0  0  0  0  0  0  0  0
    0.9929   19.3679   35.2629 N   0  0  0  0  0  0  0  0  0  0  0  0
   -0.6961   21.2643   35.0231 C   0  0  1  0  0  0  0  0  0  0  0  0
    0.3145   22.2747   35.2237 O   0  0  0  0  0  0  0  0  0  0  0  0
   -1.7860   21.7394   34.0469 C   0  0  2  0  0  0  0  0  0  0  0  0
   -2.3597   22.8985   34.5477 O   0  0  0  0  0  0  0  0  0  0  0  0
   -2.8837   20.5957   33.8590 C   0  0  2  0  0  0  0  0  0  0  0  0
   -2.2995   19.3937   33.3417 O   0  0  0  0  0  0  0  0  0  0  0  0
   -3.9638   21.0034   32.8975 C   0  0  0  0  0  0  0  0  0  0  0  0
   -3.3842   21.0558   31.5933 O   0  0  0  0  0  0  0  0  0  0  0  0
   -4.0198   14.9229   36.6640 C   0  0  2  0  0  0  0  0  0  0  0  0
   -5.1159   14.0229   36.9497 N   0  0  0  0  0  0  0  0  0  0  0  0
   -4.1443   16.2277   37.5419 C   0  0  0  0  0  0  0  0  0  0  0  0
   -2.9680   17.2237   37.2472 C   0  0  2  0  0  0  0  0  0  0  0  0
   -3.1243   18.4190   38.0734 N   0  0  0  0  0  0  0  0  0  0  0  0
   -2.9118   17.6632   35.7168 C   0  0  2  0  0  0  0  0  0  0  0  0
   -2.7513   16.3697   34.8666 C   0  0  2  0  0  0  0  0  0  0  0  0
   -2.6967   16.8716   33.4426 O   0  0  0  0  0  0  0  0  0  0  0  0
   -4.0091   15.3708   35.1266 C   0  0  1  0  0  0  0  0  0  0  0  0
   -3.9385   14.0918   34.4184 O   0  0  0  0  0  0  0  0  0  0  0  0
   -3.7454   16.3912   32.7031 C   0  0  1  0  0  0  0  0  0  0  0  0
   -4.1790   17.3163   31.6508 C   0  0  2  0  0  0  0  0  0  0  0  0
   -4.8399   18.3719   32.2718 O   0  0  0  0  0  0  0  0  0  0  0  0
   -4.9536   16.3634   30.7152 C   0  0  2  0  0  0  0  0  0  0  0  0
   -6.3170   16.8416   30.6688 O   0  0  0  0  0  0  0  0  0  0  0  0
   -4.8400   15.0199   31.3569 C   0  0  2  0  0  0  0  0  0  0  0  0
   -3.5081   15.2104   31.9549 O   0  0  0  0  0  0  0  0  0  0  0  0
   -4.7996   13.8640   30.2907 C   0  0  0  0  0  0  0  0  0  0  0  0
   -4.8906   12.5285   30.8714 O   0  0  0  0  0  0  0  0  0  0  0  0
   -7.0249   16.6963   29.4005 C   0  0  2  0  0  0  0  0  0  0  0  0
   -6.2836   17.6098   28.2914 C   0  0  2  0  0  0  0  0  0  0  0  0
   -6.2678   19.0344   28.7569 N   0  0  0  0  0  0  0  0  0  0  0  0
   -7.0667   17.4411   26.8977 C   0  0  1  0  0  0  0  0  0  0  0  0
   -7.0268   16.0246   26.5463 O   0  0  0  0  0  0  0  0  0  0  0  0
   -8.5693   17.9483   27.0687 C   0  0  2  0  0  0  0  0  0  0  0  0
   -8.5266   19.3880   27.4088 O   0  0  0  0  0  0  0  0  0  0  0  0
   -9.2794   17.0513   28.2320 C   0  0  1  0  0  0  0  0  0  0  0  0
   -8.4899   17.1659   29.5119 O   0  0  0  0  0  0  0  0  0  0  0  0
  -10.7533   17.5344   28.4390 C   0  0  0  0  0  0  0  0  0  0  0  0
  -10.8369   18.9162   29.0054 N   0  0  0  0  0  0  0  0  0  0  0  0
  1  3  1  0  0  0  0
  1  2  1  1  0  0  0
  3  4  1  1  0  0  0
  3  5  1  0  0  0  0
  5  6  1  6  0  0  0
  7  8  1  1  0  0  0
  7  5  1  0  0  0  0
  9 11  1  6  0  0  0
  9  7  1  0  0  0  0
 10  9  1  0  0  0  0
 10  1  1  0  0  0  0
 12 11  1  0  0  0  0
 13 14  1  6  0  0  0
 15 13  1  0  0  0  0
 16 17  1  1  0  0  0
 16 15  1  0  0  0  0
 18  2  1  1  0  0  0
 18 19  1  0  0  0  0
 18 16  1  0  0  0  0
 19 20  1  6  0  0  0
 19 21  1  0  0  0  0
 21 22  1  6  0  0  0
 21 13  1  0  0  0  0
 23 20  1  6  0  0  0
 23 29  1  0  0  0  0
 24 25  1  1  0  0  0
 24 26  1  0  0  0  0
 24 23  1  0  0  0  0
 26 27  1  1  0  0  0
 26 28  1  0  0  0  0
 28 30  1  6  0  0  0
 29 28  1  0  0  0  0
 30 31  1  0  0  0  0
 32 27  1  1  0  0  0
 32 40  1  0  0  0  0
 33 35  1  0  0  0  0
 33 32  1  0  0  0  0
 33 34  1  1  0  0  0
 35 36  1  1  0  0  0
 35 37  1  0  0  0  0
 37 38  1  1  0  0  0
 37 39  1  0  0  0  0
 39 41  1  1  0  0  0
 40 39  1  0  0  0  0
 41 42  1  0  0  0  0
M  END
>  <CHROM.1>
178.41713743,69.35550744,161.58818640,-117.62952585,148.72113503,145.15823171
-171.33777989,-64.27756492,-66.71053613,-4.45291139,17.74478331,32.40455478
-0.15499771,-0.86325618,-0.45815369

>  <Name>
lig.pdb

>  <RI>
0

>  <Rbt.Current_Directory>
/home/itssahil/PROJECTS/Mol_Feturizer/New_Systems/rnas/4wcr

>  <Rbt.Executable>
rbdock ($Id: //depot/dev/client3/rdock/2013.1/src/exe/rbdock.cxx#4 $)

>  <Rbt.Library>
libRbt.so (2013.1, Build901 2013/11/27)

>  <Rbt.Parameter_File>
/export/apps/rDock/src/rDock_2013.1_src/data/scripts/dock_solv.prm

>  <Rbt.Receptor>
prm/blind_docking_100.prm

>  <SCORE>
4.54582

>  <SCORE.INTER>
-4.01957

>  <SCORE.INTER.CONST>
1

>  <SCORE.INTER.POLAR>
0

>  <SCORE.INTER.ROT>
9

>  <SCORE.INTER.SOLV>
29.3743

>  <SCORE.INTER.VDW>
-22.0711

>  <SCORE.INTER.norm>
-0.0957041

>  <SCORE.INTRA>
2.98734

>  <SCORE.INTRA.DIHEDRAL>
1.93929

>  <SCORE.INTRA.DIHEDRAL.0>
16.2863

>  <SCORE.INTRA.POLAR>
0

>  <SCORE.INTRA.POLAR.0>
0

>  <SCORE.INTRA.REPUL>
-0.314433

>  <SCORE.INTRA.REPUL.0>
0.314433

>  <SCORE.INTRA.SOLV>
-2.04804

>  <SCORE.INTRA.SOLV.lig_0>
-103.824

>  <SCORE.INTRA.VDW>
4.61388

>  <SCORE.INTRA.VDW.0>
-5.30945

>  <SCORE.INTRA.norm>
0.0711271

>  <SCORE.RESTR>
5.57805

>  <SCORE.RESTR.CAVITY>
5.57805

>  <SCORE.RESTR.norm>
0.132811

>  <SCORE.SYSTEM>
0

>  <SCORE.SYSTEM.CONST>
0

>  <SCORE.SYSTEM.DIHEDRAL>
0

>  <SCORE.SYSTEM.SOLV>
0

>  <SCORE.SYSTEM.norm>
0

>  <SCORE.heavy>
42

>  <SCORE.norm>
0.108234

>  <RMSD>
8.900

$$$$
lig.pdb
 OpenBabel11021811513D
libRbt.so/2013.1/901 2013/11/27
 42 45  0  0  0  0  0  0  0  0999 V2000
   -2.5237    8.5055   35.7562 C   0  0  2  0  0  0  0  0  0  0  0  0
   -2.1227    9.8599   36.1326 O   0  0  0  0  0  0  0  0  0  0  0  0
   -1.5681    8.0784   34.5544 C   0  0  2  0  0  0  0  0  0  0  0  0
   -0.1715    8.0555   34.9981 N   0  0  0  0  0  0  0  0  0  0  0  0
   -1.7983    9.0885   33.3270 C   0  0  1  0  0  0  0  0  0  0  0  0
   -0.9632    8.7407   32.2026 O   0  0  0  0  0  0  0  0  0  0  0  0
   -3.2918    9.0286   32.9631 C   0  0  2  0  0  0  0  0  0  0  0  0
   -3.5286    9.8928   31.9045 O   0  0  0  0  0  0  0  0  0  0  0  0
   -4.1767    9.4253   34.2312 C   0  0  2  0  0  0  0  0  0  0  0  0
   -3.9384    8.5372   35.3303 O   0  0  0  0  0  0  0  0  0  0  0  0
   -5.6480    9.3639   33.9333 C   0  0  0  0  0  0  0  0  0  0  0  0
   -5.9350   10.3718   32.9630 O   0  0  0  0  0  0  0  0  0  0  0  0
   -4.5753   10.4930   39.7873 C   0  0  2  0  0  0  0  0  0  0  0  0
   -5.0859   11.0783   41.0078 N   0  0  0  0  0  0  0  0  0  0  0  0
   -3.0231   10.2404   39.9129 C   0  0  0  0  0  0  0  0  0  0  0  0
   -2.4433    9.6090   38.5985 C   0  0  2  0  0  0  0  0  0  0  0  0
   -1.0055    9.3982   38.7535 N   0  0  0  0  0  0  0  0  0  0  0  0
   -2.6910   10.5284   37.3211 C   0  0  2  0  0  0  0  0  0  0  0  0
   -4.2274   10.7375   37.1888 C   0  0  2  0  0  0  0  0  0  0  0  0
   -4.3749   11.6032   35.9594 O   0  0  0  0  0  0  0  0  0  0  0  0
   -4.8110   11.4538   38.5281 C   0  0  1  0  0  0  0  0  0  0  0  0
   -6.2611   11.6520   38.5403 O   0  0  0  0  0  0  0  0  0  0  0  0
   -3.8844   12.8643   36.1747 C   0  0  1  0  0  0  0  0  0  0  0  0
   -3.6020   13.5918   34.9328 C   0  0  2  0  0  0  0  0  0  0  0  0
   -2.4610   13.0272   34.3707 O   0  0  0  0  0  0  0  0  0  0  0  0
   -3.5729   15.0496   35.4400 C   0  0  2  0  0  0  0  0  0  0  0  0
   -2.2478   15.5592   35.1682 O   0  0  0  0  0  0  0  0  0  0  0  0
   -3.8600   14.9526   36.9021 C   0  0  2  0  0  0  0  0  0  0  0  0
   -4.7420   13.7753   36.8418 O   0  0  0  0  0  0  0  0  0  0  0  0
   -4.6554   16.2044   37.4263 C   0  0  0  0  0  0  0  0  0  0  0  0
   -4.8528   16.2093   38.8720 O   0  0  0  0  0  0  0  0  0  0  0  0
   -1.9872   16.9486   35.5325 C   0  0  2  0  0  0  0  0  0  0  0  0
   -2.9174   17.9024   34.6164 C   0  0  2  0  0  0  0  0  0  0  0  0
   -2.6168   17.6428   33.1711 N   0  0  0  0  0  0  0  0  0  0  0  0
   -2.6272   19.4295   35.0261 C   0  0  1  0  0  0  0  0  0  0  0  0
   -2.9443   19.5658   36.4447 O   0  0  0  0  0  0  0  0  0  0  0  0
   -1.0951   19.7724   34.7446 C   0  0  2  0  0  0  0  0  0  0  0  0
   -0.8567   19.6258   33.2914 O   0  0  0  0  0  0  0  0  0  0  0  0
   -0.1757   18.7604   35.6348 C   0  0  1  0  0  0  0  0  0  0  0  0
   -0.5134   17.3321   35.2873 O   0  0  0  0  0  0  0  0  0  0  0  0
    1.3375   19.0576   35.3694 C   0  0  0  0  0  0  0  0  0  0  0  0
    1.7211   20.4629   35.7087 N   0  0  0  0  0  0  0  0  0  0  0  0
  1  3  1  0  0  0  0
  1  2  1  6  0  0  0
  3  4  1  1  0  0  0
  3  5  1  0  0  0  0
  5  6  1  6  0  0  0
  7  8  1  6  0  0  0
  7  5  1  0  0  0  0
  9 11  1  6  0  0  0
  9  7  1  0  0  0  0
 10  9  1  0  0  0  0
 10  1  1  0  0  0  0
 12 11  1  0  0  0  0
 13 14  1  1  0  0  0
 15 13  1  0  0  0  0
 16 17  1  1  0  0  0
 16 15  1  0  0  0  0
 18  2  1  6  0  0  0
 18 19  1  0  0  0  0
 18 16  1  0  0  0  0
 19 20  1  6  0  0  0
 19 21  1  0  0  0  0
 21 22  1  6  0  0  0
 21 13  1  0  0  0  0
 23 20  1  6  0  0  0
 23 29  1  0  0  0  0
 24 25  1  1  0  0  0
 24 26  1  0  0  0  0
 24 23  1  0  0  0  0
 26 27  1  1  0  0  0
 26 28  1  0  0  0  0
 28 30  1  6  0  0  0
 29 28  1  0  0  0  0
 30 31  1  0  0  0  0
 32 27  1  6  0  0  0
 32 40  1  0  0  0  0
 33 35  1  0  0  0  0
 33 32  1  0  0  0  0
 33 34  1  6  0  0  0
 35 36  1  1  0  0  0
 35 37  1  0  0  0  0
 37 38  1  6  0  0  0
 37 39  1  0  0  0  0
 39 41  1  6  0  0  0
 40 39  1  0  0  0  0
 41 42  1  0  0  0  0
M  END
>  <CHROM.1>
-172.97080055,-65.48747016,55.75995237,-68.46518699,161.31260081,178.43462827
-174.79328162,-65.07152374,59.23032778,-2.89058694,13.18915487,35.80133844
-2.03016467,1.09778416,0.36125853

>  <Name>
lig.pdb

>  <RI>
0

>  <Rbt.Current_Directory>
/home/itssahil/PROJECTS/Mol_Feturizer/New_Systems/rnas/4wcr

>  <Rbt.Executable>
rbdock ($Id: //depot/dev/client3/rdock/2013.1/src/exe/rbdock.cxx#4 $)

>  <Rbt.Library>
libRbt.so (2013.1, Build901 2013/11/27)

>  <Rbt.Parameter_File>
/export/apps/rDock/src/rDock_2013.1_src/data/scripts/dock_solv.prm

>  <Rbt.Receptor>
prm/pocket_docking_4.prm

>  <SCORE>
-7.15406

>  <SCORE.INTER>
1.01177

>  <SCORE.INTER.CONST>
1

>  <SCORE.INTER.POLAR>
0

>  <SCORE.INTER.ROT>
9

>  <SCORE.INTER.SOLV>
16.3706

>  <SCORE.INTER.VDW>
-14.3824

>  <SCORE.INTER.norm>
0.0240898

>  <SCORE.INTRA>
-8.1813

>  <SCORE.INTRA.DIHEDRAL>
-13.176

>  <SCORE.INTRA.DIHEDRAL.0>
16.2863

>  <SCORE.INTRA.POLAR>
0

>  <SCORE.INTRA.POLAR.0>
0

>  <SCORE.INTRA.REPUL>
-0.314433

>  <SCORE.INTRA.REPUL.0>
0.314433

>  <SCORE.INTRA.SOLV>
-3.54343

>  <SCORE.INTRA.SOLV.lig_0>
-103.824

>  <SCORE.INTRA.VDW>
1.75057

>  <SCORE.INTRA.VDW.0>
-5.30945

>  <SCORE.INTRA.norm>
-0.194793

>  <SCORE.RESTR>
0.0154668

>  <SCORE.RESTR.CAVITY>
0.0154668

>  <SCORE.RESTR.norm>
0.000368256

>  <SCORE.SYSTEM>
0

>  <SCORE.SYSTEM.CONST>
0

>  <SCORE.SYSTEM.DIHEDRAL>
0

>  <SCORE.SYSTEM.SOLV>
0

>  <SCORE.SYSTEM.norm>
0

>  <SCORE.heavy>
42

>  <SCORE.norm>
-0.170335

>  <RMSD>
8.900

$$$$
lig.pdb
 OpenBabel11021811513D
libRbt.so/2013.1/901 2013/11/27
 42 45  0  0  0  0  0  0  0  0999 V2000
   -0.7819   19.2987   34.1419 C   0  0  2  0  0  0  0  0  0  0  0  0
   -1.8366   19.4396   35.1443 O   0  0  0  0  0  0  0  0  0  0  0  0
    0.4058   18.5116   34.8560 C   0  0  2  0  0  0  0  0  0  0  0  0
   -0.0421   17.1780   35.2666 N   0  0  0  0  0  0  0  0  0  0  0  0
    0.9309   19.3844   36.0979 C   0  0  1  0  0  0  0  0  0  0  0  0
    2.0184   18.7220   36.7770 O   0  0  0  0  0  0  0  0  0  0  0  0
    1.3602   20.7531   35.5422 C   0  0  2  0  0  0  0  0  0  0  0  0
    1.8192   21.5367   36.5905 O   0  0  0  0  0  0  0  0  0  0  0  0
    0.1282   21.4517   34.8058 C   0  0  2  0  0  0  0  0  0  0  0  0
   -0.3528   20.6486   33.7207 O   0  0  0  0  0  0  0  0  0  0  0  0
    0.5009   22.7871   34.2269 C   0  0  0  0  0  0  0  0  0  0  0  0
    0.9404   23.6171   35.3028 O   0  0  0  0  0  0  0  0  0  0  0  0
   -3.3157   15.3552   36.0944 C   0  0  2  0  0  0  0  0  0  0  0  0
   -4.2008   14.2725   36.4650 N   0  0  0  0  0  0  0  0  0  0  0  0
   -3.3388   16.4797   37.2006 C   0  0  0  0  0  0  0  0  0  0  0  0
   -2.3888   17.6692   36.8197 C   0  0  2  0  0  0  0  0  0  0  0  0
   -2.4447   18.6898   37.8642 N   0  0  0  0  0  0  0  0  0  0  0  0
   -2.7803   18.3390   35.4282 C   0  0  2  0  0  0  0  0  0  0  0  0
   -2.7167   17.2266   34.3418 C   0  0  2  0  0  0  0  0  0  0  0  0
   -3.0883   17.9411   33.0635 O   0  0  0  0  0  0  0  0  0  0  0  0
   -3.7536   16.0276   34.7087 C   0  0  1  0  0  0  0  0  0  0  0  0
   -3.7405   14.8949   33.7819 O   0  0  0  0  0  0  0  0  0  0  0  0
   -4.1042   17.2964   32.4081 C   0  0  1  0  0  0  0  0  0  0  0  0
   -4.6346   18.0613   31.2746 C   0  0  2  0  0  0  0  0  0  0  0  0
   -5.3734   19.1190   31.7963 O   0  0  0  0  0  0  0  0  0  0  0  0
   -5.3401   16.9503   30.4677 C   0  0  2  0  0  0  0  0  0  0  0  0
   -6.7404   17.3042   30.4068 O   0  0  0  0  0  0  0  0  0  0  0  0
   -5.0995   15.6992   31.2465 C   0  0  2  0  0  0  0  0  0  0  0  0
   -3.7788   16.0651   31.7848 O   0  0  0  0  0  0  0  0  0  0  0  0
   -4.9779   14.4413   30.3098 C   0  0  0  0  0  0  0  0  0  0  0  0
   -4.9906   13.1720   31.0294 O   0  0  0  0  0  0  0  0  0  0  0  0
   -7.5339   16.6802   29.3524 C   0  0  2  0  0  0  0  0  0  0  0  0
   -6.6810   16.7155   27.9792 C   0  0  2  0  0  0  0  0  0  0  0  0
   -6.3392   18.1368   27.6479 N   0  0  0  0  0  0  0  0  0  0  0  0
   -7.5599   16.0235   26.8248 C   0  0  1  0  0  0  0  0  0  0  0  0
   -7.8393   14.6560   27.2531 O   0  0  0  0  0  0  0  0  0  0  0  0
   -8.9099   16.8481   26.6195 C   0  0  2  0  0  0  0  0  0  0  0  0
   -8.5457   18.2117   26.1746 O   0  0  0  0  0  0  0  0  0  0  0  0
   -9.7257   16.8477   28.0324 C   0  0  1  0  0  0  0  0  0  0  0  0
   -8.8584   17.4350   29.1176 O   0  0  0  0  0  0  0  0  0  0  0  0
  -11.0506   17.6647   27.8721 C   0  0  0  0  0  0  0  0  0  0  0  0
  -12.0295   17.0080   26.9514 N   0  0  0  0  0  0  0  0  0  0  0  0
  1  3  1  0  0  0  0
  1  2  1  1  0  0  0
  3  4  1  1  0  0  0
  3  5  1  0  0  0  0
  5  6  1  6  0  0  0
  7  8  1  1  0  0  0
  7  5  1  0  0  0  0
  9 11  1  6  0  0  0
  9  7  1  0  0  0  0
 10  9  1  0  0  0  0
 10  1  1  0  0  0  0
 12 11  1  0  0  0  0
 13 14  1  1  0  0  0
 15 13  1  0  0  0  0
 16 17  1  1  0  0  0
 16 15  1  0  0  0  0
 18  2  1  6  0  0  0
 18 19  1  0  0  0  0
 18 16  1  0  0  0  0
 19 20  1  6  0  0  0
 19 21  1  0  0  0  0
 21 22  1  6  0  0  0
 21 13  1  0  0  0  0
 23 20  1  6  0  0  0
 23 29  1  0  0  0  0
 24 25  1  1  0  0  0
 24 26  1  0  0  0  0
 24 23  1  0  0  0  0
 26 27  1  1  0  0  0
 26 28  1  0  0  0  0
 28 30  1  6  0  0  0
 29 28  1  0  0  0  0
 30 31  1  0  0  0  0
 32 27  1  1  0  0  0
 32 40  1  0  0  0  0
 33 35  1  0  0  0  0
 33 32  1  0  0  0  0
 33 34  1  6  0  0  0
 35 36  1  1  0  0  0
 35 37  1  0  0  0  0
 37 38  1  1  0  0  0
 37 39  1  0  0  0  0
 39 41  1  6  0  0  0
 40 39  1  0  0  0  0
 41 42  1  0  0  0  0
M  END
>  <CHROM.1>
-81.38600036,-59.80824000,105.23782592,-127.62713980,171.19031444,160.13590381
-169.27993797,-43.50954518,67.27244749,-3.95873538,17.74568226,32.43872810
-0.15950654,-0.77196253,-0.60223410

>  <Name>
lig.pdb

>  <RI>
0

>  <Rbt.Current_Directory>
/home/itssahil/PROJECTS/Mol_Feturizer/New_Systems/rnas/4wcr

>  <Rbt.Executable>
rbdock ($Id: //depot/dev/client3/rdock/2013.1/src/exe/rbdock.cxx#4 $)

>  <Rbt.Library>
libRbt.so (2013.1, Build901 2013/11/27)

>  <Rbt.Parameter_File>
/export/apps/rDock/src/rDock_2013.1_src/data/scripts/dock_solv.prm

>  <Rbt.Receptor>
prm/blind_docking_60.prm

>  <SCORE>
-2.71236

>  <SCORE.INTER>
-13.4684

>  <SCORE.INTER.CONST>
1

>  <SCORE.INTER.POLAR>
0

>  <SCORE.INTER.ROT>
9

>  <SCORE.INTER.SOLV>
35.7957

>  <SCORE.INTER.VDW>
-30.5108

>  <SCORE.INTER.norm>
-0.320675

>  <SCORE.INTRA>
8.18129

>  <SCORE.INTRA.DIHEDRAL>
3.22497

>  <SCORE.INTRA.DIHEDRAL.0>
16.2863

>  <SCORE.INTRA.POLAR>
0

>  <SCORE.INTRA.POLAR.0>
0

>  <SCORE.INTRA.REPUL>
-0.314433

>  <SCORE.INTRA.REPUL.0>
0.314433

>  <SCORE.INTRA.SOLV>
1.12716

>  <SCORE.INTRA.SOLV.lig_0>
-103.824

>  <SCORE.INTRA.VDW>
7.57738

>  <SCORE.INTRA.VDW.0>
-5.30945

>  <SCORE.INTRA.norm>
0.194793

>  <SCORE.RESTR>
2.5747

>  <SCORE.RESTR.CAVITY>
2.5747

>  <SCORE.RESTR.norm>
0.0613024

>  <SCORE.SYSTEM>
0

>  <SCORE.SYSTEM.CONST>
0

>  <SCORE.SYSTEM.DIHEDRAL>
0

>  <SCORE.SYSTEM.SOLV>
0

>  <SCORE.SYSTEM.norm>
0

>  <SCORE.heavy>
42

>  <SCORE.norm>
-0.06458

>  <RMSD>
8.902

$$$$
lig.pdb
 OpenBabel11021811513D
libRbt.so/2013.1/901 2013/11/27
 42 45  0  0  0  0  0  0  0  0999 V2000
   -2.4069    8.8706   37.0923 C   0  0  2  0  0  0  0  0  0  0  0  0
   -1.5819    9.1817   35.9262 O   0  0  0  0  0  0  0  0  0  0  0  0
   -3.8083    9.5892   36.8479 C   0  0  2  0  0  0  0  0  0  0  0  0
   -4.4552    9.0487   35.6491 N   0  0  0  0  0  0  0  0  0  0  0  0
   -3.5655   11.1735   36.7444 C   0  0  1  0  0  0  0  0  0  0  0  0
   -4.8073   11.8780   36.5337 O   0  0  0  0  0  0  0  0  0  0  0  0
   -2.8788   11.6142   38.0485 C   0  0  2  0  0  0  0  0  0  0  0  0
   -2.6512   12.9813   37.9937 O   0  0  0  0  0  0  0  0  0  0  0  0
   -1.5094   10.8160   38.2386 C   0  0  2  0  0  0  0  0  0  0  0  0
   -1.7352    9.4021   38.2964 O   0  0  0  0  0  0  0  0  0  0  0  0
   -0.8068   11.1969   39.5108 C   0  0  0  0  0  0  0  0  0  0  0  0
    0.4375   10.4967   39.5436 O   0  0  0  0  0  0  0  0  0  0  0  0
   -0.9814    7.2229   31.9796 C   0  0  2  0  0  0  0  0  0  0  0  0
   -1.2628    6.5892   30.7099 N   0  0  0  0  0  0  0  0  0  0  0  0
   -1.6951    6.4399   33.1485 C   0  0  0  0  0  0  0  0  0  0  0  0
   -1.4087    7.1107   34.5379 C   0  0  2  0  0  0  0  0  0  0  0  0
   -2.0919    6.3609   35.5900 N   0  0  0  0  0  0  0  0  0  0  0  0
   -1.8938    8.6273   34.5929 C   0  0  2  0  0  0  0  0  0  0  0  0
   -1.1536    9.3942   33.4590 C   0  0  2  0  0  0  0  0  0  0  0  0
   -1.6581   10.8127   33.5862 O   0  0  0  0  0  0  0  0  0  0  0  0
   -1.5085    8.7346   32.0146 C   0  0  1  0  0  0  0  0  0  0  0  0
   -0.8226    9.3420   30.8732 O   0  0  0  0  0  0  0  0  0  0  0  0
   -0.7252   11.6234   34.1777 C   0  0  1  0  0  0  0  0  0  0  0  0
   -1.3208   12.6767   35.0065 C   0  0  2  0  0  0  0  0  0  0  0  0
   -1.8832   13.6147   34.1458 O   0  0  0  0  0  0  0  0  0  0  0  0
   -0.1237   13.0678   35.8994 C   0  0  2  0  0  0  0  0  0  0  0  0
    0.1558   14.4612   35.6353 O   0  0  0  0  0  0  0  0  0  0  0  0
    0.9874   12.1692   35.4662 C   0  0  2  0  0  0  0  0  0  0  0  0
    0.1578   11.0088   35.1012 O   0  0  0  0  0  0  0  0  0  0  0  0
    1.9431   11.8031   36.6607 C   0  0  0  0  0  0  0  0  0  0  0  0
    2.6149   10.5178   36.5002 O   0  0  0  0  0  0  0  0  0  0  0  0
   -0.7486   15.4404   36.2306 C   0  0  2  0  0  0  0  0  0  0  0  0
   -0.2516   16.9203   35.8097 C   0  0  2  0  0  0  0  0  0  0  0  0
    1.1602   17.1164   36.2734 N   0  0  0  0  0  0  0  0  0  0  0  0
   -1.2544   17.9918   36.4657 C   0  0  1  0  0  0  0  0  0  0  0  0
   -2.5914   17.7044   35.9545 O   0  0  0  0  0  0  0  0  0  0  0  0
   -1.2065   17.8597   38.0547 C   0  0  2  0  0  0  0  0  0  0  0  0
    0.1700   18.1780   38.4953 O   0  0  0  0  0  0  0  0  0  0  0  0
   -1.6559   16.3426   38.4525 C   0  0  1  0  0  0  0  0  0  0  0  0
   -0.7475   15.3505   37.7704 O   0  0  0  0  0  0  0  0  0  0  0  0
   -1.6034   16.1718   40.0071 C   0  0  0  0  0  0  0  0  0  0  0  0
   -2.0978   14.8350   40.4609 N   0  0  0  0  0  0  0  0  0  0  0  0
  1  3  1  0  0  0  0
  1  2  1  6  0  0  0
  3  4  1  6  0  0  0
  3  5  1  0  0  0  0
  5  6  1  1  0  0  0
  7  8  1  6  0  0  0
  7  5  1  0  0  0  0
  9 11  1  1  0  0  0
  9  7  1  0  0  0  0
 10  9  1  0  0  0  0
 10  1  1  0  0  0  0
 12 11  1  0  0  0  0
 13 14  1  6  0  0  0
 15 13  1  0  0  0  0
 16 17  1  1  0  0  0
 16 15  1  0  0  0  0
 18  2  1  1  0  0  0
 18 19  1  0  0  0  0
 18 16  1  0  0  0  0
 19 20  1  6  0  0  0
 19 21  1  0  0  0  0
 21 22  1  6  0  0  0
 21 13  1  0  0  0  0
 23 20  1  1  0  0  0
 23 29  1  0  0  0  0
 24 25  1  6  0  0  0
 24 26  1  0  0  0  0
 24 23  1  0  0  0  0
 26 27  1  6  0  0  0
 26 28  1  0  0  0  0
 28 30  1  1  0  0  0
 29 28  1  0  0  0  0
 30 31  1  0  0  0  0
 32 27  1  6  0  0  0
 32 40  1  0  0  0  0
 33 35  1  0  0  0  0
 33 32  1  0  0  0  0
 33 34  1  1  0  0  0
 35 36  1  6  0  0  0
 35 37  1  0  0  0  0
 37 38  1  6  0  0  0
 37 39  1  0  0  0  0
 39 41  1  1  0  0  0
 40 39  1  0  0  0  0
 41 42  1  0  0  0  0
M  END
>  <CHROM.1>
-68.56825348,-176.36776322,-77.70009459,103.60223522,-146.51464788,76.10066605
152.67101605,179.95360832,175.82206324,-1.25328348,11.97122492,36.05091672
1.79363679,-1.23899333,-2.48822505

>  <Name>
lig.pdb

>  <RI>
0

>  <Rbt.Current_Directory>
/home/itssahil/PROJECTS/Mol_Feturizer/New_Systems/rnas/4wcr

>  <Rbt.Executable>
rbdock ($Id: //depot/dev/client3/rdock/2013.1/src/exe/rbdock.cxx#4 $)

>  <Rbt.Library>
libRbt.so (2013.1, Build901 2013/11/27)

>  <Rbt.Parameter_File>
/export/apps/rDock/src/rDock_2013.1_src/data/scripts/dock_solv.prm

>  <Rbt.Receptor>
prm/pocket_docking_5.prm

>  <SCORE>
1.44446

>  <SCORE.INTER>
1.76763

>  <SCORE.INTER.CONST>
1

>  <SCORE.INTER.POLAR>
0

>  <SCORE.INTER.ROT>
9

>  <SCORE.INTER.SOLV>
14.9954

>  <SCORE.INTER.VDW>
-13.42

>  <SCORE.INTER.norm>
0.0420864

>  <SCORE.INTRA>
-0.338099

>  <SCORE.INTRA.DIHEDRAL>
-0.486068

>  <SCORE.INTRA.DIHEDRAL.0>
16.2863

>  <SCORE.INTRA.POLAR>
0

>  <SCORE.INTRA.POLAR.0>
0

>  <SCORE.INTRA.REPUL>
0.250487

>  <SCORE.INTRA.REPUL.0>
0.314433

>  <SCORE.INTRA.SOLV>
1.31898

>  <SCORE.INTRA.SOLV.lig_0>
-103.824

>  <SCORE.INTRA.VDW>
-2.00699

>  <SCORE.INTRA.VDW.0>
-5.30945

>  <SCORE.INTRA.norm>
-0.00804996

>  <SCORE.RESTR>
0.0149251

>  <SCORE.RESTR.CAVITY>
0.0149251

>  <SCORE.RESTR.norm>
0.000355359

>  <SCORE.SYSTEM>
0

>  <SCORE.SYSTEM.CONST>
0

>  <SCORE.SYSTEM.DIHEDRAL>
0

>  <SCORE.SYSTEM.SOLV>
0

>  <SCORE.SYSTEM.norm>
0

>  <SCORE.heavy>
42

>  <SCORE.norm>
0.0343918

>  <RMSD>
8.914

$$$$
lig.pdb
 OpenBabel11021811513D
libRbt.so/2013.1/901 2013/11/27
 42 45  0  0  0  0  0  0  0  0999 V2000
   -6.8000   15.8651   29.9617 C   0  0  2  0  0  0  0  0  0  0  0  0
   -5.6819   16.8066   29.9369 O   0  0  0  0  0  0  0  0  0  0  0  0
   -6.4322   14.7130   28.9238 C   0  0  2  0  0  0  0  0  0  0  0  0
   -5.2140   14.0168   29.3469 N   0  0  0  0  0  0  0  0  0  0  0  0
   -6.2835   15.3623   27.4622 C   0  0  1  0  0  0  0  0  0  0  0  0
   -5.9606   14.3586   26.4769 O   0  0  0  0  0  0  0  0  0  0  0  0
   -7.6133   16.0652   27.1398 C   0  0  2  0  0  0  0  0  0  0  0  0
   -7.5205   16.6410   25.8814 O   0  0  0  0  0  0  0  0  0  0  0  0
   -7.9279   17.1689   28.2494 C   0  0  2  0  0  0  0  0  0  0  0  0
   -8.0256   16.5827   29.5533 O   0  0  0  0  0  0  0  0  0  0  0  0
   -9.2294   17.8736   27.9905 C   0  0  0  0  0  0  0  0  0  0  0  0
  -10.2781   16.9176   28.1518 O   0  0  0  0  0  0  0  0  0  0  0  0
   -4.2371   20.5594   31.8348 C   0  0  2  0  0  0  0  0  0  0  0  0
   -4.2162   21.7790   32.6126 N   0  0  0  0  0  0  0  0  0  0  0  0
   -5.4040   20.6102   30.7745 C   0  0  0  0  0  0  0  0  0  0  0  0
   -5.4509   19.2951   29.9196 C   0  0  2  0  0  0  0  0  0  0  0  0
   -6.5473   19.3797   28.9570 N   0  0  0  0  0  0  0  0  0  0  0  0
   -5.6559   17.9938   30.8157 C   0  0  2  0  0  0  0  0  0  0  0  0
   -4.4779   17.9374   31.8309 C   0  0  2  0  0  0  0  0  0  0  0  0
   -4.7406   16.6808   32.6275 O   0  0  0  0  0  0  0  0  0  0  0  0
   -4.4760   19.2737   32.7591 C   0  0  1  0  0  0  0  0  0  0  0  0
   -3.3742   19.3571   33.7190 O   0  0  0  0  0  0  0  0  0  0  0  0
   -3.9077   16.5936   33.7119 C   0  0  1  0  0  0  0  0  0  0  0  0
   -2.4955   16.4492   33.3429 C   0  0  2  0  0  0  0  0  0  0  0  0
   -2.3235   15.1573   32.8549 O   0  0  0  0  0  0  0  0  0  0  0  0
   -1.7987   16.8797   34.6514 C   0  0  2  0  0  0  0  0  0  0  0  0
   -1.0292   15.7441   35.1072 O   0  0  0  0  0  0  0  0  0  0  0  0
   -2.9129   17.2269   35.5829 C   0  0  2  0  0  0  0  0  0  0  0  0
   -3.8573   17.7228   34.5680 O   0  0  0  0  0  0  0  0  0  0  0  0
   -2.5120   18.3858   36.5682 C   0  0  0  0  0  0  0  0  0  0  0  0
   -3.5197   18.6635   37.5863 O   0  0  0  0  0  0  0  0  0  0  0  0
   -0.0621   15.9869   36.1734 C   0  0  2  0  0  0  0  0  0  0  0  0
    0.7600   14.6207   36.4415 C   0  0  2  0  0  0  0  0  0  0  0  0
   -0.2020   13.5298   36.8039 N   0  0  0  0  0  0  0  0  0  0  0  0
    1.8247   14.8975   37.6136 C   0  0  1  0  0  0  0  0  0  0  0  0
    2.6993   15.9749   37.1597 O   0  0  0  0  0  0  0  0  0  0  0  0
    1.0513   15.3087   38.9467 C   0  0  2  0  0  0  0  0  0  0  0  0
    0.2009   14.1663   39.3489 O   0  0  0  0  0  0  0  0  0  0  0  0
    0.1842   16.6555   38.6365 C   0  0  1  0  0  0  0  0  0  0  0  0
   -0.7580   16.3973   37.4874 O   0  0  0  0  0  0  0  0  0  0  0  0
   -0.6032   17.0786   39.9208 C   0  0  0  0  0  0  0  0  0  0  0  0
    0.2951   17.5070   41.0374 N   0  0  0  0  0  0  0  0  0  0  0  0
  1  3  1  0  0  0  0
  1  2  1  6  0  0  0
  3  4  1  1  0  0  0
  3  5  1  0  0  0  0
  5  6  1  6  0  0  0
  7  8  1  6  0  0  0
  7  5  1  0  0  0  0
  9 11  1  6  0  0  0
  9  7  1  0  0  0  0
 10  9  1  0  0  0  0
 10  1  1  0  0  0  0
 12 11  1  0  0  0  0
 13 14  1  1  0  0  0
 15 13  1  0  0  0  0
 16 17  1  6  0  0  0
 16 15  1  0  0  0  0
 18  2  1  6  0  0  0
 18 19  1  0  0  0  0
 18 16  1  0  0  0  0
 19 20  1  1  0  0  0
 19 21  1  0  0  0  0
 21 22  1  1  0  0  0
 21 13  1  0  0  0  0
 23 20  1  6  0  0  0
 23 29  1  0  0  0  0
 24 25  1  1  0  0  0
 24 26  1  0  0  0  0
 24 23  1  0  0  0  0
 26 27  1  1  0  0  0
 26 28  1  0  0  0  0
 28 30  1  1  0  0  0
 29 28  1  0  0  0  0
 30 31  1  0  0  0  0
 32 27  1  6  0  0  0
 32 40  1  0  0  0  0
 33 35  1  0  0  0  0
 33 32  1  0  0  0  0
 33 34  1  1  0  0  0
 35 36  1  6  0  0  0
 35 37  1  0  0  0  0
 37 38  1  6  0  0  0
 37 39  1  0  0  0  0
 39 41  1  1  0  0  0
 40 39  1  0  0  0  0
 41 42  1  0  0  0  0
M  END
>  <CHROM.1>
-178.05964256,66.43951752,-125.17176847,-170.28558379,-65.05315337,167.60082331
-173.99839839,-175.56543085,65.91305113,-3.69314847,16.89481600,33.05780894
-2.77406327,-0.87031277,0.55244832

>  <Name>
lig.pdb

>  <RI>
0

>  <Rbt.Current_Directory>
/home/itssahil/PROJECTS/Mol_Feturizer/New_Systems/rnas/4wcr

>  <Rbt.Executable>
rbdock ($Id: //depot/dev/client3/rdock/2013.1/src/exe/rbdock.cxx#4 $)

>  <Rbt.Library>
libRbt.so (2013.1, Build901 2013/11/27)

>  <Rbt.Parameter_File>
/export/apps/rDock/src/rDock_2013.1_src/data/scripts/dock_solv.prm

>  <Rbt.Receptor>
prm/blind_docking_60.prm

>  <SCORE>
9.82154

>  <SCORE.INTER>
-6.77971

>  <SCORE.INTER.CONST>
1

>  <SCORE.INTER.POLAR>
0

>  <SCORE.INTER.ROT>
9

>  <SCORE.INTER.SOLV>
31.1099

>  <SCORE.INTER.VDW>
-24.4898

>  <SCORE.INTER.norm>
-0.161422

>  <SCORE.INTRA>
14.4343

>  <SCORE.INTRA.DIHEDRAL>
-6.91116

>  <SCORE.INTRA.DIHEDRAL.0>
16.2863

>  <SCORE.INTRA.POLAR>
0

>  <SCORE.INTRA.POLAR.0>
0

>  <SCORE.INTRA.REPUL>
-0.314433

>  <SCORE.INTRA.REPUL.0>
0.314433

>  <SCORE.INTRA.SOLV>
-1.00448

>  <SCORE.INTRA.SOLV.lig_0>
-103.824

>  <SCORE.INTRA.VDW>
19.9642

>  <SCORE.INTRA.VDW.0>
-5.30945

>  <SCORE.INTRA.norm>
0.343673

>  <SCORE.RESTR>
2.16699

>  <SCORE.RESTR.CAVITY>
2.16699

>  <SCORE.RESTR.norm>
0.051595

>  <SCORE.SYSTEM>
0

>  <SCORE.SYSTEM.CONST>
0

>  <SCORE.SYSTEM.DIHEDRAL>
0

>  <SCORE.SYSTEM.SOLV>
0

>  <SCORE.SYSTEM.norm>
0

>  <SCORE.heavy>
42

>  <SCORE.norm>
0.233846

>  <RMSD>
8.919

$$$$
lig.pdb
 OpenBabel11021811513D
libRbt.so/2013.1/901 2013/11/27
 42 45  0  0  0  0  0  0  0  0999 V2000
    0.2109   18.7920   34.7130 C   0  0  2  0  0  0  0  0  0  0  0  0
   -0.0378   17.3881   34.3902 O   0  0  0  0  0  0  0  0  0  0  0  0
    0.2987   18.8724   36.3023 C   0  0  2  0  0  0  0  0  0  0  0  0
    1.4200   18.0655   36.7915 N   0  0  0  0  0  0  0  0  0  0  0  0
   -1.1055   18.3989   36.9220 C   0  0  1  0  0  0  0  0  0  0  0  0
   -1.0864   18.4626   38.3636 O   0  0  0  0  0  0  0  0  0  0  0  0
   -2.1941   19.3100   36.3293 C   0  0  2  0  0  0  0  0  0  0  0  0
   -3.4246   18.9277   36.8425 O   0  0  0  0  0  0  0  0  0  0  0  0
   -2.1836   19.2044   34.7365 C   0  0  2  0  0  0  0  0  0  0  0  0
   -0.9154   19.5977   34.1974 O   0  0  0  0  0  0  0  0  0  0  0  0
   -3.2187   20.0921   34.1058 C   0  0  0  0  0  0  0  0  0  0  0  0
   -2.8228   21.4456   34.3314 O   0  0  0  0  0  0  0  0  0  0  0  0
   -2.2755   13.8312   35.8441 C   0  0  2  0  0  0  0  0  0  0  0  0
   -3.1345   12.9904   36.6491 N   0  0  0  0  0  0  0  0  0  0  0  0
   -1.1492   14.4755   36.7413 C   0  0  0  0  0  0  0  0  0  0  0  0
   -0.2052   15.3970   35.8914 C   0  0  2  0  0  0  0  0  0  0  0  0
    0.8169   15.9783   36.7592 N   0  0  0  0  0  0  0  0  0  0  0  0
   -0.9955   16.5772   35.1697 C   0  0  2  0  0  0  0  0  0  0  0  0
   -2.0771   15.9253   34.2605 C   0  0  2  0  0  0  0  0  0  0  0  0
   -2.7678   17.1019   33.6114 O   0  0  0  0  0  0  0  0  0  0  0  0
   -3.0928   15.0251   35.1580 C   0  0  1  0  0  0  0  0  0  0  0  0
   -4.1240   14.3160   34.3992 O   0  0  0  0  0  0  0  0  0  0  0  0
   -3.7949   16.6937   32.8016 C   0  0  1  0  0  0  0  0  0  0  0  0
   -4.0772   17.6338   31.7118 C   0  0  2  0  0  0  0  0  0  0  0  0
   -4.6959   18.7469   32.2729 O   0  0  0  0  0  0  0  0  0  0  0  0
   -4.8548   16.7303   30.7310 C   0  0  2  0  0  0  0  0  0  0  0  0
   -6.1693   17.3125   30.5805 O   0  0  0  0  0  0  0  0  0  0  0  0
   -4.8941   15.3918   31.3917 C   0  0  2  0  0  0  0  0  0  0  0  0
   -3.5980   15.4868   32.0838 O   0  0  0  0  0  0  0  0  0  0  0  0
   -4.8679   14.2204   30.3421 C   0  0  0  0  0  0  0  0  0  0  0  0
   -5.5453   14.5409   29.0901 O   0  0  0  0  0  0  0  0  0  0  0  0
   -6.6265   17.5675   29.2178 C   0  0  2  0  0  0  0  0  0  0  0  0
   -7.7977   18.6809   29.2693 C   0  0  2  0  0  0  0  0  0  0  0  0
   -8.9101   18.1859   30.1434 N   0  0  0  0  0  0  0  0  0  0  0  0
   -8.2926   18.9585   27.7653 C   0  0  1  0  0  0  0  0  0  0  0  0
   -7.1356   19.4251   27.0069 O   0  0  0  0  0  0  0  0  0  0  0  0
   -8.8819   17.6128   27.1438 C   0  0  2  0  0  0  0  0  0  0  0  0
  -10.0538   17.2134   27.9546 O   0  0  0  0  0  0  0  0  0  0  0  0
   -7.7004   16.4876   27.1550 C   0  0  1  0  0  0  0  0  0  0  0  0
   -7.2000   16.2933   28.5645 O   0  0  0  0  0  0  0  0  0  0  0  0
   -8.2498   15.1457   26.5668 C   0  0  0  0  0  0  0  0  0  0  0  0
   -7.2041   14.0800   26.4777 N   0  0  0  0  0  0  0  0  0  0  0  0
  1  3  1  0  0  0  0
  1  2  1  1  0  0  0
  3  4  1  1  0  0  0
  3  5  1  0  0  0  0
  5  6  1  1  0  0  0
  7  8  1  1  0  0  0
  7  5  1  0  0  0  0
  9 11  1  6  0  0  0
  9  7  1  0  0  0  0
 10  9  1  0  0  0  0
 10  1  1  0  0  0  0
 12 11  1  0  0  0  0
 13 14  1  1  0  0  0
 15 13  1  0  0  0  0
 16 17  1  1  0  0  0
 16 15  1  0  0  0  0
 18  2  1  6  0  0  0
 18 19  1  0  0  0  0
 18 16  1  0  0  0  0
 19 20  1  1  0  0  0
 19 21  1  0  0  0  0
 21 22  1  6  0  0  0
 21 13  1  0  0  0  0
 23 20  1  6  0  0  0
 23 29  1  0  0  0  0
 24 25  1  1  0  0  0
 24 26  1  0  0  0  0
 24 23  1  0  0  0  0
 26 27  1  1  0  0  0
 26 28  1  0  0  0  0
 28 30  1  6  0  0  0
 29 28  1  0  0  0  0
 30 31  1  0  0  0  0
 32 27  1  1  0  0  0
 32 40  1  0  0  0  0
 33 35  1  0  0  0  0
 33 32  1  0  0  0  0
 33 34  1  1  0  0  0
 35 36  1  6  0  0  0
 35 37  1  0  0  0  0
 37 38  1  1  0  0  0
 37 39  1  0  0  0  0
 39 41  1  1  0  0  0
 40 39  1  0  0  0  0
 41 42  1  0  0  0  0
M  END
>  <CHROM.1>
42.17975781,67.92573598,-116.33133181,-177.87499246,-153.02568948,127.35646223
-32.94406341,-158.93483829,177.05810911,-3.94163185,17.08118842,32.62275475
0.06714282,-0.86983314,0.02619267

>  <Name>
lig.pdb

>  <RI>
0

>  <Rbt.Current_Directory>
/home/itssahil/PROJECTS/Mol_Feturizer/New_Systems/rnas/4wcr

>  <Rbt.Executable>
rbdock ($Id: //depot/dev/client3/rdock/2013.1/src/exe/rbdock.cxx#4 $)

>  <Rbt.Library>
libRbt.so (2013.1, Build901 2013/11/27)

>  <Rbt.Parameter_File>
/export/apps/rDock/src/rDock_2013.1_src/data/scripts/dock_solv.prm

>  <Rbt.Receptor>
prm/blind_docking_100.prm

>  <SCORE>
26.5118

>  <SCORE.INTER>
3.33944

>  <SCORE.INTER.CONST>
1

>  <SCORE.INTER.POLAR>
0

>  <SCORE.INTER.ROT>
9

>  <SCORE.INTER.SOLV>
33.4679

>  <SCORE.INTER.VDW>
-18.5297

>  <SCORE.INTER.norm>
0.0795105

>  <SCORE.INTRA>
20.3114

>  <SCORE.INTRA.DIHEDRAL>
6.67938

>  <SCORE.INTRA.DIHEDRAL.0>
16.2863

>  <SCORE.INTRA.POLAR>
0

>  <SCORE.INTRA.POLAR.0>
0

>  <SCORE.INTRA.REPUL>
-0.146423

>  <SCORE.INTRA.REPUL.0>
0.314433

>  <SCORE.INTRA.SOLV>
4.41288

>  <SCORE.INTRA.SOLV.lig_0>
-103.824

>  <SCORE.INTRA.VDW>
15.4974

>  <SCORE.INTRA.VDW.0>
-5.30945

>  <SCORE.INTRA.norm>
0.483605

>  <SCORE.RESTR>
2.8609

>  <SCORE.RESTR.CAVITY>
2.8609

>  <SCORE.RESTR.norm>
0.0681166

>  <SCORE.SYSTEM>
0

>  <SCORE.SYSTEM.CONST>
0

>  <SCORE.SYSTEM.DIHEDRAL>
0

>  <SCORE.SYSTEM.SOLV>
0

>  <SCORE.SYSTEM.norm>
0

>  <SCORE.heavy>
42

>  <SCORE.norm>
0.631232

>  <RMSD>
8.921

$$$$
lig.pdb
 OpenBabel11021811513D
libRbt.so/2013.1/901 2013/11/27
 42 45  0  0  0  0  0  0  0  0999 V2000
   -1.7139    7.5789   34.3870 C   0  0  2  0  0  0  0  0  0  0  0  0
   -2.0090    8.9032   34.9312 O   0  0  0  0  0  0  0  0  0  0  0  0
   -0.8453    6.8289   35.4930 C   0  0  2  0  0  0  0  0  0  0  0  0
   -1.6182    6.6745   36.7285 N   0  0  0  0  0  0  0  0  0  0  0  0
    0.5149    7.6505   35.7267 C   0  0  1  0  0  0  0  0  0  0  0  0
    1.3483    7.0080   36.7142 O   0  0  0  0  0  0  0  0  0  0  0  0
    1.2246    7.7511   34.3656 C   0  0  2  0  0  0  0  0  0  0  0  0
    2.4064    8.4584   34.5292 O   0  0  0  0  0  0  0  0  0  0  0  0
    0.2713    8.4718   33.3071 C   0  0  2  0  0  0  0  0  0  0  0  0
   -0.9527    7.7474   33.1317 O   0  0  0  0  0  0  0  0  0  0  0  0
    0.9120    8.5783   31.9524 C   0  0  0  0  0  0  0  0  0  0  0  0
   -0.0604    9.1167   31.0556 O   0  0  0  0  0  0  0  0  0  0  0  0
   -4.3899   10.6821   31.6237 C   0  0  2  0  0  0  0  0  0  0  0  0
   -5.2763   11.5652   30.8975 N   0  0  0  0  0  0  0  0  0  0  0  0
   -5.1182   10.1099   32.9008 C   0  0  0  0  0  0  0  0  0  0  0  0
   -4.1751    9.1512   33.7094 C   0  0  2  0  0  0  0  0  0  0  0  0
   -4.8836    8.6500   34.8852 N   0  0  0  0  0  0  0  0  0  0  0  0
   -2.8379    9.8737   34.1872 C   0  0  2  0  0  0  0  0  0  0  0  0
   -2.1126   10.3994   32.9148 C   0  0  2  0  0  0  0  0  0  0  0  0
   -0.8617   11.0558   33.4507 O   0  0  0  0  0  0  0  0  0  0  0  0
   -3.0711   11.4447   32.1172 C   0  0  1  0  0  0  0  0  0  0  0  0
   -2.5127   11.9648   30.8682 O   0  0  0  0  0  0  0  0  0  0  0  0
   -1.1638   12.0913   34.2955 C   0  0  1  0  0  0  0  0  0  0  0  0
    0.0165   12.6575   34.9570 C   0  0  2  0  0  0  0  0  0  0  0  0
    0.4389   11.7377   35.9121 O   0  0  0  0  0  0  0  0  0  0  0  0
   -0.5197   14.0367   35.3969 C   0  0  2  0  0  0  0  0  0  0  0  0
   -0.4307   14.0780   36.8391 O   0  0  0  0  0  0  0  0  0  0  0  0
   -1.9306   14.0728   34.9094 C   0  0  2  0  0  0  0  0  0  0  0  0
   -1.7336   13.2480   33.7057 O   0  0  0  0  0  0  0  0  0  0  0  0
   -2.3736   15.5278   34.5078 C   0  0  0  0  0  0  0  0  0  0  0  0
   -3.7259   15.5990   33.9643 O   0  0  0  0  0  0  0  0  0  0  0  0
   -0.7009   15.3611   37.4808 C   0  0  2  0  0  0  0  0  0  0  0  0
    0.5304   16.3609   37.1676 C   0  0  2  0  0  0  0  0  0  0  0  0
    1.8029   15.7478   37.6690 N   0  0  0  0  0  0  0  0  0  0  0  0
    0.2234   17.7718   37.8742 C   0  0  1  0  0  0  0  0  0  0  0  0
   -1.0323   18.2701   37.3206 O   0  0  0  0  0  0  0  0  0  0  0  0
    0.1125   17.5621   39.4516 C   0  0  2  0  0  0  0  0  0  0  0  0
    1.4216   17.0719   39.9375 O   0  0  0  0  0  0  0  0  0  0  0  0
   -1.0974   16.5063   39.7403 C   0  0  1  0  0  0  0  0  0  0  0  0
   -0.8264   15.2142   39.0111 O   0  0  0  0  0  0  0  0  0  0  0  0
   -1.2235   16.2631   41.2809 C   0  0  0  0  0  0  0  0  0  0  0  0
   -2.3417   15.3339   41.6321 N   0  0  0  0  0  0  0  0  0  0  0  0
  1  3  1  0  0  0  0
  1  2  1  1  0  0  0
  3  4  1  1  0  0  0
  3  5  1  0  0  0  0
  5  6  1  1  0  0  0
  7  8  1  1  0  0  0
  7  5  1  0  0  0  0
  9 11  1  6  0  0  0
  9  7  1  0  0  0  0
 10  9  1  0  0  0  0
 10  1  1  0  0  0  0
 12 11  1  0  0  0  0
 13 14  1  1  0  0  0
 15 13  1  0  0  0  0
 16 17  1  1  0  0  0
 16 15  1  0  0  0  0
 18  2  1  6  0  0  0
 18 19  1  0  0  0  0
 18 16  1  0  0  0  0
 19 20  1  1  0  0  0
 19 21  1  0  0  0  0
 21 22  1  6  0  0  0
 21 13  1  0  0  0  0
 23 20  1  6  0  0  0
 23 29  1  0  0  0  0
 24 25  1  1  0  0  0
 24 26  1  0  0  0  0
 24 23  1  0  0  0  0
 26 27  1  1  0  0  0
 26 28  1  0  0  0  0
 28 30  1  6  0  0  0
 29 28  1  0  0  0  0
 30 31  1  0  0  0  0
 32 27  1  6  0  0  0
 32 40  1  0  0  0  0
 33 35  1  0  0  0  0
 33 32  1  0  0  0  0
 33 34  1  1  0  0  0
 35 36  1  6  0  0  0
 35 37  1  0  0  0  0
 37 38  1  6  0  0  0
 37 39  1  0  0  0  0
 39 41  1  1  0  0  0
 40 39  1  0  0  0  0
 41 42  1  0  0  0  0
M  END
>  <CHROM.1>
-178.25910286,174.60583730,49.74952544,-60.85256788,173.43095761,171.38159858
177.19932824,-71.21865334,178.29729272,-1.17239576,12.01202331,35.30093315
-1.73859987,-0.85924792,0.45955307

>  <Name>
lig.pdb

>  <RI>
0

>  <Rbt.Current_Directory>
/home/itssahil/PROJECTS/Mol_Feturizer/New_Systems/rnas/4wcr

>  <Rbt.Executable>
rbdock ($Id: //depot/dev/client3/rdock/2013.1/src/exe/rbdock.cxx#4 $)

>  <Rbt.Library>
libRbt.so (2013.1, Build901 2013/11/27)

>  <Rbt.Parameter_File>
/export/apps/rDock/src/rDock_2013.1_src/data/scripts/dock_solv.prm

>  <Rbt.Receptor>
prm/pocket_docking_6.prm

>  <SCORE>
-11.2929

>  <SCORE.INTER>
-2.59591

>  <SCORE.INTER.CONST>
1

>  <SCORE.INTER.POLAR>
0

>  <SCORE.INTER.ROT>
9

>  <SCORE.INTER.SOLV>
19.8639

>  <SCORE.INTER.VDW>
-17.9519

>  <SCORE.INTER.norm>
-0.0618075

>  <SCORE.INTRA>
-8.69697

>  <SCORE.INTRA.DIHEDRAL>
-13.9032

>  <SCORE.INTRA.DIHEDRAL.0>
16.2863

>  <SCORE.INTRA.POLAR>
0

>  <SCORE.INTRA.POLAR.0>
0

>  <SCORE.INTRA.REPUL>
-0.314433

>  <SCORE.INTRA.REPUL.0>
0.314433

>  <SCORE.INTRA.SOLV>
-4.32488

>  <SCORE.INTRA.SOLV.lig_0>
-103.824

>  <SCORE.INTRA.VDW>
1.98925

>  <SCORE.INTRA.VDW.0>
-5.30945

>  <SCORE.INTRA.norm>
-0.207071

>  <SCORE.RESTR>
0

>  <SCORE.RESTR.CAVITY>
0

>  <SCORE.RESTR.norm>
0

>  <SCORE.SYSTEM>
0

>  <SCORE.SYSTEM.CONST>
0

>  <SCORE.SYSTEM.DIHEDRAL>
0

>  <SCORE.SYSTEM.SOLV>
0

>  <SCORE.SYSTEM.norm>
0

>  <SCORE.heavy>
42

>  <SCORE.norm>
-0.268878

>  <RMSD>
8.933

$$$$
lig.pdb
 OpenBabel11021811513D
libRbt.so/2013.1/901 2013/11/27
 42 45  0  0  0  0  0  0  0  0999 V2000
   -5.3065    8.9340   33.2453 C   0  0  2  0  0  0  0  0  0  0  0  0
   -3.9562    8.6193   33.7086 O   0  0  0  0  0  0  0  0  0  0  0  0
   -5.1650   10.2110   32.3023 C   0  0  2  0  0  0  0  0  0  0  0  0
   -4.3251    9.8970   31.1431 N   0  0  0  0  0  0  0  0  0  0  0  0
   -4.5751   11.4292   33.1670 C   0  0  1  0  0  0  0  0  0  0  0  0
   -4.4362   12.6194   32.3628 O   0  0  0  0  0  0  0  0  0  0  0  0
   -5.5335   11.6533   34.3492 C   0  0  2  0  0  0  0  0  0  0  0  0
   -5.0530   12.7004   35.1215 O   0  0  0  0  0  0  0  0  0  0  0  0
   -5.6529   10.3164   35.2134 C   0  0  2  0  0  0  0  0  0  0  0  0
   -6.1489    9.2287   34.4232 O   0  0  0  0  0  0  0  0  0  0  0  0
   -6.5948   10.4768   36.3729 C   0  0  0  0  0  0  0  0  0  0  0  0
   -6.0671   11.4980   37.2204 O   0  0  0  0  0  0  0  0  0  0  0  0
   -4.7081    5.0636   36.2707 C   0  0  2  0  0  0  0  0  0  0  0  0
   -4.4891    3.8415   37.0132 N   0  0  0  0  0  0  0  0  0  0  0  0
   -4.2660    4.8740   34.7682 C   0  0  0  0  0  0  0  0  0  0  0  0
   -4.4896    6.1888   33.9412 C   0  0  2  0  0  0  0  0  0  0  0  0
   -4.0619    5.9734   32.5605 N   0  0  0  0  0  0  0  0  0  0  0  0
   -3.6856    7.4277   34.5387 C   0  0  2  0  0  0  0  0  0  0  0  0
   -4.1594    7.6254   36.0078 C   0  0  2  0  0  0  0  0  0  0  0  0
   -3.3632    8.8143   36.4928 O   0  0  0  0  0  0  0  0  0  0  0  0
   -3.8629    6.2816   36.8760 C   0  0  1  0  0  0  0  0  0  0  0  0
   -4.3187    6.3315   38.2659 O   0  0  0  0  0  0  0  0  0  0  0  0
   -3.5469    9.0249   37.8342 C   0  0  1  0  0  0  0  0  0  0  0  0
   -2.8824   10.2377   38.3227 C   0  0  2  0  0  0  0  0  0  0  0  0
   -1.5148    9.9813   38.3466 O   0  0  0  0  0  0  0  0  0  0  0  0
   -3.6449   10.4860   39.6419 C   0  0  2  0  0  0  0  0  0  0  0  0
   -2.6699   10.4153   40.7067 O   0  0  0  0  0  0  0  0  0  0  0  0
   -4.6527    9.3866   39.7149 C   0  0  2  0  0  0  0  0  0  0  0  0
   -4.8792    9.2441   38.2671 O   0  0  0  0  0  0  0  0  0  0  0  0
   -5.9740    9.8511   40.4311 C   0  0  0  0  0  0  0  0  0  0  0  0
   -6.6518   10.9512   39.7532 O   0  0  0  0  0  0  0  0  0  0  0  0
   -2.5519   11.5845   41.5727 C   0  0  2  0  0  0  0  0  0  0  0  0
   -1.1884   11.4517   42.4314 C   0  0  2  0  0  0  0  0  0  0  0  0
   -1.2257   10.1786   43.2215 N   0  0  0  0  0  0  0  0  0  0  0  0
   -1.0643   12.7443   43.3790 C   0  0  1  0  0  0  0  0  0  0  0  0
   -1.0450   13.9182   42.5112 O   0  0  0  0  0  0  0  0  0  0  0  0
   -2.3061   12.7899   44.3793 C   0  0  2  0  0  0  0  0  0  0  0  0
   -2.2485   11.5803   45.2300 O   0  0  0  0  0  0  0  0  0  0  0  0
   -3.6723   12.8655   43.4906 C   0  0  1  0  0  0  0  0  0  0  0  0
   -3.7351   11.6823   42.5575 O   0  0  0  0  0  0  0  0  0  0  0  0
   -4.9145   12.8942   44.4416 C   0  0  0  0  0  0  0  0  0  0  0  0
   -6.2087   13.0195   43.7022 N   0  0  0  0  0  0  0  0  0  0  0  0
  1  3  1  0  0  0  0
  1  2  1  1  0  0  0
  3  4  1  6  0  0  0
  3  5  1  0  0  0  0
  5  6  1  6  0  0  0
  7  8  1  1  0  0  0
  7  5  1  0  0  0  0
  9 11  1  1  0  0  0
  9  7  1  0  0  0  0
 10  9  1  0  0  0  0
 10  1  1  0  0  0  0
 12 11  1  0  0  0  0
 13 14  1  1  0  0  0
 15 13  1  0  0  0  0
 16 17  1  6  0  0  0
 16 15  1  0  0  0  0
 18  2  1  6  0  0  0
 18 19  1  0  0  0  0
 18 16  1  0  0  0  0
 19 20  1  1  0  0  0
 19 21  1  0  0  0  0
 21 22  1  1  0  0  0
 21 13  1  0  0  0  0
 23 20  1  6  0  0  0
 23 29  1  0  0  0  0
 24 25  1  1  0  0  0
 24 26  1  0  0  0  0
 24 23  1  0  0  0  0
 26 27  1  1  0  0  0
 26 28  1  0  0  0  0
 28 30  1  1  0  0  0
 29 28  1  0  0  0  0
 30 31  1  0  0  0  0
 32 27  1  6  0  0  0
 32 40  1  0  0  0  0
 33 35  1  0  0  0  0
 33 32  1  0  0  0  0
 33 34  1  1  0  0  0
 35 36  1  6  0  0  0
 35 37  1  0  0  0  0
 37 38  1  6  0  0  0
 37 39  1  0  0  0  0
 39 41  1  1  0  0  0
 40 39  1  0  0  0  0
 41 42  1  0  0  0  0
M  END
>  <CHROM.1>
-175.79722096,-61.70011728,43.43477079,-172.72118525,-175.08179254,123.02303847
60.90454103,-165.96820566,177.67167970,-4.07157386,9.89854191,38.00243077
2.31450966,1.31312006,-2.67817919

>  <Name>
lig.pdb

>  <RI>
0

>  <Rbt.Current_Directory>
/home/itssahil/PROJECTS/Mol_Feturizer/New_Systems/rnas/4wcr

>  <Rbt.Executable>
rbdock ($Id: //depot/dev/client3/rdock/2013.1/src/exe/rbdock.cxx#4 $)

>  <Rbt.Library>
libRbt.so (2013.1, Build901 2013/11/27)

>  <Rbt.Parameter_File>
/export/apps/rDock/src/rDock_2013.1_src/data/scripts/dock_solv.prm

>  <Rbt.Receptor>
prm/pocket_docking_8.prm

>  <SCORE>
-6.61813

>  <SCORE.INTER>
-0.684455

>  <SCORE.INTER.CONST>
1

>  <SCORE.INTER.POLAR>
0

>  <SCORE.INTER.ROT>
9

>  <SCORE.INTER.SOLV>
18.915

>  <SCORE.INTER.VDW>
-16.3613

>  <SCORE.INTER.norm>
-0.0162966

>  <SCORE.INTRA>
-5.93367

>  <SCORE.INTRA.DIHEDRAL>
-6.08664

>  <SCORE.INTRA.DIHEDRAL.0>
16.2863

>  <SCORE.INTRA.POLAR>
0

>  <SCORE.INTRA.POLAR.0>
0

>  <SCORE.INTRA.REPUL>
-0.314433

>  <SCORE.INTRA.REPUL.0>
0.314433

>  <SCORE.INTRA.SOLV>
-2.81452

>  <SCORE.INTRA.SOLV.lig_0>
-103.824

>  <SCORE.INTRA.VDW>
0.0890703

>  <SCORE.INTRA.VDW.0>
-5.30945

>  <SCORE.INTRA.norm>
-0.141278

>  <SCORE.RESTR>
0

>  <SCORE.RESTR.CAVITY>
0

>  <SCORE.RESTR.norm>
0

>  <SCORE.SYSTEM>
0

>  <SCORE.SYSTEM.CONST>
0

>  <SCORE.SYSTEM.DIHEDRAL>
0

>  <SCORE.SYSTEM.SOLV>
0

>  <SCORE.SYSTEM.norm>
0

>  <SCORE.heavy>
42

>  <SCORE.norm>
-0.157574

>  <RMSD>
8.934

$$$$
lig.pdb
 OpenBabel11021811513D
libRbt.so/2013.1/901 2013/11/27
 42 45  0  0  0  0  0  0  0  0999 V2000
   -7.2119   15.2563   29.3854 C   0  0  2  0  0  0  0  0  0  0  0  0
   -6.1728   16.2824   29.3186 O   0  0  0  0  0  0  0  0  0  0  0  0
   -6.7178   14.0638   28.4507 C   0  0  2  0  0  0  0  0  0  0  0  0
   -5.4629   13.5043   28.9602 N   0  0  0  0  0  0  0  0  0  0  0  0
   -6.5721   14.6115   26.9478 C   0  0  1  0  0  0  0  0  0  0  0  0
   -6.1364   13.5667   26.0527 O   0  0  0  0  0  0  0  0  0  0  0  0
   -7.9422   15.1760   26.5350 C   0  0  2  0  0  0  0  0  0  0  0  0
   -7.8532   15.6614   25.2387 O   0  0  0  0  0  0  0  0  0  0  0  0
   -8.3819   16.3302   27.5464 C   0  0  2  0  0  0  0  0  0  0  0  0
   -8.4765   15.8375   28.8887 O   0  0  0  0  0  0  0  0  0  0  0  0
   -9.7261   16.9036   27.1975 C   0  0  0  0  0  0  0  0  0  0  0  0
  -10.0119   17.9390   28.1388 O   0  0  0  0  0  0  0  0  0  0  0  0
   -5.1389   20.3099   30.8944 C   0  0  2  0  0  0  0  0  0  0  0  0
   -5.2580   21.5957   31.5466 N   0  0  0  0  0  0  0  0  0  0  0  0
   -6.2486   20.1585   29.7833 C   0  0  0  0  0  0  0  0  0  0  0  0
   -6.1436   18.7683   29.0630 C   0  0  2  0  0  0  0  0  0  0  0  0
   -7.1910   18.6658   28.0489 N   0  0  0  0  0  0  0  0  0  0  0  0
   -6.2895   17.5462   30.0746 C   0  0  2  0  0  0  0  0  0  0  0  0
   -5.1660   17.6886   31.1419 C   0  0  2  0  0  0  0  0  0  0  0  0
   -5.3676   16.4963   32.0476 O   0  0  0  0  0  0  0  0  0  0  0  0
   -5.3213   19.1031   31.9310 C   0  0  1  0  0  0  0  0  0  0  0  0
   -4.2821   19.3724   32.9259 O   0  0  0  0  0  0  0  0  0  0  0  0
   -4.1701   15.9843   32.4733 C   0  0  1  0  0  0  0  0  0  0  0  0
   -3.9537   16.1484   33.9146 C   0  0  2  0  0  0  0  0  0  0  0  0
   -3.6877   17.4950   34.1442 O   0  0  0  0  0  0  0  0  0  0  0  0
   -2.8608   15.0898   34.1756 C   0  0  2  0  0  0  0  0  0  0  0  0
   -1.7032   15.7991   34.6720 O   0  0  0  0  0  0  0  0  0  0  0  0
   -2.6164   14.4552   32.8462 C   0  0  2  0  0  0  0  0  0  0  0  0
   -3.9859   14.5865   32.3218 O   0  0  0  0  0  0  0  0  0  0  0  0
   -2.2283   12.9371   32.9852 C   0  0  0  0  0  0  0  0  0  0  0  0
   -1.0946   12.7016   33.8732 O   0  0  0  0  0  0  0  0  0  0  0  0
   -0.6873   15.0065   35.3582 C   0  0  2  0  0  0  0  0  0  0  0  0
   -1.4269   14.0131   36.3975 C   0  0  2  0  0  0  0  0  0  0  0  0
   -2.2406   14.8240   37.3602 N   0  0  0  0  0  0  0  0  0  0  0  0
   -0.3021   13.1419   37.1457 C   0  0  1  0  0  0  0  0  0  0  0  0
    0.4293   12.4044   36.1197 O   0  0  0  0  0  0  0  0  0  0  0  0
    0.6690   14.1133   37.9568 C   0  0  2  0  0  0  0  0  0  0  0  0
   -0.1392   14.8110   38.9816 O   0  0  0  0  0  0  0  0  0  0  0  0
    1.3595   15.1432   36.8964 C   0  0  1  0  0  0  0  0  0  0  0  0
    0.2866   15.8996   36.1538 O   0  0  0  0  0  0  0  0  0  0  0  0
    2.3077   16.1248   37.6618 C   0  0  0  0  0  0  0  0  0  0  0  0
    1.5688   17.0550   38.5707 N   0  0  0  0  0  0  0  0  0  0  0  0
  1  3  1  0  0  0  0
  1  2  1  6  0  0  0
  3  4  1  1  0  0  0
  3  5  1  0  0  0  0
  5  6  1  6  0  0  0
  7  8  1  6  0  0  0
  7  5  1  0  0  0  0
  9 11  1  6  0  0  0
  9  7  1  0  0  0  0
 10  9  1  0  0  0  0
 10  1  1  0  0  0  0
 12 11  1  0  0  0  0
 13 14  1  1  0  0  0
 15 13  1  0  0  0  0
 16 17  1  6  0  0  0
 16 15  1  0  0  0  0
 18  2  1  6  0  0  0
 18 19  1  0  0  0  0
 18 16  1  0  0  0  0
 19 20  1  1  0  0  0
 19 21  1  0  0  0  0
 21 22  1  1  0  0  0
 21 13  1  0  0  0  0
 23 20  1  1  0  0  0
 23 29  1  0  0  0  0
 24 25  1  6  0  0  0
 24 26  1  0  0  0  0
 24 23  1  0  0  0  0
 26 27  1  6  0  0  0
 26 28  1  0  0  0  0
 28 30  1  1  0  0  0
 29 28  1  0  0  0  0
 30 31  1  0  0  0  0
 32 27  1  1  0  0  0
 32 40  1  0  0  0  0
 33 35  1  0  0  0  0
 33 32  1  0  0  0  0
 33 34  1  1  0  0  0
 35 36  1  6  0  0  0
 35 37  1  0  0  0  0
 37 38  1  1  0  0  0
 37 39  1  0  0  0  0
 39 41  1  1  0  0  0
 40 39  1  0  0  0  0
 41 42  1  0  0  0  0
M  END
>  <CHROM.1>
-179.73731999,-178.81658415,-125.04072135,142.99453660,113.24837975,162.39638637
-54.37724049,-45.70326667,-66.86925905,-4.08575198,15.99968864,32.14465830
-3.02677371,-0.87239079,0.34975229

>  <Name>
lig.pdb

>  <RI>
0

>  <Rbt.Current_Directory>
/home/itssahil/PROJECTS/Mol_Feturizer/New_Systems/rnas/4wcr

>  <Rbt.Executable>
rbdock ($Id: //depot/dev/client3/rdock/2013.1/src/exe/rbdock.cxx#4 $)

>  <Rbt.Library>
libRbt.so (2013.1, Build901 2013/11/27)

>  <Rbt.Parameter_File>
/export/apps/rDock/src/rDock_2013.1_src/data/scripts/dock_solv.prm

>  <Rbt.Receptor>
prm/blind_docking_60.prm

>  <SCORE>
1.89807

>  <SCORE.INTER>
-9.18917

>  <SCORE.INTER.CONST>
1

>  <SCORE.INTER.POLAR>
0

>  <SCORE.INTER.ROT>
9

>  <SCORE.INTER.SOLV>
28.1508

>  <SCORE.INTER.VDW>
-25.1097

>  <SCORE.INTER.norm>
-0.21879

>  <SCORE.INTRA>
5.73598

>  <SCORE.INTRA.DIHEDRAL>
5.73001

>  <SCORE.INTRA.DIHEDRAL.0>
16.2863

>  <SCORE.INTRA.POLAR>
0

>  <SCORE.INTRA.POLAR.0>
0

>  <SCORE.INTRA.REPUL>
-0.285438

>  <SCORE.INTRA.REPUL.0>
0.314433

>  <SCORE.INTRA.SOLV>
2.56821

>  <SCORE.INTRA.SOLV.lig_0>
-103.824

>  <SCORE.INTRA.VDW>
3.01406

>  <SCORE.INTRA.VDW.0>
-5.30945

>  <SCORE.INTRA.norm>
0.136571

>  <SCORE.RESTR>
5.35126

>  <SCORE.RESTR.CAVITY>
5.35126

>  <SCORE.RESTR.norm>
0.127411

>  <SCORE.SYSTEM>
0

>  <SCORE.SYSTEM.CONST>
0

>  <SCORE.SYSTEM.DIHEDRAL>
0

>  <SCORE.SYSTEM.SOLV>
0

>  <SCORE.SYSTEM.norm>
0

>  <SCORE.heavy>
42

>  <SCORE.norm>
0.0451921

>  <RMSD>
8.940

$$$$
lig.pdb
 OpenBabel11021811513D
libRbt.so/2013.1/901 2013/11/27
 42 45  0  0  0  0  0  0  0  0999 V2000
   -6.6308   14.8362   30.0657 C   0  0  2  0  0  0  0  0  0  0  0  0
   -5.3994   15.5877   30.3023 O   0  0  0  0  0  0  0  0  0  0  0  0
   -6.1823   13.3415   29.7420 C   0  0  2  0  0  0  0  0  0  0  0  0
   -5.4829   12.7599   30.8909 N   0  0  0  0  0  0  0  0  0  0  0  0
   -5.2725   13.3502   28.4184 C   0  0  1  0  0  0  0  0  0  0  0  0
   -4.8459   12.0160   28.0710 O   0  0  0  0  0  0  0  0  0  0  0  0
   -6.1093   13.9874   27.2958 C   0  0  2  0  0  0  0  0  0  0  0  0
   -5.3521   14.0134   26.1340 O   0  0  0  0  0  0  0  0  0  0  0  0
   -6.5541   15.4610   27.7188 C   0  0  2  0  0  0  0  0  0  0  0  0
   -7.3373   15.4438   28.9188 O   0  0  0  0  0  0  0  0  0  0  0  0
   -7.3923   16.1222   26.6617 C   0  0  0  0  0  0  0  0  0  0  0  0
   -7.6390   17.4645   27.0825 O   0  0  0  0  0  0  0  0  0  0  0  0
   -4.0532   19.4082   32.1365 C   0  0  2  0  0  0  0  0  0  0  0  0
   -4.0450   20.6135   32.9367 N   0  0  0  0  0  0  0  0  0  0  0  0
   -5.3203   19.3877   31.1968 C   0  0  0  0  0  0  0  0  0  0  0  0
   -5.3550   18.0865   30.3203 C   0  0  2  0  0  0  0  0  0  0  0  0
   -6.5447   18.1034   29.4718 N   0  0  0  0  0  0  0  0  0  0  0  0
   -5.3737   16.7594   31.2017 C   0  0  2  0  0  0  0  0  0  0  0  0
   -4.0998   16.7760   32.0952 C   0  0  2  0  0  0  0  0  0  0  0  0
   -4.1889   15.4906   32.8843 O   0  0  0  0  0  0  0  0  0  0  0  0
   -4.1040   18.0938   33.0496 C   0  0  1  0  0  0  0  0  0  0  0  0
   -2.9215   18.2449   33.8988 O   0  0  0  0  0  0  0  0  0  0  0  0
   -3.1664   15.3890   33.7906 C   0  0  1  0  0  0  0  0  0  0  0  0
   -3.6289   15.3885   35.1825 C   0  0  2  0  0  0  0  0  0  0  0  0
   -4.0360   16.6842   35.4856 O   0  0  0  0  0  0  0  0  0  0  0  0
   -2.4098   14.7735   35.9027 C   0  0  2  0  0  0  0  0  0  0  0  0
   -1.9338   15.7667   36.8389 O   0  0  0  0  0  0  0  0  0  0  0  0
   -1.4244   14.4923   34.8166 C   0  0  2  0  0  0  0  0  0  0  0  0
   -2.3983   14.1977   33.7523 O   0  0  0  0  0  0  0  0  0  0  0  0
   -0.5561   13.2186   35.1299 C   0  0  0  0  0  0  0  0  0  0  0  0
    0.2761   13.3558   36.3206 O   0  0  0  0  0  0  0  0  0  0  0  0
   -0.5044   16.0626   36.8179 C   0  0  2  0  0  0  0  0  0  0  0  0
    0.1133   15.7135   38.2708 C   0  0  2  0  0  0  0  0  0  0  0  0
   -0.6029   16.5142   39.3161 N   0  0  0  0  0  0  0  0  0  0  0  0
    1.6872   16.0384   38.2380 C   0  0  1  0  0  0  0  0  0  0  0  0
    2.2783   15.2153   37.1869 O   0  0  0  0  0  0  0  0  0  0  0  0
    1.9025   17.5908   37.9411 C   0  0  2  0  0  0  0  0  0  0  0  0
    1.2914   18.3544   39.0518 O   0  0  0  0  0  0  0  0  0  0  0  0
    1.2214   17.9316   36.4982 C   0  0  1  0  0  0  0  0  0  0  0  0
   -0.2384   17.5535   36.5257 O   0  0  0  0  0  0  0  0  0  0  0  0
    1.3989   19.4538   36.1821 C   0  0  0  0  0  0  0  0  0  0  0  0
    0.7951   19.8486   34.8718 N   0  0  0  0  0  0  0  0  0  0  0  0
  1  3  1  0  0  0  0
  1  2  1  6  0  0  0
  3  4  1  1  0  0  0
  3  5  1  0  0  0  0
  5  6  1  6  0  0  0
  7  8  1  6  0  0  0
  7  5  1  0  0  0  0
  9 11  1  6  0  0  0
  9  7  1  0  0  0  0
 10  9  1  0  0  0  0
 10  1  1  0  0  0  0
 12 11  1  0  0  0  0
 13 14  1  1  0  0  0
 15 13  1  0  0  0  0
 16 17  1  1  0  0  0
 16 15  1  0  0  0  0
 18  2  1  6  0  0  0
 18 19  1  0  0  0  0
 18 16  1  0  0  0  0
 19 20  1  1  0  0  0
 19 21  1  0  0  0  0
 21 22  1  1  0  0  0
 21 13  1  0  0  0  0
 23 20  1  6  0  0  0
 23 29  1  0  0  0  0
 24 25  1  1  0  0  0
 24 26  1  0  0  0  0
 24 23  1  0  0  0  0
 26 27  1  1  0  0  0
 26 28  1  0  0  0  0
 28 30  1  1  0  0  0
 29 28  1  0  0  0  0
 30 31  1  0  0  0  0
 32 27  1  1  0  0  0
 32 40  1  0  0  0  0
 33 35  1  0  0  0  0
 33 32  1  0  0  0  0
 33 34  1  1  0  0  0
 35 36  1  6  0  0  0
 35 37  1  0  0  0  0
 37 38  1  1  0  0  0
 37 39  1  0  0  0  0
 39 41  1  1  0  0  0
 40 39  1  0  0  0  0
 41 42  1  0  0  0  0
M  END
>  <CHROM.1>
-151.09410397,-175.11612490,-102.86573215,-176.36061669,115.70447947,-130.56309063
-63.14159231,-119.45375321,-179.83704578,-3.09364608,16.14715544,33.05855011
-2.89886111,-0.90434522,0.15096998

>  <Name>
lig.pdb

>  <RI>
0

>  <Rbt.Current_Directory>
/home/itssahil/PROJECTS/Mol_Feturizer/New_Systems/rnas/4wcr

>  <Rbt.Executable>
rbdock ($Id: //depot/dev/client3/rdock/2013.1/src/exe/rbdock.cxx#4 $)

>  <Rbt.Library>
libRbt.so (2013.1, Build901 2013/11/27)

>  <Rbt.Parameter_File>
/export/apps/rDock/src/rDock_2013.1_src/data/scripts/dock_solv.prm

>  <Rbt.Receptor>
prm/blind_docking_60.prm

>  <SCORE>
1.16346

>  <SCORE.INTER>
-12.0405

>  <SCORE.INTER.CONST>
1

>  <SCORE.INTER.POLAR>
0

>  <SCORE.INTER.ROT>
9

>  <SCORE.INTER.SOLV>
34.2202

>  <SCORE.INTER.VDW>
-29.0337

>  <SCORE.INTER.norm>
-0.286679

>  <SCORE.INTRA>
10.4829

>  <SCORE.INTRA.DIHEDRAL>
14.4134

>  <SCORE.INTRA.DIHEDRAL.0>
16.2863

>  <SCORE.INTRA.POLAR>
0

>  <SCORE.INTRA.POLAR.0>
0

>  <SCORE.INTRA.REPUL>
0.0901929

>  <SCORE.INTRA.REPUL.0>
0.314433

>  <SCORE.INTRA.SOLV>
-0.0404976

>  <SCORE.INTRA.SOLV.lig_0>
-103.824

>  <SCORE.INTRA.VDW>
2.84552

>  <SCORE.INTRA.VDW.0>
-5.30945

>  <SCORE.INTRA.norm>
0.249594

>  <SCORE.RESTR>
2.72102

>  <SCORE.RESTR.CAVITY>
2.72102

>  <SCORE.RESTR.norm>
0.0647861

>  <SCORE.SYSTEM>
0

>  <SCORE.SYSTEM.CONST>
0

>  <SCORE.SYSTEM.DIHEDRAL>
0

>  <SCORE.SYSTEM.SOLV>
0

>  <SCORE.SYSTEM.norm>
0

>  <SCORE.heavy>
42

>  <SCORE.norm>
0.0277015

>  <RMSD>
8.952

$$$$
lig.pdb
 OpenBabel11021811513D
libRbt.so/2013.1/901 2013/11/27
 42 45  0  0  0  0  0  0  0  0999 V2000
   -1.0856   18.1348   36.2796 C   0  0  2  0  0  0  0  0  0  0  0  0
   -1.4696   17.3670   35.0963 O   0  0  0  0  0  0  0  0  0  0  0  0
   -2.1771   19.2857   36.4344 C   0  0  2  0  0  0  0  0  0  0  0  0
   -3.5035   18.7028   36.6548 N   0  0  0  0  0  0  0  0  0  0  0  0
   -2.1336   20.2183   35.1274 C   0  0  1  0  0  0  0  0  0  0  0  0
   -3.0977   21.2883   35.2189 O   0  0  0  0  0  0  0  0  0  0  0  0
   -0.6986   20.7582   35.0019 C   0  0  2  0  0  0  0  0  0  0  0  0
   -0.6230   21.5690   33.8791 O   0  0  0  0  0  0  0  0  0  0  0  0
    0.3322   19.5437   34.8978 C   0  0  2  0  0  0  0  0  0  0  0  0
    0.2609   18.7003   36.0543 O   0  0  0  0  0  0  0  0  0  0  0  0
    1.7538   20.0182   34.7923 C   0  0  0  0  0  0  0  0  0  0  0  0
    2.0865   20.6636   36.0221 O   0  0  0  0  0  0  0  0  0  0  0  0
   -1.8875   13.0448   34.1387 C   0  0  2  0  0  0  0  0  0  0  0  0
   -2.2241   11.6430   34.2599 N   0  0  0  0  0  0  0  0  0  0  0  0
   -1.0026   13.4996   35.3631 C   0  0  0  0  0  0  0  0  0  0  0  0
   -0.6270   15.0196   35.2575 C   0  0  2  0  0  0  0  0  0  0  0  0
    0.1845   15.4012   36.4114 N   0  0  0  0  0  0  0  0  0  0  0  0
   -1.9110   15.9611   35.2011 C   0  0  2  0  0  0  0  0  0  0  0  0
   -2.7541   15.5252   33.9678 C   0  0  2  0  0  0  0  0  0  0  0  0
   -3.9366   16.4656   33.9813 O   0  0  0  0  0  0  0  0  0  0  0  0
   -3.1967   13.9666   34.1164 C   0  0  1  0  0  0  0  0  0  0  0  0
   -3.9511   13.4283   32.9836 O   0  0  0  0  0  0  0  0  0  0  0  0
   -4.1376   17.0330   32.7505 C   0  0  1  0  0  0  0  0  0  0  0  0
   -5.2832   16.4626   32.0340 C   0  0  2  0  0  0  0  0  0  0  0  0
   -4.9156   15.1895   31.6090 O   0  0  0  0  0  0  0  0  0  0  0  0
   -5.5695   17.5702   30.9974 C   0  0  2  0  0  0  0  0  0  0  0  0
   -5.4005   16.9733   29.6918 O   0  0  0  0  0  0  0  0  0  0  0  0
   -4.5551   18.6294   31.2780 C   0  0  2  0  0  0  0  0  0  0  0  0
   -4.4573   18.4143   32.7312 O   0  0  0  0  0  0  0  0  0  0  0  0
   -5.1131   20.0687   30.9754 C   0  0  0  0  0  0  0  0  0  0  0  0
   -5.9826   20.1253   29.8050 O   0  0  0  0  0  0  0  0  0  0  0  0
   -6.4900   16.1331   29.2038 C   0  0  2  0  0  0  0  0  0  0  0  0
   -5.9399   15.2445   27.9702 C   0  0  2  0  0  0  0  0  0  0  0  0
   -5.4207   16.1558   26.8994 N   0  0  0  0  0  0  0  0  0  0  0  0
   -7.1440   14.3201   27.4415 C   0  0  1  0  0  0  0  0  0  0  0  0
   -7.5738   13.4857   28.5599 O   0  0  0  0  0  0  0  0  0  0  0  0
   -8.3358   15.2456   26.9244 C   0  0  2  0  0  0  0  0  0  0  0  0
   -7.8284   16.0463   25.7879 O   0  0  0  0  0  0  0  0  0  0  0  0
   -8.8359   16.1736   28.1697 C   0  0  1  0  0  0  0  0  0  0  0  0
   -7.6759   16.9798   28.6978 O   0  0  0  0  0  0  0  0  0  0  0  0
   -9.9959   17.1092   27.6926 C   0  0  0  0  0  0  0  0  0  0  0  0
  -10.1349   18.3371   28.5353 N   0  0  0  0  0  0  0  0  0  0  0  0
  1  3  1  0  0  0  0
  1  2  1  6  0  0  0
  3  4  1  6  0  0  0
  3  5  1  0  0  0  0
  5  6  1  1  0  0  0
  7  8  1  6  0  0  0
  7  5  1  0  0  0  0
  9 11  1  1  0  0  0
  9  7  1  0  0  0  0
 10  9  1  0  0  0  0
 10  1  1  0  0  0  0
 12 11  1  0  0  0  0
 13 14  1  1  0  0  0
 15 13  1  0  0  0  0
 16 17  1  1  0  0  0
 16 15  1  0  0  0  0
 18  2  1  6  0  0  0
 18 19  1  0  0  0  0
 18 16  1  0  0  0  0
 19 20  1  1  0  0  0
 19 21  1  0  0  0  0
 21 22  1  6  0  0  0
 21 13  1  0  0  0  0
 23 20  1  1  0  0  0
 23 29  1  0  0  0  0
 24 25  1  6  0  0  0
 24 26  1  0  0  0  0
 24 23  1  0  0  0  0
 26 27  1  6  0  0  0
 26 28  1  0  0  0  0
 28 30  1  1  0  0  0
 29 28  1  0  0  0  0
 30 31  1  0  0  0  0
 32 27  1  6  0  0  0
 32 40  1  0  0  0  0
 33 35  1  0  0  0  0
 33 32  1  0  0  0  0
 33 34  1  6  0  0  0
 35 36  1  1  0  0  0
 35 37  1  0  0  0  0
 37 38  1  6  0  0  0
 37 39  1  0  0  0  0
 39 41  1  6  0  0  0
 40 39  1  0  0  0  0
 41 42  1  0  0  0  0
M  END
>  <CHROM.1>
-113.80061395,65.73568071,-82.97205818,130.52535436,105.00941239,77.79464798
-37.21104770,-163.84033895,-156.35125025,-3.87098285,17.08150638,32.34105712
0.19456786,-0.81545997,-0.02628925

>  <Name>
lig.pdb

>  <RI>
0

>  <Rbt.Current_Directory>
/home/itssahil/PROJECTS/Mol_Feturizer/New_Systems/rnas/4wcr

>  <Rbt.Executable>
rbdock ($Id: //depot/dev/client3/rdock/2013.1/src/exe/rbdock.cxx#4 $)

>  <Rbt.Library>
libRbt.so (2013.1, Build901 2013/11/27)

>  <Rbt.Parameter_File>
/export/apps/rDock/src/rDock_2013.1_src/data/scripts/dock_solv.prm

>  <Rbt.Receptor>
prm/blind_docking_100.prm

>  <SCORE>
5.31484

>  <SCORE.INTER>
-2.57265

>  <SCORE.INTER.CONST>
1

>  <SCORE.INTER.POLAR>
0

>  <SCORE.INTER.ROT>
9

>  <SCORE.INTER.SOLV>
32.7256

>  <SCORE.INTER.VDW>
-22.2236

>  <SCORE.INTER.norm>
-0.0612536

>  <SCORE.INTRA>
4.57933

>  <SCORE.INTRA.DIHEDRAL>
12.1963

>  <SCORE.INTRA.DIHEDRAL.0>
16.2863

>  <SCORE.INTRA.POLAR>
0

>  <SCORE.INTRA.POLAR.0>
0

>  <SCORE.INTRA.REPUL>
-0.314433

>  <SCORE.INTRA.REPUL.0>
0.314433

>  <SCORE.INTRA.SOLV>
-2.36436

>  <SCORE.INTRA.SOLV.lig_0>
-103.824

>  <SCORE.INTRA.VDW>
1.23555

>  <SCORE.INTRA.VDW.0>
-5.30945

>  <SCORE.INTRA.norm>
0.109032

>  <SCORE.RESTR>
3.30815

>  <SCORE.RESTR.CAVITY>
3.30815

>  <SCORE.RESTR.norm>
0.0787656

>  <SCORE.SYSTEM>
0

>  <SCORE.SYSTEM.CONST>
0

>  <SCORE.SYSTEM.DIHEDRAL>
0

>  <SCORE.SYSTEM.SOLV>
0

>  <SCORE.SYSTEM.norm>
0

>  <SCORE.heavy>
42

>  <SCORE.norm>
0.126544

>  <RMSD>
8.957

$$$$
lig.pdb
 OpenBabel11021811513D
libRbt.so/2013.1/901 2013/11/27
 42 45  0  0  0  0  0  0  0  0999 V2000
   -4.9408    8.3345   34.1591 C   0  0  2  0  0  0  0  0  0  0  0  0
   -3.5000    8.2813   34.4006 O   0  0  0  0  0  0  0  0  0  0  0  0
   -5.1190    8.5881   32.5958 C   0  0  2  0  0  0  0  0  0  0  0  0
   -4.5489    7.4751   31.8315 N   0  0  0  0  0  0  0  0  0  0  0  0
   -4.4392    9.9938   32.2195 C   0  0  1  0  0  0  0  0  0  0  0  0
   -4.5811   10.2807   30.8123 O   0  0  0  0  0  0  0  0  0  0  0  0
   -5.1120   11.0708   33.0877 C   0  0  2  0  0  0  0  0  0  0  0  0
   -4.5467   12.3019   32.7900 O   0  0  0  0  0  0  0  0  0  0  0  0
   -4.9261   10.7176   34.6334 C   0  0  2  0  0  0  0  0  0  0  0  0
   -5.5075    9.4466   34.9501 O   0  0  0  0  0  0  0  0  0  0  0  0
   -5.5834   11.7314   35.5264 C   0  0  0  0  0  0  0  0  0  0  0  0
   -6.9935   11.6398   35.3197 O   0  0  0  0  0  0  0  0  0  0  0  0
   -3.3783    6.9703   38.6478 C   0  0  2  0  0  0  0  0  0  0  0  0
   -2.8930    6.4336   39.9006 N   0  0  0  0  0  0  0  0  0  0  0  0
   -3.1794    5.9163   37.4909 C   0  0  0  0  0  0  0  0  0  0  0  0
   -3.6947    6.4768   36.1187 C   0  0  2  0  0  0  0  0  0  0  0  0
   -3.4861    5.4751   35.0752 N   0  0  0  0  0  0  0  0  0  0  0  0
   -2.9529    7.8211   35.6933 C   0  0  2  0  0  0  0  0  0  0  0  0
   -3.1894    8.8617   36.8259 C   0  0  2  0  0  0  0  0  0  0  0  0
   -2.4684   10.0987   36.3434 O   0  0  0  0  0  0  0  0  0  0  0  0
   -2.5924    8.3022   38.2323 C   0  0  1  0  0  0  0  0  0  0  0  0
   -2.8073    9.1769   39.3859 O   0  0  0  0  0  0  0  0  0  0  0  0
   -2.4819   11.0868   37.2925 C   0  0  1  0  0  0  0  0  0  0  0  0
   -1.7177   12.2748   36.8974 C   0  0  2  0  0  0  0  0  0  0  0  0
   -0.3679   11.9445   36.9724 O   0  0  0  0  0  0  0  0  0  0  0  0
   -2.3065   13.3391   37.8480 C   0  0  2  0  0  0  0  0  0  0  0  0
   -1.2142   13.8191   38.6642 O   0  0  0  0  0  0  0  0  0  0  0  0
   -3.3396   12.6124   38.6445 C   0  0  2  0  0  0  0  0  0  0  0  0
   -3.7433   11.6570   37.5995 O   0  0  0  0  0  0  0  0  0  0  0  0
   -4.5467   13.5457   39.0268 C   0  0  0  0  0  0  0  0  0  0  0  0
   -5.2797   14.0570   37.8733 O   0  0  0  0  0  0  0  0  0  0  0  0
   -0.1113   14.4775   37.9705 C   0  0  2  0  0  0  0  0  0  0  0  0
    1.0176   14.8710   39.0590 C   0  0  2  0  0  0  0  0  0  0  0  0
    0.4089   15.7600   40.1010 N   0  0  0  0  0  0  0  0  0  0  0  0
    2.2295   15.5916   38.2869 C   0  0  1  0  0  0  0  0  0  0  0  0
    2.7378   14.6453   37.2982 O   0  0  0  0  0  0  0  0  0  0  0  0
    1.6961   16.9222   37.5872 C   0  0  2  0  0  0  0  0  0  0  0  0
    1.2133   17.8318   38.6500 O   0  0  0  0  0  0  0  0  0  0  0  0
    0.5191   16.5072   36.5363 C   0  0  1  0  0  0  0  0  0  0  0  0
   -0.5748   15.7696   37.2670 O   0  0  0  0  0  0  0  0  0  0  0  0
   -0.0406   17.7933   35.8425 C   0  0  0  0  0  0  0  0  0  0  0  0
   -1.1840   17.5053   34.9223 N   0  0  0  0  0  0  0  0  0  0  0  0
  1  3  1  0  0  0  0
  1  2  1  6  0  0  0
  3  4  1  6  0  0  0
  3  5  1  0  0  0  0
  5  6  1  6  0  0  0
  7  8  1  1  0  0  0
  7  5  1  0  0  0  0
  9 11  1  1  0  0  0
  9  7  1  0  0  0  0
 10  9  1  0  0  0  0
 10  1  1  0  0  0  0
 12 11  1  0  0  0  0
 13 14  1  1  0  0  0
 15 13  1  0  0  0  0
 16 17  1  6  0  0  0
 16 15  1  0  0  0  0
 18  2  1  6  0  0  0
 18 19  1  0  0  0  0
 18 16  1  0  0  0  0
 19 20  1  6  0  0  0
 19 21  1  0  0  0  0
 21 22  1  1  0  0  0
 21 13  1  0  0  0  0
 23 20  1  6  0  0  0
 23 29  1  0  0  0  0
 24 25  1  1  0  0  0
 24 26  1  0  0  0  0
 24 23  1  0  0  0  0
 26 27  1  1  0  0  0
 26 28  1  0  0  0  0
 28 30  1  6  0  0  0
 29 28  1  0  0  0  0
 30 31  1  0  0  0  0
 32 27  1  1  0  0  0
 32 40  1  0  0  0  0
 33 35  1  0  0  0  0
 33 32  1  0  0  0  0
 33 34  1  1  0  0  0
 35 36  1  6  0  0  0
 35 37  1  0  0  0  0
 37 38  1  1  0  0  0
 37 39  1  0  0  0  0
 39 41  1  1  0  0  0
 40 39  1  0  0  0  0
 41 42  1  0  0  0  0
M  END
>  <CHROM.1>
-168.87083848,66.34885853,46.79019642,-174.67283463,176.28942913,62.04826691
62.40934570,-177.54053321,-176.50796325,-2.57251218,11.64265508,36.43164721
2.58755074,0.95178519,2.57860519

>  <Name>
lig.pdb

>  <RI>
0

>  <Rbt.Current_Directory>
/home/itssahil/PROJECTS/Mol_Feturizer/New_Systems/rnas/4wcr

>  <Rbt.Executable>
rbdock ($Id: //depot/dev/client3/rdock/2013.1/src/exe/rbdock.cxx#4 $)

>  <Rbt.Library>
libRbt.so (2013.1, Build901 2013/11/27)

>  <Rbt.Parameter_File>
/export/apps/rDock/src/rDock_2013.1_src/data/scripts/dock_solv.prm

>  <Rbt.Receptor>
prm/pocket_docking_5.prm

>  <SCORE>
-9.11861

>  <SCORE.INTER>
-0.462687

>  <SCORE.INTER.CONST>
1

>  <SCORE.INTER.POLAR>
0

>  <SCORE.INTER.ROT>
9

>  <SCORE.INTER.SOLV>
19.7409

>  <SCORE.INTER.VDW>
-16.4887

>  <SCORE.INTER.norm>
-0.0110164

>  <SCORE.INTRA>
-8.66045

>  <SCORE.INTRA.DIHEDRAL>
-13.861

>  <SCORE.INTRA.DIHEDRAL.0>
16.2863

>  <SCORE.INTRA.POLAR>
0

>  <SCORE.INTRA.POLAR.0>
0

>  <SCORE.INTRA.REPUL>
-0.314433

>  <SCORE.INTRA.REPUL.0>
0.314433

>  <SCORE.INTRA.SOLV>
-3.45643

>  <SCORE.INTRA.SOLV.lig_0>
-103.824

>  <SCORE.INTRA.VDW>
1.57045

>  <SCORE.INTRA.VDW.0>
-5.30945

>  <SCORE.INTRA.norm>
-0.206201

>  <SCORE.RESTR>
0.00452191

>  <SCORE.RESTR.CAVITY>
0.00452191

>  <SCORE.RESTR.norm>
0.000107665

>  <SCORE.SYSTEM>
0

>  <SCORE.SYSTEM.CONST>
0

>  <SCORE.SYSTEM.DIHEDRAL>
0

>  <SCORE.SYSTEM.SOLV>
0

>  <SCORE.SYSTEM.norm>
0

>  <SCORE.heavy>
42

>  <SCORE.norm>
-0.21711

>  <RMSD>
8.979

$$$$
lig.pdb
 OpenBabel11021811513D
libRbt.so/2013.1/901 2013/11/27
 42 45  0  0  0  0  0  0  0  0999 V2000
   -1.5525   18.4345   36.5091 C   0  0  2  0  0  0  0  0  0  0  0  0
   -2.1434   17.6272   35.4432 O   0  0  0  0  0  0  0  0  0  0  0  0
   -2.4791   19.7230   36.6546 C   0  0  2  0  0  0  0  0  0  0  0  0
   -3.8353   19.3325   37.0492 N   0  0  0  0  0  0  0  0  0  0  0  0
   -2.4600   20.5325   35.2674 C   0  0  1  0  0  0  0  0  0  0  0  0
   -3.2768   21.7196   35.3460 O   0  0  0  0  0  0  0  0  0  0  0  0
   -0.9919   20.8745   34.9609 C   0  0  2  0  0  0  0  0  0  0  0  0
   -0.9366   21.5746   33.7649 O   0  0  0  0  0  0  0  0  0  0  0  0
   -0.1275   19.5350   34.8773 C   0  0  2  0  0  0  0  0  0  0  0  0
   -0.1789   18.8049   36.1094 O   0  0  0  0  0  0  0  0  0  0  0  0
    1.3217   19.8157   34.5979 C   0  0  0  0  0  0  0  0  0  0  0  0
    1.3883   20.5979   33.4048 O   0  0  0  0  0  0  0  0  0  0  0  0
   -1.0913   13.4084   34.5120 C   0  0  2  0  0  0  0  0  0  0  0  0
   -1.0009   11.9677   34.6083 N   0  0  0  0  0  0  0  0  0  0  0  0
   -0.5692   14.0764   35.8424 C   0  0  0  0  0  0  0  0  0  0  0  0
   -0.6610   15.6410   35.7651 C   0  0  2  0  0  0  0  0  0  0  0  0
   -0.1758   16.2190   37.0166 N   0  0  0  0  0  0  0  0  0  0  0  0
   -2.1482   16.1514   35.5083 C   0  0  2  0  0  0  0  0  0  0  0  0
   -2.6353   15.5143   34.1747 C   0  0  2  0  0  0  0  0  0  0  0  0
   -4.0365   16.0524   34.0018 O   0  0  0  0  0  0  0  0  0  0  0  0
   -2.6012   13.8913   34.2857 C   0  0  1  0  0  0  0  0  0  0  0  0
   -2.9880   13.1808   33.0660 O   0  0  0  0  0  0  0  0  0  0  0  0
   -4.1564   16.7696   32.8405 C   0  0  1  0  0  0  0  0  0  0  0  0
   -5.3777   16.4536   32.0924 C   0  0  2  0  0  0  0  0  0  0  0  0
   -5.2064   15.1919   31.5308 O   0  0  0  0  0  0  0  0  0  0  0  0
   -5.5003   17.6942   31.1818 C   0  0  2  0  0  0  0  0  0  0  0  0
   -5.4285   17.2194   29.8184 O   0  0  0  0  0  0  0  0  0  0  0  0
   -4.3377   18.5561   31.5496 C   0  0  2  0  0  0  0  0  0  0  0  0
   -4.2662   18.1772   32.9705 O   0  0  0  0  0  0  0  0  0  0  0  0
   -4.6759   20.0858   31.4087 C   0  0  0  0  0  0  0  0  0  0  0  0
   -5.4178   20.4121   30.1953 O   0  0  0  0  0  0  0  0  0  0  0  0
   -6.5409   16.4013   29.3446 C   0  0  2  0  0  0  0  0  0  0  0  0
   -6.0363   15.5334   28.0773 C   0  0  2  0  0  0  0  0  0  0  0  0
   -5.5379   16.4617   27.0112 N   0  0  0  0  0  0  0  0  0  0  0  0
   -7.2653   14.6331   27.5644 C   0  0  1  0  0  0  0  0  0  0  0  0
   -7.6720   13.7798   28.6771 O   0  0  0  0  0  0  0  0  0  0  0  0
   -8.4610   15.5820   27.1015 C   0  0  2  0  0  0  0  0  0  0  0  0
   -7.9776   16.4012   25.9677 O   0  0  0  0  0  0  0  0  0  0  0  0
   -8.9149   16.4884   28.3799 C   0  0  1  0  0  0  0  0  0  0  0  0
   -7.7312   17.2710   28.8910 O   0  0  0  0  0  0  0  0  0  0  0  0
  -10.0776   17.4461   27.9562 C   0  0  0  0  0  0  0  0  0  0  0  0
  -10.4002   18.4654   29.0022 N   0  0  0  0  0  0  0  0  0  0  0  0
  1  3  1  0  0  0  0
  1  2  1  6  0  0  0
  3  4  1  6  0  0  0
  3  5  1  0  0  0  0
  5  6  1  1  0  0  0
  7  8  1  6  0  0  0
  7  5  1  0  0  0  0
  9 11  1  1  0  0  0
  9  7  1  0  0  0  0
 10  9  1  0  0  0  0
 10  1  1  0  0  0  0
 12 11  1  0  0  0  0
 13 14  1  1  0  0  0
 15 13  1  0  0  0  0
 16 17  1  1  0  0  0
 16 15  1  0  0  0  0
 18  2  1  6  0  0  0
 18 19  1  0  0  0  0
 18 16  1  0  0  0  0
 19 20  1  1  0  0  0
 19 21  1  0  0  0  0
 21 22  1  6  0  0  0
 21 13  1  0  0  0  0
 23 20  1  1  0  0  0
 23 29  1  0  0  0  0
 24 25  1  6  0  0  0
 24 26  1  0  0  0  0
 24 23  1  0  0  0  0
 26 27  1  6  0  0  0
 26 28  1  0  0  0  0
 28 30  1  1  0  0  0
 29 28  1  0  0  0  0
 30 31  1  0  0  0  0
 32 27  1  6  0  0  0
 32 40  1  0  0  0  0
 33 35  1  0  0  0  0
 33 32  1  0  0  0  0
 33 34  1  6  0  0  0
 35 36  1  1  0  0  0
 35 37  1  0  0  0  0
 37 38  1  6  0  0  0
 37 39  1  0  0  0  0
 39 41  1  6  0  0  0
 40 39  1  0  0  0  0
 41 42  1  0  0  0  0
M  END
>  <CHROM.1>
-143.24414765,-55.20675939,-52.93316384,119.95160116,135.49595814,67.34521483
-43.10509285,-158.62612250,-170.55208912,-3.91391762,17.26279648,32.45961944
0.20420673,-0.81419697,0.03642605

>  <Name>
lig.pdb

>  <RI>
0

>  <Rbt.Current_Directory>
/home/itssahil/PROJECTS/Mol_Feturizer/New_Systems/rnas/4wcr

>  <Rbt.Executable>
rbdock ($Id: //depot/dev/client3/rdock/2013.1/src/exe/rbdock.cxx#4 $)

>  <Rbt.Library>
libRbt.so (2013.1, Build901 2013/11/27)

>  <Rbt.Parameter_File>
/export/apps/rDock/src/rDock_2013.1_src/data/scripts/dock_solv.prm

>  <Rbt.Receptor>
prm/blind_docking_100.prm

>  <SCORE>
9.54775

>  <SCORE.INTER>
4.20849

>  <SCORE.INTER.CONST>
1

>  <SCORE.INTER.POLAR>
0

>  <SCORE.INTER.ROT>
9

>  <SCORE.INTER.SOLV>
33.6918

>  <SCORE.INTER.VDW>
-18.0249

>  <SCORE.INTER.norm>
0.100202

>  <SCORE.INTRA>
2.34191

>  <SCORE.INTRA.DIHEDRAL>
6.02062

>  <SCORE.INTRA.DIHEDRAL.0>
16.2863

>  <SCORE.INTRA.POLAR>
0

>  <SCORE.INTRA.POLAR.0>
0

>  <SCORE.INTRA.REPUL>
-0.274257

>  <SCORE.INTRA.REPUL.0>
0.314433

>  <SCORE.INTRA.SOLV>
-3.11101

>  <SCORE.INTRA.SOLV.lig_0>
-103.824

>  <SCORE.INTRA.VDW>
2.25839

>  <SCORE.INTRA.VDW.0>
-5.30945

>  <SCORE.INTRA.norm>
0.0557598

>  <SCORE.RESTR>
2.99735

>  <SCORE.RESTR.CAVITY>
2.99735

>  <SCORE.RESTR.norm>
0.0713654

>  <SCORE.SYSTEM>
0

>  <SCORE.SYSTEM.CONST>
0

>  <SCORE.SYSTEM.DIHEDRAL>
0

>  <SCORE.SYSTEM.SOLV>
0

>  <SCORE.SYSTEM.norm>
0

>  <SCORE.heavy>
42

>  <SCORE.norm>
0.227327

>  <RMSD>
8.980

$$$$
lig.pdb
 OpenBabel11021811513D
libRbt.so/2013.1/901 2013/11/27
 42 45  0  0  0  0  0  0  0  0999 V2000
   -0.3723   19.0109   36.0948 C   0  0  2  0  0  0  0  0  0  0  0  0
   -0.4153   19.3438   34.6720 O   0  0  0  0  0  0  0  0  0  0  0  0
    0.3684   17.6035   36.1984 C   0  0  2  0  0  0  0  0  0  0  0  0
    1.7398   17.7118   35.6931 N   0  0  0  0  0  0  0  0  0  0  0  0
   -0.4892   16.5079   35.3959 C   0  0  1  0  0  0  0  0  0  0  0  0
    0.1317   15.2071   35.4661 O   0  0  0  0  0  0  0  0  0  0  0  0
   -1.8996   16.4960   36.0100 C   0  0  2  0  0  0  0  0  0  0  0  0
   -2.6713   15.5595   35.3384 O   0  0  0  0  0  0  0  0  0  0  0  0
   -2.5502   17.9500   35.9062 C   0  0  2  0  0  0  0  0  0  0  0  0
   -1.7591   18.9245   36.5977 O   0  0  0  0  0  0  0  0  0  0  0  0
   -3.9249   17.9971   36.5106 C   0  0  0  0  0  0  0  0  0  0  0  0
   -3.7907   17.7440   37.9098 O   0  0  0  0  0  0  0  0  0  0  0  0
   -3.5086   22.5295   34.4373 C   0  0  2  0  0  0  0  0  0  0  0  0
   -4.2042   23.7345   34.0408 N   0  0  0  0  0  0  0  0  0  0  0  0
   -2.0516   22.8795   34.9304 C   0  0  0  0  0  0  0  0  0  0  0  0
   -1.2735   21.5871   35.3626 C   0  0  2  0  0  0  0  0  0  0  0  0
    0.0704   21.9536   35.8046 N   0  0  0  0  0  0  0  0  0  0  0  0
   -1.1518   20.5262   34.1803 C   0  0  2  0  0  0  0  0  0  0  0  0
   -2.5965   20.1628   33.7303 C   0  0  2  0  0  0  0  0  0  0  0  0
   -2.3930   19.1541   32.6240 O   0  0  0  0  0  0  0  0  0  0  0  0
   -3.3750   21.4975   33.2202 C   0  0  1  0  0  0  0  0  0  0  0  0
   -4.7674   21.2858   32.8221 O   0  0  0  0  0  0  0  0  0  0  0  0
   -3.3390   18.1641   32.6706 C   0  0  1  0  0  0  0  0  0  0  0  0
   -4.2811   18.2150   31.5477 C   0  0  2  0  0  0  0  0  0  0  0  0
   -5.1215   19.3039   31.7593 O   0  0  0  0  0  0  0  0  0  0  0  0
   -4.8535   16.7814   31.5720 C   0  0  2  0  0  0  0  0  0  0  0  0
   -6.2747   16.9037   31.8060 O   0  0  0  0  0  0  0  0  0  0  0  0
   -4.1443   16.1045   32.6982 C   0  0  2  0  0  0  0  0  0  0  0  0
   -2.8685   16.8296   32.5785 O   0  0  0  0  0  0  0  0  0  0  0  0
   -3.9295   14.5717   32.4172 C   0  0  0  0  0  0  0  0  0  0  0  0
   -3.3141   13.8534   33.5283 O   0  0  0  0  0  0  0  0  0  0  0  0
   -7.1123   17.1940   30.6462 C   0  0  2  0  0  0  0  0  0  0  0  0
   -6.9986   15.9589   29.6090 C   0  0  2  0  0  0  0  0  0  0  0  0
   -5.5627   15.7707   29.2223 N   0  0  0  0  0  0  0  0  0  0  0  0
   -7.9262   16.2847   28.3372 C   0  0  1  0  0  0  0  0  0  0  0  0
   -9.2907   16.4553   28.8278 O   0  0  0  0  0  0  0  0  0  0  0  0
   -7.4021   17.6119   27.6243 C   0  0  2  0  0  0  0  0  0  0  0  0
   -6.0256   17.3563   27.1447 O   0  0  0  0  0  0  0  0  0  0  0  0
   -7.4716   18.8314   28.7060 C   0  0  1  0  0  0  0  0  0  0  0  0
   -6.6533   18.4763   29.9221 O   0  0  0  0  0  0  0  0  0  0  0  0
   -6.9470   20.1487   28.0442 C   0  0  0  0  0  0  0  0  0  0  0  0
   -6.2586   21.0526   29.0170 N   0  0  0  0  0  0  0  0  0  0  0  0
  1  3  1  0  0  0  0
  1  2  1  6  0  0  0
  3  4  1  6  0  0  0
  3  5  1  0  0  0  0
  5  6  1  1  0  0  0
  7  8  1  6  0  0  0
  7  5  1  0  0  0  0
  9 11  1  1  0  0  0
  9  7  1  0  0  0  0
 10  9  1  0  0  0  0
 10  1  1  0  0  0  0
 12 11  1  0  0  0  0
 13 14  1  6  0  0  0
 15 13  1  0  0  0  0
 16 17  1  6  0  0  0
 16 15  1  0  0  0  0
 18  2  1  1  0  0  0
 18 19  1  0  0  0  0
 18 16  1  0  0  0  0
 19 20  1  6  0  0  0
 19 21  1  0  0  0  0
 21 22  1  1  0  0  0
 21 13  1  0  0  0  0
 23 20  1  6  0  0  0
 23 29  1  0  0  0  0
 24 25  1  1  0  0  0
 24 26  1  0  0  0  0
 24 23  1  0  0  0  0
 26 27  1  1  0  0  0
 26 28  1  0  0  0  0
 28 30  1  6  0  0  0
 29 28  1  0  0  0  0
 30 31  1  0  0  0  0
 32 27  1  1  0  0  0
 32 40  1  0  0  0  0
 33 35  1  0  0  0  0
 33 32  1  0  0  0  0
 33 34  1  6  0  0  0
 35 36  1  1  0  0  0
 35 37  1  0  0  0  0
 37 38  1  1  0  0  0
 37 39  1  0  0  0  0
 39 41  1  6  0  0  0
 40 39  1  0  0  0  0
 41 42  1  0  0  0  0
M  END
>  <CHROM.1>
173.89349739,64.74109370,24.09787775,141.95757928,111.06395317,82.26506409
-176.38634140,63.21019999,-147.61311724,-3.74083710,18.32697035,32.87567456
-0.15118240,0.84832170,-3.13904023

>  <Name>
lig.pdb

>  <RI>
0

>  <Rbt.Current_Directory>
/home/itssahil/PROJECTS/Mol_Feturizer/New_Systems/rnas/4wcr

>  <Rbt.Executable>
rbdock ($Id: //depot/dev/client3/rdock/2013.1/src/exe/rbdock.cxx#4 $)

>  <Rbt.Library>
libRbt.so (2013.1, Build901 2013/11/27)

>  <Rbt.Parameter_File>
/export/apps/rDock/src/rDock_2013.1_src/data/scripts/dock_solv.prm

>  <Rbt.Receptor>
prm/blind_docking_100.prm

>  <SCORE>
20.3595

>  <SCORE.INTER>
11.3817

>  <SCORE.INTER.CONST>
1

>  <SCORE.INTER.POLAR>
0

>  <SCORE.INTER.ROT>
9

>  <SCORE.INTER.SOLV>
40.6261

>  <SCORE.INTER.VDW>
-15.5542

>  <SCORE.INTER.norm>
0.270993

>  <SCORE.INTRA>
5.54553

>  <SCORE.INTRA.DIHEDRAL>
6.19591

>  <SCORE.INTRA.DIHEDRAL.0>
16.2863

>  <SCORE.INTRA.POLAR>
0

>  <SCORE.INTRA.POLAR.0>
0

>  <SCORE.INTRA.REPUL>
-0.232243

>  <SCORE.INTRA.REPUL.0>
0.314433

>  <SCORE.INTRA.SOLV>
1.58959

>  <SCORE.INTRA.SOLV.lig_0>
-103.824

>  <SCORE.INTRA.VDW>
2.814

>  <SCORE.INTRA.VDW.0>
-5.30945

>  <SCORE.INTRA.norm>
0.132037

>  <SCORE.RESTR>
3.43229

>  <SCORE.RESTR.CAVITY>
3.43229

>  <SCORE.RESTR.norm>
0.0817211

>  <SCORE.SYSTEM>
0

>  <SCORE.SYSTEM.CONST>
0

>  <SCORE.SYSTEM.DIHEDRAL>
0

>  <SCORE.SYSTEM.SOLV>
0

>  <SCORE.SYSTEM.norm>
0

>  <SCORE.heavy>
42

>  <SCORE.norm>
0.48475

>  <RMSD>
8.983

$$$$
lig.pdb
 OpenBabel11021811513D
libRbt.so/2013.1/901 2013/11/27
 42 45  0  0  0  0  0  0  0  0999 V2000
    1.1406    7.8384   36.6147 C   0  0  2  0  0  0  0  0  0  0  0  0
   -0.3116    7.9860   36.6953 O   0  0  0  0  0  0  0  0  0  0  0  0
    1.6377    7.5325   38.0977 C   0  0  2  0  0  0  0  0  0  0  0  0
    1.0575    6.2761   38.5799 N   0  0  0  0  0  0  0  0  0  0  0  0
    1.2560    8.7775   39.0379 C   0  0  1  0  0  0  0  0  0  0  0  0
    1.6943    8.5586   40.3953 O   0  0  0  0  0  0  0  0  0  0  0  0
    1.9117   10.0272   38.4256 C   0  0  2  0  0  0  0  0  0  0  0  0
    1.6008   11.1259   39.2129 O   0  0  0  0  0  0  0  0  0  0  0  0
    1.3954   10.2343   36.9293 C   0  0  2  0  0  0  0  0  0  0  0  0
    1.7125    9.1034   36.1083 O   0  0  0  0  0  0  0  0  0  0  0  0
    2.0220   11.4344   36.2778 C   0  0  0  0  0  0  0  0  0  0  0  0
    1.2928   11.7060   35.0802 O   0  0  0  0  0  0  0  0  0  0  0  0
   -3.4552    4.8762   36.2263 C   0  0  2  0  0  0  0  0  0  0  0  0
   -4.2650    3.7021   36.4685 N   0  0  0  0  0  0  0  0  0  0  0  0
   -1.9314    4.4772   36.1376 C   0  0  0  0  0  0  0  0  0  0  0  0
   -1.0301    5.7355   35.8794 C   0  0  2  0  0  0  0  0  0  0  0  0
    0.3707    5.3246   35.8113 N   0  0  0  0  0  0  0  0  0  0  0  0
   -1.1849    6.8390   37.0181 C   0  0  2  0  0  0  0  0  0  0  0  0
   -2.6852    7.2493   37.0679 C   0  0  2  0  0  0  0  0  0  0  0  0
   -2.7430    8.2959   38.1560 O   0  0  0  0  0  0  0  0  0  0  0  0
   -3.6083    5.9518   37.4026 C   0  0  1  0  0  0  0  0  0  0  0  0
   -5.0493    6.2074   37.4207 O   0  0  0  0  0  0  0  0  0  0  0  0
   -3.9910    8.8543   38.2462 C   0  0  1  0  0  0  0  0  0  0  0  0
   -4.0276   10.0471   39.0988 C   0  0  2  0  0  0  0  0  0  0  0  0
   -3.9047    9.6194   40.4174 O   0  0  0  0  0  0  0  0  0  0  0  0
   -5.3349   10.7156   38.6222 C   0  0  2  0  0  0  0  0  0  0  0  0
   -6.2137   10.7769   39.7683 O   0  0  0  0  0  0  0  0  0  0  0  0
   -5.8558    9.8174   37.5492 C   0  0  2  0  0  0  0  0  0  0  0  0
   -4.5526    9.3543   37.0441 O   0  0  0  0  0  0  0  0  0  0  0  0
   -6.6196   10.6210   36.4333 C   0  0  0  0  0  0  0  0  0  0  0  0
   -7.7198   11.4315   36.9447 O   0  0  0  0  0  0  0  0  0  0  0  0
   -5.8510   11.7116   40.8293 C   0  0  2  0  0  0  0  0  0  0  0  0
   -7.0624   11.7695   41.8986 C   0  0  2  0  0  0  0  0  0  0  0  0
   -8.3192   12.1880   41.1972 N   0  0  0  0  0  0  0  0  0  0  0  0
   -6.6536   12.7975   43.0648 C   0  0  1  0  0  0  0  0  0  0  0  0
   -5.4215   12.2998   43.6696 O   0  0  0  0  0  0  0  0  0  0  0  0
   -6.4411   14.2502   42.4410 C   0  0  2  0  0  0  0  0  0  0  0  0
   -7.7309   14.6891   41.8630 O   0  0  0  0  0  0  0  0  0  0  0  0
   -5.2549   14.1557   41.3248 C   0  0  1  0  0  0  0  0  0  0  0  0
   -5.6249   13.1345   40.2784 O   0  0  0  0  0  0  0  0  0  0  0  0
   -5.0312   15.5630   40.6783 C   0  0  0  0  0  0  0  0  0  0  0  0
   -6.2201   16.0434   39.9083 N   0  0  0  0  0  0  0  0  0  0  0  0
  1  3  1  0  0  0  0
  1  2  1  1  0  0  0
  3  4  1  1  0  0  0
  3  5  1  0  0  0  0
  5  6  1  1  0  0  0
  7  8  1  1  0  0  0
  7  5  1  0  0  0  0
  9 11  1  6  0  0  0
  9  7  1  0  0  0  0
 10  9  1  0  0  0  0
 10  1  1  0  0  0  0
 12 11  1  0  0  0  0
 13 14  1  1  0  0  0
 15 13  1  0  0  0  0
 16 17  1  1  0  0  0
 16 15  1  0  0  0  0
 18  2  1  6  0  0  0
 18 19  1  0  0  0  0
 18 16  1  0  0  0  0
 19 20  1  1  0  0  0
 19 21  1  0  0  0  0
 21 22  1  6  0  0  0
 21 13  1  0  0  0  0
 23 20  1  6  0  0  0
 23 29  1  0  0  0  0
 24 25  1  1  0  0  0
 24 26  1  0  0  0  0
 24 23  1  0  0  0  0
 26 27  1  1  0  0  0
 26 28  1  0  0  0  0
 28 30  1  6  0  0  0
 29 28  1  0  0  0  0
 30 31  1  0  0  0  0
 32 27  1  6  0  0  0
 32 40  1  0  0  0  0
 33 35  1  0  0  0  0
 33 32  1  0  0  0  0
 33 34  1  6  0  0  0
 35 36  1  6  0  0  0
 35 37  1  0  0  0  0
 37 38  1  6  0  0  0
 37 39  1  0  0  0  0
 39 41  1  6  0  0  0
 40 39  1  0  0  0  0
 41 42  1  0  0  0  0
M  END
>  <CHROM.1>
-67.57591709,-167.40952598,-62.36013839,174.50905481,-168.71901949,70.29084615
-56.26572919,172.13492040,-64.48573458,-3.02987733,9.77671308,38.58415928
-0.81316173,0.14351387,0.47564471

>  <Name>
lig.pdb

>  <RI>
0

>  <Rbt.Current_Directory>
/home/itssahil/PROJECTS/Mol_Feturizer/New_Systems/rnas/4wcr

>  <Rbt.Executable>
rbdock ($Id: //depot/dev/client3/rdock/2013.1/src/exe/rbdock.cxx#4 $)

>  <Rbt.Library>
libRbt.so (2013.1, Build901 2013/11/27)

>  <Rbt.Parameter_File>
/export/apps/rDock/src/rDock_2013.1_src/data/scripts/dock_solv.prm

>  <Rbt.Receptor>
prm/pocket_docking_7.prm

>  <SCORE>
-5.02689

>  <SCORE.INTER>
0.431422

>  <SCORE.INTER.CONST>
1

>  <SCORE.INTER.POLAR>
0

>  <SCORE.INTER.ROT>
9

>  <SCORE.INTER.SOLV>
18.1362

>  <SCORE.INTER.VDW>
-15.3578

>  <SCORE.INTER.norm>
0.010272

>  <SCORE.INTRA>
-5.45831

>  <SCORE.INTRA.DIHEDRAL>
-13.2187

>  <SCORE.INTRA.DIHEDRAL.0>
16.2863

>  <SCORE.INTRA.POLAR>
0

>  <SCORE.INTRA.POLAR.0>
0

>  <SCORE.INTRA.REPUL>
-0.314433

>  <SCORE.INTRA.REPUL.0>
0.314433

>  <SCORE.INTRA.SOLV>
0.739272

>  <SCORE.INTRA.SOLV.lig_0>
-103.824

>  <SCORE.INTRA.VDW>
2.35356

>  <SCORE.INTRA.VDW.0>
-5.30945

>  <SCORE.INTRA.norm>
-0.12996

>  <SCORE.RESTR>
0

>  <SCORE.RESTR.CAVITY>
0

>  <SCORE.RESTR.norm>
0

>  <SCORE.SYSTEM>
0

>  <SCORE.SYSTEM.CONST>
0

>  <SCORE.SYSTEM.DIHEDRAL>
0

>  <SCORE.SYSTEM.SOLV>
0

>  <SCORE.SYSTEM.norm>
0

>  <SCORE.heavy>
42

>  <SCORE.norm>
-0.119688

>  <RMSD>
9.034

$$$$
lig.pdb
 OpenBabel11021811513D
libRbt.so/2013.1/901 2013/11/27
 42 45  0  0  0  0  0  0  0  0999 V2000
   -2.3079    7.8433   35.1090 C   0  0  2  0  0  0  0  0  0  0  0  0
   -2.9044    9.1459   35.3995 O   0  0  0  0  0  0  0  0  0  0  0  0
   -2.2182    7.0762   36.5031 C   0  0  2  0  0  0  0  0  0  0  0  0
   -3.5588    6.8727   37.0591 N   0  0  0  0  0  0  0  0  0  0  0  0
   -1.2711    7.9137   37.4937 C   0  0  1  0  0  0  0  0  0  0  0  0
   -1.1447    7.2568   38.7725 O   0  0  0  0  0  0  0  0  0  0  0  0
    0.0925    8.0660   36.7981 C   0  0  2  0  0  0  0  0  0  0  0  0
    0.9384    8.7883   37.6267 O   0  0  0  0  0  0  0  0  0  0  0  0
   -0.0929    8.8010   35.3932 C   0  0  2  0  0  0  0  0  0  0  0  0
   -0.9658    8.0614   34.5303 O   0  0  0  0  0  0  0  0  0  0  0  0
    1.2106    8.9580   34.6627 C   0  0  0  0  0  0  0  0  0  0  0  0
    2.0267    9.8509   35.4219 O   0  0  0  0  0  0  0  0  0  0  0  0
   -4.6769   10.2049   31.4613 C   0  0  2  0  0  0  0  0  0  0  0  0
   -5.3847   10.9332   30.4310 N   0  0  0  0  0  0  0  0  0  0  0  0
   -5.6108    9.9890   32.7143 C   0  0  0  0  0  0  0  0  0  0  0  0
   -4.8640    9.2040   33.8495 C   0  0  2  0  0  0  0  0  0  0  0  0
   -5.7593    9.0320   34.9917 N   0  0  0  0  0  0  0  0  0  0  0  0
   -3.5458    9.9520   34.3407 C   0  0  2  0  0  0  0  0  0  0  0  0
   -2.6193   10.1240   33.1023 C   0  0  2  0  0  0  0  0  0  0  0  0
   -1.3995   10.8259   33.6518 O   0  0  0  0  0  0  0  0  0  0  0  0
   -3.3756   10.9964   31.9557 C   0  0  1  0  0  0  0  0  0  0  0  0
   -2.6175   11.1769   30.7168 O   0  0  0  0  0  0  0  0  0  0  0  0
   -1.7426   11.9642   34.3328 C   0  0  1  0  0  0  0  0  0  0  0  0
   -0.5822   12.7644   34.7382 C   0  0  2  0  0  0  0  0  0  0  0  0
    0.0443   12.0891   35.7813 O   0  0  0  0  0  0  0  0  0  0  0  0
   -1.2395   14.1380   34.9917 C   0  0  2  0  0  0  0  0  0  0  0  0
   -1.0134   14.4580   36.3831 O   0  0  0  0  0  0  0  0  0  0  0  0
   -2.6854   13.9346   34.6789 C   0  0  2  0  0  0  0  0  0  0  0  0
   -2.5079   12.9240   33.6231 O   0  0  0  0  0  0  0  0  0  0  0  0
   -3.3439   15.2342   34.0857 C   0  0  0  0  0  0  0  0  0  0  0  0
   -2.7567   15.6629   32.8206 O   0  0  0  0  0  0  0  0  0  0  0  0
    0.1909   15.2205   36.6980 C   0  0  2  0  0  0  0  0  0  0  0  0
    0.2481   15.4522   38.2971 C   0  0  2  0  0  0  0  0  0  0  0  0
   -0.9925   16.1698   38.7358 N   0  0  0  0  0  0  0  0  0  0  0  0
    1.5784   16.2888   38.6356 C   0  0  1  0  0  0  0  0  0  0  0  0
    2.7158   15.5059   38.1613 O   0  0  0  0  0  0  0  0  0  0  0  0
    1.5133   17.7064   37.9071 C   0  0  2  0  0  0  0  0  0  0  0  0
    0.3489   18.4420   38.4486 O   0  0  0  0  0  0  0  0  0  0  0  0
    1.3979   17.4475   36.3004 C   0  0  1  0  0  0  0  0  0  0  0  0
    0.1838   16.6011   36.0101 O   0  0  0  0  0  0  0  0  0  0  0  0
    1.3142   18.8200   35.5536 C   0  0  0  0  0  0  0  0  0  0  0  0
   -0.0184   19.4823   35.7045 N   0  0  0  0  0  0  0  0  0  0  0  0
  1  3  1  0  0  0  0
  1  2  1  1  0  0  0
  3  4  1  1  0  0  0
  3  5  1  0  0  0  0
  5  6  1  1  0  0  0
  7  8  1  1  0  0  0
  7  5  1  0  0  0  0
  9 11  1  6  0  0  0
  9  7  1  0  0  0  0
 10  9  1  0  0  0  0
 10  1  1  0  0  0  0
 12 11  1  0  0  0  0
 13 14  1  6  0  0  0
 15 13  1  0  0  0  0
 16 17  1  1  0  0  0
 16 15  1  0  0  0  0
 18  2  1  1  0  0  0
 18 19  1  0  0  0  0
 18 16  1  0  0  0  0
 19 20  1  1  0  0  0
 19 21  1  0  0  0  0
 21 22  1  6  0  0  0
 21 13  1  0  0  0  0
 23 20  1  6  0  0  0
 23 29  1  0  0  0  0
 24 25  1  1  0  0  0
 24 26  1  0  0  0  0
 24 23  1  0  0  0  0
 26 27  1  1  0  0  0
 26 28  1  0  0  0  0
 28 30  1  6  0  0  0
 29 28  1  0  0  0  0
 30 31  1  0  0  0  0
 32 27  1  1  0  0  0
 32 40  1  0  0  0  0
 33 35  1  0  0  0  0
 33 32  1  0  0  0  0
 33 34  1  6  0  0  0
 35 36  1  6  0  0  0
 35 37  1  0  0  0  0
 37 38  1  1  0  0  0
 37 39  1  0  0  0  0
 39 41  1  6  0  0  0
 40 39  1  0  0  0  0
 41 42  1  0  0  0  0
M  END
>  <CHROM.1>
-159.74165258,-65.95847268,67.36572429,-53.19261810,-172.78886359,91.23524296
62.14443607,-179.52476845,-74.20763814,-1.33259754,12.18723323,35.33707071
-2.14334076,-0.84001377,-0.16924226

>  <Name>
lig.pdb

>  <RI>
0

>  <Rbt.Current_Directory>
/home/itssahil/PROJECTS/Mol_Feturizer/New_Systems/rnas/4wcr

>  <Rbt.Executable>
rbdock ($Id: //depot/dev/client3/rdock/2013.1/src/exe/rbdock.cxx#4 $)

>  <Rbt.Library>
libRbt.so (2013.1, Build901 2013/11/27)

>  <Rbt.Parameter_File>
/export/apps/rDock/src/rDock_2013.1_src/data/scripts/dock_solv.prm

>  <Rbt.Receptor>
prm/pocket_docking_5.prm

>  <SCORE>
-8.44167

>  <SCORE.INTER>
-3.95672

>  <SCORE.INTER.CONST>
1

>  <SCORE.INTER.POLAR>
0

>  <SCORE.INTER.ROT>
9

>  <SCORE.INTER.SOLV>
20.4523

>  <SCORE.INTER.VDW>
-19.0553

>  <SCORE.INTER.norm>
-0.0942077

>  <SCORE.INTRA>
-4.48733

>  <SCORE.INTRA.DIHEDRAL>
-8.59271

>  <SCORE.INTRA.DIHEDRAL.0>
16.2863

>  <SCORE.INTRA.POLAR>
0

>  <SCORE.INTRA.POLAR.0>
0

>  <SCORE.INTRA.REPUL>
-0.314433

>  <SCORE.INTRA.REPUL.0>
0.314433

>  <SCORE.INTRA.SOLV>
-1.3657

>  <SCORE.INTRA.SOLV.lig_0>
-103.824

>  <SCORE.INTRA.VDW>
2.06404

>  <SCORE.INTRA.VDW.0>
-5.30945

>  <SCORE.INTRA.norm>
-0.106841

>  <SCORE.RESTR>
0.00237891

>  <SCORE.RESTR.CAVITY>
0.00237891

>  <SCORE.RESTR.norm>
5.66406e-05

>  <SCORE.SYSTEM>
0

>  <SCORE.SYSTEM.CONST>
0

>  <SCORE.SYSTEM.DIHEDRAL>
0

>  <SCORE.SYSTEM.SOLV>
0

>  <SCORE.SYSTEM.norm>
0

>  <SCORE.heavy>
42

>  <SCORE.norm>
-0.200992

>  <RMSD>
9.063

$$$$
lig.pdb
 OpenBabel11021811513D
libRbt.so/2013.1/901 2013/11/27
 42 45  0  0  0  0  0  0  0  0999 V2000
   -4.2559    8.1321   36.9575 C   0  0  2  0  0  0  0  0  0  0  0  0
   -3.2365    7.9474   37.9890 O   0  0  0  0  0  0  0  0  0  0  0  0
   -4.3721    6.7376   36.1946 C   0  0  2  0  0  0  0  0  0  0  0  0
   -4.8132    5.6880   37.1174 N   0  0  0  0  0  0  0  0  0  0  0  0
   -2.9541    6.3972   35.5214 C   0  0  1  0  0  0  0  0  0  0  0  0
   -3.0050    5.1454   34.8050 O   0  0  0  0  0  0  0  0  0  0  0  0
   -2.6004    7.5689   34.5896 C   0  0  2  0  0  0  0  0  0  0  0  0
   -1.3768    7.3095   33.9903 O   0  0  0  0  0  0  0  0  0  0  0  0
   -2.5494    8.9298   35.4225 C   0  0  2  0  0  0  0  0  0  0  0  0
   -3.8101    9.2060   36.0455 O   0  0  0  0  0  0  0  0  0  0  0  0
   -2.2257   10.1114   34.5529 C   0  0  0  0  0  0  0  0  0  0  0  0
   -2.1137   11.2548   35.4013 O   0  0  0  0  0  0  0  0  0  0  0  0
   -2.3321   10.0932   41.7771 C   0  0  2  0  0  0  0  0  0  0  0  0
   -1.8807   11.1151   42.6964 N   0  0  0  0  0  0  0  0  0  0  0  0
   -1.1599    9.6789   40.8059 C   0  0  0  0  0  0  0  0  0  0  0  0
   -1.6257    8.5733   39.7944 C   0  0  2  0  0  0  0  0  0  0  0  0
   -0.5155    8.2239   38.9106 N   0  0  0  0  0  0  0  0  0  0  0  0
   -2.8600    9.0444   38.9039 C   0  0  2  0  0  0  0  0  0  0  0  0
   -4.0197    9.4136   39.8737 C   0  0  2  0  0  0  0  0  0  0  0  0
   -5.1437    9.8362   38.9568 O   0  0  0  0  0  0  0  0  0  0  0  0
   -3.5515   10.6073   40.8754 C   0  0  1  0  0  0  0  0  0  0  0  0
   -4.5468   11.0019   41.8733 O   0  0  0  0  0  0  0  0  0  0  0  0
   -5.1681   11.1960   38.7903 C   0  0  1  0  0  0  0  0  0  0  0  0
   -4.3798   11.6492   37.6395 C   0  0  2  0  0  0  0  0  0  0  0  0
   -3.0364   11.5136   37.9767 O   0  0  0  0  0  0  0  0  0  0  0  0
   -4.9784   13.0519   37.4005 C   0  0  2  0  0  0  0  0  0  0  0  0
   -3.9006   13.9999   37.5715 O   0  0  0  0  0  0  0  0  0  0  0  0
   -6.0396   13.1983   38.4407 C   0  0  2  0  0  0  0  0  0  0  0  0
   -6.4295   11.7802   38.5108 O   0  0  0  0  0  0  0  0  0  0  0  0
   -7.2441   14.0710   37.9287 C   0  0  0  0  0  0  0  0  0  0  0  0
   -8.2213   14.3859   38.9655 O   0  0  0  0  0  0  0  0  0  0  0  0
   -4.1499   15.3695   37.1323 C   0  0  2  0  0  0  0  0  0  0  0  0
   -2.7520   16.1813   37.1642 C   0  0  2  0  0  0  0  0  0  0  0  0
   -2.1889   16.1386   38.5526 N   0  0  0  0  0  0  0  0  0  0  0  0
   -3.0345   17.6865   36.6758 C   0  0  1  0  0  0  0  0  0  0  0  0
   -3.5841   17.6085   35.3254 O   0  0  0  0  0  0  0  0  0  0  0  0
   -4.0635   18.3842   37.6752 C   0  0  2  0  0  0  0  0  0  0  0  0
   -3.4318   18.4382   39.0124 O   0  0  0  0  0  0  0  0  0  0  0  0
   -5.4449   17.5161   37.6703 C   0  0  1  0  0  0  0  0  0  0  0  0
   -5.1479   16.0902   38.0617 O   0  0  0  0  0  0  0  0  0  0  0  0
   -6.4736   18.1637   38.6557 C   0  0  0  0  0  0  0  0  0  0  0  0
   -7.7604   17.4051   38.7324 N   0  0  0  0  0  0  0  0  0  0  0  0
  1  3  1  0  0  0  0
  1  2  1  1  0  0  0
  3  4  1  1  0  0  0
  3  5  1  0  0  0  0
  5  6  1  6  0  0  0
  7  8  1  1  0  0  0
  7  5  1  0  0  0  0
  9 11  1  6  0  0  0
  9  7  1  0  0  0  0
 10  9  1  0  0  0  0
 10  1  1  0  0  0  0
 12 11  1  0  0  0  0
 13 14  1  1  0  0  0
 15 13  1  0  0  0  0
 16 17  1  6  0  0  0
 16 15  1  0  0  0  0
 18  2  1  6  0  0  0
 18 19  1  0  0  0  0
 18 16  1  0  0  0  0
 19 20  1  6  0  0  0
 19 21  1  0  0  0  0
 21 22  1  1  0  0  0
 21 13  1  0  0  0  0
 23 20  1  6  0  0  0
 23 29  1  0  0  0  0
 24 25  1  1  0  0  0
 24 26  1  0  0  0  0
 24 23  1  0  0  0  0
 26 27  1  1  0  0  0
 26 28  1  0  0  0  0
 28 30  1  6  0  0  0
 29 28  1  0  0  0  0
 30 31  1  0  0  0  0
 32 27  1  1  0  0  0
 32 40  1  0  0  0  0
 33 35  1  0  0  0  0
 33 32  1  0  0  0  0
 33 34  1  1  0  0  0
 35 36  1  6  0  0  0
 35 37  1  0  0  0  0
 37 38  1  1  0  0  0
 37 39  1  0  0  0  0
 39 41  1  1  0  0  0
 40 39  1  0  0  0  0
 41 42  1  0  0  0  0
M  END
>  <CHROM.1>
-179.91879318,-176.09088442,-173.98582562,-95.37313906,91.31528601,167.87274248
-172.45126972,-169.91251883,-178.67236664,-3.87957551,11.81432533,37.86202261
-0.38130324,1.33772258,-1.06131722

>  <Name>
lig.pdb

>  <RI>
0

>  <Rbt.Current_Directory>
/home/itssahil/PROJECTS/Mol_Feturizer/New_Systems/rnas/4wcr

>  <Rbt.Executable>
rbdock ($Id: //depot/dev/client3/rdock/2013.1/src/exe/rbdock.cxx#4 $)

>  <Rbt.Library>
libRbt.so (2013.1, Build901 2013/11/27)

>  <Rbt.Parameter_File>
/export/apps/rDock/src/rDock_2013.1_src/data/scripts/dock_solv.prm

>  <Rbt.Receptor>
prm/pocket_docking_4.prm

>  <SCORE>
0.422308

>  <SCORE.INTER>
4.00955

>  <SCORE.INTER.CONST>
1

>  <SCORE.INTER.POLAR>
0

>  <SCORE.INTER.ROT>
9

>  <SCORE.INTER.SOLV>
16.0742

>  <SCORE.INTER.VDW>
-12.285

>  <SCORE.INTER.norm>
0.0954655

>  <SCORE.INTRA>
-3.58724

>  <SCORE.INTRA.DIHEDRAL>
-5.76817

>  <SCORE.INTRA.DIHEDRAL.0>
16.2863

>  <SCORE.INTRA.POLAR>
0

>  <SCORE.INTRA.POLAR.0>
0

>  <SCORE.INTRA.REPUL>
-0.314433

>  <SCORE.INTRA.REPUL.0>
0.314433

>  <SCORE.INTRA.SOLV>
-2.14887

>  <SCORE.INTRA.SOLV.lig_0>
-103.824

>  <SCORE.INTRA.VDW>
1.94344

>  <SCORE.INTRA.VDW.0>
-5.30945

>  <SCORE.INTRA.norm>
-0.0854106

>  <SCORE.RESTR>
0

>  <SCORE.RESTR.CAVITY>
0

>  <SCORE.RESTR.norm>
0

>  <SCORE.SYSTEM>
0

>  <SCORE.SYSTEM.CONST>
0

>  <SCORE.SYSTEM.DIHEDRAL>
0

>  <SCORE.SYSTEM.SOLV>
0

>  <SCORE.SYSTEM.norm>
0

>  <SCORE.heavy>
42

>  <SCORE.norm>
0.0100549

>  <RMSD>
9.079

$$$$
lig.pdb
 OpenBabel11021811513D
libRbt.so/2013.1/901 2013/11/27
 42 45  0  0  0  0  0  0  0  0999 V2000
   -3.0750    7.4292   33.6618 C   0  0  2  0  0  0  0  0  0  0  0  0
   -2.0648    7.4384   34.7185 O   0  0  0  0  0  0  0  0  0  0  0  0
   -2.4365    6.6209   32.4457 C   0  0  2  0  0  0  0  0  0  0  0  0
   -2.1532    5.2397   32.8455 N   0  0  0  0  0  0  0  0  0  0  0  0
   -1.1178    7.3914   31.9486 C   0  0  1  0  0  0  0  0  0  0  0  0
   -0.5026    6.7069   30.8370 O   0  0  0  0  0  0  0  0  0  0  0  0
   -1.5424    8.8203   31.5688 C   0  0  2  0  0  0  0  0  0  0  0  0
   -0.4248    9.5180   31.1352 O   0  0  0  0  0  0  0  0  0  0  0  0
   -2.2113    9.5412   32.8263 C   0  0  2  0  0  0  0  0  0  0  0  0
   -3.3673    8.8268   33.2813 O   0  0  0  0  0  0  0  0  0  0  0  0
   -2.6621   10.9372   32.5020 C   0  0  0  0  0  0  0  0  0  0  0  0
   -1.4946   11.7232   32.2598 O   0  0  0  0  0  0  0  0  0  0  0  0
   -4.3382    9.2722   38.0714 C   0  0  2  0  0  0  0  0  0  0  0  0
   -4.7171    9.6764   39.4078 N   0  0  0  0  0  0  0  0  0  0  0  0
   -4.1493    7.7072   38.0092 C   0  0  0  0  0  0  0  0  0  0  0  0
   -3.7332    7.2432   36.5691 C   0  0  2  0  0  0  0  0  0  0  0  0
   -3.5618    5.7919   36.5564 N   0  0  0  0  0  0  0  0  0  0  0  0
   -2.3783    7.9228   36.0785 C   0  0  2  0  0  0  0  0  0  0  0  0
   -2.5926    9.4638   36.1095 C   0  0  2  0  0  0  0  0  0  0  0  0
   -1.2769   10.0266   35.6251 O   0  0  0  0  0  0  0  0  0  0  0  0
   -2.9579    9.9467   37.6197 C   0  0  1  0  0  0  0  0  0  0  0  0
   -3.2362   11.3767   37.7603 O   0  0  0  0  0  0  0  0  0  0  0  0
   -1.1810   11.3682   35.8862 C   0  0  1  0  0  0  0  0  0  0  0  0
    0.1070   11.9424   35.4834 C   0  0  2  0  0  0  0  0  0  0  0  0
    1.0635   11.4941   36.3895 O   0  0  0  0  0  0  0  0  0  0  0  0
   -0.2442   13.4439   35.4108 C   0  0  2  0  0  0  0  0  0  0  0  0
    0.5978   14.1162   36.3745 O   0  0  0  0  0  0  0  0  0  0  0  0
   -1.6925   13.5166   35.7672 C   0  0  2  0  0  0  0  0  0  0  0  0
   -2.0893   12.2159   35.2028 O   0  0  0  0  0  0  0  0  0  0  0  0
   -2.4232   14.6860   35.0103 C   0  0  0  0  0  0  0  0  0  0  0  0
   -2.5979   14.4403   33.5826 O   0  0  0  0  0  0  0  0  0  0  0  0
    0.4716   15.5679   36.4624 C   0  0  2  0  0  0  0  0  0  0  0  0
    1.7323   16.1430   37.2955 C   0  0  2  0  0  0  0  0  0  0  0  0
    1.7585   15.5060   38.6521 N   0  0  0  0  0  0  0  0  0  0  0  0
    1.5878   17.7415   37.3845 C   0  0  1  0  0  0  0  0  0  0  0  0
    1.5650   18.2519   36.0167 O   0  0  0  0  0  0  0  0  0  0  0  0
    0.2422   18.1104   38.1575 C   0  0  2  0  0  0  0  0  0  0  0  0
    0.3472   17.5741   39.5328 O   0  0  0  0  0  0  0  0  0  0  0  0
   -1.0107   17.4714   37.3306 C   0  0  1  0  0  0  0  0  0  0  0  0
   -0.8208   15.9812   37.1959 O   0  0  0  0  0  0  0  0  0  0  0  0
   -2.3491   17.7997   38.0718 C   0  0  0  0  0  0  0  0  0  0  0  0
   -3.5526   17.2712   37.3579 N   0  0  0  0  0  0  0  0  0  0  0  0
  1  3  1  0  0  0  0
  1  2  1  1  0  0  0
  3  4  1  1  0  0  0
  3  5  1  0  0  0  0
  5  6  1  6  0  0  0
  7  8  1  1  0  0  0
  7  5  1  0  0  0  0
  9 11  1  6  0  0  0
  9  7  1  0  0  0  0
 10  9  1  0  0  0  0
 10  1  1  0  0  0  0
 12 11  1  0  0  0  0
 13 14  1  1  0  0  0
 15 13  1  0  0  0  0
 16 17  1  1  0  0  0
 16 15  1  0  0  0  0
 18  2  1  6  0  0  0
 18 19  1  0  0  0  0
 18 16  1  0  0  0  0
 19 20  1  1  0  0  0
 19 21  1  0  0  0  0
 21 22  1  6  0  0  0
 21 13  1  0  0  0  0
 23 20  1  6  0  0  0
 23 29  1  0  0  0  0
 24 25  1  1  0  0  0
 24 26  1  0  0  0  0
 24 23  1  0  0  0  0
 26 27  1  1  0  0  0
 26 28  1  0  0  0  0
 28 30  1  6  0  0  0
 29 28  1  0  0  0  0
 30 31  1  0  0  0  0
 32 27  1  1  0  0  0
 32 40  1  0  0  0  0
 33 35  1  0  0  0  0
 33 32  1  0  0  0  0
 33 34  1  1  0  0  0
 35 36  1  6  0  0  0
 35 37  1  0  0  0  0
 37 38  1  1  0  0  0
 37 39  1  0  0  0  0
 39 41  1  1  0  0  0
 40 39  1  0  0  0  0
 41 42  1  0  0  0  0
M  END
>  <CHROM.1>
-170.60243947,-67.27838992,48.36711747,-165.70009177,177.50702649,178.30873821
71.14625889,-165.70032461,178.76061462,-1.51612686,11.76898309,35.55356481
2.01988941,-1.01046125,-2.38942029

>  <Name>
lig.pdb

>  <RI>
0

>  <Rbt.Current_Directory>
/home/itssahil/PROJECTS/Mol_Feturizer/New_Systems/rnas/4wcr

>  <Rbt.Executable>
rbdock ($Id: //depot/dev/client3/rdock/2013.1/src/exe/rbdock.cxx#4 $)

>  <Rbt.Library>
libRbt.so (2013.1, Build901 2013/11/27)

>  <Rbt.Parameter_File>
/export/apps/rDock/src/rDock_2013.1_src/data/scripts/dock_solv.prm

>  <Rbt.Receptor>
prm/pocket_docking_5.prm

>  <SCORE>
-12.4573

>  <SCORE.INTER>
-3.88063

>  <SCORE.INTER.CONST>
1

>  <SCORE.INTER.POLAR>
0

>  <SCORE.INTER.ROT>
9

>  <SCORE.INTER.SOLV>
16.4602

>  <SCORE.INTER.VDW>
-17.6738

>  <SCORE.INTER.norm>
-0.0923959

>  <SCORE.INTRA>
-8.57873

>  <SCORE.INTRA.DIHEDRAL>
-12.1747

>  <SCORE.INTRA.DIHEDRAL.0>
16.2863

>  <SCORE.INTRA.POLAR>
0

>  <SCORE.INTRA.POLAR.0>
0

>  <SCORE.INTRA.REPUL>
-0.314433

>  <SCORE.INTRA.REPUL.0>
0.314433

>  <SCORE.INTRA.SOLV>
-2.07709

>  <SCORE.INTRA.SOLV.lig_0>
-103.824

>  <SCORE.INTRA.VDW>
0.119349

>  <SCORE.INTRA.VDW.0>
-5.30945

>  <SCORE.INTRA.norm>
-0.204256

>  <SCORE.RESTR>
0.00202715

>  <SCORE.RESTR.CAVITY>
0.00202715

>  <SCORE.RESTR.norm>
4.82655e-05

>  <SCORE.SYSTEM>
0

>  <SCORE.SYSTEM.CONST>
0

>  <SCORE.SYSTEM.DIHEDRAL>
0

>  <SCORE.SYSTEM.SOLV>
0

>  <SCORE.SYSTEM.norm>
0

>  <SCORE.heavy>
42

>  <SCORE.norm>
-0.296603

>  <RMSD>
9.087

$$$$
lig.pdb
 OpenBabel11021811513D
libRbt.so/2013.1/901 2013/11/27
 42 45  0  0  0  0  0  0  0  0999 V2000
   -6.9864   17.2779   30.4840 C   0  0  2  0  0  0  0  0  0  0  0  0
   -6.1291   16.8120   29.3954 O   0  0  0  0  0  0  0  0  0  0  0  0
   -7.9043   18.4246   29.8654 C   0  0  2  0  0  0  0  0  0  0  0  0
   -8.7458   17.8811   28.7958 N   0  0  0  0  0  0  0  0  0  0  0  0
   -6.9621   19.6184   29.3490 C   0  0  1  0  0  0  0  0  0  0  0  0
   -7.7442   20.6932   28.7871 O   0  0  0  0  0  0  0  0  0  0  0  0
   -6.1294   20.0931   30.5522 C   0  0  2  0  0  0  0  0  0  0  0  0
   -5.2998   21.1260   30.1416 O   0  0  0  0  0  0  0  0  0  0  0  0
   -5.2774   18.8767   31.1377 C   0  0  2  0  0  0  0  0  0  0  0  0
   -6.1268   17.8044   31.5646 O   0  0  0  0  0  0  0  0  0  0  0  0
   -4.4585   19.2841   32.3296 C   0  0  0  0  0  0  0  0  0  0  0  0
   -4.3674   18.1540   33.1981 O   0  0  0  0  0  0  0  0  0  0  0  0
   -6.0818   12.3987   29.9368 C   0  0  2  0  0  0  0  0  0  0  0  0
   -5.6981   11.0093   29.8135 N   0  0  0  0  0  0  0  0  0  0  0  0
   -6.3571   13.0157   28.5112 C   0  0  0  0  0  0  0  0  0  0  0  0
   -6.7714   14.5255   28.6173 C   0  0  2  0  0  0  0  0  0  0  0  0
   -7.0097   15.0597   27.2780 N   0  0  0  0  0  0  0  0  0  0  0  0
   -5.6579   15.4133   29.3317 C   0  0  2  0  0  0  0  0  0  0  0  0
   -5.4246   14.8155   30.7493 C   0  0  2  0  0  0  0  0  0  0  0  0
   -4.3723   15.7132   31.3570 O   0  0  0  0  0  0  0  0  0  0  0  0
   -4.9304   13.2699   30.6293 C   0  0  1  0  0  0  0  0  0  0  0  0
   -4.7314   12.5843   31.9071 O   0  0  0  0  0  0  0  0  0  0  0  0
   -3.7866   15.1282   32.4489 C   0  0  1  0  0  0  0  0  0  0  0  0
   -2.9497   16.0546   33.2186 C   0  0  2  0  0  0  0  0  0  0  0  0
   -1.7967   16.2885   32.4752 O   0  0  0  0  0  0  0  0  0  0  0  0
   -2.8594   15.3208   34.5738 C   0  0  2  0  0  0  0  0  0  0  0  0
   -1.4605   15.0363   34.8015 O   0  0  0  0  0  0  0  0  0  0  0  0
   -3.6734   14.0820   34.3940 C   0  0  2  0  0  0  0  0  0  0  0  0
   -4.6596   14.6410   33.4545 O   0  0  0  0  0  0  0  0  0  0  0  0
   -4.3788   13.6465   35.7309 C   0  0  0  0  0  0  0  0  0  0  0  0
   -5.3395   14.6241   36.2314 O   0  0  0  0  0  0  0  0  0  0  0  0
   -0.6095   16.1627   35.1727 C   0  0  2  0  0  0  0  0  0  0  0  0
   -0.1954   16.0026   36.7274 C   0  0  2  0  0  0  0  0  0  0  0  0
   -1.4372   15.9468   37.5649 N   0  0  0  0  0  0  0  0  0  0  0  0
    0.7442   17.2442   37.1269 C   0  0  1  0  0  0  0  0  0  0  0  0
    1.9106   17.2055   36.2496 O   0  0  0  0  0  0  0  0  0  0  0  0
   -0.0679   18.6047   36.9429 C   0  0  2  0  0  0  0  0  0  0  0  0
   -1.2206   18.5744   37.8705 O   0  0  0  0  0  0  0  0  0  0  0  0
   -0.5247   18.7169   35.3806 C   0  0  1  0  0  0  0  0  0  0  0  0
   -1.3449   17.5082   35.0051 O   0  0  0  0  0  0  0  0  0  0  0  0
   -1.3409   20.0348   35.1671 C   0  0  0  0  0  0  0  0  0  0  0  0
   -1.6997   20.2694   33.7341 N   0  0  0  0  0  0  0  0  0  0  0  0
  1  3  1  0  0  0  0
  1  2  1  6  0  0  0
  3  4  1  6  0  0  0
  3  5  1  0  0  0  0
  5  6  1  1  0  0  0
  7  8  1  6  0  0  0
  7  5  1  0  0  0  0
  9 11  1  1  0  0  0
  9  7  1  0  0  0  0
 10  9  1  0  0  0  0
 10  1  1  0  0  0  0
 12 11  1  0  0  0  0
 13 14  1  6  0  0  0
 15 13  1  0  0  0  0
 16 17  1  6  0  0  0
 16 15  1  0  0  0  0
 18  2  1  1  0  0  0
 18 19  1  0  0  0  0
 18 16  1  0  0  0  0
 19 20  1  6  0  0  0
 19 21  1  0  0  0  0
 21 22  1  1  0  0  0
 21 13  1  0  0  0  0
 23 20  1  6  0  0  0
 23 29  1  0  0  0  0
 24 25  1  6  0  0  0
 24 26  1  0  0  0  0
 24 23  1  0  0  0  0
 26 27  1  6  0  0  0
 26 28  1  0  0  0  0
 28 30  1  1  0  0  0
 29 28  1  0  0  0  0
 30 31  1  0  0  0  0
 32 27  1  1  0  0  0
 32 40  1  0  0  0  0
 33 35  1  0  0  0  0
 33 32  1  0  0  0  0
 33 34  1  1  0  0  0
 35 36  1  6  0  0  0
 35 37  1  0  0  0  0
 37 38  1  1  0  0  0
 37 39  1  0  0  0  0
 39 41  1  1  0  0  0
 40 39  1  0  0  0  0
 41 42  1  0  0  0  0
M  END
>  <CHROM.1>
-149.06170377,147.66681095,85.22523429,-163.38250314,-169.01740097,73.68301676
62.89431581,108.99376137,175.20249895,-4.03238122,16.56720309,32.59668015
3.07474775,0.85415649,3.10807372

>  <Name>
lig.pdb

>  <RI>
0

>  <Rbt.Current_Directory>
/home/itssahil/PROJECTS/Mol_Feturizer/New_Systems/rnas/4wcr

>  <Rbt.Executable>
rbdock ($Id: //depot/dev/client3/rdock/2013.1/src/exe/rbdock.cxx#4 $)

>  <Rbt.Library>
libRbt.so (2013.1, Build901 2013/11/27)

>  <Rbt.Parameter_File>
/export/apps/rDock/src/rDock_2013.1_src/data/scripts/dock_solv.prm

>  <Rbt.Receptor>
prm/blind_docking_100.prm

>  <SCORE>
20.9826

>  <SCORE.INTER>
10.5332

>  <SCORE.INTER.CONST>
1

>  <SCORE.INTER.POLAR>
0

>  <SCORE.INTER.ROT>
9

>  <SCORE.INTER.SOLV>
30.3347

>  <SCORE.INTER.VDW>
-12.6894

>  <SCORE.INTER.norm>
0.250791

>  <SCORE.INTRA>
4.47856

>  <SCORE.INTRA.DIHEDRAL>
3.1066

>  <SCORE.INTRA.DIHEDRAL.0>
16.2863

>  <SCORE.INTRA.POLAR>
0

>  <SCORE.INTRA.POLAR.0>
0

>  <SCORE.INTRA.REPUL>
-0.306912

>  <SCORE.INTRA.REPUL.0>
0.314433

>  <SCORE.INTRA.SOLV>
1.0818

>  <SCORE.INTRA.SOLV.lig_0>
-103.824

>  <SCORE.INTRA.VDW>
3.91893

>  <SCORE.INTRA.VDW.0>
-5.30945

>  <SCORE.INTRA.norm>
0.106632

>  <SCORE.RESTR>
5.97084

>  <SCORE.RESTR.CAVITY>
5.97084

>  <SCORE.RESTR.norm>
0.142163

>  <SCORE.SYSTEM>
0

>  <SCORE.SYSTEM.CONST>
0

>  <SCORE.SYSTEM.DIHEDRAL>
0

>  <SCORE.SYSTEM.SOLV>
0

>  <SCORE.SYSTEM.norm>
0

>  <SCORE.heavy>
42

>  <SCORE.norm>
0.499586

>  <RMSD>
9.105

$$$$
lig.pdb
 OpenBabel11021811513D
libRbt.so/2013.1/901 2013/11/27
 42 45  0  0  0  0  0  0  0  0999 V2000
   -2.6626   19.7236   36.1972 C   0  0  2  0  0  0  0  0  0  0  0  0
   -3.2164   18.9926   35.0587 O   0  0  0  0  0  0  0  0  0  0  0  0
   -1.9239   20.9979   35.5885 C   0  0  2  0  0  0  0  0  0  0  0  0
   -2.8842   21.8582   34.8919 N   0  0  0  0  0  0  0  0  0  0  0  0
   -0.7437   20.4978   34.6206 C   0  0  1  0  0  0  0  0  0  0  0  0
   -0.0311   21.6146   34.0483 O   0  0  0  0  0  0  0  0  0  0  0  0
    0.1848   19.6040   35.4604 C   0  0  2  0  0  0  0  0  0  0  0  0
    1.2182   19.1509   34.6539 O   0  0  0  0  0  0  0  0  0  0  0  0
   -0.6415   18.3808   36.0683 C   0  0  2  0  0  0  0  0  0  0  0  0
   -1.7117   18.8399   36.9034 O   0  0  0  0  0  0  0  0  0  0  0  0
    0.2178   17.4853   36.9150 C   0  0  0  0  0  0  0  0  0  0  0  0
    1.1668   16.8558   36.0532 O   0  0  0  0  0  0  0  0  0  0  0  0
   -3.5558   14.7562   36.3666 C   0  0  2  0  0  0  0  0  0  0  0  0
   -4.1048   13.4411   36.6156 N   0  0  0  0  0  0  0  0  0  0  0  0
   -4.4692   15.8608   37.0255 C   0  0  0  0  0  0  0  0  0  0  0  0
   -3.8970   17.2987   36.7657 C   0  0  2  0  0  0  0  0  0  0  0  0
   -4.7739   18.2903   37.3848 N   0  0  0  0  0  0  0  0  0  0  0  0
   -3.7659   17.6300   35.2128 C   0  0  2  0  0  0  0  0  0  0  0  0
   -2.8328   16.5547   34.5846 C   0  0  2  0  0  0  0  0  0  0  0  0
   -2.7542   16.9442   33.1269 O   0  0  0  0  0  0  0  0  0  0  0  0
   -3.4662   15.0713   34.7991 C   0  0  1  0  0  0  0  0  0  0  0  0
   -2.6443   13.9702   34.2950 O   0  0  0  0  0  0  0  0  0  0  0  0
   -3.8778   16.5570   32.4451 C   0  0  1  0  0  0  0  0  0  0  0  0
   -4.1917   17.4307   31.3096 C   0  0  2  0  0  0  0  0  0  0  0  0
   -4.6756   18.6281   31.8279 O   0  0  0  0  0  0  0  0  0  0  0  0
   -5.1185   16.5186   30.4775 C   0  0  2  0  0  0  0  0  0  0  0  0
   -6.3966   17.1886   30.3931 O   0  0  0  0  0  0  0  0  0  0  0  0
   -5.1918   15.2414   31.2477 C   0  0  2  0  0  0  0  0  0  0  0  0
   -3.8340   15.2873   31.8153 O   0  0  0  0  0  0  0  0  0  0  0  0
   -5.3456   13.9951   30.3003 C   0  0  0  0  0  0  0  0  0  0  0  0
   -5.2824   12.7163   31.0002 O   0  0  0  0  0  0  0  0  0  0  0  0
   -6.7736   17.7301   29.0909 C   0  0  2  0  0  0  0  0  0  0  0  0
   -7.9964   18.7669   29.3006 C   0  0  2  0  0  0  0  0  0  0  0  0
   -9.1402   18.0537   29.9563 N   0  0  0  0  0  0  0  0  0  0  0  0
   -8.4026   19.3610   27.8633 C   0  0  1  0  0  0  0  0  0  0  0  0
   -7.2208   20.0218   27.3172 O   0  0  0  0  0  0  0  0  0  0  0  0
   -8.8857   18.1726   26.9152 C   0  0  2  0  0  0  0  0  0  0  0  0
  -10.0890   17.5651   27.5261 O   0  0  0  0  0  0  0  0  0  0  0  0
   -7.6563   17.1106   26.7646 C   0  0  1  0  0  0  0  0  0  0  0  0
   -7.2422   16.6190   28.1291 O   0  0  0  0  0  0  0  0  0  0  0  0
   -8.1020   15.9197   25.8527 C   0  0  0  0  0  0  0  0  0  0  0  0
   -9.2607   15.1597   26.4159 N   0  0  0  0  0  0  0  0  0  0  0  0
  1  3  1  0  0  0  0
  1  2  1  6  0  0  0
  3  4  1  6  0  0  0
  3  5  1  0  0  0  0
  5  6  1  1  0  0  0
  7  8  1  6  0  0  0
  7  5  1  0  0  0  0
  9 11  1  1  0  0  0
  9  7  1  0  0  0  0
 10  9  1  0  0  0  0
 10  1  1  0  0  0  0
 12 11  1  0  0  0  0
 13 14  1  6  0  0  0
 15 13  1  0  0  0  0
 16 17  1  1  0  0  0
 16 15  1  0  0  0  0
 18  2  1  1  0  0  0
 18 19  1  0  0  0  0
 18 16  1  0  0  0  0
 19 20  1  6  0  0  0
 19 21  1  0  0  0  0
 21 22  1  6  0  0  0
 21 13  1  0  0  0  0
 23 20  1  6  0  0  0
 23 29  1  0  0  0  0
 24 25  1  1  0  0  0
 24 26  1  0  0  0  0
 24 23  1  0  0  0  0
 26 27  1  1  0  0  0
 26 28  1  0  0  0  0
 28 30  1  6  0  0  0
 29 28  1  0  0  0  0
 30 31  1  0  0  0  0
 32 27  1  1  0  0  0
 32 40  1  0  0  0  0
 33 35  1  0  0  0  0
 33 32  1  0  0  0  0
 33 34  1  6  0  0  0
 35 36  1  6  0  0  0
 35 37  1  0  0  0  0
 37 38  1  1  0  0  0
 37 39  1  0  0  0  0
 39 41  1  6  0  0  0
 40 39  1  0  0  0  0
 41 42  1  0  0  0  0
M  END
>  <CHROM.1>
169.00854540,-66.68854722,11.01406662,-78.24890681,150.61745863,109.58270862
174.02040473,-164.44453291,-61.26527213,-4.30777874,17.41608395,32.56860350
-0.15033971,-0.87843726,-0.33662781

>  <Name>
lig.pdb

>  <RI>
0

>  <Rbt.Current_Directory>
/home/itssahil/PROJECTS/Mol_Feturizer/New_Systems/rnas/4wcr

>  <Rbt.Executable>
rbdock ($Id: //depot/dev/client3/rdock/2013.1/src/exe/rbdock.cxx#4 $)

>  <Rbt.Library>
libRbt.so (2013.1, Build901 2013/11/27)

>  <Rbt.Parameter_File>
/export/apps/rDock/src/rDock_2013.1_src/data/scripts/dock_solv.prm

>  <Rbt.Receptor>
prm/blind_docking_100.prm

>  <SCORE>
9.61164

>  <SCORE.INTER>
2.70499

>  <SCORE.INTER.CONST>
1

>  <SCORE.INTER.POLAR>
0

>  <SCORE.INTER.ROT>
9

>  <SCORE.INTER.SOLV>
33.6031

>  <SCORE.INTER.VDW>
-18.9977

>  <SCORE.INTER.norm>
0.0644044

>  <SCORE.INTRA>
2.84539

>  <SCORE.INTRA.DIHEDRAL>
4.34264

>  <SCORE.INTRA.DIHEDRAL.0>
16.2863

>  <SCORE.INTRA.POLAR>
0

>  <SCORE.INTRA.POLAR.0>
0

>  <SCORE.INTRA.REPUL>
-0.314433

>  <SCORE.INTRA.REPUL.0>
0.314433

>  <SCORE.INTRA.SOLV>
-2.12503

>  <SCORE.INTRA.SOLV.lig_0>
-103.824

>  <SCORE.INTRA.VDW>
3.30875

>  <SCORE.INTRA.VDW.0>
-5.30945

>  <SCORE.INTRA.norm>
0.0677474

>  <SCORE.RESTR>
4.06126

>  <SCORE.RESTR.CAVITY>
4.06126

>  <SCORE.RESTR.norm>
0.0966967

>  <SCORE.SYSTEM>
0

>  <SCORE.SYSTEM.CONST>
0

>  <SCORE.SYSTEM.DIHEDRAL>
0

>  <SCORE.SYSTEM.SOLV>
0

>  <SCORE.SYSTEM.norm>
0

>  <SCORE.heavy>
42

>  <SCORE.norm>
0.228849

>  <RMSD>
9.106

$$$$
lig.pdb
 OpenBabel11021811513D
libRbt.so/2013.1/901 2013/11/27
 42 45  0  0  0  0  0  0  0  0999 V2000
   -4.6177    9.2469   37.6524 C   0  0  2  0  0  0  0  0  0  0  0  0
   -3.2466    9.7320   37.5041 O   0  0  0  0  0  0  0  0  0  0  0  0
   -4.8620    8.2336   36.4468 C   0  0  2  0  0  0  0  0  0  0  0  0
   -3.9419    7.0971   36.5429 N   0  0  0  0  0  0  0  0  0  0  0  0
   -4.6999    9.0301   35.0614 C   0  0  1  0  0  0  0  0  0  0  0  0
   -4.9225    8.1603   33.9316 O   0  0  0  0  0  0  0  0  0  0  0  0
   -5.7050   10.1944   35.0863 C   0  0  2  0  0  0  0  0  0  0  0  0
   -5.5916   10.9078   33.9023 O   0  0  0  0  0  0  0  0  0  0  0  0
   -5.4195   11.1324   36.3460 C   0  0  2  0  0  0  0  0  0  0  0  0
   -5.5345   10.4033   37.5743 O   0  0  0  0  0  0  0  0  0  0  0  0
   -6.3885   12.2776   36.4274 C   0  0  0  0  0  0  0  0  0  0  0  0
   -5.9758   13.1172   37.5065 O   0  0  0  0  0  0  0  0  0  0  0  0
    0.6461    8.1292   38.9363 C   0  0  2  0  0  0  0  0  0  0  0  0
    1.7503    7.2242   39.1697 N   0  0  0  0  0  0  0  0  0  0  0  0
   -0.7041    7.4785   39.4286 C   0  0  0  0  0  0  0  0  0  0  0  0
   -1.9197    8.4399   39.1822 C   0  0  2  0  0  0  0  0  0  0  0  0
   -3.1486    7.7981   39.6444 N   0  0  0  0  0  0  0  0  0  0  0  0
   -2.0897    8.8242   37.6454 C   0  0  2  0  0  0  0  0  0  0  0  0
   -0.7649    9.4982   37.1847 C   0  0  2  0  0  0  0  0  0  0  0  0
   -1.0118    9.8375   35.7333 O   0  0  0  0  0  0  0  0  0  0  0  0
    0.4818    8.4711   37.3805 C   0  0  1  0  0  0  0  0  0  0  0  0
    1.7933    9.0182   37.0301 O   0  0  0  0  0  0  0  0  0  0  0  0
   -1.7046   11.0126   35.6059 C   0  0  1  0  0  0  0  0  0  0  0  0
   -0.8743   12.1987   35.8401 C   0  0  2  0  0  0  0  0  0  0  0  0
   -0.6197   12.2645   37.2067 O   0  0  0  0  0  0  0  0  0  0  0  0
   -1.7200   13.2955   35.1583 C   0  0  2  0  0  0  0  0  0  0  0  0
   -2.0704   14.2506   36.1852 O   0  0  0  0  0  0  0  0  0  0  0  0
   -2.9111   12.5782   34.6136 C   0  0  2  0  0  0  0  0  0  0  0  0
   -2.2428   11.2983   34.3255 O   0  0  0  0  0  0  0  0  0  0  0  0
   -3.4308   13.2347   33.2820 C   0  0  0  0  0  0  0  0  0  0  0  0
   -2.4855   13.1394   32.1744 O   0  0  0  0  0  0  0  0  0  0  0  0
   -2.7049   15.4897   35.7458 C   0  0  2  0  0  0  0  0  0  0  0  0
   -1.6555   16.3050   34.8249 C   0  0  2  0  0  0  0  0  0  0  0  0
   -0.4094   16.5704   35.6146 N   0  0  0  0  0  0  0  0  0  0  0  0
   -2.3629   17.6655   34.3424 C   0  0  1  0  0  0  0  0  0  0  0  0
   -3.5603   17.2907   33.5958 O   0  0  0  0  0  0  0  0  0  0  0  0
   -2.7340   18.5511   35.6161 C   0  0  2  0  0  0  0  0  0  0  0  0
   -1.4737   18.9007   36.3087 O   0  0  0  0  0  0  0  0  0  0  0  0
   -3.7471   17.6868   36.5586 C   0  0  1  0  0  0  0  0  0  0  0  0
   -3.0931   16.3829   36.9419 O   0  0  0  0  0  0  0  0  0  0  0  0
   -4.1192   18.5205   37.8295 C   0  0  0  0  0  0  0  0  0  0  0  0
   -5.0815   17.8106   38.7279 N   0  0  0  0  0  0  0  0  0  0  0  0
  1  3  1  0  0  0  0
  1  2  1  6  0  0  0
  3  4  1  6  0  0  0
  3  5  1  0  0  0  0
  5  6  1  6  0  0  0
  7  8  1  6  0  0  0
  7  5  1  0  0  0  0
  9 11  1  1  0  0  0
  9  7  1  0  0  0  0
 10  9  1  0  0  0  0
 10  1  1  0  0  0  0
 12 11  1  0  0  0  0
 13 14  1  6  0  0  0
 15 13  1  0  0  0  0
 16 17  1  6  0  0  0
 16 15  1  0  0  0  0
 18  2  1  1  0  0  0
 18 19  1  0  0  0  0
 18 16  1  0  0  0  0
 19 20  1  6  0  0  0
 19 21  1  0  0  0  0
 21 22  1  1  0  0  0
 21 13  1  0  0  0  0
 23 20  1  6  0  0  0
 23 29  1  0  0  0  0
 24 25  1  1  0  0  0
 24 26  1  0  0  0  0
 24 23  1  0  0  0  0
 26 27  1  1  0  0  0
 26 28  1  0  0  0  0
 28 30  1  6  0  0  0
 29 28  1  0  0  0  0
 30 31  1  0  0  0  0
 32 27  1  1  0  0  0
 32 40  1  0  0  0  0
 33 35  1  0  0  0  0
 33 32  1  0  0  0  0
 33 34  1  1  0  0  0
 35 36  1  1  0  0  0
 35 37  1  0  0  0  0
 37 38  1  1  0  0  0
 37 39  1  0  0  0  0
 39 41  1  1  0  0  0
 40 39  1  0  0  0  0
 41 42  1  0  0  0  0
M  END
>  <CHROM.1>
-65.26324525,-174.79366350,-72.22381237,82.36909337,75.98753208,171.09835704
65.12465797,-63.88036095,178.26564668,-2.74533469,12.13594496,36.30170417
1.44644886,0.34532974,2.98962974

>  <Name>
lig.pdb

>  <RI>
0

>  <Rbt.Current_Directory>
/home/itssahil/PROJECTS/Mol_Feturizer/New_Systems/rnas/4wcr

>  <Rbt.Executable>
rbdock ($Id: //depot/dev/client3/rdock/2013.1/src/exe/rbdock.cxx#4 $)

>  <Rbt.Library>
libRbt.so (2013.1, Build901 2013/11/27)

>  <Rbt.Parameter_File>
/export/apps/rDock/src/rDock_2013.1_src/data/scripts/dock_solv.prm

>  <Rbt.Receptor>
prm/pocket_docking_5.prm

>  <SCORE>
-5.3537

>  <SCORE.INTER>
1.70969

>  <SCORE.INTER.CONST>
1

>  <SCORE.INTER.POLAR>
0

>  <SCORE.INTER.ROT>
9

>  <SCORE.INTER.SOLV>
15.8033

>  <SCORE.INTER.VDW>
-13.728

>  <SCORE.INTER.norm>
0.0407068

>  <SCORE.INTRA>
-7.06339

>  <SCORE.INTRA.DIHEDRAL>
-10.8919

>  <SCORE.INTRA.DIHEDRAL.0>
16.2863

>  <SCORE.INTRA.POLAR>
0

>  <SCORE.INTRA.POLAR.0>
0

>  <SCORE.INTRA.REPUL>
-0.314433

>  <SCORE.INTRA.REPUL.0>
0.314433

>  <SCORE.INTRA.SOLV>
0.0726548

>  <SCORE.INTRA.SOLV.lig_0>
-103.824

>  <SCORE.INTRA.VDW>
-0.0815915

>  <SCORE.INTRA.VDW.0>
-5.30945

>  <SCORE.INTRA.norm>
-0.168176

>  <SCORE.RESTR>
0

>  <SCORE.RESTR.CAVITY>
0

>  <SCORE.RESTR.norm>
0

>  <SCORE.SYSTEM>
0

>  <SCORE.SYSTEM.CONST>
0

>  <SCORE.SYSTEM.DIHEDRAL>
0

>  <SCORE.SYSTEM.SOLV>
0

>  <SCORE.SYSTEM.norm>
0

>  <SCORE.heavy>
42

>  <SCORE.norm>
-0.127469

>  <RMSD>
9.117

$$$$
lig.pdb
 OpenBabel11021811513D
libRbt.so/2013.1/901 2013/11/27
 42 45  0  0  0  0  0  0  0  0999 V2000
   -2.8721   17.7982   36.0758 C   0  0  2  0  0  0  0  0  0  0  0  0
   -3.3494   19.1168   36.4885 O   0  0  0  0  0  0  0  0  0  0  0  0
   -3.0191   16.8544   37.3516 C   0  0  2  0  0  0  0  0  0  0  0  0
   -4.4263   16.7491   37.7471 N   0  0  0  0  0  0  0  0  0  0  0  0
   -2.0986   17.4351   38.5328 C   0  0  1  0  0  0  0  0  0  0  0  0
   -2.1848   16.6100   39.7136 O   0  0  0  0  0  0  0  0  0  0  0  0
   -0.6592   17.5050   37.9946 C   0  0  2  0  0  0  0  0  0  0  0  0
    0.1662   18.0055   38.9905 O   0  0  0  0  0  0  0  0  0  0  0  0
   -0.6090   18.4303   36.6948 C   0  0  2  0  0  0  0  0  0  0  0  0
   -1.4593   17.9205   35.6600 O   0  0  0  0  0  0  0  0  0  0  0  0
    0.7753   18.5167   36.1173 C   0  0  0  0  0  0  0  0  0  0  0  0
    1.2570   17.1829   35.9480 O   0  0  0  0  0  0  0  0  0  0  0  0
   -3.2612   23.1007   34.5152 C   0  0  2  0  0  0  0  0  0  0  0  0
   -2.7746   24.3629   34.0023 N   0  0  0  0  0  0  0  0  0  0  0  0
   -2.9304   22.9743   36.0526 C   0  0  0  0  0  0  0  0  0  0  0  0
   -3.4448   21.6101   36.6328 C   0  0  2  0  0  0  0  0  0  0  0  0
   -3.1129   21.5301   38.0538 N   0  0  0  0  0  0  0  0  0  0  0  0
   -2.8094   20.3535   35.8874 C   0  0  2  0  0  0  0  0  0  0  0  0
   -3.1756   20.4726   34.3796 C   0  0  2  0  0  0  0  0  0  0  0  0
   -2.5496   19.2487   33.7527 O   0  0  0  0  0  0  0  0  0  0  0  0
   -2.5812   21.8583   33.7681 C   0  0  1  0  0  0  0  0  0  0  0  0
   -2.9121   22.1055   32.3640 O   0  0  0  0  0  0  0  0  0  0  0  0
   -3.4956   18.4461   33.1711 C   0  0  1  0  0  0  0  0  0  0  0  0
   -3.8829   18.8928   31.8288 C   0  0  2  0  0  0  0  0  0  0  0  0
   -4.6586   20.0383   31.9796 O   0  0  0  0  0  0  0  0  0  0  0  0
   -4.5108   17.6048   31.2544 C   0  0  2  0  0  0  0  0  0  0  0  0
   -5.8895   17.9135   30.9485 O   0  0  0  0  0  0  0  0  0  0  0  0
   -4.3794   16.5943   32.3459 C   0  0  2  0  0  0  0  0  0  0  0  0
   -3.1219   17.1016   32.9198 O   0  0  0  0  0  0  0  0  0  0  0  0
   -4.1733   15.1423   31.7771 C   0  0  0  0  0  0  0  0  0  0  0  0
   -5.2783   14.6770   30.9455 O   0  0  0  0  0  0  0  0  0  0  0  0
   -6.2844   17.8505   29.5445 C   0  0  2  0  0  0  0  0  0  0  0  0
   -7.6876   18.6346   29.3704 C   0  0  2  0  0  0  0  0  0  0  0  0
   -8.7158   18.0090   30.2638 N   0  0  0  0  0  0  0  0  0  0  0  0
   -8.1132   18.5638   27.8220 C   0  0  1  0  0  0  0  0  0  0  0  0
   -7.0443   19.1897   27.0491 O   0  0  0  0  0  0  0  0  0  0  0  0
   -8.3132   17.0396   27.3959 C   0  0  2  0  0  0  0  0  0  0  0  0
   -9.4167   16.4819   28.2092 O   0  0  0  0  0  0  0  0  0  0  0  0
   -6.9022   16.2558   27.6342 C   0  0  1  0  0  0  0  0  0  0  0  0
   -6.4837   16.3944   29.0765 O   0  0  0  0  0  0  0  0  0  0  0  0
   -7.0672   14.7500   27.2420 C   0  0  0  0  0  0  0  0  0  0  0  0
   -7.4180   14.5609   25.8003 N   0  0  0  0  0  0  0  0  0  0  0  0
  1  3  1  0  0  0  0
  1  2  1  1  0  0  0
  3  4  1  1  0  0  0
  3  5  1  0  0  0  0
  5  6  1  1  0  0  0
  7  8  1  1  0  0  0
  7  5  1  0  0  0  0
  9 11  1  6  0  0  0
  9  7  1  0  0  0  0
 10  9  1  0  0  0  0
 10  1  1  0  0  0  0
 12 11  1  0  0  0  0
 13 14  1  6  0  0  0
 15 13  1  0  0  0  0
 16 17  1  1  0  0  0
 16 15  1  0  0  0  0
 18  2  1  1  0  0  0
 18 19  1  0  0  0  0
 18 16  1  0  0  0  0
 19 20  1  6  0  0  0
 19 21  1  0  0  0  0
 21 22  1  6  0  0  0
 21 13  1  0  0  0  0
 23 20  1  6  0  0  0
 23 29  1  0  0  0  0
 24 25  1  1  0  0  0
 24 26  1  0  0  0  0
 24 23  1  0  0  0  0
 26 27  1  1  0  0  0
 26 28  1  0  0  0  0
 28 30  1  6  0  0  0
 29 28  1  0  0  0  0
 30 31  1  0  0  0  0
 32 27  1  1  0  0  0
 32 40  1  0  0  0  0
 33 35  1  0  0  0  0
 33 32  1  0  0  0  0
 33 34  1  1  0  0  0
 35 36  1  6  0  0  0
 35 37  1  0  0  0  0
 37 38  1  1  0  0  0
 37 39  1  0  0  0  0
 39 41  1  1  0  0  0
 40 39  1  0  0  0  0
 41 42  1  0  0  0  0
M  END
>  <CHROM.1>
150.03591739,51.67980163,-175.38712373,119.18926022,81.98806348,115.93165042
-60.65483551,-163.40997828,61.63364005,-4.05340764,18.39714510,33.16936490
-0.21136000,1.00104477,-3.14053288

>  <Name>
lig.pdb

>  <RI>
0

>  <Rbt.Current_Directory>
/home/itssahil/PROJECTS/Mol_Feturizer/New_Systems/rnas/4wcr

>  <Rbt.Executable>
rbdock ($Id: //depot/dev/client3/rdock/2013.1/src/exe/rbdock.cxx#4 $)

>  <Rbt.Library>
libRbt.so (2013.1, Build901 2013/11/27)

>  <Rbt.Parameter_File>
/export/apps/rDock/src/rDock_2013.1_src/data/scripts/dock_solv.prm

>  <Rbt.Receptor>
prm/blind_docking_100.prm

>  <SCORE>
7.94402

>  <SCORE.INTER>
3.86454

>  <SCORE.INTER.CONST>
1

>  <SCORE.INTER.POLAR>
0

>  <SCORE.INTER.ROT>
9

>  <SCORE.INTER.SOLV>
39.1781

>  <SCORE.INTER.VDW>
-20.083

>  <SCORE.INTER.norm>
0.0920129

>  <SCORE.INTRA>
0.566572

>  <SCORE.INTRA.DIHEDRAL>
5.72062

>  <SCORE.INTRA.DIHEDRAL.0>
16.2863

>  <SCORE.INTRA.POLAR>
0

>  <SCORE.INTRA.POLAR.0>
0

>  <SCORE.INTRA.REPUL>
-0.294415

>  <SCORE.INTRA.REPUL.0>
0.314433

>  <SCORE.INTRA.SOLV>
-3.86411

>  <SCORE.INTRA.SOLV.lig_0>
-103.824

>  <SCORE.INTRA.VDW>
1.11039

>  <SCORE.INTRA.VDW.0>
-5.30945

>  <SCORE.INTRA.norm>
0.0134898

>  <SCORE.RESTR>
3.51291

>  <SCORE.RESTR.CAVITY>
3.51291

>  <SCORE.RESTR.norm>
0.0836407

>  <SCORE.SYSTEM>
0

>  <SCORE.SYSTEM.CONST>
0

>  <SCORE.SYSTEM.DIHEDRAL>
0

>  <SCORE.SYSTEM.SOLV>
0

>  <SCORE.SYSTEM.norm>
0

>  <SCORE.heavy>
42

>  <SCORE.norm>
0.189143

>  <RMSD>
9.118

$$$$
lig.pdb
 OpenBabel11021811513D
libRbt.so/2013.1/901 2013/11/27
 42 45  0  0  0  0  0  0  0  0999 V2000
   -2.5114   17.3375   36.7003 C   0  0  2  0  0  0  0  0  0  0  0  0
   -2.6872   16.1910   35.8104 O   0  0  0  0  0  0  0  0  0  0  0  0
   -1.7291   18.4388   35.8547 C   0  0  2  0  0  0  0  0  0  0  0  0
   -2.5266   18.8527   34.6969 N   0  0  0  0  0  0  0  0  0  0  0  0
   -0.3007   17.8428   35.4258 C   0  0  1  0  0  0  0  0  0  0  0  0
    0.4580   18.8057   34.6643 O   0  0  0  0  0  0  0  0  0  0  0  0
    0.4304   17.4403   36.7181 C   0  0  2  0  0  0  0  0  0  0  0  0
    1.6713   16.9179   36.3852 O   0  0  0  0  0  0  0  0  0  0  0  0
   -0.4395   16.3721   37.5247 C   0  0  2  0  0  0  0  0  0  0  0  0
   -1.7240   16.9035   37.8730 O   0  0  0  0  0  0  0  0  0  0  0  0
    0.2232   15.9591   38.8082 C   0  0  0  0  0  0  0  0  0  0  0  0
   -0.5841   14.9427   39.4040 O   0  0  0  0  0  0  0  0  0  0  0  0
   -5.5214   12.7700   36.0001 C   0  0  2  0  0  0  0  0  0  0  0  0
   -6.1158   11.5048   36.3732 N   0  0  0  0  0  0  0  0  0  0  0  0
   -4.0493   12.5468   35.4788 C   0  0  0  0  0  0  0  0  0  0  0  0
   -3.3800   13.9063   35.0712 C   0  0  2  0  0  0  0  0  0  0  0  0
   -2.0187   13.6567   34.6019 N   0  0  0  0  0  0  0  0  0  0  0  0
   -3.3227   14.9428   36.2798 C   0  0  2  0  0  0  0  0  0  0  0  0
   -4.7842   15.1813   36.7583 C   0  0  2  0  0  0  0  0  0  0  0  0
   -4.6424   16.1740   37.8884 O   0  0  0  0  0  0  0  0  0  0  0  0
   -5.4495   13.7776   37.2426 C   0  0  1  0  0  0  0  0  0  0  0  0
   -6.8479   13.8703   37.6645 O   0  0  0  0  0  0  0  0  0  0  0  0
   -5.8638   16.6352   38.3042 C   0  0  1  0  0  0  0  0  0  0  0  0
   -6.0569   16.5265   39.7541 C   0  0  2  0  0  0  0  0  0  0  0  0
   -6.2416   15.1791   40.0489 O   0  0  0  0  0  0  0  0  0  0  0  0
   -7.2072   17.5312   39.9789 C   0  0  2  0  0  0  0  0  0  0  0  0
   -8.3168   16.7801   40.5214 O   0  0  0  0  0  0  0  0  0  0  0  0
   -7.5006   18.0875   38.6246 C   0  0  2  0  0  0  0  0  0  0  0  0
   -6.1307   18.0113   38.0905 O   0  0  0  0  0  0  0  0  0  0  0  0
   -7.9755   19.5854   38.6979 C   0  0  0  0  0  0  0  0  0  0  0  0
   -8.2363   20.1814   37.3918 O   0  0  0  0  0  0  0  0  0  0  0  0
   -9.5198   17.5331   40.8630 C   0  0  2  0  0  0  0  0  0  0  0  0
   -9.1374   18.6275   41.9901 C   0  0  2  0  0  0  0  0  0  0  0  0
   -8.5653   17.9256   43.1845 N   0  0  0  0  0  0  0  0  0  0  0  0
  -10.4660   19.4544   42.3576 C   0  0  1  0  0  0  0  0  0  0  0  0
  -10.9380   20.0857   41.1287 O   0  0  0  0  0  0  0  0  0  0  0  0
  -11.5631   18.4596   42.9503 C   0  0  2  0  0  0  0  0  0  0  0  0
  -11.0189   17.8733   44.1954 O   0  0  0  0  0  0  0  0  0  0  0  0
  -11.8907   17.3313   41.8183 C   0  0  1  0  0  0  0  0  0  0  0  0
  -10.6198   16.6153   41.4348 O   0  0  0  0  0  0  0  0  0  0  0  0
  -12.9532   16.3256   42.3736 C   0  0  0  0  0  0  0  0  0  0  0  0
  -13.3971   15.3276   41.3518 N   0  0  0  0  0  0  0  0  0  0  0  0
  1  3  1  0  0  0  0
  1  2  1  6  0  0  0
  3  4  1  6  0  0  0
  3  5  1  0  0  0  0
  5  6  1  1  0  0  0
  7  8  1  6  0  0  0
  7  5  1  0  0  0  0
  9 11  1  1  0  0  0
  9  7  1  0  0  0  0
 10  9  1  0  0  0  0
 10  1  1  0  0  0  0
 12 11  1  0  0  0  0
 13 14  1  1  0  0  0
 15 13  1  0  0  0  0
 16 17  1  1  0  0  0
 16 15  1  0  0  0  0
 18  2  1  6  0  0  0
 18 19  1  0  0  0  0
 18 16  1  0  0  0  0
 19 20  1  1  0  0  0
 19 21  1  0  0  0  0
 21 22  1  6  0  0  0
 21 13  1  0  0  0  0
 23 20  1  1  0  0  0
 23 29  1  0  0  0  0
 24 25  1  6  0  0  0
 24 26  1  0  0  0  0
 24 23  1  0  0  0  0
 26 27  1  6  0  0  0
 26 28  1  0  0  0  0
 28 30  1  1  0  0  0
 29 28  1  0  0  0  0
 30 31  1  0  0  0  0
 32 27  1  1  0  0  0
 32 40  1  0  0  0  0
 33 35  1  0  0  0  0
 33 32  1  0  0  0  0
 33 34  1  1  0  0  0
 35 36  1  6  0  0  0
 35 37  1  0  0  0  0
 37 38  1  1  0  0  0
 37 39  1  0  0  0  0
 39 41  1  1  0  0  0
 40 39  1  0  0  0  0
 41 42  1  0  0  0  0
M  END
>  <CHROM.1>
177.04336465,-176.12982193,179.21328602,171.57037503,128.68543883,177.95574315
178.32326092,-60.59874571,174.98318803,-5.69154536,16.64415906,38.54396303
-0.31267942,0.45632208,0.37001697

>  <Name>
lig.pdb

>  <RI>
0

>  <Rbt.Current_Directory>
/home/itssahil/PROJECTS/Mol_Feturizer/New_Systems/rnas/4wcr

>  <Rbt.Executable>
rbdock ($Id: //depot/dev/client3/rdock/2013.1/src/exe/rbdock.cxx#4 $)

>  <Rbt.Library>
libRbt.so (2013.1, Build901 2013/11/27)

>  <Rbt.Parameter_File>
/export/apps/rDock/src/rDock_2013.1_src/data/scripts/dock_solv.prm

>  <Rbt.Receptor>
prm/pocket_docking_8.prm

>  <SCORE>
-10.1569

>  <SCORE.INTER>
-2.8276

>  <SCORE.INTER.CONST>
1

>  <SCORE.INTER.POLAR>
0

>  <SCORE.INTER.ROT>
9

>  <SCORE.INTER.SOLV>
22.0305

>  <SCORE.INTER.VDW>
-18.8286

>  <SCORE.INTER.norm>
-0.0673238

>  <SCORE.INTRA>
-7.33748

>  <SCORE.INTRA.DIHEDRAL>
-8.38441

>  <SCORE.INTRA.DIHEDRAL.0>
16.2863

>  <SCORE.INTRA.POLAR>
0

>  <SCORE.INTRA.POLAR.0>
0

>  <SCORE.INTRA.REPUL>
-0.312244

>  <SCORE.INTRA.REPUL.0>
0.314433

>  <SCORE.INTRA.SOLV>
-5.74171

>  <SCORE.INTRA.SOLV.lig_0>
-103.824

>  <SCORE.INTRA.VDW>
1.2868

>  <SCORE.INTRA.VDW.0>
-5.30945

>  <SCORE.INTRA.norm>
-0.174702

>  <SCORE.RESTR>
0.00821435

>  <SCORE.RESTR.CAVITY>
0.00821435

>  <SCORE.RESTR.norm>
0.00019558

>  <SCORE.SYSTEM>
0

>  <SCORE.SYSTEM.CONST>
0

>  <SCORE.SYSTEM.DIHEDRAL>
0

>  <SCORE.SYSTEM.SOLV>
0

>  <SCORE.SYSTEM.norm>
0

>  <SCORE.heavy>
42

>  <SCORE.norm>
-0.24183

>  <RMSD>
9.122

$$$$
lig.pdb
 OpenBabel11021811513D
libRbt.so/2013.1/901 2013/11/27
 42 45  0  0  0  0  0  0  0  0999 V2000
   -7.3786   16.8079   29.9598 C   0  0  2  0  0  0  0  0  0  0  0  0
   -6.3307   16.2826   29.0861 O   0  0  0  0  0  0  0  0  0  0  0  0
   -8.2895   17.7435   29.0461 C   0  0  2  0  0  0  0  0  0  0  0  0
   -8.9110   16.9593   27.9753 N   0  0  0  0  0  0  0  0  0  0  0  0
   -7.3878   18.9435   28.4745 C   0  0  1  0  0  0  0  0  0  0  0  0
   -8.1673   19.8316   27.6460 O   0  0  0  0  0  0  0  0  0  0  0  0
   -6.7891   19.6788   29.6857 C   0  0  2  0  0  0  0  0  0  0  0  0
   -6.0002   20.7239   29.2286 O   0  0  0  0  0  0  0  0  0  0  0  0
   -5.9320   18.6626   30.5695 C   0  0  2  0  0  0  0  0  0  0  0  0
   -6.7394   17.5790   31.0464 O   0  0  0  0  0  0  0  0  0  0  0  0
   -5.3393   19.3285   31.7788 C   0  0  0  0  0  0  0  0  0  0  0  0
   -4.2045   20.0799   31.3459 O   0  0  0  0  0  0  0  0  0  0  0  0
   -5.6651   12.2216   30.7706 C   0  0  2  0  0  0  0  0  0  0  0  0
   -5.0997   10.9086   30.9933 N   0  0  0  0  0  0  0  0  0  0  0  0
   -6.0676   12.3905   29.2546 C   0  0  0  0  0  0  0  0  0  0  0  0
   -6.6802   13.8100   28.9855 C   0  0  2  0  0  0  0  0  0  0  0  0
   -7.0320   13.9278   27.5720 N   0  0  0  0  0  0  0  0  0  0  0  0
   -5.6757   14.9877   29.3627 C   0  0  2  0  0  0  0  0  0  0  0  0
   -5.3176   14.8297   30.8688 C   0  0  2  0  0  0  0  0  0  0  0  0
   -4.3783   15.9805   31.1449 O   0  0  0  0  0  0  0  0  0  0  0  0
   -4.6214   13.3821   31.1286 C   0  0  1  0  0  0  0  0  0  0  0  0
   -4.2898   13.0983   32.5256 O   0  0  0  0  0  0  0  0  0  0  0  0
   -3.9787   15.9958   32.4554 C   0  0  1  0  0  0  0  0  0  0  0  0
   -2.5452   15.7349   32.6231 C   0  0  2  0  0  0  0  0  0  0  0  0
   -2.3359   14.3833   32.3665 O   0  0  0  0  0  0  0  0  0  0  0  0
   -2.3021   16.2990   34.0394 C   0  0  2  0  0  0  0  0  0  0  0  0
   -1.8429   15.1967   34.8541 O   0  0  0  0  0  0  0  0  0  0  0  0
   -3.6310   16.8199   34.4780 C   0  0  2  0  0  0  0  0  0  0  0  0
   -4.1210   17.2239   33.1497 O   0  0  0  0  0  0  0  0  0  0  0  0
   -3.4870   18.0771   35.4124 C   0  0  0  0  0  0  0  0  0  0  0  0
   -2.9639   19.2564   34.7307 O   0  0  0  0  0  0  0  0  0  0  0  0
   -0.6902   15.4467   35.7142 C   0  0  2  0  0  0  0  0  0  0  0  0
   -1.1776   15.3899   37.2548 C   0  0  2  0  0  0  0  0  0  0  0  0
   -2.2585   16.4063   37.4675 N   0  0  0  0  0  0  0  0  0  0  0  0
    0.0976   15.6623   38.1949 C   0  0  1  0  0  0  0  0  0  0  0  0
    1.0829   14.6258   37.9006 O   0  0  0  0  0  0  0  0  0  0  0  0
    0.6824   17.1143   37.8880 C   0  0  2  0  0  0  0  0  0  0  0  0
   -0.3644   18.1054   38.2228 O   0  0  0  0  0  0  0  0  0  0  0  0
    1.1138   17.1667   36.3154 C   0  0  1  0  0  0  0  0  0  0  0  0
   -0.0787   16.8383   35.4524 O   0  0  0  0  0  0  0  0  0  0  0  0
    1.6771   18.5862   35.9742 C   0  0  0  0  0  0  0  0  0  0  0  0
    0.6155   19.6393   35.9416 N   0  0  0  0  0  0  0  0  0  0  0  0
  1  3  1  0  0  0  0
  1  2  1  6  0  0  0
  3  4  1  6  0  0  0
  3  5  1  0  0  0  0
  5  6  1  1  0  0  0
  7  8  1  6  0  0  0
  7  5  1  0  0  0  0
  9 11  1  1  0  0  0
  9  7  1  0  0  0  0
 10  9  1  0  0  0  0
 10  1  1  0  0  0  0
 12 11  1  0  0  0  0
 13 14  1  6  0  0  0
 15 13  1  0  0  0  0
 16 17  1  6  0  0  0
 16 15  1  0  0  0  0
 18  2  1  1  0  0  0
 18 19  1  0  0  0  0
 18 16  1  0  0  0  0
 19 20  1  6  0  0  0
 19 21  1  0  0  0  0
 21 22  1  1  0  0  0
 21 13  1  0  0  0  0
 23 20  1  6  0  0  0
 23 29  1  0  0  0  0
 24 25  1  1  0  0  0
 24 26  1  0  0  0  0
 24 23  1  0  0  0  0
 26 27  1  1  0  0  0
 26 28  1  0  0  0  0
 28 30  1  1  0  0  0
 29 28  1  0  0  0  0
 30 31  1  0  0  0  0
 32 27  1  6  0  0  0
 32 40  1  0  0  0  0
 33 35  1  0  0  0  0
 33 32  1  0  0  0  0
 33 34  1  6  0  0  0
 35 36  1  6  0  0  0
 35 37  1  0  0  0  0
 37 38  1  6  0  0  0
 37 39  1  0  0  0  0
 39 41  1  6  0  0  0
 40 39  1  0  0  0  0
 41 42  1  0  0  0  0
M  END
>  <CHROM.1>
-152.98953070,-77.59787295,74.65993366,179.12097868,114.11810540,134.35989153
67.63602996,112.56033192,-71.62217012,-3.86027240,16.51821135,32.60297055
3.07623493,0.84523439,-3.07178812

>  <Name>
lig.pdb

>  <RI>
0

>  <Rbt.Current_Directory>
/home/itssahil/PROJECTS/Mol_Feturizer/New_Systems/rnas/4wcr

>  <Rbt.Executable>
rbdock ($Id: //depot/dev/client3/rdock/2013.1/src/exe/rbdock.cxx#4 $)

>  <Rbt.Library>
libRbt.so (2013.1, Build901 2013/11/27)

>  <Rbt.Parameter_File>
/export/apps/rDock/src/rDock_2013.1_src/data/scripts/dock_solv.prm

>  <Rbt.Receptor>
prm/blind_docking_100.prm

>  <SCORE>
0.147298

>  <SCORE.INTER>
-10.7497

>  <SCORE.INTER.CONST>
1

>  <SCORE.INTER.POLAR>
0

>  <SCORE.INTER.ROT>
9

>  <SCORE.INTER.SOLV>
28.9168

>  <SCORE.INTER.VDW>
-26.4054

>  <SCORE.INTER.norm>
-0.255946

>  <SCORE.INTRA>
6.66784

>  <SCORE.INTRA.DIHEDRAL>
9.92415

>  <SCORE.INTRA.DIHEDRAL.0>
16.2863

>  <SCORE.INTRA.POLAR>
0

>  <SCORE.INTRA.POLAR.0>
0

>  <SCORE.INTRA.REPUL>
-0.225154

>  <SCORE.INTRA.REPUL.0>
0.314433

>  <SCORE.INTRA.SOLV>
2.47716

>  <SCORE.INTRA.SOLV.lig_0>
-103.824

>  <SCORE.INTRA.VDW>
1.59296

>  <SCORE.INTRA.VDW.0>
-5.30945

>  <SCORE.INTRA.norm>
0.158758

>  <SCORE.RESTR>
4.22917

>  <SCORE.RESTR.CAVITY>
4.22917

>  <SCORE.RESTR.norm>
0.100695

>  <SCORE.SYSTEM>
0

>  <SCORE.SYSTEM.CONST>
0

>  <SCORE.SYSTEM.DIHEDRAL>
0

>  <SCORE.SYSTEM.SOLV>
0

>  <SCORE.SYSTEM.norm>
0

>  <SCORE.heavy>
42

>  <SCORE.norm>
0.0035071

>  <RMSD>
9.124

$$$$
lig.pdb
 OpenBabel11021811513D
libRbt.so/2013.1/901 2013/11/27
 42 45  0  0  0  0  0  0  0  0999 V2000
   -3.6211    9.9728   39.0230 C   0  0  2  0  0  0  0  0  0  0  0  0
   -3.0353   10.0282   37.6847 O   0  0  0  0  0  0  0  0  0  0  0  0
   -2.6973   10.8834   39.9490 C   0  0  2  0  0  0  0  0  0  0  0  0
   -2.7156   12.2712   39.4783 N   0  0  0  0  0  0  0  0  0  0  0  0
   -1.2140   10.2674   39.9645 C   0  0  1  0  0  0  0  0  0  0  0  0
   -0.3344   11.0489   40.8000 O   0  0  0  0  0  0  0  0  0  0  0  0
   -1.3295    8.8172   40.4646 C   0  0  2  0  0  0  0  0  0  0  0  0
   -0.0635    8.2511   40.4893 O   0  0  0  0  0  0  0  0  0  0  0  0
   -2.3051    7.9890   39.5103 C   0  0  2  0  0  0  0  0  0  0  0  0
   -3.6161    8.5670   39.4786 O   0  0  0  0  0  0  0  0  0  0  0  0
   -2.4675    6.5670   39.9672 C   0  0  0  0  0  0  0  0  0  0  0  0
   -3.2387    5.8812   38.9800 O   0  0  0  0  0  0  0  0  0  0  0  0
   -4.4011    9.1324   33.5489 C   0  0  2  0  0  0  0  0  0  0  0  0
   -4.8951    8.4084   32.3980 N   0  0  0  0  0  0  0  0  0  0  0  0
   -3.1139    8.4254   34.1251 C   0  0  0  0  0  0  0  0  0  0  0  0
   -2.5603    9.1900   35.3787 C   0  0  2  0  0  0  0  0  0  0  0  0
   -1.3753    8.5004   35.8847 N   0  0  0  0  0  0  0  0  0  0  0  0
   -3.6332    9.2920   36.5520 C   0  0  2  0  0  0  0  0  0  0  0  0
   -4.8812   10.0243   35.9794 C   0  0  2  0  0  0  0  0  0  0  0  0
   -5.8370   10.0877   37.1477 O   0  0  0  0  0  0  0  0  0  0  0  0
   -5.4899    9.1904   34.7218 C   0  0  1  0  0  0  0  0  0  0  0  0
   -6.6389    9.8151   34.0648 O   0  0  0  0  0  0  0  0  0  0  0  0
   -5.8766   11.3440   37.6930 C   0  0  1  0  0  0  0  0  0  0  0  0
   -6.7298   12.2709   36.9419 C   0  0  2  0  0  0  0  0  0  0  0  0
   -6.0627   12.5865   35.7621 O   0  0  0  0  0  0  0  0  0  0  0  0
   -6.9873   13.3650   38.0002 C   0  0  2  0  0  0  0  0  0  0  0  0
   -6.4491   14.5960   37.4667 O   0  0  0  0  0  0  0  0  0  0  0  0
   -6.2568   12.9009   39.2170 C   0  0  2  0  0  0  0  0  0  0  0  0
   -6.4250   11.4550   38.9960 O   0  0  0  0  0  0  0  0  0  0  0  0
   -6.9862   13.3395   40.5399 C   0  0  0  0  0  0  0  0  0  0  0  0
   -8.3496   12.8319   40.6526 O   0  0  0  0  0  0  0  0  0  0  0  0
   -6.5423   15.7800   38.3155 C   0  0  2  0  0  0  0  0  0  0  0  0
   -6.1820   17.0800   37.4243 C   0  0  2  0  0  0  0  0  0  0  0  0
   -4.8074   16.9175   36.8492 N   0  0  0  0  0  0  0  0  0  0  0  0
   -6.2906   18.3790   38.3650 C   0  0  1  0  0  0  0  0  0  0  0  0
   -7.6583   18.4336   38.8730 O   0  0  0  0  0  0  0  0  0  0  0  0
   -5.2391   18.2592   39.5584 C   0  0  2  0  0  0  0  0  0  0  0  0
   -3.8830   18.2236   38.9668 O   0  0  0  0  0  0  0  0  0  0  0  0
   -5.5865   16.9108   40.4088 C   0  0  1  0  0  0  0  0  0  0  0  0
   -5.5496   15.7122   39.4941 O   0  0  0  0  0  0  0  0  0  0  0  0
   -4.5613   16.7520   41.5802 C   0  0  0  0  0  0  0  0  0  0  0  0
   -3.1554   16.5757   41.1010 N   0  0  0  0  0  0  0  0  0  0  0  0
  1  3  1  0  0  0  0
  1  2  1  6  0  0  0
  3  4  1  6  0  0  0
  3  5  1  0  0  0  0
  5  6  1  1  0  0  0
  7  8  1  6  0  0  0
  7  5  1  0  0  0  0
  9 11  1  1  0  0  0
  9  7  1  0  0  0  0
 10  9  1  0  0  0  0
 10  1  1  0  0  0  0
 12 11  1  0  0  0  0
 13 14  1  6  0  0  0
 15 13  1  0  0  0  0
 16 17  1  1  0  0  0
 16 15  1  0  0  0  0
 18  2  1  1  0  0  0
 18 19  1  0  0  0  0
 18 16  1  0  0  0  0
 19 20  1  1  0  0  0
 19 21  1  0  0  0  0
 21 22  1  6  0  0  0
 21 13  1  0  0  0  0
 23 20  1  6  0  0  0
 23 29  1  0  0  0  0
 24 25  1  6  0  0  0
 24 26  1  0  0  0  0
 24 23  1  0  0  0  0
 26 27  1  6  0  0  0
 26 28  1  0  0  0  0
 28 30  1  1  0  0  0
 29 28  1  0  0  0  0
 30 31  1  0  0  0  0
 32 27  1  6  0  0  0
 32 40  1  0  0  0  0
 33 35  1  0  0  0  0
 33 32  1  0  0  0  0
 33 34  1  1  0  0  0
 35 36  1  1  0  0  0
 35 37  1  0  0  0  0
 37 38  1  6  0  0  0
 37 39  1  0  0  0  0
 39 41  1  1  0  0  0
 40 39  1  0  0  0  0
 41 42  1  0  0  0  0
M  END
>  <CHROM.1>
179.92178094,-174.11243487,-163.12769208,104.07713441,80.28560429,-178.32780384
59.21066731,-168.09317420,-62.61702903,-4.51093642,12.04773383,38.16051885
-1.04413496,-0.88595222,0.63609745

>  <Name>
lig.pdb

>  <RI>
0

>  <Rbt.Current_Directory>
/home/itssahil/PROJECTS/Mol_Feturizer/New_Systems/rnas/4wcr

>  <Rbt.Executable>
rbdock ($Id: //depot/dev/client3/rdock/2013.1/src/exe/rbdock.cxx#4 $)

>  <Rbt.Library>
libRbt.so (2013.1, Build901 2013/11/27)

>  <Rbt.Parameter_File>
/export/apps/rDock/src/rDock_2013.1_src/data/scripts/dock_solv.prm

>  <Rbt.Receptor>
prm/pocket_docking_4.prm

>  <SCORE>
-1.24798

>  <SCORE.INTER>
3.52602

>  <SCORE.INTER.CONST>
1

>  <SCORE.INTER.POLAR>
0

>  <SCORE.INTER.ROT>
9

>  <SCORE.INTER.SOLV>
14.7725

>  <SCORE.INTER.VDW>
-12.1735

>  <SCORE.INTER.norm>
0.083953

>  <SCORE.INTRA>
-4.82865

>  <SCORE.INTRA.DIHEDRAL>
-5.72783

>  <SCORE.INTRA.DIHEDRAL.0>
16.2863

>  <SCORE.INTRA.POLAR>
0

>  <SCORE.INTRA.POLAR.0>
0

>  <SCORE.INTRA.REPUL>
-0.314433

>  <SCORE.INTRA.REPUL.0>
0.314433

>  <SCORE.INTRA.SOLV>
-1.61752

>  <SCORE.INTRA.SOLV.lig_0>
-103.824

>  <SCORE.INTRA.VDW>
0.416192

>  <SCORE.INTRA.VDW.0>
-5.30945

>  <SCORE.INTRA.norm>
-0.114968

>  <SCORE.RESTR>
0.0546375

>  <SCORE.RESTR.CAVITY>
0.0546375

>  <SCORE.RESTR.norm>
0.00130089

>  <SCORE.SYSTEM>
0

>  <SCORE.SYSTEM.CONST>
0

>  <SCORE.SYSTEM.DIHEDRAL>
0

>  <SCORE.SYSTEM.SOLV>
0

>  <SCORE.SYSTEM.norm>
0

>  <SCORE.heavy>
42

>  <SCORE.norm>
-0.0297139

>  <RMSD>
9.143

$$$$
lig.pdb
 OpenBabel11021811513D
libRbt.so/2013.1/901 2013/11/27
 42 45  0  0  0  0  0  0  0  0999 V2000
   -4.1955    7.6329   36.9692 C   0  0  2  0  0  0  0  0  0  0  0  0
   -2.7899    7.9982   37.1368 O   0  0  0  0  0  0  0  0  0  0  0  0
   -4.2044    6.1100   36.4992 C   0  0  2  0  0  0  0  0  0  0  0  0
   -3.6101    5.2556   37.5309 N   0  0  0  0  0  0  0  0  0  0  0  0
   -3.4289    5.9974   35.0972 C   0  0  1  0  0  0  0  0  0  0  0  0
   -3.4160    4.6365   34.6172 O   0  0  0  0  0  0  0  0  0  0  0  0
   -4.1373    6.9397   34.1090 C   0  0  2  0  0  0  0  0  0  0  0  0
   -3.4913    6.8696   32.8837 O   0  0  0  0  0  0  0  0  0  0  0  0
   -4.1234    8.4320   34.6756 C   0  0  2  0  0  0  0  0  0  0  0  0
   -4.7891    8.5139   35.9420 O   0  0  0  0  0  0  0  0  0  0  0  0
   -4.8216    9.3915   33.7541 C   0  0  0  0  0  0  0  0  0  0  0  0
   -6.1282    8.8738   33.5003 O   0  0  0  0  0  0  0  0  0  0  0  0
   -1.9655    9.9013   41.0702 C   0  0  2  0  0  0  0  0  0  0  0  0
   -1.4815   10.8350   42.0636 N   0  0  0  0  0  0  0  0  0  0  0  0
   -0.7710    9.3921   40.1744 C   0  0  0  0  0  0  0  0  0  0  0  0
   -1.2710    8.3799   39.0845 C   0  0  2  0  0  0  0  0  0  0  0  0
   -0.1378    7.9392   38.2737 N   0  0  0  0  0  0  0  0  0  0  0  0
   -2.3716    9.0151   38.1234 C   0  0  2  0  0  0  0  0  0  0  0  0
   -3.5585    9.4781   39.0169 C   0  0  2  0  0  0  0  0  0  0  0  0
   -4.5529   10.0538   38.0358 O   0  0  0  0  0  0  0  0  0  0  0  0
   -3.0458   10.5779   40.1009 C   0  0  1  0  0  0  0  0  0  0  0  0
   -4.0695   11.0469   41.0360 O   0  0  0  0  0  0  0  0  0  0  0  0
   -4.2974   11.3760   37.7834 C   0  0  1  0  0  0  0  0  0  0  0  0
   -4.3838   11.7174   36.3596 C   0  0  2  0  0  0  0  0  0  0  0  0
   -3.2654   11.1751   35.7337 O   0  0  0  0  0  0  0  0  0  0  0  0
   -4.5632   13.2491   36.4294 C   0  0  2  0  0  0  0  0  0  0  0  0
   -3.4343   13.8329   35.7407 O   0  0  0  0  0  0  0  0  0  0  0  0
   -4.5709   13.5681   37.8881 C   0  0  2  0  0  0  0  0  0  0  0  0
   -5.1945   12.3168   38.3499 O   0  0  0  0  0  0  0  0  0  0  0  0
   -5.5011   14.7942   38.2138 C   0  0  0  0  0  0  0  0  0  0  0  0
   -6.9052   14.5665   37.8885 O   0  0  0  0  0  0  0  0  0  0  0  0
   -3.4434   15.2826   35.5690 C   0  0  2  0  0  0  0  0  0  0  0  0
   -2.1645   15.7011   34.6726 C   0  0  2  0  0  0  0  0  0  0  0  0
   -0.9128   15.2312   35.3503 N   0  0  0  0  0  0  0  0  0  0  0  0
   -2.1839   17.2975   34.4853 C   0  0  1  0  0  0  0  0  0  0  0  0
   -3.4413   17.6419   33.8279 O   0  0  0  0  0  0  0  0  0  0  0  0
   -2.0707   18.0006   35.9126 C   0  0  2  0  0  0  0  0  0  0  0  0
   -0.7707   17.6163   36.5062 O   0  0  0  0  0  0  0  0  0  0  0  0
   -3.3392   17.5190   36.8186 C   0  0  1  0  0  0  0  0  0  0  0  0
   -3.3442   16.0144   36.9231 O   0  0  0  0  0  0  0  0  0  0  0  0
   -3.2507   18.1776   38.2353 C   0  0  0  0  0  0  0  0  0  0  0  0
   -4.4608   17.9144   39.0742 N   0  0  0  0  0  0  0  0  0  0  0  0
  1  3  1  0  0  0  0
  1  2  1  6  0  0  0
  3  4  1  1  0  0  0
  3  5  1  0  0  0  0
  5  6  1  6  0  0  0
  7  8  1  6  0  0  0
  7  5  1  0  0  0  0
  9 11  1  6  0  0  0
  9  7  1  0  0  0  0
 10  9  1  0  0  0  0
 10  1  1  0  0  0  0
 12 11  1  0  0  0  0
 13 14  1  1  0  0  0
 15 13  1  0  0  0  0
 16 17  1  6  0  0  0
 16 15  1  0  0  0  0
 18  2  1  6  0  0  0
 18 19  1  0  0  0  0
 18 16  1  0  0  0  0
 19 20  1  6  0  0  0
 19 21  1  0  0  0  0
 21 22  1  1  0  0  0
 21 13  1  0  0  0  0
 23 20  1  6  0  0  0
 23 29  1  0  0  0  0
 24 25  1  6  0  0  0
 24 26  1  0  0  0  0
 24 23  1  0  0  0  0
 26 27  1  6  0  0  0
 26 28  1  0  0  0  0
 28 30  1  6  0  0  0
 29 28  1  0  0  0  0
 30 31  1  0  0  0  0
 32 27  1  1  0  0  0
 32 40  1  0  0  0  0
 33 35  1  0  0  0  0
 33 32  1  0  0  0  0
 33 34  1  1  0  0  0
 35 36  1  1  0  0  0
 35 37  1  0  0  0  0
 37 38  1  1  0  0  0
 37 39  1  0  0  0  0
 39 41  1  1  0  0  0
 40 39  1  0  0  0  0
 41 42  1  0  0  0  0
M  END
>  <CHROM.1>
-150.18260079,53.65666158,125.14403454,-86.87257899,135.86739409,174.63964262
62.29121547,-175.24740579,173.27292201,-3.45362360,11.58105263,36.91137337
-1.70868411,-1.34683662,-0.11213841

>  <Name>
lig.pdb

>  <RI>
0

>  <Rbt.Current_Directory>
/home/itssahil/PROJECTS/Mol_Feturizer/New_Systems/rnas/4wcr

>  <Rbt.Executable>
rbdock ($Id: //depot/dev/client3/rdock/2013.1/src/exe/rbdock.cxx#4 $)

>  <Rbt.Library>
libRbt.so (2013.1, Build901 2013/11/27)

>  <Rbt.Parameter_File>
/export/apps/rDock/src/rDock_2013.1_src/data/scripts/dock_solv.prm

>  <Rbt.Receptor>
prm/pocket_docking_3.prm

>  <SCORE>
5.11773

>  <SCORE.INTER>
2.93224

>  <SCORE.INTER.CONST>
1

>  <SCORE.INTER.POLAR>
0

>  <SCORE.INTER.ROT>
9

>  <SCORE.INTER.SOLV>
13.7366

>  <SCORE.INTER.VDW>
-12.2241

>  <SCORE.INTER.norm>
0.0698151

>  <SCORE.INTRA>
2.14856

>  <SCORE.INTRA.DIHEDRAL>
4.43082

>  <SCORE.INTRA.DIHEDRAL.0>
16.2863

>  <SCORE.INTRA.POLAR>
0

>  <SCORE.INTRA.POLAR.0>
0

>  <SCORE.INTRA.REPUL>
-0.314433

>  <SCORE.INTRA.REPUL.0>
0.314433

>  <SCORE.INTRA.SOLV>
-3.10649

>  <SCORE.INTRA.SOLV.lig_0>
-103.824

>  <SCORE.INTRA.VDW>
3.05856

>  <SCORE.INTRA.VDW.0>
-5.30945

>  <SCORE.INTRA.norm>
0.0511562

>  <SCORE.RESTR>
0.0369371

>  <SCORE.RESTR.CAVITY>
0.0369371

>  <SCORE.RESTR.norm>
0.000879454

>  <SCORE.SYSTEM>
0

>  <SCORE.SYSTEM.CONST>
0

>  <SCORE.SYSTEM.DIHEDRAL>
0

>  <SCORE.SYSTEM.SOLV>
0

>  <SCORE.SYSTEM.norm>
0

>  <SCORE.heavy>
42

>  <SCORE.norm>
0.121851

>  <RMSD>
9.149

$$$$
lig.pdb
 OpenBabel11021811513D
libRbt.so/2013.1/901 2013/11/27
 42 45  0  0  0  0  0  0  0  0999 V2000
   -3.1817   17.5271   37.3487 C   0  0  2  0  0  0  0  0  0  0  0  0
   -3.4722   18.3796   36.1971 O   0  0  0  0  0  0  0  0  0  0  0  0
   -1.6101   17.2643   37.3202 C   0  0  2  0  0  0  0  0  0  0  0  0
   -0.8803   18.5268   37.4662 N   0  0  0  0  0  0  0  0  0  0  0  0
   -1.2382   16.5027   35.9558 C   0  0  1  0  0  0  0  0  0  0  0  0
    0.1767   16.2283   35.8817 O   0  0  0  0  0  0  0  0  0  0  0  0
   -2.0688   15.2085   35.9168 C   0  0  2  0  0  0  0  0  0  0  0  0
   -1.7739   14.5235   34.7474 O   0  0  0  0  0  0  0  0  0  0  0  0
   -3.6244   15.5582   35.9951 C   0  0  2  0  0  0  0  0  0  0  0  0
   -3.9384   16.2664   37.2008 O   0  0  0  0  0  0  0  0  0  0  0  0
   -4.4812   14.3242   35.9796 C   0  0  0  0  0  0  0  0  0  0  0  0
   -4.0162   13.4885   34.9190 O   0  0  0  0  0  0  0  0  0  0  0  0
   -3.2526   22.7972   35.7397 C   0  0  2  0  0  0  0  0  0  0  0  0
   -2.7277   24.1449   35.7086 N   0  0  0  0  0  0  0  0  0  0  0  0
   -2.9667   22.1341   37.1424 C   0  0  0  0  0  0  0  0  0  0  0  0
   -3.5231   20.6680   37.2004 C   0  0  2  0  0  0  0  0  0  0  0  0
   -3.2319   20.0889   38.5102 N   0  0  0  0  0  0  0  0  0  0  0  0
   -2.8920   19.7327   36.0756 C   0  0  2  0  0  0  0  0  0  0  0  0
   -3.2144   20.3795   34.6974 C   0  0  2  0  0  0  0  0  0  0  0  0
   -2.5953   19.4338   33.6949 O   0  0  0  0  0  0  0  0  0  0  0  0
   -2.5766   21.8744   34.6191 C   0  0  1  0  0  0  0  0  0  0  0  0
   -2.8640   22.6043   33.3835 O   0  0  0  0  0  0  0  0  0  0  0  0
   -3.5455   18.6503   33.0945 C   0  0  1  0  0  0  0  0  0  0  0  0
   -3.9085   19.1135   31.7511 C   0  0  2  0  0  0  0  0  0  0  0  0
   -4.6690   20.2693   31.9014 O   0  0  0  0  0  0  0  0  0  0  0  0
   -4.5481   17.8398   31.1580 C   0  0  2  0  0  0  0  0  0  0  0  0
   -5.9179   18.1717   30.8369 O   0  0  0  0  0  0  0  0  0  0  0  0
   -4.4459   16.8187   32.2427 C   0  0  2  0  0  0  0  0  0  0  0  0
   -3.1886   17.3024   32.8369 O   0  0  0  0  0  0  0  0  0  0  0  0
   -4.2541   15.3684   31.6645 C   0  0  0  0  0  0  0  0  0  0  0  0
   -3.6939   14.4243   32.6257 O   0  0  0  0  0  0  0  0  0  0  0  0
   -6.2995   18.1107   29.4292 C   0  0  2  0  0  0  0  0  0  0  0  0
   -7.7849   18.7299   29.2729 C   0  0  2  0  0  0  0  0  0  0  0  0
   -8.7343   17.9576   30.1382 N   0  0  0  0  0  0  0  0  0  0  0  0
   -8.1958   18.6625   27.7202 C   0  0  1  0  0  0  0  0  0  0  0  0
   -7.2062   19.4358   26.9756 O   0  0  0  0  0  0  0  0  0  0  0  0
   -8.2140   17.1409   27.2419 C   0  0  2  0  0  0  0  0  0  0  0  0
   -9.2460   16.4299   28.0290 O   0  0  0  0  0  0  0  0  0  0  0  0
   -6.7211   16.5207   27.4624 C   0  0  1  0  0  0  0  0  0  0  0  0
   -6.3250   16.6581   28.9111 O   0  0  0  0  0  0  0  0  0  0  0  0
   -6.7068   15.0202   27.0187 C   0  0  0  0  0  0  0  0  0  0  0  0
   -7.4757   14.1335   27.9459 N   0  0  0  0  0  0  0  0  0  0  0  0
  1  3  1  0  0  0  0
  1  2  1  6  0  0  0
  3  4  1  6  0  0  0
  3  5  1  0  0  0  0
  5  6  1  1  0  0  0
  7  8  1  6  0  0  0
  7  5  1  0  0  0  0
  9 11  1  1  0  0  0
  9  7  1  0  0  0  0
 10  9  1  0  0  0  0
 10  1  1  0  0  0  0
 12 11  1  0  0  0  0
 13 14  1  1  0  0  0
 15 13  1  0  0  0  0
 16 17  1  1  0  0  0
 16 15  1  0  0  0  0
 18  2  1  6  0  0  0
 18 19  1  0  0  0  0
 18 16  1  0  0  0  0
 19 20  1  6  0  0  0
 19 21  1  0  0  0  0
 21 22  1  6  0  0  0
 21 13  1  0  0  0  0
 23 20  1  6  0  0  0
 23 29  1  0  0  0  0
 24 25  1  1  0  0  0
 24 26  1  0  0  0  0
 24 23  1  0  0  0  0
 26 27  1  1  0  0  0
 26 28  1  0  0  0  0
 28 30  1  6  0  0  0
 29 28  1  0  0  0  0
 30 31  1  0  0  0  0
 32 27  1  1  0  0  0
 32 40  1  0  0  0  0
 33 35  1  0  0  0  0
 33 32  1  0  0  0  0
 33 34  1  1  0  0  0
 35 36  1  6  0  0  0
 35 37  1  0  0  0  0
 37 38  1  1  0  0  0
 37 39  1  0  0  0  0
 39 41  1  1  0  0  0
 40 39  1  0  0  0  0
 41 42  1  0  0  0  0
M  END
>  <CHROM.1>
-62.18949001,-47.61909704,-67.89421529,103.15688274,101.14533227,116.63203251
159.81421909,-171.47316113,-70.42017063,-4.30672201,17.92294174,33.07452009
-0.24517805,1.02483746,-3.08382818

>  <Name>
lig.pdb

>  <RI>
0

>  <Rbt.Current_Directory>
/home/itssahil/PROJECTS/Mol_Feturizer/New_Systems/rnas/4wcr

>  <Rbt.Executable>
rbdock ($Id: //depot/dev/client3/rdock/2013.1/src/exe/rbdock.cxx#4 $)

>  <Rbt.Library>
libRbt.so (2013.1, Build901 2013/11/27)

>  <Rbt.Parameter_File>
/export/apps/rDock/src/rDock_2013.1_src/data/scripts/dock_solv.prm

>  <Rbt.Receptor>
prm/blind_docking_100.prm

>  <SCORE>
14.9637

>  <SCORE.INTER>
8.67233

>  <SCORE.INTER.CONST>
1

>  <SCORE.INTER.POLAR>
0

>  <SCORE.INTER.ROT>
9

>  <SCORE.INTER.SOLV>
40.6027

>  <SCORE.INTER.VDW>
-17.3527

>  <SCORE.INTER.norm>
0.206484

>  <SCORE.INTRA>
3.41619

>  <SCORE.INTRA.DIHEDRAL>
5.44775

>  <SCORE.INTRA.DIHEDRAL.0>
16.2863

>  <SCORE.INTRA.POLAR>
0

>  <SCORE.INTRA.POLAR.0>
0

>  <SCORE.INTRA.REPUL>
-0.30661

>  <SCORE.INTRA.REPUL.0>
0.314433

>  <SCORE.INTRA.SOLV>
2.69568

>  <SCORE.INTRA.SOLV.lig_0>
-103.824

>  <SCORE.INTRA.VDW>
0.877524

>  <SCORE.INTRA.VDW.0>
-5.30945

>  <SCORE.INTRA.norm>
0.0813378

>  <SCORE.RESTR>
2.87517

>  <SCORE.RESTR.CAVITY>
2.87517

>  <SCORE.RESTR.norm>
0.0684564

>  <SCORE.SYSTEM>
0

>  <SCORE.SYSTEM.CONST>
0

>  <SCORE.SYSTEM.DIHEDRAL>
0

>  <SCORE.SYSTEM.SOLV>
0

>  <SCORE.SYSTEM.norm>
0

>  <SCORE.heavy>
42

>  <SCORE.norm>
0.356278

>  <RMSD>
9.160

$$$$
lig.pdb
 OpenBabel11021811513D
libRbt.so/2013.1/901 2013/11/27
 42 45  0  0  0  0  0  0  0  0999 V2000
   -1.2918   17.3404   36.2265 C   0  0  2  0  0  0  0  0  0  0  0  0
   -0.7247   17.4394   34.8827 O   0  0  0  0  0  0  0  0  0  0  0  0
   -0.1937   16.6056   37.1177 C   0  0  2  0  0  0  0  0  0  0  0  0
    1.0328   17.4057   37.1762 N   0  0  0  0  0  0  0  0  0  0  0  0
    0.0660   15.1402   36.5136 C   0  0  1  0  0  0  0  0  0  0  0  0
    1.0475   14.4228   37.2913 O   0  0  0  0  0  0  0  0  0  0  0  0
   -1.2874   14.4092   36.4966 C   0  0  2  0  0  0  0  0  0  0  0  0
   -1.1013   13.1366   35.9776 O   0  0  0  0  0  0  0  0  0  0  0  0
   -2.3392   15.2327   35.6225 C   0  0  2  0  0  0  0  0  0  0  0  0
   -2.5378   16.5495   36.1519 O   0  0  0  0  0  0  0  0  0  0  0  0
   -3.6868   14.5692   35.5893 C   0  0  0  0  0  0  0  0  0  0  0  0
   -3.7295   13.7351   34.4308 O   0  0  0  0  0  0  0  0  0  0  0  0
   -2.1042   21.4407   33.5190 C   0  0  2  0  0  0  0  0  0  0  0  0
   -2.3900   22.5703   32.6615 N   0  0  0  0  0  0  0  0  0  0  0  0
   -0.5766   21.0583   33.4239 C   0  0  0  0  0  0  0  0  0  0  0  0
   -0.2411   19.8313   34.3428 C   0  0  2  0  0  0  0  0  0  0  0  0
    1.1783   19.5057   34.2203 N   0  0  0  0  0  0  0  0  0  0  0  0
   -1.0964   18.5399   33.9698 C   0  0  2  0  0  0  0  0  0  0  0  0
   -2.5989   18.9217   34.1045 C   0  0  2  0  0  0  0  0  0  0  0  0
   -3.3335   17.6509   33.7465 O   0  0  0  0  0  0  0  0  0  0  0  0
   -2.9551   20.1507   33.0994 C   0  0  1  0  0  0  0  0  0  0  0  0
   -4.3344   20.6339   33.1796 O   0  0  0  0  0  0  0  0  0  0  0  0
   -3.9736   17.7668   32.5406 C   0  0  1  0  0  0  0  0  0  0  0  0
   -4.6804   16.5443   32.1444 C   0  0  2  0  0  0  0  0  0  0  0  0
   -3.7185   15.6106   31.7707 O   0  0  0  0  0  0  0  0  0  0  0  0
   -5.6691   17.0968   31.0954 C   0  0  2  0  0  0  0  0  0  0  0  0
   -5.3618   16.4389   29.8455 O   0  0  0  0  0  0  0  0  0  0  0  0
   -5.3998   18.5649   31.0506 C   0  0  2  0  0  0  0  0  0  0  0  0
   -5.0138   18.7272   32.4621 O   0  0  0  0  0  0  0  0  0  0  0  0
   -6.7034   19.3896   30.7427 C   0  0  0  0  0  0  0  0  0  0  0  0
   -6.5608   20.8216   30.9836 O   0  0  0  0  0  0  0  0  0  0  0  0
   -6.4407   15.6863   29.2127 C   0  0  2  0  0  0  0  0  0  0  0  0
   -5.8394   14.9074   27.9298 C   0  0  2  0  0  0  0  0  0  0  0  0
   -5.2324   15.9035   26.9884 N   0  0  0  0  0  0  0  0  0  0  0  0
   -7.0324   14.0787   27.2413 C   0  0  1  0  0  0  0  0  0  0  0  0
   -7.5510   13.1516   28.2429 O   0  0  0  0  0  0  0  0  0  0  0  0
   -8.1661   15.0884   26.7518 C   0  0  2  0  0  0  0  0  0  0  0  0
   -7.5698   15.9814   25.7333 O   0  0  0  0  0  0  0  0  0  0  0  0
   -8.7173   15.9037   28.0532 C   0  0  1  0  0  0  0  0  0  0  0  0
   -7.5712   16.6163   28.7266 O   0  0  0  0  0  0  0  0  0  0  0  0
   -9.8214   16.9184   27.6062 C   0  0  0  0  0  0  0  0  0  0  0  0
   -9.9894   18.0532   28.5660 N   0  0  0  0  0  0  0  0  0  0  0  0
  1  3  1  0  0  0  0
  1  2  1  6  0  0  0
  3  4  1  6  0  0  0
  3  5  1  0  0  0  0
  5  6  1  1  0  0  0
  7  8  1  6  0  0  0
  7  5  1  0  0  0  0
  9 11  1  1  0  0  0
  9  7  1  0  0  0  0
 10  9  1  0  0  0  0
 10  1  1  0  0  0  0
 12 11  1  0  0  0  0
 13 14  1  6  0  0  0
 15 13  1  0  0  0  0
 16 17  1  6  0  0  0
 16 15  1  0  0  0  0
 18  2  1  1  0  0  0
 18 19  1  0  0  0  0
 18 16  1  0  0  0  0
 19 20  1  6  0  0  0
 19 21  1  0  0  0  0
 21 22  1  1  0  0  0
 21 13  1  0  0  0  0
 23 20  1  1  0  0  0
 23 29  1  0  0  0  0
 24 25  1  6  0  0  0
 24 26  1  0  0  0  0
 24 23  1  0  0  0  0
 26 27  1  6  0  0  0
 26 28  1  0  0  0  0
 28 30  1  1  0  0  0
 29 28  1  0  0  0  0
 30 31  1  0  0  0  0
 32 27  1  6  0  0  0
 32 40  1  0  0  0  0
 33 35  1  0  0  0  0
 33 32  1  0  0  0  0
 33 34  1  6  0  0  0
 35 36  1  1  0  0  0
 35 37  1  0  0  0  0
 37 38  1  6  0  0  0
 37 39  1  0  0  0  0
 39 41  1  6  0  0  0
 40 39  1  0  0  0  0
 41 42  1  0  0  0  0
M  END
>  <CHROM.1>
-151.05081602,-93.18170717,81.39261059,-109.88377926,178.97639586,122.03295325
166.95542139,-173.83751171,-156.92041223,-3.92817867,17.10594772,32.31800936
-0.00356457,0.84042476,3.03407047

>  <Name>
lig.pdb

>  <RI>
0

>  <Rbt.Current_Directory>
/home/itssahil/PROJECTS/Mol_Feturizer/New_Systems/rnas/4wcr

>  <Rbt.Executable>
rbdock ($Id: //depot/dev/client3/rdock/2013.1/src/exe/rbdock.cxx#4 $)

>  <Rbt.Library>
libRbt.so (2013.1, Build901 2013/11/27)

>  <Rbt.Parameter_File>
/export/apps/rDock/src/rDock_2013.1_src/data/scripts/dock_solv.prm

>  <Rbt.Receptor>
prm/blind_docking_100.prm

>  <SCORE>
10.0613

>  <SCORE.INTER>
-2.56591

>  <SCORE.INTER.CONST>
1

>  <SCORE.INTER.POLAR>
0

>  <SCORE.INTER.ROT>
9

>  <SCORE.INTER.SOLV>
32.3575

>  <SCORE.INTER.VDW>
-22.0964

>  <SCORE.INTER.norm>
-0.061093

>  <SCORE.INTRA>
10.9728

>  <SCORE.INTRA.DIHEDRAL>
8.86952

>  <SCORE.INTRA.DIHEDRAL.0>
16.2863

>  <SCORE.INTRA.POLAR>
0

>  <SCORE.INTRA.POLAR.0>
0

>  <SCORE.INTRA.REPUL>
-0.314433

>  <SCORE.INTRA.REPUL.0>
0.314433

>  <SCORE.INTRA.SOLV>
-2.30915

>  <SCORE.INTRA.SOLV.lig_0>
-103.824

>  <SCORE.INTRA.VDW>
9.26479

>  <SCORE.INTRA.VDW.0>
-5.30945

>  <SCORE.INTRA.norm>
0.261258

>  <SCORE.RESTR>
1.65435

>  <SCORE.RESTR.CAVITY>
1.65435

>  <SCORE.RESTR.norm>
0.0393894

>  <SCORE.SYSTEM>
0

>  <SCORE.SYSTEM.CONST>
0

>  <SCORE.SYSTEM.DIHEDRAL>
0

>  <SCORE.SYSTEM.SOLV>
0

>  <SCORE.SYSTEM.norm>
0

>  <SCORE.heavy>
42

>  <SCORE.norm>
0.239554

>  <RMSD>
9.175

$$$$
lig.pdb
 OpenBabel11021811513D
libRbt.so/2013.1/901 2013/11/27
 42 45  0  0  0  0  0  0  0  0999 V2000
   -6.3468   17.3254   28.4496 C   0  0  2  0  0  0  0  0  0  0  0  0
   -6.3684   16.4512   29.6211 O   0  0  0  0  0  0  0  0  0  0  0  0
   -6.7680   18.7722   28.9685 C   0  0  2  0  0  0  0  0  0  0  0  0
   -5.7955   19.2646   29.9479 N   0  0  0  0  0  0  0  0  0  0  0  0
   -8.2529   18.6915   29.5754 C   0  0  1  0  0  0  0  0  0  0  0  0
   -8.6915   19.9811   30.0520 O   0  0  0  0  0  0  0  0  0  0  0  0
   -9.1704   18.1571   28.4624 C   0  0  2  0  0  0  0  0  0  0  0  0
  -10.4649   18.0721   28.9529 O   0  0  0  0  0  0  0  0  0  0  0  0
   -8.6531   16.7294   27.9699 C   0  0  2  0  0  0  0  0  0  0  0  0
   -7.3157   16.8078   27.4611 O   0  0  0  0  0  0  0  0  0  0  0  0
   -9.5062   16.1704   26.8667 C   0  0  0  0  0  0  0  0  0  0  0  0
   -9.3066   16.9850   25.7108 O   0  0  0  0  0  0  0  0  0  0  0  0
   -5.6596   12.1529   30.5126 C   0  0  2  0  0  0  0  0  0  0  0  0
   -5.1191   10.8127   30.4447 N   0  0  0  0  0  0  0  0  0  0  0  0
   -6.2244   12.5837   29.1039 C   0  0  0  0  0  0  0  0  0  0  0  0
   -6.8133   14.0375   29.1498 C   0  0  2  0  0  0  0  0  0  0  0  0
   -7.3180   14.3997   27.8269 N   0  0  0  0  0  0  0  0  0  0  0  0
   -5.7321   15.1182   29.5985 C   0  0  2  0  0  0  0  0  0  0  0  0
   -5.2122   14.7006   31.0045 C   0  0  2  0  0  0  0  0  0  0  0  0
   -4.2081   15.7730   31.3574 O   0  0  0  0  0  0  0  0  0  0  0  0
   -4.5423   13.2194   30.9351 C   0  0  1  0  0  0  0  0  0  0  0  0
   -4.0654   12.6967   32.2163 O   0  0  0  0  0  0  0  0  0  0  0  0
   -3.9070   15.7549   32.6939 C   0  0  1  0  0  0  0  0  0  0  0  0
   -2.5039   15.4233   32.9634 C   0  0  2  0  0  0  0  0  0  0  0  0
   -2.3405   14.0658   32.7038 O   0  0  0  0  0  0  0  0  0  0  0  0
   -2.3404   15.9598   34.4016 C   0  0  2  0  0  0  0  0  0  0  0  0
   -1.9960   14.8280   35.2323 O   0  0  0  0  0  0  0  0  0  0  0  0
   -3.6721   16.5397   34.7482 C   0  0  2  0  0  0  0  0  0  0  0  0
   -4.0421   16.9811   33.3932 O   0  0  0  0  0  0  0  0  0  0  0  0
   -3.5386   17.7785   35.7084 C   0  0  0  0  0  0  0  0  0  0  0  0
   -2.8299   17.4836   36.9494 O   0  0  0  0  0  0  0  0  0  0  0  0
   -0.6200   14.7572   35.7144 C   0  0  2  0  0  0  0  0  0  0  0  0
   -0.5424   13.6428   36.8833 C   0  0  2  0  0  0  0  0  0  0  0  0
   -1.4954   14.0117   37.9798 N   0  0  0  0  0  0  0  0  0  0  0  0
    0.9760   13.5686   37.4058 C   0  0  1  0  0  0  0  0  0  0  0  0
    1.8113   13.2124   36.2625 O   0  0  0  0  0  0  0  0  0  0  0  0
    1.3996   14.9836   38.0079 C   0  0  2  0  0  0  0  0  0  0  0  0
    0.5212   15.2660   39.1650 O   0  0  0  0  0  0  0  0  0  0  0  0
    1.2585   16.1012   36.8276 C   0  0  1  0  0  0  0  0  0  0  0  0
   -0.1549   16.1057   36.3013 O   0  0  0  0  0  0  0  0  0  0  0  0
    1.6505   17.5081   37.3892 C   0  0  0  0  0  0  0  0  0  0  0  0
    1.3071   18.6229   36.4530 N   0  0  0  0  0  0  0  0  0  0  0  0
  1  3  1  0  0  0  0
  1  2  1  1  0  0  0
  3  4  1  1  0  0  0
  3  5  1  0  0  0  0
  5  6  1  6  0  0  0
  7  8  1  1  0  0  0
  7  5  1  0  0  0  0
  9 11  1  6  0  0  0
  9  7  1  0  0  0  0
 10  9  1  0  0  0  0
 10  1  1  0  0  0  0
 12 11  1  0  0  0  0
 13 14  1  6  0  0  0
 15 13  1  0  0  0  0
 16 17  1  6  0  0  0
 16 15  1  0  0  0  0
 18  2  1  1  0  0  0
 18 19  1  0  0  0  0
 18 16  1  0  0  0  0
 19 20  1  6  0  0  0
 19 21  1  0  0  0  0
 21 22  1  1  0  0  0
 21 13  1  0  0  0  0
 23 20  1  6  0  0  0
 23 29  1  0  0  0  0
 24 25  1  1  0  0  0
 24 26  1  0  0  0  0
 24 23  1  0  0  0  0
 26 27  1  1  0  0  0
 26 28  1  0  0  0  0
 28 30  1  1  0  0  0
 29 28  1  0  0  0  0
 30 31  1  0  0  0  0
 32 27  1  1  0  0  0
 32 40  1  0  0  0  0
 33 35  1  0  0  0  0
 33 32  1  0  0  0  0
 33 34  1  1  0  0  0
 35 36  1  6  0  0  0
 35 37  1  0  0  0  0
 37 38  1  1  0  0  0
 37 39  1  0  0  0  0
 39 41  1  1  0  0  0
 40 39  1  0  0  0  0
 41 42  1  0  0  0  0
M  END
>  <CHROM.1>
-165.31842072,68.15701965,-91.49906069,164.34926686,115.97113350,107.74020441
-56.97189360,166.66559631,-169.27569133,-4.11742594,15.76998920,32.42152019
3.01972293,0.81257044,-2.82094600

>  <Name>
lig.pdb

>  <RI>
0

>  <Rbt.Current_Directory>
/home/itssahil/PROJECTS/Mol_Feturizer/New_Systems/rnas/4wcr

>  <Rbt.Executable>
rbdock ($Id: //depot/dev/client3/rdock/2013.1/src/exe/rbdock.cxx#4 $)

>  <Rbt.Library>
libRbt.so (2013.1, Build901 2013/11/27)

>  <Rbt.Parameter_File>
/export/apps/rDock/src/rDock_2013.1_src/data/scripts/dock_solv.prm

>  <Rbt.Receptor>
prm/blind_docking_60.prm

>  <SCORE>
-1.95657

>  <SCORE.INTER>
-11.5965

>  <SCORE.INTER.CONST>
1

>  <SCORE.INTER.POLAR>
0

>  <SCORE.INTER.ROT>
9

>  <SCORE.INTER.SOLV>
29.6497

>  <SCORE.INTER.VDW>
-27.2143

>  <SCORE.INTER.norm>
-0.276108

>  <SCORE.INTRA>
5.25711

>  <SCORE.INTRA.DIHEDRAL>
5.16036

>  <SCORE.INTRA.DIHEDRAL.0>
16.2863

>  <SCORE.INTRA.POLAR>
0

>  <SCORE.INTRA.POLAR.0>
0

>  <SCORE.INTRA.REPUL>
-0.312399

>  <SCORE.INTRA.REPUL.0>
0.314433

>  <SCORE.INTRA.SOLV>
-0.484002

>  <SCORE.INTRA.SOLV.lig_0>
-103.824

>  <SCORE.INTRA.VDW>
4.48092

>  <SCORE.INTRA.VDW.0>
-5.30945

>  <SCORE.INTRA.norm>
0.125169

>  <SCORE.RESTR>
4.38287

>  <SCORE.RESTR.CAVITY>
4.38287

>  <SCORE.RESTR.norm>
0.104354

>  <SCORE.SYSTEM>
0

>  <SCORE.SYSTEM.CONST>
0

>  <SCORE.SYSTEM.DIHEDRAL>
0

>  <SCORE.SYSTEM.SOLV>
0

>  <SCORE.SYSTEM.norm>
0

>  <SCORE.heavy>
42

>  <SCORE.norm>
-0.0465851

>  <RMSD>
9.188

$$$$
lig.pdb
 OpenBabel11021811513D
libRbt.so/2013.1/901 2013/11/27
 42 45  0  0  0  0  0  0  0  0999 V2000
   -2.0499    7.6895   38.4872 C   0  0  2  0  0  0  0  0  0  0  0  0
   -3.4721    7.8718   38.2020 O   0  0  0  0  0  0  0  0  0  0  0  0
   -1.9664    7.1030   39.9667 C   0  0  2  0  0  0  0  0  0  0  0  0
   -2.6367    5.8017   40.0369 N   0  0  0  0  0  0  0  0  0  0  0  0
   -2.6055    8.1704   40.9826 C   0  0  1  0  0  0  0  0  0  0  0  0
   -2.5459    7.6942   42.3436 O   0  0  0  0  0  0  0  0  0  0  0  0
   -1.8274    9.4859   40.8084 C   0  0  2  0  0  0  0  0  0  0  0  0
   -2.3549   10.4346   41.6717 O   0  0  0  0  0  0  0  0  0  0  0  0
   -1.9243    9.9784   39.2930 C   0  0  2  0  0  0  0  0  0  0  0  0
   -1.3813    9.0039   38.3935 O   0  0  0  0  0  0  0  0  0  0  0  0
   -1.1629   11.2533   39.0647 C   0  0  0  0  0  0  0  0  0  0  0  0
    0.1992   11.0129   39.4201 O   0  0  0  0  0  0  0  0  0  0  0  0
   -3.4990    7.5999   33.7638 C   0  0  2  0  0  0  0  0  0  0  0  0
   -3.9778    7.5185   32.4010 N   0  0  0  0  0  0  0  0  0  0  0  0
   -4.1205    6.4364   34.6292 C   0  0  0  0  0  0  0  0  0  0  0  0
   -3.6196    6.5052   36.1147 C   0  0  2  0  0  0  0  0  0  0  0  0
   -4.2227    5.4174   36.8821 N   0  0  0  0  0  0  0  0  0  0  0  0
   -3.9830    7.8888   36.8160 C   0  0  2  0  0  0  0  0  0  0  0  0
   -3.3323    9.0232   35.9726 C   0  0  2  0  0  0  0  0  0  0  0  0
   -3.7132   10.2888   36.7048 O   0  0  0  0  0  0  0  0  0  0  0  0
   -3.9068    8.9877   34.4508 C   0  0  1  0  0  0  0  0  0  0  0  0
   -3.3223    9.9793   33.5468 O   0  0  0  0  0  0  0  0  0  0  0  0
   -3.1187   11.3885   36.1439 C   0  0  1  0  0  0  0  0  0  0  0  0
   -3.4323   12.6352   36.8500 C   0  0  2  0  0  0  0  0  0  0  0  0
   -4.7556   12.9548   36.5613 O   0  0  0  0  0  0  0  0  0  0  0  0
   -2.2914   13.5521   36.3592 C   0  0  2  0  0  0  0  0  0  0  0  0
   -2.9137   14.6569   35.6652 O   0  0  0  0  0  0  0  0  0  0  0  0
   -1.4733   12.6940   35.4515 C   0  0  2  0  0  0  0  0  0  0  0  0
   -1.7010   11.4162   36.1467 O   0  0  0  0  0  0  0  0  0  0  0  0
    0.0513   13.0780   35.5004 C   0  0  0  0  0  0  0  0  0  0  0  0
    0.8924   12.2455   34.6468 O   0  0  0  0  0  0  0  0  0  0  0  0
   -2.5129   16.0010   36.0700 C   0  0  2  0  0  0  0  0  0  0  0  0
   -3.2291   17.0676   35.0884 C   0  0  2  0  0  0  0  0  0  0  0  0
   -2.8357   16.7752   33.6719 N   0  0  0  0  0  0  0  0  0  0  0  0
   -2.7857   18.5443   35.5431 C   0  0  1  0  0  0  0  0  0  0  0  0
   -3.2086   18.7166   36.9298 O   0  0  0  0  0  0  0  0  0  0  0  0
   -1.2035   18.6899   35.4029 C   0  0  2  0  0  0  0  0  0  0  0  0
   -0.8565   18.5176   33.9745 O   0  0  0  0  0  0  0  0  0  0  0  0
   -0.5030   17.5670   36.3569 C   0  0  1  0  0  0  0  0  0  0  0  0
   -0.9864   16.1942   35.9614 O   0  0  0  0  0  0  0  0  0  0  0  0
    1.0533   17.6697   36.2305 C   0  0  0  0  0  0  0  0  0  0  0  0
    1.7726   16.7085   37.1227 N   0  0  0  0  0  0  0  0  0  0  0  0
  1  3  1  0  0  0  0
  1  2  1  1  0  0  0
  3  4  1  6  0  0  0
  3  5  1  0  0  0  0
  5  6  1  1  0  0  0
  7  8  1  1  0  0  0
  7  5  1  0  0  0  0
  9 11  1  1  0  0  0
  9  7  1  0  0  0  0
 10  9  1  0  0  0  0
 10  1  1  0  0  0  0
 12 11  1  0  0  0  0
 13 14  1  6  0  0  0
 15 13  1  0  0  0  0
 16 17  1  1  0  0  0
 16 15  1  0  0  0  0
 18  2  1  1  0  0  0
 18 19  1  0  0  0  0
 18 16  1  0  0  0  0
 19 20  1  1  0  0  0
 19 21  1  0  0  0  0
 21 22  1  6  0  0  0
 21 13  1  0  0  0  0
 23 20  1  1  0  0  0
 23 29  1  0  0  0  0
 24 25  1  6  0  0  0
 24 26  1  0  0  0  0
 24 23  1  0  0  0  0
 26 27  1  6  0  0  0
 26 28  1  0  0  0  0
 28 30  1  1  0  0  0
 29 28  1  0  0  0  0
 30 31  1  0  0  0  0
 32 27  1  6  0  0  0
 32 40  1  0  0  0  0
 33 35  1  0  0  0  0
 33 32  1  0  0  0  0
 33 34  1  6  0  0  0
 35 36  1  1  0  0  0
 35 37  1  0  0  0  0
 37 38  1  6  0  0  0
 37 39  1  0  0  0  0
 39 41  1  6  0  0  0
 40 39  1  0  0  0  0
 41 42  1  0  0  0  0
M  END
>  <CHROM.1>
-155.91179469,58.64573558,59.22810774,175.00627988,-178.33271575,128.46225231
178.85065580,175.24554069,177.53179000,-2.25704305,11.74604325,36.81599983
-2.01306959,-1.18874050,-0.66366582

>  <Name>
lig.pdb

>  <RI>
0

>  <Rbt.Current_Directory>
/home/itssahil/PROJECTS/Mol_Feturizer/New_Systems/rnas/4wcr

>  <Rbt.Executable>
rbdock ($Id: //depot/dev/client3/rdock/2013.1/src/exe/rbdock.cxx#4 $)

>  <Rbt.Library>
libRbt.so (2013.1, Build901 2013/11/27)

>  <Rbt.Parameter_File>
/export/apps/rDock/src/rDock_2013.1_src/data/scripts/dock_solv.prm

>  <Rbt.Receptor>
prm/pocket_docking_4.prm

>  <SCORE>
-5.90554

>  <SCORE.INTER>
1.14961

>  <SCORE.INTER.CONST>
1

>  <SCORE.INTER.POLAR>
0

>  <SCORE.INTER.ROT>
9

>  <SCORE.INTER.SOLV>
23.1218

>  <SCORE.INTER.VDW>
-16.5409

>  <SCORE.INTER.norm>
0.0273717

>  <SCORE.INTRA>
-7.05515

>  <SCORE.INTRA.DIHEDRAL>
-6.27944

>  <SCORE.INTRA.DIHEDRAL.0>
16.2863

>  <SCORE.INTRA.POLAR>
0

>  <SCORE.INTRA.POLAR.0>
0

>  <SCORE.INTRA.REPUL>
-0.311444

>  <SCORE.INTRA.REPUL.0>
0.314433

>  <SCORE.INTRA.SOLV>
-3.27564

>  <SCORE.INTRA.SOLV.lig_0>
-103.824

>  <SCORE.INTRA.VDW>
-0.720394

>  <SCORE.INTRA.VDW.0>
-5.30945

>  <SCORE.INTRA.norm>
-0.16798

>  <SCORE.RESTR>
0

>  <SCORE.RESTR.CAVITY>
0

>  <SCORE.RESTR.norm>
0

>  <SCORE.SYSTEM>
0

>  <SCORE.SYSTEM.CONST>
0

>  <SCORE.SYSTEM.DIHEDRAL>
0

>  <SCORE.SYSTEM.SOLV>
0

>  <SCORE.SYSTEM.norm>
0

>  <SCORE.heavy>
42

>  <SCORE.norm>
-0.140608

>  <RMSD>
9.209

$$$$
lig.pdb
 OpenBabel11021811513D
libRbt.so/2013.1/901 2013/11/27
 42 45  0  0  0  0  0  0  0  0999 V2000
   -1.7660   18.7507   36.0854 C   0  0  2  0  0  0  0  0  0  0  0  0
   -1.7389   17.8728   34.9168 O   0  0  0  0  0  0  0  0  0  0  0  0
   -1.5709   20.2322   35.5312 C   0  0  2  0  0  0  0  0  0  0  0  0
   -2.6770   20.5919   34.6397 N   0  0  0  0  0  0  0  0  0  0  0  0
   -0.1451   20.3259   34.7976 C   0  0  1  0  0  0  0  0  0  0  0  0
    0.0900   21.6539   34.2842 O   0  0  0  0  0  0  0  0  0  0  0  0
    0.9233   19.9193   35.8270 C   0  0  2  0  0  0  0  0  0  0  0  0
    2.1713   19.9869   35.2258 O   0  0  0  0  0  0  0  0  0  0  0  0
    0.6285   18.4449   36.3632 C   0  0  2  0  0  0  0  0  0  0  0  0
   -0.6597   18.3657   36.9862 O   0  0  0  0  0  0  0  0  0  0  0  0
    1.6353   18.0060   37.3883 C   0  0  0  0  0  0  0  0  0  0  0  0
    1.2632   18.5899   38.6373 O   0  0  0  0  0  0  0  0  0  0  0  0
   -2.0830   13.5513   33.9273 C   0  0  2  0  0  0  0  0  0  0  0  0
   -2.4044   12.1448   34.0340 N   0  0  0  0  0  0  0  0  0  0  0  0
   -1.2288   14.0101   35.1718 C   0  0  0  0  0  0  0  0  0  0  0  0
   -0.8704   15.5352   35.0822 C   0  0  2  0  0  0  0  0  0  0  0  0
   -0.0871   15.9203   36.2544 N   0  0  0  0  0  0  0  0  0  0  0  0
   -2.1647   16.4610   35.0049 C   0  0  2  0  0  0  0  0  0  0  0  0
   -2.9771   16.0217   33.7524 C   0  0  2  0  0  0  0  0  0  0  0  0
   -4.1713   16.9472   33.7471 O   0  0  0  0  0  0  0  0  0  0  0  0
   -3.4030   14.4568   33.8835 C   0  0  1  0  0  0  0  0  0  0  0  0
   -4.1275   13.9156   32.7327 O   0  0  0  0  0  0  0  0  0  0  0  0
   -4.3355   17.5438   32.5246 C   0  0  1  0  0  0  0  0  0  0  0  0
   -5.5557   17.1140   31.8337 C   0  0  2  0  0  0  0  0  0  0  0  0
   -5.3467   15.8106   31.3930 O   0  0  0  0  0  0  0  0  0  0  0  0
   -5.7380   18.2555   30.8104 C   0  0  2  0  0  0  0  0  0  0  0  0
   -5.6699   17.6536   29.4978 O   0  0  0  0  0  0  0  0  0  0  0  0
   -4.6024   19.1893   31.0713 C   0  0  2  0  0  0  0  0  0  0  0  0
   -4.4951   18.9527   32.5206 O   0  0  0  0  0  0  0  0  0  0  0  0
   -4.9989   20.6853   30.7902 C   0  0  0  0  0  0  0  0  0  0  0  0
   -5.6872   20.8795   29.5183 O   0  0  0  0  0  0  0  0  0  0  0  0
   -6.7256   16.7075   29.1497 C   0  0  2  0  0  0  0  0  0  0  0  0
   -6.1193   15.6181   28.1202 C   0  0  2  0  0  0  0  0  0  0  0  0
   -5.5883   16.3256   26.9102 N   0  0  0  0  0  0  0  0  0  0  0  0
   -7.2865   14.5784   27.7450 C   0  0  1  0  0  0  0  0  0  0  0  0
   -7.7313   13.9578   28.9895 O   0  0  0  0  0  0  0  0  0  0  0  0
   -8.4822   15.3576   27.0326 C   0  0  2  0  0  0  0  0  0  0  0  0
   -7.9587   15.9438   25.7786 O   0  0  0  0  0  0  0  0  0  0  0  0
   -9.0397   16.4891   28.0674 C   0  0  1  0  0  0  0  0  0  0  0  0
   -7.9140   17.4115   28.4631 O   0  0  0  0  0  0  0  0  0  0  0  0
  -10.2051   17.2865   27.3931 C   0  0  0  0  0  0  0  0  0  0  0  0
   -9.7773   17.9985   26.1491 N   0  0  0  0  0  0  0  0  0  0  0  0
  1  3  1  0  0  0  0
  1  2  1  6  0  0  0
  3  4  1  6  0  0  0
  3  5  1  0  0  0  0
  5  6  1  1  0  0  0
  7  8  1  6  0  0  0
  7  5  1  0  0  0  0
  9 11  1  1  0  0  0
  9  7  1  0  0  0  0
 10  9  1  0  0  0  0
 10  1  1  0  0  0  0
 12 11  1  0  0  0  0
 13 14  1  1  0  0  0
 15 13  1  0  0  0  0
 16 17  1  1  0  0  0
 16 15  1  0  0  0  0
 18  2  1  6  0  0  0
 18 19  1  0  0  0  0
 18 16  1  0  0  0  0
 19 20  1  1  0  0  0
 19 21  1  0  0  0  0
 21 22  1  6  0  0  0
 21 13  1  0  0  0  0
 23 20  1  1  0  0  0
 23 29  1  0  0  0  0
 24 25  1  6  0  0  0
 24 26  1  0  0  0  0
 24 23  1  0  0  0  0
 26 27  1  6  0  0  0
 26 28  1  0  0  0  0
 28 30  1  1  0  0  0
 29 28  1  0  0  0  0
 30 31  1  0  0  0  0
 32 27  1  6  0  0  0
 32 40  1  0  0  0  0
 33 35  1  0  0  0  0
 33 32  1  0  0  0  0
 33 34  1  6  0  0  0
 35 36  1  1  0  0  0
 35 37  1  0  0  0  0
 37 38  1  6  0  0  0
 37 39  1  0  0  0  0
 39 41  1  6  0  0  0
 40 39  1  0  0  0  0
 41 42  1  0  0  0  0
M  END
>  <CHROM.1>
-167.20718224,80.26909872,-101.16901378,129.06467147,113.15124504,64.60477834
-47.26741976,-150.04553436,-60.71392426,-3.77441222,17.29938566,32.33043109
0.05491109,-0.82242976,-0.13727594

>  <Name>
lig.pdb

>  <RI>
0

>  <Rbt.Current_Directory>
/home/itssahil/PROJECTS/Mol_Feturizer/New_Systems/rnas/4wcr

>  <Rbt.Executable>
rbdock ($Id: //depot/dev/client3/rdock/2013.1/src/exe/rbdock.cxx#4 $)

>  <Rbt.Library>
libRbt.so (2013.1, Build901 2013/11/27)

>  <Rbt.Parameter_File>
/export/apps/rDock/src/rDock_2013.1_src/data/scripts/dock_solv.prm

>  <Rbt.Receptor>
prm/blind_docking_60.prm

>  <SCORE>
5.86794

>  <SCORE.INTER>
-4.7511

>  <SCORE.INTER.CONST>
1

>  <SCORE.INTER.POLAR>
0

>  <SCORE.INTER.ROT>
9

>  <SCORE.INTER.SOLV>
33.2298

>  <SCORE.INTER.VDW>
-23.844

>  <SCORE.INTER.norm>
-0.113122

>  <SCORE.INTRA>
8.44276

>  <SCORE.INTRA.DIHEDRAL>
9.81142

>  <SCORE.INTRA.DIHEDRAL.0>
16.2863

>  <SCORE.INTRA.POLAR>
0

>  <SCORE.INTRA.POLAR.0>
0

>  <SCORE.INTRA.REPUL>
0.0687506

>  <SCORE.INTRA.REPUL.0>
0.314433

>  <SCORE.INTRA.SOLV>
1.85578

>  <SCORE.INTRA.SOLV.lig_0>
-103.824

>  <SCORE.INTRA.VDW>
2.26541

>  <SCORE.INTRA.VDW.0>
-5.30945

>  <SCORE.INTRA.norm>
0.201018

>  <SCORE.RESTR>
2.17629

>  <SCORE.RESTR.CAVITY>
2.17629

>  <SCORE.RESTR.norm>
0.0518164

>  <SCORE.SYSTEM>
0

>  <SCORE.SYSTEM.CONST>
0

>  <SCORE.SYSTEM.DIHEDRAL>
0

>  <SCORE.SYSTEM.SOLV>
0

>  <SCORE.SYSTEM.norm>
0

>  <SCORE.heavy>
42

>  <SCORE.norm>
0.139713

>  <RMSD>
9.221

$$$$
lig.pdb
 OpenBabel11021811513D
libRbt.so/2013.1/901 2013/11/27
 42 45  0  0  0  0  0  0  0  0999 V2000
   -3.4826    6.6325   33.4448 C   0  0  2  0  0  0  0  0  0  0  0  0
   -3.8971    8.0164   33.6691 O   0  0  0  0  0  0  0  0  0  0  0  0
   -2.2135    6.7004   32.4832 C   0  0  2  0  0  0  0  0  0  0  0  0
   -1.1194    7.4254   33.1351 N   0  0  0  0  0  0  0  0  0  0  0  0
   -2.6517    7.3820   31.0964 C   0  0  1  0  0  0  0  0  0  0  0  0
   -1.5397    7.4592   30.1799 O   0  0  0  0  0  0  0  0  0  0  0  0
   -3.8031    6.5401   30.5202 C   0  0  2  0  0  0  0  0  0  0  0  0
   -4.2097    7.1022   29.3192 O   0  0  0  0  0  0  0  0  0  0  0  0
   -5.0115    6.4862   31.5619 C   0  0  2  0  0  0  0  0  0  0  0  0
   -4.6002    5.9066   32.8063 O   0  0  0  0  0  0  0  0  0  0  0  0
   -6.1574    5.6579   31.0537 C   0  0  0  0  0  0  0  0  0  0  0  0
   -6.6563    6.2883   29.8733 O   0  0  0  0  0  0  0  0  0  0  0  0
   -5.9761   10.0367   37.0408 C   0  0  2  0  0  0  0  0  0  0  0  0
   -7.0211   10.4583   37.9480 N   0  0  0  0  0  0  0  0  0  0  0  0
   -6.3816   10.3670   35.5525 C   0  0  0  0  0  0  0  0  0  0  0  0
   -5.2650    9.9149   34.5469 C   0  0  2  0  0  0  0  0  0  0  0  0
   -5.6821   10.2315   33.1825 N   0  0  0  0  0  0  0  0  0  0  0  0
   -4.9587    8.3541   34.6392 C   0  0  2  0  0  0  0  0  0  0  0  0
   -4.5243    8.0506   36.1023 C   0  0  2  0  0  0  0  0  0  0  0  0
   -4.2454    6.5657   36.1013 O   0  0  0  0  0  0  0  0  0  0  0  0
   -5.7137    8.4598   37.1345 C   0  0  1  0  0  0  0  0  0  0  0  0
   -5.3954    8.2691   38.5503 O   0  0  0  0  0  0  0  0  0  0  0  0
   -3.7148    6.1563   37.2964 C   0  0  1  0  0  0  0  0  0  0  0  0
   -3.3210    4.7435   37.2975 C   0  0  2  0  0  0  0  0  0  0  0  0
   -4.4885    3.9867   37.3279 O   0  0  0  0  0  0  0  0  0  0  0  0
   -2.3447    4.7058   38.4927 C   0  0  2  0  0  0  0  0  0  0  0  0
   -2.9021    3.7851   39.4576 O   0  0  0  0  0  0  0  0  0  0  0  0
   -2.3040    6.1100   38.9989 C   0  0  2  0  0  0  0  0  0  0  0  0
   -2.5093    6.7813   37.7047 O   0  0  0  0  0  0  0  0  0  0  0  0
   -0.8926    6.4789   39.5875 C   0  0  0  0  0  0  0  0  0  0  0  0
   -0.8264    7.8234   40.1507 O   0  0  0  0  0  0  0  0  0  0  0  0
   -2.8537    2.3656   39.1203 C   0  0  2  0  0  0  0  0  0  0  0  0
   -3.6443    1.5393   40.2632 C   0  0  2  0  0  0  0  0  0  0  0  0
   -3.0139    1.8141   41.5950 N   0  0  0  0  0  0  0  0  0  0  0  0
   -3.5895   -0.0215   39.8824 C   0  0  1  0  0  0  0  0  0  0  0  0
   -4.2189   -0.1711   38.5736 O   0  0  0  0  0  0  0  0  0  0  0  0
   -2.0701   -0.5061   39.8478 C   0  0  2  0  0  0  0  0  0  0  0  0
   -1.5087   -0.3373   41.2066 O   0  0  0  0  0  0  0  0  0  0  0  0
   -1.2792    0.3801   38.7293 C   0  0  1  0  0  0  0  0  0  0  0  0
   -1.4027    1.8453   39.0647 O   0  0  0  0  0  0  0  0  0  0  0  0
    0.2223   -0.0577   38.6805 C   0  0  0  0  0  0  0  0  0  0  0  0
    0.9363    0.1730   39.9744 N   0  0  0  0  0  0  0  0  0  0  0  0
  1  3  1  0  0  0  0
  1  2  1  6  0  0  0
  3  4  1  1  0  0  0
  3  5  1  0  0  0  0
  5  6  1  6  0  0  0
  7  8  1  6  0  0  0
  7  5  1  0  0  0  0
  9 11  1  6  0  0  0
  9  7  1  0  0  0  0
 10  9  1  0  0  0  0
 10  1  1  0  0  0  0
 12 11  1  0  0  0  0
 13 14  1  1  0  0  0
 15 13  1  0  0  0  0
 16 17  1  6  0  0  0
 16 15  1  0  0  0  0
 18  2  1  6  0  0  0
 18 19  1  0  0  0  0
 18 16  1  0  0  0  0
 19 20  1  6  0  0  0
 19 21  1  0  0  0  0
 21 22  1  1  0  0  0
 21 13  1  0  0  0  0
 23 20  1  6  0  0  0
 23 29  1  0  0  0  0
 24 25  1  1  0  0  0
 24 26  1  0  0  0  0
 24 23  1  0  0  0  0
 26 27  1  1  0  0  0
 26 28  1  0  0  0  0
 28 30  1  6  0  0  0
 29 28  1  0  0  0  0
 30 31  1  0  0  0  0
 32 27  1  1  0  0  0
 32 40  1  0  0  0  0
 33 35  1  0  0  0  0
 33 32  1  0  0  0  0
 33 34  1  1  0  0  0
 35 36  1  6  0  0  0
 35 37  1  0  0  0  0
 37 38  1  1  0  0  0
 37 39  1  0  0  0  0
 39 41  1  1  0  0  0
 40 39  1  0  0  0  0
 41 42  1  0  0  0  0
M  END
>  <CHROM.1>
-173.06557876,-62.82967441,-174.74146145,173.76648811,-175.00332163,71.94289008
-177.30530917,-174.90406762,-62.01328461,-3.47627276,5.46272068,36.25492900
-2.39173919,-1.19886073,1.52437693

>  <Name>
lig.pdb

>  <RI>
0

>  <Rbt.Current_Directory>
/home/itssahil/PROJECTS/Mol_Feturizer/New_Systems/rnas/4wcr

>  <Rbt.Executable>
rbdock ($Id: //depot/dev/client3/rdock/2013.1/src/exe/rbdock.cxx#4 $)

>  <Rbt.Library>
libRbt.so (2013.1, Build901 2013/11/27)

>  <Rbt.Parameter_File>
/export/apps/rDock/src/rDock_2013.1_src/data/scripts/dock_solv.prm

>  <Rbt.Receptor>
prm/pocket_docking_8.prm

>  <SCORE>
-6.50832

>  <SCORE.INTER>
2.44601

>  <SCORE.INTER.CONST>
1

>  <SCORE.INTER.POLAR>
0

>  <SCORE.INTER.ROT>
9

>  <SCORE.INTER.SOLV>
18.0784

>  <SCORE.INTER.VDW>
-13.9955

>  <SCORE.INTER.norm>
0.0582384

>  <SCORE.INTRA>
-8.95433

>  <SCORE.INTRA.DIHEDRAL>
-14.2108

>  <SCORE.INTRA.DIHEDRAL.0>
16.2863

>  <SCORE.INTRA.POLAR>
0

>  <SCORE.INTRA.POLAR.0>
0

>  <SCORE.INTRA.REPUL>
-0.314433

>  <SCORE.INTRA.REPUL.0>
0.314433

>  <SCORE.INTRA.SOLV>
-4.18352

>  <SCORE.INTRA.SOLV.lig_0>
-103.824

>  <SCORE.INTRA.VDW>
1.815

>  <SCORE.INTRA.VDW.0>
-5.30945

>  <SCORE.INTRA.norm>
-0.213198

>  <SCORE.RESTR>
0

>  <SCORE.RESTR.CAVITY>
0

>  <SCORE.RESTR.norm>
0

>  <SCORE.SYSTEM>
0

>  <SCORE.SYSTEM.CONST>
0

>  <SCORE.SYSTEM.DIHEDRAL>
0

>  <SCORE.SYSTEM.SOLV>
0

>  <SCORE.SYSTEM.norm>
0

>  <SCORE.heavy>
42

>  <SCORE.norm>
-0.15496

>  <RMSD>
9.232

$$$$
lig.pdb
 OpenBabel11021811513D
libRbt.so/2013.1/901 2013/11/27
 42 45  0  0  0  0  0  0  0  0999 V2000
   -4.2236    7.4417   38.0449 C   0  0  2  0  0  0  0  0  0  0  0  0
   -3.2774    8.0373   37.1030 O   0  0  0  0  0  0  0  0  0  0  0  0
   -5.2957    8.5747   38.3719 C   0  0  2  0  0  0  0  0  0  0  0  0
   -6.0149    8.9613   37.1549 N   0  0  0  0  0  0  0  0  0  0  0  0
   -4.5416    9.8189   39.0523 C   0  0  1  0  0  0  0  0  0  0  0  0
   -5.4698   10.8739   39.3811 O   0  0  0  0  0  0  0  0  0  0  0  0
   -3.8236    9.2859   40.3040 C   0  0  2  0  0  0  0  0  0  0  0  0
   -3.1577   10.3361   40.9182 O   0  0  0  0  0  0  0  0  0  0  0  0
   -2.8046    8.1273   39.8944 C   0  0  2  0  0  0  0  0  0  0  0  0
   -3.4843    7.0374   39.2588 O   0  0  0  0  0  0  0  0  0  0  0  0
   -2.0894    7.5580   41.0867 C   0  0  0  0  0  0  0  0  0  0  0  0
   -1.2665    8.5907   41.6308 O   0  0  0  0  0  0  0  0  0  0  0  0
   -3.0891    8.0772   32.6605 C   0  0  2  0  0  0  0  0  0  0  0  0
   -3.4730    8.2500   31.2764 N   0  0  0  0  0  0  0  0  0  0  0  0
   -4.1203    7.1383   33.3980 C   0  0  0  0  0  0  0  0  0  0  0  0
   -3.7281    6.9381   34.9042 C   0  0  2  0  0  0  0  0  0  0  0  0
   -4.7101    6.0703   35.5511 N   0  0  0  0  0  0  0  0  0  0  0  0
   -3.6573    8.3150   35.7026 C   0  0  2  0  0  0  0  0  0  0  0  0
   -2.6097    9.2154   34.9859 C   0  0  2  0  0  0  0  0  0  0  0  0
   -2.5967   10.4852   35.8045 O   0  0  0  0  0  0  0  0  0  0  0  0
   -3.0576    9.4739   33.4432 C   0  0  1  0  0  0  0  0  0  0  0  0
   -2.1158   10.2664   32.6514 O   0  0  0  0  0  0  0  0  0  0  0  0
   -1.4613   11.2165   35.5739 C   0  0  1  0  0  0  0  0  0  0  0  0
   -1.4735   12.5236   36.2392 C   0  0  2  0  0  0  0  0  0  0  0  0
   -2.3741   13.3315   35.5515 O   0  0  0  0  0  0  0  0  0  0  0  0
    0.0305   12.8720   36.2420 C   0  0  2  0  0  0  0  0  0  0  0  0
    0.1777   14.0904   35.4781 O   0  0  0  0  0  0  0  0  0  0  0  0
    0.6958   11.7045   35.5909 C   0  0  2  0  0  0  0  0  0  0  0  0
   -0.2443   10.6708   36.0553 O   0  0  0  0  0  0  0  0  0  0  0  0
    2.1298   11.4437   36.1824 C   0  0  0  0  0  0  0  0  0  0  0  0
    3.0710   12.5315   35.9373 O   0  0  0  0  0  0  0  0  0  0  0  0
    0.0433   15.3476   36.2077 C   0  0  2  0  0  0  0  0  0  0  0  0
    1.3454   15.5374   37.1472 C   0  0  2  0  0  0  0  0  0  0  0  0
    1.4574   14.3667   38.0765 N   0  0  0  0  0  0  0  0  0  0  0  0
    1.1913   16.9250   37.9439 C   0  0  1  0  0  0  0  0  0  0  0  0
    1.0832   17.9873   36.9481 O   0  0  0  0  0  0  0  0  0  0  0  0
   -0.1098   16.8665   38.8647 C   0  0  2  0  0  0  0  0  0  0  0  0
    0.0810   15.7804   39.8517 O   0  0  0  0  0  0  0  0  0  0  0  0
   -1.4032   16.6170   37.9019 C   0  0  1  0  0  0  0  0  0  0  0  0
   -1.2075   15.3483   37.1103 O   0  0  0  0  0  0  0  0  0  0  0  0
   -2.6987   16.5365   38.7759 C   0  0  0  0  0  0  0  0  0  0  0  0
   -2.6715   15.4023   39.7506 N   0  0  0  0  0  0  0  0  0  0  0  0
  1  3  1  0  0  0  0
  1  2  1  6  0  0  0
  3  4  1  6  0  0  0
  3  5  1  0  0  0  0
  5  6  1  1  0  0  0
  7  8  1  6  0  0  0
  7  5  1  0  0  0  0
  9 11  1  1  0  0  0
  9  7  1  0  0  0  0
 10  9  1  0  0  0  0
 10  1  1  0  0  0  0
 12 11  1  0  0  0  0
 13 14  1  6  0  0  0
 15 13  1  0  0  0  0
 16 17  1  1  0  0  0
 16 15  1  0  0  0  0
 18  2  1  1  0  0  0
 18 19  1  0  0  0  0
 18 16  1  0  0  0  0
 19 20  1  1  0  0  0
 19 21  1  0  0  0  0
 21 22  1  6  0  0  0
 21 13  1  0  0  0  0
 23 20  1  1  0  0  0
 23 29  1  0  0  0  0
 24 25  1  6  0  0  0
 24 26  1  0  0  0  0
 24 23  1  0  0  0  0
 26 27  1  6  0  0  0
 26 28  1  0  0  0  0
 28 30  1  1  0  0  0
 29 28  1  0  0  0  0
 30 31  1  0  0  0  0
 32 27  1  1  0  0  0
 32 40  1  0  0  0  0
 33 35  1  0  0  0  0
 33 32  1  0  0  0  0
 33 34  1  1  0  0  0
 35 36  1  6  0  0  0
 35 37  1  0  0  0  0
 37 38  1  1  0  0  0
 37 39  1  0  0  0  0
 39 41  1  1  0  0  0
 40 39  1  0  0  0  0
 41 42  1  0  0  0  0
M  END
>  <CHROM.1>
-71.74585669,-65.35705682,-73.68725564,161.31380342,173.89157280,88.33132524
-64.09572842,71.40493304,-61.62632405,-1.90429320,11.35569898,37.02566799
2.66273870,-1.02635341,-1.97417789

>  <Name>
lig.pdb

>  <RI>
0

>  <Rbt.Current_Directory>
/home/itssahil/PROJECTS/Mol_Feturizer/New_Systems/rnas/4wcr

>  <Rbt.Executable>
rbdock ($Id: //depot/dev/client3/rdock/2013.1/src/exe/rbdock.cxx#4 $)

>  <Rbt.Library>
libRbt.so (2013.1, Build901 2013/11/27)

>  <Rbt.Parameter_File>
/export/apps/rDock/src/rDock_2013.1_src/data/scripts/dock_solv.prm

>  <Rbt.Receptor>
prm/pocket_docking_6.prm

>  <SCORE>
-6.51543

>  <SCORE.INTER>
-3.57934

>  <SCORE.INTER.CONST>
1

>  <SCORE.INTER.POLAR>
0

>  <SCORE.INTER.ROT>
9

>  <SCORE.INTER.SOLV>
17.1242

>  <SCORE.INTER.VDW>
-17.6943

>  <SCORE.INTER.norm>
-0.0852223

>  <SCORE.INTRA>
-2.93609

>  <SCORE.INTRA.DIHEDRAL>
-8.42682

>  <SCORE.INTRA.DIHEDRAL.0>
16.2863

>  <SCORE.INTRA.POLAR>
0

>  <SCORE.INTRA.POLAR.0>
0

>  <SCORE.INTRA.REPUL>
-0.292672

>  <SCORE.INTRA.REPUL.0>
0.314433

>  <SCORE.INTRA.SOLV>
3.1

>  <SCORE.INTRA.SOLV.lig_0>
-103.824

>  <SCORE.INTRA.VDW>
1.19068

>  <SCORE.INTRA.VDW.0>
-5.30945

>  <SCORE.INTRA.norm>
-0.0699069

>  <SCORE.RESTR>
0

>  <SCORE.RESTR.CAVITY>
0

>  <SCORE.RESTR.norm>
0

>  <SCORE.SYSTEM>
0

>  <SCORE.SYSTEM.CONST>
0

>  <SCORE.SYSTEM.DIHEDRAL>
0

>  <SCORE.SYSTEM.SOLV>
0

>  <SCORE.SYSTEM.norm>
0

>  <SCORE.heavy>
42

>  <SCORE.norm>
-0.155129

>  <RMSD>
9.236

$$$$
lig.pdb
 OpenBabel11021811513D
libRbt.so/2013.1/901 2013/11/27
 42 45  0  0  0  0  0  0  0  0999 V2000
   -1.9990    6.6058   38.5094 C   0  0  2  0  0  0  0  0  0  0  0  0
   -3.1985    7.4179   38.3127 O   0  0  0  0  0  0  0  0  0  0  0  0
   -1.6382    6.7161   40.0578 C   0  0  2  0  0  0  0  0  0  0  0  0
   -2.7244    6.1664   40.8738 N   0  0  0  0  0  0  0  0  0  0  0  0
   -1.3335    8.2534   40.4092 C   0  0  1  0  0  0  0  0  0  0  0  0
   -0.9887    8.4108   41.8017 O   0  0  0  0  0  0  0  0  0  0  0  0
   -0.1905    8.7123   39.4875 C   0  0  2  0  0  0  0  0  0  0  0  0
    0.0992   10.0405   39.7625 O   0  0  0  0  0  0  0  0  0  0  0  0
   -0.6158    8.5266   37.9601 C   0  0  2  0  0  0  0  0  0  0  0  0
   -0.9171    7.1566   37.6668 O   0  0  0  0  0  0  0  0  0  0  0  0
    0.4760    8.9437   37.0161 C   0  0  0  0  0  0  0  0  0  0  0  0
   -0.0115    8.7657   35.6856 O   0  0  0  0  0  0  0  0  0  0  0  0
   -3.5974    7.4648   33.8842 C   0  0  2  0  0  0  0  0  0  0  0  0
   -4.1872    7.5150   32.5642 N   0  0  0  0  0  0  0  0  0  0  0  0
   -4.2366    6.2904   34.7215 C   0  0  0  0  0  0  0  0  0  0  0  0
   -3.6160    6.2172   36.1609 C   0  0  2  0  0  0  0  0  0  0  0  0
   -4.2388    5.1238   36.9040 N   0  0  0  0  0  0  0  0  0  0  0  0
   -3.8146    7.5701   36.9787 C   0  0  2  0  0  0  0  0  0  0  0  0
   -3.1468    8.7119   36.1590 C   0  0  2  0  0  0  0  0  0  0  0  0
   -3.3695    9.9463   37.0012 O   0  0  0  0  0  0  0  0  0  0  0  0
   -3.8409    8.8259   34.6918 C   0  0  1  0  0  0  0  0  0  0  0  0
   -3.2548    9.8348   33.8081 O   0  0  0  0  0  0  0  0  0  0  0  0
   -2.7865   11.0493   36.4348 C   0  0  1  0  0  0  0  0  0  0  0  0
   -3.1211   12.2974   37.1287 C   0  0  2  0  0  0  0  0  0  0  0  0
   -4.4468   12.5967   36.8296 O   0  0  0  0  0  0  0  0  0  0  0  0
   -1.9898   13.2256   36.6371 C   0  0  2  0  0  0  0  0  0  0  0  0
   -2.6227   14.3162   35.9303 O   0  0  0  0  0  0  0  0  0  0  0  0
   -1.1548   12.3712   35.7414 C   0  0  2  0  0  0  0  0  0  0  0  0
   -1.3694   11.0962   36.4458 O   0  0  0  0  0  0  0  0  0  0  0  0
    0.3643   12.7762   35.7960 C   0  0  0  0  0  0  0  0  0  0  0  0
    1.2228   11.9431   34.9605 O   0  0  0  0  0  0  0  0  0  0  0  0
   -2.2519   15.6689   36.3350 C   0  0  2  0  0  0  0  0  0  0  0  0
   -2.9458   16.7171   35.3181 C   0  0  2  0  0  0  0  0  0  0  0  0
   -2.4999   16.4154   33.9193 N   0  0  0  0  0  0  0  0  0  0  0  0
   -2.5358   18.2034   35.7727 C   0  0  1  0  0  0  0  0  0  0  0  0
   -3.0088   18.3843   37.1421 O   0  0  0  0  0  0  0  0  0  0  0  0
   -0.9514   18.3666   35.6862 C   0  0  2  0  0  0  0  0  0  0  0  0
   -0.5528   18.1843   34.2726 O   0  0  0  0  0  0  0  0  0  0  0  0
   -0.2717   17.2616   36.6755 C   0  0  1  0  0  0  0  0  0  0  0  0
   -0.7250   15.8793   36.2776 O   0  0  0  0  0  0  0  0  0  0  0  0
    1.2868   17.3817   36.6023 C   0  0  0  0  0  0  0  0  0  0  0  0
    1.9859   16.4278   37.5179 N   0  0  0  0  0  0  0  0  0  0  0  0
  1  3  1  0  0  0  0
  1  2  1  1  0  0  0
  3  4  1  1  0  0  0
  3  5  1  0  0  0  0
  5  6  1  1  0  0  0
  7  8  1  6  0  0  0
  7  5  1  0  0  0  0
  9 11  1  6  0  0  0
  9  7  1  0  0  0  0
 10  9  1  0  0  0  0
 10  1  1  0  0  0  0
 12 11  1  0  0  0  0
 13 14  1  6  0  0  0
 15 13  1  0  0  0  0
 16 17  1  1  0  0  0
 16 15  1  0  0  0  0
 18  2  1  1  0  0  0
 18 19  1  0  0  0  0
 18 16  1  0  0  0  0
 19 20  1  1  0  0  0
 19 21  1  0  0  0  0
 21 22  1  6  0  0  0
 21 13  1  0  0  0  0
 23 20  1  1  0  0  0
 23 29  1  0  0  0  0
 24 25  1  6  0  0  0
 24 26  1  0  0  0  0
 24 23  1  0  0  0  0
 26 27  1  6  0  0  0
 26 28  1  0  0  0  0
 28 30  1  1  0  0  0
 29 28  1  0  0  0  0
 30 31  1  0  0  0  0
 32 27  1  6  0  0  0
 32 40  1  0  0  0  0
 33 35  1  0  0  0  0
 33 32  1  0  0  0  0
 33 34  1  6  0  0  0
 35 36  1  1  0  0  0
 35 37  1  0  0  0  0
 37 38  1  6  0  0  0
 37 39  1  0  0  0  0
 39 41  1  6  0  0  0
 40 39  1  0  0  0  0
 41 42  1  0  0  0  0
M  END
>  <CHROM.1>
178.96543415,-178.83749135,33.45234240,177.62745476,172.70278511,127.89968385
178.50240073,173.91459815,178.15624291,-1.85351928,11.30319170,36.71270951
-1.81457718,-0.95816036,-0.37183869

>  <Name>
lig.pdb

>  <RI>
0

>  <Rbt.Current_Directory>
/home/itssahil/PROJECTS/Mol_Feturizer/New_Systems/rnas/4wcr

>  <Rbt.Executable>
rbdock ($Id: //depot/dev/client3/rdock/2013.1/src/exe/rbdock.cxx#4 $)

>  <Rbt.Library>
libRbt.so (2013.1, Build901 2013/11/27)

>  <Rbt.Parameter_File>
/export/apps/rDock/src/rDock_2013.1_src/data/scripts/dock_solv.prm

>  <Rbt.Receptor>
prm/pocket_docking_4.prm

>  <SCORE>
-4.91712

>  <SCORE.INTER>
1.95916

>  <SCORE.INTER.CONST>
1

>  <SCORE.INTER.POLAR>
0

>  <SCORE.INTER.ROT>
9

>  <SCORE.INTER.SOLV>
20.4941

>  <SCORE.INTER.VDW>
-15.1252

>  <SCORE.INTER.norm>
0.0466467

>  <SCORE.INTRA>
-6.87628

>  <SCORE.INTRA.DIHEDRAL>
-5.57643

>  <SCORE.INTRA.DIHEDRAL.0>
16.2863

>  <SCORE.INTRA.POLAR>
0

>  <SCORE.INTRA.POLAR.0>
0

>  <SCORE.INTRA.REPUL>
-0.314433

>  <SCORE.INTRA.REPUL.0>
0.314433

>  <SCORE.INTRA.SOLV>
-3.41284

>  <SCORE.INTRA.SOLV.lig_0>
-103.824

>  <SCORE.INTRA.VDW>
-0.809477

>  <SCORE.INTRA.VDW.0>
-5.30945

>  <SCORE.INTRA.norm>
-0.163721

>  <SCORE.RESTR>
0

>  <SCORE.RESTR.CAVITY>
0

>  <SCORE.RESTR.norm>
0

>  <SCORE.SYSTEM>
0

>  <SCORE.SYSTEM.CONST>
0

>  <SCORE.SYSTEM.DIHEDRAL>
0

>  <SCORE.SYSTEM.SOLV>
0

>  <SCORE.SYSTEM.norm>
0

>  <SCORE.heavy>
42

>  <SCORE.norm>
-0.117074

>  <RMSD>
9.242

$$$$
lig.pdb
 OpenBabel11021811513D
libRbt.so/2013.1/901 2013/11/27
 42 45  0  0  0  0  0  0  0  0999 V2000
   -5.7241   17.2978   29.3296 C   0  0  2  0  0  0  0  0  0  0  0  0
   -5.8793   16.5129   30.5532 O   0  0  0  0  0  0  0  0  0  0  0  0
   -6.1732   18.7825   29.6957 C   0  0  2  0  0  0  0  0  0  0  0  0
   -5.2982   19.3379   30.7318 N   0  0  0  0  0  0  0  0  0  0  0  0
   -7.7135   18.7591   30.1506 C   0  0  1  0  0  0  0  0  0  0  0  0
   -8.1780   20.0841   30.4842 O   0  0  0  0  0  0  0  0  0  0  0  0
   -8.5207   18.1515   28.9906 C   0  0  2  0  0  0  0  0  0  0  0  0
   -9.8598   18.1137   29.3499 O   0  0  0  0  0  0  0  0  0  0  0  0
   -7.9784   16.6870   28.6593 C   0  0  2  0  0  0  0  0  0  0  0  0
   -6.5949   16.7165   28.2868 O   0  0  0  0  0  0  0  0  0  0  0  0
   -8.7231   16.0550   27.5177 C   0  0  0  0  0  0  0  0  0  0  0  0
   -8.5255   16.8757   26.3656 O   0  0  0  0  0  0  0  0  0  0  0  0
   -3.5500   13.9936   33.3816 C   0  0  2  0  0  0  0  0  0  0  0  0
   -2.4428   13.2993   34.0022 N   0  0  0  0  0  0  0  0  0  0  0  0
   -3.6805   13.5665   31.8685 C   0  0  0  0  0  0  0  0  0  0  0  0
   -4.8732   14.3100   31.1705 C   0  0  2  0  0  0  0  0  0  0  0  0
   -4.9548   13.8928   29.7723 N   0  0  0  0  0  0  0  0  0  0  0  0
   -4.7170   15.8947   31.2234 C   0  0  2  0  0  0  0  0  0  0  0  0
   -4.6272   16.3038   32.7221 C   0  0  2  0  0  0  0  0  0  0  0  0
   -4.4920   17.8082   32.6838 O   0  0  0  0  0  0  0  0  0  0  0  0
   -3.3485   15.5816   33.4227 C   0  0  1  0  0  0  0  0  0  0  0  0
   -3.1948   15.8505   34.8532 O   0  0  0  0  0  0  0  0  0  0  0  0
   -3.4722   18.2387   33.4912 C   0  0  1  0  0  0  0  0  0  0  0  0
   -2.1539   18.1388   32.8561 C   0  0  2  0  0  0  0  0  0  0  0  0
   -1.8159   16.7896   32.8102 O   0  0  0  0  0  0  0  0  0  0  0  0
   -1.3288   19.1127   33.7244 C   0  0  2  0  0  0  0  0  0  0  0  0
   -0.2730   18.3358   34.3338 O   0  0  0  0  0  0  0  0  0  0  0  0
   -2.2976   19.6473   34.7271 C   0  0  2  0  0  0  0  0  0  0  0  0
   -3.4950   19.6045   33.8713 O   0  0  0  0  0  0  0  0  0  0  0  0
   -1.9654   21.1317   35.1276 C   0  0  0  0  0  0  0  0  0  0  0  0
   -2.7531   21.6248   36.2526 O   0  0  0  0  0  0  0  0  0  0  0  0
   -0.6357   17.5204   35.4890 C   0  0  2  0  0  0  0  0  0  0  0  0
   -0.4686   18.4180   36.8234 C   0  0  2  0  0  0  0  0  0  0  0  0
    0.9448   18.9088   36.9134 N   0  0  0  0  0  0  0  0  0  0  0  0
   -0.8733   17.5144   38.0898 C   0  0  1  0  0  0  0  0  0  0  0  0
   -2.2558   17.0878   37.8944 O   0  0  0  0  0  0  0  0  0  0  0  0
    0.1073   16.2596   38.1813 C   0  0  2  0  0  0  0  0  0  0  0  0
    1.4801   16.7707   38.3923 O   0  0  0  0  0  0  0  0  0  0  0  0
   -0.0355   15.4010   36.8014 C   0  0  1  0  0  0  0  0  0  0  0  0
    0.2786   16.2851   35.6205 O   0  0  0  0  0  0  0  0  0  0  0  0
    0.9279   14.1689   36.8493 C   0  0  0  0  0  0  0  0  0  0  0  0
    0.5147   13.1483   37.8617 N   0  0  0  0  0  0  0  0  0  0  0  0
  1  3  1  0  0  0  0
  1  2  1  1  0  0  0
  3  4  1  1  0  0  0
  3  5  1  0  0  0  0
  5  6  1  6  0  0  0
  7  8  1  1  0  0  0
  7  5  1  0  0  0  0
  9 11  1  6  0  0  0
  9  7  1  0  0  0  0
 10  9  1  0  0  0  0
 10  1  1  0  0  0  0
 12 11  1  0  0  0  0
 13 14  1  6  0  0  0
 15 13  1  0  0  0  0
 16 17  1  6  0  0  0
 16 15  1  0  0  0  0
 18  2  1  1  0  0  0
 18 19  1  0  0  0  0
 18 16  1  0  0  0  0
 19 20  1  6  0  0  0
 19 21  1  0  0  0  0
 21 22  1  1  0  0  0
 21 13  1  0  0  0  0
 23 20  1  6  0  0  0
 23 29  1  0  0  0  0
 24 25  1  1  0  0  0
 24 26  1  0  0  0  0
 24 23  1  0  0  0  0
 26 27  1  1  0  0  0
 26 28  1  0  0  0  0
 28 30  1  6  0  0  0
 29 28  1  0  0  0  0
 30 31  1  0  0  0  0
 32 27  1  6  0  0  0
 32 40  1  0  0  0  0
 33 35  1  0  0  0  0
 33 32  1  0  0  0  0
 33 34  1  1  0  0  0
 35 36  1  6  0  0  0
 35 37  1  0  0  0  0
 37 38  1  6  0  0  0
 37 39  1  0  0  0  0
 39 41  1  1  0  0  0
 40 39  1  0  0  0  0
 41 42  1  0  0  0  0
M  END
>  <CHROM.1>
-116.24552065,61.14873755,-115.51051754,-132.01384720,81.98154750,-78.48240867
-170.95387312,-88.74562403,68.45016629,-3.55671863,17.12315131,33.12081006
-3.00807549,-0.81057131,0.23301582

>  <Name>
lig.pdb

>  <RI>
0

>  <Rbt.Current_Directory>
/home/itssahil/PROJECTS/Mol_Feturizer/New_Systems/rnas/4wcr

>  <Rbt.Executable>
rbdock ($Id: //depot/dev/client3/rdock/2013.1/src/exe/rbdock.cxx#4 $)

>  <Rbt.Library>
libRbt.so (2013.1, Build901 2013/11/27)

>  <Rbt.Parameter_File>
/export/apps/rDock/src/rDock_2013.1_src/data/scripts/dock_solv.prm

>  <Rbt.Receptor>
prm/blind_docking_60.prm

>  <SCORE>
17.96

>  <SCORE.INTER>
-8.02309

>  <SCORE.INTER.CONST>
1

>  <SCORE.INTER.POLAR>
0

>  <SCORE.INTER.ROT>
9

>  <SCORE.INTER.SOLV>
32.7613

>  <SCORE.INTER.VDW>
-25.8692

>  <SCORE.INTER.norm>
-0.191026

>  <SCORE.INTRA>
24.2799

>  <SCORE.INTRA.DIHEDRAL>
12.4484

>  <SCORE.INTRA.DIHEDRAL.0>
16.2863

>  <SCORE.INTRA.POLAR>
0

>  <SCORE.INTRA.POLAR.0>
0

>  <SCORE.INTRA.REPUL>
-0.314433

>  <SCORE.INTRA.REPUL.0>
0.314433

>  <SCORE.INTRA.SOLV>
2.18938

>  <SCORE.INTRA.SOLV.lig_0>
-103.824

>  <SCORE.INTRA.VDW>
18.5332

>  <SCORE.INTRA.VDW.0>
-5.30945

>  <SCORE.INTRA.norm>
0.578093

>  <SCORE.RESTR>
1.70315

>  <SCORE.RESTR.CAVITY>
1.70315

>  <SCORE.RESTR.norm>
0.0405512

>  <SCORE.SYSTEM>
0

>  <SCORE.SYSTEM.CONST>
0

>  <SCORE.SYSTEM.DIHEDRAL>
0

>  <SCORE.SYSTEM.SOLV>
0

>  <SCORE.SYSTEM.norm>
0

>  <SCORE.heavy>
42

>  <SCORE.norm>
0.427618

>  <RMSD>
9.245

$$$$
lig.pdb
 OpenBabel11021811513D
libRbt.so/2013.1/901 2013/11/27
 42 45  0  0  0  0  0  0  0  0999 V2000
   -2.0752    5.6653   37.8561 C   0  0  2  0  0  0  0  0  0  0  0  0
   -2.8355    6.8785   38.1516 O   0  0  0  0  0  0  0  0  0  0  0  0
   -0.9339    6.0965   36.8306 C   0  0  2  0  0  0  0  0  0  0  0  0
   -0.0401    7.0801   37.4480 N   0  0  0  0  0  0  0  0  0  0  0  0
   -1.6254    6.6593   35.4946 C   0  0  1  0  0  0  0  0  0  0  0  0
   -0.6349    7.0556   34.5228 O   0  0  0  0  0  0  0  0  0  0  0  0
   -2.5379    5.5462   34.9516 C   0  0  2  0  0  0  0  0  0  0  0  0
   -3.1551    5.9991   33.7951 O   0  0  0  0  0  0  0  0  0  0  0  0
   -3.6196    5.1435   36.0543 C   0  0  2  0  0  0  0  0  0  0  0  0
   -2.9905    4.6741   37.2533 O   0  0  0  0  0  0  0  0  0  0  0  0
   -4.5263    4.0436   35.5794 C   0  0  0  0  0  0  0  0  0  0  0  0
   -5.4193    3.7278   36.6483 O   0  0  0  0  0  0  0  0  0  0  0  0
   -2.5245   10.0788   41.2231 C   0  0  2  0  0  0  0  0  0  0  0  0
   -1.9648   11.0884   42.0950 N   0  0  0  0  0  0  0  0  0  0  0  0
   -1.7864    8.7017   41.4412 C   0  0  0  0  0  0  0  0  0  0  0  0
   -2.3729    7.5892   40.5026 C   0  0  2  0  0  0  0  0  0  0  0  0
   -1.6588    6.3346   40.7303 N   0  0  0  0  0  0  0  0  0  0  0  0
   -2.2573    7.9712   38.9602 C   0  0  2  0  0  0  0  0  0  0  0  0
   -3.0212    9.3112   38.7539 C   0  0  2  0  0  0  0  0  0  0  0  0
   -2.8725    9.5943   37.2772 O   0  0  0  0  0  0  0  0  0  0  0  0
   -2.3648   10.4768   39.6802 C   0  0  1  0  0  0  0  0  0  0  0  0
   -3.0389   11.7740   39.6101 O   0  0  0  0  0  0  0  0  0  0  0  0
   -3.5179   10.7497   36.9227 C   0  0  1  0  0  0  0  0  0  0  0  0
   -3.4559   11.0252   35.4834 C   0  0  2  0  0  0  0  0  0  0  0  0
   -2.1553   11.4260   35.1927 O   0  0  0  0  0  0  0  0  0  0  0  0
   -4.6256   12.0190   35.3183 C   0  0  2  0  0  0  0  0  0  0  0  0
   -4.0572   13.2541   34.8271 O   0  0  0  0  0  0  0  0  0  0  0  0
   -5.2049   12.1603   36.6872 C   0  0  2  0  0  0  0  0  0  0  0  0
   -4.9161   10.7942   37.1543 O   0  0  0  0  0  0  0  0  0  0  0  0
   -6.7581   12.4052   36.6427 C   0  0  0  0  0  0  0  0  0  0  0  0
   -7.1307   13.7019   36.0870 O   0  0  0  0  0  0  0  0  0  0  0  0
   -3.4014   14.1147   35.8069 C   0  0  2  0  0  0  0  0  0  0  0  0
   -3.4910   15.6436   35.2886 C   0  0  2  0  0  0  0  0  0  0  0  0
   -2.8439   15.7456   33.9404 N   0  0  0  0  0  0  0  0  0  0  0  0
   -2.7703   16.5846   36.3744 C   0  0  1  0  0  0  0  0  0  0  0  0
   -3.4718   16.4010   37.6415 O   0  0  0  0  0  0  0  0  0  0  0  0
   -1.2357   16.1683   36.5020 C   0  0  2  0  0  0  0  0  0  0  0  0
   -0.5931   16.3948   35.1883 O   0  0  0  0  0  0  0  0  0  0  0  0
   -1.1699   14.6067   36.9700 C   0  0  1  0  0  0  0  0  0  0  0  0
   -1.9125   13.7489   35.9763 O   0  0  0  0  0  0  0  0  0  0  0  0
    0.3246   14.1583   37.0887 C   0  0  0  0  0  0  0  0  0  0  0  0
    0.4727   12.7660   37.6147 N   0  0  0  0  0  0  0  0  0  0  0  0
  1  3  1  0  0  0  0
  1  2  1  6  0  0  0
  3  4  1  1  0  0  0
  3  5  1  0  0  0  0
  5  6  1  6  0  0  0
  7  8  1  6  0  0  0
  7  5  1  0  0  0  0
  9 11  1  6  0  0  0
  9  7  1  0  0  0  0
 10  9  1  0  0  0  0
 10  1  1  0  0  0  0
 12 11  1  0  0  0  0
 13 14  1  1  0  0  0
 15 13  1  0  0  0  0
 16 17  1  6  0  0  0
 16 15  1  0  0  0  0
 18  2  1  6  0  0  0
 18 19  1  0  0  0  0
 18 16  1  0  0  0  0
 19 20  1  6  0  0  0
 19 21  1  0  0  0  0
 21 22  1  1  0  0  0
 21 13  1  0  0  0  0
 23 20  1  6  0  0  0
 23 29  1  0  0  0  0
 24 25  1  1  0  0  0
 24 26  1  0  0  0  0
 24 23  1  0  0  0  0
 26 27  1  1  0  0  0
 26 28  1  0  0  0  0
 28 30  1  6  0  0  0
 29 28  1  0  0  0  0
 30 31  1  0  0  0  0
 32 27  1  6  0  0  0
 32 40  1  0  0  0  0
 33 35  1  0  0  0  0
 33 32  1  0  0  0  0
 33 34  1  6  0  0  0
 35 36  1  1  0  0  0
 35 37  1  0  0  0  0
 37 38  1  6  0  0  0
 37 39  1  0  0  0  0
 39 41  1  6  0  0  0
 40 39  1  0  0  0  0
 41 42  1  0  0  0  0
M  END
>  <CHROM.1>
-70.55168399,178.00196250,-80.42243621,179.05573177,-177.05704494,-78.98444451
-68.23857161,-152.68805776,175.62781502,-2.78813368,10.36550670,37.05036961
-1.57433451,-1.17280412,-0.11031626

>  <Name>
lig.pdb

>  <RI>
0

>  <Rbt.Current_Directory>
/home/itssahil/PROJECTS/Mol_Feturizer/New_Systems/rnas/4wcr

>  <Rbt.Executable>
rbdock ($Id: //depot/dev/client3/rdock/2013.1/src/exe/rbdock.cxx#4 $)

>  <Rbt.Library>
libRbt.so (2013.1, Build901 2013/11/27)

>  <Rbt.Parameter_File>
/export/apps/rDock/src/rDock_2013.1_src/data/scripts/dock_solv.prm

>  <Rbt.Receptor>
prm/pocket_docking_3.prm

>  <SCORE>
-0.398854

>  <SCORE.INTER>
3.60159

>  <SCORE.INTER.CONST>
1

>  <SCORE.INTER.POLAR>
0

>  <SCORE.INTER.ROT>
9

>  <SCORE.INTER.SOLV>
11.6268

>  <SCORE.INTER.VDW>
-11.0746

>  <SCORE.INTER.norm>
0.0857522

>  <SCORE.INTRA>
-4.00044

>  <SCORE.INTRA.DIHEDRAL>
-8.28228

>  <SCORE.INTRA.DIHEDRAL.0>
16.2863

>  <SCORE.INTRA.POLAR>
0

>  <SCORE.INTRA.POLAR.0>
0

>  <SCORE.INTRA.REPUL>
-0.314433

>  <SCORE.INTRA.REPUL.0>
0.314433

>  <SCORE.INTRA.SOLV>
-0.963465

>  <SCORE.INTRA.SOLV.lig_0>
-103.824

>  <SCORE.INTRA.VDW>
2.19459

>  <SCORE.INTRA.VDW.0>
-5.30945

>  <SCORE.INTRA.norm>
-0.0952487

>  <SCORE.RESTR>
0

>  <SCORE.RESTR.CAVITY>
0

>  <SCORE.RESTR.norm>
0

>  <SCORE.SYSTEM>
0

>  <SCORE.SYSTEM.CONST>
0

>  <SCORE.SYSTEM.DIHEDRAL>
0

>  <SCORE.SYSTEM.SOLV>
0

>  <SCORE.SYSTEM.norm>
0

>  <SCORE.heavy>
42

>  <SCORE.norm>
-0.00949654

>  <RMSD>
9.266

$$$$
lig.pdb
 OpenBabel11021811513D
libRbt.so/2013.1/901 2013/11/27
 42 45  0  0  0  0  0  0  0  0999 V2000
   -4.1261    6.8417   36.7569 C   0  0  2  0  0  0  0  0  0  0  0  0
   -2.7072    7.1721   36.8787 O   0  0  0  0  0  0  0  0  0  0  0  0
   -4.2985    6.1461   35.3334 C   0  0  2  0  0  0  0  0  0  0  0  0
   -3.5147    4.9093   35.2732 N   0  0  0  0  0  0  0  0  0  0  0  0
   -3.8705    7.1919   34.1920 C   0  0  1  0  0  0  0  0  0  0  0  0
   -4.0180    6.6166   32.8767 O   0  0  0  0  0  0  0  0  0  0  0  0
   -4.7520    8.4406   34.3659 C   0  0  2  0  0  0  0  0  0  0  0  0
   -4.4078    9.3692   33.3950 O   0  0  0  0  0  0  0  0  0  0  0  0
   -4.5537    9.0466   35.8294 C   0  0  2  0  0  0  0  0  0  0  0  0
   -4.9072    8.0934   36.8395 O   0  0  0  0  0  0  0  0  0  0  0  0
   -5.4093   10.2602   36.0578 C   0  0  0  0  0  0  0  0  0  0  0  0
   -5.1167   10.7557   37.3649 O   0  0  0  0  0  0  0  0  0  0  0  0
   -2.6101    9.4273   40.7098 C   0  0  2  0  0  0  0  0  0  0  0  0
   -2.1337    9.9888   41.9551 N   0  0  0  0  0  0  0  0  0  0  0  0
   -2.4203    7.8612   40.7112 C   0  0  0  0  0  0  0  0  0  0  0  0
   -2.9261    7.2275   39.3677 C   0  0  2  0  0  0  0  0  0  0  0  0
   -2.7262    5.7803   39.4070 N   0  0  0  0  0  0  0  0  0  0  0  0
   -2.1683    7.8144   38.0950 C   0  0  2  0  0  0  0  0  0  0  0  0
   -2.3959    9.3538   38.0865 C   0  0  2  0  0  0  0  0  0  0  0  0
   -1.6601    9.8263   36.8544 O   0  0  0  0  0  0  0  0  0  0  0  0
   -1.8085   10.0128   39.4533 C   0  0  1  0  0  0  0  0  0  0  0  0
   -2.0164   11.4559   39.5818 O   0  0  0  0  0  0  0  0  0  0  0  0
   -1.6696   11.1932   36.7605 C   0  0  1  0  0  0  0  0  0  0  0  0
   -0.6114   11.7176   35.8908 C   0  0  2  0  0  0  0  0  0  0  0  0
    0.5946   11.5727   36.5699 O   0  0  0  0  0  0  0  0  0  0  0  0
   -1.1553   13.1274   35.5745 C   0  0  2  0  0  0  0  0  0  0  0  0
   -0.1848   14.0718   36.0802 O   0  0  0  0  0  0  0  0  0  0  0  0
   -2.4601   13.2058   36.2963 C   0  0  2  0  0  0  0  0  0  0  0  0
   -2.8223   11.7832   36.1828 O   0  0  0  0  0  0  0  0  0  0  0  0
   -3.5020   14.0977   35.5260 C   0  0  0  0  0  0  0  0  0  0  0  0
   -4.7916   14.2060   36.2001 O   0  0  0  0  0  0  0  0  0  0  0  0
   -0.4544   15.4867   35.8427 C   0  0  2  0  0  0  0  0  0  0  0  0
    0.8175   16.3443   36.3536 C   0  0  2  0  0  0  0  0  0  0  0  0
    1.0510   16.0612   37.8069 N   0  0  0  0  0  0  0  0  0  0  0  0
    0.5142   17.8999   36.0851 C   0  0  1  0  0  0  0  0  0  0  0  0
    0.2963   18.0581   34.6501 O   0  0  0  0  0  0  0  0  0  0  0  0
   -0.7759   18.3397   36.9137 C   0  0  2  0  0  0  0  0  0  0  0  0
   -0.4732   18.1647   38.3518 O   0  0  0  0  0  0  0  0  0  0  0  0
   -2.0326   17.4224   36.4226 C   0  0  1  0  0  0  0  0  0  0  0  0
   -1.7007   15.9640   36.6161 O   0  0  0  0  0  0  0  0  0  0  0  0
   -3.3146   17.8158   37.2291 C   0  0  0  0  0  0  0  0  0  0  0  0
   -3.1902   17.5301   38.6920 N   0  0  0  0  0  0  0  0  0  0  0  0
  1  3  1  0  0  0  0
  1  2  1  6  0  0  0
  3  4  1  1  0  0  0
  3  5  1  0  0  0  0
  5  6  1  6  0  0  0
  7  8  1  6  0  0  0
  7  5  1  0  0  0  0
  9 11  1  6  0  0  0
  9  7  1  0  0  0  0
 10  9  1  0  0  0  0
 10  1  1  0  0  0  0
 12 11  1  0  0  0  0
 13 14  1  1  0  0  0
 15 13  1  0  0  0  0
 16 17  1  1  0  0  0
 16 15  1  0  0  0  0
 18  2  1  6  0  0  0
 18 19  1  0  0  0  0
 18 16  1  0  0  0  0
 19 20  1  6  0  0  0
 19 21  1  0  0  0  0
 21 22  1  6  0  0  0
 21 13  1  0  0  0  0
 23 20  1  6  0  0  0
 23 29  1  0  0  0  0
 24 25  1  1  0  0  0
 24 26  1  0  0  0  0
 24 23  1  0  0  0  0
 26 27  1  1  0  0  0
 26 28  1  0  0  0  0
 28 30  1  6  0  0  0
 29 28  1  0  0  0  0
 30 31  1  0  0  0  0
 32 27  1  1  0  0  0
 32 40  1  0  0  0  0
 33 35  1  0  0  0  0
 33 32  1  0  0  0  0
 33 34  1  1  0  0  0
 35 36  1  6  0  0  0
 35 37  1  0  0  0  0
 37 38  1  1  0  0  0
 37 39  1  0  0  0  0
 39 41  1  1  0  0  0
 40 39  1  0  0  0  0
 41 42  1  0  0  0  0
M  END
>  <CHROM.1>
-178.87822441,-177.54073603,36.74237539,-174.92478639,159.77810144,177.33725531
-179.77157742,-174.37278757,-63.99347665,-2.39917467,11.63335411,36.86876213
2.33616990,1.16987211,2.41683945

>  <Name>
lig.pdb

>  <RI>
0

>  <Rbt.Current_Directory>
/home/itssahil/PROJECTS/Mol_Feturizer/New_Systems/rnas/4wcr

>  <Rbt.Executable>
rbdock ($Id: //depot/dev/client3/rdock/2013.1/src/exe/rbdock.cxx#4 $)

>  <Rbt.Library>
libRbt.so (2013.1, Build901 2013/11/27)

>  <Rbt.Parameter_File>
/export/apps/rDock/src/rDock_2013.1_src/data/scripts/dock_solv.prm

>  <Rbt.Receptor>
prm/pocket_docking_3.prm

>  <SCORE>
-8.22132

>  <SCORE.INTER>
-0.259155

>  <SCORE.INTER.CONST>
1

>  <SCORE.INTER.POLAR>
0

>  <SCORE.INTER.ROT>
9

>  <SCORE.INTER.SOLV>
16.6405

>  <SCORE.INTER.VDW>
-15.3196

>  <SCORE.INTER.norm>
-0.00617036

>  <SCORE.INTRA>
-7.96217

>  <SCORE.INTRA.DIHEDRAL>
-11.1617

>  <SCORE.INTRA.DIHEDRAL.0>
16.2863

>  <SCORE.INTRA.POLAR>
0

>  <SCORE.INTRA.POLAR.0>
0

>  <SCORE.INTRA.REPUL>
-0.314433

>  <SCORE.INTRA.REPUL.0>
0.314433

>  <SCORE.INTRA.SOLV>
-1.4452

>  <SCORE.INTRA.SOLV.lig_0>
-103.824

>  <SCORE.INTRA.VDW>
-0.086535

>  <SCORE.INTRA.VDW.0>
-5.30945

>  <SCORE.INTRA.norm>
-0.189575

>  <SCORE.RESTR>
0

>  <SCORE.RESTR.CAVITY>
0

>  <SCORE.RESTR.norm>
0

>  <SCORE.SYSTEM>
0

>  <SCORE.SYSTEM.CONST>
0

>  <SCORE.SYSTEM.DIHEDRAL>
0

>  <SCORE.SYSTEM.SOLV>
0

>  <SCORE.SYSTEM.norm>
0

>  <SCORE.heavy>
42

>  <SCORE.norm>
-0.195746

>  <RMSD>
9.281

$$$$
lig.pdb
 OpenBabel11021811513D
libRbt.so/2013.1/901 2013/11/27
 42 45  0  0  0  0  0  0  0  0999 V2000
   -4.2667    8.7181   35.1236 C   0  0  2  0  0  0  0  0  0  0  0  0
   -3.2123    9.0418   36.0831 O   0  0  0  0  0  0  0  0  0  0  0  0
   -4.1232    9.7708   33.9356 C   0  0  2  0  0  0  0  0  0  0  0  0
   -2.8209    9.6234   33.2797 N   0  0  0  0  0  0  0  0  0  0  0  0
   -4.3418   11.2486   34.5255 C   0  0  1  0  0  0  0  0  0  0  0  0
   -4.2335   12.2450   33.4872 O   0  0  0  0  0  0  0  0  0  0  0  0
   -5.7288   11.2720   35.1903 C   0  0  2  0  0  0  0  0  0  0  0  0
   -5.9517   12.5367   35.7143 O   0  0  0  0  0  0  0  0  0  0  0  0
   -5.8025   10.1606   36.3339 C   0  0  2  0  0  0  0  0  0  0  0  0
   -5.5733    8.8501   35.8013 O   0  0  0  0  0  0  0  0  0  0  0  0
   -7.1470   10.1291   37.0036 C   0  0  0  0  0  0  0  0  0  0  0  0
   -7.1062    9.1140   38.0074 O   0  0  0  0  0  0  0  0  0  0  0  0
    0.1137    6.6239   37.7754 C   0  0  2  0  0  0  0  0  0  0  0  0
    1.2828    5.7761   37.8610 N   0  0  0  0  0  0  0  0  0  0  0  0
   -0.9980    5.9304   36.8968 C   0  0  0  0  0  0  0  0  0  0  0  0
   -2.2768    6.8330   36.7846 C   0  0  2  0  0  0  0  0  0  0  0  0
   -3.2768    6.1590   35.9589 N   0  0  0  0  0  0  0  0  0  0  0  0
   -1.9617    8.2580   36.1455 C   0  0  2  0  0  0  0  0  0  0  0  0
   -0.8920    8.9445   37.0434 C   0  0  2  0  0  0  0  0  0  0  0  0
   -0.6595   10.2815   36.3792 O   0  0  0  0  0  0  0  0  0  0  0  0
    0.4561    8.0353   37.1008 C   0  0  1  0  0  0  0  0  0  0  0  0
    1.5164    8.5570   37.9643 O   0  0  0  0  0  0  0  0  0  0  0  0
    0.0665   11.1196   37.1841 C   0  0  1  0  0  0  0  0  0  0  0  0
   -0.0358   12.5284   36.7892 C   0  0  2  0  0  0  0  0  0  0  0  0
    0.7016   12.6868   35.6197 O   0  0  0  0  0  0  0  0  0  0  0  0
    0.4117   13.2360   38.0863 C   0  0  2  0  0  0  0  0  0  0  0  0
    1.5953   13.9983   37.7584 O   0  0  0  0  0  0  0  0  0  0  0  0
    0.6921   12.1298   39.0493 C   0  0  2  0  0  0  0  0  0  0  0  0
   -0.3185   11.1841   38.5472 O   0  0  0  0  0  0  0  0  0  0  0  0
    0.3626   12.5459   40.5301 C   0  0  0  0  0  0  0  0  0  0  0  0
    0.6076   11.4873   41.5040 O   0  0  0  0  0  0  0  0  0  0  0  0
    1.3891   15.3452   37.2346 C   0  0  2  0  0  0  0  0  0  0  0  0
    1.1971   16.3568   38.4811 C   0  0  2  0  0  0  0  0  0  0  0  0
    0.0351   15.9012   39.3111 N   0  0  0  0  0  0  0  0  0  0  0  0
    0.9745   17.8374   37.8961 C   0  0  1  0  0  0  0  0  0  0  0  0
    2.1542   18.1728   37.1040 O   0  0  0  0  0  0  0  0  0  0  0  0
   -0.3448   17.8609   36.9998 C   0  0  2  0  0  0  0  0  0  0  0  0
   -1.4924   17.5264   37.8723 O   0  0  0  0  0  0  0  0  0  0  0  0
   -0.1515   16.7917   35.7826 C   0  0  1  0  0  0  0  0  0  0  0  0
    0.1272   15.4228   36.3510 O   0  0  0  0  0  0  0  0  0  0  0  0
   -1.4373   16.7757   34.8909 C   0  0  0  0  0  0  0  0  0  0  0  0
   -2.6426   16.2723   35.6196 N   0  0  0  0  0  0  0  0  0  0  0  0
  1  3  1  0  0  0  0
  1  2  1  1  0  0  0
  3  4  1  1  0  0  0
  3  5  1  0  0  0  0
  5  6  1  6  0  0  0
  7  8  1  1  0  0  0
  7  5  1  0  0  0  0
  9 11  1  6  0  0  0
  9  7  1  0  0  0  0
 10  9  1  0  0  0  0
 10  1  1  0  0  0  0
 12 11  1  0  0  0  0
 13 14  1  6  0  0  0
 15 13  1  0  0  0  0
 16 17  1  6  0  0  0
 16 15  1  0  0  0  0
 18  2  1  1  0  0  0
 18 19  1  0  0  0  0
 18 16  1  0  0  0  0
 19 20  1  6  0  0  0
 19 21  1  0  0  0  0
 21 22  1  1  0  0  0
 21 13  1  0  0  0  0
 23 20  1  6  0  0  0
 23 29  1  0  0  0  0
 24 25  1  6  0  0  0
 24 26  1  0  0  0  0
 24 23  1  0  0  0  0
 26 27  1  6  0  0  0
 26 28  1  0  0  0  0
 28 30  1  1  0  0  0
 29 28  1  0  0  0  0
 30 31  1  0  0  0  0
 32 27  1  1  0  0  0
 32 40  1  0  0  0  0
 33 35  1  0  0  0  0
 33 32  1  0  0  0  0
 33 34  1  6  0  0  0
 35 36  1  6  0  0  0
 35 37  1  0  0  0  0
 37 38  1  1  0  0  0
 37 39  1  0  0  0  0
 39 41  1  1  0  0  0
 40 39  1  0  0  0  0
 41 42  1  0  0  0  0
M  END
>  <CHROM.1>
-101.31732365,-179.69686361,-72.24447697,168.29535512,-161.99674697,86.64261282
179.32208311,84.18197810,-64.92221200,-1.51196150,11.76730633,36.84590541
2.04526901,0.45435096,3.06386251

>  <Name>
lig.pdb

>  <RI>
0

>  <Rbt.Current_Directory>
/home/itssahil/PROJECTS/Mol_Feturizer/New_Systems/rnas/4wcr

>  <Rbt.Executable>
rbdock ($Id: //depot/dev/client3/rdock/2013.1/src/exe/rbdock.cxx#4 $)

>  <Rbt.Library>
libRbt.so (2013.1, Build901 2013/11/27)

>  <Rbt.Parameter_File>
/export/apps/rDock/src/rDock_2013.1_src/data/scripts/dock_solv.prm

>  <Rbt.Receptor>
prm/pocket_docking_4.prm

>  <SCORE>
-4.34451

>  <SCORE.INTER>
-3.19673

>  <SCORE.INTER.CONST>
1

>  <SCORE.INTER.POLAR>
0

>  <SCORE.INTER.ROT>
9

>  <SCORE.INTER.SOLV>
13.828

>  <SCORE.INTER.VDW>
-16.3405

>  <SCORE.INTER.norm>
-0.0761127

>  <SCORE.INTRA>
-1.16637

>  <SCORE.INTRA.DIHEDRAL>
-1.78436

>  <SCORE.INTRA.DIHEDRAL.0>
16.2863

>  <SCORE.INTRA.POLAR>
0

>  <SCORE.INTRA.POLAR.0>
0

>  <SCORE.INTRA.REPUL>
-0.314433

>  <SCORE.INTRA.REPUL.0>
0.314433

>  <SCORE.INTRA.SOLV>
-0.0788362

>  <SCORE.INTRA.SOLV.lig_0>
-103.824

>  <SCORE.INTRA.VDW>
1.33739

>  <SCORE.INTRA.VDW.0>
-5.30945

>  <SCORE.INTRA.norm>
-0.0277708

>  <SCORE.RESTR>
0.0185935

>  <SCORE.RESTR.CAVITY>
0.0185935

>  <SCORE.RESTR.norm>
0.000442703

>  <SCORE.SYSTEM>
0

>  <SCORE.SYSTEM.CONST>
0

>  <SCORE.SYSTEM.DIHEDRAL>
0

>  <SCORE.SYSTEM.SOLV>
0

>  <SCORE.SYSTEM.norm>
0

>  <SCORE.heavy>
42

>  <SCORE.norm>
-0.103441

>  <RMSD>
9.282

$$$$
lig.pdb
 OpenBabel11021811513D
libRbt.so/2013.1/901 2013/11/27
 42 45  0  0  0  0  0  0  0  0999 V2000
   -2.0775   16.2927   35.7960 C   0  0  2  0  0  0  0  0  0  0  0  0
   -0.9744   16.8767   35.0349 O   0  0  0  0  0  0  0  0  0  0  0  0
   -1.9946   16.9286   37.2550 C   0  0  2  0  0  0  0  0  0  0  0  0
   -2.1784   18.3810   37.1883 N   0  0  0  0  0  0  0  0  0  0  0  0
   -0.5873   16.5248   37.9155 C   0  0  1  0  0  0  0  0  0  0  0  0
   -0.4625   17.0666   39.2472 O   0  0  0  0  0  0  0  0  0  0  0  0
   -0.5116   14.9883   37.9199 C   0  0  2  0  0  0  0  0  0  0  0  0
    0.6955   14.6022   38.4835 O   0  0  0  0  0  0  0  0  0  0  0  0
   -0.6478   14.4329   36.4295 C   0  0  2  0  0  0  0  0  0  0  0  0
   -1.8926   14.8272   35.8391 O   0  0  0  0  0  0  0  0  0  0  0  0
   -0.5990   12.9321   36.3804 C   0  0  0  0  0  0  0  0  0  0  0  0
   -0.0824   12.5579   35.1026 O   0  0  0  0  0  0  0  0  0  0  0  0
   -1.7429   21.1426   34.0427 C   0  0  2  0  0  0  0  0  0  0  0  0
   -1.8409   22.3770   33.2946 N   0  0  0  0  0  0  0  0  0  0  0  0
   -0.2800   20.5607   33.9431 C   0  0  0  0  0  0  0  0  0  0  0  0
   -0.1484   19.2175   34.7437 C   0  0  2  0  0  0  0  0  0  0  0  0
    1.2163   18.7094   34.6201 N   0  0  0  0  0  0  0  0  0  0  0  0
   -1.1593   18.0996   34.2271 C   0  0  2  0  0  0  0  0  0  0  0  0
   -2.5990   18.6737   34.3665 C   0  0  2  0  0  0  0  0  0  0  0  0
   -3.4882   17.5579   33.8694 O   0  0  0  0  0  0  0  0  0  0  0  0
   -2.7478   20.0300   33.4800 C   0  0  1  0  0  0  0  0  0  0  0  0
   -4.0496   20.6918   33.5778 O   0  0  0  0  0  0  0  0  0  0  0  0
   -3.9317   17.8022   32.5963 C   0  0  1  0  0  0  0  0  0  0  0  0
   -4.9033   16.8097   32.1250 C   0  0  2  0  0  0  0  0  0  0  0  0
   -4.2052   15.6329   31.8706 O   0  0  0  0  0  0  0  0  0  0  0  0
   -5.5747   17.5756   30.9649 C   0  0  2  0  0  0  0  0  0  0  0  0
   -5.3261   16.8127   29.7624 O   0  0  0  0  0  0  0  0  0  0  0  0
   -4.9025   18.9088   30.9458 C   0  0  2  0  0  0  0  0  0  0  0  0
   -4.6464   19.0097   32.3922 O   0  0  0  0  0  0  0  0  0  0  0  0
   -5.8808   20.0506   30.4836 C   0  0  0  0  0  0  0  0  0  0  0  0
   -7.1601   20.0451   31.1853 O   0  0  0  0  0  0  0  0  0  0  0  0
   -6.4437   16.0409   29.2273 C   0  0  2  0  0  0  0  0  0  0  0  0
   -5.9349   15.2423   27.9167 C   0  0  2  0  0  0  0  0  0  0  0  0
   -5.4096   16.2248   26.9140 N   0  0  0  0  0  0  0  0  0  0  0  0
   -7.1698   14.3926   27.3361 C   0  0  1  0  0  0  0  0  0  0  0  0
   -7.6031   13.4809   28.3909 O   0  0  0  0  0  0  0  0  0  0  0  0
   -8.3458   15.3851   26.9160 C   0  0  2  0  0  0  0  0  0  0  0  0
   -7.8361   16.2629   25.8391 O   0  0  0  0  0  0  0  0  0  0  0  0
   -8.8034   16.2207   28.2405 C   0  0  1  0  0  0  0  0  0  0  0  0
   -7.6155   16.9538   28.8118 O   0  0  0  0  0  0  0  0  0  0  0  0
   -9.9468   17.2191   27.8605 C   0  0  0  0  0  0  0  0  0  0  0  0
  -11.0097   16.5902   27.0168 N   0  0  0  0  0  0  0  0  0  0  0  0
  1  3  1  0  0  0  0
  1  2  1  6  0  0  0
  3  4  1  6  0  0  0
  3  5  1  0  0  0  0
  5  6  1  1  0  0  0
  7  8  1  6  0  0  0
  7  5  1  0  0  0  0
  9 11  1  1  0  0  0
  9  7  1  0  0  0  0
 10  9  1  0  0  0  0
 10  1  1  0  0  0  0
 12 11  1  0  0  0  0
 13 14  1  6  0  0  0
 15 13  1  0  0  0  0
 16 17  1  6  0  0  0
 16 15  1  0  0  0  0
 18  2  1  1  0  0  0
 18 19  1  0  0  0  0
 18 16  1  0  0  0  0
 19 20  1  6  0  0  0
 19 21  1  0  0  0  0
 21 22  1  1  0  0  0
 21 13  1  0  0  0  0
 23 20  1  1  0  0  0
 23 29  1  0  0  0  0
 24 25  1  6  0  0  0
 24 26  1  0  0  0  0
 24 23  1  0  0  0  0
 26 27  1  6  0  0  0
 26 28  1  0  0  0  0
 28 30  1  1  0  0  0
 29 28  1  0  0  0  0
 30 31  1  0  0  0  0
 32 27  1  6  0  0  0
 32 40  1  0  0  0  0
 33 35  1  0  0  0  0
 33 32  1  0  0  0  0
 33 34  1  6  0  0  0
 35 36  1  1  0  0  0
 35 37  1  0  0  0  0
 37 38  1  6  0  0  0
 37 39  1  0  0  0  0
 39 41  1  6  0  0  0
 40 39  1  0  0  0  0
 41 42  1  0  0  0  0
M  END
>  <CHROM.1>
-92.23764970,-152.28237982,121.45895564,-102.37264148,-174.31195355,104.62831633
49.39663180,-178.51068152,45.96171213,-3.83630427,17.12226043,32.61320304
-0.00830861,0.87502073,3.11547538

>  <Name>
lig.pdb

>  <RI>
0

>  <Rbt.Current_Directory>
/home/itssahil/PROJECTS/Mol_Feturizer/New_Systems/rnas/4wcr

>  <Rbt.Executable>
rbdock ($Id: //depot/dev/client3/rdock/2013.1/src/exe/rbdock.cxx#4 $)

>  <Rbt.Library>
libRbt.so (2013.1, Build901 2013/11/27)

>  <Rbt.Parameter_File>
/export/apps/rDock/src/rDock_2013.1_src/data/scripts/dock_solv.prm

>  <Rbt.Receptor>
prm/blind_docking_60.prm

>  <SCORE>
19.1177

>  <SCORE.INTER>
0.167775

>  <SCORE.INTER.CONST>
1

>  <SCORE.INTER.POLAR>
0

>  <SCORE.INTER.ROT>
9

>  <SCORE.INTER.SOLV>
34.2999

>  <SCORE.INTER.VDW>
-20.9215

>  <SCORE.INTER.norm>
0.00399464

>  <SCORE.INTRA>
16.9667

>  <SCORE.INTRA.DIHEDRAL>
10.7179

>  <SCORE.INTRA.DIHEDRAL.0>
16.2863

>  <SCORE.INTRA.POLAR>
0

>  <SCORE.INTRA.POLAR.0>
0

>  <SCORE.INTRA.REPUL>
-0.314433

>  <SCORE.INTRA.REPUL.0>
0.314433

>  <SCORE.INTRA.SOLV>
-0.973927

>  <SCORE.INTRA.SOLV.lig_0>
-103.824

>  <SCORE.INTRA.VDW>
13.6668

>  <SCORE.INTRA.VDW.0>
-5.30945

>  <SCORE.INTRA.norm>
0.403968

>  <SCORE.RESTR>
1.9833

>  <SCORE.RESTR.CAVITY>
1.9833

>  <SCORE.RESTR.norm>
0.0472214

>  <SCORE.SYSTEM>
0

>  <SCORE.SYSTEM.CONST>
0

>  <SCORE.SYSTEM.DIHEDRAL>
0

>  <SCORE.SYSTEM.SOLV>
0

>  <SCORE.SYSTEM.norm>
0

>  <SCORE.heavy>
42

>  <SCORE.norm>
0.455184

>  <RMSD>
9.283

$$$$
lig.pdb
 OpenBabel11021811513D
libRbt.so/2013.1/901 2013/11/27
 42 45  0  0  0  0  0  0  0  0999 V2000
   -3.2952    9.1901   39.3019 C   0  0  2  0  0  0  0  0  0  0  0  0
   -2.2361    9.2546   38.2963 O   0  0  0  0  0  0  0  0  0  0  0  0
   -4.5358    9.9817   38.6901 C   0  0  2  0  0  0  0  0  0  0  0  0
   -5.0024    9.3276   37.4645 N   0  0  0  0  0  0  0  0  0  0  0  0
   -4.1013   11.5070   38.4363 C   0  0  1  0  0  0  0  0  0  0  0  0
   -5.1941   12.2758   37.8911 O   0  0  0  0  0  0  0  0  0  0  0  0
   -3.6268   12.0748   39.7849 C   0  0  2  0  0  0  0  0  0  0  0  0
   -3.2408   13.3945   39.6030 O   0  0  0  0  0  0  0  0  0  0  0  0
   -2.4162   11.1996   40.3477 C   0  0  2  0  0  0  0  0  0  0  0  0
   -2.8063    9.8340   40.5389 O   0  0  0  0  0  0  0  0  0  0  0  0
   -1.9269   11.7024   41.6762 C   0  0  0  0  0  0  0  0  0  0  0  0
   -0.7680   10.9441   42.0252 O   0  0  0  0  0  0  0  0  0  0  0  0
   -1.1720    7.5106   34.3467 C   0  0  2  0  0  0  0  0  0  0  0  0
   -1.2880    6.8262   33.0774 N   0  0  0  0  0  0  0  0  0  0  0  0
   -1.6611    6.5728   35.5172 C   0  0  0  0  0  0  0  0  0  0  0  0
   -1.5493    7.2945   36.9062 C   0  0  2  0  0  0  0  0  0  0  0  0
   -2.0177    6.3965   37.9598 N   0  0  0  0  0  0  0  0  0  0  0  0
   -2.4018    8.6392   36.9635 C   0  0  2  0  0  0  0  0  0  0  0  0
   -1.8829    9.5681   35.8280 C   0  0  2  0  0  0  0  0  0  0  0  0
   -2.7291   10.8131   35.9575 O   0  0  0  0  0  0  0  0  0  0  0  0
   -2.0640    8.8400   34.3842 C   0  0  1  0  0  0  0  0  0  0  0  0
   -1.5574    9.6009   33.2411 O   0  0  0  0  0  0  0  0  0  0  0  0
   -1.9826   11.9464   35.7684 C   0  0  1  0  0  0  0  0  0  0  0  0
   -2.7278   13.1792   36.0440 C   0  0  2  0  0  0  0  0  0  0  0  0
   -3.6322   13.3599   35.0019 O   0  0  0  0  0  0  0  0  0  0  0  0
   -1.5755   14.1857   36.2500 C   0  0  2  0  0  0  0  0  0  0  0  0
   -1.7229   15.2021   35.2328 O   0  0  0  0  0  0  0  0  0  0  0  0
   -0.3290   13.3816   36.0792 C   0  0  2  0  0  0  0  0  0  0  0  0
   -0.8521   12.1111   36.6083 O   0  0  0  0  0  0  0  0  0  0  0  0
    0.8389   13.9125   36.9896 C   0  0  0  0  0  0  0  0  0  0  0  0
    1.1444   15.3247   36.7857 O   0  0  0  0  0  0  0  0  0  0  0  0
   -1.6177   16.5916   35.6676 C   0  0  2  0  0  0  0  0  0  0  0  0
   -2.7114   17.4664   34.8596 C   0  0  2  0  0  0  0  0  0  0  0  0
   -2.4646   17.3263   33.3878 N   0  0  0  0  0  0  0  0  0  0  0  0
   -2.5916   18.9935   35.3468 C   0  0  1  0  0  0  0  0  0  0  0  0
   -2.8408   19.0109   36.7853 O   0  0  0  0  0  0  0  0  0  0  0  0
   -1.1333   19.5451   35.0099 C   0  0  2  0  0  0  0  0  0  0  0  0
   -0.9627   19.5093   33.5403 O   0  0  0  0  0  0  0  0  0  0  0  0
   -0.0446   18.6127   35.7892 C   0  0  1  0  0  0  0  0  0  0  0  0
   -0.2202   17.1738   35.3725 O   0  0  0  0  0  0  0  0  0  0  0  0
    1.4016   19.1157   35.4666 C   0  0  0  0  0  0  0  0  0  0  0  0
    1.6376   20.5253   35.9076 N   0  0  0  0  0  0  0  0  0  0  0  0
  1  3  1  0  0  0  0
  1  2  1  6  0  0  0
  3  4  1  6  0  0  0
  3  5  1  0  0  0  0
  5  6  1  1  0  0  0
  7  8  1  6  0  0  0
  7  5  1  0  0  0  0
  9 11  1  1  0  0  0
  9  7  1  0  0  0  0
 10  9  1  0  0  0  0
 10  1  1  0  0  0  0
 12 11  1  0  0  0  0
 13 14  1  6  0  0  0
 15 13  1  0  0  0  0
 16 17  1  1  0  0  0
 16 15  1  0  0  0  0
 18  2  1  1  0  0  0
 18 19  1  0  0  0  0
 18 16  1  0  0  0  0
 19 20  1  6  0  0  0
 19 21  1  0  0  0  0
 21 22  1  6  0  0  0
 21 13  1  0  0  0  0
 23 20  1  1  0  0  0
 23 29  1  0  0  0  0
 24 25  1  6  0  0  0
 24 26  1  0  0  0  0
 24 23  1  0  0  0  0
 26 27  1  6  0  0  0
 26 28  1  0  0  0  0
 28 30  1  1  0  0  0
 29 28  1  0  0  0  0
 30 31  1  0  0  0  0
 32 27  1  6  0  0  0
 32 40  1  0  0  0  0
 33 35  1  0  0  0  0
 33 32  1  0  0  0  0
 33 34  1  6  0  0  0
 35 36  1  1  0  0  0
 35 37  1  0  0  0  0
 37 38  1  6  0  0  0
 37 39  1  0  0  0  0
 39 41  1  6  0  0  0
 40 39  1  0  0  0  0
 41 42  1  0  0  0  0
M  END
>  <CHROM.1>
-63.05628052,-174.25900634,-104.80360427,139.57409278,-173.07270338,133.11409283
-55.67126569,-141.02136925,60.91244766,-1.89523236,12.87251460,36.68308188
2.29687803,-1.32140020,-2.64035330

>  <Name>
lig.pdb

>  <RI>
0

>  <Rbt.Current_Directory>
/home/itssahil/PROJECTS/Mol_Feturizer/New_Systems/rnas/4wcr

>  <Rbt.Executable>
rbdock ($Id: //depot/dev/client3/rdock/2013.1/src/exe/rbdock.cxx#4 $)

>  <Rbt.Library>
libRbt.so (2013.1, Build901 2013/11/27)

>  <Rbt.Parameter_File>
/export/apps/rDock/src/rDock_2013.1_src/data/scripts/dock_solv.prm

>  <Rbt.Receptor>
prm/pocket_docking_3.prm

>  <SCORE>
3.10575

>  <SCORE.INTER>
1.70742

>  <SCORE.INTER.CONST>
1

>  <SCORE.INTER.POLAR>
0

>  <SCORE.INTER.ROT>
9

>  <SCORE.INTER.SOLV>
15.9939

>  <SCORE.INTER.VDW>
-13.793

>  <SCORE.INTER.norm>
0.0406529

>  <SCORE.INTRA>
1.38316

>  <SCORE.INTRA.DIHEDRAL>
7.71854

>  <SCORE.INTRA.DIHEDRAL.0>
16.2863

>  <SCORE.INTRA.POLAR>
0

>  <SCORE.INTRA.POLAR.0>
0

>  <SCORE.INTRA.REPUL>
-0.216254

>  <SCORE.INTRA.REPUL.0>
0.314433

>  <SCORE.INTRA.SOLV>
-0.86509

>  <SCORE.INTRA.SOLV.lig_0>
-103.824

>  <SCORE.INTRA.VDW>
-0.962298

>  <SCORE.INTRA.VDW.0>
-5.30945

>  <SCORE.INTRA.norm>
0.0329323

>  <SCORE.RESTR>
0.0151713

>  <SCORE.RESTR.CAVITY>
0.0151713

>  <SCORE.RESTR.norm>
0.00036122

>  <SCORE.SYSTEM>
0

>  <SCORE.SYSTEM.CONST>
0

>  <SCORE.SYSTEM.DIHEDRAL>
0

>  <SCORE.SYSTEM.SOLV>
0

>  <SCORE.SYSTEM.norm>
0

>  <SCORE.heavy>
42

>  <SCORE.norm>
0.0739465

>  <RMSD>
9.284

$$$$
lig.pdb
 OpenBabel11021811513D
libRbt.so/2013.1/901 2013/11/27
 42 45  0  0  0  0  0  0  0  0999 V2000
   -4.0991    6.8647   36.9267 C   0  0  2  0  0  0  0  0  0  0  0  0
   -2.6785    7.2059   36.9786 O   0  0  0  0  0  0  0  0  0  0  0  0
   -4.3159    6.0767   35.5586 C   0  0  2  0  0  0  0  0  0  0  0  0
   -3.5289    4.8404   35.5532 N   0  0  0  0  0  0  0  0  0  0  0  0
   -3.9312    7.0462   34.3372 C   0  0  1  0  0  0  0  0  0  0  0  0
   -4.1201    6.3853   33.0683 O   0  0  0  0  0  0  0  0  0  0  0  0
   -4.8122    8.3014   34.4585 C   0  0  2  0  0  0  0  0  0  0  0  0
   -4.5050    9.1651   33.4176 O   0  0  0  0  0  0  0  0  0  0  0  0
   -4.5677    9.0028   35.8716 C   0  0  2  0  0  0  0  0  0  0  0  0
   -4.8827    8.1173   36.9533 O   0  0  0  0  0  0  0  0  0  0  0  0
   -5.4208   10.2268   36.0486 C   0  0  0  0  0  0  0  0  0  0  0  0
   -5.0506   10.8365   37.2858 O   0  0  0  0  0  0  0  0  0  0  0  0
   -2.4547    9.6462   40.6890 C   0  0  2  0  0  0  0  0  0  0  0  0
   -1.9351   10.2736   41.8845 N   0  0  0  0  0  0  0  0  0  0  0  0
   -2.2425    8.0845   40.7579 C   0  0  0  0  0  0  0  0  0  0  0  0
   -2.7945    7.3799   39.4690 C   0  0  2  0  0  0  0  0  0  0  0  0
   -2.5725    5.9389   39.5696 N   0  0  0  0  0  0  0  0  0  0  0  0
   -2.0988    7.9133   38.1387 C   0  0  2  0  0  0  0  0  0  0  0  0
   -2.3486    9.4475   38.0656 C   0  0  2  0  0  0  0  0  0  0  0  0
   -1.6715    9.8684   36.7822 O   0  0  0  0  0  0  0  0  0  0  0  0
   -1.7145   10.1796   39.3730 C   0  0  1  0  0  0  0  0  0  0  0  0
   -1.9375   11.6246   39.4405 O   0  0  0  0  0  0  0  0  0  0  0  0
   -1.6714   11.2312   36.6411 C   0  0  1  0  0  0  0  0  0  0  0  0
   -0.5627   11.7246   35.8175 C   0  0  2  0  0  0  0  0  0  0  0  0
    0.6011   11.6020   36.5707 O   0  0  0  0  0  0  0  0  0  0  0  0
   -1.0830   13.1231   35.4219 C   0  0  2  0  0  0  0  0  0  0  0  0
   -0.1410   14.0835   35.9510 O   0  0  0  0  0  0  0  0  0  0  0  0
   -2.4276   13.2275   36.0629 C   0  0  2  0  0  0  0  0  0  0  0  0
   -2.7866   11.8022   35.9771 O   0  0  0  0  0  0  0  0  0  0  0  0
   -3.4200   14.0932   35.2027 C   0  0  0  0  0  0  0  0  0  0  0  0
   -3.6799   13.5419   33.8769 O   0  0  0  0  0  0  0  0  0  0  0  0
   -0.4499   15.4950   35.7428 C   0  0  2  0  0  0  0  0  0  0  0  0
    0.7809   16.3784   36.3075 C   0  0  2  0  0  0  0  0  0  0  0  0
    0.9876   16.0647   37.7586 N   0  0  0  0  0  0  0  0  0  0  0  0
    0.4347   17.9302   36.0711 C   0  0  1  0  0  0  0  0  0  0  0  0
    0.2472   18.1191   34.6356 O   0  0  0  0  0  0  0  0  0  0  0  0
   -0.8888   18.3074   36.8776 C   0  0  2  0  0  0  0  0  0  0  0  0
   -0.6162   18.1043   38.3180 O   0  0  0  0  0  0  0  0  0  0  0  0
   -2.1031   17.3644   36.3315 C   0  0  1  0  0  0  0  0  0  0  0  0
   -1.7295   15.9124   36.4961 O   0  0  0  0  0  0  0  0  0  0  0  0
   -3.4164   17.6960   37.1150 C   0  0  0  0  0  0  0  0  0  0  0  0
   -3.3260   17.3572   38.5690 N   0  0  0  0  0  0  0  0  0  0  0  0
  1  3  1  0  0  0  0
  1  2  1  6  0  0  0
  3  4  1  1  0  0  0
  3  5  1  0  0  0  0
  5  6  1  6  0  0  0
  7  8  1  6  0  0  0
  7  5  1  0  0  0  0
  9 11  1  6  0  0  0
  9  7  1  0  0  0  0
 10  9  1  0  0  0  0
 10  1  1  0  0  0  0
 12 11  1  0  0  0  0
 13 14  1  1  0  0  0
 15 13  1  0  0  0  0
 16 17  1  1  0  0  0
 16 15  1  0  0  0  0
 18  2  1  6  0  0  0
 18 19  1  0  0  0  0
 18 16  1  0  0  0  0
 19 20  1  6  0  0  0
 19 21  1  0  0  0  0
 21 22  1  6  0  0  0
 21 13  1  0  0  0  0
 23 20  1  6  0  0  0
 23 29  1  0  0  0  0
 24 25  1  1  0  0  0
 24 26  1  0  0  0  0
 24 23  1  0  0  0  0
 26 27  1  1  0  0  0
 26 28  1  0  0  0  0
 28 30  1  6  0  0  0
 29 28  1  0  0  0  0
 30 31  1  0  0  0  0
 32 27  1  1  0  0  0
 32 40  1  0  0  0  0
 33 35  1  0  0  0  0
 33 32  1  0  0  0  0
 33 34  1  1  0  0  0
 35 36  1  6  0  0  0
 35 37  1  0  0  0  0
 37 38  1  1  0  0  0
 37 39  1  0  0  0  0
 39 41  1  1  0  0  0
 40 39  1  0  0  0  0
 41 42  1  0  0  0  0
M  END
>  <CHROM.1>
-178.11405678,-175.34932066,37.38478050,-173.22994477,153.49516253,-177.83687969
61.53652599,-175.66697062,-64.84166082,-2.36167541,11.62857922,36.78837765
2.29915344,1.15157761,2.43923800

>  <Name>
lig.pdb

>  <RI>
0

>  <Rbt.Current_Directory>
/home/itssahil/PROJECTS/Mol_Feturizer/New_Systems/rnas/4wcr

>  <Rbt.Executable>
rbdock ($Id: //depot/dev/client3/rdock/2013.1/src/exe/rbdock.cxx#4 $)

>  <Rbt.Library>
libRbt.so (2013.1, Build901 2013/11/27)

>  <Rbt.Parameter_File>
/export/apps/rDock/src/rDock_2013.1_src/data/scripts/dock_solv.prm

>  <Rbt.Receptor>
prm/pocket_docking_3.prm

>  <SCORE>
-8.11646

>  <SCORE.INTER>
-1.05692

>  <SCORE.INTER.CONST>
1

>  <SCORE.INTER.POLAR>
0

>  <SCORE.INTER.ROT>
9

>  <SCORE.INTER.SOLV>
15.2999

>  <SCORE.INTER.VDW>
-15.4046

>  <SCORE.INTER.norm>
-0.0251649

>  <SCORE.INTRA>
-7.06065

>  <SCORE.INTRA.DIHEDRAL>
-10.0547

>  <SCORE.INTRA.DIHEDRAL.0>
16.2863

>  <SCORE.INTRA.POLAR>
0

>  <SCORE.INTRA.POLAR.0>
0

>  <SCORE.INTRA.REPUL>
-0.314433

>  <SCORE.INTRA.REPUL.0>
0.314433

>  <SCORE.INTRA.SOLV>
-1.43904

>  <SCORE.INTRA.SOLV.lig_0>
-103.824

>  <SCORE.INTRA.VDW>
0.258401

>  <SCORE.INTRA.VDW.0>
-5.30945

>  <SCORE.INTRA.norm>
-0.168111

>  <SCORE.RESTR>
0.001112

>  <SCORE.RESTR.CAVITY>
0.001112

>  <SCORE.RESTR.norm>
2.64761e-05

>  <SCORE.SYSTEM>
0

>  <SCORE.SYSTEM.CONST>
0

>  <SCORE.SYSTEM.DIHEDRAL>
0

>  <SCORE.SYSTEM.SOLV>
0

>  <SCORE.SYSTEM.norm>
0

>  <SCORE.heavy>
42

>  <SCORE.norm>
-0.193249

>  <RMSD>
9.288

$$$$
lig.pdb
 OpenBabel11021811513D
libRbt.so/2013.1/901 2013/11/27
 42 45  0  0  0  0  0  0  0  0999 V2000
   -2.2408   17.7295   33.6656 C   0  0  2  0  0  0  0  0  0  0  0  0
   -3.1497   18.6269   34.3768 O   0  0  0  0  0  0  0  0  0  0  0  0
   -2.3802   16.3073   34.3712 C   0  0  2  0  0  0  0  0  0  0  0  0
   -3.7497   15.8038   34.2350 N   0  0  0  0  0  0  0  0  0  0  0  0
   -1.9351   16.4471   35.9081 C   0  0  1  0  0  0  0  0  0  0  0  0
   -2.0311   15.1817   36.5952 O   0  0  0  0  0  0  0  0  0  0  0  0
   -0.4951   16.9882   35.9168 C   0  0  2  0  0  0  0  0  0  0  0  0
   -0.0768   17.1239   37.2322 O   0  0  0  0  0  0  0  0  0  0  0  0
   -0.4359   18.3888   35.1529 C   0  0  2  0  0  0  0  0  0  0  0  0
   -0.8666   18.2580   33.7924 O   0  0  0  0  0  0  0  0  0  0  0  0
    0.9562   18.9526   35.1164 C   0  0  0  0  0  0  0  0  0  0  0  0
    0.8840   20.2432   34.5090 O   0  0  0  0  0  0  0  0  0  0  0  0
   -3.5682   22.8622   35.6650 C   0  0  2  0  0  0  0  0  0  0  0  0
   -3.2373   24.2330   35.9879 N   0  0  0  0  0  0  0  0  0  0  0  0
   -2.6552   21.8737   36.4885 C   0  0  0  0  0  0  0  0  0  0  0  0
   -2.9918   20.3783   36.1527 C   0  0  2  0  0  0  0  0  0  0  0  0
   -2.1213   19.4977   36.9290 N   0  0  0  0  0  0  0  0  0  0  0  0
   -2.8076   20.0457   34.6055 C   0  0  2  0  0  0  0  0  0  0  0  0
   -3.7416   21.0024   33.8093 C   0  0  2  0  0  0  0  0  0  0  0  0
   -3.5156   20.6178   32.3658 O   0  0  0  0  0  0  0  0  0  0  0  0
   -3.3429   22.5509   34.1105 C   0  0  1  0  0  0  0  0  0  0  0  0
   -4.1932   23.5460   33.4555 O   0  0  0  0  0  0  0  0  0  0  0  0
   -4.4571   19.7206   31.9346 C   0  0  1  0  0  0  0  0  0  0  0  0
   -4.6084   19.7015   30.4758 C   0  0  2  0  0  0  0  0  0  0  0  0
   -5.2666   20.8722   30.1109 O   0  0  0  0  0  0  0  0  0  0  0  0
   -5.2912   18.3333   30.2637 C   0  0  2  0  0  0  0  0  0  0  0  0
   -6.5736   18.5978   29.6512 O   0  0  0  0  0  0  0  0  0  0  0  0
   -5.4201   17.7526   31.6333 C   0  0  2  0  0  0  0  0  0  0  0  0
   -4.2033   18.3522   32.2058 O   0  0  0  0  0  0  0  0  0  0  0  0
   -5.3004   16.1842   31.6173 C   0  0  0  0  0  0  0  0  0  0  0  0
   -3.9233   15.7020   31.6299 O   0  0  0  0  0  0  0  0  0  0  0  0
   -6.7953   18.0453   28.3183 C   0  0  2  0  0  0  0  0  0  0  0  0
   -8.3646   18.1904   27.9571 C   0  0  2  0  0  0  0  0  0  0  0  0
   -9.1772   17.4767   28.9949 N   0  0  0  0  0  0  0  0  0  0  0  0
   -8.5993   17.5835   26.4872 C   0  0  1  0  0  0  0  0  0  0  0  0
   -7.7595   18.3426   25.5652 O   0  0  0  0  0  0  0  0  0  0  0  0
   -8.2057   16.0377   26.4824 C   0  0  2  0  0  0  0  0  0  0  0  0
   -9.1055   15.3372   27.4257 O   0  0  0  0  0  0  0  0  0  0  0  0
   -6.6350   15.9117   26.9054 C   0  0  1  0  0  0  0  0  0  0  0  0
   -6.4216   16.5501   28.2551 O   0  0  0  0  0  0  0  0  0  0  0  0
   -6.2182   14.4036   26.9281 C   0  0  0  0  0  0  0  0  0  0  0  0
   -6.9332   13.6198   27.9825 N   0  0  0  0  0  0  0  0  0  0  0  0
  1  3  1  0  0  0  0
  1  2  1  1  0  0  0
  3  4  1  1  0  0  0
  3  5  1  0  0  0  0
  5  6  1  6  0  0  0
  7  8  1  1  0  0  0
  7  5  1  0  0  0  0
  9 11  1  6  0  0  0
  9  7  1  0  0  0  0
 10  9  1  0  0  0  0
 10  1  1  0  0  0  0
 12 11  1  0  0  0  0
 13 14  1  6  0  0  0
 15 13  1  0  0  0  0
 16 17  1  1  0  0  0
 16 15  1  0  0  0  0
 18  2  1  1  0  0  0
 18 19  1  0  0  0  0
 18 16  1  0  0  0  0
 19 20  1  6  0  0  0
 19 21  1  0  0  0  0
 21 22  1  6  0  0  0
 21 13  1  0  0  0  0
 23 20  1  6  0  0  0
 23 29  1  0  0  0  0
 24 25  1  1  0  0  0
 24 26  1  0  0  0  0
 24 23  1  0  0  0  0
 26 27  1  1  0  0  0
 26 28  1  0  0  0  0
 28 30  1  6  0  0  0
 29 28  1  0  0  0  0
 30 31  1  0  0  0  0
 32 27  1  1  0  0  0
 32 40  1  0  0  0  0
 33 35  1  0  0  0  0
 33 32  1  0  0  0  0
 33 34  1  1  0  0  0
 35 36  1  6  0  0  0
 35 37  1  0  0  0  0
 37 38  1  1  0  0  0
 37 39  1  0  0  0  0
 39 41  1  1  0  0  0
 40 39  1  0  0  0  0
 41 42  1  0  0  0  0
M  END
>  <CHROM.1>
144.06777603,-175.58648420,-128.58399213,95.23847822,158.16622222,117.74868457
83.63988800,168.43143157,-65.02117320,-4.20005284,18.40530446,32.16463298
-0.46423391,0.88208006,-2.91600664

>  <Name>
lig.pdb

>  <RI>
0

>  <Rbt.Current_Directory>
/home/itssahil/PROJECTS/Mol_Feturizer/New_Systems/rnas/4wcr

>  <Rbt.Executable>
rbdock ($Id: //depot/dev/client3/rdock/2013.1/src/exe/rbdock.cxx#4 $)

>  <Rbt.Library>
libRbt.so (2013.1, Build901 2013/11/27)

>  <Rbt.Parameter_File>
/export/apps/rDock/src/rDock_2013.1_src/data/scripts/dock_solv.prm

>  <Rbt.Receptor>
prm/blind_docking_100.prm

>  <SCORE>
20.9507

>  <SCORE.INTER>
8.81515

>  <SCORE.INTER.CONST>
1

>  <SCORE.INTER.POLAR>
0

>  <SCORE.INTER.ROT>
9

>  <SCORE.INTER.SOLV>
34.0783

>  <SCORE.INTER.VDW>
-15.0827

>  <SCORE.INTER.norm>
0.209885

>  <SCORE.INTRA>
8.96075

>  <SCORE.INTRA.DIHEDRAL>
11.6803

>  <SCORE.INTRA.DIHEDRAL.0>
16.2863

>  <SCORE.INTRA.POLAR>
0

>  <SCORE.INTRA.POLAR.0>
0

>  <SCORE.INTRA.REPUL>
-0.314433

>  <SCORE.INTRA.REPUL.0>
0.314433

>  <SCORE.INTRA.SOLV>
4.79161

>  <SCORE.INTRA.SOLV.lig_0>
-103.824

>  <SCORE.INTRA.VDW>
2.29698

>  <SCORE.INTRA.VDW.0>
-5.30945

>  <SCORE.INTRA.norm>
0.213351

>  <SCORE.RESTR>
3.17477

>  <SCORE.RESTR.CAVITY>
3.17477

>  <SCORE.RESTR.norm>
0.0755897

>  <SCORE.SYSTEM>
0

>  <SCORE.SYSTEM.CONST>
0

>  <SCORE.SYSTEM.DIHEDRAL>
0

>  <SCORE.SYSTEM.SOLV>
0

>  <SCORE.SYSTEM.norm>
0

>  <SCORE.heavy>
42

>  <SCORE.norm>
0.498826

>  <RMSD>
9.304

$$$$
lig.pdb
 OpenBabel11021811513D
libRbt.so/2013.1/901 2013/11/27
 42 45  0  0  0  0  0  0  0  0999 V2000
   -1.4719    9.3704   33.0719 C   0  0  2  0  0  0  0  0  0  0  0  0
   -2.0653    8.2209   33.7528 O   0  0  0  0  0  0  0  0  0  0  0  0
   -1.9003    9.2486   31.5416 C   0  0  2  0  0  0  0  0  0  0  0  0
   -3.3585    9.3205   31.4142 N   0  0  0  0  0  0  0  0  0  0  0  0
   -1.3058    7.8807   30.9458 C   0  0  1  0  0  0  0  0  0  0  0  0
   -1.6550    7.7236   29.5544 O   0  0  0  0  0  0  0  0  0  0  0  0
    0.2189    7.9227   31.1456 C   0  0  2  0  0  0  0  0  0  0  0  0
    0.7677    6.7524   30.6427 O   0  0  0  0  0  0  0  0  0  0  0  0
    0.5596    8.0912   32.6961 C   0  0  2  0  0  0  0  0  0  0  0  0
   -0.0038    9.2983   33.2244 O   0  0  0  0  0  0  0  0  0  0  0  0
    2.0399    8.1569   32.9441 C   0  0  0  0  0  0  0  0  0  0  0  0
    2.2365    8.2982   34.3516 O   0  0  0  0  0  0  0  0  0  0  0  0
   -3.2345    7.2740   37.9371 C   0  0  2  0  0  0  0  0  0  0  0  0
   -3.1438    7.0129   39.3572 N   0  0  0  0  0  0  0  0  0  0  0  0
   -2.2860    6.2954   37.1424 C   0  0  0  0  0  0  0  0  0  0  0  0
   -2.3628    6.5615   35.5978 C   0  0  2  0  0  0  0  0  0  0  0  0
   -1.4665    5.6415   34.9007 N   0  0  0  0  0  0  0  0  0  0  0  0
   -1.9601    8.0552   35.2169 C   0  0  2  0  0  0  0  0  0  0  0  0
   -2.9276    9.0068   35.9786 C   0  0  2  0  0  0  0  0  0  0  0  0
   -2.4880   10.3897   35.5580 O   0  0  0  0  0  0  0  0  0  0  0  0
   -2.7937    8.7722   37.5831 C   0  0  1  0  0  0  0  0  0  0  0  0
   -3.7003    9.5775   38.4026 O   0  0  0  0  0  0  0  0  0  0  0  0
   -3.3107   11.3548   36.0768 C   0  0  1  0  0  0  0  0  0  0  0  0
   -3.0479   12.6900   35.5298 C   0  0  2  0  0  0  0  0  0  0  0  0
   -1.8485   13.1349   36.0778 O   0  0  0  0  0  0  0  0  0  0  0  0
   -4.3677   13.4166   35.8670 C   0  0  2  0  0  0  0  0  0  0  0  0
   -4.0265   14.5175   36.7395 O   0  0  0  0  0  0  0  0  0  0  0  0
   -5.2092   12.3873   36.5467 C   0  0  2  0  0  0  0  0  0  0  0  0
   -4.6976   11.2156   35.8165 O   0  0  0  0  0  0  0  0  0  0  0  0
   -6.7397   12.5920   36.2468 C   0  0  0  0  0  0  0  0  0  0  0  0
   -7.6046   11.6461   36.9443 O   0  0  0  0  0  0  0  0  0  0  0  0
   -5.1328   15.3161   37.2583 C   0  0  2  0  0  0  0  0  0  0  0  0
   -4.5269   16.6533   37.9359 C   0  0  2  0  0  0  0  0  0  0  0  0
   -3.5676   16.2650   39.0201 N   0  0  0  0  0  0  0  0  0  0  0  0
   -5.7512   17.5283   38.5010 C   0  0  1  0  0  0  0  0  0  0  0  0
   -6.6196   17.8409   37.3698 O   0  0  0  0  0  0  0  0  0  0  0  0
   -6.5332   16.6917   39.6113 C   0  0  2  0  0  0  0  0  0  0  0  0
   -5.5952   16.4275   40.7251 O   0  0  0  0  0  0  0  0  0  0  0  0
   -7.0856   15.3211   38.9199 C   0  0  1  0  0  0  0  0  0  0  0  0
   -5.9304   14.5492   38.3330 O   0  0  0  0  0  0  0  0  0  0  0  0
   -7.8450   14.4653   39.9875 C   0  0  0  0  0  0  0  0  0  0  0  0
   -9.0937   15.1258   40.4792 N   0  0  0  0  0  0  0  0  0  0  0  0
  1  3  1  0  0  0  0
  1  2  1  1  0  0  0
  3  4  1  1  0  0  0
  3  5  1  0  0  0  0
  5  6  1  6  0  0  0
  7  8  1  1  0  0  0
  7  5  1  0  0  0  0
  9 11  1  6  0  0  0
  9  7  1  0  0  0  0
 10  9  1  0  0  0  0
 10  1  1  0  0  0  0
 12 11  1  0  0  0  0
 13 14  1  1  0  0  0
 15 13  1  0  0  0  0
 16 17  1  6  0  0  0
 16 15  1  0  0  0  0
 18  2  1  6  0  0  0
 18 19  1  0  0  0  0
 18 16  1  0  0  0  0
 19 20  1  1  0  0  0
 19 21  1  0  0  0  0
 21 22  1  1  0  0  0
 21 13  1  0  0  0  0
 23 20  1  6  0  0  0
 23 29  1  0  0  0  0
 24 25  1  1  0  0  0
 24 26  1  0  0  0  0
 24 23  1  0  0  0  0
 26 27  1  1  0  0  0
 26 28  1  0  0  0  0
 28 30  1  6  0  0  0
 29 28  1  0  0  0  0
 30 31  1  0  0  0  0
 32 27  1  1  0  0  0
 32 40  1  0  0  0  0
 33 35  1  0  0  0  0
 33 32  1  0  0  0  0
 33 34  1  1  0  0  0
 35 36  1  6  0  0  0
 35 37  1  0  0  0  0
 37 38  1  1  0  0  0
 37 39  1  0  0  0  0
 39 41  1  1  0  0  0
 40 39  1  0  0  0  0
 41 42  1  0  0  0  0
M  END
>  <CHROM.1>
-175.47255422,-179.63628853,-165.63829440,175.75789324,-171.11236133,-176.66653785
-177.19313828,-168.12646867,65.69899237,-3.34346483,11.15194985,35.86987991
-0.40736987,0.99681768,-0.45890948

>  <Name>
lig.pdb

>  <RI>
0

>  <Rbt.Current_Directory>
/home/itssahil/PROJECTS/Mol_Feturizer/New_Systems/rnas/4wcr

>  <Rbt.Executable>
rbdock ($Id: //depot/dev/client3/rdock/2013.1/src/exe/rbdock.cxx#4 $)

>  <Rbt.Library>
libRbt.so (2013.1, Build901 2013/11/27)

>  <Rbt.Parameter_File>
/export/apps/rDock/src/rDock_2013.1_src/data/scripts/dock_solv.prm

>  <Rbt.Receptor>
prm/pocket_docking_8.prm

>  <SCORE>
-8.46871

>  <SCORE.INTER>
1.29148

>  <SCORE.INTER.CONST>
1

>  <SCORE.INTER.POLAR>
0

>  <SCORE.INTER.ROT>
9

>  <SCORE.INTER.SOLV>
16.6208

>  <SCORE.INTER.VDW>
-14.2793

>  <SCORE.INTER.norm>
0.0307495

>  <SCORE.INTRA>
-9.76019

>  <SCORE.INTRA.DIHEDRAL>
-13.344

>  <SCORE.INTRA.DIHEDRAL.0>
16.2863

>  <SCORE.INTRA.POLAR>
0

>  <SCORE.INTRA.POLAR.0>
0

>  <SCORE.INTRA.REPUL>
-0.314433

>  <SCORE.INTRA.REPUL.0>
0.314433

>  <SCORE.INTRA.SOLV>
-5.53185

>  <SCORE.INTRA.SOLV.lig_0>
-103.824

>  <SCORE.INTRA.VDW>
1.24992

>  <SCORE.INTRA.VDW.0>
-5.30945

>  <SCORE.INTRA.norm>
-0.232385

>  <SCORE.RESTR>
0

>  <SCORE.RESTR.CAVITY>
0

>  <SCORE.RESTR.norm>
0

>  <SCORE.SYSTEM>
0

>  <SCORE.SYSTEM.CONST>
0

>  <SCORE.SYSTEM.DIHEDRAL>
0

>  <SCORE.SYSTEM.SOLV>
0

>  <SCORE.SYSTEM.norm>
0

>  <SCORE.heavy>
42

>  <SCORE.norm>
-0.201636

>  <RMSD>
9.304

$$$$
lig.pdb
 OpenBabel11021811513D
libRbt.so/2013.1/901 2013/11/27
 42 45  0  0  0  0  0  0  0  0999 V2000
   -4.1439    6.8622   36.8365 C   0  0  2  0  0  0  0  0  0  0  0  0
   -2.7196    7.1702   36.9535 O   0  0  0  0  0  0  0  0  0  0  0  0
   -4.2881    5.9083   35.5680 C   0  0  2  0  0  0  0  0  0  0  0  0
   -3.5474    4.6619   35.7816 N   0  0  0  0  0  0  0  0  0  0  0  0
   -3.7810    6.7000   34.2657 C   0  0  1  0  0  0  0  0  0  0  0  0
   -3.9003    5.8843   33.0812 O   0  0  0  0  0  0  0  0  0  0  0  0
   -4.6232    7.9827   34.1571 C   0  0  2  0  0  0  0  0  0  0  0  0
   -4.2103    8.6950   33.0409 O   0  0  0  0  0  0  0  0  0  0  0  0
   -4.4577    8.8558   35.4833 C   0  0  2  0  0  0  0  0  0  0  0  0
   -4.8822    8.1274   36.6421 O   0  0  0  0  0  0  0  0  0  0  0  0
   -5.2773   10.1140   35.4358 C   0  0  0  0  0  0  0  0  0  0  0  0
   -5.1331   10.7716   36.6954 O   0  0  0  0  0  0  0  0  0  0  0  0
   -2.6324    9.6231   40.6613 C   0  0  2  0  0  0  0  0  0  0  0  0
   -2.1541   10.2627   41.8677 N   0  0  0  0  0  0  0  0  0  0  0  0
   -2.3940    8.0656   40.7400 C   0  0  0  0  0  0  0  0  0  0  0  0
   -2.9009    7.3481   39.4398 C   0  0  2  0  0  0  0  0  0  0  0  0
   -2.6556    5.9116   39.5499 N   0  0  0  0  0  0  0  0  0  0  0  0
   -2.1818    7.8907   38.1256 C   0  0  2  0  0  0  0  0  0  0  0  0
   -2.4572    9.4200   38.0420 C   0  0  2  0  0  0  0  0  0  0  0  0
   -1.7559    9.8500   36.7747 O   0  0  0  0  0  0  0  0  0  0  0  0
   -1.8692   10.1666   39.3627 C   0  0  1  0  0  0  0  0  0  0  0  0
   -2.1197   11.6075   39.4205 O   0  0  0  0  0  0  0  0  0  0  0  0
   -1.6828   11.2151   36.6827 C   0  0  1  0  0  0  0  0  0  0  0  0
   -0.5430   11.6779   35.8841 C   0  0  2  0  0  0  0  0  0  0  0  0
    0.6066   11.4671   36.6395 O   0  0  0  0  0  0  0  0  0  0  0  0
   -0.9857   13.1153   35.5359 C   0  0  2  0  0  0  0  0  0  0  0  0
    0.0014   14.0050   36.1049 O   0  0  0  0  0  0  0  0  0  0  0  0
   -2.3279   13.2679   36.1721 C   0  0  2  0  0  0  0  0  0  0  0  0
   -2.7610   11.8676   36.0329 O   0  0  0  0  0  0  0  0  0  0  0  0
   -3.2664   14.2152   35.3376 C   0  0  0  0  0  0  0  0  0  0  0  0
   -3.5156   13.7440   33.9793 O   0  0  0  0  0  0  0  0  0  0  0  0
   -0.2481   15.4374   35.9755 C   0  0  2  0  0  0  0  0  0  0  0  0
    1.0408   16.2357   36.5374 C   0  0  2  0  0  0  0  0  0  0  0  0
    1.2812   15.8418   37.9635 N   0  0  0  0  0  0  0  0  0  0  0  0
    0.7596   17.8113   36.3879 C   0  0  1  0  0  0  0  0  0  0  0  0
    0.5330   18.0790   34.9706 O   0  0  0  0  0  0  0  0  0  0  0  0
   -0.5171   18.2073   37.2583 C   0  0  2  0  0  0  0  0  0  0  0  0
   -0.2060   17.9213   38.6766 O   0  0  0  0  0  0  0  0  0  0  0  0
   -1.7917   17.3479   36.7116 C   0  0  1  0  0  0  0  0  0  0  0  0
   -1.4808   15.8743   36.7933 O   0  0  0  0  0  0  0  0  0  0  0  0
   -3.0611   17.6992   37.5565 C   0  0  0  0  0  0  0  0  0  0  0  0
   -2.9465   17.2660   38.9835 N   0  0  0  0  0  0  0  0  0  0  0  0
  1  3  1  0  0  0  0
  1  2  1  6  0  0  0
  3  4  1  1  0  0  0
  3  5  1  0  0  0  0
  5  6  1  6  0  0  0
  7  8  1  6  0  0  0
  7  5  1  0  0  0  0
  9 11  1  6  0  0  0
  9  7  1  0  0  0  0
 10  9  1  0  0  0  0
 10  1  1  0  0  0  0
 12 11  1  0  0  0  0
 13 14  1  1  0  0  0
 15 13  1  0  0  0  0
 16 17  1  1  0  0  0
 16 15  1  0  0  0  0
 18  2  1  6  0  0  0
 18 19  1  0  0  0  0
 18 16  1  0  0  0  0
 19 20  1  6  0  0  0
 19 21  1  0  0  0  0
 21 22  1  6  0  0  0
 21 13  1  0  0  0  0
 23 20  1  6  0  0  0
 23 29  1  0  0  0  0
 24 25  1  1  0  0  0
 24 26  1  0  0  0  0
 24 23  1  0  0  0  0
 26 27  1  1  0  0  0
 26 28  1  0  0  0  0
 28 30  1  6  0  0  0
 29 28  1  0  0  0  0
 30 31  1  0  0  0  0
 32 27  1  1  0  0  0
 32 40  1  0  0  0  0
 33 35  1  0  0  0  0
 33 32  1  0  0  0  0
 33 34  1  1  0  0  0
 35 36  1  6  0  0  0
 35 37  1  0  0  0  0
 37 38  1  1  0  0  0
 37 39  1  0  0  0  0
 39 41  1  1  0  0  0
 40 39  1  0  0  0  0
 41 42  1  0  0  0  0
M  END
>  <CHROM.1>
-171.83237403,176.06799275,40.47398359,-168.38294607,153.15634413,-176.32337356
59.98885470,-174.20868611,-65.74930605,-2.27178474,11.54691625,36.82773544
-2.48444813,-1.18538478,-0.83532114

>  <Name>
lig.pdb

>  <RI>
0

>  <Rbt.Current_Directory>
/home/itssahil/PROJECTS/Mol_Feturizer/New_Systems/rnas/4wcr

>  <Rbt.Executable>
rbdock ($Id: //depot/dev/client3/rdock/2013.1/src/exe/rbdock.cxx#4 $)

>  <Rbt.Library>
libRbt.so (2013.1, Build901 2013/11/27)

>  <Rbt.Parameter_File>
/export/apps/rDock/src/rDock_2013.1_src/data/scripts/dock_solv.prm

>  <Rbt.Receptor>
prm/pocket_docking_3.prm

>  <SCORE>
-8.06841

>  <SCORE.INTER>
-1.59877

>  <SCORE.INTER.CONST>
1

>  <SCORE.INTER.POLAR>
0

>  <SCORE.INTER.ROT>
9

>  <SCORE.INTER.SOLV>
16.2186

>  <SCORE.INTER.VDW>
-16.0721

>  <SCORE.INTER.norm>
-0.0380658

>  <SCORE.INTRA>
-6.47626

>  <SCORE.INTRA.DIHEDRAL>
-9.66274

>  <SCORE.INTRA.DIHEDRAL.0>
16.2863

>  <SCORE.INTRA.POLAR>
0

>  <SCORE.INTRA.POLAR.0>
0

>  <SCORE.INTRA.REPUL>
-0.314433

>  <SCORE.INTRA.REPUL.0>
0.314433

>  <SCORE.INTRA.SOLV>
-1.4356

>  <SCORE.INTRA.SOLV.lig_0>
-103.824

>  <SCORE.INTRA.VDW>
0.645073

>  <SCORE.INTRA.VDW.0>
-5.30945

>  <SCORE.INTRA.norm>
-0.154197

>  <SCORE.RESTR>
0.00661442

>  <SCORE.RESTR.CAVITY>
0.00661442

>  <SCORE.RESTR.norm>
0.000157486

>  <SCORE.SYSTEM>
0

>  <SCORE.SYSTEM.CONST>
0

>  <SCORE.SYSTEM.DIHEDRAL>
0

>  <SCORE.SYSTEM.SOLV>
0

>  <SCORE.SYSTEM.norm>
0

>  <SCORE.heavy>
42

>  <SCORE.norm>
-0.192105

>  <RMSD>
9.314

$$$$
lig.pdb
 OpenBabel11021811513D
libRbt.so/2013.1/901 2013/11/27
 42 45  0  0  0  0  0  0  0  0999 V2000
   -4.1186    7.0936   36.9380 C   0  0  2  0  0  0  0  0  0  0  0  0
   -2.6753    7.2962   37.0517 O   0  0  0  0  0  0  0  0  0  0  0  0
   -4.3379    6.1821   35.6492 C   0  0  2  0  0  0  0  0  0  0  0  0
   -3.6873    4.8813   35.8293 N   0  0  0  0  0  0  0  0  0  0  0  0
   -3.7826    6.9653   34.3617 C   0  0  1  0  0  0  0  0  0  0  0  0
   -3.9665    6.1879   33.1598 O   0  0  0  0  0  0  0  0  0  0  0  0
   -4.5312    8.3072   34.2881 C   0  0  2  0  0  0  0  0  0  0  0  0
   -4.0744    9.0137   33.1855 O   0  0  0  0  0  0  0  0  0  0  0  0
   -4.2962    9.1353   35.6325 C   0  0  2  0  0  0  0  0  0  0  0  0
   -4.7654    8.4126   36.7776 O   0  0  0  0  0  0  0  0  0  0  0  0
   -5.0237   10.4498   35.6195 C   0  0  0  0  0  0  0  0  0  0  0  0
   -4.4591   11.2459   34.5769 O   0  0  0  0  0  0  0  0  0  0  0  0
   -2.3956    9.5976   40.8462 C   0  0  2  0  0  0  0  0  0  0  0  0
   -1.8634   10.1656   42.0656 N   0  0  0  0  0  0  0  0  0  0  0  0
   -2.2350    8.0282   40.8617 C   0  0  0  0  0  0  0  0  0  0  0  0
   -2.8015    7.3874   39.5461 C   0  0  2  0  0  0  0  0  0  0  0  0
   -2.6274    5.9373   39.5974 N   0  0  0  0  0  0  0  0  0  0  0  0
   -2.0802    7.9434   38.2388 C   0  0  2  0  0  0  0  0  0  0  0  0
   -2.2792    9.4867   38.2180 C   0  0  2  0  0  0  0  0  0  0  0  0
   -1.5804    9.9293   36.9537 O   0  0  0  0  0  0  0  0  0  0  0  0
   -1.6298   10.1516   39.5535 C   0  0  1  0  0  0  0  0  0  0  0  0
   -1.8059   11.5999   39.6702 O   0  0  0  0  0  0  0  0  0  0  0  0
   -1.4080   11.2883   36.9279 C   0  0  1  0  0  0  0  0  0  0  0  0
   -0.0831   11.6913   36.4449 C   0  0  2  0  0  0  0  0  0  0  0  0
    0.8336   11.3930   37.4486 O   0  0  0  0  0  0  0  0  0  0  0  0
   -0.3433   13.1604   36.0482 C   0  0  2  0  0  0  0  0  0  0  0  0
    0.5253   13.9740   36.8687 O   0  0  0  0  0  0  0  0  0  0  0  0
   -1.7889   13.3875   36.3453 C   0  0  2  0  0  0  0  0  0  0  0  0
   -2.2556   12.0208   36.0587 O   0  0  0  0  0  0  0  0  0  0  0  0
   -2.4392   14.4084   35.3407 C   0  0  0  0  0  0  0  0  0  0  0  0
   -3.8441   14.6884   35.6178 O   0  0  0  0  0  0  0  0  0  0  0  0
    0.4360   15.4203   36.6923 C   0  0  2  0  0  0  0  0  0  0  0  0
    1.7378   16.1010   37.3678 C   0  0  2  0  0  0  0  0  0  0  0  0
    1.7961   15.7221   38.8168 N   0  0  0  0  0  0  0  0  0  0  0  0
    1.6335   17.6924   37.1660 C   0  0  1  0  0  0  0  0  0  0  0  0
    1.5753   17.9446   35.7291 O   0  0  0  0  0  0  0  0  0  0  0  0
    0.3244   18.2354   37.8979 C   0  0  2  0  0  0  0  0  0  0  0  0
    0.4644   17.9566   39.3445 O   0  0  0  0  0  0  0  0  0  0  0  0
   -0.9709   17.4928   37.2400 C   0  0  1  0  0  0  0  0  0  0  0  0
   -0.8203   15.9982   37.3756 O   0  0  0  0  0  0  0  0  0  0  0  0
   -2.2749   17.9899   37.9478 C   0  0  0  0  0  0  0  0  0  0  0  0
   -3.5116   17.3496   37.4020 N   0  0  0  0  0  0  0  0  0  0  0  0
  1  3  1  0  0  0  0
  1  2  1  6  0  0  0
  3  4  1  1  0  0  0
  3  5  1  0  0  0  0
  5  6  1  6  0  0  0
  7  8  1  6  0  0  0
  7  5  1  0  0  0  0
  9 11  1  6  0  0  0
  9  7  1  0  0  0  0
 10  9  1  0  0  0  0
 10  1  1  0  0  0  0
 12 11  1  0  0  0  0
 13 14  1  1  0  0  0
 15 13  1  0  0  0  0
 16 17  1  1  0  0  0
 16 15  1  0  0  0  0
 18  2  1  6  0  0  0
 18 19  1  0  0  0  0
 18 16  1  0  0  0  0
 19 20  1  6  0  0  0
 19 21  1  0  0  0  0
 21 22  1  6  0  0  0
 21 13  1  0  0  0  0
 23 20  1  6  0  0  0
 23 29  1  0  0  0  0
 24 25  1  1  0  0  0
 24 26  1  0  0  0  0
 24 23  1  0  0  0  0
 26 27  1  1  0  0  0
 26 28  1  0  0  0  0
 28 30  1  6  0  0  0
 29 28  1  0  0  0  0
 30 31  1  0  0  0  0
 32 27  1  1  0  0  0
 32 40  1  0  0  0  0
 33 35  1  0  0  0  0
 33 32  1  0  0  0  0
 33 34  1  1  0  0  0
 35 36  1  6  0  0  0
 35 37  1  0  0  0  0
 37 38  1  1  0  0  0
 37 39  1  0  0  0  0
 39 41  1  1  0  0  0
 40 39  1  0  0  0  0
 41 42  1  0  0  0  0
M  END
>  <CHROM.1>
-171.54302341,-64.45337458,41.97517626,-166.76220519,137.43729805,-178.68760756
-178.38462932,-164.32644142,-179.81100716,-1.94478816,11.67331674,37.07901625
-2.36121058,-1.05071780,-0.62569271

>  <Name>
lig.pdb

>  <RI>
0

>  <Rbt.Current_Directory>
/home/itssahil/PROJECTS/Mol_Feturizer/New_Systems/rnas/4wcr

>  <Rbt.Executable>
rbdock ($Id: //depot/dev/client3/rdock/2013.1/src/exe/rbdock.cxx#4 $)

>  <Rbt.Library>
libRbt.so (2013.1, Build901 2013/11/27)

>  <Rbt.Parameter_File>
/export/apps/rDock/src/rDock_2013.1_src/data/scripts/dock_solv.prm

>  <Rbt.Receptor>
prm/pocket_docking_3.prm

>  <SCORE>
-7.86931

>  <SCORE.INTER>
-2.65583

>  <SCORE.INTER.CONST>
1

>  <SCORE.INTER.POLAR>
0

>  <SCORE.INTER.ROT>
9

>  <SCORE.INTER.SOLV>
18.893

>  <SCORE.INTER.VDW>
-17.6682

>  <SCORE.INTER.norm>
-0.0632339

>  <SCORE.INTRA>
-5.21348

>  <SCORE.INTRA.DIHEDRAL>
-6.10005

>  <SCORE.INTRA.DIHEDRAL.0>
16.2863

>  <SCORE.INTRA.POLAR>
0

>  <SCORE.INTRA.POLAR.0>
0

>  <SCORE.INTRA.REPUL>
-0.314433

>  <SCORE.INTRA.REPUL.0>
0.314433

>  <SCORE.INTRA.SOLV>
-1.68122

>  <SCORE.INTRA.SOLV.lig_0>
-103.824

>  <SCORE.INTRA.VDW>
0.249318

>  <SCORE.INTRA.VDW.0>
-5.30945

>  <SCORE.INTRA.norm>
-0.12413

>  <SCORE.RESTR>
0

>  <SCORE.RESTR.CAVITY>
0

>  <SCORE.RESTR.norm>
0

>  <SCORE.SYSTEM>
0

>  <SCORE.SYSTEM.CONST>
0

>  <SCORE.SYSTEM.DIHEDRAL>
0

>  <SCORE.SYSTEM.SOLV>
0

>  <SCORE.SYSTEM.norm>
0

>  <SCORE.heavy>
42

>  <SCORE.norm>
-0.187364

>  <RMSD>
9.317

$$$$
lig.pdb
 OpenBabel11021811513D
libRbt.so/2013.1/901 2013/11/27
 42 45  0  0  0  0  0  0  0  0999 V2000
   -3.8152   11.0550   36.7879 C   0  0  2  0  0  0  0  0  0  0  0  0
   -3.2924    9.8494   37.4285 O   0  0  0  0  0  0  0  0  0  0  0  0
   -4.9249   11.6350   37.7739 C   0  0  2  0  0  0  0  0  0  0  0  0
   -4.3225   12.0015   39.0587 N   0  0  0  0  0  0  0  0  0  0  0  0
   -6.0906   10.5426   37.9399 C   0  0  1  0  0  0  0  0  0  0  0  0
   -7.1318   11.0213   38.8171 O   0  0  0  0  0  0  0  0  0  0  0  0
   -6.6316   10.2378   36.5325 C   0  0  2  0  0  0  0  0  0  0  0  0
   -7.6421    9.2936   36.6371 O   0  0  0  0  0  0  0  0  0  0  0  0
   -5.4504    9.7068   35.5991 C   0  0  2  0  0  0  0  0  0  0  0  0
   -4.4013   10.6765   35.4852 O   0  0  0  0  0  0  0  0  0  0  0  0
   -5.9235    9.4117   34.2040 C   0  0  0  0  0  0  0  0  0  0  0  0
   -6.4016   10.6345   33.6420 O   0  0  0  0  0  0  0  0  0  0  0  0
    0.4176    7.4123   37.1665 C   0  0  2  0  0  0  0  0  0  0  0  0
    1.4741    6.5820   36.6302 N   0  0  0  0  0  0  0  0  0  0  0  0
   -0.9865    6.7421   36.9056 C   0  0  0  0  0  0  0  0  0  0  0  0
   -2.1512    7.6264   37.4747 C   0  0  2  0  0  0  0  0  0  0  0  0
   -3.4318    6.9751   37.2067 N   0  0  0  0  0  0  0  0  0  0  0  0
   -2.1755    9.0856   36.8356 C   0  0  2  0  0  0  0  0  0  0  0  0
   -0.7988    9.7472   37.1334 C   0  0  2  0  0  0  0  0  0  0  0  0
   -0.9082   11.1182   36.5081 O   0  0  0  0  0  0  0  0  0  0  0  0
    0.3997    8.8600   36.4824 C   0  0  1  0  0  0  0  0  0  0  0  0
    1.7503    9.3585   36.7465 O   0  0  0  0  0  0  0  0  0  0  0  0
    0.0167   11.9820   37.0332 C   0  0  1  0  0  0  0  0  0  0  0  0
   -0.2169   13.3782   36.6498 C   0  0  2  0  0  0  0  0  0  0  0  0
    0.1312   13.5047   35.3083 O   0  0  0  0  0  0  0  0  0  0  0  0
    0.5927   14.1251   37.7315 C   0  0  2  0  0  0  0  0  0  0  0  0
    1.6129   14.8814   37.0409 O   0  0  0  0  0  0  0  0  0  0  0  0
    1.1639   13.0486   38.5943 C   0  0  2  0  0  0  0  0  0  0  0  0
    0.0603   12.0853   38.4467 O   0  0  0  0  0  0  0  0  0  0  0  0
    1.2917   13.5069   40.0937 C   0  0  0  0  0  0  0  0  0  0  0  0
    0.0080   13.6621   40.7699 O   0  0  0  0  0  0  0  0  0  0  0  0
    1.2146   16.1692   36.4808 C   0  0  2  0  0  0  0  0  0  0  0  0
    1.2539   17.2756   37.6592 C   0  0  2  0  0  0  0  0  0  0  0  0
    0.3405   16.8473   38.7679 N   0  0  0  0  0  0  0  0  0  0  0  0
    0.8179   18.6907   37.0336 C   0  0  1  0  0  0  0  0  0  0  0  0
    1.7640   19.0032   35.9665 O   0  0  0  0  0  0  0  0  0  0  0  0
   -0.6703   18.5853   36.4691 C   0  0  2  0  0  0  0  0  0  0  0  0
   -1.5669   18.2819   37.6067 O   0  0  0  0  0  0  0  0  0  0  0  0
   -0.6983   17.4242   35.3232 C   0  0  1  0  0  0  0  0  0  0  0  0
   -0.2181   16.1211   35.9114 O   0  0  0  0  0  0  0  0  0  0  0  0
   -2.1505   17.2812   34.7583 C   0  0  0  0  0  0  0  0  0  0  0  0
   -2.2701   16.1995   33.7322 N   0  0  0  0  0  0  0  0  0  0  0  0
  1  3  1  0  0  0  0
  1  2  1  1  0  0  0
  3  4  1  1  0  0  0
  3  5  1  0  0  0  0
  5  6  1  1  0  0  0
  7  8  1  1  0  0  0
  7  5  1  0  0  0  0
  9 11  1  6  0  0  0
  9  7  1  0  0  0  0
 10  9  1  0  0  0  0
 10  1  1  0  0  0  0
 12 11  1  0  0  0  0
 13 14  1  6  0  0  0
 15 13  1  0  0  0  0
 16 17  1  6  0  0  0
 16 15  1  0  0  0  0
 18  2  1  1  0  0  0
 18 19  1  0  0  0  0
 18 16  1  0  0  0  0
 19 20  1  6  0  0  0
 19 21  1  0  0  0  0
 21 22  1  1  0  0  0
 21 13  1  0  0  0  0
 23 20  1  1  0  0  0
 23 29  1  0  0  0  0
 24 25  1  6  0  0  0
 24 26  1  0  0  0  0
 24 23  1  0  0  0  0
 26 27  1  6  0  0  0
 26 28  1  0  0  0  0
 28 30  1  1  0  0  0
 29 28  1  0  0  0  0
 30 31  1  0  0  0  0
 32 27  1  1  0  0  0
 32 40  1  0  0  0  0
 33 35  1  0  0  0  0
 33 32  1  0  0  0  0
 33 34  1  1  0  0  0
 35 36  1  6  0  0  0
 35 37  1  0  0  0  0
 37 38  1  1  0  0  0
 37 39  1  0  0  0  0
 39 41  1  1  0  0  0
 40 39  1  0  0  0  0
 41 42  1  0  0  0  0
M  END
>  <CHROM.1>
-176.08461676,61.90949047,-161.93215830,160.23275509,-168.92917715,82.22066958
69.72457560,82.07597146,-177.99636310,-1.68195011,12.43730027,36.90977262
2.08421804,0.20696233,3.05374507

>  <Name>
lig.pdb

>  <RI>
0

>  <Rbt.Current_Directory>
/home/itssahil/PROJECTS/Mol_Feturizer/New_Systems/rnas/4wcr

>  <Rbt.Executable>
rbdock ($Id: //depot/dev/client3/rdock/2013.1/src/exe/rbdock.cxx#4 $)

>  <Rbt.Library>
libRbt.so (2013.1, Build901 2013/11/27)

>  <Rbt.Parameter_File>
/export/apps/rDock/src/rDock_2013.1_src/data/scripts/dock_solv.prm

>  <Rbt.Receptor>
prm/pocket_docking_4.prm

>  <SCORE>
-7.99941

>  <SCORE.INTER>
-3.11735

>  <SCORE.INTER.CONST>
1

>  <SCORE.INTER.POLAR>
0

>  <SCORE.INTER.ROT>
9

>  <SCORE.INTER.SOLV>
21.2108

>  <SCORE.INTER.VDW>
-18.7485

>  <SCORE.INTER.norm>
-0.0742226

>  <SCORE.INTRA>
-5.49828

>  <SCORE.INTRA.DIHEDRAL>
-7.28664

>  <SCORE.INTRA.DIHEDRAL.0>
16.2863

>  <SCORE.INTRA.POLAR>
0

>  <SCORE.INTRA.POLAR.0>
0

>  <SCORE.INTRA.REPUL>
-0.314433

>  <SCORE.INTRA.REPUL.0>
0.314433

>  <SCORE.INTRA.SOLV>
-2.47568

>  <SCORE.INTRA.SOLV.lig_0>
-103.824

>  <SCORE.INTRA.VDW>
0.955043

>  <SCORE.INTRA.VDW.0>
-5.30945

>  <SCORE.INTRA.norm>
-0.130911

>  <SCORE.RESTR>
0.616216

>  <SCORE.RESTR.CAVITY>
0.616216

>  <SCORE.RESTR.norm>
0.0146718

>  <SCORE.SYSTEM>
0

>  <SCORE.SYSTEM.CONST>
0

>  <SCORE.SYSTEM.DIHEDRAL>
0

>  <SCORE.SYSTEM.SOLV>
0

>  <SCORE.SYSTEM.norm>
0

>  <SCORE.heavy>
42

>  <SCORE.norm>
-0.190462

>  <RMSD>
9.344

$$$$
lig.pdb
 OpenBabel11021811513D
libRbt.so/2013.1/901 2013/11/27
 42 45  0  0  0  0  0  0  0  0999 V2000
   -4.0466    6.8997   36.6707 C   0  0  2  0  0  0  0  0  0  0  0  0
   -2.6193    7.0763   36.9330 O   0  0  0  0  0  0  0  0  0  0  0  0
   -4.1482    5.9631   35.3852 C   0  0  2  0  0  0  0  0  0  0  0  0
   -3.5492    4.6543   35.6606 N   0  0  0  0  0  0  0  0  0  0  0  0
   -3.4424    6.7053   34.1480 C   0  0  1  0  0  0  0  0  0  0  0  0
   -3.5151    5.9041   32.9499 O   0  0  0  0  0  0  0  0  0  0  0  0
   -4.1492    8.0596   33.9672 C   0  0  2  0  0  0  0  0  0  0  0  0
   -3.5627    8.7313   32.9049 O   0  0  0  0  0  0  0  0  0  0  0  0
   -4.0397    8.9138   35.3114 C   0  0  2  0  0  0  0  0  0  0  0  0
   -4.6435    8.2271   36.4148 O   0  0  0  0  0  0  0  0  0  0  0  0
   -4.7326   10.2417   35.1935 C   0  0  0  0  0  0  0  0  0  0  0  0
   -6.0918    9.9898   34.8348 O   0  0  0  0  0  0  0  0  0  0  0  0
   -2.7160    9.2423   40.8153 C   0  0  2  0  0  0  0  0  0  0  0  0
   -2.2937    9.8001   42.0816 N   0  0  0  0  0  0  0  0  0  0  0  0
   -2.4380    7.6897   40.7849 C   0  0  0  0  0  0  0  0  0  0  0  0
   -2.8839    7.0606   39.4182 C   0  0  2  0  0  0  0  0  0  0  0  0
   -2.6033    5.6264   39.4285 N   0  0  0  0  0  0  0  0  0  0  0  0
   -2.1386    7.7189   38.1734 C   0  0  2  0  0  0  0  0  0  0  0  0
   -2.4527    9.2429   38.1955 C   0  0  2  0  0  0  0  0  0  0  0  0
   -1.7236    9.7849   36.9883 O   0  0  0  0  0  0  0  0  0  0  0  0
   -1.9272    9.9014   39.5875 C   0  0  1  0  0  0  0  0  0  0  0  0
   -2.2184   11.3271   39.7447 O   0  0  0  0  0  0  0  0  0  0  0  0
   -1.6189   11.1501   37.0393 C   0  0  1  0  0  0  0  0  0  0  0  0
   -0.6718   11.6918   36.0591 C   0  0  2  0  0  0  0  0  0  0  0  0
    0.6096   11.3768   36.5014 O   0  0  0  0  0  0  0  0  0  0  0  0
   -1.1241   13.1661   35.9890 C   0  0  2  0  0  0  0  0  0  0  0  0
    0.0007   13.9681   36.4147 O   0  0  0  0  0  0  0  0  0  0  0  0
   -2.2806   13.2575   36.9291 C   0  0  2  0  0  0  0  0  0  0  0  0
   -2.7893   11.8898   36.7332 O   0  0  0  0  0  0  0  0  0  0  0  0
   -3.3450   14.3103   36.4465 C   0  0  0  0  0  0  0  0  0  0  0  0
   -3.8956   14.0230   35.1261 O   0  0  0  0  0  0  0  0  0  0  0  0
   -0.1603   15.4176   36.3515 C   0  0  2  0  0  0  0  0  0  0  0  0
    1.2507   16.1078   36.7347 C   0  0  2  0  0  0  0  0  0  0  0  0
    1.6652   15.6555   38.1023 N   0  0  0  0  0  0  0  0  0  0  0  0
    1.0659   17.7028   36.6591 C   0  0  1  0  0  0  0  0  0  0  0  0
    0.6572   18.0281   35.2958 O   0  0  0  0  0  0  0  0  0  0  0  0
   -0.0396   18.1595   37.7145 C   0  0  2  0  0  0  0  0  0  0  0  0
    0.4514   17.8101   39.0661 O   0  0  0  0  0  0  0  0  0  0  0  0
   -1.4387   17.4068   37.3430 C   0  0  1  0  0  0  0  0  0  0  0  0
   -1.2271   15.9135   37.3491 O   0  0  0  0  0  0  0  0  0  0  0  0
   -2.5440   17.8191   38.3710 C   0  0  0  0  0  0  0  0  0  0  0  0
   -3.8994   17.3043   38.0035 N   0  0  0  0  0  0  0  0  0  0  0  0
  1  3  1  0  0  0  0
  1  2  1  6  0  0  0
  3  4  1  1  0  0  0
  3  5  1  0  0  0  0
  5  6  1  6  0  0  0
  7  8  1  6  0  0  0
  7  5  1  0  0  0  0
  9 11  1  6  0  0  0
  9  7  1  0  0  0  0
 10  9  1  0  0  0  0
 10  1  1  0  0  0  0
 12 11  1  0  0  0  0
 13 14  1  1  0  0  0
 15 13  1  0  0  0  0
 16 17  1  1  0  0  0
 16 15  1  0  0  0  0
 18  2  1  6  0  0  0
 18 19  1  0  0  0  0
 18 16  1  0  0  0  0
 19 20  1  6  0  0  0
 19 21  1  0  0  0  0
 21 22  1  6  0  0  0
 21 13  1  0  0  0  0
 23 20  1  6  0  0  0
 23 29  1  0  0  0  0
 24 25  1  1  0  0  0
 24 26  1  0  0  0  0
 24 23  1  0  0  0  0
 26 27  1  1  0  0  0
 26 28  1  0  0  0  0
 28 30  1  6  0  0  0
 29 28  1  0  0  0  0
 30 31  1  0  0  0  0
 32 27  1  1  0  0  0
 32 40  1  0  0  0  0
 33 35  1  0  0  0  0
 33 32  1  0  0  0  0
 33 34  1  1  0  0  0
 35 36  1  6  0  0  0
 35 37  1  0  0  0  0
 37 38  1  1  0  0  0
 37 39  1  0  0  0  0
 39 41  1  1  0  0  0
 40 39  1  0  0  0  0
 41 42  1  0  0  0  0
M  END
>  <CHROM.1>
-170.51717621,56.72037447,48.49194729,-164.96859000,167.14507577,176.24120226
58.93611470,-174.70473351,172.95003295,-2.18086009,11.46935562,36.96089642
-2.46669211,-1.17698776,-0.76716358

>  <Name>
lig.pdb

>  <RI>
0

>  <Rbt.Current_Directory>
/home/itssahil/PROJECTS/Mol_Feturizer/New_Systems/rnas/4wcr

>  <Rbt.Executable>
rbdock ($Id: //depot/dev/client3/rdock/2013.1/src/exe/rbdock.cxx#4 $)

>  <Rbt.Library>
libRbt.so (2013.1, Build901 2013/11/27)

>  <Rbt.Parameter_File>
/export/apps/rDock/src/rDock_2013.1_src/data/scripts/dock_solv.prm

>  <Rbt.Receptor>
prm/pocket_docking_3.prm

>  <SCORE>
-8.53725

>  <SCORE.INTER>
-0.621322

>  <SCORE.INTER.CONST>
1

>  <SCORE.INTER.POLAR>
0

>  <SCORE.INTER.ROT>
9

>  <SCORE.INTER.SOLV>
17.5648

>  <SCORE.INTER.VDW>
-15.8692

>  <SCORE.INTER.norm>
-0.0147934

>  <SCORE.INTRA>
-7.92552

>  <SCORE.INTRA.DIHEDRAL>
-12.4033

>  <SCORE.INTRA.DIHEDRAL.0>
16.2863

>  <SCORE.INTRA.POLAR>
0

>  <SCORE.INTRA.POLAR.0>
0

>  <SCORE.INTRA.REPUL>
-0.314433

>  <SCORE.INTRA.REPUL.0>
0.314433

>  <SCORE.INTRA.SOLV>
-2.78667

>  <SCORE.INTRA.SOLV.lig_0>
-103.824

>  <SCORE.INTRA.VDW>
1.24165

>  <SCORE.INTRA.VDW.0>
-5.30945

>  <SCORE.INTRA.norm>
-0.188703

>  <SCORE.RESTR>
0.00958861

>  <SCORE.RESTR.CAVITY>
0.00958861

>  <SCORE.RESTR.norm>
0.0002283

>  <SCORE.SYSTEM>
0

>  <SCORE.SYSTEM.CONST>
0

>  <SCORE.SYSTEM.DIHEDRAL>
0

>  <SCORE.SYSTEM.SOLV>
0

>  <SCORE.SYSTEM.norm>
0

>  <SCORE.heavy>
42

>  <SCORE.norm>
-0.203268

>  <RMSD>
9.345

$$$$
lig.pdb
 OpenBabel11021811513D
libRbt.so/2013.1/901 2013/11/27
 42 45  0  0  0  0  0  0  0  0999 V2000
   -5.9572   17.9423   29.2627 C   0  0  2  0  0  0  0  0  0  0  0  0
   -6.1499   16.9126   30.2823 O   0  0  0  0  0  0  0  0  0  0  0  0
   -6.9318   19.1411   29.6541 C   0  0  2  0  0  0  0  0  0  0  0  0
   -6.5629   19.6907   30.9616 N   0  0  0  0  0  0  0  0  0  0  0  0
   -8.4460   18.6063   29.6259 C   0  0  1  0  0  0  0  0  0  0  0  0
   -9.3758   19.6573   29.9629 O   0  0  0  0  0  0  0  0  0  0  0  0
   -8.7059   18.0513   28.2149 C   0  0  2  0  0  0  0  0  0  0  0  0
  -10.0079   17.5773   28.1541 O   0  0  0  0  0  0  0  0  0  0  0  0
   -7.6610   16.8899   27.8865 C   0  0  2  0  0  0  0  0  0  0  0  0
   -6.3125   17.3710   27.9470 O   0  0  0  0  0  0  0  0  0  0  0  0
   -7.8602   16.3254   26.5085 C   0  0  0  0  0  0  0  0  0  0  0  0
   -9.1495   15.7120   26.4750 O   0  0  0  0  0  0  0  0  0  0  0  0
   -4.6078   12.9324   31.5283 C   0  0  2  0  0  0  0  0  0  0  0  0
   -3.8165   11.7218   31.5642 N   0  0  0  0  0  0  0  0  0  0  0  0
   -5.2577   13.1155   30.1026 C   0  0  0  0  0  0  0  0  0  0  0  0
   -6.1188   14.4257   30.0361 C   0  0  2  0  0  0  0  0  0  0  0  0
   -6.6957   14.5612   28.7002 N   0  0  0  0  0  0  0  0  0  0  0  0
   -5.2657   15.7317   30.3600 C   0  0  2  0  0  0  0  0  0  0  0  0
   -4.6623   15.5525   31.7832 C   0  0  2  0  0  0  0  0  0  0  0  0
   -3.8841   16.8266   32.0144 O   0  0  0  0  0  0  0  0  0  0  0  0
   -3.7167   14.2290   31.8264 C   0  0  1  0  0  0  0  0  0  0  0  0
   -3.1360   13.9276   33.1357 O   0  0  0  0  0  0  0  0  0  0  0  0
   -3.2702   16.8217   33.2393 C   0  0  1  0  0  0  0  0  0  0  0  0
   -2.8318   18.1538   33.6688 C   0  0  2  0  0  0  0  0  0  0  0  0
   -1.7282   18.4981   32.8940 O   0  0  0  0  0  0  0  0  0  0  0  0
   -2.6718   17.9404   35.1894 C   0  0  2  0  0  0  0  0  0  0  0  0
   -1.2837   18.1953   35.5024 O   0  0  0  0  0  0  0  0  0  0  0  0
   -3.0581   16.5165   35.4194 C   0  0  2  0  0  0  0  0  0  0  0  0
   -4.0606   16.4189   34.3455 O   0  0  0  0  0  0  0  0  0  0  0  0
   -3.7399   16.3148   36.8226 C   0  0  0  0  0  0  0  0  0  0  0  0
   -2.9838   16.8918   37.9293 O   0  0  0  0  0  0  0  0  0  0  0  0
   -0.7574   17.5811   36.7176 C   0  0  2  0  0  0  0  0  0  0  0  0
    0.6103   18.3407   37.1256 C   0  0  2  0  0  0  0  0  0  0  0  0
    1.5843   18.2459   35.9901 N   0  0  0  0  0  0  0  0  0  0  0  0
    1.1811   17.6612   38.4659 C   0  0  1  0  0  0  0  0  0  0  0  0
    0.1555   17.8035   39.4951 O   0  0  0  0  0  0  0  0  0  0  0  0
    1.5039   16.1244   38.1855 C   0  0  2  0  0  0  0  0  0  0  0  0
    2.5564   16.0638   37.1469 O   0  0  0  0  0  0  0  0  0  0  0  0
    0.1226   15.3914   37.7202 C   0  0  1  0  0  0  0  0  0  0  0  0
   -0.4350   16.0878   36.5042 O   0  0  0  0  0  0  0  0  0  0  0  0
    0.4065   13.8823   37.4192 C   0  0  0  0  0  0  0  0  0  0  0  0
    0.9521   13.1473   38.6022 N   0  0  0  0  0  0  0  0  0  0  0  0
  1  3  1  0  0  0  0
  1  2  1  1  0  0  0
  3  4  1  1  0  0  0
  3  5  1  0  0  0  0
  5  6  1  6  0  0  0
  7  8  1  1  0  0  0
  7  5  1  0  0  0  0
  9 11  1  6  0  0  0
  9  7  1  0  0  0  0
 10  9  1  0  0  0  0
 10  1  1  0  0  0  0
 12 11  1  0  0  0  0
 13 14  1  6  0  0  0
 15 13  1  0  0  0  0
 16 17  1  6  0  0  0
 16 15  1  0  0  0  0
 18  2  1  1  0  0  0
 18 19  1  0  0  0  0
 18 16  1  0  0  0  0
 19 20  1  6  0  0  0
 19 21  1  0  0  0  0
 21 22  1  1  0  0  0
 21 13  1  0  0  0  0
 23 20  1  6  0  0  0
 23 29  1  0  0  0  0
 24 25  1  6  0  0  0
 24 26  1  0  0  0  0
 24 23  1  0  0  0  0
 26 27  1  6  0  0  0
 26 28  1  0  0  0  0
 28 30  1  1  0  0  0
 29 28  1  0  0  0  0
 30 31  1  0  0  0  0
 32 27  1  6  0  0  0
 32 40  1  0  0  0  0
 33 35  1  0  0  0  0
 33 32  1  0  0  0  0
 33 34  1  6  0  0  0
 35 36  1  1  0  0  0
 35 37  1  0  0  0  0
 37 38  1  6  0  0  0
 37 39  1  0  0  0  0
 39 41  1  6  0  0  0
 40 39  1  0  0  0  0
 41 42  1  0  0  0  0
M  END
>  <CHROM.1>
-170.85386997,-64.01133744,-114.69625402,-179.39276843,-163.60944292,-156.81433028
-50.27172244,-162.40725553,59.30043760,-3.77346722,16.51502723,32.96284105
2.94632089,0.82497325,-2.82886591

>  <Name>
lig.pdb

>  <RI>
0

>  <Rbt.Current_Directory>
/home/itssahil/PROJECTS/Mol_Feturizer/New_Systems/rnas/4wcr

>  <Rbt.Executable>
rbdock ($Id: //depot/dev/client3/rdock/2013.1/src/exe/rbdock.cxx#4 $)

>  <Rbt.Library>
libRbt.so (2013.1, Build901 2013/11/27)

>  <Rbt.Parameter_File>
/export/apps/rDock/src/rDock_2013.1_src/data/scripts/dock_solv.prm

>  <Rbt.Receptor>
prm/blind_docking_60.prm

>  <SCORE>
-8.45129

>  <SCORE.INTER>
-10.9081

>  <SCORE.INTER.CONST>
1

>  <SCORE.INTER.POLAR>
0

>  <SCORE.INTER.ROT>
9

>  <SCORE.INTER.SOLV>
34.2525

>  <SCORE.INTER.VDW>
-28.2896

>  <SCORE.INTER.norm>
-0.259718

>  <SCORE.INTRA>
0.143035

>  <SCORE.INTRA.DIHEDRAL>
-3.03914

>  <SCORE.INTRA.DIHEDRAL.0>
16.2863

>  <SCORE.INTRA.POLAR>
0

>  <SCORE.INTRA.POLAR.0>
0

>  <SCORE.INTRA.REPUL>
-0.314433

>  <SCORE.INTRA.REPUL.0>
0.314433

>  <SCORE.INTRA.SOLV>
-0.243267

>  <SCORE.INTRA.SOLV.lig_0>
-103.824

>  <SCORE.INTRA.VDW>
3.3564

>  <SCORE.INTRA.VDW.0>
-5.30945

>  <SCORE.INTRA.norm>
0.0034056

>  <SCORE.RESTR>
2.31381

>  <SCORE.RESTR.CAVITY>
2.31381

>  <SCORE.RESTR.norm>
0.0550908

>  <SCORE.SYSTEM>
0

>  <SCORE.SYSTEM.CONST>
0

>  <SCORE.SYSTEM.DIHEDRAL>
0

>  <SCORE.SYSTEM.SOLV>
0

>  <SCORE.SYSTEM.norm>
0

>  <SCORE.heavy>
42

>  <SCORE.norm>
-0.201221

>  <RMSD>
9.348

$$$$
lig.pdb
 OpenBabel11021811513D
libRbt.so/2013.1/901 2013/11/27
 42 45  0  0  0  0  0  0  0  0999 V2000
   -4.2611    7.6002   36.2059 C   0  0  2  0  0  0  0  0  0  0  0  0
   -3.0962    8.4627   36.3959 O   0  0  0  0  0  0  0  0  0  0  0  0
   -4.5194    7.5444   34.6342 C   0  0  2  0  0  0  0  0  0  0  0  0
   -3.3688    6.9479   33.9502 N   0  0  0  0  0  0  0  0  0  0  0  0
   -4.8345    9.0293   34.1092 C   0  0  1  0  0  0  0  0  0  0  0  0
   -5.0884    9.0364   32.6886 O   0  0  0  0  0  0  0  0  0  0  0  0
   -6.0469    9.5445   34.9037 C   0  0  2  0  0  0  0  0  0  0  0  0
   -6.3474   10.8294   34.4768 O   0  0  0  0  0  0  0  0  0  0  0  0
   -5.7211    9.5250   36.4664 C   0  0  2  0  0  0  0  0  0  0  0  0
   -5.4093    8.2007   36.9164 O   0  0  0  0  0  0  0  0  0  0  0  0
   -6.8830   10.0024   37.2905 C   0  0  0  0  0  0  0  0  0  0  0  0
   -7.1278   11.3660   36.9435 O   0  0  0  0  0  0  0  0  0  0  0  0
   -3.1620    9.3389   40.7548 C   0  0  2  0  0  0  0  0  0  0  0  0
   -2.7123    9.5891   42.1069 N   0  0  0  0  0  0  0  0  0  0  0  0
   -2.5847    7.9659   40.2348 C   0  0  0  0  0  0  0  0  0  0  0  0
   -3.0550    7.6728   38.7667 C   0  0  2  0  0  0  0  0  0  0  0  0
   -2.4940    6.3989   38.3215 N   0  0  0  0  0  0  0  0  0  0  0  0
   -2.6098    8.8125   37.7462 C   0  0  2  0  0  0  0  0  0  0  0  0
   -3.2174   10.1531   38.2515 C   0  0  2  0  0  0  0  0  0  0  0  0
   -2.7601   11.1700   37.2319 O   0  0  0  0  0  0  0  0  0  0  0  0
   -2.6725   10.4842   39.7484 C   0  0  1  0  0  0  0  0  0  0  0  0
   -3.2222   11.6996   40.3508 O   0  0  0  0  0  0  0  0  0  0  0  0
   -3.2338   12.4213   37.5273 C   0  0  1  0  0  0  0  0  0  0  0  0
   -2.6905   13.4641   36.6507 C   0  0  2  0  0  0  0  0  0  0  0  0
   -1.3621   13.6627   37.0147 O   0  0  0  0  0  0  0  0  0  0  0  0
   -3.7238   14.5931   36.8528 C   0  0  2  0  0  0  0  0  0  0  0  0
   -3.0068   15.7209   37.4039 O   0  0  0  0  0  0  0  0  0  0  0  0
   -4.7252   14.0302   37.8067 C   0  0  2  0  0  0  0  0  0  0  0  0
   -4.6282   12.6266   37.3728 O   0  0  0  0  0  0  0  0  0  0  0  0
   -6.1707   14.5874   37.5337 C   0  0  0  0  0  0  0  0  0  0  0  0
   -6.2685   16.0393   37.6418 O   0  0  0  0  0  0  0  0  0  0  0  0
   -1.9972   16.3417   36.5518 C   0  0  2  0  0  0  0  0  0  0  0  0
   -1.2657   17.5131   37.3927 C   0  0  2  0  0  0  0  0  0  0  0  0
   -2.2916   18.5058   37.8496 N   0  0  0  0  0  0  0  0  0  0  0  0
   -0.1536   18.1887   36.4490 C   0  0  1  0  0  0  0  0  0  0  0  0
    0.7818   17.1375   36.0597 O   0  0  0  0  0  0  0  0  0  0  0  0
   -0.8607   18.8303   35.1712 C   0  0  2  0  0  0  0  0  0  0  0  0
   -1.7779   19.8909   35.6446 O   0  0  0  0  0  0  0  0  0  0  0  0
   -1.6395   17.6411   34.3704 C   0  0  1  0  0  0  0  0  0  0  0  0
   -2.6276   16.9725   35.2932 O   0  0  0  0  0  0  0  0  0  0  0  0
   -2.3611   18.2391   33.1173 C   0  0  0  0  0  0  0  0  0  0  0  0
   -3.3626   19.2920   33.4719 N   0  0  0  0  0  0  0  0  0  0  0  0
  1  3  1  0  0  0  0
  1  2  1  6  0  0  0
  3  4  1  6  0  0  0
  3  5  1  0  0  0  0
  5  6  1  6  0  0  0
  7  8  1  6  0  0  0
  7  5  1  0  0  0  0
  9 11  1  1  0  0  0
  9  7  1  0  0  0  0
 10  9  1  0  0  0  0
 10  1  1  0  0  0  0
 12 11  1  0  0  0  0
 13 14  1  1  0  0  0
 15 13  1  0  0  0  0
 16 17  1  6  0  0  0
 16 15  1  0  0  0  0
 18  2  1  6  0  0  0
 18 19  1  0  0  0  0
 18 16  1  0  0  0  0
 19 20  1  6  0  0  0
 19 21  1  0  0  0  0
 21 22  1  1  0  0  0
 21 13  1  0  0  0  0
 23 20  1  6  0  0  0
 23 29  1  0  0  0  0
 24 25  1  1  0  0  0
 24 26  1  0  0  0  0
 24 23  1  0  0  0  0
 26 27  1  1  0  0  0
 26 28  1  0  0  0  0
 28 30  1  6  0  0  0
 29 28  1  0  0  0  0
 30 31  1  0  0  0  0
 32 27  1  1  0  0  0
 32 40  1  0  0  0  0
 33 35  1  0  0  0  0
 33 32  1  0  0  0  0
 33 34  1  6  0  0  0
 35 36  1  6  0  0  0
 35 37  1  0  0  0  0
 37 38  1  1  0  0  0
 37 39  1  0  0  0  0
 39 41  1  6  0  0  0
 40 39  1  0  0  0  0
 41 42  1  0  0  0  0
M  END
>  <CHROM.1>
176.29658584,-63.22170311,25.27543970,179.19048606,173.48288065,65.15706750
-59.46160782,-176.64615154,-59.59355501,-3.46283360,12.58255961,36.78721468
2.04165603,1.06327357,2.57698619

>  <Name>
lig.pdb

>  <RI>
0

>  <Rbt.Current_Directory>
/home/itssahil/PROJECTS/Mol_Feturizer/New_Systems/rnas/4wcr

>  <Rbt.Executable>
rbdock ($Id: //depot/dev/client3/rdock/2013.1/src/exe/rbdock.cxx#4 $)

>  <Rbt.Library>
libRbt.so (2013.1, Build901 2013/11/27)

>  <Rbt.Parameter_File>
/export/apps/rDock/src/rDock_2013.1_src/data/scripts/dock_solv.prm

>  <Rbt.Receptor>
prm/pocket_docking_4.prm

>  <SCORE>
-8.1079

>  <SCORE.INTER>
-1.30563

>  <SCORE.INTER.CONST>
1

>  <SCORE.INTER.POLAR>
0

>  <SCORE.INTER.ROT>
9

>  <SCORE.INTER.SOLV>
21.452

>  <SCORE.INTER.VDW>
-17.6211

>  <SCORE.INTER.norm>
-0.0310865

>  <SCORE.INTRA>
-6.80227

>  <SCORE.INTRA.DIHEDRAL>
-10.7702

>  <SCORE.INTRA.DIHEDRAL.0>
16.2863

>  <SCORE.INTRA.POLAR>
0

>  <SCORE.INTRA.POLAR.0>
0

>  <SCORE.INTRA.REPUL>
-0.314433

>  <SCORE.INTRA.REPUL.0>
0.314433

>  <SCORE.INTRA.SOLV>
-1.7216

>  <SCORE.INTRA.SOLV.lig_0>
-103.824

>  <SCORE.INTRA.VDW>
1.01581

>  <SCORE.INTRA.VDW.0>
-5.30945

>  <SCORE.INTRA.norm>
-0.161959

>  <SCORE.RESTR>
0

>  <SCORE.RESTR.CAVITY>
0

>  <SCORE.RESTR.norm>
0

>  <SCORE.SYSTEM>
0

>  <SCORE.SYSTEM.CONST>
0

>  <SCORE.SYSTEM.DIHEDRAL>
0

>  <SCORE.SYSTEM.SOLV>
0

>  <SCORE.SYSTEM.norm>
0

>  <SCORE.heavy>
42

>  <SCORE.norm>
-0.193045

>  <RMSD>
9.349

$$$$
lig.pdb
 OpenBabel11021811513D
libRbt.so/2013.1/901 2013/11/27
 42 45  0  0  0  0  0  0  0  0999 V2000
   -1.9148    7.4648   32.4590 C   0  0  2  0  0  0  0  0  0  0  0  0
   -0.7789    7.4224   33.3782 O   0  0  0  0  0  0  0  0  0  0  0  0
   -1.3491    7.0261   31.0351 C   0  0  2  0  0  0  0  0  0  0  0  0
   -0.8340    5.6553   31.0926 N   0  0  0  0  0  0  0  0  0  0  0  0
   -0.2246    8.0784   30.5793 C   0  0  1  0  0  0  0  0  0  0  0  0
    0.3163    7.7350   29.2862 O   0  0  0  0  0  0  0  0  0  0  0  0
   -0.8819    9.4692   30.5668 C   0  0  2  0  0  0  0  0  0  0  0  0
    0.0635   10.4066   30.1782 O   0  0  0  0  0  0  0  0  0  0  0  0
   -1.4603    9.8102   32.0151 C   0  0  2  0  0  0  0  0  0  0  0  0
   -2.4384    8.8463   32.4249 O   0  0  0  0  0  0  0  0  0  0  0  0
   -2.1315   11.1538   32.0522 C   0  0  0  0  0  0  0  0  0  0  0  0
   -1.1265   12.1451   31.8349 O   0  0  0  0  0  0  0  0  0  0  0  0
   -2.8196    7.8482   37.3059 C   0  0  2  0  0  0  0  0  0  0  0  0
   -3.0680    7.8042   38.7305 N   0  0  0  0  0  0  0  0  0  0  0  0
   -2.4101    6.4181   36.7806 C   0  0  0  0  0  0  0  0  0  0  0  0
   -2.1305    6.4399   35.2367 C   0  0  2  0  0  0  0  0  0  0  0  0
   -1.7484    5.1010   34.7927 N   0  0  0  0  0  0  0  0  0  0  0  0
   -0.9719    7.4599   34.8424 C   0  0  2  0  0  0  0  0  0  0  0  0
   -1.4070    8.8710   35.3334 C   0  0  2  0  0  0  0  0  0  0  0  0
   -0.2684    9.7718   34.9150 O   0  0  0  0  0  0  0  0  0  0  0  0
   -1.6299    8.8575   36.9451 C   0  0  1  0  0  0  0  0  0  0  0  0
   -2.0961   10.1226   37.5145 O   0  0  0  0  0  0  0  0  0  0  0  0
   -0.4390   11.0457   35.3895 C   0  0  1  0  0  0  0  0  0  0  0  0
    0.6974   11.9258   35.0975 C   0  0  2  0  0  0  0  0  0  0  0  0
    1.7449   11.5418   35.9294 O   0  0  0  0  0  0  0  0  0  0  0  0
    0.0491   13.3169   35.2639 C   0  0  2  0  0  0  0  0  0  0  0  0
    0.7600   13.9832   36.3317 O   0  0  0  0  0  0  0  0  0  0  0  0
   -1.3756   13.0368   35.6125 C   0  0  2  0  0  0  0  0  0  0  0  0
   -1.5148   11.7898   34.8422 O   0  0  0  0  0  0  0  0  0  0  0  0
   -2.3440   14.1394   35.0462 C   0  0  0  0  0  0  0  0  0  0  0  0
   -3.7419   13.9344   35.4111 O   0  0  0  0  0  0  0  0  0  0  0  0
    0.5711   15.4258   36.4511 C   0  0  2  0  0  0  0  0  0  0  0  0
    1.7365   16.0190   37.4019 C   0  0  2  0  0  0  0  0  0  0  0  0
    1.6766   15.3400   38.7369 N   0  0  0  0  0  0  0  0  0  0  0  0
    1.5236   17.6075   37.5251 C   0  0  1  0  0  0  0  0  0  0  0  0
    1.5927   18.1605   36.1756 O   0  0  0  0  0  0  0  0  0  0  0  0
    0.1062   17.9025   38.1947 C   0  0  2  0  0  0  0  0  0  0  0  0
    0.1193   17.3264   39.5578 O   0  0  0  0  0  0  0  0  0  0  0  0
   -1.0495   17.2456   37.2487 C   0  0  1  0  0  0  0  0  0  0  0  0
   -0.7918   15.7684   37.0869 O   0  0  0  0  0  0  0  0  0  0  0  0
   -2.4556   17.5014   37.8860 C   0  0  0  0  0  0  0  0  0  0  0  0
   -3.5719   16.9106   37.0848 N   0  0  0  0  0  0  0  0  0  0  0  0
  1  3  1  0  0  0  0
  1  2  1  1  0  0  0
  3  4  1  1  0  0  0
  3  5  1  0  0  0  0
  5  6  1  6  0  0  0
  7  8  1  1  0  0  0
  7  5  1  0  0  0  0
  9 11  1  6  0  0  0
  9  7  1  0  0  0  0
 10  9  1  0  0  0  0
 10  1  1  0  0  0  0
 12 11  1  0  0  0  0
 13 14  1  1  0  0  0
 15 13  1  0  0  0  0
 16 17  1  1  0  0  0
 16 15  1  0  0  0  0
 18  2  1  6  0  0  0
 18 19  1  0  0  0  0
 18 16  1  0  0  0  0
 19 20  1  1  0  0  0
 19 21  1  0  0  0  0
 21 22  1  6  0  0  0
 21 13  1  0  0  0  0
 23 20  1  6  0  0  0
 23 29  1  0  0  0  0
 24 25  1  1  0  0  0
 24 26  1  0  0  0  0
 24 23  1  0  0  0  0
 26 27  1  1  0  0  0
 26 28  1  0  0  0  0
 28 30  1  6  0  0  0
 29 28  1  0  0  0  0
 30 31  1  0  0  0  0
 32 27  1  1  0  0  0
 32 40  1  0  0  0  0
 33 35  1  0  0  0  0
 33 32  1  0  0  0  0
 33 34  1  1  0  0  0
 35 36  1  6  0  0  0
 35 37  1  0  0  0  0
 37 38  1  1  0  0  0
 37 39  1  0  0  0  0
 39 41  1  1  0  0  0
 40 39  1  0  0  0  0
 41 42  1  0  0  0  0
M  END
>  <CHROM.1>
-165.55609533,-66.07480916,46.12046444,-174.24474512,175.36110904,164.57359905
-177.60311250,-164.36369905,-179.18996964,-0.89729262,11.55210628,35.02063234
-1.92880034,1.24892758,0.81456495

>  <Name>
lig.pdb

>  <RI>
0

>  <Rbt.Current_Directory>
/home/itssahil/PROJECTS/Mol_Feturizer/New_Systems/rnas/4wcr

>  <Rbt.Executable>
rbdock ($Id: //depot/dev/client3/rdock/2013.1/src/exe/rbdock.cxx#4 $)

>  <Rbt.Library>
libRbt.so (2013.1, Build901 2013/11/27)

>  <Rbt.Parameter_File>
/export/apps/rDock/src/rDock_2013.1_src/data/scripts/dock_solv.prm

>  <Rbt.Receptor>
prm/pocket_docking_8.prm

>  <SCORE>
-11.86

>  <SCORE.INTER>
-3.36117

>  <SCORE.INTER.CONST>
1

>  <SCORE.INTER.POLAR>
0

>  <SCORE.INTER.ROT>
9

>  <SCORE.INTER.SOLV>
21.5902

>  <SCORE.INTER.VDW>
-19.0375

>  <SCORE.INTER.norm>
-0.0800279

>  <SCORE.INTRA>
-8.49878

>  <SCORE.INTRA.DIHEDRAL>
-11.2206

>  <SCORE.INTRA.DIHEDRAL.0>
16.2863

>  <SCORE.INTRA.POLAR>
0

>  <SCORE.INTRA.POLAR.0>
0

>  <SCORE.INTRA.REPUL>
-0.314433

>  <SCORE.INTRA.REPUL.0>
0.314433

>  <SCORE.INTRA.SOLV>
-1.89288

>  <SCORE.INTRA.SOLV.lig_0>
-103.824

>  <SCORE.INTRA.VDW>
-0.369874

>  <SCORE.INTRA.VDW.0>
-5.30945

>  <SCORE.INTRA.norm>
-0.202352

>  <SCORE.RESTR>
0

>  <SCORE.RESTR.CAVITY>
0

>  <SCORE.RESTR.norm>
0

>  <SCORE.SYSTEM>
0

>  <SCORE.SYSTEM.CONST>
0

>  <SCORE.SYSTEM.DIHEDRAL>
0

>  <SCORE.SYSTEM.SOLV>
0

>  <SCORE.SYSTEM.norm>
0

>  <SCORE.heavy>
42

>  <SCORE.norm>
-0.28238

>  <RMSD>
9.349

$$$$
lig.pdb
 OpenBabel11021811513D
libRbt.so/2013.1/901 2013/11/27
 42 45  0  0  0  0  0  0  0  0999 V2000
   -2.8419   18.1681   36.8801 C   0  0  2  0  0  0  0  0  0  0  0  0
   -3.6381   17.8600   35.6934 O   0  0  0  0  0  0  0  0  0  0  0  0
   -2.4183   19.6985   36.7444 C   0  0  2  0  0  0  0  0  0  0  0  0
   -3.6065   20.5563   36.7324 N   0  0  0  0  0  0  0  0  0  0  0  0
   -1.5303   19.8732   35.4175 C   0  0  1  0  0  0  0  0  0  0  0  0
   -1.1080   21.2430   35.2501 O   0  0  0  0  0  0  0  0  0  0  0  0
   -0.3283   18.9218   35.5465 C   0  0  2  0  0  0  0  0  0  0  0  0
    0.4623   19.0448   34.4136 O   0  0  0  0  0  0  0  0  0  0  0  0
   -0.8400   17.4201   35.7237 C   0  0  2  0  0  0  0  0  0  0  0  0
   -1.6581   17.2837   36.8924 O   0  0  0  0  0  0  0  0  0  0  0  0
    0.2980   16.4507   35.8736 C   0  0  0  0  0  0  0  0  0  0  0  0
   -0.2472   15.1319   35.8157 O   0  0  0  0  0  0  0  0  0  0  0  0
   -2.8656   13.5448   34.9489 C   0  0  2  0  0  0  0  0  0  0  0  0
   -3.0835   12.1525   34.6217 N   0  0  0  0  0  0  0  0  0  0  0  0
   -3.8222   13.9837   36.1241 C   0  0  0  0  0  0  0  0  0  0  0  0
   -3.6083   15.4932   36.4955 C   0  0  2  0  0  0  0  0  0  0  0  0
   -4.5161   15.8604   37.5803 N   0  0  0  0  0  0  0  0  0  0  0  0
   -3.8666   16.4662   35.2606 C   0  0  2  0  0  0  0  0  0  0  0  0
   -2.8906   16.0451   34.1241 C   0  0  2  0  0  0  0  0  0  0  0  0
   -3.1910   17.0148   33.0051 O   0  0  0  0  0  0  0  0  0  0  0  0
   -3.1635   14.4988   33.6978 C   0  0  1  0  0  0  0  0  0  0  0  0
   -2.2635   13.9736   32.6700 O   0  0  0  0  0  0  0  0  0  0  0  0
   -4.2435   16.5846   32.2405 C   0  0  1  0  0  0  0  0  0  0  0  0
   -4.6444   17.5540   31.2155 C   0  0  2  0  0  0  0  0  0  0  0  0
   -5.2859   18.6043   31.8650 O   0  0  0  0  0  0  0  0  0  0  0  0
   -5.4322   16.6515   30.2418 C   0  0  2  0  0  0  0  0  0  0  0  0
   -6.7832   17.1640   30.1988 O   0  0  0  0  0  0  0  0  0  0  0  0
   -5.3572   15.2853   30.8397 C   0  0  2  0  0  0  0  0  0  0  0  0
   -4.0272   15.4236   31.4558 O   0  0  0  0  0  0  0  0  0  0  0  0
   -5.3339   14.1644   29.7362 C   0  0  0  0  0  0  0  0  0  0  0  0
   -6.5720   14.0717   28.9696 O   0  0  0  0  0  0  0  0  0  0  0  0
   -7.6325   16.6960   29.1077 C   0  0  2  0  0  0  0  0  0  0  0  0
   -6.8498   16.9284   27.7122 C   0  0  2  0  0  0  0  0  0  0  0  0
   -6.5168   18.3830   27.5703 N   0  0  0  0  0  0  0  0  0  0  0  0
   -7.7898   16.4073   26.5168 C   0  0  1  0  0  0  0  0  0  0  0  0
   -8.0552   14.9922   26.7590 O   0  0  0  0  0  0  0  0  0  0  0  0
   -9.1435   17.2508   26.5002 C   0  0  2  0  0  0  0  0  0  0  0  0
   -8.7943   18.6646   26.2367 O   0  0  0  0  0  0  0  0  0  0  0  0
   -9.8871   17.0474   27.9381 C   0  0  1  0  0  0  0  0  0  0  0  0
   -8.9627   17.4747   29.0507 O   0  0  0  0  0  0  0  0  0  0  0  0
  -11.2136   17.8770   27.9636 C   0  0  0  0  0  0  0  0  0  0  0  0
  -12.2613   17.3242   27.0503 N   0  0  0  0  0  0  0  0  0  0  0  0
  1  3  1  0  0  0  0
  1  2  1  6  0  0  0
  3  4  1  6  0  0  0
  3  5  1  0  0  0  0
  5  6  1  1  0  0  0
  7  8  1  6  0  0  0
  7  5  1  0  0  0  0
  9 11  1  1  0  0  0
  9  7  1  0  0  0  0
 10  9  1  0  0  0  0
 10  1  1  0  0  0  0
 12 11  1  0  0  0  0
 13 14  1  6  0  0  0
 15 13  1  0  0  0  0
 16 17  1  1  0  0  0
 16 15  1  0  0  0  0
 18  2  1  1  0  0  0
 18 19  1  0  0  0  0
 18 16  1  0  0  0  0
 19 20  1  6  0  0  0
 19 21  1  0  0  0  0
 21 22  1  6  0  0  0
 21 13  1  0  0  0  0
 23 20  1  6  0  0  0
 23 29  1  0  0  0  0
 24 25  1  1  0  0  0
 24 26  1  0  0  0  0
 24 23  1  0  0  0  0
 26 27  1  1  0  0  0
 26 28  1  0  0  0  0
 28 30  1  6  0  0  0
 29 28  1  0  0  0  0
 30 31  1  0  0  0  0
 32 27  1  1  0  0  0
 32 40  1  0  0  0  0
 33 35  1  0  0  0  0
 33 32  1  0  0  0  0
 33 34  1  6  0  0  0
 35 36  1  1  0  0  0
 35 37  1  0  0  0  0
 37 38  1  1  0  0  0
 37 39  1  0  0  0  0
 39 41  1  6  0  0  0
 40 39  1  0  0  0  0
 41 42  1  0  0  0  0
M  END
>  <CHROM.1>
161.45316508,-171.14730335,20.25938826,-85.06440509,174.91073283,165.11732767
-66.13659758,-52.11362215,69.60794308,-4.64344679,16.79822072,32.32998124
0.10764876,-0.86831175,0.09541286

>  <Name>
lig.pdb

>  <RI>
0

>  <Rbt.Current_Directory>
/home/itssahil/PROJECTS/Mol_Feturizer/New_Systems/rnas/4wcr

>  <Rbt.Executable>
rbdock ($Id: //depot/dev/client3/rdock/2013.1/src/exe/rbdock.cxx#4 $)

>  <Rbt.Library>
libRbt.so (2013.1, Build901 2013/11/27)

>  <Rbt.Parameter_File>
/export/apps/rDock/src/rDock_2013.1_src/data/scripts/dock_solv.prm

>  <Rbt.Receptor>
prm/blind_docking_60.prm

>  <SCORE>
6.52917

>  <SCORE.INTER>
0.123552

>  <SCORE.INTER.CONST>
1

>  <SCORE.INTER.POLAR>
0

>  <SCORE.INTER.ROT>
9

>  <SCORE.INTER.SOLV>
30.7684

>  <SCORE.INTER.VDW>
-19.7738

>  <SCORE.INTER.norm>
0.0029417

>  <SCORE.INTRA>
0.495423

>  <SCORE.INTRA.DIHEDRAL>
-3.95858

>  <SCORE.INTRA.DIHEDRAL.0>
16.2863

>  <SCORE.INTRA.POLAR>
0

>  <SCORE.INTRA.POLAR.0>
0

>  <SCORE.INTRA.REPUL>
-0.314433

>  <SCORE.INTRA.REPUL.0>
0.314433

>  <SCORE.INTRA.SOLV>
-1.40787

>  <SCORE.INTRA.SOLV.lig_0>
-103.824

>  <SCORE.INTRA.VDW>
4.75082

>  <SCORE.INTRA.VDW.0>
-5.30945

>  <SCORE.INTRA.norm>
0.0117958

>  <SCORE.RESTR>
5.91019

>  <SCORE.RESTR.CAVITY>
5.91019

>  <SCORE.RESTR.norm>
0.140719

>  <SCORE.SYSTEM>
0

>  <SCORE.SYSTEM.CONST>
0

>  <SCORE.SYSTEM.DIHEDRAL>
0

>  <SCORE.SYSTEM.SOLV>
0

>  <SCORE.SYSTEM.norm>
0

>  <SCORE.heavy>
42

>  <SCORE.norm>
0.155456

>  <RMSD>
9.351

$$$$
lig.pdb
 OpenBabel11021811513D
libRbt.so/2013.1/901 2013/11/27
 42 45  0  0  0  0  0  0  0  0999 V2000
   -5.8776   18.2027   29.4884 C   0  0  2  0  0  0  0  0  0  0  0  0
   -5.9608   17.2467   30.5912 O   0  0  0  0  0  0  0  0  0  0  0  0
   -6.9826   19.3133   29.7805 C   0  0  2  0  0  0  0  0  0  0  0  0
   -6.6863   20.0081   31.0363 N   0  0  0  0  0  0  0  0  0  0  0  0
   -8.4274   18.6119   29.8013 C   0  0  1  0  0  0  0  0  0  0  0  0
   -9.4711   19.5766   30.0514 O   0  0  0  0  0  0  0  0  0  0  0  0
   -8.6140   17.9153   28.4424 C   0  0  2  0  0  0  0  0  0  0  0  0
   -9.8544   17.2951   28.4250 O   0  0  0  0  0  0  0  0  0  0  0  0
   -7.4437   16.8549   28.2097 C   0  0  2  0  0  0  0  0  0  0  0  0
   -6.1578   17.4872   28.2262 O   0  0  0  0  0  0  0  0  0  0  0  0
   -7.5692   16.1584   26.8845 C   0  0  0  0  0  0  0  0  0  0  0  0
   -7.7398   17.1623   25.8830 O   0  0  0  0  0  0  0  0  0  0  0  0
   -4.0300   13.5325   32.0910 C   0  0  2  0  0  0  0  0  0  0  0  0
   -3.1028   12.4298   32.2228 N   0  0  0  0  0  0  0  0  0  0  0  0
   -4.6102   13.5833   30.6249 C   0  0  0  0  0  0  0  0  0  0  0  0
   -5.6168   14.7750   30.4545 C   0  0  2  0  0  0  0  0  0  0  0  0
   -6.1242   14.7907   29.0841 N   0  0  0  0  0  0  0  0  0  0  0  0
   -4.9476   16.1864   30.7686 C   0  0  2  0  0  0  0  0  0  0  0  0
   -4.4139   16.1337   32.2294 C   0  0  2  0  0  0  0  0  0  0  0  0
   -3.8095   17.5010   32.4483 O   0  0  0  0  0  0  0  0  0  0  0  0
   -3.3206   14.9383   32.3819 C   0  0  1  0  0  0  0  0  0  0  0  0
   -2.7878   14.7575   33.7331 O   0  0  0  0  0  0  0  0  0  0  0  0
   -3.2209   17.5953   33.6820 C   0  0  1  0  0  0  0  0  0  0  0  0
   -2.4085   18.8060   33.8410 C   0  0  2  0  0  0  0  0  0  0  0  0
   -1.2546   18.6348   33.0822 O   0  0  0  0  0  0  0  0  0  0  0  0
   -2.3142   18.9033   35.3789 C   0  0  2  0  0  0  0  0  0  0  0  0
   -0.9118   18.8117   35.7173 O   0  0  0  0  0  0  0  0  0  0  0  0
   -3.1022   17.7405   35.8856 C   0  0  2  0  0  0  0  0  0  0  0  0
   -4.0919   17.6965   34.7963 O   0  0  0  0  0  0  0  0  0  0  0  0
   -3.8093   18.0644   37.2529 C   0  0  0  0  0  0  0  0  0  0  0  0
   -2.8809   18.4057   38.3257 O   0  0  0  0  0  0  0  0  0  0  0  0
   -0.5616   17.9726   36.8593 C   0  0  2  0  0  0  0  0  0  0  0  0
    0.8062   18.5373   37.5108 C   0  0  2  0  0  0  0  0  0  0  0  0
    1.8851   18.5354   36.4702 N   0  0  0  0  0  0  0  0  0  0  0  0
    1.1826   17.6106   38.7691 C   0  0  1  0  0  0  0  0  0  0  0  0
    0.0670   17.6803   39.7084 O   0  0  0  0  0  0  0  0  0  0  0  0
    1.4227   16.1138   38.2727 C   0  0  2  0  0  0  0  0  0  0  0  0
    2.5718   16.1237   37.3401 O   0  0  0  0  0  0  0  0  0  0  0  0
    0.0493   15.5854   37.5680 C   0  0  1  0  0  0  0  0  0  0  0  0
   -0.3259   16.5083   36.4357 O   0  0  0  0  0  0  0  0  0  0  0  0
    0.2549   14.1224   37.0522 C   0  0  0  0  0  0  0  0  0  0  0  0
    0.6044   13.1649   38.1469 N   0  0  0  0  0  0  0  0  0  0  0  0
  1  3  1  0  0  0  0
  1  2  1  1  0  0  0
  3  4  1  1  0  0  0
  3  5  1  0  0  0  0
  5  6  1  6  0  0  0
  7  8  1  1  0  0  0
  7  5  1  0  0  0  0
  9 11  1  6  0  0  0
  9  7  1  0  0  0  0
 10  9  1  0  0  0  0
 10  1  1  0  0  0  0
 12 11  1  0  0  0  0
 13 14  1  6  0  0  0
 15 13  1  0  0  0  0
 16 17  1  6  0  0  0
 16 15  1  0  0  0  0
 18  2  1  1  0  0  0
 18 19  1  0  0  0  0
 18 16  1  0  0  0  0
 19 20  1  6  0  0  0
 19 21  1  0  0  0  0
 21 22  1  1  0  0  0
 21 13  1  0  0  0  0
 23 20  1  6  0  0  0
 23 29  1  0  0  0  0
 24 25  1  6  0  0  0
 24 26  1  0  0  0  0
 24 23  1  0  0  0  0
 26 27  1  6  0  0  0
 26 28  1  0  0  0  0
 28 30  1  1  0  0  0
 29 28  1  0  0  0  0
 30 31  1  0  0  0  0
 32 27  1  6  0  0  0
 32 40  1  0  0  0  0
 33 35  1  0  0  0  0
 33 32  1  0  0  0  0
 33 34  1  6  0  0  0
 35 36  1  1  0  0  0
 35 37  1  0  0  0  0
 37 38  1  6  0  0  0
 37 39  1  0  0  0  0
 39 41  1  6  0  0  0
 40 39  1  0  0  0  0
 41 42  1  0  0  0  0
M  END
>  <CHROM.1>
-170.59275007,50.16970075,-110.71906689,-176.64103944,169.18234766,-137.26742962
-60.58656705,-152.37974541,59.92936959,-3.57052540,16.95031984,33.21180785
2.80609986,0.80055871,-2.64505342

>  <Name>
lig.pdb

>  <RI>
0

>  <Rbt.Current_Directory>
/home/itssahil/PROJECTS/Mol_Feturizer/New_Systems/rnas/4wcr

>  <Rbt.Executable>
rbdock ($Id: //depot/dev/client3/rdock/2013.1/src/exe/rbdock.cxx#4 $)

>  <Rbt.Library>
libRbt.so (2013.1, Build901 2013/11/27)

>  <Rbt.Parameter_File>
/export/apps/rDock/src/rDock_2013.1_src/data/scripts/dock_solv.prm

>  <Rbt.Receptor>
prm/blind_docking_60.prm

>  <SCORE>
-7.78847

>  <SCORE.INTER>
-13.9597

>  <SCORE.INTER.CONST>
1

>  <SCORE.INTER.POLAR>
0

>  <SCORE.INTER.ROT>
9

>  <SCORE.INTER.SOLV>
38.1789

>  <SCORE.INTER.VDW>
-31.6328

>  <SCORE.INTER.norm>
-0.332374

>  <SCORE.INTRA>
3.67157

>  <SCORE.INTRA.DIHEDRAL>
1.23139

>  <SCORE.INTRA.DIHEDRAL.0>
16.2863

>  <SCORE.INTRA.POLAR>
0

>  <SCORE.INTRA.POLAR.0>
0

>  <SCORE.INTRA.REPUL>
-0.0692173

>  <SCORE.INTRA.REPUL.0>
0.314433

>  <SCORE.INTRA.SOLV>
-0.700954

>  <SCORE.INTRA.SOLV.lig_0>
-103.824

>  <SCORE.INTRA.VDW>
3.75244

>  <SCORE.INTRA.VDW.0>
-5.30945

>  <SCORE.INTRA.norm>
0.0874184

>  <SCORE.RESTR>
2.49966

>  <SCORE.RESTR.CAVITY>
2.49966

>  <SCORE.RESTR.norm>
0.0595157

>  <SCORE.SYSTEM>
0

>  <SCORE.SYSTEM.CONST>
0

>  <SCORE.SYSTEM.DIHEDRAL>
0

>  <SCORE.SYSTEM.SOLV>
0

>  <SCORE.SYSTEM.norm>
0

>  <SCORE.heavy>
42

>  <SCORE.norm>
-0.18544

>  <RMSD>
9.356

$$$$
lig.pdb
 OpenBabel11021811513D
libRbt.so/2013.1/901 2013/11/27
 42 45  0  0  0  0  0  0  0  0999 V2000
    0.4728    6.9817   38.2143 C   0  0  2  0  0  0  0  0  0  0  0  0
   -0.3126    7.5029   39.3318 O   0  0  0  0  0  0  0  0  0  0  0  0
    1.3914    5.8279   38.8185 C   0  0  2  0  0  0  0  0  0  0  0  0
    0.5617    4.7489   39.3616 N   0  0  0  0  0  0  0  0  0  0  0  0
    2.3597    6.4667   39.9293 C   0  0  1  0  0  0  0  0  0  0  0  0
    3.2251    5.4650   40.5040 O   0  0  0  0  0  0  0  0  0  0  0  0
    3.1644    7.5836   39.2427 C   0  0  2  0  0  0  0  0  0  0  0  0
    4.0129    8.1610   40.1756 O   0  0  0  0  0  0  0  0  0  0  0  0
    2.1702    8.6706   38.6274 C   0  0  2  0  0  0  0  0  0  0  0  0
    1.2893    8.0826   37.6621 O   0  0  0  0  0  0  0  0  0  0  0  0
    2.9075    9.7765   37.9270 C   0  0  0  0  0  0  0  0  0  0  0  0
    1.9468   10.5442   37.2008 O   0  0  0  0  0  0  0  0  0  0  0  0
   -4.0805    8.6494   37.2675 C   0  0  2  0  0  0  0  0  0  0  0  0
   -5.4512    9.0571   37.0490 N   0  0  0  0  0  0  0  0  0  0  0  0
   -4.0351    7.3515   38.1631 C   0  0  0  0  0  0  0  0  0  0  0  0
   -2.5571    6.8905   38.4189 C   0  0  2  0  0  0  0  0  0  0  0  0
   -2.5592    5.6927   39.2561 N   0  0  0  0  0  0  0  0  0  0  0  0
   -1.6845    8.0144   39.1357 C   0  0  2  0  0  0  0  0  0  0  0  0
   -1.7080    9.2746   38.2231 C   0  0  2  0  0  0  0  0  0  0  0  0
   -0.8571   10.2795   38.9640 O   0  0  0  0  0  0  0  0  0  0  0  0
   -3.2386    9.7867   38.0171 C   0  0  1  0  0  0  0  0  0  0  0  0
   -3.3897   10.9392   37.1276 O   0  0  0  0  0  0  0  0  0  0  0  0
   -0.7678   11.4615   38.2768 C   0  0  1  0  0  0  0  0  0  0  0  0
    0.3324   12.3143   38.7390 C   0  0  2  0  0  0  0  0  0  0  0  0
   -0.0346   12.8311   39.9779 O   0  0  0  0  0  0  0  0  0  0  0  0
    0.5081   13.2578   37.5299 C   0  0  2  0  0  0  0  0  0  0  0  0
    0.2526   14.5984   38.0064 O   0  0  0  0  0  0  0  0  0  0  0  0
   -0.5081   12.8005   36.5359 C   0  0  2  0  0  0  0  0  0  0  0  0
   -0.4862   11.3715   36.8901 O   0  0  0  0  0  0  0  0  0  0  0  0
   -0.0126   13.0041   35.0569 C   0  0  0  0  0  0  0  0  0  0  0  0
    1.1520   12.1950   34.7130 O   0  0  0  0  0  0  0  0  0  0  0  0
    0.3472   15.6766   37.0269 C   0  0  2  0  0  0  0  0  0  0  0  0
    0.5056   17.0772   37.8190 C   0  0  2  0  0  0  0  0  0  0  0  0
   -0.6673   17.2612   38.7340 N   0  0  0  0  0  0  0  0  0  0  0  0
    0.6128   18.2581   36.7337 C   0  0  1  0  0  0  0  0  0  0  0  0
    1.7758   17.9749   35.8978 O   0  0  0  0  0  0  0  0  0  0  0  0
   -0.7231   18.3016   35.8632 C   0  0  2  0  0  0  0  0  0  0  0  0
   -1.8489   18.6059   36.7744 O   0  0  0  0  0  0  0  0  0  0  0  0
   -0.8924   16.8594   35.1194 C   0  0  1  0  0  0  0  0  0  0  0  0
   -0.9190   15.7585   36.1499 O   0  0  0  0  0  0  0  0  0  0  0  0
   -2.2054   16.8603   34.2681 C   0  0  0  0  0  0  0  0  0  0  0  0
   -2.5523   15.5065   33.7351 N   0  0  0  0  0  0  0  0  0  0  0  0
  1  3  1  0  0  0  0
  1  2  1  1  0  0  0
  3  4  1  1  0  0  0
  3  5  1  0  0  0  0
  5  6  1  6  0  0  0
  7  8  1  1  0  0  0
  7  5  1  0  0  0  0
  9 11  1  6  0  0  0
  9  7  1  0  0  0  0
 10  9  1  0  0  0  0
 10  1  1  0  0  0  0
 12 11  1  0  0  0  0
 13 14  1  1  0  0  0
 15 13  1  0  0  0  0
 16 17  1  1  0  0  0
 16 15  1  0  0  0  0
 18  2  1  6  0  0  0
 18 19  1  0  0  0  0
 18 16  1  0  0  0  0
 19 20  1  1  0  0  0
 19 21  1  0  0  0  0
 21 22  1  6  0  0  0
 21 13  1  0  0  0  0
 23 20  1  1  0  0  0
 23 29  1  0  0  0  0
 24 25  1  1  0  0  0
 24 26  1  0  0  0  0
 24 23  1  0  0  0  0
 26 27  1  1  0  0  0
 26 28  1  0  0  0  0
 28 30  1  6  0  0  0
 29 28  1  0  0  0  0
 30 31  1  0  0  0  0
 32 27  1  1  0  0  0
 32 40  1  0  0  0  0
 33 35  1  0  0  0  0
 33 32  1  0  0  0  0
 33 34  1  1  0  0  0
 35 36  1  6  0  0  0
 35 37  1  0  0  0  0
 37 38  1  1  0  0  0
 37 39  1  0  0  0  0
 39 41  1  1  0  0  0
 40 39  1  0  0  0  0
 41 42  1  0  0  0  0
M  END
>  <CHROM.1>
-147.48863139,169.03894860,54.40335185,179.58345225,-163.35667880,-179.41977984
64.53171962,-161.92368491,-170.55970396,-0.26673778,11.39451491,37.67779687
-1.48450658,-0.24094565,-0.25761341

>  <Name>
lig.pdb

>  <RI>
0

>  <Rbt.Current_Directory>
/home/itssahil/PROJECTS/Mol_Feturizer/New_Systems/rnas/4wcr

>  <Rbt.Executable>
rbdock ($Id: //depot/dev/client3/rdock/2013.1/src/exe/rbdock.cxx#4 $)

>  <Rbt.Library>
libRbt.so (2013.1, Build901 2013/11/27)

>  <Rbt.Parameter_File>
/export/apps/rDock/src/rDock_2013.1_src/data/scripts/dock_solv.prm

>  <Rbt.Receptor>
prm/pocket_docking_6.prm

>  <SCORE>
-7.8482

>  <SCORE.INTER>
-2.14222

>  <SCORE.INTER.CONST>
1

>  <SCORE.INTER.POLAR>
0

>  <SCORE.INTER.ROT>
9

>  <SCORE.INTER.SOLV>
19.7428

>  <SCORE.INTER.VDW>
-17.6091

>  <SCORE.INTER.norm>
-0.0510052

>  <SCORE.INTRA>
-5.70598

>  <SCORE.INTRA.DIHEDRAL>
-7.97141

>  <SCORE.INTRA.DIHEDRAL.0>
16.2863

>  <SCORE.INTRA.POLAR>
0

>  <SCORE.INTRA.POLAR.0>
0

>  <SCORE.INTRA.REPUL>
-0.314433

>  <SCORE.INTRA.REPUL.0>
0.314433

>  <SCORE.INTRA.SOLV>
-0.487374

>  <SCORE.INTRA.SOLV.lig_0>
-103.824

>  <SCORE.INTRA.VDW>
0.0955752

>  <SCORE.INTRA.VDW.0>
-5.30945

>  <SCORE.INTRA.norm>
-0.135857

>  <SCORE.RESTR>
0

>  <SCORE.RESTR.CAVITY>
0

>  <SCORE.RESTR.norm>
0

>  <SCORE.SYSTEM>
0

>  <SCORE.SYSTEM.CONST>
0

>  <SCORE.SYSTEM.DIHEDRAL>
0

>  <SCORE.SYSTEM.SOLV>
0

>  <SCORE.SYSTEM.norm>
0

>  <SCORE.heavy>
42

>  <SCORE.norm>
-0.186862

>  <RMSD>
9.356

$$$$
lig.pdb
 OpenBabel11021811513D
libRbt.so/2013.1/901 2013/11/27
 42 45  0  0  0  0  0  0  0  0999 V2000
   -4.8892   11.5900   31.1701 C   0  0  2  0  0  0  0  0  0  0  0  0
   -5.0869   10.1453   31.2736 O   0  0  0  0  0  0  0  0  0  0  0  0
   -5.6258   12.0432   29.8314 C   0  0  2  0  0  0  0  0  0  0  0  0
   -7.0617   11.7643   29.9212 N   0  0  0  0  0  0  0  0  0  0  0  0
   -4.9394   11.2968   28.5859 C   0  0  1  0  0  0  0  0  0  0  0  0
   -5.5619   11.6801   27.3416 O   0  0  0  0  0  0  0  0  0  0  0  0
   -3.4445   11.6593   28.6064 C   0  0  2  0  0  0  0  0  0  0  0  0
   -2.8173   11.0287   27.5422 O   0  0  0  0  0  0  0  0  0  0  0  0
   -2.7959   11.2134   29.9952 C   0  0  2  0  0  0  0  0  0  0  0  0
   -3.4381   11.8604   31.1009 O   0  0  0  0  0  0  0  0  0  0  0  0
   -1.3368   11.5630   30.0741 C   0  0  0  0  0  0  0  0  0  0  0  0
   -0.8312   11.0337   31.3004 O   0  0  0  0  0  0  0  0  0  0  0  0
   -4.0757    7.1700   34.4197 C   0  0  2  0  0  0  0  0  0  0  0  0
   -3.3106    6.2818   35.2675 N   0  0  0  0  0  0  0  0  0  0  0  0
   -3.8142    6.8321   32.9011 C   0  0  0  0  0  0  0  0  0  0  0  0
   -4.6304    7.7857   31.9594 C   0  0  2  0  0  0  0  0  0  0  0  0
   -4.3551    7.4448   30.5652 N   0  0  0  0  0  0  0  0  0  0  0  0
   -4.2735    9.3211   32.1909 C   0  0  2  0  0  0  0  0  0  0  0  0
   -4.5719    9.6486   33.6827 C   0  0  2  0  0  0  0  0  0  0  0  0
   -4.2193   11.1119   33.8142 O   0  0  0  0  0  0  0  0  0  0  0  0
   -3.6722    8.7020   34.6532 C   0  0  1  0  0  0  0  0  0  0  0  0
   -3.9099    8.8836   36.0859 O   0  0  0  0  0  0  0  0  0  0  0  0
   -4.3654   11.5467   35.1053 C   0  0  1  0  0  0  0  0  0  0  0  0
   -4.4839   13.0047   35.2116 C   0  0  2  0  0  0  0  0  0  0  0  0
   -3.2254   13.5434   34.9609 O   0  0  0  0  0  0  0  0  0  0  0  0
   -5.1226   13.1520   36.6093 C   0  0  2  0  0  0  0  0  0  0  0  0
   -4.1929   13.9112   37.4148 O   0  0  0  0  0  0  0  0  0  0  0  0
   -5.2957   11.7527   37.1011 C   0  0  2  0  0  0  0  0  0  0  0  0
   -5.5312   11.1222   35.7916 O   0  0  0  0  0  0  0  0  0  0  0  0
   -6.5682   11.6068   38.0142 C   0  0  0  0  0  0  0  0  0  0  0  0
   -7.8271   11.7645   37.2935 O   0  0  0  0  0  0  0  0  0  0  0  0
   -4.1795   15.3580   37.2207 C   0  0  2  0  0  0  0  0  0  0  0  0
   -2.9593   15.9798   38.0800 C   0  0  2  0  0  0  0  0  0  0  0  0
   -3.1372   15.6160   39.5231 N   0  0  0  0  0  0  0  0  0  0  0  0
   -2.9493   17.5718   37.8579 C   0  0  1  0  0  0  0  0  0  0  0  0
   -2.7797   17.8093   36.4273 O   0  0  0  0  0  0  0  0  0  0  0  0
   -4.3229   18.1894   38.3836 C   0  0  2  0  0  0  0  0  0  0  0  0
   -4.4146   17.9215   39.8361 O   0  0  0  0  0  0  0  0  0  0  0  0
   -5.5425   17.5057   37.5428 C   0  0  1  0  0  0  0  0  0  0  0  0
   -5.4918   16.0072   37.7060 O   0  0  0  0  0  0  0  0  0  0  0  0
   -6.9097   18.0769   38.0457 C   0  0  0  0  0  0  0  0  0  0  0  0
   -7.1966   17.7252   39.4709 N   0  0  0  0  0  0  0  0  0  0  0  0
  1  3  1  0  0  0  0
  1  2  1  6  0  0  0
  3  4  1  1  0  0  0
  3  5  1  0  0  0  0
  5  6  1  6  0  0  0
  7  8  1  6  0  0  0
  7  5  1  0  0  0  0
  9 11  1  6  0  0  0
  9  7  1  0  0  0  0
 10  9  1  0  0  0  0
 10  1  1  0  0  0  0
 12 11  1  0  0  0  0
 13 14  1  1  0  0  0
 15 13  1  0  0  0  0
 16 17  1  6  0  0  0
 16 15  1  0  0  0  0
 18  2  1  6  0  0  0
 18 19  1  0  0  0  0
 18 16  1  0  0  0  0
 19 20  1  6  0  0  0
 19 21  1  0  0  0  0
 21 22  1  1  0  0  0
 21 13  1  0  0  0  0
 23 20  1  6  0  0  0
 23 29  1  0  0  0  0
 24 25  1  1  0  0  0
 24 26  1  0  0  0  0
 24 23  1  0  0  0  0
 26 27  1  1  0  0  0
 26 28  1  0  0  0  0
 28 30  1  1  0  0  0
 29 28  1  0  0  0  0
 30 31  1  0  0  0  0
 32 27  1  1  0  0  0
 32 40  1  0  0  0  0
 33 35  1  0  0  0  0
 33 32  1  0  0  0  0
 33 34  1  1  0  0  0
 35 36  1  6  0  0  0
 35 37  1  0  0  0  0
 37 38  1  1  0  0  0
 37 39  1  0  0  0  0
 39 41  1  1  0  0  0
 40 39  1  0  0  0  0
 41 42  1  0  0  0  0
M  END
>  <CHROM.1>
164.42755436,-175.58699911,-174.32546448,-176.95682375,-160.46183697,79.19182421
68.39325882,-173.31840844,-64.13735767,-4.40323406,12.37893996,34.28123671
-0.90053730,1.43843800,0.19260997

>  <Name>
lig.pdb

>  <RI>
0

>  <Rbt.Current_Directory>
/home/itssahil/PROJECTS/Mol_Feturizer/New_Systems/rnas/4wcr

>  <Rbt.Executable>
rbdock ($Id: //depot/dev/client3/rdock/2013.1/src/exe/rbdock.cxx#4 $)

>  <Rbt.Library>
libRbt.so (2013.1, Build901 2013/11/27)

>  <Rbt.Parameter_File>
/export/apps/rDock/src/rDock_2013.1_src/data/scripts/dock_solv.prm

>  <Rbt.Receptor>
prm/pocket_docking_8.prm

>  <SCORE>
-6.65752

>  <SCORE.INTER>
0.403456

>  <SCORE.INTER.CONST>
1

>  <SCORE.INTER.POLAR>
0

>  <SCORE.INTER.ROT>
9

>  <SCORE.INTER.SOLV>
18.8242

>  <SCORE.INTER.VDW>
-15.6058

>  <SCORE.INTER.norm>
0.0096061

>  <SCORE.INTRA>
-7.06937

>  <SCORE.INTRA.DIHEDRAL>
-10.5313

>  <SCORE.INTRA.DIHEDRAL.0>
16.2863

>  <SCORE.INTRA.POLAR>
0

>  <SCORE.INTRA.POLAR.0>
0

>  <SCORE.INTRA.REPUL>
-0.314433

>  <SCORE.INTRA.REPUL.0>
0.314433

>  <SCORE.INTRA.SOLV>
-3.70117

>  <SCORE.INTRA.SOLV.lig_0>
-103.824

>  <SCORE.INTRA.VDW>
1.61905

>  <SCORE.INTRA.VDW.0>
-5.30945

>  <SCORE.INTRA.norm>
-0.168318

>  <SCORE.RESTR>
0.00839497

>  <SCORE.RESTR.CAVITY>
0.00839497

>  <SCORE.RESTR.norm>
0.00019988

>  <SCORE.SYSTEM>
0

>  <SCORE.SYSTEM.CONST>
0

>  <SCORE.SYSTEM.DIHEDRAL>
0

>  <SCORE.SYSTEM.SOLV>
0

>  <SCORE.SYSTEM.norm>
0

>  <SCORE.heavy>
42

>  <SCORE.norm>
-0.158512

>  <RMSD>
9.358

$$$$
lig.pdb
 OpenBabel11021811513D
libRbt.so/2013.1/901 2013/11/27
 42 45  0  0  0  0  0  0  0  0999 V2000
   -1.0469   16.2219   35.7062 C   0  0  2  0  0  0  0  0  0  0  0  0
   -1.5910   17.5767   35.6314 O   0  0  0  0  0  0  0  0  0  0  0  0
   -1.8186   15.4998   36.8991 C   0  0  2  0  0  0  0  0  0  0  0  0
   -3.2520   15.4216   36.6043 N   0  0  0  0  0  0  0  0  0  0  0  0
   -1.5219   16.2949   38.2627 C   0  0  1  0  0  0  0  0  0  0  0  0
   -2.1894   15.6756   39.3824 O   0  0  0  0  0  0  0  0  0  0  0  0
    0.0043   16.3153   38.4541 C   0  0  2  0  0  0  0  0  0  0  0  0
    0.2986   16.9978   39.6250 O   0  0  0  0  0  0  0  0  0  0  0  0
    0.7005   17.0126   37.1981 C   0  0  2  0  0  0  0  0  0  0  0  0
    0.4018   16.3137   35.9832 O   0  0  0  0  0  0  0  0  0  0  0  0
    2.1971   17.0411   37.3269 C   0  0  0  0  0  0  0  0  0  0  0  0
    2.6392   15.6984   37.5301 O   0  0  0  0  0  0  0  0  0  0  0  0
   -1.2448   21.2350   33.1274 C   0  0  2  0  0  0  0  0  0  0  0  0
   -0.9560   22.1039   32.0074 N   0  0  0  0  0  0  0  0  0  0  0  0
    0.0523   20.4424   33.5497 C   0  0  0  0  0  0  0  0  0  0  0  0
   -0.2359   19.4881   34.7617 C   0  0  2  0  0  0  0  0  0  0  0  0
    0.9862   18.7693   35.1159 N   0  0  0  0  0  0  0  0  0  0  0  0
   -1.3797   18.4262   34.4414 C   0  0  2  0  0  0  0  0  0  0  0  0
   -2.6619   19.2229   34.0633 C   0  0  2  0  0  0  0  0  0  0  0  0
   -3.6908   18.1515   33.7869 O   0  0  0  0  0  0  0  0  0  0  0  0
   -2.3747   20.1599   32.7645 C   0  0  1  0  0  0  0  0  0  0  0  0
   -3.4984   21.0005   32.3489 O   0  0  0  0  0  0  0  0  0  0  0  0
   -4.1896   18.2544   32.5149 C   0  0  1  0  0  0  0  0  0  0  0  0
   -5.0199   17.1089   32.1279 C   0  0  2  0  0  0  0  0  0  0  0  0
   -4.1673   16.0286   31.9211 O   0  0  0  0  0  0  0  0  0  0  0  0
   -5.8158   17.7021   30.9457 C   0  0  2  0  0  0  0  0  0  0  0  0
   -5.4856   16.9109   29.7818 O   0  0  0  0  0  0  0  0  0  0  0  0
   -5.3398   19.1129   30.8324 C   0  0  2  0  0  0  0  0  0  0  0  0
   -5.0721   19.3353   32.2630 O   0  0  0  0  0  0  0  0  0  0  0  0
   -6.4790   20.0763   30.3340 C   0  0  0  0  0  0  0  0  0  0  0  0
   -7.0084   19.7266   29.0200 O   0  0  0  0  0  0  0  0  0  0  0  0
   -6.5527   16.0909   29.2164 C   0  0  2  0  0  0  0  0  0  0  0  0
   -5.9662   15.2974   27.9355 C   0  0  2  0  0  0  0  0  0  0  0  0
   -5.4419   16.2878   26.9400 N   0  0  0  0  0  0  0  0  0  0  0  0
   -7.1458   14.3944   27.3214 C   0  0  1  0  0  0  0  0  0  0  0  0
   -7.5828   13.4789   28.3713 O   0  0  0  0  0  0  0  0  0  0  0  0
   -8.3423   15.3363   26.8462 C   0  0  2  0  0  0  0  0  0  0  0  0
   -7.8269   16.2206   25.7773 O   0  0  0  0  0  0  0  0  0  0  0  0
   -8.8796   16.1688   28.1424 C   0  0  1  0  0  0  0  0  0  0  0  0
   -7.7422   16.9533   28.7469 O   0  0  0  0  0  0  0  0  0  0  0  0
  -10.0452   17.1183   27.7084 C   0  0  0  0  0  0  0  0  0  0  0  0
  -10.4255   18.0954   28.7751 N   0  0  0  0  0  0  0  0  0  0  0  0
  1  3  1  0  0  0  0
  1  2  1  1  0  0  0
  3  4  1  6  0  0  0
  3  5  1  0  0  0  0
  5  6  1  1  0  0  0
  7  8  1  1  0  0  0
  7  5  1  0  0  0  0
  9 11  1  1  0  0  0
  9  7  1  0  0  0  0
 10  9  1  0  0  0  0
 10  1  1  0  0  0  0
 12 11  1  0  0  0  0
 13 14  1  6  0  0  0
 15 13  1  0  0  0  0
 16 17  1  6  0  0  0
 16 15  1  0  0  0  0
 18  2  1  1  0  0  0
 18 19  1  0  0  0  0
 18 16  1  0  0  0  0
 19 20  1  6  0  0  0
 19 21  1  0  0  0  0
 21 22  1  1  0  0  0
 21 13  1  0  0  0  0
 23 20  1  1  0  0  0
 23 29  1  0  0  0  0
 24 25  1  6  0  0  0
 24 26  1  0  0  0  0
 24 23  1  0  0  0  0
 26 27  1  6  0  0  0
 26 28  1  0  0  0  0
 28 30  1  1  0  0  0
 29 28  1  0  0  0  0
 30 31  1  0  0  0  0
 32 27  1  6  0  0  0
 32 40  1  0  0  0  0
 33 35  1  0  0  0  0
 33 32  1  0  0  0  0
 33 34  1  6  0  0  0
 35 36  1  1  0  0  0
 35 37  1  0  0  0  0
 37 38  1  6  0  0  0
 37 39  1  0  0  0  0
 39 41  1  6  0  0  0
 40 39  1  0  0  0  0
 41 42  1  0  0  0  0
M  END
>  <CHROM.1>
-163.93289367,55.43472129,-102.25362238,-121.76125567,170.39695283,112.53158393
-60.16808876,-179.94889593,-169.43996259,-3.68863294,17.48346748,32.62986837
0.30514518,0.81597505,2.66840372

>  <Name>
lig.pdb

>  <RI>
0

>  <Rbt.Current_Directory>
/home/itssahil/PROJECTS/Mol_Feturizer/New_Systems/rnas/4wcr

>  <Rbt.Executable>
rbdock ($Id: //depot/dev/client3/rdock/2013.1/src/exe/rbdock.cxx#4 $)

>  <Rbt.Library>
libRbt.so (2013.1, Build901 2013/11/27)

>  <Rbt.Parameter_File>
/export/apps/rDock/src/rDock_2013.1_src/data/scripts/dock_solv.prm

>  <Rbt.Receptor>
prm/blind_docking_100.prm

>  <SCORE>
2.71273

>  <SCORE.INTER>
-8.79301

>  <SCORE.INTER.CONST>
1

>  <SCORE.INTER.POLAR>
0

>  <SCORE.INTER.ROT>
9

>  <SCORE.INTER.SOLV>
31.9877

>  <SCORE.INTER.VDW>
-26.1246

>  <SCORE.INTER.norm>
-0.209357

>  <SCORE.INTRA>
7.03923

>  <SCORE.INTRA.DIHEDRAL>
6.03129

>  <SCORE.INTRA.DIHEDRAL.0>
16.2863

>  <SCORE.INTRA.POLAR>
0

>  <SCORE.INTRA.POLAR.0>
0

>  <SCORE.INTRA.REPUL>
-0.314433

>  <SCORE.INTRA.REPUL.0>
0.314433

>  <SCORE.INTRA.SOLV>
-0.653346

>  <SCORE.INTRA.SOLV.lig_0>
-103.824

>  <SCORE.INTRA.VDW>
5.92243

>  <SCORE.INTRA.VDW.0>
-5.30945

>  <SCORE.INTRA.norm>
0.167601

>  <SCORE.RESTR>
4.46651

>  <SCORE.RESTR.CAVITY>
4.46651

>  <SCORE.RESTR.norm>
0.106345

>  <SCORE.SYSTEM>
0

>  <SCORE.SYSTEM.CONST>
0

>  <SCORE.SYSTEM.DIHEDRAL>
0

>  <SCORE.SYSTEM.SOLV>
0

>  <SCORE.SYSTEM.norm>
0

>  <SCORE.heavy>
42

>  <SCORE.norm>
0.0645888

>  <RMSD>
9.366

$$$$
lig.pdb
 OpenBabel11021811513D
libRbt.so/2013.1/901 2013/11/27
 42 45  0  0  0  0  0  0  0  0999 V2000
   -5.7615   17.5154   29.3411 C   0  0  2  0  0  0  0  0  0  0  0  0
   -5.8678   16.9220   30.6730 O   0  0  0  0  0  0  0  0  0  0  0  0
   -6.8008   18.7232   29.3100 C   0  0  2  0  0  0  0  0  0  0  0  0
   -6.4396   19.7313   30.3105 N   0  0  0  0  0  0  0  0  0  0  0  0
   -8.2788   18.1394   29.5430 C   0  0  1  0  0  0  0  0  0  0  0  0
   -9.2653   19.1922   29.5133 O   0  0  0  0  0  0  0  0  0  0  0  0
   -8.5331   17.0939   28.4435 C   0  0  2  0  0  0  0  0  0  0  0  0
   -9.8038   16.5653   28.6150 O   0  0  0  0  0  0  0  0  0  0  0  0
   -7.4247   15.9474   28.5166 C   0  0  2  0  0  0  0  0  0  0  0  0
   -6.1079   16.4848   28.3403 O   0  0  0  0  0  0  0  0  0  0  0  0
   -7.6171   14.9083   27.4487 C   0  0  0  0  0  0  0  0  0  0  0  0
   -7.0070   13.7006   27.9058 O   0  0  0  0  0  0  0  0  0  0  0  0
   -3.5992   14.2188   33.3783 C   0  0  2  0  0  0  0  0  0  0  0  0
   -2.5115   13.4612   33.9577 N   0  0  0  0  0  0  0  0  0  0  0  0
   -3.7684   13.8490   31.8540 C   0  0  0  0  0  0  0  0  0  0  0  0
   -4.9408   14.6618   31.2002 C   0  0  2  0  0  0  0  0  0  0  0  0
   -5.0590   14.2959   29.7903 N   0  0  0  0  0  0  0  0  0  0  0  0
   -4.7213   16.2364   31.3036 C   0  0  2  0  0  0  0  0  0  0  0  0
   -4.5937   16.5905   32.8136 C   0  0  2  0  0  0  0  0  0  0  0  0
   -4.3997   18.0888   32.8235 O   0  0  0  0  0  0  0  0  0  0  0  0
   -3.3346   15.7955   33.4693 C   0  0  1  0  0  0  0  0  0  0  0  0
   -3.1496   16.0093   34.9054 O   0  0  0  0  0  0  0  0  0  0  0  0
   -3.3356   18.4495   33.6077 C   0  0  1  0  0  0  0  0  0  0  0  0
   -2.0411   18.2554   32.9460 C   0  0  2  0  0  0  0  0  0  0  0  0
   -1.7993   16.8857   32.8994 O   0  0  0  0  0  0  0  0  0  0  0  0
   -1.1319   19.1720   33.7925 C   0  0  2  0  0  0  0  0  0  0  0  0
   -0.1205   18.3250   34.3836 O   0  0  0  0  0  0  0  0  0  0  0  0
   -2.0397   19.7764   34.8124 C   0  0  2  0  0  0  0  0  0  0  0  0
   -3.2548   19.8148   33.9817 O   0  0  0  0  0  0  0  0  0  0  0  0
   -1.5962   21.2352   35.1990 C   0  0  0  0  0  0  0  0  0  0  0  0
   -2.5861   21.9575   35.9911 O   0  0  0  0  0  0  0  0  0  0  0  0
   -0.5228   17.5198   35.5329 C   0  0  2  0  0  0  0  0  0  0  0  0
   -0.2230   18.3623   36.8799 C   0  0  2  0  0  0  0  0  0  0  0  0
    1.2342   18.7099   36.9297 N   0  0  0  0  0  0  0  0  0  0  0  0
   -0.6720   17.4706   38.1398 C   0  0  1  0  0  0  0  0  0  0  0  0
   -2.0957   17.1866   37.9849 O   0  0  0  0  0  0  0  0  0  0  0  0
    0.1825   16.1240   38.1681 C   0  0  2  0  0  0  0  0  0  0  0  0
    1.6053   16.4927   38.3407 O   0  0  0  0  0  0  0  0  0  0  0  0
   -0.0909   15.3190   36.7755 C   0  0  1  0  0  0  0  0  0  0  0  0
    0.2690   16.1980   35.6039 O   0  0  0  0  0  0  0  0  0  0  0  0
    0.7472   13.9977   36.7614 C   0  0  0  0  0  0  0  0  0  0  0  0
    0.4361   13.1257   35.5866 N   0  0  0  0  0  0  0  0  0  0  0  0
  1  3  1  0  0  0  0
  1  2  1  1  0  0  0
  3  4  1  1  0  0  0
  3  5  1  0  0  0  0
  5  6  1  6  0  0  0
  7  8  1  1  0  0  0
  7  5  1  0  0  0  0
  9 11  1  6  0  0  0
  9  7  1  0  0  0  0
 10  9  1  0  0  0  0
 10  1  1  0  0  0  0
 12 11  1  0  0  0  0
 13 14  1  6  0  0  0
 15 13  1  0  0  0  0
 16 17  1  6  0  0  0
 16 15  1  0  0  0  0
 18  2  1  1  0  0  0
 18 19  1  0  0  0  0
 18 16  1  0  0  0  0
 19 20  1  6  0  0  0
 19 21  1  0  0  0  0
 21 22  1  1  0  0  0
 21 13  1  0  0  0  0
 23 20  1  6  0  0  0
 23 29  1  0  0  0  0
 24 25  1  1  0  0  0
 24 26  1  0  0  0  0
 24 23  1  0  0  0  0
 26 27  1  1  0  0  0
 26 28  1  0  0  0  0
 28 30  1  6  0  0  0
 29 28  1  0  0  0  0
 30 31  1  0  0  0  0
 32 27  1  6  0  0  0
 32 40  1  0  0  0  0
 33 35  1  0  0  0  0
 33 32  1  0  0  0  0
 33 34  1  1  0  0  0
 35 36  1  6  0  0  0
 35 37  1  0  0  0  0
 37 38  1  6  0  0  0
 37 39  1  0  0  0  0
 39 41  1  1  0  0  0
 40 39  1  0  0  0  0
 41 42  1  0  0  0  0
M  END
>  <CHROM.1>
-151.61406857,-155.67372309,-103.11307859,-130.81306906,78.96632384,-77.24413394
168.91381493,-91.46059634,173.54252573,-3.49001140,16.98041826,33.03980585
2.91774053,0.78837218,-2.90029304

>  <Name>
lig.pdb

>  <RI>
0

>  <Rbt.Current_Directory>
/home/itssahil/PROJECTS/Mol_Feturizer/New_Systems/rnas/4wcr

>  <Rbt.Executable>
rbdock ($Id: //depot/dev/client3/rdock/2013.1/src/exe/rbdock.cxx#4 $)

>  <Rbt.Library>
libRbt.so (2013.1, Build901 2013/11/27)

>  <Rbt.Parameter_File>
/export/apps/rDock/src/rDock_2013.1_src/data/scripts/dock_solv.prm

>  <Rbt.Receptor>
prm/blind_docking_60.prm

>  <SCORE>
18.6879

>  <SCORE.INTER>
-6.55611

>  <SCORE.INTER.CONST>
1

>  <SCORE.INTER.POLAR>
0

>  <SCORE.INTER.ROT>
9

>  <SCORE.INTER.SOLV>
35.6919

>  <SCORE.INTER.VDW>
-25.868

>  <SCORE.INTER.norm>
-0.156098

>  <SCORE.INTRA>
23.5751

>  <SCORE.INTRA.DIHEDRAL>
9.32218

>  <SCORE.INTRA.DIHEDRAL.0>
16.2863

>  <SCORE.INTRA.POLAR>
0

>  <SCORE.INTRA.POLAR.0>
0

>  <SCORE.INTRA.REPUL>
-0.311378

>  <SCORE.INTRA.REPUL.0>
0.314433

>  <SCORE.INTRA.SOLV>
3.23557

>  <SCORE.INTRA.SOLV.lig_0>
-103.824

>  <SCORE.INTRA.VDW>
18.8531

>  <SCORE.INTRA.VDW.0>
-5.30945

>  <SCORE.INTRA.norm>
0.561311

>  <SCORE.RESTR>
1.66893

>  <SCORE.RESTR.CAVITY>
1.66893

>  <SCORE.RESTR.norm>
0.0397363

>  <SCORE.SYSTEM>
0

>  <SCORE.SYSTEM.CONST>
0

>  <SCORE.SYSTEM.DIHEDRAL>
0

>  <SCORE.SYSTEM.SOLV>
0

>  <SCORE.SYSTEM.norm>
0

>  <SCORE.heavy>
42

>  <SCORE.norm>
0.444949

>  <RMSD>
9.369

$$$$
lig.pdb
 OpenBabel11021811513D
libRbt.so/2013.1/901 2013/11/27
 42 45  0  0  0  0  0  0  0  0999 V2000
   -1.6149    6.1768   33.7790 C   0  0  2  0  0  0  0  0  0  0  0  0
   -2.6452    6.9885   34.4247 O   0  0  0  0  0  0  0  0  0  0  0  0
   -1.1074    5.1451   34.8827 C   0  0  2  0  0  0  0  0  0  0  0  0
   -2.2056    4.2719   35.3062 N   0  0  0  0  0  0  0  0  0  0  0  0
   -0.4793    5.9689   36.1101 C   0  0  1  0  0  0  0  0  0  0  0  0
    0.0083    5.0809   37.1379 O   0  0  0  0  0  0  0  0  0  0  0  0
    0.6475    6.8468   35.5390 C   0  0  2  0  0  0  0  0  0  0  0  0
    1.2136    7.5762   36.5739 O   0  0  0  0  0  0  0  0  0  0  0  0
    0.0640    7.8153   34.4121 C   0  0  2  0  0  0  0  0  0  0  0  0
   -0.5231    7.0698   33.3383 O   0  0  0  0  0  0  0  0  0  0  0  0
    1.1308    8.6832   33.8071 C   0  0  0  0  0  0  0  0  0  0  0  0
    2.1167    7.8218   33.2364 O   0  0  0  0  0  0  0  0  0  0  0  0
   -3.6209    9.9216   31.2282 C   0  0  2  0  0  0  0  0  0  0  0  0
   -4.3486   10.8853   30.4315 N   0  0  0  0  0  0  0  0  0  0  0  0
   -4.4444    8.5813   31.3470 C   0  0  0  0  0  0  0  0  0  0  0  0
   -3.6776    7.5195   32.2114 C   0  0  2  0  0  0  0  0  0  0  0  0
   -4.4756    6.2986   32.3025 N   0  0  0  0  0  0  0  0  0  0  0  0
   -3.3709    8.0415   33.6851 C   0  0  2  0  0  0  0  0  0  0  0  0
   -2.5270    9.3422   33.5521 C   0  0  2  0  0  0  0  0  0  0  0  0
   -2.2733    9.7622   34.9811 O   0  0  0  0  0  0  0  0  0  0  0  0
   -3.3559   10.4623   32.7120 C   0  0  1  0  0  0  0  0  0  0  0  0
   -2.6360   11.7145   32.4754 O   0  0  0  0  0  0  0  0  0  0  0  0
   -1.4488   10.8549   35.0416 C   0  0  1  0  0  0  0  0  0  0  0  0
   -1.9588   11.9127   35.9203 C   0  0  2  0  0  0  0  0  0  0  0  0
   -3.0345   12.5103   35.2703 O   0  0  0  0  0  0  0  0  0  0  0  0
   -0.6729   12.7229   36.1908 C   0  0  2  0  0  0  0  0  0  0  0  0
   -0.9054   14.0561   35.6827 O   0  0  0  0  0  0  0  0  0  0  0  0
    0.3987   12.0033   35.4401 C   0  0  2  0  0  0  0  0  0  0  0  0
   -0.1540   10.6459   35.5805 O   0  0  0  0  0  0  0  0  0  0  0  0
    1.7903   12.1040   36.1667 C   0  0  0  0  0  0  0  0  0  0  0  0
    2.0748   13.4298   36.7056 O   0  0  0  0  0  0  0  0  0  0  0  0
   -1.8036   14.9096   36.4547 C   0  0  2  0  0  0  0  0  0  0  0  0
   -1.9089   16.3442   35.7165 C   0  0  2  0  0  0  0  0  0  0  0  0
   -0.5389   16.9415   35.6024 N   0  0  0  0  0  0  0  0  0  0  0  0
   -2.9020   17.2762   36.5704 C   0  0  1  0  0  0  0  0  0  0  0  0
   -4.1943   16.5989   36.6233 O   0  0  0  0  0  0  0  0  0  0  0  0
   -2.3040   17.4875   38.0340 C   0  0  2  0  0  0  0  0  0  0  0  0
   -1.0078   18.1886   37.8979 O   0  0  0  0  0  0  0  0  0  0  0  0
   -2.1528   16.0233   38.7377 C   0  0  1  0  0  0  0  0  0  0  0  0
   -1.2757   15.1405   37.8855 O   0  0  0  0  0  0  0  0  0  0  0  0
   -1.5510   16.1916   40.1723 C   0  0  0  0  0  0  0  0  0  0  0  0
   -2.4679   16.9177   41.1047 N   0  0  0  0  0  0  0  0  0  0  0  0
  1  3  1  0  0  0  0
  1  2  1  1  0  0  0
  3  4  1  1  0  0  0
  3  5  1  0  0  0  0
  5  6  1  1  0  0  0
  7  8  1  1  0  0  0
  7  5  1  0  0  0  0
  9 11  1  6  0  0  0
  9  7  1  0  0  0  0
 10  9  1  0  0  0  0
 10  1  1  0  0  0  0
 12 11  1  0  0  0  0
 13 14  1  6  0  0  0
 15 13  1  0  0  0  0
 16 17  1  1  0  0  0
 16 15  1  0  0  0  0
 18  2  1  1  0  0  0
 18 19  1  0  0  0  0
 18 16  1  0  0  0  0
 19 20  1  1  0  0  0
 19 21  1  0  0  0  0
 21 22  1  6  0  0  0
 21 13  1  0  0  0  0
 23 20  1  1  0  0  0
 23 29  1  0  0  0  0
 24 25  1  6  0  0  0
 24 26  1  0  0  0  0
 24 23  1  0  0  0  0
 26 27  1  6  0  0  0
 26 28  1  0  0  0  0
 28 30  1  1  0  0  0
 29 28  1  0  0  0  0
 30 31  1  0  0  0  0
 32 27  1  6  0  0  0
 32 40  1  0  0  0  0
 33 35  1  0  0  0  0
 33 32  1  0  0  0  0
 33 34  1  1  0  0  0
 35 36  1  1  0  0  0
 35 37  1  0  0  0  0
 37 38  1  6  0  0  0
 37 39  1  0  0  0  0
 39 41  1  1  0  0  0
 40 39  1  0  0  0  0
 41 42  1  0  0  0  0
M  END
>  <CHROM.1>
-178.52929999,59.39683685,39.45597418,175.55777888,131.33243795,73.43640575
-41.90860403,179.59052637,65.99052110,-1.49202762,11.06472370,35.26489310
-1.54660623,-0.76547615,0.38707092

>  <Name>
lig.pdb

>  <RI>
0

>  <Rbt.Current_Directory>
/home/itssahil/PROJECTS/Mol_Feturizer/New_Systems/rnas/4wcr

>  <Rbt.Executable>
rbdock ($Id: //depot/dev/client3/rdock/2013.1/src/exe/rbdock.cxx#4 $)

>  <Rbt.Library>
libRbt.so (2013.1, Build901 2013/11/27)

>  <Rbt.Parameter_File>
/export/apps/rDock/src/rDock_2013.1_src/data/scripts/dock_solv.prm

>  <Rbt.Receptor>
prm/pocket_docking_5.prm

>  <SCORE>
-4.13838

>  <SCORE.INTER>
1.65211

>  <SCORE.INTER.CONST>
1

>  <SCORE.INTER.POLAR>
0

>  <SCORE.INTER.ROT>
9

>  <SCORE.INTER.SOLV>
15.7447

>  <SCORE.INTER.VDW>
-13.7468

>  <SCORE.INTER.norm>
0.039336

>  <SCORE.INTRA>
-5.79049

>  <SCORE.INTRA.DIHEDRAL>
-5.3819

>  <SCORE.INTRA.DIHEDRAL.0>
16.2863

>  <SCORE.INTRA.POLAR>
0

>  <SCORE.INTRA.POLAR.0>
0

>  <SCORE.INTRA.REPUL>
-0.314433

>  <SCORE.INTRA.REPUL.0>
0.314433

>  <SCORE.INTRA.SOLV>
-3.42015

>  <SCORE.INTRA.SOLV.lig_0>
-103.824

>  <SCORE.INTRA.VDW>
0.182702

>  <SCORE.INTRA.VDW.0>
-5.30945

>  <SCORE.INTRA.norm>
-0.137869

>  <SCORE.RESTR>
0

>  <SCORE.RESTR.CAVITY>
0

>  <SCORE.RESTR.norm>
0

>  <SCORE.SYSTEM>
0

>  <SCORE.SYSTEM.CONST>
0

>  <SCORE.SYSTEM.DIHEDRAL>
0

>  <SCORE.SYSTEM.SOLV>
0

>  <SCORE.SYSTEM.norm>
0

>  <SCORE.heavy>
42

>  <SCORE.norm>
-0.0985328

>  <RMSD>
9.370

$$$$
lig.pdb
 OpenBabel11021811513D
libRbt.so/2013.1/901 2013/11/27
 42 45  0  0  0  0  0  0  0  0999 V2000
   -3.9526    6.9168   36.8715 C   0  0  2  0  0  0  0  0  0  0  0  0
   -2.5142    7.1325   37.0190 O   0  0  0  0  0  0  0  0  0  0  0  0
   -4.1429    6.1173   35.5060 C   0  0  2  0  0  0  0  0  0  0  0  0
   -3.4715    4.8167   35.5800 N   0  0  0  0  0  0  0  0  0  0  0  0
   -3.5884    7.0186   34.2978 C   0  0  1  0  0  0  0  0  0  0  0  0
   -3.7466    6.3457   33.0310 O   0  0  0  0  0  0  0  0  0  0  0  0
   -4.3596    8.3492   34.3323 C   0  0  2  0  0  0  0  0  0  0  0  0
   -3.9041    9.1564   33.3005 O   0  0  0  0  0  0  0  0  0  0  0  0
   -4.1526    9.0611   35.7461 C   0  0  2  0  0  0  0  0  0  0  0  0
   -4.6206    8.2338   36.8186 O   0  0  0  0  0  0  0  0  0  0  0  0
   -4.9028   10.3595   35.8388 C   0  0  0  0  0  0  0  0  0  0  0  0
   -4.6411   10.9189   37.1265 O   0  0  0  0  0  0  0  0  0  0  0  0
   -2.3326    9.4821   40.7898 C   0  0  2  0  0  0  0  0  0  0  0  0
   -1.8376   10.0531   42.0234 N   0  0  0  0  0  0  0  0  0  0  0  0
   -2.2187    7.9092   40.8341 C   0  0  0  0  0  0  0  0  0  0  0  0
   -2.7459    7.2650   39.5039 C   0  0  2  0  0  0  0  0  0  0  0  0
   -2.6164    5.8114   39.5830 N   0  0  0  0  0  0  0  0  0  0  0  0
   -1.9526    7.7804   38.2220 C   0  0  2  0  0  0  0  0  0  0  0  0
   -2.1056    9.3282   38.1711 C   0  0  2  0  0  0  0  0  0  0  0  0
   -1.3400    9.7316   36.9326 O   0  0  0  0  0  0  0  0  0  0  0  0
   -1.4957    9.9945   39.5245 C   0  0  1  0  0  0  0  0  0  0  0  0
   -1.6344   11.4489   39.6133 O   0  0  0  0  0  0  0  0  0  0  0  0
   -1.4311   11.0798   36.7061 C   0  0  1  0  0  0  0  0  0  0  0  0
   -0.1242   11.7428   36.6447 C   0  0  2  0  0  0  0  0  0  0  0  0
    0.3782   11.7919   37.9416 O   0  0  0  0  0  0  0  0  0  0  0  0
   -0.4858   13.0494   35.9065 C   0  0  2  0  0  0  0  0  0  0  0  0
   -0.1672   14.1372   36.8036 O   0  0  0  0  0  0  0  0  0  0  0  0
   -1.9500   12.9430   35.6336 C   0  0  2  0  0  0  0  0  0  0  0  0
   -2.0044   11.4805   35.4727 O   0  0  0  0  0  0  0  0  0  0  0  0
   -2.3476   13.6554   34.2886 C   0  0  0  0  0  0  0  0  0  0  0  0
   -3.7456   13.4652   33.9164 O   0  0  0  0  0  0  0  0  0  0  0  0
    0.0648   15.4454   36.1989 C   0  0  2  0  0  0  0  0  0  0  0  0
    0.3418   16.5147   37.3797 C   0  0  2  0  0  0  0  0  0  0  0  0
   -0.8323   16.5352   38.3113 N   0  0  0  0  0  0  0  0  0  0  0  0
    0.5998   17.9510   36.7056 C   0  0  1  0  0  0  0  0  0  0  0  0
    1.7517   17.8135   35.8190 O   0  0  0  0  0  0  0  0  0  0  0  0
   -0.6991   18.3974   35.8944 C   0  0  2  0  0  0  0  0  0  0  0  0
   -1.8140   18.5280   36.8588 O   0  0  0  0  0  0  0  0  0  0  0  0
   -0.9925   17.2752   34.7469 C   0  0  1  0  0  0  0  0  0  0  0  0
   -1.1607   15.9228   35.3930 O   0  0  0  0  0  0  0  0  0  0  0  0
   -2.2735   17.6730   33.9411 C   0  0  0  0  0  0  0  0  0  0  0  0
   -3.5060   17.7024   34.7880 N   0  0  0  0  0  0  0  0  0  0  0  0
  1  3  1  0  0  0  0
  1  2  1  6  0  0  0
  3  4  1  1  0  0  0
  3  5  1  0  0  0  0
  5  6  1  6  0  0  0
  7  8  1  6  0  0  0
  7  5  1  0  0  0  0
  9 11  1  6  0  0  0
  9  7  1  0  0  0  0
 10  9  1  0  0  0  0
 10  1  1  0  0  0  0
 12 11  1  0  0  0  0
 13 14  1  1  0  0  0
 15 13  1  0  0  0  0
 16 17  1  1  0  0  0
 16 15  1  0  0  0  0
 18  2  1  6  0  0  0
 18 19  1  0  0  0  0
 18 16  1  0  0  0  0
 19 20  1  6  0  0  0
 19 21  1  0  0  0  0
 21 22  1  6  0  0  0
 21 13  1  0  0  0  0
 23 20  1  6  0  0  0
 23 29  1  0  0  0  0
 24 25  1  1  0  0  0
 24 26  1  0  0  0  0
 24 23  1  0  0  0  0
 26 27  1  1  0  0  0
 26 28  1  0  0  0  0
 28 30  1  6  0  0  0
 29 28  1  0  0  0  0
 30 31  1  0  0  0  0
 32 27  1  1  0  0  0
 32 40  1  0  0  0  0
 33 35  1  0  0  0  0
 33 32  1  0  0  0  0
 33 34  1  1  0  0  0
 35 36  1  6  0  0  0
 35 37  1  0  0  0  0
 37 38  1  1  0  0  0
 37 39  1  0  0  0  0
 39 41  1  1  0  0  0
 40 39  1  0  0  0  0
 41 42  1  0  0  0  0
M  END
>  <CHROM.1>
-176.36409209,-179.36726737,39.26207802,177.09874746,122.75872986,157.50121956
174.37024177,177.70598692,-63.07428482,-2.11770877,11.59994209,36.63919241
2.15171692,1.09771764,2.50446924

>  <Name>
lig.pdb

>  <RI>
0

>  <Rbt.Current_Directory>
/home/itssahil/PROJECTS/Mol_Feturizer/New_Systems/rnas/4wcr

>  <Rbt.Executable>
rbdock ($Id: //depot/dev/client3/rdock/2013.1/src/exe/rbdock.cxx#4 $)

>  <Rbt.Library>
libRbt.so (2013.1, Build901 2013/11/27)

>  <Rbt.Parameter_File>
/export/apps/rDock/src/rDock_2013.1_src/data/scripts/dock_solv.prm

>  <Rbt.Receptor>
prm/pocket_docking_3.prm

>  <SCORE>
-6.04689

>  <SCORE.INTER>
-1.11627

>  <SCORE.INTER.CONST>
1

>  <SCORE.INTER.POLAR>
0

>  <SCORE.INTER.ROT>
9

>  <SCORE.INTER.SOLV>
16.1392

>  <SCORE.INTER.VDW>
-15.7239

>  <SCORE.INTER.norm>
-0.0265778

>  <SCORE.INTRA>
-4.93063

>  <SCORE.INTRA.DIHEDRAL>
-4.26724

>  <SCORE.INTRA.DIHEDRAL.0>
16.2863

>  <SCORE.INTRA.POLAR>
0

>  <SCORE.INTRA.POLAR.0>
0

>  <SCORE.INTRA.REPUL>
-0.2881

>  <SCORE.INTRA.REPUL.0>
0.314433

>  <SCORE.INTRA.SOLV>
-0.958888

>  <SCORE.INTRA.SOLV.lig_0>
-103.824

>  <SCORE.INTRA.VDW>
-0.87706

>  <SCORE.INTRA.VDW.0>
-5.30945

>  <SCORE.INTRA.norm>
-0.117396

>  <SCORE.RESTR>
0

>  <SCORE.RESTR.CAVITY>
0

>  <SCORE.RESTR.norm>
0

>  <SCORE.SYSTEM>
0

>  <SCORE.SYSTEM.CONST>
0

>  <SCORE.SYSTEM.DIHEDRAL>
0

>  <SCORE.SYSTEM.SOLV>
0

>  <SCORE.SYSTEM.norm>
0

>  <SCORE.heavy>
42

>  <SCORE.norm>
-0.143974

>  <RMSD>
9.383

$$$$
lig.pdb
 OpenBabel11021811513D
libRbt.so/2013.1/901 2013/11/27
 42 45  0  0  0  0  0  0  0  0999 V2000
   -1.6086   19.4584   34.9281 C   0  0  2  0  0  0  0  0  0  0  0  0
   -1.3510   18.1697   34.2876 O   0  0  0  0  0  0  0  0  0  0  0  0
   -1.7867   20.5127   33.7463 C   0  0  2  0  0  0  0  0  0  0  0  0
   -2.9393   20.1553   32.9149 N   0  0  0  0  0  0  0  0  0  0  0  0
   -0.4234   20.5747   32.8993 C   0  0  1  0  0  0  0  0  0  0  0  0
   -0.5246   21.5258   31.8187 O   0  0  0  0  0  0  0  0  0  0  0  0
    0.7032   20.9476   33.8782 C   0  0  2  0  0  0  0  0  0  0  0  0
    1.8999   21.0087   33.1796 O   0  0  0  0  0  0  0  0  0  0  0  0
    0.7832   19.8683   35.0517 C   0  0  2  0  0  0  0  0  0  0  0  0
   -0.4494   19.7984   35.7792 O   0  0  0  0  0  0  0  0  0  0  0  0
    1.8585   20.1975   36.0481 C   0  0  0  0  0  0  0  0  0  0  0  0
    1.6080   21.5168   36.5344 O   0  0  0  0  0  0  0  0  0  0  0  0
   -2.2595   13.8407   34.7426 C   0  0  2  0  0  0  0  0  0  0  0  0
   -2.8313   12.6075   35.2377 N   0  0  0  0  0  0  0  0  0  0  0  0
   -1.5635   14.6286   35.9189 C   0  0  0  0  0  0  0  0  0  0  0  0
   -0.9383   15.9742   35.4081 C   0  0  2  0  0  0  0  0  0  0  0  0
   -0.3115   16.6748   36.5270 N   0  0  0  0  0  0  0  0  0  0  0  0
   -2.0218   16.9355   34.7446 C   0  0  2  0  0  0  0  0  0  0  0  0
   -2.6725   16.1586   33.5637 C   0  0  2  0  0  0  0  0  0  0  0  0
   -3.6713   17.1355   32.9884 O   0  0  0  0  0  0  0  0  0  0  0  0
   -3.3772   14.7979   34.1110 C   0  0  1  0  0  0  0  0  0  0  0  0
   -3.9774   13.9543   33.0765 O   0  0  0  0  0  0  0  0  0  0  0  0
   -4.5686   16.5063   32.1660 C   0  0  1  0  0  0  0  0  0  0  0  0
   -5.1361   17.3950   31.1465 C   0  0  2  0  0  0  0  0  0  0  0  0
   -6.0229   18.2529   31.7901 O   0  0  0  0  0  0  0  0  0  0  0  0
   -5.6611   16.3719   30.1165 C   0  0  2  0  0  0  0  0  0  0  0  0
   -7.0899   16.5702   30.0229 O   0  0  0  0  0  0  0  0  0  0  0  0
   -5.3045   15.0380   30.6850 C   0  0  2  0  0  0  0  0  0  0  0  0
   -4.0654   15.4499   31.3652 O   0  0  0  0  0  0  0  0  0  0  0  0
   -4.9856   13.9881   29.5579 C   0  0  0  0  0  0  0  0  0  0  0  0
   -6.1601   13.5651   28.8024 O   0  0  0  0  0  0  0  0  0  0  0  0
   -7.7468   16.0806   28.8147 C   0  0  2  0  0  0  0  0  0  0  0  0
   -6.6948   16.1623   27.5897 C   0  0  2  0  0  0  0  0  0  0  0  0
   -6.2303   17.5787   27.4326 N   0  0  0  0  0  0  0  0  0  0  0  0
   -7.4243   15.6182   26.2647 C   0  0  1  0  0  0  0  0  0  0  0  0
   -7.8389   14.2438   26.5309 O   0  0  0  0  0  0  0  0  0  0  0  0
   -8.6810   16.5430   25.9331 C   0  0  2  0  0  0  0  0  0  0  0  0
   -8.1803   17.9092   25.6626 O   0  0  0  0  0  0  0  0  0  0  0  0
   -9.7006   16.4907   27.2057 C   0  0  1  0  0  0  0  0  0  0  0  0
   -8.9776   16.9366   28.4520 O   0  0  0  0  0  0  0  0  0  0  0  0
  -10.9397   17.4030   26.9216 C   0  0  0  0  0  0  0  0  0  0  0  0
  -11.6436   17.0465   25.6509 N   0  0  0  0  0  0  0  0  0  0  0  0
  1  3  1  0  0  0  0
  1  2  1  6  0  0  0
  3  4  1  6  0  0  0
  3  5  1  0  0  0  0
  5  6  1  6  0  0  0
  7  8  1  6  0  0  0
  7  5  1  0  0  0  0
  9 11  1  1  0  0  0
  9  7  1  0  0  0  0
 10  9  1  0  0  0  0
 10  1  1  0  0  0  0
 12 11  1  0  0  0  0
 13 14  1  1  0  0  0
 15 13  1  0  0  0  0
 16 17  1  1  0  0  0
 16 15  1  0  0  0  0
 18  2  1  6  0  0  0
 18 19  1  0  0  0  0
 18 16  1  0  0  0  0
 19 20  1  1  0  0  0
 19 21  1  0  0  0  0
 21 22  1  6  0  0  0
 21 13  1  0  0  0  0
 23 20  1  6  0  0  0
 23 29  1  0  0  0  0
 24 25  1  1  0  0  0
 24 26  1  0  0  0  0
 24 23  1  0  0  0  0
 26 27  1  1  0  0  0
 26 28  1  0  0  0  0
 28 30  1  6  0  0  0
 29 28  1  0  0  0  0
 30 31  1  0  0  0  0
 32 27  1  1  0  0  0
 32 40  1  0  0  0  0
 33 35  1  0  0  0  0
 33 32  1  0  0  0  0
 33 34  1  6  0  0  0
 35 36  1  1  0  0  0
 35 37  1  0  0  0  0
 37 38  1  1  0  0  0
 37 39  1  0  0  0  0
 39 41  1  6  0  0  0
 40 39  1  0  0  0  0
 41 42  1  0  0  0  0
M  END
>  <CHROM.1>
-135.67475083,55.79822316,-111.84624156,-164.41582702,-153.89727223,158.96641852
-70.80648431,-30.22859313,55.59673845,-4.01969173,17.20095427,31.64255896
-0.05316186,-0.77587153,-0.42929997

>  <Name>
lig.pdb

>  <RI>
0

>  <Rbt.Current_Directory>
/home/itssahil/PROJECTS/Mol_Feturizer/New_Systems/rnas/4wcr

>  <Rbt.Executable>
rbdock ($Id: //depot/dev/client3/rdock/2013.1/src/exe/rbdock.cxx#4 $)

>  <Rbt.Library>
libRbt.so (2013.1, Build901 2013/11/27)

>  <Rbt.Parameter_File>
/export/apps/rDock/src/rDock_2013.1_src/data/scripts/dock_solv.prm

>  <Rbt.Receptor>
prm/blind_docking_60.prm

>  <SCORE>
2.25762

>  <SCORE.INTER>
-11.5434

>  <SCORE.INTER.CONST>
1

>  <SCORE.INTER.POLAR>
0

>  <SCORE.INTER.ROT>
9

>  <SCORE.INTER.SOLV>
29.1863

>  <SCORE.INTER.VDW>
-27.0243

>  <SCORE.INTER.norm>
-0.274842

>  <SCORE.INTRA>
8.7762

>  <SCORE.INTRA.DIHEDRAL>
7.1538

>  <SCORE.INTRA.DIHEDRAL.0>
16.2863

>  <SCORE.INTRA.POLAR>
0

>  <SCORE.INTRA.POLAR.0>
0

>  <SCORE.INTRA.REPUL>
-0.314433

>  <SCORE.INTRA.REPUL.0>
0.314433

>  <SCORE.INTRA.SOLV>
1.63311

>  <SCORE.INTRA.SOLV.lig_0>
-103.824

>  <SCORE.INTRA.VDW>
5.95491

>  <SCORE.INTRA.VDW.0>
-5.30945

>  <SCORE.INTRA.norm>
0.208957

>  <SCORE.RESTR>
5.02478

>  <SCORE.RESTR.CAVITY>
5.02478

>  <SCORE.RESTR.norm>
0.119638

>  <SCORE.SYSTEM>
0

>  <SCORE.SYSTEM.CONST>
0

>  <SCORE.SYSTEM.DIHEDRAL>
0

>  <SCORE.SYSTEM.SOLV>
0

>  <SCORE.SYSTEM.norm>
0

>  <SCORE.heavy>
42

>  <SCORE.norm>
0.0537529

>  <RMSD>
9.385

$$$$
lig.pdb
 OpenBabel11021811513D
libRbt.so/2013.1/901 2013/11/27
 42 45  0  0  0  0  0  0  0  0999 V2000
   -2.6337    8.7077   35.2783 C   0  0  2  0  0  0  0  0  0  0  0  0
   -2.9365    8.8751   36.6987 O   0  0  0  0  0  0  0  0  0  0  0  0
   -3.8940    7.9694   34.6407 C   0  0  2  0  0  0  0  0  0  0  0  0
   -5.0934    8.8005   34.7770 N   0  0  0  0  0  0  0  0  0  0  0  0
   -4.0651    6.5366   35.3461 C   0  0  1  0  0  0  0  0  0  0  0  0
   -5.1891    5.8169   34.7973 O   0  0  0  0  0  0  0  0  0  0  0  0
   -2.7474    5.7695   35.1422 C   0  0  2  0  0  0  0  0  0  0  0  0
   -2.8583    4.5238   35.7420 O   0  0  0  0  0  0  0  0  0  0  0  0
   -1.5340    6.5969   35.7679 C   0  0  2  0  0  0  0  0  0  0  0  0
   -1.4119    7.8859   35.1537 O   0  0  0  0  0  0  0  0  0  0  0  0
   -0.2177    5.8980   35.5780 C   0  0  0  0  0  0  0  0  0  0  0  0
   -0.3793    4.9516   34.5207 O   0  0  0  0  0  0  0  0  0  0  0  0
   -1.4710   10.9852   40.3280 C   0  0  2  0  0  0  0  0  0  0  0  0
   -0.5852   11.6411   41.2652 N   0  0  0  0  0  0  0  0  0  0  0  0
   -0.9226    9.5487   39.9753 C   0  0  0  0  0  0  0  0  0  0  0  0
   -1.8646    8.8170   38.9556 C   0  0  2  0  0  0  0  0  0  0  0  0
   -1.3184    7.4962   38.6506 N   0  0  0  0  0  0  0  0  0  0  0  0
   -2.0342    9.6273   37.5944 C   0  0  2  0  0  0  0  0  0  0  0  0
   -2.6105   11.0272   37.9548 C   0  0  2  0  0  0  0  0  0  0  0  0
   -2.7490   11.7212   36.6199 O   0  0  0  0  0  0  0  0  0  0  0  0
   -1.5959   11.8073   38.9595 C   0  0  1  0  0  0  0  0  0  0  0  0
   -2.0622   13.1187   39.4121 O   0  0  0  0  0  0  0  0  0  0  0  0
   -3.4116   12.9141   36.7435 C   0  0  1  0  0  0  0  0  0  0  0  0
   -3.5701   13.6194   35.4673 C   0  0  2  0  0  0  0  0  0  0  0  0
   -2.3215   14.1207   35.1116 O   0  0  0  0  0  0  0  0  0  0  0  0
   -4.7246   14.5881   35.8020 C   0  0  2  0  0  0  0  0  0  0  0  0
   -4.2084   15.9273   35.6299 O   0  0  0  0  0  0  0  0  0  0  0  0
   -5.0768   14.2887   37.2219 C   0  0  2  0  0  0  0  0  0  0  0  0
   -4.7541   12.8524   37.1957 O   0  0  0  0  0  0  0  0  0  0  0  0
   -6.6106   14.4987   37.5009 C   0  0  0  0  0  0  0  0  0  0  0  0
   -7.4740   13.6258   36.7124 O   0  0  0  0  0  0  0  0  0  0  0  0
   -3.4877   16.5074   36.7591 C   0  0  2  0  0  0  0  0  0  0  0  0
   -3.3342   18.0972   36.5078 C   0  0  2  0  0  0  0  0  0  0  0  0
   -2.6121   18.3241   35.2140 N   0  0  0  0  0  0  0  0  0  0  0  0
   -2.5432   18.7285   37.7567 C   0  0  1  0  0  0  0  0  0  0  0  0
   -3.3266   18.4434   38.9553 O   0  0  0  0  0  0  0  0  0  0  0  0
   -1.0914   18.0745   37.8507 C   0  0  2  0  0  0  0  0  0  0  0  0
   -0.3578   18.4178   36.6120 O   0  0  0  0  0  0  0  0  0  0  0  0
   -1.2705   16.4647   38.0461 C   0  0  1  0  0  0  0  0  0  0  0  0
   -2.0760   15.9025   36.9016 O   0  0  0  0  0  0  0  0  0  0  0  0
    0.1377   15.7869   38.1248 C   0  0  0  0  0  0  0  0  0  0  0  0
    0.8871   15.8541   36.8320 N   0  0  0  0  0  0  0  0  0  0  0  0
  1  3  1  0  0  0  0
  1  2  1  1  0  0  0
  3  4  1  1  0  0  0
  3  5  1  0  0  0  0
  5  6  1  6  0  0  0
  7  8  1  1  0  0  0
  7  5  1  0  0  0  0
  9 11  1  6  0  0  0
  9  7  1  0  0  0  0
 10  9  1  0  0  0  0
 10  1  1  0  0  0  0
 12 11  1  0  0  0  0
 13 14  1  1  0  0  0
 15 13  1  0  0  0  0
 16 17  1  6  0  0  0
 16 15  1  0  0  0  0
 18  2  1  6  0  0  0
 18 19  1  0  0  0  0
 18 16  1  0  0  0  0
 19 20  1  6  0  0  0
 19 21  1  0  0  0  0
 21 22  1  1  0  0  0
 21 13  1  0  0  0  0
 23 20  1  6  0  0  0
 23 29  1  0  0  0  0
 24 25  1  1  0  0  0
 24 26  1  0  0  0  0
 24 23  1  0  0  0  0
 26 27  1  1  0  0  0
 26 28  1  0  0  0  0
 28 30  1  6  0  0  0
 29 28  1  0  0  0  0
 30 31  1  0  0  0  0
 32 27  1  6  0  0  0
 32 40  1  0  0  0  0
 33 35  1  0  0  0  0
 33 32  1  0  0  0  0
 33 34  1  6  0  0  0
 35 36  1  1  0  0  0
 35 37  1  0  0  0  0
 37 38  1  6  0  0  0
 37 39  1  0  0  0  0
 39 41  1  6  0  0  0
 40 39  1  0  0  0  0
 41 42  1  0  0  0  0
M  END
>  <CHROM.1>
-174.86530040,19.41203937,-136.00569663,172.07685546,-179.86563634,-84.44666082
61.66578064,-165.77664419,-67.47984873,-2.66463428,12.01584453,36.88373235
1.55805350,0.58363267,-3.00873612

>  <Name>
lig.pdb

>  <RI>
0

>  <Rbt.Current_Directory>
/home/itssahil/PROJECTS/Mol_Feturizer/New_Systems/rnas/4wcr

>  <Rbt.Executable>
rbdock ($Id: //depot/dev/client3/rdock/2013.1/src/exe/rbdock.cxx#4 $)

>  <Rbt.Library>
libRbt.so (2013.1, Build901 2013/11/27)

>  <Rbt.Parameter_File>
/export/apps/rDock/src/rDock_2013.1_src/data/scripts/dock_solv.prm

>  <Rbt.Receptor>
prm/pocket_docking_2.prm

>  <SCORE>
16.1193

>  <SCORE.INTER>
12.6687

>  <SCORE.INTER.CONST>
1

>  <SCORE.INTER.POLAR>
0

>  <SCORE.INTER.ROT>
9

>  <SCORE.INTER.SOLV>
18.3755

>  <SCORE.INTER.VDW>
-7.27935

>  <SCORE.INTER.norm>
0.301637

>  <SCORE.INTRA>
-0.276053

>  <SCORE.INTRA.DIHEDRAL>
-1.64832

>  <SCORE.INTRA.DIHEDRAL.0>
16.2863

>  <SCORE.INTRA.POLAR>
0

>  <SCORE.INTRA.POLAR.0>
0

>  <SCORE.INTRA.REPUL>
-0.314433

>  <SCORE.INTRA.REPUL.0>
0.314433

>  <SCORE.INTRA.SOLV>
-0.24032

>  <SCORE.INTRA.SOLV.lig_0>
-103.824

>  <SCORE.INTRA.VDW>
2.24043

>  <SCORE.INTRA.VDW.0>
-5.30945

>  <SCORE.INTRA.norm>
-0.0065727

>  <SCORE.RESTR>
3.7266

>  <SCORE.RESTR.CAVITY>
3.7266

>  <SCORE.RESTR.norm>
0.0887285

>  <SCORE.SYSTEM>
0

>  <SCORE.SYSTEM.CONST>
0

>  <SCORE.SYSTEM.DIHEDRAL>
0

>  <SCORE.SYSTEM.SOLV>
0

>  <SCORE.SYSTEM.norm>
0

>  <SCORE.heavy>
42

>  <SCORE.norm>
0.383793

>  <RMSD>
9.388

$$$$
lig.pdb
 OpenBabel11021811513D
libRbt.so/2013.1/901 2013/11/27
 42 45  0  0  0  0  0  0  0  0999 V2000
   -4.3845    7.0074   36.8274 C   0  0  2  0  0  0  0  0  0  0  0  0
   -2.9411    7.2180   36.9233 O   0  0  0  0  0  0  0  0  0  0  0  0
   -4.5887    5.7896   35.8199 C   0  0  2  0  0  0  0  0  0  0  0  0
   -3.9650    4.5762   36.3553 N   0  0  0  0  0  0  0  0  0  0  0  0
   -3.9893    6.1983   34.3869 C   0  0  1  0  0  0  0  0  0  0  0  0
   -4.1578    5.1324   33.4288 O   0  0  0  0  0  0  0  0  0  0  0  0
   -4.7127    7.4805   33.9407 C   0  0  2  0  0  0  0  0  0  0  0  0
   -4.2176    7.8651   32.7035 O   0  0  0  0  0  0  0  0  0  0  0  0
   -4.4956    8.6325   35.0243 C   0  0  2  0  0  0  0  0  0  0  0  0
   -5.0045    8.2435   36.3062 O   0  0  0  0  0  0  0  0  0  0  0  0
   -5.1998    9.9040   34.6441 C   0  0  0  0  0  0  0  0  0  0  0  0
   -6.5951    9.6140   34.5505 O   0  0  0  0  0  0  0  0  0  0  0  0
   -2.6716    9.6099   40.6622 C   0  0  2  0  0  0  0  0  0  0  0  0
   -2.1203   10.3015   41.8071 N   0  0  0  0  0  0  0  0  0  0  0  0
   -2.1901    8.1076   40.6503 C   0  0  0  0  0  0  0  0  0  0  0  0
   -2.7716    7.3356   39.4140 C   0  0  2  0  0  0  0  0  0  0  0  0
   -2.2970    5.9536   39.4366 N   0  0  0  0  0  0  0  0  0  0  0  0
   -2.3491    7.9993   38.0286 C   0  0  2  0  0  0  0  0  0  0  0  0
   -2.8632    9.4680   38.0400 C   0  0  2  0  0  0  0  0  0  0  0  0
   -2.4339   10.0170   36.6994 O   0  0  0  0  0  0  0  0  0  0  0  0
   -2.2037   10.2810   39.2856 C   0  0  1  0  0  0  0  0  0  0  0  0
   -2.6589   11.6646   39.4300 O   0  0  0  0  0  0  0  0  0  0  0  0
   -2.7310   11.3498   36.5871 C   0  0  1  0  0  0  0  0  0  0  0  0
   -2.4650   11.8880   35.2490 C   0  0  2  0  0  0  0  0  0  0  0  0
   -1.0839   11.9787   35.1044 O   0  0  0  0  0  0  0  0  0  0  0  0
   -3.3257   13.1695   35.2653 C   0  0  2  0  0  0  0  0  0  0  0  0
   -2.4207   14.2820   35.0837 O   0  0  0  0  0  0  0  0  0  0  0  0
   -3.9782   13.1760   36.6084 C   0  0  2  0  0  0  0  0  0  0  0  0
   -4.0884   11.7167   36.7697 O   0  0  0  0  0  0  0  0  0  0  0  0
   -5.4083   13.8295   36.5608 C   0  0  0  0  0  0  0  0  0  0  0  0
   -6.3982   13.0213   35.8565 O   0  0  0  0  0  0  0  0  0  0  0  0
   -3.0081   15.6184   35.0879 C   0  0  2  0  0  0  0  0  0  0  0  0
   -1.9166   16.6604   34.5073 C   0  0  2  0  0  0  0  0  0  0  0  0
   -0.6781   16.5969   35.3491 N   0  0  0  0  0  0  0  0  0  0  0  0
   -2.5722   18.1281   34.5117 C   0  0  1  0  0  0  0  0  0  0  0  0
   -3.7664   18.0725   33.6736 O   0  0  0  0  0  0  0  0  0  0  0  0
   -2.9397   18.5405   36.0082 C   0  0  2  0  0  0  0  0  0  0  0  0
   -1.6825   18.5885   36.7876 O   0  0  0  0  0  0  0  0  0  0  0  0
   -3.9968   17.4438   36.5927 C   0  0  1  0  0  0  0  0  0  0  0  0
   -3.3909   16.0649   36.5138 O   0  0  0  0  0  0  0  0  0  0  0  0
   -4.3668   17.8083   38.0688 C   0  0  0  0  0  0  0  0  0  0  0  0
   -5.3724   16.8738   38.6627 N   0  0  0  0  0  0  0  0  0  0  0  0
  1  3  1  0  0  0  0
  1  2  1  6  0  0  0
  3  4  1  1  0  0  0
  3  5  1  0  0  0  0
  5  6  1  6  0  0  0
  7  8  1  6  0  0  0
  7  5  1  0  0  0  0
  9 11  1  6  0  0  0
  9  7  1  0  0  0  0
 10  9  1  0  0  0  0
 10  1  1  0  0  0  0
 12 11  1  0  0  0  0
 13 14  1  1  0  0  0
 15 13  1  0  0  0  0
 16 17  1  6  0  0  0
 16 15  1  0  0  0  0
 18  2  1  6  0  0  0
 18 19  1  0  0  0  0
 18 16  1  0  0  0  0
 19 20  1  6  0  0  0
 19 21  1  0  0  0  0
 21 22  1  1  0  0  0
 21 13  1  0  0  0  0
 23 20  1  6  0  0  0
 23 29  1  0  0  0  0
 24 25  1  1  0  0  0
 24 26  1  0  0  0  0
 24 23  1  0  0  0  0
 26 27  1  1  0  0  0
 26 28  1  0  0  0  0
 28 30  1  6  0  0  0
 29 28  1  0  0  0  0
 30 31  1  0  0  0  0
 32 27  1  1  0  0  0
 32 40  1  0  0  0  0
 33 35  1  0  0  0  0
 33 32  1  0  0  0  0
 33 34  1  1  0  0  0
 35 36  1  6  0  0  0
 35 37  1  0  0  0  0
 37 38  1  1  0  0  0
 37 39  1  0  0  0  0
 39 41  1  1  0  0  0
 40 39  1  0  0  0  0
 41 42  1  0  0  0  0
M  END
>  <CHROM.1>
-162.87421522,60.32085096,57.52656199,-175.61097281,-173.70874636,-178.95682526
70.11149345,-165.86871654,177.98863222,-3.45281724,11.51773725,36.47060129
1.75935758,1.26047306,2.90012728

>  <Name>
lig.pdb

>  <RI>
0

>  <Rbt.Current_Directory>
/home/itssahil/PROJECTS/Mol_Feturizer/New_Systems/rnas/4wcr

>  <Rbt.Executable>
rbdock ($Id: //depot/dev/client3/rdock/2013.1/src/exe/rbdock.cxx#4 $)

>  <Rbt.Library>
libRbt.so (2013.1, Build901 2013/11/27)

>  <Rbt.Parameter_File>
/export/apps/rDock/src/rDock_2013.1_src/data/scripts/dock_solv.prm

>  <Rbt.Receptor>
prm/pocket_docking_4.prm

>  <SCORE>
-9.24829

>  <SCORE.INTER>
0.0398347

>  <SCORE.INTER.CONST>
1

>  <SCORE.INTER.POLAR>
0

>  <SCORE.INTER.ROT>
9

>  <SCORE.INTER.SOLV>
18.1472

>  <SCORE.INTER.VDW>
-15.6225

>  <SCORE.INTER.norm>
0.000948446

>  <SCORE.INTRA>
-9.28813

>  <SCORE.INTRA.DIHEDRAL>
-12.8356

>  <SCORE.INTRA.DIHEDRAL.0>
16.2863

>  <SCORE.INTRA.POLAR>
0

>  <SCORE.INTRA.POLAR.0>
0

>  <SCORE.INTRA.REPUL>
-0.314433

>  <SCORE.INTRA.REPUL.0>
0.314433

>  <SCORE.INTRA.SOLV>
-2.38929

>  <SCORE.INTRA.SOLV.lig_0>
-103.824

>  <SCORE.INTRA.VDW>
-0.103498

>  <SCORE.INTRA.VDW.0>
-5.30945

>  <SCORE.INTRA.norm>
-0.221146

>  <SCORE.RESTR>
0

>  <SCORE.RESTR.CAVITY>
0

>  <SCORE.RESTR.norm>
0

>  <SCORE.SYSTEM>
0

>  <SCORE.SYSTEM.CONST>
0

>  <SCORE.SYSTEM.DIHEDRAL>
0

>  <SCORE.SYSTEM.SOLV>
0

>  <SCORE.SYSTEM.norm>
0

>  <SCORE.heavy>
42

>  <SCORE.norm>
-0.220197

>  <RMSD>
9.391

$$$$
lig.pdb
 OpenBabel11021811513D
libRbt.so/2013.1/901 2013/11/27
 42 45  0  0  0  0  0  0  0  0999 V2000
   -1.8280    7.2400   38.4866 C   0  0  2  0  0  0  0  0  0  0  0  0
   -3.2573    7.4810   38.2971 O   0  0  0  0  0  0  0  0  0  0  0  0
   -1.6804    6.5527   39.9169 C   0  0  2  0  0  0  0  0  0  0  0  0
   -2.3869    5.2690   39.9400 N   0  0  0  0  0  0  0  0  0  0  0  0
   -2.2272    7.5665   41.0363 C   0  0  1  0  0  0  0  0  0  0  0  0
   -2.1067    6.9980   42.3572 O   0  0  0  0  0  0  0  0  0  0  0  0
   -1.4185    8.8685   40.9043 C   0  0  2  0  0  0  0  0  0  0  0  0
   -1.8663    9.7710   41.8574 O   0  0  0  0  0  0  0  0  0  0  0  0
   -1.5844    9.4648   39.4328 C   0  0  2  0  0  0  0  0  0  0  0  0
   -1.1240    8.5385   38.4410 O   0  0  0  0  0  0  0  0  0  0  0  0
   -0.7968   10.7304   39.2452 C   0  0  0  0  0  0  0  0  0  0  0  0
   -1.3601   11.7216   40.1054 O   0  0  0  0  0  0  0  0  0  0  0  0
   -3.5261    7.6167   33.8607 C   0  0  2  0  0  0  0  0  0  0  0  0
   -4.0778    7.6803   32.5248 N   0  0  0  0  0  0  0  0  0  0  0  0
   -4.1560    6.4063   34.6525 C   0  0  0  0  0  0  0  0  0  0  0  0
   -3.5764    6.3180   36.1081 C   0  0  2  0  0  0  0  0  0  0  0  0
   -4.1894    5.1911   36.8080 N   0  0  0  0  0  0  0  0  0  0  0  0
   -3.8378    7.6460   36.9487 C   0  0  2  0  0  0  0  0  0  0  0  0
   -3.1789    8.8242   36.1746 C   0  0  2  0  0  0  0  0  0  0  0  0
   -3.4617   10.0326   37.0363 O   0  0  0  0  0  0  0  0  0  0  0  0
   -3.8323    8.9520   34.6899 C   0  0  1  0  0  0  0  0  0  0  0  0
   -3.2494    9.9965   33.8465 O   0  0  0  0  0  0  0  0  0  0  0  0
   -2.9227   11.1697   36.4945 C   0  0  1  0  0  0  0  0  0  0  0  0
   -3.2212   12.3760   37.2736 C   0  0  2  0  0  0  0  0  0  0  0  0
   -4.5651   12.6776   37.0741 O   0  0  0  0  0  0  0  0  0  0  0  0
   -2.1291   13.3401   36.7627 C   0  0  2  0  0  0  0  0  0  0  0  0
   -2.8124   14.4602   36.1560 O   0  0  0  0  0  0  0  0  0  0  0  0
   -1.3464   12.5426   35.7722 C   0  0  2  0  0  0  0  0  0  0  0  0
   -1.5080   11.2301   36.4195 O   0  0  0  0  0  0  0  0  0  0  0  0
    0.1703   12.9591   35.7535 C   0  0  0  0  0  0  0  0  0  0  0  0
    0.9782   12.1866   34.8156 O   0  0  0  0  0  0  0  0  0  0  0  0
   -1.9833   15.5744   35.7062 C   0  0  2  0  0  0  0  0  0  0  0  0
   -1.3621   16.3091   37.0056 C   0  0  2  0  0  0  0  0  0  0  0  0
   -2.4793   16.7720   37.8912 N   0  0  0  0  0  0  0  0  0  0  0  0
   -0.4481   17.5317   36.5018 C   0  0  1  0  0  0  0  0  0  0  0  0
    0.5944   16.9706   35.6474 O   0  0  0  0  0  0  0  0  0  0  0  0
   -1.3507   18.5727   35.6980 C   0  0  2  0  0  0  0  0  0  0  0  0
   -2.3694   19.1049   36.6304 O   0  0  0  0  0  0  0  0  0  0  0  0
   -2.0125   17.7954   34.4253 C   0  0  1  0  0  0  0  0  0  0  0  0
   -2.8070   16.6101   34.9137 O   0  0  0  0  0  0  0  0  0  0  0  0
   -2.9207   18.7847   33.6222 C   0  0  0  0  0  0  0  0  0  0  0  0
   -3.6245   18.1273   32.4777 N   0  0  0  0  0  0  0  0  0  0  0  0
  1  3  1  0  0  0  0
  1  2  1  1  0  0  0
  3  4  1  6  0  0  0
  3  5  1  0  0  0  0
  5  6  1  1  0  0  0
  7  8  1  1  0  0  0
  7  5  1  0  0  0  0
  9 11  1  1  0  0  0
  9  7  1  0  0  0  0
 10  9  1  0  0  0  0
 10  1  1  0  0  0  0
 12 11  1  0  0  0  0
 13 14  1  6  0  0  0
 15 13  1  0  0  0  0
 16 17  1  1  0  0  0
 16 15  1  0  0  0  0
 18  2  1  1  0  0  0
 18 19  1  0  0  0  0
 18 16  1  0  0  0  0
 19 20  1  1  0  0  0
 19 21  1  0  0  0  0
 21 22  1  6  0  0  0
 21 13  1  0  0  0  0
 23 20  1  1  0  0  0
 23 29  1  0  0  0  0
 24 25  1  6  0  0  0
 24 26  1  0  0  0  0
 24 23  1  0  0  0  0
 26 27  1  6  0  0  0
 26 28  1  0  0  0  0
 28 30  1  1  0  0  0
 29 28  1  0  0  0  0
 30 31  1  0  0  0  0
 32 27  1  1  0  0  0
 32 40  1  0  0  0  0
 33 35  1  0  0  0  0
 33 32  1  0  0  0  0
 33 34  1  1  0  0  0
 35 36  1  6  0  0  0
 35 37  1  0  0  0  0
 37 38  1  1  0  0  0
 37 39  1  0  0  0  0
 39 41  1  1  0  0  0
 40 39  1  0  0  0  0
 41 42  1  0  0  0  0
M  END
>  <CHROM.1>
-157.75138625,-65.34844814,60.45177749,179.15926857,177.67596888,174.42698882
178.93188366,-68.47018961,-176.91127972,-2.29504365,11.55224121,36.91765159
-1.80229600,-1.22063834,-0.51134435

>  <Name>
lig.pdb

>  <RI>
0

>  <Rbt.Current_Directory>
/home/itssahil/PROJECTS/Mol_Feturizer/New_Systems/rnas/4wcr

>  <Rbt.Executable>
rbdock ($Id: //depot/dev/client3/rdock/2013.1/src/exe/rbdock.cxx#4 $)

>  <Rbt.Library>
libRbt.so (2013.1, Build901 2013/11/27)

>  <Rbt.Parameter_File>
/export/apps/rDock/src/rDock_2013.1_src/data/scripts/dock_solv.prm

>  <Rbt.Receptor>
prm/pocket_docking_4.prm

>  <SCORE>
-7.57561

>  <SCORE.INTER>
2.19951

>  <SCORE.INTER.CONST>
1

>  <SCORE.INTER.POLAR>
0

>  <SCORE.INTER.ROT>
9

>  <SCORE.INTER.SOLV>
18.1172

>  <SCORE.INTER.VDW>
-14.1727

>  <SCORE.INTER.norm>
0.0523693

>  <SCORE.INTRA>
-9.77512

>  <SCORE.INTRA.DIHEDRAL>
-12.8912

>  <SCORE.INTRA.DIHEDRAL.0>
16.2863

>  <SCORE.INTRA.POLAR>
0

>  <SCORE.INTRA.POLAR.0>
0

>  <SCORE.INTRA.REPUL>
-0.314433

>  <SCORE.INTRA.REPUL.0>
0.314433

>  <SCORE.INTRA.SOLV>
-2.94869

>  <SCORE.INTRA.SOLV.lig_0>
-103.824

>  <SCORE.INTRA.VDW>
-0.283039

>  <SCORE.INTRA.VDW.0>
-5.30945

>  <SCORE.INTRA.norm>
-0.232741

>  <SCORE.RESTR>
0

>  <SCORE.RESTR.CAVITY>
0

>  <SCORE.RESTR.norm>
0

>  <SCORE.SYSTEM>
0

>  <SCORE.SYSTEM.CONST>
0

>  <SCORE.SYSTEM.DIHEDRAL>
0

>  <SCORE.SYSTEM.SOLV>
0

>  <SCORE.SYSTEM.norm>
0

>  <SCORE.heavy>
42

>  <SCORE.norm>
-0.180372

>  <RMSD>
9.406

$$$$
lig.pdb
 OpenBabel11021811513D
libRbt.so/2013.1/901 2013/11/27
 42 45  0  0  0  0  0  0  0  0999 V2000
   -1.9744   16.9480   36.1574 C   0  0  2  0  0  0  0  0  0  0  0  0
   -0.7065   17.3601   35.5578 O   0  0  0  0  0  0  0  0  0  0  0  0
   -1.6110   16.3272   37.5795 C   0  0  2  0  0  0  0  0  0  0  0  0
   -0.9881   17.3423   38.4336 N   0  0  0  0  0  0  0  0  0  0  0  0
   -0.6591   15.0525   37.3590 C   0  0  1  0  0  0  0  0  0  0  0  0
   -0.3065   14.4418   38.6181 O   0  0  0  0  0  0  0  0  0  0  0  0
   -1.4163   14.0723   36.4467 C   0  0  2  0  0  0  0  0  0  0  0  0
   -0.6211   12.9564   36.2323 O   0  0  0  0  0  0  0  0  0  0  0  0
   -1.7808   14.7857   35.0659 C   0  0  2  0  0  0  0  0  0  0  0  0
   -2.6027   15.9403   35.2779 O   0  0  0  0  0  0  0  0  0  0  0  0
   -2.5400   13.8745   34.1437 C   0  0  0  0  0  0  0  0  0  0  0  0
   -3.9103   13.8967   34.5456 O   0  0  0  0  0  0  0  0  0  0  0  0
   -0.9854   21.3113   33.5371 C   0  0  2  0  0  0  0  0  0  0  0  0
   -0.8601   22.3474   32.5353 N   0  0  0  0  0  0  0  0  0  0  0  0
    0.4275   20.6834   33.8502 C   0  0  0  0  0  0  0  0  0  0  0  0
    0.3181   19.5522   34.9323 C   0  0  2  0  0  0  0  0  0  0  0  0
    1.6441   18.9934   35.1875 N   0  0  0  0  0  0  0  0  0  0  0  0
   -0.6563   18.3739   34.4845 C   0  0  2  0  0  0  0  0  0  0  0  0
   -2.0542   19.0026   34.2157 C   0  0  2  0  0  0  0  0  0  0  0  0
   -2.9126   17.8274   33.8096 O   0  0  0  0  0  0  0  0  0  0  0  0
   -1.9451   20.1275   33.0452 C   0  0  1  0  0  0  0  0  0  0  0  0
   -3.1942   20.8286   32.7442 O   0  0  0  0  0  0  0  0  0  0  0  0
   -3.6383   18.1053   32.6812 C   0  0  1  0  0  0  0  0  0  0  0  0
   -4.5064   16.9977   32.2679 C   0  0  2  0  0  0  0  0  0  0  0  0
   -3.6885   16.0035   31.7393 O   0  0  0  0  0  0  0  0  0  0  0  0
   -5.5159   17.7316   31.3593 C   0  0  2  0  0  0  0  0  0  0  0  0
   -5.3920   17.1486   30.0423 O   0  0  0  0  0  0  0  0  0  0  0  0
   -5.0924   19.1631   31.3935 C   0  0  2  0  0  0  0  0  0  0  0  0
   -4.5700   19.1705   32.7701 O   0  0  0  0  0  0  0  0  0  0  0  0
   -6.3196   20.1393   31.2700 C   0  0  0  0  0  0  0  0  0  0  0  0
   -7.0756   19.9758   30.0327 O   0  0  0  0  0  0  0  0  0  0  0  0
   -6.5451   16.4105   29.5358 C   0  0  2  0  0  0  0  0  0  0  0  0
   -6.1121   15.6532   28.1745 C   0  0  2  0  0  0  0  0  0  0  0  0
   -5.6223   16.6644   27.1825 N   0  0  0  0  0  0  0  0  0  0  0  0
   -7.3857   14.8403   27.6257 C   0  0  1  0  0  0  0  0  0  0  0  0
   -7.7800   13.8967   28.6677 O   0  0  0  0  0  0  0  0  0  0  0  0
   -8.5665   15.8617   27.2991 C   0  0  2  0  0  0  0  0  0  0  0  0
   -8.0974   16.7712   26.2301 O   0  0  0  0  0  0  0  0  0  0  0  0
   -8.9473   16.6548   28.6731 C   0  0  1  0  0  0  0  0  0  0  0  0
   -7.7228   17.3521   29.2108 O   0  0  0  0  0  0  0  0  0  0  0  0
  -10.0935   17.6804   28.3852 C   0  0  0  0  0  0  0  0  0  0  0  0
  -11.4401   17.0354   28.2950 N   0  0  0  0  0  0  0  0  0  0  0  0
  1  3  1  0  0  0  0
  1  2  1  6  0  0  0
  3  4  1  1  0  0  0
  3  5  1  0  0  0  0
  5  6  1  1  0  0  0
  7  8  1  6  0  0  0
  7  5  1  0  0  0  0
  9 11  1  6  0  0  0
  9  7  1  0  0  0  0
 10  9  1  0  0  0  0
 10  1  1  0  0  0  0
 12 11  1  0  0  0  0
 13 14  1  6  0  0  0
 15 13  1  0  0  0  0
 16 17  1  6  0  0  0
 16 15  1  0  0  0  0
 18  2  1  1  0  0  0
 18 19  1  0  0  0  0
 18 16  1  0  0  0  0
 19 20  1  6  0  0  0
 19 21  1  0  0  0  0
 21 22  1  1  0  0  0
 21 13  1  0  0  0  0
 23 20  1  1  0  0  0
 23 29  1  0  0  0  0
 24 25  1  6  0  0  0
 24 26  1  0  0  0  0
 24 23  1  0  0  0  0
 26 27  1  6  0  0  0
 26 28  1  0  0  0  0
 28 30  1  1  0  0  0
 29 28  1  0  0  0  0
 30 31  1  0  0  0  0
 32 27  1  6  0  0  0
 32 40  1  0  0  0  0
 33 35  1  0  0  0  0
 33 32  1  0  0  0  0
 33 34  1  6  0  0  0
 35 36  1  1  0  0  0
 35 37  1  0  0  0  0
 37 38  1  6  0  0  0
 37 39  1  0  0  0  0
 39 41  1  6  0  0  0
 40 39  1  0  0  0  0
 41 42  1  0  0  0  0
M  END
>  <CHROM.1>
-158.53283563,81.47096566,124.28019652,-132.60638216,-178.86286042,114.18749344
-60.16603683,-171.00611997,78.03316007,-3.91339819,17.24373886,32.53174407
0.24876545,0.78175562,2.77522379

>  <Name>
lig.pdb

>  <RI>
0

>  <Rbt.Current_Directory>
/home/itssahil/PROJECTS/Mol_Feturizer/New_Systems/rnas/4wcr

>  <Rbt.Executable>
rbdock ($Id: //depot/dev/client3/rdock/2013.1/src/exe/rbdock.cxx#4 $)

>  <Rbt.Library>
libRbt.so (2013.1, Build901 2013/11/27)

>  <Rbt.Parameter_File>
/export/apps/rDock/src/rDock_2013.1_src/data/scripts/dock_solv.prm

>  <Rbt.Receptor>
prm/blind_docking_60.prm

>  <SCORE>
12.3627

>  <SCORE.INTER>
-3.5602

>  <SCORE.INTER.CONST>
1

>  <SCORE.INTER.POLAR>
0

>  <SCORE.INTER.ROT>
9

>  <SCORE.INTER.SOLV>
33.7067

>  <SCORE.INTER.VDW>
-23.209

>  <SCORE.INTER.norm>
-0.0847666

>  <SCORE.INTRA>
12.3197

>  <SCORE.INTRA.DIHEDRAL>
9.67702

>  <SCORE.INTRA.DIHEDRAL.0>
16.2863

>  <SCORE.INTRA.POLAR>
0

>  <SCORE.INTRA.POLAR.0>
0

>  <SCORE.INTRA.REPUL>
-0.314433

>  <SCORE.INTRA.REPUL.0>
0.314433

>  <SCORE.INTRA.SOLV>
-3.93249

>  <SCORE.INTRA.SOLV.lig_0>
-103.824

>  <SCORE.INTRA.VDW>
11.0196

>  <SCORE.INTRA.VDW.0>
-5.30945

>  <SCORE.INTRA.norm>
0.293327

>  <SCORE.RESTR>
3.60319

>  <SCORE.RESTR.CAVITY>
3.60319

>  <SCORE.RESTR.norm>
0.0857902

>  <SCORE.SYSTEM>
0

>  <SCORE.SYSTEM.CONST>
0

>  <SCORE.SYSTEM.DIHEDRAL>
0

>  <SCORE.SYSTEM.SOLV>
0

>  <SCORE.SYSTEM.norm>
0

>  <SCORE.heavy>
42

>  <SCORE.norm>
0.29435

>  <RMSD>
9.417

$$$$
lig.pdb
 OpenBabel11021811513D
libRbt.so/2013.1/901 2013/11/27
 42 45  0  0  0  0  0  0  0  0999 V2000
   -1.1066   20.4261   35.0781 C   0  0  2  0  0  0  0  0  0  0  0  0
   -1.8909   19.2261   34.7916 O   0  0  0  0  0  0  0  0  0  0  0  0
   -2.1538   21.5473   35.5098 C   0  0  2  0  0  0  0  0  0  0  0  0
   -2.8627   21.1402   36.7262 N   0  0  0  0  0  0  0  0  0  0  0  0
   -3.1567   21.8170   34.2845 C   0  0  1  0  0  0  0  0  0  0  0  0
   -4.1233   22.8356   34.6173 O   0  0  0  0  0  0  0  0  0  0  0  0
   -2.2976   22.2250   33.0754 C   0  0  2  0  0  0  0  0  0  0  0  0
   -3.1329   22.4647   31.9945 O   0  0  0  0  0  0  0  0  0  0  0  0
   -1.2484   21.0697   32.7393 C   0  0  2  0  0  0  0  0  0  0  0  0
   -0.3808   20.8152   33.8510 O   0  0  0  0  0  0  0  0  0  0  0  0
   -0.3696   21.4277   31.5745 C   0  0  0  0  0  0  0  0  0  0  0  0
   -1.2207   21.7501   30.4739 O   0  0  0  0  0  0  0  0  0  0  0  0
   -0.1277   15.2309   35.6292 C   0  0  2  0  0  0  0  0  0  0  0  0
    0.2306   14.0111   36.3197 N   0  0  0  0  0  0  0  0  0  0  0  0
    0.3269   16.4858   36.4702 C   0  0  0  0  0  0  0  0  0  0  0  0
   -0.0547   17.8235   35.7439 C   0  0  2  0  0  0  0  0  0  0  0  0
    0.3764   18.9585   36.5573 N   0  0  0  0  0  0  0  0  0  0  0  0
   -1.6212   17.9478   35.4811 C   0  0  2  0  0  0  0  0  0  0  0  0
   -2.0473   16.7239   34.6196 C   0  0  2  0  0  0  0  0  0  0  0  0
   -3.5302   16.9222   34.4094 O   0  0  0  0  0  0  0  0  0  0  0  0
   -1.7099   15.3412   35.4082 C   0  0  1  0  0  0  0  0  0  0  0  0
   -2.0184   14.1170   34.6677 O   0  0  0  0  0  0  0  0  0  0  0  0
   -3.8015   17.3491   33.1360 C   0  0  1  0  0  0  0  0  0  0  0  0
   -4.8985   16.6099   32.5025 C   0  0  2  0  0  0  0  0  0  0  0  0
   -4.4189   15.3416   32.1897 O   0  0  0  0  0  0  0  0  0  0  0  0
   -5.3026   17.5829   31.3742 C   0  0  2  0  0  0  0  0  0  0  0  0
   -5.0970   16.8828   30.1263 O   0  0  0  0  0  0  0  0  0  0  0  0
   -4.3884   18.7530   31.5311 C   0  0  2  0  0  0  0  0  0  0  0  0
   -4.2499   18.6869   32.9955 O   0  0  0  0  0  0  0  0  0  0  0  0
   -5.0837   20.0993   31.1087 C   0  0  0  0  0  0  0  0  0  0  0  0
   -6.4711   20.2048   31.5483 O   0  0  0  0  0  0  0  0  0  0  0  0
   -5.9231   17.2933   28.9950 C   0  0  2  0  0  0  0  0  0  0  0  0
   -7.0837   18.2794   29.5380 C   0  0  2  0  0  0  0  0  0  0  0  0
   -7.8886   17.5653   30.5815 N   0  0  0  0  0  0  0  0  0  0  0  0
   -7.9860   18.7295   28.2862 C   0  0  1  0  0  0  0  0  0  0  0  0
   -7.1051   19.4026   27.3362 O   0  0  0  0  0  0  0  0  0  0  0  0
   -8.6625   17.4427   27.6298 C   0  0  2  0  0  0  0  0  0  0  0  0
   -9.5463   16.8269   28.6446 O   0  0  0  0  0  0  0  0  0  0  0  0
   -7.4742   16.4369   27.1416 C   0  0  1  0  0  0  0  0  0  0  0  0
   -6.5965   16.0831   28.3160 O   0  0  0  0  0  0  0  0  0  0  0  0
   -8.1034   15.1524   26.5069 C   0  0  0  0  0  0  0  0  0  0  0  0
   -8.9781   15.4547   25.3317 N   0  0  0  0  0  0  0  0  0  0  0  0
  1  3  1  0  0  0  0
  1  2  1  6  0  0  0
  3  4  1  1  0  0  0
  3  5  1  0  0  0  0
  5  6  1  1  0  0  0
  7  8  1  6  0  0  0
  7  5  1  0  0  0  0
  9 11  1  6  0  0  0
  9  7  1  0  0  0  0
 10  9  1  0  0  0  0
 10  1  1  0  0  0  0
 12 11  1  0  0  0  0
 13 14  1  1  0  0  0
 15 13  1  0  0  0  0
 16 17  1  1  0  0  0
 16 15  1  0  0  0  0
 18  2  1  6  0  0  0
 18 19  1  0  0  0  0
 18 16  1  0  0  0  0
 19 20  1  1  0  0  0
 19 21  1  0  0  0  0
 21 22  1  6  0  0  0
 21 13  1  0  0  0  0
 23 20  1  1  0  0  0
 23 29  1  0  0  0  0
 24 25  1  6  0  0  0
 24 26  1  0  0  0  0
 24 23  1  0  0  0  0
 26 27  1  6  0  0  0
 26 28  1  0  0  0  0
 28 30  1  1  0  0  0
 29 28  1  0  0  0  0
 30 31  1  0  0  0  0
 32 27  1  1  0  0  0
 32 40  1  0  0  0  0
 33 35  1  0  0  0  0
 33 32  1  0  0  0  0
 33 34  1  1  0  0  0
 35 36  1  6  0  0  0
 35 37  1  0  0  0  0
 37 38  1  1  0  0  0
 37 39  1  0  0  0  0
 39 41  1  1  0  0  0
 40 39  1  0  0  0  0
 41 42  1  0  0  0  0
M  END
>  <CHROM.1>
-123.91558749,-55.03494658,-34.61966719,105.08948615,133.08525237,153.07918533
40.86617211,-10.71168808,59.16353561,-3.90768703,18.36049193,32.23124562
0.09453728,-0.83306897,-0.10126773

>  <Name>
lig.pdb

>  <RI>
0

>  <Rbt.Current_Directory>
/home/itssahil/PROJECTS/Mol_Feturizer/New_Systems/rnas/4wcr

>  <Rbt.Executable>
rbdock ($Id: //depot/dev/client3/rdock/2013.1/src/exe/rbdock.cxx#4 $)

>  <Rbt.Library>
libRbt.so (2013.1, Build901 2013/11/27)

>  <Rbt.Parameter_File>
/export/apps/rDock/src/rDock_2013.1_src/data/scripts/dock_solv.prm

>  <Rbt.Receptor>
prm/blind_docking_100.prm

>  <SCORE>
15.6002

>  <SCORE.INTER>
-3.6302

>  <SCORE.INTER.CONST>
1

>  <SCORE.INTER.POLAR>
0

>  <SCORE.INTER.ROT>
9

>  <SCORE.INTER.SOLV>
34.4489

>  <SCORE.INTER.VDW>
-23.5031

>  <SCORE.INTER.norm>
-0.0864334

>  <SCORE.INTRA>
13.0529

>  <SCORE.INTRA.DIHEDRAL>
17.3833

>  <SCORE.INTRA.DIHEDRAL.0>
16.2863

>  <SCORE.INTRA.POLAR>
0

>  <SCORE.INTRA.POLAR.0>
0

>  <SCORE.INTRA.REPUL>
-0.314433

>  <SCORE.INTRA.REPUL.0>
0.314433

>  <SCORE.INTRA.SOLV>
1.37732

>  <SCORE.INTRA.SOLV.lig_0>
-103.824

>  <SCORE.INTRA.VDW>
5.24479

>  <SCORE.INTRA.VDW.0>
-5.30945

>  <SCORE.INTRA.norm>
0.310784

>  <SCORE.RESTR>
6.17752

>  <SCORE.RESTR.CAVITY>
6.17752

>  <SCORE.RESTR.norm>
0.147084

>  <SCORE.SYSTEM>
0

>  <SCORE.SYSTEM.CONST>
0

>  <SCORE.SYSTEM.DIHEDRAL>
0

>  <SCORE.SYSTEM.SOLV>
0

>  <SCORE.SYSTEM.norm>
0

>  <SCORE.heavy>
42

>  <SCORE.norm>
0.371434

>  <RMSD>
9.424

$$$$
lig.pdb
 OpenBabel11021811513D
libRbt.so/2013.1/901 2013/11/27
 42 45  0  0  0  0  0  0  0  0999 V2000
   -4.1820    6.7437   37.3374 C   0  0  2  0  0  0  0  0  0  0  0  0
   -2.7330    6.8759   37.4793 O   0  0  0  0  0  0  0  0  0  0  0  0
   -4.4233    5.4455   36.4450 C   0  0  2  0  0  0  0  0  0  0  0  0
   -3.9010    4.2567   37.1245 N   0  0  0  0  0  0  0  0  0  0  0  0
   -3.7417    5.6720   35.0084 C   0  0  1  0  0  0  0  0  0  0  0  0
   -3.9397    4.5275   34.1519 O   0  0  0  0  0  0  0  0  0  0  0  0
   -4.3626    6.9441   34.4062 C   0  0  2  0  0  0  0  0  0  0  0  0
   -3.7945    7.1725   33.1618 O   0  0  0  0  0  0  0  0  0  0  0  0
   -4.1158    8.1837   35.3813 C   0  0  2  0  0  0  0  0  0  0  0  0
   -4.6998    7.9563   36.6701 O   0  0  0  0  0  0  0  0  0  0  0  0
   -4.7210    9.4507   34.8468 C   0  0  0  0  0  0  0  0  0  0  0  0
   -6.1378    9.3488   34.9944 O   0  0  0  0  0  0  0  0  0  0  0  0
   -2.4047    9.5660   41.0046 C   0  0  2  0  0  0  0  0  0  0  0  0
   -1.8357   10.3995   42.0412 N   0  0  0  0  0  0  0  0  0  0  0  0
   -1.7584    8.1275   41.0471 C   0  0  0  0  0  0  0  0  0  0  0  0
   -2.3563    7.2041   39.9280 C   0  0  2  0  0  0  0  0  0  0  0  0
   -1.7274    5.8867   39.9972 N   0  0  0  0  0  0  0  0  0  0  0  0
   -2.1375    7.7995   38.4665 C   0  0  2  0  0  0  0  0  0  0  0  0
   -2.8124    9.2012   38.4290 C   0  0  2  0  0  0  0  0  0  0  0  0
   -2.5697    9.6871   37.0192 O   0  0  0  0  0  0  0  0  0  0  0  0
   -2.1411   10.1744   39.5470 C   0  0  1  0  0  0  0  0  0  0  0  0
   -2.7360   11.5083   39.6416 O   0  0  0  0  0  0  0  0  0  0  0  0
   -2.7221   11.0456   36.9259 C   0  0  1  0  0  0  0  0  0  0  0  0
   -2.3823   11.5732   35.6003 C   0  0  2  0  0  0  0  0  0  0  0  0
   -0.9974   11.5188   35.4738 O   0  0  0  0  0  0  0  0  0  0  0  0
   -3.1022   12.9385   35.6280 C   0  0  2  0  0  0  0  0  0  0  0  0
   -2.0819   13.9512   35.4761 O   0  0  0  0  0  0  0  0  0  0  0  0
   -3.7687   12.9935   36.9631 C   0  0  2  0  0  0  0  0  0  0  0  0
   -4.0353   11.5518   37.0984 O   0  0  0  0  0  0  0  0  0  0  0  0
   -5.1205   13.7961   36.9094 C   0  0  0  0  0  0  0  0  0  0  0  0
   -6.2452   13.0154   36.4046 O   0  0  0  0  0  0  0  0  0  0  0  0
   -2.5351   15.3351   35.3745 C   0  0  2  0  0  0  0  0  0  0  0  0
   -1.2374   16.2933   35.2647 C   0  0  2  0  0  0  0  0  0  0  0  0
   -0.3660   16.0824   36.4660 N   0  0  0  0  0  0  0  0  0  0  0  0
   -1.7449   17.8142   35.1495 C   0  0  1  0  0  0  0  0  0  0  0  0
   -2.5847   17.9022   33.9584 O   0  0  0  0  0  0  0  0  0  0  0  0
   -2.5665   18.2001   36.4612 C   0  0  2  0  0  0  0  0  0  0  0  0
   -1.6482   18.1010   37.6175 O   0  0  0  0  0  0  0  0  0  0  0  0
   -3.8374   17.1842   36.5824 C   0  0  1  0  0  0  0  0  0  0  0  0
   -3.3446   15.7592   36.6170 O   0  0  0  0  0  0  0  0  0  0  0  0
   -4.6579   17.5236   37.8709 C   0  0  0  0  0  0  0  0  0  0  0  0
   -3.8904   17.2738   39.1301 N   0  0  0  0  0  0  0  0  0  0  0  0
  1  3  1  0  0  0  0
  1  2  1  6  0  0  0
  3  4  1  1  0  0  0
  3  5  1  0  0  0  0
  5  6  1  6  0  0  0
  7  8  1  6  0  0  0
  7  5  1  0  0  0  0
  9 11  1  6  0  0  0
  9  7  1  0  0  0  0
 10  9  1  0  0  0  0
 10  1  1  0  0  0  0
 12 11  1  0  0  0  0
 13 14  1  1  0  0  0
 15 13  1  0  0  0  0
 16 17  1  6  0  0  0
 16 15  1  0  0  0  0
 18  2  1  6  0  0  0
 18 19  1  0  0  0  0
 18 16  1  0  0  0  0
 19 20  1  6  0  0  0
 19 21  1  0  0  0  0
 21 22  1  1  0  0  0
 21 13  1  0  0  0  0
 23 20  1  6  0  0  0
 23 29  1  0  0  0  0
 24 25  1  1  0  0  0
 24 26  1  0  0  0  0
 24 23  1  0  0  0  0
 26 27  1  1  0  0  0
 26 28  1  0  0  0  0
 28 30  1  6  0  0  0
 29 28  1  0  0  0  0
 30 31  1  0  0  0  0
 32 27  1  1  0  0  0
 32 40  1  0  0  0  0
 33 35  1  0  0  0  0
 33 32  1  0  0  0  0
 33 34  1  1  0  0  0
 35 36  1  6  0  0  0
 35 37  1  0  0  0  0
 37 38  1  1  0  0  0
 37 39  1  0  0  0  0
 39 41  1  1  0  0  0
 40 39  1  0  0  0  0
 41 42  1  0  0  0  0
M  END
>  <CHROM.1>
-167.23532083,72.93062744,71.98801577,-161.07031617,175.01945747,175.66878398
80.92144086,178.03107843,-65.29752738,-3.16235744,11.24832962,36.89641755
1.81255889,1.25643736,2.86079237

>  <Name>
lig.pdb

>  <RI>
0

>  <Rbt.Current_Directory>
/home/itssahil/PROJECTS/Mol_Feturizer/New_Systems/rnas/4wcr

>  <Rbt.Executable>
rbdock ($Id: //depot/dev/client3/rdock/2013.1/src/exe/rbdock.cxx#4 $)

>  <Rbt.Library>
libRbt.so (2013.1, Build901 2013/11/27)

>  <Rbt.Parameter_File>
/export/apps/rDock/src/rDock_2013.1_src/data/scripts/dock_solv.prm

>  <Rbt.Receptor>
prm/pocket_docking_2.prm

>  <SCORE>
1.37714

>  <SCORE.INTER>
1.28379

>  <SCORE.INTER.CONST>
1

>  <SCORE.INTER.POLAR>
0

>  <SCORE.INTER.ROT>
9

>  <SCORE.INTER.SOLV>
14.0674

>  <SCORE.INTER.VDW>
-13.4333

>  <SCORE.INTER.norm>
0.0305665

>  <SCORE.INTRA>
-4.69012

>  <SCORE.INTRA.DIHEDRAL>
-10.5787

>  <SCORE.INTRA.DIHEDRAL.0>
16.2863

>  <SCORE.INTRA.POLAR>
0

>  <SCORE.INTRA.POLAR.0>
0

>  <SCORE.INTRA.REPUL>
-0.302952

>  <SCORE.INTRA.REPUL.0>
0.314433

>  <SCORE.INTRA.SOLV>
-1.30728

>  <SCORE.INTRA.SOLV.lig_0>
-103.824

>  <SCORE.INTRA.VDW>
2.76761

>  <SCORE.INTRA.VDW.0>
-5.30945

>  <SCORE.INTRA.norm>
-0.11167

>  <SCORE.RESTR>
4.78347

>  <SCORE.RESTR.CAVITY>
4.78347

>  <SCORE.RESTR.norm>
0.113892

>  <SCORE.SYSTEM>
0

>  <SCORE.SYSTEM.CONST>
0

>  <SCORE.SYSTEM.DIHEDRAL>
0

>  <SCORE.SYSTEM.SOLV>
0

>  <SCORE.SYSTEM.norm>
0

>  <SCORE.heavy>
42

>  <SCORE.norm>
0.032789

>  <RMSD>
9.425

$$$$
lig.pdb
 OpenBabel11021811513D
libRbt.so/2013.1/901 2013/11/27
 42 45  0  0  0  0  0  0  0  0999 V2000
   -3.5635    8.7424   38.4917 C   0  0  2  0  0  0  0  0  0  0  0  0
   -2.6231    8.7428   37.3725 O   0  0  0  0  0  0  0  0  0  0  0  0
   -3.5807   10.2326   39.0564 C   0  0  2  0  0  0  0  0  0  0  0  0
   -4.0631   11.1603   38.0296 N   0  0  0  0  0  0  0  0  0  0  0  0
   -2.1056   10.6081   39.5689 C   0  0  1  0  0  0  0  0  0  0  0  0
   -2.0653   11.9481   40.1031 O   0  0  0  0  0  0  0  0  0  0  0  0
   -1.7130    9.5641   40.6284 C   0  0  2  0  0  0  0  0  0  0  0  0
   -0.4396    9.8568   41.0935 O   0  0  0  0  0  0  0  0  0  0  0  0
   -1.7653    8.1000   39.9944 C   0  0  2  0  0  0  0  0  0  0  0  0
   -3.0780    7.7889   39.5110 O   0  0  0  0  0  0  0  0  0  0  0  0
   -1.4077    7.0388   40.9961 C   0  0  0  0  0  0  0  0  0  0  0  0
   -1.2118    5.8180   40.2813 O   0  0  0  0  0  0  0  0  0  0  0  0
   -1.4858    6.1322   33.9572 C   0  0  2  0  0  0  0  0  0  0  0  0
   -1.5632    5.1324   32.9144 N   0  0  0  0  0  0  0  0  0  0  0  0
   -1.8485    5.4922   35.3527 C   0  0  0  0  0  0  0  0  0  0  0  0
   -1.7761    6.5587   36.5015 C   0  0  2  0  0  0  0  0  0  0  0  0
   -2.1251    5.9283   37.7730 N   0  0  0  0  0  0  0  0  0  0  0  0
   -2.7585    7.7881   36.2532 C   0  0  2  0  0  0  0  0  0  0  0  0
   -2.3644    8.4315   34.8922 C   0  0  2  0  0  0  0  0  0  0  0  0
   -3.3287    9.5844   34.7390 O   0  0  0  0  0  0  0  0  0  0  0  0
   -2.5064    7.3381   33.6956 C   0  0  1  0  0  0  0  0  0  0  0  0
   -2.1077    7.8169   32.3712 O   0  0  0  0  0  0  0  0  0  0  0  0
   -2.7295   10.7799   35.0375 C   0  0  1  0  0  0  0  0  0  0  0  0
   -3.6904   11.8633   35.2697 C   0  0  2  0  0  0  0  0  0  0  0  0
   -4.2288   12.2130   34.0350 O   0  0  0  0  0  0  0  0  0  0  0  0
   -2.8199   12.8739   36.0469 C   0  0  2  0  0  0  0  0  0  0  0  0
   -2.7756   14.0821   35.2545 O   0  0  0  0  0  0  0  0  0  0  0  0
   -1.4838   12.2179   36.1651 C   0  0  2  0  0  0  0  0  0  0  0  0
   -1.9634   10.8273   36.2298 O   0  0  0  0  0  0  0  0  0  0  0  0
   -0.7572   12.6076   37.5048 C   0  0  0  0  0  0  0  0  0  0  0  0
   -0.1437   13.9312   37.4744 O   0  0  0  0  0  0  0  0  0  0  0  0
   -2.0155   15.2024   35.8006 C   0  0  2  0  0  0  0  0  0  0  0  0
   -2.6286   15.5816   37.2478 C   0  0  2  0  0  0  0  0  0  0  0  0
   -4.0809   15.9196   37.0946 N   0  0  0  0  0  0  0  0  0  0  0  0
   -1.7842   16.8129   37.8435 C   0  0  1  0  0  0  0  0  0  0  0  0
   -0.3939   16.3781   37.9420 O   0  0  0  0  0  0  0  0  0  0  0  0
   -1.9249   18.0714   36.8735 C   0  0  2  0  0  0  0  0  0  0  0  0
   -3.3527   18.4590   36.8371 O   0  0  0  0  0  0  0  0  0  0  0  0
   -1.3538   17.6478   35.4051 C   0  0  1  0  0  0  0  0  0  0  0  0
   -2.1107   16.4472   34.8947 O   0  0  0  0  0  0  0  0  0  0  0  0
   -1.4929   18.8563   34.4208 C   0  0  0  0  0  0  0  0  0  0  0  0
   -2.8914   19.3807   34.3397 N   0  0  0  0  0  0  0  0  0  0  0  0
  1  3  1  0  0  0  0
  1  2  1  6  0  0  0
  3  4  1  6  0  0  0
  3  5  1  0  0  0  0
  5  6  1  1  0  0  0
  7  8  1  6  0  0  0
  7  5  1  0  0  0  0
  9 11  1  1  0  0  0
  9  7  1  0  0  0  0
 10  9  1  0  0  0  0
 10  1  1  0  0  0  0
 12 11  1  0  0  0  0
 13 14  1  6  0  0  0
 15 13  1  0  0  0  0
 16 17  1  1  0  0  0
 16 15  1  0  0  0  0
 18  2  1  1  0  0  0
 18 19  1  0  0  0  0
 18 16  1  0  0  0  0
 19 20  1  6  0  0  0
 19 21  1  0  0  0  0
 21 22  1  6  0  0  0
 21 13  1  0  0  0  0
 23 20  1  1  0  0  0
 23 29  1  0  0  0  0
 24 25  1  6  0  0  0
 24 26  1  0  0  0  0
 24 23  1  0  0  0  0
 26 27  1  6  0  0  0
 26 28  1  0  0  0  0
 28 30  1  1  0  0  0
 29 28  1  0  0  0  0
 30 31  1  0  0  0  0
 32 27  1  6  0  0  0
 32 40  1  0  0  0  0
 33 35  1  0  0  0  0
 33 32  1  0  0  0  0
 33 34  1  6  0  0  0
 35 36  1  6  0  0  0
 35 37  1  0  0  0  0
 37 38  1  6  0  0  0
 37 39  1  0  0  0  0
 39 41  1  6  0  0  0
 40 39  1  0  0  0  0
 41 42  1  0  0  0  0
M  END
>  <CHROM.1>
-152.43760426,-168.17340881,-97.71023065,102.30135944,-163.86965491,179.20127508
-78.25209811,-57.86645220,-54.90813900,-2.23283211,11.44478050,36.80345183
-1.45241328,-1.45148041,0.01837090

>  <Name>
lig.pdb

>  <RI>
0

>  <Rbt.Current_Directory>
/home/itssahil/PROJECTS/Mol_Feturizer/New_Systems/rnas/4wcr

>  <Rbt.Executable>
rbdock ($Id: //depot/dev/client3/rdock/2013.1/src/exe/rbdock.cxx#4 $)

>  <Rbt.Library>
libRbt.so (2013.1, Build901 2013/11/27)

>  <Rbt.Parameter_File>
/export/apps/rDock/src/rDock_2013.1_src/data/scripts/dock_solv.prm

>  <Rbt.Receptor>
prm/pocket_docking_2.prm

>  <SCORE>
18.404

>  <SCORE.INTER>
7.2599

>  <SCORE.INTER.CONST>
1

>  <SCORE.INTER.POLAR>
0

>  <SCORE.INTER.ROT>
9

>  <SCORE.INTER.SOLV>
9.3348

>  <SCORE.INTER.VDW>
-7.87167

>  <SCORE.INTER.norm>
0.172855

>  <SCORE.INTRA>
6.25352

>  <SCORE.INTRA.DIHEDRAL>
0.989769

>  <SCORE.INTRA.DIHEDRAL.0>
16.2863

>  <SCORE.INTRA.POLAR>
0

>  <SCORE.INTRA.POLAR.0>
0

>  <SCORE.INTRA.REPUL>
0.33713

>  <SCORE.INTRA.REPUL.0>
0.314433

>  <SCORE.INTRA.SOLV>
7.20144

>  <SCORE.INTRA.SOLV.lig_0>
-103.824

>  <SCORE.INTRA.VDW>
0.47227

>  <SCORE.INTRA.VDW.0>
-5.30945

>  <SCORE.INTRA.norm>
0.148893

>  <SCORE.RESTR>
4.89061

>  <SCORE.RESTR.CAVITY>
4.89061

>  <SCORE.RESTR.norm>
0.116443

>  <SCORE.SYSTEM>
0

>  <SCORE.SYSTEM.CONST>
0

>  <SCORE.SYSTEM.DIHEDRAL>
0

>  <SCORE.SYSTEM.SOLV>
0

>  <SCORE.SYSTEM.norm>
0

>  <SCORE.heavy>
42

>  <SCORE.norm>
0.438191

>  <RMSD>
9.426

$$$$
lig.pdb
 OpenBabel11021811513D
libRbt.so/2013.1/901 2013/11/27
 42 45  0  0  0  0  0  0  0  0999 V2000
   -4.1492    9.5513   35.4156 C   0  0  2  0  0  0  0  0  0  0  0  0
   -4.4721    8.3207   36.1356 O   0  0  0  0  0  0  0  0  0  0  0  0
   -5.5224   10.0799   34.8034 C   0  0  2  0  0  0  0  0  0  0  0  0
   -6.4715   10.3908   35.8760 N   0  0  0  0  0  0  0  0  0  0  0  0
   -6.0949    8.9748   33.7881 C   0  0  1  0  0  0  0  0  0  0  0  0
   -7.3366    9.4074   33.1935 O   0  0  0  0  0  0  0  0  0  0  0  0
   -5.0116    8.7315   32.7233 C   0  0  2  0  0  0  0  0  0  0  0  0
   -5.4721    7.7780   31.8274 O   0  0  0  0  0  0  0  0  0  0  0  0
   -3.6599    8.2499   33.4228 C   0  0  2  0  0  0  0  0  0  0  0  0
   -3.1767    9.2293   34.3506 O   0  0  0  0  0  0  0  0  0  0  0  0
   -2.5611    8.0160   32.4253 C   0  0  0  0  0  0  0  0  0  0  0  0
   -2.2774    9.2652   31.7939 O   0  0  0  0  0  0  0  0  0  0  0  0
   -2.4932    6.2591   39.5424 C   0  0  2  0  0  0  0  0  0  0  0  0
   -1.5522    5.4627   40.2995 N   0  0  0  0  0  0  0  0  0  0  0  0
   -3.0763    5.4175   38.3422 C   0  0  0  0  0  0  0  0  0  0  0  0
   -4.0978    6.2615   37.5015 C   0  0  2  0  0  0  0  0  0  0  0  0
   -4.6076    5.4497   36.3984 N   0  0  0  0  0  0  0  0  0  0  0  0
   -3.4456    7.5863   36.9032 C   0  0  2  0  0  0  0  0  0  0  0  0
   -2.9089    8.4227   38.1007 C   0  0  2  0  0  0  0  0  0  0  0  0
   -2.3212    9.6547   37.4529 O   0  0  0  0  0  0  0  0  0  0  0  0
   -1.8007    7.5659   38.9284 C   0  0  1  0  0  0  0  0  0  0  0  0
   -1.2636    8.2341   40.1147 O   0  0  0  0  0  0  0  0  0  0  0  0
   -2.1901   10.6785   38.3540 C   0  0  1  0  0  0  0  0  0  0  0  0
   -1.5732   11.8775   37.7771 C   0  0  2  0  0  0  0  0  0  0  0  0
   -0.2220   11.6013   37.5912 O   0  0  0  0  0  0  0  0  0  0  0  0
   -2.0085   12.9560   38.7922 C   0  0  2  0  0  0  0  0  0  0  0  0
   -0.7986   13.5086   39.3582 O   0  0  0  0  0  0  0  0  0  0  0  0
   -2.8297   12.2234   39.8015 C   0  0  2  0  0  0  0  0  0  0  0  0
   -3.3897   11.2128   38.8889 O   0  0  0  0  0  0  0  0  0  0  0  0
   -3.9773   13.1253   40.3878 C   0  0  0  0  0  0  0  0  0  0  0  0
   -3.4948   14.3452   41.0267 O   0  0  0  0  0  0  0  0  0  0  0  0
    0.0847   14.2328   38.4492 C   0  0  2  0  0  0  0  0  0  0  0  0
    1.3290   14.8176   39.3001 C   0  0  2  0  0  0  0  0  0  0  0  0
    0.8073   15.7048   40.3898 N   0  0  0  0  0  0  0  0  0  0  0  0
    2.2982   15.6100   38.2918 C   0  0  1  0  0  0  0  0  0  0  0  0
    2.7375   14.6588   37.2750 O   0  0  0  0  0  0  0  0  0  0  0  0
    1.5009   16.8254   37.6348 C   0  0  2  0  0  0  0  0  0  0  0  0
    1.1035   17.7479   38.7217 O   0  0  0  0  0  0  0  0  0  0  0  0
    0.2186   16.2167   36.8304 C   0  0  1  0  0  0  0  0  0  0  0  0
   -0.6403   15.4173   37.7781 O   0  0  0  0  0  0  0  0  0  0  0  0
   -0.5983   17.3856   36.1862 C   0  0  0  0  0  0  0  0  0  0  0  0
    0.1890   18.1540   35.1728 N   0  0  0  0  0  0  0  0  0  0  0  0
  1  3  1  0  0  0  0
  1  2  1  6  0  0  0
  3  4  1  1  0  0  0
  3  5  1  0  0  0  0
  5  6  1  6  0  0  0
  7  8  1  6  0  0  0
  7  5  1  0  0  0  0
  9 11  1  6  0  0  0
  9  7  1  0  0  0  0
 10  9  1  0  0  0  0
 10  1  1  0  0  0  0
 12 11  1  0  0  0  0
 13 14  1  6  0  0  0
 15 13  1  0  0  0  0
 16 17  1  6  0  0  0
 16 15  1  0  0  0  0
 18  2  1  1  0  0  0
 18 19  1  0  0  0  0
 18 16  1  0  0  0  0
 19 20  1  6  0  0  0
 19 21  1  0  0  0  0
 21 22  1  1  0  0  0
 21 13  1  0  0  0  0
 23 20  1  6  0  0  0
 23 29  1  0  0  0  0
 24 25  1  1  0  0  0
 24 26  1  0  0  0  0
 24 23  1  0  0  0  0
 26 27  1  1  0  0  0
 26 28  1  0  0  0  0
 28 30  1  6  0  0  0
 29 28  1  0  0  0  0
 30 31  1  0  0  0  0
 32 27  1  1  0  0  0
 32 40  1  0  0  0  0
 33 35  1  0  0  0  0
 33 32  1  0  0  0  0
 33 34  1  1  0  0  0
 35 36  1  6  0  0  0
 35 37  1  0  0  0  0
 37 38  1  1  0  0  0
 37 39  1  0  0  0  0
 39 41  1  1  0  0  0
 40 39  1  0  0  0  0
 41 42  1  0  0  0  0
M  END
>  <CHROM.1>
-176.46258712,62.86151006,-177.14146786,160.63781201,177.72979577,64.77216861
-58.41464147,177.40217891,62.50217315,-2.26612867,11.13242678,37.06456951
2.79104658,1.03794374,2.32236037

>  <Name>
lig.pdb

>  <RI>
0

>  <Rbt.Current_Directory>
/home/itssahil/PROJECTS/Mol_Feturizer/New_Systems/rnas/4wcr

>  <Rbt.Executable>
rbdock ($Id: //depot/dev/client3/rdock/2013.1/src/exe/rbdock.cxx#4 $)

>  <Rbt.Library>
libRbt.so (2013.1, Build901 2013/11/27)

>  <Rbt.Parameter_File>
/export/apps/rDock/src/rDock_2013.1_src/data/scripts/dock_solv.prm

>  <Rbt.Receptor>
prm/pocket_docking_5.prm

>  <SCORE>
-8.05832

>  <SCORE.INTER>
1.33677

>  <SCORE.INTER.CONST>
1

>  <SCORE.INTER.POLAR>
0

>  <SCORE.INTER.ROT>
9

>  <SCORE.INTER.SOLV>
23.8386

>  <SCORE.INTER.VDW>
-16.655

>  <SCORE.INTER.norm>
0.0318278

>  <SCORE.INTRA>
-9.39509

>  <SCORE.INTRA.DIHEDRAL>
-13.7171

>  <SCORE.INTRA.DIHEDRAL.0>
16.2863

>  <SCORE.INTRA.POLAR>
0

>  <SCORE.INTRA.POLAR.0>
0

>  <SCORE.INTRA.REPUL>
-0.314433

>  <SCORE.INTRA.REPUL.0>
0.314433

>  <SCORE.INTRA.SOLV>
-5.5059

>  <SCORE.INTRA.SOLV.lig_0>
-103.824

>  <SCORE.INTRA.VDW>
1.78855

>  <SCORE.INTRA.VDW.0>
-5.30945

>  <SCORE.INTRA.norm>
-0.223693

>  <SCORE.RESTR>
0

>  <SCORE.RESTR.CAVITY>
0

>  <SCORE.RESTR.norm>
0

>  <SCORE.SYSTEM>
0

>  <SCORE.SYSTEM.CONST>
0

>  <SCORE.SYSTEM.DIHEDRAL>
0

>  <SCORE.SYSTEM.SOLV>
0

>  <SCORE.SYSTEM.norm>
0

>  <SCORE.heavy>
42

>  <SCORE.norm>
-0.191865

>  <RMSD>
9.429

$$$$
lig.pdb
 OpenBabel11021811513D
libRbt.so/2013.1/901 2013/11/27
 42 45  0  0  0  0  0  0  0  0999 V2000
   -2.7726   11.8970   39.6407 C   0  0  2  0  0  0  0  0  0  0  0  0
   -4.1941   11.5566   39.6668 O   0  0  0  0  0  0  0  0  0  0  0  0
   -2.0192   10.6106   39.0772 C   0  0  2  0  0  0  0  0  0  0  0  0
   -2.4639   10.3179   37.7118 N   0  0  0  0  0  0  0  0  0  0  0  0
   -2.2788    9.3805   40.0768 C   0  0  1  0  0  0  0  0  0  0  0  0
   -1.6078    8.1874   39.6196 O   0  0  0  0  0  0  0  0  0  0  0  0
   -1.7818    9.8121   41.4672 C   0  0  2  0  0  0  0  0  0  0  0  0
   -1.9925    8.7715   42.3597 O   0  0  0  0  0  0  0  0  0  0  0  0
   -2.5528   11.1291   41.9356 C   0  0  2  0  0  0  0  0  0  0  0  0
   -2.3406   12.2099   41.0188 O   0  0  0  0  0  0  0  0  0  0  0  0
   -2.0894   11.6044   43.2834 C   0  0  0  0  0  0  0  0  0  0  0  0
   -0.7025   11.9272   43.1745 O   0  0  0  0  0  0  0  0  0  0  0  0
   -7.9074   13.9924   39.8920 C   0  0  2  0  0  0  0  0  0  0  0  0
   -8.9583   14.8397   40.4122 N   0  0  0  0  0  0  0  0  0  0  0  0
   -7.7540   12.7033   40.7883 C   0  0  0  0  0  0  0  0  0  0  0  0
   -6.6158   11.7685   40.2469 C   0  0  2  0  0  0  0  0  0  0  0  0
   -6.5019   10.5926   41.1072 N   0  0  0  0  0  0  0  0  0  0  0  0
   -5.2020   12.5008   40.1912 C   0  0  2  0  0  0  0  0  0  0  0  0
   -5.3595   13.7482   39.2743 C   0  0  2  0  0  0  0  0  0  0  0  0
   -3.9844   14.3741   39.2674 O   0  0  0  0  0  0  0  0  0  0  0  0
   -6.4943   14.7456   39.8782 C   0  0  1  0  0  0  0  0  0  0  0  0
   -6.7689   15.9320   39.0663 O   0  0  0  0  0  0  0  0  0  0  0  0
   -3.8798   15.3395   38.3009 C   0  0  1  0  0  0  0  0  0  0  0  0
   -2.6510   16.1327   38.4102 C   0  0  2  0  0  0  0  0  0  0  0  0
   -2.7931   16.9693   39.5133 O   0  0  0  0  0  0  0  0  0  0  0  0
   -2.5558   16.7343   36.9917 C   0  0  2  0  0  0  0  0  0  0  0  0
   -2.6156   18.1706   37.1430 O   0  0  0  0  0  0  0  0  0  0  0  0
   -3.7381   16.1861   36.2627 C   0  0  2  0  0  0  0  0  0  0  0  0
   -3.8022   14.8900   36.9583 O   0  0  0  0  0  0  0  0  0  0  0  0
   -3.4346   15.9709   34.7343 C   0  0  0  0  0  0  0  0  0  0  0  0
   -2.3443   15.0351   34.4799 O   0  0  0  0  0  0  0  0  0  0  0  0
   -2.6011   18.9648   35.9182 C   0  0  2  0  0  0  0  0  0  0  0  0
   -1.2419   18.6335   35.1078 C   0  0  2  0  0  0  0  0  0  0  0  0
   -0.0615   18.9384   35.9798 N   0  0  0  0  0  0  0  0  0  0  0  0
   -1.2356   19.5087   33.7595 C   0  0  1  0  0  0  0  0  0  0  0  0
   -2.4242   19.1387   32.9966 O   0  0  0  0  0  0  0  0  0  0  0  0
   -1.2529   21.0593   34.1334 C   0  0  2  0  0  0  0  0  0  0  0  0
   -0.0161   21.3578   34.8893 O   0  0  0  0  0  0  0  0  0  0  0  0
   -2.6030   21.3584   34.9992 C   0  0  1  0  0  0  0  0  0  0  0  0
   -2.6254   20.4767   36.2226 O   0  0  0  0  0  0  0  0  0  0  0  0
   -2.6442   22.8707   35.3991 C   0  0  0  0  0  0  0  0  0  0  0  0
   -2.7939   23.7788   34.2200 N   0  0  0  0  0  0  0  0  0  0  0  0
  1  3  1  0  0  0  0
  1  2  1  1  0  0  0
  3  4  1  6  0  0  0
  3  5  1  0  0  0  0
  5  6  1  6  0  0  0
  7  8  1  1  0  0  0
  7  5  1  0  0  0  0
  9 11  1  1  0  0  0
  9  7  1  0  0  0  0
 10  9  1  0  0  0  0
 10  1  1  0  0  0  0
 12 11  1  0  0  0  0
 13 14  1  1  0  0  0
 15 13  1  0  0  0  0
 16 17  1  1  0  0  0
 16 15  1  0  0  0  0
 18  2  1  6  0  0  0
 18 19  1  0  0  0  0
 18 16  1  0  0  0  0
 19 20  1  1  0  0  0
 19 21  1  0  0  0  0
 21 22  1  6  0  0  0
 21 13  1  0  0  0  0
 23 20  1  1  0  0  0
 23 29  1  0  0  0  0
 24 25  1  1  0  0  0
 24 26  1  0  0  0  0
 24 23  1  0  0  0  0
 26 27  1  1  0  0  0
 26 28  1  0  0  0  0
 28 30  1  6  0  0  0
 29 28  1  0  0  0  0
 30 31  1  0  0  0  0
 32 27  1  1  0  0  0
 32 40  1  0  0  0  0
 33 35  1  0  0  0  0
 33 32  1  0  0  0  0
 33 34  1  1  0  0  0
 35 36  1  6  0  0  0
 35 37  1  0  0  0  0
 37 38  1  1  0  0  0
 37 39  1  0  0  0  0
 39 41  1  1  0  0  0
 40 39  1  0  0  0  0
 41 42  1  0  0  0  0
M  END
>  <CHROM.1>
177.39100761,61.72793480,-173.11551333,168.22401309,169.89236654,-177.42890045
60.38184977,-59.09487637,65.95514549,-3.29484110,15.09572042,38.23325584
-1.71428696,0.27256906,-0.52353092

>  <Name>
lig.pdb

>  <RI>
0

>  <Rbt.Current_Directory>
/home/itssahil/PROJECTS/Mol_Feturizer/New_Systems/rnas/4wcr

>  <Rbt.Executable>
rbdock ($Id: //depot/dev/client3/rdock/2013.1/src/exe/rbdock.cxx#4 $)

>  <Rbt.Library>
libRbt.so (2013.1, Build901 2013/11/27)

>  <Rbt.Parameter_File>
/export/apps/rDock/src/rDock_2013.1_src/data/scripts/dock_solv.prm

>  <Rbt.Receptor>
prm/pocket_docking_5.prm

>  <SCORE>
-8.70781

>  <SCORE.INTER>
0.972763

>  <SCORE.INTER.CONST>
1

>  <SCORE.INTER.POLAR>
0

>  <SCORE.INTER.ROT>
9

>  <SCORE.INTER.SOLV>
15.959

>  <SCORE.INTER.VDW>
-14.2711

>  <SCORE.INTER.norm>
0.023161

>  <SCORE.INTRA>
-9.68775

>  <SCORE.INTRA.DIHEDRAL>
-14.1495

>  <SCORE.INTRA.DIHEDRAL.0>
16.2863

>  <SCORE.INTRA.POLAR>
0

>  <SCORE.INTRA.POLAR.0>
0

>  <SCORE.INTRA.REPUL>
-0.314433

>  <SCORE.INTRA.REPUL.0>
0.314433

>  <SCORE.INTRA.SOLV>
-4.76264

>  <SCORE.INTRA.SOLV.lig_0>
-103.824

>  <SCORE.INTRA.VDW>
1.34049

>  <SCORE.INTRA.VDW.0>
-5.30945

>  <SCORE.INTRA.norm>
-0.230661

>  <SCORE.RESTR>
0.00717653

>  <SCORE.RESTR.CAVITY>
0.00717653

>  <SCORE.RESTR.norm>
0.00017087

>  <SCORE.SYSTEM>
0

>  <SCORE.SYSTEM.CONST>
0

>  <SCORE.SYSTEM.DIHEDRAL>
0

>  <SCORE.SYSTEM.SOLV>
0

>  <SCORE.SYSTEM.norm>
0

>  <SCORE.heavy>
42

>  <SCORE.norm>
-0.207329

>  <RMSD>
9.429

$$$$
lig.pdb
 OpenBabel11021811513D
libRbt.so/2013.1/901 2013/11/27
 42 45  0  0  0  0  0  0  0  0999 V2000
   -6.9958   14.7794   29.6727 C   0  0  2  0  0  0  0  0  0  0  0  0
   -5.9178   15.7426   29.8902 O   0  0  0  0  0  0  0  0  0  0  0  0
   -6.2996   13.3486   29.5812 C   0  0  2  0  0  0  0  0  0  0  0  0
   -5.6237   13.0301   30.8419 N   0  0  0  0  0  0  0  0  0  0  0  0
   -5.2890   13.3444   28.3329 C   0  0  1  0  0  0  0  0  0  0  0  0
   -4.6366   12.0646   28.1953 O   0  0  0  0  0  0  0  0  0  0  0  0
   -6.1109   13.6985   27.0816 C   0  0  2  0  0  0  0  0  0  0  0  0
   -5.2674   13.7061   25.9806 O   0  0  0  0  0  0  0  0  0  0  0  0
   -6.8090   15.1212   27.2742 C   0  0  2  0  0  0  0  0  0  0  0  0
   -7.6827   15.1225   28.4101 O   0  0  0  0  0  0  0  0  0  0  0  0
   -7.6415   15.5063   26.0844 C   0  0  0  0  0  0  0  0  0  0  0  0
   -8.7978   14.6682   26.0763 O   0  0  0  0  0  0  0  0  0  0  0  0
   -5.3829   20.1084   30.5429 C   0  0  2  0  0  0  0  0  0  0  0  0
   -5.6633   21.4839   30.8930 N   0  0  0  0  0  0  0  0  0  0  0  0
   -6.4321   19.5918   29.4841 C   0  0  0  0  0  0  0  0  0  0  0  0
   -6.1521   18.0988   29.0904 C   0  0  2  0  0  0  0  0  0  0  0  0
   -7.1480   17.6579   28.1159 N   0  0  0  0  0  0  0  0  0  0  0  0
   -6.1968   17.1197   30.3465 C   0  0  2  0  0  0  0  0  0  0  0  0
   -5.1314   17.6196   31.3646 C   0  0  2  0  0  0  0  0  0  0  0  0
   -5.2313   16.6398   32.5104 O   0  0  0  0  0  0  0  0  0  0  0  0
   -5.4663   19.1455   31.8196 C   0  0  1  0  0  0  0  0  0  0  0  0
   -4.4962   19.7429   32.7384 O   0  0  0  0  0  0  0  0  0  0  0  0
   -4.0016   16.1381   32.8472 C   0  0  1  0  0  0  0  0  0  0  0  0
   -3.4279   16.7724   34.0387 C   0  0  2  0  0  0  0  0  0  0  0  0
   -3.0273   18.0546   33.6748 O   0  0  0  0  0  0  0  0  0  0  0  0
   -2.3750   15.7242   34.4582 C   0  0  2  0  0  0  0  0  0  0  0  0
   -1.0877   16.3790   34.3981 O   0  0  0  0  0  0  0  0  0  0  0  0
   -2.5060   14.6264   33.4545 C   0  0  2  0  0  0  0  0  0  0  0  0
   -3.9509   14.7682   33.2097 O   0  0  0  0  0  0  0  0  0  0  0  0
   -2.1943   13.2186   34.0834 C   0  0  0  0  0  0  0  0  0  0  0  0
   -0.9469   13.1782   34.8392 O   0  0  0  0  0  0  0  0  0  0  0  0
   -0.7739   17.3180   35.4709 C   0  0  2  0  0  0  0  0  0  0  0  0
    0.7416   17.0456   35.9643 C   0  0  2  0  0  0  0  0  0  0  0  0
    0.8633   15.6228   36.4200 N   0  0  0  0  0  0  0  0  0  0  0  0
    1.0803   18.0855   37.1423 C   0  0  1  0  0  0  0  0  0  0  0  0
    0.9234   19.4292   36.5933 O   0  0  0  0  0  0  0  0  0  0  0  0
    0.0845   17.8448   38.3650 C   0  0  2  0  0  0  0  0  0  0  0  0
    0.3125   16.4737   38.8731 O   0  0  0  0  0  0  0  0  0  0  0  0
   -1.4406   18.0685   37.8303 C   0  0  1  0  0  0  0  0  0  0  0  0
   -1.7153   17.1339   36.6788 O   0  0  0  0  0  0  0  0  0  0  0  0
   -2.4477   17.8227   39.0024 C   0  0  0  0  0  0  0  0  0  0  0  0
   -3.8750   17.9796   38.5836 N   0  0  0  0  0  0  0  0  0  0  0  0
  1  3  1  0  0  0  0
  1  2  1  6  0  0  0
  3  4  1  1  0  0  0
  3  5  1  0  0  0  0
  5  6  1  6  0  0  0
  7  8  1  6  0  0  0
  7  5  1  0  0  0  0
  9 11  1  6  0  0  0
  9  7  1  0  0  0  0
 10  9  1  0  0  0  0
 10  1  1  0  0  0  0
 12 11  1  0  0  0  0
 13 14  1  1  0  0  0
 15 13  1  0  0  0  0
 16 17  1  6  0  0  0
 16 15  1  0  0  0  0
 18  2  1  6  0  0  0
 18 19  1  0  0  0  0
 18 16  1  0  0  0  0
 19 20  1  1  0  0  0
 19 21  1  0  0  0  0
 21 22  1  1  0  0  0
 21 13  1  0  0  0  0
 23 20  1  1  0  0  0
 23 29  1  0  0  0  0
 24 25  1  6  0  0  0
 24 26  1  0  0  0  0
 24 23  1  0  0  0  0
 26 27  1  6  0  0  0
 26 28  1  0  0  0  0
 28 30  1  1  0  0  0
 29 28  1  0  0  0  0
 30 31  1  0  0  0  0
 32 27  1  6  0  0  0
 32 40  1  0  0  0  0
 33 35  1  0  0  0  0
 33 32  1  0  0  0  0
 33 34  1  1  0  0  0
 35 36  1  6  0  0  0
 35 37  1  0  0  0  0
 37 38  1  6  0  0  0
 37 39  1  0  0  0  0
 39 41  1  1  0  0  0
 40 39  1  0  0  0  0
 41 42  1  0  0  0  0
M  END
>  <CHROM.1>
-165.05784457,71.30158742,-99.94832315,129.05901887,101.22132000,75.00765500
-49.52281348,135.39660803,-178.73834180,-3.90045641,16.37963805,32.38360860
-2.62763257,-0.89920571,0.40882690

>  <Name>
lig.pdb

>  <RI>
0

>  <Rbt.Current_Directory>
/home/itssahil/PROJECTS/Mol_Feturizer/New_Systems/rnas/4wcr

>  <Rbt.Executable>
rbdock ($Id: //depot/dev/client3/rdock/2013.1/src/exe/rbdock.cxx#4 $)

>  <Rbt.Library>
libRbt.so (2013.1, Build901 2013/11/27)

>  <Rbt.Parameter_File>
/export/apps/rDock/src/rDock_2013.1_src/data/scripts/dock_solv.prm

>  <Rbt.Receptor>
prm/blind_docking_100.prm

>  <SCORE>
0.701251

>  <SCORE.INTER>
-11.9552

>  <SCORE.INTER.CONST>
1

>  <SCORE.INTER.POLAR>
0

>  <SCORE.INTER.ROT>
9

>  <SCORE.INTER.SOLV>
32.5738

>  <SCORE.INTER.VDW>
-28.428

>  <SCORE.INTER.norm>
-0.284647

>  <SCORE.INTRA>
7.50805

>  <SCORE.INTRA.DIHEDRAL>
10.9017

>  <SCORE.INTRA.DIHEDRAL.0>
16.2863

>  <SCORE.INTRA.POLAR>
0

>  <SCORE.INTRA.POLAR.0>
0

>  <SCORE.INTRA.REPUL>
-0.106292

>  <SCORE.INTRA.REPUL.0>
0.314433

>  <SCORE.INTRA.SOLV>
0.68779

>  <SCORE.INTRA.SOLV.lig_0>
-103.824

>  <SCORE.INTRA.VDW>
2.24475

>  <SCORE.INTRA.VDW.0>
-5.30945

>  <SCORE.INTRA.norm>
0.178763

>  <SCORE.RESTR>
5.14838

>  <SCORE.RESTR.CAVITY>
5.14838

>  <SCORE.RESTR.norm>
0.122581

>  <SCORE.SYSTEM>
0

>  <SCORE.SYSTEM.CONST>
0

>  <SCORE.SYSTEM.DIHEDRAL>
0

>  <SCORE.SYSTEM.SOLV>
0

>  <SCORE.SYSTEM.norm>
0

>  <SCORE.heavy>
42

>  <SCORE.norm>
0.0166965

>  <RMSD>
9.437

$$$$
lig.pdb
 OpenBabel11021811513D
libRbt.so/2013.1/901 2013/11/27
 42 45  0  0  0  0  0  0  0  0999 V2000
   -0.8279    6.3635   35.2802 C   0  0  2  0  0  0  0  0  0  0  0  0
   -1.6586    7.3615   35.9519 O   0  0  0  0  0  0  0  0  0  0  0  0
    0.6413    6.9780   35.2197 C   0  0  2  0  0  0  0  0  0  0  0  0
    1.1585    7.1946   36.5737 N   0  0  0  0  0  0  0  0  0  0  0  0
    0.5988    8.3353   34.3620 C   0  0  1  0  0  0  0  0  0  0  0  0
    1.9096    8.9311   34.2646 O   0  0  0  0  0  0  0  0  0  0  0  0
    0.0342    7.9796   32.9759 C   0  0  2  0  0  0  0  0  0  0  0  0
   -0.0189    9.1320   32.2060 O   0  0  0  0  0  0  0  0  0  0  0  0
   -1.4160    7.3302   33.1299 C   0  0  2  0  0  0  0  0  0  0  0  0
   -1.3707    6.1383   33.9243 O   0  0  0  0  0  0  0  0  0  0  0  0
   -2.0056    6.9461   31.8024 C   0  0  0  0  0  0  0  0  0  0  0  0
   -1.1454    5.9698   31.2136 O   0  0  0  0  0  0  0  0  0  0  0  0
   -2.7716    7.9025   40.2229 C   0  0  2  0  0  0  0  0  0  0  0  0
   -2.6587    8.0742   41.6549 N   0  0  0  0  0  0  0  0  0  0  0  0
   -1.9972    6.6056   39.7676 C   0  0  0  0  0  0  0  0  0  0  0  0
   -2.1009    6.3989   38.2155 C   0  0  2  0  0  0  0  0  0  0  0  0
   -1.3662    5.1942   37.8353 N   0  0  0  0  0  0  0  0  0  0  0  0
   -1.5165    7.6345   37.3968 C   0  0  2  0  0  0  0  0  0  0  0  0
   -2.3147    8.8985   37.8287 C   0  0  2  0  0  0  0  0  0  0  0  0
   -1.7103   10.0124   37.0062 O   0  0  0  0  0  0  0  0  0  0  0  0
   -2.1478    9.1450   39.4284 C   0  0  1  0  0  0  0  0  0  0  0  0
   -2.9031   10.2803   39.9603 O   0  0  0  0  0  0  0  0  0  0  0  0
   -2.3387   11.2065   37.2439 C   0  0  1  0  0  0  0  0  0  0  0  0
   -1.7342   12.3294   36.5195 C   0  0  2  0  0  0  0  0  0  0  0  0
   -0.5202   12.6166   37.1363 O   0  0  0  0  0  0  0  0  0  0  0  0
   -2.8819   13.3612   36.5551 C   0  0  2  0  0  0  0  0  0  0  0  0
   -2.3826   14.5159   37.2672 O   0  0  0  0  0  0  0  0  0  0  0  0
   -3.9912   12.6758   37.2827 C   0  0  2  0  0  0  0  0  0  0  0  0
   -3.6920   11.3063   36.8324 O   0  0  0  0  0  0  0  0  0  0  0  0
   -5.4030   13.1275   36.7560 C   0  0  0  0  0  0  0  0  0  0  0  0
   -5.6531   14.5574   36.9040 O   0  0  0  0  0  0  0  0  0  0  0  0
   -1.4767   15.3995   36.5396 C   0  0  2  0  0  0  0  0  0  0  0  0
   -0.9158   16.5167   37.5651 C   0  0  2  0  0  0  0  0  0  0  0  0
   -2.0707   17.2697   38.1533 N   0  0  0  0  0  0  0  0  0  0  0  0
    0.0832   17.4828   36.7573 C   0  0  1  0  0  0  0  0  0  0  0  0
    1.1572   16.6491   36.2252 O   0  0  0  0  0  0  0  0  0  0  0  0
   -0.7152   18.2094   35.5830 C   0  0  2  0  0  0  0  0  0  0  0  0
   -1.7721   19.0416   36.1999 O   0  0  0  0  0  0  0  0  0  0  0  0
   -1.3202   17.0617   34.5936 C   0  0  1  0  0  0  0  0  0  0  0  0
   -2.1975   16.1234   35.3840 O   0  0  0  0  0  0  0  0  0  0  0  0
   -2.1265   17.7399   33.4367 C   0  0  0  0  0  0  0  0  0  0  0  0
   -3.2997   18.5257   33.9301 N   0  0  0  0  0  0  0  0  0  0  0  0
  1  3  1  0  0  0  0
  1  2  1  1  0  0  0
  3  4  1  1  0  0  0
  3  5  1  0  0  0  0
  5  6  1  6  0  0  0
  7  8  1  6  0  0  0
  7  5  1  0  0  0  0
  9 11  1  6  0  0  0
  9  7  1  0  0  0  0
 10  9  1  0  0  0  0
 10  1  1  0  0  0  0
 12 11  1  0  0  0  0
 13 14  1  1  0  0  0
 15 13  1  0  0  0  0
 16 17  1  6  0  0  0
 16 15  1  0  0  0  0
 18  2  1  6  0  0  0
 18 19  1  0  0  0  0
 18 16  1  0  0  0  0
 19 20  1  6  0  0  0
 19 21  1  0  0  0  0
 21 22  1  1  0  0  0
 21 13  1  0  0  0  0
 23 20  1  6  0  0  0
 23 29  1  0  0  0  0
 24 25  1  1  0  0  0
 24 26  1  0  0  0  0
 24 23  1  0  0  0  0
 26 27  1  1  0  0  0
 26 28  1  0  0  0  0
 28 30  1  6  0  0  0
 29 28  1  0  0  0  0
 30 31  1  0  0  0  0
 32 27  1  1  0  0  0
 32 40  1  0  0  0  0
 33 35  1  0  0  0  0
 33 32  1  0  0  0  0
 33 34  1  6  0  0  0
 35 36  1  6  0  0  0
 35 37  1  0  0  0  0
 37 38  1  1  0  0  0
 37 39  1  0  0  0  0
 39 41  1  6  0  0  0
 40 39  1  0  0  0  0
 41 42  1  0  0  0  0
M  END
>  <CHROM.1>
-70.95747961,61.43688564,-71.68796978,178.21990603,176.84888846,76.54124330
-60.22479821,-173.67827758,-61.94265548,-1.64255060,11.31871814,36.23365893
-1.34585883,1.20958719,-0.18720294

>  <Name>
lig.pdb

>  <RI>
0

>  <Rbt.Current_Directory>
/home/itssahil/PROJECTS/Mol_Feturizer/New_Systems/rnas/4wcr

>  <Rbt.Executable>
rbdock ($Id: //depot/dev/client3/rdock/2013.1/src/exe/rbdock.cxx#4 $)

>  <Rbt.Library>
libRbt.so (2013.1, Build901 2013/11/27)

>  <Rbt.Parameter_File>
/export/apps/rDock/src/rDock_2013.1_src/data/scripts/dock_solv.prm

>  <Rbt.Receptor>
prm/pocket_docking_5.prm

>  <SCORE>
-5.24418

>  <SCORE.INTER>
1.03111

>  <SCORE.INTER.CONST>
1

>  <SCORE.INTER.POLAR>
0

>  <SCORE.INTER.ROT>
9

>  <SCORE.INTER.SOLV>
18.9919

>  <SCORE.INTER.VDW>
-15.2432

>  <SCORE.INTER.norm>
0.0245503

>  <SCORE.INTRA>
-6.2753

>  <SCORE.INTRA.DIHEDRAL>
-12.991

>  <SCORE.INTRA.DIHEDRAL.0>
16.2863

>  <SCORE.INTRA.POLAR>
0

>  <SCORE.INTRA.POLAR.0>
0

>  <SCORE.INTRA.REPUL>
-0.314433

>  <SCORE.INTRA.REPUL.0>
0.314433

>  <SCORE.INTRA.SOLV>
0.158591

>  <SCORE.INTRA.SOLV.lig_0>
-103.824

>  <SCORE.INTRA.VDW>
1.71307

>  <SCORE.INTRA.VDW.0>
-5.30945

>  <SCORE.INTRA.norm>
-0.149412

>  <SCORE.RESTR>
0

>  <SCORE.RESTR.CAVITY>
0

>  <SCORE.RESTR.norm>
0

>  <SCORE.SYSTEM>
0

>  <SCORE.SYSTEM.CONST>
0

>  <SCORE.SYSTEM.DIHEDRAL>
0

>  <SCORE.SYSTEM.SOLV>
0

>  <SCORE.SYSTEM.norm>
0

>  <SCORE.heavy>
42

>  <SCORE.norm>
-0.124862

>  <RMSD>
9.442

$$$$
lig.pdb
 OpenBabel11021811513D
libRbt.so/2013.1/901 2013/11/27
 42 45  0  0  0  0  0  0  0  0999 V2000
   -1.9763    6.4531   38.4736 C   0  0  2  0  0  0  0  0  0  0  0  0
   -3.3989    6.7295   38.2817 O   0  0  0  0  0  0  0  0  0  0  0  0
   -1.8199    5.9618   39.9817 C   0  0  2  0  0  0  0  0  0  0  0  0
   -2.5781    4.7260   40.1954 N   0  0  0  0  0  0  0  0  0  0  0  0
   -2.2948    7.1423   40.9617 C   0  0  1  0  0  0  0  0  0  0  0  0
   -2.1634    6.7547   42.3456 O   0  0  0  0  0  0  0  0  0  0  0  0
   -1.4366    8.3767   40.6355 C   0  0  2  0  0  0  0  0  0  0  0  0
   -1.8216    9.4200   41.4642 O   0  0  0  0  0  0  0  0  0  0  0  0
   -1.6162    8.7732   39.0996 C   0  0  2  0  0  0  0  0  0  0  0  0
   -1.2206    7.7005   38.2356 O   0  0  0  0  0  0  0  0  0  0  0  0
   -0.7820    9.9649   38.7238 C   0  0  0  0  0  0  0  0  0  0  0  0
    0.5864    9.6223   38.9469 O   0  0  0  0  0  0  0  0  0  0  0  0
   -3.7844    6.2341   33.8796 C   0  0  2  0  0  0  0  0  0  0  0  0
   -4.3700    6.1258   32.5612 N   0  0  0  0  0  0  0  0  0  0  0  0
   -4.4349    5.1762   34.8525 C   0  0  0  0  0  0  0  0  0  0  0  0
   -3.8191    5.2762   36.2924 C   0  0  2  0  0  0  0  0  0  0  0  0
   -4.4523    4.2869   37.1619 N   0  0  0  0  0  0  0  0  0  0  0  0
   -4.0099    6.7208   36.9368 C   0  0  2  0  0  0  0  0  0  0  0  0
   -3.3311    7.7483   35.9855 C   0  0  2  0  0  0  0  0  0  0  0  0
   -3.5470    9.0785   36.6687 O   0  0  0  0  0  0  0  0  0  0  0  0
   -4.0201    7.6860   34.5128 C   0  0  1  0  0  0  0  0  0  0  0  0
   -3.4238    8.5743   33.5140 O   0  0  0  0  0  0  0  0  0  0  0  0
   -2.9162   10.0929   35.9976 C   0  0  1  0  0  0  0  0  0  0  0  0
   -3.0484   11.3930   36.6635 C   0  0  2  0  0  0  0  0  0  0  0  0
   -4.3605   11.8206   36.4836 O   0  0  0  0  0  0  0  0  0  0  0  0
   -1.8851   12.1782   36.0205 C   0  0  2  0  0  0  0  0  0  0  0  0
   -2.4731   13.3043   35.3307 O   0  0  0  0  0  0  0  0  0  0  0  0
   -1.2385   11.2092   35.0865 C   0  0  2  0  0  0  0  0  0  0  0  0
   -1.5082    9.9897   35.8662 O   0  0  0  0  0  0  0  0  0  0  0  0
    0.3114   11.4524   34.9721 C   0  0  0  0  0  0  0  0  0  0  0  0
    0.6607   12.7777   34.4713 O   0  0  0  0  0  0  0  0  0  0  0  0
   -2.3625   14.6072   35.9797 C   0  0  2  0  0  0  0  0  0  0  0  0
   -3.1458   15.6975   35.0786 C   0  0  2  0  0  0  0  0  0  0  0  0
   -2.5562   15.7130   33.7007 N   0  0  0  0  0  0  0  0  0  0  0  0
   -3.0224   17.1278   35.8017 C   0  0  1  0  0  0  0  0  0  0  0  0
   -3.6163   16.9957   37.1289 O   0  0  0  0  0  0  0  0  0  0  0  0
   -1.4851   17.5421   35.8992 C   0  0  2  0  0  0  0  0  0  0  0  0
   -0.9609   17.6692   34.5211 O   0  0  0  0  0  0  0  0  0  0  0  0
   -0.7043   16.3992   36.7629 C   0  0  1  0  0  0  0  0  0  0  0  0
   -0.8916   15.0537   36.1076 O   0  0  0  0  0  0  0  0  0  0  0  0
    0.8137   16.7653   36.8640 C   0  0  0  0  0  0  0  0  0  0  0  0
    1.5695   15.8581   37.7821 N   0  0  0  0  0  0  0  0  0  0  0  0
  1  3  1  0  0  0  0
  1  2  1  1  0  0  0
  3  4  1  6  0  0  0
  3  5  1  0  0  0  0
  5  6  1  1  0  0  0
  7  8  1  1  0  0  0
  7  5  1  0  0  0  0
  9 11  1  6  0  0  0
  9  7  1  0  0  0  0
 10  9  1  0  0  0  0
 10  1  1  0  0  0  0
 12 11  1  0  0  0  0
 13 14  1  6  0  0  0
 15 13  1  0  0  0  0
 16 17  1  1  0  0  0
 16 15  1  0  0  0  0
 18  2  1  1  0  0  0
 18 19  1  0  0  0  0
 18 16  1  0  0  0  0
 19 20  1  1  0  0  0
 19 21  1  0  0  0  0
 21 22  1  6  0  0  0
 21 13  1  0  0  0  0
 23 20  1  1  0  0  0
 23 29  1  0  0  0  0
 24 25  1  6  0  0  0
 24 26  1  0  0  0  0
 24 23  1  0  0  0  0
 26 27  1  6  0  0  0
 26 28  1  0  0  0  0
 28 30  1  1  0  0  0
 29 28  1  0  0  0  0
 30 31  1  0  0  0  0
 32 27  1  6  0  0  0
 32 40  1  0  0  0  0
 33 35  1  0  0  0  0
 33 32  1  0  0  0  0
 33 34  1  6  0  0  0
 35 36  1  1  0  0  0
 35 37  1  0  0  0  0
 37 38  1  6  0  0  0
 37 39  1  0  0  0  0
 39 41  1  6  0  0  0
 40 39  1  0  0  0  0
 41 42  1  0  0  0  0
M  END
>  <CHROM.1>
-157.11397343,60.77965193,60.00525589,175.58037673,-177.28908784,103.23196843
-60.37692048,-177.19761934,172.88031546,-2.18400435,10.56076260,36.82718185
-1.96787919,-1.13293564,-0.57782849

>  <Name>
lig.pdb

>  <RI>
0

>  <Rbt.Current_Directory>
/home/itssahil/PROJECTS/Mol_Feturizer/New_Systems/rnas/4wcr

>  <Rbt.Executable>
rbdock ($Id: //depot/dev/client3/rdock/2013.1/src/exe/rbdock.cxx#4 $)

>  <Rbt.Library>
libRbt.so (2013.1, Build901 2013/11/27)

>  <Rbt.Parameter_File>
/export/apps/rDock/src/rDock_2013.1_src/data/scripts/dock_solv.prm

>  <Rbt.Receptor>
prm/pocket_docking_4.prm

>  <SCORE>
-5.386

>  <SCORE.INTER>
2.18543

>  <SCORE.INTER.CONST>
1

>  <SCORE.INTER.POLAR>
0

>  <SCORE.INTER.ROT>
9

>  <SCORE.INTER.SOLV>
20.5322

>  <SCORE.INTER.VDW>
-14.9871

>  <SCORE.INTER.norm>
0.052034

>  <SCORE.INTRA>
-7.57143

>  <SCORE.INTRA.DIHEDRAL>
-7.34819

>  <SCORE.INTRA.DIHEDRAL.0>
16.2863

>  <SCORE.INTRA.POLAR>
0

>  <SCORE.INTRA.POLAR.0>
0

>  <SCORE.INTRA.REPUL>
-0.305357

>  <SCORE.INTRA.REPUL.0>
0.314433

>  <SCORE.INTRA.SOLV>
-3.22079

>  <SCORE.INTRA.SOLV.lig_0>
-103.824

>  <SCORE.INTRA.VDW>
-0.760149

>  <SCORE.INTRA.VDW.0>
-5.30945

>  <SCORE.INTRA.norm>
-0.180272

>  <SCORE.RESTR>
0

>  <SCORE.RESTR.CAVITY>
0

>  <SCORE.RESTR.norm>
0

>  <SCORE.SYSTEM>
0

>  <SCORE.SYSTEM.CONST>
0

>  <SCORE.SYSTEM.DIHEDRAL>
0

>  <SCORE.SYSTEM.SOLV>
0

>  <SCORE.SYSTEM.norm>
0

>  <SCORE.heavy>
42

>  <SCORE.norm>
-0.128238

>  <RMSD>
9.452

$$$$
lig.pdb
 OpenBabel11021811513D
libRbt.so/2013.1/901 2013/11/27
 42 45  0  0  0  0  0  0  0  0999 V2000
   -3.3613    6.3231   36.8351 C   0  0  2  0  0  0  0  0  0  0  0  0
   -1.9985    6.8217   37.0120 O   0  0  0  0  0  0  0  0  0  0  0  0
   -3.2472    5.0502   35.8829 C   0  0  2  0  0  0  0  0  0  0  0  0
   -2.4381    4.0082   36.5210 N   0  0  0  0  0  0  0  0  0  0  0  0
   -2.6365    5.5137   34.4715 C   0  0  1  0  0  0  0  0  0  0  0  0
   -2.5211    4.3986   33.5627 O   0  0  0  0  0  0  0  0  0  0  0  0
   -3.5633    6.6066   33.9121 C   0  0  2  0  0  0  0  0  0  0  0  0
   -3.0641    7.0334   32.6905 O   0  0  0  0  0  0  0  0  0  0  0  0
   -3.6573    7.8206   34.9445 C   0  0  2  0  0  0  0  0  0  0  0  0
   -4.1723    7.3886   36.2101 O   0  0  0  0  0  0  0  0  0  0  0  0
   -4.5681    8.9096   34.4528 C   0  0  0  0  0  0  0  0  0  0  0  0
   -5.0553    9.6144   35.5954 O   0  0  0  0  0  0  0  0  0  0  0  0
   -2.4829    9.4007   40.6018 C   0  0  2  0  0  0  0  0  0  0  0  0
   -2.1671   10.2656   41.7177 N   0  0  0  0  0  0  0  0  0  0  0  0
   -1.6515    8.0634   40.6975 C   0  0  0  0  0  0  0  0  0  0  0  0
   -1.9731    7.1085   39.4945 C   0  0  2  0  0  0  0  0  0  0  0  0
   -1.1790    5.8878   39.6169 N   0  0  0  0  0  0  0  0  0  0  0  0
   -1.6632    7.7813   38.0840 C   0  0  2  0  0  0  0  0  0  0  0  0
   -2.5181    9.0781   37.9888 C   0  0  2  0  0  0  0  0  0  0  0  0
   -2.1758    9.6439   36.6304 O   0  0  0  0  0  0  0  0  0  0  0  0
   -2.1313   10.0923   39.2009 C   0  0  1  0  0  0  0  0  0  0  0  0
   -2.9143   11.3281   39.2456 O   0  0  0  0  0  0  0  0  0  0  0  0
   -2.3534   11.0020   36.5957 C   0  0  1  0  0  0  0  0  0  0  0  0
   -1.8338   11.6194   35.3710 C   0  0  2  0  0  0  0  0  0  0  0  0
   -0.4447   11.6021   35.4540 O   0  0  0  0  0  0  0  0  0  0  0  0
   -2.5907   12.9649   35.3697 C   0  0  2  0  0  0  0  0  0  0  0  0
   -1.5903   14.0062   35.4354 O   0  0  0  0  0  0  0  0  0  0  0  0
   -3.4522   12.9214   36.5886 C   0  0  2  0  0  0  0  0  0  0  0  0
   -3.6924   11.4687   36.5959 O   0  0  0  0  0  0  0  0  0  0  0  0
   -4.8041   13.6972   36.3773 C   0  0  0  0  0  0  0  0  0  0  0  0
   -5.7033   13.6298   37.5245 O   0  0  0  0  0  0  0  0  0  0  0  0
   -2.0730   15.3803   35.5355 C   0  0  2  0  0  0  0  0  0  0  0  0
   -0.8081   16.3792   35.4078 C   0  0  2  0  0  0  0  0  0  0  0  0
    0.1827   16.0600   36.4863 N   0  0  0  0  0  0  0  0  0  0  0  0
   -1.3484   17.8893   35.5153 C   0  0  1  0  0  0  0  0  0  0  0  0
   -2.3049   18.0861   34.4299 O   0  0  0  0  0  0  0  0  0  0  0  0
   -2.0400   18.1055   36.9364 C   0  0  2  0  0  0  0  0  0  0  0  0
   -1.0088   17.9036   37.9785 O   0  0  0  0  0  0  0  0  0  0  0  0
   -3.2762   17.0487   37.0662 C   0  0  1  0  0  0  0  0  0  0  0  0
   -2.7602   15.6423   36.8914 O   0  0  0  0  0  0  0  0  0  0  0  0
   -3.9683   17.2212   38.4590 C   0  0  0  0  0  0  0  0  0  0  0  0
   -4.6519   18.5433   38.6075 N   0  0  0  0  0  0  0  0  0  0  0  0
  1  3  1  0  0  0  0
  1  2  1  6  0  0  0
  3  4  1  1  0  0  0
  3  5  1  0  0  0  0
  5  6  1  6  0  0  0
  7  8  1  6  0  0  0
  7  5  1  0  0  0  0
  9 11  1  6  0  0  0
  9  7  1  0  0  0  0
 10  9  1  0  0  0  0
 10  1  1  0  0  0  0
 12 11  1  0  0  0  0
 13 14  1  1  0  0  0
 15 13  1  0  0  0  0
 16 17  1  1  0  0  0
 16 15  1  0  0  0  0
 18  2  1  6  0  0  0
 18 19  1  0  0  0  0
 18 16  1  0  0  0  0
 19 20  1  6  0  0  0
 19 21  1  0  0  0  0
 21 22  1  6  0  0  0
 21 13  1  0  0  0  0
 23 20  1  6  0  0  0
 23 29  1  0  0  0  0
 24 25  1  1  0  0  0
 24 26  1  0  0  0  0
 24 23  1  0  0  0  0
 26 27  1  1  0  0  0
 26 28  1  0  0  0  0
 28 30  1  6  0  0  0
 29 28  1  0  0  0  0
 30 31  1  0  0  0  0
 32 27  1  1  0  0  0
 32 40  1  0  0  0  0
 33 35  1  0  0  0  0
 33 32  1  0  0  0  0
 33 34  1  1  0  0  0
 35 36  1  6  0  0  0
 35 37  1  0  0  0  0
 37 38  1  1  0  0  0
 37 39  1  0  0  0  0
 39 41  1  1  0  0  0
 40 39  1  0  0  0  0
 41 42  1  0  0  0  0
M  END
>  <CHROM.1>
-164.80352383,154.77253636,61.36336699,-153.77584352,170.87424831,-176.07161022
177.42113704,-172.95936837,66.36957578,-2.67182556,11.18823655,36.73491366
-1.82993477,-1.45564333,-0.22093614

>  <Name>
lig.pdb

>  <RI>
0

>  <Rbt.Current_Directory>
/home/itssahil/PROJECTS/Mol_Feturizer/New_Systems/rnas/4wcr

>  <Rbt.Executable>
rbdock ($Id: //depot/dev/client3/rdock/2013.1/src/exe/rbdock.cxx#4 $)

>  <Rbt.Library>
libRbt.so (2013.1, Build901 2013/11/27)

>  <Rbt.Parameter_File>
/export/apps/rDock/src/rDock_2013.1_src/data/scripts/dock_solv.prm

>  <Rbt.Receptor>
prm/pocket_docking_2.prm

>  <SCORE>
3.33996

>  <SCORE.INTER>
4.88055

>  <SCORE.INTER.CONST>
1

>  <SCORE.INTER.POLAR>
0

>  <SCORE.INTER.ROT>
9

>  <SCORE.INTER.SOLV>
10.6215

>  <SCORE.INTER.VDW>
-9.88681

>  <SCORE.INTER.norm>
0.116204

>  <SCORE.INTRA>
-4.81618

>  <SCORE.INTRA.DIHEDRAL>
-8.90104

>  <SCORE.INTRA.DIHEDRAL.0>
16.2863

>  <SCORE.INTRA.POLAR>
0

>  <SCORE.INTRA.POLAR.0>
0

>  <SCORE.INTRA.REPUL>
-0.314433

>  <SCORE.INTRA.REPUL.0>
0.314433

>  <SCORE.INTRA.SOLV>
-2.44908

>  <SCORE.INTRA.SOLV.lig_0>
-103.824

>  <SCORE.INTRA.VDW>
2.43105

>  <SCORE.INTRA.VDW.0>
-5.30945

>  <SCORE.INTRA.norm>
-0.114671

>  <SCORE.RESTR>
3.27559

>  <SCORE.RESTR.CAVITY>
3.27559

>  <SCORE.RESTR.norm>
0.0779902

>  <SCORE.SYSTEM>
0

>  <SCORE.SYSTEM.CONST>
0

>  <SCORE.SYSTEM.DIHEDRAL>
0

>  <SCORE.SYSTEM.SOLV>
0

>  <SCORE.SYSTEM.norm>
0

>  <SCORE.heavy>
42

>  <SCORE.norm>
0.0795228

>  <RMSD>
9.454

$$$$
lig.pdb
 OpenBabel11021811513D
libRbt.so/2013.1/901 2013/11/27
 42 45  0  0  0  0  0  0  0  0999 V2000
   -4.2344    6.9252   37.1124 C   0  0  2  0  0  0  0  0  0  0  0  0
   -2.7751    6.9363   37.1995 O   0  0  0  0  0  0  0  0  0  0  0  0
   -4.6042    5.8325   36.0127 C   0  0  2  0  0  0  0  0  0  0  0  0
   -4.1424    4.5077   36.4363 N   0  0  0  0  0  0  0  0  0  0  0  0
   -3.9660    6.2770   34.6074 C   0  0  1  0  0  0  0  0  0  0  0  0
   -4.2802    5.3257   33.5687 O   0  0  0  0  0  0  0  0  0  0  0  0
   -4.5171    7.6754   34.2800 C   0  0  2  0  0  0  0  0  0  0  0  0
   -3.9840    8.0935   33.0698 O   0  0  0  0  0  0  0  0  0  0  0  0
   -4.1426    8.6950   35.4499 C   0  0  2  0  0  0  0  0  0  0  0  0
   -4.6895    8.2707   36.7047 O   0  0  0  0  0  0  0  0  0  0  0  0
   -4.6756   10.0749   35.1872 C   0  0  0  0  0  0  0  0  0  0  0  0
   -6.0953    9.9746   35.0690 O   0  0  0  0  0  0  0  0  0  0  0  0
   -2.1660    8.9859   41.0983 C   0  0  2  0  0  0  0  0  0  0  0  0
   -1.5275    9.4828   42.2976 N   0  0  0  0  0  0  0  0  0  0  0  0
   -1.9816    7.4228   40.9915 C   0  0  0  0  0  0  0  0  0  0  0  0
   -2.6624    6.8589   39.6950 C   0  0  2  0  0  0  0  0  0  0  0  0
   -2.4629    5.4126   39.6306 N   0  0  0  0  0  0  0  0  0  0  0  0
   -2.0783    7.5157   38.3661 C   0  0  2  0  0  0  0  0  0  0  0  0
   -2.3010    9.0523   38.4696 C   0  0  2  0  0  0  0  0  0  0  0  0
   -1.7335    9.5927   37.1778 O   0  0  0  0  0  0  0  0  0  0  0  0
   -1.5362    9.6407   39.7796 C   0  0  1  0  0  0  0  0  0  0  0  0
   -1.7215   11.0740   40.0109 O   0  0  0  0  0  0  0  0  0  0  0  0
   -1.6714   10.9613   37.1934 C   0  0  1  0  0  0  0  0  0  0  0  0
   -0.8216   11.5110   36.1319 C   0  0  2  0  0  0  0  0  0  0  0  0
    0.5000   11.2474   36.4792 O   0  0  0  0  0  0  0  0  0  0  0  0
   -1.3275   12.9681   36.0679 C   0  0  2  0  0  0  0  0  0  0  0  0
   -0.2009   13.8152   36.3888 O   0  0  0  0  0  0  0  0  0  0  0  0
   -2.4103   13.0434   37.0933 C   0  0  2  0  0  0  0  0  0  0  0  0
   -2.8862   11.6560   36.9648 O   0  0  0  0  0  0  0  0  0  0  0  0
   -3.5437   14.0504   36.6742 C   0  0  0  0  0  0  0  0  0  0  0  0
   -4.3161   13.6136   35.5159 O   0  0  0  0  0  0  0  0  0  0  0  0
   -0.4024   15.2559   36.2680 C   0  0  2  0  0  0  0  0  0  0  0  0
    1.0054   15.9970   36.5560 C   0  0  2  0  0  0  0  0  0  0  0  0
    1.4913   15.6181   37.9223 N   0  0  0  0  0  0  0  0  0  0  0  0
    0.7757   17.5819   36.4174 C   0  0  1  0  0  0  0  0  0  0  0  0
    0.2991   17.8343   35.0606 O   0  0  0  0  0  0  0  0  0  0  0  0
   -0.2940   18.0596   37.5000 C   0  0  2  0  0  0  0  0  0  0  0  0
    0.2649   17.7847   38.8424 O   0  0  0  0  0  0  0  0  0  0  0  0
   -1.6878   17.2570   37.2260 C   0  0  1  0  0  0  0  0  0  0  0  0
   -1.4370   15.7711   37.2895 O   0  0  0  0  0  0  0  0  0  0  0  0
   -2.7573   17.6892   38.2833 C   0  0  0  0  0  0  0  0  0  0  0  0
   -2.3538   17.3591   39.6853 N   0  0  0  0  0  0  0  0  0  0  0  0
  1  3  1  0  0  0  0
  1  2  1  6  0  0  0
  3  4  1  1  0  0  0
  3  5  1  0  0  0  0
  5  6  1  6  0  0  0
  7  8  1  6  0  0  0
  7  5  1  0  0  0  0
  9 11  1  6  0  0  0
  9  7  1  0  0  0  0
 10  9  1  0  0  0  0
 10  1  1  0  0  0  0
 12 11  1  0  0  0  0
 13 14  1  1  0  0  0
 15 13  1  0  0  0  0
 16 17  1  6  0  0  0
 16 15  1  0  0  0  0
 18  2  1  6  0  0  0
 18 19  1  0  0  0  0
 18 16  1  0  0  0  0
 19 20  1  6  0  0  0
 19 21  1  0  0  0  0
 21 22  1  1  0  0  0
 21 13  1  0  0  0  0
 23 20  1  6  0  0  0
 23 29  1  0  0  0  0
 24 25  1  1  0  0  0
 24 26  1  0  0  0  0
 24 23  1  0  0  0  0
 26 27  1  1  0  0  0
 26 28  1  0  0  0  0
 28 30  1  6  0  0  0
 29 28  1  0  0  0  0
 30 31  1  0  0  0  0
 32 27  1  1  0  0  0
 32 40  1  0  0  0  0
 33 35  1  0  0  0  0
 33 32  1  0  0  0  0
 33 34  1  1  0  0  0
 35 36  1  6  0  0  0
 35 37  1  0  0  0  0
 37 38  1  1  0  0  0
 37 39  1  0  0  0  0
 39 41  1  1  0  0  0
 40 39  1  0  0  0  0
 41 42  1  0  0  0  0
M  END
>  <CHROM.1>
-161.68954662,59.20535682,52.80161276,-170.98906331,165.02708369,174.33129496
67.48902651,-175.51940521,-61.89988491,-2.25091977,11.27254285,37.14964016
2.29963303,1.10314775,2.52685813

>  <Name>
lig.pdb

>  <RI>
0

>  <Rbt.Current_Directory>
/home/itssahil/PROJECTS/Mol_Feturizer/New_Systems/rnas/4wcr

>  <Rbt.Executable>
rbdock ($Id: //depot/dev/client3/rdock/2013.1/src/exe/rbdock.cxx#4 $)

>  <Rbt.Library>
libRbt.so (2013.1, Build901 2013/11/27)

>  <Rbt.Parameter_File>
/export/apps/rDock/src/rDock_2013.1_src/data/scripts/dock_solv.prm

>  <Rbt.Receptor>
prm/pocket_docking_3.prm

>  <SCORE>
-7.98976

>  <SCORE.INTER>
-0.459836

>  <SCORE.INTER.CONST>
1

>  <SCORE.INTER.POLAR>
0

>  <SCORE.INTER.ROT>
9

>  <SCORE.INTER.SOLV>
18.9655

>  <SCORE.INTER.VDW>
-16.2284

>  <SCORE.INTER.norm>
-0.0109485

>  <SCORE.INTRA>
-7.52992

>  <SCORE.INTRA.DIHEDRAL>
-12.109

>  <SCORE.INTRA.DIHEDRAL.0>
16.2863

>  <SCORE.INTRA.POLAR>
0

>  <SCORE.INTRA.POLAR.0>
0

>  <SCORE.INTRA.REPUL>
-0.314433

>  <SCORE.INTRA.REPUL.0>
0.314433

>  <SCORE.INTRA.SOLV>
-1.25974

>  <SCORE.INTRA.SOLV.lig_0>
-103.824

>  <SCORE.INTRA.VDW>
0.726599

>  <SCORE.INTRA.VDW.0>
-5.30945

>  <SCORE.INTRA.norm>
-0.179284

>  <SCORE.RESTR>
0

>  <SCORE.RESTR.CAVITY>
0

>  <SCORE.RESTR.norm>
0

>  <SCORE.SYSTEM>
0

>  <SCORE.SYSTEM.CONST>
0

>  <SCORE.SYSTEM.DIHEDRAL>
0

>  <SCORE.SYSTEM.SOLV>
0

>  <SCORE.SYSTEM.norm>
0

>  <SCORE.heavy>
42

>  <SCORE.norm>
-0.190232

>  <RMSD>
9.463

$$$$
lig.pdb
 OpenBabel11021811513D
libRbt.so/2013.1/901 2013/11/27
 42 45  0  0  0  0  0  0  0  0999 V2000
   -3.2845    7.4241   33.4371 C   0  0  2  0  0  0  0  0  0  0  0  0
   -2.5296    7.2665   34.6791 O   0  0  0  0  0  0  0  0  0  0  0  0
   -3.0525    6.0849   32.6047 C   0  0  2  0  0  0  0  0  0  0  0  0
   -3.5795    4.9315   33.3392 N   0  0  0  0  0  0  0  0  0  0  0  0
   -1.4847    5.9382   32.2884 C   0  0  1  0  0  0  0  0  0  0  0  0
   -1.2173    4.7438   31.5238 O   0  0  0  0  0  0  0  0  0  0  0  0
   -1.0537    7.2048   31.5292 C   0  0  2  0  0  0  0  0  0  0  0  0
    0.2997    7.1135   31.2401 O   0  0  0  0  0  0  0  0  0  0  0  0
   -1.3616    8.4989   32.4118 C   0  0  2  0  0  0  0  0  0  0  0  0
   -2.7583    8.6013   32.7154 O   0  0  0  0  0  0  0  0  0  0  0  0
   -0.9755    9.7677   31.7058 C   0  0  0  0  0  0  0  0  0  0  0  0
   -1.1362   10.8434   32.6313 O   0  0  0  0  0  0  0  0  0  0  0  0
   -5.2316    9.2623   37.5926 C   0  0  2  0  0  0  0  0  0  0  0  0
   -5.7790    9.7470   38.8410 N   0  0  0  0  0  0  0  0  0  0  0  0
   -5.0055    7.7028   37.6666 C   0  0  0  0  0  0  0  0  0  0  0  0
   -4.4074    7.1523   36.3244 C   0  0  2  0  0  0  0  0  0  0  0  0
   -4.2070    5.7091   36.4371 N   0  0  0  0  0  0  0  0  0  0  0  0
   -3.0165    7.8347   35.9529 C   0  0  2  0  0  0  0  0  0  0  0  0
   -3.2635    9.3674   35.8466 C   0  0  2  0  0  0  0  0  0  0  0  0
   -1.9099    9.9326   35.4850 O   0  0  0  0  0  0  0  0  0  0  0  0
   -3.8201    9.9430   37.2631 C   0  0  1  0  0  0  0  0  0  0  0  0
   -4.1419   11.3708   37.2657 O   0  0  0  0  0  0  0  0  0  0  0  0
   -1.8898   11.2973   35.6060 C   0  0  1  0  0  0  0  0  0  0  0  0
   -0.5392   11.8628   35.5210 C   0  0  2  0  0  0  0  0  0  0  0  0
    0.1186   11.5478   36.7062 O   0  0  0  0  0  0  0  0  0  0  0  0
   -0.8524   13.3354   35.1793 C   0  0  2  0  0  0  0  0  0  0  0  0
   -0.3185   14.1363   36.2577 O   0  0  0  0  0  0  0  0  0  0  0  0
   -2.3420   13.4022   35.1002 C   0  0  2  0  0  0  0  0  0  0  0  0
   -2.5642   12.0352   34.6004 O   0  0  0  0  0  0  0  0  0  0  0  0
   -2.8246   14.4571   34.0378 C   0  0  0  0  0  0  0  0  0  0  0  0
   -4.0442   15.1597   34.4226 O   0  0  0  0  0  0  0  0  0  0  0  0
   -0.0175   15.5327   35.9567 C   0  0  2  0  0  0  0  0  0  0  0  0
    0.3513   16.2875   37.3382 C   0  0  2  0  0  0  0  0  0  0  0  0
   -0.7991   16.1616   38.2908 N   0  0  0  0  0  0  0  0  0  0  0  0
    0.6848   17.8227   36.9976 C   0  0  1  0  0  0  0  0  0  0  0  0
    1.8067   17.8259   36.0632 O   0  0  0  0  0  0  0  0  0  0  0  0
   -0.6004   18.5147   36.3542 C   0  0  2  0  0  0  0  0  0  0  0  0
   -1.6841   18.4850   37.3617 O   0  0  0  0  0  0  0  0  0  0  0  0
   -0.9881   17.7018   34.9938 C   0  0  1  0  0  0  0  0  0  0  0  0
   -1.2273   16.2495   35.3230 O   0  0  0  0  0  0  0  0  0  0  0  0
   -2.2583   18.3444   34.3440 C   0  0  0  0  0  0  0  0  0  0  0  0
   -2.0248   19.7457   33.8761 N   0  0  0  0  0  0  0  0  0  0  0  0
  1  3  1  0  0  0  0
  1  2  1  1  0  0  0
  3  4  1  1  0  0  0
  3  5  1  0  0  0  0
  5  6  1  6  0  0  0
  7  8  1  1  0  0  0
  7  5  1  0  0  0  0
  9 11  1  6  0  0  0
  9  7  1  0  0  0  0
 10  9  1  0  0  0  0
 10  1  1  0  0  0  0
 12 11  1  0  0  0  0
 13 14  1  1  0  0  0
 15 13  1  0  0  0  0
 16 17  1  1  0  0  0
 16 15  1  0  0  0  0
 18  2  1  6  0  0  0
 18 19  1  0  0  0  0
 18 16  1  0  0  0  0
 19 20  1  1  0  0  0
 19 21  1  0  0  0  0
 21 22  1  6  0  0  0
 21 13  1  0  0  0  0
 23 20  1  6  0  0  0
 23 29  1  0  0  0  0
 24 25  1  1  0  0  0
 24 26  1  0  0  0  0
 24 23  1  0  0  0  0
 26 27  1  1  0  0  0
 26 28  1  0  0  0  0
 28 30  1  6  0  0  0
 29 28  1  0  0  0  0
 30 31  1  0  0  0  0
 32 27  1  1  0  0  0
 32 40  1  0  0  0  0
 33 35  1  0  0  0  0
 33 32  1  0  0  0  0
 33 34  1  1  0  0  0
 35 36  1  6  0  0  0
 35 37  1  0  0  0  0
 37 38  1  1  0  0  0
 37 39  1  0  0  0  0
 39 41  1  1  0  0  0
 40 39  1  0  0  0  0
 41 42  1  0  0  0  0
M  END
>  <CHROM.1>
-145.61157705,-173.08344423,62.30006338,-168.17795063,168.77906386,156.94611601
-144.49271163,171.65072585,64.57995629,-2.00258752,11.59962825,35.05498988
-1.85866211,0.92184123,0.43204354

>  <Name>
lig.pdb

>  <RI>
0

>  <Rbt.Current_Directory>
/home/itssahil/PROJECTS/Mol_Feturizer/New_Systems/rnas/4wcr

>  <Rbt.Executable>
rbdock ($Id: //depot/dev/client3/rdock/2013.1/src/exe/rbdock.cxx#4 $)

>  <Rbt.Library>
libRbt.so (2013.1, Build901 2013/11/27)

>  <Rbt.Parameter_File>
/export/apps/rDock/src/rDock_2013.1_src/data/scripts/dock_solv.prm

>  <Rbt.Receptor>
prm/pocket_docking_5.prm

>  <SCORE>
-6.81209

>  <SCORE.INTER>
-3.12174

>  <SCORE.INTER.CONST>
1

>  <SCORE.INTER.POLAR>
0

>  <SCORE.INTER.ROT>
9

>  <SCORE.INTER.SOLV>
19.04

>  <SCORE.INTER.VDW>
-18.0278

>  <SCORE.INTER.norm>
-0.0743273

>  <SCORE.INTRA>
-3.69035

>  <SCORE.INTRA.DIHEDRAL>
-4.3696

>  <SCORE.INTRA.DIHEDRAL.0>
16.2863

>  <SCORE.INTRA.POLAR>
0

>  <SCORE.INTRA.POLAR.0>
0

>  <SCORE.INTRA.REPUL>
-0.284861

>  <SCORE.INTRA.REPUL.0>
0.314433

>  <SCORE.INTRA.SOLV>
-1.37942

>  <SCORE.INTRA.SOLV.lig_0>
-103.824

>  <SCORE.INTRA.VDW>
0.608463

>  <SCORE.INTRA.VDW.0>
-5.30945

>  <SCORE.INTRA.norm>
-0.0878654

>  <SCORE.RESTR>
0

>  <SCORE.RESTR.CAVITY>
0

>  <SCORE.RESTR.norm>
0

>  <SCORE.SYSTEM>
0

>  <SCORE.SYSTEM.CONST>
0

>  <SCORE.SYSTEM.DIHEDRAL>
0

>  <SCORE.SYSTEM.SOLV>
0

>  <SCORE.SYSTEM.norm>
0

>  <SCORE.heavy>
42

>  <SCORE.norm>
-0.162193

>  <RMSD>
9.474

$$$$
lig.pdb
 OpenBabel11021811513D
libRbt.so/2013.1/901 2013/11/27
 42 45  0  0  0  0  0  0  0  0999 V2000
   -5.5614   18.0438   29.4806 C   0  0  2  0  0  0  0  0  0  0  0  0
   -5.6899   17.3576   30.7651 O   0  0  0  0  0  0  0  0  0  0  0  0
   -6.4499   19.3622   29.5918 C   0  0  2  0  0  0  0  0  0  0  0  0
   -5.9357   20.2345   30.6512 N   0  0  0  0  0  0  0  0  0  0  0  0
   -7.9777   18.9359   29.8449 C   0  0  1  0  0  0  0  0  0  0  0  0
   -8.8322   20.0947   29.9429 O   0  0  0  0  0  0  0  0  0  0  0  0
   -8.3938   18.0225   28.6792 C   0  0  2  0  0  0  0  0  0  0  0  0
   -9.7115   17.6321   28.8659 O   0  0  0  0  0  0  0  0  0  0  0  0
   -7.4279   16.7533   28.6114 C   0  0  2  0  0  0  0  0  0  0  0  0
   -6.0636   17.1474   28.4185 O   0  0  0  0  0  0  0  0  0  0  0  0
   -7.7807   15.8363   27.4748 C   0  0  0  0  0  0  0  0  0  0  0  0
   -7.8597   16.6283   26.2890 O   0  0  0  0  0  0  0  0  0  0  0  0
   -3.4423   14.6708   33.5041 C   0  0  2  0  0  0  0  0  0  0  0  0
   -2.3807   13.8581   34.0567 N   0  0  0  0  0  0  0  0  0  0  0  0
   -3.7839   14.1967   32.0387 C   0  0  0  0  0  0  0  0  0  0  0  0
   -4.9312   15.0665   31.4144 C   0  0  2  0  0  0  0  0  0  0  0  0
   -5.2114   14.6006   30.0579 N   0  0  0  0  0  0  0  0  0  0  0  0
   -4.5587   16.6145   31.3571 C   0  0  2  0  0  0  0  0  0  0  0  0
   -4.2611   17.0760   32.8131 C   0  0  2  0  0  0  0  0  0  0  0  0
   -3.9295   18.5433   32.6720 O   0  0  0  0  0  0  0  0  0  0  0  0
   -3.0260   16.2153   33.4305 C   0  0  1  0  0  0  0  0  0  0  0  0
   -2.6912   16.5259   34.8211 O   0  0  0  0  0  0  0  0  0  0  0  0
   -3.1025   18.9675   33.6787 C   0  0  1  0  0  0  0  0  0  0  0  0
   -1.6957   19.0494   33.2719 C   0  0  2  0  0  0  0  0  0  0  0  0
   -1.2195   17.7467   33.1582 O   0  0  0  0  0  0  0  0  0  0  0  0
   -1.1249   19.9886   34.3559 C   0  0  2  0  0  0  0  0  0  0  0  0
   -0.1080   19.2417   35.0614 O   0  0  0  0  0  0  0  0  0  0  0  0
   -2.2921   20.3266   35.2238 C   0  0  2  0  0  0  0  0  0  0  0  0
   -3.3249   20.2768   34.1756 O   0  0  0  0  0  0  0  0  0  0  0  0
   -2.1815   21.7811   35.8126 C   0  0  0  0  0  0  0  0  0  0  0  0
   -3.2600   22.6678   35.3889 O   0  0  0  0  0  0  0  0  0  0  0  0
   -0.5638   18.3305   36.1068 C   0  0  2  0  0  0  0  0  0  0  0  0
    0.3366   18.5732   37.4276 C   0  0  2  0  0  0  0  0  0  0  0  0
    1.7794   18.3498   37.0883 N   0  0  0  0  0  0  0  0  0  0  0  0
   -0.1740   17.5692   38.5744 C   0  0  1  0  0  0  0  0  0  0  0  0
   -1.5823   17.8681   38.8173 O   0  0  0  0  0  0  0  0  0  0  0  0
    0.0171   16.0632   38.0846 C   0  0  2  0  0  0  0  0  0  0  0  0
    1.4641   15.8344   37.8744 O   0  0  0  0  0  0  0  0  0  0  0  0
   -0.8536   15.8579   36.7202 C   0  0  1  0  0  0  0  0  0  0  0  0
   -0.4087   16.8562   35.6809 O   0  0  0  0  0  0  0  0  0  0  0  0
   -0.6750   14.3927   36.2007 C   0  0  0  0  0  0  0  0  0  0  0  0
    0.7298   13.8968   36.3342 N   0  0  0  0  0  0  0  0  0  0  0  0
  1  3  1  0  0  0  0
  1  2  1  1  0  0  0
  3  4  1  1  0  0  0
  3  5  1  0  0  0  0
  5  6  1  6  0  0  0
  7  8  1  1  0  0  0
  7  5  1  0  0  0  0
  9 11  1  6  0  0  0
  9  7  1  0  0  0  0
 10  9  1  0  0  0  0
 10  1  1  0  0  0  0
 12 11  1  0  0  0  0
 13 14  1  6  0  0  0
 15 13  1  0  0  0  0
 16 17  1  6  0  0  0
 16 15  1  0  0  0  0
 18  2  1  1  0  0  0
 18 19  1  0  0  0  0
 18 16  1  0  0  0  0
 19 20  1  6  0  0  0
 19 21  1  0  0  0  0
 21 22  1  1  0  0  0
 21 13  1  0  0  0  0
 23 20  1  6  0  0  0
 23 29  1  0  0  0  0
 24 25  1  1  0  0  0
 24 26  1  0  0  0  0
 24 23  1  0  0  0  0
 26 27  1  1  0  0  0
 26 28  1  0  0  0  0
 28 30  1  6  0  0  0
 29 28  1  0  0  0  0
 30 31  1  0  0  0  0
 32 27  1  6  0  0  0
 32 40  1  0  0  0  0
 33 35  1  0  0  0  0
 33 32  1  0  0  0  0
 33 34  1  6  0  0  0
 35 36  1  6  0  0  0
 35 37  1  0  0  0  0
 37 38  1  6  0  0  0
 37 39  1  0  0  0  0
 39 41  1  6  0  0  0
 40 39  1  0  0  0  0
 41 42  1  0  0  0  0
M  END
>  <CHROM.1>
-144.82303489,51.27316416,-114.85558956,-153.18964807,99.92201048,-81.72718252
117.86250695,-132.31018749,-40.14064720,-3.44871181,17.57451364,33.17446300
2.97631121,0.82146393,-2.89962109

>  <Name>
lig.pdb

>  <RI>
0

>  <Rbt.Current_Directory>
/home/itssahil/PROJECTS/Mol_Feturizer/New_Systems/rnas/4wcr

>  <Rbt.Executable>
rbdock ($Id: //depot/dev/client3/rdock/2013.1/src/exe/rbdock.cxx#4 $)

>  <Rbt.Library>
libRbt.so (2013.1, Build901 2013/11/27)

>  <Rbt.Parameter_File>
/export/apps/rDock/src/rDock_2013.1_src/data/scripts/dock_solv.prm

>  <Rbt.Receptor>
prm/blind_docking_60.prm

>  <SCORE>
19.4642

>  <SCORE.INTER>
-3.67884

>  <SCORE.INTER.CONST>
1

>  <SCORE.INTER.POLAR>
0

>  <SCORE.INTER.ROT>
9

>  <SCORE.INTER.SOLV>
36.8591

>  <SCORE.INTER.VDW>
-24.3389

>  <SCORE.INTER.norm>
-0.0875914

>  <SCORE.INTRA>
18.9964

>  <SCORE.INTRA.DIHEDRAL>
18.7567

>  <SCORE.INTRA.DIHEDRAL.0>
16.2863

>  <SCORE.INTRA.POLAR>
0

>  <SCORE.INTRA.POLAR.0>
0

>  <SCORE.INTRA.REPUL>
-0.296943

>  <SCORE.INTRA.REPUL.0>
0.314433

>  <SCORE.INTRA.SOLV>
4.65877

>  <SCORE.INTRA.SOLV.lig_0>
-103.824

>  <SCORE.INTRA.VDW>
8.77336

>  <SCORE.INTRA.VDW.0>
-5.30945

>  <SCORE.INTRA.norm>
0.452295

>  <SCORE.RESTR>
4.14669

>  <SCORE.RESTR.CAVITY>
4.14669

>  <SCORE.RESTR.norm>
0.0987307

>  <SCORE.SYSTEM>
0

>  <SCORE.SYSTEM.CONST>
0

>  <SCORE.SYSTEM.DIHEDRAL>
0

>  <SCORE.SYSTEM.SOLV>
0

>  <SCORE.SYSTEM.norm>
0

>  <SCORE.heavy>
42

>  <SCORE.norm>
0.463434

>  <RMSD>
9.475

$$$$
lig.pdb
 OpenBabel11021811513D
libRbt.so/2013.1/901 2013/11/27
 42 45  0  0  0  0  0  0  0  0999 V2000
   -2.3103    8.2424   34.0672 C   0  0  2  0  0  0  0  0  0  0  0  0
   -2.4092    6.8231   33.7311 O   0  0  0  0  0  0  0  0  0  0  0  0
   -2.5369    9.0372   32.7045 C   0  0  2  0  0  0  0  0  0  0  0  0
   -3.8757    8.7657   32.1737 N   0  0  0  0  0  0  0  0  0  0  0  0
   -1.3792    8.6283   31.6690 C   0  0  1  0  0  0  0  0  0  0  0  0
   -1.5292    9.3295   30.4166 O   0  0  0  0  0  0  0  0  0  0  0  0
   -0.0336    8.9511   32.3411 C   0  0  2  0  0  0  0  0  0  0  0  0
    0.9927    8.6080   31.4735 O   0  0  0  0  0  0  0  0  0  0  0  0
    0.0926    8.1516   33.7170 C   0  0  2  0  0  0  0  0  0  0  0  0
   -0.9643    8.5001   34.6200 O   0  0  0  0  0  0  0  0  0  0  0  0
    1.3846    8.4474   34.4245 C   0  0  0  0  0  0  0  0  0  0  0  0
    1.3611    9.8221   34.8106 O   0  0  0  0  0  0  0  0  0  0  0  0
   -3.3849    3.3643   36.3497 C   0  0  2  0  0  0  0  0  0  0  0  0
   -3.2336    2.2701   37.2840 N   0  0  0  0  0  0  0  0  0  0  0  0
   -2.4028    3.1775   35.1293 C   0  0  0  0  0  0  0  0  0  0  0  0
   -2.5445    4.3553   34.1021 C   0  0  2  0  0  0  0  0  0  0  0  0
   -1.6150    4.1482   32.9936 N   0  0  0  0  0  0  0  0  0  0  0  0
   -2.2479    5.7756   34.7602 C   0  0  2  0  0  0  0  0  0  0  0  0
   -3.2484    5.9613   35.9375 C   0  0  2  0  0  0  0  0  0  0  0  0
   -2.9092    7.3238   36.4953 O   0  0  0  0  0  0  0  0  0  0  0  0
   -3.0497    4.7737   37.0319 C   0  0  1  0  0  0  0  0  0  0  0  0
   -3.9785    4.8141   38.1623 O   0  0  0  0  0  0  0  0  0  0  0  0
   -3.9221    7.8085   37.2803 C   0  0  1  0  0  0  0  0  0  0  0  0
   -3.5991    9.0941   37.9080 C   0  0  2  0  0  0  0  0  0  0  0  0
   -2.6699    8.8440   38.9133 O   0  0  0  0  0  0  0  0  0  0  0  0
   -5.0074    9.6129   38.2695 C   0  0  2  0  0  0  0  0  0  0  0  0
   -5.0408    9.7615   39.7070 O   0  0  0  0  0  0  0  0  0  0  0  0
   -5.9424    8.5558   37.7816 C   0  0  2  0  0  0  0  0  0  0  0  0
   -5.1419    8.1169   36.6264 O   0  0  0  0  0  0  0  0  0  0  0  0
   -7.3108    9.1628   37.2987 C   0  0  0  0  0  0  0  0  0  0  0  0
   -7.1821   10.0610   36.1560 O   0  0  0  0  0  0  0  0  0  0  0  0
   -4.2306   10.8326   40.2791 C   0  0  2  0  0  0  0  0  0  0  0  0
   -4.5608   10.9383   41.8583 C   0  0  2  0  0  0  0  0  0  0  0  0
   -6.0265   11.1951   42.0392 N   0  0  0  0  0  0  0  0  0  0  0  0
   -3.6624   12.1169   42.4810 C   0  0  1  0  0  0  0  0  0  0  0  0
   -2.2646   11.7690   42.2427 O   0  0  0  0  0  0  0  0  0  0  0  0
   -4.0382   13.4985   41.7779 C   0  0  2  0  0  0  0  0  0  0  0  0
   -5.4588   13.7877   42.0755 O   0  0  0  0  0  0  0  0  0  0  0  0
   -3.7517   13.3495   40.1786 C   0  0  1  0  0  0  0  0  0  0  0  0
   -4.5486   12.1939   39.6272 O   0  0  0  0  0  0  0  0  0  0  0  0
   -4.1268   14.6842   39.4530 C   0  0  0  0  0  0  0  0  0  0  0  0
   -3.8935   14.6274   37.9766 N   0  0  0  0  0  0  0  0  0  0  0  0
  1  3  1  0  0  0  0
  1  2  1  6  0  0  0
  3  4  1  6  0  0  0
  3  5  1  0  0  0  0
  5  6  1  6  0  0  0
  7  8  1  6  0  0  0
  7  5  1  0  0  0  0
  9 11  1  1  0  0  0
  9  7  1  0  0  0  0
 10  9  1  0  0  0  0
 10  1  1  0  0  0  0
 12 11  1  0  0  0  0
 13 14  1  1  0  0  0
 15 13  1  0  0  0  0
 16 17  1  6  0  0  0
 16 15  1  0  0  0  0
 18  2  1  6  0  0  0
 18 19  1  0  0  0  0
 18 16  1  0  0  0  0
 19 20  1  1  0  0  0
 19 21  1  0  0  0  0
 21 22  1  1  0  0  0
 21 13  1  0  0  0  0
 23 20  1  6  0  0  0
 23 29  1  0  0  0  0
 24 25  1  1  0  0  0
 24 26  1  0  0  0  0
 24 23  1  0  0  0  0
 26 27  1  1  0  0  0
 26 28  1  0  0  0  0
 28 30  1  6  0  0  0
 29 28  1  0  0  0  0
 30 31  1  0  0  0  0
 32 27  1  6  0  0  0
 32 40  1  0  0  0  0
 33 35  1  0  0  0  0
 33 32  1  0  0  0  0
 33 34  1  6  0  0  0
 35 36  1  6  0  0  0
 35 37  1  0  0  0  0
 37 38  1  6  0  0  0
 37 39  1  0  0  0  0
 39 41  1  6  0  0  0
 40 39  1  0  0  0  0
 41 42  1  0  0  0  0
M  END
>  <CHROM.1>
179.90949025,65.67500781,174.81040629,162.71812769,176.49555682,69.54792794
63.12408717,172.85277482,-179.91295887,-3.14062862,8.82126463,36.76745594
-0.91237254,1.02504711,0.32498506

>  <Name>
lig.pdb

>  <RI>
0

>  <Rbt.Current_Directory>
/home/itssahil/PROJECTS/Mol_Feturizer/New_Systems/rnas/4wcr

>  <Rbt.Executable>
rbdock ($Id: //depot/dev/client3/rdock/2013.1/src/exe/rbdock.cxx#4 $)

>  <Rbt.Library>
libRbt.so (2013.1, Build901 2013/11/27)

>  <Rbt.Parameter_File>
/export/apps/rDock/src/rDock_2013.1_src/data/scripts/dock_solv.prm

>  <Rbt.Receptor>
prm/pocket_docking_5.prm

>  <SCORE>
-8.26113

>  <SCORE.INTER>
1.03534

>  <SCORE.INTER.CONST>
1

>  <SCORE.INTER.POLAR>
0

>  <SCORE.INTER.ROT>
9

>  <SCORE.INTER.SOLV>
13.7044

>  <SCORE.INTER.VDW>
-13.4779

>  <SCORE.INTER.norm>
0.0246509

>  <SCORE.INTRA>
-9.33289

>  <SCORE.INTRA.DIHEDRAL>
-13.355

>  <SCORE.INTRA.DIHEDRAL.0>
16.2863

>  <SCORE.INTRA.POLAR>
0

>  <SCORE.INTRA.POLAR.0>
0

>  <SCORE.INTRA.REPUL>
-0.314433

>  <SCORE.INTRA.REPUL.0>
0.314433

>  <SCORE.INTRA.SOLV>
-5.95575

>  <SCORE.INTRA.SOLV.lig_0>
-103.824

>  <SCORE.INTRA.VDW>
1.89464

>  <SCORE.INTRA.VDW.0>
-5.30945

>  <SCORE.INTRA.norm>
-0.222212

>  <SCORE.RESTR>
0.0364277

>  <SCORE.RESTR.CAVITY>
0.0364277

>  <SCORE.RESTR.norm>
0.000867325

>  <SCORE.SYSTEM>
0

>  <SCORE.SYSTEM.CONST>
0

>  <SCORE.SYSTEM.DIHEDRAL>
0

>  <SCORE.SYSTEM.SOLV>
0

>  <SCORE.SYSTEM.norm>
0

>  <SCORE.heavy>
42

>  <SCORE.norm>
-0.196694

>  <RMSD>
9.483

$$$$
lig.pdb
 OpenBabel11021811513D
libRbt.so/2013.1/901 2013/11/27
 42 45  0  0  0  0  0  0  0  0999 V2000
   -2.4571    8.6772   35.5771 C   0  0  2  0  0  0  0  0  0  0  0  0
   -2.8865    8.4353   36.9534 O   0  0  0  0  0  0  0  0  0  0  0  0
   -3.5192    7.9397   34.6455 C   0  0  2  0  0  0  0  0  0  0  0  0
   -4.8522    8.5178   34.8370 N   0  0  0  0  0  0  0  0  0  0  0  0
   -3.4874    6.3670   34.9702 C   0  0  1  0  0  0  0  0  0  0  0  0
   -4.4254    5.6457   34.1442 O   0  0  0  0  0  0  0  0  0  0  0  0
   -2.0445    5.8849   34.7420 C   0  0  2  0  0  0  0  0  0  0  0  0
   -1.9787    4.5268   35.0156 O   0  0  0  0  0  0  0  0  0  0  0  0
   -1.0432    6.7036   35.6777 C   0  0  2  0  0  0  0  0  0  0  0  0
   -1.1045    8.1085   35.4017 O   0  0  0  0  0  0  0  0  0  0  0  0
    0.3853    6.2830   35.4788 C   0  0  0  0  0  0  0  0  0  0  0  0
    0.5296    4.9711   36.0244 O   0  0  0  0  0  0  0  0  0  0  0  0
   -1.4880    9.8118   40.9437 C   0  0  2  0  0  0  0  0  0  0  0  0
   -0.6602    9.9897   42.1167 N   0  0  0  0  0  0  0  0  0  0  0  0
   -1.7378    8.2763   40.6819 C   0  0  0  0  0  0  0  0  0  0  0  0
   -2.6308    8.0559   39.4105 C   0  0  2  0  0  0  0  0  0  0  0  0
   -2.8317    6.6238   39.1996 N   0  0  0  0  0  0  0  0  0  0  0  0
   -1.9827    8.6807   38.0959 C   0  0  2  0  0  0  0  0  0  0  0  0
   -1.7771   10.2012   38.3557 C   0  0  2  0  0  0  0  0  0  0  0  0
   -1.1738   10.7145   37.0692 O   0  0  0  0  0  0  0  0  0  0  0  0
   -0.7959   10.4217   39.6348 C   0  0  1  0  0  0  0  0  0  0  0  0
   -0.5735   11.8192   40.0087 O   0  0  0  0  0  0  0  0  0  0  0  0
   -1.7463   11.8992   36.6868 C   0  0  1  0  0  0  0  0  0  0  0  0
   -1.3777   12.3038   35.3261 C   0  0  2  0  0  0  0  0  0  0  0  0
   -0.0520   12.7255   35.3626 O   0  0  0  0  0  0  0  0  0  0  0  0
   -2.5002   13.3119   34.9992 C   0  0  2  0  0  0  0  0  0  0  0  0
   -1.8597   14.5847   34.7557 O   0  0  0  0  0  0  0  0  0  0  0  0
   -3.3654   13.3303   36.2162 C   0  0  2  0  0  0  0  0  0  0  0  0
   -3.1619   11.9266   36.6113 O   0  0  0  0  0  0  0  0  0  0  0  0
   -4.8757   13.5828   35.8563 C   0  0  0  0  0  0  0  0  0  0  0  0
   -5.7458   13.6885   37.0229 O   0  0  0  0  0  0  0  0  0  0  0  0
   -1.3812   15.3174   35.9241 C   0  0  2  0  0  0  0  0  0  0  0  0
   -2.6245   16.1265   36.5672 C   0  0  2  0  0  0  0  0  0  0  0  0
   -3.2009   17.0468   35.5339 N   0  0  0  0  0  0  0  0  0  0  0  0
   -2.0902   16.9270   37.8546 C   0  0  1  0  0  0  0  0  0  0  0  0
   -1.5476   15.9408   38.7844 O   0  0  0  0  0  0  0  0  0  0  0  0
   -0.9695   17.9689   37.4040 C   0  0  2  0  0  0  0  0  0  0  0  0
   -1.5968   18.9386   36.4787 O   0  0  0  0  0  0  0  0  0  0  0  0
    0.2480   17.1361   36.7067 C   0  0  1  0  0  0  0  0  0  0  0  0
   -0.2865   16.3359   35.5453 O   0  0  0  0  0  0  0  0  0  0  0  0
    1.3602   18.1309   36.2356 C   0  0  0  0  0  0  0  0  0  0  0  0
    0.8500   19.1607   35.2783 N   0  0  0  0  0  0  0  0  0  0  0  0
  1  3  1  0  0  0  0
  1  2  1  1  0  0  0
  3  4  1  1  0  0  0
  3  5  1  0  0  0  0
  5  6  1  6  0  0  0
  7  8  1  1  0  0  0
  7  5  1  0  0  0  0
  9 11  1  6  0  0  0
  9  7  1  0  0  0  0
 10  9  1  0  0  0  0
 10  1  1  0  0  0  0
 12 11  1  0  0  0  0
 13 14  1  1  0  0  0
 15 13  1  0  0  0  0
 16 17  1  6  0  0  0
 16 15  1  0  0  0  0
 18  2  1  6  0  0  0
 18 19  1  0  0  0  0
 18 16  1  0  0  0  0
 19 20  1  6  0  0  0
 19 21  1  0  0  0  0
 21 22  1  1  0  0  0
 21 13  1  0  0  0  0
 23 20  1  6  0  0  0
 23 29  1  0  0  0  0
 24 25  1  1  0  0  0
 24 26  1  0  0  0  0
 24 23  1  0  0  0  0
 26 27  1  1  0  0  0
 26 28  1  0  0  0  0
 28 30  1  6  0  0  0
 29 28  1  0  0  0  0
 30 31  1  0  0  0  0
 32 27  1  6  0  0  0
 32 40  1  0  0  0  0
 33 35  1  0  0  0  0
 33 32  1  0  0  0  0
 33 34  1  6  0  0  0
 35 36  1  1  0  0  0
 35 37  1  0  0  0  0
 37 38  1  6  0  0  0
 37 39  1  0  0  0  0
 39 41  1  6  0  0  0
 40 39  1  0  0  0  0
 41 42  1  0  0  0  0
M  END
>  <CHROM.1>
164.95907187,-70.32648720,-168.86480825,136.43865181,-169.09914536,-75.72598011
-176.52708208,-82.47742042,-57.84681990,-1.86447006,11.49447145,36.74470178
1.84586371,1.24786465,2.88668219

>  <Name>
lig.pdb

>  <RI>
0

>  <Rbt.Current_Directory>
/home/itssahil/PROJECTS/Mol_Feturizer/New_Systems/rnas/4wcr

>  <Rbt.Executable>
rbdock ($Id: //depot/dev/client3/rdock/2013.1/src/exe/rbdock.cxx#4 $)

>  <Rbt.Library>
libRbt.so (2013.1, Build901 2013/11/27)

>  <Rbt.Parameter_File>
/export/apps/rDock/src/rDock_2013.1_src/data/scripts/dock_solv.prm

>  <Rbt.Receptor>
prm/pocket_docking_3.prm

>  <SCORE>
1.11015

>  <SCORE.INTER>
4.0951

>  <SCORE.INTER.CONST>
1

>  <SCORE.INTER.POLAR>
0

>  <SCORE.INTER.ROT>
9

>  <SCORE.INTER.SOLV>
18.451

>  <SCORE.INTER.VDW>
-13.0203

>  <SCORE.INTER.norm>
0.0975025

>  <SCORE.INTRA>
-3.0017

>  <SCORE.INTRA.DIHEDRAL>
-3.82837

>  <SCORE.INTRA.DIHEDRAL.0>
16.2863

>  <SCORE.INTRA.POLAR>
0

>  <SCORE.INTRA.POLAR.0>
0

>  <SCORE.INTRA.REPUL>
-0.314433

>  <SCORE.INTRA.REPUL.0>
0.314433

>  <SCORE.INTRA.SOLV>
-2.32201

>  <SCORE.INTRA.SOLV.lig_0>
-103.824

>  <SCORE.INTRA.VDW>
1.64566

>  <SCORE.INTRA.VDW.0>
-5.30945

>  <SCORE.INTRA.norm>
-0.071469

>  <SCORE.RESTR>
0.0167456

>  <SCORE.RESTR.CAVITY>
0.0167456

>  <SCORE.RESTR.norm>
0.000398705

>  <SCORE.SYSTEM>
0

>  <SCORE.SYSTEM.CONST>
0

>  <SCORE.SYSTEM.DIHEDRAL>
0

>  <SCORE.SYSTEM.SOLV>
0

>  <SCORE.SYSTEM.norm>
0

>  <SCORE.heavy>
42

>  <SCORE.norm>
0.0264321

>  <RMSD>
9.484

$$$$
lig.pdb
 OpenBabel11021811513D
libRbt.so/2013.1/901 2013/11/27
 42 45  0  0  0  0  0  0  0  0999 V2000
   -6.1121   17.9497   29.0715 C   0  0  2  0  0  0  0  0  0  0  0  0
   -6.3562   16.8669   30.0229 O   0  0  0  0  0  0  0  0  0  0  0  0
   -7.1026   19.1297   29.4795 C   0  0  2  0  0  0  0  0  0  0  0  0
   -6.7973   19.6059   30.8314 N   0  0  0  0  0  0  0  0  0  0  0  0
   -8.6146   18.6038   29.3483 C   0  0  1  0  0  0  0  0  0  0  0  0
   -9.5580   19.6390   29.6962 O   0  0  0  0  0  0  0  0  0  0  0  0
   -8.8059   18.1273   27.8982 C   0  0  2  0  0  0  0  0  0  0  0  0
  -10.1041   17.6630   27.7481 O   0  0  0  0  0  0  0  0  0  0  0  0
   -7.7481   16.9810   27.5585 C   0  0  2  0  0  0  0  0  0  0  0  0
   -6.4033   17.4521   27.7109 O   0  0  0  0  0  0  0  0  0  0  0  0
   -7.8805   16.4930   26.1437 C   0  0  0  0  0  0  0  0  0  0  0  0
   -9.1057   15.7651   26.0504 O   0  0  0  0  0  0  0  0  0  0  0  0
   -4.8319   12.8589   31.1997 C   0  0  2  0  0  0  0  0  0  0  0  0
   -4.0420   11.6470   31.2184 N   0  0  0  0  0  0  0  0  0  0  0  0
   -5.4649   13.0738   29.7707 C   0  0  0  0  0  0  0  0  0  0  0  0
   -6.3242   14.3860   29.7228 C   0  0  2  0  0  0  0  0  0  0  0  0
   -6.8852   14.5512   28.3835 N   0  0  0  0  0  0  0  0  0  0  0  0
   -5.4739   15.6837   30.0852 C   0  0  2  0  0  0  0  0  0  0  0  0
   -4.8875   15.4729   31.5111 C   0  0  2  0  0  0  0  0  0  0  0  0
   -4.1110   16.7409   31.7792 O   0  0  0  0  0  0  0  0  0  0  0  0
   -3.9434   14.1479   31.5365 C   0  0  1  0  0  0  0  0  0  0  0  0
   -3.3784   13.8173   32.8456 O   0  0  0  0  0  0  0  0  0  0  0  0
   -3.3910   16.6494   32.9414 C   0  0  1  0  0  0  0  0  0  0  0  0
   -3.1862   17.9463   33.5951 C   0  0  2  0  0  0  0  0  0  0  0  0
   -2.2548   18.6508   32.8383 O   0  0  0  0  0  0  0  0  0  0  0  0
   -2.8383   17.5050   35.0330 C   0  0  2  0  0  0  0  0  0  0  0  0
   -1.5047   17.9909   35.3071 O   0  0  0  0  0  0  0  0  0  0  0  0
   -2.9092   16.0137   35.0041 C   0  0  2  0  0  0  0  0  0  0  0  0
   -3.9729   15.8967   33.9927 O   0  0  0  0  0  0  0  0  0  0  0  0
   -3.3959   15.4245   36.3790 C   0  0  0  0  0  0  0  0  0  0  0  0
   -3.0304   14.0261   36.5790 O   0  0  0  0  0  0  0  0  0  0  0  0
   -0.8779   17.5367   36.5448 C   0  0  2  0  0  0  0  0  0  0  0  0
    0.3948   18.4849   36.8534 C   0  0  2  0  0  0  0  0  0  0  0  0
    1.3458   18.4254   35.6964 N   0  0  0  0  0  0  0  0  0  0  0  0
    1.0766   17.9808   38.2190 C   0  0  1  0  0  0  0  0  0  0  0  0
    0.0659   18.0732   39.2686 O   0  0  0  0  0  0  0  0  0  0  0  0
    1.5801   16.4781   38.0374 C   0  0  2  0  0  0  0  0  0  0  0  0
    2.6071   16.4691   36.9719 O   0  0  0  0  0  0  0  0  0  0  0  0
    0.2892   15.5503   37.6701 C   0  0  1  0  0  0  0  0  0  0  0  0
   -0.3788   16.0820   36.4268 O   0  0  0  0  0  0  0  0  0  0  0  0
    0.7500   14.0688   37.4672 C   0  0  0  0  0  0  0  0  0  0  0  0
    1.2452   13.4371   38.7294 N   0  0  0  0  0  0  0  0  0  0  0  0
  1  3  1  0  0  0  0
  1  2  1  1  0  0  0
  3  4  1  1  0  0  0
  3  5  1  0  0  0  0
  5  6  1  6  0  0  0
  7  8  1  1  0  0  0
  7  5  1  0  0  0  0
  9 11  1  6  0  0  0
  9  7  1  0  0  0  0
 10  9  1  0  0  0  0
 10  1  1  0  0  0  0
 12 11  1  0  0  0  0
 13 14  1  6  0  0  0
 15 13  1  0  0  0  0
 16 17  1  6  0  0  0
 16 15  1  0  0  0  0
 18  2  1  1  0  0  0
 18 19  1  0  0  0  0
 18 16  1  0  0  0  0
 19 20  1  6  0  0  0
 19 21  1  0  0  0  0
 21 22  1  1  0  0  0
 21 13  1  0  0  0  0
 23 20  1  6  0  0  0
 23 29  1  0  0  0  0
 24 25  1  6  0  0  0
 24 26  1  0  0  0  0
 24 23  1  0  0  0  0
 26 27  1  6  0  0  0
 26 28  1  0  0  0  0
 28 30  1  1  0  0  0
 29 28  1  0  0  0  0
 30 31  1  0  0  0  0
 32 27  1  6  0  0  0
 32 40  1  0  0  0  0
 33 35  1  0  0  0  0
 33 32  1  0  0  0  0
 33 34  1  6  0  0  0
 35 36  1  1  0  0  0
 35 37  1  0  0  0  0
 37 38  1  6  0  0  0
 37 39  1  0  0  0  0
 39 41  1  6  0  0  0
 40 39  1  0  0  0  0
 41 42  1  0  0  0  0
M  END
>  <CHROM.1>
-170.45988641,-70.00356731,-117.71766542,-172.59821347,-151.10883442,-171.65834796
-158.90955003,-164.74445939,66.84663935,-3.87550324,16.42129574,32.69260693
3.05303184,0.83473387,-2.96448811

>  <Name>
lig.pdb

>  <RI>
0

>  <Rbt.Current_Directory>
/home/itssahil/PROJECTS/Mol_Feturizer/New_Systems/rnas/4wcr

>  <Rbt.Executable>
rbdock ($Id: //depot/dev/client3/rdock/2013.1/src/exe/rbdock.cxx#4 $)

>  <Rbt.Library>
libRbt.so (2013.1, Build901 2013/11/27)

>  <Rbt.Parameter_File>
/export/apps/rDock/src/rDock_2013.1_src/data/scripts/dock_solv.prm

>  <Rbt.Receptor>
prm/blind_docking_100.prm

>  <SCORE>
-9.3323

>  <SCORE.INTER>
-12.7711

>  <SCORE.INTER.CONST>
1

>  <SCORE.INTER.POLAR>
0

>  <SCORE.INTER.ROT>
9

>  <SCORE.INTER.SOLV>
33.2235

>  <SCORE.INTER.VDW>
-29.1885

>  <SCORE.INTER.norm>
-0.304073

>  <SCORE.INTRA>
0.214709

>  <SCORE.INTRA.DIHEDRAL>
-1.41107

>  <SCORE.INTRA.DIHEDRAL.0>
16.2863

>  <SCORE.INTRA.POLAR>
0

>  <SCORE.INTRA.POLAR.0>
0

>  <SCORE.INTRA.REPUL>
-0.314433

>  <SCORE.INTRA.REPUL.0>
0.314433

>  <SCORE.INTRA.SOLV>
-0.9622

>  <SCORE.INTRA.SOLV.lig_0>
-103.824

>  <SCORE.INTRA.VDW>
2.97351

>  <SCORE.INTRA.VDW.0>
-5.30945

>  <SCORE.INTRA.norm>
0.00511213

>  <SCORE.RESTR>
3.22407

>  <SCORE.RESTR.CAVITY>
3.22407

>  <SCORE.RESTR.norm>
0.0767635

>  <SCORE.SYSTEM>
0

>  <SCORE.SYSTEM.CONST>
0

>  <SCORE.SYSTEM.DIHEDRAL>
0

>  <SCORE.SYSTEM.SOLV>
0

>  <SCORE.SYSTEM.norm>
0

>  <SCORE.heavy>
42

>  <SCORE.norm>
-0.222198

>  <RMSD>
9.486

$$$$
lig.pdb
 OpenBabel11021811513D
libRbt.so/2013.1/901 2013/11/27
 42 45  0  0  0  0  0  0  0  0999 V2000
   -2.1080   15.8066   35.2665 C   0  0  2  0  0  0  0  0  0  0  0  0
   -3.0293   16.9417   35.2567 O   0  0  0  0  0  0  0  0  0  0  0  0
   -2.3802   15.0269   36.6295 C   0  0  2  0  0  0  0  0  0  0  0  0
   -3.7562   14.5236   36.6619 N   0  0  0  0  0  0  0  0  0  0  0  0
   -2.0647   16.0105   37.8594 C   0  0  1  0  0  0  0  0  0  0  0  0
   -2.2842   15.3503   39.1238 O   0  0  0  0  0  0  0  0  0  0  0  0
   -0.6055   16.4736   37.7083 C   0  0  2  0  0  0  0  0  0  0  0  0
   -0.2976   17.3290   38.7557 O   0  0  0  0  0  0  0  0  0  0  0  0
   -0.4092   17.2021   36.3014 C   0  0  2  0  0  0  0  0  0  0  0  0
   -0.7253   16.3252   35.2129 O   0  0  0  0  0  0  0  0  0  0  0  0
    1.0074   17.6582   36.0955 C   0  0  0  0  0  0  0  0  0  0  0  0
    1.8676   16.5889   36.4910 O   0  0  0  0  0  0  0  0  0  0  0  0
   -3.3167   21.1891   33.9724 C   0  0  2  0  0  0  0  0  0  0  0  0
   -2.9375   22.5131   33.5295 N   0  0  0  0  0  0  0  0  0  0  0  0
   -2.5432   20.8157   35.2957 C   0  0  0  0  0  0  0  0  0  0  0  0
   -2.9342   19.3804   35.7951 C   0  0  2  0  0  0  0  0  0  0  0  0
   -2.1922   19.0713   37.0156 N   0  0  0  0  0  0  0  0  0  0  0  0
   -2.6274   18.2542   34.7107 C   0  0  2  0  0  0  0  0  0  0  0  0
   -3.4262   18.6159   33.4251 C   0  0  2  0  0  0  0  0  0  0  0  0
   -3.0905   17.5032   32.4598 O   0  0  0  0  0  0  0  0  0  0  0  0
   -2.9672   20.0768   32.8748 C   0  0  1  0  0  0  0  0  0  0  0  0
   -3.6936   20.5482   31.6949 O   0  0  0  0  0  0  0  0  0  0  0  0
   -4.2213   16.9701   31.8993 C   0  0  1  0  0  0  0  0  0  0  0  0
   -4.6301   17.6532   30.6674 C   0  0  2  0  0  0  0  0  0  0  0  0
   -5.1525   18.8904   31.0321 O   0  0  0  0  0  0  0  0  0  0  0  0
   -5.5439   16.5883   30.0238 C   0  0  2  0  0  0  0  0  0  0  0  0
   -6.8577   17.1803   29.9093 O   0  0  0  0  0  0  0  0  0  0  0  0
   -5.5164   15.4355   30.9724 C   0  0  2  0  0  0  0  0  0  0  0  0
   -4.1392   15.6252   31.4574 O   0  0  0  0  0  0  0  0  0  0  0  0
   -5.6466   14.0584   30.2234 C   0  0  0  0  0  0  0  0  0  0  0  0
   -5.3433   12.9042   31.0631 O   0  0  0  0  0  0  0  0  0  0  0  0
   -7.2989   17.5542   28.5690 C   0  0  2  0  0  0  0  0  0  0  0  0
   -8.4740   18.6565   28.7045 C   0  0  2  0  0  0  0  0  0  0  0  0
   -9.5955   18.0839   29.5174 N   0  0  0  0  0  0  0  0  0  0  0  0
   -8.9513   19.0654   27.2250 C   0  0  1  0  0  0  0  0  0  0  0  0
   -7.7865   19.5995   26.5253 O   0  0  0  0  0  0  0  0  0  0  0  0
   -9.5290   17.7789   26.4794 C   0  0  2  0  0  0  0  0  0  0  0  0
  -10.7095   17.3071   27.2370 O   0  0  0  0  0  0  0  0  0  0  0  0
   -8.3445   16.6594   26.4056 C   0  0  1  0  0  0  0  0  0  0  0  0
   -7.8607   16.3419   27.7984 O   0  0  0  0  0  0  0  0  0  0  0  0
   -8.8827   15.3739   25.6940 C   0  0  0  0  0  0  0  0  0  0  0  0
   -7.9195   14.2311   25.7539 N   0  0  0  0  0  0  0  0  0  0  0  0
  1  3  1  0  0  0  0
  1  2  1  1  0  0  0
  3  4  1  6  0  0  0
  3  5  1  0  0  0  0
  5  6  1  1  0  0  0
  7  8  1  1  0  0  0
  7  5  1  0  0  0  0
  9 11  1  6  0  0  0
  9  7  1  0  0  0  0
 10  9  1  0  0  0  0
 10  1  1  0  0  0  0
 12 11  1  0  0  0  0
 13 14  1  6  0  0  0
 15 13  1  0  0  0  0
 16 17  1  1  0  0  0
 16 15  1  0  0  0  0
 18  2  1  1  0  0  0
 18 19  1  0  0  0  0
 18 16  1  0  0  0  0
 19 20  1  6  0  0  0
 19 21  1  0  0  0  0
 21 22  1  6  0  0  0
 21 13  1  0  0  0  0
 23 20  1  6  0  0  0
 23 29  1  0  0  0  0
 24 25  1  1  0  0  0
 24 26  1  0  0  0  0
 24 23  1  0  0  0  0
 26 27  1  1  0  0  0
 26 28  1  0  0  0  0
 28 30  1  6  0  0  0
 29 28  1  0  0  0  0
 30 31  1  0  0  0  0
 32 27  1  1  0  0  0
 32 40  1  0  0  0  0
 33 35  1  0  0  0  0
 33 32  1  0  0  0  0
 33 34  1  1  0  0  0
 35 36  1  6  0  0  0
 35 37  1  0  0  0  0
 37 38  1  1  0  0  0
 37 39  1  0  0  0  0
 39 41  1  1  0  0  0
 40 39  1  0  0  0  0
 41 42  1  0  0  0  0
M  END
>  <CHROM.1>
142.72127237,44.95142478,-127.96851649,130.17386951,89.23455208,107.34479223
167.73456718,-158.99070922,-172.02809058,-4.43835743,17.33803595,32.36618665
0.05390838,0.91161242,3.05336705

>  <Name>
lig.pdb

>  <RI>
0

>  <Rbt.Current_Directory>
/home/itssahil/PROJECTS/Mol_Feturizer/New_Systems/rnas/4wcr

>  <Rbt.Executable>
rbdock ($Id: //depot/dev/client3/rdock/2013.1/src/exe/rbdock.cxx#4 $)

>  <Rbt.Library>
libRbt.so (2013.1, Build901 2013/11/27)

>  <Rbt.Parameter_File>
/export/apps/rDock/src/rDock_2013.1_src/data/scripts/dock_solv.prm

>  <Rbt.Receptor>
prm/blind_docking_60.prm

>  <SCORE>
10.4204

>  <SCORE.INTER>
-4.80328

>  <SCORE.INTER.CONST>
1

>  <SCORE.INTER.POLAR>
0

>  <SCORE.INTER.ROT>
9

>  <SCORE.INTER.SOLV>
26.2268

>  <SCORE.INTER.VDW>
-21.5444

>  <SCORE.INTER.norm>
-0.114364

>  <SCORE.INTRA>
9.6303

>  <SCORE.INTRA.DIHEDRAL>
15.9135

>  <SCORE.INTRA.DIHEDRAL.0>
16.2863

>  <SCORE.INTRA.POLAR>
0

>  <SCORE.INTRA.POLAR.0>
0

>  <SCORE.INTRA.REPUL>
-0.314433

>  <SCORE.INTRA.REPUL.0>
0.314433

>  <SCORE.INTRA.SOLV>
-0.678367

>  <SCORE.INTRA.SOLV.lig_0>
-103.824

>  <SCORE.INTRA.VDW>
3.58492

>  <SCORE.INTRA.VDW.0>
-5.30945

>  <SCORE.INTRA.norm>
0.229293

>  <SCORE.RESTR>
5.59338

>  <SCORE.RESTR.CAVITY>
5.59338

>  <SCORE.RESTR.norm>
0.133176

>  <SCORE.SYSTEM>
0

>  <SCORE.SYSTEM.CONST>
0

>  <SCORE.SYSTEM.DIHEDRAL>
0

>  <SCORE.SYSTEM.SOLV>
0

>  <SCORE.SYSTEM.norm>
0

>  <SCORE.heavy>
42

>  <SCORE.norm>
0.248105

>  <RMSD>
9.487

$$$$
lig.pdb
 OpenBabel11021811513D
libRbt.so/2013.1/901 2013/11/27
 42 45  0  0  0  0  0  0  0  0999 V2000
   -3.5893    7.0406   29.7760 C   0  0  2  0  0  0  0  0  0  0  0  0
   -3.6660    8.4110   30.2793 O   0  0  0  0  0  0  0  0  0  0  0  0
   -3.2081    6.1298   31.0271 C   0  0  2  0  0  0  0  0  0  0  0  0
   -4.2563    6.2040   32.0487 N   0  0  0  0  0  0  0  0  0  0  0  0
   -1.7781    6.5970   31.5898 C   0  0  1  0  0  0  0  0  0  0  0  0
   -1.3766    5.7958   32.7209 O   0  0  0  0  0  0  0  0  0  0  0  0
   -0.7740    6.4829   30.4300 C   0  0  2  0  0  0  0  0  0  0  0  0
    0.4758    6.8814   30.8804 O   0  0  0  0  0  0  0  0  0  0  0  0
   -1.2531    7.3874   29.2050 C   0  0  2  0  0  0  0  0  0  0  0  0
   -2.5441    6.9825   28.7330 O   0  0  0  0  0  0  0  0  0  0  0  0
   -0.3140    7.2963   28.0358 C   0  0  0  0  0  0  0  0  0  0  0  0
   -0.8565    8.0937   26.9825 O   0  0  0  0  0  0  0  0  0  0  0  0
   -5.5005   12.0271   28.4543 C   0  0  2  0  0  0  0  0  0  0  0  0
   -6.4851   12.9280   27.8957 N   0  0  0  0  0  0  0  0  0  0  0  0
   -5.5110   10.6571   27.6722 C   0  0  0  0  0  0  0  0  0  0  0  0
   -4.4533    9.6593   28.2624 C   0  0  2  0  0  0  0  0  0  0  0  0
   -4.5003    8.4035   27.5164 N   0  0  0  0  0  0  0  0  0  0  0  0
   -4.7046    9.3481   29.8046 C   0  0  2  0  0  0  0  0  0  0  0  0
   -4.6541   10.7036   30.5673 C   0  0  2  0  0  0  0  0  0  0  0  0
   -4.8895   10.3213   32.0099 O   0  0  0  0  0  0  0  0  0  0  0  0
   -5.7981   11.7093   29.9953 C   0  0  1  0  0  0  0  0  0  0  0  0
   -5.8096   13.0408   30.6030 O   0  0  0  0  0  0  0  0  0  0  0  0
   -4.7169   11.3936   32.8453 C   0  0  1  0  0  0  0  0  0  0  0  0
   -4.9207   11.0604   34.2590 C   0  0  2  0  0  0  0  0  0  0  0  0
   -6.2869   10.8767   34.4500 O   0  0  0  0  0  0  0  0  0  0  0  0
   -4.1951   12.2344   34.9507 C   0  0  2  0  0  0  0  0  0  0  0  0
   -5.1868   12.9319   35.7378 O   0  0  0  0  0  0  0  0  0  0  0  0
   -3.6621   13.0681   33.8325 C   0  0  2  0  0  0  0  0  0  0  0  0
   -3.4225   11.9716   32.8796 O   0  0  0  0  0  0  0  0  0  0  0  0
   -2.3046   13.7637   34.2169 C   0  0  0  0  0  0  0  0  0  0  0  0
   -1.2266   12.8239   34.5062 O   0  0  0  0  0  0  0  0  0  0  0  0
   -5.5098   12.3668   37.0445 C   0  0  2  0  0  0  0  0  0  0  0  0
   -6.7340   13.2103   37.6800 C   0  0  2  0  0  0  0  0  0  0  0  0
   -6.3380   14.6523   37.7826 N   0  0  0  0  0  0  0  0  0  0  0  0
   -7.0857   12.5796   39.1162 C   0  0  1  0  0  0  0  0  0  0  0  0
   -7.4469   11.1816   38.8994 O   0  0  0  0  0  0  0  0  0  0  0  0
   -5.8167   12.7027   40.0748 C   0  0  2  0  0  0  0  0  0  0  0  0
   -5.5230   14.1418   40.2564 O   0  0  0  0  0  0  0  0  0  0  0  0
   -4.5787   11.8934   39.3861 C   0  0  1  0  0  0  0  0  0  0  0  0
   -4.3110   12.4527   38.0113 O   0  0  0  0  0  0  0  0  0  0  0  0
   -3.3090   12.0081   40.2934 C   0  0  0  0  0  0  0  0  0  0  0  0
   -2.8259   13.4161   40.4401 N   0  0  0  0  0  0  0  0  0  0  0  0
  1  3  1  0  0  0  0
  1  2  1  1  0  0  0
  3  4  1  1  0  0  0
  3  5  1  0  0  0  0
  5  6  1  1  0  0  0
  7  8  1  1  0  0  0
  7  5  1  0  0  0  0
  9 11  1  6  0  0  0
  9  7  1  0  0  0  0
 10  9  1  0  0  0  0
 10  1  1  0  0  0  0
 12 11  1  0  0  0  0
 13 14  1  6  0  0  0
 15 13  1  0  0  0  0
 16 17  1  6  0  0  0
 16 15  1  0  0  0  0
 18  2  1  1  0  0  0
 18 19  1  0  0  0  0
 18 16  1  0  0  0  0
 19 20  1  1  0  0  0
 19 21  1  0  0  0  0
 21 22  1  1  0  0  0
 21 13  1  0  0  0  0
 23 20  1  6  0  0  0
 23 29  1  0  0  0  0
 24 25  1  1  0  0  0
 24 26  1  0  0  0  0
 24 23  1  0  0  0  0
 26 27  1  6  0  0  0
 26 28  1  0  0  0  0
 28 30  1  1  0  0  0
 29 28  1  0  0  0  0
 30 31  1  0  0  0  0
 32 27  1  6  0  0  0
 32 40  1  0  0  0  0
 33 35  1  0  0  0  0
 33 32  1  0  0  0  0
 33 34  1  1  0  0  0
 35 36  1  6  0  0  0
 35 37  1  0  0  0  0
 37 38  1  6  0  0  0
 37 39  1  0  0  0  0
 39 41  1  1  0  0  0
 40 39  1  0  0  0  0
 41 42  1  0  0  0  0
M  END
>  <CHROM.1>
-141.09816032,177.74618349,-66.09873120,172.74352530,-179.30292631,81.39238215
62.42893048,-174.38426506,-63.09423757,-4.04202281,10.54246862,33.13508287
-1.21514618,-0.86992389,1.37691155

>  <Name>
lig.pdb

>  <RI>
0

>  <Rbt.Current_Directory>
/home/itssahil/PROJECTS/Mol_Feturizer/New_Systems/rnas/4wcr

>  <Rbt.Executable>
rbdock ($Id: //depot/dev/client3/rdock/2013.1/src/exe/rbdock.cxx#4 $)

>  <Rbt.Library>
libRbt.so (2013.1, Build901 2013/11/27)

>  <Rbt.Parameter_File>
/export/apps/rDock/src/rDock_2013.1_src/data/scripts/dock_solv.prm

>  <Rbt.Receptor>
prm/pocket_docking_8.prm

>  <SCORE>
-6.58336

>  <SCORE.INTER>
-1.89946

>  <SCORE.INTER.CONST>
1

>  <SCORE.INTER.POLAR>
0

>  <SCORE.INTER.ROT>
9

>  <SCORE.INTER.SOLV>
16.4154

>  <SCORE.INTER.VDW>
-16.3381

>  <SCORE.INTER.norm>
-0.0452253

>  <SCORE.INTRA>
-4.69319

>  <SCORE.INTRA.DIHEDRAL>
-7.88615

>  <SCORE.INTRA.DIHEDRAL.0>
16.2863

>  <SCORE.INTRA.POLAR>
0

>  <SCORE.INTRA.POLAR.0>
0

>  <SCORE.INTRA.REPUL>
-0.314433

>  <SCORE.INTRA.REPUL.0>
0.314433

>  <SCORE.INTRA.SOLV>
-1.34571

>  <SCORE.INTRA.SOLV.lig_0>
-103.824

>  <SCORE.INTRA.VDW>
1.4949

>  <SCORE.INTRA.VDW.0>
-5.30945

>  <SCORE.INTRA.norm>
-0.111743

>  <SCORE.RESTR>
0.00930064

>  <SCORE.RESTR.CAVITY>
0.00930064

>  <SCORE.RESTR.norm>
0.000221444

>  <SCORE.SYSTEM>
0

>  <SCORE.SYSTEM.CONST>
0

>  <SCORE.SYSTEM.DIHEDRAL>
0

>  <SCORE.SYSTEM.SOLV>
0

>  <SCORE.SYSTEM.norm>
0

>  <SCORE.heavy>
42

>  <SCORE.norm>
-0.156747

>  <RMSD>
9.498

$$$$
lig.pdb
 OpenBabel11021811513D
libRbt.so/2013.1/901 2013/11/27
 42 45  0  0  0  0  0  0  0  0999 V2000
   -0.2719    6.3278   35.3980 C   0  0  2  0  0  0  0  0  0  0  0  0
   -1.5480    7.0125   35.1983 O   0  0  0  0  0  0  0  0  0  0  0  0
   -0.2375    5.8931   36.9310 C   0  0  2  0  0  0  0  0  0  0  0  0
   -1.3293    4.9591   37.2196 N   0  0  0  0  0  0  0  0  0  0  0  0
   -0.3102    7.2125   37.8440 C   0  0  1  0  0  0  0  0  0  0  0  0
   -0.2711    6.8775   39.2472 O   0  0  0  0  0  0  0  0  0  0  0  0
    0.8738    8.1088   37.4426 C   0  0  2  0  0  0  0  0  0  0  0  0
    0.8418    9.2623   38.2120 O   0  0  0  0  0  0  0  0  0  0  0  0
    0.7880    8.4589   35.8875 C   0  0  2  0  0  0  0  0  0  0  0  0
    0.8205    7.2724   35.0845 O   0  0  0  0  0  0  0  0  0  0  0  0
    1.9352    9.3193   35.4391 C   0  0  0  0  0  0  0  0  0  0  0  0
    1.9147   10.5112   36.2256 O   0  0  0  0  0  0  0  0  0  0  0  0
   -1.0174    8.8992   31.2069 C   0  0  2  0  0  0  0  0  0  0  0  0
   -1.3145    9.4309   29.8946 N   0  0  0  0  0  0  0  0  0  0  0  0
   -1.5131    7.4054   31.3137 C   0  0  0  0  0  0  0  0  0  0  0  0
   -1.2062    6.8062   32.7312 C   0  0  2  0  0  0  0  0  0  0  0  0
   -1.6864    5.4272   32.7906 N   0  0  0  0  0  0  0  0  0  0  0  0
   -1.8916    7.6377   33.9047 C   0  0  2  0  0  0  0  0  0  0  0  0
   -1.3645    9.0988   33.8093 C   0  0  2  0  0  0  0  0  0  0  0  0
   -2.0492    9.8107   34.9526 O   0  0  0  0  0  0  0  0  0  0  0  0
   -1.7453    9.7365   32.3616 C   0  0  1  0  0  0  0  0  0  0  0  0
   -1.2502   11.0953   32.1360 O   0  0  0  0  0  0  0  0  0  0  0  0
   -1.6607   11.1225   35.0284 C   0  0  1  0  0  0  0  0  0  0  0  0
   -2.6523   11.9792   35.6872 C   0  0  2  0  0  0  0  0  0  0  0  0
   -3.7168   12.1372   34.8048 O   0  0  0  0  0  0  0  0  0  0  0  0
   -1.7851   13.1955   36.0770 C   0  0  2  0  0  0  0  0  0  0  0  0
   -2.3416   14.3408   35.3928 O   0  0  0  0  0  0  0  0  0  0  0  0
   -0.4115   12.8557   35.5998 C   0  0  2  0  0  0  0  0  0  0  0  0
   -0.5007   11.3992   35.7954 O   0  0  0  0  0  0  0  0  0  0  0  0
    0.6990   13.4649   36.5325 C   0  0  0  0  0  0  0  0  0  0  0  0
    0.6702   12.9433   37.8949 O   0  0  0  0  0  0  0  0  0  0  0  0
   -2.0517   15.6541   35.9604 C   0  0  2  0  0  0  0  0  0  0  0  0
   -2.8094   16.7746   35.0747 C   0  0  2  0  0  0  0  0  0  0  0  0
   -2.3493   16.6721   33.6519 N   0  0  0  0  0  0  0  0  0  0  0  0
   -2.4882   18.2166   35.7083 C   0  0  1  0  0  0  0  0  0  0  0  0
   -2.9681   18.2014   37.0871 O   0  0  0  0  0  0  0  0  0  0  0  0
   -0.9166   18.4835   35.6501 C   0  0  2  0  0  0  0  0  0  0  0  0
   -0.5110   18.4982   34.2270 O   0  0  0  0  0  0  0  0  0  0  0  0
   -0.1697   17.3092   36.5016 C   0  0  1  0  0  0  0  0  0  0  0  0
   -0.5402   15.9608   35.9367 O   0  0  0  0  0  0  0  0  0  0  0  0
    1.3786   17.5302   36.4514 C   0  0  0  0  0  0  0  0  0  0  0  0
    2.1293   16.5790   37.3283 N   0  0  0  0  0  0  0  0  0  0  0  0
  1  3  1  0  0  0  0
  1  2  1  1  0  0  0
  3  4  1  1  0  0  0
  3  5  1  0  0  0  0
  5  6  1  1  0  0  0
  7  8  1  1  0  0  0
  7  5  1  0  0  0  0
  9 11  1  6  0  0  0
  9  7  1  0  0  0  0
 10  9  1  0  0  0  0
 10  1  1  0  0  0  0
 12 11  1  0  0  0  0
 13 14  1  6  0  0  0
 15 13  1  0  0  0  0
 16 17  1  6  0  0  0
 16 15  1  0  0  0  0
 18  2  1  1  0  0  0
 18 19  1  0  0  0  0
 18 16  1  0  0  0  0
 19 20  1  1  0  0  0
 19 21  1  0  0  0  0
 21 22  1  1  0  0  0
 21 13  1  0  0  0  0
 23 20  1  1  0  0  0
 23 29  1  0  0  0  0
 24 25  1  6  0  0  0
 24 26  1  0  0  0  0
 24 23  1  0  0  0  0
 26 27  1  6  0  0  0
 26 28  1  0  0  0  0
 28 30  1  1  0  0  0
 29 28  1  0  0  0  0
 30 31  1  0  0  0  0
 32 27  1  6  0  0  0
 32 40  1  0  0  0  0
 33 35  1  0  0  0  0
 33 32  1  0  0  0  0
 33 34  1  6  0  0  0
 35 36  1  1  0  0  0
 35 37  1  0  0  0  0
 37 38  1  6  0  0  0
 37 39  1  0  0  0  0
 39 41  1  6  0  0  0
 40 39  1  0  0  0  0
 41 42  1  0  0  0  0
M  END
>  <CHROM.1>
175.92361541,-58.14821433,31.55756480,178.52517242,155.34938011,157.34472474
63.12369407,-178.01151135,173.90140001,-0.81929946,11.44919108,35.30679875
-1.47040326,-1.12573948,0.17495530

>  <Name>
lig.pdb

>  <RI>
0

>  <Rbt.Current_Directory>
/home/itssahil/PROJECTS/Mol_Feturizer/New_Systems/rnas/4wcr

>  <Rbt.Executable>
rbdock ($Id: //depot/dev/client3/rdock/2013.1/src/exe/rbdock.cxx#4 $)

>  <Rbt.Library>
libRbt.so (2013.1, Build901 2013/11/27)

>  <Rbt.Parameter_File>
/export/apps/rDock/src/rDock_2013.1_src/data/scripts/dock_solv.prm

>  <Rbt.Receptor>
prm/pocket_docking_6.prm

>  <SCORE>
-7.30937

>  <SCORE.INTER>
-1.01352

>  <SCORE.INTER.CONST>
1

>  <SCORE.INTER.POLAR>
0

>  <SCORE.INTER.ROT>
9

>  <SCORE.INTER.SOLV>
19.1702

>  <SCORE.INTER.VDW>
-16.6657

>  <SCORE.INTER.norm>
-0.0241314

>  <SCORE.INTRA>
-6.29586

>  <SCORE.INTRA.DIHEDRAL>
-7.3861

>  <SCORE.INTRA.DIHEDRAL.0>
16.2863

>  <SCORE.INTRA.POLAR>
0

>  <SCORE.INTRA.POLAR.0>
0

>  <SCORE.INTRA.REPUL>
-0.314433

>  <SCORE.INTRA.REPUL.0>
0.314433

>  <SCORE.INTRA.SOLV>
-1.79636

>  <SCORE.INTRA.SOLV.lig_0>
-103.824

>  <SCORE.INTRA.VDW>
-0.132463

>  <SCORE.INTRA.VDW.0>
-5.30945

>  <SCORE.INTRA.norm>
-0.149901

>  <SCORE.RESTR>
0

>  <SCORE.RESTR.CAVITY>
0

>  <SCORE.RESTR.norm>
0

>  <SCORE.SYSTEM>
0

>  <SCORE.SYSTEM.CONST>
0

>  <SCORE.SYSTEM.DIHEDRAL>
0

>  <SCORE.SYSTEM.SOLV>
0

>  <SCORE.SYSTEM.norm>
0

>  <SCORE.heavy>
42

>  <SCORE.norm>
-0.174033

>  <RMSD>
9.514

$$$$
lig.pdb
 OpenBabel11021811513D
libRbt.so/2013.1/901 2013/11/27
 42 45  0  0  0  0  0  0  0  0999 V2000
   -1.3131    9.4221   32.3803 C   0  0  2  0  0  0  0  0  0  0  0  0
   -2.0739    8.3465   33.0139 O   0  0  0  0  0  0  0  0  0  0  0  0
   -1.4906    9.2243   30.8089 C   0  0  2  0  0  0  0  0  0  0  0  0
   -2.9017    9.3554   30.4357 N   0  0  0  0  0  0  0  0  0  0  0  0
   -0.8840    7.7955   30.3962 C   0  0  1  0  0  0  0  0  0  0  0  0
   -1.0082    7.5674   28.9766 O   0  0  0  0  0  0  0  0  0  0  0  0
    0.5871    7.7793   30.8457 C   0  0  2  0  0  0  0  0  0  0  0  0
    1.1445    6.5555   30.5061 O   0  0  0  0  0  0  0  0  0  0  0  0
    0.6775    8.0291   32.4198 C   0  0  2  0  0  0  0  0  0  0  0  0
    0.1036    9.2919   32.7800 O   0  0  0  0  0  0  0  0  0  0  0  0
    2.0983    8.0417   32.9080 C   0  0  0  0  0  0  0  0  0  0  0  0
    2.0665    8.2037   34.3266 O   0  0  0  0  0  0  0  0  0  0  0  0
   -3.3004    8.1920   37.2852 C   0  0  2  0  0  0  0  0  0  0  0  0
   -3.2981    7.8853   38.6990 N   0  0  0  0  0  0  0  0  0  0  0  0
   -3.2168    6.8627   36.4399 C   0  0  0  0  0  0  0  0  0  0  0  0
   -3.2134    7.1688   34.9008 C   0  0  2  0  0  0  0  0  0  0  0  0
   -3.1279    5.9144   34.1558 N   0  0  0  0  0  0  0  0  0  0  0  0
   -1.9981    8.1042   34.4692 C   0  0  2  0  0  0  0  0  0  0  0  0
   -2.1156    9.4253   35.2832 C   0  0  2  0  0  0  0  0  0  0  0  0
   -0.9426   10.2522   34.8111 O   0  0  0  0  0  0  0  0  0  0  0  0
   -2.0508    9.1066   36.8775 C   0  0  1  0  0  0  0  0  0  0  0  0
   -2.2074   10.2733   37.7473 O   0  0  0  0  0  0  0  0  0  0  0  0
   -0.9586   11.5047   35.3665 C   0  0  1  0  0  0  0  0  0  0  0  0
    0.1653   12.3411   34.9326 C   0  0  2  0  0  0  0  0  0  0  0  0
    1.3094   11.8588   35.5613 O   0  0  0  0  0  0  0  0  0  0  0  0
   -0.3642   13.7517   35.2686 C   0  0  2  0  0  0  0  0  0  0  0  0
    0.5485   14.3206   36.2346 O   0  0  0  0  0  0  0  0  0  0  0  0
   -1.7275   13.5249   35.8340 C   0  0  2  0  0  0  0  0  0  0  0  0
   -2.0631   12.3315   35.0396 O   0  0  0  0  0  0  0  0  0  0  0  0
   -2.7082   14.7050   35.4875 C   0  0  0  0  0  0  0  0  0  0  0  0
   -2.9674   14.8506   34.0590 O   0  0  0  0  0  0  0  0  0  0  0  0
    0.4359   15.7544   36.4847 C   0  0  2  0  0  0  0  0  0  0  0  0
    1.7171   16.2263   37.3508 C   0  0  2  0  0  0  0  0  0  0  0  0
    1.7642   15.4432   38.6279 N   0  0  0  0  0  0  0  0  0  0  0  0
    1.5874   17.8060   37.6184 C   0  0  1  0  0  0  0  0  0  0  0  0
    1.5425   18.4645   36.3161 O   0  0  0  0  0  0  0  0  0  0  0  0
    0.2599   18.0953   38.4543 C   0  0  2  0  0  0  0  0  0  0  0  0
    0.3870   17.4097   39.7596 O   0  0  0  0  0  0  0  0  0  0  0  0
   -1.0138   17.5591   37.5871 C   0  0  1  0  0  0  0  0  0  0  0  0
   -0.8387   16.0919   37.2850 O   0  0  0  0  0  0  0  0  0  0  0  0
   -2.3350   17.8116   38.3867 C   0  0  0  0  0  0  0  0  0  0  0  0
   -3.5569   17.3807   37.6393 N   0  0  0  0  0  0  0  0  0  0  0  0
  1  3  1  0  0  0  0
  1  2  1  1  0  0  0
  3  4  1  1  0  0  0
  3  5  1  0  0  0  0
  5  6  1  6  0  0  0
  7  8  1  1  0  0  0
  7  5  1  0  0  0  0
  9 11  1  6  0  0  0
  9  7  1  0  0  0  0
 10  9  1  0  0  0  0
 10  1  1  0  0  0  0
 12 11  1  0  0  0  0
 13 14  1  1  0  0  0
 15 13  1  0  0  0  0
 16 17  1  6  0  0  0
 16 15  1  0  0  0  0
 18  2  1  6  0  0  0
 18 19  1  0  0  0  0
 18 16  1  0  0  0  0
 19 20  1  6  0  0  0
 19 21  1  0  0  0  0
 21 22  1  1  0  0  0
 21 13  1  0  0  0  0
 23 20  1  6  0  0  0
 23 29  1  0  0  0  0
 24 25  1  1  0  0  0
 24 26  1  0  0  0  0
 24 23  1  0  0  0  0
 26 27  1  1  0  0  0
 26 28  1  0  0  0  0
 28 30  1  6  0  0  0
 29 28  1  0  0  0  0
 30 31  1  0  0  0  0
 32 27  1  1  0  0  0
 32 40  1  0  0  0  0
 33 35  1  0  0  0  0
 33 32  1  0  0  0  0
 33 34  1  1  0  0  0
 35 36  1  6  0  0  0
 35 37  1  0  0  0  0
 37 38  1  1  0  0  0
 37 39  1  0  0  0  0
 39 41  1  1  0  0  0
 40 39  1  0  0  0  0
 41 42  1  0  0  0  0
M  END
>  <CHROM.1>
171.93869793,-177.15631162,164.34532438,175.41269128,-179.97886785,166.61481451
63.99338797,-168.75969246,178.38142120,-0.86605323,11.67707325,35.07703653
-1.69903525,0.89410797,0.60305275

>  <Name>
lig.pdb

>  <RI>
0

>  <Rbt.Current_Directory>
/home/itssahil/PROJECTS/Mol_Feturizer/New_Systems/rnas/4wcr

>  <Rbt.Executable>
rbdock ($Id: //depot/dev/client3/rdock/2013.1/src/exe/rbdock.cxx#4 $)

>  <Rbt.Library>
libRbt.so (2013.1, Build901 2013/11/27)

>  <Rbt.Parameter_File>
/export/apps/rDock/src/rDock_2013.1_src/data/scripts/dock_solv.prm

>  <Rbt.Receptor>
prm/pocket_docking_6.prm

>  <SCORE>
-16.118

>  <SCORE.INTER>
-7.67643

>  <SCORE.INTER.CONST>
1

>  <SCORE.INTER.POLAR>
0

>  <SCORE.INTER.ROT>
9

>  <SCORE.INTER.SOLV>
20.0002

>  <SCORE.INTER.VDW>
-21.3844

>  <SCORE.INTER.norm>
-0.182772

>  <SCORE.INTRA>
-8.44156

>  <SCORE.INTRA.DIHEDRAL>
-12.6708

>  <SCORE.INTRA.DIHEDRAL.0>
16.2863

>  <SCORE.INTRA.POLAR>
0

>  <SCORE.INTRA.POLAR.0>
0

>  <SCORE.INTRA.REPUL>
-0.314433

>  <SCORE.INTRA.REPUL.0>
0.314433

>  <SCORE.INTRA.SOLV>
-5.02777

>  <SCORE.INTRA.SOLV.lig_0>
-103.824

>  <SCORE.INTRA.VDW>
1.97988

>  <SCORE.INTRA.VDW.0>
-5.30945

>  <SCORE.INTRA.norm>
-0.20099

>  <SCORE.RESTR>
0

>  <SCORE.RESTR.CAVITY>
0

>  <SCORE.RESTR.norm>
0

>  <SCORE.SYSTEM>
0

>  <SCORE.SYSTEM.CONST>
0

>  <SCORE.SYSTEM.DIHEDRAL>
0

>  <SCORE.SYSTEM.SOLV>
0

>  <SCORE.SYSTEM.norm>
0

>  <SCORE.heavy>
42

>  <SCORE.norm>
-0.383762

>  <RMSD>
9.528

$$$$
lig.pdb
 OpenBabel11021811513D
libRbt.so/2013.1/901 2013/11/27
 42 45  0  0  0  0  0  0  0  0999 V2000
   -2.5495    6.2898   35.8631 C   0  0  2  0  0  0  0  0  0  0  0  0
   -2.6370    7.5004   36.6780 O   0  0  0  0  0  0  0  0  0  0  0  0
   -1.1286    6.3422   35.1431 C   0  0  2  0  0  0  0  0  0  0  0  0
   -0.0530    6.3251   36.1383 N   0  0  0  0  0  0  0  0  0  0  0  0
   -1.0704    7.6475   34.2090 C   0  0  1  0  0  0  0  0  0  0  0  0
    0.1950    7.7397   33.5214 O   0  0  0  0  0  0  0  0  0  0  0  0
   -2.2460    7.5524   33.2214 C   0  0  2  0  0  0  0  0  0  0  0  0
   -2.2283    8.6678   32.3972 O   0  0  0  0  0  0  0  0  0  0  0  0
   -3.6233    7.4583   34.0229 C   0  0  2  0  0  0  0  0  0  0  0  0
   -3.6504    6.3082   34.8774 O   0  0  0  0  0  0  0  0  0  0  0  0
   -4.8049    7.3441   33.1020 C   0  0  0  0  0  0  0  0  0  0  0  0
   -4.9788    8.6095   32.4632 O   0  0  0  0  0  0  0  0  0  0  0  0
   -1.6300    8.5917   40.8693 C   0  0  2  0  0  0  0  0  0  0  0  0
   -0.9245    8.6747   42.1297 N   0  0  0  0  0  0  0  0  0  0  0  0
   -1.8845    7.0826   40.4865 C   0  0  0  0  0  0  0  0  0  0  0  0
   -2.6455    6.9651   39.1192 C   0  0  2  0  0  0  0  0  0  0  0  0
   -2.8544    5.5547   38.7986 N   0  0  0  0  0  0  0  0  0  0  0  0
   -1.8514    7.6504   37.9200 C   0  0  2  0  0  0  0  0  0  0  0  0
   -1.6411    9.1459   38.2953 C   0  0  2  0  0  0  0  0  0  0  0  0
   -0.8968    9.7195   37.1122 O   0  0  0  0  0  0  0  0  0  0  0  0
   -0.7930    9.2605   39.6792 C   0  0  1  0  0  0  0  0  0  0  0  0
   -0.5804   10.6259   40.1617 O   0  0  0  0  0  0  0  0  0  0  0  0
   -0.8459   11.0875   37.1696 C   0  0  1  0  0  0  0  0  0  0  0  0
    0.1884   11.6618   36.3027 C   0  0  2  0  0  0  0  0  0  0  0  0
    1.4205   11.3916   36.8906 O   0  0  0  0  0  0  0  0  0  0  0  0
   -0.3035   13.1196   36.1752 C   0  0  2  0  0  0  0  0  0  0  0  0
    0.7365   13.9601   36.7244 O   0  0  0  0  0  0  0  0  0  0  0  0
   -1.5629   13.1706   36.9759 C   0  0  2  0  0  0  0  0  0  0  0  0
   -1.9981   11.7861   36.7281 O   0  0  0  0  0  0  0  0  0  0  0  0
   -2.6005   14.1858   36.3699 C   0  0  0  0  0  0  0  0  0  0  0  0
   -3.0255   13.8500   35.0150 O   0  0  0  0  0  0  0  0  0  0  0  0
    0.5517   15.4031   36.6037 C   0  0  2  0  0  0  0  0  0  0  0  0
    1.8642   16.1398   37.1943 C   0  0  2  0  0  0  0  0  0  0  0  0
    2.0627   15.7240   38.6206 N   0  0  0  0  0  0  0  0  0  0  0  0
    1.6543   17.7273   37.0542 C   0  0  1  0  0  0  0  0  0  0  0  0
    1.4640   18.0163   35.6358 O   0  0  0  0  0  0  0  0  0  0  0  0
    0.3813   18.1714   37.9066 C   0  0  2  0  0  0  0  0  0  0  0  0
    0.6553   17.8605   39.3273 O   0  0  0  0  0  0  0  0  0  0  0  0
   -0.9198   17.3729   37.3309 C   0  0  1  0  0  0  0  0  0  0  0  0
   -0.6748   15.8866   37.4045 O   0  0  0  0  0  0  0  0  0  0  0  0
   -2.1871   17.7722   38.1574 C   0  0  0  0  0  0  0  0  0  0  0  0
   -2.1454   17.2664   39.5644 N   0  0  0  0  0  0  0  0  0  0  0  0
  1  3  1  0  0  0  0
  1  2  1  1  0  0  0
  3  4  1  1  0  0  0
  3  5  1  0  0  0  0
  5  6  1  6  0  0  0
  7  8  1  6  0  0  0
  7  5  1  0  0  0  0
  9 11  1  6  0  0  0
  9  7  1  0  0  0  0
 10  9  1  0  0  0  0
 10  1  1  0  0  0  0
 12 11  1  0  0  0  0
 13 14  1  1  0  0  0
 15 13  1  0  0  0  0
 16 17  1  6  0  0  0
 16 15  1  0  0  0  0
 18  2  1  6  0  0  0
 18 19  1  0  0  0  0
 18 16  1  0  0  0  0
 19 20  1  6  0  0  0
 19 21  1  0  0  0  0
 21 22  1  1  0  0  0
 21 13  1  0  0  0  0
 23 20  1  6  0  0  0
 23 29  1  0  0  0  0
 24 25  1  1  0  0  0
 24 26  1  0  0  0  0
 24 23  1  0  0  0  0
 26 27  1  1  0  0  0
 26 28  1  0  0  0  0
 28 30  1  6  0  0  0
 29 28  1  0  0  0  0
 30 31  1  0  0  0  0
 32 27  1  1  0  0  0
 32 40  1  0  0  0  0
 33 35  1  0  0  0  0
 33 32  1  0  0  0  0
 33 34  1  1  0  0  0
 35 36  1  6  0  0  0
 35 37  1  0  0  0  0
 37 38  1  1  0  0  0
 37 39  1  0  0  0  0
 39 41  1  1  0  0  0
 40 39  1  0  0  0  0
 41 42  1  0  0  0  0
M  END
>  <CHROM.1>
-72.79758724,-71.15680228,-84.63392685,168.81089859,162.27632541,174.55991329
61.22592951,-176.47486401,-68.48999348,-1.19089972,11.27232217,36.85087308
2.56834604,1.26614027,2.34789571

>  <Name>
lig.pdb

>  <RI>
0

>  <Rbt.Current_Directory>
/home/itssahil/PROJECTS/Mol_Feturizer/New_Systems/rnas/4wcr

>  <Rbt.Executable>
rbdock ($Id: //depot/dev/client3/rdock/2013.1/src/exe/rbdock.cxx#4 $)

>  <Rbt.Library>
libRbt.so (2013.1, Build901 2013/11/27)

>  <Rbt.Parameter_File>
/export/apps/rDock/src/rDock_2013.1_src/data/scripts/dock_solv.prm

>  <Rbt.Receptor>
prm/pocket_docking_4.prm

>  <SCORE>
-5.96366

>  <SCORE.INTER>
-0.624659

>  <SCORE.INTER.CONST>
1

>  <SCORE.INTER.POLAR>
0

>  <SCORE.INTER.ROT>
9

>  <SCORE.INTER.SOLV>
19.7973

>  <SCORE.INTER.VDW>
-16.6155

>  <SCORE.INTER.norm>
-0.0148728

>  <SCORE.INTRA>
-5.339

>  <SCORE.INTRA.DIHEDRAL>
-9.44155

>  <SCORE.INTRA.DIHEDRAL.0>
16.2863

>  <SCORE.INTRA.POLAR>
0

>  <SCORE.INTRA.POLAR.0>
0

>  <SCORE.INTRA.REPUL>
-0.314433

>  <SCORE.INTRA.REPUL.0>
0.314433

>  <SCORE.INTRA.SOLV>
-0.416525

>  <SCORE.INTRA.SOLV.lig_0>
-103.824

>  <SCORE.INTRA.VDW>
1.1622

>  <SCORE.INTRA.VDW.0>
-5.30945

>  <SCORE.INTRA.norm>
-0.127119

>  <SCORE.RESTR>
0

>  <SCORE.RESTR.CAVITY>
0

>  <SCORE.RESTR.norm>
0

>  <SCORE.SYSTEM>
0

>  <SCORE.SYSTEM.CONST>
0

>  <SCORE.SYSTEM.DIHEDRAL>
0

>  <SCORE.SYSTEM.SOLV>
0

>  <SCORE.SYSTEM.norm>
0

>  <SCORE.heavy>
42

>  <SCORE.norm>
-0.141992

>  <RMSD>
9.538

$$$$
lig.pdb
 OpenBabel11021811513D
libRbt.so/2013.1/901 2013/11/27
 42 45  0  0  0  0  0  0  0  0999 V2000
   -1.3749    6.0345   43.0042 C   0  0  2  0  0  0  0  0  0  0  0  0
   -2.2421    6.9391   42.2513 O   0  0  0  0  0  0  0  0  0  0  0  0
   -0.2480    5.5515   41.9860 C   0  0  2  0  0  0  0  0  0  0  0  0
    0.5436    6.6947   41.5232 N   0  0  0  0  0  0  0  0  0  0  0  0
   -0.9497    4.7680   40.7721 C   0  0  1  0  0  0  0  0  0  0  0  0
    0.0287    4.2964   39.8219 O   0  0  0  0  0  0  0  0  0  0  0  0
   -1.7508    3.6059   41.3840 C   0  0  2  0  0  0  0  0  0  0  0  0
   -2.3740    2.9059   40.3616 O   0  0  0  0  0  0  0  0  0  0  0  0
   -2.8229    4.1719   42.4225 C   0  0  2  0  0  0  0  0  0  0  0  0
   -2.1876    4.8969   43.4829 O   0  0  0  0  0  0  0  0  0  0  0  0
   -3.6210    3.0727   43.0643 C   0  0  0  0  0  0  0  0  0  0  0  0
   -4.5551    3.6812   43.9569 O   0  0  0  0  0  0  0  0  0  0  0  0
   -2.0734   11.3049   41.4247 C   0  0  2  0  0  0  0  0  0  0  0  0
   -1.5771   12.6031   41.0228 N   0  0  0  0  0  0  0  0  0  0  0  0
   -1.1204   10.6701   42.5098 C   0  0  0  0  0  0  0  0  0  0  0  0
   -1.6351    9.2576   42.9597 C   0  0  2  0  0  0  0  0  0  0  0  0
   -0.7227    8.7027   43.9574 N   0  0  0  0  0  0  0  0  0  0  0  0
   -1.7468    8.2348   41.7433 C   0  0  2  0  0  0  0  0  0  0  0  0
   -2.7185    8.8574   40.6993 C   0  0  2  0  0  0  0  0  0  0  0  0
   -2.7759    7.8295   39.5935 O   0  0  0  0  0  0  0  0  0  0  0  0
   -2.1443   10.2911   40.1872 C   0  0  1  0  0  0  0  0  0  0  0  0
   -3.0064   10.9985   39.2393 O   0  0  0  0  0  0  0  0  0  0  0  0
   -3.5426    8.2659   38.5452 C   0  0  1  0  0  0  0  0  0  0  0  0
   -3.6952    7.2622   37.4866 C   0  0  2  0  0  0  0  0  0  0  0  0
   -2.4771    7.1733   36.8195 O   0  0  0  0  0  0  0  0  0  0  0  0
   -4.9431    7.7927   36.7488 C   0  0  2  0  0  0  0  0  0  0  0  0
   -4.5341    8.0821   35.3928 O   0  0  0  0  0  0  0  0  0  0  0  0
   -5.3403    9.0200   37.5009 C   0  0  2  0  0  0  0  0  0  0  0  0
   -4.8962    8.5752   38.8323 O   0  0  0  0  0  0  0  0  0  0  0  0
   -6.8986    9.2348   37.4886 C   0  0  0  0  0  0  0  0  0  0  0  0
   -7.3120   10.5507   37.9646 O   0  0  0  0  0  0  0  0  0  0  0  0
   -3.9596    9.4008   35.1436 C   0  0  2  0  0  0  0  0  0  0  0  0
   -3.6587    9.5387   33.5610 C   0  0  2  0  0  0  0  0  0  0  0  0
   -2.7298    8.4408   33.1385 N   0  0  0  0  0  0  0  0  0  0  0  0
   -3.0302   10.9940   33.2947 C   0  0  1  0  0  0  0  0  0  0  0  0
   -4.0087   11.9786   33.7471 O   0  0  0  0  0  0  0  0  0  0  0  0
   -1.6596   11.1352   34.0985 C   0  0  2  0  0  0  0  0  0  0  0  0
   -0.7200   10.1183   33.5759 O   0  0  0  0  0  0  0  0  0  0  0  0
   -1.9785   10.9354   35.6861 C   0  0  1  0  0  0  0  0  0  0  0  0
   -2.6328    9.5944   35.9060 O   0  0  0  0  0  0  0  0  0  0  0  0
   -0.6502   11.0505   36.5054 C   0  0  0  0  0  0  0  0  0  0  0  0
   -0.0448   12.4166   36.4402 N   0  0  0  0  0  0  0  0  0  0  0  0
  1  3  1  0  0  0  0
  1  2  1  6  0  0  0
  3  4  1  6  0  0  0
  3  5  1  0  0  0  0
  5  6  1  6  0  0  0
  7  8  1  6  0  0  0
  7  5  1  0  0  0  0
  9 11  1  1  0  0  0
  9  7  1  0  0  0  0
 10  9  1  0  0  0  0
 10  1  1  0  0  0  0
 12 11  1  0  0  0  0
 13 14  1  6  0  0  0
 15 13  1  0  0  0  0
 16 17  1  1  0  0  0
 16 15  1  0  0  0  0
 18  2  1  1  0  0  0
 18 19  1  0  0  0  0
 18 16  1  0  0  0  0
 19 20  1  6  0  0  0
 19 21  1  0  0  0  0
 21 22  1  6  0  0  0
 21 13  1  0  0  0  0
 23 20  1  1  0  0  0
 23 29  1  0  0  0  0
 24 25  1  6  0  0  0
 24 26  1  0  0  0  0
 24 23  1  0  0  0  0
 26 27  1  6  0  0  0
 26 28  1  0  0  0  0
 28 30  1  1  0  0  0
 29 28  1  0  0  0  0
 30 31  1  0  0  0  0
 32 27  1  6  0  0  0
 32 40  1  0  0  0  0
 33 35  1  0  0  0  0
 33 32  1  0  0  0  0
 33 34  1  1  0  0  0
 35 36  1  1  0  0  0
 35 37  1  0  0  0  0
 37 38  1  6  0  0  0
 37 39  1  0  0  0  0
 39 41  1  1  0  0  0
 40 39  1  0  0  0  0
 41 42  1  0  0  0  0
M  END
>  <CHROM.1>
-65.83323113,-179.31220300,-75.19197236,-176.51791538,-176.29675543,-86.20265738
-167.99991196,-176.67515084,65.28462170,-2.63834930,8.23433653,38.92254685
-1.26201468,-1.16087677,-0.69561465

>  <Name>
lig.pdb

>  <RI>
0

>  <Rbt.Current_Directory>
/home/itssahil/PROJECTS/Mol_Feturizer/New_Systems/rnas/4wcr

>  <Rbt.Executable>
rbdock ($Id: //depot/dev/client3/rdock/2013.1/src/exe/rbdock.cxx#4 $)

>  <Rbt.Library>
libRbt.so (2013.1, Build901 2013/11/27)

>  <Rbt.Parameter_File>
/export/apps/rDock/src/rDock_2013.1_src/data/scripts/dock_solv.prm

>  <Rbt.Receptor>
prm/pocket_docking_7.prm

>  <SCORE>
-3.97977

>  <SCORE.INTER>
1.06308

>  <SCORE.INTER.CONST>
1

>  <SCORE.INTER.POLAR>
0

>  <SCORE.INTER.ROT>
9

>  <SCORE.INTER.SOLV>
13.5137

>  <SCORE.INTER.VDW>
-13.3959

>  <SCORE.INTER.norm>
0.0253114

>  <SCORE.INTRA>
-5.04284

>  <SCORE.INTRA.DIHEDRAL>
-11.0148

>  <SCORE.INTRA.DIHEDRAL.0>
16.2863

>  <SCORE.INTRA.POLAR>
0

>  <SCORE.INTRA.POLAR.0>
0

>  <SCORE.INTRA.REPUL>
-0.314433

>  <SCORE.INTRA.REPUL.0>
0.314433

>  <SCORE.INTRA.SOLV>
-0.266329

>  <SCORE.INTRA.SOLV.lig_0>
-103.824

>  <SCORE.INTRA.VDW>
2.16987

>  <SCORE.INTRA.VDW.0>
-5.30945

>  <SCORE.INTRA.norm>
-0.120068

>  <SCORE.RESTR>
0

>  <SCORE.RESTR.CAVITY>
0

>  <SCORE.RESTR.norm>
0

>  <SCORE.SYSTEM>
0

>  <SCORE.SYSTEM.CONST>
0

>  <SCORE.SYSTEM.DIHEDRAL>
0

>  <SCORE.SYSTEM.SOLV>
0

>  <SCORE.SYSTEM.norm>
0

>  <SCORE.heavy>
42

>  <SCORE.norm>
-0.0947563

>  <RMSD>
9.548

$$$$
lig.pdb
 OpenBabel11021811513D
libRbt.so/2013.1/901 2013/11/27
 42 45  0  0  0  0  0  0  0  0999 V2000
   -3.7768    7.3005   38.1503 C   0  0  2  0  0  0  0  0  0  0  0  0
   -2.7550    7.9193   37.3074 O   0  0  0  0  0  0  0  0  0  0  0  0
   -4.9037    8.4069   38.3649 C   0  0  2  0  0  0  0  0  0  0  0  0
   -5.5054    8.7761   37.0807 N   0  0  0  0  0  0  0  0  0  0  0  0
   -4.2525    9.6690   39.1151 C   0  0  1  0  0  0  0  0  0  0  0  0
   -5.2345   10.7009   39.3462 O   0  0  0  0  0  0  0  0  0  0  0  0
   -3.6519    9.1534   40.4342 C   0  0  2  0  0  0  0  0  0  0  0  0
   -3.0772   10.2195   41.1101 O   0  0  0  0  0  0  0  0  0  0  0  0
   -2.5689    8.0201   40.1321 C   0  0  2  0  0  0  0  0  0  0  0  0
   -3.1542    6.9141   39.4336 O   0  0  0  0  0  0  0  0  0  0  0  0
   -1.9641    7.4682   41.3918 C   0  0  0  0  0  0  0  0  0  0  0  0
   -3.0107    6.8439   42.1364 O   0  0  0  0  0  0  0  0  0  0  0  0
   -2.0948    8.0060   32.9109 C   0  0  2  0  0  0  0  0  0  0  0  0
   -2.3375    8.1686   31.4940 N   0  0  0  0  0  0  0  0  0  0  0  0
   -3.1447    7.0053   33.5314 C   0  0  0  0  0  0  0  0  0  0  0  0
   -2.9055    6.8148   35.0705 C   0  0  2  0  0  0  0  0  0  0  0  0
   -3.9008    5.8886   35.6064 N   0  0  0  0  0  0  0  0  0  0  0  0
   -2.9978    8.1869   35.8750 C   0  0  2  0  0  0  0  0  0  0  0  0
   -1.9317    9.1499   35.2769 C   0  0  2  0  0  0  0  0  0  0  0  0
   -2.0776   10.4117   36.0949 O   0  0  0  0  0  0  0  0  0  0  0  0
   -2.2256    9.3958   33.6956 C   0  0  1  0  0  0  0  0  0  0  0  0
   -1.2504   10.2459   33.0112 O   0  0  0  0  0  0  0  0  0  0  0  0
   -1.0072   11.2485   35.9177 C   0  0  1  0  0  0  0  0  0  0  0  0
   -1.1178   12.4946   36.6832 C   0  0  2  0  0  0  0  0  0  0  0  0
   -2.0877   13.2777   36.0645 O   0  0  0  0  0  0  0  0  0  0  0  0
    0.3531   12.9627   36.7072 C   0  0  2  0  0  0  0  0  0  0  0  0
    0.3937   14.2446   36.0403 O   0  0  0  0  0  0  0  0  0  0  0  0
    1.1036   11.9071   35.9641 C   0  0  2  0  0  0  0  0  0  0  0  0
    0.2547   10.7676   36.3500 O   0  0  0  0  0  0  0  0  0  0  0  0
    2.5600   11.7184   36.5276 C   0  0  0  0  0  0  0  0  0  0  0  0
    3.2593   10.5660   35.9689 O   0  0  0  0  0  0  0  0  0  0  0  0
   -0.3353   15.3406   36.6713 C   0  0  2  0  0  0  0  0  0  0  0  0
    0.1815   16.7342   36.0350 C   0  0  2  0  0  0  0  0  0  0  0  0
    1.6599   16.8559   36.2500 N   0  0  0  0  0  0  0  0  0  0  0  0
   -0.6285   17.9350   36.7322 C   0  0  1  0  0  0  0  0  0  0  0  0
   -2.0470   17.7126   36.4677 O   0  0  0  0  0  0  0  0  0  0  0  0
   -0.3300   17.9368   38.2992 C   0  0  2  0  0  0  0  0  0  0  0  0
    1.1178   18.1806   38.4852 O   0  0  0  0  0  0  0  0  0  0  0  0
   -0.8061   16.5004   38.9091 C   0  0  1  0  0  0  0  0  0  0  0  0
   -0.0882   15.3837   38.1932 O   0  0  0  0  0  0  0  0  0  0  0  0
   -0.5113   16.4603   40.4453 C   0  0  0  0  0  0  0  0  0  0  0  0
    0.9438   16.6033   40.7609 N   0  0  0  0  0  0  0  0  0  0  0  0
  1  3  1  0  0  0  0
  1  2  1  6  0  0  0
  3  4  1  6  0  0  0
  3  5  1  0  0  0  0
  5  6  1  1  0  0  0
  7  8  1  6  0  0  0
  7  5  1  0  0  0  0
  9 11  1  1  0  0  0
  9  7  1  0  0  0  0
 10  9  1  0  0  0  0
 10  1  1  0  0  0  0
 12 11  1  0  0  0  0
 13 14  1  6  0  0  0
 15 13  1  0  0  0  0
 16 17  1  1  0  0  0
 16 15  1  0  0  0  0
 18  2  1  1  0  0  0
 18 19  1  0  0  0  0
 18 16  1  0  0  0  0
 19 20  1  1  0  0  0
 19 21  1  0  0  0  0
 21 22  1  6  0  0  0
 21 13  1  0  0  0  0
 23 20  1  1  0  0  0
 23 29  1  0  0  0  0
 24 25  1  6  0  0  0
 24 26  1  0  0  0  0
 24 23  1  0  0  0  0
 26 27  1  6  0  0  0
 26 28  1  0  0  0  0
 28 30  1  1  0  0  0
 29 28  1  0  0  0  0
 30 31  1  0  0  0  0
 32 27  1  6  0  0  0
 32 40  1  0  0  0  0
 33 35  1  0  0  0  0
 33 32  1  0  0  0  0
 33 34  1  1  0  0  0
 35 36  1  1  0  0  0
 35 37  1  0  0  0  0
 37 38  1  6  0  0  0
 37 39  1  0  0  0  0
 39 41  1  1  0  0  0
 40 39  1  0  0  0  0
 41 42  1  0  0  0  0
M  END
>  <CHROM.1>
-71.79448356,63.15016956,-75.53577857,165.45135718,179.29601026,64.17661672
171.30062172,163.60159146,-61.15937768,-1.55371357,11.42791574,37.17188620
2.52847858,-1.10896641,-2.17666778

>  <Name>
lig.pdb

>  <RI>
0

>  <Rbt.Current_Directory>
/home/itssahil/PROJECTS/Mol_Feturizer/New_Systems/rnas/4wcr

>  <Rbt.Executable>
rbdock ($Id: //depot/dev/client3/rdock/2013.1/src/exe/rbdock.cxx#4 $)

>  <Rbt.Library>
libRbt.so (2013.1, Build901 2013/11/27)

>  <Rbt.Parameter_File>
/export/apps/rDock/src/rDock_2013.1_src/data/scripts/dock_solv.prm

>  <Rbt.Receptor>
prm/pocket_docking_6.prm

>  <SCORE>
-6.09716

>  <SCORE.INTER>
-0.844914

>  <SCORE.INTER.CONST>
1

>  <SCORE.INTER.POLAR>
0

>  <SCORE.INTER.ROT>
9

>  <SCORE.INTER.SOLV>
22.5696

>  <SCORE.INTER.VDW>
-17.6865

>  <SCORE.INTER.norm>
-0.020117

>  <SCORE.INTRA>
-5.25225

>  <SCORE.INTRA.DIHEDRAL>
-11.3149

>  <SCORE.INTRA.DIHEDRAL.0>
16.2863

>  <SCORE.INTRA.POLAR>
0

>  <SCORE.INTRA.POLAR.0>
0

>  <SCORE.INTRA.REPUL>
-0.310015

>  <SCORE.INTRA.REPUL.0>
0.314433

>  <SCORE.INTRA.SOLV>
-0.211812

>  <SCORE.INTRA.SOLV.lig_0>
-103.824

>  <SCORE.INTRA.VDW>
2.0612

>  <SCORE.INTRA.VDW.0>
-5.30945

>  <SCORE.INTRA.norm>
-0.125054

>  <SCORE.RESTR>
0

>  <SCORE.RESTR.CAVITY>
0

>  <SCORE.RESTR.norm>
0

>  <SCORE.SYSTEM>
0

>  <SCORE.SYSTEM.CONST>
0

>  <SCORE.SYSTEM.DIHEDRAL>
0

>  <SCORE.SYSTEM.SOLV>
0

>  <SCORE.SYSTEM.norm>
0

>  <SCORE.heavy>
42

>  <SCORE.norm>
-0.145171

>  <RMSD>
9.570

$$$$
lig.pdb
 OpenBabel11021811513D
libRbt.so/2013.1/901 2013/11/27
 42 45  0  0  0  0  0  0  0  0999 V2000
   -2.4119    6.1155   35.6571 C   0  0  2  0  0  0  0  0  0  0  0  0
   -1.2691    6.9938   35.9019 O   0  0  0  0  0  0  0  0  0  0  0  0
   -2.7608    6.2636   34.1091 C   0  0  2  0  0  0  0  0  0  0  0  0
   -1.6323    5.8165   33.2880 N   0  0  0  0  0  0  0  0  0  0  0  0
   -3.1591    7.7911   33.8129 C   0  0  1  0  0  0  0  0  0  0  0  0
   -3.4970    7.9810   32.4227 O   0  0  0  0  0  0  0  0  0  0  0  0
   -4.3398    8.1400   34.7353 C   0  0  2  0  0  0  0  0  0  0  0  0
   -4.7106    9.4569   34.5075 O   0  0  0  0  0  0  0  0  0  0  0  0
   -3.9213    7.9217   36.2603 C   0  0  2  0  0  0  0  0  0  0  0  0
   -3.5365    6.5631   36.5048 O   0  0  0  0  0  0  0  0  0  0  0  0
   -5.0486    8.2313   37.2041 C   0  0  0  0  0  0  0  0  0  0  0  0
   -4.5677    8.0275   38.5333 O   0  0  0  0  0  0  0  0  0  0  0  0
   -1.6933    8.0551   40.1991 C   0  0  2  0  0  0  0  0  0  0  0  0
   -1.3561    8.3696   41.5704 N   0  0  0  0  0  0  0  0  0  0  0  0
   -1.0612    6.6696   39.7874 C   0  0  0  0  0  0  0  0  0  0  0  0
   -1.4091    6.3071   38.3008 C   0  0  2  0  0  0  0  0  0  0  0  0
   -0.8003    5.0235   37.9580 N   0  0  0  0  0  0  0  0  0  0  0  0
   -0.8963    7.4082   37.2699 C   0  0  2  0  0  0  0  0  0  0  0  0
   -1.5572    8.7603   37.6659 C   0  0  2  0  0  0  0  0  0  0  0  0
   -1.0310    9.7391   36.6423 O   0  0  0  0  0  0  0  0  0  0  0  0
   -1.1376    9.1632   39.1855 C   0  0  1  0  0  0  0  0  0  0  0  0
   -1.7471   10.3953   39.6882 O   0  0  0  0  0  0  0  0  0  0  0  0
   -1.6786   10.9437   36.7240 C   0  0  1  0  0  0  0  0  0  0  0  0
   -1.1612   11.9406   35.7807 C   0  0  2  0  0  0  0  0  0  0  0  0
    0.0829   12.3507   36.2505 O   0  0  0  0  0  0  0  0  0  0  0  0
   -2.3355   12.9413   35.7288 C   0  0  2  0  0  0  0  0  0  0  0  0
   -1.8246   14.2086   36.2007 O   0  0  0  0  0  0  0  0  0  0  0  0
   -3.3698   12.3664   36.6395 C   0  0  2  0  0  0  0  0  0  0  0  0
   -3.0596   10.9468   36.4021 O   0  0  0  0  0  0  0  0  0  0  0  0
   -4.8280   12.6958   36.1504 C   0  0  0  0  0  0  0  0  0  0  0  0
   -5.1486   14.1190   36.1816 O   0  0  0  0  0  0  0  0  0  0  0  0
   -2.6970   15.3693   36.0509 C   0  0  2  0  0  0  0  0  0  0  0  0
   -1.7853   16.6523   35.6810 C   0  0  2  0  0  0  0  0  0  0  0  0
   -0.7665   16.8606   36.7606 N   0  0  0  0  0  0  0  0  0  0  0  0
   -2.7535   17.9246   35.5141 C   0  0  1  0  0  0  0  0  0  0  0  0
   -3.7028   17.6108   34.4503 O   0  0  0  0  0  0  0  0  0  0  0  0
   -3.5068   18.2024   36.8925 C   0  0  2  0  0  0  0  0  0  0  0  0
   -2.4837   18.5250   37.9120 O   0  0  0  0  0  0  0  0  0  0  0  0
   -4.3739   16.8742   37.2746 C   0  0  1  0  0  0  0  0  0  0  0  0
   -3.4585   15.6784   37.3562 O   0  0  0  0  0  0  0  0  0  0  0  0
   -5.1142   17.1055   38.6337 C   0  0  0  0  0  0  0  0  0  0  0  0
   -6.1929   18.1373   38.5387 N   0  0  0  0  0  0  0  0  0  0  0  0
  1  3  1  0  0  0  0
  1  2  1  1  0  0  0
  3  4  1  6  0  0  0
  3  5  1  0  0  0  0
  5  6  1  6  0  0  0
  7  8  1  1  0  0  0
  7  5  1  0  0  0  0
  9 11  1  1  0  0  0
  9  7  1  0  0  0  0
 10  9  1  0  0  0  0
 10  1  1  0  0  0  0
 12 11  1  0  0  0  0
 13 14  1  1  0  0  0
 15 13  1  0  0  0  0
 16 17  1  6  0  0  0
 16 15  1  0  0  0  0
 18  2  1  6  0  0  0
 18 19  1  0  0  0  0
 18 16  1  0  0  0  0
 19 20  1  6  0  0  0
 19 21  1  0  0  0  0
 21 22  1  1  0  0  0
 21 13  1  0  0  0  0
 23 20  1  6  0  0  0
 23 29  1  0  0  0  0
 24 25  1  1  0  0  0
 24 26  1  0  0  0  0
 24 23  1  0  0  0  0
 26 27  1  1  0  0  0
 26 28  1  0  0  0  0
 28 30  1  6  0  0  0
 29 28  1  0  0  0  0
 30 31  1  0  0  0  0
 32 27  1  1  0  0  0
 32 40  1  0  0  0  0
 33 35  1  0  0  0  0
 33 32  1  0  0  0  0
 33 34  1  1  0  0  0
 35 36  1  6  0  0  0
 35 37  1  0  0  0  0
 37 38  1  1  0  0  0
 37 39  1  0  0  0  0
 39 41  1  1  0  0  0
 40 39  1  0  0  0  0
 41 42  1  0  0  0  0
M  END
>  <CHROM.1>
162.93757186,-179.04794798,25.76190442,170.65779260,177.75842866,170.84601733
-64.98976642,-143.13940172,68.17348482,-2.72163759,11.23115142,36.71205206
1.20197374,1.24422279,-2.78279256

>  <Name>
lig.pdb

>  <RI>
0

>  <Rbt.Current_Directory>
/home/itssahil/PROJECTS/Mol_Feturizer/New_Systems/rnas/4wcr

>  <Rbt.Executable>
rbdock ($Id: //depot/dev/client3/rdock/2013.1/src/exe/rbdock.cxx#4 $)

>  <Rbt.Library>
libRbt.so (2013.1, Build901 2013/11/27)

>  <Rbt.Parameter_File>
/export/apps/rDock/src/rDock_2013.1_src/data/scripts/dock_solv.prm

>  <Rbt.Receptor>
prm/pocket_docking_3.prm

>  <SCORE>
1.09164

>  <SCORE.INTER>
5.42427

>  <SCORE.INTER.CONST>
1

>  <SCORE.INTER.POLAR>
0

>  <SCORE.INTER.ROT>
9

>  <SCORE.INTER.SOLV>
11.2234

>  <SCORE.INTER.VDW>
-9.72495

>  <SCORE.INTER.norm>
0.129149

>  <SCORE.INTRA>
-4.3533

>  <SCORE.INTRA.DIHEDRAL>
-3.97098

>  <SCORE.INTRA.DIHEDRAL.0>
16.2863

>  <SCORE.INTRA.POLAR>
0

>  <SCORE.INTRA.POLAR.0>
0

>  <SCORE.INTRA.REPUL>
-0.314433

>  <SCORE.INTRA.REPUL.0>
0.314433

>  <SCORE.INTRA.SOLV>
-2.02442

>  <SCORE.INTRA.SOLV.lig_0>
-103.824

>  <SCORE.INTRA.VDW>
0.216563

>  <SCORE.INTRA.VDW.0>
-5.30945

>  <SCORE.INTRA.norm>
-0.10365

>  <SCORE.RESTR>
0.0206692

>  <SCORE.RESTR.CAVITY>
0.0206692

>  <SCORE.RESTR.norm>
0.000492124

>  <SCORE.SYSTEM>
0

>  <SCORE.SYSTEM.CONST>
0

>  <SCORE.SYSTEM.DIHEDRAL>
0

>  <SCORE.SYSTEM.SOLV>
0

>  <SCORE.SYSTEM.norm>
0

>  <SCORE.heavy>
42

>  <SCORE.norm>
0.0259914

>  <RMSD>
9.573

$$$$
lig.pdb
 OpenBabel11021811513D
libRbt.so/2013.1/901 2013/11/27
 42 45  0  0  0  0  0  0  0  0999 V2000
   -6.8915   14.6572   29.6777 C   0  0  2  0  0  0  0  0  0  0  0  0
   -5.9582   15.7670   29.8636 O   0  0  0  0  0  0  0  0  0  0  0  0
   -6.0027   13.3355   29.6220 C   0  0  2  0  0  0  0  0  0  0  0  0
   -5.2877   13.1494   30.8876 N   0  0  0  0  0  0  0  0  0  0  0  0
   -5.0026   13.4377   28.3694 C   0  0  1  0  0  0  0  0  0  0  0  0
   -4.1782   12.2579   28.2637 O   0  0  0  0  0  0  0  0  0  0  0  0
   -5.8670   13.6388   27.1129 C   0  0  2  0  0  0  0  0  0  0  0  0
   -5.0339   13.7334   26.0080 O   0  0  0  0  0  0  0  0  0  0  0  0
   -6.7565   14.9551   27.2699 C   0  0  2  0  0  0  0  0  0  0  0  0
   -7.6208   14.8661   28.4095 O   0  0  0  0  0  0  0  0  0  0  0  0
   -7.6358   15.1873   26.0740 C   0  0  0  0  0  0  0  0  0  0  0  0
   -8.2098   16.4884   26.2056 O   0  0  0  0  0  0  0  0  0  0  0  0
   -6.2471   20.1418   30.6054 C   0  0  2  0  0  0  0  0  0  0  0  0
   -6.7128   21.4167   31.1062 N   0  0  0  0  0  0  0  0  0  0  0  0
   -7.4174   19.3887   29.8626 C   0  0  0  0  0  0  0  0  0  0  0  0
   -6.9385   17.9991   29.3130 C   0  0  2  0  0  0  0  0  0  0  0  0
   -8.0515   17.3325   28.6400 N   0  0  0  0  0  0  0  0  0  0  0  0
   -6.3918   17.0445   30.4655 C   0  0  2  0  0  0  0  0  0  0  0  0
   -5.2146   17.7849   31.1638 C   0  0  2  0  0  0  0  0  0  0  0  0
   -4.7514   16.8162   32.2267 O   0  0  0  0  0  0  0  0  0  0  0  0
   -5.7339   19.1942   31.7898 C   0  0  1  0  0  0  0  0  0  0  0  0
   -4.6962   20.0065   32.4266 O   0  0  0  0  0  0  0  0  0  0  0  0
   -3.8889   17.4152   33.1068 C   0  0  1  0  0  0  0  0  0  0  0  0
   -3.0652   16.4552   33.8490 C   0  0  2  0  0  0  0  0  0  0  0  0
   -3.8919   15.8276   34.7760 O   0  0  0  0  0  0  0  0  0  0  0  0
   -1.9116   17.3606   34.3313 C   0  0  2  0  0  0  0  0  0  0  0  0
   -1.9343   17.3308   35.7764 O   0  0  0  0  0  0  0  0  0  0  0  0
   -2.2295   18.7121   33.7818 C   0  0  2  0  0  0  0  0  0  0  0  0
   -2.8964   18.2606   32.5492 O   0  0  0  0  0  0  0  0  0  0  0  0
   -0.9274   19.5227   33.4325 C   0  0  0  0  0  0  0  0  0  0  0  0
   -0.1360   19.8914   34.6017 O   0  0  0  0  0  0  0  0  0  0  0  0
   -0.7279   17.7794   36.4652 C   0  0  2  0  0  0  0  0  0  0  0  0
    0.5494   17.0586   35.7848 C   0  0  2  0  0  0  0  0  0  0  0  0
    0.3813   15.5718   35.8732 N   0  0  0  0  0  0  0  0  0  0  0  0
    1.8732   17.5605   36.5461 C   0  0  1  0  0  0  0  0  0  0  0  0
    1.9317   19.0123   36.4034 O   0  0  0  0  0  0  0  0  0  0  0  0
    1.7946   17.1372   38.0821 C   0  0  2  0  0  0  0  0  0  0  0  0
    1.7527   15.6591   38.1440 O   0  0  0  0  0  0  0  0  0  0  0  0
    0.4678   17.8287   38.7327 C   0  0  1  0  0  0  0  0  0  0  0  0
   -0.7555   17.4021   37.9605 O   0  0  0  0  0  0  0  0  0  0  0  0
    0.3493   17.4196   40.2385 C   0  0  0  0  0  0  0  0  0  0  0  0
    0.7456   15.9988   40.4867 N   0  0  0  0  0  0  0  0  0  0  0  0
  1  3  1  0  0  0  0
  1  2  1  6  0  0  0
  3  4  1  1  0  0  0
  3  5  1  0  0  0  0
  5  6  1  6  0  0  0
  7  8  1  6  0  0  0
  7  5  1  0  0  0  0
  9 11  1  6  0  0  0
  9  7  1  0  0  0  0
 10  9  1  0  0  0  0
 10  1  1  0  0  0  0
 12 11  1  0  0  0  0
 13 14  1  1  0  0  0
 15 13  1  0  0  0  0
 16 17  1  1  0  0  0
 16 15  1  0  0  0  0
 18  2  1  6  0  0  0
 18 19  1  0  0  0  0
 18 16  1  0  0  0  0
 19 20  1  1  0  0  0
 19 21  1  0  0  0  0
 21 22  1  6  0  0  0
 21 13  1  0  0  0  0
 23 20  1  6  0  0  0
 23 29  1  0  0  0  0
 24 25  1  1  0  0  0
 24 26  1  0  0  0  0
 24 23  1  0  0  0  0
 26 27  1  1  0  0  0
 26 28  1  0  0  0  0
 28 30  1  6  0  0  0
 29 28  1  0  0  0  0
 30 31  1  0  0  0  0
 32 27  1  6  0  0  0
 32 40  1  0  0  0  0
 33 35  1  0  0  0  0
 33 32  1  0  0  0  0
 33 34  1  1  0  0  0
 35 36  1  1  0  0  0
 35 37  1  0  0  0  0
 37 38  1  6  0  0  0
 37 39  1  0  0  0  0
 39 41  1  1  0  0  0
 40 39  1  0  0  0  0
 41 42  1  0  0  0  0
M  END
>  <CHROM.1>
-156.20767084,-170.21928100,-88.22238239,-168.12372032,-160.00110077,162.56085747
-67.10090489,-47.85691211,-38.29839040,-3.53819155,16.84502983,32.52786285
-2.67335146,-0.82803631,0.40757726

>  <Name>
lig.pdb

>  <RI>
0

>  <Rbt.Current_Directory>
/home/itssahil/PROJECTS/Mol_Feturizer/New_Systems/rnas/4wcr

>  <Rbt.Executable>
rbdock ($Id: //depot/dev/client3/rdock/2013.1/src/exe/rbdock.cxx#4 $)

>  <Rbt.Library>
libRbt.so (2013.1, Build901 2013/11/27)

>  <Rbt.Parameter_File>
/export/apps/rDock/src/rDock_2013.1_src/data/scripts/dock_solv.prm

>  <Rbt.Receptor>
prm/blind_docking_60.prm

>  <SCORE>
-15.9616

>  <SCORE.INTER>
-21.6406

>  <SCORE.INTER.CONST>
1

>  <SCORE.INTER.POLAR>
0

>  <SCORE.INTER.ROT>
9

>  <SCORE.INTER.SOLV>
34.3219

>  <SCORE.INTER.VDW>
-35.4677

>  <SCORE.INTER.norm>
-0.515252

>  <SCORE.INTRA>
1.34819

>  <SCORE.INTRA.DIHEDRAL>
-3.45992

>  <SCORE.INTRA.DIHEDRAL.0>
16.2863

>  <SCORE.INTRA.POLAR>
0

>  <SCORE.INTRA.POLAR.0>
0

>  <SCORE.INTRA.REPUL>
-0.314433

>  <SCORE.INTRA.REPUL.0>
0.314433

>  <SCORE.INTRA.SOLV>
2.39964

>  <SCORE.INTRA.SOLV.lig_0>
-103.824

>  <SCORE.INTRA.VDW>
3.45049

>  <SCORE.INTRA.VDW.0>
-5.30945

>  <SCORE.INTRA.norm>
0.0320998

>  <SCORE.RESTR>
4.33082

>  <SCORE.RESTR.CAVITY>
4.33082

>  <SCORE.RESTR.norm>
0.103115

>  <SCORE.SYSTEM>
0

>  <SCORE.SYSTEM.CONST>
0

>  <SCORE.SYSTEM.DIHEDRAL>
0

>  <SCORE.SYSTEM.SOLV>
0

>  <SCORE.SYSTEM.norm>
0

>  <SCORE.heavy>
42

>  <SCORE.norm>
-0.380038

>  <RMSD>
9.583

$$$$
lig.pdb
 OpenBabel11021811513D
libRbt.so/2013.1/901 2013/11/27
 42 45  0  0  0  0  0  0  0  0999 V2000
   -1.6761    6.9024   35.3508 C   0  0  2  0  0  0  0  0  0  0  0  0
   -1.1462    8.0698   36.0534 O   0  0  0  0  0  0  0  0  0  0  0  0
   -2.1639    7.4260   33.9268 C   0  0  2  0  0  0  0  0  0  0  0  0
   -1.0322    7.9653   33.1679 N   0  0  0  0  0  0  0  0  0  0  0  0
   -3.3223    8.5167   34.1464 C   0  0  1  0  0  0  0  0  0  0  0  0
   -3.8110    9.0185   32.8846 O   0  0  0  0  0  0  0  0  0  0  0  0
   -4.4395    7.8365   34.9561 C   0  0  2  0  0  0  0  0  0  0  0  0
   -5.4594    8.7524   35.1670 O   0  0  0  0  0  0  0  0  0  0  0  0
   -3.8575    7.3026   36.3435 C   0  0  2  0  0  0  0  0  0  0  0  0
   -2.8027    6.3552   36.1351 O   0  0  0  0  0  0  0  0  0  0  0  0
   -4.9072    6.6111   37.1664 C   0  0  0  0  0  0  0  0  0  0  0  0
   -5.2275    5.3817   36.5139 O   0  0  0  0  0  0  0  0  0  0  0  0
   -1.0973    6.6496   40.2668 C   0  0  2  0  0  0  0  0  0  0  0  0
   -0.7378    6.5175   41.6620 N   0  0  0  0  0  0  0  0  0  0  0  0
    0.1775    6.4626   39.3565 C   0  0  0  0  0  0  0  0  0  0  0  0
   -0.1854    6.6058   37.8365 C   0  0  2  0  0  0  0  0  0  0  0  0
    1.0212    6.4334   37.0302 N   0  0  0  0  0  0  0  0  0  0  0  0
   -0.8306    8.0221   37.4957 C   0  0  2  0  0  0  0  0  0  0  0  0
   -2.1065    8.1757   38.3733 C   0  0  2  0  0  0  0  0  0  0  0  0
   -2.6578    9.5277   37.9850 O   0  0  0  0  0  0  0  0  0  0  0  0
   -1.7132    8.0934   39.9500 C   0  0  1  0  0  0  0  0  0  0  0  0
   -2.8458    8.1709   40.8738 O   0  0  0  0  0  0  0  0  0  0  0  0
   -1.7911   10.5351   38.3187 C   0  0  1  0  0  0  0  0  0  0  0  0
   -2.2218   11.8498   37.8317 C   0  0  2  0  0  0  0  0  0  0  0  0
   -2.0266   11.8670   36.4539 O   0  0  0  0  0  0  0  0  0  0  0  0
   -1.4001   12.7894   38.7400 C   0  0  2  0  0  0  0  0  0  0  0  0
   -0.5484   13.5698   37.8709 O   0  0  0  0  0  0  0  0  0  0  0  0
   -0.6247   11.8779   39.6331 C   0  0  2  0  0  0  0  0  0  0  0  0
   -1.6186   10.7939   39.7021 O   0  0  0  0  0  0  0  0  0  0  0  0
   -0.4016   12.5056   41.0580 C   0  0  0  0  0  0  0  0  0  0  0  0
   -1.6211   12.6003   41.8536 O   0  0  0  0  0  0  0  0  0  0  0  0
   -0.8492   14.9937   37.7564 C   0  0  2  0  0  0  0  0  0  0  0  0
   -2.2108   15.1633   36.9011 C   0  0  2  0  0  0  0  0  0  0  0  0
   -2.0310   14.5252   35.5568 N   0  0  0  0  0  0  0  0  0  0  0  0
   -2.5368   16.7330   36.7830 C   0  0  1  0  0  0  0  0  0  0  0  0
   -2.6830   17.2491   38.1409 O   0  0  0  0  0  0  0  0  0  0  0  0
   -1.3460   17.4658   36.0152 C   0  0  2  0  0  0  0  0  0  0  0  0
   -1.2707   16.9008   34.6495 O   0  0  0  0  0  0  0  0  0  0  0  0
    0.0268   17.2327   36.8655 C   0  0  1  0  0  0  0  0  0  0  0  0
    0.2771   15.7542   37.0269 O   0  0  0  0  0  0  0  0  0  0  0  0
    1.2220   17.9252   36.1303 C   0  0  0  0  0  0  0  0  0  0  0  0
    1.0451   19.4048   36.0013 N   0  0  0  0  0  0  0  0  0  0  0  0
  1  3  1  0  0  0  0
  1  2  1  1  0  0  0
  3  4  1  1  0  0  0
  3  5  1  0  0  0  0
  5  6  1  6  0  0  0
  7  8  1  1  0  0  0
  7  5  1  0  0  0  0
  9 11  1  6  0  0  0
  9  7  1  0  0  0  0
 10  9  1  0  0  0  0
 10  1  1  0  0  0  0
 12 11  1  0  0  0  0
 13 14  1  1  0  0  0
 15 13  1  0  0  0  0
 16 17  1  6  0  0  0
 16 15  1  0  0  0  0
 18  2  1  6  0  0  0
 18 19  1  0  0  0  0
 18 16  1  0  0  0  0
 19 20  1  1  0  0  0
 19 21  1  0  0  0  0
 21 22  1  1  0  0  0
 21 13  1  0  0  0  0
 23 20  1  1  0  0  0
 23 29  1  0  0  0  0
 24 25  1  6  0  0  0
 24 26  1  0  0  0  0
 24 23  1  0  0  0  0
 26 27  1  6  0  0  0
 26 28  1  0  0  0  0
 28 30  1  1  0  0  0
 29 28  1  0  0  0  0
 30 31  1  0  0  0  0
 32 27  1  6  0  0  0
 32 40  1  0  0  0  0
 33 35  1  0  0  0  0
 33 32  1  0  0  0  0
 33 34  1  6  0  0  0
 35 36  1  1  0  0  0
 35 37  1  0  0  0  0
 37 38  1  6  0  0  0
 37 39  1  0  0  0  0
 39 41  1  6  0  0  0
 40 39  1  0  0  0  0
 41 42  1  0  0  0  0
M  END
>  <CHROM.1>
168.53133125,69.83933324,38.82691576,-63.92207466,173.86765209,111.09391897
69.57649902,-71.73816054,61.41152953,-1.77630910,10.87985158,37.28350225
2.08056092,1.20528831,2.63874767

>  <Name>
lig.pdb

>  <RI>
0

>  <Rbt.Current_Directory>
/home/itssahil/PROJECTS/Mol_Feturizer/New_Systems/rnas/4wcr

>  <Rbt.Executable>
rbdock ($Id: //depot/dev/client3/rdock/2013.1/src/exe/rbdock.cxx#4 $)

>  <Rbt.Library>
libRbt.so (2013.1, Build901 2013/11/27)

>  <Rbt.Parameter_File>
/export/apps/rDock/src/rDock_2013.1_src/data/scripts/dock_solv.prm

>  <Rbt.Receptor>
prm/pocket_docking_3.prm

>  <SCORE>
2.57334

>  <SCORE.INTER>
4.61528

>  <SCORE.INTER.CONST>
1

>  <SCORE.INTER.POLAR>
0

>  <SCORE.INTER.ROT>
9

>  <SCORE.INTER.SOLV>
13.2173

>  <SCORE.INTER.VDW>
-10.9289

>  <SCORE.INTER.norm>
0.109888

>  <SCORE.INTRA>
-2.15342

>  <SCORE.INTRA.DIHEDRAL>
-4.97326

>  <SCORE.INTRA.DIHEDRAL.0>
16.2863

>  <SCORE.INTRA.POLAR>
0

>  <SCORE.INTRA.POLAR.0>
0

>  <SCORE.INTRA.REPUL>
-0.314433

>  <SCORE.INTRA.REPUL.0>
0.314433

>  <SCORE.INTRA.SOLV>
-2.23136

>  <SCORE.INTRA.SOLV.lig_0>
-103.824

>  <SCORE.INTRA.VDW>
3.02105

>  <SCORE.INTRA.VDW.0>
-5.30945

>  <SCORE.INTRA.norm>
-0.051272

>  <SCORE.RESTR>
0.111485

>  <SCORE.RESTR.CAVITY>
0.111485

>  <SCORE.RESTR.norm>
0.00265441

>  <SCORE.SYSTEM>
0

>  <SCORE.SYSTEM.CONST>
0

>  <SCORE.SYSTEM.DIHEDRAL>
0

>  <SCORE.SYSTEM.SOLV>
0

>  <SCORE.SYSTEM.norm>
0

>  <SCORE.heavy>
42

>  <SCORE.norm>
0.0612701

>  <RMSD>
9.585

$$$$
lig.pdb
 OpenBabel11021811513D
libRbt.so/2013.1/901 2013/11/27
 42 45  0  0  0  0  0  0  0  0999 V2000
   -5.3111   10.9503   34.8931 C   0  0  2  0  0  0  0  0  0  0  0  0
   -3.8923   11.1655   35.1720 O   0  0  0  0  0  0  0  0  0  0  0  0
   -5.5507    9.3785   35.0027 C   0  0  2  0  0  0  0  0  0  0  0  0
   -5.2564    8.9124   36.3606 N   0  0  0  0  0  0  0  0  0  0  0  0
   -4.6480    8.6399   33.8985 C   0  0  1  0  0  0  0  0  0  0  0  0
   -4.8347    7.2096   33.9453 O   0  0  0  0  0  0  0  0  0  0  0  0
   -5.0422    9.2179   32.5285 C   0  0  2  0  0  0  0  0  0  0  0  0
   -4.2788    8.6024   31.5476 O   0  0  0  0  0  0  0  0  0  0  0  0
   -4.8150   10.7980   32.5192 C   0  0  2  0  0  0  0  0  0  0  0  0
   -5.6003   11.4424   33.5300 O   0  0  0  0  0  0  0  0  0  0  0  0
   -5.2040   11.4158   31.2062 C   0  0  0  0  0  0  0  0  0  0  0  0
   -4.9250   12.8141   31.2869 O   0  0  0  0  0  0  0  0  0  0  0  0
   -1.4680   14.5230   36.7915 C   0  0  2  0  0  0  0  0  0  0  0  0
   -0.8327   15.8170   36.9143 N   0  0  0  0  0  0  0  0  0  0  0  0
   -1.0649   13.8466   35.4245 C   0  0  0  0  0  0  0  0  0  0  0  0
   -1.7454   12.4416   35.2648 C   0  0  2  0  0  0  0  0  0  0  0  0
   -1.3528   11.8537   33.9857 N   0  0  0  0  0  0  0  0  0  0  0  0
   -3.3353   12.5254   35.3230 C   0  0  2  0  0  0  0  0  0  0  0  0
   -3.7183   13.1596   36.6914 C   0  0  2  0  0  0  0  0  0  0  0  0
   -5.2286   13.1933   36.6699 O   0  0  0  0  0  0  0  0  0  0  0  0
   -3.0644   14.6439   36.8218 C   0  0  1  0  0  0  0  0  0  0  0  0
   -3.3129   15.3182   38.0968 O   0  0  0  0  0  0  0  0  0  0  0  0
   -5.7389   13.5076   37.9020 C   0  0  1  0  0  0  0  0  0  0  0  0
   -6.7663   14.5530   37.8499 C   0  0  2  0  0  0  0  0  0  0  0  0
   -6.1206   15.7577   37.5882 O   0  0  0  0  0  0  0  0  0  0  0  0
   -7.4814   14.3374   39.2010 C   0  0  2  0  0  0  0  0  0  0  0  0
   -7.3275   15.5616   39.9542 O   0  0  0  0  0  0  0  0  0  0  0  0
   -6.7712   13.1849   39.8311 C   0  0  2  0  0  0  0  0  0  0  0  0
   -6.4273   12.4750   38.5878 O   0  0  0  0  0  0  0  0  0  0  0  0
   -7.7399   12.3102   40.7091 C   0  0  0  0  0  0  0  0  0  0  0  0
   -7.0937   11.1516   41.3168 O   0  0  0  0  0  0  0  0  0  0  0  0
   -8.0893   16.7193   39.4954 C   0  0  2  0  0  0  0  0  0  0  0  0
   -7.4348   18.0513   40.1370 C   0  0  2  0  0  0  0  0  0  0  0  0
   -7.4481   17.9362   41.6314 N   0  0  0  0  0  0  0  0  0  0  0  0
   -8.2767   19.3210   39.6241 C   0  0  1  0  0  0  0  0  0  0  0  0
   -8.2027   19.3304   38.1660 O   0  0  0  0  0  0  0  0  0  0  0  0
   -9.7868   19.1925   40.1217 C   0  0  2  0  0  0  0  0  0  0  0  0
   -9.7797   19.2041   41.6015 O   0  0  0  0  0  0  0  0  0  0  0  0
  -10.4080   17.8136   39.5097 C   0  0  1  0  0  0  0  0  0  0  0  0
   -9.5632   16.6418   39.9432 O   0  0  0  0  0  0  0  0  0  0  0  0
  -11.8868   17.6459   39.9930 C   0  0  0  0  0  0  0  0  0  0  0  0
  -12.7626   18.7892   39.5889 N   0  0  0  0  0  0  0  0  0  0  0  0
  1  3  1  0  0  0  0
  1  2  1  6  0  0  0
  3  4  1  1  0  0  0
  3  5  1  0  0  0  0
  5  6  1  6  0  0  0
  7  8  1  6  0  0  0
  7  5  1  0  0  0  0
  9 11  1  6  0  0  0
  9  7  1  0  0  0  0
 10  9  1  0  0  0  0
 10  1  1  0  0  0  0
 12 11  1  0  0  0  0
 13 14  1  6  0  0  0
 15 13  1  0  0  0  0
 16 17  1  6  0  0  0
 16 15  1  0  0  0  0
 18  2  1  1  0  0  0
 18 19  1  0  0  0  0
 18 16  1  0  0  0  0
 19 20  1  6  0  0  0
 19 21  1  0  0  0  0
 21 22  1  1  0  0  0
 21 13  1  0  0  0  0
 23 20  1  6  0  0  0
 23 29  1  0  0  0  0
 24 25  1  1  0  0  0
 24 26  1  0  0  0  0
 24 23  1  0  0  0  0
 26 27  1  1  0  0  0
 26 28  1  0  0  0  0
 28 30  1  1  0  0  0
 29 28  1  0  0  0  0
 30 31  1  0  0  0  0
 32 27  1  1  0  0  0
 32 40  1  0  0  0  0
 33 35  1  0  0  0  0
 33 32  1  0  0  0  0
 33 34  1  1  0  0  0
 35 36  1  6  0  0  0
 35 37  1  0  0  0  0
 37 38  1  1  0  0  0
 37 39  1  0  0  0  0
 39 41  1  1  0  0  0
 40 39  1  0  0  0  0
 41 42  1  0  0  0  0
M  END
>  <CHROM.1>
-172.38605120,-178.21877393,-166.43192352,169.25310472,132.04728027,71.24372524
178.50927230,-161.91342923,58.67857672,-5.95965561,13.82874171,37.05889608
1.03962096,-0.35481681,-2.61920801

>  <Name>
lig.pdb

>  <RI>
0

>  <Rbt.Current_Directory>
/home/itssahil/PROJECTS/Mol_Feturizer/New_Systems/rnas/4wcr

>  <Rbt.Executable>
rbdock ($Id: //depot/dev/client3/rdock/2013.1/src/exe/rbdock.cxx#4 $)

>  <Rbt.Library>
libRbt.so (2013.1, Build901 2013/11/27)

>  <Rbt.Parameter_File>
/export/apps/rDock/src/rDock_2013.1_src/data/scripts/dock_solv.prm

>  <Rbt.Receptor>
prm/pocket_docking_7.prm

>  <SCORE>
-9.01429

>  <SCORE.INTER>
-2.98049

>  <SCORE.INTER.CONST>
1

>  <SCORE.INTER.POLAR>
0

>  <SCORE.INTER.ROT>
9

>  <SCORE.INTER.SOLV>
17.204

>  <SCORE.INTER.VDW>
-17.3217

>  <SCORE.INTER.norm>
-0.0709641

>  <SCORE.INTRA>
-6.03379

>  <SCORE.INTRA.DIHEDRAL>
-5.46093

>  <SCORE.INTRA.DIHEDRAL.0>
16.2863

>  <SCORE.INTRA.POLAR>
0

>  <SCORE.INTRA.POLAR.0>
0

>  <SCORE.INTRA.REPUL>
-0.314433

>  <SCORE.INTRA.REPUL.0>
0.314433

>  <SCORE.INTRA.SOLV>
-5.35629

>  <SCORE.INTRA.SOLV.lig_0>
-103.824

>  <SCORE.INTRA.VDW>
0.94698

>  <SCORE.INTRA.VDW.0>
-5.30945

>  <SCORE.INTRA.norm>
-0.143662

>  <SCORE.RESTR>
0

>  <SCORE.RESTR.CAVITY>
0

>  <SCORE.RESTR.norm>
0

>  <SCORE.SYSTEM>
0

>  <SCORE.SYSTEM.CONST>
0

>  <SCORE.SYSTEM.DIHEDRAL>
0

>  <SCORE.SYSTEM.SOLV>
0

>  <SCORE.SYSTEM.norm>
0

>  <SCORE.heavy>
42

>  <SCORE.norm>
-0.214626

>  <RMSD>
9.590

$$$$
lig.pdb
 OpenBabel11021811513D
libRbt.so/2013.1/901 2013/11/27
 42 45  0  0  0  0  0  0  0  0999 V2000
   -0.6848   17.0337   36.1387 C   0  0  2  0  0  0  0  0  0  0  0  0
   -1.2597   18.3590   35.9147 O   0  0  0  0  0  0  0  0  0  0  0  0
   -1.6929   15.9949   35.4718 C   0  0  2  0  0  0  0  0  0  0  0  0
   -1.7896   16.2343   34.0292 N   0  0  0  0  0  0  0  0  0  0  0  0
   -3.1176   16.1147   36.2036 C   0  0  1  0  0  0  0  0  0  0  0  0
   -4.0697   15.1851   35.6451 O   0  0  0  0  0  0  0  0  0  0  0  0
   -2.8826   15.8533   37.7013 C   0  0  2  0  0  0  0  0  0  0  0  0
   -4.0952   15.9508   38.3674 O   0  0  0  0  0  0  0  0  0  0  0  0
   -1.8297   16.9054   38.2782 C   0  0  2  0  0  0  0  0  0  0  0  0
   -0.5732   16.8118   37.5955 O   0  0  0  0  0  0  0  0  0  0  0  0
   -1.5500   16.6809   39.7372 C   0  0  0  0  0  0  0  0  0  0  0  0
   -0.6015   15.6178   39.8368 O   0  0  0  0  0  0  0  0  0  0  0  0
   -0.9804   21.8157   33.1316 C   0  0  2  0  0  0  0  0  0  0  0  0
   -0.6142   22.6288   31.9924 N   0  0  0  0  0  0  0  0  0  0  0  0
    0.3143   21.2797   33.8562 C   0  0  0  0  0  0  0  0  0  0  0  0
   -0.0563   20.3901   35.0946 C   0  0  2  0  0  0  0  0  0  0  0  0
    1.1679   19.9091   35.7316 N   0  0  0  0  0  0  0  0  0  0  0  0
   -0.9528   19.1349   34.6956 C   0  0  2  0  0  0  0  0  0  0  0  0
   -2.2421   19.6807   34.0164 C   0  0  2  0  0  0  0  0  0  0  0  0
   -3.0338   18.4383   33.6813 O   0  0  0  0  0  0  0  0  0  0  0  0
   -1.8534   20.5464   32.6946 C   0  0  1  0  0  0  0  0  0  0  0  0
   -2.9882   21.1582   32.0016 O   0  0  0  0  0  0  0  0  0  0  0  0
   -3.7666   18.6068   32.5359 C   0  0  1  0  0  0  0  0  0  0  0  0
   -4.6072   17.4486   32.2148 C   0  0  2  0  0  0  0  0  0  0  0  0
   -3.7652   16.4356   31.7658 O   0  0  0  0  0  0  0  0  0  0  0  0
   -5.6348   18.0821   31.2526 C   0  0  2  0  0  0  0  0  0  0  0  0
   -5.4970   17.3986   29.9864 O   0  0  0  0  0  0  0  0  0  0  0  0
   -5.2467   19.5217   31.1709 C   0  0  2  0  0  0  0  0  0  0  0  0
   -4.7242   19.6525   32.5412 O   0  0  0  0  0  0  0  0  0  0  0  0
   -6.4977   20.4544   30.9723 C   0  0  0  0  0  0  0  0  0  0  0  0
   -7.2687   20.1519   29.7710 O   0  0  0  0  0  0  0  0  0  0  0  0
   -6.5987   16.5309   29.5811 C   0  0  2  0  0  0  0  0  0  0  0  0
   -6.0757   15.5528   28.4046 C   0  0  2  0  0  0  0  0  0  0  0  0
   -5.5739   16.3820   27.2612 N   0  0  0  0  0  0  0  0  0  0  0  0
   -7.2931   14.5988   27.9670 C   0  0  1  0  0  0  0  0  0  0  0  0
   -7.7043   13.8494   29.1506 O   0  0  0  0  0  0  0  0  0  0  0  0
   -8.4913   15.4906   27.4071 C   0  0  2  0  0  0  0  0  0  0  0  0
   -8.0030   16.2047   26.2063 O   0  0  0  0  0  0  0  0  0  0  0  0
   -8.9640   16.5084   28.5914 C   0  0  1  0  0  0  0  0  0  0  0  0
   -7.7910   17.3449   29.0378 O   0  0  0  0  0  0  0  0  0  0  0  0
  -10.1295   17.4130   28.0700 C   0  0  0  0  0  0  0  0  0  0  0  0
   -9.7352   18.2458   26.8918 N   0  0  0  0  0  0  0  0  0  0  0  0
  1  3  1  0  0  0  0
  1  2  1  1  0  0  0
  3  4  1  6  0  0  0
  3  5  1  0  0  0  0
  5  6  1  6  0  0  0
  7  8  1  1  0  0  0
  7  5  1  0  0  0  0
  9 11  1  1  0  0  0
  9  7  1  0  0  0  0
 10  9  1  0  0  0  0
 10  1  1  0  0  0  0
 12 11  1  0  0  0  0
 13 14  1  6  0  0  0
 15 13  1  0  0  0  0
 16 17  1  6  0  0  0
 16 15  1  0  0  0  0
 18  2  1  1  0  0  0
 18 19  1  0  0  0  0
 18 16  1  0  0  0  0
 19 20  1  6  0  0  0
 19 21  1  0  0  0  0
 21 22  1  1  0  0  0
 21 13  1  0  0  0  0
 23 20  1  1  0  0  0
 23 29  1  0  0  0  0
 24 25  1  6  0  0  0
 24 26  1  0  0  0  0
 24 23  1  0  0  0  0
 26 27  1  6  0  0  0
 26 28  1  0  0  0  0
 28 30  1  1  0  0  0
 29 28  1  0  0  0  0
 30 31  1  0  0  0  0
 32 27  1  6  0  0  0
 32 40  1  0  0  0  0
 33 35  1  0  0  0  0
 33 32  1  0  0  0  0
 33 34  1  6  0  0  0
 35 36  1  1  0  0  0
 35 37  1  0  0  0  0
 37 38  1  6  0  0  0
 37 39  1  0  0  0  0
 39 41  1  6  0  0  0
 40 39  1  0  0  0  0
 41 42  1  0  0  0  0
M  END
>  <CHROM.1>
-88.85472185,80.82110440,-110.72327839,-147.59229127,-176.85790518,110.64006096
-58.72852490,-163.44569941,-60.27823159,-4.04065813,17.78188633,32.69147414
0.49017996,0.80380907,2.38841705

>  <Name>
lig.pdb

>  <RI>
0

>  <Rbt.Current_Directory>
/home/itssahil/PROJECTS/Mol_Feturizer/New_Systems/rnas/4wcr

>  <Rbt.Executable>
rbdock ($Id: //depot/dev/client3/rdock/2013.1/src/exe/rbdock.cxx#4 $)

>  <Rbt.Library>
libRbt.so (2013.1, Build901 2013/11/27)

>  <Rbt.Parameter_File>
/export/apps/rDock/src/rDock_2013.1_src/data/scripts/dock_solv.prm

>  <Rbt.Receptor>
prm/blind_docking_100.prm

>  <SCORE>
7.8717

>  <SCORE.INTER>
-5.76297

>  <SCORE.INTER.CONST>
1

>  <SCORE.INTER.POLAR>
0

>  <SCORE.INTER.ROT>
9

>  <SCORE.INTER.SOLV>
26.9081

>  <SCORE.INTER.VDW>
-22.4114

>  <SCORE.INTER.norm>
-0.137214

>  <SCORE.INTRA>
7.01219

>  <SCORE.INTRA.DIHEDRAL>
7.80377

>  <SCORE.INTRA.DIHEDRAL.0>
16.2863

>  <SCORE.INTRA.POLAR>
0

>  <SCORE.INTRA.POLAR.0>
0

>  <SCORE.INTRA.REPUL>
-0.314433

>  <SCORE.INTRA.REPUL.0>
0.314433

>  <SCORE.INTRA.SOLV>
1.75586

>  <SCORE.INTRA.SOLV.lig_0>
-103.824

>  <SCORE.INTRA.VDW>
3.80454

>  <SCORE.INTRA.VDW.0>
-5.30945

>  <SCORE.INTRA.norm>
0.166957

>  <SCORE.RESTR>
6.62248

>  <SCORE.RESTR.CAVITY>
6.62248

>  <SCORE.RESTR.norm>
0.157678

>  <SCORE.SYSTEM>
0

>  <SCORE.SYSTEM.CONST>
0

>  <SCORE.SYSTEM.DIHEDRAL>
0

>  <SCORE.SYSTEM.SOLV>
0

>  <SCORE.SYSTEM.norm>
0

>  <SCORE.heavy>
42

>  <SCORE.norm>
0.187421

>  <RMSD>
9.593

$$$$
lig.pdb
 OpenBabel11021811513D
libRbt.so/2013.1/901 2013/11/27
 42 45  0  0  0  0  0  0  0  0999 V2000
   -4.4648    9.6028   35.9565 C   0  0  2  0  0  0  0  0  0  0  0  0
   -4.6226    8.1518   36.0410 O   0  0  0  0  0  0  0  0  0  0  0  0
   -5.8195   10.1598   35.3284 C   0  0  2  0  0  0  0  0  0  0  0  0
   -6.9515    9.8543   36.2076 N   0  0  0  0  0  0  0  0  0  0  0  0
   -6.0046    9.5336   33.8609 C   0  0  1  0  0  0  0  0  0  0  0  0
   -7.2144   10.0145   33.2383 O   0  0  0  0  0  0  0  0  0  0  0  0
   -4.7577    9.9136   33.0441 C   0  0  2  0  0  0  0  0  0  0  0  0
   -4.8823    9.3862   31.7674 O   0  0  0  0  0  0  0  0  0  0  0  0
   -3.4457    9.3582   33.7642 C   0  0  2  0  0  0  0  0  0  0  0  0
   -3.3089    9.8982   35.0846 O   0  0  0  0  0  0  0  0  0  0  0  0
   -2.1950    9.7198   33.0144 C   0  0  0  0  0  0  0  0  0  0  0  0
   -1.0881    9.1680   33.7285 O   0  0  0  0  0  0  0  0  0  0  0  0
   -2.8991    4.9806   38.6383 C   0  0  2  0  0  0  0  0  0  0  0  0
   -1.9468    4.0739   39.2415 N   0  0  0  0  0  0  0  0  0  0  0  0
   -2.9049    4.8000   37.0711 C   0  0  0  0  0  0  0  0  0  0  0  0
   -3.9281    5.7768   36.3916 C   0  0  2  0  0  0  0  0  0  0  0  0
   -3.8972    5.5830   34.9434 N   0  0  0  0  0  0  0  0  0  0  0  0
   -3.6132    7.3058   36.7101 C   0  0  2  0  0  0  0  0  0  0  0  0
   -3.6480    7.4759   38.2566 C   0  0  2  0  0  0  0  0  0  0  0  0
   -3.3523    8.9419   38.4707 O   0  0  0  0  0  0  0  0  0  0  0  0
   -2.5380    6.5092   38.9500 C   0  0  1  0  0  0  0  0  0  0  0  0
   -2.5167    6.5439   40.4131 O   0  0  0  0  0  0  0  0  0  0  0  0
   -3.6269    9.3242   39.7575 C   0  0  1  0  0  0  0  0  0  0  0  0
   -3.1905   10.6919   40.0573 C   0  0  2  0  0  0  0  0  0  0  0  0
   -1.8018   10.6750   40.1464 O   0  0  0  0  0  0  0  0  0  0  0  0
   -4.0408   11.0105   41.3058 C   0  0  2  0  0  0  0  0  0  0  0  0
   -3.1153   11.2700   42.3855 O   0  0  0  0  0  0  0  0  0  0  0  0
   -4.8589    9.7828   41.5360 C   0  0  2  0  0  0  0  0  0  0  0  0
   -4.9950    9.3817   40.1259 O   0  0  0  0  0  0  0  0  0  0  0  0
   -6.2684   10.1248   42.1448 C   0  0  0  0  0  0  0  0  0  0  0  0
   -7.1161   10.9102   41.2538 O   0  0  0  0  0  0  0  0  0  0  0  0
   -2.3884   12.5352   42.3424 C   0  0  2  0  0  0  0  0  0  0  0  0
   -1.4255   12.6183   43.6386 C   0  0  2  0  0  0  0  0  0  0  0  0
   -2.2580   12.4995   44.8793 N   0  0  0  0  0  0  0  0  0  0  0  0
   -0.6265   14.0119   43.5815 C   0  0  1  0  0  0  0  0  0  0  0  0
    0.1383   14.0230   42.3379 O   0  0  0  0  0  0  0  0  0  0  0  0
   -1.6654   15.2214   43.6276 C   0  0  2  0  0  0  0  0  0  0  0  0
   -2.3881   15.1502   44.9171 O   0  0  0  0  0  0  0  0  0  0  0  0
   -2.6622   15.0846   42.3433 C   0  0  1  0  0  0  0  0  0  0  0  0
   -3.3485   13.7420   42.3761 O   0  0  0  0  0  0  0  0  0  0  0  0
   -3.7084   16.2480   42.3662 C   0  0  0  0  0  0  0  0  0  0  0  0
   -4.6742   16.1825   41.2260 N   0  0  0  0  0  0  0  0  0  0  0  0
  1  3  1  0  0  0  0
  1  2  1  6  0  0  0
  3  4  1  1  0  0  0
  3  5  1  0  0  0  0
  5  6  1  6  0  0  0
  7  8  1  6  0  0  0
  7  5  1  0  0  0  0
  9 11  1  6  0  0  0
  9  7  1  0  0  0  0
 10  9  1  0  0  0  0
 10  1  1  0  0  0  0
 12 11  1  0  0  0  0
 13 14  1  1  0  0  0
 15 13  1  0  0  0  0
 16 17  1  6  0  0  0
 16 15  1  0  0  0  0
 18  2  1  6  0  0  0
 18 19  1  0  0  0  0
 18 16  1  0  0  0  0
 19 20  1  6  0  0  0
 19 21  1  0  0  0  0
 21 22  1  1  0  0  0
 21 13  1  0  0  0  0
 23 20  1  6  0  0  0
 23 29  1  0  0  0  0
 24 25  1  1  0  0  0
 24 26  1  0  0  0  0
 24 23  1  0  0  0  0
 26 27  1  1  0  0  0
 26 28  1  0  0  0  0
 28 30  1  6  0  0  0
 29 28  1  0  0  0  0
 30 31  1  0  0  0  0
 32 27  1  1  0  0  0
 32 40  1  0  0  0  0
 33 35  1  0  0  0  0
 33 32  1  0  0  0  0
 33 34  1  1  0  0  0
 35 36  1  6  0  0  0
 35 37  1  0  0  0  0
 37 38  1  1  0  0  0
 37 39  1  0  0  0  0
 39 41  1  1  0  0  0
 40 39  1  0  0  0  0
 41 42  1  0  0  0  0
M  END
>  <CHROM.1>
-173.46970363,-179.38647989,-169.26604443,166.89219200,172.46192941,72.99740519
64.38427243,179.69015055,-179.23652525,-3.57435882,10.19246382,38.86111870
2.07817333,1.25612783,-2.66782382

>  <Name>
lig.pdb

>  <RI>
0

>  <Rbt.Current_Directory>
/home/itssahil/PROJECTS/Mol_Feturizer/New_Systems/rnas/4wcr

>  <Rbt.Executable>
rbdock ($Id: //depot/dev/client3/rdock/2013.1/src/exe/rbdock.cxx#4 $)

>  <Rbt.Library>
libRbt.so (2013.1, Build901 2013/11/27)

>  <Rbt.Parameter_File>
/export/apps/rDock/src/rDock_2013.1_src/data/scripts/dock_solv.prm

>  <Rbt.Receptor>
prm/pocket_docking_8.prm

>  <SCORE>
-8.93077

>  <SCORE.INTER>
1.0183

>  <SCORE.INTER.CONST>
1

>  <SCORE.INTER.POLAR>
0

>  <SCORE.INTER.ROT>
9

>  <SCORE.INTER.SOLV>
17.1514

>  <SCORE.INTER.VDW>
-14.6383

>  <SCORE.INTER.norm>
0.0242453

>  <SCORE.INTRA>
-9.94907

>  <SCORE.INTRA.DIHEDRAL>
-13.0601

>  <SCORE.INTRA.DIHEDRAL.0>
16.2863

>  <SCORE.INTRA.POLAR>
0

>  <SCORE.INTRA.POLAR.0>
0

>  <SCORE.INTRA.REPUL>
-0.314433

>  <SCORE.INTRA.REPUL.0>
0.314433

>  <SCORE.INTRA.SOLV>
-6.09935

>  <SCORE.INTRA.SOLV.lig_0>
-103.824

>  <SCORE.INTRA.VDW>
1.20281

>  <SCORE.INTRA.VDW.0>
-5.30945

>  <SCORE.INTRA.norm>
-0.236883

>  <SCORE.RESTR>
0

>  <SCORE.RESTR.CAVITY>
0

>  <SCORE.RESTR.norm>
0

>  <SCORE.SYSTEM>
0

>  <SCORE.SYSTEM.CONST>
0

>  <SCORE.SYSTEM.DIHEDRAL>
0

>  <SCORE.SYSTEM.SOLV>
0

>  <SCORE.SYSTEM.norm>
0

>  <SCORE.heavy>
42

>  <SCORE.norm>
-0.212637

>  <RMSD>
9.594

$$$$
lig.pdb
 OpenBabel11021811513D
libRbt.so/2013.1/901 2013/11/27
 42 45  0  0  0  0  0  0  0  0999 V2000
   -1.4630   18.8801   35.0851 C   0  0  2  0  0  0  0  0  0  0  0  0
   -1.1751   17.6263   34.3906 O   0  0  0  0  0  0  0  0  0  0  0  0
   -0.3437   19.9133   34.6165 C   0  0  2  0  0  0  0  0  0  0  0  0
   -0.4321   20.1384   33.1711 N   0  0  0  0  0  0  0  0  0  0  0  0
    1.0951   19.3510   35.0562 C   0  0  1  0  0  0  0  0  0  0  0  0
    2.1494   20.2558   34.6655 O   0  0  0  0  0  0  0  0  0  0  0  0
    1.0579   19.1496   36.5808 C   0  0  2  0  0  0  0  0  0  0  0  0
    2.2875   18.6614   36.9971 O   0  0  0  0  0  0  0  0  0  0  0  0
   -0.1164   18.1396   36.9673 C   0  0  2  0  0  0  0  0  0  0  0  0
   -1.3912   18.6362   36.5408 O   0  0  0  0  0  0  0  0  0  0  0  0
   -0.2081   17.9229   38.4511 C   0  0  0  0  0  0  0  0  0  0  0  0
    0.9686   17.2242   38.8595 O   0  0  0  0  0  0  0  0  0  0  0  0
   -2.4574   13.3730   34.1947 C   0  0  2  0  0  0  0  0  0  0  0  0
   -3.1290   12.1308   34.5087 N   0  0  0  0  0  0  0  0  0  0  0  0
   -1.6770   13.9043   35.4586 C   0  0  0  0  0  0  0  0  0  0  0  0
   -0.9424   15.2550   35.1450 C   0  0  2  0  0  0  0  0  0  0  0  0
   -0.2396   15.7154   36.3407 N   0  0  0  0  0  0  0  0  0  0  0  0
   -1.9461   16.3974   34.6696 C   0  0  2  0  0  0  0  0  0  0  0  0
   -2.6804   15.8738   33.4015 C   0  0  2  0  0  0  0  0  0  0  0  0
   -3.5969   17.0105   33.0132 O   0  0  0  0  0  0  0  0  0  0  0  0
   -3.4949   14.5093   33.7511 C   0  0  1  0  0  0  0  0  0  0  0  0
   -4.1828   13.8928   32.6158 O   0  0  0  0  0  0  0  0  0  0  0  0
   -4.5614   16.5960   32.1326 C   0  0  1  0  0  0  0  0  0  0  0  0
   -4.9977   17.6550   31.2165 C   0  0  2  0  0  0  0  0  0  0  0  0
   -5.7701   18.5488   31.9521 O   0  0  0  0  0  0  0  0  0  0  0  0
   -5.6429   16.8254   30.0857 C   0  0  2  0  0  0  0  0  0  0  0  0
   -7.0324   17.2187   30.0207 O   0  0  0  0  0  0  0  0  0  0  0  0
   -5.4699   15.4033   30.5069 C   0  0  2  0  0  0  0  0  0  0  0  0
   -4.1938   15.5738   31.2213 O   0  0  0  0  0  0  0  0  0  0  0  0
   -5.2811   14.4465   29.2727 C   0  0  0  0  0  0  0  0  0  0  0  0
   -6.4459   14.3849   28.3960 O   0  0  0  0  0  0  0  0  0  0  0  0
   -7.7726   16.8324   28.8233 C   0  0  2  0  0  0  0  0  0  0  0  0
   -7.0641   17.5140   27.5397 C   0  0  2  0  0  0  0  0  0  0  0  0
   -7.0418   19.0017   27.7213 N   0  0  0  0  0  0  0  0  0  0  0  0
   -7.8827   17.0808   26.2258 C   0  0  1  0  0  0  0  0  0  0  0  0
   -7.8464   15.6230   26.1531 O   0  0  0  0  0  0  0  0  0  0  0  0
   -9.3823   17.6132   26.3354 C   0  0  2  0  0  0  0  0  0  0  0  0
   -9.3364   19.0914   26.3903 O   0  0  0  0  0  0  0  0  0  0  0  0
  -10.0582   16.9582   27.6681 C   0  0  1  0  0  0  0  0  0  0  0  0
   -9.2360   17.3164   28.8807 O   0  0  0  0  0  0  0  0  0  0  0  0
  -11.5281   17.4738   27.8170 C   0  0  0  0  0  0  0  0  0  0  0  0
  -12.4279   16.9844   26.7270 N   0  0  0  0  0  0  0  0  0  0  0  0
  1  3  1  0  0  0  0
  1  2  1  6  0  0  0
  3  4  1  6  0  0  0
  3  5  1  0  0  0  0
  5  6  1  1  0  0  0
  7  8  1  6  0  0  0
  7  5  1  0  0  0  0
  9 11  1  1  0  0  0
  9  7  1  0  0  0  0
 10  9  1  0  0  0  0
 10  1  1  0  0  0  0
 12 11  1  0  0  0  0
 13 14  1  1  0  0  0
 15 13  1  0  0  0  0
 16 17  1  1  0  0  0
 16 15  1  0  0  0  0
 18  2  1  6  0  0  0
 18 19  1  0  0  0  0
 18 16  1  0  0  0  0
 19 20  1  1  0  0  0
 19 21  1  0  0  0  0
 21 22  1  6  0  0  0
 21 13  1  0  0  0  0
 23 20  1  6  0  0  0
 23 29  1  0  0  0  0
 24 25  1  1  0  0  0
 24 26  1  0  0  0  0
 24 23  1  0  0  0  0
 26 27  1  1  0  0  0
 26 28  1  0  0  0  0
 28 30  1  6  0  0  0
 29 28  1  0  0  0  0
 30 31  1  0  0  0  0
 32 27  1  1  0  0  0
 32 40  1  0  0  0  0
 33 35  1  0  0  0  0
 33 32  1  0  0  0  0
 33 34  1  1  0  0  0
 35 36  1  1  0  0  0
 35 37  1  0  0  0  0
 37 38  1  1  0  0  0
 37 39  1  0  0  0  0
 39 41  1  1  0  0  0
 40 39  1  0  0  0  0
 41 42  1  0  0  0  0
M  END
>  <CHROM.1>
174.75561301,-67.30296195,-122.04514088,-164.20526998,-149.91761546,164.91218892
-64.13671918,-60.66770672,66.63482860,-4.06692789,16.96507788,32.13427535
-0.12970002,-0.75955792,-0.26765806

>  <Name>
lig.pdb

>  <RI>
0

>  <Rbt.Current_Directory>
/home/itssahil/PROJECTS/Mol_Feturizer/New_Systems/rnas/4wcr

>  <Rbt.Executable>
rbdock ($Id: //depot/dev/client3/rdock/2013.1/src/exe/rbdock.cxx#4 $)

>  <Rbt.Library>
libRbt.so (2013.1, Build901 2013/11/27)

>  <Rbt.Parameter_File>
/export/apps/rDock/src/rDock_2013.1_src/data/scripts/dock_solv.prm

>  <Rbt.Receptor>
prm/blind_docking_60.prm

>  <SCORE>
0.0349806

>  <SCORE.INTER>
-10.8398

>  <SCORE.INTER.CONST>
1

>  <SCORE.INTER.POLAR>
0

>  <SCORE.INTER.ROT>
9

>  <SCORE.INTER.SOLV>
30.8642

>  <SCORE.INTER.VDW>
-27.1146

>  <SCORE.INTER.norm>
-0.258089

>  <SCORE.INTRA>
6.8572

>  <SCORE.INTRA.DIHEDRAL>
-2.2415

>  <SCORE.INTRA.DIHEDRAL.0>
16.2863

>  <SCORE.INTRA.POLAR>
0

>  <SCORE.INTRA.POLAR.0>
0

>  <SCORE.INTRA.REPUL>
-0.314433

>  <SCORE.INTRA.REPUL.0>
0.314433

>  <SCORE.INTRA.SOLV>
0.928124

>  <SCORE.INTRA.SOLV.lig_0>
-103.824

>  <SCORE.INTRA.VDW>
9.08605

>  <SCORE.INTRA.VDW.0>
-5.30945

>  <SCORE.INTRA.norm>
0.163267

>  <SCORE.RESTR>
4.01754

>  <SCORE.RESTR.CAVITY>
4.01754

>  <SCORE.RESTR.norm>
0.0956557

>  <SCORE.SYSTEM>
0

>  <SCORE.SYSTEM.CONST>
0

>  <SCORE.SYSTEM.DIHEDRAL>
0

>  <SCORE.SYSTEM.SOLV>
0

>  <SCORE.SYSTEM.norm>
0

>  <SCORE.heavy>
42

>  <SCORE.norm>
0.000832872

>  <RMSD>
9.604

$$$$
lig.pdb
 OpenBabel11021811513D
libRbt.so/2013.1/901 2013/11/27
 42 45  0  0  0  0  0  0  0  0999 V2000
   -2.6495    8.0786   32.7711 C   0  0  2  0  0  0  0  0  0  0  0  0
   -3.0606    8.4077   34.1349 O   0  0  0  0  0  0  0  0  0  0  0  0
   -3.9925    7.9455   31.9234 C   0  0  2  0  0  0  0  0  0  0  0  0
   -4.7134    9.2213   31.9086 N   0  0  0  0  0  0  0  0  0  0  0  0
   -4.8774    6.7556   32.5406 C   0  0  1  0  0  0  0  0  0  0  0  0
   -6.1050    6.5825   31.8019 O   0  0  0  0  0  0  0  0  0  0  0  0
   -4.0134    5.4832   32.5090 C   0  0  2  0  0  0  0  0  0  0  0  0
   -4.7471    4.4318   33.0380 O   0  0  0  0  0  0  0  0  0  0  0  0
   -2.6712    5.7166   33.3411 C   0  0  2  0  0  0  0  0  0  0  0  0
   -1.9064    6.8016   32.8013 O   0  0  0  0  0  0  0  0  0  0  0  0
   -1.7807    4.5066   33.3257 C   0  0  0  0  0  0  0  0  0  0  0  0
   -1.3609    4.2959   31.9770 O   0  0  0  0  0  0  0  0  0  0  0  0
   -0.5868    9.7173   37.5899 C   0  0  2  0  0  0  0  0  0  0  0  0
    0.2974   10.5086   38.4177 N   0  0  0  0  0  0  0  0  0  0  0  0
    0.0966    9.4117   36.2013 C   0  0  0  0  0  0  0  0  0  0  0  0
   -0.8452    8.5571   35.2819 C   0  0  2  0  0  0  0  0  0  0  0  0
   -0.1792    8.3028   34.0061 N   0  0  0  0  0  0  0  0  0  0  0  0
   -2.2368    9.2789   34.9978 C   0  0  2  0  0  0  0  0  0  0  0  0
   -2.9153    9.5398   36.3738 C   0  0  2  0  0  0  0  0  0  0  0  0
   -4.2210   10.2111   36.0171 O   0  0  0  0  0  0  0  0  0  0  0  0
   -1.9627   10.4822   37.2966 C   0  0  1  0  0  0  0  0  0  0  0  0
   -2.4757   10.7505   38.6409 O   0  0  0  0  0  0  0  0  0  0  0  0
   -4.8548   10.6947   37.1315 C   0  0  1  0  0  0  0  0  0  0  0  0
   -6.2495   11.0734   36.8816 C   0  0  2  0  0  0  0  0  0  0  0  0
   -6.2340   12.2480   36.1355 O   0  0  0  0  0  0  0  0  0  0  0  0
   -6.8203   11.0769   38.3160 C   0  0  2  0  0  0  0  0  0  0  0  0
   -7.2781   12.4225   38.5792 O   0  0  0  0  0  0  0  0  0  0  0  0
   -5.6727   10.6824   39.1862 C   0  0  2  0  0  0  0  0  0  0  0  0
   -5.0009    9.7977   38.2199 O   0  0  0  0  0  0  0  0  0  0  0  0
   -6.1459    9.8608   40.4414 C   0  0  0  0  0  0  0  0  0  0  0  0
   -5.0971    9.6526   41.4342 O   0  0  0  0  0  0  0  0  0  0  0  0
   -6.2616   13.4085   38.9335 C   0  0  2  0  0  0  0  0  0  0  0  0
   -6.9598   14.5725   39.8119 C   0  0  2  0  0  0  0  0  0  0  0  0
   -8.0745   15.1862   39.0198 N   0  0  0  0  0  0  0  0  0  0  0  0
   -5.8335   15.6515   40.2009 C   0  0  1  0  0  0  0  0  0  0  0  0
   -4.8017   14.9481   40.9573 O   0  0  0  0  0  0  0  0  0  0  0  0
   -5.2325   16.2941   38.8704 C   0  0  2  0  0  0  0  0  0  0  0  0
   -6.3303   16.9973   38.1699 O   0  0  0  0  0  0  0  0  0  0  0  0
   -4.5852   15.0945   37.9738 C   0  0  1  0  0  0  0  0  0  0  0  0
   -5.6396   14.0570   37.6798 O   0  0  0  0  0  0  0  0  0  0  0  0
   -4.0001   15.6880   36.6494 C   0  0  0  0  0  0  0  0  0  0  0  0
   -2.8623   16.6291   36.8881 N   0  0  0  0  0  0  0  0  0  0  0  0
  1  3  1  0  0  0  0
  1  2  1  1  0  0  0
  3  4  1  1  0  0  0
  3  5  1  0  0  0  0
  5  6  1  6  0  0  0
  7  8  1  1  0  0  0
  7  5  1  0  0  0  0
  9 11  1  6  0  0  0
  9  7  1  0  0  0  0
 10  9  1  0  0  0  0
 10  1  1  0  0  0  0
 12 11  1  0  0  0  0
 13 14  1  1  0  0  0
 15 13  1  0  0  0  0
 16 17  1  6  0  0  0
 16 15  1  0  0  0  0
 18  2  1  6  0  0  0
 18 19  1  0  0  0  0
 18 16  1  0  0  0  0
 19 20  1  6  0  0  0
 19 21  1  0  0  0  0
 21 22  1  1  0  0  0
 21 13  1  0  0  0  0
 23 20  1  6  0  0  0
 23 29  1  0  0  0  0
 24 25  1  1  0  0  0
 24 26  1  0  0  0  0
 24 23  1  0  0  0  0
 26 27  1  1  0  0  0
 26 28  1  0  0  0  0
 28 30  1  1  0  0  0
 29 28  1  0  0  0  0
 30 31  1  0  0  0  0
 32 27  1  6  0  0  0
 32 40  1  0  0  0  0
 33 35  1  0  0  0  0
 33 32  1  0  0  0  0
 33 34  1  6  0  0  0
 35 36  1  6  0  0  0
 35 37  1  0  0  0  0
 37 38  1  6  0  0  0
 37 39  1  0  0  0  0
 39 41  1  6  0  0  0
 40 39  1  0  0  0  0
 41 42  1  0  0  0  0
M  END
>  <CHROM.1>
-146.66560668,64.50476497,-64.30705345,-170.71581130,-166.75440462,-79.14172928
-170.01961661,-154.34217519,64.18121409,-4.08868844,10.48146086,36.38949977
1.28632620,0.17355727,-2.45574192

>  <Name>
lig.pdb

>  <RI>
0

>  <Rbt.Current_Directory>
/home/itssahil/PROJECTS/Mol_Feturizer/New_Systems/rnas/4wcr

>  <Rbt.Executable>
rbdock ($Id: //depot/dev/client3/rdock/2013.1/src/exe/rbdock.cxx#4 $)

>  <Rbt.Library>
libRbt.so (2013.1, Build901 2013/11/27)

>  <Rbt.Parameter_File>
/export/apps/rDock/src/rDock_2013.1_src/data/scripts/dock_solv.prm

>  <Rbt.Receptor>
prm/pocket_docking_5.prm

>  <SCORE>
2.40612

>  <SCORE.INTER>
3.76852

>  <SCORE.INTER.CONST>
1

>  <SCORE.INTER.POLAR>
0

>  <SCORE.INTER.ROT>
9

>  <SCORE.INTER.SOLV>
14.9423

>  <SCORE.INTER.VDW>
-12.0684

>  <SCORE.INTER.norm>
0.0897267

>  <SCORE.INTRA>
-1.3624

>  <SCORE.INTRA.DIHEDRAL>
-5.37626

>  <SCORE.INTRA.DIHEDRAL.0>
16.2863

>  <SCORE.INTRA.POLAR>
0

>  <SCORE.INTRA.POLAR.0>
0

>  <SCORE.INTRA.REPUL>
-0.314433

>  <SCORE.INTRA.REPUL.0>
0.314433

>  <SCORE.INTRA.SOLV>
-1.98647

>  <SCORE.INTRA.SOLV.lig_0>
-103.824

>  <SCORE.INTRA.VDW>
3.89113

>  <SCORE.INTRA.VDW.0>
-5.30945

>  <SCORE.INTRA.norm>
-0.032438

>  <SCORE.RESTR>
0

>  <SCORE.RESTR.CAVITY>
0

>  <SCORE.RESTR.norm>
0

>  <SCORE.SYSTEM>
0

>  <SCORE.SYSTEM.CONST>
0

>  <SCORE.SYSTEM.DIHEDRAL>
0

>  <SCORE.SYSTEM.SOLV>
0

>  <SCORE.SYSTEM.norm>
0

>  <SCORE.heavy>
42

>  <SCORE.norm>
0.0572886

>  <RMSD>
9.610

$$$$
lig.pdb
 OpenBabel11021811513D
libRbt.so/2013.1/901 2013/11/27
 42 45  0  0  0  0  0  0  0  0999 V2000
   -2.5223    5.6955   32.9290 C   0  0  2  0  0  0  0  0  0  0  0  0
   -2.7484    7.1147   33.1973 O   0  0  0  0  0  0  0  0  0  0  0  0
   -3.8589    4.9440   33.3638 C   0  0  2  0  0  0  0  0  0  0  0  0
   -4.9894    5.4073   32.5545 N   0  0  0  0  0  0  0  0  0  0  0  0
   -4.0984    5.1825   34.9340 C   0  0  1  0  0  0  0  0  0  0  0  0
   -5.2939    4.5123   35.3860 O   0  0  0  0  0  0  0  0  0  0  0  0
   -2.8485    4.6672   35.6678 C   0  0  2  0  0  0  0  0  0  0  0  0
   -3.0197    4.8593   37.0307 O   0  0  0  0  0  0  0  0  0  0  0  0
   -1.5530    5.4378   35.1423 C   0  0  2  0  0  0  0  0  0  0  0  0
   -1.3682    5.2447   33.7344 O   0  0  0  0  0  0  0  0  0  0  0  0
   -0.2990    4.9570   35.8157 C   0  0  0  0  0  0  0  0  0  0  0  0
   -0.1849    3.5553   35.5667 O   0  0  0  0  0  0  0  0  0  0  0  0
   -4.7252   10.3293   30.8454 C   0  0  2  0  0  0  0  0  0  0  0  0
   -5.7179   11.0507   30.0792 N   0  0  0  0  0  0  0  0  0  0  0  0
   -4.4362    8.9286   30.1795 C   0  0  0  0  0  0  0  0  0  0  0  0
   -3.3644    8.1234   30.9952 C   0  0  2  0  0  0  0  0  0  0  0  0
   -3.1315    6.8327   30.3506 N   0  0  0  0  0  0  0  0  0  0  0  0
   -3.8119    7.8691   32.5030 C   0  0  2  0  0  0  0  0  0  0  0  0
   -4.0568    9.2599   33.1568 C   0  0  2  0  0  0  0  0  0  0  0  0
   -4.4640    8.9319   34.5743 O   0  0  0  0  0  0  0  0  0  0  0  0
   -5.2171   10.0620   32.3457 C   0  0  1  0  0  0  0  0  0  0  0  0
   -5.4952   11.4114   32.8394 O   0  0  0  0  0  0  0  0  0  0  0  0
   -4.7093   10.0684   35.2992 C   0  0  1  0  0  0  0  0  0  0  0  0
   -4.6690    9.8466   36.7485 C   0  0  2  0  0  0  0  0  0  0  0  0
   -5.8168    9.1389   37.0927 O   0  0  0  0  0  0  0  0  0  0  0  0
   -4.4652   11.2866   37.2661 C   0  0  2  0  0  0  0  0  0  0  0  0
   -5.6094   11.5986   38.0925 O   0  0  0  0  0  0  0  0  0  0  0  0
   -4.4007   12.1307   36.0360 C   0  0  2  0  0  0  0  0  0  0  0  0
   -3.7791   11.1287   35.1542 O   0  0  0  0  0  0  0  0  0  0  0  0
   -3.4419   13.3638   36.2223 C   0  0  0  0  0  0  0  0  0  0  0  0
   -3.8723   14.2875   37.2667 O   0  0  0  0  0  0  0  0  0  0  0  0
   -5.6209   11.0415   39.4418 C   0  0  2  0  0  0  0  0  0  0  0  0
   -7.0065   11.4644   40.1598 C   0  0  2  0  0  0  0  0  0  0  0  0
   -7.1165   12.9592   40.1766 N   0  0  0  0  0  0  0  0  0  0  0  0
   -7.0127   10.8442   41.6428 C   0  0  1  0  0  0  0  0  0  0  0  0
   -6.8938    9.3954   41.5077 O   0  0  0  0  0  0  0  0  0  0  0  0
   -5.7917   11.4456   42.4745 C   0  0  2  0  0  0  0  0  0  0  0  0
   -5.9906   12.9083   42.5796 O   0  0  0  0  0  0  0  0  0  0  0  0
   -4.4089   11.0560   41.7012 C   0  0  1  0  0  0  0  0  0  0  0  0
   -4.4524   11.5848   40.2894 O   0  0  0  0  0  0  0  0  0  0  0  0
   -3.1881   11.6464   42.4820 C   0  0  0  0  0  0  0  0  0  0  0  0
   -1.8753   11.2991   41.8551 N   0  0  0  0  0  0  0  0  0  0  0  0
  1  3  1  0  0  0  0
  1  2  1  1  0  0  0
  3  4  1  6  0  0  0
  3  5  1  0  0  0  0
  5  6  1  1  0  0  0
  7  8  1  1  0  0  0
  7  5  1  0  0  0  0
  9 11  1  1  0  0  0
  9  7  1  0  0  0  0
 10  9  1  0  0  0  0
 10  1  1  0  0  0  0
 12 11  1  0  0  0  0
 13 14  1  6  0  0  0
 15 13  1  0  0  0  0
 16 17  1  6  0  0  0
 16 15  1  0  0  0  0
 18  2  1  1  0  0  0
 18 19  1  0  0  0  0
 18 16  1  0  0  0  0
 19 20  1  1  0  0  0
 19 21  1  0  0  0  0
 21 22  1  1  0  0  0
 21 13  1  0  0  0  0
 23 20  1  6  0  0  0
 23 29  1  0  0  0  0
 24 25  1  1  0  0  0
 24 26  1  0  0  0  0
 24 23  1  0  0  0  0
 26 27  1  1  0  0  0
 26 28  1  0  0  0  0
 28 30  1  1  0  0  0
 29 28  1  0  0  0  0
 30 31  1  0  0  0  0
 32 27  1  6  0  0  0
 32 40  1  0  0  0  0
 33 35  1  0  0  0  0
 33 32  1  0  0  0  0
 33 34  1  1  0  0  0
 35 36  1  6  0  0  0
 35 37  1  0  0  0  0
 37 38  1  6  0  0  0
 37 39  1  0  0  0  0
 39 41  1  1  0  0  0
 40 39  1  0  0  0  0
 41 42  1  0  0  0  0
M  END
>  <CHROM.1>
-62.43135998,58.23629541,-73.38125740,179.51921291,-160.91709334,77.99602428
-62.41592741,-177.77981703,178.39451648,-4.21497184,9.11360098,36.14634927
-0.97986633,-1.18770482,1.54986328

>  <Name>
lig.pdb

>  <RI>
0

>  <Rbt.Current_Directory>
/home/itssahil/PROJECTS/Mol_Feturizer/New_Systems/rnas/4wcr

>  <Rbt.Executable>
rbdock ($Id: //depot/dev/client3/rdock/2013.1/src/exe/rbdock.cxx#4 $)

>  <Rbt.Library>
libRbt.so (2013.1, Build901 2013/11/27)

>  <Rbt.Parameter_File>
/export/apps/rDock/src/rDock_2013.1_src/data/scripts/dock_solv.prm

>  <Rbt.Receptor>
prm/pocket_docking_7.prm

>  <SCORE>
-2.71644

>  <SCORE.INTER>
2.96891

>  <SCORE.INTER.CONST>
1

>  <SCORE.INTER.POLAR>
0

>  <SCORE.INTER.ROT>
9

>  <SCORE.INTER.SOLV>
19.5435

>  <SCORE.INTER.VDW>
-14.1352

>  <SCORE.INTER.norm>
0.0706883

>  <SCORE.INTRA>
-5.68535

>  <SCORE.INTRA.DIHEDRAL>
-11.7066

>  <SCORE.INTRA.DIHEDRAL.0>
16.2863

>  <SCORE.INTRA.POLAR>
0

>  <SCORE.INTRA.POLAR.0>
0

>  <SCORE.INTRA.REPUL>
-0.314433

>  <SCORE.INTRA.REPUL.0>
0.314433

>  <SCORE.INTRA.SOLV>
-1.0353

>  <SCORE.INTRA.SOLV.lig_0>
-103.824

>  <SCORE.INTRA.VDW>
2.25775

>  <SCORE.INTRA.VDW.0>
-5.30945

>  <SCORE.INTRA.norm>
-0.135366

>  <SCORE.RESTR>
0

>  <SCORE.RESTR.CAVITY>
0

>  <SCORE.RESTR.norm>
0

>  <SCORE.SYSTEM>
0

>  <SCORE.SYSTEM.CONST>
0

>  <SCORE.SYSTEM.DIHEDRAL>
0

>  <SCORE.SYSTEM.SOLV>
0

>  <SCORE.SYSTEM.norm>
0

>  <SCORE.heavy>
42

>  <SCORE.norm>
-0.0646772

>  <RMSD>
9.617

$$$$
lig.pdb
 OpenBabel11021811513D
libRbt.so/2013.1/901 2013/11/27
 42 45  0  0  0  0  0  0  0  0999 V2000
   -3.7136   16.6975   35.9346 C   0  0  2  0  0  0  0  0  0  0  0  0
   -2.5927   17.6237   36.0867 O   0  0  0  0  0  0  0  0  0  0  0  0
   -3.4500   15.5101   36.9644 C   0  0  2  0  0  0  0  0  0  0  0  0
   -3.4375   16.0210   38.3379 N   0  0  0  0  0  0  0  0  0  0  0  0
   -2.0713   14.7843   36.5744 C   0  0  1  0  0  0  0  0  0  0  0  0
   -1.7874   13.6895   37.4708 O   0  0  0  0  0  0  0  0  0  0  0  0
   -2.2061   14.3043   35.1192 C   0  0  2  0  0  0  0  0  0  0  0  0
   -1.0292   13.6722   34.7464 O   0  0  0  0  0  0  0  0  0  0  0  0
   -2.5134   15.5455   34.1635 C   0  0  2  0  0  0  0  0  0  0  0  0
   -3.7283   16.2049   34.5415 O   0  0  0  0  0  0  0  0  0  0  0  0
   -2.6736   15.1268   32.7295 C   0  0  0  0  0  0  0  0  0  0  0  0
   -3.6302   14.0671   32.6928 O   0  0  0  0  0  0  0  0  0  0  0  0
   -0.8706   20.7485   33.4330 C   0  0  2  0  0  0  0  0  0  0  0  0
   -0.1525   21.3753   32.3447 N   0  0  0  0  0  0  0  0  0  0  0  0
    0.0831   19.7707   34.2224 C   0  0  0  0  0  0  0  0  0  0  0  0
   -0.6741   19.0739   35.4070 C   0  0  2  0  0  0  0  0  0  0  0  0
    0.2405   18.1736   36.1062 N   0  0  0  0  0  0  0  0  0  0  0  0
   -1.9376   18.2380   34.9138 C   0  0  2  0  0  0  0  0  0  0  0  0
   -2.8858   19.2228   34.1703 C   0  0  2  0  0  0  0  0  0  0  0  0
   -4.0520   18.3600   33.7479 O   0  0  0  0  0  0  0  0  0  0  0  0
   -2.1148   19.8911   32.9029 C   0  0  1  0  0  0  0  0  0  0  0  0
   -2.8945   20.8805   32.1576 O   0  0  0  0  0  0  0  0  0  0  0  0
   -4.4572   18.6572   32.4732 C   0  0  1  0  0  0  0  0  0  0  0  0
   -5.4578   17.7189   31.9539 C   0  0  2  0  0  0  0  0  0  0  0  0
   -4.8027   16.5218   31.6810 O   0  0  0  0  0  0  0  0  0  0  0  0
   -6.0719   18.5433   30.8022 C   0  0  2  0  0  0  0  0  0  0  0  0
   -5.8282   17.8041   29.5841 O   0  0  0  0  0  0  0  0  0  0  0  0
   -5.3458   19.8477   30.8349 C   0  0  2  0  0  0  0  0  0  0  0  0
   -5.1176   19.8983   32.2886 O   0  0  0  0  0  0  0  0  0  0  0  0
   -6.2666   21.0411   30.3849 C   0  0  0  0  0  0  0  0  0  0  0  0
   -7.0546   20.7545   29.1907 O   0  0  0  0  0  0  0  0  0  0  0  0
   -6.8097   16.7860   29.2220 C   0  0  2  0  0  0  0  0  0  0  0  0
   -6.1297   15.7713   28.1628 C   0  0  2  0  0  0  0  0  0  0  0  0
   -5.6673   16.5457   26.9656 N   0  0  0  0  0  0  0  0  0  0  0  0
   -7.2153   14.6519   27.7723 C   0  0  1  0  0  0  0  0  0  0  0  0
   -7.5982   13.9701   29.0053 O   0  0  0  0  0  0  0  0  0  0  0  0
   -8.4751   15.3506   27.0874 C   0  0  2  0  0  0  0  0  0  0  0  0
   -8.0110   16.0046   25.8436 O   0  0  0  0  0  0  0  0  0  0  0  0
   -9.1097   16.4110   28.1527 C   0  0  1  0  0  0  0  0  0  0  0  0
   -8.0561   17.4098   28.5613 O   0  0  0  0  0  0  0  0  0  0  0  0
  -10.3404   17.1295   27.5061 C   0  0  0  0  0  0  0  0  0  0  0  0
  -10.8791   18.2358   28.3565 N   0  0  0  0  0  0  0  0  0  0  0  0
  1  3  1  0  0  0  0
  1  2  1  6  0  0  0
  3  4  1  1  0  0  0
  3  5  1  0  0  0  0
  5  6  1  1  0  0  0
  7  8  1  6  0  0  0
  7  5  1  0  0  0  0
  9 11  1  6  0  0  0
  9  7  1  0  0  0  0
 10  9  1  0  0  0  0
 10  1  1  0  0  0  0
 12 11  1  0  0  0  0
 13 14  1  6  0  0  0
 15 13  1  0  0  0  0
 16 17  1  6  0  0  0
 16 15  1  0  0  0  0
 18  2  1  1  0  0  0
 18 19  1  0  0  0  0
 18 16  1  0  0  0  0
 19 20  1  6  0  0  0
 19 21  1  0  0  0  0
 21 22  1  1  0  0  0
 21 13  1  0  0  0  0
 23 20  1  1  0  0  0
 23 29  1  0  0  0  0
 24 25  1  6  0  0  0
 24 26  1  0  0  0  0
 24 23  1  0  0  0  0
 26 27  1  6  0  0  0
 26 28  1  0  0  0  0
 28 30  1  1  0  0  0
 29 28  1  0  0  0  0
 30 31  1  0  0  0  0
 32 27  1  6  0  0  0
 32 40  1  0  0  0  0
 33 35  1  0  0  0  0
 33 32  1  0  0  0  0
 33 34  1  6  0  0  0
 35 36  1  1  0  0  0
 35 37  1  0  0  0  0
 37 38  1  6  0  0  0
 37 39  1  0  0  0  0
 39 41  1  6  0  0  0
 40 39  1  0  0  0  0
 41 42  1  0  0  0  0
M  END
>  <CHROM.1>
137.51890038,51.81011575,-174.46358844,-138.20287665,171.82309654,86.61655245
-44.99932542,-161.14334618,-173.06138166,-4.46534417,17.31750855,32.13988798
0.26087303,0.84716798,2.79300702

>  <Name>
lig.pdb

>  <RI>
0

>  <Rbt.Current_Directory>
/home/itssahil/PROJECTS/Mol_Feturizer/New_Systems/rnas/4wcr

>  <Rbt.Executable>
rbdock ($Id: //depot/dev/client3/rdock/2013.1/src/exe/rbdock.cxx#4 $)

>  <Rbt.Library>
libRbt.so (2013.1, Build901 2013/11/27)

>  <Rbt.Parameter_File>
/export/apps/rDock/src/rDock_2013.1_src/data/scripts/dock_solv.prm

>  <Rbt.Receptor>
prm/blind_docking_60.prm

>  <SCORE>
5.30524

>  <SCORE.INTER>
-5.39998

>  <SCORE.INTER.CONST>
1

>  <SCORE.INTER.POLAR>
0

>  <SCORE.INTER.ROT>
9

>  <SCORE.INTER.SOLV>
28.1869

>  <SCORE.INTER.VDW>
-22.5956

>  <SCORE.INTER.norm>
-0.128571

>  <SCORE.INTRA>
4.63708

>  <SCORE.INTRA.DIHEDRAL>
1.71223

>  <SCORE.INTRA.DIHEDRAL.0>
16.2863

>  <SCORE.INTRA.POLAR>
0

>  <SCORE.INTRA.POLAR.0>
0

>  <SCORE.INTRA.REPUL>
-0.314433

>  <SCORE.INTRA.REPUL.0>
0.314433

>  <SCORE.INTRA.SOLV>
-3.42963

>  <SCORE.INTRA.SOLV.lig_0>
-103.824

>  <SCORE.INTRA.VDW>
7.06795

>  <SCORE.INTRA.VDW.0>
-5.30945

>  <SCORE.INTRA.norm>
0.110407

>  <SCORE.RESTR>
6.06814

>  <SCORE.RESTR.CAVITY>
6.06814

>  <SCORE.RESTR.norm>
0.14448

>  <SCORE.SYSTEM>
0

>  <SCORE.SYSTEM.CONST>
0

>  <SCORE.SYSTEM.DIHEDRAL>
0

>  <SCORE.SYSTEM.SOLV>
0

>  <SCORE.SYSTEM.norm>
0

>  <SCORE.heavy>
42

>  <SCORE.norm>
0.126315

>  <RMSD>
9.646

$$$$
lig.pdb
 OpenBabel11021811513D
libRbt.so/2013.1/901 2013/11/27
 42 45  0  0  0  0  0  0  0  0999 V2000
   -4.1849    7.5719   36.9258 C   0  0  2  0  0  0  0  0  0  0  0  0
   -3.0888    8.4655   37.2964 O   0  0  0  0  0  0  0  0  0  0  0  0
   -4.1452    7.4575   35.3367 C   0  0  2  0  0  0  0  0  0  0  0  0
   -2.8784    6.8635   34.9007 N   0  0  0  0  0  0  0  0  0  0  0  0
   -4.3795    8.9167   34.7075 C   0  0  1  0  0  0  0  0  0  0  0  0
   -4.3645    8.8704   33.2652 O   0  0  0  0  0  0  0  0  0  0  0  0
   -5.7262    9.4318   35.2436 C   0  0  2  0  0  0  0  0  0  0  0  0
   -5.9614   10.6948   34.7209 O   0  0  0  0  0  0  0  0  0  0  0  0
   -5.6967    9.4722   36.8392 C   0  0  2  0  0  0  0  0  0  0  0  0
   -5.4542    8.1709   37.3882 O   0  0  0  0  0  0  0  0  0  0  0  0
   -6.9989    9.9517   37.4152 C   0  0  0  0  0  0  0  0  0  0  0  0
   -8.0167    9.0396   37.0008 O   0  0  0  0  0  0  0  0  0  0  0  0
    1.0492    7.6496   38.7050 C   0  0  2  0  0  0  0  0  0  0  0  0
    2.3999    7.1340   38.7572 N   0  0  0  0  0  0  0  0  0  0  0  0
    0.0198    6.4639   38.5519 C   0  0  0  0  0  0  0  0  0  0  0  0
   -1.4545    6.9978   38.4885 C   0  0  2  0  0  0  0  0  0  0  0  0
   -2.3736    5.8713   38.3398 N   0  0  0  0  0  0  0  0  0  0  0  0
   -1.6840    8.0087   37.2787 C   0  0  2  0  0  0  0  0  0  0  0  0
   -0.6884    9.1902   37.4639 C   0  0  2  0  0  0  0  0  0  0  0  0
   -0.9761   10.0992   36.2919 O   0  0  0  0  0  0  0  0  0  0  0  0
    0.8418    8.6368   37.4614 C   0  0  1  0  0  0  0  0  0  0  0  0
    1.8675    9.6568   37.6845 O   0  0  0  0  0  0  0  0  0  0  0  0
   -1.6932   11.2008   36.6784 C   0  0  1  0  0  0  0  0  0  0  0  0
   -1.2489   12.4357   36.0236 C   0  0  2  0  0  0  0  0  0  0  0  0
   -0.0252   12.7870   36.5856 O   0  0  0  0  0  0  0  0  0  0  0  0
   -2.4814   13.3427   36.2274 C   0  0  2  0  0  0  0  0  0  0  0  0
   -2.0406   14.4755   37.0098 O   0  0  0  0  0  0  0  0  0  0  0  0
   -3.4672   12.4916   36.9579 C   0  0  2  0  0  0  0  0  0  0  0  0
   -3.0761   11.2019   36.3650 O   0  0  0  0  0  0  0  0  0  0  0  0
   -4.9490   12.8456   36.5663 C   0  0  0  0  0  0  0  0  0  0  0  0
   -5.3122   14.2317   36.8421 O   0  0  0  0  0  0  0  0  0  0  0  0
   -1.2441   15.4852   36.3191 C   0  0  2  0  0  0  0  0  0  0  0  0
   -0.8073   16.6151   37.3899 C   0  0  2  0  0  0  0  0  0  0  0  0
   -2.0365   17.2079   38.0099 N   0  0  0  0  0  0  0  0  0  0  0  0
    0.0721   17.7204   36.6225 C   0  0  1  0  0  0  0  0  0  0  0  0
    1.2303   17.0361   36.0553 O   0  0  0  0  0  0  0  0  0  0  0  0
   -0.8096   18.4002   35.4801 C   0  0  2  0  0  0  0  0  0  0  0  0
   -1.9502   19.0816   36.1320 O   0  0  0  0  0  0  0  0  0  0  0  0
   -1.2866   17.2336   34.4441 C   0  0  1  0  0  0  0  0  0  0  0  0
   -2.0482   16.1703   35.1952 O   0  0  0  0  0  0  0  0  0  0  0  0
   -2.1705   17.8637   33.3171 C   0  0  0  0  0  0  0  0  0  0  0  0
   -3.4453   18.4477   33.8377 N   0  0  0  0  0  0  0  0  0  0  0  0
  1  3  1  0  0  0  0
  1  2  1  6  0  0  0
  3  4  1  1  0  0  0
  3  5  1  0  0  0  0
  5  6  1  6  0  0  0
  7  8  1  6  0  0  0
  7  5  1  0  0  0  0
  9 11  1  1  0  0  0
  9  7  1  0  0  0  0
 10  9  1  0  0  0  0
 10  1  1  0  0  0  0
 12 11  1  0  0  0  0
 13 14  1  6  0  0  0
 15 13  1  0  0  0  0
 16 17  1  6  0  0  0
 16 15  1  0  0  0  0
 18  2  1  1  0  0  0
 18 19  1  0  0  0  0
 18 16  1  0  0  0  0
 19 20  1  6  0  0  0
 19 21  1  0  0  0  0
 21 22  1  1  0  0  0
 21 13  1  0  0  0  0
 23 20  1  6  0  0  0
 23 29  1  0  0  0  0
 24 25  1  1  0  0  0
 24 26  1  0  0  0  0
 24 23  1  0  0  0  0
 26 27  1  1  0  0  0
 26 28  1  0  0  0  0
 28 30  1  6  0  0  0
 29 28  1  0  0  0  0
 30 31  1  0  0  0  0
 32 27  1  1  0  0  0
 32 40  1  0  0  0  0
 33 35  1  0  0  0  0
 33 32  1  0  0  0  0
 33 34  1  6  0  0  0
 35 36  1  6  0  0  0
 35 37  1  0  0  0  0
 37 38  1  1  0  0  0
 37 39  1  0  0  0  0
 39 41  1  6  0  0  0
 40 39  1  0  0  0  0
 41 42  1  0  0  0  0
M  END
>  <CHROM.1>
-75.69050145,60.65853410,-71.50966165,104.14215863,139.58796062,74.91773956
-59.32433590,-177.44863829,-63.99680836,-2.42700929,11.71534266,36.46704483
1.70316421,0.26211968,2.96765045

>  <Name>
lig.pdb

>  <RI>
0

>  <Rbt.Current_Directory>
/home/itssahil/PROJECTS/Mol_Feturizer/New_Systems/rnas/4wcr

>  <Rbt.Executable>
rbdock ($Id: //depot/dev/client3/rdock/2013.1/src/exe/rbdock.cxx#4 $)

>  <Rbt.Library>
libRbt.so (2013.1, Build901 2013/11/27)

>  <Rbt.Parameter_File>
/export/apps/rDock/src/rDock_2013.1_src/data/scripts/dock_solv.prm

>  <Rbt.Receptor>
prm/pocket_docking_6.prm

>  <SCORE>
-4.50698

>  <SCORE.INTER>
-1.73097

>  <SCORE.INTER.CONST>
1

>  <SCORE.INTER.POLAR>
0

>  <SCORE.INTER.ROT>
9

>  <SCORE.INTER.SOLV>
17.9458

>  <SCORE.INTER.VDW>
-16.7359

>  <SCORE.INTER.norm>
-0.0412135

>  <SCORE.INTRA>
-2.77601

>  <SCORE.INTRA.DIHEDRAL>
-1.40417

>  <SCORE.INTRA.DIHEDRAL.0>
16.2863

>  <SCORE.INTRA.POLAR>
0

>  <SCORE.INTRA.POLAR.0>
0

>  <SCORE.INTRA.REPUL>
-0.313107

>  <SCORE.INTRA.REPUL.0>
0.314433

>  <SCORE.INTRA.SOLV>
0.757765

>  <SCORE.INTRA.SOLV.lig_0>
-103.824

>  <SCORE.INTRA.VDW>
-0.88727

>  <SCORE.INTRA.VDW.0>
-5.30945

>  <SCORE.INTRA.norm>
-0.0660955

>  <SCORE.RESTR>
0

>  <SCORE.RESTR.CAVITY>
0

>  <SCORE.RESTR.norm>
0

>  <SCORE.SYSTEM>
0

>  <SCORE.SYSTEM.CONST>
0

>  <SCORE.SYSTEM.DIHEDRAL>
0

>  <SCORE.SYSTEM.SOLV>
0

>  <SCORE.SYSTEM.norm>
0

>  <SCORE.heavy>
42

>  <SCORE.norm>
-0.107309

>  <RMSD>
9.654

$$$$
lig.pdb
 OpenBabel11021811513D
libRbt.so/2013.1/901 2013/11/27
 42 45  0  0  0  0  0  0  0  0999 V2000
   -3.4013    6.5480   33.9307 C   0  0  2  0  0  0  0  0  0  0  0  0
   -4.6806    7.0926   33.4791 O   0  0  0  0  0  0  0  0  0  0  0  0
   -3.3748    5.0270   33.4555 C   0  0  2  0  0  0  0  0  0  0  0  0
   -3.4356    4.9496   31.9934 N   0  0  0  0  0  0  0  0  0  0  0  0
   -4.5908    4.2456   34.1557 C   0  0  1  0  0  0  0  0  0  0  0  0
   -4.6084    2.8555   33.7683 O   0  0  0  0  0  0  0  0  0  0  0  0
   -4.4198    4.4076   35.6759 C   0  0  2  0  0  0  0  0  0  0  0  0
   -5.4569    3.7447   36.3152 O   0  0  0  0  0  0  0  0  0  0  0  0
   -4.4116    5.9570   36.0601 C   0  0  2  0  0  0  0  0  0  0  0  0
   -3.3428    6.6501   35.4038 O   0  0  0  0  0  0  0  0  0  0  0  0
   -4.2277    6.1710   37.5358 C   0  0  0  0  0  0  0  0  0  0  0  0
   -2.9444    5.6544   37.8908 O   0  0  0  0  0  0  0  0  0  0  0  0
   -3.7250   11.4272   33.2126 C   0  0  2  0  0  0  0  0  0  0  0  0
   -3.8528   12.8420   32.9388 N   0  0  0  0  0  0  0  0  0  0  0  0
   -3.9803   10.5934   31.8979 C   0  0  0  0  0  0  0  0  0  0  0  0
   -3.8516    9.0532   32.1695 C   0  0  2  0  0  0  0  0  0  0  0  0
   -4.1018    8.3185   30.9312 N   0  0  0  0  0  0  0  0  0  0  0  0
   -4.8724    8.5441   33.2817 C   0  0  2  0  0  0  0  0  0  0  0  0
   -4.5835    9.3486   34.5820 C   0  0  2  0  0  0  0  0  0  0  0  0
   -5.5783    8.8026   35.5795 O   0  0  0  0  0  0  0  0  0  0  0  0
   -4.7843   10.9403   34.3103 C   0  0  1  0  0  0  0  0  0  0  0  0
   -4.4851   11.8043   35.4531 O   0  0  0  0  0  0  0  0  0  0  0  0
   -5.4189    9.3807   36.8115 C   0  0  1  0  0  0  0  0  0  0  0  0
   -6.4789    9.0190   37.7585 C   0  0  2  0  0  0  0  0  0  0  0  0
   -7.6320    9.6939   37.3692 O   0  0  0  0  0  0  0  0  0  0  0  0
   -5.8043    9.3557   39.1056 C   0  0  2  0  0  0  0  0  0  0  0  0
   -6.6130   10.3763   39.7333 O   0  0  0  0  0  0  0  0  0  0  0  0
   -4.4430    9.8487   38.7402 C   0  0  2  0  0  0  0  0  0  0  0  0
   -4.2585    9.0157   37.5402 O   0  0  0  0  0  0  0  0  0  0  0  0
   -3.3737    9.4771   39.8324 C   0  0  0  0  0  0  0  0  0  0  0  0
   -3.9081    9.4507   41.1899 O   0  0  0  0  0  0  0  0  0  0  0  0
   -6.0661   11.0091   40.9297 C   0  0  2  0  0  0  0  0  0  0  0  0
   -7.2504   11.8301   41.6630 C   0  0  2  0  0  0  0  0  0  0  0  0
   -7.8129   12.8407   40.7096 N   0  0  0  0  0  0  0  0  0  0  0  0
   -6.6411   12.5203   42.9807 C   0  0  1  0  0  0  0  0  0  0  0  0
   -6.1184   11.4522   43.8278 O   0  0  0  0  0  0  0  0  0  0  0  0
   -5.4862   13.5375   42.5610 C   0  0  2  0  0  0  0  0  0  0  0  0
   -6.0942   14.5927   41.7201 O   0  0  0  0  0  0  0  0  0  0  0  0
   -4.3306   12.6976   41.7730 C   0  0  1  0  0  0  0  0  0  0  0  0
   -4.9363   11.9996   40.5811 O   0  0  0  0  0  0  0  0  0  0  0  0
   -3.1870   13.6696   41.3301 C   0  0  0  0  0  0  0  0  0  0  0  0
   -2.0397   12.9597   40.6844 N   0  0  0  0  0  0  0  0  0  0  0  0
  1  3  1  0  0  0  0
  1  2  1  1  0  0  0
  3  4  1  6  0  0  0
  3  5  1  0  0  0  0
  5  6  1  1  0  0  0
  7  8  1  1  0  0  0
  7  5  1  0  0  0  0
  9 11  1  1  0  0  0
  9  7  1  0  0  0  0
 10  9  1  0  0  0  0
 10  1  1  0  0  0  0
 12 11  1  0  0  0  0
 13 14  1  6  0  0  0
 15 13  1  0  0  0  0
 16 17  1  6  0  0  0
 16 15  1  0  0  0  0
 18  2  1  1  0  0  0
 18 19  1  0  0  0  0
 18 16  1  0  0  0  0
 19 20  1  1  0  0  0
 19 21  1  0  0  0  0
 21 22  1  1  0  0  0
 21 13  1  0  0  0  0
 23 20  1  6  0  0  0
 23 29  1  0  0  0  0
 24 25  1  6  0  0  0
 24 26  1  0  0  0  0
 24 23  1  0  0  0  0
 26 27  1  6  0  0  0
 26 28  1  0  0  0  0
 28 30  1  1  0  0  0
 29 28  1  0  0  0  0
 30 31  1  0  0  0  0
 32 27  1  6  0  0  0
 32 40  1  0  0  0  0
 33 35  1  0  0  0  0
 33 32  1  0  0  0  0
 33 34  1  6  0  0  0
 35 36  1  1  0  0  0
 35 37  1  0  0  0  0
 37 38  1  6  0  0  0
 37 39  1  0  0  0  0
 39 41  1  6  0  0  0
 40 39  1  0  0  0  0
 41 42  1  0  0  0  0
M  END
>  <CHROM.1>
-157.06993551,63.06559206,60.73672891,177.66485678,172.01258136,-170.81292190
-32.54490445,-166.28356977,175.90812020,-4.78349983,9.25900944,37.20022778
0.51665248,-1.41694441,3.01598010

>  <Name>
lig.pdb

>  <RI>
0

>  <Rbt.Current_Directory>
/home/itssahil/PROJECTS/Mol_Feturizer/New_Systems/rnas/4wcr

>  <Rbt.Executable>
rbdock ($Id: //depot/dev/client3/rdock/2013.1/src/exe/rbdock.cxx#4 $)

>  <Rbt.Library>
libRbt.so (2013.1, Build901 2013/11/27)

>  <Rbt.Parameter_File>
/export/apps/rDock/src/rDock_2013.1_src/data/scripts/dock_solv.prm

>  <Rbt.Receptor>
prm/pocket_docking_8.prm

>  <SCORE>
-8.76621

>  <SCORE.INTER>
-2.19914

>  <SCORE.INTER.CONST>
1

>  <SCORE.INTER.POLAR>
0

>  <SCORE.INTER.ROT>
9

>  <SCORE.INTER.SOLV>
19.9527

>  <SCORE.INTER.VDW>
-17.717

>  <SCORE.INTER.norm>
-0.0523604

>  <SCORE.INTRA>
-6.56707

>  <SCORE.INTRA.DIHEDRAL>
-9.84573

>  <SCORE.INTRA.DIHEDRAL.0>
16.2863

>  <SCORE.INTRA.POLAR>
0

>  <SCORE.INTRA.POLAR.0>
0

>  <SCORE.INTRA.REPUL>
-0.314433

>  <SCORE.INTRA.REPUL.0>
0.314433

>  <SCORE.INTRA.SOLV>
-1.36937

>  <SCORE.INTRA.SOLV.lig_0>
-103.824

>  <SCORE.INTRA.VDW>
0.612642

>  <SCORE.INTRA.VDW.0>
-5.30945

>  <SCORE.INTRA.norm>
-0.156359

>  <SCORE.RESTR>
0

>  <SCORE.RESTR.CAVITY>
0

>  <SCORE.RESTR.norm>
0

>  <SCORE.SYSTEM>
0

>  <SCORE.SYSTEM.CONST>
0

>  <SCORE.SYSTEM.DIHEDRAL>
0

>  <SCORE.SYSTEM.SOLV>
0

>  <SCORE.SYSTEM.norm>
0

>  <SCORE.heavy>
42

>  <SCORE.norm>
-0.208719

>  <RMSD>
9.658

$$$$
lig.pdb
 OpenBabel11021811513D
libRbt.so/2013.1/901 2013/11/27
 42 45  0  0  0  0  0  0  0  0999 V2000
   -6.7992   15.1154   29.5895 C   0  0  2  0  0  0  0  0  0  0  0  0
   -5.9633   16.3091   29.4730 O   0  0  0  0  0  0  0  0  0  0  0  0
   -6.0562   13.9720   28.7645 C   0  0  2  0  0  0  0  0  0  0  0  0
   -4.7427   13.6927   29.3514 N   0  0  0  0  0  0  0  0  0  0  0  0
   -5.9496   14.4293   27.2285 C   0  0  1  0  0  0  0  0  0  0  0  0
   -5.2927   13.4226   26.4298 O   0  0  0  0  0  0  0  0  0  0  0  0
   -7.3812   14.6990   26.7342 C   0  0  2  0  0  0  0  0  0  0  0  0
   -7.3276   15.0992   25.4073 O   0  0  0  0  0  0  0  0  0  0  0  0
   -8.0670   15.8204   27.6401 C   0  0  2  0  0  0  0  0  0  0  0  0
   -8.1266   15.4152   29.0134 O   0  0  0  0  0  0  0  0  0  0  0  0
   -9.4773   16.1082   27.2097 C   0  0  0  0  0  0  0  0  0  0  0  0
   -9.4194   16.7228   25.9219 O   0  0  0  0  0  0  0  0  0  0  0  0
   -5.8034   20.5651   30.7511 C   0  0  2  0  0  0  0  0  0  0  0  0
   -6.1446   21.8126   31.3995 N   0  0  0  0  0  0  0  0  0  0  0  0
   -7.0247   20.0423   29.9003 C   0  0  0  0  0  0  0  0  0  0  0  0
   -6.6812   18.6861   29.1894 C   0  0  2  0  0  0  0  0  0  0  0  0
   -7.8383   18.2339   28.4197 N   0  0  0  0  0  0  0  0  0  0  0  0
   -6.2754   17.5432   30.2226 C   0  0  2  0  0  0  0  0  0  0  0  0
   -5.0473   18.0582   31.0277 C   0  0  2  0  0  0  0  0  0  0  0  0
   -4.7233   16.9215   31.9688 O   0  0  0  0  0  0  0  0  0  0  0  0
   -5.4312   19.4287   31.8162 C   0  0  1  0  0  0  0  0  0  0  0  0
   -4.3322   20.0376   32.5670 O   0  0  0  0  0  0  0  0  0  0  0  0
   -3.8553   17.3187   32.9517 C   0  0  1  0  0  0  0  0  0  0  0  0
   -3.0986   16.2061   33.5354 C   0  0  2  0  0  0  0  0  0  0  0  0
   -3.9783   15.4764   34.3292 O   0  0  0  0  0  0  0  0  0  0  0  0
   -1.9149   16.9564   34.1828 C   0  0  2  0  0  0  0  0  0  0  0  0
   -1.9759   16.6864   35.6016 O   0  0  0  0  0  0  0  0  0  0  0  0
   -2.1524   18.3956   33.8636 C   0  0  2  0  0  0  0  0  0  0  0  0
   -2.8089   18.1923   32.5614 O   0  0  0  0  0  0  0  0  0  0  0  0
   -0.8039   19.1839   33.6780 C   0  0  0  0  0  0  0  0  0  0  0  0
   -0.0592   19.3704   34.9189 O   0  0  0  0  0  0  0  0  0  0  0  0
   -0.8667   17.1751   36.4151 C   0  0  2  0  0  0  0  0  0  0  0  0
    0.4800   16.4021   35.9643 C   0  0  2  0  0  0  0  0  0  0  0  0
    0.2797   14.9259   36.1300 N   0  0  0  0  0  0  0  0  0  0  0  0
    1.6965   16.9485   36.8617 C   0  0  1  0  0  0  0  0  0  0  0  0
    1.7949   18.3866   36.6299 O   0  0  0  0  0  0  0  0  0  0  0  0
    1.4058   16.6331   38.3981 C   0  0  2  0  0  0  0  0  0  0  0  0
    1.3342   15.1631   38.5542 O   0  0  0  0  0  0  0  0  0  0  0  0
    0.0138   17.3751   38.8149 C   0  0  1  0  0  0  0  0  0  0  0  0
   -1.1006   16.9026   37.9151 O   0  0  0  0  0  0  0  0  0  0  0  0
   -0.3122   17.0721   40.3150 C   0  0  0  0  0  0  0  0  0  0  0  0
    0.6935   17.6545   41.2565 N   0  0  0  0  0  0  0  0  0  0  0  0
  1  3  1  0  0  0  0
  1  2  1  6  0  0  0
  3  4  1  1  0  0  0
  3  5  1  0  0  0  0
  5  6  1  6  0  0  0
  7  8  1  6  0  0  0
  7  5  1  0  0  0  0
  9 11  1  6  0  0  0
  9  7  1  0  0  0  0
 10  9  1  0  0  0  0
 10  1  1  0  0  0  0
 12 11  1  0  0  0  0
 13 14  1  1  0  0  0
 15 13  1  0  0  0  0
 16 17  1  1  0  0  0
 16 15  1  0  0  0  0
 18  2  1  6  0  0  0
 18 19  1  0  0  0  0
 18 16  1  0  0  0  0
 19 20  1  1  0  0  0
 19 21  1  0  0  0  0
 21 22  1  6  0  0  0
 21 13  1  0  0  0  0
 23 20  1  6  0  0  0
 23 29  1  0  0  0  0
 24 25  1  1  0  0  0
 24 26  1  0  0  0  0
 24 23  1  0  0  0  0
 26 27  1  1  0  0  0
 26 28  1  0  0  0  0
 28 30  1  6  0  0  0
 29 28  1  0  0  0  0
 30 31  1  0  0  0  0
 32 27  1  6  0  0  0
 32 40  1  0  0  0  0
 33 35  1  0  0  0  0
 33 32  1  0  0  0  0
 33 34  1  1  0  0  0
 35 36  1  1  0  0  0
 35 37  1  0  0  0  0
 37 38  1  6  0  0  0
 37 39  1  0  0  0  0
 39 41  1  1  0  0  0
 40 39  1  0  0  0  0
 41 42  1  0  0  0  0
M  END
>  <CHROM.1>
-174.14444246,-67.33488555,-113.57403450,-166.55889220,-156.62349884,173.56596528
-70.12828000,-64.57914201,65.10824819,-3.78574508,17.00238413,32.44437855
-2.77545131,-0.86057405,0.37349808

>  <Name>
lig.pdb

>  <RI>
0

>  <Rbt.Current_Directory>
/home/itssahil/PROJECTS/Mol_Feturizer/New_Systems/rnas/4wcr

>  <Rbt.Executable>
rbdock ($Id: //depot/dev/client3/rdock/2013.1/src/exe/rbdock.cxx#4 $)

>  <Rbt.Library>
libRbt.so (2013.1, Build901 2013/11/27)

>  <Rbt.Parameter_File>
/export/apps/rDock/src/rDock_2013.1_src/data/scripts/dock_solv.prm

>  <Rbt.Receptor>
prm/blind_docking_100.prm

>  <SCORE>
-12.0634

>  <SCORE.INTER>
-19.9309

>  <SCORE.INTER.CONST>
1

>  <SCORE.INTER.POLAR>
0

>  <SCORE.INTER.ROT>
9

>  <SCORE.INTER.SOLV>
28.7114

>  <SCORE.INTER.VDW>
-32.4577

>  <SCORE.INTER.norm>
-0.474544

>  <SCORE.INTRA>
1.55856

>  <SCORE.INTRA.DIHEDRAL>
-4.4484

>  <SCORE.INTRA.DIHEDRAL.0>
16.2863

>  <SCORE.INTRA.POLAR>
0

>  <SCORE.INTRA.POLAR.0>
0

>  <SCORE.INTRA.REPUL>
-0.314433

>  <SCORE.INTRA.REPUL.0>
0.314433

>  <SCORE.INTRA.SOLV>
0.58397

>  <SCORE.INTRA.SOLV.lig_0>
-103.824

>  <SCORE.INTRA.VDW>
5.06294

>  <SCORE.INTRA.VDW.0>
-5.30945

>  <SCORE.INTRA.norm>
0.0371085

>  <SCORE.RESTR>
6.30893

>  <SCORE.RESTR.CAVITY>
6.30893

>  <SCORE.RESTR.norm>
0.150213

>  <SCORE.SYSTEM>
0

>  <SCORE.SYSTEM.CONST>
0

>  <SCORE.SYSTEM.DIHEDRAL>
0

>  <SCORE.SYSTEM.SOLV>
0

>  <SCORE.SYSTEM.norm>
0

>  <SCORE.heavy>
42

>  <SCORE.norm>
-0.287223

>  <RMSD>
9.664

$$$$
lig.pdb
 OpenBabel11021811513D
libRbt.so/2013.1/901 2013/11/27
 42 45  0  0  0  0  0  0  0  0999 V2000
   -0.8619    9.3190   35.4002 C   0  0  2  0  0  0  0  0  0  0  0  0
    0.0212    9.4301   34.2405 O   0  0  0  0  0  0  0  0  0  0  0  0
    0.0470    9.6033   36.6781 C   0  0  2  0  0  0  0  0  0  0  0  0
    0.5916   10.9627   36.6229 N   0  0  0  0  0  0  0  0  0  0  0  0
    1.2019    8.4893   36.7491 C   0  0  1  0  0  0  0  0  0  0  0  0
    2.0513    8.6923   37.8979 O   0  0  0  0  0  0  0  0  0  0  0  0
    0.5077    7.1172   36.7935 C   0  0  2  0  0  0  0  0  0  0  0  0
    1.4776    6.1276   36.8535 O   0  0  0  0  0  0  0  0  0  0  0  0
   -0.4152    6.9327   35.5041 C   0  0  2  0  0  0  0  0  0  0  0  0
   -1.4207    7.9514   35.4340 O   0  0  0  0  0  0  0  0  0  0  0  0
   -1.1326    5.6127   35.5084 C   0  0  0  0  0  0  0  0  0  0  0  0
   -1.7900    5.4739   34.2482 O   0  0  0  0  0  0  0  0  0  0  0  0
   -0.5646    9.7794   29.8465 C   0  0  2  0  0  0  0  0  0  0  0  0
   -0.9362    9.4571   28.4860 N   0  0  0  0  0  0  0  0  0  0  0  0
    0.3869    8.6641   30.4293 C   0  0  0  0  0  0  0  0  0  0  0  0
    0.8014    8.9884   31.9076 C   0  0  2  0  0  0  0  0  0  0  0  0
    1.6745    7.9301   32.4112 N   0  0  0  0  0  0  0  0  0  0  0  0
   -0.4559    9.1193   32.8774 C   0  0  2  0  0  0  0  0  0  0  0  0
   -1.3654   10.2476   32.3107 C   0  0  2  0  0  0  0  0  0  0  0  0
   -2.5183   10.3131   33.2851 O   0  0  0  0  0  0  0  0  0  0  0  0
   -1.8462    9.8728   30.8021 C   0  0  1  0  0  0  0  0  0  0  0  0
   -2.6657   10.8915   30.1442 O   0  0  0  0  0  0  0  0  0  0  0  0
   -2.5330   11.5043   33.9620 C   0  0  1  0  0  0  0  0  0  0  0  0
   -2.9035   12.6431   33.1152 C   0  0  2  0  0  0  0  0  0  0  0  0
   -1.8252   12.9044   32.2752 O   0  0  0  0  0  0  0  0  0  0  0  0
   -3.3246   13.6813   34.1773 C   0  0  2  0  0  0  0  0  0  0  0  0
   -2.4359   14.8118   34.0306 O   0  0  0  0  0  0  0  0  0  0  0  0
   -3.1513   12.9831   35.4858 C   0  0  2  0  0  0  0  0  0  0  0  0
   -3.4727   11.6249   35.0170 O   0  0  0  0  0  0  0  0  0  0  0  0
   -4.2099   13.4591   36.5474 C   0  0  0  0  0  0  0  0  0  0  0  0
   -5.5908   13.1974   36.1553 O   0  0  0  0  0  0  0  0  0  0  0  0
   -2.9687   16.1219   34.3924 C   0  0  2  0  0  0  0  0  0  0  0  0
   -1.8156   17.2293   34.1512 C   0  0  2  0  0  0  0  0  0  0  0  0
   -0.6125   16.8747   34.9718 N   0  0  0  0  0  0  0  0  0  0  0  0
   -2.4114   18.6686   34.5482 C   0  0  1  0  0  0  0  0  0  0  0  0
   -3.5751   18.9056   33.6990 O   0  0  0  0  0  0  0  0  0  0  0  0
   -2.8168   18.6679   36.0909 C   0  0  2  0  0  0  0  0  0  0  0  0
   -1.5882   18.4367   36.8830 O   0  0  0  0  0  0  0  0  0  0  0  0
   -3.9379   17.5052   36.3214 C   0  0  1  0  0  0  0  0  0  0  0  0
   -3.3855   16.1742   35.8765 O   0  0  0  0  0  0  0  0  0  0  0  0
   -4.3470   17.4644   37.8312 C   0  0  0  0  0  0  0  0  0  0  0  0
   -3.2203   17.0571   38.7268 N   0  0  0  0  0  0  0  0  0  0  0  0
  1  3  1  0  0  0  0
  1  2  1  6  0  0  0
  3  4  1  6  0  0  0
  3  5  1  0  0  0  0
  5  6  1  1  0  0  0
  7  8  1  6  0  0  0
  7  5  1  0  0  0  0
  9 11  1  1  0  0  0
  9  7  1  0  0  0  0
 10  9  1  0  0  0  0
 10  1  1  0  0  0  0
 12 11  1  0  0  0  0
 13 14  1  6  0  0  0
 15 13  1  0  0  0  0
 16 17  1  1  0  0  0
 16 15  1  0  0  0  0
 18  2  1  1  0  0  0
 18 19  1  0  0  0  0
 18 16  1  0  0  0  0
 19 20  1  1  0  0  0
 19 21  1  0  0  0  0
 21 22  1  6  0  0  0
 21 13  1  0  0  0  0
 23 20  1  6  0  0  0
 23 29  1  0  0  0  0
 24 25  1  1  0  0  0
 24 26  1  0  0  0  0
 24 23  1  0  0  0  0
 26 27  1  1  0  0  0
 26 28  1  0  0  0  0
 28 30  1  1  0  0  0
 29 28  1  0  0  0  0
 30 31  1  0  0  0  0
 32 27  1  1  0  0  0
 32 40  1  0  0  0  0
 33 35  1  0  0  0  0
 33 32  1  0  0  0  0
 33 34  1  1  0  0  0
 35 36  1  6  0  0  0
 35 37  1  0  0  0  0
 37 38  1  1  0  0  0
 37 39  1  0  0  0  0
 39 41  1  1  0  0  0
 40 39  1  0  0  0  0
 41 42  1  0  0  0  0
M  END
>  <CHROM.1>
174.94446339,-172.82384164,-166.28403971,114.05886158,70.27735142,150.48444025
61.11463751,-179.95202344,-64.87407641,-1.62034237,11.91601267,34.51017613
-0.42134185,-1.23525276,1.30111700

>  <Name>
lig.pdb

>  <RI>
0

>  <Rbt.Current_Directory>
/home/itssahil/PROJECTS/Mol_Feturizer/New_Systems/rnas/4wcr

>  <Rbt.Executable>
rbdock ($Id: //depot/dev/client3/rdock/2013.1/src/exe/rbdock.cxx#4 $)

>  <Rbt.Library>
libRbt.so (2013.1, Build901 2013/11/27)

>  <Rbt.Parameter_File>
/export/apps/rDock/src/rDock_2013.1_src/data/scripts/dock_solv.prm

>  <Rbt.Receptor>
prm/pocket_docking_7.prm

>  <SCORE>
-3.55686

>  <SCORE.INTER>
0.378812

>  <SCORE.INTER.CONST>
1

>  <SCORE.INTER.POLAR>
0

>  <SCORE.INTER.ROT>
9

>  <SCORE.INTER.SOLV>
21.7757

>  <SCORE.INTER.VDW>
-16.606

>  <SCORE.INTER.norm>
0.00901932

>  <SCORE.INTRA>
-3.93567

>  <SCORE.INTRA.DIHEDRAL>
-3.50821

>  <SCORE.INTRA.DIHEDRAL.0>
16.2863

>  <SCORE.INTRA.POLAR>
0

>  <SCORE.INTRA.POLAR.0>
0

>  <SCORE.INTRA.REPUL>
-0.314433

>  <SCORE.INTRA.REPUL.0>
0.314433

>  <SCORE.INTRA.SOLV>
-2.55881

>  <SCORE.INTRA.SOLV.lig_0>
-103.824

>  <SCORE.INTRA.VDW>
0.670004

>  <SCORE.INTRA.VDW.0>
-5.30945

>  <SCORE.INTRA.norm>
-0.0937064

>  <SCORE.RESTR>
0

>  <SCORE.RESTR.CAVITY>
0

>  <SCORE.RESTR.norm>
0

>  <SCORE.SYSTEM>
0

>  <SCORE.SYSTEM.CONST>
0

>  <SCORE.SYSTEM.DIHEDRAL>
0

>  <SCORE.SYSTEM.SOLV>
0

>  <SCORE.SYSTEM.norm>
0

>  <SCORE.heavy>
42

>  <SCORE.norm>
-0.0846871

>  <RMSD>
9.664

$$$$
lig.pdb
 OpenBabel11021811513D
libRbt.so/2013.1/901 2013/11/27
 42 45  0  0  0  0  0  0  0  0999 V2000
   -0.0234    7.1799   35.4308 C   0  0  2  0  0  0  0  0  0  0  0  0
   -0.8623    8.2179   36.0273 O   0  0  0  0  0  0  0  0  0  0  0  0
    0.6807    7.8507   34.1681 C   0  0  2  0  0  0  0  0  0  0  0  0
    1.5321    8.9654   34.5927 N   0  0  0  0  0  0  0  0  0  0  0  0
   -0.4535    8.3147   33.1298 C   0  0  1  0  0  0  0  0  0  0  0  0
    0.1302    8.9210   31.9575 O   0  0  0  0  0  0  0  0  0  0  0  0
   -1.2786    7.0670   32.7706 C   0  0  2  0  0  0  0  0  0  0  0  0
   -2.2722    7.4314   31.8741 O   0  0  0  0  0  0  0  0  0  0  0  0
   -1.9093    6.4330   34.0930 C   0  0  2  0  0  0  0  0  0  0  0  0
   -0.8895    6.0533   35.0254 O   0  0  0  0  0  0  0  0  0  0  0  0
   -2.7115    5.1973   33.7985 C   0  0  0  0  0  0  0  0  0  0  0  0
   -3.3449    4.7934   35.0132 O   0  0  0  0  0  0  0  0  0  0  0  0
   -2.3839    8.5193   40.1946 C   0  0  2  0  0  0  0  0  0  0  0  0
   -2.4110    8.6551   41.6347 N   0  0  0  0  0  0  0  0  0  0  0  0
   -1.4551    7.3137   39.7792 C   0  0  0  0  0  0  0  0  0  0  0  0
   -1.4051    7.1477   38.2196 C   0  0  2  0  0  0  0  0  0  0  0  0
   -0.5308    6.0278   37.8775 N   0  0  0  0  0  0  0  0  0  0  0  0
   -0.8712    8.4568   37.4851 C   0  0  2  0  0  0  0  0  0  0  0  0
   -1.8186    9.6283   37.8744 C   0  0  2  0  0  0  0  0  0  0  0  0
   -1.2530   10.8183   37.1350 O   0  0  0  0  0  0  0  0  0  0  0  0
   -1.8135    9.8382   39.4879 C   0  0  1  0  0  0  0  0  0  0  0  0
   -2.7149   10.8822   39.9775 O   0  0  0  0  0  0  0  0  0  0  0  0
   -1.9892   11.9494   37.3716 C   0  0  1  0  0  0  0  0  0  0  0  0
   -1.6615   13.0505   36.4598 C   0  0  2  0  0  0  0  0  0  0  0  0
   -0.4145   13.5425   36.8335 O   0  0  0  0  0  0  0  0  0  0  0  0
   -2.9161   13.9390   36.6005 C   0  0  2  0  0  0  0  0  0  0  0  0
   -2.4687   15.2140   37.1140 O   0  0  0  0  0  0  0  0  0  0  0  0
   -3.7954   13.2111   37.5633 C   0  0  2  0  0  0  0  0  0  0  0  0
   -3.3915   11.8454   37.1895 O   0  0  0  0  0  0  0  0  0  0  0  0
   -5.3200   13.4353   37.2476 C   0  0  0  0  0  0  0  0  0  0  0  0
   -5.7342   12.9039   35.9533 O   0  0  0  0  0  0  0  0  0  0  0  0
   -1.8151   16.1140   36.1686 C   0  0  2  0  0  0  0  0  0  0  0  0
   -1.2622   17.3981   36.9808 C   0  0  2  0  0  0  0  0  0  0  0  0
   -2.4055   18.0669   37.6825 N   0  0  0  0  0  0  0  0  0  0  0  0
   -0.5411   18.3817   35.9336 C   0  0  1  0  0  0  0  0  0  0  0  0
    0.5427   17.6298   35.3078 O   0  0  0  0  0  0  0  0  0  0  0  0
   -1.6023   18.8709   34.8479 C   0  0  2  0  0  0  0  0  0  0  0  0
   -2.6561   19.6329   35.5542 O   0  0  0  0  0  0  0  0  0  0  0  0
   -2.1886   17.5554   34.0812 C   0  0  1  0  0  0  0  0  0  0  0  0
   -2.7971   16.6120   35.0885 O   0  0  0  0  0  0  0  0  0  0  0  0
   -3.2482   17.9979   33.0182 C   0  0  0  0  0  0  0  0  0  0  0  0
   -3.9534   16.8405   32.3853 N   0  0  0  0  0  0  0  0  0  0  0  0
  1  3  1  0  0  0  0
  1  2  1  6  0  0  0
  3  4  1  1  0  0  0
  3  5  1  0  0  0  0
  5  6  1  6  0  0  0
  7  8  1  6  0  0  0
  7  5  1  0  0  0  0
  9 11  1  6  0  0  0
  9  7  1  0  0  0  0
 10  9  1  0  0  0  0
 10  1  1  0  0  0  0
 12 11  1  0  0  0  0
 13 14  1  1  0  0  0
 15 13  1  0  0  0  0
 16 17  1  1  0  0  0
 16 15  1  0  0  0  0
 18  2  1  6  0  0  0
 18 19  1  0  0  0  0
 18 16  1  0  0  0  0
 19 20  1  6  0  0  0
 19 21  1  0  0  0  0
 21 22  1  6  0  0  0
 21 13  1  0  0  0  0
 23 20  1  6  0  0  0
 23 29  1  0  0  0  0
 24 25  1  1  0  0  0
 24 26  1  0  0  0  0
 24 23  1  0  0  0  0
 26 27  1  1  0  0  0
 26 28  1  0  0  0  0
 28 30  1  6  0  0  0
 29 28  1  0  0  0  0
 30 31  1  0  0  0  0
 32 27  1  1  0  0  0
 32 40  1  0  0  0  0
 33 35  1  0  0  0  0
 33 32  1  0  0  0  0
 33 34  1  6  0  0  0
 35 36  1  6  0  0  0
 35 37  1  0  0  0  0
 37 38  1  1  0  0  0
 37 39  1  0  0  0  0
 39 41  1  6  0  0  0
 40 39  1  0  0  0  0
 41 42  1  0  0  0  0
M  END
>  <CHROM.1>
-134.19541504,-173.91153347,-62.58990344,179.76388102,-167.47739547,76.55010706
63.72383912,-174.08083232,-173.10900404,-1.86715197,11.62257681,36.09430511
-1.07709722,1.38835644,-0.51461255

>  <Name>
lig.pdb

>  <RI>
0

>  <Rbt.Current_Directory>
/home/itssahil/PROJECTS/Mol_Feturizer/New_Systems/rnas/4wcr

>  <Rbt.Executable>
rbdock ($Id: //depot/dev/client3/rdock/2013.1/src/exe/rbdock.cxx#4 $)

>  <Rbt.Library>
libRbt.so (2013.1, Build901 2013/11/27)

>  <Rbt.Parameter_File>
/export/apps/rDock/src/rDock_2013.1_src/data/scripts/dock_solv.prm

>  <Rbt.Receptor>
prm/pocket_docking_5.prm

>  <SCORE>
-2.43063

>  <SCORE.INTER>
2.42785

>  <SCORE.INTER.CONST>
1

>  <SCORE.INTER.POLAR>
0

>  <SCORE.INTER.ROT>
9

>  <SCORE.INTER.SOLV>
18.9804

>  <SCORE.INTER.VDW>
-14.3082

>  <SCORE.INTER.norm>
0.057806

>  <SCORE.INTRA>
-4.86815

>  <SCORE.INTRA.DIHEDRAL>
-6.97499

>  <SCORE.INTRA.DIHEDRAL.0>
16.2863

>  <SCORE.INTRA.POLAR>
0

>  <SCORE.INTRA.POLAR.0>
0

>  <SCORE.INTRA.REPUL>
-0.314433

>  <SCORE.INTRA.REPUL.0>
0.314433

>  <SCORE.INTRA.SOLV>
-3.73381

>  <SCORE.INTRA.SOLV.lig_0>
-103.824

>  <SCORE.INTRA.VDW>
2.05841

>  <SCORE.INTRA.VDW.0>
-5.30945

>  <SCORE.INTRA.norm>
-0.115908

>  <SCORE.RESTR>
0.00967877

>  <SCORE.RESTR.CAVITY>
0.00967877

>  <SCORE.RESTR.norm>
0.000230447

>  <SCORE.SYSTEM>
0

>  <SCORE.SYSTEM.CONST>
0

>  <SCORE.SYSTEM.DIHEDRAL>
0

>  <SCORE.SYSTEM.SOLV>
0

>  <SCORE.SYSTEM.norm>
0

>  <SCORE.heavy>
42

>  <SCORE.norm>
-0.057872

>  <RMSD>
9.673

$$$$
lig.pdb
 OpenBabel11021811513D
libRbt.so/2013.1/901 2013/11/27
 42 45  0  0  0  0  0  0  0  0999 V2000
   -4.3946    6.8957   36.5922 C   0  0  2  0  0  0  0  0  0  0  0  0
   -2.9541    7.1182   36.7041 O   0  0  0  0  0  0  0  0  0  0  0  0
   -4.5710    5.4344   35.9811 C   0  0  2  0  0  0  0  0  0  0  0  0
   -4.0034    4.4320   36.8871 N   0  0  0  0  0  0  0  0  0  0  0  0
   -3.8872    5.3957   34.5283 C   0  0  1  0  0  0  0  0  0  0  0  0
   -4.0274    4.0940   33.9212 O   0  0  0  0  0  0  0  0  0  0  0  0
   -4.5577    6.4908   33.6811 C   0  0  2  0  0  0  0  0  0  0  0  0
   -3.9890    6.4879   32.4161 O   0  0  0  0  0  0  0  0  0  0  0  0
   -4.3739    7.9118   34.3850 C   0  0  2  0  0  0  0  0  0  0  0  0
   -4.9588    7.9239   35.6932 O   0  0  0  0  0  0  0  0  0  0  0  0
   -5.0290    9.0162   33.6051 C   0  0  0  0  0  0  0  0  0  0  0  0
   -4.6246   10.2557   34.1881 O   0  0  0  0  0  0  0  0  0  0  0  0
   -2.5853    8.3580   40.9585 C   0  0  2  0  0  0  0  0  0  0  0  0
   -2.0051    8.7715   42.2176 N   0  0  0  0  0  0  0  0  0  0  0  0
   -1.9195    7.0146   40.4677 C   0  0  0  0  0  0  0  0  0  0  0  0
   -2.5293    6.5464   39.0997 C   0  0  2  0  0  0  0  0  0  0  0  0
   -1.8820    5.3059   38.6779 N   0  0  0  0  0  0  0  0  0  0  0  0
   -2.3496    7.6341   37.9494 C   0  0  2  0  0  0  0  0  0  0  0  0
   -3.0433    8.9409   38.4319 C   0  0  2  0  0  0  0  0  0  0  0  0
   -2.8373    9.9083   37.2899 O   0  0  0  0  0  0  0  0  0  0  0  0
   -2.3609    9.4573   39.8159 C   0  0  1  0  0  0  0  0  0  0  0  0
   -2.9709   10.6547   40.3958 O   0  0  0  0  0  0  0  0  0  0  0  0
   -3.2943   11.1604   37.6073 C   0  0  1  0  0  0  0  0  0  0  0  0
   -2.7382   12.2110   36.7482 C   0  0  2  0  0  0  0  0  0  0  0  0
   -1.4070   12.3859   37.1142 O   0  0  0  0  0  0  0  0  0  0  0  0
   -3.7565   13.3498   36.9708 C   0  0  2  0  0  0  0  0  0  0  0  0
   -3.0243   14.4584   37.5405 O   0  0  0  0  0  0  0  0  0  0  0  0
   -4.7643   12.7836   37.9159 C   0  0  2  0  0  0  0  0  0  0  0  0
   -4.6861   11.3865   37.4578 O   0  0  0  0  0  0  0  0  0  0  0  0
   -6.2026   13.3643   37.6541 C   0  0  0  0  0  0  0  0  0  0  0  0
   -6.7678   12.9704   36.3678 O   0  0  0  0  0  0  0  0  0  0  0  0
   -2.0430   15.1132   36.6807 C   0  0  2  0  0  0  0  0  0  0  0  0
   -1.2424   16.2099   37.5584 C   0  0  2  0  0  0  0  0  0  0  0  0
   -2.2197   17.1915   38.1310 N   0  0  0  0  0  0  0  0  0  0  0  0
   -0.1619   16.9232   36.6057 C   0  0  1  0  0  0  0  0  0  0  0  0
    0.7270   15.8806   36.1011 O   0  0  0  0  0  0  0  0  0  0  0  0
   -0.9152   17.6635   35.4103 C   0  0  2  0  0  0  0  0  0  0  0  0
   -1.7815   18.7095   35.9983 O   0  0  0  0  0  0  0  0  0  0  0  0
   -1.7616   16.5473   34.5740 C   0  0  1  0  0  0  0  0  0  0  0  0
   -2.7190   15.8398   35.5000 O   0  0  0  0  0  0  0  0  0  0  0  0
   -2.5292   17.2429   33.4011 C   0  0  0  0  0  0  0  0  0  0  0  0
   -3.4706   18.3051   33.8730 N   0  0  0  0  0  0  0  0  0  0  0  0
  1  3  1  0  0  0  0
  1  2  1  6  0  0  0
  3  4  1  1  0  0  0
  3  5  1  0  0  0  0
  5  6  1  6  0  0  0
  7  8  1  6  0  0  0
  7  5  1  0  0  0  0
  9 11  1  6  0  0  0
  9  7  1  0  0  0  0
 10  9  1  0  0  0  0
 10  1  1  0  0  0  0
 12 11  1  0  0  0  0
 13 14  1  1  0  0  0
 15 13  1  0  0  0  0
 16 17  1  6  0  0  0
 16 15  1  0  0  0  0
 18  2  1  6  0  0  0
 18 19  1  0  0  0  0
 18 16  1  0  0  0  0
 19 20  1  6  0  0  0
 19 21  1  0  0  0  0
 21 22  1  1  0  0  0
 21 13  1  0  0  0  0
 23 20  1  6  0  0  0
 23 29  1  0  0  0  0
 24 25  1  1  0  0  0
 24 26  1  0  0  0  0
 24 23  1  0  0  0  0
 26 27  1  1  0  0  0
 26 28  1  0  0  0  0
 28 30  1  6  0  0  0
 29 28  1  0  0  0  0
 30 31  1  0  0  0  0
 32 27  1  1  0  0  0
 32 40  1  0  0  0  0
 33 35  1  0  0  0  0
 33 32  1  0  0  0  0
 33 34  1  6  0  0  0
 35 36  1  6  0  0  0
 35 37  1  0  0  0  0
 37 38  1  1  0  0  0
 37 39  1  0  0  0  0
 39 41  1  6  0  0  0
 40 39  1  0  0  0  0
 41 42  1  0  0  0  0
M  END
>  <CHROM.1>
-131.55321412,-170.57668365,65.99351508,-174.66780419,161.05826873,67.41393717
66.18200595,-174.18544076,-58.72482346,-3.12441557,11.06115450,36.70906775
2.01201931,1.21572113,2.66922241

>  <Name>
lig.pdb

>  <RI>
0

>  <Rbt.Current_Directory>
/home/itssahil/PROJECTS/Mol_Feturizer/New_Systems/rnas/4wcr

>  <Rbt.Executable>
rbdock ($Id: //depot/dev/client3/rdock/2013.1/src/exe/rbdock.cxx#4 $)

>  <Rbt.Library>
libRbt.so (2013.1, Build901 2013/11/27)

>  <Rbt.Parameter_File>
/export/apps/rDock/src/rDock_2013.1_src/data/scripts/dock_solv.prm

>  <Rbt.Receptor>
prm/pocket_docking_3.prm

>  <SCORE>
-2.75546

>  <SCORE.INTER>
0.423218

>  <SCORE.INTER.CONST>
1

>  <SCORE.INTER.POLAR>
0

>  <SCORE.INTER.ROT>
9

>  <SCORE.INTER.SOLV>
18.4083

>  <SCORE.INTER.VDW>
-15.4539

>  <SCORE.INTER.norm>
0.0100766

>  <SCORE.INTRA>
-3.31016

>  <SCORE.INTRA.DIHEDRAL>
-6.40102

>  <SCORE.INTRA.DIHEDRAL.0>
16.2863

>  <SCORE.INTRA.POLAR>
0

>  <SCORE.INTRA.POLAR.0>
0

>  <SCORE.INTRA.REPUL>
-0.187666

>  <SCORE.INTRA.REPUL.0>
0.314433

>  <SCORE.INTRA.SOLV>
-0.0118333

>  <SCORE.INTRA.SOLV.lig_0>
-103.824

>  <SCORE.INTRA.VDW>
0.834599

>  <SCORE.INTRA.VDW.0>
-5.30945

>  <SCORE.INTRA.norm>
-0.0788133

>  <SCORE.RESTR>
0.131483

>  <SCORE.RESTR.CAVITY>
0.131483

>  <SCORE.RESTR.norm>
0.00313056

>  <SCORE.SYSTEM>
0

>  <SCORE.SYSTEM.CONST>
0

>  <SCORE.SYSTEM.DIHEDRAL>
0

>  <SCORE.SYSTEM.SOLV>
0

>  <SCORE.SYSTEM.norm>
0

>  <SCORE.heavy>
42

>  <SCORE.norm>
-0.0656061

>  <RMSD>
9.676

$$$$
lig.pdb
 OpenBabel11021811513D
libRbt.so/2013.1/901 2013/11/27
 42 45  0  0  0  0  0  0  0  0999 V2000
   -1.2833   14.7762   35.1856 C   0  0  2  0  0  0  0  0  0  0  0  0
   -1.2941   16.0968   35.8125 O   0  0  0  0  0  0  0  0  0  0  0  0
   -2.4320   13.9359   35.9028 C   0  0  2  0  0  0  0  0  0  0  0  0
   -3.7378   14.5607   35.6743 N   0  0  0  0  0  0  0  0  0  0  0  0
   -2.0832   13.8130   37.4658 C   0  0  1  0  0  0  0  0  0  0  0  0
   -3.0882   13.0491   38.1651 O   0  0  0  0  0  0  0  0  0  0  0  0
   -0.6966   13.1554   37.5717 C   0  0  2  0  0  0  0  0  0  0  0  0
   -0.3607   13.0346   38.9119 O   0  0  0  0  0  0  0  0  0  0  0  0
    0.3832   14.0346   36.7909 C   0  0  2  0  0  0  0  0  0  0  0  0
    0.0440   14.1647   35.4047 O   0  0  0  0  0  0  0  0  0  0  0  0
    1.7549   13.4242   36.8478 C   0  0  0  0  0  0  0  0  0  0  0  0
    2.6360   14.3934   37.4168 O   0  0  0  0  0  0  0  0  0  0  0  0
   -0.8159   20.3422   34.5792 C   0  0  2  0  0  0  0  0  0  0  0  0
   -0.2652   21.5401   33.9835 N   0  0  0  0  0  0  0  0  0  0  0  0
    0.2434   19.6756   35.5395 C   0  0  0  0  0  0  0  0  0  0  0  0
   -0.3287   18.3700   36.1957 C   0  0  2  0  0  0  0  0  0  0  0  0
    0.6837   17.7813   37.0699 N   0  0  0  0  0  0  0  0  0  0  0  0
   -0.7637   17.2850   35.1131 C   0  0  2  0  0  0  0  0  0  0  0  0
   -1.8352   17.9446   34.1975 C   0  0  2  0  0  0  0  0  0  0  0  0
   -2.1977   16.8559   33.2146 O   0  0  0  0  0  0  0  0  0  0  0  0
   -1.2137   19.2597   33.4682 C   0  0  1  0  0  0  0  0  0  0  0  0
   -2.1519   19.9970   32.6206 O   0  0  0  0  0  0  0  0  0  0  0  0
   -3.1981   17.2588   32.3695 C   0  0  1  0  0  0  0  0  0  0  0  0
   -4.3576   16.3607   32.3809 C   0  0  2  0  0  0  0  0  0  0  0  0
   -3.9886   15.1971   31.7127 O   0  0  0  0  0  0  0  0  0  0  0  0
   -5.4513   17.2766   31.7906 C   0  0  2  0  0  0  0  0  0  0  0  0
   -5.9094   16.6474   30.5725 O   0  0  0  0  0  0  0  0  0  0  0  0
   -4.7659   18.5791   31.5391 C   0  0  2  0  0  0  0  0  0  0  0  0
   -3.8093   18.5057   32.6559 O   0  0  0  0  0  0  0  0  0  0  0  0
   -5.7394   19.7994   31.7334 C   0  0  0  0  0  0  0  0  0  0  0  0
   -5.1977   21.0638   31.2466 O   0  0  0  0  0  0  0  0  0  0  0  0
   -7.0293   17.2808   29.8829 C   0  0  2  0  0  0  0  0  0  0  0  0
   -7.5972   16.2512   28.7731 C   0  0  2  0  0  0  0  0  0  0  0  0
   -6.4940   15.8919   27.8241 N   0  0  0  0  0  0  0  0  0  0  0  0
   -8.8318   16.9546   28.0214 C   0  0  1  0  0  0  0  0  0  0  0  0
   -9.8360   17.2660   29.0344 O   0  0  0  0  0  0  0  0  0  0  0  0
   -8.3236   18.2782   27.2906 C   0  0  2  0  0  0  0  0  0  0  0  0
   -7.3239   17.8804   26.2744 O   0  0  0  0  0  0  0  0  0  0  0  0
   -7.7029   19.2770   28.4216 C   0  0  1  0  0  0  0  0  0  0  0  0
   -6.5940   18.5741   29.1639 O   0  0  0  0  0  0  0  0  0  0  0  0
   -7.1774   20.5818   27.7361 C   0  0  0  0  0  0  0  0  0  0  0  0
   -6.3498   21.4259   28.6526 N   0  0  0  0  0  0  0  0  0  0  0  0
  1  3  1  0  0  0  0
  1  2  1  1  0  0  0
  3  4  1  1  0  0  0
  3  5  1  0  0  0  0
  5  6  1  1  0  0  0
  7  8  1  1  0  0  0
  7  5  1  0  0  0  0
  9 11  1  6  0  0  0
  9  7  1  0  0  0  0
 10  9  1  0  0  0  0
 10  1  1  0  0  0  0
 12 11  1  0  0  0  0
 13 14  1  6  0  0  0
 15 13  1  0  0  0  0
 16 17  1  1  0  0  0
 16 15  1  0  0  0  0
 18  2  1  1  0  0  0
 18 19  1  0  0  0  0
 18 16  1  0  0  0  0
 19 20  1  6  0  0  0
 19 21  1  0  0  0  0
 21 22  1  6  0  0  0
 21 13  1  0  0  0  0
 23 20  1  1  0  0  0
 23 29  1  0  0  0  0
 24 25  1  6  0  0  0
 24 26  1  0  0  0  0
 24 23  1  0  0  0  0
 26 27  1  6  0  0  0
 26 28  1  0  0  0  0
 28 30  1  1  0  0  0
 29 28  1  0  0  0  0
 30 31  1  0  0  0  0
 32 27  1  6  0  0  0
 32 40  1  0  0  0  0
 33 35  1  0  0  0  0
 33 32  1  0  0  0  0
 33 34  1  6  0  0  0
 35 36  1  1  0  0  0
 35 37  1  0  0  0  0
 37 38  1  6  0  0  0
 37 39  1  0  0  0  0
 39 41  1  6  0  0  0
 40 39  1  0  0  0  0
 41 42  1  0  0  0  0
M  END
>  <CHROM.1>
-156.35577232,-123.11491550,-155.65529460,176.70443460,-124.31564863,175.27810474
-168.52690844,-166.78368599,-168.41415075,-3.43804053,17.07686349,32.95877241
0.59052660,0.71748529,2.73894486

>  <Name>
lig.pdb

>  <RI>
0

>  <Rbt.Current_Directory>
/home/itssahil/PROJECTS/Mol_Feturizer/New_Systems/rnas/4wcr

>  <Rbt.Executable>
rbdock ($Id: //depot/dev/client3/rdock/2013.1/src/exe/rbdock.cxx#4 $)

>  <Rbt.Library>
libRbt.so (2013.1, Build901 2013/11/27)

>  <Rbt.Parameter_File>
/export/apps/rDock/src/rDock_2013.1_src/data/scripts/dock_solv.prm

>  <Rbt.Receptor>
prm/blind_docking_60.prm

>  <SCORE>
3.33377

>  <SCORE.INTER>
-9.45326

>  <SCORE.INTER.CONST>
1

>  <SCORE.INTER.POLAR>
0

>  <SCORE.INTER.ROT>
9

>  <SCORE.INTER.SOLV>
26.8188

>  <SCORE.INTER.VDW>
-24.8418

>  <SCORE.INTER.norm>
-0.225078

>  <SCORE.INTRA>
4.64955

>  <SCORE.INTRA.DIHEDRAL>
3.30895

>  <SCORE.INTRA.DIHEDRAL.0>
16.2863

>  <SCORE.INTRA.POLAR>
0

>  <SCORE.INTRA.POLAR.0>
0

>  <SCORE.INTRA.REPUL>
-0.314433

>  <SCORE.INTRA.REPUL.0>
0.314433

>  <SCORE.INTRA.SOLV>
-0.755511

>  <SCORE.INTRA.SOLV.lig_0>
-103.824

>  <SCORE.INTRA.VDW>
4.945

>  <SCORE.INTRA.VDW.0>
-5.30945

>  <SCORE.INTRA.norm>
0.110704

>  <SCORE.RESTR>
8.13748

>  <SCORE.RESTR.CAVITY>
8.13748

>  <SCORE.RESTR.norm>
0.19375

>  <SCORE.SYSTEM>
0

>  <SCORE.SYSTEM.CONST>
0

>  <SCORE.SYSTEM.DIHEDRAL>
0

>  <SCORE.SYSTEM.SOLV>
0

>  <SCORE.SYSTEM.norm>
0

>  <SCORE.heavy>
42

>  <SCORE.norm>
0.0793755

>  <RMSD>
9.712

$$$$
lig.pdb
 OpenBabel11021811513D
libRbt.so/2013.1/901 2013/11/27
 42 45  0  0  0  0  0  0  0  0999 V2000
   -7.0026   15.2127   29.6114 C   0  0  2  0  0  0  0  0  0  0  0  0
   -6.0989   16.3424   29.4009 O   0  0  0  0  0  0  0  0  0  0  0  0
   -6.1204   13.8987   29.4238 C   0  0  2  0  0  0  0  0  0  0  0  0
   -5.0568   13.8518   30.4309 N   0  0  0  0  0  0  0  0  0  0  0  0
   -5.5397   13.8756   27.9265 C   0  0  1  0  0  0  0  0  0  0  0  0
   -4.7391   12.6970   27.6966 O   0  0  0  0  0  0  0  0  0  0  0  0
   -6.7437   13.9374   26.9710 C   0  0  2  0  0  0  0  0  0  0  0  0
   -6.2785   13.9212   25.6645 O   0  0  0  0  0  0  0  0  0  0  0  0
   -7.5965   15.2566   27.2556 C   0  0  2  0  0  0  0  0  0  0  0  0
   -8.0814   15.2819   28.6039 O   0  0  0  0  0  0  0  0  0  0  0  0
   -8.7980   15.3556   26.3591 C   0  0  0  0  0  0  0  0  0  0  0  0
   -9.4275   16.6113   26.6171 O   0  0  0  0  0  0  0  0  0  0  0  0
   -5.7315   20.7070   30.1672 C   0  0  2  0  0  0  0  0  0  0  0  0
   -6.0694   22.0644   30.5364 N   0  0  0  0  0  0  0  0  0  0  0  0
   -6.7241   20.1814   29.0594 C   0  0  0  0  0  0  0  0  0  0  0  0
   -6.3812   18.7075   28.6442 C   0  0  2  0  0  0  0  0  0  0  0  0
   -7.3259   18.2574   27.6241 N   0  0  0  0  0  0  0  0  0  0  0  0
   -6.4393   17.6990   29.8762 C   0  0  2  0  0  0  0  0  0  0  0  0
   -5.4286   18.2094   30.9437 C   0  0  2  0  0  0  0  0  0  0  0  0
   -5.5378   17.2010   32.0635 O   0  0  0  0  0  0  0  0  0  0  0  0
   -5.8297   19.7130   31.4189 C   0  0  1  0  0  0  0  0  0  0  0  0
   -4.9137   20.3200   32.3857 O   0  0  0  0  0  0  0  0  0  0  0  0
   -4.3133   16.6775   32.3855 C   0  0  1  0  0  0  0  0  0  0  0  0
   -3.7211   17.2904   33.5791 C   0  0  2  0  0  0  0  0  0  0  0  0
   -3.3042   18.5703   33.2258 O   0  0  0  0  0  0  0  0  0  0  0  0
   -2.6809   16.2222   33.9793 C   0  0  2  0  0  0  0  0  0  0  0  0
   -1.3844   16.8584   33.9163 O   0  0  0  0  0  0  0  0  0  0  0  0
   -2.8359   15.1373   32.9651 C   0  0  2  0  0  0  0  0  0  0  0  0
   -4.2803   15.3032   32.7331 O   0  0  0  0  0  0  0  0  0  0  0  0
   -2.5406   13.7184   33.5767 C   0  0  0  0  0  0  0  0  0  0  0  0
   -2.5677   12.6401   32.5940 O   0  0  0  0  0  0  0  0  0  0  0  0
   -0.9806   17.6505   35.0740 C   0  0  2  0  0  0  0  0  0  0  0  0
    0.1975   16.8610   35.8504 C   0  0  2  0  0  0  0  0  0  0  0  0
   -0.2998   15.5055   36.2528 N   0  0  0  0  0  0  0  0  0  0  0  0
    0.6387   17.7413   37.1210 C   0  0  1  0  0  0  0  0  0  0  0  0
    1.0946   19.0333   36.6165 O   0  0  0  0  0  0  0  0  0  0  0  0
   -0.6056   17.9152   38.1038 C   0  0  2  0  0  0  0  0  0  0  0  0
   -0.9983   16.5707   38.5813 O   0  0  0  0  0  0  0  0  0  0  0  0
   -1.8016   18.6617   37.2826 C   0  0  1  0  0  0  0  0  0  0  0  0
   -2.1520   17.8570   36.0561 O   0  0  0  0  0  0  0  0  0  0  0  0
   -3.0476   18.8335   38.2134 C   0  0  0  0  0  0  0  0  0  0  0  0
   -3.9215   17.6200   38.2431 N   0  0  0  0  0  0  0  0  0  0  0  0
  1  3  1  0  0  0  0
  1  2  1  6  0  0  0
  3  4  1  1  0  0  0
  3  5  1  0  0  0  0
  5  6  1  6  0  0  0
  7  8  1  6  0  0  0
  7  5  1  0  0  0  0
  9 11  1  6  0  0  0
  9  7  1  0  0  0  0
 10  9  1  0  0  0  0
 10  1  1  0  0  0  0
 12 11  1  0  0  0  0
 13 14  1  1  0  0  0
 15 13  1  0  0  0  0
 16 17  1  6  0  0  0
 16 15  1  0  0  0  0
 18  2  1  6  0  0  0
 18 19  1  0  0  0  0
 18 16  1  0  0  0  0
 19 20  1  1  0  0  0
 19 21  1  0  0  0  0
 21 22  1  1  0  0  0
 21 13  1  0  0  0  0
 23 20  1  1  0  0  0
 23 29  1  0  0  0  0
 24 25  1  6  0  0  0
 24 26  1  0  0  0  0
 24 23  1  0  0  0  0
 26 27  1  6  0  0  0
 26 28  1  0  0  0  0
 28 30  1  1  0  0  0
 29 28  1  0  0  0  0
 30 31  1  0  0  0  0
 32 27  1  6  0  0  0
 32 40  1  0  0  0  0
 33 35  1  0  0  0  0
 33 32  1  0  0  0  0
 33 34  1  1  0  0  0
 35 36  1  6  0  0  0
 35 37  1  0  0  0  0
 37 38  1  6  0  0  0
 37 39  1  0  0  0  0
 39 41  1  1  0  0  0
 40 39  1  0  0  0  0
 41 42  1  0  0  0  0
M  END
>  <CHROM.1>
-161.53849096,-175.45042370,-124.22969851,125.76187432,100.22398457,82.32806964
-175.01612831,108.91161533,-84.53496987,-4.31766378,16.78511346,32.01702154
-2.64851126,-0.90078805,0.41405213

>  <Name>
lig.pdb

>  <RI>
0

>  <Rbt.Current_Directory>
/home/itssahil/PROJECTS/Mol_Feturizer/New_Systems/rnas/4wcr

>  <Rbt.Executable>
rbdock ($Id: //depot/dev/client3/rdock/2013.1/src/exe/rbdock.cxx#4 $)

>  <Rbt.Library>
libRbt.so (2013.1, Build901 2013/11/27)

>  <Rbt.Parameter_File>
/export/apps/rDock/src/rDock_2013.1_src/data/scripts/dock_solv.prm

>  <Rbt.Receptor>
prm/blind_docking_60.prm

>  <SCORE>
0.21636

>  <SCORE.INTER>
-14.042

>  <SCORE.INTER.CONST>
1

>  <SCORE.INTER.POLAR>
0

>  <SCORE.INTER.ROT>
9

>  <SCORE.INTER.SOLV>
29.5182

>  <SCORE.INTER.VDW>
-28.8008

>  <SCORE.INTER.norm>
-0.334334

>  <SCORE.INTRA>
8.2717

>  <SCORE.INTRA.DIHEDRAL>
16.1114

>  <SCORE.INTRA.DIHEDRAL.0>
16.2863

>  <SCORE.INTRA.POLAR>
0

>  <SCORE.INTRA.POLAR.0>
0

>  <SCORE.INTRA.REPUL>
-0.314433

>  <SCORE.INTRA.REPUL.0>
0.314433

>  <SCORE.INTRA.SOLV>
3.90669

>  <SCORE.INTRA.SOLV.lig_0>
-103.824

>  <SCORE.INTRA.VDW>
-0.16517

>  <SCORE.INTRA.VDW.0>
-5.30945

>  <SCORE.INTRA.norm>
0.196945

>  <SCORE.RESTR>
5.98668

>  <SCORE.RESTR.CAVITY>
5.98668

>  <SCORE.RESTR.norm>
0.14254

>  <SCORE.SYSTEM>
0

>  <SCORE.SYSTEM.CONST>
0

>  <SCORE.SYSTEM.DIHEDRAL>
0

>  <SCORE.SYSTEM.SOLV>
0

>  <SCORE.SYSTEM.norm>
0

>  <SCORE.heavy>
42

>  <SCORE.norm>
0.00515142

>  <RMSD>
9.723

$$$$
lig.pdb
 OpenBabel11021811513D
libRbt.so/2013.1/901 2013/11/27
 42 45  0  0  0  0  0  0  0  0999 V2000
   -3.7030    7.7166   33.6541 C   0  0  2  0  0  0  0  0  0  0  0  0
   -2.7927    8.4643   34.5198 O   0  0  0  0  0  0  0  0  0  0  0  0
   -3.2662    8.0504   32.1582 C   0  0  2  0  0  0  0  0  0  0  0  0
   -1.8950    7.5940   31.9147 N   0  0  0  0  0  0  0  0  0  0  0  0
   -3.4333    9.6286   31.9110 C   0  0  1  0  0  0  0  0  0  0  0  0
   -3.0610    9.9869   30.5636 O   0  0  0  0  0  0  0  0  0  0  0  0
   -4.9013    9.9818   32.2058 C   0  0  2  0  0  0  0  0  0  0  0  0
   -5.0827   11.3419   32.0038 O   0  0  0  0  0  0  0  0  0  0  0  0
   -5.2680    9.5747   33.7051 C   0  0  2  0  0  0  0  0  0  0  0  0
   -5.0834    8.1703   33.9229 O   0  0  0  0  0  0  0  0  0  0  0  0
   -6.7003    9.8822   34.0386 C   0  0  0  0  0  0  0  0  0  0  0  0
   -7.5229    9.0456   33.2242 O   0  0  0  0  0  0  0  0  0  0  0  0
    0.5103    7.0157   37.1206 C   0  0  2  0  0  0  0  0  0  0  0  0
    1.7473    6.3960   37.5435 N   0  0  0  0  0  0  0  0  0  0  0  0
   -0.3655    5.9842   36.3096 C   0  0  0  0  0  0  0  0  0  0  0  0
   -1.7127    6.6341   35.8351 C   0  0  2  0  0  0  0  0  0  0  0  0
   -2.4891    5.6501   35.0836 N   0  0  0  0  0  0  0  0  0  0  0  0
   -1.4800    7.9135   34.9147 C   0  0  2  0  0  0  0  0  0  0  0  0
   -0.6476    8.9362   35.7409 C   0  0  2  0  0  0  0  0  0  0  0  0
   -0.4816   10.1127   34.8076 O   0  0  0  0  0  0  0  0  0  0  0  0
    0.7767    8.2783   36.1724 C   0  0  1  0  0  0  0  0  0  0  0  0
    1.6250    9.1332   37.0040 O   0  0  0  0  0  0  0  0  0  0  0  0
   -0.5672   11.3019   35.4828 C   0  0  1  0  0  0  0  0  0  0  0  0
    0.3015   12.3440   34.9256 C   0  0  2  0  0  0  0  0  0  0  0  0
    1.6116   12.0171   35.2627 O   0  0  0  0  0  0  0  0  0  0  0  0
   -0.3501   13.6181   35.5047 C   0  0  2  0  0  0  0  0  0  0  0  0
    0.6504   14.2618   36.3258 O   0  0  0  0  0  0  0  0  0  0  0  0
   -1.5135   13.1257   36.3009 C   0  0  2  0  0  0  0  0  0  0  0  0
   -1.8269   11.9527   35.4681 O   0  0  0  0  0  0  0  0  0  0  0  0
   -2.7106   14.1460   36.2795 C   0  0  0  0  0  0  0  0  0  0  0  0
   -3.2740   14.3598   34.9506 O   0  0  0  0  0  0  0  0  0  0  0  0
    0.4860   15.6921   36.5672 C   0  0  2  0  0  0  0  0  0  0  0  0
    1.7928   16.2339   37.3500 C   0  0  2  0  0  0  0  0  0  0  0  0
    1.9522   15.4707   38.6301 N   0  0  0  0  0  0  0  0  0  0  0  0
    1.6056   17.8094   37.6084 C   0  0  1  0  0  0  0  0  0  0  0  0
    1.4527   18.4478   36.3043 O   0  0  0  0  0  0  0  0  0  0  0  0
    0.3180   18.0483   38.5192 C   0  0  2  0  0  0  0  0  0  0  0  0
    0.5542   17.3866   39.8217 O   0  0  0  0  0  0  0  0  0  0  0  0
   -0.9785   17.4426   37.7355 C   0  0  1  0  0  0  0  0  0  0  0  0
   -0.7533   15.9811   37.4389 O   0  0  0  0  0  0  0  0  0  0  0  0
   -2.2603   17.6446   38.6101 C   0  0  0  0  0  0  0  0  0  0  0  0
   -3.5148   17.2396   37.9033 N   0  0  0  0  0  0  0  0  0  0  0  0
  1  3  1  0  0  0  0
  1  2  1  1  0  0  0
  3  4  1  1  0  0  0
  3  5  1  0  0  0  0
  5  6  1  6  0  0  0
  7  8  1  1  0  0  0
  7  5  1  0  0  0  0
  9 11  1  6  0  0  0
  9  7  1  0  0  0  0
 10  9  1  0  0  0  0
 10  1  1  0  0  0  0
 12 11  1  0  0  0  0
 13 14  1  6  0  0  0
 15 13  1  0  0  0  0
 16 17  1  6  0  0  0
 16 15  1  0  0  0  0
 18  2  1  1  0  0  0
 18 19  1  0  0  0  0
 18 16  1  0  0  0  0
 19 20  1  6  0  0  0
 19 21  1  0  0  0  0
 21 22  1  1  0  0  0
 21 13  1  0  0  0  0
 23 20  1  6  0  0  0
 23 29  1  0  0  0  0
 24 25  1  1  0  0  0
 24 26  1  0  0  0  0
 24 23  1  0  0  0  0
 26 27  1  1  0  0  0
 26 28  1  0  0  0  0
 28 30  1  6  0  0  0
 29 28  1  0  0  0  0
 30 31  1  0  0  0  0
 32 27  1  1  0  0  0
 32 40  1  0  0  0  0
 33 35  1  0  0  0  0
 33 32  1  0  0  0  0
 33 34  1  1  0  0  0
 35 36  1  6  0  0  0
 35 37  1  0  0  0  0
 37 38  1  1  0  0  0
 37 39  1  0  0  0  0
 39 41  1  1  0  0  0
 40 39  1  0  0  0  0
 41 42  1  0  0  0  0
M  END
>  <CHROM.1>
-85.84519439,65.41995396,-66.00726302,141.82749519,145.98975454,157.28229666
63.28388293,-173.37872753,174.22221317,-1.50329531,11.69533488,35.49200209
1.95755614,0.53441391,-2.93421385

>  <Name>
lig.pdb

>  <RI>
0

>  <Rbt.Current_Directory>
/home/itssahil/PROJECTS/Mol_Feturizer/New_Systems/rnas/4wcr

>  <Rbt.Executable>
rbdock ($Id: //depot/dev/client3/rdock/2013.1/src/exe/rbdock.cxx#4 $)

>  <Rbt.Library>
libRbt.so (2013.1, Build901 2013/11/27)

>  <Rbt.Parameter_File>
/export/apps/rDock/src/rDock_2013.1_src/data/scripts/dock_solv.prm

>  <Rbt.Receptor>
prm/pocket_docking_5.prm

>  <SCORE>
-6.75718

>  <SCORE.INTER>
-5.6279

>  <SCORE.INTER.CONST>
1

>  <SCORE.INTER.POLAR>
0

>  <SCORE.INTER.ROT>
9

>  <SCORE.INTER.SOLV>
20.8009

>  <SCORE.INTER.VDW>
-20.2856

>  <SCORE.INTER.norm>
-0.133998

>  <SCORE.INTRA>
-1.1397

>  <SCORE.INTRA.DIHEDRAL>
-0.669991

>  <SCORE.INTRA.DIHEDRAL.0>
16.2863

>  <SCORE.INTRA.POLAR>
0

>  <SCORE.INTRA.POLAR.0>
0

>  <SCORE.INTRA.REPUL>
-0.15492

>  <SCORE.INTRA.REPUL.0>
0.314433

>  <SCORE.INTRA.SOLV>
-1.50755

>  <SCORE.INTRA.SOLV.lig_0>
-103.824

>  <SCORE.INTRA.VDW>
0.723668

>  <SCORE.INTRA.VDW.0>
-5.30945

>  <SCORE.INTRA.norm>
-0.0271357

>  <SCORE.RESTR>
0.0104148

>  <SCORE.RESTR.CAVITY>
0.0104148

>  <SCORE.RESTR.norm>
0.000247971

>  <SCORE.SYSTEM>
0

>  <SCORE.SYSTEM.CONST>
0

>  <SCORE.SYSTEM.DIHEDRAL>
0

>  <SCORE.SYSTEM.SOLV>
0

>  <SCORE.SYSTEM.norm>
0

>  <SCORE.heavy>
42

>  <SCORE.norm>
-0.160885

>  <RMSD>
9.728

$$$$
lig.pdb
 OpenBabel11021811513D
libRbt.so/2013.1/901 2013/11/27
 42 45  0  0  0  0  0  0  0  0999 V2000
   -6.5232   17.9183   28.6962 C   0  0  2  0  0  0  0  0  0  0  0  0
   -6.7516   16.8381   29.6543 O   0  0  0  0  0  0  0  0  0  0  0  0
   -7.5375   19.0825   29.0911 C   0  0  2  0  0  0  0  0  0  0  0  0
   -7.2474   19.5740   30.4409 N   0  0  0  0  0  0  0  0  0  0  0  0
   -9.0387   18.5275   28.9569 C   0  0  1  0  0  0  0  0  0  0  0  0
  -10.0029   19.5474   29.2929 O   0  0  0  0  0  0  0  0  0  0  0  0
   -9.2143   18.0372   27.5094 C   0  0  2  0  0  0  0  0  0  0  0  0
  -10.5030   17.5476   27.3568 O   0  0  0  0  0  0  0  0  0  0  0  0
   -8.1338   16.9084   27.1828 C   0  0  2  0  0  0  0  0  0  0  0  0
   -6.7988   17.4057   27.3379 O   0  0  0  0  0  0  0  0  0  0  0  0
   -8.2505   16.4079   25.7710 C   0  0  0  0  0  0  0  0  0  0  0  0
   -8.2156   17.5434   24.9056 O   0  0  0  0  0  0  0  0  0  0  0  0
   -5.1841   12.8486   30.8374 C   0  0  2  0  0  0  0  0  0  0  0  0
   -4.3806   11.6457   30.8586 N   0  0  0  0  0  0  0  0  0  0  0  0
   -5.8169   13.0551   29.4071 C   0  0  0  0  0  0  0  0  0  0  0  0
   -6.6909   14.3574   29.3565 C   0  0  2  0  0  0  0  0  0  0  0  0
   -7.2513   14.5151   28.0160 N   0  0  0  0  0  0  0  0  0  0  0  0
   -5.8561   15.6650   29.7192 C   0  0  2  0  0  0  0  0  0  0  0  0
   -5.2698   15.4620   31.1464 C   0  0  2  0  0  0  0  0  0  0  0  0
   -4.5082   16.7390   31.4148 O   0  0  0  0  0  0  0  0  0  0  0  0
   -4.3109   14.1478   31.1746 C   0  0  1  0  0  0  0  0  0  0  0  0
   -3.7445   13.8248   32.4850 O   0  0  0  0  0  0  0  0  0  0  0  0
   -3.8115   16.6670   32.5923 C   0  0  1  0  0  0  0  0  0  0  0  0
   -3.6721   17.9660   33.2589 C   0  0  2  0  0  0  0  0  0  0  0  0
   -2.7519   18.7115   32.5281 O   0  0  0  0  0  0  0  0  0  0  0  0
   -3.3396   17.5279   34.7014 C   0  0  2  0  0  0  0  0  0  0  0  0
   -2.0324   18.0631   35.0089 O   0  0  0  0  0  0  0  0  0  0  0  0
   -3.3519   16.0353   34.6613 C   0  0  2  0  0  0  0  0  0  0  0  0
   -4.3872   15.8846   33.6254 O   0  0  0  0  0  0  0  0  0  0  0  0
   -3.8461   15.4177   36.0210 C   0  0  0  0  0  0  0  0  0  0  0  0
   -4.0712   13.9772   35.9622 O   0  0  0  0  0  0  0  0  0  0  0  0
   -1.3750   17.5519   36.2079 C   0  0  2  0  0  0  0  0  0  0  0  0
   -0.1944   18.5761   36.6220 C   0  0  2  0  0  0  0  0  0  0  0  0
    0.7652   18.7101   35.4784 N   0  0  0  0  0  0  0  0  0  0  0  0
    0.5215   18.0082   37.9444 C   0  0  1  0  0  0  0  0  0  0  0  0
   -0.4998   17.9115   38.9832 O   0  0  0  0  0  0  0  0  0  0  0  0
    1.1587   16.5798   37.6310 C   0  0  2  0  0  0  0  0  0  0  0  0
    2.1890   16.7622   36.5843 O   0  0  0  0  0  0  0  0  0  0  0  0
   -0.0415   15.5799   37.1603 C   0  0  1  0  0  0  0  0  0  0  0  0
   -0.7468   16.1648   35.9623 O   0  0  0  0  0  0  0  0  0  0  0  0
    0.5516   14.1707   36.8270 C   0  0  0  0  0  0  0  0  0  0  0  0
   -0.4905   13.1916   36.3883 N   0  0  0  0  0  0  0  0  0  0  0  0
  1  3  1  0  0  0  0
  1  2  1  1  0  0  0
  3  4  1  1  0  0  0
  3  5  1  0  0  0  0
  5  6  1  6  0  0  0
  7  8  1  1  0  0  0
  7  5  1  0  0  0  0
  9 11  1  6  0  0  0
  9  7  1  0  0  0  0
 10  9  1  0  0  0  0
 10  1  1  0  0  0  0
 12 11  1  0  0  0  0
 13 14  1  6  0  0  0
 15 13  1  0  0  0  0
 16 17  1  6  0  0  0
 16 15  1  0  0  0  0
 18  2  1  1  0  0  0
 18 19  1  0  0  0  0
 18 16  1  0  0  0  0
 19 20  1  6  0  0  0
 19 21  1  0  0  0  0
 21 22  1  1  0  0  0
 21 13  1  0  0  0  0
 23 20  1  6  0  0  0
 23 29  1  0  0  0  0
 24 25  1  6  0  0  0
 24 26  1  0  0  0  0
 24 23  1  0  0  0  0
 26 27  1  6  0  0  0
 26 28  1  0  0  0  0
 28 30  1  1  0  0  0
 29 28  1  0  0  0  0
 30 31  1  0  0  0  0
 32 27  1  6  0  0  0
 32 40  1  0  0  0  0
 33 35  1  0  0  0  0
 33 32  1  0  0  0  0
 33 34  1  6  0  0  0
 35 36  1  1  0  0  0
 35 37  1  0  0  0  0
 37 38  1  6  0  0  0
 37 39  1  0  0  0  0
 39 41  1  6  0  0  0
 40 39  1  0  0  0  0
 41 42  1  0  0  0  0
M  END
>  <CHROM.1>
-171.13193120,52.70552798,-117.29588058,-173.86484547,-149.00172361,-167.38106128
171.06220371,-162.30082436,179.88401167,-4.30981149,16.46741051,32.25192722
3.04908275,0.84934312,-2.95878465

>  <Name>
lig.pdb

>  <RI>
0

>  <Rbt.Current_Directory>
/home/itssahil/PROJECTS/Mol_Feturizer/New_Systems/rnas/4wcr

>  <Rbt.Executable>
rbdock ($Id: //depot/dev/client3/rdock/2013.1/src/exe/rbdock.cxx#4 $)

>  <Rbt.Library>
libRbt.so (2013.1, Build901 2013/11/27)

>  <Rbt.Parameter_File>
/export/apps/rDock/src/rDock_2013.1_src/data/scripts/dock_solv.prm

>  <Rbt.Receptor>
prm/blind_docking_60.prm

>  <SCORE>
-9.77667

>  <SCORE.INTER>
-13.1338

>  <SCORE.INTER.CONST>
1

>  <SCORE.INTER.POLAR>
0

>  <SCORE.INTER.ROT>
9

>  <SCORE.INTER.SOLV>
30.2147

>  <SCORE.INTER.VDW>
-28.4274

>  <SCORE.INTER.norm>
-0.31271

>  <SCORE.INTRA>
0.512643

>  <SCORE.INTRA.DIHEDRAL>
-1.63094

>  <SCORE.INTRA.DIHEDRAL.0>
16.2863

>  <SCORE.INTRA.POLAR>
0

>  <SCORE.INTRA.POLAR.0>
0

>  <SCORE.INTRA.REPUL>
-0.314433

>  <SCORE.INTRA.REPUL.0>
0.314433

>  <SCORE.INTRA.SOLV>
-0.816922

>  <SCORE.INTRA.SOLV.lig_0>
-103.824

>  <SCORE.INTRA.VDW>
3.30874

>  <SCORE.INTRA.VDW.0>
-5.30945

>  <SCORE.INTRA.norm>
0.0122058

>  <SCORE.RESTR>
2.84451

>  <SCORE.RESTR.CAVITY>
2.84451

>  <SCORE.RESTR.norm>
0.0677263

>  <SCORE.SYSTEM>
0

>  <SCORE.SYSTEM.CONST>
0

>  <SCORE.SYSTEM.DIHEDRAL>
0

>  <SCORE.SYSTEM.SOLV>
0

>  <SCORE.SYSTEM.norm>
0

>  <SCORE.heavy>
42

>  <SCORE.norm>
-0.232778

>  <RMSD>
9.731

$$$$
lig.pdb
 OpenBabel11021811513D
libRbt.so/2013.1/901 2013/11/27
 42 45  0  0  0  0  0  0  0  0999 V2000
   -5.7530   15.9439   28.9489 C   0  0  2  0  0  0  0  0  0  0  0  0
   -6.8618   16.3721   29.8001 O   0  0  0  0  0  0  0  0  0  0  0  0
   -6.3956   15.5691   27.5394 C   0  0  2  0  0  0  0  0  0  0  0  0
   -7.0291   16.7467   26.9397 N   0  0  0  0  0  0  0  0  0  0  0  0
   -7.4344   14.3622   27.7496 C   0  0  1  0  0  0  0  0  0  0  0  0
   -8.0401   13.9728   26.4990 O   0  0  0  0  0  0  0  0  0  0  0  0
   -6.6563   13.1990   28.3883 C   0  0  2  0  0  0  0  0  0  0  0  0
   -7.5250   12.1361   28.5868 O   0  0  0  0  0  0  0  0  0  0  0  0
   -6.0090   13.6710   29.7691 C   0  0  2  0  0  0  0  0  0  0  0  0
   -5.1096   14.7693   29.5735 O   0  0  0  0  0  0  0  0  0  0  0  0
   -5.2200   12.5741   30.4261 C   0  0  0  0  0  0  0  0  0  0  0  0
   -4.6194   13.1184   31.6019 O   0  0  0  0  0  0  0  0  0  0  0  0
   -6.6516   20.8026   30.1148 C   0  0  2  0  0  0  0  0  0  0  0  0
   -6.7648   22.1432   30.6466 N   0  0  0  0  0  0  0  0  0  0  0  0
   -8.0488   20.0727   30.1774 C   0  0  0  0  0  0  0  0  0  0  0  0
   -7.9518   18.6130   29.6096 C   0  0  2  0  0  0  0  0  0  0  0  0
   -9.2621   17.9710   29.6922 N   0  0  0  0  0  0  0  0  0  0  0  0
   -6.8944   17.7214   30.4004 C   0  0  2  0  0  0  0  0  0  0  0  0
   -5.5150   18.4345   30.2979 C   0  0  2  0  0  0  0  0  0  0  0  0
   -4.5760   17.5272   31.0581 O   0  0  0  0  0  0  0  0  0  0  0  0
   -5.6058   19.9228   30.9494 C   0  0  1  0  0  0  0  0  0  0  0  0
   -4.3764   20.7119   30.8601 O   0  0  0  0  0  0  0  0  0  0  0  0
   -4.1963   18.0868   32.2497 C   0  0  1  0  0  0  0  0  0  0  0  0
   -3.3811   17.1881   33.0737 C   0  0  2  0  0  0  0  0  0  0  0  0
   -4.2266   16.2035   33.5761 O   0  0  0  0  0  0  0  0  0  0  0  0
   -2.7074   18.1915   34.0342 C   0  0  2  0  0  0  0  0  0  0  0  0
   -3.1252   17.8338   35.3711 O   0  0  0  0  0  0  0  0  0  0  0  0
   -3.2205   19.5290   33.6131 C   0  0  2  0  0  0  0  0  0  0  0  0
   -3.3625   19.2314   32.1781 O   0  0  0  0  0  0  0  0  0  0  0  0
   -2.1509   20.6614   33.8326 C   0  0  0  0  0  0  0  0  0  0  0  0
   -0.8544   20.3666   33.2315 O   0  0  0  0  0  0  0  0  0  0  0  0
   -2.2526   16.9315   36.1163 C   0  0  2  0  0  0  0  0  0  0  0  0
   -2.7393   16.9038   37.6579 C   0  0  2  0  0  0  0  0  0  0  0  0
   -2.7001   18.2959   38.2122 N   0  0  0  0  0  0  0  0  0  0  0  0
   -1.7761   15.9057   38.4703 C   0  0  1  0  0  0  0  0  0  0  0  0
   -1.8863   14.5912   37.8445 O   0  0  0  0  0  0  0  0  0  0  0  0
   -0.2771   16.4473   38.4083 C   0  0  2  0  0  0  0  0  0  0  0  0
   -0.2445   17.7700   39.0713 O   0  0  0  0  0  0  0  0  0  0  0  0
    0.1723   16.5214   36.8416 C   0  0  1  0  0  0  0  0  0  0  0  0
   -0.7850   17.4051   36.0818 O   0  0  0  0  0  0  0  0  0  0  0  0
    1.6356   17.0668   36.7419 C   0  0  0  0  0  0  0  0  0  0  0  0
    2.6178   16.2359   37.5050 N   0  0  0  0  0  0  0  0  0  0  0  0
  1  3  1  0  0  0  0
  1  2  1  1  0  0  0
  3  4  1  1  0  0  0
  3  5  1  0  0  0  0
  5  6  1  6  0  0  0
  7  8  1  1  0  0  0
  7  5  1  0  0  0  0
  9 11  1  6  0  0  0
  9  7  1  0  0  0  0
 10  9  1  0  0  0  0
 10  1  1  0  0  0  0
 12 11  1  0  0  0  0
 13 14  1  1  0  0  0
 15 13  1  0  0  0  0
 16 17  1  1  0  0  0
 16 15  1  0  0  0  0
 18  2  1  6  0  0  0
 18 19  1  0  0  0  0
 18 16  1  0  0  0  0
 19 20  1  1  0  0  0
 19 21  1  0  0  0  0
 21 22  1  6  0  0  0
 21 13  1  0  0  0  0
 23 20  1  6  0  0  0
 23 29  1  0  0  0  0
 24 25  1  1  0  0  0
 24 26  1  0  0  0  0
 24 23  1  0  0  0  0
 26 27  1  1  0  0  0
 26 28  1  0  0  0  0
 28 30  1  6  0  0  0
 29 28  1  0  0  0  0
 30 31  1  0  0  0  0
 32 27  1  6  0  0  0
 32 40  1  0  0  0  0
 33 35  1  0  0  0  0
 33 32  1  0  0  0  0
 33 34  1  1  0  0  0
 35 36  1  6  0  0  0
 35 37  1  0  0  0  0
 37 38  1  6  0  0  0
 37 39  1  0  0  0  0
 39 41  1  1  0  0  0
 40 39  1  0  0  0  0
 41 42  1  0  0  0  0
M  END
>  <CHROM.1>
-120.85301961,176.50030121,105.03110482,-108.52848130,174.81792315,93.10813159
52.35781448,168.72883133,57.70655234,-4.21208245,17.06577930,32.47702365
-2.96059123,-0.91778400,0.08174171

>  <Name>
lig.pdb

>  <RI>
0

>  <Rbt.Current_Directory>
/home/itssahil/PROJECTS/Mol_Feturizer/New_Systems/rnas/4wcr

>  <Rbt.Executable>
rbdock ($Id: //depot/dev/client3/rdock/2013.1/src/exe/rbdock.cxx#4 $)

>  <Rbt.Library>
libRbt.so (2013.1, Build901 2013/11/27)

>  <Rbt.Parameter_File>
/export/apps/rDock/src/rDock_2013.1_src/data/scripts/dock_solv.prm

>  <Rbt.Receptor>
prm/blind_docking_60.prm

>  <SCORE>
3.82712

>  <SCORE.INTER>
-11.307

>  <SCORE.INTER.CONST>
1

>  <SCORE.INTER.POLAR>
0

>  <SCORE.INTER.ROT>
9

>  <SCORE.INTER.SOLV>
37.4541

>  <SCORE.INTER.VDW>
-29.6227

>  <SCORE.INTER.norm>
-0.269214

>  <SCORE.INTRA>
9.96662

>  <SCORE.INTRA.DIHEDRAL>
9.2397

>  <SCORE.INTRA.DIHEDRAL.0>
16.2863

>  <SCORE.INTRA.POLAR>
0

>  <SCORE.INTRA.POLAR.0>
0

>  <SCORE.INTRA.REPUL>
-0.314433

>  <SCORE.INTRA.REPUL.0>
0.314433

>  <SCORE.INTRA.SOLV>
-2.47585

>  <SCORE.INTRA.SOLV.lig_0>
-103.824

>  <SCORE.INTRA.VDW>
8.15686

>  <SCORE.INTRA.VDW.0>
-5.30945

>  <SCORE.INTRA.norm>
0.2373

>  <SCORE.RESTR>
5.16749

>  <SCORE.RESTR.CAVITY>
5.16749

>  <SCORE.RESTR.norm>
0.123035

>  <SCORE.SYSTEM>
0

>  <SCORE.SYSTEM.CONST>
0

>  <SCORE.SYSTEM.DIHEDRAL>
0

>  <SCORE.SYSTEM.SOLV>
0

>  <SCORE.SYSTEM.norm>
0

>  <SCORE.heavy>
42

>  <SCORE.norm>
0.0911219

>  <RMSD>
9.756

$$$$
lig.pdb
 OpenBabel11021811513D
libRbt.so/2013.1/901 2013/11/27
 42 45  0  0  0  0  0  0  0  0999 V2000
   -0.4693    8.3515   36.0324 C   0  0  2  0  0  0  0  0  0  0  0  0
   -1.6695    8.2356   36.8590 O   0  0  0  0  0  0  0  0  0  0  0  0
   -0.8494    7.7390   34.6111 C   0  0  2  0  0  0  0  0  0  0  0  0
   -1.9289    8.5152   33.9947 N   0  0  0  0  0  0  0  0  0  0  0  0
   -1.2460    6.1944   34.8033 C   0  0  1  0  0  0  0  0  0  0  0  0
   -1.5898    5.5842   33.5416 O   0  0  0  0  0  0  0  0  0  0  0  0
   -0.0442    5.4952   35.4616 C   0  0  2  0  0  0  0  0  0  0  0  0
   -0.3525    4.1555   35.6452 O   0  0  0  0  0  0  0  0  0  0  0  0
    0.2973    6.1971   36.8542 C   0  0  2  0  0  0  0  0  0  0  0  0
    0.6172    7.5823   36.6739 O   0  0  0  0  0  0  0  0  0  0  0  0
    1.4790    5.5621   37.5307 C   0  0  0  0  0  0  0  0  0  0  0  0
    1.6049    6.1527   38.8249 O   0  0  0  0  0  0  0  0  0  0  0  0
   -3.2521   10.2154   40.5126 C   0  0  2  0  0  0  0  0  0  0  0  0
   -3.3641   10.6765   41.8793 N   0  0  0  0  0  0  0  0  0  0  0  0
   -3.0705    8.6486   40.4802 C   0  0  0  0  0  0  0  0  0  0  0  0
   -2.9420    8.1232   39.0071 C   0  0  2  0  0  0  0  0  0  0  0  0
   -2.7685    6.6721   39.0218 N   0  0  0  0  0  0  0  0  0  0  0  0
   -1.7132    8.7776   38.2326 C   0  0  2  0  0  0  0  0  0  0  0  0
   -1.9256   10.3192   38.2405 C   0  0  2  0  0  0  0  0  0  0  0  0
   -0.7333   10.8574   37.4846 O   0  0  0  0  0  0  0  0  0  0  0  0
   -1.9906   10.8663   39.7715 C   0  0  1  0  0  0  0  0  0  0  0  0
   -2.2438   12.3018   39.9039 O   0  0  0  0  0  0  0  0  0  0  0  0
   -0.9191   12.1664   37.1250 C   0  0  1  0  0  0  0  0  0  0  0  0
    0.3324   12.8551   36.7924 C   0  0  2  0  0  0  0  0  0  0  0  0
    1.0175   13.0710   37.9843 O   0  0  0  0  0  0  0  0  0  0  0  0
   -0.1942   14.0548   35.9759 C   0  0  2  0  0  0  0  0  0  0  0  0
    0.2024   15.2493   36.6869 O   0  0  0  0  0  0  0  0  0  0  0  0
   -1.6761   13.8746   35.9418 C   0  0  2  0  0  0  0  0  0  0  0  0
   -1.6857   12.4024   35.9558 O   0  0  0  0  0  0  0  0  0  0  0  0
   -2.3000   14.4120   34.6016 C   0  0  0  0  0  0  0  0  0  0  0  0
   -3.7515   14.2775   34.5362 O   0  0  0  0  0  0  0  0  0  0  0  0
    0.2917   16.4816   35.9094 C   0  0  2  0  0  0  0  0  0  0  0  0
    0.4569   17.7229   36.9321 C   0  0  2  0  0  0  0  0  0  0  0  0
   -0.7096   17.7448   37.8730 N   0  0  0  0  0  0  0  0  0  0  0  0
    0.5583   19.0747   36.0682 C   0  0  1  0  0  0  0  0  0  0  0  0
    1.7154   18.9413   35.1879 O   0  0  0  0  0  0  0  0  0  0  0  0
   -0.7834   19.2690   35.2276 C   0  0  2  0  0  0  0  0  0  0  0  0
   -1.9027   19.4100   36.1854 O   0  0  0  0  0  0  0  0  0  0  0  0
   -0.9592   17.9783   34.2452 C   0  0  1  0  0  0  0  0  0  0  0  0
   -0.9802   16.7148   35.0686 O   0  0  0  0  0  0  0  0  0  0  0  0
   -2.2778   18.1273   33.4160 C   0  0  0  0  0  0  0  0  0  0  0  0
   -3.5048   18.1227   34.2714 N   0  0  0  0  0  0  0  0  0  0  0  0
  1  3  1  0  0  0  0
  1  2  1  1  0  0  0
  3  4  1  1  0  0  0
  3  5  1  0  0  0  0
  5  6  1  6  0  0  0
  7  8  1  1  0  0  0
  7  5  1  0  0  0  0
  9 11  1  6  0  0  0
  9  7  1  0  0  0  0
 10  9  1  0  0  0  0
 10  1  1  0  0  0  0
 12 11  1  0  0  0  0
 13 14  1  1  0  0  0
 15 13  1  0  0  0  0
 16 17  1  1  0  0  0
 16 15  1  0  0  0  0
 18  2  1  6  0  0  0
 18 19  1  0  0  0  0
 18 16  1  0  0  0  0
 19 20  1  6  0  0  0
 19 21  1  0  0  0  0
 21 22  1  6  0  0  0
 21 13  1  0  0  0  0
 23 20  1  6  0  0  0
 23 29  1  0  0  0  0
 24 25  1  1  0  0  0
 24 26  1  0  0  0  0
 24 23  1  0  0  0  0
 26 27  1  1  0  0  0
 26 28  1  0  0  0  0
 28 30  1  6  0  0  0
 29 28  1  0  0  0  0
 30 31  1  0  0  0  0
 32 27  1  1  0  0  0
 32 40  1  0  0  0  0
 33 35  1  0  0  0  0
 33 32  1  0  0  0  0
 33 34  1  1  0  0  0
 35 36  1  6  0  0  0
 35 37  1  0  0  0  0
 37 38  1  1  0  0  0
 37 39  1  0  0  0  0
 39 41  1  1  0  0  0
 40 39  1  0  0  0  0
 41 42  1  0  0  0  0
M  END
>  <CHROM.1>
-176.44332386,-173.40694493,-162.90513195,165.64839357,161.25572900,157.05219717
-178.95070087,168.93129643,-63.81437856,-1.06475888,11.88030065,36.68721682
-1.57406452,1.33480116,-0.13169806

>  <Name>
lig.pdb

>  <RI>
0

>  <Rbt.Current_Directory>
/home/itssahil/PROJECTS/Mol_Feturizer/New_Systems/rnas/4wcr

>  <Rbt.Executable>
rbdock ($Id: //depot/dev/client3/rdock/2013.1/src/exe/rbdock.cxx#4 $)

>  <Rbt.Library>
libRbt.so (2013.1, Build901 2013/11/27)

>  <Rbt.Parameter_File>
/export/apps/rDock/src/rDock_2013.1_src/data/scripts/dock_solv.prm

>  <Rbt.Receptor>
prm/pocket_docking_4.prm

>  <SCORE>
-7.77186

>  <SCORE.INTER>
-1.32826

>  <SCORE.INTER.CONST>
1

>  <SCORE.INTER.POLAR>
0

>  <SCORE.INTER.ROT>
9

>  <SCORE.INTER.SOLV>
21.6245

>  <SCORE.INTER.VDW>
-17.6937

>  <SCORE.INTER.norm>
-0.0316253

>  <SCORE.INTRA>
-6.44854

>  <SCORE.INTRA.DIHEDRAL>
-8.73557

>  <SCORE.INTRA.DIHEDRAL.0>
16.2863

>  <SCORE.INTRA.POLAR>
0

>  <SCORE.INTRA.POLAR.0>
0

>  <SCORE.INTRA.REPUL>
-0.314433

>  <SCORE.INTRA.REPUL.0>
0.314433

>  <SCORE.INTRA.SOLV>
-3.01287

>  <SCORE.INTRA.SOLV.lig_0>
-103.824

>  <SCORE.INTRA.VDW>
0.997849

>  <SCORE.INTRA.VDW.0>
-5.30945

>  <SCORE.INTRA.norm>
-0.153537

>  <SCORE.RESTR>
0.00493634

>  <SCORE.RESTR.CAVITY>
0.00493634

>  <SCORE.RESTR.norm>
0.000117532

>  <SCORE.SYSTEM>
0

>  <SCORE.SYSTEM.CONST>
0

>  <SCORE.SYSTEM.DIHEDRAL>
0

>  <SCORE.SYSTEM.SOLV>
0

>  <SCORE.SYSTEM.norm>
0

>  <SCORE.heavy>
42

>  <SCORE.norm>
-0.185044

>  <RMSD>
9.805

$$$$
lig.pdb
 OpenBabel11021811513D
libRbt.so/2013.1/901 2013/11/27
 42 45  0  0  0  0  0  0  0  0999 V2000
   -1.4163   11.6444   34.0014 C   0  0  2  0  0  0  0  0  0  0  0  0
   -2.7300   11.1001   34.3404 O   0  0  0  0  0  0  0  0  0  0  0  0
   -0.9797   10.9348   32.6428 C   0  0  2  0  0  0  0  0  0  0  0  0
   -1.9228   11.2646   31.5706 N   0  0  0  0  0  0  0  0  0  0  0  0
   -0.8780    9.3520   32.8960 C   0  0  1  0  0  0  0  0  0  0  0  0
   -0.4737    8.6578   31.6972 O   0  0  0  0  0  0  0  0  0  0  0  0
    0.1276    9.1385   34.0404 C   0  0  2  0  0  0  0  0  0  0  0  0
    0.2397    7.7785   34.2885 O   0  0  0  0  0  0  0  0  0  0  0  0
   -0.3606    9.9173   35.3456 C   0  0  2  0  0  0  0  0  0  0  0  0
   -0.4793   11.3238   35.0983 O   0  0  0  0  0  0  0  0  0  0  0  0
    0.5991    9.7562   36.4902 C   0  0  0  0  0  0  0  0  0  0  0  0
    0.5795    8.3826   36.8807 O   0  0  0  0  0  0  0  0  0  0  0  0
   -5.9632   12.5611   37.0208 C   0  0  2  0  0  0  0  0  0  0  0  0
   -6.7110   12.8695   38.2202 N   0  0  0  0  0  0  0  0  0  0  0  0
   -5.6023   11.0258   36.9842 C   0  0  0  0  0  0  0  0  0  0  0  0
   -4.7860   10.6658   35.6933 C   0  0  2  0  0  0  0  0  0  0  0  0
   -4.4666    9.2398   35.7018 N   0  0  0  0  0  0  0  0  0  0  0  0
   -3.4294   11.4935   35.5807 C   0  0  2  0  0  0  0  0  0  0  0  0
   -3.8042   13.0039   35.5802 C   0  0  2  0  0  0  0  0  0  0  0  0
   -2.4745   13.7114   35.4616 O   0  0  0  0  0  0  0  0  0  0  0  0
   -4.5915   13.3845   36.9523 C   0  0  1  0  0  0  0  0  0  0  0  0
   -5.0442   14.7736   37.0394 O   0  0  0  0  0  0  0  0  0  0  0  0
   -2.6399   15.0404   35.1725 C   0  0  1  0  0  0  0  0  0  0  0  0
   -1.3730   15.7760   35.1011 C   0  0  2  0  0  0  0  0  0  0  0  0
   -0.8978   15.9125   36.4020 O   0  0  0  0  0  0  0  0  0  0  0  0
   -1.7967   17.0248   34.2986 C   0  0  2  0  0  0  0  0  0  0  0  0
   -1.5583   18.1683   35.1500 O   0  0  0  0  0  0  0  0  0  0  0  0
   -3.2470   16.8200   34.0082 C   0  0  2  0  0  0  0  0  0  0  0  0
   -3.2131   15.3511   33.9134 O   0  0  0  0  0  0  0  0  0  0  0  0
   -3.6611   17.4470   32.6262 C   0  0  0  0  0  0  0  0  0  0  0  0
   -3.5333   18.8998   32.5806 O   0  0  0  0  0  0  0  0  0  0  0  0
   -1.4499   19.4683   34.4947 C   0  0  2  0  0  0  0  0  0  0  0  0
    0.1035   19.7325   34.1324 C   0  0  2  0  0  0  0  0  0  0  0  0
    0.9190   19.6757   35.3887 N   0  0  0  0  0  0  0  0  0  0  0  0
    0.2134   21.1634   33.4082 C   0  0  1  0  0  0  0  0  0  0  0  0
   -0.6196   21.1086   32.2105 O   0  0  0  0  0  0  0  0  0  0  0  0
   -0.2887   22.3027   34.4054 C   0  0  2  0  0  0  0  0  0  0  0  0
    0.6094   22.3047   35.5816 O   0  0  0  0  0  0  0  0  0  0  0  0
   -1.8388   21.9839   34.8022 C   0  0  1  0  0  0  0  0  0  0  0  0
   -1.9319   20.6088   35.4146 O   0  0  0  0  0  0  0  0  0  0  0  0
   -2.3598   23.0748   35.7957 C   0  0  0  0  0  0  0  0  0  0  0  0
   -3.7681   22.8322   36.2376 N   0  0  0  0  0  0  0  0  0  0  0  0
  1  3  1  0  0  0  0
  1  2  1  1  0  0  0
  3  4  1  6  0  0  0
  3  5  1  0  0  0  0
  5  6  1  6  0  0  0
  7  8  1  1  0  0  0
  7  5  1  0  0  0  0
  9 11  1  1  0  0  0
  9  7  1  0  0  0  0
 10  9  1  0  0  0  0
 10  1  1  0  0  0  0
 12 11  1  0  0  0  0
 13 14  1  1  0  0  0
 15 13  1  0  0  0  0
 16 17  1  1  0  0  0
 16 15  1  0  0  0  0
 18  2  1  6  0  0  0
 18 19  1  0  0  0  0
 18 16  1  0  0  0  0
 19 20  1  1  0  0  0
 19 21  1  0  0  0  0
 21 22  1  6  0  0  0
 21 13  1  0  0  0  0
 23 20  1  6  0  0  0
 23 29  1  0  0  0  0
 24 25  1  1  0  0  0
 24 26  1  0  0  0  0
 24 23  1  0  0  0  0
 26 27  1  1  0  0  0
 26 28  1  0  0  0  0
 28 30  1  6  0  0  0
 29 28  1  0  0  0  0
 30 31  1  0  0  0  0
 32 27  1  1  0  0  0
 32 40  1  0  0  0  0
 33 35  1  0  0  0  0
 33 32  1  0  0  0  0
 33 34  1  1  0  0  0
 35 36  1  6  0  0  0
 35 37  1  0  0  0  0
 37 38  1  1  0  0  0
 37 39  1  0  0  0  0
 39 41  1  1  0  0  0
 40 39  1  0  0  0  0
 41 42  1  0  0  0  0
M  END
>  <CHROM.1>
177.52958447,-66.30561938,-176.76710434,167.55942332,177.72616898,160.08644595
-64.60051381,-90.82836639,-178.47406272,-2.04581905,14.92163536,34.87049539
-1.61759922,0.50552383,0.00082819

>  <Name>
lig.pdb

>  <RI>
0

>  <Rbt.Current_Directory>
/home/itssahil/PROJECTS/Mol_Feturizer/New_Systems/rnas/4wcr

>  <Rbt.Executable>
rbdock ($Id: //depot/dev/client3/rdock/2013.1/src/exe/rbdock.cxx#4 $)

>  <Rbt.Library>
libRbt.so (2013.1, Build901 2013/11/27)

>  <Rbt.Parameter_File>
/export/apps/rDock/src/rDock_2013.1_src/data/scripts/dock_solv.prm

>  <Rbt.Receptor>
prm/pocket_docking_4.prm

>  <SCORE>
-10.2475

>  <SCORE.INTER>
-2.47292

>  <SCORE.INTER.CONST>
1

>  <SCORE.INTER.POLAR>
0

>  <SCORE.INTER.ROT>
9

>  <SCORE.INTER.SOLV>
22.8291

>  <SCORE.INTER.VDW>
-18.8583

>  <SCORE.INTER.norm>
-0.058879

>  <SCORE.INTRA>
-7.81389

>  <SCORE.INTRA.DIHEDRAL>
-9.17354

>  <SCORE.INTRA.DIHEDRAL.0>
16.2863

>  <SCORE.INTRA.POLAR>
0

>  <SCORE.INTRA.POLAR.0>
0

>  <SCORE.INTRA.REPUL>
-0.314433

>  <SCORE.INTRA.REPUL.0>
0.314433

>  <SCORE.INTRA.SOLV>
-5.46506

>  <SCORE.INTRA.SOLV.lig_0>
-103.824

>  <SCORE.INTRA.VDW>
1.07757

>  <SCORE.INTRA.VDW.0>
-5.30945

>  <SCORE.INTRA.norm>
-0.186045

>  <SCORE.RESTR>
0.0393215

>  <SCORE.RESTR.CAVITY>
0.0393215

>  <SCORE.RESTR.norm>
0.000936225

>  <SCORE.SYSTEM>
0

>  <SCORE.SYSTEM.CONST>
0

>  <SCORE.SYSTEM.DIHEDRAL>
0

>  <SCORE.SYSTEM.SOLV>
0

>  <SCORE.SYSTEM.norm>
0

>  <SCORE.heavy>
42

>  <SCORE.norm>
-0.243988

>  <RMSD>
9.817

$$$$
lig.pdb
 OpenBabel11021811513D
libRbt.so/2013.1/901 2013/11/27
 42 45  0  0  0  0  0  0  0  0999 V2000
   -2.9576    7.0746   39.7053 C   0  0  2  0  0  0  0  0  0  0  0  0
   -2.6663    7.7963   38.4678 O   0  0  0  0  0  0  0  0  0  0  0  0
   -2.4726    8.0192   40.8937 C   0  0  2  0  0  0  0  0  0  0  0  0
   -3.2278    9.2752   40.8860 N   0  0  0  0  0  0  0  0  0  0  0  0
   -0.8914    8.2611   40.7493 C   0  0  1  0  0  0  0  0  0  0  0  0
   -0.3944    9.1040   41.8100 O   0  0  0  0  0  0  0  0  0  0  0  0
   -0.2171    6.8784   40.7619 C   0  0  2  0  0  0  0  0  0  0  0  0
    1.1536    7.0487   40.6367 O   0  0  0  0  0  0  0  0  0  0  0  0
   -0.7909    5.9829   39.5714 C   0  0  2  0  0  0  0  0  0  0  0  0
   -2.2072    5.8016   39.6927 O   0  0  0  0  0  0  0  0  0  0  0  0
   -0.1768    4.6118   39.5509 C   0  0  0  0  0  0  0  0  0  0  0  0
   -0.6769    3.9315   38.3990 O   0  0  0  0  0  0  0  0  0  0  0  0
   -3.8749    6.8546   34.2934 C   0  0  2  0  0  0  0  0  0  0  0  0
   -4.6991    6.6129   33.1292 N   0  0  0  0  0  0  0  0  0  0  0  0
   -4.3084    5.9023   35.4741 C   0  0  0  0  0  0  0  0  0  0  0  0
   -3.4313    6.1480   36.7519 C   0  0  2  0  0  0  0  0  0  0  0  0
   -3.8688    5.2534   37.8215 N   0  0  0  0  0  0  0  0  0  0  0  0
   -3.5223    7.6510   37.2726 C   0  0  2  0  0  0  0  0  0  0  0  0
   -3.0563    8.5753   36.1105 C   0  0  2  0  0  0  0  0  0  0  0  0
   -3.1624    9.9685   36.6854 O   0  0  0  0  0  0  0  0  0  0  0  0
   -4.0122    8.3638   34.8109 C   0  0  1  0  0  0  0  0  0  0  0  0
   -3.6337    9.1448   33.6324 O   0  0  0  0  0  0  0  0  0  0  0  0
   -2.5729   10.8937   35.8645 C   0  0  1  0  0  0  0  0  0  0  0  0
   -2.7369   12.2717   36.3392 C   0  0  2  0  0  0  0  0  0  0  0  0
   -4.0641   12.6305   36.1234 O   0  0  0  0  0  0  0  0  0  0  0  0
   -1.6077   12.9898   35.5696 C   0  0  2  0  0  0  0  0  0  0  0  0
   -2.2400   13.9872   34.7360 O   0  0  0  0  0  0  0  0  0  0  0  0
   -0.9435   11.9157   34.7728 C   0  0  2  0  0  0  0  0  0  0  0  0
   -1.1642   10.8138   35.7241 O   0  0  0  0  0  0  0  0  0  0  0  0
    0.5963   12.1850   34.5970 C   0  0  0  0  0  0  0  0  0  0  0  0
    1.3319   12.2212   35.8567 O   0  0  0  0  0  0  0  0  0  0  0  0
   -2.2867   15.3501   35.2570 C   0  0  2  0  0  0  0  0  0  0  0  0
   -3.1714   16.2544   34.2502 C   0  0  2  0  0  0  0  0  0  0  0  0
   -2.5638   16.2052   32.8808 N   0  0  0  0  0  0  0  0  0  0  0  0
   -3.2209   17.7517   34.8328 C   0  0  1  0  0  0  0  0  0  0  0  0
   -3.8189   17.6802   36.1628 O   0  0  0  0  0  0  0  0  0  0  0  0
   -1.7414   18.3442   34.8995 C   0  0  2  0  0  0  0  0  0  0  0  0
   -1.2112   18.3980   33.5189 O   0  0  0  0  0  0  0  0  0  0  0  0
   -0.8526   17.3840   35.8742 C   0  0  1  0  0  0  0  0  0  0  0  0
   -0.8773   15.9698   35.3505 O   0  0  0  0  0  0  0  0  0  0  0  0
    0.6130   17.9270   35.9491 C   0  0  0  0  0  0  0  0  0  0  0  0
    1.4440   17.2155   36.9692 N   0  0  0  0  0  0  0  0  0  0  0  0
  1  3  1  0  0  0  0
  1  2  1  6  0  0  0
  3  4  1  6  0  0  0
  3  5  1  0  0  0  0
  5  6  1  1  0  0  0
  7  8  1  6  0  0  0
  7  5  1  0  0  0  0
  9 11  1  1  0  0  0
  9  7  1  0  0  0  0
 10  9  1  0  0  0  0
 10  1  1  0  0  0  0
 12 11  1  0  0  0  0
 13 14  1  6  0  0  0
 15 13  1  0  0  0  0
 16 17  1  1  0  0  0
 16 15  1  0  0  0  0
 18  2  1  1  0  0  0
 18 19  1  0  0  0  0
 18 16  1  0  0  0  0
 19 20  1  1  0  0  0
 19 21  1  0  0  0  0
 21 22  1  6  0  0  0
 21 13  1  0  0  0  0
 23 20  1  1  0  0  0
 23 29  1  0  0  0  0
 24 25  1  6  0  0  0
 24 26  1  0  0  0  0
 24 23  1  0  0  0  0
 26 27  1  6  0  0  0
 26 28  1  0  0  0  0
 28 30  1  1  0  0  0
 29 28  1  0  0  0  0
 30 31  1  0  0  0  0
 32 27  1  6  0  0  0
 32 40  1  0  0  0  0
 33 35  1  0  0  0  0
 33 32  1  0  0  0  0
 33 34  1  6  0  0  0
 35 36  1  1  0  0  0
 35 37  1  0  0  0  0
 37 38  1  6  0  0  0
 37 39  1  0  0  0  0
 39 41  1  6  0  0  0
 40 39  1  0  0  0  0
 41 42  1  0  0  0  0
M  END
>  <CHROM.1>
-147.70223278,-175.69455120,-64.59060055,169.69732946,175.91452143,96.89027313
61.67709513,-173.81448018,172.03757370,-1.97903966,10.87945509,36.73678764
-1.64362374,-0.95129882,-0.40430797

>  <Name>
lig.pdb

>  <RI>
0

>  <Rbt.Current_Directory>
/home/itssahil/PROJECTS/Mol_Feturizer/New_Systems/rnas/4wcr

>  <Rbt.Executable>
rbdock ($Id: //depot/dev/client3/rdock/2013.1/src/exe/rbdock.cxx#4 $)

>  <Rbt.Library>
libRbt.so (2013.1, Build901 2013/11/27)

>  <Rbt.Parameter_File>
/export/apps/rDock/src/rDock_2013.1_src/data/scripts/dock_solv.prm

>  <Rbt.Receptor>
prm/pocket_docking_4.prm

>  <SCORE>
-3.78832

>  <SCORE.INTER>
0.769935

>  <SCORE.INTER.CONST>
1

>  <SCORE.INTER.POLAR>
0

>  <SCORE.INTER.ROT>
9

>  <SCORE.INTER.SOLV>
25.3246

>  <SCORE.INTER.VDW>
-17.5283

>  <SCORE.INTER.norm>
0.0183318

>  <SCORE.INTRA>
-4.55825

>  <SCORE.INTRA.DIHEDRAL>
-5.78285

>  <SCORE.INTRA.DIHEDRAL.0>
16.2863

>  <SCORE.INTRA.POLAR>
0

>  <SCORE.INTRA.POLAR.0>
0

>  <SCORE.INTRA.REPUL>
-0.314433

>  <SCORE.INTRA.REPUL.0>
0.314433

>  <SCORE.INTRA.SOLV>
-3.10865

>  <SCORE.INTRA.SOLV.lig_0>
-103.824

>  <SCORE.INTRA.VDW>
1.45966

>  <SCORE.INTRA.VDW.0>
-5.30945

>  <SCORE.INTRA.norm>
-0.10853

>  <SCORE.RESTR>
0

>  <SCORE.RESTR.CAVITY>
0

>  <SCORE.RESTR.norm>
0

>  <SCORE.SYSTEM>
0

>  <SCORE.SYSTEM.CONST>
0

>  <SCORE.SYSTEM.DIHEDRAL>
0

>  <SCORE.SYSTEM.SOLV>
0

>  <SCORE.SYSTEM.norm>
0

>  <SCORE.heavy>
42

>  <SCORE.norm>
-0.090198

>  <RMSD>
9.819

$$$$
lig.pdb
 OpenBabel11021811513D
libRbt.so/2013.1/901 2013/11/27
 42 45  0  0  0  0  0  0  0  0999 V2000
   -5.7327   15.8959   29.1487 C   0  0  2  0  0  0  0  0  0  0  0  0
   -6.8898   16.3041   29.9436 O   0  0  0  0  0  0  0  0  0  0  0  0
   -6.2874   15.5808   27.6882 C   0  0  2  0  0  0  0  0  0  0  0  0
   -6.8714   16.7867   27.0946 N   0  0  0  0  0  0  0  0  0  0  0  0
   -7.3476   14.3783   27.7864 C   0  0  1  0  0  0  0  0  0  0  0  0
   -7.8758   14.0423   26.4861 O   0  0  0  0  0  0  0  0  0  0  0  0
   -6.6217   13.1837   28.4286 C   0  0  2  0  0  0  0  0  0  0  0  0
   -7.5102   12.1237   28.5313 O   0  0  0  0  0  0  0  0  0  0  0  0
   -6.0597   13.5970   29.8645 C   0  0  2  0  0  0  0  0  0  0  0  0
   -5.1403   14.6920   29.7679 O   0  0  0  0  0  0  0  0  0  0  0  0
   -5.3234   12.4679   30.5281 C   0  0  0  0  0  0  0  0  0  0  0  0
   -4.0762   12.3080   29.8509 O   0  0  0  0  0  0  0  0  0  0  0  0
   -6.0171   20.5827   30.7827 C   0  0  2  0  0  0  0  0  0  0  0  0
   -6.1108   21.9142   31.3408 N   0  0  0  0  0  0  0  0  0  0  0  0
   -7.3891   20.1726   30.1207 C   0  0  0  0  0  0  0  0  0  0  0  0
   -7.3150   18.7286   29.5109 C   0  0  2  0  0  0  0  0  0  0  0  0
   -8.6048   18.3854   28.9155 N   0  0  0  0  0  0  0  0  0  0  0  0
   -6.9446   17.6264   30.6000 C   0  0  2  0  0  0  0  0  0  0  0  0
   -5.5725   18.0241   31.2170 C   0  0  2  0  0  0  0  0  0  0  0  0
   -5.2927   16.9323   32.2231 O   0  0  0  0  0  0  0  0  0  0  0  0
   -5.6752   19.4944   31.9064 C   0  0  1  0  0  0  0  0  0  0  0  0
   -4.4240   19.9988   32.4742 O   0  0  0  0  0  0  0  0  0  0  0  0
   -4.2382   17.2591   33.0346 C   0  0  1  0  0  0  0  0  0  0  0  0
   -3.4314   16.0984   33.4255 C   0  0  2  0  0  0  0  0  0  0  0  0
   -4.1741   15.3677   34.3481 O   0  0  0  0  0  0  0  0  0  0  0  0
   -2.1162   16.7805   33.8594 C   0  0  2  0  0  0  0  0  0  0  0  0
   -1.9181   16.4553   35.2539 O   0  0  0  0  0  0  0  0  0  0  0  0
   -2.3500   18.2388   33.6396 C   0  0  2  0  0  0  0  0  0  0  0  0
   -3.2495   18.1113   32.4809 O   0  0  0  0  0  0  0  0  0  0  0  0
   -1.0296   18.9871   33.2260 C   0  0  0  0  0  0  0  0  0  0  0  0
   -1.1690   20.4388   33.1807 O   0  0  0  0  0  0  0  0  0  0  0  0
   -0.5568   16.5624   35.7700 C   0  0  2  0  0  0  0  0  0  0  0  0
   -0.5436   16.0310   37.2969 C   0  0  2  0  0  0  0  0  0  0  0  0
   -1.5091   16.8405   38.1088 N   0  0  0  0  0  0  0  0  0  0  0  0
    0.9589   16.1487   37.8562 C   0  0  1  0  0  0  0  0  0  0  0  0
    1.8084   15.3339   36.9924 O   0  0  0  0  0  0  0  0  0  0  0  0
    1.4151   17.6770   37.8337 C   0  0  2  0  0  0  0  0  0  0  0  0
    0.5198   18.4314   38.7390 O   0  0  0  0  0  0  0  0  0  0  0  0
    1.3387   18.2079   36.2929 C   0  0  1  0  0  0  0  0  0  0  0  0
   -0.0611   18.0230   35.7627 O   0  0  0  0  0  0  0  0  0  0  0  0
    1.7640   19.7127   36.2359 C   0  0  0  0  0  0  0  0  0  0  0  0
    1.6982   20.2824   34.8544 N   0  0  0  0  0  0  0  0  0  0  0  0
  1  3  1  0  0  0  0
  1  2  1  1  0  0  0
  3  4  1  1  0  0  0
  3  5  1  0  0  0  0
  5  6  1  6  0  0  0
  7  8  1  1  0  0  0
  7  5  1  0  0  0  0
  9 11  1  6  0  0  0
  9  7  1  0  0  0  0
 10  9  1  0  0  0  0
 10  1  1  0  0  0  0
 12 11  1  0  0  0  0
 13 14  1  1  0  0  0
 15 13  1  0  0  0  0
 16 17  1  1  0  0  0
 16 15  1  0  0  0  0
 18  2  1  6  0  0  0
 18 19  1  0  0  0  0
 18 16  1  0  0  0  0
 19 20  1  1  0  0  0
 19 21  1  0  0  0  0
 21 22  1  6  0  0  0
 21 13  1  0  0  0  0
 23 20  1  6  0  0  0
 23 29  1  0  0  0  0
 24 25  1  1  0  0  0
 24 26  1  0  0  0  0
 24 23  1  0  0  0  0
 26 27  1  1  0  0  0
 26 28  1  0  0  0  0
 28 30  1  6  0  0  0
 29 28  1  0  0  0  0
 30 31  1  0  0  0  0
 32 27  1  1  0  0  0
 32 40  1  0  0  0  0
 33 35  1  0  0  0  0
 33 32  1  0  0  0  0
 33 34  1  1  0  0  0
 35 36  1  6  0  0  0
 35 37  1  0  0  0  0
 37 38  1  1  0  0  0
 37 39  1  0  0  0  0
 39 41  1  1  0  0  0
 40 39  1  0  0  0  0
 41 42  1  0  0  0  0
M  END
>  <CHROM.1>
-121.33801971,72.77044310,78.32920661,-168.73059775,-145.78193946,158.72556847
-172.00117564,-175.02525762,-179.03983644,-3.69977033,16.97830323,32.44512714
-2.84923591,-0.79903043,0.11956535

>  <Name>
lig.pdb

>  <RI>
0

>  <Rbt.Current_Directory>
/home/itssahil/PROJECTS/Mol_Feturizer/New_Systems/rnas/4wcr

>  <Rbt.Executable>
rbdock ($Id: //depot/dev/client3/rdock/2013.1/src/exe/rbdock.cxx#4 $)

>  <Rbt.Library>
libRbt.so (2013.1, Build901 2013/11/27)

>  <Rbt.Parameter_File>
/export/apps/rDock/src/rDock_2013.1_src/data/scripts/dock_solv.prm

>  <Rbt.Receptor>
prm/blind_docking_60.prm

>  <SCORE>
-11.6084

>  <SCORE.INTER>
-18.6381

>  <SCORE.INTER.CONST>
1

>  <SCORE.INTER.POLAR>
0

>  <SCORE.INTER.ROT>
9

>  <SCORE.INTER.SOLV>
34.9715

>  <SCORE.INTER.VDW>
-33.6826

>  <SCORE.INTER.norm>
-0.443763

>  <SCORE.INTRA>
4.63002

>  <SCORE.INTRA.DIHEDRAL>
0.764414

>  <SCORE.INTRA.DIHEDRAL.0>
16.2863

>  <SCORE.INTRA.POLAR>
0

>  <SCORE.INTRA.POLAR.0>
0

>  <SCORE.INTRA.REPUL>
-0.314433

>  <SCORE.INTRA.REPUL.0>
0.314433

>  <SCORE.INTRA.SOLV>
0.218329

>  <SCORE.INTRA.SOLV.lig_0>
-103.824

>  <SCORE.INTRA.VDW>
5.71082

>  <SCORE.INTRA.VDW.0>
-5.30945

>  <SCORE.INTRA.norm>
0.110239

>  <SCORE.RESTR>
2.39961

>  <SCORE.RESTR.CAVITY>
2.39961

>  <SCORE.RESTR.norm>
0.0571337

>  <SCORE.SYSTEM>
0

>  <SCORE.SYSTEM.CONST>
0

>  <SCORE.SYSTEM.DIHEDRAL>
0

>  <SCORE.SYSTEM.SOLV>
0

>  <SCORE.SYSTEM.norm>
0

>  <SCORE.heavy>
42

>  <SCORE.norm>
-0.276391

>  <RMSD>
9.825

$$$$
lig.pdb
 OpenBabel11021811513D
libRbt.so/2013.1/901 2013/11/27
 42 45  0  0  0  0  0  0  0  0999 V2000
   -3.0187    7.0218   39.3796 C   0  0  2  0  0  0  0  0  0  0  0  0
   -2.7867    7.8722   38.2133 O   0  0  0  0  0  0  0  0  0  0  0  0
   -2.7768    7.9449   40.6561 C   0  0  2  0  0  0  0  0  0  0  0  0
   -3.7386    9.0505   40.6742 N   0  0  0  0  0  0  0  0  0  0  0  0
   -1.2566    8.4631   40.6385 C   0  0  1  0  0  0  0  0  0  0  0  0
   -0.9778    9.2977   41.7823 O   0  0  0  0  0  0  0  0  0  0  0  0
   -0.3526    7.2188   40.6116 C   0  0  2  0  0  0  0  0  0  0  0  0
    0.9721    7.6294   40.5939 O   0  0  0  0  0  0  0  0  0  0  0  0
   -0.6902    6.3290   39.3299 C   0  0  2  0  0  0  0  0  0  0  0  0
   -2.0575    5.9001   39.3399 O   0  0  0  0  0  0  0  0  0  0  0  0
    0.1546    5.0882   39.2666 C   0  0  0  0  0  0  0  0  0  0  0  0
   -0.1797    4.3987   38.0614 O   0  0  0  0  0  0  0  0  0  0  0  0
   -3.3945    6.9035   33.9163 C   0  0  2  0  0  0  0  0  0  0  0  0
   -4.0447    6.5694   32.6678 N   0  0  0  0  0  0  0  0  0  0  0  0
   -3.7664    5.8437   35.0241 C   0  0  0  0  0  0  0  0  0  0  0  0
   -3.0762    6.1865   36.3910 C   0  0  2  0  0  0  0  0  0  0  0  0
   -3.4514    5.1872   37.3893 N   0  0  0  0  0  0  0  0  0  0  0  0
   -3.4821    7.6287   36.9329 C   0  0  2  0  0  0  0  0  0  0  0  0
   -3.0752    8.6657   35.8464 C   0  0  2  0  0  0  0  0  0  0  0  0
   -3.4819    9.9951   36.4381 O   0  0  0  0  0  0  0  0  0  0  0  0
   -3.8465    8.3439   34.4503 C   0  0  1  0  0  0  0  0  0  0  0  0
   -3.4983    9.2255   33.3351 O   0  0  0  0  0  0  0  0  0  0  0  0
   -2.5651   10.9716   36.1496 C   0  0  1  0  0  0  0  0  0  0  0  0
   -2.8578   12.2488   36.8087 C   0  0  2  0  0  0  0  0  0  0  0  0
   -3.9555   12.8083   36.1616 O   0  0  0  0  0  0  0  0  0  0  0  0
   -1.4817   12.9447   36.7373 C   0  0  2  0  0  0  0  0  0  0  0  0
   -1.6641   14.1508   35.9616 O   0  0  0  0  0  0  0  0  0  0  0  0
   -0.5880   11.9586   36.0603 C   0  0  2  0  0  0  0  0  0  0  0  0
   -1.2324   10.7386   36.5742 O   0  0  0  0  0  0  0  0  0  0  0  0
    0.8925   12.0557   36.5831 C   0  0  0  0  0  0  0  0  0  0  0  0
    1.4615   13.3957   36.4843 O   0  0  0  0  0  0  0  0  0  0  0  0
   -0.6286   15.1732   36.0773 C   0  0  2  0  0  0  0  0  0  0  0  0
   -0.4311   15.5288   37.6421 C   0  0  2  0  0  0  0  0  0  0  0  0
   -1.7371   15.9962   38.2100 N   0  0  0  0  0  0  0  0  0  0  0  0
    0.7128   16.6519   37.7609 C   0  0  1  0  0  0  0  0  0  0  0  0
    1.9290   16.0963   37.1746 O   0  0  0  0  0  0  0  0  0  0  0  0
    0.2491   17.9656   36.9840 C   0  0  2  0  0  0  0  0  0  0  0  0
   -0.9747   18.4744   37.6426 O   0  0  0  0  0  0  0  0  0  0  0  0
    0.0003   17.5706   35.4207 C   0  0  1  0  0  0  0  0  0  0  0  0
   -1.0232   16.4662   35.3345 O   0  0  0  0  0  0  0  0  0  0  0  0
   -0.4737   18.8352   34.6302 C   0  0  0  0  0  0  0  0  0  0  0  0
    0.5342   19.9403   34.6450 N   0  0  0  0  0  0  0  0  0  0  0  0
  1  3  1  0  0  0  0
  1  2  1  6  0  0  0
  3  4  1  6  0  0  0
  3  5  1  0  0  0  0
  5  6  1  1  0  0  0
  7  8  1  6  0  0  0
  7  5  1  0  0  0  0
  9 11  1  1  0  0  0
  9  7  1  0  0  0  0
 10  9  1  0  0  0  0
 10  1  1  0  0  0  0
 12 11  1  0  0  0  0
 13 14  1  6  0  0  0
 15 13  1  0  0  0  0
 16 17  1  1  0  0  0
 16 15  1  0  0  0  0
 18  2  1  1  0  0  0
 18 19  1  0  0  0  0
 18 16  1  0  0  0  0
 19 20  1  1  0  0  0
 19 21  1  0  0  0  0
 21 22  1  6  0  0  0
 21 13  1  0  0  0  0
 23 20  1  1  0  0  0
 23 29  1  0  0  0  0
 24 25  1  6  0  0  0
 24 26  1  0  0  0  0
 24 23  1  0  0  0  0
 26 27  1  6  0  0  0
 26 28  1  0  0  0  0
 28 30  1  1  0  0  0
 29 28  1  0  0  0  0
 30 31  1  0  0  0  0
 32 27  1  1  0  0  0
 32 40  1  0  0  0  0
 33 35  1  0  0  0  0
 33 32  1  0  0  0  0
 33 34  1  6  0  0  0
 35 36  1  6  0  0  0
 35 37  1  0  0  0  0
 37 38  1  1  0  0  0
 37 39  1  0  0  0  0
 39 41  1  6  0  0  0
 40 39  1  0  0  0  0
 41 42  1  0  0  0  0
M  END
>  <CHROM.1>
-150.87871103,-177.41273118,-61.64046913,141.65415557,-174.69343102,162.39202771
-54.68363439,-54.18457546,61.01662621,-1.54375240,10.98386603,37.14920721
-1.95242139,-1.04546386,-0.49130341

>  <Name>
lig.pdb

>  <RI>
0

>  <Rbt.Current_Directory>
/home/itssahil/PROJECTS/Mol_Feturizer/New_Systems/rnas/4wcr

>  <Rbt.Executable>
rbdock ($Id: //depot/dev/client3/rdock/2013.1/src/exe/rbdock.cxx#4 $)

>  <Rbt.Library>
libRbt.so (2013.1, Build901 2013/11/27)

>  <Rbt.Parameter_File>
/export/apps/rDock/src/rDock_2013.1_src/data/scripts/dock_solv.prm

>  <Rbt.Receptor>
prm/pocket_docking_3.prm

>  <SCORE>
0.143262

>  <SCORE.INTER>
0.867312

>  <SCORE.INTER.CONST>
1

>  <SCORE.INTER.POLAR>
0

>  <SCORE.INTER.ROT>
9

>  <SCORE.INTER.SOLV>
14.9444

>  <SCORE.INTER.VDW>
-14.0033

>  <SCORE.INTER.norm>
0.0206503

>  <SCORE.INTRA>
-1.0459

>  <SCORE.INTRA.DIHEDRAL>
-5.38564

>  <SCORE.INTRA.DIHEDRAL.0>
16.2863

>  <SCORE.INTRA.POLAR>
0

>  <SCORE.INTRA.POLAR.0>
0

>  <SCORE.INTRA.REPUL>
0.0265154

>  <SCORE.INTRA.REPUL.0>
0.314433

>  <SCORE.INTRA.SOLV>
-1.01389

>  <SCORE.INTRA.SOLV.lig_0>
-103.824

>  <SCORE.INTRA.VDW>
2.02128

>  <SCORE.INTRA.VDW.0>
-5.30945

>  <SCORE.INTRA.norm>
-0.0249025

>  <SCORE.RESTR>
0.321854

>  <SCORE.RESTR.CAVITY>
0.321854

>  <SCORE.RESTR.norm>
0.00766319

>  <SCORE.SYSTEM>
0

>  <SCORE.SYSTEM.CONST>
0

>  <SCORE.SYSTEM.DIHEDRAL>
0

>  <SCORE.SYSTEM.SOLV>
0

>  <SCORE.SYSTEM.norm>
0

>  <SCORE.heavy>
42

>  <SCORE.norm>
0.003411

>  <RMSD>
9.840

$$$$
lig.pdb
 OpenBabel11021811513D
libRbt.so/2013.1/901 2013/11/27
 42 45  0  0  0  0  0  0  0  0999 V2000
   -4.6039    8.9155   38.7689 C   0  0  2  0  0  0  0  0  0  0  0  0
   -3.8178    9.7955   37.9057 O   0  0  0  0  0  0  0  0  0  0  0  0
   -4.8093    9.7056   40.1377 C   0  0  2  0  0  0  0  0  0  0  0  0
   -5.5628   10.9407   39.9041 N   0  0  0  0  0  0  0  0  0  0  0  0
   -3.3701    9.9875   40.7927 C   0  0  1  0  0  0  0  0  0  0  0  0
   -3.4971   10.6934   42.0449 O   0  0  0  0  0  0  0  0  0  0  0  0
   -2.6805    8.6249   40.9782 C   0  0  2  0  0  0  0  0  0  0  0  0
   -1.4300    8.8302   41.5419 O   0  0  0  0  0  0  0  0  0  0  0  0
   -2.5558    7.8824   39.5705 C   0  0  2  0  0  0  0  0  0  0  0  0
   -3.8437    7.6661   38.9805 O   0  0  0  0  0  0  0  0  0  0  0  0
   -1.9044    6.5348   39.6997 C   0  0  0  0  0  0  0  0  0  0  0  0
   -2.7060    5.7501   40.5836 O   0  0  0  0  0  0  0  0  0  0  0  0
   -2.7551    9.4685   33.6003 C   0  0  2  0  0  0  0  0  0  0  0  0
   -2.8850    9.3515   32.1642 N   0  0  0  0  0  0  0  0  0  0  0  0
   -3.5266    8.2919   34.3140 C   0  0  0  0  0  0  0  0  0  0  0  0
   -3.4047    8.3987   35.8749 C   0  0  2  0  0  0  0  0  0  0  0  0
   -4.1372    7.2972   36.4962 N   0  0  0  0  0  0  0  0  0  0  0  0
   -3.9767    9.7753   36.4372 C   0  0  2  0  0  0  0  0  0  0  0  0
   -3.1811   10.9242   35.7526 C   0  0  2  0  0  0  0  0  0  0  0  0
   -3.7734   12.1825   36.3431 O   0  0  0  0  0  0  0  0  0  0  0  0
   -3.3668   10.8473   34.1379 C   0  0  1  0  0  0  0  0  0  0  0  0
   -2.6157   11.8503   33.3816 O   0  0  0  0  0  0  0  0  0  0  0  0
   -3.0969   13.2976   35.9234 C   0  0  1  0  0  0  0  0  0  0  0  0
   -3.6834   14.5472   36.4192 C   0  0  2  0  0  0  0  0  0  0  0  0
   -4.8676   14.7570   35.7191 O   0  0  0  0  0  0  0  0  0  0  0  0
   -2.4999   15.5230   36.2451 C   0  0  2  0  0  0  0  0  0  0  0  0
   -2.9372   16.5489   35.3254 O   0  0  0  0  0  0  0  0  0  0  0  0
   -1.3939   14.6887   35.6879 C   0  0  2  0  0  0  0  0  0  0  0  0
   -1.7539   13.4286   36.3590 O   0  0  0  0  0  0  0  0  0  0  0  0
    0.0164   15.1845   36.1775 C   0  0  0  0  0  0  0  0  0  0  0  0
    0.2137   15.0584   37.6178 O   0  0  0  0  0  0  0  0  0  0  0  0
   -2.3909   17.8883   35.5220 C   0  0  2  0  0  0  0  0  0  0  0  0
   -3.0627   18.8809   34.4367 C   0  0  2  0  0  0  0  0  0  0  0  0
   -2.7826   18.3652   33.0575 N   0  0  0  0  0  0  0  0  0  0  0  0
   -2.4589   20.3535   34.6623 C   0  0  1  0  0  0  0  0  0  0  0  0
   -2.7812   20.7497   36.0301 O   0  0  0  0  0  0  0  0  0  0  0  0
   -0.8811   20.3212   34.4304 C   0  0  2  0  0  0  0  0  0  0  0  0
   -0.6368   19.9270   33.0251 O   0  0  0  0  0  0  0  0  0  0  0  0
   -0.2318   19.2711   35.4969 C   0  0  1  0  0  0  0  0  0  0  0  0
   -0.8623   17.9127   35.3174 O   0  0  0  0  0  0  0  0  0  0  0  0
    1.3171   19.2009   35.2858 C   0  0  0  0  0  0  0  0  0  0  0  0
    1.9927   20.5175   35.5036 N   0  0  0  0  0  0  0  0  0  0  0  0
  1  3  1  0  0  0  0
  1  2  1  6  0  0  0
  3  4  1  6  0  0  0
  3  5  1  0  0  0  0
  5  6  1  1  0  0  0
  7  8  1  6  0  0  0
  7  5  1  0  0  0  0
  9 11  1  1  0  0  0
  9  7  1  0  0  0  0
 10  9  1  0  0  0  0
 10  1  1  0  0  0  0
 12 11  1  0  0  0  0
 13 14  1  6  0  0  0
 15 13  1  0  0  0  0
 16 17  1  1  0  0  0
 16 15  1  0  0  0  0
 18  2  1  1  0  0  0
 18 19  1  0  0  0  0
 18 16  1  0  0  0  0
 19 20  1  1  0  0  0
 19 21  1  0  0  0  0
 21 22  1  6  0  0  0
 21 13  1  0  0  0  0
 23 20  1  1  0  0  0
 23 29  1  0  0  0  0
 24 25  1  6  0  0  0
 24 26  1  0  0  0  0
 24 23  1  0  0  0  0
 26 27  1  6  0  0  0
 26 28  1  0  0  0  0
 28 30  1  1  0  0  0
 29 28  1  0  0  0  0
 30 31  1  0  0  0  0
 32 27  1  6  0  0  0
 32 40  1  0  0  0  0
 33 35  1  0  0  0  0
 33 32  1  0  0  0  0
 33 34  1  6  0  0  0
 35 36  1  1  0  0  0
 35 37  1  0  0  0  0
 37 38  1  6  0  0  0
 37 39  1  0  0  0  0
 39 41  1  6  0  0  0
 40 39  1  0  0  0  0
 41 42  1  0  0  0  0
M  END
>  <CHROM.1>
-148.87035349,59.55495562,-69.14703767,174.79352086,177.02505717,147.62165924
64.27337088,-177.37026991,60.97477700,-2.54063304,13.10356506,36.63738844
-2.33929080,-1.29775567,-1.10328209

>  <Name>
lig.pdb

>  <RI>
0

>  <Rbt.Current_Directory>
/home/itssahil/PROJECTS/Mol_Feturizer/New_Systems/rnas/4wcr

>  <Rbt.Executable>
rbdock ($Id: //depot/dev/client3/rdock/2013.1/src/exe/rbdock.cxx#4 $)

>  <Rbt.Library>
libRbt.so (2013.1, Build901 2013/11/27)

>  <Rbt.Parameter_File>
/export/apps/rDock/src/rDock_2013.1_src/data/scripts/dock_solv.prm

>  <Rbt.Receptor>
prm/pocket_docking_4.prm

>  <SCORE>
-4.63291

>  <SCORE.INTER>
0.341905

>  <SCORE.INTER.CONST>
1

>  <SCORE.INTER.POLAR>
0

>  <SCORE.INTER.ROT>
9

>  <SCORE.INTER.SOLV>
20.4246

>  <SCORE.INTER.VDW>
-16.1803

>  <SCORE.INTER.norm>
0.0081406

>  <SCORE.INTRA>
-4.97481

>  <SCORE.INTRA.DIHEDRAL>
-7.32911

>  <SCORE.INTRA.DIHEDRAL.0>
16.2863

>  <SCORE.INTRA.POLAR>
0

>  <SCORE.INTRA.POLAR.0>
0

>  <SCORE.INTRA.REPUL>
-0.314433

>  <SCORE.INTRA.REPUL.0>
0.314433

>  <SCORE.INTRA.SOLV>
-2.34475

>  <SCORE.INTRA.SOLV.lig_0>
-103.824

>  <SCORE.INTRA.VDW>
1.43428

>  <SCORE.INTRA.VDW.0>
-5.30945

>  <SCORE.INTRA.norm>
-0.118448

>  <SCORE.RESTR>
0

>  <SCORE.RESTR.CAVITY>
0

>  <SCORE.RESTR.norm>
0

>  <SCORE.SYSTEM>
0

>  <SCORE.SYSTEM.CONST>
0

>  <SCORE.SYSTEM.DIHEDRAL>
0

>  <SCORE.SYSTEM.SOLV>
0

>  <SCORE.SYSTEM.norm>
0

>  <SCORE.heavy>
42

>  <SCORE.norm>
-0.110307

>  <RMSD>
9.861

$$$$
lig.pdb
 OpenBabel11021811513D
libRbt.so/2013.1/901 2013/11/27
 42 45  0  0  0  0  0  0  0  0999 V2000
   -1.8379    7.6037   39.0088 C   0  0  2  0  0  0  0  0  0  0  0  0
   -1.1417    8.6635   38.2813 O   0  0  0  0  0  0  0  0  0  0  0  0
   -3.3695    7.7040   38.5794 C   0  0  2  0  0  0  0  0  0  0  0  0
   -3.5111    7.4660   37.1404 N   0  0  0  0  0  0  0  0  0  0  0  0
   -3.9352    9.1427   39.0151 C   0  0  1  0  0  0  0  0  0  0  0  0
   -5.3266    9.2847   38.6595 O   0  0  0  0  0  0  0  0  0  0  0  0
   -3.7225    9.2740   40.5330 C   0  0  2  0  0  0  0  0  0  0  0  0
   -4.1993   10.5094   40.9457 O   0  0  0  0  0  0  0  0  0  0  0  0
   -2.1724    9.1168   40.8805 C   0  0  2  0  0  0  0  0  0  0  0  0
   -1.6711    7.8426   40.4575 O   0  0  0  0  0  0  0  0  0  0  0  0
   -1.9124    9.2184   42.3568 C   0  0  0  0  0  0  0  0  0  0  0  0
   -2.2059   10.5578   42.7561 O   0  0  0  0  0  0  0  0  0  0  0  0
    1.0484    8.7576   34.4125 C   0  0  2  0  0  0  0  0  0  0  0  0
    1.3562    8.5809   33.0100 N   0  0  0  0  0  0  0  0  0  0  0  0
    0.6511    7.3753   35.0607 C   0  0  0  0  0  0  0  0  0  0  0  0
    0.3079    7.5407   36.5830 C   0  0  2  0  0  0  0  0  0  0  0  0
   -0.0609    6.2419   37.1423 N   0  0  0  0  0  0  0  0  0  0  0  0
   -0.8895    8.5625   36.8292 C   0  0  2  0  0  0  0  0  0  0  0  0
   -0.4676    9.9300   36.2180 C   0  0  2  0  0  0  0  0  0  0  0  0
   -1.6431   10.8360   36.5008 O   0  0  0  0  0  0  0  0  0  0  0  0
   -0.1783    9.7646   34.6254 C   0  0  1  0  0  0  0  0  0  0  0  0
    0.2813   10.9800   33.9519 O   0  0  0  0  0  0  0  0  0  0  0  0
   -1.3274   12.1497   36.2731 C   0  0  1  0  0  0  0  0  0  0  0  0
   -2.4301   13.0678   36.5770 C   0  0  2  0  0  0  0  0  0  0  0  0
   -3.3852   12.9159   35.5763 O   0  0  0  0  0  0  0  0  0  0  0  0
   -1.6736   14.4052   36.7262 C   0  0  2  0  0  0  0  0  0  0  0  0
   -2.1945   15.2942   35.7124 O   0  0  0  0  0  0  0  0  0  0  0  0
   -0.2380   14.0607   36.5024 C   0  0  2  0  0  0  0  0  0  0  0  0
   -0.2835   12.6988   37.0601 O   0  0  0  0  0  0  0  0  0  0  0  0
    0.7214   14.9686   37.3565 C   0  0  0  0  0  0  0  0  0  0  0  0
    2.1273   14.5906   37.2574 O   0  0  0  0  0  0  0  0  0  0  0  0
   -1.9662   16.7229   35.9065 C   0  0  2  0  0  0  0  0  0  0  0  0
   -2.8873   17.5371   34.8564 C   0  0  2  0  0  0  0  0  0  0  0  0
   -2.5445   17.1057   33.4625 N   0  0  0  0  0  0  0  0  0  0  0  0
   -2.6330   19.1086   35.0792 C   0  0  1  0  0  0  0  0  0  0  0  0
   -2.9895   19.4141   36.4617 O   0  0  0  0  0  0  0  0  0  0  0  0
   -1.0997   19.4436   34.7941 C   0  0  2  0  0  0  0  0  0  0  0  0
   -0.8207   19.1220   33.3768 O   0  0  0  0  0  0  0  0  0  0  0  0
   -0.1878   18.5682   35.8256 C   0  0  1  0  0  0  0  0  0  0  0  0
   -0.4929   17.1015   35.6511 O   0  0  0  0  0  0  0  0  0  0  0  0
    1.3269   18.8594   35.5618 C   0  0  0  0  0  0  0  0  0  0  0  0
    1.6795   20.3023   35.7376 N   0  0  0  0  0  0  0  0  0  0  0  0
  1  3  1  0  0  0  0
  1  2  1  6  0  0  0
  3  4  1  6  0  0  0
  3  5  1  0  0  0  0
  5  6  1  1  0  0  0
  7  8  1  6  0  0  0
  7  5  1  0  0  0  0
  9 11  1  1  0  0  0
  9  7  1  0  0  0  0
 10  9  1  0  0  0  0
 10  1  1  0  0  0  0
 12 11  1  0  0  0  0
 13 14  1  6  0  0  0
 15 13  1  0  0  0  0
 16 17  1  6  0  0  0
 16 15  1  0  0  0  0
 18  2  1  1  0  0  0
 18 19  1  0  0  0  0
 18 16  1  0  0  0  0
 19 20  1  6  0  0  0
 19 21  1  0  0  0  0
 21 22  1  1  0  0  0
 21 13  1  0  0  0  0
 23 20  1  1  0  0  0
 23 29  1  0  0  0  0
 24 25  1  6  0  0  0
 24 26  1  0  0  0  0
 24 23  1  0  0  0  0
 26 27  1  6  0  0  0
 26 28  1  0  0  0  0
 28 30  1  1  0  0  0
 29 28  1  0  0  0  0
 30 31  1  0  0  0  0
 32 27  1  6  0  0  0
 32 40  1  0  0  0  0
 33 35  1  0  0  0  0
 33 32  1  0  0  0  0
 33 34  1  6  0  0  0
 35 36  1  1  0  0  0
 35 37  1  0  0  0  0
 37 38  1  6  0  0  0
 37 39  1  0  0  0  0
 39 41  1  6  0  0  0
 40 39  1  0  0  0  0
 41 42  1  0  0  0  0
M  END
>  <CHROM.1>
-72.88931113,-67.03560781,-75.74202414,167.47535833,-178.17124188,160.88893039
174.98477530,-167.90402960,59.46255051,-1.34120054,12.46321533,36.89763850
1.73719558,-0.97785407,2.95805274

>  <Name>
lig.pdb

>  <RI>
0

>  <Rbt.Current_Directory>
/home/itssahil/PROJECTS/Mol_Feturizer/New_Systems/rnas/4wcr

>  <Rbt.Executable>
rbdock ($Id: //depot/dev/client3/rdock/2013.1/src/exe/rbdock.cxx#4 $)

>  <Rbt.Library>
libRbt.so (2013.1, Build901 2013/11/27)

>  <Rbt.Parameter_File>
/export/apps/rDock/src/rDock_2013.1_src/data/scripts/dock_solv.prm

>  <Rbt.Receptor>
prm/pocket_docking_5.prm

>  <SCORE>
-9.33246

>  <SCORE.INTER>
-2.72828

>  <SCORE.INTER.CONST>
1

>  <SCORE.INTER.POLAR>
0

>  <SCORE.INTER.ROT>
9

>  <SCORE.INTER.SOLV>
23.9307

>  <SCORE.INTER.VDW>
-19.3958

>  <SCORE.INTER.norm>
-0.064959

>  <SCORE.INTRA>
-6.60418

>  <SCORE.INTRA.DIHEDRAL>
-10.4525

>  <SCORE.INTRA.DIHEDRAL.0>
16.2863

>  <SCORE.INTRA.POLAR>
0

>  <SCORE.INTRA.POLAR.0>
0

>  <SCORE.INTRA.REPUL>
-0.313637

>  <SCORE.INTRA.REPUL.0>
0.314433

>  <SCORE.INTRA.SOLV>
-1.97373

>  <SCORE.INTRA.SOLV.lig_0>
-103.824

>  <SCORE.INTRA.VDW>
1.17713

>  <SCORE.INTRA.VDW.0>
-5.30945

>  <SCORE.INTRA.norm>
-0.157242

>  <SCORE.RESTR>
0

>  <SCORE.RESTR.CAVITY>
0

>  <SCORE.RESTR.norm>
0

>  <SCORE.SYSTEM>
0

>  <SCORE.SYSTEM.CONST>
0

>  <SCORE.SYSTEM.DIHEDRAL>
0

>  <SCORE.SYSTEM.SOLV>
0

>  <SCORE.SYSTEM.norm>
0

>  <SCORE.heavy>
42

>  <SCORE.norm>
-0.222201

>  <RMSD>
9.861

$$$$
lig.pdb
 OpenBabel11021811513D
libRbt.so/2013.1/901 2013/11/27
 42 45  0  0  0  0  0  0  0  0999 V2000
   -3.5210    5.7440   37.0129 C   0  0  2  0  0  0  0  0  0  0  0  0
   -3.0902    5.1859   38.2936 O   0  0  0  0  0  0  0  0  0  0  0  0
   -3.9420    4.5018   36.1075 C   0  0  2  0  0  0  0  0  0  0  0  0
   -5.0660    3.7857   36.7170 N   0  0  0  0  0  0  0  0  0  0  0  0
   -2.6607    3.5559   35.8998 C   0  0  1  0  0  0  0  0  0  0  0  0
   -2.9829    2.4165   35.0747 O   0  0  0  0  0  0  0  0  0  0  0  0
   -1.5562    4.4193   35.2665 C   0  0  2  0  0  0  0  0  0  0  0  0
   -0.4300    3.6331   35.0738 O   0  0  0  0  0  0  0  0  0  0  0  0
   -1.2280    5.6623   36.2130 C   0  0  2  0  0  0  0  0  0  0  0  0
   -2.3865    6.4805   36.4177 O   0  0  0  0  0  0  0  0  0  0  0  0
   -0.1658    6.5502   35.6294 C   0  0  0  0  0  0  0  0  0  0  0  0
    1.0792    5.8575   35.7289 O   0  0  0  0  0  0  0  0  0  0  0  0
   -1.9800    7.3043   42.0422 C   0  0  2  0  0  0  0  0  0  0  0  0
   -1.1972    8.0021   43.0389 N   0  0  0  0  0  0  0  0  0  0  0  0
   -1.3013    5.9259   41.6844 C   0  0  0  0  0  0  0  0  0  0  0  0
   -2.1298    5.1504   40.6006 C   0  0  2  0  0  0  0  0  0  0  0  0
   -1.4649    3.8859   40.2931 N   0  0  0  0  0  0  0  0  0  0  0  0
   -2.2966    5.9821   39.2520 C   0  0  2  0  0  0  0  0  0  0  0  0
   -3.0007    7.3215   39.6151 C   0  0  2  0  0  0  0  0  0  0  0  0
   -3.1284    8.0390   38.2916 O   0  0  0  0  0  0  0  0  0  0  0  0
   -2.1029    8.1513   40.6888 C   0  0  1  0  0  0  0  0  0  0  0  0
   -2.6948    9.4088   41.1476 O   0  0  0  0  0  0  0  0  0  0  0  0
   -3.9305    9.1447   38.3982 C   0  0  1  0  0  0  0  0  0  0  0  0
   -3.4222   10.2989   37.6495 C   0  0  2  0  0  0  0  0  0  0  0  0
   -2.3165   10.7874   38.3391 O   0  0  0  0  0  0  0  0  0  0  0  0
   -4.6973   11.1601   37.5251 C   0  0  2  0  0  0  0  0  0  0  0  0
   -4.4224   12.4113   38.1948 O   0  0  0  0  0  0  0  0  0  0  0  0
   -5.7632   10.3678   38.2077 C   0  0  2  0  0  0  0  0  0  0  0  0
   -5.2438    9.0307   37.8758 O   0  0  0  0  0  0  0  0  0  0  0  0
   -7.1717   10.5871   37.5424 C   0  0  0  0  0  0  0  0  0  0  0  0
   -7.5406   11.9918   37.4021 O   0  0  0  0  0  0  0  0  0  0  0  0
   -3.6920   13.4208   37.4343 C   0  0  2  0  0  0  0  0  0  0  0  0
   -4.6558   13.9760   36.2607 C   0  0  2  0  0  0  0  0  0  0  0  0
   -5.0851   12.8317   35.3930 N   0  0  0  0  0  0  0  0  0  0  0  0
   -3.8457   15.0891   35.4308 C   0  0  1  0  0  0  0  0  0  0  0  0
   -3.4729   16.1438   36.3690 O   0  0  0  0  0  0  0  0  0  0  0  0
   -2.5543   14.4241   34.7717 C   0  0  2  0  0  0  0  0  0  0  0  0
   -3.0127   13.3802   33.8281 O   0  0  0  0  0  0  0  0  0  0  0  0
   -1.6257   13.8204   35.9698 C   0  0  1  0  0  0  0  0  0  0  0  0
   -2.4254   12.8315   36.7804 O   0  0  0  0  0  0  0  0  0  0  0  0
   -0.3552   13.1432   35.3567 C   0  0  0  0  0  0  0  0  0  0  0  0
   -0.6797   11.9333   34.5394 N   0  0  0  0  0  0  0  0  0  0  0  0
  1  3  1  0  0  0  0
  1  2  1  1  0  0  0
  3  4  1  1  0  0  0
  3  5  1  0  0  0  0
  5  6  1  6  0  0  0
  7  8  1  1  0  0  0
  7  5  1  0  0  0  0
  9 11  1  6  0  0  0
  9  7  1  0  0  0  0
 10  9  1  0  0  0  0
 10  1  1  0  0  0  0
 12 11  1  0  0  0  0
 13 14  1  1  0  0  0
 15 13  1  0  0  0  0
 16 17  1  6  0  0  0
 16 15  1  0  0  0  0
 18  2  1  6  0  0  0
 18 19  1  0  0  0  0
 18 16  1  0  0  0  0
 19 20  1  6  0  0  0
 19 21  1  0  0  0  0
 21 22  1  1  0  0  0
 21 13  1  0  0  0  0
 23 20  1  6  0  0  0
 23 29  1  0  0  0  0
 24 25  1  1  0  0  0
 24 26  1  0  0  0  0
 24 23  1  0  0  0  0
 26 27  1  1  0  0  0
 26 28  1  0  0  0  0
 28 30  1  6  0  0  0
 29 28  1  0  0  0  0
 30 31  1  0  0  0  0
 32 27  1  6  0  0  0
 32 40  1  0  0  0  0
 33 35  1  0  0  0  0
 33 32  1  0  0  0  0
 33 34  1  6  0  0  0
 35 36  1  1  0  0  0
 35 37  1  0  0  0  0
 37 38  1  6  0  0  0
 37 39  1  0  0  0  0
 39 41  1  6  0  0  0
 40 39  1  0  0  0  0
 41 42  1  0  0  0  0
M  END
>  <CHROM.1>
163.39205093,-72.15795173,173.83084900,169.83154256,139.21634275,82.19262539
-52.00297209,69.51584887,-65.85829755,-2.93088542,8.90791354,37.43783253
-0.93251978,1.26871840,-0.78579130

>  <Name>
lig.pdb

>  <RI>
0

>  <Rbt.Current_Directory>
/home/itssahil/PROJECTS/Mol_Feturizer/New_Systems/rnas/4wcr

>  <Rbt.Executable>
rbdock ($Id: //depot/dev/client3/rdock/2013.1/src/exe/rbdock.cxx#4 $)

>  <Rbt.Library>
libRbt.so (2013.1, Build901 2013/11/27)

>  <Rbt.Parameter_File>
/export/apps/rDock/src/rDock_2013.1_src/data/scripts/dock_solv.prm

>  <Rbt.Receptor>
prm/pocket_docking_4.prm

>  <SCORE>
0.213855

>  <SCORE.INTER>
2.48572

>  <SCORE.INTER.CONST>
1

>  <SCORE.INTER.POLAR>
0

>  <SCORE.INTER.ROT>
9

>  <SCORE.INTER.SOLV>
20.6142

>  <SCORE.INTER.VDW>
-14.8143

>  <SCORE.INTER.norm>
0.0591838

>  <SCORE.INTRA>
-2.27187

>  <SCORE.INTRA.DIHEDRAL>
-4.95302

>  <SCORE.INTRA.DIHEDRAL.0>
16.2863

>  <SCORE.INTRA.POLAR>
0

>  <SCORE.INTRA.POLAR.0>
0

>  <SCORE.INTRA.REPUL>
-0.314433

>  <SCORE.INTRA.REPUL.0>
0.314433

>  <SCORE.INTRA.SOLV>
-0.243617

>  <SCORE.INTRA.SOLV.lig_0>
-103.824

>  <SCORE.INTRA.VDW>
1.89862

>  <SCORE.INTRA.VDW.0>
-5.30945

>  <SCORE.INTRA.norm>
-0.054092

>  <SCORE.RESTR>
0

>  <SCORE.RESTR.CAVITY>
0

>  <SCORE.RESTR.norm>
0

>  <SCORE.SYSTEM>
0

>  <SCORE.SYSTEM.CONST>
0

>  <SCORE.SYSTEM.DIHEDRAL>
0

>  <SCORE.SYSTEM.SOLV>
0

>  <SCORE.SYSTEM.norm>
0

>  <SCORE.heavy>
42

>  <SCORE.norm>
0.00509178

>  <RMSD>
9.863

$$$$
lig.pdb
 OpenBabel11021811513D
libRbt.so/2013.1/901 2013/11/27
 42 45  0  0  0  0  0  0  0  0999 V2000
   -5.8667   15.7758   28.7334 C   0  0  2  0  0  0  0  0  0  0  0  0
   -7.0528   16.2003   29.4751 O   0  0  0  0  0  0  0  0  0  0  0  0
   -6.3929   15.2268   27.3328 C   0  0  2  0  0  0  0  0  0  0  0  0
   -7.0637   16.2952   26.5870 N   0  0  0  0  0  0  0  0  0  0  0  0
   -7.3608   13.9731   27.5998 C   0  0  1  0  0  0  0  0  0  0  0  0
   -7.8594   13.4270   26.3606 O   0  0  0  0  0  0  0  0  0  0  0  0
   -6.5494   12.9330   28.3912 C   0  0  2  0  0  0  0  0  0  0  0  0
   -7.3568   11.8335   28.6422 O   0  0  0  0  0  0  0  0  0  0  0  0
   -6.0232   13.5763   29.7541 C   0  0  2  0  0  0  0  0  0  0  0  0
   -5.1877   14.7134   29.5042 O   0  0  0  0  0  0  0  0  0  0  0  0
   -5.2064   12.6045   30.5577 C   0  0  0  0  0  0  0  0  0  0  0  0
   -6.0430   11.4892   30.8675 O   0  0  0  0  0  0  0  0  0  0  0  0
   -6.3008   20.5610   29.9127 C   0  0  2  0  0  0  0  0  0  0  0  0
   -6.4817   21.9515   30.2688 N   0  0  0  0  0  0  0  0  0  0  0  0
   -7.5276   20.0537   29.0603 C   0  0  0  0  0  0  0  0  0  0  0  0
   -7.3576   18.5448   28.6645 C   0  0  2  0  0  0  0  0  0  0  0  0
   -8.5154   18.1133   27.8842 N   0  0  0  0  0  0  0  0  0  0  0  0
   -7.2142   17.5947   29.9355 C   0  0  2  0  0  0  0  0  0  0  0  0
   -5.9789   18.0840   30.7455 C   0  0  2  0  0  0  0  0  0  0  0  0
   -5.9086   17.1326   31.9171 O   0  0  0  0  0  0  0  0  0  0  0  0
   -6.1917   19.6288   31.2101 C   0  0  1  0  0  0  0  0  0  0  0  0
   -5.0645   20.2162   31.9357 O   0  0  0  0  0  0  0  0  0  0  0  0
   -4.6283   16.6919   32.1265 C   0  0  1  0  0  0  0  0  0  0  0  0
   -4.0104   17.2677   33.3256 C   0  0  2  0  0  0  0  0  0  0  0  0
   -3.7195   18.5993   33.0447 O   0  0  0  0  0  0  0  0  0  0  0  0
   -2.8654   16.2647   33.5833 C   0  0  2  0  0  0  0  0  0  0  0  0
   -1.6300   17.0096   33.4917 O   0  0  0  0  0  0  0  0  0  0  0  0
   -2.9995   15.2437   32.5019 C   0  0  2  0  0  0  0  0  0  0  0  0
   -4.4645   15.3044   32.3682 O   0  0  0  0  0  0  0  0  0  0  0  0
   -2.5543   13.8153   32.9876 C   0  0  0  0  0  0  0  0  0  0  0  0
   -3.1700   13.4065   34.2458 O   0  0  0  0  0  0  0  0  0  0  0  0
   -1.2490   17.8023   34.6567 C   0  0  2  0  0  0  0  0  0  0  0  0
   -0.2362   16.9273   35.5639 C   0  0  2  0  0  0  0  0  0  0  0  0
   -0.9097   15.6482   35.9602 N   0  0  0  0  0  0  0  0  0  0  0  0
    0.1812   17.8082   36.8420 C   0  0  1  0  0  0  0  0  0  0  0  0
    0.8160   19.0243   36.3421 O   0  0  0  0  0  0  0  0  0  0  0  0
   -1.1203   18.1503   37.6985 C   0  0  2  0  0  0  0  0  0  0  0  0
   -1.6957   16.8743   38.1791 O   0  0  0  0  0  0  0  0  0  0  0  0
   -2.1513   18.9825   36.7465 C   0  0  1  0  0  0  0  0  0  0  0  0
   -2.4746   18.1690   35.5183 O   0  0  0  0  0  0  0  0  0  0  0  0
   -3.4500   19.3205   37.5513 C   0  0  0  0  0  0  0  0  0  0  0  0
   -4.1768   18.0998   38.0193 N   0  0  0  0  0  0  0  0  0  0  0  0
  1  3  1  0  0  0  0
  1  2  1  1  0  0  0
  3  4  1  1  0  0  0
  3  5  1  0  0  0  0
  5  6  1  6  0  0  0
  7  8  1  1  0  0  0
  7  5  1  0  0  0  0
  9 11  1  6  0  0  0
  9  7  1  0  0  0  0
 10  9  1  0  0  0  0
 10  1  1  0  0  0  0
 12 11  1  0  0  0  0
 13 14  1  1  0  0  0
 15 13  1  0  0  0  0
 16 17  1  1  0  0  0
 16 15  1  0  0  0  0
 18  2  1  6  0  0  0
 18 19  1  0  0  0  0
 18 16  1  0  0  0  0
 19 20  1  1  0  0  0
 19 21  1  0  0  0  0
 21 22  1  1  0  0  0
 21 13  1  0  0  0  0
 23 20  1  1  0  0  0
 23 29  1  0  0  0  0
 24 25  1  6  0  0  0
 24 26  1  0  0  0  0
 24 23  1  0  0  0  0
 26 27  1  6  0  0  0
 26 28  1  0  0  0  0
 28 30  1  1  0  0  0
 29 28  1  0  0  0  0
 30 31  1  0  0  0  0
 32 27  1  6  0  0  0
 32 40  1  0  0  0  0
 33 35  1  0  0  0  0
 33 32  1  0  0  0  0
 33 34  1  1  0  0  0
 35 36  1  6  0  0  0
 35 37  1  0  0  0  0
 37 38  1  6  0  0  0
 37 39  1  0  0  0  0
 39 41  1  1  0  0  0
 40 39  1  0  0  0  0
 41 42  1  0  0  0  0
M  END
>  <CHROM.1>
-120.65945673,-60.41490950,66.08624022,134.37919007,107.90485962,79.43973540
50.21464332,95.24434335,-60.95809236,-4.54185567,16.63421062,32.06654865
-2.70531009,-0.92238188,0.22994871

>  <Name>
lig.pdb

>  <RI>
0

>  <Rbt.Current_Directory>
/home/itssahil/PROJECTS/Mol_Feturizer/New_Systems/rnas/4wcr

>  <Rbt.Executable>
rbdock ($Id: //depot/dev/client3/rdock/2013.1/src/exe/rbdock.cxx#4 $)

>  <Rbt.Library>
libRbt.so (2013.1, Build901 2013/11/27)

>  <Rbt.Parameter_File>
/export/apps/rDock/src/rDock_2013.1_src/data/scripts/dock_solv.prm

>  <Rbt.Receptor>
prm/blind_docking_100.prm

>  <SCORE>
-4.31778

>  <SCORE.INTER>
-15.9768

>  <SCORE.INTER.CONST>
1

>  <SCORE.INTER.POLAR>
0

>  <SCORE.INTER.ROT>
9

>  <SCORE.INTER.SOLV>
30.2882

>  <SCORE.INTER.VDW>
-30.3473

>  <SCORE.INTER.norm>
-0.380401

>  <SCORE.INTRA>
6.77477

>  <SCORE.INTRA.DIHEDRAL>
10.8753

>  <SCORE.INTRA.DIHEDRAL.0>
16.2863

>  <SCORE.INTRA.POLAR>
0

>  <SCORE.INTRA.POLAR.0>
0

>  <SCORE.INTRA.REPUL>
-0.314433

>  <SCORE.INTRA.REPUL.0>
0.314433

>  <SCORE.INTRA.SOLV>
3.74678

>  <SCORE.INTRA.SOLV.lig_0>
-103.824

>  <SCORE.INTRA.VDW>
1.03591

>  <SCORE.INTRA.VDW.0>
-5.30945

>  <SCORE.INTRA.norm>
0.161304

>  <SCORE.RESTR>
4.88429

>  <SCORE.RESTR.CAVITY>
4.88429

>  <SCORE.RESTR.norm>
0.116293

>  <SCORE.SYSTEM>
0

>  <SCORE.SYSTEM.CONST>
0

>  <SCORE.SYSTEM.DIHEDRAL>
0

>  <SCORE.SYSTEM.SOLV>
0

>  <SCORE.SYSTEM.norm>
0

>  <SCORE.heavy>
42

>  <SCORE.norm>
-0.102804

>  <RMSD>
9.864

$$$$
lig.pdb
 OpenBabel11021811513D
libRbt.so/2013.1/901 2013/11/27
 42 45  0  0  0  0  0  0  0  0999 V2000
   -0.1011    9.8000   31.8634 C   0  0  2  0  0  0  0  0  0  0  0  0
   -0.9204    8.9489   32.7245 O   0  0  0  0  0  0  0  0  0  0  0  0
   -1.1112   10.7891   31.1277 C   0  0  2  0  0  0  0  0  0  0  0  0
   -1.8043   11.6300   32.1076 N   0  0  0  0  0  0  0  0  0  0  0  0
   -2.1325    9.9208   30.2430 C   0  0  1  0  0  0  0  0  0  0  0  0
   -3.0666   10.7694   29.5431 O   0  0  0  0  0  0  0  0  0  0  0  0
   -1.2890    9.0819   29.2676 C   0  0  2  0  0  0  0  0  0  0  0  0
   -2.1405    8.3153   28.4860 O   0  0  0  0  0  0  0  0  0  0  0  0
   -0.2758    8.1559   30.0827 C   0  0  2  0  0  0  0  0  0  0  0  0
    0.6083    8.9400   30.8934 O   0  0  0  0  0  0  0  0  0  0  0  0
    0.5872    7.3278   29.1734 C   0  0  0  0  0  0  0  0  0  0  0  0
    1.2563    6.3566   29.9788 O   0  0  0  0  0  0  0  0  0  0  0  0
   -0.4765    6.6059   36.4777 C   0  0  2  0  0  0  0  0  0  0  0  0
    0.0496    5.6845   37.4611 N   0  0  0  0  0  0  0  0  0  0  0  0
   -0.7124    5.8621   35.1066 C   0  0  0  0  0  0  0  0  0  0  0  0
   -1.2796    6.8421   34.0202 C   0  0  2  0  0  0  0  0  0  0  0  0
   -1.4765    6.1172   32.7666 N   0  0  0  0  0  0  0  0  0  0  0  0
   -0.3107    8.0777   33.7500 C   0  0  2  0  0  0  0  0  0  0  0  0
   -0.1178    8.8225   35.1026 C   0  0  2  0  0  0  0  0  0  0  0  0
    0.7968    9.9750   34.7592 O   0  0  0  0  0  0  0  0  0  0  0  0
    0.5332    7.8186   36.2053 C   0  0  1  0  0  0  0  0  0  0  0  0
    0.7103    8.3967   37.5382 O   0  0  0  0  0  0  0  0  0  0  0  0
    0.6992   10.9825   35.6827 C   0  0  1  0  0  0  0  0  0  0  0  0
    1.9195   11.7896   35.7851 C   0  0  2  0  0  0  0  0  0  0  0  0
    2.8764   11.0156   36.4347 O   0  0  0  0  0  0  0  0  0  0  0  0
    1.3763   13.0697   36.4556 C   0  0  2  0  0  0  0  0  0  0  0  0
    2.0680   13.2049   37.7178 O   0  0  0  0  0  0  0  0  0  0  0  0
   -0.0859   12.8211   36.6282 C   0  0  2  0  0  0  0  0  0  0  0  0
   -0.2752   11.9820   35.4333 O   0  0  0  0  0  0  0  0  0  0  0  0
   -0.9233   14.1468   36.5026 C   0  0  0  0  0  0  0  0  0  0  0  0
   -2.3456   13.9690   36.7761 O   0  0  0  0  0  0  0  0  0  0  0  0
    1.9706   14.4976   38.3889 C   0  0  2  0  0  0  0  0  0  0  0  0
    1.0419   14.3259   39.7012 C   0  0  2  0  0  0  0  0  0  0  0  0
   -0.3047   13.8133   39.2882 N   0  0  0  0  0  0  0  0  0  0  0  0
    0.9430   15.7522   40.4359 C   0  0  1  0  0  0  0  0  0  0  0  0
    2.3021   16.1561   40.7841 O   0  0  0  0  0  0  0  0  0  0  0  0
    0.2638   16.8093   39.4532 C   0  0  2  0  0  0  0  0  0  0  0  0
   -1.1085   16.3395   39.1595 O   0  0  0  0  0  0  0  0  0  0  0  0
    1.1867   16.9232   38.1126 C   0  0  1  0  0  0  0  0  0  0  0  0
    1.3265   15.5624   37.4775 O   0  0  0  0  0  0  0  0  0  0  0  0
    0.5392   17.9414   37.1162 C   0  0  0  0  0  0  0  0  0  0  0  0
    1.3712   18.1659   35.8937 N   0  0  0  0  0  0  0  0  0  0  0  0
  1  3  1  0  0  0  0
  1  2  1  1  0  0  0
  3  4  1  1  0  0  0
  3  5  1  0  0  0  0
  5  6  1  6  0  0  0
  7  8  1  1  0  0  0
  7  5  1  0  0  0  0
  9 11  1  6  0  0  0
  9  7  1  0  0  0  0
 10  9  1  0  0  0  0
 10  1  1  0  0  0  0
 12 11  1  0  0  0  0
 13 14  1  1  0  0  0
 15 13  1  0  0  0  0
 16 17  1  6  0  0  0
 16 15  1  0  0  0  0
 18  2  1  6  0  0  0
 18 19  1  0  0  0  0
 18 16  1  0  0  0  0
 19 20  1  6  0  0  0
 19 21  1  0  0  0  0
 21 22  1  1  0  0  0
 21 13  1  0  0  0  0
 23 20  1  6  0  0  0
 23 29  1  0  0  0  0
 24 25  1  1  0  0  0
 24 26  1  0  0  0  0
 24 23  1  0  0  0  0
 26 27  1  1  0  0  0
 26 28  1  0  0  0  0
 28 30  1  6  0  0  0
 29 28  1  0  0  0  0
 30 31  1  0  0  0  0
 32 27  1  6  0  0  0
 32 40  1  0  0  0  0
 33 35  1  0  0  0  0
 33 32  1  0  0  0  0
 33 34  1  6  0  0  0
 35 36  1  6  0  0  0
 35 37  1  0  0  0  0
 37 38  1  6  0  0  0
 37 39  1  0  0  0  0
 39 41  1  6  0  0  0
 40 39  1  0  0  0  0
 41 42  1  0  0  0  0
M  END
>  <CHROM.1>
-168.40622441,-168.66026518,-153.60872754,158.50328591,153.20582246,165.55415769
-175.12369422,109.35712796,176.47932773,0.05322404,11.28313960,35.03069988
2.17731747,1.31178559,-2.97689684

>  <Name>
lig.pdb

>  <RI>
0

>  <Rbt.Current_Directory>
/home/itssahil/PROJECTS/Mol_Feturizer/New_Systems/rnas/4wcr

>  <Rbt.Executable>
rbdock ($Id: //depot/dev/client3/rdock/2013.1/src/exe/rbdock.cxx#4 $)

>  <Rbt.Library>
libRbt.so (2013.1, Build901 2013/11/27)

>  <Rbt.Parameter_File>
/export/apps/rDock/src/rDock_2013.1_src/data/scripts/dock_solv.prm

>  <Rbt.Receptor>
prm/pocket_docking_7.prm

>  <SCORE>
-6.29878

>  <SCORE.INTER>
-5.15516

>  <SCORE.INTER.CONST>
1

>  <SCORE.INTER.POLAR>
0

>  <SCORE.INTER.ROT>
9

>  <SCORE.INTER.SOLV>
22.5721

>  <SCORE.INTER.VDW>
-20.5608

>  <SCORE.INTER.norm>
-0.122742

>  <SCORE.INTRA>
-1.14362

>  <SCORE.INTRA.DIHEDRAL>
1.00923

>  <SCORE.INTRA.DIHEDRAL.0>
16.2863

>  <SCORE.INTRA.POLAR>
0

>  <SCORE.INTRA.POLAR.0>
0

>  <SCORE.INTRA.REPUL>
-0.314433

>  <SCORE.INTRA.REPUL.0>
0.314433

>  <SCORE.INTRA.SOLV>
-1.0688

>  <SCORE.INTRA.SOLV.lig_0>
-103.824

>  <SCORE.INTRA.VDW>
0.458328

>  <SCORE.INTRA.VDW.0>
-5.30945

>  <SCORE.INTRA.norm>
-0.0272291

>  <SCORE.RESTR>
0

>  <SCORE.RESTR.CAVITY>
0

>  <SCORE.RESTR.norm>
0

>  <SCORE.SYSTEM>
0

>  <SCORE.SYSTEM.CONST>
0

>  <SCORE.SYSTEM.DIHEDRAL>
0

>  <SCORE.SYSTEM.SOLV>
0

>  <SCORE.SYSTEM.norm>
0

>  <SCORE.heavy>
42

>  <SCORE.norm>
-0.149971

>  <RMSD>
9.864

$$$$
lig.pdb
 OpenBabel11021811513D
libRbt.so/2013.1/901 2013/11/27
 42 45  0  0  0  0  0  0  0  0999 V2000
   -5.8080   15.9108   28.9893 C   0  0  2  0  0  0  0  0  0  0  0  0
   -6.9808   16.2290   29.8019 O   0  0  0  0  0  0  0  0  0  0  0  0
   -6.3644   15.4624   27.5647 C   0  0  2  0  0  0  0  0  0  0  0  0
   -7.0957   16.5647   26.9341 N   0  0  0  0  0  0  0  0  0  0  0  0
   -7.2804   14.1569   27.7553 C   0  0  1  0  0  0  0  0  0  0  0  0
   -7.8037   13.6988   26.4908 O   0  0  0  0  0  0  0  0  0  0  0  0
   -6.4080   13.0839   28.4292 C   0  0  2  0  0  0  0  0  0  0  0  0
   -7.1693   11.9391   28.6117 O   0  0  0  0  0  0  0  0  0  0  0  0
   -5.8560   13.6293   29.8242 C   0  0  2  0  0  0  0  0  0  0  0  0
   -5.0678   14.8127   29.6451 O   0  0  0  0  0  0  0  0  0  0  0  0
   -4.9800   12.6236   30.5160 C   0  0  0  0  0  0  0  0  0  0  0  0
   -5.7941   11.4988   30.8502 O   0  0  0  0  0  0  0  0  0  0  0  0
   -6.3313   20.4930   30.8831 C   0  0  2  0  0  0  0  0  0  0  0  0
   -6.4724   21.7749   31.5386 N   0  0  0  0  0  0  0  0  0  0  0  0
   -7.7162   20.0333   30.2833 C   0  0  0  0  0  0  0  0  0  0  0  0
   -7.5909   18.6414   29.5696 C   0  0  2  0  0  0  0  0  0  0  0  0
   -8.8936   18.2498   29.0355 N   0  0  0  0  0  0  0  0  0  0  0  0
   -7.0758   17.4979   30.5522 C   0  0  2  0  0  0  0  0  0  0  0  0
   -5.6931   17.9482   31.1063 C   0  0  2  0  0  0  0  0  0  0  0  0
   -5.2746   16.8143   32.0128 O   0  0  0  0  0  0  0  0  0  0  0  0
   -5.8431   19.3590   31.9029 C   0  0  1  0  0  0  0  0  0  0  0  0
   -4.5912   19.9103   32.4234 O   0  0  0  0  0  0  0  0  0  0  0  0
   -4.2582   17.1930   32.8498 C   0  0  1  0  0  0  0  0  0  0  0  0
   -3.4036   16.0740   33.2606 C   0  0  2  0  0  0  0  0  0  0  0  0
   -4.1309   15.3058   34.1648 O   0  0  0  0  0  0  0  0  0  0  0  0
   -2.1356   16.8212   33.7264 C   0  0  2  0  0  0  0  0  0  0  0  0
   -1.9555   16.5049   35.1254 O   0  0  0  0  0  0  0  0  0  0  0  0
   -2.4372   18.2661   33.5007 C   0  0  2  0  0  0  0  0  0  0  0  0
   -3.3004   18.0946   32.3203 O   0  0  0  0  0  0  0  0  0  0  0  0
   -1.1465   19.0804   33.1194 C   0  0  0  0  0  0  0  0  0  0  0  0
   -1.3701   20.5188   33.0189 O   0  0  0  0  0  0  0  0  0  0  0  0
   -0.6043   16.6332   35.6628 C   0  0  2  0  0  0  0  0  0  0  0  0
   -0.6095   16.1139   37.1939 C   0  0  2  0  0  0  0  0  0  0  0  0
   -1.5983   16.9174   37.9834 N   0  0  0  0  0  0  0  0  0  0  0  0
    0.8820   16.2550   37.7766 C   0  0  1  0  0  0  0  0  0  0  0  0
    1.7557   15.4443   36.9334 O   0  0  0  0  0  0  0  0  0  0  0  0
    1.3194   17.7887   37.7495 C   0  0  2  0  0  0  0  0  0  0  0  0
    0.3999   18.5387   38.6340 O   0  0  0  0  0  0  0  0  0  0  0  0
    1.2617   18.3066   36.2034 C   0  0  1  0  0  0  0  0  0  0  0  0
   -0.1268   18.0999   35.6520 O   0  0  0  0  0  0  0  0  0  0  0  0
    1.6689   19.8162   36.1414 C   0  0  0  0  0  0  0  0  0  0  0  0
    1.5398   20.3961   34.7687 N   0  0  0  0  0  0  0  0  0  0  0  0
  1  3  1  0  0  0  0
  1  2  1  1  0  0  0
  3  4  1  1  0  0  0
  3  5  1  0  0  0  0
  5  6  1  6  0  0  0
  7  8  1  1  0  0  0
  7  5  1  0  0  0  0
  9 11  1  6  0  0  0
  9  7  1  0  0  0  0
 10  9  1  0  0  0  0
 10  1  1  0  0  0  0
 12 11  1  0  0  0  0
 13 14  1  1  0  0  0
 15 13  1  0  0  0  0
 16 17  1  1  0  0  0
 16 15  1  0  0  0  0
 18  2  1  6  0  0  0
 18 19  1  0  0  0  0
 18 16  1  0  0  0  0
 19 20  1  1  0  0  0
 19 21  1  0  0  0  0
 21 22  1  6  0  0  0
 21 13  1  0  0  0  0
 23 20  1  6  0  0  0
 23 29  1  0  0  0  0
 24 25  1  1  0  0  0
 24 26  1  0  0  0  0
 24 23  1  0  0  0  0
 26 27  1  1  0  0  0
 26 28  1  0  0  0  0
 28 30  1  6  0  0  0
 29 28  1  0  0  0  0
 30 31  1  0  0  0  0
 32 27  1  1  0  0  0
 32 40  1  0  0  0  0
 33 35  1  0  0  0  0
 33 32  1  0  0  0  0
 33 34  1  1  0  0  0
 35 36  1  6  0  0  0
 35 37  1  0  0  0  0
 37 38  1  1  0  0  0
 37 39  1  0  0  0  0
 39 41  1  1  0  0  0
 40 39  1  0  0  0  0
 41 42  1  0  0  0  0
M  END
>  <CHROM.1>
-130.12176708,-64.86638080,83.16784390,-163.97008848,-152.39177536,156.55650962
-174.28458187,-175.23193219,-175.58460000,-3.80790164,16.93521416,32.40189010
-2.82631939,-0.78829891,0.11540159

>  <Name>
lig.pdb

>  <RI>
0

>  <Rbt.Current_Directory>
/home/itssahil/PROJECTS/Mol_Feturizer/New_Systems/rnas/4wcr

>  <Rbt.Executable>
rbdock ($Id: //depot/dev/client3/rdock/2013.1/src/exe/rbdock.cxx#4 $)

>  <Rbt.Library>
libRbt.so (2013.1, Build901 2013/11/27)

>  <Rbt.Parameter_File>
/export/apps/rDock/src/rDock_2013.1_src/data/scripts/dock_solv.prm

>  <Rbt.Receptor>
prm/blind_docking_100.prm

>  <SCORE>
-11.8677

>  <SCORE.INTER>
-18.5951

>  <SCORE.INTER.CONST>
1

>  <SCORE.INTER.POLAR>
0

>  <SCORE.INTER.ROT>
9

>  <SCORE.INTER.SOLV>
36.5033

>  <SCORE.INTER.VDW>
-34.1645

>  <SCORE.INTER.norm>
-0.44274

>  <SCORE.INTRA>
3.83773

>  <SCORE.INTRA.DIHEDRAL>
0.28464

>  <SCORE.INTRA.DIHEDRAL.0>
16.2863

>  <SCORE.INTRA.POLAR>
0

>  <SCORE.INTRA.POLAR.0>
0

>  <SCORE.INTRA.REPUL>
-0.314433

>  <SCORE.INTRA.REPUL.0>
0.314433

>  <SCORE.INTRA.SOLV>
-0.667797

>  <SCORE.INTRA.SOLV.lig_0>
-103.824

>  <SCORE.INTRA.VDW>
5.60148

>  <SCORE.INTRA.VDW.0>
-5.30945

>  <SCORE.INTRA.norm>
0.0913746

>  <SCORE.RESTR>
2.88964

>  <SCORE.RESTR.CAVITY>
2.88964

>  <SCORE.RESTR.norm>
0.068801

>  <SCORE.SYSTEM>
0

>  <SCORE.SYSTEM.CONST>
0

>  <SCORE.SYSTEM.DIHEDRAL>
0

>  <SCORE.SYSTEM.SOLV>
0

>  <SCORE.SYSTEM.norm>
0

>  <SCORE.heavy>
42

>  <SCORE.norm>
-0.282564

>  <RMSD>
9.872

$$$$
lig.pdb
 OpenBabel11021811513D
libRbt.so/2013.1/901 2013/11/27
 42 45  0  0  0  0  0  0  0  0999 V2000
   -2.5644    7.6145   32.9147 C   0  0  2  0  0  0  0  0  0  0  0  0
   -2.5060    6.1740   33.1573 O   0  0  0  0  0  0  0  0  0  0  0  0
   -3.3419    7.8004   31.5360 C   0  0  2  0  0  0  0  0  0  0  0  0
   -4.7076    7.2806   31.6477 N   0  0  0  0  0  0  0  0  0  0  0  0
   -2.5092    7.0731   30.3710 C   0  0  1  0  0  0  0  0  0  0  0  0
   -3.1640    7.2199   29.0934 O   0  0  0  0  0  0  0  0  0  0  0  0
   -1.1025    7.6957   30.3611 C   0  0  2  0  0  0  0  0  0  0  0  0
   -0.3522    7.0884   29.3652 O   0  0  0  0  0  0  0  0  0  0  0  0
   -0.4139    7.5059   31.7888 C   0  0  2  0  0  0  0  0  0  0  0  0
   -1.1827    8.1306   32.8244 O   0  0  0  0  0  0  0  0  0  0  0  0
    0.9586    8.1151   31.8382 C   0  0  0  0  0  0  0  0  0  0  0  0
    0.8215    9.5117   31.5728 O   0  0  0  0  0  0  0  0  0  0  0  0
   -1.9096    3.7647   36.8468 C   0  0  2  0  0  0  0  0  0  0  0  0
   -1.2690    3.1344   37.9804 N   0  0  0  0  0  0  0  0  0  0  0  0
   -1.1760    3.3568   35.5110 C   0  0  0  0  0  0  0  0  0  0  0  0
   -1.8500    4.0319   34.2651 C   0  0  2  0  0  0  0  0  0  0  0  0
   -1.1378    3.6350   33.0523 N   0  0  0  0  0  0  0  0  0  0  0  0
   -1.8507    5.6222   34.3608 C   0  0  2  0  0  0  0  0  0  0  0  0
   -2.6097    6.0099   35.6628 C   0  0  2  0  0  0  0  0  0  0  0  0
   -2.5737    7.5203   35.6721 O   0  0  0  0  0  0  0  0  0  0  0  0
   -1.8663    5.3617   36.9568 C   0  0  1  0  0  0  0  0  0  0  0  0
   -2.5256    5.6148   38.2388 O   0  0  0  0  0  0  0  0  0  0  0  0
   -3.2698    8.0300   36.7365 C   0  0  1  0  0  0  0  0  0  0  0  0
   -3.1769    9.4902   36.8390 C   0  0  2  0  0  0  0  0  0  0  0  0
   -1.8915    9.7951   37.2768 O   0  0  0  0  0  0  0  0  0  0  0  0
   -4.3934    9.8053   37.7356 C   0  0  2  0  0  0  0  0  0  0  0  0
   -3.8781   10.4298   38.9332 O   0  0  0  0  0  0  0  0  0  0  0  0
   -5.0231    8.4789   38.0075 C   0  0  2  0  0  0  0  0  0  0  0  0
   -4.6750    7.8408   36.7272 O   0  0  0  0  0  0  0  0  0  0  0  0
   -6.5852    8.5922   38.1543 C   0  0  0  0  0  0  0  0  0  0  0  0
   -7.2492    9.1097   36.9626 O   0  0  0  0  0  0  0  0  0  0  0  0
   -4.8577   10.8736   39.9203 C   0  0  2  0  0  0  0  0  0  0  0  0
   -5.8138   11.9812   39.2323 C   0  0  2  0  0  0  0  0  0  0  0  0
   -4.9727   13.1184   38.7362 N   0  0  0  0  0  0  0  0  0  0  0  0
   -6.8913   12.4617   40.3241 C   0  0  1  0  0  0  0  0  0  0  0  0
   -7.6432   11.2814   40.7403 O   0  0  0  0  0  0  0  0  0  0  0  0
   -6.1335   13.1254   41.5610 C   0  0  2  0  0  0  0  0  0  0  0  0
   -5.4098   14.3167   41.0638 O   0  0  0  0  0  0  0  0  0  0  0  0
   -5.1329   12.0081   42.2031 C   0  0  1  0  0  0  0  0  0  0  0  0
   -4.1764   11.5177   41.1451 O   0  0  0  0  0  0  0  0  0  0  0  0
   -4.3583   12.6318   43.4113 C   0  0  0  0  0  0  0  0  0  0  0  0
   -5.2634   13.0577   44.5233 N   0  0  0  0  0  0  0  0  0  0  0  0
  1  3  1  0  0  0  0
  1  2  1  6  0  0  0
  3  4  1  1  0  0  0
  3  5  1  0  0  0  0
  5  6  1  6  0  0  0
  7  8  1  6  0  0  0
  7  5  1  0  0  0  0
  9 11  1  6  0  0  0
  9  7  1  0  0  0  0
 10  9  1  0  0  0  0
 10  1  1  0  0  0  0
 12 11  1  0  0  0  0
 13 14  1  1  0  0  0
 15 13  1  0  0  0  0
 16 17  1  6  0  0  0
 16 15  1  0  0  0  0
 18  2  1  6  0  0  0
 18 19  1  0  0  0  0
 18 16  1  0  0  0  0
 19 20  1  1  0  0  0
 19 21  1  0  0  0  0
 21 22  1  1  0  0  0
 21 13  1  0  0  0  0
 23 20  1  6  0  0  0
 23 29  1  0  0  0  0
 24 25  1  1  0  0  0
 24 26  1  0  0  0  0
 24 23  1  0  0  0  0
 26 27  1  1  0  0  0
 26 28  1  0  0  0  0
 28 30  1  6  0  0  0
 29 28  1  0  0  0  0
 30 31  1  0  0  0  0
 32 27  1  6  0  0  0
 32 40  1  0  0  0  0
 33 35  1  0  0  0  0
 33 32  1  0  0  0  0
 33 34  1  1  0  0  0
 35 36  1  1  0  0  0
 35 37  1  0  0  0  0
 37 38  1  6  0  0  0
 37 39  1  0  0  0  0
 39 41  1  1  0  0  0
 40 39  1  0  0  0  0
 41 42  1  0  0  0  0
M  END
>  <CHROM.1>
-179.93370111,60.32525763,-175.26582232,176.87246966,175.73916231,177.51914766
60.31741323,-60.93035546,62.33182253,-3.32139298,8.53124031,36.30071822,0.35405921
1.18060685,-0.93711466

>  <Name>
lig.pdb

>  <RI>
0

>  <Rbt.Current_Directory>
/home/itssahil/PROJECTS/Mol_Feturizer/New_Systems/rnas/4wcr

>  <Rbt.Executable>
rbdock ($Id: //depot/dev/client3/rdock/2013.1/src/exe/rbdock.cxx#4 $)

>  <Rbt.Library>
libRbt.so (2013.1, Build901 2013/11/27)

>  <Rbt.Parameter_File>
/export/apps/rDock/src/rDock_2013.1_src/data/scripts/dock_solv.prm

>  <Rbt.Receptor>
prm/pocket_docking_8.prm

>  <SCORE>
-8.44196

>  <SCORE.INTER>
1.7391

>  <SCORE.INTER.CONST>
1

>  <SCORE.INTER.POLAR>
0

>  <SCORE.INTER.ROT>
9

>  <SCORE.INTER.SOLV>
17.494

>  <SCORE.INTER.VDW>
-14.2719

>  <SCORE.INTER.norm>
0.0414071

>  <SCORE.INTRA>
-10.1811

>  <SCORE.INTRA.DIHEDRAL>
-15.4376

>  <SCORE.INTRA.DIHEDRAL.0>
16.2863

>  <SCORE.INTRA.POLAR>
0

>  <SCORE.INTRA.POLAR.0>
0

>  <SCORE.INTRA.REPUL>
-0.314433

>  <SCORE.INTRA.REPUL.0>
0.314433

>  <SCORE.INTRA.SOLV>
-4.72829

>  <SCORE.INTRA.SOLV.lig_0>
-103.824

>  <SCORE.INTRA.VDW>
1.47407

>  <SCORE.INTRA.VDW.0>
-5.30945

>  <SCORE.INTRA.norm>
-0.242406

>  <SCORE.RESTR>
0

>  <SCORE.RESTR.CAVITY>
0

>  <SCORE.RESTR.norm>
0

>  <SCORE.SYSTEM>
0

>  <SCORE.SYSTEM.CONST>
0

>  <SCORE.SYSTEM.DIHEDRAL>
0

>  <SCORE.SYSTEM.SOLV>
0

>  <SCORE.SYSTEM.norm>
0

>  <SCORE.heavy>
42

>  <SCORE.norm>
-0.200999

>  <RMSD>
9.917

$$$$
lig.pdb
 OpenBabel11021811513D
libRbt.so/2013.1/901 2013/11/27
 42 45  0  0  0  0  0  0  0  0999 V2000
    1.0703   12.5617   37.9471 C   0  0  2  0  0  0  0  0  0  0  0  0
    1.9595   13.6882   37.6689 O   0  0  0  0  0  0  0  0  0  0  0  0
    1.0814   11.6544   36.6368 C   0  0  2  0  0  0  0  0  0  0  0  0
    2.4315   11.1440   36.3828 N   0  0  0  0  0  0  0  0  0  0  0  0
    0.5175   12.5179   35.4055 C   0  0  1  0  0  0  0  0  0  0  0  0
    0.4947   11.7393   34.1907 O   0  0  0  0  0  0  0  0  0  0  0  0
   -0.8902   13.0001   35.7956 C   0  0  2  0  0  0  0  0  0  0  0  0
   -1.4092   13.7534   34.7530 O   0  0  0  0  0  0  0  0  0  0  0  0
   -0.8177   13.8602   37.1385 C   0  0  2  0  0  0  0  0  0  0  0  0
   -0.2824   13.0895   38.2216 O   0  0  0  0  0  0  0  0  0  0  0  0
   -2.1729   14.3405   37.5743 C   0  0  0  0  0  0  0  0  0  0  0  0
   -2.6457   15.2560   36.5854 O   0  0  0  0  0  0  0  0  0  0  0  0
    0.8830   16.5996   40.8529 C   0  0  2  0  0  0  0  0  0  0  0  0
    0.9978   17.6445   41.8469 N   0  0  0  0  0  0  0  0  0  0  0  0
    1.9145   15.4450   41.1557 C   0  0  0  0  0  0  0  0  0  0  0  0
    1.8131   14.2997   40.0877 C   0  0  2  0  0  0  0  0  0  0  0  0
    2.7875   13.2561   40.3997 N   0  0  0  0  0  0  0  0  0  0  0  0
    2.0803   14.8231   38.6069 C   0  0  2  0  0  0  0  0  0  0  0  0
    1.0322   15.9343   38.3097 C   0  0  2  0  0  0  0  0  0  0  0  0
    1.3461   16.3656   36.8961 O   0  0  0  0  0  0  0  0  0  0  0  0
    1.1878   17.1497   39.3802 C   0  0  1  0  0  0  0  0  0  0  0  0
    0.2135   18.2318   39.2319 O   0  0  0  0  0  0  0  0  0  0  0  0
    0.3674   17.1825   36.3941 C   0  0  1  0  0  0  0  0  0  0  0  0
    0.8881   18.2232   35.5014 C   0  0  2  0  0  0  0  0  0  0  0  0
    1.5434   19.1608   36.2939 O   0  0  0  0  0  0  0  0  0  0  0  0
   -0.3880   18.6212   34.7293 C   0  0  2  0  0  0  0  0  0  0  0  0
   -0.6253   20.0195   35.0085 O   0  0  0  0  0  0  0  0  0  0  0  0
   -1.4596   17.7382   35.2786 C   0  0  2  0  0  0  0  0  0  0  0  0
   -0.6099   16.5712   35.5683 O   0  0  0  0  0  0  0  0  0  0  0  0
   -2.5337   17.3743   34.1884 C   0  0  0  0  0  0  0  0  0  0  0  0
   -1.9973   16.6013   33.0731 O   0  0  0  0  0  0  0  0  0  0  0  0
   -1.8389   20.6078   34.4498 C   0  0  2  0  0  0  0  0  0  0  0  0
   -1.6929   20.6538   32.8403 C   0  0  2  0  0  0  0  0  0  0  0  0
   -0.4747   21.4485   32.4784 N   0  0  0  0  0  0  0  0  0  0  0  0
   -3.0342   21.2990   32.2331 C   0  0  1  0  0  0  0  0  0  0  0  0
   -4.1496   20.4548   32.6513 O   0  0  0  0  0  0  0  0  0  0  0  0
   -3.2028   22.7871   32.7824 C   0  0  2  0  0  0  0  0  0  0  0  0
   -2.0470   23.5800   32.3074 O   0  0  0  0  0  0  0  0  0  0  0  0
   -3.2900   22.7213   34.4102 C   0  0  1  0  0  0  0  0  0  0  0  0
   -2.0555   22.0485   34.9563 O   0  0  0  0  0  0  0  0  0  0  0  0
   -3.4386   24.1689   34.9855 C   0  0  0  0  0  0  0  0  0  0  0  0
   -3.7398   24.1831   36.4505 N   0  0  0  0  0  0  0  0  0  0  0  0
  1  3  1  0  0  0  0
  1  2  1  6  0  0  0
  3  4  1  6  0  0  0
  3  5  1  0  0  0  0
  5  6  1  6  0  0  0
  7  8  1  6  0  0  0
  7  5  1  0  0  0  0
  9 11  1  1  0  0  0
  9  7  1  0  0  0  0
 10  9  1  0  0  0  0
 10  1  1  0  0  0  0
 12 11  1  0  0  0  0
 13 14  1  1  0  0  0
 15 13  1  0  0  0  0
 16 17  1  1  0  0  0
 16 15  1  0  0  0  0
 18  2  1  6  0  0  0
 18 19  1  0  0  0  0
 18 16  1  0  0  0  0
 19 20  1  6  0  0  0
 19 21  1  0  0  0  0
 21 22  1  6  0  0  0
 21 13  1  0  0  0  0
 23 20  1  6  0  0  0
 23 29  1  0  0  0  0
 24 25  1  1  0  0  0
 24 26  1  0  0  0  0
 24 23  1  0  0  0  0
 26 27  1  1  0  0  0
 26 28  1  0  0  0  0
 28 30  1  6  0  0  0
 29 28  1  0  0  0  0
 30 31  1  0  0  0  0
 32 27  1  1  0  0  0
 32 40  1  0  0  0  0
 33 35  1  0  0  0  0
 33 32  1  0  0  0  0
 33 34  1  1  0  0  0
 35 36  1  1  0  0  0
 35 37  1  0  0  0  0
 37 38  1  1  0  0  0
 37 39  1  0  0  0  0
 39 41  1  1  0  0  0
 40 39  1  0  0  0  0
 41 42  1  0  0  0  0
M  END
>  <CHROM.1>
173.05063190,-65.54329436,29.78749971,169.55595396,145.13040629,-176.21515732
63.38416713,-67.53450979,170.99479439,-0.49824589,17.19275454,36.19641822
0.63089257,1.11447972,-2.72346308

>  <Name>
lig.pdb

>  <RI>
0

>  <Rbt.Current_Directory>
/home/itssahil/PROJECTS/Mol_Feturizer/New_Systems/rnas/4wcr

>  <Rbt.Executable>
rbdock ($Id: //depot/dev/client3/rdock/2013.1/src/exe/rbdock.cxx#4 $)

>  <Rbt.Library>
libRbt.so (2013.1, Build901 2013/11/27)

>  <Rbt.Parameter_File>
/export/apps/rDock/src/rDock_2013.1_src/data/scripts/dock_solv.prm

>  <Rbt.Receptor>
prm/pocket_docking_8.prm

>  <SCORE>
-15.7396

>  <SCORE.INTER>
-9.42153

>  <SCORE.INTER.CONST>
1

>  <SCORE.INTER.POLAR>
0

>  <SCORE.INTER.ROT>
9

>  <SCORE.INTER.SOLV>
30.2163

>  <SCORE.INTER.VDW>
-25.9531

>  <SCORE.INTER.norm>
-0.224322

>  <SCORE.INTRA>
-6.31808

>  <SCORE.INTRA.DIHEDRAL>
-6.10974

>  <SCORE.INTRA.DIHEDRAL.0>
16.2863

>  <SCORE.INTRA.POLAR>
0

>  <SCORE.INTRA.POLAR.0>
0

>  <SCORE.INTRA.REPUL>
-0.314433

>  <SCORE.INTRA.REPUL.0>
0.314433

>  <SCORE.INTRA.SOLV>
-2.33173

>  <SCORE.INTRA.SOLV.lig_0>
-103.824

>  <SCORE.INTRA.VDW>
-0.525177

>  <SCORE.INTRA.VDW.0>
-5.30945

>  <SCORE.INTRA.norm>
-0.15043

>  <SCORE.RESTR>
0

>  <SCORE.RESTR.CAVITY>
0

>  <SCORE.RESTR.norm>
0

>  <SCORE.SYSTEM>
0

>  <SCORE.SYSTEM.CONST>
0

>  <SCORE.SYSTEM.DIHEDRAL>
0

>  <SCORE.SYSTEM.SOLV>
0

>  <SCORE.SYSTEM.norm>
0

>  <SCORE.heavy>
42

>  <SCORE.norm>
-0.374753

>  <RMSD>
9.925

$$$$
lig.pdb
 OpenBabel11021811513D
libRbt.so/2013.1/901 2013/11/27
 42 45  0  0  0  0  0  0  0  0999 V2000
   -4.1695    6.9973   37.0946 C   0  0  2  0  0  0  0  0  0  0  0  0
   -3.1002    7.6951   36.3827 O   0  0  0  0  0  0  0  0  0  0  0  0
   -4.5954    7.9505   38.2988 C   0  0  2  0  0  0  0  0  0  0  0  0
   -5.1159    9.2198   37.7835 N   0  0  0  0  0  0  0  0  0  0  0  0
   -3.3290    8.1609   39.2641 C   0  0  1  0  0  0  0  0  0  0  0  0
   -3.6621    9.0102   40.3823 O   0  0  0  0  0  0  0  0  0  0  0  0
   -2.8744    6.7664   39.7279 C   0  0  2  0  0  0  0  0  0  0  0  0
   -1.7775    6.9096   40.5646 O   0  0  0  0  0  0  0  0  0  0  0  0
   -2.5112    5.8640   38.4621 C   0  0  2  0  0  0  0  0  0  0  0  0
   -3.6392    5.7107   37.5916 O   0  0  0  0  0  0  0  0  0  0  0  0
   -2.0781    4.4818   38.8608 C   0  0  0  0  0  0  0  0  0  0  0  0
   -1.7009    3.7871   37.6713 O   0  0  0  0  0  0  0  0  0  0  0  0
   -1.1836    6.8667   32.4567 C   0  0  2  0  0  0  0  0  0  0  0  0
   -1.0134    6.6411   31.0379 N   0  0  0  0  0  0  0  0  0  0  0  0
   -2.2460    5.8592   33.0442 C   0  0  0  0  0  0  0  0  0  0  0  0
   -2.4524    6.0864   34.5831 C   0  0  2  0  0  0  0  0  0  0  0  0
   -3.4467    5.1404   35.0853 N   0  0  0  0  0  0  0  0  0  0  0  0
   -2.9377    7.5660   34.9200 C   0  0  2  0  0  0  0  0  0  0  0  0
   -1.8621    8.5458   34.3680 C   0  0  2  0  0  0  0  0  0  0  0  0
   -2.3895    9.9134   34.7347 O   0  0  0  0  0  0  0  0  0  0  0  0
   -1.7016    8.3511   32.7606 C   0  0  1  0  0  0  0  0  0  0  0  0
   -0.6735    9.1857   32.1371 O   0  0  0  0  0  0  0  0  0  0  0  0
   -1.3733   10.8243   34.8569 C   0  0  1  0  0  0  0  0  0  0  0  0
   -1.7659   12.0288   35.5959 C   0  0  2  0  0  0  0  0  0  0  0  0
   -2.6008   12.7716   34.7664 O   0  0  0  0  0  0  0  0  0  0  0  0
   -0.3879   12.5900   36.0073 C   0  0  2  0  0  0  0  0  0  0  0  0
   -0.2725   13.8976   35.4019 O   0  0  0  0  0  0  0  0  0  0  0  0
    0.6021   11.6161   35.4586 C   0  0  2  0  0  0  0  0  0  0  0  0
   -0.2314   10.4093   35.5880 O   0  0  0  0  0  0  0  0  0  0  0  0
    1.8768   11.4999   36.3729 C   0  0  0  0  0  0  0  0  0  0  0  0
    1.5908   11.0072   37.7163 O   0  0  0  0  0  0  0  0  0  0  0  0
   -1.2188   14.9167   35.8460 C   0  0  2  0  0  0  0  0  0  0  0  0
   -0.6699   16.3644   35.3802 C   0  0  2  0  0  0  0  0  0  0  0  0
    0.6943   16.5844   35.9609 N   0  0  0  0  0  0  0  0  0  0  0  0
   -1.7189   17.4798   35.8696 C   0  0  1  0  0  0  0  0  0  0  0  0
   -3.0051   17.1654   35.2545 O   0  0  0  0  0  0  0  0  0  0  0  0
   -1.8209   17.4502   37.4612 C   0  0  2  0  0  0  0  0  0  0  0  0
   -0.4885   17.7908   38.0079 O   0  0  0  0  0  0  0  0  0  0  0  0
   -2.3206   15.9636   37.9110 C   0  0  1  0  0  0  0  0  0  0  0  0
   -1.3624   14.9260   37.3817 O   0  0  0  0  0  0  0  0  0  0  0  0
   -2.4153   15.8930   39.4713 C   0  0  0  0  0  0  0  0  0  0  0  0
   -2.8665   14.5552   39.9653 N   0  0  0  0  0  0  0  0  0  0  0  0
  1  3  1  0  0  0  0
  1  2  1  1  0  0  0
  3  4  1  6  0  0  0
  3  5  1  0  0  0  0
  5  6  1  1  0  0  0
  7  8  1  1  0  0  0
  7  5  1  0  0  0  0
  9 11  1  1  0  0  0
  9  7  1  0  0  0  0
 10  9  1  0  0  0  0
 10  1  1  0  0  0  0
 12 11  1  0  0  0  0
 13 14  1  6  0  0  0
 15 13  1  0  0  0  0
 16 17  1  6  0  0  0
 16 15  1  0  0  0  0
 18  2  1  1  0  0  0
 18 19  1  0  0  0  0
 18 16  1  0  0  0  0
 19 20  1  6  0  0  0
 19 21  1  0  0  0  0
 21 22  1  1  0  0  0
 21 13  1  0  0  0  0
 23 20  1  1  0  0  0
 23 29  1  0  0  0  0
 24 25  1  6  0  0  0
 24 26  1  0  0  0  0
 24 23  1  0  0  0  0
 26 27  1  6  0  0  0
 26 28  1  0  0  0  0
 28 30  1  1  0  0  0
 29 28  1  0  0  0  0
 30 31  1  0  0  0  0
 32 27  1  1  0  0  0
 32 40  1  0  0  0  0
 33 35  1  0  0  0  0
 33 32  1  0  0  0  0
 33 34  1  1  0  0  0
 35 36  1  6  0  0  0
 35 37  1  0  0  0  0
 37 38  1  1  0  0  0
 37 39  1  0  0  0  0
 39 41  1  1  0  0  0
 40 39  1  0  0  0  0
 41 42  1  0  0  0  0
M  END
>  <CHROM.1>
-146.65234254,-176.54927096,-69.23735160,153.87891666,-162.31793318,64.00786971
62.14805238,164.28824822,-179.89704229,-1.84816354,10.53952552,36.39126007
2.01218502,-1.24591058,-2.67886027

>  <Name>
lig.pdb

>  <RI>
0

>  <Rbt.Current_Directory>
/home/itssahil/PROJECTS/Mol_Feturizer/New_Systems/rnas/4wcr

>  <Rbt.Executable>
rbdock ($Id: //depot/dev/client3/rdock/2013.1/src/exe/rbdock.cxx#4 $)

>  <Rbt.Library>
libRbt.so (2013.1, Build901 2013/11/27)

>  <Rbt.Parameter_File>
/export/apps/rDock/src/rDock_2013.1_src/data/scripts/dock_solv.prm

>  <Rbt.Receptor>
prm/pocket_docking_4.prm

>  <SCORE>
-1.86506

>  <SCORE.INTER>
1.31261

>  <SCORE.INTER.CONST>
1

>  <SCORE.INTER.POLAR>
0

>  <SCORE.INTER.ROT>
9

>  <SCORE.INTER.SOLV>
16.1507

>  <SCORE.INTER.VDW>
-14.1085

>  <SCORE.INTER.norm>
0.0312525

>  <SCORE.INTRA>
-3.26332

>  <SCORE.INTRA.DIHEDRAL>
-5.52357

>  <SCORE.INTRA.DIHEDRAL.0>
16.2863

>  <SCORE.INTRA.POLAR>
0

>  <SCORE.INTRA.POLAR.0>
0

>  <SCORE.INTRA.REPUL>
-0.280535

>  <SCORE.INTRA.REPUL.0>
0.314433

>  <SCORE.INTRA.SOLV>
-2.63722

>  <SCORE.INTRA.SOLV.lig_0>
-103.824

>  <SCORE.INTRA.VDW>
2.21974

>  <SCORE.INTRA.VDW.0>
-5.30945

>  <SCORE.INTRA.norm>
-0.0776982

>  <SCORE.RESTR>
0.0856528

>  <SCORE.RESTR.CAVITY>
0.0856528

>  <SCORE.RESTR.norm>
0.00203935

>  <SCORE.SYSTEM>
0

>  <SCORE.SYSTEM.CONST>
0

>  <SCORE.SYSTEM.DIHEDRAL>
0

>  <SCORE.SYSTEM.SOLV>
0

>  <SCORE.SYSTEM.norm>
0

>  <SCORE.heavy>
42

>  <SCORE.norm>
-0.0444063

>  <RMSD>
9.929

$$$$
lig.pdb
 OpenBabel11021811513D
libRbt.so/2013.1/901 2013/11/27
 42 45  0  0  0  0  0  0  0  0999 V2000
   -1.2104   16.5868   36.4823 C   0  0  2  0  0  0  0  0  0  0  0  0
   -0.9858   18.0310   36.4512 O   0  0  0  0  0  0  0  0  0  0  0  0
   -2.1260   16.3081   37.7567 C   0  0  2  0  0  0  0  0  0  0  0  0
   -3.4165   16.9878   37.6145 N   0  0  0  0  0  0  0  0  0  0  0  0
   -1.3351   16.7770   39.0736 C   0  0  1  0  0  0  0  0  0  0  0  0
   -2.1159   16.5366   40.2632 O   0  0  0  0  0  0  0  0  0  0  0  0
   -0.0048   16.0049   39.1038 C   0  0  2  0  0  0  0  0  0  0  0  0
    0.7080   16.3871   40.2306 O   0  0  0  0  0  0  0  0  0  0  0  0
    0.8276   16.3037   37.7748 C   0  0  2  0  0  0  0  0  0  0  0  0
    0.0984   15.9118   36.6051 O   0  0  0  0  0  0  0  0  0  0  0  0
    2.1307   15.5566   37.7459 C   0  0  0  0  0  0  0  0  0  0  0  0
    1.8284   14.1612   37.7132 O   0  0  0  0  0  0  0  0  0  0  0  0
    0.7650   21.2357   33.9140 C   0  0  2  0  0  0  0  0  0  0  0  0
    1.5185   21.8961   32.8704 N   0  0  0  0  0  0  0  0  0  0  0  0
    1.7088   20.2868   34.7492 C   0  0  0  0  0  0  0  0  0  0  0  0
    0.9134   19.5542   35.8864 C   0  0  2  0  0  0  0  0  0  0  0  0
    1.8203   18.6820   36.6298 N   0  0  0  0  0  0  0  0  0  0  0  0
   -0.2900   18.6773   35.3196 C   0  0  2  0  0  0  0  0  0  0  0  0
   -1.2311   19.6331   34.5306 C   0  0  2  0  0  0  0  0  0  0  0  0
   -2.3403   18.7323   34.0397 O   0  0  0  0  0  0  0  0  0  0  0  0
   -0.4164   20.3382   33.3114 C   0  0  1  0  0  0  0  0  0  0  0  0
   -1.1894   21.3046   32.5298 O   0  0  0  0  0  0  0  0  0  0  0  0
   -2.9888   19.2793   32.9639 C   0  0  1  0  0  0  0  0  0  0  0  0
   -4.1129   18.4631   32.4934 C   0  0  2  0  0  0  0  0  0  0  0  0
   -3.5783   17.3466   31.8575 O   0  0  0  0  0  0  0  0  0  0  0  0
   -4.9184   19.5015   31.6834 C   0  0  2  0  0  0  0  0  0  0  0  0
   -4.9634   19.0231   30.3201 O   0  0  0  0  0  0  0  0  0  0  0  0
   -4.1485   20.7738   31.8182 C   0  0  2  0  0  0  0  0  0  0  0  0
   -3.6217   20.5311   33.1715 O   0  0  0  0  0  0  0  0  0  0  0  0
   -5.0929   22.0318   31.8176 C   0  0  0  0  0  0  0  0  0  0  0  0
   -4.5436   23.1767   32.5364 O   0  0  0  0  0  0  0  0  0  0  0  0
   -6.2768   18.9569   29.6866 C   0  0  2  0  0  0  0  0  0  0  0  0
   -7.2875   18.1795   30.6807 C   0  0  2  0  0  0  0  0  0  0  0  0
   -6.7418   16.8135   30.9688 N   0  0  0  0  0  0  0  0  0  0  0  0
   -8.7316   18.1143   29.9777 C   0  0  1  0  0  0  0  0  0  0  0  0
   -9.1598   19.4893   29.7377 O   0  0  0  0  0  0  0  0  0  0  0  0
   -8.6197   17.3008   28.6102 C   0  0  2  0  0  0  0  0  0  0  0  0
   -8.1967   15.9206   28.9363 O   0  0  0  0  0  0  0  0  0  0  0  0
   -7.5523   18.0711   27.6462 C   0  0  1  0  0  0  0  0  0  0  0  0
   -6.2242   18.1856   28.3518 O   0  0  0  0  0  0  0  0  0  0  0  0
   -7.4041   17.2889   26.2991 C   0  0  0  0  0  0  0  0  0  0  0  0
   -8.7205   16.9800   25.6597 N   0  0  0  0  0  0  0  0  0  0  0  0
  1  3  1  0  0  0  0
  1  2  1  1  0  0  0
  3  4  1  6  0  0  0
  3  5  1  0  0  0  0
  5  6  1  1  0  0  0
  7  8  1  1  0  0  0
  7  5  1  0  0  0  0
  9 11  1  1  0  0  0
  9  7  1  0  0  0  0
 10  9  1  0  0  0  0
 10  1  1  0  0  0  0
 12 11  1  0  0  0  0
 13 14  1  6  0  0  0
 15 13  1  0  0  0  0
 16 17  1  6  0  0  0
 16 15  1  0  0  0  0
 18  2  1  1  0  0  0
 18 19  1  0  0  0  0
 18 16  1  0  0  0  0
 19 20  1  6  0  0  0
 19 21  1  0  0  0  0
 21 22  1  1  0  0  0
 21 13  1  0  0  0  0
 23 20  1  1  0  0  0
 23 29  1  0  0  0  0
 24 25  1  6  0  0  0
 24 26  1  0  0  0  0
 24 23  1  0  0  0  0
 26 27  1  6  0  0  0
 26 28  1  0  0  0  0
 28 30  1  1  0  0  0
 29 28  1  0  0  0  0
 30 31  1  0  0  0  0
 32 27  1  1  0  0  0
 32 40  1  0  0  0  0
 33 35  1  0  0  0  0
 33 32  1  0  0  0  0
 33 34  1  6  0  0  0
 35 36  1  6  0  0  0
 35 37  1  0  0  0  0
 37 38  1  1  0  0  0
 37 39  1  0  0  0  0
 39 41  1  6  0  0  0
 40 39  1  0  0  0  0
 41 42  1  0  0  0  0
M  END
>  <CHROM.1>
-173.54294702,63.96462764,-126.77183652,-158.60813574,-177.42616476,128.89573095
153.04418900,-49.88725545,50.66478796,-3.03336361,18.35505678,33.48088398
0.58337554,0.66173984,2.44979246

>  <Name>
lig.pdb

>  <RI>
0

>  <Rbt.Current_Directory>
/home/itssahil/PROJECTS/Mol_Feturizer/New_Systems/rnas/4wcr

>  <Rbt.Executable>
rbdock ($Id: //depot/dev/client3/rdock/2013.1/src/exe/rbdock.cxx#4 $)

>  <Rbt.Library>
libRbt.so (2013.1, Build901 2013/11/27)

>  <Rbt.Parameter_File>
/export/apps/rDock/src/rDock_2013.1_src/data/scripts/dock_solv.prm

>  <Rbt.Receptor>
prm/blind_docking_100.prm

>  <SCORE>
3.56959

>  <SCORE.INTER>
-8.43406

>  <SCORE.INTER.CONST>
1

>  <SCORE.INTER.POLAR>
0

>  <SCORE.INTER.ROT>
9

>  <SCORE.INTER.SOLV>
30.5185

>  <SCORE.INTER.VDW>
-25.3955

>  <SCORE.INTER.norm>
-0.200811

>  <SCORE.INTRA>
2.57422

>  <SCORE.INTRA.DIHEDRAL>
2.95169

>  <SCORE.INTRA.DIHEDRAL.0>
16.2863

>  <SCORE.INTRA.POLAR>
0

>  <SCORE.INTRA.POLAR.0>
0

>  <SCORE.INTRA.REPUL>
-0.314433

>  <SCORE.INTRA.REPUL.0>
0.314433

>  <SCORE.INTRA.SOLV>
-0.139243

>  <SCORE.INTRA.SOLV.lig_0>
-103.824

>  <SCORE.INTRA.VDW>
2.74017

>  <SCORE.INTRA.VDW.0>
-5.30945

>  <SCORE.INTRA.norm>
0.061291

>  <SCORE.RESTR>
9.42943

>  <SCORE.RESTR.CAVITY>
9.42943

>  <SCORE.RESTR.norm>
0.22451

>  <SCORE.SYSTEM>
0

>  <SCORE.SYSTEM.CONST>
0

>  <SCORE.SYSTEM.DIHEDRAL>
0

>  <SCORE.SYSTEM.SOLV>
0

>  <SCORE.SYSTEM.norm>
0

>  <SCORE.heavy>
42

>  <SCORE.norm>
0.0849903

>  <RMSD>
9.945

$$$$
lig.pdb
 OpenBabel11021811513D
libRbt.so/2013.1/901 2013/11/27
 42 45  0  0  0  0  0  0  0  0999 V2000
   -6.4256   17.2091   28.4859 C   0  0  2  0  0  0  0  0  0  0  0  0
   -6.6367   16.3135   29.6219 O   0  0  0  0  0  0  0  0  0  0  0  0
   -7.4700   18.4002   28.6607 C   0  0  2  0  0  0  0  0  0  0  0  0
   -7.2028   19.1334   29.9011 N   0  0  0  0  0  0  0  0  0  0  0  0
   -8.9567   17.7936   28.6225 C   0  0  1  0  0  0  0  0  0  0  0  0
   -9.9472   18.8333   28.7656 O   0  0  0  0  0  0  0  0  0  0  0  0
   -9.1087   17.0467   27.2863 C   0  0  2  0  0  0  0  0  0  0  0  0
  -10.3843   16.5063   27.2191 O   0  0  0  0  0  0  0  0  0  0  0  0
   -7.9995   15.9043   27.1726 C   0  0  2  0  0  0  0  0  0  0  0  0
   -6.6778   16.4539   27.2410 O   0  0  0  0  0  0  0  0  0  0  0  0
   -8.0926   15.1553   25.8736 C   0  0  0  0  0  0  0  0  0  0  0  0
   -8.0946   16.1181   24.8187 O   0  0  0  0  0  0  0  0  0  0  0  0
   -4.9424   12.6965   31.5761 C   0  0  2  0  0  0  0  0  0  0  0  0
   -4.1471   11.5093   31.8021 N   0  0  0  0  0  0  0  0  0  0  0  0
   -5.7553   12.5588   30.2311 C   0  0  0  0  0  0  0  0  0  0  0  0
   -6.6239   13.8373   29.9603 C   0  0  2  0  0  0  0  0  0  0  0  0
   -7.3536   13.6725   28.7048 N   0  0  0  0  0  0  0  0  0  0  0  0
   -5.7444   15.1628   29.8709 C   0  0  2  0  0  0  0  0  0  0  0  0
   -4.9780   15.3048   31.2178 C   0  0  2  0  0  0  0  0  0  0  0  0
   -4.1836   16.5795   31.0548 O   0  0  0  0  0  0  0  0  0  0  0  0
   -4.0282   14.0060   31.4595 C   0  0  1  0  0  0  0  0  0  0  0  0
   -3.2971   14.0032   32.7275 O   0  0  0  0  0  0  0  0  0  0  0  0
   -3.9032   17.1518   32.2677 C   0  0  1  0  0  0  0  0  0  0  0  0
   -2.6004   16.7483   32.8071 C   0  0  2  0  0  0  0  0  0  0  0  0
   -2.7172   15.4282   33.2318 O   0  0  0  0  0  0  0  0  0  0  0  0
   -2.3416   17.8704   33.8353 C   0  0  2  0  0  0  0  0  0  0  0  0
   -2.2437   17.2351   35.1300 O   0  0  0  0  0  0  0  0  0  0  0  0
   -3.5284   18.7702   33.7277 C   0  0  2  0  0  0  0  0  0  0  0  0
   -3.7892   18.5650   32.2932 O   0  0  0  0  0  0  0  0  0  0  0  0
   -3.1510   20.2719   34.0047 C   0  0  0  0  0  0  0  0  0  0  0  0
   -2.4710   20.4792   35.2790 O   0  0  0  0  0  0  0  0  0  0  0  0
   -1.1541   17.6707   35.9985 C   0  0  2  0  0  0  0  0  0  0  0  0
    0.2186   16.9923   35.4792 C   0  0  2  0  0  0  0  0  0  0  0  0
    0.0654   15.5013   35.4878 N   0  0  0  0  0  0  0  0  0  0  0  0
    1.4132   17.4797   36.4380 C   0  0  1  0  0  0  0  0  0  0  0  0
    1.4660   18.9366   36.3589 O   0  0  0  0  0  0  0  0  0  0  0  0
    1.1265   16.9957   37.9307 C   0  0  2  0  0  0  0  0  0  0  0  0
    1.1018   15.5160   37.9312 O   0  0  0  0  0  0  0  0  0  0  0  0
   -0.2904   17.6454   38.4125 C   0  0  1  0  0  0  0  0  0  0  0  0
   -1.3853   17.2349   37.4599 O   0  0  0  0  0  0  0  0  0  0  0  0
   -0.6126   17.1763   39.8702 C   0  0  0  0  0  0  0  0  0  0  0  0
   -0.7908   15.6951   39.9771 N   0  0  0  0  0  0  0  0  0  0  0  0
  1  3  1  0  0  0  0
  1  2  1  1  0  0  0
  3  4  1  1  0  0  0
  3  5  1  0  0  0  0
  5  6  1  6  0  0  0
  7  8  1  1  0  0  0
  7  5  1  0  0  0  0
  9 11  1  6  0  0  0
  9  7  1  0  0  0  0
 10  9  1  0  0  0  0
 10  1  1  0  0  0  0
 12 11  1  0  0  0  0
 13 14  1  6  0  0  0
 15 13  1  0  0  0  0
 16 17  1  6  0  0  0
 16 15  1  0  0  0  0
 18  2  1  1  0  0  0
 18 19  1  0  0  0  0
 18 16  1  0  0  0  0
 19 20  1  6  0  0  0
 19 21  1  0  0  0  0
 21 22  1  1  0  0  0
 21 13  1  0  0  0  0
 23 20  1  6  0  0  0
 23 29  1  0  0  0  0
 24 25  1  1  0  0  0
 24 26  1  0  0  0  0
 24 23  1  0  0  0  0
 26 27  1  1  0  0  0
 26 28  1  0  0  0  0
 28 30  1  6  0  0  0
 29 28  1  0  0  0  0
 30 31  1  0  0  0  0
 32 27  1  6  0  0  0
 32 40  1  0  0  0  0
 33 35  1  0  0  0  0
 33 32  1  0  0  0  0
 33 34  1  1  0  0  0
 35 36  1  1  0  0  0
 35 37  1  0  0  0  0
 37 38  1  6  0  0  0
 37 39  1  0  0  0  0
 39 41  1  1  0  0  0
 40 39  1  0  0  0  0
 41 42  1  0  0  0  0
M  END
>  <CHROM.1>
-173.49972963,51.96063212,-125.08777322,154.69003394,93.49385806,135.37062195
-54.24290485,-77.06489490,-62.61110699,-4.14087190,16.53521573,32.28440561
2.90567037,0.85715293,-2.93973718

>  <Name>
lig.pdb

>  <RI>
0

>  <Rbt.Current_Directory>
/home/itssahil/PROJECTS/Mol_Feturizer/New_Systems/rnas/4wcr

>  <Rbt.Executable>
rbdock ($Id: //depot/dev/client3/rdock/2013.1/src/exe/rbdock.cxx#4 $)

>  <Rbt.Library>
libRbt.so (2013.1, Build901 2013/11/27)

>  <Rbt.Parameter_File>
/export/apps/rDock/src/rDock_2013.1_src/data/scripts/dock_solv.prm

>  <Rbt.Receptor>
prm/blind_docking_60.prm

>  <SCORE>
11.8603

>  <SCORE.INTER>
-10.9411

>  <SCORE.INTER.CONST>
1

>  <SCORE.INTER.POLAR>
0

>  <SCORE.INTER.ROT>
9

>  <SCORE.INTER.SOLV>
32.2066

>  <SCORE.INTER.VDW>
-27.6296

>  <SCORE.INTER.norm>
-0.260502

>  <SCORE.INTRA>
20.0587

>  <SCORE.INTRA.DIHEDRAL>
6.07335

>  <SCORE.INTRA.DIHEDRAL.0>
16.2863

>  <SCORE.INTRA.POLAR>
0

>  <SCORE.INTRA.POLAR.0>
0

>  <SCORE.INTRA.REPUL>
-0.297955

>  <SCORE.INTRA.REPUL.0>
0.314433

>  <SCORE.INTRA.SOLV>
1.24904

>  <SCORE.INTRA.SOLV.lig_0>
-103.824

>  <SCORE.INTRA.VDW>
17.8872

>  <SCORE.INTRA.VDW.0>
-5.30945

>  <SCORE.INTRA.norm>
0.477587

>  <SCORE.RESTR>
2.74277

>  <SCORE.RESTR.CAVITY>
2.74277

>  <SCORE.RESTR.norm>
0.065304

>  <SCORE.SYSTEM>
0

>  <SCORE.SYSTEM.CONST>
0

>  <SCORE.SYSTEM.DIHEDRAL>
0

>  <SCORE.SYSTEM.SOLV>
0

>  <SCORE.SYSTEM.norm>
0

>  <SCORE.heavy>
42

>  <SCORE.norm>
0.282389

>  <RMSD>
9.962

$$$$
lig.pdb
 OpenBabel11021811513D
libRbt.so/2013.1/901 2013/11/27
 42 45  0  0  0  0  0  0  0  0999 V2000
    0.0860   12.8738   35.2985 C   0  0  2  0  0  0  0  0  0  0  0  0
   -0.8288   12.6768   36.4216 O   0  0  0  0  0  0  0  0  0  0  0  0
   -0.3895   11.8673   34.1579 C   0  0  2  0  0  0  0  0  0  0  0  0
   -1.7511   12.1943   33.7259 N   0  0  0  0  0  0  0  0  0  0  0  0
   -0.2734   10.3648   34.7134 C   0  0  1  0  0  0  0  0  0  0  0  0
   -0.6822    9.4072   33.7141 O   0  0  0  0  0  0  0  0  0  0  0  0
    1.1890   10.1494   35.1393 C   0  0  2  0  0  0  0  0  0  0  0  0
    1.3265    8.8585   35.6276 O   0  0  0  0  0  0  0  0  0  0  0  0
    1.5966   11.2239   36.2473 C   0  0  2  0  0  0  0  0  0  0  0  0
    1.4575   12.5611   35.7512 O   0  0  0  0  0  0  0  0  0  0  0  0
    3.0255   11.0685   36.6847 C   0  0  0  0  0  0  0  0  0  0  0  0
    3.1156    9.8642   37.4471 O   0  0  0  0  0  0  0  0  0  0  0  0
   -2.3071   15.1838   39.7835 C   0  0  2  0  0  0  0  0  0  0  0  0
   -2.3248   15.9827   40.9894 N   0  0  0  0  0  0  0  0  0  0  0  0
   -1.6642   13.7729   40.0749 C   0  0  0  0  0  0  0  0  0  0  0  0
   -1.6292   12.8875   38.7798 C   0  0  2  0  0  0  0  0  0  0  0  0
   -1.0214   11.5953   39.0905 N   0  0  0  0  0  0  0  0  0  0  0  0
   -0.8060   13.5694   37.5985 C   0  0  2  0  0  0  0  0  0  0  0  0
   -1.4742   14.9421   37.2974 C   0  0  2  0  0  0  0  0  0  0  0  0
   -0.6466   15.5131   36.1696 O   0  0  0  0  0  0  0  0  0  0  0  0
   -1.4466   15.8803   38.6265 C   0  0  1  0  0  0  0  0  0  0  0  0
   -2.0998   17.1816   38.4774 O   0  0  0  0  0  0  0  0  0  0  0  0
   -1.3139   16.5177   35.5193 C   0  0  1  0  0  0  0  0  0  0  0  0
   -0.4160   17.4880   34.8842 C   0  0  2  0  0  0  0  0  0  0  0  0
    0.1549   18.2515   35.8981 O   0  0  0  0  0  0  0  0  0  0  0  0
   -1.3645   18.1483   33.8608 C   0  0  2  0  0  0  0  0  0  0  0  0
   -1.4342   19.5514   34.2017 O   0  0  0  0  0  0  0  0  0  0  0  0
   -2.6716   17.4496   34.0431 C   0  0  2  0  0  0  0  0  0  0  0  0
   -2.1291   16.1349   34.4242 O   0  0  0  0  0  0  0  0  0  0  0  0
   -3.4697   17.3402   32.6920 C   0  0  0  0  0  0  0  0  0  0  0  0
   -4.6473   16.4826   32.7755 O   0  0  0  0  0  0  0  0  0  0  0  0
   -1.9095   20.4604   33.1630 C   0  0  2  0  0  0  0  0  0  0  0  0
   -1.7712   21.9771   33.7059 C   0  0  2  0  0  0  0  0  0  0  0  0
   -2.5605   22.1213   34.9719 N   0  0  0  0  0  0  0  0  0  0  0  0
   -2.2928   22.9713   32.5554 C   0  0  1  0  0  0  0  0  0  0  0  0
   -1.4647   22.7415   31.3751 O   0  0  0  0  0  0  0  0  0  0  0  0
   -3.8282   22.6674   32.2477 C   0  0  2  0  0  0  0  0  0  0  0  0
   -4.6001   22.9356   33.4815 O   0  0  0  0  0  0  0  0  0  0  0  0
   -3.9511   21.1162   31.7573 C   0  0  1  0  0  0  0  0  0  0  0  0
   -3.3912   20.2038   32.8197 O   0  0  0  0  0  0  0  0  0  0  0  0
   -5.4501   20.7775   31.4627 C   0  0  0  0  0  0  0  0  0  0  0  0
   -6.0234   21.5996   30.3523 N   0  0  0  0  0  0  0  0  0  0  0  0
  1  3  1  0  0  0  0
  1  2  1  1  0  0  0
  3  4  1  1  0  0  0
  3  5  1  0  0  0  0
  5  6  1  6  0  0  0
  7  8  1  1  0  0  0
  7  5  1  0  0  0  0
  9 11  1  6  0  0  0
  9  7  1  0  0  0  0
 10  9  1  0  0  0  0
 10  1  1  0  0  0  0
 12 11  1  0  0  0  0
 13 14  1  1  0  0  0
 15 13  1  0  0  0  0
 16 17  1  1  0  0  0
 16 15  1  0  0  0  0
 18  2  1  6  0  0  0
 18 19  1  0  0  0  0
 18 16  1  0  0  0  0
 19 20  1  6  0  0  0
 19 21  1  0  0  0  0
 21 22  1  6  0  0  0
 21 13  1  0  0  0  0
 23 20  1  6  0  0  0
 23 29  1  0  0  0  0
 24 25  1  1  0  0  0
 24 26  1  0  0  0  0
 24 23  1  0  0  0  0
 26 27  1  1  0  0  0
 26 28  1  0  0  0  0
 28 30  1  6  0  0  0
 29 28  1  0  0  0  0
 30 31  1  0  0  0  0
 32 27  1  1  0  0  0
 32 40  1  0  0  0  0
 33 35  1  0  0  0  0
 33 32  1  0  0  0  0
 33 34  1  1  0  0  0
 35 36  1  6  0  0  0
 35 37  1  0  0  0  0
 37 38  1  1  0  0  0
 37 39  1  0  0  0  0
 39 41  1  1  0  0  0
 40 39  1  0  0  0  0
 41 42  1  0  0  0  0
M  END
>  <CHROM.1>
-171.77518869,-70.52619884,-165.52033648,162.02883087,153.35280022,161.03921891
170.73264690,-174.58408799,62.55196506,-1.46726535,16.09509784,35.17578701
-0.17953925,1.22744659,-1.75726934

>  <Name>
lig.pdb

>  <RI>
0

>  <Rbt.Current_Directory>
/home/itssahil/PROJECTS/Mol_Feturizer/New_Systems/rnas/4wcr

>  <Rbt.Executable>
rbdock ($Id: //depot/dev/client3/rdock/2013.1/src/exe/rbdock.cxx#4 $)

>  <Rbt.Library>
libRbt.so (2013.1, Build901 2013/11/27)

>  <Rbt.Parameter_File>
/export/apps/rDock/src/rDock_2013.1_src/data/scripts/dock_solv.prm

>  <Rbt.Receptor>
prm/pocket_docking_8.prm

>  <SCORE>
-17.4136

>  <SCORE.INTER>
-10.109

>  <SCORE.INTER.CONST>
1

>  <SCORE.INTER.POLAR>
0

>  <SCORE.INTER.ROT>
9

>  <SCORE.INTER.SOLV>
16.7173

>  <SCORE.INTER.VDW>
-21.9118

>  <SCORE.INTER.norm>
-0.240691

>  <SCORE.INTRA>
-7.30459

>  <SCORE.INTRA.DIHEDRAL>
-7.56771

>  <SCORE.INTRA.DIHEDRAL.0>
16.2863

>  <SCORE.INTRA.POLAR>
0

>  <SCORE.INTRA.POLAR.0>
0

>  <SCORE.INTRA.REPUL>
-0.314433

>  <SCORE.INTRA.REPUL.0>
0.314433

>  <SCORE.INTRA.SOLV>
-5.16018

>  <SCORE.INTRA.SOLV.lig_0>
-103.824

>  <SCORE.INTRA.VDW>
0.631518

>  <SCORE.INTRA.VDW.0>
-5.30945

>  <SCORE.INTRA.norm>
-0.173919

>  <SCORE.RESTR>
0

>  <SCORE.RESTR.CAVITY>
0

>  <SCORE.RESTR.norm>
0

>  <SCORE.SYSTEM>
0

>  <SCORE.SYSTEM.CONST>
0

>  <SCORE.SYSTEM.DIHEDRAL>
0

>  <SCORE.SYSTEM.SOLV>
0

>  <SCORE.SYSTEM.norm>
0

>  <SCORE.heavy>
42

>  <SCORE.norm>
-0.41461

>  <RMSD>
9.969

$$$$
lig.pdb
 OpenBabel11021811513D
libRbt.so/2013.1/901 2013/11/27
 42 45  0  0  0  0  0  0  0  0999 V2000
   -1.5537    6.9930   34.6660 C   0  0  2  0  0  0  0  0  0  0  0  0
   -0.2330    6.4394   34.9600 O   0  0  0  0  0  0  0  0  0  0  0  0
   -2.2844    5.9254   33.7352 C   0  0  2  0  0  0  0  0  0  0  0  0
   -2.4483    4.6558   34.4486 N   0  0  0  0  0  0  0  0  0  0  0  0
   -1.4380    5.7556   32.3808 C   0  0  1  0  0  0  0  0  0  0  0  0
   -2.0623    4.8050   31.4923 O   0  0  0  0  0  0  0  0  0  0  0  0
   -1.3295    7.1476   31.7351 C   0  0  2  0  0  0  0  0  0  0  0  0
   -0.6007    7.0393   30.5600 O   0  0  0  0  0  0  0  0  0  0  0  0
   -0.6294    8.1637   32.7479 C   0  0  2  0  0  0  0  0  0  0  0  0
   -1.3760    8.2819   33.9654 O   0  0  0  0  0  0  0  0  0  0  0  0
   -0.5161    9.5463   32.1710 C   0  0  0  0  0  0  0  0  0  0  0  0
    0.1565   10.3616   33.1315 O   0  0  0  0  0  0  0  0  0  0  0  0
   -0.0610    6.6673   39.3974 C   0  0  2  0  0  0  0  0  0  0  0  0
    0.4471    6.6189   40.7511 N   0  0  0  0  0  0  0  0  0  0  0  0
    0.2050    5.2944   38.6671 C   0  0  0  0  0  0  0  0  0  0  0  0
   -0.3336    5.3226   37.1935 C   0  0  2  0  0  0  0  0  0  0  0  0
   -0.0617    4.0380   36.5518 N   0  0  0  0  0  0  0  0  0  0  0  0
    0.3321    6.4800   36.3243 C   0  0  2  0  0  0  0  0  0  0  0  0
    0.0295    7.8299   37.0367 C   0  0  2  0  0  0  0  0  0  0  0  0
    0.6809    8.8660   36.1508 O   0  0  0  0  0  0  0  0  0  0  0  0
    0.6494    7.8189   38.5411 C   0  0  1  0  0  0  0  0  0  0  0  0
    0.3778    9.0216   39.3297 O   0  0  0  0  0  0  0  0  0  0  0  0
    0.4769   10.1330   36.6307 C   0  0  1  0  0  0  0  0  0  0  0  0
    1.1328   11.1669   35.8232 C   0  0  2  0  0  0  0  0  0  0  0  0
    2.5002   11.0792   36.0667 O   0  0  0  0  0  0  0  0  0  0  0  0
    0.3505   12.4255   36.2556 C   0  0  2  0  0  0  0  0  0  0  0  0
    1.3095   13.3287   36.8506 O   0  0  0  0  0  0  0  0  0  0  0  0
   -0.6573   11.9311   37.2403 C   0  0  2  0  0  0  0  0  0  0  0  0
   -0.8619   10.5998   36.6458 O   0  0  0  0  0  0  0  0  0  0  0  0
   -1.9896   12.7654   37.1827 C   0  0  0  0  0  0  0  0  0  0  0  0
   -3.0043   12.3143   38.1293 O   0  0  0  0  0  0  0  0  0  0  0  0
    0.9573   14.7452   36.8723 C   0  0  2  0  0  0  0  0  0  0  0  0
    2.1658   15.5640   37.5675 C   0  0  2  0  0  0  0  0  0  0  0  0
    2.3932   15.0284   38.9489 N   0  0  0  0  0  0  0  0  0  0  0  0
    1.7718   17.1223   37.5841 C   0  0  1  0  0  0  0  0  0  0  0  0
    1.5674   17.5329   36.1980 O   0  0  0  0  0  0  0  0  0  0  0  0
    0.4441   17.3248   38.4447 C   0  0  2  0  0  0  0  0  0  0  0  0
    0.7342   16.9021   39.8330 O   0  0  0  0  0  0  0  0  0  0  0  0
   -0.7459   16.4448   37.7582 C   0  0  1  0  0  0  0  0  0  0  0  0
   -0.3281   14.9973   37.6868 O   0  0  0  0  0  0  0  0  0  0  0  0
   -2.0623   16.6064   38.5888 C   0  0  0  0  0  0  0  0  0  0  0  0
   -3.2313   15.9133   37.9640 N   0  0  0  0  0  0  0  0  0  0  0  0
  1  3  1  0  0  0  0
  1  2  1  6  0  0  0
  3  4  1  1  0  0  0
  3  5  1  0  0  0  0
  5  6  1  6  0  0  0
  7  8  1  6  0  0  0
  7  5  1  0  0  0  0
  9 11  1  6  0  0  0
  9  7  1  0  0  0  0
 10  9  1  0  0  0  0
 10  1  1  0  0  0  0
 12 11  1  0  0  0  0
 13 14  1  1  0  0  0
 15 13  1  0  0  0  0
 16 17  1  6  0  0  0
 16 15  1  0  0  0  0
 18  2  1  6  0  0  0
 18 19  1  0  0  0  0
 18 16  1  0  0  0  0
 19 20  1  6  0  0  0
 19 21  1  0  0  0  0
 21 22  1  1  0  0  0
 21 13  1  0  0  0  0
 23 20  1  6  0  0  0
 23 29  1  0  0  0  0
 24 25  1  1  0  0  0
 24 26  1  0  0  0  0
 24 23  1  0  0  0  0
 26 27  1  1  0  0  0
 26 28  1  0  0  0  0
 28 30  1  6  0  0  0
 29 28  1  0  0  0  0
 30 31  1  0  0  0  0
 32 27  1  1  0  0  0
 32 40  1  0  0  0  0
 33 35  1  0  0  0  0
 33 32  1  0  0  0  0
 33 34  1  1  0  0  0
 35 36  1  6  0  0  0
 35 37  1  0  0  0  0
 37 38  1  1  0  0  0
 37 39  1  0  0  0  0
 39 41  1  1  0  0  0
 40 39  1  0  0  0  0
 41 42  1  0  0  0  0
M  END
>  <CHROM.1>
-135.85060149,-178.21312919,78.46022414,178.61288510,178.04037223,157.17846209
179.93165027,-179.64871135,175.54839558,-0.21669249,10.42899594,36.26976628
2.21189617,1.37998972,2.85240554

>  <Name>
lig.pdb

>  <RI>
0

>  <Rbt.Current_Directory>
/home/itssahil/PROJECTS/Mol_Feturizer/New_Systems/rnas/4wcr

>  <Rbt.Executable>
rbdock ($Id: //depot/dev/client3/rdock/2013.1/src/exe/rbdock.cxx#4 $)

>  <Rbt.Library>
libRbt.so (2013.1, Build901 2013/11/27)

>  <Rbt.Parameter_File>
/export/apps/rDock/src/rDock_2013.1_src/data/scripts/dock_solv.prm

>  <Rbt.Receptor>
prm/pocket_docking_5.prm

>  <SCORE>
-5.86383

>  <SCORE.INTER>
-1.93221

>  <SCORE.INTER.CONST>
1

>  <SCORE.INTER.POLAR>
0

>  <SCORE.INTER.ROT>
9

>  <SCORE.INTER.SOLV>
16.6403

>  <SCORE.INTER.VDW>
-16.4349

>  <SCORE.INTER.norm>
-0.0460051

>  <SCORE.INTRA>
-3.93162

>  <SCORE.INTRA.DIHEDRAL>
-5.82375

>  <SCORE.INTRA.DIHEDRAL.0>
16.2863

>  <SCORE.INTRA.POLAR>
0

>  <SCORE.INTRA.POLAR.0>
0

>  <SCORE.INTRA.REPUL>
-0.0920756

>  <SCORE.INTRA.REPUL.0>
0.314433

>  <SCORE.INTRA.SOLV>
-1.16894

>  <SCORE.INTRA.SOLV.lig_0>
-103.824

>  <SCORE.INTRA.VDW>
0.0251015

>  <SCORE.INTRA.VDW.0>
-5.30945

>  <SCORE.INTRA.norm>
-0.09361

>  <SCORE.RESTR>
0

>  <SCORE.RESTR.CAVITY>
0

>  <SCORE.RESTR.norm>
0

>  <SCORE.SYSTEM>
0

>  <SCORE.SYSTEM.CONST>
0

>  <SCORE.SYSTEM.DIHEDRAL>
0

>  <SCORE.SYSTEM.SOLV>
0

>  <SCORE.SYSTEM.norm>
0

>  <SCORE.heavy>
42

>  <SCORE.norm>
-0.139615

>  <RMSD>
9.973

$$$$
lig.pdb
 OpenBabel11021811513D
libRbt.so/2013.1/901 2013/11/27
 42 45  0  0  0  0  0  0  0  0999 V2000
   -1.1639    4.7454   36.1537 C   0  0  2  0  0  0  0  0  0  0  0  0
   -2.0582    5.5243   37.0085 O   0  0  0  0  0  0  0  0  0  0  0  0
    0.0750    5.6936   35.8282 C   0  0  2  0  0  0  0  0  0  0  0  0
    0.7833    6.0469   37.0615 N   0  0  0  0  0  0  0  0  0  0  0  0
   -0.4581    6.9890   35.0423 C   0  0  1  0  0  0  0  0  0  0  0  0
    0.6274    7.8804   34.7110 O   0  0  0  0  0  0  0  0  0  0  0  0
   -1.1847    6.4888   33.7820 C   0  0  2  0  0  0  0  0  0  0  0  0
   -1.6617    7.5839   33.0771 O   0  0  0  0  0  0  0  0  0  0  0  0
   -2.3788    5.5126   34.1941 C   0  0  2  0  0  0  0  0  0  0  0  0
   -1.8949    4.3777   34.9231 O   0  0  0  0  0  0  0  0  0  0  0  0
   -3.1108    4.9798   32.9952 C   0  0  0  0  0  0  0  0  0  0  0  0
   -4.1971    4.1839   33.4705 O   0  0  0  0  0  0  0  0  0  0  0  0
   -2.4059    5.9362   41.4224 C   0  0  2  0  0  0  0  0  0  0  0  0
   -2.0538    6.1619   42.8073 N   0  0  0  0  0  0  0  0  0  0  0  0
   -1.4906    4.8094   40.8049 C   0  0  0  0  0  0  0  0  0  0  0  0
   -1.8501    4.5483   39.2999 C   0  0  2  0  0  0  0  0  0  0  0  0
   -0.9769    3.5056   38.7651 N   0  0  0  0  0  0  0  0  0  0  0  0
   -1.6959    5.8553   38.4019 C   0  0  2  0  0  0  0  0  0  0  0  0
   -2.6321    6.9447   39.0007 C   0  0  2  0  0  0  0  0  0  0  0  0
   -2.4349    8.1364   38.0932 O   0  0  0  0  0  0  0  0  0  0  0  0
   -2.2105    7.2585   40.5406 C   0  0  1  0  0  0  0  0  0  0  0  0
   -3.0602    8.2327   41.2270 O   0  0  0  0  0  0  0  0  0  0  0  0
   -3.4563    9.0399   38.2262 C   0  0  1  0  0  0  0  0  0  0  0  0
   -3.1377   10.3560   37.6626 C   0  0  2  0  0  0  0  0  0  0  0  0
   -2.2218   10.9631   38.5165 O   0  0  0  0  0  0  0  0  0  0  0  0
   -4.5490   10.9573   37.4899 C   0  0  2  0  0  0  0  0  0  0  0  0
   -4.6000   12.1446   38.3129 O   0  0  0  0  0  0  0  0  0  0  0  0
   -5.4807    9.8914   37.9650 C   0  0  2  0  0  0  0  0  0  0  0  0
   -4.6670    8.7352   37.5539 O   0  0  0  0  0  0  0  0  0  0  0  0
   -6.8413    9.9096   37.1759 C   0  0  0  0  0  0  0  0  0  0  0  0
   -7.6910    8.7548   37.4473 O   0  0  0  0  0  0  0  0  0  0  0  0
   -3.7255   13.2498   37.9323 C   0  0  2  0  0  0  0  0  0  0  0  0
   -3.9230   14.4505   38.9970 C   0  0  2  0  0  0  0  0  0  0  0  0
   -5.3637   14.8638   39.0120 N   0  0  0  0  0  0  0  0  0  0  0  0
   -2.9544   15.6613   38.5731 C   0  0  1  0  0  0  0  0  0  0  0  0
   -1.5877   15.1478   38.5841 O   0  0  0  0  0  0  0  0  0  0  0  0
   -3.3604   16.1822   37.1211 C   0  0  2  0  0  0  0  0  0  0  0  0
   -4.7461   16.6968   37.1945 O   0  0  0  0  0  0  0  0  0  0  0  0
   -3.2089   14.9397   36.0745 C   0  0  1  0  0  0  0  0  0  0  0  0
   -4.0702   13.7878   36.5284 O   0  0  0  0  0  0  0  0  0  0  0  0
   -3.6170   15.4114   34.6394 C   0  0  0  0  0  0  0  0  0  0  0  0
   -2.7034   16.4617   34.0921 N   0  0  0  0  0  0  0  0  0  0  0  0
  1  3  1  0  0  0  0
  1  2  1  1  0  0  0
  3  4  1  1  0  0  0
  3  5  1  0  0  0  0
  5  6  1  6  0  0  0
  7  8  1  1  0  0  0
  7  5  1  0  0  0  0
  9 11  1  6  0  0  0
  9  7  1  0  0  0  0
 10  9  1  0  0  0  0
 10  1  1  0  0  0  0
 12 11  1  0  0  0  0
 13 14  1  1  0  0  0
 15 13  1  0  0  0  0
 16 17  1  6  0  0  0
 16 15  1  0  0  0  0
 18  2  1  6  0  0  0
 18 19  1  0  0  0  0
 18 16  1  0  0  0  0
 19 20  1  6  0  0  0
 19 21  1  0  0  0  0
 21 22  1  1  0  0  0
 21 13  1  0  0  0  0
 23 20  1  6  0  0  0
 23 29  1  0  0  0  0
 24 25  1  1  0  0  0
 24 26  1  0  0  0  0
 24 23  1  0  0  0  0
 26 27  1  1  0  0  0
 26 28  1  0  0  0  0
 28 30  1  6  0  0  0
 29 28  1  0  0  0  0
 30 31  1  0  0  0  0
 32 27  1  1  0  0  0
 32 40  1  0  0  0  0
 33 35  1  0  0  0  0
 33 32  1  0  0  0  0
 33 34  1  6  0  0  0
 35 36  1  6  0  0  0
 35 37  1  0  0  0  0
 37 38  1  1  0  0  0
 37 39  1  0  0  0  0
 39 41  1  6  0  0  0
 40 39  1  0  0  0  0
 41 42  1  0  0  0  0
M  END
>  <CHROM.1>
-70.32261479,-176.82460996,-74.40641981,161.97172840,164.14200153,65.50419529
170.32335585,-178.89435654,64.56593601,-2.86356311,9.27222474,37.29908084
-0.47719563,1.32252848,-1.04940686

>  <Name>
lig.pdb

>  <RI>
0

>  <Rbt.Current_Directory>
/home/itssahil/PROJECTS/Mol_Feturizer/New_Systems/rnas/4wcr

>  <Rbt.Executable>
rbdock ($Id: //depot/dev/client3/rdock/2013.1/src/exe/rbdock.cxx#4 $)

>  <Rbt.Library>
libRbt.so (2013.1, Build901 2013/11/27)

>  <Rbt.Parameter_File>
/export/apps/rDock/src/rDock_2013.1_src/data/scripts/dock_solv.prm

>  <Rbt.Receptor>
prm/pocket_docking_8.prm

>  <SCORE>
-3.13482

>  <SCORE.INTER>
2.95985

>  <SCORE.INTER.CONST>
1

>  <SCORE.INTER.POLAR>
0

>  <SCORE.INTER.ROT>
9

>  <SCORE.INTER.SOLV>
16.1869

>  <SCORE.INTER.VDW>
-13.0224

>  <SCORE.INTER.norm>
0.0704726

>  <SCORE.INTRA>
-6.09468

>  <SCORE.INTRA.DIHEDRAL>
-11.0194

>  <SCORE.INTRA.DIHEDRAL.0>
16.2863

>  <SCORE.INTRA.POLAR>
0

>  <SCORE.INTRA.POLAR.0>
0

>  <SCORE.INTRA.REPUL>
-0.298194

>  <SCORE.INTRA.REPUL.0>
0.314433

>  <SCORE.INTRA.SOLV>
-2.04227

>  <SCORE.INTRA.SOLV.lig_0>
-103.824

>  <SCORE.INTRA.VDW>
1.92712

>  <SCORE.INTRA.VDW.0>
-5.30945

>  <SCORE.INTRA.norm>
-0.145111

>  <SCORE.RESTR>
0

>  <SCORE.RESTR.CAVITY>
0

>  <SCORE.RESTR.norm>
0

>  <SCORE.SYSTEM>
0

>  <SCORE.SYSTEM.CONST>
0

>  <SCORE.SYSTEM.DIHEDRAL>
0

>  <SCORE.SYSTEM.SOLV>
0

>  <SCORE.SYSTEM.norm>
0

>  <SCORE.heavy>
42

>  <SCORE.norm>
-0.0746387

>  <RMSD>
9.973

$$$$
lig.pdb
 OpenBabel11021811513D
libRbt.so/2013.1/901 2013/11/27
 42 45  0  0  0  0  0  0  0  0999 V2000
   -2.1178    5.6426   36.6596 C   0  0  2  0  0  0  0  0  0  0  0  0
   -2.9201    6.7092   37.2561 O   0  0  0  0  0  0  0  0  0  0  0  0
   -2.5294    5.5863   35.1210 C   0  0  2  0  0  0  0  0  0  0  0  0
   -2.2037    6.8533   34.4604 N   0  0  0  0  0  0  0  0  0  0  0  0
   -4.0925    5.2319   35.0167 C   0  0  1  0  0  0  0  0  0  0  0  0
   -4.5187    5.1566   33.6400 O   0  0  0  0  0  0  0  0  0  0  0  0
   -4.3054    3.8960   35.7493 C   0  0  2  0  0  0  0  0  0  0  0  0
   -5.6489    3.5584   35.6811 O   0  0  0  0  0  0  0  0  0  0  0  0
   -3.8271    4.0257   37.2668 C   0  0  2  0  0  0  0  0  0  0  0  0
   -2.4394    4.3745   37.3469 O   0  0  0  0  0  0  0  0  0  0  0  0
   -3.9967    2.7389   38.0234 C   0  0  0  0  0  0  0  0  0  0  0  0
   -5.3907    2.4289   38.0420 O   0  0  0  0  0  0  0  0  0  0  0  0
   -2.8100    8.7559   41.2022 C   0  0  2  0  0  0  0  0  0  0  0  0
   -2.3147    9.4613   42.3641 N   0  0  0  0  0  0  0  0  0  0  0  0
   -1.9847    7.4302   40.9778 C   0  0  0  0  0  0  0  0  0  0  0  0
   -2.5002    6.6477   39.7190 C   0  0  2  0  0  0  0  0  0  0  0  0
   -1.7067    5.4332   39.5428 N   0  0  0  0  0  0  0  0  0  0  0  0
   -2.4118    7.5147   38.3853 C   0  0  2  0  0  0  0  0  0  0  0  0
   -3.2605    8.7999   38.6084 C   0  0  2  0  0  0  0  0  0  0  0  0
   -3.1327    9.5542   37.3055 O   0  0  0  0  0  0  0  0  0  0  0  0
   -2.6787    9.6408   39.8741 C   0  0  1  0  0  0  0  0  0  0  0  0
   -3.4347   10.8471   40.2139 O   0  0  0  0  0  0  0  0  0  0  0  0
   -3.8570   10.7170   37.3285 C   0  0  1  0  0  0  0  0  0  0  0  0
   -3.7990   11.4563   36.0631 C   0  0  2  0  0  0  0  0  0  0  0  0
   -2.5280   12.0150   35.9661 O   0  0  0  0  0  0  0  0  0  0  0  0
   -5.0364   12.3701   36.1933 C   0  0  2  0  0  0  0  0  0  0  0  0
   -4.5546   13.7324   36.1560 O   0  0  0  0  0  0  0  0  0  0  0  0
   -5.6401   12.0125   37.5114 C   0  0  2  0  0  0  0  0  0  0  0  0
   -5.2573   10.5908   37.5128 O   0  0  0  0  0  0  0  0  0  0  0  0
   -7.2065   12.1561   37.4956 C   0  0  0  0  0  0  0  0  0  0  0  0
   -7.6671   13.5165   37.2378 O   0  0  0  0  0  0  0  0  0  0  0  0
   -4.0961   14.3054   37.4179 C   0  0  2  0  0  0  0  0  0  0  0  0
   -3.6661   15.8421   37.1575 C   0  0  2  0  0  0  0  0  0  0  0  0
   -2.5958   15.8835   36.1090 N   0  0  0  0  0  0  0  0  0  0  0  0
   -3.1664   16.4665   38.5519 C   0  0  1  0  0  0  0  0  0  0  0  0
   -4.2771   16.3678   39.4944 O   0  0  0  0  0  0  0  0  0  0  0  0
   -1.8972   15.6528   39.0730 C   0  0  2  0  0  0  0  0  0  0  0  0
   -0.8152   15.8121   38.0760 O   0  0  0  0  0  0  0  0  0  0  0  0
   -2.3392   14.0951   39.2734 C   0  0  1  0  0  0  0  0  0  0  0  0
   -2.8717   13.5488   37.9724 O   0  0  0  0  0  0  0  0  0  0  0  0
   -1.1106   13.2619   39.7685 C   0  0  0  0  0  0  0  0  0  0  0  0
    0.0215   13.2605   38.7910 N   0  0  0  0  0  0  0  0  0  0  0  0
  1  3  1  0  0  0  0
  1  2  1  1  0  0  0
  3  4  1  1  0  0  0
  3  5  1  0  0  0  0
  5  6  1  6  0  0  0
  7  8  1  1  0  0  0
  7  5  1  0  0  0  0
  9 11  1  1  0  0  0
  9  7  1  0  0  0  0
 10  9  1  0  0  0  0
 10  1  1  0  0  0  0
 12 11  1  0  0  0  0
 13 14  1  1  0  0  0
 15 13  1  0  0  0  0
 16 17  1  6  0  0  0
 16 15  1  0  0  0  0
 18  2  1  6  0  0  0
 18 19  1  0  0  0  0
 18 16  1  0  0  0  0
 19 20  1  6  0  0  0
 19 21  1  0  0  0  0
 21 22  1  1  0  0  0
 21 13  1  0  0  0  0
 23 20  1  6  0  0  0
 23 29  1  0  0  0  0
 24 25  1  1  0  0  0
 24 26  1  0  0  0  0
 24 23  1  0  0  0  0
 26 27  1  1  0  0  0
 26 28  1  0  0  0  0
 28 30  1  6  0  0  0
 29 28  1  0  0  0  0
 30 31  1  0  0  0  0
 32 27  1  6  0  0  0
 32 40  1  0  0  0  0
 33 35  1  0  0  0  0
 33 32  1  0  0  0  0
 33 34  1  6  0  0  0
 35 36  1  1  0  0  0
 35 37  1  0  0  0  0
 37 38  1  6  0  0  0
 37 39  1  0  0  0  0
 39 41  1  6  0  0  0
 40 39  1  0  0  0  0
 41 42  1  0  0  0  0
M  END
>  <CHROM.1>
-148.78705817,-62.25403586,-76.11066864,178.74440135,-177.90883410,-84.82607743
-61.87969144,-177.58849154,-61.51701197,-3.42213576,9.84022509,37.73242828
-1.64539791,-0.97914374,0.05030077

>  <Name>
lig.pdb

>  <RI>
0

>  <Rbt.Current_Directory>
/home/itssahil/PROJECTS/Mol_Feturizer/New_Systems/rnas/4wcr

>  <Rbt.Executable>
rbdock ($Id: //depot/dev/client3/rdock/2013.1/src/exe/rbdock.cxx#4 $)

>  <Rbt.Library>
libRbt.so (2013.1, Build901 2013/11/27)

>  <Rbt.Parameter_File>
/export/apps/rDock/src/rDock_2013.1_src/data/scripts/dock_solv.prm

>  <Rbt.Receptor>
prm/pocket_docking_4.prm

>  <SCORE>
1.86983

>  <SCORE.INTER>
5.13459

>  <SCORE.INTER.CONST>
1

>  <SCORE.INTER.POLAR>
0

>  <SCORE.INTER.ROT>
9

>  <SCORE.INTER.SOLV>
12.0045

>  <SCORE.INTER.VDW>
-10.1784

>  <SCORE.INTER.norm>
0.122252

>  <SCORE.INTRA>
-3.26591

>  <SCORE.INTRA.DIHEDRAL>
-8.03697

>  <SCORE.INTRA.DIHEDRAL.0>
16.2863

>  <SCORE.INTRA.POLAR>
0

>  <SCORE.INTRA.POLAR.0>
0

>  <SCORE.INTRA.REPUL>
-0.314433

>  <SCORE.INTRA.REPUL.0>
0.314433

>  <SCORE.INTRA.SOLV>
0.893898

>  <SCORE.INTRA.SOLV.lig_0>
-103.824

>  <SCORE.INTRA.VDW>
1.87779

>  <SCORE.INTRA.VDW.0>
-5.30945

>  <SCORE.INTRA.norm>
-0.0777598

>  <SCORE.RESTR>
0.00116118

>  <SCORE.RESTR.CAVITY>
0.00116118

>  <SCORE.RESTR.norm>
2.76472e-05

>  <SCORE.SYSTEM>
0

>  <SCORE.SYSTEM.CONST>
0

>  <SCORE.SYSTEM.DIHEDRAL>
0

>  <SCORE.SYSTEM.SOLV>
0

>  <SCORE.SYSTEM.norm>
0

>  <SCORE.heavy>
42

>  <SCORE.norm>
0.0445199

>  <RMSD>
9.981

$$$$
lig.pdb
 OpenBabel11021811513D
libRbt.so/2013.1/901 2013/11/27
 42 45  0  0  0  0  0  0  0  0999 V2000
   -7.3139   14.5389   29.3381 C   0  0  2  0  0  0  0  0  0  0  0  0
   -6.3093   15.5679   29.6012 O   0  0  0  0  0  0  0  0  0  0  0  0
   -6.5192   13.1618   29.2280 C   0  0  2  0  0  0  0  0  0  0  0  0
   -5.8479   12.8589   30.4950 N   0  0  0  0  0  0  0  0  0  0  0  0
   -5.4863   13.2578   28.0018 C   0  0  1  0  0  0  0  0  0  0  0  0
   -4.7448   12.0293   27.8481 O   0  0  0  0  0  0  0  0  0  0  0  0
   -6.3058   13.5859   26.7419 C   0  0  2  0  0  0  0  0  0  0  0  0
   -5.4433   13.6785   25.6596 O   0  0  0  0  0  0  0  0  0  0  0  0
   -7.1038   14.9523   26.9529 C   0  0  2  0  0  0  0  0  0  0  0  0
   -7.9978   14.8656   28.0695 O   0  0  0  0  0  0  0  0  0  0  0  0
   -7.9373   15.3092   25.7549 C   0  0  0  0  0  0  0  0  0  0  0  0
   -8.8161   14.2132   25.4977 O   0  0  0  0  0  0  0  0  0  0  0  0
   -6.2969   19.9300   30.4640 C   0  0  2  0  0  0  0  0  0  0  0  0
   -6.6881   21.2236   30.9803 N   0  0  0  0  0  0  0  0  0  0  0  0
   -7.4812   19.2922   29.6398 C   0  0  0  0  0  0  0  0  0  0  0  0
   -7.0831   17.8846   29.0719 C   0  0  2  0  0  0  0  0  0  0  0  0
   -8.2073   17.3267   28.3229 N   0  0  0  0  0  0  0  0  0  0  0  0
   -6.6738   16.8588   30.2201 C   0  0  2  0  0  0  0  0  0  0  0  0
   -5.4813   17.4845   30.9999 C   0  0  2  0  0  0  0  0  0  0  0  0
   -5.1514   16.4536   32.0540 O   0  0  0  0  0  0  0  0  0  0  0  0
   -5.9221   18.9128   31.6426 C   0  0  1  0  0  0  0  0  0  0  0  0
   -4.8597   19.6229   32.3562 O   0  0  0  0  0  0  0  0  0  0  0  0
   -4.1574   16.8928   32.8885 C   0  0  1  0  0  0  0  0  0  0  0  0
   -3.1884   15.8462   33.2302 C   0  0  2  0  0  0  0  0  0  0  0  0
   -3.8159   14.9704   34.1111 O   0  0  0  0  0  0  0  0  0  0  0  0
   -1.9887   16.6930   33.7063 C   0  0  2  0  0  0  0  0  0  0  0  0
   -1.7459   16.3338   35.0853 O   0  0  0  0  0  0  0  0  0  0  0  0
   -2.4350   18.1098   33.5541 C   0  0  2  0  0  0  0  0  0  0  0  0
   -3.3048   17.9071   32.3836 O   0  0  0  0  0  0  0  0  0  0  0  0
   -1.2391   19.0635   33.1870 C   0  0  0  0  0  0  0  0  0  0  0  0
   -1.0266   20.1351   34.1544 O   0  0  0  0  0  0  0  0  0  0  0  0
   -0.3881   16.5218   35.5874 C   0  0  2  0  0  0  0  0  0  0  0  0
   -0.3859   16.2396   37.1794 C   0  0  2  0  0  0  0  0  0  0  0  0
   -1.3565   17.1674   37.8456 N   0  0  0  0  0  0  0  0  0  0  0  0
    1.1127   16.4450   37.7234 C   0  0  1  0  0  0  0  0  0  0  0  0
    1.9675   15.5036   37.0059 O   0  0  0  0  0  0  0  0  0  0  0  0
    1.5703   17.9505   37.4618 C   0  0  2  0  0  0  0  0  0  0  0  0
    0.6693   18.8388   38.2296 O   0  0  0  0  0  0  0  0  0  0  0  0
    1.5052   18.2300   35.8557 C   0  0  1  0  0  0  0  0  0  0  0  0
    0.1089   17.9629   35.3519 O   0  0  0  0  0  0  0  0  0  0  0  0
    1.9320   19.7068   35.5636 C   0  0  0  0  0  0  0  0  0  0  0  0
    0.9077   20.7046   36.0023 N   0  0  0  0  0  0  0  0  0  0  0  0
  1  3  1  0  0  0  0
  1  2  1  6  0  0  0
  3  4  1  1  0  0  0
  3  5  1  0  0  0  0
  5  6  1  6  0  0  0
  7  8  1  6  0  0  0
  7  5  1  0  0  0  0
  9 11  1  6  0  0  0
  9  7  1  0  0  0  0
 10  9  1  0  0  0  0
 10  1  1  0  0  0  0
 12 11  1  0  0  0  0
 13 14  1  1  0  0  0
 15 13  1  0  0  0  0
 16 17  1  1  0  0  0
 16 15  1  0  0  0  0
 18  2  1  6  0  0  0
 18 19  1  0  0  0  0
 18 16  1  0  0  0  0
 19 20  1  1  0  0  0
 19 21  1  0  0  0  0
 21 22  1  6  0  0  0
 21 13  1  0  0  0  0
 23 20  1  6  0  0  0
 23 29  1  0  0  0  0
 24 25  1  1  0  0  0
 24 26  1  0  0  0  0
 24 23  1  0  0  0  0
 26 27  1  1  0  0  0
 26 28  1  0  0  0  0
 28 30  1  6  0  0  0
 29 28  1  0  0  0  0
 30 31  1  0  0  0  0
 32 27  1  1  0  0  0
 32 40  1  0  0  0  0
 33 35  1  0  0  0  0
 33 32  1  0  0  0  0
 33 34  1  1  0  0  0
 35 36  1  6  0  0  0
 35 37  1  0  0  0  0
 37 38  1  1  0  0  0
 37 39  1  0  0  0  0
 39 41  1  1  0  0  0
 40 39  1  0  0  0  0
 41 42  1  0  0  0  0
M  END
>  <CHROM.1>
-158.36758919,56.57818526,-88.44739707,-176.40478403,-139.43332512,154.24339323
-120.88894157,172.94915073,-71.40778990,-3.77457600,16.75382227,32.01939600
-2.65817000,-0.77535197,0.31963375

>  <Name>
lig.pdb

>  <RI>
0

>  <Rbt.Current_Directory>
/home/itssahil/PROJECTS/Mol_Feturizer/New_Systems/rnas/4wcr

>  <Rbt.Executable>
rbdock ($Id: //depot/dev/client3/rdock/2013.1/src/exe/rbdock.cxx#4 $)

>  <Rbt.Library>
libRbt.so (2013.1, Build901 2013/11/27)

>  <Rbt.Parameter_File>
/export/apps/rDock/src/rDock_2013.1_src/data/scripts/dock_solv.prm

>  <Rbt.Receptor>
prm/blind_docking_60.prm

>  <SCORE>
-8.43007

>  <SCORE.INTER>
-18.4626

>  <SCORE.INTER.CONST>
1

>  <SCORE.INTER.POLAR>
0

>  <SCORE.INTER.ROT>
9

>  <SCORE.INTER.SOLV>
34.658

>  <SCORE.INTER.VDW>
-33.461

>  <SCORE.INTER.norm>
-0.439585

>  <SCORE.INTRA>
5.5984

>  <SCORE.INTRA.DIHEDRAL>
3.10281

>  <SCORE.INTRA.DIHEDRAL.0>
16.2863

>  <SCORE.INTRA.POLAR>
0

>  <SCORE.INTRA.POLAR.0>
0

>  <SCORE.INTRA.REPUL>
-0.314433

>  <SCORE.INTRA.REPUL.0>
0.314433

>  <SCORE.INTRA.SOLV>
2.27065

>  <SCORE.INTRA.SOLV.lig_0>
-103.824

>  <SCORE.INTRA.VDW>
4.48383

>  <SCORE.INTRA.VDW.0>
-5.30945

>  <SCORE.INTRA.norm>
0.133295

>  <SCORE.RESTR>
4.43409

>  <SCORE.RESTR.CAVITY>
4.43409

>  <SCORE.RESTR.norm>
0.105574

>  <SCORE.SYSTEM>
0

>  <SCORE.SYSTEM.CONST>
0

>  <SCORE.SYSTEM.DIHEDRAL>
0

>  <SCORE.SYSTEM.SOLV>
0

>  <SCORE.SYSTEM.norm>
0

>  <SCORE.heavy>
42

>  <SCORE.norm>
-0.200716

>  <RMSD>
9.984

$$$$
lig.pdb
 OpenBabel11021811513D
libRbt.so/2013.1/901 2013/11/27
 42 45  0  0  0  0  0  0  0  0999 V2000
   -4.7913    7.9440   37.2399 C   0  0  2  0  0  0  0  0  0  0  0  0
   -3.9908    8.4073   36.1077 O   0  0  0  0  0  0  0  0  0  0  0  0
   -3.7952    7.8580   38.4810 C   0  0  2  0  0  0  0  0  0  0  0  0
   -3.2536    9.1839   38.7917 N   0  0  0  0  0  0  0  0  0  0  0  0
   -2.6399    6.7944   38.1438 C   0  0  1  0  0  0  0  0  0  0  0  0
   -1.7122    6.6675   39.2419 O   0  0  0  0  0  0  0  0  0  0  0  0
   -3.3314    5.4568   37.8292 C   0  0  2  0  0  0  0  0  0  0  0  0
   -2.3612    4.5118   37.5304 O   0  0  0  0  0  0  0  0  0  0  0  0
   -4.3421    5.6413   36.6073 C   0  0  2  0  0  0  0  0  0  0  0  0
   -5.3485    6.6164   36.9073 O   0  0  0  0  0  0  0  0  0  0  0  0
   -5.0595    4.3647   36.2713 C   0  0  0  0  0  0  0  0  0  0  0  0
   -4.0993    3.4608   35.7228 O   0  0  0  0  0  0  0  0  0  0  0  0
   -4.3838    9.9324   31.9493 C   0  0  2  0  0  0  0  0  0  0  0  0
   -4.9521   10.2568   30.6591 N   0  0  0  0  0  0  0  0  0  0  0  0
   -4.5448    8.3907   32.2427 C   0  0  0  0  0  0  0  0  0  0  0  0
   -3.9392    8.0133   33.6403 C   0  0  2  0  0  0  0  0  0  0  0  0
   -4.1149    6.5817   33.8758 N   0  0  0  0  0  0  0  0  0  0  0  0
   -4.6211    8.8160   34.8357 C   0  0  2  0  0  0  0  0  0  0  0  0
   -4.4214   10.3329   34.5514 C   0  0  2  0  0  0  0  0  0  0  0  0
   -5.0821   11.0160   35.7260 O   0  0  0  0  0  0  0  0  0  0  0  0
   -5.1105   10.7306   33.1321 C   0  0  1  0  0  0  0  0  0  0  0  0
   -4.9379   12.1279   32.7320 O   0  0  0  0  0  0  0  0  0  0  0  0
   -4.8132   12.3594   35.7385 C   0  0  1  0  0  0  0  0  0  0  0  0
   -5.2920   13.0310   36.9513 C   0  0  2  0  0  0  0  0  0  0  0  0
   -6.6790   13.1060   36.8648 O   0  0  0  0  0  0  0  0  0  0  0  0
   -4.4460   14.3221   36.9323 C   0  0  2  0  0  0  0  0  0  0  0  0
   -5.3738   15.4274   36.8465 O   0  0  0  0  0  0  0  0  0  0  0  0
   -3.5874   14.2001   35.7167 C   0  0  2  0  0  0  0  0  0  0  0  0
   -3.4458   12.7347   35.7343 O   0  0  0  0  0  0  0  0  0  0  0  0
   -2.1865   14.8865   35.9187 C   0  0  0  0  0  0  0  0  0  0  0  0
   -2.2678   16.3232   36.1599 O   0  0  0  0  0  0  0  0  0  0  0  0
   -6.2041   15.6850   38.0192 C   0  0  2  0  0  0  0  0  0  0  0  0
   -6.8542   17.1582   37.8740 C   0  0  2  0  0  0  0  0  0  0  0  0
   -5.7567   18.1701   37.7390 N   0  0  0  0  0  0  0  0  0  0  0  0
   -7.7694   17.4324   39.1667 C   0  0  1  0  0  0  0  0  0  0  0  0
   -8.7920   16.3910   39.2031 O   0  0  0  0  0  0  0  0  0  0  0  0
   -6.8616   17.3919   40.4777 C   0  0  2  0  0  0  0  0  0  0  0  0
   -5.8640   18.4800   40.3729 O   0  0  0  0  0  0  0  0  0  0  0  0
   -6.1710   15.9168   40.5725 C   0  0  1  0  0  0  0  0  0  0  0  0
   -5.3753   15.6491   39.3196 O   0  0  0  0  0  0  0  0  0  0  0  0
   -5.2572   15.8471   41.8408 C   0  0  0  0  0  0  0  0  0  0  0  0
   -6.0249   15.9829   43.1173 N   0  0  0  0  0  0  0  0  0  0  0  0
  1  3  1  0  0  0  0
  1  2  1  6  0  0  0
  3  4  1  6  0  0  0
  3  5  1  0  0  0  0
  5  6  1  1  0  0  0
  7  8  1  6  0  0  0
  7  5  1  0  0  0  0
  9 11  1  1  0  0  0
  9  7  1  0  0  0  0
 10  9  1  0  0  0  0
 10  1  1  0  0  0  0
 12 11  1  0  0  0  0
 13 14  1  6  0  0  0
 15 13  1  0  0  0  0
 16 17  1  1  0  0  0
 16 15  1  0  0  0  0
 18  2  1  1  0  0  0
 18 19  1  0  0  0  0
 18 16  1  0  0  0  0
 19 20  1  1  0  0  0
 19 21  1  0  0  0  0
 21 22  1  6  0  0  0
 21 13  1  0  0  0  0
 23 20  1  1  0  0  0
 23 29  1  0  0  0  0
 24 25  1  6  0  0  0
 24 26  1  0  0  0  0
 24 23  1  0  0  0  0
 26 27  1  6  0  0  0
 26 28  1  0  0  0  0
 28 30  1  1  0  0  0
 29 28  1  0  0  0  0
 30 31  1  0  0  0  0
 32 27  1  6  0  0  0
 32 40  1  0  0  0  0
 33 35  1  0  0  0  0
 33 32  1  0  0  0  0
 33 34  1  1  0  0  0
 35 36  1  1  0  0  0
 35 37  1  0  0  0  0
 37 38  1  6  0  0  0
 37 39  1  0  0  0  0
 39 41  1  1  0  0  0
 40 39  1  0  0  0  0
 41 42  1  0  0  0  0
M  END
>  <CHROM.1>
-169.92949007,-68.87334101,-127.08327156,170.45168626,-172.71144369,69.11300638
-62.22369991,164.88915717,64.08734583,-4.74918165,11.51285918,36.84085888
-0.14391370,-1.37700554,1.74246881

>  <Name>
lig.pdb

>  <RI>
0

>  <Rbt.Current_Directory>
/home/itssahil/PROJECTS/Mol_Feturizer/New_Systems/rnas/4wcr

>  <Rbt.Executable>
rbdock ($Id: //depot/dev/client3/rdock/2013.1/src/exe/rbdock.cxx#4 $)

>  <Rbt.Library>
libRbt.so (2013.1, Build901 2013/11/27)

>  <Rbt.Parameter_File>
/export/apps/rDock/src/rDock_2013.1_src/data/scripts/dock_solv.prm

>  <Rbt.Receptor>
prm/pocket_docking_6.prm

>  <SCORE>
-3.54243

>  <SCORE.INTER>
0.786036

>  <SCORE.INTER.CONST>
1

>  <SCORE.INTER.POLAR>
0

>  <SCORE.INTER.ROT>
9

>  <SCORE.INTER.SOLV>
18.0275

>  <SCORE.INTER.VDW>
-15.0852

>  <SCORE.INTER.norm>
0.0187152

>  <SCORE.INTRA>
-4.32847

>  <SCORE.INTRA.DIHEDRAL>
-5.7932

>  <SCORE.INTRA.DIHEDRAL.0>
16.2863

>  <SCORE.INTRA.POLAR>
0

>  <SCORE.INTRA.POLAR.0>
0

>  <SCORE.INTRA.REPUL>
-0.314433

>  <SCORE.INTRA.REPUL.0>
0.314433

>  <SCORE.INTRA.SOLV>
-2.04865

>  <SCORE.INTRA.SOLV.lig_0>
-103.824

>  <SCORE.INTRA.VDW>
1.16462

>  <SCORE.INTRA.VDW.0>
-5.30945

>  <SCORE.INTRA.norm>
-0.103059

>  <SCORE.RESTR>
0

>  <SCORE.RESTR.CAVITY>
0

>  <SCORE.RESTR.norm>
0

>  <SCORE.SYSTEM>
0

>  <SCORE.SYSTEM.CONST>
0

>  <SCORE.SYSTEM.DIHEDRAL>
0

>  <SCORE.SYSTEM.SOLV>
0

>  <SCORE.SYSTEM.norm>
0

>  <SCORE.heavy>
42

>  <SCORE.norm>
-0.0843436

>  <RMSD>
9.984

$$$$
lig.pdb
 OpenBabel11021811513D
libRbt.so/2013.1/901 2013/11/27
 42 45  0  0  0  0  0  0  0  0999 V2000
   -2.5651    8.1113   34.5610 C   0  0  2  0  0  0  0  0  0  0  0  0
   -3.2619    7.9103   35.8304 O   0  0  0  0  0  0  0  0  0  0  0  0
   -3.6993    8.2458   33.4495 C   0  0  2  0  0  0  0  0  0  0  0  0
   -4.5415    9.4141   33.7205 N   0  0  0  0  0  0  0  0  0  0  0  0
   -4.5476    6.8825   33.4091 C   0  0  1  0  0  0  0  0  0  0  0  0
   -5.5855    6.9444   32.4084 O   0  0  0  0  0  0  0  0  0  0  0  0
   -3.5574    5.7393   33.1280 C   0  0  2  0  0  0  0  0  0  0  0  0
   -4.2568    4.5422   33.0879 O   0  0  0  0  0  0  0  0  0  0  0  0
   -2.4322    5.7038   34.2598 C   0  0  2  0  0  0  0  0  0  0  0  0
   -1.7041    6.9372   34.3084 O   0  0  0  0  0  0  0  0  0  0  0  0
   -1.4262    4.6138   34.0208 C   0  0  0  0  0  0  0  0  0  0  0  0
   -2.1046    3.3637   34.1498 O   0  0  0  0  0  0  0  0  0  0  0  0
   -2.3824    8.5965   40.1348 C   0  0  2  0  0  0  0  0  0  0  0  0
   -1.7396    8.5216   41.4287 N   0  0  0  0  0  0  0  0  0  0  0  0
   -2.7512    7.1495   39.6259 C   0  0  0  0  0  0  0  0  0  0  0  0
   -3.4468    7.2030   38.2203 C   0  0  2  0  0  0  0  0  0  0  0  0
   -3.7647    5.8453   37.7830 N   0  0  0  0  0  0  0  0  0  0  0  0
   -2.5323    7.8958   37.1148 C   0  0  2  0  0  0  0  0  0  0  0  0
   -2.2082    9.3339   37.6132 C   0  0  2  0  0  0  0  0  0  0  0  0
   -1.3542    9.9193   36.5129 O   0  0  0  0  0  0  0  0  0  0  0  0
   -1.4273    9.2683   39.0391 C   0  0  1  0  0  0  0  0  0  0  0  0
   -1.1183   10.5692   39.6344 O   0  0  0  0  0  0  0  0  0  0  0  0
   -1.2218   11.2760   36.6516 C   0  0  1  0  0  0  0  0  0  0  0  0
   -0.0834   11.8225   35.9056 C   0  0  2  0  0  0  0  0  0  0  0  0
    1.0748   11.4396   36.5754 O   0  0  0  0  0  0  0  0  0  0  0  0
   -0.4694   13.3148   35.8213 C   0  0  2  0  0  0  0  0  0  0  0  0
    0.5714   14.0537   36.4998 O   0  0  0  0  0  0  0  0  0  0  0  0
   -1.7864   13.4102   36.5185 C   0  0  2  0  0  0  0  0  0  0  0  0
   -2.2859   12.0728   36.1582 O   0  0  0  0  0  0  0  0  0  0  0  0
   -2.7024   14.5231   35.8887 C   0  0  0  0  0  0  0  0  0  0  0  0
   -3.0629   14.2670   34.4982 O   0  0  0  0  0  0  0  0  0  0  0  0
    0.4507   15.5085   36.5076 C   0  0  2  0  0  0  0  0  0  0  0  0
    1.7882   16.1309   37.1691 C   0  0  2  0  0  0  0  0  0  0  0  0
    1.9549   15.5814   38.5536 N   0  0  0  0  0  0  0  0  0  0  0  0
    1.6489   17.7323   37.1704 C   0  0  1  0  0  0  0  0  0  0  0  0
    1.4849   18.1547   35.7824 O   0  0  0  0  0  0  0  0  0  0  0  0
    0.3883   18.1545   38.0519 C   0  0  2  0  0  0  0  0  0  0  0  0
    0.6349   17.7064   39.4406 O   0  0  0  0  0  0  0  0  0  0  0  0
   -0.9407   17.4687   37.3997 C   0  0  1  0  0  0  0  0  0  0  0  0
   -0.7612   15.9723   37.3415 O   0  0  0  0  0  0  0  0  0  0  0  0
   -2.1973   17.8483   38.2515 C   0  0  0  0  0  0  0  0  0  0  0  0
   -3.4770   17.3689   37.6433 N   0  0  0  0  0  0  0  0  0  0  0  0
  1  3  1  0  0  0  0
  1  2  1  1  0  0  0
  3  4  1  1  0  0  0
  3  5  1  0  0  0  0
  5  6  1  6  0  0  0
  7  8  1  1  0  0  0
  7  5  1  0  0  0  0
  9 11  1  6  0  0  0
  9  7  1  0  0  0  0
 10  9  1  0  0  0  0
 10  1  1  0  0  0  0
 12 11  1  0  0  0  0
 13 14  1  1  0  0  0
 15 13  1  0  0  0  0
 16 17  1  6  0  0  0
 16 15  1  0  0  0  0
 18  2  1  6  0  0  0
 18 19  1  0  0  0  0
 18 16  1  0  0  0  0
 19 20  1  6  0  0  0
 19 21  1  0  0  0  0
 21 22  1  1  0  0  0
 21 13  1  0  0  0  0
 23 20  1  6  0  0  0
 23 29  1  0  0  0  0
 24 25  1  1  0  0  0
 24 26  1  0  0  0  0
 24 23  1  0  0  0  0
 26 27  1  1  0  0  0
 26 28  1  0  0  0  0
 28 30  1  6  0  0  0
 29 28  1  0  0  0  0
 30 31  1  0  0  0  0
 32 27  1  1  0  0  0
 32 40  1  0  0  0  0
 33 35  1  0  0  0  0
 33 32  1  0  0  0  0
 33 34  1  1  0  0  0
 35 36  1  6  0  0  0
 35 37  1  0  0  0  0
 37 38  1  1  0  0  0
 37 39  1  0  0  0  0
 39 41  1  1  0  0  0
 40 39  1  0  0  0  0
 41 42  1  0  0  0  0
M  END
>  <CHROM.1>
-173.02699459,-65.60677520,-161.77373552,166.70774081,161.13451027,177.74612952
62.88710504,-173.87127746,174.35732208,-1.69855923,11.10078242,36.43250995
2.49334727,1.20627537,2.48697031

>  <Name>
lig.pdb

>  <RI>
0

>  <Rbt.Current_Directory>
/home/itssahil/PROJECTS/Mol_Feturizer/New_Systems/rnas/4wcr

>  <Rbt.Executable>
rbdock ($Id: //depot/dev/client3/rdock/2013.1/src/exe/rbdock.cxx#4 $)

>  <Rbt.Library>
libRbt.so (2013.1, Build901 2013/11/27)

>  <Rbt.Parameter_File>
/export/apps/rDock/src/rDock_2013.1_src/data/scripts/dock_solv.prm

>  <Rbt.Receptor>
prm/pocket_docking_4.prm

>  <SCORE>
-10.3302

>  <SCORE.INTER>
-2.12038

>  <SCORE.INTER.CONST>
1

>  <SCORE.INTER.POLAR>
0

>  <SCORE.INTER.ROT>
9

>  <SCORE.INTER.SOLV>
20.4447

>  <SCORE.INTER.VDW>
-17.8285

>  <SCORE.INTER.norm>
-0.0504852

>  <SCORE.INTRA>
-8.20985

>  <SCORE.INTRA.DIHEDRAL>
-11.0952

>  <SCORE.INTRA.DIHEDRAL.0>
16.2863

>  <SCORE.INTRA.POLAR>
0

>  <SCORE.INTRA.POLAR.0>
0

>  <SCORE.INTRA.REPUL>
-0.314433

>  <SCORE.INTRA.REPUL.0>
0.314433

>  <SCORE.INTRA.SOLV>
-4.24077

>  <SCORE.INTRA.SOLV.lig_0>
-103.824

>  <SCORE.INTRA.VDW>
1.0303

>  <SCORE.INTRA.VDW.0>
-5.30945

>  <SCORE.INTRA.norm>
-0.195473

>  <SCORE.RESTR>
0

>  <SCORE.RESTR.CAVITY>
0

>  <SCORE.RESTR.norm>
0

>  <SCORE.SYSTEM>
0

>  <SCORE.SYSTEM.CONST>
0

>  <SCORE.SYSTEM.DIHEDRAL>
0

>  <SCORE.SYSTEM.SOLV>
0

>  <SCORE.SYSTEM.norm>
0

>  <SCORE.heavy>
42

>  <SCORE.norm>
-0.245958

>  <RMSD>
9.994

$$$$
lig.pdb
 OpenBabel11021811513D
libRbt.so/2013.1/901 2013/11/27
 42 45  0  0  0  0  0  0  0  0999 V2000
   -5.0744   13.9492   38.4535 C   0  0  2  0  0  0  0  0  0  0  0  0
   -4.0108   14.0870   37.4600 O   0  0  0  0  0  0  0  0  0  0  0  0
   -6.2557   14.9052   37.9733 C   0  0  2  0  0  0  0  0  0  0  0  0
   -6.7634   14.4711   36.6689 N   0  0  0  0  0  0  0  0  0  0  0  0
   -5.7160   16.4177   37.9417 C   0  0  1  0  0  0  0  0  0  0  0  0
   -6.7515   17.3315   37.5230 O   0  0  0  0  0  0  0  0  0  0  0  0
   -5.2067   16.7482   39.3551 C   0  0  2  0  0  0  0  0  0  0  0  0
   -4.7297   18.0505   39.3649 O   0  0  0  0  0  0  0  0  0  0  0  0
   -4.0610   15.7188   39.7748 C   0  0  2  0  0  0  0  0  0  0  0  0
   -4.5453   14.3700   39.7675 O   0  0  0  0  0  0  0  0  0  0  0  0
   -3.5414   15.9870   41.1588 C   0  0  0  0  0  0  0  0  0  0  0  0
   -2.8444   17.2331   41.1248 O   0  0  0  0  0  0  0  0  0  0  0  0
   -3.0772   12.2255   33.5312 C   0  0  2  0  0  0  0  0  0  0  0  0
   -3.2447   11.6751   32.2037 N   0  0  0  0  0  0  0  0  0  0  0  0
   -4.0226   11.4816   34.5518 C   0  0  0  0  0  0  0  0  0  0  0  0
   -3.8629   12.0637   36.0003 C   0  0  2  0  0  0  0  0  0  0  0  0
   -4.7587   11.3540   36.9111 N   0  0  0  0  0  0  0  0  0  0  0  0
   -4.1914   13.6212   36.0698 C   0  0  2  0  0  0  0  0  0  0  0  0
   -3.2265   14.3448   35.0865 C   0  0  2  0  0  0  0  0  0  0  0  0
   -3.5941   15.8042   35.2197 O   0  0  0  0  0  0  0  0  0  0  0  0
   -3.4449   13.7834   33.5750 C   0  0  1  0  0  0  0  0  0  0  0  0
   -2.5489   14.3549   32.5686 O   0  0  0  0  0  0  0  0  0  0  0  0
   -2.5637   16.6168   34.8260 C   0  0  1  0  0  0  0  0  0  0  0  0
   -2.9314   18.0362   34.7900 C   0  0  2  0  0  0  0  0  0  0  0  0
   -3.7635   18.2222   33.6902 O   0  0  0  0  0  0  0  0  0  0  0  0
   -1.5414   18.7066   34.8291 C   0  0  2  0  0  0  0  0  0  0  0  0
   -1.4130   19.4717   33.6093 O   0  0  0  0  0  0  0  0  0  0  0  0
   -0.5712   17.5738   34.8989 C   0  0  2  0  0  0  0  0  0  0  0  0
   -1.4208   16.6468   35.6648 O   0  0  0  0  0  0  0  0  0  0  0  0
    0.7106   17.9517   35.7287 C   0  0  0  0  0  0  0  0  0  0  0  0
    0.4339   18.2508   37.1298 O   0  0  0  0  0  0  0  0  0  0  0  0
   -2.3348   20.5894   33.4308 C   0  0  2  0  0  0  0  0  0  0  0  0
   -1.8180   21.4876   32.1897 C   0  0  2  0  0  0  0  0  0  0  0  0
   -0.4231   21.9592   32.4699 N   0  0  0  0  0  0  0  0  0  0  0  0
   -2.8401   22.7133   31.9976 C   0  0  1  0  0  0  0  0  0  0  0  0
   -4.1588   22.1423   31.7399 O   0  0  0  0  0  0  0  0  0  0  0  0
   -2.8498   23.6080   33.3181 C   0  0  2  0  0  0  0  0  0  0  0  0
   -1.4890   24.1597   33.5028 O   0  0  0  0  0  0  0  0  0  0  0  0
   -3.3184   22.6673   34.5661 C   0  0  1  0  0  0  0  0  0  0  0  0
   -2.3895   21.4851   34.6853 O   0  0  0  0  0  0  0  0  0  0  0  0
   -3.3224   23.5103   35.8844 C   0  0  0  0  0  0  0  0  0  0  0  0
   -4.3353   24.6108   35.8663 N   0  0  0  0  0  0  0  0  0  0  0  0
  1  3  1  0  0  0  0
  1  2  1  6  0  0  0
  3  4  1  6  0  0  0
  3  5  1  0  0  0  0
  5  6  1  1  0  0  0
  7  8  1  6  0  0  0
  7  5  1  0  0  0  0
  9 11  1  1  0  0  0
  9  7  1  0  0  0  0
 10  9  1  0  0  0  0
 10  1  1  0  0  0  0
 12 11  1  0  0  0  0
 13 14  1  6  0  0  0
 15 13  1  0  0  0  0
 16 17  1  1  0  0  0
 16 15  1  0  0  0  0
 18  2  1  1  0  0  0
 18 19  1  0  0  0  0
 18 16  1  0  0  0  0
 19 20  1  6  0  0  0
 19 21  1  0  0  0  0
 21 22  1  6  0  0  0
 21 13  1  0  0  0  0
 23 20  1  1  0  0  0
 23 29  1  0  0  0  0
 24 25  1  6  0  0  0
 24 26  1  0  0  0  0
 24 23  1  0  0  0  0
 26 27  1  6  0  0  0
 26 28  1  0  0  0  0
 28 30  1  1  0  0  0
 29 28  1  0  0  0  0
 30 31  1  0  0  0  0
 32 27  1  1  0  0  0
 32 40  1  0  0  0  0
 33 35  1  0  0  0  0
 33 32  1  0  0  0  0
 33 34  1  1  0  0  0
 35 36  1  1  0  0  0
 35 37  1  0  0  0  0
 37 38  1  1  0  0  0
 37 39  1  0  0  0  0
 39 41  1  1  0  0  0
 40 39  1  0  0  0  0
 41 42  1  0  0  0  0
M  END
>  <CHROM.1>
-66.28605937,-67.91596684,-84.22363212,157.61536272,173.25772941,64.34900996
63.22003332,167.76983604,64.87589289,-3.26789142,17.42499517,35.66652719
2.24020863,-1.23099015,-2.85646494

>  <Name>
lig.pdb

>  <RI>
0

>  <Rbt.Current_Directory>
/home/itssahil/PROJECTS/Mol_Feturizer/New_Systems/rnas/4wcr

>  <Rbt.Executable>
rbdock ($Id: //depot/dev/client3/rdock/2013.1/src/exe/rbdock.cxx#4 $)

>  <Rbt.Library>
libRbt.so (2013.1, Build901 2013/11/27)

>  <Rbt.Parameter_File>
/export/apps/rDock/src/rDock_2013.1_src/data/scripts/dock_solv.prm

>  <Rbt.Receptor>
prm/pocket_docking_6.prm

>  <SCORE>
-8.32339

>  <SCORE.INTER>
-3.14886

>  <SCORE.INTER.CONST>
1

>  <SCORE.INTER.POLAR>
0

>  <SCORE.INTER.ROT>
9

>  <SCORE.INTER.SOLV>
21.3328

>  <SCORE.INTER.VDW>
-18.8102

>  <SCORE.INTER.norm>
-0.0749729

>  <SCORE.INTRA>
-5.18537

>  <SCORE.INTRA.DIHEDRAL>
-9.47599

>  <SCORE.INTRA.DIHEDRAL.0>
16.2863

>  <SCORE.INTRA.POLAR>
0

>  <SCORE.INTRA.POLAR.0>
0

>  <SCORE.INTRA.REPUL>
-0.278632

>  <SCORE.INTRA.REPUL.0>
0.314433

>  <SCORE.INTRA.SOLV>
-1.63865

>  <SCORE.INTRA.SOLV.lig_0>
-103.824

>  <SCORE.INTRA.VDW>
1.7651

>  <SCORE.INTRA.VDW.0>
-5.30945

>  <SCORE.INTRA.norm>
-0.123461

>  <SCORE.RESTR>
0.01084

>  <SCORE.RESTR.CAVITY>
0.01084

>  <SCORE.RESTR.norm>
0.000258095

>  <SCORE.SYSTEM>
0

>  <SCORE.SYSTEM.CONST>
0

>  <SCORE.SYSTEM.DIHEDRAL>
0

>  <SCORE.SYSTEM.SOLV>
0

>  <SCORE.SYSTEM.norm>
0

>  <SCORE.heavy>
42

>  <SCORE.norm>
-0.198176

>  <RMSD>
10.013

$$$$
lig.pdb
 OpenBabel11021811513D
libRbt.so/2013.1/901 2013/11/27
 42 45  0  0  0  0  0  0  0  0999 V2000
   -1.1172    7.4105   35.8156 C   0  0  2  0  0  0  0  0  0  0  0  0
   -2.0521    7.2543   36.9286 O   0  0  0  0  0  0  0  0  0  0  0  0
   -1.7242    6.5693   34.6057 C   0  0  2  0  0  0  0  0  0  0  0  0
   -3.0277    7.1114   34.2124 N   0  0  0  0  0  0  0  0  0  0  0  0
   -1.8157    5.0266   35.0435 C   0  0  1  0  0  0  0  0  0  0  0  0
   -2.3502    4.2136   33.9777 O   0  0  0  0  0  0  0  0  0  0  0  0
   -0.3971    4.5814   35.4384 C   0  0  2  0  0  0  0  0  0  0  0  0
   -0.4382    3.2501   35.8253 O   0  0  0  0  0  0  0  0  0  0  0  0
    0.1520    5.5017   36.6216 C   0  0  2  0  0  0  0  0  0  0  0  0
    0.1979    6.8796   36.2306 O   0  0  0  0  0  0  0  0  0  0  0  0
    1.5455    5.1194   37.0329 C   0  0  0  0  0  0  0  0  0  0  0  0
    1.4857    3.8083   37.5960 O   0  0  0  0  0  0  0  0  0  0  0  0
   -2.7350    9.4520   40.7334 C   0  0  2  0  0  0  0  0  0  0  0  0
   -2.5335    9.9708   42.0688 N   0  0  0  0  0  0  0  0  0  0  0  0
   -2.6298    7.8780   40.7395 C   0  0  0  0  0  0  0  0  0  0  0  0
   -2.8405    7.2901   39.2999 C   0  0  2  0  0  0  0  0  0  0  0  0
   -2.7284    5.8337   39.3482 N   0  0  0  0  0  0  0  0  0  0  0  0
   -1.7791    7.8506   38.2523 C   0  0  2  0  0  0  0  0  0  0  0  0
   -1.9207    9.4001   38.2300 C   0  0  2  0  0  0  0  0  0  0  0  0
   -0.8957    9.8472   37.2139 O   0  0  0  0  0  0  0  0  0  0  0  0
   -1.6347   10.0086   39.7117 C   0  0  1  0  0  0  0  0  0  0  0  0
   -1.7938   11.4592   39.8247 O   0  0  0  0  0  0  0  0  0  0  0  0
   -0.8241   11.2137   37.1447 C   0  0  1  0  0  0  0  0  0  0  0  0
    0.3360   11.6914   36.3850 C   0  0  2  0  0  0  0  0  0  0  0  0
    1.4650   11.4720   37.1686 O   0  0  0  0  0  0  0  0  0  0  0  0
   -0.1010   13.1328   36.0464 C   0  0  2  0  0  0  0  0  0  0  0  0
    0.8674   14.0162   36.6559 O   0  0  0  0  0  0  0  0  0  0  0  0
   -1.4608   13.2724   36.6474 C   0  0  2  0  0  0  0  0  0  0  0  0
   -1.8858   11.8733   36.4752 O   0  0  0  0  0  0  0  0  0  0  0  0
   -2.3786   14.2299   35.8017 C   0  0  0  0  0  0  0  0  0  0  0  0
   -1.6357   15.2065   35.0120 O   0  0  0  0  0  0  0  0  0  0  0  0
    0.6058   15.4492   36.5606 C   0  0  2  0  0  0  0  0  0  0  0  0
    1.8779   16.2443   37.1638 C   0  0  2  0  0  0  0  0  0  0  0  0
    2.1000   15.8147   38.5825 N   0  0  0  0  0  0  0  0  0  0  0  0
    1.5835   17.8206   37.0517 C   0  0  1  0  0  0  0  0  0  0  0  0
    1.3763   18.1239   35.6387 O   0  0  0  0  0  0  0  0  0  0  0  0
    0.2896   18.1811   37.9122 C   0  0  2  0  0  0  0  0  0  0  0  0
    0.5815   17.8603   39.3271 O   0  0  0  0  0  0  0  0  0  0  0  0
   -0.9677   17.3246   37.3228 C   0  0  1  0  0  0  0  0  0  0  0  0
   -0.6437   15.8524   37.3702 O   0  0  0  0  0  0  0  0  0  0  0  0
   -2.2535   17.6412   38.1566 C   0  0  0  0  0  0  0  0  0  0  0  0
   -3.4574   16.8980   37.6714 N   0  0  0  0  0  0  0  0  0  0  0  0
  1  3  1  0  0  0  0
  1  2  1  1  0  0  0
  3  4  1  1  0  0  0
  3  5  1  0  0  0  0
  5  6  1  6  0  0  0
  7  8  1  1  0  0  0
  7  5  1  0  0  0  0
  9 11  1  6  0  0  0
  9  7  1  0  0  0  0
 10  9  1  0  0  0  0
 10  1  1  0  0  0  0
 12 11  1  0  0  0  0
 13 14  1  1  0  0  0
 15 13  1  0  0  0  0
 16 17  1  1  0  0  0
 16 15  1  0  0  0  0
 18  2  1  6  0  0  0
 18 19  1  0  0  0  0
 18 16  1  0  0  0  0
 19 20  1  6  0  0  0
 19 21  1  0  0  0  0
 21 22  1  6  0  0  0
 21 13  1  0  0  0  0
 23 20  1  6  0  0  0
 23 29  1  0  0  0  0
 24 25  1  1  0  0  0
 24 26  1  0  0  0  0
 24 23  1  0  0  0  0
 26 27  1  1  0  0  0
 26 28  1  0  0  0  0
 28 30  1  6  0  0  0
 29 28  1  0  0  0  0
 30 31  1  0  0  0  0
 32 27  1  1  0  0  0
 32 40  1  0  0  0  0
 33 35  1  0  0  0  0
 33 32  1  0  0  0  0
 33 34  1  1  0  0  0
 35 36  1  6  0  0  0
 35 37  1  0  0  0  0
 37 38  1  1  0  0  0
 37 39  1  0  0  0  0
 39 41  1  1  0  0  0
 40 39  1  0  0  0  0
 41 42  1  0  0  0  0
M  END
>  <CHROM.1>
177.04641306,-65.60015085,-170.06928814,-175.55462400,168.14525928,-175.32929306
-25.39815845,-174.12835638,179.65093819,-0.82889660,10.92351992,37.24024048
-1.77704116,1.11527519,0.24448968

>  <Name>
lig.pdb

>  <RI>
0

>  <Rbt.Current_Directory>
/home/itssahil/PROJECTS/Mol_Feturizer/New_Systems/rnas/4wcr

>  <Rbt.Executable>
rbdock ($Id: //depot/dev/client3/rdock/2013.1/src/exe/rbdock.cxx#4 $)

>  <Rbt.Library>
libRbt.so (2013.1, Build901 2013/11/27)

>  <Rbt.Parameter_File>
/export/apps/rDock/src/rDock_2013.1_src/data/scripts/dock_solv.prm

>  <Rbt.Receptor>
prm/pocket_docking_7.prm

>  <SCORE>
-8.02793

>  <SCORE.INTER>
-1.84308

>  <SCORE.INTER.CONST>
1

>  <SCORE.INTER.POLAR>
0

>  <SCORE.INTER.ROT>
9

>  <SCORE.INTER.SOLV>
21.6731

>  <SCORE.INTER.VDW>
-18.0531

>  <SCORE.INTER.norm>
-0.0438829

>  <SCORE.INTRA>
-6.18485

>  <SCORE.INTRA.DIHEDRAL>
-11.3661

>  <SCORE.INTRA.DIHEDRAL.0>
16.2863

>  <SCORE.INTRA.POLAR>
0

>  <SCORE.INTRA.POLAR.0>
0

>  <SCORE.INTRA.REPUL>
-0.314433

>  <SCORE.INTRA.REPUL.0>
0.314433

>  <SCORE.INTRA.SOLV>
-2.97938

>  <SCORE.INTRA.SOLV.lig_0>
-103.824

>  <SCORE.INTRA.VDW>
2.56006

>  <SCORE.INTRA.VDW.0>
-5.30945

>  <SCORE.INTRA.norm>
-0.147258

>  <SCORE.RESTR>
0

>  <SCORE.RESTR.CAVITY>
0

>  <SCORE.RESTR.norm>
0

>  <SCORE.SYSTEM>
0

>  <SCORE.SYSTEM.CONST>
0

>  <SCORE.SYSTEM.DIHEDRAL>
0

>  <SCORE.SYSTEM.SOLV>
0

>  <SCORE.SYSTEM.norm>
0

>  <SCORE.heavy>
42

>  <SCORE.norm>
-0.191141

>  <RMSD>
10.015

$$$$
lig.pdb
 OpenBabel11021811513D
libRbt.so/2013.1/901 2013/11/27
 42 45  0  0  0  0  0  0  0  0999 V2000
   -3.5766   12.1853   34.1579 C   0  0  2  0  0  0  0  0  0  0  0  0
   -4.8997   12.3330   34.7618 O   0  0  0  0  0  0  0  0  0  0  0  0
   -3.8185   11.5801   32.7035 C   0  0  2  0  0  0  0  0  0  0  0  0
   -4.6114   12.5076   31.8918 N   0  0  0  0  0  0  0  0  0  0  0  0
   -4.5261   10.1459   32.8517 C   0  0  1  0  0  0  0  0  0  0  0  0
   -4.7595    9.5445   31.5607 O   0  0  0  0  0  0  0  0  0  0  0  0
   -3.6075    9.2739   33.7247 C   0  0  2  0  0  0  0  0  0  0  0  0
   -4.1896    8.0241   33.8761 O   0  0  0  0  0  0  0  0  0  0  0  0
   -3.3812    9.9723   35.1423 C   0  0  2  0  0  0  0  0  0  0  0  0
   -2.7798   11.2647   34.9954 O   0  0  0  0  0  0  0  0  0  0  0  0
   -2.4730    9.1679   36.0285 C   0  0  0  0  0  0  0  0  0  0  0  0
   -2.3651    9.8561   37.2753 O   0  0  0  0  0  0  0  0  0  0  0  0
   -6.5843   15.0636   37.8406 C   0  0  2  0  0  0  0  0  0  0  0  0
   -6.8518   15.6841   39.1198 N   0  0  0  0  0  0  0  0  0  0  0  0
   -6.8749   13.5148   37.9158 C   0  0  0  0  0  0  0  0  0  0  0  0
   -6.5880   12.8167   36.5400 C   0  0  2  0  0  0  0  0  0  0  0  0
   -6.8620   11.3857   36.6543 N   0  0  0  0  0  0  0  0  0  0  0  0
   -5.0811   13.0124   36.0610 C   0  0  2  0  0  0  0  0  0  0  0  0
   -4.8213   14.5431   35.9555 C   0  0  2  0  0  0  0  0  0  0  0  0
   -3.3871   14.6401   35.4903 O   0  0  0  0  0  0  0  0  0  0  0  0
   -5.0556   15.2504   37.4019 C   0  0  1  0  0  0  0  0  0  0  0  0
   -4.8926   16.7049   37.4116 O   0  0  0  0  0  0  0  0  0  0  0  0
   -3.0409   15.9349   35.2053 C   0  0  1  0  0  0  0  0  0  0  0  0
   -1.6533   16.0729   34.7507 C   0  0  2  0  0  0  0  0  0  0  0  0
   -0.8324   15.8862   35.8588 O   0  0  0  0  0  0  0  0  0  0  0  0
   -1.7036   17.4472   34.0493 C   0  0  2  0  0  0  0  0  0  0  0  0
   -0.7789   18.3080   34.7520 O   0  0  0  0  0  0  0  0  0  0  0  0
   -3.1209   17.8965   34.1871 C   0  0  2  0  0  0  0  0  0  0  0  0
   -3.7443   16.5632   34.1466 O   0  0  0  0  0  0  0  0  0  0  0  0
   -3.5853   18.7541   32.9529 C   0  0  0  0  0  0  0  0  0  0  0  0
   -2.9922   20.0866   32.9095 O   0  0  0  0  0  0  0  0  0  0  0  0
   -0.6377   19.6726   34.2530 C   0  0  2  0  0  0  0  0  0  0  0  0
    0.8977   20.1368   34.4557 C   0  0  2  0  0  0  0  0  0  0  0  0
    1.2547   20.0382   35.9081 N   0  0  0  0  0  0  0  0  0  0  0  0
    1.0454   21.6382   33.9006 C   0  0  1  0  0  0  0  0  0  0  0  0
    0.6678   21.6185   32.4904 O   0  0  0  0  0  0  0  0  0  0  0  0
    0.0944   22.6087   34.7362 C   0  0  2  0  0  0  0  0  0  0  0  0
    0.5470   22.5853   36.1451 O   0  0  0  0  0  0  0  0  0  0  0  0
   -1.4419   22.0873   34.5638 C   0  0  1  0  0  0  0  0  0  0  0  0
   -1.5446   20.6543   35.0230 O   0  0  0  0  0  0  0  0  0  0  0  0
   -2.4028   23.0083   35.3867 C   0  0  0  0  0  0  0  0  0  0  0  0
   -2.4774   24.4004   34.8448 N   0  0  0  0  0  0  0  0  0  0  0  0
  1  3  1  0  0  0  0
  1  2  1  1  0  0  0
  3  4  1  6  0  0  0
  3  5  1  0  0  0  0
  5  6  1  6  0  0  0
  7  8  1  1  0  0  0
  7  5  1  0  0  0  0
  9 11  1  1  0  0  0
  9  7  1  0  0  0  0
 10  9  1  0  0  0  0
 10  1  1  0  0  0  0
 12 11  1  0  0  0  0
 13 14  1  1  0  0  0
 15 13  1  0  0  0  0
 16 17  1  1  0  0  0
 16 15  1  0  0  0  0
 18  2  1  6  0  0  0
 18 19  1  0  0  0  0
 18 16  1  0  0  0  0
 19 20  1  1  0  0  0
 19 21  1  0  0  0  0
 21 22  1  6  0  0  0
 21 13  1  0  0  0  0
 23 20  1  6  0  0  0
 23 29  1  0  0  0  0
 24 25  1  1  0  0  0
 24 26  1  0  0  0  0
 24 23  1  0  0  0  0
 26 27  1  1  0  0  0
 26 28  1  0  0  0  0
 28 30  1  6  0  0  0
 29 28  1  0  0  0  0
 30 31  1  0  0  0  0
 32 27  1  1  0  0  0
 32 40  1  0  0  0  0
 33 35  1  0  0  0  0
 33 32  1  0  0  0  0
 33 34  1  1  0  0  0
 35 36  1  6  0  0  0
 35 37  1  0  0  0  0
 37 38  1  1  0  0  0
 37 39  1  0  0  0  0
 39 41  1  1  0  0  0
 40 39  1  0  0  0  0
 41 42  1  0  0  0  0
M  END
>  <CHROM.1>
-172.93334378,-178.48315285,-171.64228532,173.36952547,179.94429855,179.16932042
-71.97901493,-145.35880775,66.81301349,-3.01425397,15.80064738,34.99041434
-2.02585498,0.72412335,0.28315527

>  <Name>
lig.pdb

>  <RI>
0

>  <Rbt.Current_Directory>
/home/itssahil/PROJECTS/Mol_Feturizer/New_Systems/rnas/4wcr

>  <Rbt.Executable>
rbdock ($Id: //depot/dev/client3/rdock/2013.1/src/exe/rbdock.cxx#4 $)

>  <Rbt.Library>
libRbt.so (2013.1, Build901 2013/11/27)

>  <Rbt.Parameter_File>
/export/apps/rDock/src/rDock_2013.1_src/data/scripts/dock_solv.prm

>  <Rbt.Receptor>
prm/pocket_docking_5.prm

>  <SCORE>
-13.1644

>  <SCORE.INTER>
-5.52921

>  <SCORE.INTER.CONST>
1

>  <SCORE.INTER.POLAR>
0

>  <SCORE.INTER.ROT>
9

>  <SCORE.INTER.SOLV>
23.1982

>  <SCORE.INTER.VDW>
-21.0189

>  <SCORE.INTER.norm>
-0.131648

>  <SCORE.INTRA>
-7.63518

>  <SCORE.INTRA.DIHEDRAL>
-9.8286

>  <SCORE.INTRA.DIHEDRAL.0>
16.2863

>  <SCORE.INTRA.POLAR>
0

>  <SCORE.INTRA.POLAR.0>
0

>  <SCORE.INTRA.REPUL>
-0.314433

>  <SCORE.INTRA.REPUL.0>
0.314433

>  <SCORE.INTRA.SOLV>
-5.03174

>  <SCORE.INTRA.SOLV.lig_0>
-103.824

>  <SCORE.INTRA.VDW>
1.36716

>  <SCORE.INTRA.VDW.0>
-5.30945

>  <SCORE.INTRA.norm>
-0.18179

>  <SCORE.RESTR>
0

>  <SCORE.RESTR.CAVITY>
0

>  <SCORE.RESTR.norm>
0

>  <SCORE.SYSTEM>
0

>  <SCORE.SYSTEM.CONST>
0

>  <SCORE.SYSTEM.DIHEDRAL>
0

>  <SCORE.SYSTEM.SOLV>
0

>  <SCORE.SYSTEM.norm>
0

>  <SCORE.heavy>
42

>  <SCORE.norm>
-0.313438

>  <RMSD>
10.024

$$$$
lig.pdb
 OpenBabel11021811513D
libRbt.so/2013.1/901 2013/11/27
 42 45  0  0  0  0  0  0  0  0999 V2000
   -4.1262   12.1934   37.2125 C   0  0  2  0  0  0  0  0  0  0  0  0
   -4.5827   13.4942   36.7261 O   0  0  0  0  0  0  0  0  0  0  0  0
   -3.4020   11.4887   35.9801 C   0  0  2  0  0  0  0  0  0  0  0  0
   -2.2391   12.2736   35.5567 N   0  0  0  0  0  0  0  0  0  0  0  0
   -4.4687   11.2968   34.7947 C   0  0  1  0  0  0  0  0  0  0  0  0
   -3.8677   10.6505   33.6529 O   0  0  0  0  0  0  0  0  0  0  0  0
   -5.6360   10.4716   35.3630 C   0  0  2  0  0  0  0  0  0  0  0  0
   -6.5805   10.2871   34.3643 O   0  0  0  0  0  0  0  0  0  0  0  0
   -6.2737   11.2243   36.6181 C   0  0  2  0  0  0  0  0  0  0  0  0
   -5.3045   11.4192   37.6554 O   0  0  0  0  0  0  0  0  0  0  0  0
   -7.4091   10.4486   37.2235 C   0  0  0  0  0  0  0  0  0  0  0  0
   -6.9003    9.1732   37.6161 O   0  0  0  0  0  0  0  0  0  0  0  0
   -6.4193   17.2313   38.2861 C   0  0  2  0  0  0  0  0  0  0  0  0
   -6.8355   18.2734   39.1992 N   0  0  0  0  0  0  0  0  0  0  0  0
   -6.9363   15.8284   38.7896 C   0  0  0  0  0  0  0  0  0  0  0  0
   -6.4937   14.6789   37.8174 C   0  0  2  0  0  0  0  0  0  0  0  0
   -6.9853   13.3986   38.3225 N   0  0  0  0  0  0  0  0  0  0  0  0
   -4.9108   14.5924   37.6581 C   0  0  2  0  0  0  0  0  0  0  0  0
   -4.4205   15.9700   37.1257 C   0  0  2  0  0  0  0  0  0  0  0  0
   -2.9249   15.8009   36.9945 O   0  0  0  0  0  0  0  0  0  0  0  0
   -4.8242   17.1490   38.1718 C   0  0  1  0  0  0  0  0  0  0  0  0
   -4.4608   18.5018   37.7477 O   0  0  0  0  0  0  0  0  0  0  0  0
   -2.3573   16.8643   36.3429 C   0  0  1  0  0  0  0  0  0  0  0  0
   -0.9127   16.7111   36.1411 C   0  0  2  0  0  0  0  0  0  0  0  0
   -0.2994   16.8848   37.3782 O   0  0  0  0  0  0  0  0  0  0  0  0
   -0.6601   17.7250   35.0046 C   0  0  2  0  0  0  0  0  0  0  0  0
    0.2655   18.7080   35.5209 O   0  0  0  0  0  0  0  0  0  0  0  0
   -2.0024   18.3056   34.7036 C   0  0  2  0  0  0  0  0  0  0  0  0
   -2.7990   17.1079   35.0178 O   0  0  0  0  0  0  0  0  0  0  0  0
   -2.1513   18.6767   33.1822 C   0  0  0  0  0  0  0  0  0  0  0  0
   -3.4306   19.2967   32.8532 O   0  0  0  0  0  0  0  0  0  0  0  0
    0.9056   19.5875   34.5473 C   0  0  2  0  0  0  0  0  0  0  0  0
    2.0581   20.4347   35.3011 C   0  0  2  0  0  0  0  0  0  0  0  0
    1.4433   21.2094   36.4274 N   0  0  0  0  0  0  0  0  0  0  0  0
    2.7601   21.3974   34.2219 C   0  0  1  0  0  0  0  0  0  0  0  0
    3.3135   20.5440   33.1745 O   0  0  0  0  0  0  0  0  0  0  0  0
    1.6773   22.4069   33.6278 C   0  0  2  0  0  0  0  0  0  0  0  0
    1.1760   23.2421   34.7419 O   0  0  0  0  0  0  0  0  0  0  0  0
    0.4963   21.5289   32.9233 C   0  0  1  0  0  0  0  0  0  0  0  0
   -0.1012   20.5817   33.9335 O   0  0  0  0  0  0  0  0  0  0  0  0
   -0.5948   22.4890   32.3434 C   0  0  0  0  0  0  0  0  0  0  0  0
   -1.2892   23.2851   33.4023 N   0  0  0  0  0  0  0  0  0  0  0  0
  1  3  1  0  0  0  0
  1  2  1  6  0  0  0
  3  4  1  6  0  0  0
  3  5  1  0  0  0  0
  5  6  1  6  0  0  0
  7  8  1  6  0  0  0
  7  5  1  0  0  0  0
  9 11  1  1  0  0  0
  9  7  1  0  0  0  0
 10  9  1  0  0  0  0
 10  1  1  0  0  0  0
 12 11  1  0  0  0  0
 13 14  1  1  0  0  0
 15 13  1  0  0  0  0
 16 17  1  1  0  0  0
 16 15  1  0  0  0  0
 18  2  1  6  0  0  0
 18 19  1  0  0  0  0
 18 16  1  0  0  0  0
 19 20  1  1  0  0  0
 19 21  1  0  0  0  0
 21 22  1  6  0  0  0
 21 13  1  0  0  0  0
 23 20  1  6  0  0  0
 23 29  1  0  0  0  0
 24 25  1  1  0  0  0
 24 26  1  0  0  0  0
 24 23  1  0  0  0  0
 26 27  1  1  0  0  0
 26 28  1  0  0  0  0
 28 30  1  6  0  0  0
 29 28  1  0  0  0  0
 30 31  1  0  0  0  0
 32 27  1  1  0  0  0
 32 40  1  0  0  0  0
 33 35  1  0  0  0  0
 33 32  1  0  0  0  0
 33 34  1  1  0  0  0
 35 36  1  6  0  0  0
 35 37  1  0  0  0  0
 37 38  1  1  0  0  0
 37 39  1  0  0  0  0
 39 41  1  1  0  0  0
 40 39  1  0  0  0  0
 41 42  1  0  0  0  0
M  END
>  <CHROM.1>
-160.44698665,58.55668996,-101.17194867,170.81877769,-177.40745392,165.80423650
-177.72442670,-171.16304519,-63.63040676,-2.81930220,16.48212546,35.78599673
-2.33217030,0.63079840,0.24289989

>  <Name>
lig.pdb

>  <RI>
0

>  <Rbt.Current_Directory>
/home/itssahil/PROJECTS/Mol_Feturizer/New_Systems/rnas/4wcr

>  <Rbt.Executable>
rbdock ($Id: //depot/dev/client3/rdock/2013.1/src/exe/rbdock.cxx#4 $)

>  <Rbt.Library>
libRbt.so (2013.1, Build901 2013/11/27)

>  <Rbt.Parameter_File>
/export/apps/rDock/src/rDock_2013.1_src/data/scripts/dock_solv.prm

>  <Rbt.Receptor>
prm/pocket_docking_6.prm

>  <SCORE>
-12.0359

>  <SCORE.INTER>
-7.62181

>  <SCORE.INTER.CONST>
1

>  <SCORE.INTER.POLAR>
0

>  <SCORE.INTER.ROT>
9

>  <SCORE.INTER.SOLV>
19.1181

>  <SCORE.INTER.VDW>
-21.0539

>  <SCORE.INTER.norm>
-0.181472

>  <SCORE.INTRA>
-4.41412

>  <SCORE.INTRA.DIHEDRAL>
-6.6267

>  <SCORE.INTRA.DIHEDRAL.0>
16.2863

>  <SCORE.INTRA.POLAR>
0

>  <SCORE.INTRA.POLAR.0>
0

>  <SCORE.INTRA.REPUL>
-0.314433

>  <SCORE.INTRA.REPUL.0>
0.314433

>  <SCORE.INTRA.SOLV>
-0.58108

>  <SCORE.INTRA.SOLV.lig_0>
-103.824

>  <SCORE.INTRA.VDW>
0.761934

>  <SCORE.INTRA.VDW.0>
-5.30945

>  <SCORE.INTRA.norm>
-0.105098

>  <SCORE.RESTR>
0

>  <SCORE.RESTR.CAVITY>
0

>  <SCORE.RESTR.norm>
0

>  <SCORE.SYSTEM>
0

>  <SCORE.SYSTEM.CONST>
0

>  <SCORE.SYSTEM.DIHEDRAL>
0

>  <SCORE.SYSTEM.SOLV>
0

>  <SCORE.SYSTEM.norm>
0

>  <SCORE.heavy>
42

>  <SCORE.norm>
-0.28657

>  <RMSD>
10.025

$$$$
lig.pdb
 OpenBabel11021811513D
libRbt.so/2013.1/901 2013/11/27
 42 45  0  0  0  0  0  0  0  0999 V2000
   -2.6275    6.0351   35.8550 C   0  0  2  0  0  0  0  0  0  0  0  0
   -1.7730    7.1144   35.3630 O   0  0  0  0  0  0  0  0  0  0  0  0
   -4.0989    6.6410   35.9450 C   0  0  2  0  0  0  0  0  0  0  0  0
   -4.5637    7.0482   34.6161 N   0  0  0  0  0  0  0  0  0  0  0  0
   -4.0914    7.8639   36.9863 C   0  0  1  0  0  0  0  0  0  0  0  0
   -5.4058    8.4453   37.1161 O   0  0  0  0  0  0  0  0  0  0  0  0
   -3.5803    7.3142   38.3291 C   0  0  2  0  0  0  0  0  0  0  0  0
   -3.5586    8.3465   39.2551 O   0  0  0  0  0  0  0  0  0  0  0  0
   -2.1243    6.6871   38.1411 C   0  0  2  0  0  0  0  0  0  0  0  0
   -2.1373    5.6192   37.1856 O   0  0  0  0  0  0  0  0  0  0  0  0
   -1.5860    6.1176   39.4229 C   0  0  0  0  0  0  0  0  0  0  0  0
   -2.5095    5.1276   39.8776 O   0  0  0  0  0  0  0  0  0  0  0  0
   -0.5325    8.1487   31.2200 C   0  0  2  0  0  0  0  0  0  0  0  0
   -0.6020    8.5230   29.8243 N   0  0  0  0  0  0  0  0  0  0  0  0
   -1.4104    6.8647   31.4833 C   0  0  0  0  0  0  0  0  0  0  0  0
   -1.3554    6.4400   32.9930 C   0  0  2  0  0  0  0  0  0  0  0  0
   -2.1852    5.2542   33.1952 N   0  0  0  0  0  0  0  0  0  0  0  0
   -1.8637    7.5928   33.9683 C   0  0  2  0  0  0  0  0  0  0  0  0
   -0.9650    8.8394   33.7238 C   0  0  2  0  0  0  0  0  0  0  0  0
   -1.5024    9.8730   34.6858 O   0  0  0  0  0  0  0  0  0  0  0  0
   -1.0792    9.3147   32.1719 C   0  0  1  0  0  0  0  0  0  0  0  0
   -0.2307   10.4511   31.8101 O   0  0  0  0  0  0  0  0  0  0  0  0
   -0.6434   10.9330   34.8114 C   0  0  1  0  0  0  0  0  0  0  0  0
   -1.1483   11.9803   35.7054 C   0  0  2  0  0  0  0  0  0  0  0  0
   -2.1780   12.6362   35.0373 O   0  0  0  0  0  0  0  0  0  0  0  0
    0.1541   12.7350   36.0479 C   0  0  2  0  0  0  0  0  0  0  0  0
   -0.0132   14.0910   35.5756 O   0  0  0  0  0  0  0  0  0  0  0  0
    1.2270   12.0013   35.3128 C   0  0  2  0  0  0  0  0  0  0  0  0
    0.6227   10.6609   35.3890 O   0  0  0  0  0  0  0  0  0  0  0  0
    2.5935   12.0292   36.0914 C   0  0  0  0  0  0  0  0  0  0  0  0
    2.5484   11.3427   37.3782 O   0  0  0  0  0  0  0  0  0  0  0  0
   -0.9217   14.9466   36.3329 C   0  0  2  0  0  0  0  0  0  0  0  0
   -0.9082   16.4219   35.6715 C   0  0  2  0  0  0  0  0  0  0  0  0
    0.4929   16.9543   35.6829 N   0  0  0  0  0  0  0  0  0  0  0  0
   -1.9134   17.3562   36.5085 C   0  0  1  0  0  0  0  0  0  0  0  0
   -3.2366   16.7433   36.4369 O   0  0  0  0  0  0  0  0  0  0  0  0
   -1.4092   17.4590   38.0183 C   0  0  2  0  0  0  0  0  0  0  0  0
   -0.0752   18.0998   38.0088 O   0  0  0  0  0  0  0  0  0  0  0  0
   -1.3758   15.9537   38.6468 C   0  0  1  0  0  0  0  0  0  0  0  0
   -0.4841   15.0742   37.8065 O   0  0  0  0  0  0  0  0  0  0  0  0
   -0.8677   16.0149   40.1255 C   0  0  0  0  0  0  0  0  0  0  0  0
    0.5259   16.5461   40.2387 N   0  0  0  0  0  0  0  0  0  0  0  0
  1  3  1  0  0  0  0
  1  2  1  1  0  0  0
  3  4  1  6  0  0  0
  3  5  1  0  0  0  0
  5  6  1  1  0  0  0
  7  8  1  1  0  0  0
  7  5  1  0  0  0  0
  9 11  1  1  0  0  0
  9  7  1  0  0  0  0
 10  9  1  0  0  0  0
 10  1  1  0  0  0  0
 12 11  1  0  0  0  0
 13 14  1  6  0  0  0
 15 13  1  0  0  0  0
 16 17  1  6  0  0  0
 16 15  1  0  0  0  0
 18  2  1  1  0  0  0
 18 19  1  0  0  0  0
 18 16  1  0  0  0  0
 19 20  1  1  0  0  0
 19 21  1  0  0  0  0
 21 22  1  1  0  0  0
 21 13  1  0  0  0  0
 23 20  1  1  0  0  0
 23 29  1  0  0  0  0
 24 25  1  6  0  0  0
 24 26  1  0  0  0  0
 24 23  1  0  0  0  0
 26 27  1  6  0  0  0
 26 28  1  0  0  0  0
 28 30  1  1  0  0  0
 29 28  1  0  0  0  0
 30 31  1  0  0  0  0
 32 27  1  6  0  0  0
 32 40  1  0  0  0  0
 33 35  1  0  0  0  0
 33 32  1  0  0  0  0
 33 34  1  1  0  0  0
 35 36  1  1  0  0  0
 35 37  1  0  0  0  0
 37 38  1  6  0  0  0
 37 39  1  0  0  0  0
 39 41  1  1  0  0  0
 40 39  1  0  0  0  0
 41 42  1  0  0  0  0
M  END
>  <CHROM.1>
-70.67894609,57.97367228,-67.39291907,166.67003262,178.18162011,72.70180363
63.87858959,177.63872678,-61.88679736,-1.34952321,10.80986587,35.94190113
2.09145450,-1.19482125,-2.42340168

>  <Name>
lig.pdb

>  <RI>
0

>  <Rbt.Current_Directory>
/home/itssahil/PROJECTS/Mol_Feturizer/New_Systems/rnas/4wcr

>  <Rbt.Executable>
rbdock ($Id: //depot/dev/client3/rdock/2013.1/src/exe/rbdock.cxx#4 $)

>  <Rbt.Library>
libRbt.so (2013.1, Build901 2013/11/27)

>  <Rbt.Parameter_File>
/export/apps/rDock/src/rDock_2013.1_src/data/scripts/dock_solv.prm

>  <Rbt.Receptor>
prm/pocket_docking_7.prm

>  <SCORE>
-6.69046

>  <SCORE.INTER>
-0.553871

>  <SCORE.INTER.CONST>
1

>  <SCORE.INTER.POLAR>
0

>  <SCORE.INTER.ROT>
9

>  <SCORE.INTER.SOLV>
19.2315

>  <SCORE.INTER.VDW>
-16.3797

>  <SCORE.INTER.norm>
-0.0131874

>  <SCORE.INTRA>
-6.13659

>  <SCORE.INTRA.DIHEDRAL>
-13.233

>  <SCORE.INTRA.DIHEDRAL.0>
16.2863

>  <SCORE.INTRA.POLAR>
0

>  <SCORE.INTRA.POLAR.0>
0

>  <SCORE.INTRA.REPUL>
-0.31167

>  <SCORE.INTRA.REPUL.0>
0.314433

>  <SCORE.INTRA.SOLV>
0.44205

>  <SCORE.INTRA.SOLV.lig_0>
-103.824

>  <SCORE.INTRA.VDW>
1.81721

>  <SCORE.INTRA.VDW.0>
-5.30945

>  <SCORE.INTRA.norm>
-0.146109

>  <SCORE.RESTR>
0

>  <SCORE.RESTR.CAVITY>
0

>  <SCORE.RESTR.norm>
0

>  <SCORE.SYSTEM>
0

>  <SCORE.SYSTEM.CONST>
0

>  <SCORE.SYSTEM.DIHEDRAL>
0

>  <SCORE.SYSTEM.SOLV>
0

>  <SCORE.SYSTEM.norm>
0

>  <SCORE.heavy>
42

>  <SCORE.norm>
-0.159297

>  <RMSD>
10.035

$$$$
lig.pdb
 OpenBabel11021811513D
libRbt.so/2013.1/901 2013/11/27
 42 45  0  0  0  0  0  0  0  0999 V2000
   -4.7374   12.5525   36.3507 C   0  0  2  0  0  0  0  0  0  0  0  0
   -3.7191   11.6675   36.9137 O   0  0  0  0  0  0  0  0  0  0  0  0
   -5.7692   12.8468   37.5291 C   0  0  2  0  0  0  0  0  0  0  0  0
   -5.0969   13.5366   38.6337 N   0  0  0  0  0  0  0  0  0  0  0  0
   -6.4324   11.4597   37.9938 C   0  0  1  0  0  0  0  0  0  0  0  0
   -7.3872   11.6690   39.0556 O   0  0  0  0  0  0  0  0  0  0  0  0
   -7.0930   10.8338   36.7536 C   0  0  2  0  0  0  0  0  0  0  0  0
   -7.6763    9.6294   37.1180 O   0  0  0  0  0  0  0  0  0  0  0  0
   -6.0023   10.6150   35.6087 C   0  0  2  0  0  0  0  0  0  0  0  0
   -5.3941   11.8547   35.2257 O   0  0  0  0  0  0  0  0  0  0  0  0
   -6.6014   10.0217   34.3652 C   0  0  0  0  0  0  0  0  0  0  0  0
   -5.5378    9.7918   33.4402 O   0  0  0  0  0  0  0  0  0  0  0  0
    0.4752   10.5492   35.9493 C   0  0  2  0  0  0  0  0  0  0  0  0
    1.6274   10.0510   35.2301 N   0  0  0  0  0  0  0  0  0  0  0  0
   -0.6397    9.4359   36.0288 C   0  0  0  0  0  0  0  0  0  0  0  0
   -1.9037    9.9535   36.8014 C   0  0  2  0  0  0  0  0  0  0  0  0
   -2.9126    8.8971   36.8462 N   0  0  0  0  0  0  0  0  0  0  0  0
   -2.5447   11.2449   36.1235 C   0  0  2  0  0  0  0  0  0  0  0  0
   -1.4451   12.3455   36.0863 C   0  0  2  0  0  0  0  0  0  0  0  0
   -2.1318   13.5281   35.4439 O   0  0  0  0  0  0  0  0  0  0  0  0
   -0.1647   11.8269   35.2266 C   0  0  1  0  0  0  0  0  0  0  0  0
    0.9599   12.7620   35.1690 O   0  0  0  0  0  0  0  0  0  0  0  0
   -1.2991   14.6142   35.3784 C   0  0  1  0  0  0  0  0  0  0  0  0
   -2.0049   15.8630   35.0727 C   0  0  2  0  0  0  0  0  0  0  0  0
   -2.3747   15.8140   33.7320 O   0  0  0  0  0  0  0  0  0  0  0  0
   -0.9792   16.9118   35.5533 C   0  0  2  0  0  0  0  0  0  0  0  0
   -0.6166   17.7006   34.3974 O   0  0  0  0  0  0  0  0  0  0  0  0
    0.1660   16.1134   36.0832 C   0  0  2  0  0  0  0  0  0  0  0  0
   -0.6163   14.9652   36.5705 O   0  0  0  0  0  0  0  0  0  0  0  0
    0.8781   16.8380   37.2841 C   0  0  0  0  0  0  0  0  0  0  0  0
    2.0567   16.1332   37.7774 O   0  0  0  0  0  0  0  0  0  0  0  0
   -0.9293   19.1257   34.4460 C   0  0  2  0  0  0  0  0  0  0  0  0
   -2.5357   19.3008   34.3918 C   0  0  2  0  0  0  0  0  0  0  0  0
   -3.0592   18.6611   33.1414 N   0  0  0  0  0  0  0  0  0  0  0  0
   -2.8714   20.8718   34.4495 C   0  0  1  0  0  0  0  0  0  0  0  0
   -2.3125   21.3893   35.6951 O   0  0  0  0  0  0  0  0  0  0  0  0
   -2.2263   21.5990   33.1848 C   0  0  2  0  0  0  0  0  0  0  0  0
   -2.8506   21.0328   31.9683 O   0  0  0  0  0  0  0  0  0  0  0  0
   -0.6129   21.3603   33.2293 C   0  0  1  0  0  0  0  0  0  0  0  0
   -0.3205   19.8808   33.2467 O   0  0  0  0  0  0  0  0  0  0  0  0
    0.0522   22.0472   31.9906 C   0  0  0  0  0  0  0  0  0  0  0  0
    1.5442   21.9414   32.0000 N   0  0  0  0  0  0  0  0  0  0  0  0
  1  3  1  0  0  0  0
  1  2  1  1  0  0  0
  3  4  1  1  0  0  0
  3  5  1  0  0  0  0
  5  6  1  1  0  0  0
  7  8  1  1  0  0  0
  7  5  1  0  0  0  0
  9 11  1  6  0  0  0
  9  7  1  0  0  0  0
 10  9  1  0  0  0  0
 10  1  1  0  0  0  0
 12 11  1  0  0  0  0
 13 14  1  6  0  0  0
 15 13  1  0  0  0  0
 16 17  1  6  0  0  0
 16 15  1  0  0  0  0
 18  2  1  1  0  0  0
 18 19  1  0  0  0  0
 18 16  1  0  0  0  0
 19 20  1  6  0  0  0
 19 21  1  0  0  0  0
 21 22  1  1  0  0  0
 21 13  1  0  0  0  0
 23 20  1  1  0  0  0
 23 29  1  0  0  0  0
 24 25  1  6  0  0  0
 24 26  1  0  0  0  0
 24 23  1  0  0  0  0
 26 27  1  6  0  0  0
 26 28  1  0  0  0  0
 28 30  1  1  0  0  0
 29 28  1  0  0  0  0
 30 31  1  0  0  0  0
 32 27  1  6  0  0  0
 32 40  1  0  0  0  0
 33 35  1  0  0  0  0
 33 32  1  0  0  0  0
 33 34  1  6  0  0  0
 35 36  1  1  0  0  0
 35 37  1  0  0  0  0
 37 38  1  6  0  0  0
 37 39  1  0  0  0  0
 39 41  1  6  0  0  0
 40 39  1  0  0  0  0
 41 42  1  0  0  0  0
M  END
>  <CHROM.1>
-176.29887735,-176.53907035,-161.54620607,177.87161209,-165.91359346,117.99660433
-176.27362803,-68.72982139,176.66515873,-2.41442980,14.74863181,35.41054885
1.92040984,-0.03581471,2.87584766

>  <Name>
lig.pdb

>  <RI>
0

>  <Rbt.Current_Directory>
/home/itssahil/PROJECTS/Mol_Feturizer/New_Systems/rnas/4wcr

>  <Rbt.Executable>
rbdock ($Id: //depot/dev/client3/rdock/2013.1/src/exe/rbdock.cxx#4 $)

>  <Rbt.Library>
libRbt.so (2013.1, Build901 2013/11/27)

>  <Rbt.Parameter_File>
/export/apps/rDock/src/rDock_2013.1_src/data/scripts/dock_solv.prm

>  <Rbt.Receptor>
prm/pocket_docking_5.prm

>  <SCORE>
-12.7952

>  <SCORE.INTER>
-7.1585

>  <SCORE.INTER.CONST>
1

>  <SCORE.INTER.POLAR>
0

>  <SCORE.INTER.ROT>
9

>  <SCORE.INTER.SOLV>
20.8802

>  <SCORE.INTER.VDW>
-21.3324

>  <SCORE.INTER.norm>
-0.17044

>  <SCORE.INTRA>
-5.6367

>  <SCORE.INTRA.DIHEDRAL>
-5.69815

>  <SCORE.INTRA.DIHEDRAL.0>
16.2863

>  <SCORE.INTRA.POLAR>
0

>  <SCORE.INTRA.POLAR.0>
0

>  <SCORE.INTRA.REPUL>
-0.314433

>  <SCORE.INTRA.REPUL.0>
0.314433

>  <SCORE.INTRA.SOLV>
-4.30506

>  <SCORE.INTRA.SOLV.lig_0>
-103.824

>  <SCORE.INTRA.VDW>
0.937065

>  <SCORE.INTRA.VDW.0>
-5.30945

>  <SCORE.INTRA.norm>
-0.134207

>  <SCORE.RESTR>
0

>  <SCORE.RESTR.CAVITY>
0

>  <SCORE.RESTR.norm>
0

>  <SCORE.SYSTEM>
0

>  <SCORE.SYSTEM.CONST>
0

>  <SCORE.SYSTEM.DIHEDRAL>
0

>  <SCORE.SYSTEM.SOLV>
0

>  <SCORE.SYSTEM.norm>
0

>  <SCORE.heavy>
42

>  <SCORE.norm>
-0.304648

>  <RMSD>
10.054

$$$$
lig.pdb
 OpenBabel11021811513D
libRbt.so/2013.1/901 2013/11/27
 42 45  0  0  0  0  0  0  0  0999 V2000
   -1.2287   15.0187   39.0789 C   0  0  2  0  0  0  0  0  0  0  0  0
   -0.1461   14.0466   39.2204 O   0  0  0  0  0  0  0  0  0  0  0  0
   -1.1517   15.9579   40.3642 C   0  0  2  0  0  0  0  0  0  0  0  0
    0.1278   16.6717   40.3969 N   0  0  0  0  0  0  0  0  0  0  0  0
   -1.3787   15.0588   41.6756 C   0  0  1  0  0  0  0  0  0  0  0  0
   -1.3302   15.8628   42.8730 O   0  0  0  0  0  0  0  0  0  0  0  0
   -2.7401   14.3601   41.5175 C   0  0  2  0  0  0  0  0  0  0  0  0
   -2.9695   13.5708   42.6347 O   0  0  0  0  0  0  0  0  0  0  0  0
   -2.7477   13.4791   40.1863 C   0  0  2  0  0  0  0  0  0  0  0  0
   -2.5114   14.2868   39.0264 O   0  0  0  0  0  0  0  0  0  0  0  0
   -4.0652   12.7887   39.9747 C   0  0  0  0  0  0  0  0  0  0  0  0
   -3.9499   11.9888   38.7972 O   0  0  0  0  0  0  0  0  0  0  0  0
    1.8038   11.2612   36.3547 C   0  0  2  0  0  0  0  0  0  0  0  0
    2.0247   10.1257   35.4859 N   0  0  0  0  0  0  0  0  0  0  0  0
    1.4428   10.7707   37.8100 C   0  0  0  0  0  0  0  0  0  0  0  0
    1.1937   11.9850   38.7722 C   0  0  2  0  0  0  0  0  0  0  0  0
    0.8560   11.4885   40.1045 N   0  0  0  0  0  0  0  0  0  0  0  0
    0.0166   12.9315   38.2652 C   0  0  2  0  0  0  0  0  0  0  0  0
    0.4043   13.4369   36.8454 C   0  0  2  0  0  0  0  0  0  0  0  0
   -0.7491   14.3272   36.4457 O   0  0  0  0  0  0  0  0  0  0  0  0
    0.5953   12.1750   35.8362 C   0  0  1  0  0  0  0  0  0  0  0  0
    1.0164   12.5276   34.4795 O   0  0  0  0  0  0  0  0  0  0  0  0
   -0.3070   15.5309   35.9631 C   0  0  1  0  0  0  0  0  0  0  0  0
   -1.3959   16.4698   35.6734 C   0  0  2  0  0  0  0  0  0  0  0  0
   -2.0392   16.0186   34.5248 O   0  0  0  0  0  0  0  0  0  0  0  0
   -0.6358   17.8134   35.6557 C   0  0  2  0  0  0  0  0  0  0  0  0
   -0.7995   18.3677   34.3307 O   0  0  0  0  0  0  0  0  0  0  0  0
    0.7826   17.4554   35.9550 C   0  0  2  0  0  0  0  0  0  0  0  0
    0.5043   16.3051   36.8308 O   0  0  0  0  0  0  0  0  0  0  0  0
    1.5148   18.5907   36.7609 C   0  0  0  0  0  0  0  0  0  0  0  0
    1.7702   19.7942   35.9764 O   0  0  0  0  0  0  0  0  0  0  0  0
   -0.4231   19.7663   34.1490 C   0  0  2  0  0  0  0  0  0  0  0  0
   -1.3991   20.6824   35.0558 C   0  0  2  0  0  0  0  0  0  0  0  0
   -2.8216   20.4347   34.6536 N   0  0  0  0  0  0  0  0  0  0  0  0
   -0.9758   22.2198   34.8529 C   0  0  1  0  0  0  0  0  0  0  0  0
    0.4194   22.3437   35.2649 O   0  0  0  0  0  0  0  0  0  0  0  0
   -1.1600   22.6231   33.3206 C   0  0  2  0  0  0  0  0  0  0  0  0
   -2.5947   22.4858   32.9844 O   0  0  0  0  0  0  0  0  0  0  0  0
   -0.2103   21.6483   32.4206 C   0  0  1  0  0  0  0  0  0  0  0  0
   -0.5749   20.2078   32.6788 O   0  0  0  0  0  0  0  0  0  0  0  0
   -0.3796   22.0051   30.9065 C   0  0  0  0  0  0  0  0  0  0  0  0
    0.1987   23.3395   30.5566 N   0  0  0  0  0  0  0  0  0  0  0  0
  1  3  1  0  0  0  0
  1  2  1  1  0  0  0
  3  4  1  1  0  0  0
  3  5  1  0  0  0  0
  5  6  1  1  0  0  0
  7  8  1  1  0  0  0
  7  5  1  0  0  0  0
  9 11  1  6  0  0  0
  9  7  1  0  0  0  0
 10  9  1  0  0  0  0
 10  1  1  0  0  0  0
 12 11  1  0  0  0  0
 13 14  1  6  0  0  0
 15 13  1  0  0  0  0
 16 17  1  1  0  0  0
 16 15  1  0  0  0  0
 18  2  1  1  0  0  0
 18 19  1  0  0  0  0
 18 16  1  0  0  0  0
 19 20  1  6  0  0  0
 19 21  1  0  0  0  0
 21 22  1  6  0  0  0
 21 13  1  0  0  0  0
 23 20  1  1  0  0  0
 23 29  1  0  0  0  0
 24 25  1  6  0  0  0
 24 26  1  0  0  0  0
 24 23  1  0  0  0  0
 26 27  1  6  0  0  0
 26 28  1  0  0  0  0
 28 30  1  1  0  0  0
 29 28  1  0  0  0  0
 30 31  1  0  0  0  0
 32 27  1  6  0  0  0
 32 40  1  0  0  0  0
 33 35  1  0  0  0  0
 33 32  1  0  0  0  0
 33 34  1  6  0  0  0
 35 36  1  6  0  0  0
 35 37  1  0  0  0  0
 37 38  1  6  0  0  0
 37 39  1  0  0  0  0
 39 41  1  6  0  0  0
 40 39  1  0  0  0  0
 41 42  1  0  0  0  0
M  END
>  <CHROM.1>
174.47140372,-177.62283436,-174.76149139,131.50373462,-174.95932148,166.91475194
-70.16983087,-63.90148106,69.17924674,-0.63828437,16.39772085,36.77626869
1.61992677,-1.07617606,2.56474409

>  <Name>
lig.pdb

>  <RI>
0

>  <Rbt.Current_Directory>
/home/itssahil/PROJECTS/Mol_Feturizer/New_Systems/rnas/4wcr

>  <Rbt.Executable>
rbdock ($Id: //depot/dev/client3/rdock/2013.1/src/exe/rbdock.cxx#4 $)

>  <Rbt.Library>
libRbt.so (2013.1, Build901 2013/11/27)

>  <Rbt.Parameter_File>
/export/apps/rDock/src/rDock_2013.1_src/data/scripts/dock_solv.prm

>  <Rbt.Receptor>
prm/pocket_docking_6.prm

>  <SCORE>
-11.6771

>  <SCORE.INTER>
-4.61937

>  <SCORE.INTER.CONST>
1

>  <SCORE.INTER.POLAR>
0

>  <SCORE.INTER.ROT>
9

>  <SCORE.INTER.SOLV>
16.7867

>  <SCORE.INTER.VDW>
-18.2751

>  <SCORE.INTER.norm>
-0.109985

>  <SCORE.INTRA>
-7.05777

>  <SCORE.INTRA.DIHEDRAL>
-7.23531

>  <SCORE.INTRA.DIHEDRAL.0>
16.2863

>  <SCORE.INTRA.POLAR>
0

>  <SCORE.INTRA.POLAR.0>
0

>  <SCORE.INTRA.REPUL>
-0.314433

>  <SCORE.INTRA.REPUL.0>
0.314433

>  <SCORE.INTRA.SOLV>
-3.93762

>  <SCORE.INTRA.SOLV.lig_0>
-103.824

>  <SCORE.INTRA.VDW>
0.10086

>  <SCORE.INTRA.VDW.0>
-5.30945

>  <SCORE.INTRA.norm>
-0.168042

>  <SCORE.RESTR>
0

>  <SCORE.RESTR.CAVITY>
0

>  <SCORE.RESTR.norm>
0

>  <SCORE.SYSTEM>
0

>  <SCORE.SYSTEM.CONST>
0

>  <SCORE.SYSTEM.DIHEDRAL>
0

>  <SCORE.SYSTEM.SOLV>
0

>  <SCORE.SYSTEM.norm>
0

>  <SCORE.heavy>
42

>  <SCORE.norm>
-0.278027

>  <RMSD>
10.054

$$$$
lig.pdb
 OpenBabel11021811513D
libRbt.so/2013.1/901 2013/11/27
 42 45  0  0  0  0  0  0  0  0999 V2000
   -1.0887    9.5525   31.6726 C   0  0  2  0  0  0  0  0  0  0  0  0
   -1.6871    8.5806   32.5861 O   0  0  0  0  0  0  0  0  0  0  0  0
   -2.2978   10.2018   30.8623 C   0  0  2  0  0  0  0  0  0  0  0  0
   -3.2045   10.9025   31.7759 N   0  0  0  0  0  0  0  0  0  0  0  0
   -3.0447    9.0459   30.0342 C   0  0  1  0  0  0  0  0  0  0  0  0
   -4.1457    9.5812   29.2700 O   0  0  0  0  0  0  0  0  0  0  0  0
   -1.9932    8.3855   29.1261 C   0  0  2  0  0  0  0  0  0  0  0  0
   -2.6042    7.3777   28.3948 O   0  0  0  0  0  0  0  0  0  0  0  0
   -0.7990    7.8033   30.0111 C   0  0  2  0  0  0  0  0  0  0  0  0
   -0.1617    8.8381   30.7703 O   0  0  0  0  0  0  0  0  0  0  0  0
    0.2669    7.1626   29.1682 C   0  0  0  0  0  0  0  0  0  0  0  0
    1.1815    6.5102   30.0501 O   0  0  0  0  0  0  0  0  0  0  0  0
   -0.6097    6.6396   36.4389 C   0  0  2  0  0  0  0  0  0  0  0  0
    0.1201    5.8820   37.4321 N   0  0  0  0  0  0  0  0  0  0  0  0
   -0.8515    5.7590   35.1525 C   0  0  0  0  0  0  0  0  0  0  0  0
   -1.6385    6.5604   34.0567 C   0  0  2  0  0  0  0  0  0  0  0  0
   -1.8348    5.7135   32.8819 N   0  0  0  0  0  0  0  0  0  0  0  0
   -0.8784    7.8873   33.6096 C   0  0  2  0  0  0  0  0  0  0  0  0
   -0.6807    8.7616   34.8817 C   0  0  2  0  0  0  0  0  0  0  0  0
    0.0315    9.9931   34.3730 O   0  0  0  0  0  0  0  0  0  0  0  0
    0.1937    7.9492   35.9875 C   0  0  1  0  0  0  0  0  0  0  0  0
    0.3976    8.6550   37.2534 O   0  0  0  0  0  0  0  0  0  0  0  0
   -0.2610   11.0913   35.1384 C   0  0  1  0  0  0  0  0  0  0  0  0
    0.5201   12.2760   34.7675 C   0  0  2  0  0  0  0  0  0  0  0  0
    1.8241   12.0683   35.2069 O   0  0  0  0  0  0  0  0  0  0  0  0
   -0.3335   13.4032   35.3871 C   0  0  2  0  0  0  0  0  0  0  0  0
    0.5010   14.0713   36.3602 O   0  0  0  0  0  0  0  0  0  0  0  0
   -1.4953   12.7045   36.0131 C   0  0  2  0  0  0  0  0  0  0  0  0
   -1.5846   11.5926   35.0521 O   0  0  0  0  0  0  0  0  0  0  0  0
   -2.8018   13.5789   35.9594 C   0  0  0  0  0  0  0  0  0  0  0  0
   -2.9513   14.4787   37.0983 O   0  0  0  0  0  0  0  0  0  0  0  0
    0.4351   15.5292   36.3967 C   0  0  2  0  0  0  0  0  0  0  0  0
    1.6561   16.0755   37.3048 C   0  0  2  0  0  0  0  0  0  0  0  0
    1.5536   15.4817   38.6772 N   0  0  0  0  0  0  0  0  0  0  0  0
    1.5785   17.6808   37.3367 C   0  0  1  0  0  0  0  0  0  0  0  0
    1.6795   18.1475   35.9570 O   0  0  0  0  0  0  0  0  0  0  0  0
    0.1980   18.1322   37.9961 C   0  0  2  0  0  0  0  0  0  0  0  0
    0.1772   17.6362   39.3902 O   0  0  0  0  0  0  0  0  0  0  0  0
   -1.0186   17.5219   37.0965 C   0  0  1  0  0  0  0  0  0  0  0  0
   -0.8875   16.0214   37.0193 O   0  0  0  0  0  0  0  0  0  0  0  0
   -2.3915   17.9316   37.7258 C   0  0  0  0  0  0  0  0  0  0  0  0
   -2.6084   17.3383   39.0816 N   0  0  0  0  0  0  0  0  0  0  0  0
  1  3  1  0  0  0  0
  1  2  1  1  0  0  0
  3  4  1  1  0  0  0
  3  5  1  0  0  0  0
  5  6  1  6  0  0  0
  7  8  1  1  0  0  0
  7  5  1  0  0  0  0
  9 11  1  6  0  0  0
  9  7  1  0  0  0  0
 10  9  1  0  0  0  0
 10  1  1  0  0  0  0
 12 11  1  0  0  0  0
 13 14  1  1  0  0  0
 15 13  1  0  0  0  0
 16 17  1  6  0  0  0
 16 15  1  0  0  0  0
 18  2  1  6  0  0  0
 18 19  1  0  0  0  0
 18 16  1  0  0  0  0
 19 20  1  6  0  0  0
 19 21  1  0  0  0  0
 21 22  1  1  0  0  0
 21 13  1  0  0  0  0
 23 20  1  6  0  0  0
 23 29  1  0  0  0  0
 24 25  1  1  0  0  0
 24 26  1  0  0  0  0
 24 23  1  0  0  0  0
 26 27  1  1  0  0  0
 26 28  1  0  0  0  0
 28 30  1  6  0  0  0
 29 28  1  0  0  0  0
 30 31  1  0  0  0  0
 32 27  1  1  0  0  0
 32 40  1  0  0  0  0
 33 35  1  0  0  0  0
 33 32  1  0  0  0  0
 33 34  1  1  0  0  0
 35 36  1  6  0  0  0
 35 37  1  0  0  0  0
 37 38  1  1  0  0  0
 37 39  1  0  0  0  0
 39 41  1  1  0  0  0
 40 39  1  0  0  0  0
 41 42  1  0  0  0  0
M  END
>  <CHROM.1>
-173.05499749,-171.78944912,-159.31470542,151.16478563,173.83031016,137.91413398
-87.92246431,-167.81025588,-64.56211734,-0.74788926,11.45209020,34.52933111
1.87253059,1.22979178,-2.83314606

>  <Name>
lig.pdb

>  <RI>
0

>  <Rbt.Current_Directory>
/home/itssahil/PROJECTS/Mol_Feturizer/New_Systems/rnas/4wcr

>  <Rbt.Executable>
rbdock ($Id: //depot/dev/client3/rdock/2013.1/src/exe/rbdock.cxx#4 $)

>  <Rbt.Library>
libRbt.so (2013.1, Build901 2013/11/27)

>  <Rbt.Parameter_File>
/export/apps/rDock/src/rDock_2013.1_src/data/scripts/dock_solv.prm

>  <Rbt.Receptor>
prm/pocket_docking_7.prm

>  <SCORE>
-11.1607

>  <SCORE.INTER>
-7.40711

>  <SCORE.INTER.CONST>
1

>  <SCORE.INTER.POLAR>
0

>  <SCORE.INTER.ROT>
9

>  <SCORE.INTER.SOLV>
17.9227

>  <SCORE.INTER.VDW>
-20.5123

>  <SCORE.INTER.norm>
-0.17636

>  <SCORE.INTRA>
-3.75357

>  <SCORE.INTRA.DIHEDRAL>
-1.3494

>  <SCORE.INTRA.DIHEDRAL.0>
16.2863

>  <SCORE.INTRA.POLAR>
0

>  <SCORE.INTRA.POLAR.0>
0

>  <SCORE.INTRA.REPUL>
-0.314433

>  <SCORE.INTRA.REPUL.0>
0.314433

>  <SCORE.INTRA.SOLV>
-2.3439

>  <SCORE.INTRA.SOLV.lig_0>
-103.824

>  <SCORE.INTRA.VDW>
-0.334759

>  <SCORE.INTRA.VDW.0>
-5.30945

>  <SCORE.INTRA.norm>
-0.0893708

>  <SCORE.RESTR>
0

>  <SCORE.RESTR.CAVITY>
0

>  <SCORE.RESTR.norm>
0

>  <SCORE.SYSTEM>
0

>  <SCORE.SYSTEM.CONST>
0

>  <SCORE.SYSTEM.DIHEDRAL>
0

>  <SCORE.SYSTEM.SOLV>
0

>  <SCORE.SYSTEM.norm>
0

>  <SCORE.heavy>
42

>  <SCORE.norm>
-0.26573

>  <RMSD>
10.065

$$$$
lig.pdb
 OpenBabel11021811513D
libRbt.so/2013.1/901 2013/11/27
 42 45  0  0  0  0  0  0  0  0999 V2000
   -3.7547    8.5013   33.4691 C   0  0  2  0  0  0  0  0  0  0  0  0
   -4.0218    7.8867   34.7684 O   0  0  0  0  0  0  0  0  0  0  0  0
   -5.0832    8.3140   32.6089 C   0  0  2  0  0  0  0  0  0  0  0  0
   -6.2037    9.0125   33.2446 N   0  0  0  0  0  0  0  0  0  0  0  0
   -5.3682    6.7431   32.4337 C   0  0  1  0  0  0  0  0  0  0  0  0
   -6.5581    6.5140   31.6500 O   0  0  0  0  0  0  0  0  0  0  0  0
   -4.1251    6.1271   31.7690 C   0  0  2  0  0  0  0  0  0  0  0  0
   -4.3354    4.7662   31.6032 O   0  0  0  0  0  0  0  0  0  0  0  0
   -2.8358    6.3985   32.6703 C   0  0  2  0  0  0  0  0  0  0  0  0
   -2.6107    7.8027   32.8470 O   0  0  0  0  0  0  0  0  0  0  0  0
   -1.5880    5.8319   32.0545 C   0  0  0  0  0  0  0  0  0  0  0  0
   -1.3691    6.5119   30.8178 O   0  0  0  0  0  0  0  0  0  0  0  0
   -2.2904    8.2743   38.8458 C   0  0  2  0  0  0  0  0  0  0  0  0
   -1.3517    8.2136   39.9449 N   0  0  0  0  0  0  0  0  0  0  0  0
   -2.4533    6.8486   38.1901 C   0  0  0  0  0  0  0  0  0  0  0  0
   -3.4645    6.8884   36.9908 C   0  0  2  0  0  0  0  0  0  0  0  0
   -3.5810    5.5531   36.4085 N   0  0  0  0  0  0  0  0  0  0  0  0
   -3.0162    7.9067   35.8504 C   0  0  2  0  0  0  0  0  0  0  0  0
   -2.8962    9.3140   36.5038 C   0  0  2  0  0  0  0  0  0  0  0  0
   -2.4809   10.2134   35.3631 O   0  0  0  0  0  0  0  0  0  0  0  0
   -1.7967    9.2813   37.7028 C   0  0  1  0  0  0  0  0  0  0  0  0
   -1.6381   10.5417   38.4296 O   0  0  0  0  0  0  0  0  0  0  0  0
   -2.3911   11.5203   35.7647 C   0  0  1  0  0  0  0  0  0  0  0  0
   -2.0972   12.4423   34.6626 C   0  0  2  0  0  0  0  0  0  0  0  0
   -0.7658   12.2516   34.3050 O   0  0  0  0  0  0  0  0  0  0  0  0
   -2.5488   13.7879   35.2695 C   0  0  2  0  0  0  0  0  0  0  0  0
   -1.3814   14.6394   35.3109 O   0  0  0  0  0  0  0  0  0  0  0  0
   -3.0546   13.4437   36.6316 C   0  0  2  0  0  0  0  0  0  0  0  0
   -3.5651   12.1012   36.3077 O   0  0  0  0  0  0  0  0  0  0  0  0
   -4.2353   14.3851   37.0724 C   0  0  0  0  0  0  0  0  0  0  0  0
   -3.7968   15.7005   37.5268 O   0  0  0  0  0  0  0  0  0  0  0  0
   -1.5727   15.9984   35.8085 C   0  0  2  0  0  0  0  0  0  0  0  0
   -2.5865   16.7711   34.8139 C   0  0  2  0  0  0  0  0  0  0  0  0
   -2.0175   16.7638   33.4272 N   0  0  0  0  0  0  0  0  0  0  0  0
   -2.7945   18.2647   35.3706 C   0  0  1  0  0  0  0  0  0  0  0  0
   -3.3410   18.1525   36.7199 O   0  0  0  0  0  0  0  0  0  0  0  0
   -1.3936   19.0273   35.3801 C   0  0  2  0  0  0  0  0  0  0  0  0
   -0.9138   19.1129   33.9827 O   0  0  0  0  0  0  0  0  0  0  0  0
   -0.3702   18.1988   36.3435 C   0  0  1  0  0  0  0  0  0  0  0  0
   -0.2438   16.7805   35.8464 O   0  0  0  0  0  0  0  0  0  0  0  0
    1.0231   18.9109   36.3624 C   0  0  0  0  0  0  0  0  0  0  0  0
    1.5399   19.2112   34.9913 N   0  0  0  0  0  0  0  0  0  0  0  0
  1  3  1  0  0  0  0
  1  2  1  1  0  0  0
  3  4  1  1  0  0  0
  3  5  1  0  0  0  0
  5  6  1  6  0  0  0
  7  8  1  1  0  0  0
  7  5  1  0  0  0  0
  9 11  1  6  0  0  0
  9  7  1  0  0  0  0
 10  9  1  0  0  0  0
 10  1  1  0  0  0  0
 12 11  1  0  0  0  0
 13 14  1  1  0  0  0
 15 13  1  0  0  0  0
 16 17  1  6  0  0  0
 16 15  1  0  0  0  0
 18  2  1  6  0  0  0
 18 19  1  0  0  0  0
 18 16  1  0  0  0  0
 19 20  1  6  0  0  0
 19 21  1  0  0  0  0
 21 22  1  1  0  0  0
 21 13  1  0  0  0  0
 23 20  1  6  0  0  0
 23 29  1  0  0  0  0
 24 25  1  1  0  0  0
 24 26  1  0  0  0  0
 24 23  1  0  0  0  0
 26 27  1  1  0  0  0
 26 28  1  0  0  0  0
 28 30  1  6  0  0  0
 29 28  1  0  0  0  0
 30 31  1  0  0  0  0
 32 27  1  6  0  0  0
 32 40  1  0  0  0  0
 33 35  1  0  0  0  0
 33 32  1  0  0  0  0
 33 34  1  6  0  0  0
 35 36  1  1  0  0  0
 35 37  1  0  0  0  0
 37 38  1  6  0  0  0
 37 39  1  0  0  0  0
 39 41  1  6  0  0  0
 40 39  1  0  0  0  0
 41 42  1  0  0  0  0
M  END
>  <CHROM.1>
-178.13092341,63.24519372,-167.18346042,177.13963406,-175.29525803,177.86746286
-78.14242790,-62.84209912,-50.17367283,-2.59832259,11.55348746,35.12076220
2.54189297,1.31361249,2.35776146

>  <Name>
lig.pdb

>  <RI>
0

>  <Rbt.Current_Directory>
/home/itssahil/PROJECTS/Mol_Feturizer/New_Systems/rnas/4wcr

>  <Rbt.Executable>
rbdock ($Id: //depot/dev/client3/rdock/2013.1/src/exe/rbdock.cxx#4 $)

>  <Rbt.Library>
libRbt.so (2013.1, Build901 2013/11/27)

>  <Rbt.Parameter_File>
/export/apps/rDock/src/rDock_2013.1_src/data/scripts/dock_solv.prm

>  <Rbt.Receptor>
prm/pocket_docking_6.prm

>  <SCORE>
-6.91636

>  <SCORE.INTER>
0.948986

>  <SCORE.INTER.CONST>
1

>  <SCORE.INTER.POLAR>
0

>  <SCORE.INTER.ROT>
9

>  <SCORE.INTER.SOLV>
26.0311

>  <SCORE.INTER.VDW>
-17.6444

>  <SCORE.INTER.norm>
0.0225949

>  <SCORE.INTRA>
-7.86535

>  <SCORE.INTRA.DIHEDRAL>
-13.3523

>  <SCORE.INTRA.DIHEDRAL.0>
16.2863

>  <SCORE.INTRA.POLAR>
0

>  <SCORE.INTRA.POLAR.0>
0

>  <SCORE.INTRA.REPUL>
-0.314433

>  <SCORE.INTRA.REPUL.0>
0.314433

>  <SCORE.INTRA.SOLV>
-2.32486

>  <SCORE.INTRA.SOLV.lig_0>
-103.824

>  <SCORE.INTRA.VDW>
1.54542

>  <SCORE.INTRA.VDW.0>
-5.30945

>  <SCORE.INTRA.norm>
-0.18727

>  <SCORE.RESTR>
0

>  <SCORE.RESTR.CAVITY>
0

>  <SCORE.RESTR.norm>
0

>  <SCORE.SYSTEM>
0

>  <SCORE.SYSTEM.CONST>
0

>  <SCORE.SYSTEM.DIHEDRAL>
0

>  <SCORE.SYSTEM.SOLV>
0

>  <SCORE.SYSTEM.norm>
0

>  <SCORE.heavy>
42

>  <SCORE.norm>
-0.164675

>  <RMSD>
10.072

$$$$
lig.pdb
 OpenBabel11021811513D
libRbt.so/2013.1/901 2013/11/27
 42 45  0  0  0  0  0  0  0  0999 V2000
    0.1737   12.4530   35.1506 C   0  0  2  0  0  0  0  0  0  0  0  0
   -0.8043   12.1773   36.2017 O   0  0  0  0  0  0  0  0  0  0  0  0
   -0.3105   11.6375   33.8698 C   0  0  2  0  0  0  0  0  0  0  0  0
   -1.6263   12.1117   33.4322 N   0  0  0  0  0  0  0  0  0  0  0  0
   -0.3176   10.0715   34.2266 C   0  0  1  0  0  0  0  0  0  0  0  0
   -0.7390    9.2815   33.0948 O   0  0  0  0  0  0  0  0  0  0  0  0
    1.1061    9.7015   34.6769 C   0  0  2  0  0  0  0  0  0  0  0  0
    1.1371    8.3521   34.9959 O   0  0  0  0  0  0  0  0  0  0  0  0
    1.5285   10.5933   35.9317 C   0  0  2  0  0  0  0  0  0  0  0  0
    1.4992   11.9897   35.6111 O   0  0  0  0  0  0  0  0  0  0  0  0
    2.9221   10.2835   36.4000 C   0  0  0  0  0  0  0  0  0  0  0  0
    3.0905   10.8856   37.6840 O   0  0  0  0  0  0  0  0  0  0  0  0
   -2.0940   14.1390   39.9780 C   0  0  2  0  0  0  0  0  0  0  0  0
   -2.0554   14.6970   41.3122 N   0  0  0  0  0  0  0  0  0  0  0  0
   -1.5874   12.6451   39.9982 C   0  0  0  0  0  0  0  0  0  0  0  0
   -1.6154   12.0175   38.5602 C   0  0  2  0  0  0  0  0  0  0  0  0
   -1.1331   10.6393   38.6217 N   0  0  0  0  0  0  0  0  0  0  0  0
   -0.7164   12.8286   37.5247 C   0  0  2  0  0  0  0  0  0  0  0  0
   -1.2515   14.2894   37.4879 C   0  0  2  0  0  0  0  0  0  0  0  0
   -0.3591   14.9815   36.4843 O   0  0  0  0  0  0  0  0  0  0  0  0
   -1.1569   14.9564   38.9690 C   0  0  1  0  0  0  0  0  0  0  0  0
   -1.6858   16.3175   39.0681 O   0  0  0  0  0  0  0  0  0  0  0  0
   -0.9657   16.0919   35.9587 C   0  0  1  0  0  0  0  0  0  0  0  0
   -0.0133   17.1332   35.5590 C   0  0  2  0  0  0  0  0  0  0  0  0
    0.4844   17.7102   36.7235 O   0  0  0  0  0  0  0  0  0  0  0  0
   -0.8747   17.9704   34.5893 C   0  0  2  0  0  0  0  0  0  0  0  0
   -0.9583   19.3008   35.1483 O   0  0  0  0  0  0  0  0  0  0  0  0
   -2.1978   17.2790   34.5573 C   0  0  2  0  0  0  0  0  0  0  0  0
   -1.6976   15.9088   34.7581 O   0  0  0  0  0  0  0  0  0  0  0  0
   -2.8906   17.4066   33.1508 C   0  0  0  0  0  0  0  0  0  0  0  0
   -4.1289   16.6432   33.0367 O   0  0  0  0  0  0  0  0  0  0  0  0
   -1.8103   20.2583   34.4494 C   0  0  2  0  0  0  0  0  0  0  0  0
   -1.0382   20.7568   33.1192 C   0  0  2  0  0  0  0  0  0  0  0  0
    0.2745   21.3656   33.5102 N   0  0  0  0  0  0  0  0  0  0  0  0
   -1.9842   21.8074   32.3540 C   0  0  1  0  0  0  0  0  0  0  0  0
   -3.2282   21.1151   32.0301 O   0  0  0  0  0  0  0  0  0  0  0  0
   -2.2553   23.0634   33.2991 C   0  0  2  0  0  0  0  0  0  0  0  0
   -0.9553   23.7170   33.5696 O   0  0  0  0  0  0  0  0  0  0  0  0
   -2.9820   22.5293   34.6587 C   0  0  1  0  0  0  0  0  0  0  0  0
   -2.1117   21.4926   35.3239 O   0  0  0  0  0  0  0  0  0  0  0  0
   -3.2477   23.7359   35.6190 C   0  0  0  0  0  0  0  0  0  0  0  0
   -4.0399   24.8280   34.9731 N   0  0  0  0  0  0  0  0  0  0  0  0
  1  3  1  0  0  0  0
  1  2  1  1  0  0  0
  3  4  1  1  0  0  0
  3  5  1  0  0  0  0
  5  6  1  6  0  0  0
  7  8  1  1  0  0  0
  7  5  1  0  0  0  0
  9 11  1  6  0  0  0
  9  7  1  0  0  0  0
 10  9  1  0  0  0  0
 10  1  1  0  0  0  0
 12 11  1  0  0  0  0
 13 14  1  1  0  0  0
 15 13  1  0  0  0  0
 16 17  1  1  0  0  0
 16 15  1  0  0  0  0
 18  2  1  6  0  0  0
 18 19  1  0  0  0  0
 18 16  1  0  0  0  0
 19 20  1  6  0  0  0
 19 21  1  0  0  0  0
 21 22  1  6  0  0  0
 21 13  1  0  0  0  0
 23 20  1  6  0  0  0
 23 29  1  0  0  0  0
 24 25  1  1  0  0  0
 24 26  1  0  0  0  0
 24 23  1  0  0  0  0
 26 27  1  1  0  0  0
 26 28  1  0  0  0  0
 28 30  1  6  0  0  0
 29 28  1  0  0  0  0
 30 31  1  0  0  0  0
 32 27  1  1  0  0  0
 32 40  1  0  0  0  0
 33 35  1  0  0  0  0
 33 32  1  0  0  0  0
 33 34  1  1  0  0  0
 35 36  1  1  0  0  0
 35 37  1  0  0  0  0
 37 38  1  1  0  0  0
 37 39  1  0  0  0  0
 39 41  1  1  0  0  0
 40 39  1  0  0  0  0
 41 42  1  0  0  0  0
M  END
>  <CHROM.1>
-176.70155613,-166.74157607,-162.93578269,157.34478648,150.67627537,-175.72377433
174.71384020,-75.93449117,55.43779581,-1.00302189,15.88015834,35.59792399
-0.54253160,1.31373311,-1.21621066

>  <Name>
lig.pdb

>  <RI>
0

>  <Rbt.Current_Directory>
/home/itssahil/PROJECTS/Mol_Feturizer/New_Systems/rnas/4wcr

>  <Rbt.Executable>
rbdock ($Id: //depot/dev/client3/rdock/2013.1/src/exe/rbdock.cxx#4 $)

>  <Rbt.Library>
libRbt.so (2013.1, Build901 2013/11/27)

>  <Rbt.Parameter_File>
/export/apps/rDock/src/rDock_2013.1_src/data/scripts/dock_solv.prm

>  <Rbt.Receptor>
prm/pocket_docking_8.prm

>  <SCORE>
-16.1411

>  <SCORE.INTER>
-9.38975

>  <SCORE.INTER.CONST>
1

>  <SCORE.INTER.POLAR>
0

>  <SCORE.INTER.ROT>
9

>  <SCORE.INTER.SOLV>
16.1792

>  <SCORE.INTER.VDW>
-21.2529

>  <SCORE.INTER.norm>
-0.223566

>  <SCORE.INTRA>
-6.75133

>  <SCORE.INTRA.DIHEDRAL>
-6.58291

>  <SCORE.INTRA.DIHEDRAL.0>
16.2863

>  <SCORE.INTRA.POLAR>
0

>  <SCORE.INTRA.POLAR.0>
0

>  <SCORE.INTRA.REPUL>
-0.314433

>  <SCORE.INTRA.REPUL.0>
0.314433

>  <SCORE.INTRA.SOLV>
-4.97463

>  <SCORE.INTRA.SOLV.lig_0>
-103.824

>  <SCORE.INTRA.VDW>
0.599608

>  <SCORE.INTRA.VDW.0>
-5.30945

>  <SCORE.INTRA.norm>
-0.160746

>  <SCORE.RESTR>
0

>  <SCORE.RESTR.CAVITY>
0

>  <SCORE.RESTR.norm>
0

>  <SCORE.SYSTEM>
0

>  <SCORE.SYSTEM.CONST>
0

>  <SCORE.SYSTEM.DIHEDRAL>
0

>  <SCORE.SYSTEM.SOLV>
0

>  <SCORE.SYSTEM.norm>
0

>  <SCORE.heavy>
42

>  <SCORE.norm>
-0.384311

>  <RMSD>
10.073

$$$$
lig.pdb
 OpenBabel11021811513D
libRbt.so/2013.1/901 2013/11/27
 42 45  0  0  0  0  0  0  0  0999 V2000
   -3.1096    7.9794   38.0301 C   0  0  2  0  0  0  0  0  0  0  0  0
   -3.1502    7.3898   39.3672 O   0  0  0  0  0  0  0  0  0  0  0  0
   -4.4056    7.4462   37.2712 C   0  0  2  0  0  0  0  0  0  0  0  0
   -5.6192    7.9010   37.9555 N   0  0  0  0  0  0  0  0  0  0  0  0
   -4.3266    5.8448   37.1761 C   0  0  1  0  0  0  0  0  0  0  0  0
   -5.4740    5.3069   36.4855 O   0  0  0  0  0  0  0  0  0  0  0  0
   -3.0151    5.4967   36.4514 C   0  0  2  0  0  0  0  0  0  0  0  0
   -2.9119    4.1172   36.3525 O   0  0  0  0  0  0  0  0  0  0  0  0
   -1.7742    6.1049   37.2507 C   0  0  2  0  0  0  0  0  0  0  0  0
   -1.8726    7.5306   37.3577 O   0  0  0  0  0  0  0  0  0  0  0  0
   -0.4668    5.8086   36.5724 C   0  0  0  0  0  0  0  0  0  0  0  0
   -0.4870    6.4491   35.2961 O   0  0  0  0  0  0  0  0  0  0  0  0
   -1.1037    8.2948   43.2097 C   0  0  2  0  0  0  0  0  0  0  0  0
   -0.0662    8.4260   44.2094 N   0  0  0  0  0  0  0  0  0  0  0  0
   -1.1614    6.8109   42.6771 C   0  0  0  0  0  0  0  0  0  0  0  0
   -2.2775    6.6430   41.5869 C   0  0  2  0  0  0  0  0  0  0  0  0
   -2.2929    5.2597   41.1158 N   0  0  0  0  0  0  0  0  0  0  0  0
   -2.0575    7.6067   40.3374 C   0  0  2  0  0  0  0  0  0  0  0  0
   -2.0403    9.0675   40.8734 C   0  0  2  0  0  0  0  0  0  0  0  0
   -1.8391    9.9098   39.6354 O   0  0  0  0  0  0  0  0  0  0  0  0
   -0.8377    9.2519   41.9538 C   0  0  1  0  0  0  0  0  0  0  0  0
   -0.7585   10.5775   42.5693 O   0  0  0  0  0  0  0  0  0  0  0  0
   -1.9570   11.2458   39.9156 C   0  0  1  0  0  0  0  0  0  0  0  0
   -1.3745   12.1049   38.8794 C   0  0  2  0  0  0  0  0  0  0  0  0
    0.0094   12.0008   38.9829 O   0  0  0  0  0  0  0  0  0  0  0  0
   -2.0724   13.4491   39.1779 C   0  0  2  0  0  0  0  0  0  0  0  0
   -1.0305   14.3965   39.5044 O   0  0  0  0  0  0  0  0  0  0  0  0
   -2.9714   13.1656   40.3359 C   0  0  2  0  0  0  0  0  0  0  0  0
   -3.2740   11.7646   39.9990 O   0  0  0  0  0  0  0  0  0  0  0  0
   -4.2817   14.0345   40.2857 C   0  0  0  0  0  0  0  0  0  0  0  0
   -4.0300   15.4704   40.2233 O   0  0  0  0  0  0  0  0  0  0  0  0
   -0.1034   14.7532   38.4347 C   0  0  2  0  0  0  0  0  0  0  0  0
    1.1588   15.5257   39.0859 C   0  0  2  0  0  0  0  0  0  0  0  0
    0.6695   16.7365   39.8216 N   0  0  0  0  0  0  0  0  0  0  0  0
    2.1760   15.9114   37.9025 C   0  0  1  0  0  0  0  0  0  0  0  0
    2.5792   14.6669   37.2541 O   0  0  0  0  0  0  0  0  0  0  0  0
    1.4459   16.8855   36.8717 C   0  0  2  0  0  0  0  0  0  0  0  0
    1.0824   18.1235   37.5967 O   0  0  0  0  0  0  0  0  0  0  0  0
    0.1440   16.1068   36.2712 C   0  0  1  0  0  0  0  0  0  0  0  0
   -0.7628   15.6904   37.4022 O   0  0  0  0  0  0  0  0  0  0  0  0
   -0.6081   17.0418   35.2669 C   0  0  0  0  0  0  0  0  0  0  0  0
   -1.1425   18.2794   35.9151 N   0  0  0  0  0  0  0  0  0  0  0  0
  1  3  1  0  0  0  0
  1  2  1  1  0  0  0
  3  4  1  1  0  0  0
  3  5  1  0  0  0  0
  5  6  1  6  0  0  0
  7  8  1  1  0  0  0
  7  5  1  0  0  0  0
  9 11  1  6  0  0  0
  9  7  1  0  0  0  0
 10  9  1  0  0  0  0
 10  1  1  0  0  0  0
 12 11  1  0  0  0  0
 13 14  1  1  0  0  0
 15 13  1  0  0  0  0
 16 17  1  6  0  0  0
 16 15  1  0  0  0  0
 18  2  1  6  0  0  0
 18 19  1  0  0  0  0
 18 16  1  0  0  0  0
 19 20  1  6  0  0  0
 19 21  1  0  0  0  0
 21 22  1  1  0  0  0
 21 13  1  0  0  0  0
 23 20  1  6  0  0  0
 23 29  1  0  0  0  0
 24 25  1  1  0  0  0
 24 26  1  0  0  0  0
 24 23  1  0  0  0  0
 26 27  1  1  0  0  0
 26 28  1  0  0  0  0
 28 30  1  6  0  0  0
 29 28  1  0  0  0  0
 30 31  1  0  0  0  0
 32 27  1  1  0  0  0
 32 40  1  0  0  0  0
 33 35  1  0  0  0  0
 33 32  1  0  0  0  0
 33 34  1  6  0  0  0
 35 36  1  6  0  0  0
 35 37  1  0  0  0  0
 37 38  1  1  0  0  0
 37 39  1  0  0  0  0
 39 41  1  6  0  0  0
 40 39  1  0  0  0  0
 41 42  1  0  0  0  0
M  END
>  <CHROM.1>
176.64757742,62.98813964,-170.42495798,172.88039345,162.15874723,66.06068368
-56.19370262,-166.75378469,-62.64626876,-1.55911890,10.88092607,38.85287182
2.79030997,1.28412571,1.86082268

>  <Name>
lig.pdb

>  <RI>
0

>  <Rbt.Current_Directory>
/home/itssahil/PROJECTS/Mol_Feturizer/New_Systems/rnas/4wcr

>  <Rbt.Executable>
rbdock ($Id: //depot/dev/client3/rdock/2013.1/src/exe/rbdock.cxx#4 $)

>  <Rbt.Library>
libRbt.so (2013.1, Build901 2013/11/27)

>  <Rbt.Parameter_File>
/export/apps/rDock/src/rDock_2013.1_src/data/scripts/dock_solv.prm

>  <Rbt.Receptor>
prm/pocket_docking_7.prm

>  <SCORE>
-8.89685

>  <SCORE.INTER>
-0.780573

>  <SCORE.INTER.CONST>
1

>  <SCORE.INTER.POLAR>
0

>  <SCORE.INTER.ROT>
9

>  <SCORE.INTER.SOLV>
22.7071

>  <SCORE.INTER.VDW>
-17.6894

>  <SCORE.INTER.norm>
-0.0185851

>  <SCORE.INTRA>
-8.11628

>  <SCORE.INTRA.DIHEDRAL>
-12.4484

>  <SCORE.INTRA.DIHEDRAL.0>
16.2863

>  <SCORE.INTRA.POLAR>
0

>  <SCORE.INTRA.POLAR.0>
0

>  <SCORE.INTRA.REPUL>
-0.314433

>  <SCORE.INTRA.REPUL.0>
0.314433

>  <SCORE.INTRA.SOLV>
-3.73925

>  <SCORE.INTRA.SOLV.lig_0>
-103.824

>  <SCORE.INTRA.VDW>
1.54969

>  <SCORE.INTRA.VDW.0>
-5.30945

>  <SCORE.INTRA.norm>
-0.193245

>  <SCORE.RESTR>
0

>  <SCORE.RESTR.CAVITY>
0

>  <SCORE.RESTR.norm>
0

>  <SCORE.SYSTEM>
0

>  <SCORE.SYSTEM.CONST>
0

>  <SCORE.SYSTEM.DIHEDRAL>
0

>  <SCORE.SYSTEM.SOLV>
0

>  <SCORE.SYSTEM.norm>
0

>  <SCORE.heavy>
42

>  <SCORE.norm>
-0.21183

>  <RMSD>
10.078

$$$$
lig.pdb
 OpenBabel11021811513D
libRbt.so/2013.1/901 2013/11/27
 42 45  0  0  0  0  0  0  0  0999 V2000
   -0.6500    9.3103   32.1674 C   0  0  2  0  0  0  0  0  0  0  0  0
   -1.2399    8.3390   33.0871 O   0  0  0  0  0  0  0  0  0  0  0  0
   -1.8715   10.0246   31.4341 C   0  0  2  0  0  0  0  0  0  0  0  0
   -2.7042   10.7358   32.4080 N   0  0  0  0  0  0  0  0  0  0  0  0
   -2.7026    8.9187   30.6180 C   0  0  1  0  0  0  0  0  0  0  0  0
   -3.8182    9.5139   29.9226 O   0  0  0  0  0  0  0  0  0  0  0  0
   -1.7235    8.2423   29.6432 C   0  0  2  0  0  0  0  0  0  0  0  0
   -2.4083    7.2768   28.9204 O   0  0  0  0  0  0  0  0  0  0  0  0
   -0.5106    7.5936   30.4534 C   0  0  2  0  0  0  0  0  0  0  0  0
    0.2030    8.5844   31.2035 O   0  0  0  0  0  0  0  0  0  0  0  0
    0.4870    6.9347   29.5435 C   0  0  0  0  0  0  0  0  0  0  0  0
    1.3465    6.1317   30.3535 O   0  0  0  0  0  0  0  0  0  0  0  0
   -0.1725    6.6335   37.0525 C   0  0  2  0  0  0  0  0  0  0  0  0
    0.5500    5.9289   38.0891 N   0  0  0  0  0  0  0  0  0  0  0  0
   -0.4385    5.6756   35.8275 C   0  0  0  0  0  0  0  0  0  0  0  0
   -1.2181    6.4182   34.6860 C   0  0  2  0  0  0  0  0  0  0  0  0
   -1.4373    5.5004   33.5701 N   0  0  0  0  0  0  0  0  0  0  0  0
   -0.4371    7.6990   34.1493 C   0  0  2  0  0  0  0  0  0  0  0  0
   -0.2155    8.6505   35.3606 C   0  0  2  0  0  0  0  0  0  0  0  0
    0.5154    9.8330   34.7689 O   0  0  0  0  0  0  0  0  0  0  0  0
    0.6514    7.8959   36.5124 C   0  0  1  0  0  0  0  0  0  0  0  0
    0.8762    8.6788   37.7284 O   0  0  0  0  0  0  0  0  0  0  0  0
    0.1865   10.9968   35.4128 C   0  0  1  0  0  0  0  0  0  0  0  0
    1.0080   12.1377   34.9951 C   0  0  2  0  0  0  0  0  0  0  0  0
    2.2756   11.9591   35.5410 O   0  0  0  0  0  0  0  0  0  0  0  0
    0.1299   13.3222   35.4525 C   0  0  2  0  0  0  0  0  0  0  0  0
    0.9048   14.0669   36.4192 O   0  0  0  0  0  0  0  0  0  0  0  0
   -1.0820   12.6909   36.0546 C   0  0  2  0  0  0  0  0  0  0  0  0
   -1.1207   11.4992   35.1908 O   0  0  0  0  0  0  0  0  0  0  0  0
   -2.3692   13.5676   35.8334 C   0  0  0  0  0  0  0  0  0  0  0  0
   -3.5719   13.0050   36.4386 O   0  0  0  0  0  0  0  0  0  0  0  0
    0.6354   15.4980   36.5201 C   0  0  2  0  0  0  0  0  0  0  0  0
    1.7565   16.1652   37.4752 C   0  0  2  0  0  0  0  0  0  0  0  0
    1.7206   15.4987   38.8172 N   0  0  0  0  0  0  0  0  0  0  0  0
    1.4549   17.7408   37.5779 C   0  0  1  0  0  0  0  0  0  0  0  0
    1.5071   18.2818   36.2229 O   0  0  0  0  0  0  0  0  0  0  0  0
    0.0166   17.9642   38.2304 C   0  0  2  0  0  0  0  0  0  0  0  0
    0.0477   17.4047   39.6002 O   0  0  0  0  0  0  0  0  0  0  0  0
   -1.0913   17.2340   37.2811 C   0  0  1  0  0  0  0  0  0  0  0  0
   -0.7508   15.7716   37.1389 O   0  0  0  0  0  0  0  0  0  0  0  0
   -2.5158   17.4185   37.9019 C   0  0  0  0  0  0  0  0  0  0  0  0
   -2.9274   18.8536   37.9934 N   0  0  0  0  0  0  0  0  0  0  0  0
  1  3  1  0  0  0  0
  1  2  1  1  0  0  0
  3  4  1  1  0  0  0
  3  5  1  0  0  0  0
  5  6  1  6  0  0  0
  7  8  1  1  0  0  0
  7  5  1  0  0  0  0
  9 11  1  6  0  0  0
  9  7  1  0  0  0  0
 10  9  1  0  0  0  0
 10  1  1  0  0  0  0
 12 11  1  0  0  0  0
 13 14  1  1  0  0  0
 15 13  1  0  0  0  0
 16 17  1  6  0  0  0
 16 15  1  0  0  0  0
 18  2  1  6  0  0  0
 18 19  1  0  0  0  0
 18 16  1  0  0  0  0
 19 20  1  6  0  0  0
 19 21  1  0  0  0  0
 21 22  1  1  0  0  0
 21 13  1  0  0  0  0
 23 20  1  6  0  0  0
 23 29  1  0  0  0  0
 24 25  1  1  0  0  0
 24 26  1  0  0  0  0
 24 23  1  0  0  0  0
 26 27  1  1  0  0  0
 26 28  1  0  0  0  0
 28 30  1  6  0  0  0
 29 28  1  0  0  0  0
 30 31  1  0  0  0  0
 32 27  1  1  0  0  0
 32 40  1  0  0  0  0
 33 35  1  0  0  0  0
 33 32  1  0  0  0  0
 33 34  1  1  0  0  0
 35 36  1  6  0  0  0
 35 37  1  0  0  0  0
 37 38  1  1  0  0  0
 37 39  1  0  0  0  0
 39 41  1  1  0  0  0
 40 39  1  0  0  0  0
 41 42  1  0  0  0  0
M  END
>  <CHROM.1>
-166.31433150,-166.77618529,-163.67729998,147.57707442,172.07277936,151.04410027
-178.40947497,-171.18804394,61.98929629,-0.49331673,11.32973086,34.83145916
1.73621443,1.15820042,-2.75500954

>  <Name>
lig.pdb

>  <RI>
0

>  <Rbt.Current_Directory>
/home/itssahil/PROJECTS/Mol_Feturizer/New_Systems/rnas/4wcr

>  <Rbt.Executable>
rbdock ($Id: //depot/dev/client3/rdock/2013.1/src/exe/rbdock.cxx#4 $)

>  <Rbt.Library>
libRbt.so (2013.1, Build901 2013/11/27)

>  <Rbt.Parameter_File>
/export/apps/rDock/src/rDock_2013.1_src/data/scripts/dock_solv.prm

>  <Rbt.Receptor>
prm/pocket_docking_6.prm

>  <SCORE>
-13.1885

>  <SCORE.INTER>
-6.72681

>  <SCORE.INTER.CONST>
1

>  <SCORE.INTER.POLAR>
0

>  <SCORE.INTER.ROT>
9

>  <SCORE.INTER.SOLV>
22.6868

>  <SCORE.INTER.VDW>
-21.6468

>  <SCORE.INTER.norm>
-0.160162

>  <SCORE.INTRA>
-6.46165

>  <SCORE.INTRA.DIHEDRAL>
-4.94468

>  <SCORE.INTRA.DIHEDRAL.0>
16.2863

>  <SCORE.INTRA.POLAR>
0

>  <SCORE.INTRA.POLAR.0>
0

>  <SCORE.INTRA.REPUL>
-0.314433

>  <SCORE.INTRA.REPUL.0>
0.314433

>  <SCORE.INTRA.SOLV>
-4.55237

>  <SCORE.INTRA.SOLV.lig_0>
-103.824

>  <SCORE.INTRA.VDW>
-0.140958

>  <SCORE.INTRA.VDW.0>
-5.30945

>  <SCORE.INTRA.norm>
-0.153849

>  <SCORE.RESTR>
0

>  <SCORE.RESTR.CAVITY>
0

>  <SCORE.RESTR.norm>
0

>  <SCORE.SYSTEM>
0

>  <SCORE.SYSTEM.CONST>
0

>  <SCORE.SYSTEM.DIHEDRAL>
0

>  <SCORE.SYSTEM.SOLV>
0

>  <SCORE.SYSTEM.norm>
0

>  <SCORE.heavy>
42

>  <SCORE.norm>
-0.314011

>  <RMSD>
10.099

$$$$
lig.pdb
 OpenBabel11021811513D
libRbt.so/2013.1/901 2013/11/27
 42 45  0  0  0  0  0  0  0  0999 V2000
   -1.0712   13.3148   34.9199 C   0  0  2  0  0  0  0  0  0  0  0  0
   -1.8625   12.9594   36.0967 O   0  0  0  0  0  0  0  0  0  0  0  0
   -1.3520   12.1789   33.8378 C   0  0  2  0  0  0  0  0  0  0  0  0
   -2.7708   12.1649   33.4711 N   0  0  0  0  0  0  0  0  0  0  0  0
   -0.8646   10.7681   34.4311 C   0  0  1  0  0  0  0  0  0  0  0  0
   -1.0854    9.7011   33.4849 O   0  0  0  0  0  0  0  0  0  0  0  0
    0.6259   10.9136   34.7829 C   0  0  2  0  0  0  0  0  0  0  0  0
    1.0818    9.7108   35.3016 O   0  0  0  0  0  0  0  0  0  0  0  0
    0.8233   12.0986   35.8341 C   0  0  2  0  0  0  0  0  0  0  0  0
    0.3547   13.3458   35.3063 O   0  0  0  0  0  0  0  0  0  0  0  0
    2.2679   12.2951   36.1974 C   0  0  0  0  0  0  0  0  0  0  0  0
    2.3354   13.3703   37.1350 O   0  0  0  0  0  0  0  0  0  0  0  0
   -2.9986   15.4330   39.6129 C   0  0  2  0  0  0  0  0  0  0  0  0
   -2.9344   16.0971   40.8965 N   0  0  0  0  0  0  0  0  0  0  0  0
   -2.7397   13.8866   39.7868 C   0  0  0  0  0  0  0  0  0  0  0  0
   -2.7997   13.1429   38.4063 C   0  0  2  0  0  0  0  0  0  0  0  0
   -2.5482   11.7178   38.6103 N   0  0  0  0  0  0  0  0  0  0  0  0
   -1.7341   13.7066   37.3646 C   0  0  2  0  0  0  0  0  0  0  0  0
   -2.0257   15.2234   37.1751 C   0  0  2  0  0  0  0  0  0  0  0  0
   -0.9873   15.6741   36.1746 O   0  0  0  0  0  0  0  0  0  0  0  0
   -1.8957   15.9994   38.5994 C   0  0  1  0  0  0  0  0  0  0  0  0
   -2.2036   17.4295   38.5537 O   0  0  0  0  0  0  0  0  0  0  0  0
   -1.2301   16.9519   35.7438 C   0  0  1  0  0  0  0  0  0  0  0  0
   -0.0114   17.6701   35.3565 C   0  0  2  0  0  0  0  0  0  0  0  0
    0.6769   17.9811   36.5254 O   0  0  0  0  0  0  0  0  0  0  0  0
   -0.5950   18.7991   34.4802 C   0  0  2  0  0  0  0  0  0  0  0  0
   -0.2400   20.0472   35.1171 O   0  0  0  0  0  0  0  0  0  0  0  0
   -2.0686   18.5579   34.4755 C   0  0  2  0  0  0  0  0  0  0  0  0
   -2.0180   17.0897   34.5730 O   0  0  0  0  0  0  0  0  0  0  0  0
   -2.7281   18.9923   33.1150 C   0  0  0  0  0  0  0  0  0  0  0  0
   -4.1583   18.7127   33.0421 O   0  0  0  0  0  0  0  0  0  0  0  0
    1.0556   20.6218   34.7676 C   0  0  2  0  0  0  0  0  0  0  0  0
    1.2051   22.0456   35.5190 C   0  0  2  0  0  0  0  0  0  0  0  0
    0.0739   22.9399   35.1099 N   0  0  0  0  0  0  0  0  0  0  0  0
    2.6351   22.6695   35.1319 C   0  0  1  0  0  0  0  0  0  0  0  0
    3.6549   21.7191   35.5659 O   0  0  0  0  0  0  0  0  0  0  0  0
    2.7025   22.9042   33.5556 C   0  0  2  0  0  0  0  0  0  0  0  0
    1.6533   23.8844   33.1973 O   0  0  0  0  0  0  0  0  0  0  0  0
    2.4919   21.4643   32.8178 C   0  0  1  0  0  0  0  0  0  0  0  0
    1.1780   20.8622   33.2489 O   0  0  0  0  0  0  0  0  0  0  0  0
    2.5348   21.6600   31.2659 C   0  0  0  0  0  0  0  0  0  0  0  0
    1.4432   22.5503   30.7629 N   0  0  0  0  0  0  0  0  0  0  0  0
  1  3  1  0  0  0  0
  1  2  1  1  0  0  0
  3  4  1  1  0  0  0
  3  5  1  0  0  0  0
  5  6  1  6  0  0  0
  7  8  1  1  0  0  0
  7  5  1  0  0  0  0
  9 11  1  6  0  0  0
  9  7  1  0  0  0  0
 10  9  1  0  0  0  0
 10  1  1  0  0  0  0
 12 11  1  0  0  0  0
 13 14  1  1  0  0  0
 15 13  1  0  0  0  0
 16 17  1  1  0  0  0
 16 15  1  0  0  0  0
 18  2  1  6  0  0  0
 18 19  1  0  0  0  0
 18 16  1  0  0  0  0
 19 20  1  6  0  0  0
 19 21  1  0  0  0  0
 21 22  1  6  0  0  0
 21 13  1  0  0  0  0
 23 20  1  6  0  0  0
 23 29  1  0  0  0  0
 24 25  1  1  0  0  0
 24 26  1  0  0  0  0
 24 23  1  0  0  0  0
 26 27  1  1  0  0  0
 26 28  1  0  0  0  0
 28 30  1  6  0  0  0
 29 28  1  0  0  0  0
 30 31  1  0  0  0  0
 32 27  1  6  0  0  0
 32 40  1  0  0  0  0
 33 35  1  0  0  0  0
 33 32  1  0  0  0  0
 33 34  1  6  0  0  0
 35 36  1  6  0  0  0
 35 37  1  0  0  0  0
 37 38  1  6  0  0  0
 37 39  1  0  0  0  0
 39 41  1  6  0  0  0
 40 39  1  0  0  0  0
 41 42  1  0  0  0  0
M  END
>  <CHROM.1>
172.93107903,179.95354494,175.91352119,170.93023502,150.99033660,87.16578527
177.13120821,176.62353574,-61.92270223,-0.37177162,16.65003537,35.44517845
-2.00950425,0.98482124,0.11053091

>  <Name>
lig.pdb

>  <RI>
0

>  <Rbt.Current_Directory>
/home/itssahil/PROJECTS/Mol_Feturizer/New_Systems/rnas/4wcr

>  <Rbt.Executable>
rbdock ($Id: //depot/dev/client3/rdock/2013.1/src/exe/rbdock.cxx#4 $)

>  <Rbt.Library>
libRbt.so (2013.1, Build901 2013/11/27)

>  <Rbt.Parameter_File>
/export/apps/rDock/src/rDock_2013.1_src/data/scripts/dock_solv.prm

>  <Rbt.Receptor>
prm/pocket_docking_8.prm

>  <SCORE>
-14.5736

>  <SCORE.INTER>
-7.88582

>  <SCORE.INTER.CONST>
1

>  <SCORE.INTER.POLAR>
0

>  <SCORE.INTER.ROT>
9

>  <SCORE.INTER.SOLV>
15.7492

>  <SCORE.INTER.VDW>
-20.107

>  <SCORE.INTER.norm>
-0.187758

>  <SCORE.INTRA>
-6.6878

>  <SCORE.INTRA.DIHEDRAL>
-8.53718

>  <SCORE.INTRA.DIHEDRAL.0>
16.2863

>  <SCORE.INTRA.POLAR>
0

>  <SCORE.INTRA.POLAR.0>
0

>  <SCORE.INTRA.REPUL>
-0.314433

>  <SCORE.INTRA.REPUL.0>
0.314433

>  <SCORE.INTRA.SOLV>
-4.43834

>  <SCORE.INTRA.SOLV.lig_0>
-103.824

>  <SCORE.INTRA.VDW>
1.37213

>  <SCORE.INTRA.VDW.0>
-5.30945

>  <SCORE.INTRA.norm>
-0.159233

>  <SCORE.RESTR>
0

>  <SCORE.RESTR.CAVITY>
0

>  <SCORE.RESTR.norm>
0

>  <SCORE.SYSTEM>
0

>  <SCORE.SYSTEM.CONST>
0

>  <SCORE.SYSTEM.DIHEDRAL>
0

>  <SCORE.SYSTEM.SOLV>
0

>  <SCORE.SYSTEM.norm>
0

>  <SCORE.heavy>
42

>  <SCORE.norm>
-0.346991

>  <RMSD>
10.101

$$$$
lig.pdb
 OpenBabel11021811513D
libRbt.so/2013.1/901 2013/11/27
 42 45  0  0  0  0  0  0  0  0999 V2000
   -1.8992    4.4851   38.9926 C   0  0  2  0  0  0  0  0  0  0  0  0
   -3.3050    4.5419   38.5956 O   0  0  0  0  0  0  0  0  0  0  0  0
   -1.8930    4.2209   40.5643 C   0  0  2  0  0  0  0  0  0  0  0  0
   -2.5254    2.9339   40.8664 N   0  0  0  0  0  0  0  0  0  0  0  0
   -2.6295    5.4458   41.2971 C   0  0  1  0  0  0  0  0  0  0  0  0
   -2.6431    5.2639   42.7287 O   0  0  0  0  0  0  0  0  0  0  0  0
   -1.8833    6.7300   40.8965 C   0  0  2  0  0  0  0  0  0  0  0  0
   -2.4950    7.8123   41.5115 O   0  0  0  0  0  0  0  0  0  0  0  0
   -1.8976    6.8944   39.3087 C   0  0  2  0  0  0  0  0  0  0  0  0
   -1.2673    5.7801   38.6647 O   0  0  0  0  0  0  0  0  0  0  0  0
   -1.1633    8.1270   38.8629 C   0  0  0  0  0  0  0  0  0  0  0  0
   -1.2684    8.2020   37.4405 O   0  0  0  0  0  0  0  0  0  0  0  0
   -3.0928    6.1556   34.4575 C   0  0  2  0  0  0  0  0  0  0  0  0
   -3.4031    6.3951   33.0649 N   0  0  0  0  0  0  0  0  0  0  0  0
   -2.8955    4.6114   34.7131 C   0  0  0  0  0  0  0  0  0  0  0  0
   -2.5619    4.3241   36.2193 C   0  0  2  0  0  0  0  0  0  0  0  0
   -2.3943    2.8855   36.4145 N   0  0  0  0  0  0  0  0  0  0  0  0
   -3.7002    4.8451   37.2048 C   0  0  2  0  0  0  0  0  0  0  0  0
   -3.8569    6.3751   36.9676 C   0  0  2  0  0  0  0  0  0  0  0  0
   -4.9380    6.7877   37.9390 O   0  0  0  0  0  0  0  0  0  0  0  0
   -4.2687    6.6611   35.4197 C   0  0  1  0  0  0  0  0  0  0  0  0
   -4.3907    8.0757   35.0645 O   0  0  0  0  0  0  0  0  0  0  0  0
   -4.9447    8.1441   38.1324 C   0  0  1  0  0  0  0  0  0  0  0  0
   -6.2535    8.6600   38.5470 C   0  0  2  0  0  0  0  0  0  0  0  0
   -7.0899    8.6129   37.4357 O   0  0  0  0  0  0  0  0  0  0  0  0
   -5.8585   10.0210   39.1593 C   0  0  2  0  0  0  0  0  0  0  0  0
   -6.5305   11.0383   38.3828 O   0  0  0  0  0  0  0  0  0  0  0  0
   -4.3729   10.0857   39.0236 C   0  0  2  0  0  0  0  0  0  0  0  0
   -4.1094    8.6439   39.1635 O   0  0  0  0  0  0  0  0  0  0  0  0
   -3.7112   10.8792   40.2098 C   0  0  0  0  0  0  0  0  0  0  0  0
   -2.2626   11.0081   40.0919 O   0  0  0  0  0  0  0  0  0  0  0  0
   -6.4136   12.4145   38.8555 C   0  0  2  0  0  0  0  0  0  0  0  0
   -7.3613   13.3532   37.9418 C   0  0  2  0  0  0  0  0  0  0  0  0
   -6.9475   13.2232   36.5070 N   0  0  0  0  0  0  0  0  0  0  0  0
   -7.2297   14.8654   38.4710 C   0  0  1  0  0  0  0  0  0  0  0  0
   -7.6476   14.8734   39.8699 O   0  0  0  0  0  0  0  0  0  0  0  0
   -5.7176   15.3504   38.3206 C   0  0  2  0  0  0  0  0  0  0  0  0
   -5.3748   15.3283   36.8811 O   0  0  0  0  0  0  0  0  0  0  0  0
   -4.7740   14.3548   39.2039 C   0  0  1  0  0  0  0  0  0  0  0  0
   -4.9654   12.9325   38.7399 O   0  0  0  0  0  0  0  0  0  0  0  0
   -3.2779   14.7917   39.0653 C   0  0  0  0  0  0  0  0  0  0  0  0
   -3.0055   16.1303   39.6745 N   0  0  0  0  0  0  0  0  0  0  0  0
  1  3  1  0  0  0  0
  1  2  1  1  0  0  0
  3  4  1  6  0  0  0
  3  5  1  0  0  0  0
  5  6  1  1  0  0  0
  7  8  1  1  0  0  0
  7  5  1  0  0  0  0
  9 11  1  1  0  0  0
  9  7  1  0  0  0  0
 10  9  1  0  0  0  0
 10  1  1  0  0  0  0
 12 11  1  0  0  0  0
 13 14  1  6  0  0  0
 15 13  1  0  0  0  0
 16 17  1  6  0  0  0
 16 15  1  0  0  0  0
 18  2  1  1  0  0  0
 18 19  1  0  0  0  0
 18 16  1  0  0  0  0
 19 20  1  1  0  0  0
 19 21  1  0  0  0  0
 21 22  1  1  0  0  0
 21 13  1  0  0  0  0
 23 20  1  1  0  0  0
 23 29  1  0  0  0  0
 24 25  1  6  0  0  0
 24 26  1  0  0  0  0
 24 23  1  0  0  0  0
 26 27  1  6  0  0  0
 26 28  1  0  0  0  0
 28 30  1  1  0  0  0
 29 28  1  0  0  0  0
 30 31  1  0  0  0  0
 32 27  1  6  0  0  0
 32 40  1  0  0  0  0
 33 35  1  0  0  0  0
 33 32  1  0  0  0  0
 33 34  1  6  0  0  0
 35 36  1  1  0  0  0
 35 37  1  0  0  0  0
 37 38  1  6  0  0  0
 37 39  1  0  0  0  0
 39 41  1  6  0  0  0
 40 39  1  0  0  0  0
 41 42  1  0  0  0  0
M  END
>  <CHROM.1>
176.76142310,-178.30798725,29.82870515,162.99399859,154.54377756,174.18444908
-177.92312206,-173.99576744,66.23221069,-4.00500688,8.88789923,38.37214195
-0.79545351,-1.09574590,0.76096426

>  <Name>
lig.pdb

>  <RI>
0

>  <Rbt.Current_Directory>
/home/itssahil/PROJECTS/Mol_Feturizer/New_Systems/rnas/4wcr

>  <Rbt.Executable>
rbdock ($Id: //depot/dev/client3/rdock/2013.1/src/exe/rbdock.cxx#4 $)

>  <Rbt.Library>
libRbt.so (2013.1, Build901 2013/11/27)

>  <Rbt.Parameter_File>
/export/apps/rDock/src/rDock_2013.1_src/data/scripts/dock_solv.prm

>  <Rbt.Receptor>
prm/pocket_docking_6.prm

>  <SCORE>
-7.88627

>  <SCORE.INTER>
-0.400497

>  <SCORE.INTER.CONST>
1

>  <SCORE.INTER.POLAR>
0

>  <SCORE.INTER.ROT>
9

>  <SCORE.INTER.SOLV>
17.7555

>  <SCORE.INTER.VDW>
-15.7855

>  <SCORE.INTER.norm>
-0.00953563

>  <SCORE.INTRA>
-7.48578

>  <SCORE.INTRA.DIHEDRAL>
-7.50607

>  <SCORE.INTRA.DIHEDRAL.0>
16.2863

>  <SCORE.INTRA.POLAR>
0

>  <SCORE.INTRA.POLAR.0>
0

>  <SCORE.INTRA.REPUL>
-0.314433

>  <SCORE.INTRA.REPUL.0>
0.314433

>  <SCORE.INTRA.SOLV>
-2.36138

>  <SCORE.INTRA.SOLV.lig_0>
-103.824

>  <SCORE.INTRA.VDW>
-0.979887

>  <SCORE.INTRA.VDW.0>
-5.30945

>  <SCORE.INTRA.norm>
-0.178233

>  <SCORE.RESTR>
0

>  <SCORE.RESTR.CAVITY>
0

>  <SCORE.RESTR.norm>
0

>  <SCORE.SYSTEM>
0

>  <SCORE.SYSTEM.CONST>
0

>  <SCORE.SYSTEM.DIHEDRAL>
0

>  <SCORE.SYSTEM.SOLV>
0

>  <SCORE.SYSTEM.norm>
0

>  <SCORE.heavy>
42

>  <SCORE.norm>
-0.187768

>  <RMSD>
10.102

$$$$
lig.pdb
 OpenBabel11021811513D
libRbt.so/2013.1/901 2013/11/27
 42 45  0  0  0  0  0  0  0  0999 V2000
   -3.7478    5.2736   33.1234 C   0  0  2  0  0  0  0  0  0  0  0  0
   -5.0522    5.8239   32.7588 O   0  0  0  0  0  0  0  0  0  0  0  0
   -4.0410    3.8965   33.8701 C   0  0  2  0  0  0  0  0  0  0  0  0
   -4.7166    2.9613   32.9664 N   0  0  0  0  0  0  0  0  0  0  0  0
   -4.9064    4.1979   35.1892 C   0  0  1  0  0  0  0  0  0  0  0  0
   -5.1925    2.9828   35.9133 O   0  0  0  0  0  0  0  0  0  0  0  0
   -4.1004    5.1904   36.0446 C   0  0  2  0  0  0  0  0  0  0  0  0
   -4.8205    5.4760   37.1950 O   0  0  0  0  0  0  0  0  0  0  0  0
   -3.8118    6.5194   35.2086 C   0  0  2  0  0  0  0  0  0  0  0  0
   -3.0678    6.2336   34.0176 O   0  0  0  0  0  0  0  0  0  0  0  0
   -3.0087    7.5167   35.9946 C   0  0  0  0  0  0  0  0  0  0  0  0
   -3.8227    7.9704   37.0768 O   0  0  0  0  0  0  0  0  0  0  0  0
   -3.9138    8.6529   29.5225 C   0  0  2  0  0  0  0  0  0  0  0  0
   -4.0181    9.5912   28.4263 N   0  0  0  0  0  0  0  0  0  0  0  0
   -4.6784    7.3185   29.1710 C   0  0  0  0  0  0  0  0  0  0  0  0
   -4.5840    6.2842   30.3473 C   0  0  2  0  0  0  0  0  0  0  0  0
   -5.3093    5.0683   29.9852 N   0  0  0  0  0  0  0  0  0  0  0  0
   -5.1865    6.8535   31.7080 C   0  0  2  0  0  0  0  0  0  0  0  0
   -4.3978    8.1477   32.0608 C   0  0  2  0  0  0  0  0  0  0  0  0
   -5.0192    8.6137   33.3568 O   0  0  0  0  0  0  0  0  0  0  0  0
   -4.5556    9.2412   30.8664 C   0  0  1  0  0  0  0  0  0  0  0  0
   -3.8079   10.4838   31.0640 O   0  0  0  0  0  0  0  0  0  0  0  0
   -4.4182    9.7559   33.8166 C   0  0  1  0  0  0  0  0  0  0  0  0
   -4.9635   10.2176   35.0975 C   0  0  2  0  0  0  0  0  0  0  0  0
   -6.2268   10.7444   34.8457 O   0  0  0  0  0  0  0  0  0  0  0  0
   -3.8273   11.1383   35.5920 C   0  0  2  0  0  0  0  0  0  0  0  0
   -4.3901   12.4636   35.7197 O   0  0  0  0  0  0  0  0  0  0  0  0
   -2.7811   11.0609   34.5294 C   0  0  2  0  0  0  0  0  0  0  0  0
   -3.0353    9.6703   34.1177 O   0  0  0  0  0  0  0  0  0  0  0  0
   -1.3315   11.1978   35.1246 C   0  0  0  0  0  0  0  0  0  0  0  0
   -0.2832   11.2356   34.1103 O   0  0  0  0  0  0  0  0  0  0  0  0
   -5.4157   12.6497   36.7418 C   0  0  2  0  0  0  0  0  0  0  0  0
   -5.7688   14.2248   36.8336 C   0  0  2  0  0  0  0  0  0  0  0  0
   -4.5215   14.9916   37.1542 N   0  0  0  0  0  0  0  0  0  0  0  0
   -6.9009   14.4206   37.9579 C   0  0  1  0  0  0  0  0  0  0  0  0
   -8.0584   13.6295   37.5505 O   0  0  0  0  0  0  0  0  0  0  0  0
   -6.3384   13.9310   39.3680 C   0  0  2  0  0  0  0  0  0  0  0  0
   -5.1816   14.7857   39.7168 O   0  0  0  0  0  0  0  0  0  0  0  0
   -5.9351   12.3557   39.2354 C   0  0  1  0  0  0  0  0  0  0  0  0
   -4.9258   12.1832   38.1280 O   0  0  0  0  0  0  0  0  0  0  0  0
   -5.3617   11.8455   40.5990 C   0  0  0  0  0  0  0  0  0  0  0  0
   -5.0899   10.3746   40.6002 N   0  0  0  0  0  0  0  0  0  0  0  0
  1  3  1  0  0  0  0
  1  2  1  1  0  0  0
  3  4  1  6  0  0  0
  3  5  1  0  0  0  0
  5  6  1  1  0  0  0
  7  8  1  1  0  0  0
  7  5  1  0  0  0  0
  9 11  1  1  0  0  0
  9  7  1  0  0  0  0
 10  9  1  0  0  0  0
 10  1  1  0  0  0  0
 12 11  1  0  0  0  0
 13 14  1  6  0  0  0
 15 13  1  0  0  0  0
 16 17  1  6  0  0  0
 16 15  1  0  0  0  0
 18  2  1  1  0  0  0
 18 19  1  0  0  0  0
 18 16  1  0  0  0  0
 19 20  1  1  0  0  0
 19 21  1  0  0  0  0
 21 22  1  1  0  0  0
 21 13  1  0  0  0  0
 23 20  1  1  0  0  0
 23 29  1  0  0  0  0
 24 25  1  6  0  0  0
 24 26  1  0  0  0  0
 24 23  1  0  0  0  0
 26 27  1  6  0  0  0
 26 28  1  0  0  0  0
 28 30  1  1  0  0  0
 29 28  1  0  0  0  0
 30 31  1  0  0  0  0
 32 27  1  6  0  0  0
 32 40  1  0  0  0  0
 33 35  1  0  0  0  0
 33 32  1  0  0  0  0
 33 34  1  1  0  0  0
 35 36  1  6  0  0  0
 35 37  1  0  0  0  0
 37 38  1  6  0  0  0
 37 39  1  0  0  0  0
 39 41  1  1  0  0  0
 40 39  1  0  0  0  0
 41 42  1  0  0  0  0
M  END
>  <CHROM.1>
-160.71793232,-66.73734460,58.01459443,179.40990509,-178.10484490,66.00712276
-175.34422209,173.13283886,174.47623445,-4.52820211,9.23114681,34.86064551
0.72874086,-1.42210005,2.99556290

>  <Name>
lig.pdb

>  <RI>
0

>  <Rbt.Current_Directory>
/home/itssahil/PROJECTS/Mol_Feturizer/New_Systems/rnas/4wcr

>  <Rbt.Executable>
rbdock ($Id: //depot/dev/client3/rdock/2013.1/src/exe/rbdock.cxx#4 $)

>  <Rbt.Library>
libRbt.so (2013.1, Build901 2013/11/27)

>  <Rbt.Parameter_File>
/export/apps/rDock/src/rDock_2013.1_src/data/scripts/dock_solv.prm

>  <Rbt.Receptor>
prm/pocket_docking_7.prm

>  <SCORE>
-7.23652

>  <SCORE.INTER>
2.18853

>  <SCORE.INTER.CONST>
1

>  <SCORE.INTER.POLAR>
0

>  <SCORE.INTER.ROT>
9

>  <SCORE.INTER.SOLV>
13.4678

>  <SCORE.INTER.VDW>
-12.6302

>  <SCORE.INTER.norm>
0.0521077

>  <SCORE.INTRA>
-9.42505

>  <SCORE.INTRA.DIHEDRAL>
-13.2947

>  <SCORE.INTRA.DIHEDRAL.0>
16.2863

>  <SCORE.INTRA.POLAR>
0

>  <SCORE.INTRA.POLAR.0>
0

>  <SCORE.INTRA.REPUL>
-0.314391

>  <SCORE.INTRA.REPUL.0>
0.314433

>  <SCORE.INTRA.SOLV>
-3.11418

>  <SCORE.INTRA.SOLV.lig_0>
-103.824

>  <SCORE.INTRA.VDW>
0.351341

>  <SCORE.INTRA.VDW.0>
-5.30945

>  <SCORE.INTRA.norm>
-0.224406

>  <SCORE.RESTR>
0

>  <SCORE.RESTR.CAVITY>
0

>  <SCORE.RESTR.norm>
0

>  <SCORE.SYSTEM>
0

>  <SCORE.SYSTEM.CONST>
0

>  <SCORE.SYSTEM.DIHEDRAL>
0

>  <SCORE.SYSTEM.SOLV>
0

>  <SCORE.SYSTEM.norm>
0

>  <SCORE.heavy>
42

>  <SCORE.norm>
-0.172298

>  <RMSD>
10.108

$$$$
lig.pdb
 OpenBabel11021811513D
libRbt.so/2013.1/901 2013/11/27
 42 45  0  0  0  0  0  0  0  0999 V2000
   -1.2878    6.7196   32.0372 C   0  0  2  0  0  0  0  0  0  0  0  0
   -1.3350    7.7619   33.0613 O   0  0  0  0  0  0  0  0  0  0  0  0
   -0.9465    7.4595   30.6675 C   0  0  2  0  0  0  0  0  0  0  0  0
    0.3667    8.1046   30.7512 N   0  0  0  0  0  0  0  0  0  0  0  0
   -2.1182    8.5084   30.3408 C   0  0  1  0  0  0  0  0  0  0  0  0
   -1.8656    9.2016   29.1005 O   0  0  0  0  0  0  0  0  0  0  0  0
   -3.4358    7.7161   30.2885 C   0  0  2  0  0  0  0  0  0  0  0  0
   -4.4735    8.5930   30.0094 O   0  0  0  0  0  0  0  0  0  0  0  0
   -3.6781    6.9714   31.6796 C   0  0  2  0  0  0  0  0  0  0  0  0
   -2.6102    6.0629   31.9762 O   0  0  0  0  0  0  0  0  0  0  0  0
   -4.9461    6.1657   31.6744 C   0  0  0  0  0  0  0  0  0  0  0  0
   -4.8012    5.1379   30.6934 O   0  0  0  0  0  0  0  0  0  0  0  0
   -1.8413    7.2214   37.4459 C   0  0  2  0  0  0  0  0  0  0  0  0
   -1.5705    6.8582   38.8198 N   0  0  0  0  0  0  0  0  0  0  0  0
   -1.6827    5.9621   36.5089 C   0  0  0  0  0  0  0  0  0  0  0  0
   -1.9673    6.3310   35.0104 C   0  0  2  0  0  0  0  0  0  0  0  0
   -1.8031    5.1417   34.1772 N   0  0  0  0  0  0  0  0  0  0  0  0
   -0.9963    7.4726   34.4698 C   0  0  2  0  0  0  0  0  0  0  0  0
   -1.1913    8.7194   35.3803 C   0  0  2  0  0  0  0  0  0  0  0  0
   -0.2508    9.7488   34.7986 O   0  0  0  0  0  0  0  0  0  0  0  0
   -0.8297    8.3470   36.9224 C   0  0  1  0  0  0  0  0  0  0  0  0
   -1.0300    9.4329   37.8831 O   0  0  0  0  0  0  0  0  0  0  0  0
   -0.4369   10.9778   35.3750 C   0  0  1  0  0  0  0  0  0  0  0  0
    0.5834   11.9567   34.9855 C   0  0  2  0  0  0  0  0  0  0  0  0
    1.7634   11.6082   35.6357 O   0  0  0  0  0  0  0  0  0  0  0  0
   -0.1266   13.2830   35.3318 C   0  0  2  0  0  0  0  0  0  0  0  0
    0.6841   13.9414   36.3313 O   0  0  0  0  0  0  0  0  0  0  0  0
   -1.4639   12.8762   35.8570 C   0  0  2  0  0  0  0  0  0  0  0  0
   -1.6282   11.6668   35.0334 O   0  0  0  0  0  0  0  0  0  0  0  0
   -2.5762   13.9315   35.5053 C   0  0  0  0  0  0  0  0  0  0  0  0
   -2.8504   14.0389   34.0761 O   0  0  0  0  0  0  0  0  0  0  0  0
    0.4990   15.3809   36.4882 C   0  0  2  0  0  0  0  0  0  0  0  0
    1.6870   15.9520   37.4244 C   0  0  2  0  0  0  0  0  0  0  0  0
    1.6584   15.2426   38.7445 N   0  0  0  0  0  0  0  0  0  0  0  0
    1.4781   17.5373   37.5890 C   0  0  1  0  0  0  0  0  0  0  0  0
    1.5155   18.1210   36.2513 O   0  0  0  0  0  0  0  0  0  0  0  0
    0.0771   17.8170   38.2986 C   0  0  2  0  0  0  0  0  0  0  0  0
    0.1223   17.2097   39.6474 O   0  0  0  0  0  0  0  0  0  0  0  0
   -1.1011   17.1820   37.3656 C   0  0  1  0  0  0  0  0  0  0  0  0
   -0.8482   15.7089   37.1638 O   0  0  0  0  0  0  0  0  0  0  0  0
   -2.4915   17.4232   38.0417 C   0  0  0  0  0  0  0  0  0  0  0  0
   -3.6240   16.8249   37.2693 N   0  0  0  0  0  0  0  0  0  0  0  0
  1  3  1  0  0  0  0
  1  2  1  1  0  0  0
  3  4  1  1  0  0  0
  3  5  1  0  0  0  0
  5  6  1  6  0  0  0
  7  8  1  1  0  0  0
  7  5  1  0  0  0  0
  9 11  1  6  0  0  0
  9  7  1  0  0  0  0
 10  9  1  0  0  0  0
 10  1  1  0  0  0  0
 12 11  1  0  0  0  0
 13 14  1  1  0  0  0
 15 13  1  0  0  0  0
 16 17  1  6  0  0  0
 16 15  1  0  0  0  0
 18  2  1  6  0  0  0
 18 19  1  0  0  0  0
 18 16  1  0  0  0  0
 19 20  1  6  0  0  0
 19 21  1  0  0  0  0
 21 22  1  1  0  0  0
 21 13  1  0  0  0  0
 23 20  1  6  0  0  0
 23 29  1  0  0  0  0
 24 25  1  1  0  0  0
 24 26  1  0  0  0  0
 24 23  1  0  0  0  0
 26 27  1  1  0  0  0
 26 28  1  0  0  0  0
 28 30  1  6  0  0  0
 29 28  1  0  0  0  0
 30 31  1  0  0  0  0
 32 27  1  1  0  0  0
 32 40  1  0  0  0  0
 33 35  1  0  0  0  0
 33 32  1  0  0  0  0
 33 34  1  1  0  0  0
 35 36  1  6  0  0  0
 35 37  1  0  0  0  0
 37 38  1  1  0  0  0
 37 39  1  0  0  0  0
 39 41  1  1  0  0  0
 40 39  1  0  0  0  0
 41 42  1  0  0  0  0
M  END
>  <CHROM.1>
-150.89296055,63.67158586,-58.47288349,171.48475675,171.47736633,159.36049346
66.03090710,-168.84811845,-177.92691297,-1.23517038,11.02249740,34.88446106
2.34879979,1.24804985,2.89777598

>  <Name>
lig.pdb

>  <RI>
0

>  <Rbt.Current_Directory>
/home/itssahil/PROJECTS/Mol_Feturizer/New_Systems/rnas/4wcr

>  <Rbt.Executable>
rbdock ($Id: //depot/dev/client3/rdock/2013.1/src/exe/rbdock.cxx#4 $)

>  <Rbt.Library>
libRbt.so (2013.1, Build901 2013/11/27)

>  <Rbt.Parameter_File>
/export/apps/rDock/src/rDock_2013.1_src/data/scripts/dock_solv.prm

>  <Rbt.Receptor>
prm/pocket_docking_8.prm

>  <SCORE>
-8.98011

>  <SCORE.INTER>
-3.69527

>  <SCORE.INTER.CONST>
1

>  <SCORE.INTER.POLAR>
0

>  <SCORE.INTER.ROT>
9

>  <SCORE.INTER.SOLV>
15.514

>  <SCORE.INTER.VDW>
-17.2349

>  <SCORE.INTER.norm>
-0.0879826

>  <SCORE.INTRA>
-5.28484

>  <SCORE.INTRA.DIHEDRAL>
-8.98896

>  <SCORE.INTRA.DIHEDRAL.0>
16.2863

>  <SCORE.INTRA.POLAR>
0

>  <SCORE.INTRA.POLAR.0>
0

>  <SCORE.INTRA.REPUL>
-0.314433

>  <SCORE.INTRA.REPUL.0>
0.314433

>  <SCORE.INTRA.SOLV>
-2.17824

>  <SCORE.INTRA.SOLV.lig_0>
-103.824

>  <SCORE.INTRA.VDW>
1.87093

>  <SCORE.INTRA.VDW.0>
-5.30945

>  <SCORE.INTRA.norm>
-0.125829

>  <SCORE.RESTR>
0

>  <SCORE.RESTR.CAVITY>
0

>  <SCORE.RESTR.norm>
0

>  <SCORE.SYSTEM>
0

>  <SCORE.SYSTEM.CONST>
0

>  <SCORE.SYSTEM.DIHEDRAL>
0

>  <SCORE.SYSTEM.SOLV>
0

>  <SCORE.SYSTEM.norm>
0

>  <SCORE.heavy>
42

>  <SCORE.norm>
-0.213812

>  <RMSD>
10.127

$$$$
lig.pdb
 OpenBabel11021811513D
libRbt.so/2013.1/901 2013/11/27
 42 45  0  0  0  0  0  0  0  0999 V2000
   -4.2470    7.1903   37.1844 C   0  0  2  0  0  0  0  0  0  0  0  0
   -3.1677    7.9114   36.5118 O   0  0  0  0  0  0  0  0  0  0  0  0
   -4.5060    7.9592   38.5561 C   0  0  2  0  0  0  0  0  0  0  0  0
   -4.9424    9.3336   38.2945 N   0  0  0  0  0  0  0  0  0  0  0  0
   -3.1657    7.9058   39.4396 C   0  0  1  0  0  0  0  0  0  0  0  0
   -3.3474    8.5799   40.7026 O   0  0  0  0  0  0  0  0  0  0  0  0
   -2.8094    6.4223   39.6356 C   0  0  2  0  0  0  0  0  0  0  0  0
   -1.6520    6.3374   40.3952 O   0  0  0  0  0  0  0  0  0  0  0  0
   -2.6121    5.7183   38.2164 C   0  0  2  0  0  0  0  0  0  0  0  0
   -3.8036    5.8012   37.4245 O   0  0  0  0  0  0  0  0  0  0  0  0
   -2.2804    4.2593   38.3520 C   0  0  0  0  0  0  0  0  0  0  0  0
   -2.0291    3.7496   37.0418 O   0  0  0  0  0  0  0  0  0  0  0  0
   -1.5710    7.8579   32.3621 C   0  0  2  0  0  0  0  0  0  0  0  0
   -1.5168    7.8850   30.9166 N   0  0  0  0  0  0  0  0  0  0  0  0
   -2.5417    6.7134   32.8487 C   0  0  0  0  0  0  0  0  0  0  0  0
   -2.6215    6.6657   34.4151 C   0  0  2  0  0  0  0  0  0  0  0  0
   -3.5340    5.5996   34.8233 N   0  0  0  0  0  0  0  0  0  0  0  0
   -3.1284    8.0405   35.0407 C   0  0  2  0  0  0  0  0  0  0  0  0
   -2.1406    9.1524   34.5830 C   0  0  2  0  0  0  0  0  0  0  0  0
   -2.6827   10.4098   35.2217 O   0  0  0  0  0  0  0  0  0  0  0  0
   -2.1135    9.2414   32.9585 C   0  0  1  0  0  0  0  0  0  0  0  0
   -1.1740   10.2201   32.4094 O   0  0  0  0  0  0  0  0  0  0  0  0
   -1.7253   11.3874   35.2912 C   0  0  1  0  0  0  0  0  0  0  0  0
   -2.1214   12.5223   36.1316 C   0  0  2  0  0  0  0  0  0  0  0  0
   -3.0882   13.2392   35.4330 O   0  0  0  0  0  0  0  0  0  0  0  0
   -0.7504   13.1649   36.4324 C   0  0  2  0  0  0  0  0  0  0  0  0
   -0.7904   14.5050   35.8919 O   0  0  0  0  0  0  0  0  0  0  0  0
    0.2422   12.2955   35.7335 C   0  0  2  0  0  0  0  0  0  0  0  0
   -0.4871   11.0247   35.8793 O   0  0  0  0  0  0  0  0  0  0  0  0
    1.6106   12.2315   36.5068 C   0  0  0  0  0  0  0  0  0  0  0  0
    1.5034   11.6457   37.8389 O   0  0  0  0  0  0  0  0  0  0  0  0
    0.3325   15.3806   36.2136 C   0  0  2  0  0  0  0  0  0  0  0  0
    0.4299   15.5205   37.8214 C   0  0  2  0  0  0  0  0  0  0  0  0
   -0.8643   16.0631   38.3481 N   0  0  0  0  0  0  0  0  0  0  0  0
    1.6704   16.4826   38.1671 C   0  0  1  0  0  0  0  0  0  0  0  0
    2.8679   15.8656   37.6043 O   0  0  0  0  0  0  0  0  0  0  0  0
    1.4159   17.9246   37.5344 C   0  0  2  0  0  0  0  0  0  0  0  0
    0.1997   18.4876   38.1621 O   0  0  0  0  0  0  0  0  0  0  0  0
    1.2636   17.7514   35.9192 C   0  0  1  0  0  0  0  0  0  0  0  0
    0.1414   16.7900   35.6170 O   0  0  0  0  0  0  0  0  0  0  0  0
    0.9948   19.1477   35.2660 C   0  0  0  0  0  0  0  0  0  0  0  0
   -0.4061   19.6273   35.4774 N   0  0  0  0  0  0  0  0  0  0  0  0
  1  3  1  0  0  0  0
  1  2  1  1  0  0  0
  3  4  1  6  0  0  0
  3  5  1  0  0  0  0
  5  6  1  1  0  0  0
  7  8  1  1  0  0  0
  7  5  1  0  0  0  0
  9 11  1  1  0  0  0
  9  7  1  0  0  0  0
 10  9  1  0  0  0  0
 10  1  1  0  0  0  0
 12 11  1  0  0  0  0
 13 14  1  6  0  0  0
 15 13  1  0  0  0  0
 16 17  1  6  0  0  0
 16 15  1  0  0  0  0
 18  2  1  1  0  0  0
 18 19  1  0  0  0  0
 18 16  1  0  0  0  0
 19 20  1  1  0  0  0
 19 21  1  0  0  0  0
 21 22  1  1  0  0  0
 21 13  1  0  0  0  0
 23 20  1  1  0  0  0
 23 29  1  0  0  0  0
 24 25  1  6  0  0  0
 24 26  1  0  0  0  0
 24 23  1  0  0  0  0
 26 27  1  6  0  0  0
 26 28  1  0  0  0  0
 28 30  1  1  0  0  0
 29 28  1  0  0  0  0
 30 31  1  0  0  0  0
 32 27  1  1  0  0  0
 32 40  1  0  0  0  0
 33 35  1  0  0  0  0
 33 32  1  0  0  0  0
 33 34  1  6  0  0  0
 35 36  1  6  0  0  0
 35 37  1  0  0  0  0
 37 38  1  1  0  0  0
 37 39  1  0  0  0  0
 39 41  1  6  0  0  0
 40 39  1  0  0  0  0
 41 42  1  0  0  0  0
M  END
>  <CHROM.1>
-145.33909866,-175.84095325,-77.19713388,160.21734308,-168.74345048,171.83863115
62.58068414,-58.90478230,-75.57637080,-1.39849878,11.04966628,36.41701801
3.04516723,-1.24338670,-1.67678671

>  <Name>
lig.pdb

>  <RI>
0

>  <Rbt.Current_Directory>
/home/itssahil/PROJECTS/Mol_Feturizer/New_Systems/rnas/4wcr

>  <Rbt.Executable>
rbdock ($Id: //depot/dev/client3/rdock/2013.1/src/exe/rbdock.cxx#4 $)

>  <Rbt.Library>
libRbt.so (2013.1, Build901 2013/11/27)

>  <Rbt.Parameter_File>
/export/apps/rDock/src/rDock_2013.1_src/data/scripts/dock_solv.prm

>  <Rbt.Receptor>
prm/pocket_docking_4.prm

>  <SCORE>
-9.69347

>  <SCORE.INTER>
-5.7903

>  <SCORE.INTER.CONST>
1

>  <SCORE.INTER.POLAR>
0

>  <SCORE.INTER.ROT>
9

>  <SCORE.INTER.SOLV>
17.5848

>  <SCORE.INTER.VDW>
-19.3218

>  <SCORE.INTER.norm>
-0.137864

>  <SCORE.INTRA>
-3.91302

>  <SCORE.INTRA.DIHEDRAL>
-6.30975

>  <SCORE.INTRA.DIHEDRAL.0>
16.2863

>  <SCORE.INTRA.POLAR>
0

>  <SCORE.INTRA.POLAR.0>
0

>  <SCORE.INTRA.REPUL>
-0.302558

>  <SCORE.INTRA.REPUL.0>
0.314433

>  <SCORE.INTRA.SOLV>
-0.363402

>  <SCORE.INTRA.SOLV.lig_0>
-103.824

>  <SCORE.INTRA.VDW>
0.936346

>  <SCORE.INTRA.VDW.0>
-5.30945

>  <SCORE.INTRA.norm>
-0.0931672

>  <SCORE.RESTR>
0.00985577

>  <SCORE.RESTR.CAVITY>
0.00985577

>  <SCORE.RESTR.norm>
0.000234661

>  <SCORE.SYSTEM>
0

>  <SCORE.SYSTEM.CONST>
0

>  <SCORE.SYSTEM.DIHEDRAL>
0

>  <SCORE.SYSTEM.SOLV>
0

>  <SCORE.SYSTEM.norm>
0

>  <SCORE.heavy>
42

>  <SCORE.norm>
-0.230797

>  <RMSD>
10.155

$$$$
lig.pdb
 OpenBabel11021811513D
libRbt.so/2013.1/901 2013/11/27
 42 45  0  0  0  0  0  0  0  0999 V2000
   -6.9350   11.5172   36.3913 C   0  0  2  0  0  0  0  0  0  0  0  0
   -5.5933   11.9392   35.9927 O   0  0  0  0  0  0  0  0  0  0  0  0
   -7.3537   12.4606   37.6057 C   0  0  2  0  0  0  0  0  0  0  0  0
   -7.4042   13.8588   37.1698 N   0  0  0  0  0  0  0  0  0  0  0  0
   -6.3185   12.2384   38.8134 C   0  0  1  0  0  0  0  0  0  0  0  0
   -6.6577   13.0628   39.9483 O   0  0  0  0  0  0  0  0  0  0  0  0
   -6.3509   10.7425   39.1704 C   0  0  2  0  0  0  0  0  0  0  0  0
   -5.4645   10.5125   40.2121 O   0  0  0  0  0  0  0  0  0  0  0  0
   -5.9647    9.8696   37.8908 C   0  0  2  0  0  0  0  0  0  0  0  0
   -6.8758   10.1009   36.8091 O   0  0  0  0  0  0  0  0  0  0  0  0
   -6.0001    8.3961   38.1819 C   0  0  0  0  0  0  0  0  0  0  0  0
   -5.4098    7.7215   37.0700 O   0  0  0  0  0  0  0  0  0  0  0  0
   -3.1289   10.8207   32.4645 C   0  0  2  0  0  0  0  0  0  0  0  0
   -2.7083   10.6358   31.0927 N   0  0  0  0  0  0  0  0  0  0  0  0
   -4.5247   10.1257   32.7040 C   0  0  0  0  0  0  0  0  0  0  0  0
   -5.0059   10.3158   34.1855 C   0  0  2  0  0  0  0  0  0  0  0  0
   -6.3024    9.6651   34.3630 N   0  0  0  0  0  0  0  0  0  0  0  0
   -5.1445   11.8511   34.5880 C   0  0  2  0  0  0  0  0  0  0  0  0
   -3.7517   12.5139   34.3823 C   0  0  2  0  0  0  0  0  0  0  0  0
   -3.9661   13.9522   34.7922 O   0  0  0  0  0  0  0  0  0  0  0  0
   -3.2894   12.3718   32.8287 C   0  0  1  0  0  0  0  0  0  0  0  0
   -1.9634   12.9131   32.5271 O   0  0  0  0  0  0  0  0  0  0  0  0
   -2.7898   14.6547   34.7840 C   0  0  1  0  0  0  0  0  0  0  0  0
   -2.9859   16.1066   34.8518 C   0  0  2  0  0  0  0  0  0  0  0  0
   -3.4726   16.5184   33.6148 O   0  0  0  0  0  0  0  0  0  0  0  0
   -1.5943   16.5746   35.3290 C   0  0  2  0  0  0  0  0  0  0  0  0
   -1.0686   17.4393   34.2967 O   0  0  0  0  0  0  0  0  0  0  0  0
   -0.8000   15.3197   35.4836 C   0  0  2  0  0  0  0  0  0  0  0  0
   -1.9136   14.4410   35.8782 O   0  0  0  0  0  0  0  0  0  0  0  0
    0.2479   15.4310   36.6516 C   0  0  0  0  0  0  0  0  0  0  0  0
    1.1394   16.5798   36.5308 O   0  0  0  0  0  0  0  0  0  0  0  0
   -1.1789   18.8776   34.5207 C   0  0  2  0  0  0  0  0  0  0  0  0
   -2.6977   19.3315   34.2022 C   0  0  2  0  0  0  0  0  0  0  0  0
   -3.0360   18.9632   32.7892 N   0  0  0  0  0  0  0  0  0  0  0  0
   -2.8115   20.9149   34.4547 C   0  0  1  0  0  0  0  0  0  0  0  0
   -2.4553   21.1585   35.8495 O   0  0  0  0  0  0  0  0  0  0  0  0
   -1.8218   21.6823   33.4668 C   0  0  2  0  0  0  0  0  0  0  0  0
   -2.2542   21.3986   32.0802 O   0  0  0  0  0  0  0  0  0  0  0  0
   -0.3032   21.1664   33.7667 C   0  0  1  0  0  0  0  0  0  0  0  0
   -0.2339   19.6697   33.5941 O   0  0  0  0  0  0  0  0  0  0  0  0
    0.6949   21.8874   32.8010 C   0  0  0  0  0  0  0  0  0  0  0  0
    0.8456   23.3444   33.1042 N   0  0  0  0  0  0  0  0  0  0  0  0
  1  3  1  0  0  0  0
  1  2  1  1  0  0  0
  3  4  1  6  0  0  0
  3  5  1  0  0  0  0
  5  6  1  1  0  0  0
  7  8  1  1  0  0  0
  7  5  1  0  0  0  0
  9 11  1  1  0  0  0
  9  7  1  0  0  0  0
 10  9  1  0  0  0  0
 10  1  1  0  0  0  0
 12 11  1  0  0  0  0
 13 14  1  6  0  0  0
 15 13  1  0  0  0  0
 16 17  1  6  0  0  0
 16 15  1  0  0  0  0
 18  2  1  1  0  0  0
 18 19  1  0  0  0  0
 18 16  1  0  0  0  0
 19 20  1  6  0  0  0
 19 21  1  0  0  0  0
 21 22  1  1  0  0  0
 21 13  1  0  0  0  0
 23 20  1  1  0  0  0
 23 29  1  0  0  0  0
 24 25  1  6  0  0  0
 24 26  1  0  0  0  0
 24 23  1  0  0  0  0
 26 27  1  6  0  0  0
 26 28  1  0  0  0  0
 28 30  1  1  0  0  0
 29 28  1  0  0  0  0
 30 31  1  0  0  0  0
 32 27  1  6  0  0  0
 32 40  1  0  0  0  0
 33 35  1  0  0  0  0
 33 32  1  0  0  0  0
 33 34  1  6  0  0  0
 35 36  1  1  0  0  0
 35 37  1  0  0  0  0
 37 38  1  6  0  0  0
 37 39  1  0  0  0  0
 39 41  1  6  0  0  0
 40 39  1  0  0  0  0
 41 42  1  0  0  0  0
M  END
>  <CHROM.1>
-147.92331868,-169.51601631,-68.32727831,174.47648996,165.94732984,99.94620017
-54.44703704,-77.94688893,69.32180576,-3.42812551,14.74377645,35.19333968
2.49549256,-1.01101643,-2.58702933

>  <Name>
lig.pdb

>  <RI>
0

>  <Rbt.Current_Directory>
/home/itssahil/PROJECTS/Mol_Feturizer/New_Systems/rnas/4wcr

>  <Rbt.Executable>
rbdock ($Id: //depot/dev/client3/rdock/2013.1/src/exe/rbdock.cxx#4 $)

>  <Rbt.Library>
libRbt.so (2013.1, Build901 2013/11/27)

>  <Rbt.Parameter_File>
/export/apps/rDock/src/rDock_2013.1_src/data/scripts/dock_solv.prm

>  <Rbt.Receptor>
prm/pocket_docking_6.prm

>  <SCORE>
-8.98391

>  <SCORE.INTER>
-7.22401

>  <SCORE.INTER.CONST>
1

>  <SCORE.INTER.POLAR>
0

>  <SCORE.INTER.ROT>
9

>  <SCORE.INTER.SOLV>
23.058

>  <SCORE.INTER.VDW>
-22.102

>  <SCORE.INTER.norm>
-0.172

>  <SCORE.INTRA>
-1.7599

>  <SCORE.INTRA.DIHEDRAL>
-2.84649

>  <SCORE.INTRA.DIHEDRAL.0>
16.2863

>  <SCORE.INTRA.POLAR>
0

>  <SCORE.INTRA.POLAR.0>
0

>  <SCORE.INTRA.REPUL>
-0.314433

>  <SCORE.INTRA.REPUL.0>
0.314433

>  <SCORE.INTRA.SOLV>
-0.517922

>  <SCORE.INTRA.SOLV.lig_0>
-103.824

>  <SCORE.INTRA.VDW>
1.49447

>  <SCORE.INTRA.VDW.0>
-5.30945

>  <SCORE.INTRA.norm>
-0.0419024

>  <SCORE.RESTR>
0

>  <SCORE.RESTR.CAVITY>
0

>  <SCORE.RESTR.norm>
0

>  <SCORE.SYSTEM>
0

>  <SCORE.SYSTEM.CONST>
0

>  <SCORE.SYSTEM.DIHEDRAL>
0

>  <SCORE.SYSTEM.SOLV>
0

>  <SCORE.SYSTEM.norm>
0

>  <SCORE.heavy>
42

>  <SCORE.norm>
-0.213903

>  <RMSD>
10.157

$$$$
lig.pdb
 OpenBabel11021811513D
libRbt.so/2013.1/901 2013/11/27
 42 45  0  0  0  0  0  0  0  0999 V2000
   -0.7981    4.5698   36.4362 C   0  0  2  0  0  0  0  0  0  0  0  0
   -0.9101    5.8642   35.7661 O   0  0  0  0  0  0  0  0  0  0  0  0
   -1.7745    4.6360   37.6940 C   0  0  2  0  0  0  0  0  0  0  0  0
   -3.1593    4.8259   37.2537 N   0  0  0  0  0  0  0  0  0  0  0  0
   -1.2812    5.8126   38.6698 C   0  0  1  0  0  0  0  0  0  0  0  0
   -2.1260    5.9108   39.8357 O   0  0  0  0  0  0  0  0  0  0  0  0
    0.1770    5.5052   39.0514 C   0  0  2  0  0  0  0  0  0  0  0  0
    0.6382    6.5049   39.8949 O   0  0  0  0  0  0  0  0  0  0  0  0
    1.0753    5.4112   37.7351 C   0  0  2  0  0  0  0  0  0  0  0  0
    0.6057    4.3804   36.8573 O   0  0  0  0  0  0  0  0  0  0  0  0
    2.5089    5.0930   38.0524 C   0  0  0  0  0  0  0  0  0  0  0  0
    3.0491    6.2026   38.7710 O   0  0  0  0  0  0  0  0  0  0  0  0
   -3.5321    7.3523   32.4975 C   0  0  2  0  0  0  0  0  0  0  0  0
   -4.7173    7.6578   31.7262 N   0  0  0  0  0  0  0  0  0  0  0  0
   -3.4796    5.8103   32.8265 C   0  0  0  0  0  0  0  0  0  0  0  0
   -2.2038    5.4532   33.6676 C   0  0  2  0  0  0  0  0  0  0  0  0
   -2.1970    4.0206   33.9564 N   0  0  0  0  0  0  0  0  0  0  0  0
   -2.1388    6.2530   35.0439 C   0  0  2  0  0  0  0  0  0  0  0  0
   -2.1536    7.7710   34.7014 C   0  0  2  0  0  0  0  0  0  0  0  0
   -2.0800    8.4513   36.0484 O   0  0  0  0  0  0  0  0  0  0  0  0
   -3.5116    8.1468   33.8877 C   0  0  1  0  0  0  0  0  0  0  0  0
   -3.6099    9.5438   33.4625 O   0  0  0  0  0  0  0  0  0  0  0  0
   -1.9147    9.8050   35.9159 C   0  0  1  0  0  0  0  0  0  0  0  0
   -1.7693   10.4957   37.2016 C   0  0  2  0  0  0  0  0  0  0  0  0
   -3.0201   10.5062   37.8116 O   0  0  0  0  0  0  0  0  0  0  0  0
   -1.1157   11.8216   36.7568 C   0  0  2  0  0  0  0  0  0  0  0  0
   -2.0245   12.8811   37.1324 O   0  0  0  0  0  0  0  0  0  0  0  0
   -0.9633   11.6963   35.2766 C   0  0  2  0  0  0  0  0  0  0  0  0
   -0.7506   10.2401   35.2332 O   0  0  0  0  0  0  0  0  0  0  0  0
    0.3145   12.4505   34.7543 C   0  0  0  0  0  0  0  0  0  0  0  0
    1.5623   11.9514   35.3228 O   0  0  0  0  0  0  0  0  0  0  0  0
   -1.6499   14.2391   36.7494 C   0  0  2  0  0  0  0  0  0  0  0  0
   -2.0005   15.2332   37.9754 C   0  0  2  0  0  0  0  0  0  0  0  0
   -3.4621   15.1298   38.2911 N   0  0  0  0  0  0  0  0  0  0  0  0
   -1.5818   16.7249   37.5472 C   0  0  1  0  0  0  0  0  0  0  0  0
   -0.1510   16.7075   37.2571 O   0  0  0  0  0  0  0  0  0  0  0  0
   -2.4225   17.1646   36.2649 C   0  0  2  0  0  0  0  0  0  0  0  0
   -3.8538   17.1714   36.6410 O   0  0  0  0  0  0  0  0  0  0  0  0
   -2.0972   16.1146   35.0593 C   0  0  1  0  0  0  0  0  0  0  0  0
   -2.4295   14.7128   35.5056 O   0  0  0  0  0  0  0  0  0  0  0  0
   -2.9205   16.5063   33.7875 C   0  0  0  0  0  0  0  0  0  0  0  0
   -2.8008   15.5011   32.6864 N   0  0  0  0  0  0  0  0  0  0  0  0
  1  3  1  0  0  0  0
  1  2  1  1  0  0  0
  3  4  1  6  0  0  0
  3  5  1  0  0  0  0
  5  6  1  1  0  0  0
  7  8  1  1  0  0  0
  7  5  1  0  0  0  0
  9 11  1  1  0  0  0
  9  7  1  0  0  0  0
 10  9  1  0  0  0  0
 10  1  1  0  0  0  0
 12 11  1  0  0  0  0
 13 14  1  1  0  0  0
 15 13  1  0  0  0  0
 16 17  1  1  0  0  0
 16 15  1  0  0  0  0
 18  2  1  6  0  0  0
 18 19  1  0  0  0  0
 18 16  1  0  0  0  0
 19 20  1  1  0  0  0
 19 21  1  0  0  0  0
 21 22  1  6  0  0  0
 21 13  1  0  0  0  0
 23 20  1  1  0  0  0
 23 29  1  0  0  0  0
 24 25  1  6  0  0  0
 24 26  1  0  0  0  0
 24 23  1  0  0  0  0
 26 27  1  6  0  0  0
 26 28  1  0  0  0  0
 28 30  1  1  0  0  0
 29 28  1  0  0  0  0
 30 31  1  0  0  0  0
 32 27  1  1  0  0  0
 32 40  1  0  0  0  0
 33 35  1  0  0  0  0
 33 32  1  0  0  0  0
 33 34  1  6  0  0  0
 35 36  1  6  0  0  0
 35 37  1  0  0  0  0
 37 38  1  1  0  0  0
 37 39  1  0  0  0  0
 39 41  1  6  0  0  0
 40 39  1  0  0  0  0
 41 42  1  0  0  0  0
M  END
>  <CHROM.1>
-70.06716427,-65.85516512,-74.61961903,172.39137662,-177.03842519,-176.95171732
60.44410563,-139.22083227,-173.32375587,-1.56105395,9.83084803,36.14885071
-1.35360633,-0.96289533,0.11641525

>  <Name>
lig.pdb

>  <RI>
0

>  <Rbt.Current_Directory>
/home/itssahil/PROJECTS/Mol_Feturizer/New_Systems/rnas/4wcr

>  <Rbt.Executable>
rbdock ($Id: //depot/dev/client3/rdock/2013.1/src/exe/rbdock.cxx#4 $)

>  <Rbt.Library>
libRbt.so (2013.1, Build901 2013/11/27)

>  <Rbt.Parameter_File>
/export/apps/rDock/src/rDock_2013.1_src/data/scripts/dock_solv.prm

>  <Rbt.Receptor>
prm/pocket_docking_5.prm

>  <SCORE>
-0.161007

>  <SCORE.INTER>
4.8114

>  <SCORE.INTER.CONST>
1

>  <SCORE.INTER.POLAR>
0

>  <SCORE.INTER.ROT>
9

>  <SCORE.INTER.SOLV>
14.3142

>  <SCORE.INTER.VDW>
-11.1638

>  <SCORE.INTER.norm>
0.114557

>  <SCORE.INTRA>
-4.97241

>  <SCORE.INTRA.DIHEDRAL>
-8.07977

>  <SCORE.INTRA.DIHEDRAL.0>
16.2863

>  <SCORE.INTRA.POLAR>
0

>  <SCORE.INTRA.POLAR.0>
0

>  <SCORE.INTRA.REPUL>
-0.314433

>  <SCORE.INTRA.REPUL.0>
0.314433

>  <SCORE.INTRA.SOLV>
-1.8939

>  <SCORE.INTRA.SOLV.lig_0>
-103.824

>  <SCORE.INTRA.VDW>
1.58659

>  <SCORE.INTRA.VDW.0>
-5.30945

>  <SCORE.INTRA.norm>
-0.118391

>  <SCORE.RESTR>
0

>  <SCORE.RESTR.CAVITY>
0

>  <SCORE.RESTR.norm>
0

>  <SCORE.SYSTEM>
0

>  <SCORE.SYSTEM.CONST>
0

>  <SCORE.SYSTEM.DIHEDRAL>
0

>  <SCORE.SYSTEM.SOLV>
0

>  <SCORE.SYSTEM.norm>
0

>  <SCORE.heavy>
42

>  <SCORE.norm>
-0.00383351

>  <RMSD>
10.171

$$$$
lig.pdb
 OpenBabel11021811513D
libRbt.so/2013.1/901 2013/11/27
 42 45  0  0  0  0  0  0  0  0999 V2000
   -2.0253   15.1515   35.0208 C   0  0  2  0  0  0  0  0  0  0  0  0
   -2.3769   16.0585   33.9295 O   0  0  0  0  0  0  0  0  0  0  0  0
   -3.0950   15.4098   36.1736 C   0  0  2  0  0  0  0  0  0  0  0  0
   -4.4429   15.0841   35.6994 N   0  0  0  0  0  0  0  0  0  0  0  0
   -2.9745   16.9365   36.6579 C   0  0  1  0  0  0  0  0  0  0  0  0
   -3.9161   17.2240   37.7130 O   0  0  0  0  0  0  0  0  0  0  0  0
   -1.5232   17.1536   37.1195 C   0  0  2  0  0  0  0  0  0  0  0  0
   -1.3812   18.4662   37.5443 O   0  0  0  0  0  0  0  0  0  0  0  0
   -0.5177   16.8304   35.9224 C   0  0  2  0  0  0  0  0  0  0  0  0
   -0.6576   15.4756   35.4769 O   0  0  0  0  0  0  0  0  0  0  0  0
    0.9178   17.0091   36.3280 C   0  0  0  0  0  0  0  0  0  0  0  0
    1.1700   16.1292   37.4243 O   0  0  0  0  0  0  0  0  0  0  0  0
   -5.2451   16.0006   30.5321 C   0  0  2  0  0  0  0  0  0  0  0  0
   -6.4522   15.7854   29.7642 N   0  0  0  0  0  0  0  0  0  0  0  0
   -4.7652   14.6458   31.1826 C   0  0  0  0  0  0  0  0  0  0  0  0
   -3.4581   14.8534   32.0256 C   0  0  2  0  0  0  0  0  0  0  0  0
   -3.0523   13.5793   32.6153 N   0  0  0  0  0  0  0  0  0  0  0  0
   -3.6503   15.9197   33.1937 C   0  0  2  0  0  0  0  0  0  0  0  0
   -4.0868   17.2597   32.5336 C   0  0  2  0  0  0  0  0  0  0  0  0
   -4.2363   18.2104   33.6983 O   0  0  0  0  0  0  0  0  0  0  0  0
   -5.4786   17.0525   31.7166 C   0  0  1  0  0  0  0  0  0  0  0  0
   -5.9594   18.2379   31.0054 O   0  0  0  0  0  0  0  0  0  0  0  0
   -3.6654   19.4260   33.4272 C   0  0  1  0  0  0  0  0  0  0  0  0
   -2.2117   19.4356   33.6221 C   0  0  2  0  0  0  0  0  0  0  0  0
   -1.9761   19.4059   34.9933 O   0  0  0  0  0  0  0  0  0  0  0  0
   -1.8071   20.6750   32.7955 C   0  0  2  0  0  0  0  0  0  0  0  0
   -1.1917   21.6061   33.7141 O   0  0  0  0  0  0  0  0  0  0  0  0
   -3.0878   21.1925   32.2284 C   0  0  2  0  0  0  0  0  0  0  0  0
   -3.7702   19.8949   32.0931 O   0  0  0  0  0  0  0  0  0  0  0  0
   -2.8784   21.8493   30.8145 C   0  0  0  0  0  0  0  0  0  0  0  0
   -1.7675   22.7942   30.7666 O   0  0  0  0  0  0  0  0  0  0  0  0
    0.0489   21.1796   34.3544 C   0  0  2  0  0  0  0  0  0  0  0  0
    0.3379   22.1528   35.6127 C   0  0  2  0  0  0  0  0  0  0  0  0
    0.4217   23.5697   35.1309 N   0  0  0  0  0  0  0  0  0  0  0  0
    1.7029   21.6743   36.3140 C   0  0  1  0  0  0  0  0  0  0  0  0
    1.5124   20.2891   36.7340 O   0  0  0  0  0  0  0  0  0  0  0  0
    2.9057   21.7988   35.2738 C   0  0  2  0  0  0  0  0  0  0  0  0
    3.0442   23.2263   34.9086 O   0  0  0  0  0  0  0  0  0  0  0  0
    2.5656   20.8540   33.9879 C   0  0  1  0  0  0  0  0  0  0  0  0
    1.2469   21.2723   33.3872 O   0  0  0  0  0  0  0  0  0  0  0  0
    3.7193   20.9655   32.9366 C   0  0  0  0  0  0  0  0  0  0  0  0
    3.3555   20.3757   31.6111 N   0  0  0  0  0  0  0  0  0  0  0  0
  1  3  1  0  0  0  0
  1  2  1  6  0  0  0
  3  4  1  6  0  0  0
  3  5  1  0  0  0  0
  5  6  1  1  0  0  0
  7  8  1  6  0  0  0
  7  5  1  0  0  0  0
  9 11  1  1  0  0  0
  9  7  1  0  0  0  0
 10  9  1  0  0  0  0
 10  1  1  0  0  0  0
 12 11  1  0  0  0  0
 13 14  1  1  0  0  0
 15 13  1  0  0  0  0
 16 17  1  1  0  0  0
 16 15  1  0  0  0  0
 18  2  1  6  0  0  0
 18 19  1  0  0  0  0
 18 16  1  0  0  0  0
 19 20  1  1  0  0  0
 19 21  1  0  0  0  0
 21 22  1  6  0  0  0
 21 13  1  0  0  0  0
 23 20  1  6  0  0  0
 23 29  1  0  0  0  0
 24 25  1  1  0  0  0
 24 26  1  0  0  0  0
 24 23  1  0  0  0  0
 26 27  1  1  0  0  0
 26 28  1  0  0  0  0
 28 30  1  6  0  0  0
 29 28  1  0  0  0  0
 30 31  1  0  0  0  0
 32 27  1  6  0  0  0
 32 40  1  0  0  0  0
 33 35  1  0  0  0  0
 33 32  1  0  0  0  0
 33 34  1  6  0  0  0
 35 36  1  6  0  0  0
 35 37  1  0  0  0  0
 37 38  1  6  0  0  0
 37 39  1  0  0  0  0
 39 41  1  6  0  0  0
 40 39  1  0  0  0  0
 41 42  1  0  0  0  0
M  END
>  <CHROM.1>
-64.89866579,59.13571196,-85.32759429,135.34280087,-80.95694634,63.79233043
-48.33381266,-164.46605243,-167.42133233,-1.61989571,18.65171306,34.01993256
-2.76482448,-0.69063721,-0.69411922

>  <Name>
lig.pdb

>  <RI>
0

>  <Rbt.Current_Directory>
/home/itssahil/PROJECTS/Mol_Feturizer/New_Systems/rnas/4wcr

>  <Rbt.Executable>
rbdock ($Id: //depot/dev/client3/rdock/2013.1/src/exe/rbdock.cxx#4 $)

>  <Rbt.Library>
libRbt.so (2013.1, Build901 2013/11/27)

>  <Rbt.Parameter_File>
/export/apps/rDock/src/rDock_2013.1_src/data/scripts/dock_solv.prm

>  <Rbt.Receptor>
prm/blind_docking_100.prm

>  <SCORE>
-1.10884

>  <SCORE.INTER>
-6.16574

>  <SCORE.INTER.CONST>
1

>  <SCORE.INTER.POLAR>
0

>  <SCORE.INTER.ROT>
9

>  <SCORE.INTER.SOLV>
35.8578

>  <SCORE.INTER.VDW>
-25.6631

>  <SCORE.INTER.norm>
-0.146803

>  <SCORE.INTRA>
-2.68535

>  <SCORE.INTRA.DIHEDRAL>
-2.75219

>  <SCORE.INTRA.DIHEDRAL.0>
16.2863

>  <SCORE.INTRA.POLAR>
0

>  <SCORE.INTRA.POLAR.0>
0

>  <SCORE.INTRA.REPUL>
-0.310498

>  <SCORE.INTRA.REPUL.0>
0.314433

>  <SCORE.INTRA.SOLV>
0.0078248

>  <SCORE.INTRA.SOLV.lig_0>
-103.824

>  <SCORE.INTRA.VDW>
0.239324

>  <SCORE.INTRA.VDW.0>
-5.30945

>  <SCORE.INTRA.norm>
-0.0639369

>  <SCORE.RESTR>
7.74225

>  <SCORE.RESTR.CAVITY>
7.74225

>  <SCORE.RESTR.norm>
0.184339

>  <SCORE.SYSTEM>
0

>  <SCORE.SYSTEM.CONST>
0

>  <SCORE.SYSTEM.DIHEDRAL>
0

>  <SCORE.SYSTEM.SOLV>
0

>  <SCORE.SYSTEM.norm>
0

>  <SCORE.heavy>
42

>  <SCORE.norm>
-0.026401

>  <RMSD>
10.199

$$$$
lig.pdb
 OpenBabel11021811513D
libRbt.so/2013.1/901 2013/11/27
 42 45  0  0  0  0  0  0  0  0999 V2000
   -2.8693   13.1063   35.0142 C   0  0  2  0  0  0  0  0  0  0  0  0
   -2.7642   13.7800   33.7211 O   0  0  0  0  0  0  0  0  0  0  0  0
   -1.9202   13.9099   36.0109 C   0  0  2  0  0  0  0  0  0  0  0  0
   -2.3866   15.2917   36.1547 N   0  0  0  0  0  0  0  0  0  0  0  0
   -0.4121   13.8323   35.4637 C   0  0  1  0  0  0  0  0  0  0  0  0
    0.4956   14.5364   36.3371 O   0  0  0  0  0  0  0  0  0  0  0  0
   -0.0464   12.3424   35.3491 C   0  0  2  0  0  0  0  0  0  0  0  0
    1.2531   12.2366   34.8761 O   0  0  0  0  0  0  0  0  0  0  0  0
   -1.0702   11.6048   34.3714 C   0  0  2  0  0  0  0  0  0  0  0  0
   -2.4160   11.7091   34.8526 O   0  0  0  0  0  0  0  0  0  0  0  0
   -0.7676   10.1392   34.2396 C   0  0  0  0  0  0  0  0  0  0  0  0
    0.4840   10.0154   33.5628 O   0  0  0  0  0  0  0  0  0  0  0  0
   -4.7007   13.6110   29.7218 C   0  0  2  0  0  0  0  0  0  0  0  0
   -5.6928   13.4014   28.6900 N   0  0  0  0  0  0  0  0  0  0  0  0
   -4.4940   12.2873   30.5548 C   0  0  0  0  0  0  0  0  0  0  0  0
   -3.4243   12.4899   31.6849 C   0  0  2  0  0  0  0  0  0  0  0  0
   -3.2683   11.2457   32.4355 N   0  0  0  0  0  0  0  0  0  0  0  0
   -3.8228   13.6526   32.6987 C   0  0  2  0  0  0  0  0  0  0  0  0
   -3.9864   14.9584   31.8682 C   0  0  2  0  0  0  0  0  0  0  0  0
   -4.3511   16.0034   32.8967 O   0  0  0  0  0  0  0  0  0  0  0  0
   -5.1443   14.7628   30.7420 C   0  0  1  0  0  0  0  0  0  0  0  0
   -5.3490   15.9133   29.8607 O   0  0  0  0  0  0  0  0  0  0  0  0
   -3.3767   16.9608   33.0032 C   0  0  1  0  0  0  0  0  0  0  0  0
   -3.9012   18.2756   33.3873 C   0  0  2  0  0  0  0  0  0  0  0  0
   -4.5708   18.7946   32.2832 O   0  0  0  0  0  0  0  0  0  0  0  0
   -2.6235   18.9662   33.9106 C   0  0  2  0  0  0  0  0  0  0  0  0
   -2.4015   20.1228   33.0725 O   0  0  0  0  0  0  0  0  0  0  0  0
   -1.5474   17.9408   33.7676 C   0  0  2  0  0  0  0  0  0  0  0  0
   -2.3880   16.7542   33.9984 O   0  0  0  0  0  0  0  0  0  0  0  0
   -0.4625   18.0698   34.8993 C   0  0  0  0  0  0  0  0  0  0  0  0
   -0.9941   17.8788   36.2446 O   0  0  0  0  0  0  0  0  0  0  0  0
   -1.4824   21.1380   33.5781 C   0  0  2  0  0  0  0  0  0  0  0  0
   -1.5109   22.4030   32.5715 C   0  0  2  0  0  0  0  0  0  0  0  0
   -1.1298   21.9465   31.1956 N   0  0  0  0  0  0  0  0  0  0  0  0
   -0.4996   23.5171   33.1372 C   0  0  1  0  0  0  0  0  0  0  0  0
   -0.9580   23.8799   34.4750 O   0  0  0  0  0  0  0  0  0  0  0  0
    0.9787   22.9194   33.1791 C   0  0  2  0  0  0  0  0  0  0  0  0
    1.3751   22.5908   31.7916 O   0  0  0  0  0  0  0  0  0  0  0  0
    0.9708   21.6113   34.1541 C   0  0  1  0  0  0  0  0  0  0  0  0
   -0.0354   20.6085   33.6474 O   0  0  0  0  0  0  0  0  0  0  0  0
    2.4050   20.9876   34.2050 C   0  0  0  0  0  0  0  0  0  0  0  0
    3.4135   21.9012   34.8258 N   0  0  0  0  0  0  0  0  0  0  0  0
  1  3  1  0  0  0  0
  1  2  1  6  0  0  0
  3  4  1  6  0  0  0
  3  5  1  0  0  0  0
  5  6  1  1  0  0  0
  7  8  1  6  0  0  0
  7  5  1  0  0  0  0
  9 11  1  1  0  0  0
  9  7  1  0  0  0  0
 10  9  1  0  0  0  0
 10  1  1  0  0  0  0
 12 11  1  0  0  0  0
 13 14  1  6  0  0  0
 15 13  1  0  0  0  0
 16 17  1  1  0  0  0
 16 15  1  0  0  0  0
 18  2  1  1  0  0  0
 18 19  1  0  0  0  0
 18 16  1  0  0  0  0
 19 20  1  1  0  0  0
 19 21  1  0  0  0  0
 21 22  1  6  0  0  0
 21 13  1  0  0  0  0
 23 20  1  1  0  0  0
 23 29  1  0  0  0  0
 24 25  1  6  0  0  0
 24 26  1  0  0  0  0
 24 23  1  0  0  0  0
 26 27  1  6  0  0  0
 26 28  1  0  0  0  0
 28 30  1  1  0  0  0
 29 28  1  0  0  0  0
 30 31  1  0  0  0  0
 32 27  1  6  0  0  0
 32 40  1  0  0  0  0
 33 35  1  0  0  0  0
 33 32  1  0  0  0  0
 33 34  1  6  0  0  0
 35 36  1  1  0  0  0
 35 37  1  0  0  0  0
 37 38  1  6  0  0  0
 37 39  1  0  0  0  0
 39 41  1  6  0  0  0
 40 39  1  0  0  0  0
 41 42  1  0  0  0  0
M  END
>  <CHROM.1>
-157.63809591,-66.98995921,-95.37783844,114.98998217,149.96966910,163.58018212
61.15544739,-173.75148552,64.43670229,-1.77616535,16.62464336,33.40645655
-1.89754887,-0.68271334,-0.17308118

>  <Name>
lig.pdb

>  <RI>
0

>  <Rbt.Current_Directory>
/home/itssahil/PROJECTS/Mol_Feturizer/New_Systems/rnas/4wcr

>  <Rbt.Executable>
rbdock ($Id: //depot/dev/client3/rdock/2013.1/src/exe/rbdock.cxx#4 $)

>  <Rbt.Library>
libRbt.so (2013.1, Build901 2013/11/27)

>  <Rbt.Parameter_File>
/export/apps/rDock/src/rDock_2013.1_src/data/scripts/dock_solv.prm

>  <Rbt.Receptor>
prm/pocket_docking_7.prm

>  <SCORE>
-6.31555

>  <SCORE.INTER>
-7.77771

>  <SCORE.INTER.CONST>
1

>  <SCORE.INTER.POLAR>
0

>  <SCORE.INTER.ROT>
9

>  <SCORE.INTER.SOLV>
21.7474

>  <SCORE.INTER.VDW>
-22.0343

>  <SCORE.INTER.norm>
-0.185184

>  <SCORE.INTRA>
1.46216

>  <SCORE.INTRA.DIHEDRAL>
3.34546

>  <SCORE.INTRA.DIHEDRAL.0>
16.2863

>  <SCORE.INTRA.POLAR>
0

>  <SCORE.INTRA.POLAR.0>
0

>  <SCORE.INTRA.REPUL>
-0.190271

>  <SCORE.INTRA.REPUL.0>
0.314433

>  <SCORE.INTRA.SOLV>
2.49686

>  <SCORE.INTRA.SOLV.lig_0>
-103.824

>  <SCORE.INTRA.VDW>
-0.507642

>  <SCORE.INTRA.VDW.0>
-5.30945

>  <SCORE.INTRA.norm>
0.0348134

>  <SCORE.RESTR>
0

>  <SCORE.RESTR.CAVITY>
0

>  <SCORE.RESTR.norm>
0

>  <SCORE.SYSTEM>
0

>  <SCORE.SYSTEM.CONST>
0

>  <SCORE.SYSTEM.DIHEDRAL>
0

>  <SCORE.SYSTEM.SOLV>
0

>  <SCORE.SYSTEM.norm>
0

>  <SCORE.heavy>
42

>  <SCORE.norm>
-0.15037

>  <RMSD>
10.234

$$$$
lig.pdb
 OpenBabel11021811513D
libRbt.so/2013.1/901 2013/11/27
 42 45  0  0  0  0  0  0  0  0999 V2000
   -4.1180    7.5788   36.4254 C   0  0  2  0  0  0  0  0  0  0  0  0
   -2.7706    7.8573   35.9312 O   0  0  0  0  0  0  0  0  0  0  0  0
   -4.0571    7.7654   38.0070 C   0  0  2  0  0  0  0  0  0  0  0  0
   -3.7028    9.1472   38.3431 N   0  0  0  0  0  0  0  0  0  0  0  0
   -3.0121    6.7066   38.6125 C   0  0  1  0  0  0  0  0  0  0  0  0
   -2.9249    6.8237   40.0482 O   0  0  0  0  0  0  0  0  0  0  0  0
   -3.4855    5.3063   38.1862 C   0  0  2  0  0  0  0  0  0  0  0  0
   -2.6027    4.3634   38.6915 O   0  0  0  0  0  0  0  0  0  0  0  0
   -3.5619    5.2195   36.5941 C   0  0  2  0  0  0  0  0  0  0  0  0
   -4.4721    6.1906   36.0631 O   0  0  0  0  0  0  0  0  0  0  0  0
   -4.0387    3.8741   36.1251 C   0  0  0  0  0  0  0  0  0  0  0  0
   -2.9976    2.9317   36.3853 O   0  0  0  0  0  0  0  0  0  0  0  0
   -0.7105    8.2193   32.0072 C   0  0  2  0  0  0  0  0  0  0  0  0
   -0.4756    8.4861   30.6049 N   0  0  0  0  0  0  0  0  0  0  0  0
   -1.9161    7.2158   32.1756 C   0  0  0  0  0  0  0  0  0  0  0  0
   -2.1945    6.9132   33.6900 C   0  0  2  0  0  0  0  0  0  0  0  0
   -3.3201    5.9878   33.8021 N   0  0  0  0  0  0  0  0  0  0  0  0
   -2.5296    8.2299   34.5221 C   0  0  2  0  0  0  0  0  0  0  0  0
   -1.3164    9.1936   34.3771 C   0  0  2  0  0  0  0  0  0  0  0  0
   -1.7078   10.4013   35.1962 O   0  0  0  0  0  0  0  0  0  0  0  0
   -1.0754    9.5563   32.8094 C   0  0  1  0  0  0  0  0  0  0  0  0
    0.0789   10.4165   32.5451 O   0  0  0  0  0  0  0  0  0  0  0  0
   -0.6983   11.3268   35.2354 C   0  0  1  0  0  0  0  0  0  0  0  0
   -0.9538   12.4176   36.1820 C   0  0  2  0  0  0  0  0  0  0  0  0
   -1.9431   13.2249   35.6287 O   0  0  0  0  0  0  0  0  0  0  0  0
    0.4712   12.9742   36.3890 C   0  0  2  0  0  0  0  0  0  0  0  0
    0.4507   14.3490   35.9428 O   0  0  0  0  0  0  0  0  0  0  0  0
    1.3469   12.1107   35.5420 C   0  0  2  0  0  0  0  0  0  0  0  0
    0.5690   10.8677   35.6755 O   0  0  0  0  0  0  0  0  0  0  0  0
    2.7766   11.9305   36.1727 C   0  0  0  0  0  0  0  0  0  0  0  0
    2.7719   11.1970   37.4341 O   0  0  0  0  0  0  0  0  0  0  0  0
   -0.2823   15.3013   36.7715 C   0  0  2  0  0  0  0  0  0  0  0  0
   -0.0024   16.7916   36.2105 C   0  0  2  0  0  0  0  0  0  0  0  0
    1.4725   17.0578   36.2333 N   0  0  0  0  0  0  0  0  0  0  0  0
   -0.8157   17.8332   37.1257 C   0  0  1  0  0  0  0  0  0  0  0  0
   -2.2290   17.4780   37.0361 O   0  0  0  0  0  0  0  0  0  0  0  0
   -0.2939   17.7376   38.6301 C   0  0  2  0  0  0  0  0  0  0  0  0
    1.1347   18.1239   38.6404 O   0  0  0  0  0  0  0  0  0  0  0  0
   -0.5334   16.2117   39.1553 C   0  0  1  0  0  0  0  0  0  0  0  0
    0.1783   15.2447   38.2425 O   0  0  0  0  0  0  0  0  0  0  0  0
   -0.0157   16.0768   40.6258 C   0  0  0  0  0  0  0  0  0  0  0  0
    1.4649   16.2569   40.7385 N   0  0  0  0  0  0  0  0  0  0  0  0
  1  3  1  0  0  0  0
  1  2  1  6  0  0  0
  3  4  1  6  0  0  0
  3  5  1  0  0  0  0
  5  6  1  1  0  0  0
  7  8  1  6  0  0  0
  7  5  1  0  0  0  0
  9 11  1  1  0  0  0
  9  7  1  0  0  0  0
 10  9  1  0  0  0  0
 10  1  1  0  0  0  0
 12 11  1  0  0  0  0
 13 14  1  6  0  0  0
 15 13  1  0  0  0  0
 16 17  1  6  0  0  0
 16 15  1  0  0  0  0
 18  2  1  1  0  0  0
 18 19  1  0  0  0  0
 18 16  1  0  0  0  0
 19 20  1  1  0  0  0
 19 21  1  0  0  0  0
 21 22  1  1  0  0  0
 21 13  1  0  0  0  0
 23 20  1  1  0  0  0
 23 29  1  0  0  0  0
 24 25  1  6  0  0  0
 24 26  1  0  0  0  0
 24 23  1  0  0  0  0
 26 27  1  6  0  0  0
 26 28  1  0  0  0  0
 28 30  1  1  0  0  0
 29 28  1  0  0  0  0
 30 31  1  0  0  0  0
 32 27  1  6  0  0  0
 32 40  1  0  0  0  0
 33 35  1  0  0  0  0
 33 32  1  0  0  0  0
 33 34  1  1  0  0  0
 35 36  1  1  0  0  0
 35 37  1  0  0  0  0
 37 38  1  6  0  0  0
 37 39  1  0  0  0  0
 39 41  1  1  0  0  0
 40 39  1  0  0  0  0
 41 42  1  0  0  0  0
M  END
>  <CHROM.1>
-159.09505084,-70.54077506,-93.13766677,176.48063031,-171.22128300,70.66863036
65.63778554,172.10961255,-65.25827716,-1.22900889,10.77396843,36.32650582
2.36161687,-1.13692460,-2.21790365

>  <Name>
lig.pdb

>  <RI>
0

>  <Rbt.Current_Directory>
/home/itssahil/PROJECTS/Mol_Feturizer/New_Systems/rnas/4wcr

>  <Rbt.Executable>
rbdock ($Id: //depot/dev/client3/rdock/2013.1/src/exe/rbdock.cxx#4 $)

>  <Rbt.Library>
libRbt.so (2013.1, Build901 2013/11/27)

>  <Rbt.Parameter_File>
/export/apps/rDock/src/rDock_2013.1_src/data/scripts/dock_solv.prm

>  <Rbt.Receptor>
prm/pocket_docking_6.prm

>  <SCORE>
-6.83213

>  <SCORE.INTER>
-2.95348

>  <SCORE.INTER.CONST>
1

>  <SCORE.INTER.POLAR>
0

>  <SCORE.INTER.ROT>
9

>  <SCORE.INTER.SOLV>
20.112

>  <SCORE.INTER.VDW>
-18.273

>  <SCORE.INTER.norm>
-0.070321

>  <SCORE.INTRA>
-3.87865

>  <SCORE.INTRA.DIHEDRAL>
-7.77964

>  <SCORE.INTRA.DIHEDRAL.0>
16.2863

>  <SCORE.INTRA.POLAR>
0

>  <SCORE.INTRA.POLAR.0>
0

>  <SCORE.INTRA.REPUL>
-0.314433

>  <SCORE.INTRA.REPUL.0>
0.314433

>  <SCORE.INTRA.SOLV>
-0.0894337

>  <SCORE.INTRA.SOLV.lig_0>
-103.824

>  <SCORE.INTRA.VDW>
1.62805

>  <SCORE.INTRA.VDW.0>
-5.30945

>  <SCORE.INTRA.norm>
-0.0923488

>  <SCORE.RESTR>
0

>  <SCORE.RESTR.CAVITY>
0

>  <SCORE.RESTR.norm>
0

>  <SCORE.SYSTEM>
0

>  <SCORE.SYSTEM.CONST>
0

>  <SCORE.SYSTEM.DIHEDRAL>
0

>  <SCORE.SYSTEM.SOLV>
0

>  <SCORE.SYSTEM.norm>
0

>  <SCORE.heavy>
42

>  <SCORE.norm>
-0.16267

>  <RMSD>
10.244

$$$$
lig.pdb
 OpenBabel11021811513D
libRbt.so/2013.1/901 2013/11/27
 42 45  0  0  0  0  0  0  0  0999 V2000
   -4.1800    7.5693   36.3116 C   0  0  2  0  0  0  0  0  0  0  0  0
   -2.8232    7.7884   35.8134 O   0  0  0  0  0  0  0  0  0  0  0  0
   -4.1043    7.7433   37.8940 C   0  0  2  0  0  0  0  0  0  0  0  0
   -3.6854    9.1052   38.2368 N   0  0  0  0  0  0  0  0  0  0  0  0
   -3.1069    6.6337   38.4888 C   0  0  1  0  0  0  0  0  0  0  0  0
   -3.0087    6.7379   39.9248 O   0  0  0  0  0  0  0  0  0  0  0  0
   -3.6460    5.2594   38.0563 C   0  0  2  0  0  0  0  0  0  0  0  0
   -2.8056    4.2737   38.5522 O   0  0  0  0  0  0  0  0  0  0  0  0
   -3.7326    5.1858   36.4640 C   0  0  2  0  0  0  0  0  0  0  0  0
   -4.5991    6.2012   35.9426 O   0  0  0  0  0  0  0  0  0  0  0  0
   -4.2727    3.8668   35.9891 C   0  0  0  0  0  0  0  0  0  0  0  0
   -3.3082    2.8638   36.3104 O   0  0  0  0  0  0  0  0  0  0  0  0
   -0.7366    8.1500   31.9034 C   0  0  2  0  0  0  0  0  0  0  0  0
   -0.4914    8.4196   30.5033 N   0  0  0  0  0  0  0  0  0  0  0  0
   -1.9491    7.1532   32.0613 C   0  0  0  0  0  0  0  0  0  0  0  0
   -2.2387    6.8476   33.5730 C   0  0  2  0  0  0  0  0  0  0  0  0
   -3.3704    5.9287   33.6752 N   0  0  0  0  0  0  0  0  0  0  0  0
   -2.5712    8.1638   34.4070 C   0  0  2  0  0  0  0  0  0  0  0  0
   -1.3514    9.1207   34.2725 C   0  0  2  0  0  0  0  0  0  0  0  0
   -1.7408   10.3283   35.0928 O   0  0  0  0  0  0  0  0  0  0  0  0
   -1.0986    9.4868   32.7074 C   0  0  1  0  0  0  0  0  0  0  0  0
    0.0624   10.3409   32.4528 O   0  0  0  0  0  0  0  0  0  0  0  0
   -0.7089   11.2252   35.1823 C   0  0  1  0  0  0  0  0  0  0  0  0
   -0.9590   12.2952   36.1537 C   0  0  2  0  0  0  0  0  0  0  0  0
   -1.9133   13.1438   35.6006 O   0  0  0  0  0  0  0  0  0  0  0  0
    0.4745   12.8077   36.4100 C   0  0  2  0  0  0  0  0  0  0  0  0
    0.5005   14.1946   36.0032 O   0  0  0  0  0  0  0  0  0  0  0  0
    1.3478   11.9454   35.5595 C   0  0  2  0  0  0  0  0  0  0  0  0
    0.5351   10.7203   35.6388 O   0  0  0  0  0  0  0  0  0  0  0  0
    2.7567   11.7096   36.2183 C   0  0  0  0  0  0  0  0  0  0  0  0
    2.7017   10.9461   37.4605 O   0  0  0  0  0  0  0  0  0  0  0  0
   -0.2390   15.1403   36.8338 C   0  0  2  0  0  0  0  0  0  0  0  0
   -0.0384   16.6244   36.2244 C   0  0  2  0  0  0  0  0  0  0  0  0
    1.4247   16.9475   36.1854 N   0  0  0  0  0  0  0  0  0  0  0  0
   -0.8584   17.6586   37.1420 C   0  0  1  0  0  0  0  0  0  0  0  0
   -2.2590   17.2471   37.1142 O   0  0  0  0  0  0  0  0  0  0  0  0
   -0.2792   17.6242   38.6278 C   0  0  2  0  0  0  0  0  0  0  0  0
    1.1325   18.0651   38.5751 O   0  0  0  0  0  0  0  0  0  0  0  0
   -0.4394   16.1051   39.2009 C   0  0  1  0  0  0  0  0  0  0  0  0
    0.2764   15.1416   38.2876 O   0  0  0  0  0  0  0  0  0  0  0  0
    0.1362   16.0303   40.6541 C   0  0  0  0  0  0  0  0  0  0  0  0
   -0.6300   16.8708   41.6256 N   0  0  0  0  0  0  0  0  0  0  0  0
  1  3  1  0  0  0  0
  1  2  1  6  0  0  0
  3  4  1  6  0  0  0
  3  5  1  0  0  0  0
  5  6  1  1  0  0  0
  7  8  1  6  0  0  0
  7  5  1  0  0  0  0
  9 11  1  1  0  0  0
  9  7  1  0  0  0  0
 10  9  1  0  0  0  0
 10  1  1  0  0  0  0
 12 11  1  0  0  0  0
 13 14  1  6  0  0  0
 15 13  1  0  0  0  0
 16 17  1  6  0  0  0
 16 15  1  0  0  0  0
 18  2  1  1  0  0  0
 18 19  1  0  0  0  0
 18 16  1  0  0  0  0
 19 20  1  1  0  0  0
 19 21  1  0  0  0  0
 21 22  1  1  0  0  0
 21 13  1  0  0  0  0
 23 20  1  1  0  0  0
 23 29  1  0  0  0  0
 24 25  1  6  0  0  0
 24 26  1  0  0  0  0
 24 23  1  0  0  0  0
 26 27  1  6  0  0  0
 26 28  1  0  0  0  0
 28 30  1  1  0  0  0
 29 28  1  0  0  0  0
 30 31  1  0  0  0  0
 32 27  1  6  0  0  0
 32 40  1  0  0  0  0
 33 35  1  0  0  0  0
 33 32  1  0  0  0  0
 33 34  1  1  0  0  0
 35 36  1  1  0  0  0
 35 37  1  0  0  0  0
 37 38  1  6  0  0  0
 37 39  1  0  0  0  0
 39 41  1  1  0  0  0
 40 39  1  0  0  0  0
 41 42  1  0  0  0  0
M  END
>  <CHROM.1>
-158.82619666,-67.20433712,-95.64910991,174.23205840,-170.04649078,70.05393938
65.39560753,178.35814258,64.45311619,-1.31859920,10.69500570,36.29255760
2.27732912,-1.10276333,-2.28231551

>  <Name>
lig.pdb

>  <RI>
0

>  <Rbt.Current_Directory>
/home/itssahil/PROJECTS/Mol_Feturizer/New_Systems/rnas/4wcr

>  <Rbt.Executable>
rbdock ($Id: //depot/dev/client3/rdock/2013.1/src/exe/rbdock.cxx#4 $)

>  <Rbt.Library>
libRbt.so (2013.1, Build901 2013/11/27)

>  <Rbt.Parameter_File>
/export/apps/rDock/src/rDock_2013.1_src/data/scripts/dock_solv.prm

>  <Rbt.Receptor>
prm/pocket_docking_8.prm

>  <SCORE>
-7.57491

>  <SCORE.INTER>
-3.02927

>  <SCORE.INTER.CONST>
1

>  <SCORE.INTER.POLAR>
0

>  <SCORE.INTER.ROT>
9

>  <SCORE.INTER.SOLV>
19.4772

>  <SCORE.INTER.VDW>
-18.1119

>  <SCORE.INTER.norm>
-0.0721255

>  <SCORE.INTRA>
-4.54564

>  <SCORE.INTRA.DIHEDRAL>
-7.65919

>  <SCORE.INTRA.DIHEDRAL.0>
16.2863

>  <SCORE.INTRA.POLAR>
0

>  <SCORE.INTRA.POLAR.0>
0

>  <SCORE.INTRA.REPUL>
-0.314433

>  <SCORE.INTRA.REPUL.0>
0.314433

>  <SCORE.INTRA.SOLV>
-1.62646

>  <SCORE.INTRA.SOLV.lig_0>
-103.824

>  <SCORE.INTRA.VDW>
1.66935

>  <SCORE.INTRA.VDW.0>
-5.30945

>  <SCORE.INTRA.norm>
-0.10823

>  <SCORE.RESTR>
0

>  <SCORE.RESTR.CAVITY>
0

>  <SCORE.RESTR.norm>
0

>  <SCORE.SYSTEM>
0

>  <SCORE.SYSTEM.CONST>
0

>  <SCORE.SYSTEM.DIHEDRAL>
0

>  <SCORE.SYSTEM.SOLV>
0

>  <SCORE.SYSTEM.norm>
0

>  <SCORE.heavy>
42

>  <SCORE.norm>
-0.180355

>  <RMSD>
10.265

$$$$
lig.pdb
 OpenBabel11021811513D
libRbt.so/2013.1/901 2013/11/27
 42 45  0  0  0  0  0  0  0  0999 V2000
   -4.1010    5.9857   36.9725 C   0  0  2  0  0  0  0  0  0  0  0  0
   -2.7248    6.3607   37.2929 O   0  0  0  0  0  0  0  0  0  0  0  0
   -4.2365    6.1086   35.3893 C   0  0  2  0  0  0  0  0  0  0  0  0
   -3.3220    5.1749   34.7263 N   0  0  0  0  0  0  0  0  0  0  0  0
   -3.9614    7.6327   34.9638 C   0  0  1  0  0  0  0  0  0  0  0  0
   -4.0825    7.8047   33.5361 O   0  0  0  0  0  0  0  0  0  0  0  0
   -4.9711    8.5070   35.7271 C   0  0  2  0  0  0  0  0  0  0  0  0
   -4.7611    9.8345   35.3846 O   0  0  0  0  0  0  0  0  0  0  0  0
   -4.7986    8.2903   37.2993 C   0  0  2  0  0  0  0  0  0  0  0  0
   -5.0139    6.9208   37.6624 O   0  0  0  0  0  0  0  0  0  0  0  0
   -5.7771    9.1096   38.0920 C   0  0  0  0  0  0  0  0  0  0  0  0
   -7.0915    8.7066   37.7055 O   0  0  0  0  0  0  0  0  0  0  0  0
   -2.5206    5.2742   41.5999 C   0  0  2  0  0  0  0  0  0  0  0  0
   -1.9887    4.9737   42.9113 N   0  0  0  0  0  0  0  0  0  0  0  0
   -1.8620    4.3346   40.5172 C   0  0  0  0  0  0  0  0  0  0  0  0
   -2.4197    4.6440   39.0834 C   0  0  2  0  0  0  0  0  0  0  0  0
   -1.7805    3.7593   38.1117 N   0  0  0  0  0  0  0  0  0  0  0  0
   -2.1659    6.1545   38.6447 C   0  0  2  0  0  0  0  0  0  0  0  0
   -2.8528    7.0678   39.7010 C   0  0  2  0  0  0  0  0  0  0  0  0
   -2.5755    8.4693   39.2095 O   0  0  0  0  0  0  0  0  0  0  0  0
   -2.2223    6.7890   41.1749 C   0  0  1  0  0  0  0  0  0  0  0  0
   -2.8322    7.5555   42.2624 O   0  0  0  0  0  0  0  0  0  0  0  0
   -3.0263    9.4089   40.0990 C   0  0  1  0  0  0  0  0  0  0  0  0
   -3.0848   10.7592   39.5295 C   0  0  2  0  0  0  0  0  0  0  0  0
   -1.7757   11.2146   39.4047 O   0  0  0  0  0  0  0  0  0  0  0  0
   -4.0546   11.4552   40.5084 C   0  0  2  0  0  0  0  0  0  0  0  0
   -3.3238   12.5445   41.1157 O   0  0  0  0  0  0  0  0  0  0  0  0
   -4.4291   10.3977   41.4939 C   0  0  2  0  0  0  0  0  0  0  0  0
   -4.3526    9.2501   40.5746 O   0  0  0  0  0  0  0  0  0  0  0  0
   -5.9011   10.5808   42.0173 C   0  0  0  0  0  0  0  0  0  0  0  0
   -6.9132   10.4596   40.9732 O   0  0  0  0  0  0  0  0  0  0  0  0
   -4.1038   13.5301   41.8582 C   0  0  2  0  0  0  0  0  0  0  0  0
   -3.1340   14.7635   42.2485 C   0  0  2  0  0  0  0  0  0  0  0  0
   -1.9810   14.2476   43.0554 N   0  0  0  0  0  0  0  0  0  0  0  0
   -4.0010   15.8454   43.0621 C   0  0  1  0  0  0  0  0  0  0  0  0
   -5.0928   16.2703   42.1908 O   0  0  0  0  0  0  0  0  0  0  0  0
   -4.5597   15.1800   44.3999 C   0  0  2  0  0  0  0  0  0  0  0  0
   -3.3995   14.7906   45.2320 O   0  0  0  0  0  0  0  0  0  0  0  0
   -5.4878   13.9042   43.9839 C   0  0  1  0  0  0  0  0  0  0  0  0
   -4.6764   12.9351   43.1610 O   0  0  0  0  0  0  0  0  0  0  0  0
   -6.0398   13.2151   45.2758 C   0  0  0  0  0  0  0  0  0  0  0  0
   -7.0492   14.0531   45.9943 N   0  0  0  0  0  0  0  0  0  0  0  0
  1  3  1  0  0  0  0
  1  2  1  6  0  0  0
  3  4  1  6  0  0  0
  3  5  1  0  0  0  0
  5  6  1  6  0  0  0
  7  8  1  1  0  0  0
  7  5  1  0  0  0  0
  9 11  1  1  0  0  0
  9  7  1  0  0  0  0
 10  9  1  0  0  0  0
 10  1  1  0  0  0  0
 12 11  1  0  0  0  0
 13 14  1  1  0  0  0
 15 13  1  0  0  0  0
 16 17  1  6  0  0  0
 16 15  1  0  0  0  0
 18  2  1  6  0  0  0
 18 19  1  0  0  0  0
 18 16  1  0  0  0  0
 19 20  1  6  0  0  0
 19 21  1  0  0  0  0
 21 22  1  1  0  0  0
 21 13  1  0  0  0  0
 23 20  1  6  0  0  0
 23 29  1  0  0  0  0
 24 25  1  1  0  0  0
 24 26  1  0  0  0  0
 24 23  1  0  0  0  0
 26 27  1  1  0  0  0
 26 28  1  0  0  0  0
 28 30  1  6  0  0  0
 29 28  1  0  0  0  0
 30 31  1  0  0  0  0
 32 27  1  1  0  0  0
 32 40  1  0  0  0  0
 33 35  1  0  0  0  0
 33 32  1  0  0  0  0
 33 34  1  1  0  0  0
 35 36  1  6  0  0  0
 35 37  1  0  0  0  0
 37 38  1  1  0  0  0
 37 39  1  0  0  0  0
 39 41  1  1  0  0  0
 40 39  1  0  0  0  0
 41 42  1  0  0  0  0
M  END
>  <CHROM.1>
-169.85854524,60.03339774,51.60169036,-174.99742402,-165.71468141,167.00299968
62.79559439,-171.29158875,69.34046836,-3.93527770,9.65512909,40.08680107
1.27694015,1.17214820,-2.18902716

>  <Name>
lig.pdb

>  <RI>
0

>  <Rbt.Current_Directory>
/home/itssahil/PROJECTS/Mol_Feturizer/New_Systems/rnas/4wcr

>  <Rbt.Executable>
rbdock ($Id: //depot/dev/client3/rdock/2013.1/src/exe/rbdock.cxx#4 $)

>  <Rbt.Library>
libRbt.so (2013.1, Build901 2013/11/27)

>  <Rbt.Parameter_File>
/export/apps/rDock/src/rDock_2013.1_src/data/scripts/dock_solv.prm

>  <Rbt.Receptor>
prm/pocket_docking_8.prm

>  <SCORE>
-11.5539

>  <SCORE.INTER>
-2.53219

>  <SCORE.INTER.CONST>
1

>  <SCORE.INTER.POLAR>
0

>  <SCORE.INTER.ROT>
9

>  <SCORE.INTER.SOLV>
21.6199

>  <SCORE.INTER.VDW>
-18.4948

>  <SCORE.INTER.norm>
-0.0602901

>  <SCORE.INTRA>
-9.0217

>  <SCORE.INTRA.DIHEDRAL>
-12.3567

>  <SCORE.INTRA.DIHEDRAL.0>
16.2863

>  <SCORE.INTRA.POLAR>
0

>  <SCORE.INTRA.POLAR.0>
0

>  <SCORE.INTRA.REPUL>
-0.314433

>  <SCORE.INTRA.REPUL.0>
0.314433

>  <SCORE.INTRA.SOLV>
-3.11994

>  <SCORE.INTRA.SOLV.lig_0>
-103.824

>  <SCORE.INTRA.VDW>
0.28881

>  <SCORE.INTRA.VDW.0>
-5.30945

>  <SCORE.INTRA.norm>
-0.214802

>  <SCORE.RESTR>
0

>  <SCORE.RESTR.CAVITY>
0

>  <SCORE.RESTR.norm>
0

>  <SCORE.SYSTEM>
0

>  <SCORE.SYSTEM.CONST>
0

>  <SCORE.SYSTEM.DIHEDRAL>
0

>  <SCORE.SYSTEM.SOLV>
0

>  <SCORE.SYSTEM.norm>
0

>  <SCORE.heavy>
42

>  <SCORE.norm>
-0.275093

>  <RMSD>
10.281

$$$$
lig.pdb
 OpenBabel11021811513D
libRbt.so/2013.1/901 2013/11/27
 42 45  0  0  0  0  0  0  0  0999 V2000
   -0.5223   13.4234   35.5195 C   0  0  2  0  0  0  0  0  0  0  0  0
   -1.5370   13.2199   36.5521 O   0  0  0  0  0  0  0  0  0  0  0  0
   -0.9876   12.5582   34.2645 C   0  0  2  0  0  0  0  0  0  0  0  0
   -2.2785   13.0397   33.7650 N   0  0  0  0  0  0  0  0  0  0  0  0
   -1.0419   11.0117   34.6946 C   0  0  1  0  0  0  0  0  0  0  0  0
   -1.4482   10.1777   33.5891 O   0  0  0  0  0  0  0  0  0  0  0  0
    0.3589   10.6325   35.2050 C   0  0  2  0  0  0  0  0  0  0  0  0
    0.3490    9.2996   35.5882 O   0  0  0  0  0  0  0  0  0  0  0  0
    0.7651   11.5739   36.4285 C   0  0  2  0  0  0  0  0  0  0  0  0
    0.7779   12.9536   36.0415 O   0  0  0  0  0  0  0  0  0  0  0  0
    2.1366   11.2564   36.9532 C   0  0  0  0  0  0  0  0  0  0  0  0
    3.0839   11.6859   35.9745 O   0  0  0  0  0  0  0  0  0  0  0  0
   -2.4788   15.5700   40.2076 C   0  0  2  0  0  0  0  0  0  0  0  0
   -2.4126   16.0843   41.5582 N   0  0  0  0  0  0  0  0  0  0  0  0
   -2.5948   13.9969   40.2295 C   0  0  0  0  0  0  0  0  0  0  0  0
   -2.6638   13.4132   38.7745 C   0  0  2  0  0  0  0  0  0  0  0  0
   -2.7631   11.9566   38.8391 N   0  0  0  0  0  0  0  0  0  0  0  0
   -1.3883   13.8010   37.9021 C   0  0  2  0  0  0  0  0  0  0  0  0
   -1.3088   15.3545   37.8586 C   0  0  2  0  0  0  0  0  0  0  0  0
   -0.0895   15.6355   37.0118 O   0  0  0  0  0  0  0  0  0  0  0  0
   -1.1697   15.9492   39.3668 C   0  0  1  0  0  0  0  0  0  0  0  0
   -1.1417   17.4099   39.4543 O   0  0  0  0  0  0  0  0  0  0  0  0
   -0.1101   16.9121   36.5147 C   0  0  1  0  0  0  0  0  0  0  0  0
    1.2110   17.3847   36.0873 C   0  0  2  0  0  0  0  0  0  0  0  0
    1.9563   17.6302   37.2366 O   0  0  0  0  0  0  0  0  0  0  0  0
    0.8238   18.5517   35.1538 C   0  0  2  0  0  0  0  0  0  0  0  0
    1.3988   19.7495   35.7232 O   0  0  0  0  0  0  0  0  0  0  0  0
   -0.6692   18.5725   35.1651 C   0  0  2  0  0  0  0  0  0  0  0  0
   -0.8751   17.1252   35.3400 O   0  0  0  0  0  0  0  0  0  0  0  0
   -1.2580   19.0449   33.7851 C   0  0  0  0  0  0  0  0  0  0  0  0
   -2.7130   19.1547   33.7760 O   0  0  0  0  0  0  0  0  0  0  0  0
    1.9393   20.7314   34.7879 C   0  0  2  0  0  0  0  0  0  0  0  0
    2.4643   22.0078   35.6303 C   0  0  2  0  0  0  0  0  0  0  0  0
    1.3288   22.5711   36.4303 N   0  0  0  0  0  0  0  0  0  0  0  0
    3.0609   23.0820   34.5939 C   0  0  1  0  0  0  0  0  0  0  0  0
    4.1467   22.4286   33.8688 O   0  0  0  0  0  0  0  0  0  0  0  0
    1.9083   23.5551   33.5979 C   0  0  2  0  0  0  0  0  0  0  0  0
    0.8567   24.2167   34.4021 O   0  0  0  0  0  0  0  0  0  0  0  0
    1.3546   22.2433   32.8013 C   0  0  1  0  0  0  0  0  0  0  0  0
    0.8654   21.2180   33.7934 O   0  0  0  0  0  0  0  0  0  0  0  0
    0.2077   22.6688   31.8255 C   0  0  0  0  0  0  0  0  0  0  0  0
   -0.2657   21.5439   30.9608 N   0  0  0  0  0  0  0  0  0  0  0  0
  1  3  1  0  0  0  0
  1  2  1  1  0  0  0
  3  4  1  1  0  0  0
  3  5  1  0  0  0  0
  5  6  1  6  0  0  0
  7  8  1  1  0  0  0
  7  5  1  0  0  0  0
  9 11  1  6  0  0  0
  9  7  1  0  0  0  0
 10  9  1  0  0  0  0
 10  1  1  0  0  0  0
 12 11  1  0  0  0  0
 13 14  1  1  0  0  0
 15 13  1  0  0  0  0
 16 17  1  1  0  0  0
 16 15  1  0  0  0  0
 18  2  1  6  0  0  0
 18 19  1  0  0  0  0
 18 16  1  0  0  0  0
 19 20  1  6  0  0  0
 19 21  1  0  0  0  0
 21 22  1  6  0  0  0
 21 13  1  0  0  0  0
 23 20  1  6  0  0  0
 23 29  1  0  0  0  0
 24 25  1  1  0  0  0
 24 26  1  0  0  0  0
 24 23  1  0  0  0  0
 26 27  1  1  0  0  0
 26 28  1  0  0  0  0
 28 30  1  6  0  0  0
 29 28  1  0  0  0  0
 30 31  1  0  0  0  0
 32 27  1  1  0  0  0
 32 40  1  0  0  0  0
 33 35  1  0  0  0  0
 33 32  1  0  0  0  0
 33 34  1  6  0  0  0
 35 36  1  6  0  0  0
 35 37  1  0  0  0  0
 37 38  1  1  0  0  0
 37 39  1  0  0  0  0
 39 41  1  6  0  0  0
 40 39  1  0  0  0  0
 41 42  1  0  0  0  0
M  END
>  <CHROM.1>
175.75259551,70.64987655,179.23347375,160.41362461,160.44274512,141.96128338
-176.63696374,177.46166671,174.49118922,-0.00080022,16.67174964,35.86889986
-2.13598277,1.19185007,0.27002947

>  <Name>
lig.pdb

>  <RI>
0

>  <Rbt.Current_Directory>
/home/itssahil/PROJECTS/Mol_Feturizer/New_Systems/rnas/4wcr

>  <Rbt.Executable>
rbdock ($Id: //depot/dev/client3/rdock/2013.1/src/exe/rbdock.cxx#4 $)

>  <Rbt.Library>
libRbt.so (2013.1, Build901 2013/11/27)

>  <Rbt.Parameter_File>
/export/apps/rDock/src/rDock_2013.1_src/data/scripts/dock_solv.prm

>  <Rbt.Receptor>
prm/pocket_docking_8.prm

>  <SCORE>
-14.1475

>  <SCORE.INTER>
-7.20977

>  <SCORE.INTER.CONST>
1

>  <SCORE.INTER.POLAR>
0

>  <SCORE.INTER.ROT>
9

>  <SCORE.INTER.SOLV>
22.4068

>  <SCORE.INTER.VDW>
-21.8755

>  <SCORE.INTER.norm>
-0.171661

>  <SCORE.INTRA>
-6.93769

>  <SCORE.INTRA.DIHEDRAL>
-6.69653

>  <SCORE.INTRA.DIHEDRAL.0>
16.2863

>  <SCORE.INTRA.POLAR>
0

>  <SCORE.INTRA.POLAR.0>
0

>  <SCORE.INTRA.REPUL>
-0.314433

>  <SCORE.INTRA.REPUL.0>
0.314433

>  <SCORE.INTRA.SOLV>
-5.73089

>  <SCORE.INTRA.SOLV.lig_0>
-103.824

>  <SCORE.INTRA.VDW>
0.848184

>  <SCORE.INTRA.VDW.0>
-5.30945

>  <SCORE.INTRA.norm>
-0.165183

>  <SCORE.RESTR>
0

>  <SCORE.RESTR.CAVITY>
0

>  <SCORE.RESTR.norm>
0

>  <SCORE.SYSTEM>
0

>  <SCORE.SYSTEM.CONST>
0

>  <SCORE.SYSTEM.DIHEDRAL>
0

>  <SCORE.SYSTEM.SOLV>
0

>  <SCORE.SYSTEM.norm>
0

>  <SCORE.heavy>
42

>  <SCORE.norm>
-0.336844

>  <RMSD>
10.306

$$$$
lig.pdb
 OpenBabel11021811513D
libRbt.so/2013.1/901 2013/11/27
 42 45  0  0  0  0  0  0  0  0999 V2000
   -3.9924   12.0808   35.8675 C   0  0  2  0  0  0  0  0  0  0  0  0
   -4.8972   13.2286   35.8303 O   0  0  0  0  0  0  0  0  0  0  0  0
   -3.8245   11.5999   34.3574 C   0  0  2  0  0  0  0  0  0  0  0  0
   -3.2151   12.6606   33.5504 N   0  0  0  0  0  0  0  0  0  0  0  0
   -5.2617   11.1578   33.7929 C   0  0  1  0  0  0  0  0  0  0  0  0
   -5.1668   10.7008   32.4273 O   0  0  0  0  0  0  0  0  0  0  0  0
   -5.7957   10.0551   34.7232 C   0  0  2  0  0  0  0  0  0  0  0  0
   -7.0405    9.6490   34.2658 O   0  0  0  0  0  0  0  0  0  0  0  0
   -5.8899   10.6043   36.2192 C   0  0  2  0  0  0  0  0  0  0  0  0
   -4.6077   11.0264   36.7001 O   0  0  0  0  0  0  0  0  0  0  0  0
   -6.3896    9.5572   37.1737 C   0  0  0  0  0  0  0  0  0  0  0  0
   -7.7488    9.2776   36.8358 O   0  0  0  0  0  0  0  0  0  0  0  0
   -6.5489   16.4292   38.4380 C   0  0  2  0  0  0  0  0  0  0  0  0
   -6.7920   17.2600   39.5971 N   0  0  0  0  0  0  0  0  0  0  0  0
   -6.8037   14.9131   38.7922 C   0  0  0  0  0  0  0  0  0  0  0  0
   -6.5423   13.9893   37.5510 C   0  0  2  0  0  0  0  0  0  0  0  0
   -6.7820   12.5963   37.9225 N   0  0  0  0  0  0  0  0  0  0  0  0
   -5.0548   14.1222   36.9960 C   0  0  2  0  0  0  0  0  0  0  0  0
   -4.8313   15.6147   36.6161 C   0  0  2  0  0  0  0  0  0  0  0  0
   -3.4139   15.6517   36.0944 O   0  0  0  0  0  0  0  0  0  0  0  0
   -5.0382   16.5608   37.9236 C   0  0  1  0  0  0  0  0  0  0  0  0
   -4.9064   17.9969   37.6736 O   0  0  0  0  0  0  0  0  0  0  0  0
   -3.1104   16.8761   35.5595 C   0  0  1  0  0  0  0  0  0  0  0  0
   -1.7083   16.9914   35.1446 C   0  0  2  0  0  0  0  0  0  0  0  0
   -0.9390   17.0826   36.3007 O   0  0  0  0  0  0  0  0  0  0  0  0
   -1.7820   18.1860   34.1696 C   0  0  2  0  0  0  0  0  0  0  0  0
   -0.9339   19.2220   34.7146 O   0  0  0  0  0  0  0  0  0  0  0  0
   -3.2229   18.5771   34.1506 C   0  0  2  0  0  0  0  0  0  0  0  0
   -3.7844   17.2329   34.3640 O   0  0  0  0  0  0  0  0  0  0  0  0
   -3.6593   19.1344   32.7458 C   0  0  0  0  0  0  0  0  0  0  0  0
   -3.4970   20.5783   32.6126 O   0  0  0  0  0  0  0  0  0  0  0  0
   -0.0900   19.9489   33.7710 C   0  0  2  0  0  0  0  0  0  0  0  0
    0.8609   20.9569   34.6040 C   0  0  2  0  0  0  0  0  0  0  0  0
    0.0061   21.8858   35.4122 N   0  0  0  0  0  0  0  0  0  0  0  0
    1.7890   21.7502   33.5585 C   0  0  1  0  0  0  0  0  0  0  0  0
    2.5662   20.7547   32.8260 O   0  0  0  0  0  0  0  0  0  0  0  0
    0.8689   22.6005   32.5712 C   0  0  2  0  0  0  0  0  0  0  0  0
    0.1273   23.5916   33.3824 O   0  0  0  0  0  0  0  0  0  0  0  0
   -0.1210   21.5695   31.7843 C   0  0  1  0  0  0  0  0  0  0  0  0
   -0.9318   20.7839   32.7844 O   0  0  0  0  0  0  0  0  0  0  0  0
   -1.0524   22.3732   30.8174 C   0  0  0  0  0  0  0  0  0  0  0  0
   -1.9718   23.3062   31.5395 N   0  0  0  0  0  0  0  0  0  0  0  0
  1  3  1  0  0  0  0
  1  2  1  6  0  0  0
  3  4  1  6  0  0  0
  3  5  1  0  0  0  0
  5  6  1  6  0  0  0
  7  8  1  6  0  0  0
  7  5  1  0  0  0  0
  9 11  1  1  0  0  0
  9  7  1  0  0  0  0
 10  9  1  0  0  0  0
 10  1  1  0  0  0  0
 12 11  1  0  0  0  0
 13 14  1  1  0  0  0
 15 13  1  0  0  0  0
 16 17  1  1  0  0  0
 16 15  1  0  0  0  0
 18  2  1  6  0  0  0
 18 19  1  0  0  0  0
 18 16  1  0  0  0  0
 19 20  1  1  0  0  0
 19 21  1  0  0  0  0
 21 22  1  6  0  0  0
 21 13  1  0  0  0  0
 23 20  1  6  0  0  0
 23 29  1  0  0  0  0
 24 25  1  1  0  0  0
 24 26  1  0  0  0  0
 24 23  1  0  0  0  0
 26 27  1  1  0  0  0
 26 28  1  0  0  0  0
 28 30  1  6  0  0  0
 29 28  1  0  0  0  0
 30 31  1  0  0  0  0
 32 27  1  1  0  0  0
 32 40  1  0  0  0  0
 33 35  1  0  0  0  0
 33 32  1  0  0  0  0
 33 34  1  6  0  0  0
 35 36  1  6  0  0  0
 35 37  1  0  0  0  0
 37 38  1  1  0  0  0
 37 39  1  0  0  0  0
 39 41  1  6  0  0  0
 40 39  1  0  0  0  0
 41 42  1  0  0  0  0
M  END
>  <CHROM.1>
-166.30904195,-66.91102706,-114.47756308,172.52197671,175.10758993,138.09275580
-90.26075423,-175.01438046,-63.77072693,-3.36165690,16.42507786,35.03538868
-2.48280801,0.91725228,0.50608102

>  <Name>
lig.pdb

>  <RI>
0

>  <Rbt.Current_Directory>
/home/itssahil/PROJECTS/Mol_Feturizer/New_Systems/rnas/4wcr

>  <Rbt.Executable>
rbdock ($Id: //depot/dev/client3/rdock/2013.1/src/exe/rbdock.cxx#4 $)

>  <Rbt.Library>
libRbt.so (2013.1, Build901 2013/11/27)

>  <Rbt.Parameter_File>
/export/apps/rDock/src/rDock_2013.1_src/data/scripts/dock_solv.prm

>  <Rbt.Receptor>
prm/pocket_docking_7.prm

>  <SCORE>
-7.41058

>  <SCORE.INTER>
-7.12293

>  <SCORE.INTER.CONST>
1

>  <SCORE.INTER.POLAR>
0

>  <SCORE.INTER.ROT>
9

>  <SCORE.INTER.SOLV>
18.665

>  <SCORE.INTER.VDW>
-20.5703

>  <SCORE.INTER.norm>
-0.169594

>  <SCORE.INTRA>
-0.287648

>  <SCORE.INTRA.DIHEDRAL>
0.813749

>  <SCORE.INTRA.DIHEDRAL.0>
16.2863

>  <SCORE.INTRA.POLAR>
0

>  <SCORE.INTRA.POLAR.0>
0

>  <SCORE.INTRA.REPUL>
-0.314433

>  <SCORE.INTRA.REPUL.0>
0.314433

>  <SCORE.INTRA.SOLV>
0.964626

>  <SCORE.INTRA.SOLV.lig_0>
-103.824

>  <SCORE.INTRA.VDW>
0.395329

>  <SCORE.INTRA.VDW.0>
-5.30945

>  <SCORE.INTRA.norm>
-0.00684877

>  <SCORE.RESTR>
0

>  <SCORE.RESTR.CAVITY>
0

>  <SCORE.RESTR.norm>
0

>  <SCORE.SYSTEM>
0

>  <SCORE.SYSTEM.CONST>
0

>  <SCORE.SYSTEM.DIHEDRAL>
0

>  <SCORE.SYSTEM.SOLV>
0

>  <SCORE.SYSTEM.norm>
0

>  <SCORE.heavy>
42

>  <SCORE.norm>
-0.176442

>  <RMSD>
10.337

$$$$
lig.pdb
 OpenBabel11021811513D
libRbt.so/2013.1/901 2013/11/27
 42 45  0  0  0  0  0  0  0  0999 V2000
   -2.0447   16.2978   33.8149 C   0  0  2  0  0  0  0  0  0  0  0  0
   -3.1820   17.2164   33.8151 O   0  0  0  0  0  0  0  0  0  0  0  0
   -2.4768   15.0577   34.7180 C   0  0  2  0  0  0  0  0  0  0  0  0
   -3.6362   14.3802   34.1310 N   0  0  0  0  0  0  0  0  0  0  0  0
   -2.7698   15.5806   36.2081 C   0  0  1  0  0  0  0  0  0  0  0  0
   -3.1558   14.4934   37.0750 O   0  0  0  0  0  0  0  0  0  0  0  0
   -1.4904   16.2749   36.7058 C   0  0  2  0  0  0  0  0  0  0  0  0
   -1.7079   16.7424   37.9934 O   0  0  0  0  0  0  0  0  0  0  0  0
   -1.1038   17.4719   35.7229 C   0  0  2  0  0  0  0  0  0  0  0  0
   -0.8772   16.9979   34.3897 O   0  0  0  0  0  0  0  0  0  0  0  0
    0.1529   18.1728   36.1551 C   0  0  0  0  0  0  0  0  0  0  0  0
    1.1954   17.1980   36.2071 O   0  0  0  0  0  0  0  0  0  0  0  0
   -4.5410   21.0574   32.0341 C   0  0  2  0  0  0  0  0  0  0  0  0
   -4.5608   22.2646   31.2370 N   0  0  0  0  0  0  0  0  0  0  0  0
   -3.2441   21.0192   32.9314 C   0  0  0  0  0  0  0  0  0  0  0  0
   -3.1964   19.7156   33.8037 C   0  0  2  0  0  0  0  0  0  0  0  0
   -1.9792   19.7159   34.6125 N   0  0  0  0  0  0  0  0  0  0  0  0
   -3.2229   18.3905   32.9195 C   0  0  2  0  0  0  0  0  0  0  0  0
   -4.5253   18.4247   32.0684 C   0  0  2  0  0  0  0  0  0  0  0  0
   -4.4780   17.1403   31.2742 O   0  0  0  0  0  0  0  0  0  0  0  0
   -4.5365   19.7446   31.1171 C   0  0  1  0  0  0  0  0  0  0  0  0
   -5.7443   19.9122   30.3076 O   0  0  0  0  0  0  0  0  0  0  0  0
   -5.4844   17.0896   30.3459 C   0  0  1  0  0  0  0  0  0  0  0  0
   -6.0709   15.7527   30.2051 C   0  0  2  0  0  0  0  0  0  0  0  0
   -5.1428   14.9600   29.5365 O   0  0  0  0  0  0  0  0  0  0  0  0
   -7.4228   16.0875   29.5393 C   0  0  2  0  0  0  0  0  0  0  0  0
   -7.4340   15.4176   28.2584 O   0  0  0  0  0  0  0  0  0  0  0  0
   -7.4272   17.5748   29.4072 C   0  0  2  0  0  0  0  0  0  0  0  0
   -6.6364   17.8719   30.6131 O   0  0  0  0  0  0  0  0  0  0  0  0
   -8.8768   18.1700   29.5446 C   0  0  0  0  0  0  0  0  0  0  0  0
   -8.9870   19.5532   29.0935 O   0  0  0  0  0  0  0  0  0  0  0  0
   -8.5554   15.7092   27.3705 C   0  0  2  0  0  0  0  0  0  0  0  0
   -8.5392   14.6421   26.1559 C   0  0  2  0  0  0  0  0  0  0  0  0
   -7.2264   14.7324   25.4382 N   0  0  0  0  0  0  0  0  0  0  0  0
   -9.7787   14.9677   25.1855 C   0  0  1  0  0  0  0  0  0  0  0  0
  -10.9957   14.8590   25.9848 O   0  0  0  0  0  0  0  0  0  0  0  0
   -9.6132   16.4375   24.5883 C   0  0  2  0  0  0  0  0  0  0  0  0
   -8.3713   16.4634   23.7838 O   0  0  0  0  0  0  0  0  0  0  0  0
   -9.5742   17.4908   25.8336 C   0  0  1  0  0  0  0  0  0  0  0  0
   -8.4496   17.1260   26.7700 O   0  0  0  0  0  0  0  0  0  0  0  0
   -9.3947   18.9449   25.2840 C   0  0  0  0  0  0  0  0  0  0  0  0
   -8.0300   19.1885   24.7222 N   0  0  0  0  0  0  0  0  0  0  0  0
  1  3  1  0  0  0  0
  1  2  1  1  0  0  0
  3  4  1  6  0  0  0
  3  5  1  0  0  0  0
  5  6  1  1  0  0  0
  7  8  1  1  0  0  0
  7  5  1  0  0  0  0
  9 11  1  1  0  0  0
  9  7  1  0  0  0  0
 10  9  1  0  0  0  0
 10  1  1  0  0  0  0
 12 11  1  0  0  0  0
 13 14  1  6  0  0  0
 15 13  1  0  0  0  0
 16 17  1  6  0  0  0
 16 15  1  0  0  0  0
 18  2  1  1  0  0  0
 18 19  1  0  0  0  0
 18 16  1  0  0  0  0
 19 20  1  6  0  0  0
 19 21  1  0  0  0  0
 21 22  1  1  0  0  0
 21 13  1  0  0  0  0
 23 20  1  1  0  0  0
 23 29  1  0  0  0  0
 24 25  1  6  0  0  0
 24 26  1  0  0  0  0
 24 23  1  0  0  0  0
 26 27  1  6  0  0  0
 26 28  1  0  0  0  0
 28 30  1  1  0  0  0
 29 28  1  0  0  0  0
 30 31  1  0  0  0  0
 32 27  1  1  0  0  0
 32 40  1  0  0  0  0
 33 35  1  0  0  0  0
 33 32  1  0  0  0  0
 33 34  1  6  0  0  0
 35 36  1  1  0  0  0
 35 37  1  0  0  0  0
 37 38  1  1  0  0  0
 37 39  1  0  0  0  0
 39 41  1  6  0  0  0
 40 39  1  0  0  0  0
 41 42  1  0  0  0  0
M  END
>  <CHROM.1>
-170.88694318,57.78120019,-114.97205642,-172.70598197,-141.44243767,-173.20918787
-165.35053809,-168.20090429,-70.53018582,-5.30901663,17.28070091,30.88623989
0.05248460,0.91839384,3.01396581

>  <Name>
lig.pdb

>  <RI>
0

>  <Rbt.Current_Directory>
/home/itssahil/PROJECTS/Mol_Feturizer/New_Systems/rnas/4wcr

>  <Rbt.Executable>
rbdock ($Id: //depot/dev/client3/rdock/2013.1/src/exe/rbdock.cxx#4 $)

>  <Rbt.Library>
libRbt.so (2013.1, Build901 2013/11/27)

>  <Rbt.Parameter_File>
/export/apps/rDock/src/rDock_2013.1_src/data/scripts/dock_solv.prm

>  <Rbt.Receptor>
prm/blind_docking_60.prm

>  <SCORE>
1.1923

>  <SCORE.INTER>
-8.06994

>  <SCORE.INTER.CONST>
1

>  <SCORE.INTER.POLAR>
0

>  <SCORE.INTER.ROT>
9

>  <SCORE.INTER.SOLV>
25.0099

>  <SCORE.INTER.VDW>
-23.3166

>  <SCORE.INTER.norm>
-0.192141

>  <SCORE.INTRA>
4.00731

>  <SCORE.INTRA.DIHEDRAL>
-1.02596

>  <SCORE.INTRA.DIHEDRAL.0>
16.2863

>  <SCORE.INTRA.POLAR>
0

>  <SCORE.INTRA.POLAR.0>
0

>  <SCORE.INTRA.REPUL>
-0.314433

>  <SCORE.INTRA.REPUL.0>
0.314433

>  <SCORE.INTRA.SOLV>
0.362058

>  <SCORE.INTRA.SOLV.lig_0>
-103.824

>  <SCORE.INTRA.VDW>
5.91142

>  <SCORE.INTRA.VDW.0>
-5.30945

>  <SCORE.INTRA.norm>
0.0954121

>  <SCORE.RESTR>
5.25494

>  <SCORE.RESTR.CAVITY>
5.25494

>  <SCORE.RESTR.norm>
0.125118

>  <SCORE.SYSTEM>
0

>  <SCORE.SYSTEM.CONST>
0

>  <SCORE.SYSTEM.DIHEDRAL>
0

>  <SCORE.SYSTEM.SOLV>
0

>  <SCORE.SYSTEM.norm>
0

>  <SCORE.heavy>
42

>  <SCORE.norm>
0.0283881

>  <RMSD>
10.365

$$$$
lig.pdb
 OpenBabel11021811513D
libRbt.so/2013.1/901 2013/11/27
 42 45  0  0  0  0  0  0  0  0999 V2000
   -2.7192    8.5728   41.8063 C   0  0  2  0  0  0  0  0  0  0  0  0
   -2.3816    8.4587   40.3885 O   0  0  0  0  0  0  0  0  0  0  0  0
   -1.3539    8.8962   42.5621 C   0  0  2  0  0  0  0  0  0  0  0  0
   -0.8060   10.1740   42.0988 N   0  0  0  0  0  0  0  0  0  0  0  0
   -0.3331    7.6782   42.3292 C   0  0  1  0  0  0  0  0  0  0  0  0
    0.9209    7.9134   43.0035 O   0  0  0  0  0  0  0  0  0  0  0  0
   -1.0224    6.4029   42.8440 C   0  0  2  0  0  0  0  0  0  0  0  0
   -0.1679    5.3266   42.6566 O   0  0  0  0  0  0  0  0  0  0  0  0
   -2.3997    6.1784   42.0688 C   0  0  2  0  0  0  0  0  0  0  0  0
   -3.2892    7.2861   42.2571 O   0  0  0  0  0  0  0  0  0  0  0  0
   -3.1236    4.9526   42.5490 C   0  0  0  0  0  0  0  0  0  0  0  0
   -2.4100    3.8129   42.0678 O   0  0  0  0  0  0  0  0  0  0  0  0
   -4.4061    9.2455   36.5084 C   0  0  2  0  0  0  0  0  0  0  0  0
   -5.3700    9.1852   35.4312 N   0  0  0  0  0  0  0  0  0  0  0  0
   -3.8680    7.7997   36.8385 C   0  0  0  0  0  0  0  0  0  0  0  0
   -2.8226    7.8373   38.0083 C   0  0  2  0  0  0  0  0  0  0  0  0
   -2.3557    6.4808   38.2868 N   0  0  0  0  0  0  0  0  0  0  0  0
   -3.4285    8.4548   39.3462 C   0  0  2  0  0  0  0  0  0  0  0  0
   -3.9204    9.8933   39.0138 C   0  0  2  0  0  0  0  0  0  0  0  0
   -4.4660   10.4063   40.3260 O   0  0  0  0  0  0  0  0  0  0  0  0
   -5.0530    9.8406   37.8468 C   0  0  1  0  0  0  0  0  0  0  0  0
   -5.5520   11.1458   37.4114 O   0  0  0  0  0  0  0  0  0  0  0  0
   -4.6843   11.7582   40.2818 C   0  0  1  0  0  0  0  0  0  0  0  0
   -5.3911   12.2660   41.4624 C   0  0  2  0  0  0  0  0  0  0  0  0
   -6.7147   11.8471   41.3664 O   0  0  0  0  0  0  0  0  0  0  0  0
   -5.0498   13.7699   41.3916 C   0  0  2  0  0  0  0  0  0  0  0  0
   -6.3037   14.4760   41.2540 O   0  0  0  0  0  0  0  0  0  0  0  0
   -4.1795   13.9093   40.1863 C   0  0  2  0  0  0  0  0  0  0  0  0
   -3.5347   12.5882   40.2676 O   0  0  0  0  0  0  0  0  0  0  0  0
   -3.1113   15.0501   40.3649 C   0  0  0  0  0  0  0  0  0  0  0  0
   -2.1927   14.8234   41.4757 O   0  0  0  0  0  0  0  0  0  0  0  0
   -6.2299   15.9203   41.0556 C   0  0  2  0  0  0  0  0  0  0  0  0
   -7.7176   16.5356   41.2049 C   0  0  2  0  0  0  0  0  0  0  0  0
   -8.6230   15.8843   40.2035 N   0  0  0  0  0  0  0  0  0  0  0  0
   -7.6269   18.1259   40.9888 C   0  0  1  0  0  0  0  0  0  0  0  0
   -6.7198   18.6509   42.0053 O   0  0  0  0  0  0  0  0  0  0  0  0
   -7.0830   18.4317   39.5208 C   0  0  2  0  0  0  0  0  0  0  0  0
   -8.0585   17.8839   38.5520 O   0  0  0  0  0  0  0  0  0  0  0  0
   -5.6067   17.7528   39.3739 C   0  0  1  0  0  0  0  0  0  0  0  0
   -5.7003   16.2731   39.6505 O   0  0  0  0  0  0  0  0  0  0  0  0
   -5.0488   18.0187   37.9363 C   0  0  0  0  0  0  0  0  0  0  0  0
   -3.6635   17.4884   37.7442 N   0  0  0  0  0  0  0  0  0  0  0  0
  1  3  1  0  0  0  0
  1  2  1  6  0  0  0
  3  4  1  6  0  0  0
  3  5  1  0  0  0  0
  5  6  1  1  0  0  0
  7  8  1  6  0  0  0
  7  5  1  0  0  0  0
  9 11  1  1  0  0  0
  9  7  1  0  0  0  0
 10  9  1  0  0  0  0
 10  1  1  0  0  0  0
 12 11  1  0  0  0  0
 13 14  1  6  0  0  0
 15 13  1  0  0  0  0
 16 17  1  1  0  0  0
 16 15  1  0  0  0  0
 18  2  1  1  0  0  0
 18 19  1  0  0  0  0
 18 16  1  0  0  0  0
 19 20  1  1  0  0  0
 19 21  1  0  0  0  0
 21 22  1  6  0  0  0
 21 13  1  0  0  0  0
 23 20  1  1  0  0  0
 23 29  1  0  0  0  0
 24 25  1  6  0  0  0
 24 26  1  0  0  0  0
 24 23  1  0  0  0  0
 26 27  1  6  0  0  0
 26 28  1  0  0  0  0
 28 30  1  1  0  0  0
 29 28  1  0  0  0  0
 30 31  1  0  0  0  0
 32 27  1  6  0  0  0
 32 40  1  0  0  0  0
 33 35  1  0  0  0  0
 33 32  1  0  0  0  0
 33 34  1  6  0  0  0
 35 36  1  1  0  0  0
 35 37  1  0  0  0  0
 37 38  1  6  0  0  0
 37 39  1  0  0  0  0
 39 41  1  6  0  0  0
 40 39  1  0  0  0  0
 41 42  1  0  0  0  0
M  END
>  <CHROM.1>
-166.53158844,-72.28572916,-161.02504044,167.19324316,171.73946390,-175.09816180
61.07487439,-169.52412799,176.96410433,-4.12407773,11.59777072,40.30912711
-0.75942392,-0.99846892,0.59875621

>  <Name>
lig.pdb

>  <RI>
0

>  <Rbt.Current_Directory>
/home/itssahil/PROJECTS/Mol_Feturizer/New_Systems/rnas/4wcr

>  <Rbt.Executable>
rbdock ($Id: //depot/dev/client3/rdock/2013.1/src/exe/rbdock.cxx#4 $)

>  <Rbt.Library>
libRbt.so (2013.1, Build901 2013/11/27)

>  <Rbt.Parameter_File>
/export/apps/rDock/src/rDock_2013.1_src/data/scripts/dock_solv.prm

>  <Rbt.Receptor>
prm/pocket_docking_5.prm

>  <SCORE>
-5.38329

>  <SCORE.INTER>
2.85508

>  <SCORE.INTER.CONST>
1

>  <SCORE.INTER.POLAR>
0

>  <SCORE.INTER.ROT>
9

>  <SCORE.INTER.SOLV>
13.2655

>  <SCORE.INTER.VDW>
-12.1184

>  <SCORE.INTER.norm>
0.0679781

>  <SCORE.INTRA>
-8.23837

>  <SCORE.INTRA.DIHEDRAL>
-10.9442

>  <SCORE.INTRA.DIHEDRAL.0>
16.2863

>  <SCORE.INTRA.POLAR>
0

>  <SCORE.INTRA.POLAR.0>
0

>  <SCORE.INTRA.REPUL>
-0.314433

>  <SCORE.INTRA.REPUL.0>
0.314433

>  <SCORE.INTRA.SOLV>
-4.11191

>  <SCORE.INTRA.SOLV.lig_0>
-103.824

>  <SCORE.INTRA.VDW>
0.861851

>  <SCORE.INTRA.VDW.0>
-5.30945

>  <SCORE.INTRA.norm>
-0.196152

>  <SCORE.RESTR>
0

>  <SCORE.RESTR.CAVITY>
0

>  <SCORE.RESTR.norm>
0

>  <SCORE.SYSTEM>
0

>  <SCORE.SYSTEM.CONST>
0

>  <SCORE.SYSTEM.DIHEDRAL>
0

>  <SCORE.SYSTEM.SOLV>
0

>  <SCORE.SYSTEM.norm>
0

>  <SCORE.heavy>
42

>  <SCORE.norm>
-0.128173

>  <RMSD>
10.367

$$$$
lig.pdb
 OpenBabel11021811513D
libRbt.so/2013.1/901 2013/11/27
 42 45  0  0  0  0  0  0  0  0999 V2000
    0.7241   13.2472   36.2249 C   0  0  2  0  0  0  0  0  0  0  0  0
    0.2901   13.6077   37.5735 O   0  0  0  0  0  0  0  0  0  0  0  0
   -0.4678   12.4034   35.5866 C   0  0  2  0  0  0  0  0  0  0  0  0
   -1.6789   13.2233   35.4937 N   0  0  0  0  0  0  0  0  0  0  0  0
   -0.6961   11.0816   36.4699 C   0  0  1  0  0  0  0  0  0  0  0  0
   -1.7607   10.2712   35.9290 O   0  0  0  0  0  0  0  0  0  0  0  0
    0.6388   10.3175   36.4980 C   0  0  2  0  0  0  0  0  0  0  0  0
    0.4792    9.1671   37.2561 O   0  0  0  0  0  0  0  0  0  0  0  0
    1.7846   11.2470   37.1075 C   0  0  2  0  0  0  0  0  0  0  0  0
    1.9565   12.4385   36.3301 O   0  0  0  0  0  0  0  0  0  0  0  0
    3.1165   10.5524   37.1395 C   0  0  0  0  0  0  0  0  0  0  0  0
    3.3860   10.0734   35.8214 O   0  0  0  0  0  0  0  0  0  0  0  0
    1.0344   16.8136   40.5636 C   0  0  2  0  0  0  0  0  0  0  0  0
    1.7272   17.7448   41.4272 N   0  0  0  0  0  0  0  0  0  0  0  0
    1.5236   15.3409   40.8476 C   0  0  0  0  0  0  0  0  0  0  0  0
    0.7894   14.3107   39.9193 C   0  0  2  0  0  0  0  0  0  0  0  0
    1.2752   12.9631   40.2086 N   0  0  0  0  0  0  0  0  0  0  0  0
    1.0171   14.6156   38.3722 C   0  0  2  0  0  0  0  0  0  0  0  0
    0.4958   16.0564   38.1000 C   0  0  2  0  0  0  0  0  0  0  0  0
    0.7374   16.2605   36.6226 O   0  0  0  0  0  0  0  0  0  0  0  0
    1.3082   17.1269   39.0173 C   0  0  1  0  0  0  0  0  0  0  0  0
    0.8639   18.5152   38.8857 O   0  0  0  0  0  0  0  0  0  0  0  0
   -0.0684   17.2462   36.1163 C   0  0  1  0  0  0  0  0  0  0  0  0
    0.6554   18.2066   35.2766 C   0  0  2  0  0  0  0  0  0  0  0  0
    1.4297   18.9963   36.1213 O   0  0  0  0  0  0  0  0  0  0  0  0
   -0.5041   18.8381   34.4766 C   0  0  2  0  0  0  0  0  0  0  0  0
   -0.5108   20.2482   34.7946 O   0  0  0  0  0  0  0  0  0  0  0  0
   -1.7304   18.1366   34.9604 C   0  0  2  0  0  0  0  0  0  0  0  0
   -1.1031   16.8340   35.2387 O   0  0  0  0  0  0  0  0  0  0  0  0
   -2.8082   17.9918   33.8238 C   0  0  0  0  0  0  0  0  0  0  0  0
   -2.4368   17.0394   32.7827 O   0  0  0  0  0  0  0  0  0  0  0  0
   -0.8796   21.1655   33.7207 C   0  0  2  0  0  0  0  0  0  0  0  0
   -1.0586   22.6448   34.3482 C   0  0  2  0  0  0  0  0  0  0  0  0
   -2.1028   22.6013   35.4226 N   0  0  0  0  0  0  0  0  0  0  0  0
   -1.4607   23.6490   33.1591 C   0  0  1  0  0  0  0  0  0  0  0  0
   -0.3851   23.6063   32.1727 O   0  0  0  0  0  0  0  0  0  0  0  0
   -2.8460   23.1850   32.5185 C   0  0  2  0  0  0  0  0  0  0  0  0
   -3.8833   23.2686   33.5708 O   0  0  0  0  0  0  0  0  0  0  0  0
   -2.6582   21.6696   31.9439 C   0  0  1  0  0  0  0  0  0  0  0  0
   -2.2117   20.7573   33.0589 O   0  0  0  0  0  0  0  0  0  0  0  0
   -4.0062   21.1746   31.3223 C   0  0  0  0  0  0  0  0  0  0  0  0
   -5.1264   21.1469   32.3131 N   0  0  0  0  0  0  0  0  0  0  0  0
  1  3  1  0  0  0  0
  1  2  1  1  0  0  0
  3  4  1  1  0  0  0
  3  5  1  0  0  0  0
  5  6  1  6  0  0  0
  7  8  1  1  0  0  0
  7  5  1  0  0  0  0
  9 11  1  6  0  0  0
  9  7  1  0  0  0  0
 10  9  1  0  0  0  0
 10  1  1  0  0  0  0
 12 11  1  0  0  0  0
 13 14  1  1  0  0  0
 15 13  1  0  0  0  0
 16 17  1  1  0  0  0
 16 15  1  0  0  0  0
 18  2  1  6  0  0  0
 18 19  1  0  0  0  0
 18 16  1  0  0  0  0
 19 20  1  6  0  0  0
 19 21  1  0  0  0  0
 21 22  1  6  0  0  0
 21 13  1  0  0  0  0
 23 20  1  6  0  0  0
 23 29  1  0  0  0  0
 24 25  1  1  0  0  0
 24 26  1  0  0  0  0
 24 23  1  0  0  0  0
 26 27  1  1  0  0  0
 26 28  1  0  0  0  0
 28 30  1  6  0  0  0
 29 28  1  0  0  0  0
 30 31  1  0  0  0  0
 32 27  1  1  0  0  0
 32 40  1  0  0  0  0
 33 35  1  0  0  0  0
 33 32  1  0  0  0  0
 33 34  1  1  0  0  0
 35 36  1  6  0  0  0
 35 37  1  0  0  0  0
 37 38  1  1  0  0  0
 37 39  1  0  0  0  0
 39 41  1  1  0  0  0
 40 39  1  0  0  0  0
 41 42  1  0  0  0  0
M  END
>  <CHROM.1>
-167.65007245,53.47019399,-153.42460868,158.28912011,132.99904744,144.77518365
70.57948471,170.78999896,-60.16803009,-0.35925488,16.78594640,35.89198840
0.95186865,1.03806676,-3.00126740

>  <Name>
lig.pdb

>  <RI>
0

>  <Rbt.Current_Directory>
/home/itssahil/PROJECTS/Mol_Feturizer/New_Systems/rnas/4wcr

>  <Rbt.Executable>
rbdock ($Id: //depot/dev/client3/rdock/2013.1/src/exe/rbdock.cxx#4 $)

>  <Rbt.Library>
libRbt.so (2013.1, Build901 2013/11/27)

>  <Rbt.Parameter_File>
/export/apps/rDock/src/rDock_2013.1_src/data/scripts/dock_solv.prm

>  <Rbt.Receptor>
prm/pocket_docking_8.prm

>  <SCORE>
-11.0124

>  <SCORE.INTER>
-9.4847

>  <SCORE.INTER.CONST>
1

>  <SCORE.INTER.POLAR>
0

>  <SCORE.INTER.ROT>
9

>  <SCORE.INTER.SOLV>
25.8993

>  <SCORE.INTER.VDW>
-24.5562

>  <SCORE.INTER.norm>
-0.225826

>  <SCORE.INTRA>
-1.52772

>  <SCORE.INTRA.DIHEDRAL>
1.67336

>  <SCORE.INTRA.DIHEDRAL.0>
16.2863

>  <SCORE.INTRA.POLAR>
0

>  <SCORE.INTRA.POLAR.0>
0

>  <SCORE.INTRA.REPUL>
-0.314433

>  <SCORE.INTRA.REPUL.0>
0.314433

>  <SCORE.INTRA.SOLV>
-1.39332

>  <SCORE.INTRA.SOLV.lig_0>
-103.824

>  <SCORE.INTRA.VDW>
-0.0955753

>  <SCORE.INTRA.VDW.0>
-5.30945

>  <SCORE.INTRA.norm>
-0.0363743

>  <SCORE.RESTR>
0

>  <SCORE.RESTR.CAVITY>
0

>  <SCORE.RESTR.norm>
0

>  <SCORE.SYSTEM>
0

>  <SCORE.SYSTEM.CONST>
0

>  <SCORE.SYSTEM.DIHEDRAL>
0

>  <SCORE.SYSTEM.SOLV>
0

>  <SCORE.SYSTEM.norm>
0

>  <SCORE.heavy>
42

>  <SCORE.norm>
-0.262201

>  <RMSD>
10.406

$$$$
lig.pdb
 OpenBabel11021811513D
libRbt.so/2013.1/901 2013/11/27
 42 45  0  0  0  0  0  0  0  0999 V2000
   -1.7025    3.7039   36.4632 C   0  0  2  0  0  0  0  0  0  0  0  0
   -2.5350    4.4820   37.3790 O   0  0  0  0  0  0  0  0  0  0  0  0
   -0.5614    4.6927   35.9532 C   0  0  2  0  0  0  0  0  0  0  0  0
    0.2618    5.1434   37.0787 N   0  0  0  0  0  0  0  0  0  0  0  0
   -1.2492    5.9182   35.1754 C   0  0  1  0  0  0  0  0  0  0  0  0
   -0.2579    6.8427   34.6801 O   0  0  0  0  0  0  0  0  0  0  0  0
   -2.0857    5.3187   34.0321 C   0  0  2  0  0  0  0  0  0  0  0  0
   -2.6978    6.3514   33.3374 O   0  0  0  0  0  0  0  0  0  0  0  0
   -3.1709    4.3087   34.6241 C   0  0  2  0  0  0  0  0  0  0  0  0
   -2.5471    3.2379   35.3437 O   0  0  0  0  0  0  0  0  0  0  0  0
   -4.0041    3.6796   33.5437 C   0  0  0  0  0  0  0  0  0  0  0  0
   -4.9685    2.8376   34.1766 O   0  0  0  0  0  0  0  0  0  0  0  0
   -2.3860    5.6759   41.6597 C   0  0  2  0  0  0  0  0  0  0  0  0
   -1.8728    6.0887   42.9478 N   0  0  0  0  0  0  0  0  0  0  0  0
   -1.6624    4.3577   41.1828 C   0  0  0  0  0  0  0  0  0  0  0  0
   -2.1989    3.8909   39.7839 C   0  0  2  0  0  0  0  0  0  0  0  0
   -1.4996    2.6741   39.3763 N   0  0  0  0  0  0  0  0  0  0  0  0
   -1.9998    4.9980   38.6555 C   0  0  2  0  0  0  0  0  0  0  0  0
   -2.7499    6.2789   39.1226 C   0  0  2  0  0  0  0  0  0  0  0  0
   -2.5215    7.2664   38.0022 O   0  0  0  0  0  0  0  0  0  0  0  0
   -2.1430    6.7957   40.5411 C   0  0  1  0  0  0  0  0  0  0  0  0
   -2.8107    7.9683   41.1078 O   0  0  0  0  0  0  0  0  0  0  0  0
   -3.2674    8.4023   38.1777 C   0  0  1  0  0  0  0  0  0  0  0  0
   -3.1070    9.3704   37.0877 C   0  0  2  0  0  0  0  0  0  0  0  0
   -1.8436    9.9390   37.2193 O   0  0  0  0  0  0  0  0  0  0  0  0
   -4.3687   10.2405   37.2721 C   0  0  2  0  0  0  0  0  0  0  0  0
   -3.9121   11.5855   37.5407 O   0  0  0  0  0  0  0  0  0  0  0  0
   -5.0845    9.6363   38.4350 C   0  0  2  0  0  0  0  0  0  0  0  0
   -4.6759    8.2412   38.2016 O   0  0  0  0  0  0  0  0  0  0  0  0
   -6.6452    9.7782   38.2990 C   0  0  0  0  0  0  0  0  0  0  0  0
   -7.2022    9.0529   37.1619 O   0  0  0  0  0  0  0  0  0  0  0  0
   -4.9367   12.6170   37.6714 C   0  0  2  0  0  0  0  0  0  0  0  0
   -4.2324   14.0634   37.5102 C   0  0  2  0  0  0  0  0  0  0  0  0
   -3.1633   14.2096   38.5505 N   0  0  0  0  0  0  0  0  0  0  0  0
   -5.3675   15.1928   37.6516 C   0  0  1  0  0  0  0  0  0  0  0  0
   -6.3532   14.9510   36.6020 O   0  0  0  0  0  0  0  0  0  0  0  0
   -6.0336   15.0974   39.0978 C   0  0  2  0  0  0  0  0  0  0  0  0
   -4.9799   15.3665   40.1016 O   0  0  0  0  0  0  0  0  0  0  0  0
   -6.6870   13.6112   39.2596 C   0  0  1  0  0  0  0  0  0  0  0  0
   -5.6210   12.5645   39.0528 O   0  0  0  0  0  0  0  0  0  0  0  0
   -7.3358   13.4760   40.6772 C   0  0  0  0  0  0  0  0  0  0  0  0
   -8.0043   12.1543   40.8857 N   0  0  0  0  0  0  0  0  0  0  0  0
  1  3  1  0  0  0  0
  1  2  1  1  0  0  0
  3  4  1  1  0  0  0
  3  5  1  0  0  0  0
  5  6  1  6  0  0  0
  7  8  1  1  0  0  0
  7  5  1  0  0  0  0
  9 11  1  6  0  0  0
  9  7  1  0  0  0  0
 10  9  1  0  0  0  0
 10  1  1  0  0  0  0
 12 11  1  0  0  0  0
 13 14  1  1  0  0  0
 15 13  1  0  0  0  0
 16 17  1  6  0  0  0
 16 15  1  0  0  0  0
 18  2  1  6  0  0  0
 18 19  1  0  0  0  0
 18 16  1  0  0  0  0
 19 20  1  6  0  0  0
 19 21  1  0  0  0  0
 21 22  1  1  0  0  0
 21 13  1  0  0  0  0
 23 20  1  6  0  0  0
 23 29  1  0  0  0  0
 24 25  1  1  0  0  0
 24 26  1  0  0  0  0
 24 23  1  0  0  0  0
 26 27  1  1  0  0  0
 26 28  1  0  0  0  0
 28 30  1  6  0  0  0
 29 28  1  0  0  0  0
 30 31  1  0  0  0  0
 32 27  1  1  0  0  0
 32 40  1  0  0  0  0
 33 35  1  0  0  0  0
 33 32  1  0  0  0  0
 33 34  1  1  0  0  0
 35 36  1  6  0  0  0
 35 37  1  0  0  0  0
 37 38  1  1  0  0  0
 37 39  1  0  0  0  0
 39 41  1  1  0  0  0
 40 39  1  0  0  0  0
 41 42  1  0  0  0  0
M  END
>  <CHROM.1>
-65.16723334,-177.92513041,-88.30905601,172.10739044,-178.15857694,176.34284327
64.05817958,-162.78679182,177.82745457,-3.59316825,8.39255433,37.83998814
0.37108884,1.18002528,-1.74868649

>  <Name>
lig.pdb

>  <RI>
0

>  <Rbt.Current_Directory>
/home/itssahil/PROJECTS/Mol_Feturizer/New_Systems/rnas/4wcr

>  <Rbt.Executable>
rbdock ($Id: //depot/dev/client3/rdock/2013.1/src/exe/rbdock.cxx#4 $)

>  <Rbt.Library>
libRbt.so (2013.1, Build901 2013/11/27)

>  <Rbt.Parameter_File>
/export/apps/rDock/src/rDock_2013.1_src/data/scripts/dock_solv.prm

>  <Rbt.Receptor>
prm/pocket_docking_5.prm

>  <SCORE>
-3.20355

>  <SCORE.INTER>
3.70261

>  <SCORE.INTER.CONST>
1

>  <SCORE.INTER.POLAR>
0

>  <SCORE.INTER.ROT>
9

>  <SCORE.INTER.SOLV>
17.9714

>  <SCORE.INTER.VDW>
-13.1221

>  <SCORE.INTER.norm>
0.0881574

>  <SCORE.INTRA>
-6.90616

>  <SCORE.INTRA.DIHEDRAL>
-10.512

>  <SCORE.INTRA.DIHEDRAL.0>
16.2863

>  <SCORE.INTRA.POLAR>
0

>  <SCORE.INTRA.POLAR.0>
0

>  <SCORE.INTRA.REPUL>
-0.314433

>  <SCORE.INTRA.REPUL.0>
0.314433

>  <SCORE.INTRA.SOLV>
-1.77181

>  <SCORE.INTRA.SOLV.lig_0>
-103.824

>  <SCORE.INTRA.VDW>
0.807928

>  <SCORE.INTRA.VDW.0>
-5.30945

>  <SCORE.INTRA.norm>
-0.164432

>  <SCORE.RESTR>
0

>  <SCORE.RESTR.CAVITY>
0

>  <SCORE.RESTR.norm>
0

>  <SCORE.SYSTEM>
0

>  <SCORE.SYSTEM.CONST>
0

>  <SCORE.SYSTEM.DIHEDRAL>
0

>  <SCORE.SYSTEM.SOLV>
0

>  <SCORE.SYSTEM.norm>
0

>  <SCORE.heavy>
42

>  <SCORE.norm>
-0.0762751

>  <RMSD>
10.422

$$$$
lig.pdb
 OpenBabel11021811513D
libRbt.so/2013.1/901 2013/11/27
 42 45  0  0  0  0  0  0  0  0999 V2000
   -1.2422    6.1820   33.8078 C   0  0  2  0  0  0  0  0  0  0  0  0
   -0.9280    7.3329   34.6527 O   0  0  0  0  0  0  0  0  0  0  0  0
   -1.7231    6.7769   32.4097 C   0  0  2  0  0  0  0  0  0  0  0  0
   -0.6428    7.5453   31.7850 N   0  0  0  0  0  0  0  0  0  0  0  0
   -3.0388    7.6659   32.6514 C   0  0  1  0  0  0  0  0  0  0  0  0
   -3.5261    8.2224   31.4123 O   0  0  0  0  0  0  0  0  0  0  0  0
   -4.0869    6.7555   33.3142 C   0  0  2  0  0  0  0  0  0  0  0  0
   -5.2398    7.4927   33.5402 O   0  0  0  0  0  0  0  0  0  0  0  0
   -3.5096    6.1675   34.6814 C   0  0  2  0  0  0  0  0  0  0  0  0
   -2.3177    5.4040   34.4572 O   0  0  0  0  0  0  0  0  0  0  0  0
   -4.4901    5.2541   35.3608 C   0  0  0  0  0  0  0  0  0  0  0  0
   -3.8917    4.8060   36.5777 O   0  0  0  0  0  0  0  0  0  0  0  0
    1.0081    7.2460   38.6548 C   0  0  2  0  0  0  0  0  0  0  0  0
    2.0111    7.0947   39.6863 N   0  0  0  0  0  0  0  0  0  0  0  0
    0.9020    5.9237   37.8009 C   0  0  0  0  0  0  0  0  0  0  0  0
   -0.1776    6.0638   36.6708 C   0  0  2  0  0  0  0  0  0  0  0  0
   -0.2391    4.8233   35.9006 N   0  0  0  0  0  0  0  0  0  0  0  0
    0.1353    7.2686   35.6763 C   0  0  2  0  0  0  0  0  0  0  0  0
    0.1997    8.5699   36.5272 C   0  0  2  0  0  0  0  0  0  0  0  0
    0.4876    9.6550   35.5161 O   0  0  0  0  0  0  0  0  0  0  0  0
    1.3668    8.4434   37.6538 C   0  0  1  0  0  0  0  0  0  0  0  0
    1.4836    9.5920   38.5534 O   0  0  0  0  0  0  0  0  0  0  0  0
    0.2349   10.8987   36.0325 C   0  0  1  0  0  0  0  0  0  0  0  0
    0.9610   11.9681   35.3395 C   0  0  2  0  0  0  0  0  0  0  0  0
    2.2994   11.8676   35.7072 O   0  0  0  0  0  0  0  0  0  0  0  0
    0.1370   13.2062   35.7535 C   0  0  2  0  0  0  0  0  0  0  0  0
    1.0325   14.0799   36.4778 O   0  0  0  0  0  0  0  0  0  0  0  0
   -0.9578   12.6679   36.6143 C   0  0  2  0  0  0  0  0  0  0  0  0
   -1.1009   11.3657   35.9423 O   0  0  0  0  0  0  0  0  0  0  0  0
   -2.2814   13.5055   36.4694 C   0  0  0  0  0  0  0  0  0  0  0  0
   -2.8062   13.5401   35.1083 O   0  0  0  0  0  0  0  0  0  0  0  0
    0.6719   15.4932   36.5367 C   0  0  2  0  0  0  0  0  0  0  0  0
    1.8365   16.2874   37.3286 C   0  0  2  0  0  0  0  0  0  0  0  0
    1.9917   15.6976   38.6978 N   0  0  0  0  0  0  0  0  0  0  0  0
    1.4338   17.8425   37.3857 C   0  0  1  0  0  0  0  0  0  0  0  0
    1.3025   18.3075   36.0080 O   0  0  0  0  0  0  0  0  0  0  0  0
    0.0604   18.0061   38.1803 C   0  0  2  0  0  0  0  0  0  0  0  0
    0.2771   17.5290   39.5644 O   0  0  0  0  0  0  0  0  0  0  0  0
   -1.0860   17.1503   37.3958 C   0  0  1  0  0  0  0  0  0  0  0  0
   -0.6570   15.7083   37.2896 O   0  0  0  0  0  0  0  0  0  0  0  0
   -2.4462   17.2743   38.1593 C   0  0  0  0  0  0  0  0  0  0  0  0
   -3.0368   18.6458   38.0737 N   0  0  0  0  0  0  0  0  0  0  0  0
  1  3  1  0  0  0  0
  1  2  1  1  0  0  0
  3  4  1  1  0  0  0
  3  5  1  0  0  0  0
  5  6  1  6  0  0  0
  7  8  1  1  0  0  0
  7  5  1  0  0  0  0
  9 11  1  6  0  0  0
  9  7  1  0  0  0  0
 10  9  1  0  0  0  0
 10  1  1  0  0  0  0
 12 11  1  0  0  0  0
 13 14  1  1  0  0  0
 15 13  1  0  0  0  0
 16 17  1  6  0  0  0
 16 15  1  0  0  0  0
 18  2  1  6  0  0  0
 18 19  1  0  0  0  0
 18 16  1  0  0  0  0
 19 20  1  6  0  0  0
 19 21  1  0  0  0  0
 21 22  1  1  0  0  0
 21 13  1  0  0  0  0
 23 20  1  6  0  0  0
 23 29  1  0  0  0  0
 24 25  1  1  0  0  0
 24 26  1  0  0  0  0
 24 23  1  0  0  0  0
 26 27  1  1  0  0  0
 26 28  1  0  0  0  0
 28 30  1  6  0  0  0
 29 28  1  0  0  0  0
 30 31  1  0  0  0  0
 32 27  1  1  0  0  0
 32 40  1  0  0  0  0
 33 35  1  0  0  0  0
 33 32  1  0  0  0  0
 33 34  1  1  0  0  0
 35 36  1  6  0  0  0
 35 37  1  0  0  0  0
 37 38  1  1  0  0  0
 37 39  1  0  0  0  0
 39 41  1  1  0  0  0
 40 39  1  0  0  0  0
 41 42  1  0  0  0  0
M  END
>  <CHROM.1>
-148.14223126,-178.88773325,-56.51190860,164.16610768,157.48007479,157.45295848
59.48200055,-177.41944058,69.39018377,-0.72646817,10.85369521,36.07042192
1.81142236,0.68779874,-3.04141332

>  <Name>
lig.pdb

>  <RI>
0

>  <Rbt.Current_Directory>
/home/itssahil/PROJECTS/Mol_Feturizer/New_Systems/rnas/4wcr

>  <Rbt.Executable>
rbdock ($Id: //depot/dev/client3/rdock/2013.1/src/exe/rbdock.cxx#4 $)

>  <Rbt.Library>
libRbt.so (2013.1, Build901 2013/11/27)

>  <Rbt.Parameter_File>
/export/apps/rDock/src/rDock_2013.1_src/data/scripts/dock_solv.prm

>  <Rbt.Receptor>
prm/pocket_docking_6.prm

>  <SCORE>
-7.79829

>  <SCORE.INTER>
-3.71122

>  <SCORE.INTER.CONST>
1

>  <SCORE.INTER.POLAR>
0

>  <SCORE.INTER.ROT>
9

>  <SCORE.INTER.SOLV>
22.4768

>  <SCORE.INTER.VDW>
-19.5664

>  <SCORE.INTER.norm>
-0.0883625

>  <SCORE.INTRA>
-4.08707

>  <SCORE.INTRA.DIHEDRAL>
-5.83357

>  <SCORE.INTRA.DIHEDRAL.0>
16.2863

>  <SCORE.INTRA.POLAR>
0

>  <SCORE.INTRA.POLAR.0>
0

>  <SCORE.INTRA.REPUL>
-0.308494

>  <SCORE.INTRA.REPUL.0>
0.314433

>  <SCORE.INTRA.SOLV>
-2.68462

>  <SCORE.INTRA.SOLV.lig_0>
-103.824

>  <SCORE.INTRA.VDW>
1.7145

>  <SCORE.INTRA.VDW.0>
-5.30945

>  <SCORE.INTRA.norm>
-0.0973112

>  <SCORE.RESTR>
0

>  <SCORE.RESTR.CAVITY>
0

>  <SCORE.RESTR.norm>
0

>  <SCORE.SYSTEM>
0

>  <SCORE.SYSTEM.CONST>
0

>  <SCORE.SYSTEM.DIHEDRAL>
0

>  <SCORE.SYSTEM.SOLV>
0

>  <SCORE.SYSTEM.norm>
0

>  <SCORE.heavy>
42

>  <SCORE.norm>
-0.185674

>  <RMSD>
10.432

$$$$
lig.pdb
 OpenBabel11021811513D
libRbt.so/2013.1/901 2013/11/27
 42 45  0  0  0  0  0  0  0  0999 V2000
   -2.8309    6.9105   34.4339 C   0  0  2  0  0  0  0  0  0  0  0  0
   -3.4920    6.1426   35.4876 O   0  0  0  0  0  0  0  0  0  0  0  0
   -3.9956    7.5175   33.5310 C   0  0  2  0  0  0  0  0  0  0  0  0
   -4.8353    8.4205   34.3229 N   0  0  0  0  0  0  0  0  0  0  0  0
   -4.8386    6.3081   32.8932 C   0  0  1  0  0  0  0  0  0  0  0  0
   -5.9037    6.8017   32.0538 O   0  0  0  0  0  0  0  0  0  0  0  0
   -3.8513    5.4345   32.1004 C   0  0  2  0  0  0  0  0  0  0  0  0
   -4.5463    4.3755   31.5353 O   0  0  0  0  0  0  0  0  0  0  0  0
   -2.6955    4.9063   33.0666 C   0  0  2  0  0  0  0  0  0  0  0  0
   -1.9719    5.9942   33.6553 O   0  0  0  0  0  0  0  0  0  0  0  0
   -1.6916    4.0611   32.3352 C   0  0  0  0  0  0  0  0  0  0  0  0
   -0.8456    3.4526   33.3117 O   0  0  0  0  0  0  0  0  0  0  0  0
   -2.4011    4.8158   39.5891 C   0  0  2  0  0  0  0  0  0  0  0  0
   -1.7229    4.1388   40.6730 N   0  0  0  0  0  0  0  0  0  0  0  0
   -2.9212    3.7660   38.5326 C   0  0  0  0  0  0  0  0  0  0  0  0
   -3.6578    4.4763   37.3429 C   0  0  2  0  0  0  0  0  0  0  0  0
   -4.1163    3.4717   36.3857 N   0  0  0  0  0  0  0  0  0  0  0  0
   -2.7221    5.5179   36.5829 C   0  0  2  0  0  0  0  0  0  0  0  0
   -2.2477    6.5675   37.6293 C   0  0  2  0  0  0  0  0  0  0  0  0
   -1.3820    7.5147   36.8319 O   0  0  0  0  0  0  0  0  0  0  0  0
   -1.4266    5.8315   38.8258 C   0  0  1  0  0  0  0  0  0  0  0  0
   -0.9766    6.7167   39.9011 O   0  0  0  0  0  0  0  0  0  0  0  0
   -1.3605    8.7644   37.3933 C   0  0  1  0  0  0  0  0  0  0  0  0
   -0.3410    9.6411   36.8074 C   0  0  2  0  0  0  0  0  0  0  0  0
    0.8981    9.1978   37.2598 O   0  0  0  0  0  0  0  0  0  0  0  0
   -0.8646   11.0313   37.2275 C   0  0  2  0  0  0  0  0  0  0  0  0
    0.1585   11.6295   38.0552 O   0  0  0  0  0  0  0  0  0  0  0  0
   -2.1227   10.7550   37.9829 C   0  0  2  0  0  0  0  0  0  0  0  0
   -2.5286    9.5526   37.2364 O   0  0  0  0  0  0  0  0  0  0  0  0
   -3.1835   11.9006   37.7913 C   0  0  0  0  0  0  0  0  0  0  0  0
   -2.7586   13.1881   38.3307 O   0  0  0  0  0  0  0  0  0  0  0  0
    0.1447   13.0843   38.1740 C   0  0  2  0  0  0  0  0  0  0  0  0
    0.7233   13.7166   36.8030 C   0  0  2  0  0  0  0  0  0  0  0  0
    2.1075   13.1933   36.5646 N   0  0  0  0  0  0  0  0  0  0  0  0
    0.7012   15.3181   36.9405 C   0  0  1  0  0  0  0  0  0  0  0  0
   -0.6841   15.7142   37.1766 O   0  0  0  0  0  0  0  0  0  0  0  0
    1.6392   15.7594   38.1529 C   0  0  2  0  0  0  0  0  0  0  0  0
    3.0214   15.3374   37.8343 O   0  0  0  0  0  0  0  0  0  0  0  0
    1.0707   15.0639   39.5149 C   0  0  1  0  0  0  0  0  0  0  0  0
    1.0318   13.5664   39.3401 O   0  0  0  0  0  0  0  0  0  0  0  0
    1.9796   15.4622   40.7247 C   0  0  0  0  0  0  0  0  0  0  0  0
    3.3437   14.8531   40.6510 N   0  0  0  0  0  0  0  0  0  0  0  0
  1  3  1  0  0  0  0
  1  2  1  1  0  0  0
  3  4  1  1  0  0  0
  3  5  1  0  0  0  0
  5  6  1  6  0  0  0
  7  8  1  1  0  0  0
  7  5  1  0  0  0  0
  9 11  1  6  0  0  0
  9  7  1  0  0  0  0
 10  9  1  0  0  0  0
 10  1  1  0  0  0  0
 12 11  1  0  0  0  0
 13 14  1  1  0  0  0
 15 13  1  0  0  0  0
 16 17  1  6  0  0  0
 16 15  1  0  0  0  0
 18  2  1  6  0  0  0
 18 19  1  0  0  0  0
 18 16  1  0  0  0  0
 19 20  1  6  0  0  0
 19 21  1  0  0  0  0
 21 22  1  1  0  0  0
 21 13  1  0  0  0  0
 23 20  1  6  0  0  0
 23 29  1  0  0  0  0
 24 25  1  1  0  0  0
 24 26  1  0  0  0  0
 24 23  1  0  0  0  0
 26 27  1  1  0  0  0
 26 28  1  0  0  0  0
 28 30  1  6  0  0  0
 29 28  1  0  0  0  0
 30 31  1  0  0  0  0
 32 27  1  6  0  0  0
 32 40  1  0  0  0  0
 33 35  1  0  0  0  0
 33 32  1  0  0  0  0
 33 34  1  1  0  0  0
 35 36  1  1  0  0  0
 35 37  1  0  0  0  0
 37 38  1  6  0  0  0
 37 39  1  0  0  0  0
 39 41  1  1  0  0  0
 40 39  1  0  0  0  0
 41 42  1  0  0  0  0
M  END
>  <CHROM.1>
-175.15954029,-170.04258299,-166.15591024,153.29830585,169.02653889,158.10683823
-64.14425009,-75.34209420,-68.72895575,-1.47114695,9.05376706,36.67480250
2.66328401,1.10663487,2.49792017

>  <Name>
lig.pdb

>  <RI>
0

>  <Rbt.Current_Directory>
/home/itssahil/PROJECTS/Mol_Feturizer/New_Systems/rnas/4wcr

>  <Rbt.Executable>
rbdock ($Id: //depot/dev/client3/rdock/2013.1/src/exe/rbdock.cxx#4 $)

>  <Rbt.Library>
libRbt.so (2013.1, Build901 2013/11/27)

>  <Rbt.Parameter_File>
/export/apps/rDock/src/rDock_2013.1_src/data/scripts/dock_solv.prm

>  <Rbt.Receptor>
prm/pocket_docking_6.prm

>  <SCORE>
-3.52135

>  <SCORE.INTER>
3.19693

>  <SCORE.INTER.CONST>
1

>  <SCORE.INTER.POLAR>
0

>  <SCORE.INTER.ROT>
9

>  <SCORE.INTER.SOLV>
22.1171

>  <SCORE.INTER.VDW>
-14.8411

>  <SCORE.INTER.norm>
0.0761173

>  <SCORE.INTRA>
-6.71828

>  <SCORE.INTRA.DIHEDRAL>
-7.30733

>  <SCORE.INTRA.DIHEDRAL.0>
16.2863

>  <SCORE.INTRA.POLAR>
0

>  <SCORE.INTRA.POLAR.0>
0

>  <SCORE.INTRA.REPUL>
-0.314433

>  <SCORE.INTRA.REPUL.0>
0.314433

>  <SCORE.INTRA.SOLV>
-3.25346

>  <SCORE.INTRA.SOLV.lig_0>
-103.824

>  <SCORE.INTRA.VDW>
0.134282

>  <SCORE.INTRA.VDW.0>
-5.30945

>  <SCORE.INTRA.norm>
-0.159959

>  <SCORE.RESTR>
0

>  <SCORE.RESTR.CAVITY>
0

>  <SCORE.RESTR.norm>
0

>  <SCORE.SYSTEM>
0

>  <SCORE.SYSTEM.CONST>
0

>  <SCORE.SYSTEM.DIHEDRAL>
0

>  <SCORE.SYSTEM.SOLV>
0

>  <SCORE.SYSTEM.norm>
0

>  <SCORE.heavy>
42

>  <SCORE.norm>
-0.0838417

>  <RMSD>
10.438

$$$$
lig.pdb
 OpenBabel11021811513D
libRbt.so/2013.1/901 2013/11/27
 42 45  0  0  0  0  0  0  0  0999 V2000
   -5.7944   14.3211   28.5180 C   0  0  2  0  0  0  0  0  0  0  0  0
   -7.1399   14.7031   28.9433 O   0  0  0  0  0  0  0  0  0  0  0  0
   -5.8172   12.7368   28.3459 C   0  0  2  0  0  0  0  0  0  0  0  0
   -6.7731   12.3519   27.3039 N   0  0  0  0  0  0  0  0  0  0  0  0
   -6.1636   12.0678   29.7644 C   0  0  1  0  0  0  0  0  0  0  0  0
   -6.1865   10.6280   29.6694 O   0  0  0  0  0  0  0  0  0  0  0  0
   -5.1020   12.5523   30.7668 C   0  0  2  0  0  0  0  0  0  0  0  0
   -5.3715   11.9941   32.0075 O   0  0  0  0  0  0  0  0  0  0  0  0
   -5.1152   14.1467   30.8445 C   0  0  2  0  0  0  0  0  0  0  0  0
   -4.8375   14.7323   29.5664 O   0  0  0  0  0  0  0  0  0  0  0  0
   -4.0807   14.6732   31.7984 C   0  0  0  0  0  0  0  0  0  0  0  0
   -3.0573   13.6840   31.9153 O   0  0  0  0  0  0  0  0  0  0  0  0
   -7.8018   18.4012   26.5645 C   0  0  2  0  0  0  0  0  0  0  0  0
   -8.4705   19.4871   25.8814 N   0  0  0  0  0  0  0  0  0  0  0  0
   -8.3313   17.0144   26.0305 C   0  0  0  0  0  0  0  0  0  0  0  0
   -7.6238   15.8185   26.7597 C   0  0  2  0  0  0  0  0  0  0  0  0
   -8.1465   14.5556   26.2424 N   0  0  0  0  0  0  0  0  0  0  0  0
   -7.8406   15.8540   28.3377 C   0  0  2  0  0  0  0  0  0  0  0  0
   -7.2799   17.2106   28.8543 C   0  0  2  0  0  0  0  0  0  0  0  0
   -7.5135   17.1595   30.3461 O   0  0  0  0  0  0  0  0  0  0  0  0
   -8.0645   18.4463   28.1435 C   0  0  1  0  0  0  0  0  0  0  0  0
   -7.5824   19.7779   28.5130 O   0  0  0  0  0  0  0  0  0  0  0  0
   -6.6932   18.0331   31.0104 C   0  0  1  0  0  0  0  0  0  0  0  0
   -5.4402   17.4174   31.4601 C   0  0  2  0  0  0  0  0  0  0  0  0
   -5.7483   16.5812   32.5290 O   0  0  0  0  0  0  0  0  0  0  0  0
   -4.5577   18.6641   31.6841 C   0  0  2  0  0  0  0  0  0  0  0  0
   -4.1926   18.6706   33.0828 O   0  0  0  0  0  0  0  0  0  0  0  0
   -5.4268   19.8206   31.3141 C   0  0  2  0  0  0  0  0  0  0  0  0
   -6.2085   19.1400   30.2684 O   0  0  0  0  0  0  0  0  0  0  0  0
   -4.5949   21.0019   30.6922 C   0  0  0  0  0  0  0  0  0  0  0  0
   -5.3779   22.2114   30.4614 O   0  0  0  0  0  0  0  0  0  0  0  0
   -3.1053   17.7837   33.4855 C   0  0  2  0  0  0  0  0  0  0  0  0
   -3.6432   16.8140   34.6622 C   0  0  2  0  0  0  0  0  0  0  0  0
   -4.1286   17.6509   35.8071 N   0  0  0  0  0  0  0  0  0  0  0  0
   -2.4418   15.8387   35.0971 C   0  0  1  0  0  0  0  0  0  0  0  0
   -2.0457   15.0832   33.9122 O   0  0  0  0  0  0  0  0  0  0  0  0
   -1.2274   16.7092   35.6555 C   0  0  2  0  0  0  0  0  0  0  0  0
   -1.7011   17.4308   36.8577 O   0  0  0  0  0  0  0  0  0  0  0  0
   -0.7392   17.7195   34.4711 C   0  0  1  0  0  0  0  0  0  0  0  0
   -1.8982   18.5765   34.0273 O   0  0  0  0  0  0  0  0  0  0  0  0
    0.4428   18.6034   34.9911 C   0  0  0  0  0  0  0  0  0  0  0  0
    1.4118   17.8382   35.8354 N   0  0  0  0  0  0  0  0  0  0  0  0
  1  3  1  0  0  0  0
  1  2  1  1  0  0  0
  3  4  1  6  0  0  0
  3  5  1  0  0  0  0
  5  6  1  6  0  0  0
  7  8  1  1  0  0  0
  7  5  1  0  0  0  0
  9 11  1  1  0  0  0
  9  7  1  0  0  0  0
 10  9  1  0  0  0  0
 10  1  1  0  0  0  0
 12 11  1  0  0  0  0
 13 14  1  6  0  0  0
 15 13  1  0  0  0  0
 16 17  1  6  0  0  0
 16 15  1  0  0  0  0
 18  2  1  1  0  0  0
 18 19  1  0  0  0  0
 18 16  1  0  0  0  0
 19 20  1  1  0  0  0
 19 21  1  0  0  0  0
 21 22  1  1  0  0  0
 21 13  1  0  0  0  0
 23 20  1  6  0  0  0
 23 29  1  0  0  0  0
 24 25  1  1  0  0  0
 24 26  1  0  0  0  0
 24 23  1  0  0  0  0
 26 27  1  1  0  0  0
 26 28  1  0  0  0  0
 28 30  1  6  0  0  0
 29 28  1  0  0  0  0
 30 31  1  0  0  0  0
 32 27  1  1  0  0  0
 32 40  1  0  0  0  0
 33 35  1  0  0  0  0
 33 32  1  0  0  0  0
 33 34  1  1  0  0  0
 35 36  1  6  0  0  0
 35 37  1  0  0  0  0
 37 38  1  1  0  0  0
 37 39  1  0  0  0  0
 39 41  1  1  0  0  0
 40 39  1  0  0  0  0
 41 42  1  0  0  0  0
M  END
>  <CHROM.1>
-134.88156364,23.95803743,43.27038720,159.12170944,-92.80252283,79.52216636
-173.18007338,-124.07353774,40.29150540,-5.02106850,16.52449938,31.04227217
-2.90506105,-0.88590158,0.07273032

>  <Name>
lig.pdb

>  <RI>
0

>  <Rbt.Current_Directory>
/home/itssahil/PROJECTS/Mol_Feturizer/New_Systems/rnas/4wcr

>  <Rbt.Executable>
rbdock ($Id: //depot/dev/client3/rdock/2013.1/src/exe/rbdock.cxx#4 $)

>  <Rbt.Library>
libRbt.so (2013.1, Build901 2013/11/27)

>  <Rbt.Parameter_File>
/export/apps/rDock/src/rDock_2013.1_src/data/scripts/dock_solv.prm

>  <Rbt.Receptor>
prm/blind_docking_60.prm

>  <SCORE>
10.7317

>  <SCORE.INTER>
-5.4657

>  <SCORE.INTER.CONST>
1

>  <SCORE.INTER.POLAR>
0

>  <SCORE.INTER.ROT>
9

>  <SCORE.INTER.SOLV>
35.2826

>  <SCORE.INTER.VDW>
-25.0047

>  <SCORE.INTER.norm>
-0.130136

>  <SCORE.INTRA>
10.1041

>  <SCORE.INTRA.DIHEDRAL>
11.3806

>  <SCORE.INTRA.DIHEDRAL.0>
16.2863

>  <SCORE.INTRA.POLAR>
0

>  <SCORE.INTRA.POLAR.0>
0

>  <SCORE.INTRA.REPUL>
-0.314433

>  <SCORE.INTRA.REPUL.0>
0.314433

>  <SCORE.INTRA.SOLV>
1.3748

>  <SCORE.INTRA.SOLV.lig_0>
-103.824

>  <SCORE.INTRA.VDW>
5.29856

>  <SCORE.INTRA.VDW.0>
-5.30945

>  <SCORE.INTRA.norm>
0.240574

>  <SCORE.RESTR>
6.09324

>  <SCORE.RESTR.CAVITY>
6.09324

>  <SCORE.RESTR.norm>
0.145077

>  <SCORE.SYSTEM>
0

>  <SCORE.SYSTEM.CONST>
0

>  <SCORE.SYSTEM.DIHEDRAL>
0

>  <SCORE.SYSTEM.SOLV>
0

>  <SCORE.SYSTEM.norm>
0

>  <SCORE.heavy>
42

>  <SCORE.norm>
0.255516

>  <RMSD>
10.465

$$$$
lig.pdb
 OpenBabel11021811513D
libRbt.so/2013.1/901 2013/11/27
 42 45  0  0  0  0  0  0  0  0999 V2000
   -6.0799   17.8333   29.1807 C   0  0  2  0  0  0  0  0  0  0  0  0
   -6.2649   16.7502   30.1450 O   0  0  0  0  0  0  0  0  0  0  0  0
   -7.0451   19.0123   29.6480 C   0  0  2  0  0  0  0  0  0  0  0  0
   -6.6591   19.4887   30.9791 N   0  0  0  0  0  0  0  0  0  0  0  0
   -8.5617   18.4848   29.6085 C   0  0  1  0  0  0  0  0  0  0  0  0
   -9.4834   19.5190   30.0129 O   0  0  0  0  0  0  0  0  0  0  0  0
   -8.8399   18.0083   28.1725 C   0  0  2  0  0  0  0  0  0  0  0  0
  -10.1444   17.5426   28.1012 O   0  0  0  0  0  0  0  0  0  0  0  0
   -7.8034   16.8630   27.7693 C   0  0  2  0  0  0  0  0  0  0  0  0
   -6.4524   17.3356   27.8402 O   0  0  0  0  0  0  0  0  0  0  0  0
   -8.0207   16.3750   26.3651 C   0  0  0  0  0  0  0  0  0  0  0  0
   -8.0074   17.5147   25.5045 O   0  0  0  0  0  0  0  0  0  0  0  0
   -4.6998   12.7016   31.1102 C   0  0  2  0  0  0  0  0  0  0  0  0
   -3.8670   11.5187   31.1005 N   0  0  0  0  0  0  0  0  0  0  0  0
   -5.2006   13.0263   29.6498 C   0  0  0  0  0  0  0  0  0  0  0  0
   -6.1037   14.3095   29.6324 C   0  0  2  0  0  0  0  0  0  0  0  0
   -6.5395   14.5788   28.2637 N   0  0  0  0  0  0  0  0  0  0  0  0
   -5.3455   15.5948   30.1903 C   0  0  2  0  0  0  0  0  0  0  0  0
   -4.8909   15.2730   31.6434 C   0  0  2  0  0  0  0  0  0  0  0  0
   -4.1958   16.5351   32.0980 O   0  0  0  0  0  0  0  0  0  0  0  0
   -3.9008   13.9818   31.6458 C   0  0  1  0  0  0  0  0  0  0  0  0
   -3.4514   13.5508   32.9704 O   0  0  0  0  0  0  0  0  0  0  0  0
   -3.2425   16.2670   33.0449 C   0  0  1  0  0  0  0  0  0  0  0  0
   -2.4898   17.4565   33.4567 C   0  0  2  0  0  0  0  0  0  0  0  0
   -1.6396   17.7940   32.4079 O   0  0  0  0  0  0  0  0  0  0  0  0
   -1.9037   16.9876   34.8057 C   0  0  2  0  0  0  0  0  0  0  0  0
   -0.4649   17.0328   34.6736 O   0  0  0  0  0  0  0  0  0  0  0  0
   -2.4185   15.5974   34.9849 C   0  0  2  0  0  0  0  0  0  0  0  0
   -3.7057   15.7843   34.2951 O   0  0  0  0  0  0  0  0  0  0  0  0
   -2.6565   15.2527   36.5011 C   0  0  0  0  0  0  0  0  0  0  0  0
   -2.7476   13.8212   36.7688 O   0  0  0  0  0  0  0  0  0  0  0  0
    0.1487   18.3543   34.5842 C   0  0  2  0  0  0  0  0  0  0  0  0
    0.1927   19.0010   36.0655 C   0  0  2  0  0  0  0  0  0  0  0  0
   -1.2006   19.0730   36.6133 N   0  0  0  0  0  0  0  0  0  0  0  0
    0.8728   20.4535   35.9588 C   0  0  1  0  0  0  0  0  0  0  0  0
    2.2129   20.2660   35.4104 O   0  0  0  0  0  0  0  0  0  0  0  0
   -0.0103   21.3846   35.0113 C   0  0  2  0  0  0  0  0  0  0  0  0
   -1.3419   21.5377   35.6387 O   0  0  0  0  0  0  0  0  0  0  0  0
   -0.0885   20.6840   33.5399 C   0  0  1  0  0  0  0  0  0  0  0  0
   -0.6627   19.2955   33.6705 O   0  0  0  0  0  0  0  0  0  0  0  0
   -0.9641   21.5639   32.5871 C   0  0  0  0  0  0  0  0  0  0  0  0
   -2.4051   21.5947   32.9867 N   0  0  0  0  0  0  0  0  0  0  0  0
  1  3  1  0  0  0  0
  1  2  1  1  0  0  0
  3  4  1  1  0  0  0
  3  5  1  0  0  0  0
  5  6  1  6  0  0  0
  7  8  1  1  0  0  0
  7  5  1  0  0  0  0
  9 11  1  6  0  0  0
  9  7  1  0  0  0  0
 10  9  1  0  0  0  0
 10  1  1  0  0  0  0
 12 11  1  0  0  0  0
 13 14  1  6  0  0  0
 15 13  1  0  0  0  0
 16 17  1  6  0  0  0
 16 15  1  0  0  0  0
 18  2  1  1  0  0  0
 18 19  1  0  0  0  0
 18 16  1  0  0  0  0
 19 20  1  6  0  0  0
 19 21  1  0  0  0  0
 21 22  1  1  0  0  0
 21 13  1  0  0  0  0
 23 20  1  6  0  0  0
 23 29  1  0  0  0  0
 24 25  1  6  0  0  0
 24 26  1  0  0  0  0
 24 23  1  0  0  0  0
 26 27  1  6  0  0  0
 26 28  1  0  0  0  0
 28 30  1  1  0  0  0
 29 28  1  0  0  0  0
 30 31  1  0  0  0  0
 32 27  1  1  0  0  0
 32 40  1  0  0  0  0
 33 35  1  0  0  0  0
 33 32  1  0  0  0  0
 33 34  1  6  0  0  0
 35 36  1  6  0  0  0
 35 37  1  0  0  0  0
 37 38  1  1  0  0  0
 37 39  1  0  0  0  0
 39 41  1  6  0  0  0
 40 39  1  0  0  0  0
 41 42  1  0  0  0  0
M  END
>  <CHROM.1>
-167.88592276,53.31240562,-108.64399639,-152.40858664,176.65501645,69.47766714
-161.78845692,77.17613879,-67.42881949,-3.96227135,17.27006470,32.01656076
2.99270739,0.77515644,3.01566335

>  <Name>
lig.pdb

>  <RI>
0

>  <Rbt.Current_Directory>
/home/itssahil/PROJECTS/Mol_Feturizer/New_Systems/rnas/4wcr

>  <Rbt.Executable>
rbdock ($Id: //depot/dev/client3/rdock/2013.1/src/exe/rbdock.cxx#4 $)

>  <Rbt.Library>
libRbt.so (2013.1, Build901 2013/11/27)

>  <Rbt.Parameter_File>
/export/apps/rDock/src/rDock_2013.1_src/data/scripts/dock_solv.prm

>  <Rbt.Receptor>
prm/blind_docking_100.prm

>  <SCORE>
13.8193

>  <SCORE.INTER>
0.965883

>  <SCORE.INTER.CONST>
1

>  <SCORE.INTER.POLAR>
0

>  <SCORE.INTER.ROT>
9

>  <SCORE.INTER.SOLV>
30.0367

>  <SCORE.INTER.VDW>
-18.9683

>  <SCORE.INTER.norm>
0.0229972

>  <SCORE.INTRA>
7.89536

>  <SCORE.INTRA.DIHEDRAL>
-2.24592

>  <SCORE.INTRA.DIHEDRAL.0>
16.2863

>  <SCORE.INTRA.POLAR>
0

>  <SCORE.INTRA.POLAR.0>
0

>  <SCORE.INTRA.REPUL>
-0.314433

>  <SCORE.INTRA.REPUL.0>
0.314433

>  <SCORE.INTRA.SOLV>
3.13572

>  <SCORE.INTRA.SOLV.lig_0>
-103.824

>  <SCORE.INTRA.VDW>
9.02262

>  <SCORE.INTRA.VDW.0>
-5.30945

>  <SCORE.INTRA.norm>
0.187985

>  <SCORE.RESTR>
4.95811

>  <SCORE.RESTR.CAVITY>
4.95811

>  <SCORE.RESTR.norm>
0.11805

>  <SCORE.SYSTEM>
0

>  <SCORE.SYSTEM.CONST>
0

>  <SCORE.SYSTEM.DIHEDRAL>
0

>  <SCORE.SYSTEM.SOLV>
0

>  <SCORE.SYSTEM.norm>
0

>  <SCORE.heavy>
42

>  <SCORE.norm>
0.329032

>  <RMSD>
10.478

$$$$
lig.pdb
 OpenBabel11021811513D
libRbt.so/2013.1/901 2013/11/27
 42 45  0  0  0  0  0  0  0  0999 V2000
   -2.6512    3.4865   37.6886 C   0  0  2  0  0  0  0  0  0  0  0  0
   -3.1710    4.7088   38.2993 O   0  0  0  0  0  0  0  0  0  0  0  0
   -1.6134    3.9550   36.5736 C   0  0  2  0  0  0  0  0  0  0  0  0
   -0.5038    4.6895   37.1877 N   0  0  0  0  0  0  0  0  0  0  0  0
   -2.3926    4.8360   35.4797 C   0  0  1  0  0  0  0  0  0  0  0  0
   -1.4999    5.2793   34.4361 O   0  0  0  0  0  0  0  0  0  0  0  0
   -3.5294    3.9638   34.9199 C   0  0  2  0  0  0  0  0  0  0  0  0
   -4.2274    4.6953   33.9704 O   0  0  0  0  0  0  0  0  0  0  0  0
   -4.4940    3.5014   36.1048 C   0  0  2  0  0  0  0  0  0  0  0  0
   -3.7809    2.7446   37.0909 O   0  0  0  0  0  0  0  0  0  0  0  0
   -5.6136    2.6289   35.6125 C   0  0  0  0  0  0  0  0  0  0  0  0
   -6.4108    2.2702   36.7418 O   0  0  0  0  0  0  0  0  0  0  0  0
   -2.0611    7.0046   41.9421 C   0  0  2  0  0  0  0  0  0  0  0  0
   -1.2689    7.7067   42.9282 N   0  0  0  0  0  0  0  0  0  0  0  0
   -1.4925    5.5495   41.7229 C   0  0  0  0  0  0  0  0  0  0  0  0
   -2.3329    4.7675   40.6531 C   0  0  2  0  0  0  0  0  0  0  0  0
   -1.7703    3.4306   40.4750 N   0  0  0  0  0  0  0  0  0  0  0  0
   -2.3572    5.5047   39.2409 C   0  0  2  0  0  0  0  0  0  0  0  0
   -2.9548    6.9237   39.4667 C   0  0  2  0  0  0  0  0  0  0  0  0
   -2.9518    7.5460   38.0899 O   0  0  0  0  0  0  0  0  0  0  0  0
   -2.0401    7.7529   40.5265 C   0  0  1  0  0  0  0  0  0  0  0  0
   -2.5383    9.0881   40.8598 O   0  0  0  0  0  0  0  0  0  0  0  0
   -3.6654    8.7155   38.0688 C   0  0  1  0  0  0  0  0  0  0  0  0
   -3.3788    9.5434   36.8925 C   0  0  2  0  0  0  0  0  0  0  0  0
   -2.1096   10.0872   37.0663 O   0  0  0  0  0  0  0  0  0  0  0  0
   -4.6170   10.4650   36.8663 C   0  0  2  0  0  0  0  0  0  0  0  0
   -4.1327   11.8186   37.0169 O   0  0  0  0  0  0  0  0  0  0  0  0
   -5.4487   10.0226   38.0249 C   0  0  2  0  0  0  0  0  0  0  0  0
   -5.0762    8.5986   37.9895 O   0  0  0  0  0  0  0  0  0  0  0  0
   -6.9864   10.1920   37.7395 C   0  0  0  0  0  0  0  0  0  0  0  0
   -7.4932    9.2922   36.7087 O   0  0  0  0  0  0  0  0  0  0  0  0
   -3.2583   12.3279   35.9647 C   0  0  2  0  0  0  0  0  0  0  0  0
   -2.8498   13.8494   36.3286 C   0  0  2  0  0  0  0  0  0  0  0  0
   -4.0937   14.6748   36.4632 N   0  0  0  0  0  0  0  0  0  0  0  0
   -1.8846   14.4011   35.1676 C   0  0  1  0  0  0  0  0  0  0  0  0
   -0.7181   13.5244   35.1201 O   0  0  0  0  0  0  0  0  0  0  0  0
   -2.6672   14.3914   33.7778 C   0  0  2  0  0  0  0  0  0  0  0  0
   -3.8216   15.3094   33.9004 O   0  0  0  0  0  0  0  0  0  0  0  0
   -3.1194   12.8564   33.4596 C   0  0  1  0  0  0  0  0  0  0  0  0
   -3.9646   12.3325   34.5935 O   0  0  0  0  0  0  0  0  0  0  0  0
   -3.9070   12.8121   32.1082 C   0  0  0  0  0  0  0  0  0  0  0  0
   -4.2497   11.4200   31.6816 N   0  0  0  0  0  0  0  0  0  0  0  0
  1  3  1  0  0  0  0
  1  2  1  6  0  0  0
  3  4  1  1  0  0  0
  3  5  1  0  0  0  0
  5  6  1  6  0  0  0
  7  8  1  6  0  0  0
  7  5  1  0  0  0  0
  9 11  1  6  0  0  0
  9  7  1  0  0  0  0
 10  9  1  0  0  0  0
 10  1  1  0  0  0  0
 12 11  1  0  0  0  0
 13 14  1  1  0  0  0
 15 13  1  0  0  0  0
 16 17  1  6  0  0  0
 16 15  1  0  0  0  0
 18  2  1  6  0  0  0
 18 19  1  0  0  0  0
 18 16  1  0  0  0  0
 19 20  1  6  0  0  0
 19 21  1  0  0  0  0
 21 22  1  1  0  0  0
 21 13  1  0  0  0  0
 23 20  1  6  0  0  0
 23 29  1  0  0  0  0
 24 25  1  1  0  0  0
 24 26  1  0  0  0  0
 24 23  1  0  0  0  0
 26 27  1  1  0  0  0
 26 28  1  0  0  0  0
 28 30  1  6  0  0  0
 29 28  1  0  0  0  0
 30 31  1  0  0  0  0
 32 27  1  1  0  0  0
 32 40  1  0  0  0  0
 33 35  1  0  0  0  0
 33 32  1  0  0  0  0
 33 34  1  6  0  0  0
 35 36  1  6  0  0  0
 35 37  1  0  0  0  0
 37 38  1  1  0  0  0
 37 39  1  0  0  0  0
 39 41  1  6  0  0  0
 40 39  1  0  0  0  0
 41 42  1  0  0  0  0
M  END
>  <CHROM.1>
-74.72568876,179.88131029,-76.33194696,169.29076111,163.36023277,62.79617556
67.80510751,179.57200140,174.75805981,-3.33973465,8.30424475,36.99495906
1.42527049,1.27570726,2.92586766

>  <Name>
lig.pdb

>  <RI>
0

>  <Rbt.Current_Directory>
/home/itssahil/PROJECTS/Mol_Feturizer/New_Systems/rnas/4wcr

>  <Rbt.Executable>
rbdock ($Id: //depot/dev/client3/rdock/2013.1/src/exe/rbdock.cxx#4 $)

>  <Rbt.Library>
libRbt.so (2013.1, Build901 2013/11/27)

>  <Rbt.Parameter_File>
/export/apps/rDock/src/rDock_2013.1_src/data/scripts/dock_solv.prm

>  <Rbt.Receptor>
prm/pocket_docking_5.prm

>  <SCORE>
-6.00418

>  <SCORE.INTER>
0.527772

>  <SCORE.INTER.CONST>
1

>  <SCORE.INTER.POLAR>
0

>  <SCORE.INTER.ROT>
9

>  <SCORE.INTER.SOLV>
16.7403

>  <SCORE.INTER.VDW>
-14.8283

>  <SCORE.INTER.norm>
0.012566

>  <SCORE.INTRA>
-6.53195

>  <SCORE.INTRA.DIHEDRAL>
-11.3667

>  <SCORE.INTRA.DIHEDRAL.0>
16.2863

>  <SCORE.INTRA.POLAR>
0

>  <SCORE.INTRA.POLAR.0>
0

>  <SCORE.INTRA.REPUL>
-0.314433

>  <SCORE.INTRA.REPUL.0>
0.314433

>  <SCORE.INTRA.SOLV>
-2.57813

>  <SCORE.INTRA.SOLV.lig_0>
-103.824

>  <SCORE.INTRA.VDW>
2.01262

>  <SCORE.INTRA.VDW.0>
-5.30945

>  <SCORE.INTRA.norm>
-0.155523

>  <SCORE.RESTR>
0

>  <SCORE.RESTR.CAVITY>
0

>  <SCORE.RESTR.norm>
0

>  <SCORE.SYSTEM>
0

>  <SCORE.SYSTEM.CONST>
0

>  <SCORE.SYSTEM.DIHEDRAL>
0

>  <SCORE.SYSTEM.SOLV>
0

>  <SCORE.SYSTEM.norm>
0

>  <SCORE.heavy>
42

>  <SCORE.norm>
-0.142957

>  <RMSD>
10.487

$$$$
lig.pdb
 OpenBabel11021811513D
libRbt.so/2013.1/901 2013/11/27
 42 45  0  0  0  0  0  0  0  0999 V2000
   -1.6652    5.3337   34.6025 C   0  0  2  0  0  0  0  0  0  0  0  0
   -1.1039    6.6505   34.3058 O   0  0  0  0  0  0  0  0  0  0  0  0
   -3.1691    5.5872   35.0651 C   0  0  2  0  0  0  0  0  0  0  0  0
   -3.9393    6.1994   33.9790 N   0  0  0  0  0  0  0  0  0  0  0  0
   -3.1563    6.4979   36.3881 C   0  0  1  0  0  0  0  0  0  0  0  0
   -4.4967    6.7506   36.8594 O   0  0  0  0  0  0  0  0  0  0  0  0
   -2.3159    5.7567   37.4420 C   0  0  2  0  0  0  0  0  0  0  0  0
   -2.2812    6.5172   38.6013 O   0  0  0  0  0  0  0  0  0  0  0  0
   -0.8424    5.5035   36.8825 C   0  0  2  0  0  0  0  0  0  0  0  0
   -0.8687    4.7180   35.6842 O   0  0  0  0  0  0  0  0  0  0  0  0
    0.0158    4.7636   37.8691 C   0  0  0  0  0  0  0  0  0  0  0  0
   -0.5607    3.4709   38.0594 O   0  0  0  0  0  0  0  0  0  0  0  0
   -0.7927    8.8543   30.4562 C   0  0  2  0  0  0  0  0  0  0  0  0
   -1.1650    9.5193   29.2266 N   0  0  0  0  0  0  0  0  0  0  0  0
   -1.3786    7.3898   30.4817 C   0  0  0  0  0  0  0  0  0  0  0  0
   -0.9920    6.6475   31.8091 C   0  0  2  0  0  0  0  0  0  0  0  0
   -1.5588    5.3005   31.7958 N   0  0  0  0  0  0  0  0  0  0  0  0
   -1.5145    7.4097   33.1069 C   0  0  2  0  0  0  0  0  0  0  0  0
   -0.8986    8.8387   33.0871 C   0  0  2  0  0  0  0  0  0  0  0  0
   -1.4312    9.4848   34.3447 O   0  0  0  0  0  0  0  0  0  0  0  0
   -1.3586    9.6265   31.7398 C   0  0  1  0  0  0  0  0  0  0  0  0
   -0.7928   10.9675   31.5851 O   0  0  0  0  0  0  0  0  0  0  0  0
   -0.7887   10.6654   34.6103 C   0  0  1  0  0  0  0  0  0  0  0  0
   -1.4325   11.4446   35.6731 C   0  0  2  0  0  0  0  0  0  0  0  0
   -2.6087   11.9714   35.1480 O   0  0  0  0  0  0  0  0  0  0  0  0
   -0.2834   12.3868   36.0914 C   0  0  2  0  0  0  0  0  0  0  0  0
   -0.7396   13.7361   35.8444 O   0  0  0  0  0  0  0  0  0  0  0  0
    0.8650   12.0022   35.2180 C   0  0  2  0  0  0  0  0  0  0  0  0
    0.5388   10.5713   35.0996 O   0  0  0  0  0  0  0  0  0  0  0  0
    2.2448   12.1888   35.9500 C   0  0  0  0  0  0  0  0  0  0  0  0
    2.4041   11.3381   37.1247 O   0  0  0  0  0  0  0  0  0  0  0  0
    0.1660   14.8182   36.2184 C   0  0  2  0  0  0  0  0  0  0  0  0
    0.3359   14.8126   37.8262 C   0  0  2  0  0  0  0  0  0  0  0  0
   -1.0109   14.9717   38.4646 N   0  0  0  0  0  0  0  0  0  0  0  0
    1.3369   16.0041   38.2291 C   0  0  1  0  0  0  0  0  0  0  0  0
    2.6050   15.7535   37.5503 O   0  0  0  0  0  0  0  0  0  0  0  0
    0.7098   17.3995   37.7776 C   0  0  2  0  0  0  0  0  0  0  0  0
   -0.5594   17.5867   38.5154 O   0  0  0  0  0  0  0  0  0  0  0  0
    0.4939   17.3605   36.1609 C   0  0  1  0  0  0  0  0  0  0  0  0
   -0.3896   16.1938   35.7963 O   0  0  0  0  0  0  0  0  0  0  0  0
   -0.1377   18.7105   35.6844 C   0  0  0  0  0  0  0  0  0  0  0  0
   -0.5801   18.6720   34.2560 N   0  0  0  0  0  0  0  0  0  0  0  0
  1  3  1  0  0  0  0
  1  2  1  1  0  0  0
  3  4  1  6  0  0  0
  3  5  1  0  0  0  0
  5  6  1  1  0  0  0
  7  8  1  1  0  0  0
  7  5  1  0  0  0  0
  9 11  1  1  0  0  0
  9  7  1  0  0  0  0
 10  9  1  0  0  0  0
 10  1  1  0  0  0  0
 12 11  1  0  0  0  0
 13 14  1  6  0  0  0
 15 13  1  0  0  0  0
 16 17  1  6  0  0  0
 16 15  1  0  0  0  0
 18  2  1  1  0  0  0
 18 19  1  0  0  0  0
 18 16  1  0  0  0  0
 19 20  1  1  0  0  0
 19 21  1  0  0  0  0
 21 22  1  1  0  0  0
 21 13  1  0  0  0  0
 23 20  1  1  0  0  0
 23 29  1  0  0  0  0
 24 25  1  6  0  0  0
 24 26  1  0  0  0  0
 24 23  1  0  0  0  0
 26 27  1  6  0  0  0
 26 28  1  0  0  0  0
 28 30  1  1  0  0  0
 29 28  1  0  0  0  0
 30 31  1  0  0  0  0
 32 27  1  1  0  0  0
 32 40  1  0  0  0  0
 33 35  1  0  0  0  0
 33 32  1  0  0  0  0
 33 34  1  1  0  0  0
 35 36  1  6  0  0  0
 35 37  1  0  0  0  0
 37 38  1  1  0  0  0
 37 39  1  0  0  0  0
 39 41  1  1  0  0  0
 40 39  1  0  0  0  0
 41 42  1  0  0  0  0
M  END
>  <CHROM.1>
-72.00964948,63.85263785,-67.54222077,168.73057979,169.45912197,177.54067730
63.00882310,-65.56297214,-170.31891273,-0.78484967,10.48531215,35.29155834
-2.90179417,-1.37119833,-1.14268485

>  <Name>
lig.pdb

>  <RI>
0

>  <Rbt.Current_Directory>
/home/itssahil/PROJECTS/Mol_Feturizer/New_Systems/rnas/4wcr

>  <Rbt.Executable>
rbdock ($Id: //depot/dev/client3/rdock/2013.1/src/exe/rbdock.cxx#4 $)

>  <Rbt.Library>
libRbt.so (2013.1, Build901 2013/11/27)

>  <Rbt.Parameter_File>
/export/apps/rDock/src/rDock_2013.1_src/data/scripts/dock_solv.prm

>  <Rbt.Receptor>
prm/pocket_docking_8.prm

>  <SCORE>
-11.6185

>  <SCORE.INTER>
-4.57776

>  <SCORE.INTER.CONST>
1

>  <SCORE.INTER.POLAR>
0

>  <SCORE.INTER.ROT>
9

>  <SCORE.INTER.SOLV>
20.7217

>  <SCORE.INTER.VDW>
-19.5591

>  <SCORE.INTER.norm>
-0.108994

>  <SCORE.INTRA>
-7.04579

>  <SCORE.INTRA.DIHEDRAL>
-13.0523

>  <SCORE.INTRA.DIHEDRAL.0>
16.2863

>  <SCORE.INTRA.POLAR>
0

>  <SCORE.INTRA.POLAR.0>
0

>  <SCORE.INTRA.REPUL>
-0.314238

>  <SCORE.INTRA.REPUL.0>
0.314433

>  <SCORE.INTRA.SOLV>
-1.08761

>  <SCORE.INTRA.SOLV.lig_0>
-103.824

>  <SCORE.INTRA.VDW>
1.59536

>  <SCORE.INTRA.VDW.0>
-5.30945

>  <SCORE.INTRA.norm>
-0.167757

>  <SCORE.RESTR>
0.00504253

>  <SCORE.RESTR.CAVITY>
0.00504253

>  <SCORE.RESTR.norm>
0.00012006

>  <SCORE.SYSTEM>
0

>  <SCORE.SYSTEM.CONST>
0

>  <SCORE.SYSTEM.DIHEDRAL>
0

>  <SCORE.SYSTEM.SOLV>
0

>  <SCORE.SYSTEM.norm>
0

>  <SCORE.heavy>
42

>  <SCORE.norm>
-0.276631

>  <RMSD>
10.498

$$$$
lig.pdb
 OpenBabel11021811513D
libRbt.so/2013.1/901 2013/11/27
 42 45  0  0  0  0  0  0  0  0999 V2000
    0.6409   13.1067   35.8535 C   0  0  2  0  0  0  0  0  0  0  0  0
   -0.2196   12.9677   37.0271 O   0  0  0  0  0  0  0  0  0  0  0  0
   -0.0516   12.2608   34.6937 C   0  0  2  0  0  0  0  0  0  0  0  0
   -1.3738   12.8110   34.3826 N   0  0  0  0  0  0  0  0  0  0  0  0
   -0.1265   10.7227   35.1501 C   0  0  1  0  0  0  0  0  0  0  0  0
   -0.7368    9.9057   34.1290 O   0  0  0  0  0  0  0  0  0  0  0  0
    1.3114   10.2684   35.4543 C   0  0  2  0  0  0  0  0  0  0  0  0
    1.2852    8.9407   35.8547 O   0  0  0  0  0  0  0  0  0  0  0  0
    1.9450   11.1935   36.5906 C   0  0  2  0  0  0  0  0  0  0  0  0
    1.9762   12.5677   36.1853 O   0  0  0  0  0  0  0  0  0  0  0  0
    3.3595   10.8025   36.9123 C   0  0  0  0  0  0  0  0  0  0  0  0
    3.3103    9.6139   37.7026 O   0  0  0  0  0  0  0  0  0  0  0  0
   -0.9342   15.3831   40.6915 C   0  0  2  0  0  0  0  0  0  0  0  0
   -0.7160   16.0354   41.9642 N   0  0  0  0  0  0  0  0  0  0  0  0
   -0.6272   13.8403   40.8110 C   0  0  0  0  0  0  0  0  0  0  0  0
   -0.8524   13.1096   39.4407 C   0  0  2  0  0  0  0  0  0  0  0  0
   -0.5510   11.6876   39.5926 N   0  0  0  0  0  0  0  0  0  0  0  0
    0.0587   13.7044   38.2769 C   0  0  2  0  0  0  0  0  0  0  0  0
   -0.2823   15.2171   38.1458 C   0  0  2  0  0  0  0  0  0  0  0  0
    0.6093   15.6979   37.0249 O   0  0  0  0  0  0  0  0  0  0  0  0
    0.0174   15.9810   39.5508 C   0  0  1  0  0  0  0  0  0  0  0  0
   -0.3195   17.4053   39.5633 O   0  0  0  0  0  0  0  0  0  0  0  0
    0.1511   16.8739   36.4917 C   0  0  1  0  0  0  0  0  0  0  0  0
    1.2194   17.7037   35.9248 C   0  0  2  0  0  0  0  0  0  0  0  0
    1.9417   18.2353   36.9890 O   0  0  0  0  0  0  0  0  0  0  0  0
    0.4129   18.6366   34.9961 C   0  0  2  0  0  0  0  0  0  0  0  0
    0.6297   19.9852   35.4693 O   0  0  0  0  0  0  0  0  0  0  0  0
   -1.0059   18.1974   35.1498 C   0  0  2  0  0  0  0  0  0  0  0  0
   -0.7350   16.7703   35.3895 O   0  0  0  0  0  0  0  0  0  0  0  0
   -1.8228   18.3819   33.8182 C   0  0  0  0  0  0  0  0  0  0  0  0
   -1.9270   19.7707   33.3829 O   0  0  0  0  0  0  0  0  0  0  0  0
    1.8909   20.6202   35.0989 C   0  0  2  0  0  0  0  0  0  0  0  0
    1.8347   22.1728   35.5466 C   0  0  2  0  0  0  0  0  0  0  0  0
    0.6652   22.8349   34.8830 N   0  0  0  0  0  0  0  0  0  0  0  0
    3.2278   22.8633   35.1388 C   0  0  1  0  0  0  0  0  0  0  0  0
    4.2900   22.1390   35.8307 O   0  0  0  0  0  0  0  0  0  0  0  0
    3.4157   22.7851   33.5567 C   0  0  2  0  0  0  0  0  0  0  0  0
    2.3146   23.5503   32.9304 O   0  0  0  0  0  0  0  0  0  0  0  0
    3.4116   21.2127   33.1214 C   0  0  1  0  0  0  0  0  0  0  0  0
    2.1275   20.5651   33.5757 O   0  0  0  0  0  0  0  0  0  0  0  0
    3.5767   21.0987   31.5695 C   0  0  0  0  0  0  0  0  0  0  0  0
    2.4865   21.7936   30.8174 N   0  0  0  0  0  0  0  0  0  0  0  0
  1  3  1  0  0  0  0
  1  2  1  1  0  0  0
  3  4  1  1  0  0  0
  3  5  1  0  0  0  0
  5  6  1  6  0  0  0
  7  8  1  1  0  0  0
  7  5  1  0  0  0  0
  9 11  1  6  0  0  0
  9  7  1  0  0  0  0
 10  9  1  0  0  0  0
 10  1  1  0  0  0  0
 12 11  1  0  0  0  0
 13 14  1  1  0  0  0
 15 13  1  0  0  0  0
 16 17  1  1  0  0  0
 16 15  1  0  0  0  0
 18  2  1  6  0  0  0
 18 19  1  0  0  0  0
 18 16  1  0  0  0  0
 19 20  1  6  0  0  0
 19 21  1  0  0  0  0
 21 22  1  6  0  0  0
 21 13  1  0  0  0  0
 23 20  1  6  0  0  0
 23 29  1  0  0  0  0
 24 25  1  1  0  0  0
 24 26  1  0  0  0  0
 24 23  1  0  0  0  0
 26 27  1  1  0  0  0
 26 28  1  0  0  0  0
 28 30  1  6  0  0  0
 29 28  1  0  0  0  0
 30 31  1  0  0  0  0
 32 27  1  6  0  0  0
 32 40  1  0  0  0  0
 33 35  1  0  0  0  0
 33 32  1  0  0  0  0
 33 34  1  6  0  0  0
 35 36  1  1  0  0  0
 35 37  1  0  0  0  0
 37 38  1  6  0  0  0
 37 39  1  0  0  0  0
 39 41  1  6  0  0  0
 40 39  1  0  0  0  0
 41 42  1  0  0  0  0
M  END
>  <CHROM.1>
-175.45857142,-75.87120178,-167.93703770,160.57670237,151.62538717,78.76631110
-62.54690666,172.10222428,-59.44143708,0.86165292,16.40870331,36.04487135
-2.06655397,1.26929236,0.16412047

>  <Name>
lig.pdb

>  <RI>
0

>  <Rbt.Current_Directory>
/home/itssahil/PROJECTS/Mol_Feturizer/New_Systems/rnas/4wcr

>  <Rbt.Executable>
rbdock ($Id: //depot/dev/client3/rdock/2013.1/src/exe/rbdock.cxx#4 $)

>  <Rbt.Library>
libRbt.so (2013.1, Build901 2013/11/27)

>  <Rbt.Parameter_File>
/export/apps/rDock/src/rDock_2013.1_src/data/scripts/dock_solv.prm

>  <Rbt.Receptor>
prm/pocket_docking_7.prm

>  <SCORE>
-20.7505

>  <SCORE.INTER>
-14.3284

>  <SCORE.INTER.CONST>
1

>  <SCORE.INTER.POLAR>
0

>  <SCORE.INTER.ROT>
9

>  <SCORE.INTER.SOLV>
19.5493

>  <SCORE.INTER.VDW>
-25.6687

>  <SCORE.INTER.norm>
-0.341152

>  <SCORE.INTRA>
-6.42211

>  <SCORE.INTRA.DIHEDRAL>
-7.23063

>  <SCORE.INTRA.DIHEDRAL.0>
16.2863

>  <SCORE.INTRA.POLAR>
0

>  <SCORE.INTRA.POLAR.0>
0

>  <SCORE.INTRA.REPUL>
-0.314433

>  <SCORE.INTRA.REPUL.0>
0.314433

>  <SCORE.INTRA.SOLV>
-3.72134

>  <SCORE.INTRA.SOLV.lig_0>
-103.824

>  <SCORE.INTRA.VDW>
0.626038

>  <SCORE.INTRA.VDW.0>
-5.30945

>  <SCORE.INTRA.norm>
-0.152907

>  <SCORE.RESTR>
0

>  <SCORE.RESTR.CAVITY>
0

>  <SCORE.RESTR.norm>
0

>  <SCORE.SYSTEM>
0

>  <SCORE.SYSTEM.CONST>
0

>  <SCORE.SYSTEM.DIHEDRAL>
0

>  <SCORE.SYSTEM.SOLV>
0

>  <SCORE.SYSTEM.norm>
0

>  <SCORE.heavy>
42

>  <SCORE.norm>
-0.49406

>  <RMSD>
10.513

$$$$
lig.pdb
 OpenBabel11021811513D
libRbt.so/2013.1/901 2013/11/27
 42 45  0  0  0  0  0  0  0  0999 V2000
   -1.7374    4.4227   38.6579 C   0  0  2  0  0  0  0  0  0  0  0  0
   -3.1165    4.1313   38.2703 O   0  0  0  0  0  0  0  0  0  0  0  0
   -1.3924    3.4247   39.8516 C   0  0  2  0  0  0  0  0  0  0  0  0
   -1.4746    2.0352   39.3931 N   0  0  0  0  0  0  0  0  0  0  0  0
   -2.3890    3.7196   41.0762 C   0  0  1  0  0  0  0  0  0  0  0  0
   -2.1132    2.8487   42.1934 O   0  0  0  0  0  0  0  0  0  0  0  0
   -2.2162    5.2002   41.4563 C   0  0  2  0  0  0  0  0  0  0  0  0
   -3.0658    5.4921   42.5130 O   0  0  0  0  0  0  0  0  0  0  0  0
   -2.5360    6.1261   40.1958 C   0  0  2  0  0  0  0  0  0  0  0  0
   -1.6625    5.8312   39.0987 O   0  0  0  0  0  0  0  0  0  0  0  0
   -2.3631    7.5851   40.5096 C   0  0  0  0  0  0  0  0  0  0  0  0
   -0.9924    7.7943   40.8515 O   0  0  0  0  0  0  0  0  0  0  0  0
   -3.1824    5.6827   34.1036 C   0  0  2  0  0  0  0  0  0  0  0  0
   -3.6306    5.9748   32.7594 N   0  0  0  0  0  0  0  0  0  0  0  0
   -3.2305    4.1281   34.3674 C   0  0  0  0  0  0  0  0  0  0  0  0
   -2.7526    3.7848   35.8221 C   0  0  2  0  0  0  0  0  0  0  0  0
   -2.8191    2.3394   36.0274 N   0  0  0  0  0  0  0  0  0  0  0  0
   -3.6359    4.5013   36.9378 C   0  0  2  0  0  0  0  0  0  0  0  0
   -3.5483    6.0347   36.6872 C   0  0  2  0  0  0  0  0  0  0  0  0
   -4.3971    6.6343   37.7839 O   0  0  0  0  0  0  0  0  0  0  0  0
   -4.1082    6.3908   35.2016 C   0  0  1  0  0  0  0  0  0  0  0  0
   -4.0232    7.8045   34.8322 O   0  0  0  0  0  0  0  0  0  0  0  0
   -4.3921    8.0033   37.7273 C   0  0  1  0  0  0  0  0  0  0  0  0
   -5.1447    8.6273   38.8206 C   0  0  2  0  0  0  0  0  0  0  0  0
   -6.4970    8.4220   38.5644 O   0  0  0  0  0  0  0  0  0  0  0  0
   -4.5641   10.0576   38.8055 C   0  0  2  0  0  0  0  0  0  0  0  0
   -5.6653   10.9517   38.5272 O   0  0  0  0  0  0  0  0  0  0  0  0
   -3.5459   10.0465   37.7133 C   0  0  2  0  0  0  0  0  0  0  0  0
   -3.1323    8.6409   37.8575 O   0  0  0  0  0  0  0  0  0  0  0  0
   -2.3396   11.0057   38.0284 C   0  0  0  0  0  0  0  0  0  0  0  0
   -1.5883   10.6292   39.2212 O   0  0  0  0  0  0  0  0  0  0  0  0
   -5.4004   12.3824   38.6458 C   0  0  2  0  0  0  0  0  0  0  0  0
   -6.8150   13.1642   38.6906 C   0  0  2  0  0  0  0  0  0  0  0  0
   -7.5935   12.8458   37.4500 N   0  0  0  0  0  0  0  0  0  0  0  0
   -6.5146   14.7376   38.8250 C   0  0  1  0  0  0  0  0  0  0  0  0
   -5.7508   14.9301   40.0543 O   0  0  0  0  0  0  0  0  0  0  0  0
   -5.6884   15.2305   37.5526 C   0  0  2  0  0  0  0  0  0  0  0  0
   -6.5301   15.0168   36.3542 O   0  0  0  0  0  0  0  0  0  0  0  0
   -4.2924   14.3881   37.4952 C   0  0  1  0  0  0  0  0  0  0  0  0
   -4.5944   12.9113   37.4417 O   0  0  0  0  0  0  0  0  0  0  0  0
   -3.4624   14.8346   36.2461 C   0  0  0  0  0  0  0  0  0  0  0  0
   -2.1643   14.1023   36.1199 N   0  0  0  0  0  0  0  0  0  0  0  0
  1  3  1  0  0  0  0
  1  2  1  1  0  0  0
  3  4  1  6  0  0  0
  3  5  1  0  0  0  0
  5  6  1  1  0  0  0
  7  8  1  1  0  0  0
  7  5  1  0  0  0  0
  9 11  1  1  0  0  0
  9  7  1  0  0  0  0
 10  9  1  0  0  0  0
 10  1  1  0  0  0  0
 12 11  1  0  0  0  0
 13 14  1  6  0  0  0
 15 13  1  0  0  0  0
 16 17  1  1  0  0  0
 16 15  1  0  0  0  0
 18  2  1  1  0  0  0
 18 19  1  0  0  0  0
 18 16  1  0  0  0  0
 19 20  1  1  0  0  0
 19 21  1  0  0  0  0
 21 22  1  6  0  0  0
 21 13  1  0  0  0  0
 23 20  1  1  0  0  0
 23 29  1  0  0  0  0
 24 25  1  6  0  0  0
 24 26  1  0  0  0  0
 24 23  1  0  0  0  0
 26 27  1  6  0  0  0
 26 28  1  0  0  0  0
 28 30  1  1  0  0  0
 29 28  1  0  0  0  0
 30 31  1  0  0  0  0
 32 27  1  6  0  0  0
 32 40  1  0  0  0  0
 33 35  1  0  0  0  0
 33 32  1  0  0  0  0
 33 34  1  6  0  0  0
 35 36  1  1  0  0  0
 35 37  1  0  0  0  0
 37 38  1  6  0  0  0
 37 39  1  0  0  0  0
 39 41  1  6  0  0  0
 40 39  1  0  0  0  0
 41 42  1  0  0  0  0
M  END
>  <CHROM.1>
-158.66554098,62.35235838,58.94981791,178.18711422,-176.80656334,171.70165896
62.38452205,-164.93518986,-179.83123384,-3.71397244,8.42135049,38.09874389
-0.46763564,-1.25596249,0.99548176

>  <Name>
lig.pdb

>  <RI>
0

>  <Rbt.Current_Directory>
/home/itssahil/PROJECTS/Mol_Feturizer/New_Systems/rnas/4wcr

>  <Rbt.Executable>
rbdock ($Id: //depot/dev/client3/rdock/2013.1/src/exe/rbdock.cxx#4 $)

>  <Rbt.Library>
libRbt.so (2013.1, Build901 2013/11/27)

>  <Rbt.Parameter_File>
/export/apps/rDock/src/rDock_2013.1_src/data/scripts/dock_solv.prm

>  <Rbt.Receptor>
prm/pocket_docking_8.prm

>  <SCORE>
-6.34007

>  <SCORE.INTER>
3.15934

>  <SCORE.INTER.CONST>
1

>  <SCORE.INTER.POLAR>
0

>  <SCORE.INTER.ROT>
9

>  <SCORE.INTER.SOLV>
15.2903

>  <SCORE.INTER.VDW>
-12.5905

>  <SCORE.INTER.norm>
0.0752224

>  <SCORE.INTRA>
-9.49941

>  <SCORE.INTRA.DIHEDRAL>
-12.2255

>  <SCORE.INTRA.DIHEDRAL.0>
16.2863

>  <SCORE.INTRA.POLAR>
0

>  <SCORE.INTRA.POLAR.0>
0

>  <SCORE.INTRA.REPUL>
-0.314433

>  <SCORE.INTRA.REPUL.0>
0.314433

>  <SCORE.INTRA.SOLV>
-2.06847

>  <SCORE.INTRA.SOLV.lig_0>
-103.824

>  <SCORE.INTRA.VDW>
-0.780256

>  <SCORE.INTRA.VDW.0>
-5.30945

>  <SCORE.INTRA.norm>
-0.226176

>  <SCORE.RESTR>
0

>  <SCORE.RESTR.CAVITY>
0

>  <SCORE.RESTR.norm>
0

>  <SCORE.SYSTEM>
0

>  <SCORE.SYSTEM.CONST>
0

>  <SCORE.SYSTEM.DIHEDRAL>
0

>  <SCORE.SYSTEM.SOLV>
0

>  <SCORE.SYSTEM.norm>
0

>  <SCORE.heavy>
42

>  <SCORE.norm>
-0.150954

>  <RMSD>
10.516

$$$$
lig.pdb
 OpenBabel11021811513D
libRbt.so/2013.1/901 2013/11/27
 42 45  0  0  0  0  0  0  0  0999 V2000
   -4.4779    5.3652   35.8710 C   0  0  2  0  0  0  0  0  0  0  0  0
   -3.9260    6.4731   35.0931 O   0  0  0  0  0  0  0  0  0  0  0  0
   -4.3611    5.7966   37.4008 C   0  0  2  0  0  0  0  0  0  0  0  0
   -5.1594    6.9995   37.6527 N   0  0  0  0  0  0  0  0  0  0  0  0
   -2.8104    6.0111   37.7603 C   0  0  1  0  0  0  0  0  0  0  0  0
   -2.6442    6.3934   39.1419 O   0  0  0  0  0  0  0  0  0  0  0  0
   -2.0844    4.6917   37.4465 C   0  0  2  0  0  0  0  0  0  0  0  0
   -0.7380    4.8410   37.7441 O   0  0  0  0  0  0  0  0  0  0  0  0
   -2.2893    4.3103   35.9100 C   0  0  2  0  0  0  0  0  0  0  0  0
   -3.6782    4.1540   35.5935 O   0  0  0  0  0  0  0  0  0  0  0  0
   -1.6138    3.0160   35.5554 C   0  0  0  0  0  0  0  0  0  0  0  0
   -2.2482    1.9782   36.3038 O   0  0  0  0  0  0  0  0  0  0  0  0
   -3.8408    7.3422   30.7331 C   0  0  2  0  0  0  0  0  0  0  0  0
   -4.2803    7.5468   29.3700 N   0  0  0  0  0  0  0  0  0  0  0  0
   -4.3004    5.9228   31.2456 C   0  0  0  0  0  0  0  0  0  0  0  0
   -3.8391    5.6777   32.7254 C   0  0  2  0  0  0  0  0  0  0  0  0
   -4.2900    4.3583   33.1631 N   0  0  0  0  0  0  0  0  0  0  0  0
   -4.4113    6.7735   33.7305 C   0  0  2  0  0  0  0  0  0  0  0  0
   -3.9189    8.1635   33.2335 C   0  0  2  0  0  0  0  0  0  0  0  0
   -4.4917    9.1359   34.2380 O   0  0  0  0  0  0  0  0  0  0  0  0
   -4.4573    8.4395   31.7231 C   0  0  1  0  0  0  0  0  0  0  0  0
   -4.0086    9.6993   31.1283 O   0  0  0  0  0  0  0  0  0  0  0  0
   -3.8963   10.3658   34.1382 C   0  0  1  0  0  0  0  0  0  0  0  0
   -4.4671   11.3578   35.0554 C   0  0  2  0  0  0  0  0  0  0  0  0
   -5.7226   11.7036   34.5646 O   0  0  0  0  0  0  0  0  0  0  0  0
   -3.3382   12.4098   35.0988 C   0  0  2  0  0  0  0  0  0  0  0  0
   -3.8985   13.6438   34.5958 O   0  0  0  0  0  0  0  0  0  0  0  0
   -2.2698   11.8626   34.2107 C   0  0  2  0  0  0  0  0  0  0  0  0
   -2.5205   10.4358   34.4740 O   0  0  0  0  0  0  0  0  0  0  0  0
   -0.8327   12.2652   34.7080 C   0  0  0  0  0  0  0  0  0  0  0  0
    0.2458   11.6425   33.9476 O   0  0  0  0  0  0  0  0  0  0  0  0
   -3.0121   14.8029   34.5545 C   0  0  2  0  0  0  0  0  0  0  0  0
   -2.6283   15.2098   36.0715 C   0  0  2  0  0  0  0  0  0  0  0  0
   -3.8842   15.4996   36.8367 N   0  0  0  0  0  0  0  0  0  0  0  0
   -1.6498   16.4839   36.0170 C   0  0  1  0  0  0  0  0  0  0  0  0
   -0.4721   16.0939   35.2471 O   0  0  0  0  0  0  0  0  0  0  0  0
   -2.4079   17.7060   35.3272 C   0  0  2  0  0  0  0  0  0  0  0  0
   -3.5752   18.0498   36.1694 O   0  0  0  0  0  0  0  0  0  0  0  0
   -2.8360   17.2530   33.8194 C   0  0  1  0  0  0  0  0  0  0  0  0
   -3.6945   16.0148   33.8876 O   0  0  0  0  0  0  0  0  0  0  0  0
   -3.5994   18.4248   33.1175 C   0  0  0  0  0  0  0  0  0  0  0  0
   -4.2537   18.0075   31.8388 N   0  0  0  0  0  0  0  0  0  0  0  0
  1  3  1  0  0  0  0
  1  2  1  6  0  0  0
  3  4  1  6  0  0  0
  3  5  1  0  0  0  0
  5  6  1  1  0  0  0
  7  8  1  6  0  0  0
  7  5  1  0  0  0  0
  9 11  1  1  0  0  0
  9  7  1  0  0  0  0
 10  9  1  0  0  0  0
 10  1  1  0  0  0  0
 12 11  1  0  0  0  0
 13 14  1  6  0  0  0
 15 13  1  0  0  0  0
 16 17  1  1  0  0  0
 16 15  1  0  0  0  0
 18  2  1  1  0  0  0
 18 19  1  0  0  0  0
 18 16  1  0  0  0  0
 19 20  1  1  0  0  0
 19 21  1  0  0  0  0
 21 22  1  6  0  0  0
 21 13  1  0  0  0  0
 23 20  1  1  0  0  0
 23 29  1  0  0  0  0
 24 25  1  6  0  0  0
 24 26  1  0  0  0  0
 24 23  1  0  0  0  0
 26 27  1  6  0  0  0
 26 28  1  0  0  0  0
 28 30  1  1  0  0  0
 29 28  1  0  0  0  0
 30 31  1  0  0  0  0
 32 27  1  1  0  0  0
 32 40  1  0  0  0  0
 33 35  1  0  0  0  0
 33 32  1  0  0  0  0
 33 34  1  1  0  0  0
 35 36  1  6  0  0  0
 35 37  1  0  0  0  0
 37 38  1  1  0  0  0
 37 39  1  0  0  0  0
 39 41  1  1  0  0  0
 40 39  1  0  0  0  0
 41 42  1  0  0  0  0
M  END
>  <CHROM.1>
-149.92668129,63.99350513,-74.28696250,165.39907378,177.35770481,179.34685544
174.23465444,-65.75467075,-168.95384454,-3.23602019,10.05525510,34.69602765
-1.63631382,-1.25931764,-0.13282863

>  <Name>
lig.pdb

>  <RI>
0

>  <Rbt.Current_Directory>
/home/itssahil/PROJECTS/Mol_Feturizer/New_Systems/rnas/4wcr

>  <Rbt.Executable>
rbdock ($Id: //depot/dev/client3/rdock/2013.1/src/exe/rbdock.cxx#4 $)

>  <Rbt.Library>
libRbt.so (2013.1, Build901 2013/11/27)

>  <Rbt.Parameter_File>
/export/apps/rDock/src/rDock_2013.1_src/data/scripts/dock_solv.prm

>  <Rbt.Receptor>
prm/pocket_docking_7.prm

>  <SCORE>
-5.56912

>  <SCORE.INTER>
0.350059

>  <SCORE.INTER.CONST>
1

>  <SCORE.INTER.POLAR>
0

>  <SCORE.INTER.ROT>
9

>  <SCORE.INTER.SOLV>
24.9211

>  <SCORE.INTER.VDW>
-17.6737

>  <SCORE.INTER.norm>
0.00833475

>  <SCORE.INTRA>
-5.91918

>  <SCORE.INTRA.DIHEDRAL>
-9.35541

>  <SCORE.INTRA.DIHEDRAL.0>
16.2863

>  <SCORE.INTRA.POLAR>
0

>  <SCORE.INTRA.POLAR.0>
0

>  <SCORE.INTRA.REPUL>
-0.309342

>  <SCORE.INTRA.REPUL.0>
0.314433

>  <SCORE.INTRA.SOLV>
-2.77815

>  <SCORE.INTRA.SOLV.lig_0>
-103.824

>  <SCORE.INTRA.VDW>
1.6943

>  <SCORE.INTRA.VDW.0>
-5.30945

>  <SCORE.INTRA.norm>
-0.140933

>  <SCORE.RESTR>
0

>  <SCORE.RESTR.CAVITY>
0

>  <SCORE.RESTR.norm>
0

>  <SCORE.SYSTEM>
0

>  <SCORE.SYSTEM.CONST>
0

>  <SCORE.SYSTEM.DIHEDRAL>
0

>  <SCORE.SYSTEM.SOLV>
0

>  <SCORE.SYSTEM.norm>
0

>  <SCORE.heavy>
42

>  <SCORE.norm>
-0.132598

>  <RMSD>
10.701

$$$$
lig.pdb
 OpenBabel11021811513D
libRbt.so/2013.1/901 2013/11/27
 42 45  0  0  0  0  0  0  0  0999 V2000
    1.8861   11.9103   38.0622 C   0  0  2  0  0  0  0  0  0  0  0  0
    1.2528   13.2221   37.9394 O   0  0  0  0  0  0  0  0  0  0  0  0
    2.0439   11.3537   36.5771 C   0  0  2  0  0  0  0  0  0  0  0  0
    2.9172   12.2327   35.7944 N   0  0  0  0  0  0  0  0  0  0  0  0
    0.5846   11.2083   35.9220 C   0  0  1  0  0  0  0  0  0  0  0  0
    0.6671   10.6956   34.5755 O   0  0  0  0  0  0  0  0  0  0  0  0
   -0.2321   10.2766   36.8337 C   0  0  2  0  0  0  0  0  0  0  0  0
   -1.5029   10.1290   36.2981 O   0  0  0  0  0  0  0  0  0  0  0  0
   -0.3024   10.8836   38.3085 C   0  0  2  0  0  0  0  0  0  0  0  0
    1.0068   11.0395   38.8699 O   0  0  0  0  0  0  0  0  0  0  0  0
   -1.0753    9.9996   39.2457 C   0  0  0  0  0  0  0  0  0  0  0  0
   -2.4455   10.0379   38.8448 O   0  0  0  0  0  0  0  0  0  0  0  0
    0.6664   16.3528   41.0423 C   0  0  2  0  0  0  0  0  0  0  0  0
    0.9523   17.3644   42.0362 N   0  0  0  0  0  0  0  0  0  0  0  0
    1.4019   15.0062   41.4093 C   0  0  0  0  0  0  0  0  0  0  0  0
    1.1110   13.8925   40.3429 C   0  0  2  0  0  0  0  0  0  0  0  0
    1.8147   12.6669   40.7153 N   0  0  0  0  0  0  0  0  0  0  0  0
    1.5673   14.3193   38.8773 C   0  0  2  0  0  0  0  0  0  0  0  0
    0.8059   15.6272   38.5150 C   0  0  2  0  0  0  0  0  0  0  0  0
    1.2838   15.9551   37.1198 O   0  0  0  0  0  0  0  0  0  0  0  0
    1.1647   16.7976   39.5869 C   0  0  1  0  0  0  0  0  0  0  0  0
    0.4606   18.0635   39.3776 O   0  0  0  0  0  0  0  0  0  0  0  0
    0.5512   16.9724   36.5670 C   0  0  1  0  0  0  0  0  0  0  0  0
    1.3808   17.9888   35.9113 C   0  0  2  0  0  0  0  0  0  0  0  0
    2.0123   18.7194   36.9134 O   0  0  0  0  0  0  0  0  0  0  0  0
    0.3459   18.6725   34.9922 C   0  0  2  0  0  0  0  0  0  0  0  0
    0.2764   20.0575   35.4004 O   0  0  0  0  0  0  0  0  0  0  0  0
   -0.9306   17.9383   35.2395 C   0  0  2  0  0  0  0  0  0  0  0  0
   -0.3371   16.6203   35.5193 O   0  0  0  0  0  0  0  0  0  0  0  0
   -1.8261   17.8708   33.9480 C   0  0  0  0  0  0  0  0  0  0  0  0
   -2.2536   19.1788   33.4628 O   0  0  0  0  0  0  0  0  0  0  0  0
    1.4455   20.8868   35.1239 C   0  0  2  0  0  0  0  0  0  0  0  0
    1.0967   22.4145   35.5218 C   0  0  2  0  0  0  0  0  0  0  0  0
   -0.1002   22.8662   34.7407 N   0  0  0  0  0  0  0  0  0  0  0  0
    2.3897   23.3199   35.2181 C   0  0  1  0  0  0  0  0  0  0  0  0
    3.4887   22.7896   36.0196 O   0  0  0  0  0  0  0  0  0  0  0  0
    2.7302   23.2532   33.6611 C   0  0  2  0  0  0  0  0  0  0  0  0
    1.5804   23.8183   32.9204 O   0  0  0  0  0  0  0  0  0  0  0  0
    3.0219   21.6961   33.2708 C   0  0  1  0  0  0  0  0  0  0  0  0
    1.8247   20.8517   33.6292 O   0  0  0  0  0  0  0  0  0  0  0  0
    3.3432   21.5908   31.7429 C   0  0  0  0  0  0  0  0  0  0  0  0
    2.1857   21.9783   30.8785 N   0  0  0  0  0  0  0  0  0  0  0  0
  1  3  1  0  0  0  0
  1  2  1  6  0  0  0
  3  4  1  6  0  0  0
  3  5  1  0  0  0  0
  5  6  1  6  0  0  0
  7  8  1  6  0  0  0
  7  5  1  0  0  0  0
  9 11  1  1  0  0  0
  9  7  1  0  0  0  0
 10  9  1  0  0  0  0
 10  1  1  0  0  0  0
 12 11  1  0  0  0  0
 13 14  1  1  0  0  0
 15 13  1  0  0  0  0
 16 17  1  1  0  0  0
 16 15  1  0  0  0  0
 18  2  1  6  0  0  0
 18 19  1  0  0  0  0
 18 16  1  0  0  0  0
 19 20  1  6  0  0  0
 19 21  1  0  0  0  0
 21 22  1  6  0  0  0
 21 13  1  0  0  0  0
 23 20  1  6  0  0  0
 23 29  1  0  0  0  0
 24 25  1  1  0  0  0
 24 26  1  0  0  0  0
 24 23  1  0  0  0  0
 26 27  1  1  0  0  0
 26 28  1  0  0  0  0
 28 30  1  6  0  0  0
 29 28  1  0  0  0  0
 30 31  1  0  0  0  0
 32 27  1  6  0  0  0
 32 40  1  0  0  0  0
 33 35  1  0  0  0  0
 33 32  1  0  0  0  0
 33 34  1  6  0  0  0
 35 36  1  1  0  0  0
 35 37  1  0  0  0  0
 37 38  1  6  0  0  0
 37 39  1  0  0  0  0
 39 41  1  6  0  0  0
 40 39  1  0  0  0  0
 41 42  1  0  0  0  0
M  END
>  <CHROM.1>
-146.66298203,-68.73200450,-63.33499693,170.57330634,134.38340045,69.21607543
-62.35245025,174.35180876,-64.26318066,0.88598174,16.62616839,36.56944393
2.16732329,1.35641092,2.16356256

>  <Name>
lig.pdb

>  <RI>
0

>  <Rbt.Current_Directory>
/home/itssahil/PROJECTS/Mol_Feturizer/New_Systems/rnas/4wcr

>  <Rbt.Executable>
rbdock ($Id: //depot/dev/client3/rdock/2013.1/src/exe/rbdock.cxx#4 $)

>  <Rbt.Library>
libRbt.so (2013.1, Build901 2013/11/27)

>  <Rbt.Parameter_File>
/export/apps/rDock/src/rDock_2013.1_src/data/scripts/dock_solv.prm

>  <Rbt.Receptor>
prm/pocket_docking_6.prm

>  <SCORE>
-13.0415

>  <SCORE.INTER>
-10.7615

>  <SCORE.INTER.CONST>
1

>  <SCORE.INTER.POLAR>
0

>  <SCORE.INTER.ROT>
9

>  <SCORE.INTER.SOLV>
24.3867

>  <SCORE.INTER.VDW>
-24.9032

>  <SCORE.INTER.norm>
-0.256225

>  <SCORE.INTRA>
-2.28005

>  <SCORE.INTRA.DIHEDRAL>
-3.94067

>  <SCORE.INTRA.DIHEDRAL.0>
16.2863

>  <SCORE.INTRA.POLAR>
0

>  <SCORE.INTRA.POLAR.0>
0

>  <SCORE.INTRA.REPUL>
-0.314433

>  <SCORE.INTRA.REPUL.0>
0.314433

>  <SCORE.INTRA.SOLV>
-1.04527

>  <SCORE.INTRA.SOLV.lig_0>
-103.824

>  <SCORE.INTRA.VDW>
1.78508

>  <SCORE.INTRA.VDW.0>
-5.30945

>  <SCORE.INTRA.norm>
-0.0542869

>  <SCORE.RESTR>
0

>  <SCORE.RESTR.CAVITY>
0

>  <SCORE.RESTR.norm>
0

>  <SCORE.SYSTEM>
0

>  <SCORE.SYSTEM.CONST>
0

>  <SCORE.SYSTEM.DIHEDRAL>
0

>  <SCORE.SYSTEM.SOLV>
0

>  <SCORE.SYSTEM.norm>
0

>  <SCORE.heavy>
42

>  <SCORE.norm>
-0.310512

>  <RMSD>
10.757

$$$$
lig.pdb
 OpenBabel11021811513D
libRbt.so/2013.1/901 2013/11/27
 42 45  0  0  0  0  0  0  0  0999 V2000
   -6.3089   17.9246   29.0331 C   0  0  2  0  0  0  0  0  0  0  0  0
   -6.3100   17.1507   30.2734 O   0  0  0  0  0  0  0  0  0  0  0  0
   -7.4965   18.9789   29.1677 C   0  0  2  0  0  0  0  0  0  0  0  0
   -7.2487   19.8836   30.2937 N   0  0  0  0  0  0  0  0  0  0  0  0
   -8.8812   18.1802   29.3242 C   0  0  1  0  0  0  0  0  0  0  0  0
   -9.9964   19.0890   29.4391 O   0  0  0  0  0  0  0  0  0  0  0  0
   -9.0200   17.2661   28.0948 C   0  0  2  0  0  0  0  0  0  0  0  0
  -10.2077   16.5571   28.1971 O   0  0  0  0  0  0  0  0  0  0  0  0
   -7.7710   16.2756   28.0098 C   0  0  2  0  0  0  0  0  0  0  0  0
   -6.5390   16.9998   27.9038 O   0  0  0  0  0  0  0  0  0  0  0  0
   -7.8488   15.3715   26.8124 C   0  0  0  0  0  0  0  0  0  0  0  0
   -7.7832   16.1927   25.6458 O   0  0  0  0  0  0  0  0  0  0  0  0
   -3.6498   14.6924   32.8527 C   0  0  2  0  0  0  0  0  0  0  0  0
   -2.4916   13.9636   33.3220 N   0  0  0  0  0  0  0  0  0  0  0  0
   -4.0958   14.1532   31.4387 C   0  0  0  0  0  0  0  0  0  0  0  0
   -5.3494   14.9315   30.9048 C   0  0  2  0  0  0  0  0  0  0  0  0
   -5.7247   14.4076   29.5932 N   0  0  0  0  0  0  0  0  0  0  0  0
   -5.0834   16.4969   30.7736 C   0  0  2  0  0  0  0  0  0  0  0  0
   -4.6813   17.0205   32.1827 C   0  0  2  0  0  0  0  0  0  0  0  0
   -4.4585   18.5002   31.9741 O   0  0  0  0  0  0  0  0  0  0  0  0
   -3.3416   16.2565   32.7012 C   0  0  1  0  0  0  0  0  0  0  0  0
   -2.8990   16.6298   34.0455 O   0  0  0  0  0  0  0  0  0  0  0  0
   -3.5231   18.9924   32.8459 C   0  0  1  0  0  0  0  0  0  0  0  0
   -3.5052   20.4578   32.9039 C   0  0  2  0  0  0  0  0  0  0  0  0
   -2.9335   20.9137   31.7198 O   0  0  0  0  0  0  0  0  0  0  0  0
   -2.7871   20.6952   34.2498 C   0  0  2  0  0  0  0  0  0  0  0  0
   -1.5785   21.4308   33.9535 O   0  0  0  0  0  0  0  0  0  0  0  0
   -2.5090   19.3282   34.7823 C   0  0  2  0  0  0  0  0  0  0  0  0
   -3.6927   18.6619   34.2143 O   0  0  0  0  0  0  0  0  0  0  0  0
   -2.5629   19.2906   36.3540 C   0  0  0  0  0  0  0  0  0  0  0  0
   -3.6409   20.0932   36.9222 O   0  0  0  0  0  0  0  0  0  0  0  0
   -0.5106   21.3740   34.9472 C   0  0  2  0  0  0  0  0  0  0  0  0
    0.7292   22.2678   34.4197 C   0  0  2  0  0  0  0  0  0  0  0  0
    1.1819   21.7462   33.0894 N   0  0  0  0  0  0  0  0  0  0  0  0
    1.8986   22.2030   35.5208 C   0  0  1  0  0  0  0  0  0  0  0  0
    1.3487   22.7238   36.7689 O   0  0  0  0  0  0  0  0  0  0  0  0
    2.3826   20.6928   35.6924 C   0  0  2  0  0  0  0  0  0  0  0  0
    2.9370   20.2436   34.3959 O   0  0  0  0  0  0  0  0  0  0  0  0
    1.1029   19.7999   36.1690 C   0  0  1  0  0  0  0  0  0  0  0  0
   -0.0096   19.9307   35.1590 O   0  0  0  0  0  0  0  0  0  0  0  0
    1.5384   18.3056   36.3308 C   0  0  0  0  0  0  0  0  0  0  0  0
    0.4437   17.4367   36.8634 N   0  0  0  0  0  0  0  0  0  0  0  0
  1  3  1  0  0  0  0
  1  2  1  1  0  0  0
  3  4  1  1  0  0  0
  3  5  1  0  0  0  0
  5  6  1  6  0  0  0
  7  8  1  1  0  0  0
  7  5  1  0  0  0  0
  9 11  1  6  0  0  0
  9  7  1  0  0  0  0
 10  9  1  0  0  0  0
 10  1  1  0  0  0  0
 12 11  1  0  0  0  0
 13 14  1  6  0  0  0
 15 13  1  0  0  0  0
 16 17  1  6  0  0  0
 16 15  1  0  0  0  0
 18  2  1  1  0  0  0
 18 19  1  0  0  0  0
 18 16  1  0  0  0  0
 19 20  1  6  0  0  0
 19 21  1  0  0  0  0
 21 22  1  1  0  0  0
 21 13  1  0  0  0  0
 23 20  1  6  0  0  0
 23 29  1  0  0  0  0
 24 25  1  6  0  0  0
 24 26  1  0  0  0  0
 24 23  1  0  0  0  0
 26 27  1  6  0  0  0
 26 28  1  0  0  0  0
 28 30  1  1  0  0  0
 29 28  1  0  0  0  0
 30 31  1  0  0  0  0
 32 27  1  6  0  0  0
 32 40  1  0  0  0  0
 33 35  1  0  0  0  0
 33 32  1  0  0  0  0
 33 34  1  6  0  0  0
 35 36  1  1  0  0  0
 35 37  1  0  0  0  0
 37 38  1  6  0  0  0
 37 39  1  0  0  0  0
 39 41  1  6  0  0  0
 40 39  1  0  0  0  0
 41 42  1  0  0  0  0
M  END
>  <CHROM.1>
-154.18372320,63.73476146,-121.45152840,-150.34298008,-166.21519087,-158.99822977
39.98870654,-179.59567236,175.77933613,-3.61042092,18.43450198,32.35627078
2.78794260,0.68694077,-3.11514451

>  <Name>
lig.pdb

>  <RI>
0

>  <Rbt.Current_Directory>
/home/itssahil/PROJECTS/Mol_Feturizer/New_Systems/rnas/4wcr

>  <Rbt.Executable>
rbdock ($Id: //depot/dev/client3/rdock/2013.1/src/exe/rbdock.cxx#4 $)

>  <Rbt.Library>
libRbt.so (2013.1, Build901 2013/11/27)

>  <Rbt.Parameter_File>
/export/apps/rDock/src/rDock_2013.1_src/data/scripts/dock_solv.prm

>  <Rbt.Receptor>
prm/blind_docking_100.prm

>  <SCORE>
0.132448

>  <SCORE.INTER>
-10.7426

>  <SCORE.INTER.CONST>
1

>  <SCORE.INTER.POLAR>
0

>  <SCORE.INTER.ROT>
9

>  <SCORE.INTER.SOLV>
34.5172

>  <SCORE.INTER.VDW>
-28.2675

>  <SCORE.INTER.norm>
-0.255777

>  <SCORE.INTRA>
8.22819

>  <SCORE.INTRA.DIHEDRAL>
1.90035

>  <SCORE.INTRA.DIHEDRAL.0>
16.2863

>  <SCORE.INTRA.POLAR>
0

>  <SCORE.INTRA.POLAR.0>
0

>  <SCORE.INTRA.REPUL>
-0.314433

>  <SCORE.INTRA.REPUL.0>
0.314433

>  <SCORE.INTRA.SOLV>
-0.695561

>  <SCORE.INTRA.SOLV.lig_0>
-103.824

>  <SCORE.INTRA.VDW>
9.19796

>  <SCORE.INTRA.VDW.0>
-5.30945

>  <SCORE.INTRA.norm>
0.195909

>  <SCORE.RESTR>
2.64689

>  <SCORE.RESTR.CAVITY>
2.64689

>  <SCORE.RESTR.norm>
0.0630211

>  <SCORE.SYSTEM>
0

>  <SCORE.SYSTEM.CONST>
0

>  <SCORE.SYSTEM.DIHEDRAL>
0

>  <SCORE.SYSTEM.SOLV>
0

>  <SCORE.SYSTEM.norm>
0

>  <SCORE.heavy>
42

>  <SCORE.norm>
0.00315352

>  <RMSD>
11.007

$$$$
lig.pdb
 OpenBabel11021811513D
libRbt.so/2013.1/901 2013/11/27
 42 45  0  0  0  0  0  0  0  0999 V2000
   -6.0009   17.2837   29.0355 C   0  0  2  0  0  0  0  0  0  0  0  0
   -6.0995   16.4173   30.2088 O   0  0  0  0  0  0  0  0  0  0  0  0
   -6.9670   18.5200   29.3153 C   0  0  2  0  0  0  0  0  0  0  0  0
   -6.5144   19.2626   30.4949 N   0  0  0  0  0  0  0  0  0  0  0  0
   -8.4689   17.9752   29.4805 C   0  0  1  0  0  0  0  0  0  0  0  0
   -9.3914   19.0576   29.7254 O   0  0  0  0  0  0  0  0  0  0  0  0
   -8.8200   17.2126   28.1915 C   0  0  2  0  0  0  0  0  0  0  0  0
  -10.1138   16.7247   28.2996 O   0  0  0  0  0  0  0  0  0  0  0  0
   -7.7800   16.0233   27.9629 C   0  0  2  0  0  0  0  0  0  0  0  0
   -6.4400   16.5184   27.8500 O   0  0  0  0  0  0  0  0  0  0  0  0
   -8.0682   15.2567   26.7033 C   0  0  0  0  0  0  0  0  0  0  0  0
   -7.9614   16.1678   25.6088 O   0  0  0  0  0  0  0  0  0  0  0  0
   -4.2932   12.7503   31.9592 C   0  0  2  0  0  0  0  0  0  0  0  0
   -3.4170   11.6157   32.1535 N   0  0  0  0  0  0  0  0  0  0  0  0
   -4.9315   12.7042   30.5173 C   0  0  0  0  0  0  0  0  0  0  0  0
   -5.8842   13.9283   30.2796 C   0  0  2  0  0  0  0  0  0  0  0  0
   -6.4476   13.8518   28.9333 N   0  0  0  0  0  0  0  0  0  0  0  0
   -5.1334   15.3242   30.4415 C   0  0  2  0  0  0  0  0  0  0  0  0
   -4.5417   15.3704   31.8801 C   0  0  2  0  0  0  0  0  0  0  0  0
   -3.8617   16.7176   31.9535 O   0  0  0  0  0  0  0  0  0  0  0  0
   -3.5035   14.1365   32.0970 C   0  0  1  0  0  0  0  0  0  0  0  0
   -2.9238   14.0459   33.4379 O   0  0  0  0  0  0  0  0  0  0  0  0
   -3.2182   16.8877   33.1511 C   0  0  1  0  0  0  0  0  0  0  0  0
   -2.8278   18.2789   33.4023 C   0  0  2  0  0  0  0  0  0  0  0  0
   -1.7598   18.5697   32.5589 O   0  0  0  0  0  0  0  0  0  0  0  0
   -2.6211   18.2602   34.9321 C   0  0  2  0  0  0  0  0  0  0  0  0
   -1.2382   18.6073   35.1703 O   0  0  0  0  0  0  0  0  0  0  0  0
   -2.9392   16.8609   35.3449 C   0  0  2  0  0  0  0  0  0  0  0  0
   -3.9627   16.5921   34.3211 O   0  0  0  0  0  0  0  0  0  0  0  0
   -3.5767   16.8056   36.7819 C   0  0  0  0  0  0  0  0  0  0  0  0
   -4.9746   16.3874   36.7865 O   0  0  0  0  0  0  0  0  0  0  0  0
   -0.9630   19.9821   35.5764 C   0  0  2  0  0  0  0  0  0  0  0  0
   -1.8183   20.9773   34.6318 C   0  0  2  0  0  0  0  0  0  0  0  0
   -1.4468   20.7377   33.1996 N   0  0  0  0  0  0  0  0  0  0  0  0
   -1.5126   22.4881   35.0878 C   0  0  1  0  0  0  0  0  0  0  0  0
   -1.9021   22.6053   36.4900 O   0  0  0  0  0  0  0  0  0  0  0  0
    0.0406   22.7963   34.8956 C   0  0  2  0  0  0  0  0  0  0  0  0
    0.3533   22.6715   33.4545 O   0  0  0  0  0  0  0  0  0  0  0  0
    0.8851   21.7437   35.8126 C   0  0  1  0  0  0  0  0  0  0  0  0
    0.5310   20.3317   35.4182 O   0  0  0  0  0  0  0  0  0  0  0  0
    2.4174   22.0064   35.6346 C   0  0  0  0  0  0  0  0  0  0  0  0
    2.8004   23.4233   35.9222 N   0  0  0  0  0  0  0  0  0  0  0  0
  1  3  1  0  0  0  0
  1  2  1  1  0  0  0
  3  4  1  1  0  0  0
  3  5  1  0  0  0  0
  5  6  1  6  0  0  0
  7  8  1  1  0  0  0
  7  5  1  0  0  0  0
  9 11  1  6  0  0  0
  9  7  1  0  0  0  0
 10  9  1  0  0  0  0
 10  1  1  0  0  0  0
 12 11  1  0  0  0  0
 13 14  1  6  0  0  0
 15 13  1  0  0  0  0
 16 17  1  6  0  0  0
 16 15  1  0  0  0  0
 18  2  1  1  0  0  0
 18 19  1  0  0  0  0
 18 16  1  0  0  0  0
 19 20  1  6  0  0  0
 19 21  1  0  0  0  0
 21 22  1  1  0  0  0
 21 13  1  0  0  0  0
 23 20  1  6  0  0  0
 23 29  1  0  0  0  0
 24 25  1  6  0  0  0
 24 26  1  0  0  0  0
 24 23  1  0  0  0  0
 26 27  1  6  0  0  0
 26 28  1  0  0  0  0
 28 30  1  1  0  0  0
 29 28  1  0  0  0  0
 30 31  1  0  0  0  0
 32 27  1  6  0  0  0
 32 40  1  0  0  0  0
 33 35  1  0  0  0  0
 33 32  1  0  0  0  0
 33 34  1  6  0  0  0
 35 36  1  1  0  0  0
 35 37  1  0  0  0  0
 37 38  1  6  0  0  0
 37 39  1  0  0  0  0
 39 41  1  6  0  0  0
 40 39  1  0  0  0  0
 41 42  1  0  0  0  0
M  END
>  <CHROM.1>
-166.68775310,60.84395198,-111.85700092,-176.66500160,-165.95479389,100.73439282
112.42316207,-44.98613018,54.82685237,-3.94845065,17.72229849,32.26219873
2.75407477,0.80533395,2.96741421

>  <Name>
lig.pdb

>  <RI>
0

>  <Rbt.Current_Directory>
/home/itssahil/PROJECTS/Mol_Feturizer/New_Systems/rnas/4wcr

>  <Rbt.Executable>
rbdock ($Id: //depot/dev/client3/rdock/2013.1/src/exe/rbdock.cxx#4 $)

>  <Rbt.Library>
libRbt.so (2013.1, Build901 2013/11/27)

>  <Rbt.Parameter_File>
/export/apps/rDock/src/rDock_2013.1_src/data/scripts/dock_solv.prm

>  <Rbt.Receptor>
prm/blind_docking_100.prm

>  <SCORE>
9.86342

>  <SCORE.INTER>
-1.14283

>  <SCORE.INTER.CONST>
1

>  <SCORE.INTER.POLAR>
0

>  <SCORE.INTER.ROT>
9

>  <SCORE.INTER.SOLV>
32.5838

>  <SCORE.INTER.VDW>
-21.2232

>  <SCORE.INTER.norm>
-0.0272103

>  <SCORE.INTRA>
6.34636

>  <SCORE.INTRA.DIHEDRAL>
3.75748

>  <SCORE.INTRA.DIHEDRAL.0>
16.2863

>  <SCORE.INTRA.POLAR>
0

>  <SCORE.INTRA.POLAR.0>
0

>  <SCORE.INTRA.REPUL>
-0.314433

>  <SCORE.INTRA.REPUL.0>
0.314433

>  <SCORE.INTRA.SOLV>
1.44182

>  <SCORE.INTRA.SOLV.lig_0>
-103.824

>  <SCORE.INTRA.VDW>
5.31888

>  <SCORE.INTRA.VDW.0>
-5.30945

>  <SCORE.INTRA.norm>
0.151104

>  <SCORE.RESTR>
4.65989

>  <SCORE.RESTR.CAVITY>
4.65989

>  <SCORE.RESTR.norm>
0.11095

>  <SCORE.SYSTEM>
0

>  <SCORE.SYSTEM.CONST>
0

>  <SCORE.SYSTEM.DIHEDRAL>
0

>  <SCORE.SYSTEM.SOLV>
0

>  <SCORE.SYSTEM.norm>
0

>  <SCORE.heavy>
42

>  <SCORE.norm>
0.234843

>  <RMSD>
11.009

$$$$
lig.pdb
 OpenBabel11021811513D
libRbt.so/2013.1/901 2013/11/27
 42 45  0  0  0  0  0  0  0  0999 V2000
   -2.9813    4.9951   36.1610 C   0  0  2  0  0  0  0  0  0  0  0  0
   -2.9864    4.2322   37.4080 O   0  0  0  0  0  0  0  0  0  0  0  0
   -4.4050    4.7522   35.4871 C   0  0  2  0  0  0  0  0  0  0  0  0
   -5.4716    5.2623   36.3531 N   0  0  0  0  0  0  0  0  0  0  0  0
   -4.5705    3.1844   35.1799 C   0  0  1  0  0  0  0  0  0  0  0  0
   -5.8422    2.9074   34.5564 O   0  0  0  0  0  0  0  0  0  0  0  0
   -3.3954    2.7717   34.2770 C   0  0  2  0  0  0  0  0  0  0  0  0
   -3.5050    1.4189   33.9917 O   0  0  0  0  0  0  0  0  0  0  0  0
   -2.0115    3.0898   35.0063 C   0  0  2  0  0  0  0  0  0  0  0  0
   -1.8897    4.4861   35.3050 O   0  0  0  0  0  0  0  0  0  0  0  0
   -0.8286    2.7218   34.1563 C   0  0  0  0  0  0  0  0  0  0  0  0
   -0.9374    3.4433   32.9286 O   0  0  0  0  0  0  0  0  0  0  0  0
   -2.1512    5.3924   41.6186 C   0  0  2  0  0  0  0  0  0  0  0  0
   -1.4330    5.7531   42.8215 N   0  0  0  0  0  0  0  0  0  0  0  0
   -1.6189    4.0168   41.0590 C   0  0  0  0  0  0  0  0  0  0  0  0
   -2.3799    3.6047   39.7500 C   0  0  2  0  0  0  0  0  0  0  0  0
   -1.8532    2.3320   39.2614 N   0  0  0  0  0  0  0  0  0  0  0  0
   -2.2389    4.6938   38.5957 C   0  0  2  0  0  0  0  0  0  0  0  0
   -2.8020    6.0347   39.1494 C   0  0  2  0  0  0  0  0  0  0  0  0
   -2.6416    7.0020   38.0000 O   0  0  0  0  0  0  0  0  0  0  0  0
   -1.9643    6.4902   40.4679 C   0  0  1  0  0  0  0  0  0  0  0  0
   -2.4422    7.7155   41.1101 O   0  0  0  0  0  0  0  0  0  0  0  0
   -3.3313    8.1643   38.2254 C   0  0  1  0  0  0  0  0  0  0  0  0
   -3.0109    9.2203   37.2592 C   0  0  2  0  0  0  0  0  0  0  0  0
   -1.7339    9.6847   37.5593 O   0  0  0  0  0  0  0  0  0  0  0  0
   -4.2300   10.1535   37.4206 C   0  0  2  0  0  0  0  0  0  0  0  0
   -3.7210   11.4312   37.8655 O   0  0  0  0  0  0  0  0  0  0  0  0
   -5.0874    9.4901   38.4476 C   0  0  2  0  0  0  0  0  0  0  0  0
   -4.7429    8.0994   38.1086 O   0  0  0  0  0  0  0  0  0  0  0  0
   -6.6169    9.7520   38.1902 C   0  0  0  0  0  0  0  0  0  0  0  0
   -7.0863    9.2591   36.8995 O   0  0  0  0  0  0  0  0  0  0  0  0
   -4.6936   12.5065   38.0354 C   0  0  2  0  0  0  0  0  0  0  0  0
   -5.2764   12.9058   36.5811 C   0  0  2  0  0  0  0  0  0  0  0  0
   -4.1425   13.3196   35.6924 N   0  0  0  0  0  0  0  0  0  0  0  0
   -6.3487   14.0872   36.7773 C   0  0  1  0  0  0  0  0  0  0  0  0
   -7.3960   13.5804   37.6593 O   0  0  0  0  0  0  0  0  0  0  0  0
   -5.6266   15.3586   37.4148 C   0  0  2  0  0  0  0  0  0  0  0  0
   -4.5935   15.8198   36.4606 O   0  0  0  0  0  0  0  0  0  0  0  0
   -4.9970   14.9174   38.8538 C   0  0  1  0  0  0  0  0  0  0  0  0
   -4.0482   13.7615   38.6580 O   0  0  0  0  0  0  0  0  0  0  0  0
   -4.2640   16.1390   39.5012 C   0  0  0  0  0  0  0  0  0  0  0  0
   -3.6874   15.8241   40.8450 N   0  0  0  0  0  0  0  0  0  0  0  0
  1  3  1  0  0  0  0
  1  2  1  1  0  0  0
  3  4  1  1  0  0  0
  3  5  1  0  0  0  0
  5  6  1  6  0  0  0
  7  8  1  1  0  0  0
  7  5  1  0  0  0  0
  9 11  1  6  0  0  0
  9  7  1  0  0  0  0
 10  9  1  0  0  0  0
 10  1  1  0  0  0  0
 12 11  1  0  0  0  0
 13 14  1  1  0  0  0
 15 13  1  0  0  0  0
 16 17  1  6  0  0  0
 16 15  1  0  0  0  0
 18  2  1  6  0  0  0
 18 19  1  0  0  0  0
 18 16  1  0  0  0  0
 19 20  1  6  0  0  0
 19 21  1  0  0  0  0
 21 22  1  1  0  0  0
 21 13  1  0  0  0  0
 23 20  1  6  0  0  0
 23 29  1  0  0  0  0
 24 25  1  1  0  0  0
 24 26  1  0  0  0  0
 24 23  1  0  0  0  0
 26 27  1  1  0  0  0
 26 28  1  0  0  0  0
 28 30  1  6  0  0  0
 29 28  1  0  0  0  0
 30 31  1  0  0  0  0
 32 27  1  6  0  0  0
 32 40  1  0  0  0  0
 33 35  1  0  0  0  0
 33 32  1  0  0  0  0
 33 34  1  6  0  0  0
 35 36  1  1  0  0  0
 35 37  1  0  0  0  0
 37 38  1  6  0  0  0
 37 39  1  0  0  0  0
 39 41  1  6  0  0  0
 40 39  1  0  0  0  0
 41 42  1  0  0  0  0
M  END
>  <CHROM.1>
-147.92026804,57.72513958,-176.75588539,167.85662938,169.54475296,177.46344681
60.18266656,-67.10375648,178.51253836,-3.69411088,8.09163061,37.56421691
1.05212177,1.14365822,-2.50583450

>  <Name>
lig.pdb

>  <RI>
0

>  <Rbt.Current_Directory>
/home/itssahil/PROJECTS/Mol_Feturizer/New_Systems/rnas/4wcr

>  <Rbt.Executable>
rbdock ($Id: //depot/dev/client3/rdock/2013.1/src/exe/rbdock.cxx#4 $)

>  <Rbt.Library>
libRbt.so (2013.1, Build901 2013/11/27)

>  <Rbt.Parameter_File>
/export/apps/rDock/src/rDock_2013.1_src/data/scripts/dock_solv.prm

>  <Rbt.Receptor>
prm/pocket_docking_5.prm

>  <SCORE>
-5.03592

>  <SCORE.INTER>
2.50117

>  <SCORE.INTER.CONST>
1

>  <SCORE.INTER.POLAR>
0

>  <SCORE.INTER.ROT>
9

>  <SCORE.INTER.SOLV>
19.9293

>  <SCORE.INTER.VDW>
-14.5757

>  <SCORE.INTER.norm>
0.0595517

>  <SCORE.INTRA>
-7.5371

>  <SCORE.INTRA.DIHEDRAL>
-10.1674

>  <SCORE.INTRA.DIHEDRAL.0>
16.2863

>  <SCORE.INTRA.POLAR>
0

>  <SCORE.INTRA.POLAR.0>
0

>  <SCORE.INTRA.REPUL>
-0.314433

>  <SCORE.INTRA.REPUL.0>
0.314433

>  <SCORE.INTRA.SOLV>
-3.85297

>  <SCORE.INTRA.SOLV.lig_0>
-103.824

>  <SCORE.INTRA.VDW>
1.04525

>  <SCORE.INTRA.VDW.0>
-5.30945

>  <SCORE.INTRA.norm>
-0.179455

>  <SCORE.RESTR>
0

>  <SCORE.RESTR.CAVITY>
0

>  <SCORE.RESTR.norm>
0

>  <SCORE.SYSTEM>
0

>  <SCORE.SYSTEM.CONST>
0

>  <SCORE.SYSTEM.DIHEDRAL>
0

>  <SCORE.SYSTEM.SOLV>
0

>  <SCORE.SYSTEM.norm>
0

>  <SCORE.heavy>
42

>  <SCORE.norm>
-0.119903

>  <RMSD>
11.011

$$$$
lig.pdb
 OpenBabel11021811513D
libRbt.so/2013.1/901 2013/11/27
 42 45  0  0  0  0  0  0  0  0999 V2000
   -5.5771   14.7966   29.1675 C   0  0  2  0  0  0  0  0  0  0  0  0
   -6.7509   15.3278   29.8582 O   0  0  0  0  0  0  0  0  0  0  0  0
   -5.9948   13.3566   28.6271 C   0  0  2  0  0  0  0  0  0  0  0  0
   -7.0985   13.4728   27.6700 N   0  0  0  0  0  0  0  0  0  0  0  0
   -6.3731   12.4246   29.8793 C   0  0  1  0  0  0  0  0  0  0  0  0
   -6.7498   11.1001   29.4475 O   0  0  0  0  0  0  0  0  0  0  0  0
   -5.1466   12.3902   30.8072 C   0  0  2  0  0  0  0  0  0  0  0  0
   -5.4385   11.5932   31.9041 O   0  0  0  0  0  0  0  0  0  0  0  0
   -4.7690   13.8724   31.2644 C   0  0  2  0  0  0  0  0  0  0  0  0
   -4.4657   14.7032   30.1369 O   0  0  0  0  0  0  0  0  0  0  0  0
   -3.5625   13.8961   32.1595 C   0  0  0  0  0  0  0  0  0  0  0  0
   -3.9175   13.2463   33.3807 O   0  0  0  0  0  0  0  0  0  0  0  0
   -6.9333   19.4477   28.1952 C   0  0  2  0  0  0  0  0  0  0  0  0
   -7.4270   20.7629   27.8495 N   0  0  0  0  0  0  0  0  0  0  0  0
   -7.9223   18.3387   27.6655 C   0  0  0  0  0  0  0  0  0  0  0  0
   -7.4110   16.9011   28.0320 C   0  0  2  0  0  0  0  0  0  0  0  0
   -8.3568   15.9061   27.5309 N   0  0  0  0  0  0  0  0  0  0  0  0
   -7.2393   16.6984   29.6029 C   0  0  2  0  0  0  0  0  0  0  0  0
   -6.2331   17.7746   30.1040 C   0  0  2  0  0  0  0  0  0  0  0  0
   -6.1202   17.5084   31.5869 O   0  0  0  0  0  0  0  0  0  0  0  0
   -6.8017   19.2644   29.7806 C   0  0  1  0  0  0  0  0  0  0  0  0
   -5.9098   20.3613   30.1593 O   0  0  0  0  0  0  0  0  0  0  0  0
   -4.8110   17.4699   31.9892 C   0  0  1  0  0  0  0  0  0  0  0  0
   -4.3476   18.7377   32.5630 C   0  0  2  0  0  0  0  0  0  0  0  0
   -4.2076   19.6419   31.5144 O   0  0  0  0  0  0  0  0  0  0  0  0
   -3.1055   18.2725   33.3528 C   0  0  2  0  0  0  0  0  0  0  0  0
   -1.9692   18.9660   32.7894 O   0  0  0  0  0  0  0  0  0  0  0  0
   -3.0418   16.7969   33.1330 C   0  0  2  0  0  0  0  0  0  0  0  0
   -4.4914   16.5607   33.0292 O   0  0  0  0  0  0  0  0  0  0  0  0
   -2.4541   16.0441   34.3829 C   0  0  0  0  0  0  0  0  0  0  0  0
   -1.2007   16.6098   34.8710 O   0  0  0  0  0  0  0  0  0  0  0  0
   -1.8033   20.3690   33.1569 C   0  0  2  0  0  0  0  0  0  0  0  0
   -0.2317   20.7393   33.0724 C   0  0  2  0  0  0  0  0  0  0  0  0
    0.5378   19.8328   33.9850 N   0  0  0  0  0  0  0  0  0  0  0  0
   -0.0583   22.2859   33.4747 C   0  0  1  0  0  0  0  0  0  0  0  0
   -0.8504   23.0708   32.5322 O   0  0  0  0  0  0  0  0  0  0  0  0
   -0.5641   22.5047   34.9716 C   0  0  2  0  0  0  0  0  0  0  0  0
    0.2924   21.6917   35.8636 O   0  0  0  0  0  0  0  0  0  0  0  0
   -2.1351   22.0706   35.0460 C   0  0  1  0  0  0  0  0  0  0  0  0
   -2.2862   20.6388   34.5967 O   0  0  0  0  0  0  0  0  0  0  0  0
   -2.6608   22.2563   36.5081 C   0  0  0  0  0  0  0  0  0  0  0  0
   -3.8997   23.0916   36.5775 N   0  0  0  0  0  0  0  0  0  0  0  0
  1  3  1  0  0  0  0
  1  2  1  1  0  0  0
  3  4  1  6  0  0  0
  3  5  1  0  0  0  0
  5  6  1  6  0  0  0
  7  8  1  1  0  0  0
  7  5  1  0  0  0  0
  9 11  1  1  0  0  0
  9  7  1  0  0  0  0
 10  9  1  0  0  0  0
 10  1  1  0  0  0  0
 12 11  1  0  0  0  0
 13 14  1  1  0  0  0
 15 13  1  0  0  0  0
 16 17  1  1  0  0  0
 16 15  1  0  0  0  0
 18  2  1  6  0  0  0
 18 19  1  0  0  0  0
 18 16  1  0  0  0  0
 19 20  1  1  0  0  0
 19 21  1  0  0  0  0
 21 22  1  6  0  0  0
 21 13  1  0  0  0  0
 23 20  1  1  0  0  0
 23 29  1  0  0  0  0
 24 25  1  6  0  0  0
 24 26  1  0  0  0  0
 24 23  1  0  0  0  0
 26 27  1  6  0  0  0
 26 28  1  0  0  0  0
 28 30  1  1  0  0  0
 29 28  1  0  0  0  0
 30 31  1  0  0  0  0
 32 27  1  1  0  0  0
 32 40  1  0  0  0  0
 33 35  1  0  0  0  0
 33 32  1  0  0  0  0
 33 34  1  1  0  0  0
 35 36  1  6  0  0  0
 35 37  1  0  0  0  0
 37 38  1  1  0  0  0
 37 39  1  0  0  0  0
 39 41  1  1  0  0  0
 40 39  1  0  0  0  0
 41 42  1  0  0  0  0
M  END
>  <CHROM.1>
-131.95988271,-66.66624304,51.56873216,132.00161741,97.53325717,76.46250250
-50.14271474,152.58088734,126.87901839,-4.25197531,17.61651810,31.75563256
-2.39341221,-0.81794230,-0.04718284

>  <Name>
lig.pdb

>  <RI>
0

>  <Rbt.Current_Directory>
/home/itssahil/PROJECTS/Mol_Feturizer/New_Systems/rnas/4wcr

>  <Rbt.Executable>
rbdock ($Id: //depot/dev/client3/rdock/2013.1/src/exe/rbdock.cxx#4 $)

>  <Rbt.Library>
libRbt.so (2013.1, Build901 2013/11/27)

>  <Rbt.Parameter_File>
/export/apps/rDock/src/rDock_2013.1_src/data/scripts/dock_solv.prm

>  <Rbt.Receptor>
prm/blind_docking_80.prm

>  <SCORE>
8.00623

>  <SCORE.INTER>
-8.6494

>  <SCORE.INTER.CONST>
1

>  <SCORE.INTER.POLAR>
0

>  <SCORE.INTER.ROT>
9

>  <SCORE.INTER.SOLV>
39.9095

>  <SCORE.INTER.VDW>
-28.6694

>  <SCORE.INTER.norm>
-0.205938

>  <SCORE.INTRA>
6.78181

>  <SCORE.INTRA.DIHEDRAL>
12.4243

>  <SCORE.INTRA.DIHEDRAL.0>
16.2863

>  <SCORE.INTRA.POLAR>
0

>  <SCORE.INTRA.POLAR.0>
0

>  <SCORE.INTRA.REPUL>
-0.314433

>  <SCORE.INTRA.REPUL.0>
0.314433

>  <SCORE.INTRA.SOLV>
-0.365525

>  <SCORE.INTRA.SOLV.lig_0>
-103.824

>  <SCORE.INTRA.VDW>
2.32457

>  <SCORE.INTRA.VDW.0>
-5.30945

>  <SCORE.INTRA.norm>
0.161472

>  <SCORE.RESTR>
9.87382

>  <SCORE.RESTR.CAVITY>
9.87382

>  <SCORE.RESTR.norm>
0.235091

>  <SCORE.SYSTEM>
0

>  <SCORE.SYSTEM.CONST>
0

>  <SCORE.SYSTEM.DIHEDRAL>
0

>  <SCORE.SYSTEM.SOLV>
0

>  <SCORE.SYSTEM.norm>
0

>  <SCORE.heavy>
42

>  <SCORE.norm>
0.190625

>  <RMSD>
11.031

$$$$
lig.pdb
 OpenBabel11021811513D
libRbt.so/2013.1/901 2013/11/27
 42 45  0  0  0  0  0  0  0  0999 V2000
   -2.7943    2.3388   36.6571 C   0  0  2  0  0  0  0  0  0  0  0  0
   -3.3270    3.5756   37.2262 O   0  0  0  0  0  0  0  0  0  0  0  0
   -1.6414    2.7763   35.6474 C   0  0  2  0  0  0  0  0  0  0  0  0
   -0.5698    3.4691   36.3679 N   0  0  0  0  0  0  0  0  0  0  0  0
   -2.2847    3.6887   34.4926 C   0  0  1  0  0  0  0  0  0  0  0  0
   -1.2838    4.1056   33.5401 O   0  0  0  0  0  0  0  0  0  0  0  0
   -3.3932    2.8589   33.8224 C   0  0  2  0  0  0  0  0  0  0  0  0
   -3.9742    3.6184   32.8177 O   0  0  0  0  0  0  0  0  0  0  0  0
   -4.4795    2.4247   34.9086 C   0  0  2  0  0  0  0  0  0  0  0  0
   -3.8877    1.6392   35.9510 O   0  0  0  0  0  0  0  0  0  0  0  0
   -5.5772    1.5937   34.3073 C   0  0  0  0  0  0  0  0  0  0  0  0
   -6.3089    2.4288   33.4090 O   0  0  0  0  0  0  0  0  0  0  0  0
   -2.4284    5.6683   41.0453 C   0  0  2  0  0  0  0  0  0  0  0  0
   -1.6975    6.3350   42.1009 N   0  0  0  0  0  0  0  0  0  0  0  0
   -1.7918    4.2551   40.7514 C   0  0  0  0  0  0  0  0  0  0  0  0
   -2.5649    3.5122   39.6055 C   0  0  2  0  0  0  0  0  0  0  0  0
   -1.9407    2.2139   39.3601 N   0  0  0  0  0  0  0  0  0  0  0  0
   -2.5772    4.3397   38.2441 C   0  0  2  0  0  0  0  0  0  0  0  0
   -3.2413    5.7153   38.5413 C   0  0  2  0  0  0  0  0  0  0  0  0
   -3.2225    6.4269   37.2087 O   0  0  0  0  0  0  0  0  0  0  0  0
   -2.3957    6.5088   39.6827 C   0  0  1  0  0  0  0  0  0  0  0  0
   -2.9604    7.7978   40.0850 O   0  0  0  0  0  0  0  0  0  0  0  0
   -3.8611    7.6371   37.2796 C   0  0  1  0  0  0  0  0  0  0  0  0
   -3.6245    8.4824   36.1047 C   0  0  2  0  0  0  0  0  0  0  0  0
   -2.3138    8.9438   36.1817 O   0  0  0  0  0  0  0  0  0  0  0  0
   -4.8007    9.4767   36.2096 C   0  0  2  0  0  0  0  0  0  0  0  0
   -4.2221   10.7937   36.3524 O   0  0  0  0  0  0  0  0  0  0  0  0
   -5.5570    9.0492   37.4241 C   0  0  2  0  0  0  0  0  0  0  0  0
   -5.2781    7.6073   37.3200 O   0  0  0  0  0  0  0  0  0  0  0  0
   -7.0997    9.3190   37.2776 C   0  0  0  0  0  0  0  0  0  0  0  0
   -7.4358   10.7312   37.1300 O   0  0  0  0  0  0  0  0  0  0  0  0
   -3.4157   11.2849   35.2391 C   0  0  2  0  0  0  0  0  0  0  0  0
   -2.6834   12.6509   35.6993 C   0  0  2  0  0  0  0  0  0  0  0  0
   -3.7204   13.6499   36.1154 N   0  0  0  0  0  0  0  0  0  0  0  0
   -1.7951   13.1828   34.4696 C   0  0  1  0  0  0  0  0  0  0  0  0
   -0.8314   12.1351   34.1454 O   0  0  0  0  0  0  0  0  0  0  0  0
   -2.7438   13.4953   33.2259 C   0  0  2  0  0  0  0  0  0  0  0  0
   -3.6779   14.5709   33.6265 O   0  0  0  0  0  0  0  0  0  0  0  0
   -3.5150   12.1172   32.8159 C   0  0  1  0  0  0  0  0  0  0  0  0
   -4.2849   11.5957   34.0033 O   0  0  0  0  0  0  0  0  0  0  0  0
   -4.4699   12.3915   31.6070 C   0  0  0  0  0  0  0  0  0  0  0  0
   -5.0337   11.1380   31.0169 N   0  0  0  0  0  0  0  0  0  0  0  0
  1  3  1  0  0  0  0
  1  2  1  6  0  0  0
  3  4  1  1  0  0  0
  3  5  1  0  0  0  0
  5  6  1  6  0  0  0
  7  8  1  6  0  0  0
  7  5  1  0  0  0  0
  9 11  1  6  0  0  0
  9  7  1  0  0  0  0
 10  9  1  0  0  0  0
 10  1  1  0  0  0  0
 12 11  1  0  0  0  0
 13 14  1  1  0  0  0
 15 13  1  0  0  0  0
 16 17  1  6  0  0  0
 16 15  1  0  0  0  0
 18  2  1  6  0  0  0
 18 19  1  0  0  0  0
 18 16  1  0  0  0  0
 19 20  1  6  0  0  0
 19 21  1  0  0  0  0
 21 22  1  1  0  0  0
 21 13  1  0  0  0  0
 23 20  1  6  0  0  0
 23 29  1  0  0  0  0
 24 25  1  1  0  0  0
 24 26  1  0  0  0  0
 24 23  1  0  0  0  0
 26 27  1  1  0  0  0
 26 28  1  0  0  0  0
 28 30  1  6  0  0  0
 29 28  1  0  0  0  0
 30 31  1  0  0  0  0
 32 27  1  1  0  0  0
 32 40  1  0  0  0  0
 33 35  1  0  0  0  0
 33 32  1  0  0  0  0
 33 34  1  6  0  0  0
 35 36  1  6  0  0  0
 35 37  1  0  0  0  0
 37 38  1  1  0  0  0
 37 39  1  0  0  0  0
 39 41  1  6  0  0  0
 40 39  1  0  0  0  0
 41 42  1  0  0  0  0
M  END
>  <CHROM.1>
-74.62738751,-66.52397143,-69.83833806,175.93786357,167.76688767,63.08931495
-62.55436848,-171.11534078,169.98903285,-3.47084169,7.33709422,36.13602597
1.15438209,1.38108811,-3.01181630

>  <Name>
lig.pdb

>  <RI>
0

>  <Rbt.Current_Directory>
/home/itssahil/PROJECTS/Mol_Feturizer/New_Systems/rnas/4wcr

>  <Rbt.Executable>
rbdock ($Id: //depot/dev/client3/rdock/2013.1/src/exe/rbdock.cxx#4 $)

>  <Rbt.Library>
libRbt.so (2013.1, Build901 2013/11/27)

>  <Rbt.Parameter_File>
/export/apps/rDock/src/rDock_2013.1_src/data/scripts/dock_solv.prm

>  <Rbt.Receptor>
prm/pocket_docking_6.prm

>  <SCORE>
-6.23867

>  <SCORE.INTER>
0.217202

>  <SCORE.INTER.CONST>
1

>  <SCORE.INTER.POLAR>
0

>  <SCORE.INTER.ROT>
9

>  <SCORE.INTER.SOLV>
16.7816

>  <SCORE.INTER.VDW>
-15.0491

>  <SCORE.INTER.norm>
0.00517147

>  <SCORE.INTRA>
-6.45588

>  <SCORE.INTRA.DIHEDRAL>
-12.5132

>  <SCORE.INTRA.DIHEDRAL.0>
16.2863

>  <SCORE.INTRA.POLAR>
0

>  <SCORE.INTRA.POLAR.0>
0

>  <SCORE.INTRA.REPUL>
-0.314433

>  <SCORE.INTRA.REPUL.0>
0.314433

>  <SCORE.INTRA.SOLV>
-2.09332

>  <SCORE.INTRA.SOLV.lig_0>
-103.824

>  <SCORE.INTRA.VDW>
2.41957

>  <SCORE.INTRA.VDW.0>
-5.30945

>  <SCORE.INTRA.norm>
-0.153711

>  <SCORE.RESTR>
0

>  <SCORE.RESTR.CAVITY>
0

>  <SCORE.RESTR.norm>
0

>  <SCORE.SYSTEM>
0

>  <SCORE.SYSTEM.CONST>
0

>  <SCORE.SYSTEM.DIHEDRAL>
0

>  <SCORE.SYSTEM.SOLV>
0

>  <SCORE.SYSTEM.norm>
0

>  <SCORE.heavy>
42

>  <SCORE.norm>
-0.14854

>  <RMSD>
11.037

$$$$
lig.pdb
 OpenBabel11021811513D
libRbt.so/2013.1/901 2013/11/27
 42 45  0  0  0  0  0  0  0  0999 V2000
   -4.5503    4.6401   36.8356 C   0  0  2  0  0  0  0  0  0  0  0  0
   -3.7093    4.9789   35.6888 O   0  0  0  0  0  0  0  0  0  0  0  0
   -3.7160    3.5960   37.7038 C   0  0  2  0  0  0  0  0  0  0  0  0
   -2.4769    4.2113   38.1872 N   0  0  0  0  0  0  0  0  0  0  0  0
   -3.4371    2.2891   36.8126 C   0  0  1  0  0  0  0  0  0  0  0  0
   -2.6916    1.3016   37.5555 O   0  0  0  0  0  0  0  0  0  0  0  0
   -4.8040    1.7460   36.3623 C   0  0  2  0  0  0  0  0  0  0  0  0
   -4.6014    0.6144   35.5862 O   0  0  0  0  0  0  0  0  0  0  0  0
   -5.5906    2.8664   35.5411 C   0  0  2  0  0  0  0  0  0  0  0  0
   -5.8045    4.0397   36.3355 O   0  0  0  0  0  0  0  0  0  0  0  0
   -6.9438    2.3914   35.0932 C   0  0  0  0  0  0  0  0  0  0  0  0
   -6.7417    1.3599   34.1264 O   0  0  0  0  0  0  0  0  0  0  0  0
   -3.3367    8.6826   33.2566 C   0  0  2  0  0  0  0  0  0  0  0  0
   -3.6236    9.7172   32.2868 N   0  0  0  0  0  0  0  0  0  0  0  0
   -3.3073    7.2708   32.5533 C   0  0  0  0  0  0  0  0  0  0  0  0
   -3.0019    6.1293   33.5859 C   0  0  2  0  0  0  0  0  0  0  0  0
   -2.9908    4.8405   32.8970 N   0  0  0  0  0  0  0  0  0  0  0  0
   -4.0737    6.0710   34.7632 C   0  0  2  0  0  0  0  0  0  0  0  0
   -4.0643    7.4571   35.4705 C   0  0  2  0  0  0  0  0  0  0  0  0
   -5.0911    7.3148   36.5696 O   0  0  0  0  0  0  0  0  0  0  0  0
   -4.4477    8.6288   34.4085 C   0  0  1  0  0  0  0  0  0  0  0  0
   -4.4165    9.9879   34.9508 O   0  0  0  0  0  0  0  0  0  0  0  0
   -5.0422    8.3727   37.4389 C   0  0  1  0  0  0  0  0  0  0  0  0
   -6.2093    8.4445   38.3243 C   0  0  2  0  0  0  0  0  0  0  0  0
   -7.2890    8.8681   37.5552 O   0  0  0  0  0  0  0  0  0  0  0  0
   -5.6697    9.3420   39.4586 C   0  0  2  0  0  0  0  0  0  0  0  0
   -6.5024   10.5232   39.4876 O   0  0  0  0  0  0  0  0  0  0  0  0
   -4.2601    9.6450   39.0701 C   0  0  2  0  0  0  0  0  0  0  0  0
   -3.9800    8.3759   38.3782 O   0  0  0  0  0  0  0  0  0  0  0  0
   -3.3272    9.7990   40.3271 C   0  0  0  0  0  0  0  0  0  0  0  0
   -3.2269    8.5873   41.1338 O   0  0  0  0  0  0  0  0  0  0  0  0
   -6.3067   11.4417   40.6052 C   0  0  2  0  0  0  0  0  0  0  0  0
   -7.4860   12.5474   40.5734 C   0  0  2  0  0  0  0  0  0  0  0  0
   -7.4555   13.2626   39.2565 N   0  0  0  0  0  0  0  0  0  0  0  0
   -7.2654   13.5520   41.8087 C   0  0  1  0  0  0  0  0  0  0  0  0
   -7.3056   12.7532   43.0301 O   0  0  0  0  0  0  0  0  0  0  0  0
   -5.8589   14.2876   41.6497 C   0  0  2  0  0  0  0  0  0  0  0  0
   -5.9013   15.0835   40.4027 O   0  0  0  0  0  0  0  0  0  0  0  0
   -4.6899   13.1498   41.6264 C   0  0  1  0  0  0  0  0  0  0  0  0
   -4.9538   12.1759   40.5054 O   0  0  0  0  0  0  0  0  0  0  0  0
   -3.2944   13.8364   41.4535 C   0  0  0  0  0  0  0  0  0  0  0  0
   -2.9401   14.7277   42.6013 N   0  0  0  0  0  0  0  0  0  0  0  0
  1  3  1  0  0  0  0
  1  2  1  6  0  0  0
  3  4  1  6  0  0  0
  3  5  1  0  0  0  0
  5  6  1  1  0  0  0
  7  8  1  6  0  0  0
  7  5  1  0  0  0  0
  9 11  1  1  0  0  0
  9  7  1  0  0  0  0
 10  9  1  0  0  0  0
 10  1  1  0  0  0  0
 12 11  1  0  0  0  0
 13 14  1  6  0  0  0
 15 13  1  0  0  0  0
 16 17  1  6  0  0  0
 16 15  1  0  0  0  0
 18  2  1  1  0  0  0
 18 19  1  0  0  0  0
 18 16  1  0  0  0  0
 19 20  1  1  0  0  0
 19 21  1  0  0  0  0
 21 22  1  1  0  0  0
 21 13  1  0  0  0  0
 23 20  1  1  0  0  0
 23 29  1  0  0  0  0
 24 25  1  6  0  0  0
 24 26  1  0  0  0  0
 24 23  1  0  0  0  0
 26 27  1  6  0  0  0
 26 28  1  0  0  0  0
 28 30  1  1  0  0  0
 29 28  1  0  0  0  0
 30 31  1  0  0  0  0
 32 27  1  6  0  0  0
 32 40  1  0  0  0  0
 33 35  1  0  0  0  0
 33 32  1  0  0  0  0
 33 34  1  6  0  0  0
 35 36  1  1  0  0  0
 35 37  1  0  0  0  0
 37 38  1  6  0  0  0
 37 39  1  0  0  0  0
 39 41  1  6  0  0  0
 40 39  1  0  0  0  0
 41 42  1  0  0  0  0
M  END
>  <CHROM.1>
-171.05715997,-67.22585581,-176.89543962,169.38521632,166.34641197,171.55709395
62.18901499,-170.85838452,63.57251609,-4.83074324,8.04666197,37.66307362
0.91822611,-1.40038031,3.03656412

>  <Name>
lig.pdb

>  <RI>
0

>  <Rbt.Current_Directory>
/home/itssahil/PROJECTS/Mol_Feturizer/New_Systems/rnas/4wcr

>  <Rbt.Executable>
rbdock ($Id: //depot/dev/client3/rdock/2013.1/src/exe/rbdock.cxx#4 $)

>  <Rbt.Library>
libRbt.so (2013.1, Build901 2013/11/27)

>  <Rbt.Parameter_File>
/export/apps/rDock/src/rDock_2013.1_src/data/scripts/dock_solv.prm

>  <Rbt.Receptor>
prm/pocket_docking_7.prm

>  <SCORE>
-10.3783

>  <SCORE.INTER>
-1.00595

>  <SCORE.INTER.CONST>
1

>  <SCORE.INTER.POLAR>
0

>  <SCORE.INTER.ROT>
9

>  <SCORE.INTER.SOLV>
15.3243

>  <SCORE.INTER.VDW>
-15.3787

>  <SCORE.INTER.norm>
-0.0239513

>  <SCORE.INTRA>
-9.37232

>  <SCORE.INTRA.DIHEDRAL>
-12.9133

>  <SCORE.INTRA.DIHEDRAL.0>
16.2863

>  <SCORE.INTRA.POLAR>
0

>  <SCORE.INTRA.POLAR.0>
0

>  <SCORE.INTRA.REPUL>
-0.314433

>  <SCORE.INTRA.REPUL.0>
0.314433

>  <SCORE.INTRA.SOLV>
-5.36872

>  <SCORE.INTRA.SOLV.lig_0>
-103.824

>  <SCORE.INTRA.VDW>
1.34085

>  <SCORE.INTRA.VDW.0>
-5.30945

>  <SCORE.INTRA.norm>
-0.22315

>  <SCORE.RESTR>
0

>  <SCORE.RESTR.CAVITY>
0

>  <SCORE.RESTR.norm>
0

>  <SCORE.SYSTEM>
0

>  <SCORE.SYSTEM.CONST>
0

>  <SCORE.SYSTEM.DIHEDRAL>
0

>  <SCORE.SYSTEM.SOLV>
0

>  <SCORE.SYSTEM.norm>
0

>  <SCORE.heavy>
42

>  <SCORE.norm>
-0.247102

>  <RMSD>
11.063

$$$$
lig.pdb
 OpenBabel11021811513D
libRbt.so/2013.1/901 2013/11/27
 42 45  0  0  0  0  0  0  0  0999 V2000
   -3.9210    4.6742   37.2671 C   0  0  2  0  0  0  0  0  0  0  0  0
   -3.2147    4.8346   35.9972 O   0  0  0  0  0  0  0  0  0  0  0  0
   -2.9211    3.8976   38.2351 C   0  0  2  0  0  0  0  0  0  0  0  0
   -1.7107    4.6926   38.4605 N   0  0  0  0  0  0  0  0  0  0  0  0
   -2.5933    2.4614   37.5951 C   0  0  1  0  0  0  0  0  0  0  0  0
   -1.6974    1.7075   38.4387 O   0  0  0  0  0  0  0  0  0  0  0  0
   -3.9346    1.7337   37.4006 C   0  0  2  0  0  0  0  0  0  0  0  0
   -3.6897    0.4862   36.8461 O   0  0  0  0  0  0  0  0  0  0  0  0
   -4.8906    2.5980   36.4586 C   0  0  2  0  0  0  0  0  0  0  0  0
   -5.1491    3.8892   37.0240 O   0  0  0  0  0  0  0  0  0  0  0  0
   -6.2246    1.9385   36.2518 C   0  0  0  0  0  0  0  0  0  0  0  0
   -6.9724    2.7505   35.3457 O   0  0  0  0  0  0  0  0  0  0  0  0
   -3.5723    7.8759   32.7730 C   0  0  2  0  0  0  0  0  0  0  0  0
   -4.0721    8.5998   31.6245 N   0  0  0  0  0  0  0  0  0  0  0  0
   -3.3490    6.3583   32.4047 C   0  0  0  0  0  0  0  0  0  0  0  0
   -2.8105    5.5492   33.6366 C   0  0  2  0  0  0  0  0  0  0  0  0
   -2.6245    4.1505   33.2561 N   0  0  0  0  0  0  0  0  0  0  0  0
   -3.7980    5.6129   34.8853 C   0  0  2  0  0  0  0  0  0  0  0  0
   -3.9786    7.1124   35.2600 C   0  0  2  0  0  0  0  0  0  0  0  0
   -4.9120    7.0836   36.4476 O   0  0  0  0  0  0  0  0  0  0  0  0
   -4.6004    7.9322   33.9995 C   0  0  1  0  0  0  0  0  0  0  0  0
   -4.7635    9.3702   34.2181 O   0  0  0  0  0  0  0  0  0  0  0  0
   -4.9501    8.2971   37.0827 C   0  0  1  0  0  0  0  0  0  0  0  0
   -5.9547    8.3572   38.1496 C   0  0  2  0  0  0  0  0  0  0  0  0
   -7.2049    8.4115   37.5407 O   0  0  0  0  0  0  0  0  0  0  0  0
   -5.4442    9.5584   38.9740 C   0  0  2  0  0  0  0  0  0  0  0  0
   -6.4896   10.5564   38.9479 O   0  0  0  0  0  0  0  0  0  0  0  0
   -4.2063   10.0080   38.2703 C   0  0  2  0  0  0  0  0  0  0  0  0
   -3.7791    8.6867   37.7810 O   0  0  0  0  0  0  0  0  0  0  0  0
   -3.1422   10.5893   39.2725 C   0  0  0  0  0  0  0  0  0  0  0  0
   -1.9302   11.0763   38.6222 O   0  0  0  0  0  0  0  0  0  0  0  0
   -6.1919   11.8410   39.5742 C   0  0  2  0  0  0  0  0  0  0  0  0
   -5.8825   11.5887   41.1409 C   0  0  2  0  0  0  0  0  0  0  0  0
   -7.0661   10.9237   41.7761 N   0  0  0  0  0  0  0  0  0  0  0  0
   -5.5522   13.0068   41.8219 C   0  0  1  0  0  0  0  0  0  0  0  0
   -4.3965   13.5640   41.1251 O   0  0  0  0  0  0  0  0  0  0  0  0
   -6.8196   13.9665   41.6905 C   0  0  2  0  0  0  0  0  0  0  0  0
   -7.9396   13.3432   42.4302 O   0  0  0  0  0  0  0  0  0  0  0  0
   -7.1482   14.1603   40.1042 C   0  0  1  0  0  0  0  0  0  0  0  0
   -7.3846   12.8133   39.4681 O   0  0  0  0  0  0  0  0  0  0  0  0
   -8.3999   15.0846   39.9379 C   0  0  0  0  0  0  0  0  0  0  0  0
   -8.1607   16.4784   40.4251 N   0  0  0  0  0  0  0  0  0  0  0  0
  1  3  1  0  0  0  0
  1  2  1  6  0  0  0
  3  4  1  6  0  0  0
  3  5  1  0  0  0  0
  5  6  1  1  0  0  0
  7  8  1  6  0  0  0
  7  5  1  0  0  0  0
  9 11  1  1  0  0  0
  9  7  1  0  0  0  0
 10  9  1  0  0  0  0
 10  1  1  0  0  0  0
 12 11  1  0  0  0  0
 13 14  1  6  0  0  0
 15 13  1  0  0  0  0
 16 17  1  6  0  0  0
 16 15  1  0  0  0  0
 18  2  1  1  0  0  0
 18 19  1  0  0  0  0
 18 16  1  0  0  0  0
 19 20  1  1  0  0  0
 19 21  1  0  0  0  0
 21 22  1  1  0  0  0
 21 13  1  0  0  0  0
 23 20  1  1  0  0  0
 23 29  1  0  0  0  0
 24 25  1  6  0  0  0
 24 26  1  0  0  0  0
 24 23  1  0  0  0  0
 26 27  1  6  0  0  0
 26 28  1  0  0  0  0
 28 30  1  1  0  0  0
 29 28  1  0  0  0  0
 30 31  1  0  0  0  0
 32 27  1  6  0  0  0
 32 40  1  0  0  0  0
 33 35  1  0  0  0  0
 33 32  1  0  0  0  0
 33 34  1  1  0  0  0
 35 36  1  6  0  0  0
 35 37  1  0  0  0  0
 37 38  1  1  0  0  0
 37 39  1  0  0  0  0
 39 41  1  1  0  0  0
 40 39  1  0  0  0  0
 41 42  1  0  0  0  0
M  END
>  <CHROM.1>
-174.97218008,-177.00669042,-177.92785049,166.89433497,173.60788080,-175.07561165
-178.35216280,-61.21843625,64.93455696,-4.85438191,8.02954573,37.58378930
0.22122442,-1.30399164,2.25177200

>  <Name>
lig.pdb

>  <RI>
0

>  <Rbt.Current_Directory>
/home/itssahil/PROJECTS/Mol_Feturizer/New_Systems/rnas/4wcr

>  <Rbt.Executable>
rbdock ($Id: //depot/dev/client3/rdock/2013.1/src/exe/rbdock.cxx#4 $)

>  <Rbt.Library>
libRbt.so (2013.1, Build901 2013/11/27)

>  <Rbt.Parameter_File>
/export/apps/rDock/src/rDock_2013.1_src/data/scripts/dock_solv.prm

>  <Rbt.Receptor>
prm/pocket_docking_6.prm

>  <SCORE>
-10.279

>  <SCORE.INTER>
-0.165772

>  <SCORE.INTER.CONST>
1

>  <SCORE.INTER.POLAR>
0

>  <SCORE.INTER.ROT>
9

>  <SCORE.INTER.SOLV>
16.521

>  <SCORE.INTER.VDW>
-15.2175

>  <SCORE.INTER.norm>
-0.00394696

>  <SCORE.INTRA>
-10.1132

>  <SCORE.INTRA.DIHEDRAL>
-14.3338

>  <SCORE.INTRA.DIHEDRAL.0>
16.2863

>  <SCORE.INTRA.POLAR>
0

>  <SCORE.INTRA.POLAR.0>
0

>  <SCORE.INTRA.REPUL>
-0.314433

>  <SCORE.INTRA.REPUL.0>
0.314433

>  <SCORE.INTRA.SOLV>
-5.77378

>  <SCORE.INTRA.SOLV.lig_0>
-103.824

>  <SCORE.INTRA.VDW>
1.51278

>  <SCORE.INTRA.VDW.0>
-5.30945

>  <SCORE.INTRA.norm>
-0.24079

>  <SCORE.RESTR>
0

>  <SCORE.RESTR.CAVITY>
0

>  <SCORE.RESTR.norm>
0

>  <SCORE.SYSTEM>
0

>  <SCORE.SYSTEM.CONST>
0

>  <SCORE.SYSTEM.DIHEDRAL>
0

>  <SCORE.SYSTEM.SOLV>
0

>  <SCORE.SYSTEM.norm>
0

>  <SCORE.heavy>
42

>  <SCORE.norm>
-0.244737

>  <RMSD>
11.153

$$$$
lig.pdb
 OpenBabel11021811513D
libRbt.so/2013.1/901 2013/11/27
 42 45  0  0  0  0  0  0  0  0999 V2000
   -2.1666    4.2031   33.1972 C   0  0  2  0  0  0  0  0  0  0  0  0
   -2.7624    5.0133   34.2582 O   0  0  0  0  0  0  0  0  0  0  0  0
   -2.2477    5.0818   31.8701 C   0  0  2  0  0  0  0  0  0  0  0  0
   -1.4662    6.3118   32.0257 N   0  0  0  0  0  0  0  0  0  0  0  0
   -3.7912    5.3810   31.5419 C   0  0  1  0  0  0  0  0  0  0  0  0
   -3.9250    6.1671   30.3391 O   0  0  0  0  0  0  0  0  0  0  0  0
   -4.4999    4.0218   31.4118 C   0  0  2  0  0  0  0  0  0  0  0  0
   -5.8398    4.2419   31.1293 O   0  0  0  0  0  0  0  0  0  0  0  0
   -4.3320    3.1894   32.7636 C   0  0  2  0  0  0  0  0  0  0  0  0
   -2.9500    2.9572   33.0633 O   0  0  0  0  0  0  0  0  0  0  0  0
   -4.9918    1.8422   32.6817 C   0  0  0  0  0  0  0  0  0  0  0  0
   -4.8708    1.2230   33.9630 O   0  0  0  0  0  0  0  0  0  0  0  0
   -2.7888    4.1978   38.6293 C   0  0  2  0  0  0  0  0  0  0  0  0
   -2.3310    4.0106   39.9889 N   0  0  0  0  0  0  0  0  0  0  0  0
   -2.0003    3.2416   37.6532 C   0  0  0  0  0  0  0  0  0  0  0  0
   -2.4758    3.4287   36.1695 C   0  0  2  0  0  0  0  0  0  0  0  0
   -1.7176    2.5324   35.2992 N   0  0  0  0  0  0  0  0  0  0  0  0
   -2.2864    4.9242   35.6538 C   0  0  2  0  0  0  0  0  0  0  0  0
   -3.0996    5.8507   36.6035 C   0  0  2  0  0  0  0  0  0  0  0  0
   -2.8764    7.2361   36.0435 O   0  0  0  0  0  0  0  0  0  0  0  0
   -2.5562    5.7013   38.1299 C   0  0  1  0  0  0  0  0  0  0  0  0
   -3.2859    6.4885   39.1249 O   0  0  0  0  0  0  0  0  0  0  0  0
   -3.6415    8.1675   36.6951 C   0  0  1  0  0  0  0  0  0  0  0  0
   -3.4394    9.5309   36.1938 C   0  0  2  0  0  0  0  0  0  0  0  0
   -2.1898    9.9551   36.6356 O   0  0  0  0  0  0  0  0  0  0  0  0
   -4.7175   10.2301   36.7046 C   0  0  2  0  0  0  0  0  0  0  0  0
   -4.2882   11.2868   37.5926 O   0  0  0  0  0  0  0  0  0  0  0  0
   -5.4816    9.1614   37.4142 C   0  0  2  0  0  0  0  0  0  0  0  0
   -5.0479    8.0325   36.5744 O   0  0  0  0  0  0  0  0  0  0  0  0
   -7.0355    9.3709   37.2872 C   0  0  0  0  0  0  0  0  0  0  0  0
   -7.4970   10.6560   37.8015 O   0  0  0  0  0  0  0  0  0  0  0  0
   -5.2612   12.3327   37.8932 C   0  0  2  0  0  0  0  0  0  0  0  0
   -5.6142   13.1144   36.5226 C   0  0  2  0  0  0  0  0  0  0  0  0
   -4.3547   13.6804   35.9397 N   0  0  0  0  0  0  0  0  0  0  0  0
   -6.6884   14.2613   36.8615 C   0  0  1  0  0  0  0  0  0  0  0  0
   -7.8626   13.6027   37.4265 O   0  0  0  0  0  0  0  0  0  0  0  0
   -6.0535   15.2928   37.8994 C   0  0  2  0  0  0  0  0  0  0  0  0
   -4.8833   15.9262   37.2518 O   0  0  0  0  0  0  0  0  0  0  0  0
   -5.6525   14.4721   39.2513 C   0  0  1  0  0  0  0  0  0  0  0  0
   -4.7002   13.3560   38.9019 O   0  0  0  0  0  0  0  0  0  0  0  0
   -5.0090   15.4523   40.2874 C   0  0  0  0  0  0  0  0  0  0  0  0
   -5.9754   16.4736   40.7976 N   0  0  0  0  0  0  0  0  0  0  0  0
  1  3  1  0  0  0  0
  1  2  1  1  0  0  0
  3  4  1  1  0  0  0
  3  5  1  0  0  0  0
  5  6  1  6  0  0  0
  7  8  1  1  0  0  0
  7  5  1  0  0  0  0
  9 11  1  6  0  0  0
  9  7  1  0  0  0  0
 10  9  1  0  0  0  0
 10  1  1  0  0  0  0
 12 11  1  0  0  0  0
 13 14  1  1  0  0  0
 15 13  1  0  0  0  0
 16 17  1  6  0  0  0
 16 15  1  0  0  0  0
 18  2  1  6  0  0  0
 18 19  1  0  0  0  0
 18 16  1  0  0  0  0
 19 20  1  6  0  0  0
 19 21  1  0  0  0  0
 21 22  1  1  0  0  0
 21 13  1  0  0  0  0
 23 20  1  6  0  0  0
 23 29  1  0  0  0  0
 24 25  1  1  0  0  0
 24 26  1  0  0  0  0
 24 23  1  0  0  0  0
 26 27  1  1  0  0  0
 26 28  1  0  0  0  0
 28 30  1  6  0  0  0
 29 28  1  0  0  0  0
 30 31  1  0  0  0  0
 32 27  1  6  0  0  0
 32 40  1  0  0  0  0
 33 35  1  0  0  0  0
 33 32  1  0  0  0  0
 33 34  1  1  0  0  0
 35 36  1  1  0  0  0
 35 37  1  0  0  0  0
 37 38  1  6  0  0  0
 37 39  1  0  0  0  0
 39 41  1  1  0  0  0
 40 39  1  0  0  0  0
 41 42  1  0  0  0  0
M  END
>  <CHROM.1>
-147.49182686,-175.80653851,-59.84871405,173.92017002,179.15727690,162.39693425
-58.03224369,-63.62083783,66.27597061,-4.17806580,8.14416051,36.02595676
0.97166703,1.20477478,-2.16262742

>  <Name>
lig.pdb

>  <RI>
0

>  <Rbt.Current_Directory>
/home/itssahil/PROJECTS/Mol_Feturizer/New_Systems/rnas/4wcr

>  <Rbt.Executable>
rbdock ($Id: //depot/dev/client3/rdock/2013.1/src/exe/rbdock.cxx#4 $)

>  <Rbt.Library>
libRbt.so (2013.1, Build901 2013/11/27)

>  <Rbt.Parameter_File>
/export/apps/rDock/src/rDock_2013.1_src/data/scripts/dock_solv.prm

>  <Rbt.Receptor>
prm/pocket_docking_6.prm

>  <SCORE>
-4.53774

>  <SCORE.INTER>
0.879038

>  <SCORE.INTER.CONST>
1

>  <SCORE.INTER.POLAR>
0

>  <SCORE.INTER.ROT>
9

>  <SCORE.INTER.SOLV>
14.6123

>  <SCORE.INTER.VDW>
-13.8847

>  <SCORE.INTER.norm>
0.0209295

>  <SCORE.INTRA>
-5.41725

>  <SCORE.INTRA.DIHEDRAL>
-9.82218

>  <SCORE.INTRA.DIHEDRAL.0>
16.2863

>  <SCORE.INTRA.POLAR>
0

>  <SCORE.INTRA.POLAR.0>
0

>  <SCORE.INTRA.REPUL>
-0.314433

>  <SCORE.INTRA.REPUL.0>
0.314433

>  <SCORE.INTRA.SOLV>
-1.51514

>  <SCORE.INTRA.SOLV.lig_0>
-103.824

>  <SCORE.INTRA.VDW>
1.82357

>  <SCORE.INTRA.VDW.0>
-5.30945

>  <SCORE.INTRA.norm>
-0.128982

>  <SCORE.RESTR>
0.000476206

>  <SCORE.RESTR.CAVITY>
0.000476206

>  <SCORE.RESTR.norm>
1.13382e-05

>  <SCORE.SYSTEM>
0

>  <SCORE.SYSTEM.CONST>
0

>  <SCORE.SYSTEM.DIHEDRAL>
0

>  <SCORE.SYSTEM.SOLV>
0

>  <SCORE.SYSTEM.norm>
0

>  <SCORE.heavy>
42

>  <SCORE.norm>
-0.108041

>  <RMSD>
11.153

$$$$
lig.pdb
 OpenBabel11021811513D
libRbt.so/2013.1/901 2013/11/27
 42 45  0  0  0  0  0  0  0  0999 V2000
   -2.8860    2.2021   38.1763 C   0  0  2  0  0  0  0  0  0  0  0  0
   -3.1085    3.4227   38.9495 O   0  0  0  0  0  0  0  0  0  0  0  0
   -1.6090    2.4818   37.2647 C   0  0  2  0  0  0  0  0  0  0  0  0
   -0.4328    2.7368   38.1010 N   0  0  0  0  0  0  0  0  0  0  0  0
   -1.9338    3.7111   36.2833 C   0  0  1  0  0  0  0  0  0  0  0  0
   -0.8117    4.0018   35.4238 O   0  0  0  0  0  0  0  0  0  0  0  0
   -3.1836    3.3274   35.4726 C   0  0  2  0  0  0  0  0  0  0  0  0
   -3.4957    4.3699   34.6127 O   0  0  0  0  0  0  0  0  0  0  0  0
   -4.3995    3.0204   36.4605 C   0  0  2  0  0  0  0  0  0  0  0  0
   -4.0857    1.9441   37.3530 O   0  0  0  0  0  0  0  0  0  0  0  0
   -5.6427    2.6211   35.7174 C   0  0  0  0  0  0  0  0  0  0  0  0
   -6.6662    2.3821   36.6843 O   0  0  0  0  0  0  0  0  0  0  0  0
   -2.0077    4.7904   43.0349 C   0  0  2  0  0  0  0  0  0  0  0  0
   -1.2344    5.0414   44.2316 N   0  0  0  0  0  0  0  0  0  0  0  0
   -1.9850    3.2522   42.6851 C   0  0  0  0  0  0  0  0  0  0  0  0
   -2.8142    2.9538   41.3867 C   0  0  2  0  0  0  0  0  0  0  0  0
   -2.7618    1.5229   41.0944 N   0  0  0  0  0  0  0  0  0  0  0  0
   -2.2718    3.7549   40.1208 C   0  0  2  0  0  0  0  0  0  0  0  0
   -2.3354    5.2708   40.4669 C   0  0  2  0  0  0  0  0  0  0  0  0
   -1.8181    5.9530   39.2221 O   0  0  0  0  0  0  0  0  0  0  0  0
   -1.4194    5.5841   41.7747 C   0  0  1  0  0  0  0  0  0  0  0  0
   -1.4462    6.9754   42.2283 O   0  0  0  0  0  0  0  0  0  0  0  0
   -1.9410    7.3147   39.3110 C   0  0  1  0  0  0  0  0  0  0  0  0
   -1.4414    8.0164   38.1239 C   0  0  2  0  0  0  0  0  0  0  0  0
   -0.0521    7.9394   38.1497 O   0  0  0  0  0  0  0  0  0  0  0  0
   -2.1420    9.3845   38.2680 C   0  0  2  0  0  0  0  0  0  0  0  0
   -1.0979   10.3776   38.3827 O   0  0  0  0  0  0  0  0  0  0  0  0
   -2.9595    9.2674   39.5120 C   0  0  2  0  0  0  0  0  0  0  0  0
   -3.2587    7.8298   39.4045 O   0  0  0  0  0  0  0  0  0  0  0  0
   -4.2853   10.1093   39.4220 C   0  0  0  0  0  0  0  0  0  0  0  0
   -5.1053   10.0406   40.6270 O   0  0  0  0  0  0  0  0  0  0  0  0
   -0.2634   10.5974   37.2053 C   0  0  2  0  0  0  0  0  0  0  0  0
    0.7853   11.7834   37.5336 C   0  0  2  0  0  0  0  0  0  0  0  0
    0.0277   13.0195   37.9143 N   0  0  0  0  0  0  0  0  0  0  0  0
    1.7023   12.0164   36.2341 C   0  0  1  0  0  0  0  0  0  0  0  0
    2.3825   10.7558   35.9514 O   0  0  0  0  0  0  0  0  0  0  0  0
    0.7828   12.4601   35.0085 C   0  0  2  0  0  0  0  0  0  0  0  0
    0.1419   13.7459   35.3640 O   0  0  0  0  0  0  0  0  0  0  0  0
   -0.3036   11.2746   34.7326 C   0  0  1  0  0  0  0  0  0  0  0  0
   -1.1056   11.0217   35.9847 O   0  0  0  0  0  0  0  0  0  0  0  0
   -1.2360   11.6849   33.5448 C   0  0  0  0  0  0  0  0  0  0  0  0
   -2.2564   10.6404   33.2205 N   0  0  0  0  0  0  0  0  0  0  0  0
  1  3  1  0  0  0  0
  1  2  1  1  0  0  0
  3  4  1  1  0  0  0
  3  5  1  0  0  0  0
  5  6  1  6  0  0  0
  7  8  1  6  0  0  0
  7  5  1  0  0  0  0
  9 11  1  6  0  0  0
  9  7  1  0  0  0  0
 10  9  1  0  0  0  0
 10  1  1  0  0  0  0
 12 11  1  0  0  0  0
 13 14  1  1  0  0  0
 15 13  1  0  0  0  0
 16 17  1  6  0  0  0
 16 15  1  0  0  0  0
 18  2  1  6  0  0  0
 18 19  1  0  0  0  0
 18 16  1  0  0  0  0
 19 20  1  6  0  0  0
 19 21  1  0  0  0  0
 21 22  1  1  0  0  0
 21 13  1  0  0  0  0
 23 20  1  6  0  0  0
 23 29  1  0  0  0  0
 24 25  1  1  0  0  0
 24 26  1  0  0  0  0
 24 23  1  0  0  0  0
 26 27  1  1  0  0  0
 26 28  1  0  0  0  0
 28 30  1  6  0  0  0
 29 28  1  0  0  0  0
 30 31  1  0  0  0  0
 32 27  1  1  0  0  0
 32 40  1  0  0  0  0
 33 35  1  0  0  0  0
 33 32  1  0  0  0  0
 33 34  1  6  0  0  0
 35 36  1  6  0  0  0
 35 37  1  0  0  0  0
 37 38  1  1  0  0  0
 37 39  1  0  0  0  0
 39 41  1  6  0  0  0
 40 39  1  0  0  0  0
 41 42  1  0  0  0  0
M  END
>  <CHROM.1>
-76.99083702,-179.48499747,-81.70178794,173.62246331,179.63461984,67.13629809
-179.06009429,177.57276694,179.48429773,-1.92307005,6.93575950,38.08929842
2.63254655,1.22161408,1.77739908

>  <Name>
lig.pdb

>  <RI>
0

>  <Rbt.Current_Directory>
/home/itssahil/PROJECTS/Mol_Feturizer/New_Systems/rnas/4wcr

>  <Rbt.Executable>
rbdock ($Id: //depot/dev/client3/rdock/2013.1/src/exe/rbdock.cxx#4 $)

>  <Rbt.Library>
libRbt.so (2013.1, Build901 2013/11/27)

>  <Rbt.Parameter_File>
/export/apps/rDock/src/rDock_2013.1_src/data/scripts/dock_solv.prm

>  <Rbt.Receptor>
prm/pocket_docking_6.prm

>  <SCORE>
-6.04716

>  <SCORE.INTER>
1.36568

>  <SCORE.INTER.CONST>
1

>  <SCORE.INTER.POLAR>
0

>  <SCORE.INTER.ROT>
9

>  <SCORE.INTER.SOLV>
10.2032

>  <SCORE.INTER.VDW>
-12.0906

>  <SCORE.INTER.norm>
0.0325162

>  <SCORE.INTRA>
-7.41284

>  <SCORE.INTRA.DIHEDRAL>
-11.8511

>  <SCORE.INTRA.DIHEDRAL.0>
16.2863

>  <SCORE.INTRA.POLAR>
0

>  <SCORE.INTRA.POLAR.0>
0

>  <SCORE.INTRA.REPUL>
-0.314433

>  <SCORE.INTRA.REPUL.0>
0.314433

>  <SCORE.INTRA.SOLV>
-3.19764

>  <SCORE.INTRA.SOLV.lig_0>
-103.824

>  <SCORE.INTRA.VDW>
1.68372

>  <SCORE.INTRA.VDW.0>
-5.30945

>  <SCORE.INTRA.norm>
-0.176496

>  <SCORE.RESTR>
0

>  <SCORE.RESTR.CAVITY>
0

>  <SCORE.RESTR.norm>
0

>  <SCORE.SYSTEM>
0

>  <SCORE.SYSTEM.CONST>
0

>  <SCORE.SYSTEM.DIHEDRAL>
0

>  <SCORE.SYSTEM.SOLV>
0

>  <SCORE.SYSTEM.norm>
0

>  <SCORE.heavy>
42

>  <SCORE.norm>
-0.14398

>  <RMSD>
11.169

$$$$
lig.pdb
 OpenBabel11021811513D
libRbt.so/2013.1/901 2013/11/27
 42 45  0  0  0  0  0  0  0  0999 V2000
    0.5899    3.2165   36.9086 C   0  0  2  0  0  0  0  0  0  0  0  0
   -0.6866    2.5966   36.5574 O   0  0  0  0  0  0  0  0  0  0  0  0
    1.3027    2.2174   37.9253 C   0  0  2  0  0  0  0  0  0  0  0  0
    1.5616    0.9294   37.2758 N   0  0  0  0  0  0  0  0  0  0  0  0
    0.3803    2.0639   39.2313 C   0  0  1  0  0  0  0  0  0  0  0  0
    0.9851    1.1755   40.1944 O   0  0  0  0  0  0  0  0  0  0  0  0
    0.1760    3.4738   39.8116 C   0  0  2  0  0  0  0  0  0  0  0  0
   -0.6202    3.3800   40.9434 O   0  0  0  0  0  0  0  0  0  0  0  0
   -0.4990    4.4198   38.7171 C   0  0  2  0  0  0  0  0  0  0  0  0
    0.3172    4.5226   37.5437 O   0  0  0  0  0  0  0  0  0  0  0  0
   -0.7034    5.8175   39.2289 C   0  0  0  0  0  0  0  0  0  0  0  0
   -1.6751    5.7574   40.2738 O   0  0  0  0  0  0  0  0  0  0  0  0
   -1.5760    4.5785   32.6775 C   0  0  2  0  0  0  0  0  0  0  0  0
   -2.2327    4.9197   31.4344 N   0  0  0  0  0  0  0  0  0  0  0  0
   -1.2608    3.0333   32.7200 C   0  0  0  0  0  0  0  0  0  0  0  0
   -0.5513    2.6362   34.0621 C   0  0  2  0  0  0  0  0  0  0  0  0
   -0.2841    1.1994   34.0643 N   0  0  0  0  0  0  0  0  0  0  0  0
   -1.4275    2.9956   35.3432 C   0  0  2  0  0  0  0  0  0  0  0  0
   -1.6983    4.5276   35.3072 C   0  0  2  0  0  0  0  0  0  0  0  0
   -2.5185    4.7842   36.5498 O   0  0  0  0  0  0  0  0  0  0  0  0
   -2.4938    4.9223   33.9438 C   0  0  1  0  0  0  0  0  0  0  0  0
   -2.7558    6.3522   33.7738 O   0  0  0  0  0  0  0  0  0  0  0  0
   -2.9261    6.0905   36.6183 C   0  0  1  0  0  0  0  0  0  0  0  0
   -3.8718    6.3418   37.7108 C   0  0  2  0  0  0  0  0  0  0  0  0
   -5.0882    5.7722   37.3469 O   0  0  0  0  0  0  0  0  0  0  0  0
   -3.7513    7.8732   37.8647 C   0  0  2  0  0  0  0  0  0  0  0  0
   -5.0606    8.4236   37.5955 O   0  0  0  0  0  0  0  0  0  0  0  0
   -2.7383    8.2823   36.8468 C   0  0  2  0  0  0  0  0  0  0  0  0
   -1.9241    7.0563   36.8901 O   0  0  0  0  0  0  0  0  0  0  0  0
   -1.8914    9.5174   37.3279 C   0  0  0  0  0  0  0  0  0  0  0  0
   -1.1290    9.2657   38.5463 O   0  0  0  0  0  0  0  0  0  0  0  0
   -5.2751    9.8225   37.9534 C   0  0  2  0  0  0  0  0  0  0  0  0
   -6.8417   10.1689   37.7536 C   0  0  2  0  0  0  0  0  0  0  0  0
   -7.2295    9.8950   36.3319 N   0  0  0  0  0  0  0  0  0  0  0  0
   -7.0698   11.7092   38.1531 C   0  0  1  0  0  0  0  0  0  0  0  0
   -6.6551   11.8625   39.5445 O   0  0  0  0  0  0  0  0  0  0  0  0
   -6.2046   12.6409   37.1899 C   0  0  2  0  0  0  0  0  0  0  0  0
   -6.6915   12.4404   35.8068 O   0  0  0  0  0  0  0  0  0  0  0  0
   -4.6343   12.2346   37.3656 C   0  0  1  0  0  0  0  0  0  0  0  0
   -4.4528   10.7697   37.0557 O   0  0  0  0  0  0  0  0  0  0  0  0
   -3.7557   13.1191   36.4199 C   0  0  0  0  0  0  0  0  0  0  0  0
   -3.6713   14.5431   36.8700 N   0  0  0  0  0  0  0  0  0  0  0  0
  1  3  1  0  0  0  0
  1  2  1  1  0  0  0
  3  4  1  6  0  0  0
  3  5  1  0  0  0  0
  5  6  1  1  0  0  0
  7  8  1  1  0  0  0
  7  5  1  0  0  0  0
  9 11  1  1  0  0  0
  9  7  1  0  0  0  0
 10  9  1  0  0  0  0
 10  1  1  0  0  0  0
 12 11  1  0  0  0  0
 13 14  1  6  0  0  0
 15 13  1  0  0  0  0
 16 17  1  6  0  0  0
 16 15  1  0  0  0  0
 18  2  1  1  0  0  0
 18 19  1  0  0  0  0
 18 16  1  0  0  0  0
 19 20  1  1  0  0  0
 19 21  1  0  0  0  0
 21 22  1  1  0  0  0
 21 13  1  0  0  0  0
 23 20  1  1  0  0  0
 23 29  1  0  0  0  0
 24 25  1  6  0  0  0
 24 26  1  0  0  0  0
 24 23  1  0  0  0  0
 26 27  1  6  0  0  0
 26 28  1  0  0  0  0
 28 30  1  1  0  0  0
 29 28  1  0  0  0  0
 30 31  1  0  0  0  0
 32 27  1  6  0  0  0
 32 40  1  0  0  0  0
 33 35  1  0  0  0  0
 33 32  1  0  0  0  0
 33 34  1  6  0  0  0
 35 36  1  1  0  0  0
 35 37  1  0  0  0  0
 37 38  1  6  0  0  0
 37 39  1  0  0  0  0
 39 41  1  6  0  0  0
 40 39  1  0  0  0  0
 41 42  1  0  0  0  0
M  END
>  <CHROM.1>
-160.54600273,-66.48949652,63.51210751,-175.65777153,172.28775753,167.30619591
61.07633872,-172.55751809,71.18076331,-2.54304037,6.61809222,36.98361152
-0.33059982,-0.99445252,1.22709136

>  <Name>
lig.pdb

>  <RI>
0

>  <Rbt.Current_Directory>
/home/itssahil/PROJECTS/Mol_Feturizer/New_Systems/rnas/4wcr

>  <Rbt.Executable>
rbdock ($Id: //depot/dev/client3/rdock/2013.1/src/exe/rbdock.cxx#4 $)

>  <Rbt.Library>
libRbt.so (2013.1, Build901 2013/11/27)

>  <Rbt.Parameter_File>
/export/apps/rDock/src/rDock_2013.1_src/data/scripts/dock_solv.prm

>  <Rbt.Receptor>
prm/pocket_docking_7.prm

>  <SCORE>
-5.19785

>  <SCORE.INTER>
3.84941

>  <SCORE.INTER.CONST>
1

>  <SCORE.INTER.POLAR>
0

>  <SCORE.INTER.ROT>
9

>  <SCORE.INTER.SOLV>
20.1255

>  <SCORE.INTER.VDW>
-13.7422

>  <SCORE.INTER.norm>
0.0916525

>  <SCORE.INTRA>
-9.049

>  <SCORE.INTRA.DIHEDRAL>
-11.989

>  <SCORE.INTRA.DIHEDRAL.0>
16.2863

>  <SCORE.INTRA.POLAR>
0

>  <SCORE.INTRA.POLAR.0>
0

>  <SCORE.INTRA.REPUL>
-0.314433

>  <SCORE.INTRA.REPUL.0>
0.314433

>  <SCORE.INTRA.SOLV>
-2.48827

>  <SCORE.INTRA.SOLV.lig_0>
-103.824

>  <SCORE.INTRA.VDW>
-0.238215

>  <SCORE.INTRA.VDW.0>
-5.30945

>  <SCORE.INTRA.norm>
-0.215452

>  <SCORE.RESTR>
0.00174705

>  <SCORE.RESTR.CAVITY>
0.00174705

>  <SCORE.RESTR.norm>
4.15964e-05

>  <SCORE.SYSTEM>
0

>  <SCORE.SYSTEM.CONST>
0

>  <SCORE.SYSTEM.DIHEDRAL>
0

>  <SCORE.SYSTEM.SOLV>
0

>  <SCORE.SYSTEM.norm>
0

>  <SCORE.heavy>
42

>  <SCORE.norm>
-0.123758

>  <RMSD>
11.189

$$$$
lig.pdb
 OpenBabel11021811513D
libRbt.so/2013.1/901 2013/11/27
 42 45  0  0  0  0  0  0  0  0999 V2000
   -1.8980    4.9508   42.7338 C   0  0  2  0  0  0  0  0  0  0  0  0
   -1.2204    5.5629   43.8754 O   0  0  0  0  0  0  0  0  0  0  0  0
   -2.6277    3.6506   43.2966 C   0  0  2  0  0  0  0  0  0  0  0  0
   -3.6283    4.0229   44.3005 N   0  0  0  0  0  0  0  0  0  0  0  0
   -1.5185    2.6504   43.8873 C   0  0  1  0  0  0  0  0  0  0  0  0
   -2.1245    1.4462   44.4025 O   0  0  0  0  0  0  0  0  0  0  0  0
   -0.5300    2.3445   42.7490 C   0  0  2  0  0  0  0  0  0  0  0  0
    0.4464    1.4820   43.2249 O   0  0  0  0  0  0  0  0  0  0  0  0
    0.1199    3.7009   42.2140 C   0  0  2  0  0  0  0  0  0  0  0  0
   -0.8821    4.5984   41.7201 O   0  0  0  0  0  0  0  0  0  0  0  0
    1.0815    3.4585   41.0854 C   0  0  0  0  0  0  0  0  0  0  0  0
    0.3399    2.9072   39.9965 O   0  0  0  0  0  0  0  0  0  0  0  0
    0.5326    9.6019   44.4967 C   0  0  2  0  0  0  0  0  0  0  0  0
    1.4426   10.7242   44.4243 N   0  0  0  0  0  0  0  0  0  0  0  0
    1.2864    8.3239   45.0324 C   0  0  0  0  0  0  0  0  0  0  0  0
    0.3209    7.0897   45.1162 C   0  0  2  0  0  0  0  0  0  0  0  0
    1.0583    5.9280   45.6087 N   0  0  0  0  0  0  0  0  0  0  0  0
   -0.3250    6.7256   43.7060 C   0  0  2  0  0  0  0  0  0  0  0  0
   -1.0957    7.9826   43.2085 C   0  0  2  0  0  0  0  0  0  0  0  0
   -1.6807    7.5532   41.8833 O   0  0  0  0  0  0  0  0  0  0  0  0
   -0.0751    9.2410   43.0597 C   0  0  1  0  0  0  0  0  0  0  0  0
   -0.7012   10.4986   42.6490 O   0  0  0  0  0  0  0  0  0  0  0  0
   -2.4573    8.5408   41.3366 C   0  0  1  0  0  0  0  0  0  0  0  0
   -2.8969    8.2374   39.9707 C   0  0  2  0  0  0  0  0  0  0  0  0
   -1.7895    8.3708   39.1384 O   0  0  0  0  0  0  0  0  0  0  0  0
   -4.0954    9.1989   39.8215 C   0  0  2  0  0  0  0  0  0  0  0  0
   -3.7803   10.0919   38.7294 O   0  0  0  0  0  0  0  0  0  0  0  0
   -4.1839    9.9077   41.1328 C   0  0  2  0  0  0  0  0  0  0  0  0
   -3.6956    8.8034   41.9755 O   0  0  0  0  0  0  0  0  0  0  0  0
   -5.6699   10.2636   41.5063 C   0  0  0  0  0  0  0  0  0  0  0  0
   -5.7939   11.0509   42.7285 O   0  0  0  0  0  0  0  0  0  0  0  0
   -4.7326   11.1644   38.4575 C   0  0  2  0  0  0  0  0  0  0  0  0
   -6.1086   10.5055   37.9223 C   0  0  2  0  0  0  0  0  0  0  0  0
   -5.8219    9.6948   36.6946 N   0  0  0  0  0  0  0  0  0  0  0  0
   -7.1524   11.6923   37.6291 C   0  0  1  0  0  0  0  0  0  0  0  0
   -7.3503   12.4153   38.8820 O   0  0  0  0  0  0  0  0  0  0  0  0
   -6.5617   12.6514   36.4997 C   0  0  2  0  0  0  0  0  0  0  0  0
   -6.4034   11.8532   35.2636 O   0  0  0  0  0  0  0  0  0  0  0  0
   -5.1465   13.2590   37.0378 C   0  0  1  0  0  0  0  0  0  0  0  0
   -4.2062   12.1290   37.3751 O   0  0  0  0  0  0  0  0  0  0  0  0
   -4.5286   14.1933   35.9451 C   0  0  0  0  0  0  0  0  0  0  0  0
   -3.2358   14.8116   36.3738 N   0  0  0  0  0  0  0  0  0  0  0  0
  1  3  1  0  0  0  0
  1  2  1  1  0  0  0
  3  4  1  1  0  0  0
  3  5  1  0  0  0  0
  5  6  1  6  0  0  0
  7  8  1  1  0  0  0
  7  5  1  0  0  0  0
  9 11  1  6  0  0  0
  9  7  1  0  0  0  0
 10  9  1  0  0  0  0
 10  1  1  0  0  0  0
 12 11  1  0  0  0  0
 13 14  1  6  0  0  0
 15 13  1  0  0  0  0
 16 17  1  6  0  0  0
 16 15  1  0  0  0  0
 18  2  1  1  0  0  0
 18 19  1  0  0  0  0
 18 16  1  0  0  0  0
 19 20  1  6  0  0  0
 19 21  1  0  0  0  0
 21 22  1  1  0  0  0
 21 13  1  0  0  0  0
 23 20  1  1  0  0  0
 23 29  1  0  0  0  0
 24 25  1  6  0  0  0
 24 26  1  0  0  0  0
 24 23  1  0  0  0  0
 26 27  1  6  0  0  0
 26 28  1  0  0  0  0
 28 30  1  1  0  0  0
 29 28  1  0  0  0  0
 30 31  1  0  0  0  0
 32 27  1  6  0  0  0
 32 40  1  0  0  0  0
 33 35  1  0  0  0  0
 33 32  1  0  0  0  0
 33 34  1  6  0  0  0
 35 36  1  1  0  0  0
 35 37  1  0  0  0  0
 37 38  1  6  0  0  0
 37 39  1  0  0  0  0
 39 41  1  6  0  0  0
 40 39  1  0  0  0  0
 41 42  1  0  0  0  0
M  END
>  <CHROM.1>
173.91360833,63.26130813,-176.44627167,176.94168254,172.24387710,-175.71485471
-175.38567408,-66.97693405,178.97402602,-2.56156401,8.15817344,41.10342418
0.79694453,0.86753087,3.13579530

>  <Name>
lig.pdb

>  <RI>
0

>  <Rbt.Current_Directory>
/home/itssahil/PROJECTS/Mol_Feturizer/New_Systems/rnas/4wcr

>  <Rbt.Executable>
rbdock ($Id: //depot/dev/client3/rdock/2013.1/src/exe/rbdock.cxx#4 $)

>  <Rbt.Library>
libRbt.so (2013.1, Build901 2013/11/27)

>  <Rbt.Parameter_File>
/export/apps/rDock/src/rDock_2013.1_src/data/scripts/dock_solv.prm

>  <Rbt.Receptor>
prm/pocket_docking_8.prm

>  <SCORE>
-7.97255

>  <SCORE.INTER>
2.27803

>  <SCORE.INTER.CONST>
1

>  <SCORE.INTER.POLAR>
0

>  <SCORE.INTER.ROT>
9

>  <SCORE.INTER.SOLV>
13.6758

>  <SCORE.INTER.VDW>
-12.6399

>  <SCORE.INTER.norm>
0.0542389

>  <SCORE.INTRA>
-10.2506

>  <SCORE.INTRA.DIHEDRAL>
-14.7396

>  <SCORE.INTRA.DIHEDRAL.0>
16.2863

>  <SCORE.INTRA.POLAR>
0

>  <SCORE.INTRA.POLAR.0>
0

>  <SCORE.INTRA.REPUL>
-0.314433

>  <SCORE.INTRA.REPUL.0>
0.314433

>  <SCORE.INTRA.SOLV>
-5.76059

>  <SCORE.INTRA.SOLV.lig_0>
-103.824

>  <SCORE.INTRA.VDW>
1.57166

>  <SCORE.INTRA.VDW.0>
-5.30945

>  <SCORE.INTRA.norm>
-0.244062

>  <SCORE.RESTR>
0

>  <SCORE.RESTR.CAVITY>
0

>  <SCORE.RESTR.norm>
0

>  <SCORE.SYSTEM>
0

>  <SCORE.SYSTEM.CONST>
0

>  <SCORE.SYSTEM.DIHEDRAL>
0

>  <SCORE.SYSTEM.SOLV>
0

>  <SCORE.SYSTEM.norm>
0

>  <SCORE.heavy>
42

>  <SCORE.norm>
-0.189823

>  <RMSD>
11.201

$$$$
lig.pdb
 OpenBabel11021811513D
libRbt.so/2013.1/901 2013/11/27
 42 45  0  0  0  0  0  0  0  0999 V2000
   -1.7266    4.3290   39.5187 C   0  0  2  0  0  0  0  0  0  0  0  0
   -1.9842    3.0001   38.9665 O   0  0  0  0  0  0  0  0  0  0  0  0
   -0.1690    4.3756   39.8528 C   0  0  2  0  0  0  0  0  0  0  0  0
    0.6192    4.2077   38.6287 N   0  0  0  0  0  0  0  0  0  0  0  0
    0.1592    3.2454   40.9457 C   0  0  1  0  0  0  0  0  0  0  0  0
    1.5594    3.2499   41.2952 O   0  0  0  0  0  0  0  0  0  0  0  0
   -0.7306    3.5243   42.1692 C   0  0  2  0  0  0  0  0  0  0  0  0
   -0.4746    2.5634   43.1361 O   0  0  0  0  0  0  0  0  0  0  0  0
   -2.2679    3.5044   41.7394 C   0  0  2  0  0  0  0  0  0  0  0  0
   -2.5416    4.4946   40.7402 O   0  0  0  0  0  0  0  0  0  0  0  0
   -3.1809    3.7910   42.8976 C   0  0  0  0  0  0  0  0  0  0  0  0
   -2.8198    5.0673   43.4271 O   0  0  0  0  0  0  0  0  0  0  0  0
   -5.2384    1.3723   36.4106 C   0  0  2  0  0  0  0  0  0  0  0  0
   -6.5325    0.8788   35.9923 N   0  0  0  0  0  0  0  0  0  0  0  0
   -4.7099    0.5385   37.6411 C   0  0  0  0  0  0  0  0  0  0  0  0
   -3.3077    1.0576   38.1174 C   0  0  2  0  0  0  0  0  0  0  0  0
   -2.8584    0.2653   39.2602 N   0  0  0  0  0  0  0  0  0  0  0  0
   -3.3388    2.5934   38.5399 C   0  0  2  0  0  0  0  0  0  0  0  0
   -3.8258    3.4061   37.3054 C   0  0  2  0  0  0  0  0  0  0  0  0
   -3.8171    4.8393   37.7836 O   0  0  0  0  0  0  0  0  0  0  0  0
   -5.3089    2.9081   36.8585 C   0  0  1  0  0  0  0  0  0  0  0  0
   -5.8489    3.5670   35.6683 O   0  0  0  0  0  0  0  0  0  0  0  0
   -4.1183    5.7069   36.7668 C   0  0  1  0  0  0  0  0  0  0  0  0
   -4.1421    7.1095   37.1950 C   0  0  2  0  0  0  0  0  0  0  0  0
   -5.2910    7.2912   37.9591 O   0  0  0  0  0  0  0  0  0  0  0  0
   -3.9908    7.8380   35.8424 C   0  0  2  0  0  0  0  0  0  0  0  0
   -5.1786    8.6431   35.6673 O   0  0  0  0  0  0  0  0  0  0  0  0
   -3.8847    6.7467   34.8289 C   0  0  2  0  0  0  0  0  0  0  0  0
   -3.2030    5.7619   35.6852 O   0  0  0  0  0  0  0  0  0  0  0  0
   -2.9598    7.1554   33.6239 C   0  0  0  0  0  0  0  0  0  0  0  0
   -2.8862    6.1453   32.5734 O   0  0  0  0  0  0  0  0  0  0  0  0
   -5.4070    9.7042   36.6434 C   0  0  2  0  0  0  0  0  0  0  0  0
   -6.7564   10.4956   36.2348 C   0  0  2  0  0  0  0  0  0  0  0  0
   -6.6061   11.0423   34.8473 N   0  0  0  0  0  0  0  0  0  0  0  0
   -7.0026   11.6592   37.3163 C   0  0  1  0  0  0  0  0  0  0  0  0
   -7.1256   11.0186   38.6224 O   0  0  0  0  0  0  0  0  0  0  0  0
   -5.7747   12.6770   37.2892 C   0  0  2  0  0  0  0  0  0  0  0  0
   -5.7249   13.2927   35.9444 O   0  0  0  0  0  0  0  0  0  0  0  0
   -4.4173   11.8457   37.6475 C   0  0  1  0  0  0  0  0  0  0  0  0
   -4.2422   10.7150   36.6650 O   0  0  0  0  0  0  0  0  0  0  0  0
   -3.1870   12.8121   37.6129 C   0  0  0  0  0  0  0  0  0  0  0  0
   -3.2308   13.8462   38.6927 N   0  0  0  0  0  0  0  0  0  0  0  0
  1  3  1  0  0  0  0
  1  2  1  1  0  0  0
  3  4  1  6  0  0  0
  3  5  1  0  0  0  0
  5  6  1  1  0  0  0
  7  8  1  1  0  0  0
  7  5  1  0  0  0  0
  9 11  1  1  0  0  0
  9  7  1  0  0  0  0
 10  9  1  0  0  0  0
 10  1  1  0  0  0  0
 12 11  1  0  0  0  0
 13 14  1  1  0  0  0
 15 13  1  0  0  0  0
 16 17  1  1  0  0  0
 16 15  1  0  0  0  0
 18  2  1  6  0  0  0
 18 19  1  0  0  0  0
 18 16  1  0  0  0  0
 19 20  1  1  0  0  0
 19 21  1  0  0  0  0
 21 22  1  6  0  0  0
 21 13  1  0  0  0  0
 23 20  1  1  0  0  0
 23 29  1  0  0  0  0
 24 25  1  6  0  0  0
 24 26  1  0  0  0  0
 24 23  1  0  0  0  0
 26 27  1  6  0  0  0
 26 28  1  0  0  0  0
 28 30  1  6  0  0  0
 29 28  1  0  0  0  0
 30 31  1  0  0  0  0
 32 27  1  6  0  0  0
 32 40  1  0  0  0  0
 33 35  1  0  0  0  0
 33 32  1  0  0  0  0
 33 34  1  6  0  0  0
 35 36  1  1  0  0  0
 35 37  1  0  0  0  0
 37 38  1  6  0  0  0
 37 39  1  0  0  0  0
 39 41  1  6  0  0  0
 40 39  1  0  0  0  0
 41 42  1  0  0  0  0
M  END
>  <CHROM.1>
179.93018517,58.01215678,-174.77503384,174.88024358,179.04923512,62.92389507
-176.83033388,178.45136932,66.39379019,-3.64581648,6.16605011,37.97446940
-0.91218925,-1.01671105,0.20288707

>  <Name>
lig.pdb

>  <RI>
0

>  <Rbt.Current_Directory>
/home/itssahil/PROJECTS/Mol_Feturizer/New_Systems/rnas/4wcr

>  <Rbt.Executable>
rbdock ($Id: //depot/dev/client3/rdock/2013.1/src/exe/rbdock.cxx#4 $)

>  <Rbt.Library>
libRbt.so (2013.1, Build901 2013/11/27)

>  <Rbt.Parameter_File>
/export/apps/rDock/src/rDock_2013.1_src/data/scripts/dock_solv.prm

>  <Rbt.Receptor>
prm/pocket_docking_8.prm

>  <SCORE>
-7.82241

>  <SCORE.INTER>
1.91662

>  <SCORE.INTER.CONST>
1

>  <SCORE.INTER.POLAR>
0

>  <SCORE.INTER.ROT>
9

>  <SCORE.INTER.SOLV>
14.8031

>  <SCORE.INTER.VDW>
-13.2566

>  <SCORE.INTER.norm>
0.0456339

>  <SCORE.INTRA>
-9.73904

>  <SCORE.INTRA.DIHEDRAL>
-15.2416

>  <SCORE.INTRA.DIHEDRAL.0>
16.2863

>  <SCORE.INTRA.POLAR>
0

>  <SCORE.INTRA.POLAR.0>
0

>  <SCORE.INTRA.REPUL>
-0.314433

>  <SCORE.INTRA.REPUL.0>
0.314433

>  <SCORE.INTRA.SOLV>
-5.55798

>  <SCORE.INTRA.SOLV.lig_0>
-103.824

>  <SCORE.INTRA.VDW>
2.23291

>  <SCORE.INTRA.VDW.0>
-5.30945

>  <SCORE.INTRA.norm>
-0.231882

>  <SCORE.RESTR>
0

>  <SCORE.RESTR.CAVITY>
0

>  <SCORE.RESTR.norm>
0

>  <SCORE.SYSTEM>
0

>  <SCORE.SYSTEM.CONST>
0

>  <SCORE.SYSTEM.DIHEDRAL>
0

>  <SCORE.SYSTEM.SOLV>
0

>  <SCORE.SYSTEM.norm>
0

>  <SCORE.heavy>
42

>  <SCORE.norm>
-0.186248

>  <RMSD>
11.583

$$$$
lig.pdb
 OpenBabel11021811513D
libRbt.so/2013.1/901 2013/11/27
 42 45  0  0  0  0  0  0  0  0999 V2000
   -7.9994   17.5802   27.9154 C   0  0  2  0  0  0  0  0  0  0  0  0
   -7.9858   16.3184   28.6535 O   0  0  0  0  0  0  0  0  0  0  0  0
   -9.2765   18.3817   28.4317 C   0  0  2  0  0  0  0  0  0  0  0  0
   -9.1525   18.6689   29.8634 N   0  0  0  0  0  0  0  0  0  0  0  0
  -10.5939   17.5262   28.0963 C   0  0  1  0  0  0  0  0  0  0  0  0
  -11.7857   18.2125   28.5334 O   0  0  0  0  0  0  0  0  0  0  0  0
  -10.6045   17.2849   26.5770 C   0  0  2  0  0  0  0  0  0  0  0  0
  -11.7311   16.5449   26.2501 O   0  0  0  0  0  0  0  0  0  0  0  0
   -9.2736   16.5200   26.1387 C   0  0  2  0  0  0  0  0  0  0  0  0
   -8.1040   17.2777   26.4727 O   0  0  0  0  0  0  0  0  0  0  0  0
   -9.2256   16.2761   24.6570 C   0  0  0  0  0  0  0  0  0  0  0  0
   -9.0859   17.5439   24.0145 O   0  0  0  0  0  0  0  0  0  0  0  0
   -5.3295   12.9019   29.6756 C   0  0  2  0  0  0  0  0  0  0  0  0
   -4.1973   12.0012   29.6746 N   0  0  0  0  0  0  0  0  0  0  0  0
   -5.9225   13.0319   28.2195 C   0  0  0  0  0  0  0  0  0  0  0  0
   -7.1508   14.0082   28.1927 C   0  0  2  0  0  0  0  0  0  0  0  0
   -7.6645   14.1060   26.8280 N   0  0  0  0  0  0  0  0  0  0  0  0
   -6.7775   15.4700   28.7049 C   0  0  2  0  0  0  0  0  0  0  0  0
   -6.2296   15.3294   30.1547 C   0  0  2  0  0  0  0  0  0  0  0  0
   -5.9119   16.7482   30.5655 O   0  0  0  0  0  0  0  0  0  0  0  0
   -4.9159   14.3695   30.1648 C   0  0  1  0  0  0  0  0  0  0  0  0
   -4.3442   14.1192   31.4887 O   0  0  0  0  0  0  0  0  0  0  0  0
   -4.8434   16.7928   31.4221 C   0  0  1  0  0  0  0  0  0  0  0  0
   -4.6289   18.1210   32.0061 C   0  0  2  0  0  0  0  0  0  0  0  0
   -4.1149   18.9378   31.0034 O   0  0  0  0  0  0  0  0  0  0  0  0
   -3.7643   17.7710   33.2362 C   0  0  2  0  0  0  0  0  0  0  0  0
   -2.5027   18.4562   33.0678 O   0  0  0  0  0  0  0  0  0  0  0  0
   -3.6189   16.2855   33.1925 C   0  0  2  0  0  0  0  0  0  0  0  0
   -4.9270   15.9874   32.5860 O   0  0  0  0  0  0  0  0  0  0  0  0
   -3.5313   15.6637   34.6347 C   0  0  0  0  0  0  0  0  0  0  0  0
   -3.2915   14.2243   34.6382 O   0  0  0  0  0  0  0  0  0  0  0  0
   -2.0496   19.2879   34.1786 C   0  0  2  0  0  0  0  0  0  0  0  0
   -2.4803   20.8181   33.8831 C   0  0  2  0  0  0  0  0  0  0  0  0
   -1.8795   21.2565   32.5817 N   0  0  0  0  0  0  0  0  0  0  0  0
   -1.9812   21.7261   35.1120 C   0  0  1  0  0  0  0  0  0  0  0  0
   -2.6173   21.2088   36.3201 O   0  0  0  0  0  0  0  0  0  0  0  0
   -0.3918   21.6451   35.2204 C   0  0  2  0  0  0  0  0  0  0  0  0
    0.1771   22.1976   33.9708 O   0  0  0  0  0  0  0  0  0  0  0  0
    0.0227   20.0855   35.4607 C   0  0  1  0  0  0  0  0  0  0  0  0
   -0.5158   19.2395   34.3342 O   0  0  0  0  0  0  0  0  0  0  0  0
    1.5801   19.9662   35.5545 C   0  0  0  0  0  0  0  0  0  0  0  0
    2.2756   20.4725   34.3309 N   0  0  0  0  0  0  0  0  0  0  0  0
  1  3  1  0  0  0  0
  1  2  1  1  0  0  0
  3  4  1  1  0  0  0
  3  5  1  0  0  0  0
  5  6  1  6  0  0  0
  7  8  1  1  0  0  0
  7  5  1  0  0  0  0
  9 11  1  6  0  0  0
  9  7  1  0  0  0  0
 10  9  1  0  0  0  0
 10  1  1  0  0  0  0
 12 11  1  0  0  0  0
 13 14  1  6  0  0  0
 15 13  1  0  0  0  0
 16 17  1  6  0  0  0
 16 15  1  0  0  0  0
 18  2  1  1  0  0  0
 18 19  1  0  0  0  0
 18 16  1  0  0  0  0
 19 20  1  6  0  0  0
 19 21  1  0  0  0  0
 21 22  1  1  0  0  0
 21 13  1  0  0  0  0
 23 20  1  1  0  0  0
 23 29  1  0  0  0  0
 24 25  1  6  0  0  0
 24 26  1  0  0  0  0
 24 23  1  0  0  0  0
 26 27  1  6  0  0  0
 26 28  1  0  0  0  0
 28 30  1  1  0  0  0
 29 28  1  0  0  0  0
 30 31  1  0  0  0  0
 32 27  1  6  0  0  0
 32 40  1  0  0  0  0
 33 35  1  0  0  0  0
 33 32  1  0  0  0  0
 33 34  1  6  0  0  0
 35 36  1  1  0  0  0
 35 37  1  0  0  0  0
 37 38  1  6  0  0  0
 37 39  1  0  0  0  0
 39 41  1  6  0  0  0
 40 39  1  0  0  0  0
 41 42  1  0  0  0  0
M  END
>  <CHROM.1>
-163.98667442,67.79335915,-124.59877306,-147.93696947,-171.17845118,127.55873742
-175.81210984,-96.37568674,-58.35124922,-5.15975089,17.39886569,30.85449487
2.73416355,0.70824250,-3.00808847

>  <Name>
lig.pdb

>  <RI>
0

>  <Rbt.Current_Directory>
/home/itssahil/PROJECTS/Mol_Feturizer/New_Systems/rnas/4wcr

>  <Rbt.Executable>
rbdock ($Id: //depot/dev/client3/rdock/2013.1/src/exe/rbdock.cxx#4 $)

>  <Rbt.Library>
libRbt.so (2013.1, Build901 2013/11/27)

>  <Rbt.Parameter_File>
/export/apps/rDock/src/rDock_2013.1_src/data/scripts/dock_solv.prm

>  <Rbt.Receptor>
prm/blind_docking_60.prm

>  <SCORE>
6.53608

>  <SCORE.INTER>
-8.05764

>  <SCORE.INTER.CONST>
1

>  <SCORE.INTER.POLAR>
0

>  <SCORE.INTER.ROT>
9

>  <SCORE.INTER.SOLV>
30.3349

>  <SCORE.INTER.VDW>
-25.0834

>  <SCORE.INTER.norm>
-0.191849

>  <SCORE.INTRA>
8.76502

>  <SCORE.INTRA.DIHEDRAL>
8.67718

>  <SCORE.INTRA.DIHEDRAL.0>
16.2863

>  <SCORE.INTRA.POLAR>
0

>  <SCORE.INTRA.POLAR.0>
0

>  <SCORE.INTRA.REPUL>
-0.314433

>  <SCORE.INTRA.REPUL.0>
0.314433

>  <SCORE.INTRA.SOLV>
0.240037

>  <SCORE.INTRA.SOLV.lig_0>
-103.824

>  <SCORE.INTRA.VDW>
5.87858

>  <SCORE.INTRA.VDW.0>
-5.30945

>  <SCORE.INTRA.norm>
0.208691

>  <SCORE.RESTR>
5.8287

>  <SCORE.RESTR.CAVITY>
5.8287

>  <SCORE.RESTR.norm>
0.138778

>  <SCORE.SYSTEM>
0

>  <SCORE.SYSTEM.CONST>
0

>  <SCORE.SYSTEM.DIHEDRAL>
0

>  <SCORE.SYSTEM.SOLV>
0

>  <SCORE.SYSTEM.norm>
0

>  <SCORE.heavy>
42

>  <SCORE.norm>
0.155621

>  <RMSD>
11.695

$$$$
lig.pdb
 OpenBabel11021811513D
libRbt.so/2013.1/901 2013/11/27
 42 45  0  0  0  0  0  0  0  0999 V2000
   -8.0669   17.5342   27.9968 C   0  0  2  0  0  0  0  0  0  0  0  0
   -8.0420   16.2471   28.6895 O   0  0  0  0  0  0  0  0  0  0  0  0
   -9.5209   18.1400   28.2396 C   0  0  2  0  0  0  0  0  0  0  0  0
   -9.7461   18.3648   29.6701 N   0  0  0  0  0  0  0  0  0  0  0  0
  -10.6085   17.1442   27.6032 C   0  0  1  0  0  0  0  0  0  0  0  0
  -11.9476   17.6507   27.7847 O   0  0  0  0  0  0  0  0  0  0  0  0
  -10.2610   16.9838   26.1132 C   0  0  2  0  0  0  0  0  0  0  0  0
  -11.1814   16.1259   25.5297 O   0  0  0  0  0  0  0  0  0  0  0  0
   -8.7766   16.4169   25.9591 C   0  0  2  0  0  0  0  0  0  0  0  0
   -7.8185   17.2974   26.5595 O   0  0  0  0  0  0  0  0  0  0  0  0
   -8.3800   16.2594   24.5186 C   0  0  0  0  0  0  0  0  0  0  0  0
   -9.0186   15.0830   24.0206 O   0  0  0  0  0  0  0  0  0  0  0  0
   -5.3112   12.8912   29.7158 C   0  0  2  0  0  0  0  0  0  0  0  0
   -4.1639   12.0099   29.7088 N   0  0  0  0  0  0  0  0  0  0  0  0
   -5.9302   12.9900   28.2681 C   0  0  0  0  0  0  0  0  0  0  0  0
   -7.1753   13.9450   28.2479 C   0  0  2  0  0  0  0  0  0  0  0  0
   -7.7131   14.0141   26.8908 N   0  0  0  0  0  0  0  0  0  0  0  0
   -6.8187   15.4201   28.7329 C   0  0  2  0  0  0  0  0  0  0  0  0
   -6.2447   15.3100   30.1751 C   0  0  2  0  0  0  0  0  0  0  0  0
   -5.9445   16.7398   30.5602 O   0  0  0  0  0  0  0  0  0  0  0  0
   -4.9148   14.3726   30.1770 C   0  0  1  0  0  0  0  0  0  0  0  0
   -4.3171   14.1514   31.4946 O   0  0  0  0  0  0  0  0  0  0  0  0
   -4.8650   16.8146   31.4007 C   0  0  1  0  0  0  0  0  0  0  0  0
   -4.6728   18.1512   31.9731 C   0  0  2  0  0  0  0  0  0  0  0  0
   -4.1925   18.9730   30.9579 O   0  0  0  0  0  0  0  0  0  0  0  0
   -3.7825   17.8293   33.1925 C   0  0  2  0  0  0  0  0  0  0  0  0
   -2.5397   18.5423   33.0013 O   0  0  0  0  0  0  0  0  0  0  0  0
   -3.6035   16.3473   33.1560 C   0  0  2  0  0  0  0  0  0  0  0  0
   -4.9131   16.0152   32.5708 O   0  0  0  0  0  0  0  0  0  0  0  0
   -3.4805   15.7372   34.6007 C   0  0  0  0  0  0  0  0  0  0  0  0
   -3.0293   14.3497   34.6138 O   0  0  0  0  0  0  0  0  0  0  0  0
   -2.0664   19.3554   34.1175 C   0  0  2  0  0  0  0  0  0  0  0  0
   -2.4484   20.8992   33.8261 C   0  0  2  0  0  0  0  0  0  0  0  0
   -1.8285   21.3239   32.5292 N   0  0  0  0  0  0  0  0  0  0  0  0
   -1.9274   21.7867   35.0609 C   0  0  1  0  0  0  0  0  0  0  0  0
   -2.5847   21.2845   36.2640 O   0  0  0  0  0  0  0  0  0  0  0  0
   -0.3418   21.6565   35.1760 C   0  0  2  0  0  0  0  0  0  0  0  0
    0.2496   22.1960   33.9313 O   0  0  0  0  0  0  0  0  0  0  0  0
    0.0235   20.0840   35.4120 C   0  0  1  0  0  0  0  0  0  0  0  0
   -0.5355   19.2592   34.2797 O   0  0  0  0  0  0  0  0  0  0  0  0
    1.5761   19.9165   35.5123 C   0  0  0  0  0  0  0  0  0  0  0  0
    2.2924   20.4059   34.2939 N   0  0  0  0  0  0  0  0  0  0  0  0
  1  3  1  0  0  0  0
  1  2  1  1  0  0  0
  3  4  1  1  0  0  0
  3  5  1  0  0  0  0
  5  6  1  6  0  0  0
  7  8  1  1  0  0  0
  7  5  1  0  0  0  0
  9 11  1  6  0  0  0
  9  7  1  0  0  0  0
 10  9  1  0  0  0  0
 10  1  1  0  0  0  0
 12 11  1  0  0  0  0
 13 14  1  6  0  0  0
 15 13  1  0  0  0  0
 16 17  1  6  0  0  0
 16 15  1  0  0  0  0
 18  2  1  1  0  0  0
 18 19  1  0  0  0  0
 18 16  1  0  0  0  0
 19 20  1  6  0  0  0
 19 21  1  0  0  0  0
 21 22  1  1  0  0  0
 21 13  1  0  0  0  0
 23 20  1  1  0  0  0
 23 29  1  0  0  0  0
 24 25  1  6  0  0  0
 24 26  1  0  0  0  0
 24 23  1  0  0  0  0
 26 27  1  6  0  0  0
 26 28  1  0  0  0  0
 28 30  1  1  0  0  0
 29 28  1  0  0  0  0
 30 31  1  0  0  0  0
 32 27  1  6  0  0  0
 32 40  1  0  0  0  0
 33 35  1  0  0  0  0
 33 32  1  0  0  0  0
 33 34  1  6  0  0  0
 35 36  1  1  0  0  0
 35 37  1  0  0  0  0
 37 38  1  6  0  0  0
 37 39  1  0  0  0  0
 39 41  1  6  0  0  0
 40 39  1  0  0  0  0
 41 42  1  0  0  0  0
M  END
>  <CHROM.1>
-177.19499706,-76.70502586,-128.10317315,-148.08470915,-170.55469168,129.60203827
-167.91725598,-100.08287274,-58.34917341,-5.11588241,17.28802654,30.76987712
2.68920834,0.71394160,-2.99223283

>  <Name>
lig.pdb

>  <RI>
0

>  <Rbt.Current_Directory>
/home/itssahil/PROJECTS/Mol_Feturizer/New_Systems/rnas/4wcr

>  <Rbt.Executable>
rbdock ($Id: //depot/dev/client3/rdock/2013.1/src/exe/rbdock.cxx#4 $)

>  <Rbt.Library>
libRbt.so (2013.1, Build901 2013/11/27)

>  <Rbt.Parameter_File>
/export/apps/rDock/src/rDock_2013.1_src/data/scripts/dock_solv.prm

>  <Rbt.Receptor>
prm/blind_docking_60.prm

>  <SCORE>
5.47108

>  <SCORE.INTER>
-9.7336

>  <SCORE.INTER.CONST>
1

>  <SCORE.INTER.POLAR>
0

>  <SCORE.INTER.ROT>
9

>  <SCORE.INTER.SOLV>
30.6063

>  <SCORE.INTER.VDW>
-26.2912

>  <SCORE.INTER.norm>
-0.231752

>  <SCORE.INTRA>
9.30688

>  <SCORE.INTRA.DIHEDRAL>
8.86944

>  <SCORE.INTRA.DIHEDRAL.0>
16.2863

>  <SCORE.INTRA.POLAR>
0

>  <SCORE.INTRA.POLAR.0>
0

>  <SCORE.INTRA.REPUL>
-0.314433

>  <SCORE.INTRA.REPUL.0>
0.314433

>  <SCORE.INTRA.SOLV>
0.651816

>  <SCORE.INTRA.SOLV.lig_0>
-103.824

>  <SCORE.INTRA.VDW>
6.11841

>  <SCORE.INTRA.VDW.0>
-5.30945

>  <SCORE.INTRA.norm>
0.221592

>  <SCORE.RESTR>
5.8978

>  <SCORE.RESTR.CAVITY>
5.8978

>  <SCORE.RESTR.norm>
0.140424

>  <SCORE.SYSTEM>
0

>  <SCORE.SYSTEM.CONST>
0

>  <SCORE.SYSTEM.DIHEDRAL>
0

>  <SCORE.SYSTEM.SOLV>
0

>  <SCORE.SYSTEM.norm>
0

>  <SCORE.heavy>
42

>  <SCORE.norm>
0.130264

>  <RMSD>
11.759

$$$$
lig.pdb
 OpenBabel11021811513D
libRbt.so/2013.1/901 2013/11/27
 42 45  0  0  0  0  0  0  0  0999 V2000
   -1.7161    3.2033   34.8184 C   0  0  2  0  0  0  0  0  0  0  0  0
   -2.2142    2.3462   35.8928 O   0  0  0  0  0  0  0  0  0  0  0  0
   -2.8504    3.2150   33.6989 C   0  0  2  0  0  0  0  0  0  0  0  0
   -4.0870    3.7918   34.2336 N   0  0  0  0  0  0  0  0  0  0  0  0
   -3.0624    1.7160   33.1624 C   0  0  1  0  0  0  0  0  0  0  0  0
   -4.0746    1.6691   32.1348 O   0  0  0  0  0  0  0  0  0  0  0  0
   -1.7019    1.2236   32.6399 C   0  0  2  0  0  0  0  0  0  0  0  0
   -1.8470   -0.0727   32.1687 O   0  0  0  0  0  0  0  0  0  0  0  0
   -0.6157    1.2868   33.8081 C   0  0  2  0  0  0  0  0  0  0  0  0
   -0.4592    2.6232   34.3012 O   0  0  0  0  0  0  0  0  0  0  0  0
    0.7391    0.8330   33.3433 C   0  0  0  0  0  0  0  0  0  0  0  0
    1.5961    0.7912   34.4850 O   0  0  0  0  0  0  0  0  0  0  0  0
   -1.3825    1.9930   40.2467 C   0  0  2  0  0  0  0  0  0  0  0  0
   -0.6916    1.7326   41.4908 N   0  0  0  0  0  0  0  0  0  0  0  0
   -1.3598    0.7076   39.3324 C   0  0  0  0  0  0  0  0  0  0  0  0
   -2.1001    0.9656   37.9730 C   0  0  2  0  0  0  0  0  0  0  0  0
   -2.0501   -0.2443   37.1547 N   0  0  0  0  0  0  0  0  0  0  0  0
   -1.4570    2.1678   37.1486 C   0  0  2  0  0  0  0  0  0  0  0  0
   -1.5206    3.4358   38.0485 C   0  0  2  0  0  0  0  0  0  0  0  0
   -0.9059    4.5213   37.1961 O   0  0  0  0  0  0  0  0  0  0  0  0
   -0.6942    3.1843   39.4273 C   0  0  1  0  0  0  0  0  0  0  0  0
   -0.7307    4.2946   40.3803 O   0  0  0  0  0  0  0  0  0  0  0  0
   -0.9668    5.7402   37.8190 C   0  0  1  0  0  0  0  0  0  0  0  0
   -0.4468    6.8352   36.9933 C   0  0  2  0  0  0  0  0  0  0  0  0
    0.9378    6.7020   36.9505 O   0  0  0  0  0  0  0  0  0  0  0  0
   -1.0840    8.0597   37.6844 C   0  0  2  0  0  0  0  0  0  0  0  0
    0.0045    8.8862   38.1551 O   0  0  0  0  0  0  0  0  0  0  0  0
   -1.8949    7.4907   38.8017 C   0  0  2  0  0  0  0  0  0  0  0  0
   -2.2592    6.2255   38.1426 O   0  0  0  0  0  0  0  0  0  0  0  0
   -3.1823    8.3486   39.0861 C   0  0  0  0  0  0  0  0  0  0  0  0
   -2.8957    9.7351   39.4393 O   0  0  0  0  0  0  0  0  0  0  0  0
    0.8037    9.5664   37.1403 C   0  0  2  0  0  0  0  0  0  0  0  0
    2.0515   10.2905   37.8702 C   0  0  2  0  0  0  0  0  0  0  0  0
    1.5322   11.2479   38.9000 N   0  0  0  0  0  0  0  0  0  0  0  0
    2.9280   11.0335   36.7461 C   0  0  1  0  0  0  0  0  0  0  0  0
    3.3721   10.0152   35.7988 O   0  0  0  0  0  0  0  0  0  0  0  0
    2.0354   12.1402   36.0229 C   0  0  2  0  0  0  0  0  0  0  0  0
    1.6379   13.1387   37.0403 O   0  0  0  0  0  0  0  0  0  0  0  0
    0.7531   11.3947   35.3434 C   0  0  1  0  0  0  0  0  0  0  0  0
   -0.0158   10.6447   36.4022 O   0  0  0  0  0  0  0  0  0  0  0  0
   -0.1559   12.4553   34.6381 C   0  0  0  0  0  0  0  0  0  0  0  0
   -1.3913   11.8573   34.0435 N   0  0  0  0  0  0  0  0  0  0  0  0
  1  3  1  0  0  0  0
  1  2  1  1  0  0  0
  3  4  1  1  0  0  0
  3  5  1  0  0  0  0
  5  6  1  6  0  0  0
  7  8  1  1  0  0  0
  7  5  1  0  0  0  0
  9 11  1  6  0  0  0
  9  7  1  0  0  0  0
 10  9  1  0  0  0  0
 10  1  1  0  0  0  0
 12 11  1  0  0  0  0
 13 14  1  1  0  0  0
 15 13  1  0  0  0  0
 16 17  1  6  0  0  0
 16 15  1  0  0  0  0
 18  2  1  6  0  0  0
 18 19  1  0  0  0  0
 18 16  1  0  0  0  0
 19 20  1  6  0  0  0
 19 21  1  0  0  0  0
 21 22  1  1  0  0  0
 21 13  1  0  0  0  0
 23 20  1  6  0  0  0
 23 29  1  0  0  0  0
 24 25  1  1  0  0  0
 24 26  1  0  0  0  0
 24 23  1  0  0  0  0
 26 27  1  1  0  0  0
 26 28  1  0  0  0  0
 28 30  1  6  0  0  0
 29 28  1  0  0  0  0
 30 31  1  0  0  0  0
 32 27  1  1  0  0  0
 32 40  1  0  0  0  0
 33 35  1  0  0  0  0
 33 32  1  0  0  0  0
 33 34  1  1  0  0  0
 35 36  1  6  0  0  0
 35 37  1  0  0  0  0
 37 38  1  1  0  0  0
 37 39  1  0  0  0  0
 39 41  1  1  0  0  0
 40 39  1  0  0  0  0
 41 42  1  0  0  0  0
M  END
>  <CHROM.1>
-176.04847409,-173.95674765,-168.51915615,175.96405481,-176.83087774,69.57488047
-59.08248930,-173.72402763,-177.28745714,-0.74158212,5.65952189,36.56125029
-2.92355432,1.32689671,1.50625940

>  <Name>
lig.pdb

>  <RI>
0

>  <Rbt.Current_Directory>
/home/itssahil/PROJECTS/Mol_Feturizer/New_Systems/rnas/4wcr

>  <Rbt.Executable>
rbdock ($Id: //depot/dev/client3/rdock/2013.1/src/exe/rbdock.cxx#4 $)

>  <Rbt.Library>
libRbt.so (2013.1, Build901 2013/11/27)

>  <Rbt.Parameter_File>
/export/apps/rDock/src/rDock_2013.1_src/data/scripts/dock_solv.prm

>  <Rbt.Receptor>
prm/pocket_docking_8.prm

>  <SCORE>
-9.71581

>  <SCORE.INTER>
0.476558

>  <SCORE.INTER.CONST>
1

>  <SCORE.INTER.POLAR>
0

>  <SCORE.INTER.ROT>
9

>  <SCORE.INTER.SOLV>
12.8051

>  <SCORE.INTER.VDW>
-13.5507

>  <SCORE.INTER.norm>
0.0113466

>  <SCORE.INTRA>
-10.1924

>  <SCORE.INTRA.DIHEDRAL>
-14.1178

>  <SCORE.INTRA.DIHEDRAL.0>
16.2863

>  <SCORE.INTRA.POLAR>
0

>  <SCORE.INTRA.POLAR.0>
0

>  <SCORE.INTRA.REPUL>
-0.314433

>  <SCORE.INTRA.REPUL.0>
0.314433

>  <SCORE.INTRA.SOLV>
-6.05734

>  <SCORE.INTRA.SOLV.lig_0>
-103.824

>  <SCORE.INTRA.VDW>
1.46738

>  <SCORE.INTRA.VDW.0>
-5.30945

>  <SCORE.INTRA.norm>
-0.242676

>  <SCORE.RESTR>
0

>  <SCORE.RESTR.CAVITY>
0

>  <SCORE.RESTR.norm>
0

>  <SCORE.SYSTEM>
0

>  <SCORE.SYSTEM.CONST>
0

>  <SCORE.SYSTEM.DIHEDRAL>
0

>  <SCORE.SYSTEM.SOLV>
0

>  <SCORE.SYSTEM.norm>
0

>  <SCORE.heavy>
42

>  <SCORE.norm>
-0.231329

>  <RMSD>
12.270

$$$$
lig.pdb
 OpenBabel11021811513D
libRbt.so/2013.1/901 2013/11/27
 42 45  0  0  0  0  0  0  0  0999 V2000
    6.3322   15.1382   14.4190 C   0  0  2  0  0  0  0  0  0  0  0  0
    4.8942   15.2602   14.6522 O   0  0  0  0  0  0  0  0  0  0  0  0
    6.7827   13.7842   15.1288 C   0  0  2  0  0  0  0  0  0  0  0  0
    6.1024   12.6387   14.5181 N   0  0  0  0  0  0  0  0  0  0  0  0
    6.4818   13.9005   16.7022 C   0  0  1  0  0  0  0  0  0  0  0  0
    6.8821   12.7018   17.3990 O   0  0  0  0  0  0  0  0  0  0  0  0
    7.2387   15.1357   17.2196 C   0  0  2  0  0  0  0  0  0  0  0  0
    6.9997   15.2690   18.5793 O   0  0  0  0  0  0  0  0  0  0  0  0
    6.7619   16.4370   16.4272 C   0  0  2  0  0  0  0  0  0  0  0  0
    7.0052   16.3080   15.0209 O   0  0  0  0  0  0  0  0  0  0  0  0
    7.4866   17.6716   16.8828 C   0  0  0  0  0  0  0  0  0  0  0  0
    8.8717   17.3425   16.9968 O   0  0  0  0  0  0  0  0  0  0  0  0
    1.3630   17.6936   13.4766 C   0  0  2  0  0  0  0  0  0  0  0  0
    0.5619   18.7653   12.9264 N   0  0  0  0  0  0  0  0  0  0  0  0
    2.4121   18.2707   14.5038 C   0  0  0  0  0  0  0  0  0  0  0  0
    3.2977   17.1272   15.1125 C   0  0  2  0  0  0  0  0  0  0  0  0
    4.2585   17.7035   16.0509 N   0  0  0  0  0  0  0  0  0  0  0  0
    4.0953   16.3161   13.9970 C   0  0  2  0  0  0  0  0  0  0  0  0
    3.0457   15.7221   13.0135 C   0  0  2  0  0  0  0  0  0  0  0  0
    3.8769   14.9673   12.0025 O   0  0  0  0  0  0  0  0  0  0  0  0
    2.1759   16.9184   12.3354 C   0  0  1  0  0  0  0  0  0  0  0  0
    1.1159   16.4739   11.4294 O   0  0  0  0  0  0  0  0  0  0  0  0
    3.4098   13.6915   11.8246 C   0  0  1  0  0  0  0  0  0  0  0  0
    2.6871   13.5142   10.5607 C   0  0  2  0  0  0  0  0  0  0  0  0
    1.4608   14.1595   10.6891 O   0  0  0  0  0  0  0  0  0  0  0  0
    2.7394   11.9799   10.3988 C   0  0  2  0  0  0  0  0  0  0  0  0
    1.3708   11.5146   10.3902 O   0  0  0  0  0  0  0  0  0  0  0  0
    3.5013   11.4946   11.5878 C   0  0  2  0  0  0  0  0  0  0  0  0
    4.3832   12.6644   11.7349 O   0  0  0  0  0  0  0  0  0  0  0  0
    4.3478   10.2109   11.2560 C   0  0  0  0  0  0  0  0  0  0  0  0
    5.0146    9.6329   12.4180 O   0  0  0  0  0  0  0  0  0  0  0  0
    1.0485   10.4282    9.4700 C   0  0  2  0  0  0  0  0  0  0  0  0
   -0.5601   10.3183    9.3490 C   0  0  2  0  0  0  0  0  0  0  0  0
   -1.1416   10.0823   10.7102 N   0  0  0  0  0  0  0  0  0  0  0  0
   -0.9062    9.1228    8.3317 C   0  0  1  0  0  0  0  0  0  0  0  0
   -0.2886    9.4512    7.0502 O   0  0  0  0  0  0  0  0  0  0  0  0
   -0.3337    7.7511    8.9104 C   0  0  2  0  0  0  0  0  0  0  0  0
   -1.0147    7.4815   10.1963 O   0  0  0  0  0  0  0  0  0  0  0  0
    1.2819    7.9051    9.0781 C   0  0  1  0  0  0  0  0  0  0  0  0
    1.5879    9.0756    9.9786 O   0  0  0  0  0  0  0  0  0  0  0  0
    1.8763    6.5804    9.6617 C   0  0  0  0  0  0  0  0  0  0  0  0
    3.3595    6.4861    9.4932 N   0  0  0  0  0  0  0  0  0  0  0  0
  1  3  1  0  0  0  0
  1  2  1  1  0  0  0
  3  4  1  6  0  0  0
  3  5  1  0  0  0  0
  5  6  1  1  0  0  0
  7  8  1  1  0  0  0
  7  5  1  0  0  0  0
  9 11  1  1  0  0  0
  9  7  1  0  0  0  0
 10  9  1  0  0  0  0
 10  1  1  0  0  0  0
 12 11  1  0  0  0  0
 13 14  1  6  0  0  0
 15 13  1  0  0  0  0
 16 17  1  1  0  0  0
 16 15  1  0  0  0  0
 18  2  1  1  0  0  0
 18 19  1  0  0  0  0
 18 16  1  0  0  0  0
 19 20  1  6  0  0  0
 19 21  1  0  0  0  0
 21 22  1  6  0  0  0
 21 13  1  0  0  0  0
 23 20  1  6  0  0  0
 23 29  1  0  0  0  0
 24 25  1  1  0  0  0
 24 26  1  0  0  0  0
 24 23  1  0  0  0  0
 26 27  1  1  0  0  0
 26 28  1  0  0  0  0
 28 30  1  6  0  0  0
 29 28  1  0  0  0  0
 30 31  1  0  0  0  0
 32 27  1  1  0  0  0
 32 40  1  0  0  0  0
 33 35  1  0  0  0  0
 33 32  1  0  0  0  0
 33 34  1  1  0  0  0
 35 36  1  6  0  0  0
 35 37  1  0  0  0  0
 37 38  1  1  0  0  0
 37 39  1  0  0  0  0
 39 41  1  1  0  0  0
 40 39  1  0  0  0  0
 41 42  1  0  0  0  0
M  END
>  <CHROM.1>
-172.41422484,44.44594009,-126.27594803,129.85586936,105.08553500,141.45248542
-174.84426090,-166.01646644,163.92714062,3.40027132,13.20193917,12.67349898
-0.93991690,0.65212990,-2.82914703

>  <Name>
lig.pdb

>  <RI>
0

>  <Rbt.Current_Directory>
/home/itssahil/PROJECTS/Mol_Feturizer/New_Systems/rnas/4wcr

>  <Rbt.Executable>
rbdock ($Id: //depot/dev/client3/rdock/2013.1/src/exe/rbdock.cxx#4 $)

>  <Rbt.Library>
libRbt.so (2013.1, Build901 2013/11/27)

>  <Rbt.Parameter_File>
/export/apps/rDock/src/rDock_2013.1_src/data/scripts/dock_solv.prm

>  <Rbt.Receptor>
prm/blind_docking_40.prm

>  <SCORE>
-0.800407

>  <SCORE.INTER>
-15.4002

>  <SCORE.INTER.CONST>
1

>  <SCORE.INTER.POLAR>
0

>  <SCORE.INTER.ROT>
9

>  <SCORE.INTER.SOLV>
28.6806

>  <SCORE.INTER.VDW>
-29.427

>  <SCORE.INTER.norm>
-0.366673

>  <SCORE.INTRA>
4.71897

>  <SCORE.INTRA.DIHEDRAL>
12.0702

>  <SCORE.INTRA.DIHEDRAL.0>
16.2863

>  <SCORE.INTRA.POLAR>
0

>  <SCORE.INTRA.POLAR.0>
0

>  <SCORE.INTRA.REPUL>
-0.291104

>  <SCORE.INTRA.REPUL.0>
0.314433

>  <SCORE.INTRA.SOLV>
-0.763018

>  <SCORE.INTRA.SOLV.lig_0>
-103.824

>  <SCORE.INTRA.VDW>
0.520907

>  <SCORE.INTRA.VDW.0>
-5.30945

>  <SCORE.INTRA.norm>
0.112357

>  <SCORE.RESTR>
9.88087

>  <SCORE.RESTR.CAVITY>
9.88087

>  <SCORE.RESTR.norm>
0.235259

>  <SCORE.SYSTEM>
0

>  <SCORE.SYSTEM.CONST>
0

>  <SCORE.SYSTEM.DIHEDRAL>
0

>  <SCORE.SYSTEM.SOLV>
0

>  <SCORE.SYSTEM.norm>
0

>  <SCORE.heavy>
42

>  <SCORE.norm>
-0.0190573

>  <RMSD>
25.227

$$$$
lig.pdb
 OpenBabel11021811513D
libRbt.so/2013.1/901 2013/11/27
 42 45  0  0  0  0  0  0  0  0999 V2000
    6.3554   15.2015   14.3473 C   0  0  2  0  0  0  0  0  0  0  0  0
    4.9718   15.4444   14.7519 O   0  0  0  0  0  0  0  0  0  0  0  0
    6.7319   13.7556   14.9018 C   0  0  2  0  0  0  0  0  0  0  0  0
    5.8719   12.7372   14.2927 N   0  0  0  0  0  0  0  0  0  0  0  0
    6.6147   13.7698   16.5036 C   0  0  1  0  0  0  0  0  0  0  0  0
    6.9568   12.4839   17.0622 O   0  0  0  0  0  0  0  0  0  0  0  0
    7.5501   14.8775   17.0179 C   0  0  2  0  0  0  0  0  0  0  0  0
    7.4731   14.9201   18.4021 O   0  0  0  0  0  0  0  0  0  0  0  0
    7.1332   16.2805   16.3808 C   0  0  2  0  0  0  0  0  0  0  0  0
    7.2099   16.2456   14.9502 O   0  0  0  0  0  0  0  0  0  0  0  0
    8.0301   17.3959   16.8376 C   0  0  0  0  0  0  0  0  0  0  0  0
    7.3939   18.6287   16.4983 O   0  0  0  0  0  0  0  0  0  0  0  0
    1.4091   17.8645   13.6462 C   0  0  2  0  0  0  0  0  0  0  0  0
    0.5932   18.9321   13.1100 N   0  0  0  0  0  0  0  0  0  0  0  0
    2.4792   18.4480   14.6478 C   0  0  0  0  0  0  0  0  0  0  0  0
    3.3810   17.3090   15.2408 C   0  0  2  0  0  0  0  0  0  0  0  0
    4.3608   17.8911   16.1556 N   0  0  0  0  0  0  0  0  0  0  0  0
    4.1558   16.4958   14.1108 C   0  0  2  0  0  0  0  0  0  0  0  0
    3.0863   15.8957   13.1530 C   0  0  2  0  0  0  0  0  0  0  0  0
    3.8969   15.1393   12.1265 O   0  0  0  0  0  0  0  0  0  0  0  0
    2.1986   17.0873   12.4900 C   0  0  1  0  0  0  0  0  0  0  0  0
    1.1199   16.6368   11.6093 O   0  0  0  0  0  0  0  0  0  0  0  0
    3.4565   13.8485   11.9947 C   0  0  1  0  0  0  0  0  0  0  0  0
    2.6474   13.6366   10.7899 C   0  0  2  0  0  0  0  0  0  0  0  0
    1.4151   14.2468   11.0043 O   0  0  0  0  0  0  0  0  0  0  0  0
    2.7337   12.1028   10.6374 C   0  0  2  0  0  0  0  0  0  0  0  0
    1.3829   11.5974   10.7351 O   0  0  0  0  0  0  0  0  0  0  0  0
    3.5963   11.6528   11.7701 C   0  0  2  0  0  0  0  0  0  0  0  0
    4.4511   12.8496   11.8410 O   0  0  0  0  0  0  0  0  0  0  0  0
    4.4541   10.3912   11.3867 C   0  0  0  0  0  0  0  0  0  0  0  0
    4.0819    9.7970   10.1071 O   0  0  0  0  0  0  0  0  0  0  0  0
    0.8523   10.9011    9.5669 C   0  0  2  0  0  0  0  0  0  0  0  0
   -0.7572   10.8267    9.7010 C   0  0  2  0  0  0  0  0  0  0  0  0
   -1.1135   10.1221   10.9751 N   0  0  0  0  0  0  0  0  0  0  0  0
   -1.3335   10.0624    8.4097 C   0  0  1  0  0  0  0  0  0  0  0  0
   -0.9233   10.8258    7.2347 O   0  0  0  0  0  0  0  0  0  0  0  0
   -0.7466    8.5798    8.3648 C   0  0  2  0  0  0  0  0  0  0  0  0
   -1.2153    7.8693    9.5755 O   0  0  0  0  0  0  0  0  0  0  0  0
    0.8801    8.6791    8.2879 C   0  0  1  0  0  0  0  0  0  0  0  0
    1.3958    9.4609    9.4700 O   0  0  0  0  0  0  0  0  0  0  0  0
    1.4917    7.2390    8.2600 C   0  0  0  0  0  0  0  0  0  0  0  0
    0.9318    6.3919    7.1617 N   0  0  0  0  0  0  0  0  0  0  0  0
  1  3  1  0  0  0  0
  1  2  1  1  0  0  0
  3  4  1  6  0  0  0
  3  5  1  0  0  0  0
  5  6  1  1  0  0  0
  7  8  1  1  0  0  0
  7  5  1  0  0  0  0
  9 11  1  1  0  0  0
  9  7  1  0  0  0  0
 10  9  1  0  0  0  0
 10  1  1  0  0  0  0
 12 11  1  0  0  0  0
 13 14  1  6  0  0  0
 15 13  1  0  0  0  0
 16 17  1  1  0  0  0
 16 15  1  0  0  0  0
 18  2  1  1  0  0  0
 18 19  1  0  0  0  0
 18 16  1  0  0  0  0
 19 20  1  6  0  0  0
 19 21  1  0  0  0  0
 21 22  1  6  0  0  0
 21 13  1  0  0  0  0
 23 20  1  6  0  0  0
 23 29  1  0  0  0  0
 24 25  1  1  0  0  0
 24 26  1  0  0  0  0
 24 23  1  0  0  0  0
 26 27  1  1  0  0  0
 26 28  1  0  0  0  0
 28 30  1  6  0  0  0
 29 28  1  0  0  0  0
 30 31  1  0  0  0  0
 32 27  1  1  0  0  0
 32 40  1  0  0  0  0
 33 35  1  0  0  0  0
 33 32  1  0  0  0  0
 33 34  1  1  0  0  0
 35 36  1  6  0  0  0
 35 37  1  0  0  0  0
 37 38  1  1  0  0  0
 37 39  1  0  0  0  0
 39 41  1  1  0  0  0
 40 39  1  0  0  0  0
 41 42  1  0  0  0  0
M  END
>  <CHROM.1>
-162.59064286,-165.74986858,-135.15713674,127.90438713,102.91122172,118.09166485
-9.30249782,-162.90165332,54.62677372,3.27043994,13.42850590,12.51352656
-0.92811728,0.61006573,-2.77018173

>  <Name>
lig.pdb

>  <RI>
0

>  <Rbt.Current_Directory>
/home/itssahil/PROJECTS/Mol_Feturizer/New_Systems/rnas/4wcr

>  <Rbt.Executable>
rbdock ($Id: //depot/dev/client3/rdock/2013.1/src/exe/rbdock.cxx#4 $)

>  <Rbt.Library>
libRbt.so (2013.1, Build901 2013/11/27)

>  <Rbt.Parameter_File>
/export/apps/rDock/src/rDock_2013.1_src/data/scripts/dock_solv.prm

>  <Rbt.Receptor>
prm/blind_docking_40.prm

>  <SCORE>
4.349

>  <SCORE.INTER>
-14.2887

>  <SCORE.INTER.CONST>
1

>  <SCORE.INTER.POLAR>
0

>  <SCORE.INTER.ROT>
9

>  <SCORE.INTER.SOLV>
31.3287

>  <SCORE.INTER.VDW>
-29.5687

>  <SCORE.INTER.norm>
-0.340207

>  <SCORE.INTRA>
7.84147

>  <SCORE.INTRA.DIHEDRAL>
17.807

>  <SCORE.INTRA.DIHEDRAL.0>
16.2863

>  <SCORE.INTRA.POLAR>
0

>  <SCORE.INTRA.POLAR.0>
0

>  <SCORE.INTRA.REPUL>
-0.314433

>  <SCORE.INTRA.REPUL.0>
0.314433

>  <SCORE.INTRA.SOLV>
1.14497

>  <SCORE.INTRA.SOLV.lig_0>
-103.824

>  <SCORE.INTRA.VDW>
-0.0623669

>  <SCORE.INTRA.VDW.0>
-5.30945

>  <SCORE.INTRA.norm>
0.186702

>  <SCORE.RESTR>
10.7962

>  <SCORE.RESTR.CAVITY>
10.7962

>  <SCORE.RESTR.norm>
0.257053

>  <SCORE.SYSTEM>
0

>  <SCORE.SYSTEM.CONST>
0

>  <SCORE.SYSTEM.DIHEDRAL>
0

>  <SCORE.SYSTEM.SOLV>
0

>  <SCORE.SYSTEM.norm>
0

>  <SCORE.heavy>
42

>  <SCORE.norm>
0.103548

>  <RMSD>
25.402

$$$$
lig.pdb
 OpenBabel11021811513D
libRbt.so/2013.1/901 2013/11/27
 42 45  0  0  0  0  0  0  0  0999 V2000
    5.1599   14.9263   14.7813 C   0  0  2  0  0  0  0  0  0  0  0  0
    5.1402   15.8901   13.6822 O   0  0  0  0  0  0  0  0  0  0  0  0
    3.9391   15.3118   15.7305 C   0  0  2  0  0  0  0  0  0  0  0  0
    2.6713   15.1827   15.0067 N   0  0  0  0  0  0  0  0  0  0  0  0
    4.1695   16.7995   16.2904 C   0  0  1  0  0  0  0  0  0  0  0  0
    3.0954   17.1977   17.1680 O   0  0  0  0  0  0  0  0  0  0  0  0
    5.5259   16.8070   17.0160 C   0  0  2  0  0  0  0  0  0  0  0  0
    5.7598   18.0806   17.5127 O   0  0  0  0  0  0  0  0  0  0  0  0
    6.6838   16.3668   16.0090 C   0  0  2  0  0  0  0  0  0  0  0  0
    6.4502   15.0514   15.4907 O   0  0  0  0  0  0  0  0  0  0  0  0
    8.0301   16.3394   16.6752 C   0  0  0  0  0  0  0  0  0  0  0  0
    8.8139   15.3382   16.0248 O   0  0  0  0  0  0  0  0  0  0  0  0
    0.9168   15.8038   12.2937 C   0  0  2  0  0  0  0  0  0  0  0  0
   -0.2560   15.9931   11.4680 N   0  0  0  0  0  0  0  0  0  0  0  0
    1.6388   17.1850   12.5380 C   0  0  0  0  0  0  0  0  0  0  0  0
    2.9185   17.0061   13.4285 C   0  0  2  0  0  0  0  0  0  0  0  0
    3.5600   18.3045   13.6244 N   0  0  0  0  0  0  0  0  0  0  0  0
    3.9756   16.0055   12.7808 C   0  0  2  0  0  0  0  0  0  0  0  0
    3.2602   14.6380   12.5807 C   0  0  2  0  0  0  0  0  0  0  0  0
    4.3251   13.7522   11.9773 O   0  0  0  0  0  0  0  0  0  0  0  0
    1.9731   14.8190   11.6018 C   0  0  1  0  0  0  0  0  0  0  0  0
    1.1869   13.6036   11.3846 O   0  0  0  0  0  0  0  0  0  0  0  0
    3.8833   12.4625   11.8404 C   0  0  1  0  0  0  0  0  0  0  0  0
    3.5082   12.1257   10.4631 C   0  0  2  0  0  0  0  0  0  0  0  0
    2.3098   12.7774   10.1876 O   0  0  0  0  0  0  0  0  0  0  0  0
    3.5561   10.5834   10.5084 C   0  0  2  0  0  0  0  0  0  0  0  0
    2.2236   10.1156   10.1998 O   0  0  0  0  0  0  0  0  0  0  0  0
    3.9692   10.2535   11.9049 C   0  0  2  0  0  0  0  0  0  0  0  0
    4.8164   11.4358   12.1334 O   0  0  0  0  0  0  0  0  0  0  0  0
    4.8351    8.9416   11.9643 C   0  0  0  0  0  0  0  0  0  0  0  0
    6.2076    9.1247   11.5039 O   0  0  0  0  0  0  0  0  0  0  0  0
    2.1192    8.9345    9.3482 C   0  0  2  0  0  0  0  0  0  0  0  0
    0.6216    8.8696    8.7422 C   0  0  2  0  0  0  0  0  0  0  0  0
   -0.3649    8.8284    9.8700 N   0  0  0  0  0  0  0  0  0  0  0  0
    0.5162    7.5691    7.8032 C   0  0  1  0  0  0  0  0  0  0  0  0
    1.5194    7.7106    6.7520 O   0  0  0  0  0  0  0  0  0  0  0  0
    0.7805    6.2610    8.6770 C   0  0  2  0  0  0  0  0  0  0  0  0
   -0.2799    6.1807    9.7062 O   0  0  0  0  0  0  0  0  0  0  0  0
    2.2737    6.3753    9.3245 C   0  0  1  0  0  0  0  0  0  0  0  0
    2.3749    7.6378   10.1433 O   0  0  0  0  0  0  0  0  0  0  0  0
    2.5606    5.1136   10.2045 C   0  0  0  0  0  0  0  0  0  0  0  0
    1.3375    4.5953   10.8920 N   0  0  0  0  0  0  0  0  0  0  0  0
  1  3  1  0  0  0  0
  1  2  1  6  0  0  0
  3  4  1  6  0  0  0
  3  5  1  0  0  0  0
  5  6  1  1  0  0  0
  7  8  1  6  0  0  0
  7  5  1  0  0  0  0
  9 11  1  1  0  0  0
  9  7  1  0  0  0  0
 10  9  1  0  0  0  0
 10  1  1  0  0  0  0
 12 11  1  0  0  0  0
 13 14  1  6  0  0  0
 15 13  1  0  0  0  0
 16 17  1  6  0  0  0
 16 15  1  0  0  0  0
 18  2  1  1  0  0  0
 18 19  1  0  0  0  0
 18 16  1  0  0  0  0
 19 20  1  6  0  0  0
 19 21  1  0  0  0  0
 21 22  1  1  0  0  0
 21 13  1  0  0  0  0
 23 20  1  6  0  0  0
 23 29  1  0  0  0  0
 24 25  1  1  0  0  0
 24 26  1  0  0  0  0
 24 23  1  0  0  0  0
 26 27  1  1  0  0  0
 26 28  1  0  0  0  0
 28 30  1  6  0  0  0
 29 28  1  0  0  0  0
 30 31  1  0  0  0  0
 32 27  1  1  0  0  0
 32 40  1  0  0  0  0
 33 35  1  0  0  0  0
 33 32  1  0  0  0  0
 33 34  1  1  0  0  0
 35 36  1  6  0  0  0
 35 37  1  0  0  0  0
 37 38  1  1  0  0  0
 37 39  1  0  0  0  0
 39 41  1  1  0  0  0
 40 39  1  0  0  0  0
 41 42  1  0  0  0  0
M  END
>  <CHROM.1>
-60.46735135,149.99528853,86.34565981,174.89101996,102.56304130,140.45046884
75.57700129,-161.76134645,-34.00575435,3.30988763,12.51936765,12.32475631
-1.21394336,0.57772137,-2.76141709

>  <Name>
lig.pdb

>  <RI>
0

>  <Rbt.Current_Directory>
/home/itssahil/PROJECTS/Mol_Feturizer/New_Systems/rnas/4wcr

>  <Rbt.Executable>
rbdock ($Id: //depot/dev/client3/rdock/2013.1/src/exe/rbdock.cxx#4 $)

>  <Rbt.Library>
libRbt.so (2013.1, Build901 2013/11/27)

>  <Rbt.Parameter_File>
/export/apps/rDock/src/rDock_2013.1_src/data/scripts/dock_solv.prm

>  <Rbt.Receptor>
prm/blind_docking_40.prm

>  <SCORE>
28.4096

>  <SCORE.INTER>
-5.21373

>  <SCORE.INTER.CONST>
1

>  <SCORE.INTER.POLAR>
0

>  <SCORE.INTER.ROT>
9

>  <SCORE.INTER.SOLV>
36.1937

>  <SCORE.INTER.VDW>
-25.1404

>  <SCORE.INTER.norm>
-0.124136

>  <SCORE.INTRA>
29.7163

>  <SCORE.INTRA.DIHEDRAL>
5.10364

>  <SCORE.INTRA.DIHEDRAL.0>
16.2863

>  <SCORE.INTRA.POLAR>
0

>  <SCORE.INTRA.POLAR.0>
0

>  <SCORE.INTRA.REPUL>
-0.154925

>  <SCORE.INTRA.REPUL.0>
0.314433

>  <SCORE.INTRA.SOLV>
5.60466

>  <SCORE.INTRA.SOLV.lig_0>
-103.824

>  <SCORE.INTRA.VDW>
25.1368

>  <SCORE.INTRA.VDW.0>
-5.30945

>  <SCORE.INTRA.norm>
0.707531

>  <SCORE.RESTR>
3.90699

>  <SCORE.RESTR.CAVITY>
3.90699

>  <SCORE.RESTR.norm>
0.0930237

>  <SCORE.SYSTEM>
0

>  <SCORE.SYSTEM.CONST>
0

>  <SCORE.SYSTEM.DIHEDRAL>
0

>  <SCORE.SYSTEM.SOLV>
0

>  <SCORE.SYSTEM.norm>
0

>  <SCORE.heavy>
42

>  <SCORE.norm>
0.676418

>  <RMSD>
25.490

$$$$
lig.pdb
 OpenBabel11021811513D
libRbt.so/2013.1/901 2013/11/27
 42 45  0  0  0  0  0  0  0  0999 V2000
    4.5183   16.0308   13.4814 C   0  0  2  0  0  0  0  0  0  0  0  0
    3.2347   15.3744   13.2394 O   0  0  0  0  0  0  0  0  0  0  0  0
    5.4645   14.9268   14.1339 C   0  0  2  0  0  0  0  0  0  0  0  0
    5.6669   13.8145   13.2014 N   0  0  0  0  0  0  0  0  0  0  0  0
    4.8154   14.4447   15.5217 C   0  0  1  0  0  0  0  0  0  0  0  0
    5.6394   13.4492   16.1640 O   0  0  0  0  0  0  0  0  0  0  0  0
    4.6468   15.6944   16.4029 C   0  0  2  0  0  0  0  0  0  0  0  0
    4.0851   15.3152   17.6130 O   0  0  0  0  0  0  0  0  0  0  0  0
    3.7258   16.7647   15.6580 C   0  0  2  0  0  0  0  0  0  0  0  0
    4.2987   17.1624   14.4061 O   0  0  0  0  0  0  0  0  0  0  0  0
    3.5448   18.0153   16.4706 C   0  0  0  0  0  0  0  0  0  0  0  0
    4.8392   18.5745   16.6975 O   0  0  0  0  0  0  0  0  0  0  0  0
   -0.7584   16.3766   11.5592 C   0  0  2  0  0  0  0  0  0  0  0  0
   -1.7913   17.0215   10.7781 N   0  0  0  0  0  0  0  0  0  0  0  0
    0.0333   17.4479   12.4044 C   0  0  0  0  0  0  0  0  0  0  0  0
    1.1639   16.7734   13.2584 C   0  0  2  0  0  0  0  0  0  0  0  0
    1.8759   17.7984   14.0188 N   0  0  0  0  0  0  0  0  0  0  0  0
    2.2141   15.9806   12.3602 C   0  0  2  0  0  0  0  0  0  0  0  0
    1.4241   14.9038   11.5614 C   0  0  2  0  0  0  0  0  0  0  0  0
    2.4853   14.1972   10.7506 O   0  0  0  0  0  0  0  0  0  0  0  0
    0.2981   15.6156   10.6271 C   0  0  1  0  0  0  0  0  0  0  0  0
   -0.5472   14.6930    9.8677 O   0  0  0  0  0  0  0  0  0  0  0  0
    2.3815   12.8362   10.8700 C   0  0  1  0  0  0  0  0  0  0  0  0
    1.8012   12.1970    9.6842 C   0  0  2  0  0  0  0  0  0  0  0  0
    0.4431   12.5003    9.6713 O   0  0  0  0  0  0  0  0  0  0  0  0
    2.2648   10.7368    9.8743 C   0  0  2  0  0  0  0  0  0  0  0  0
    1.0698    9.9305    9.9809 O   0  0  0  0  0  0  0  0  0  0  0  0
    3.0615   10.7488   11.1372 C   0  0  2  0  0  0  0  0  0  0  0  0
    3.5945   12.1153   11.0090 O   0  0  0  0  0  0  0  0  0  0  0  0
    4.2332    9.7000   11.0995 C   0  0  0  0  0  0  0  0  0  0  0  0
    4.9976    9.6312   12.3406 O   0  0  0  0  0  0  0  0  0  0  0  0
    0.9973    8.7426    9.1354 C   0  0  2  0  0  0  0  0  0  0  0  0
   -0.5222    8.1905    9.1555 C   0  0  2  0  0  0  0  0  0  0  0  0
   -0.9185    7.8893   10.5694 N   0  0  0  0  0  0  0  0  0  0  0  0
   -0.5943    6.8854    8.2198 C   0  0  1  0  0  0  0  0  0  0  0  0
   -0.1834    7.2901    6.8785 O   0  0  0  0  0  0  0  0  0  0  0  0
    0.3751    5.7606    8.8024 C   0  0  2  0  0  0  0  0  0  0  0  0
   -0.1124    5.3953   10.1511 O   0  0  0  0  0  0  0  0  0  0  0  0
    1.8925    6.3599    8.8266 C   0  0  1  0  0  0  0  0  0  0  0  0
    1.9247    7.6228    9.6503 O   0  0  0  0  0  0  0  0  0  0  0  0
    2.8700    5.2864    9.4103 C   0  0  0  0  0  0  0  0  0  0  0  0
    2.3613    4.6629   10.6711 N   0  0  0  0  0  0  0  0  0  0  0  0
  1  3  1  0  0  0  0
  1  2  1  1  0  0  0
  3  4  1  6  0  0  0
  3  5  1  0  0  0  0
  5  6  1  1  0  0  0
  7  8  1  1  0  0  0
  7  5  1  0  0  0  0
  9 11  1  1  0  0  0
  9  7  1  0  0  0  0
 10  9  1  0  0  0  0
 10  1  1  0  0  0  0
 12 11  1  0  0  0  0
 13 14  1  6  0  0  0
 15 13  1  0  0  0  0
 16 17  1  6  0  0  0
 16 15  1  0  0  0  0
 18  2  1  1  0  0  0
 18 19  1  0  0  0  0
 18 16  1  0  0  0  0
 19 20  1  6  0  0  0
 19 21  1  0  0  0  0
 21 22  1  1  0  0  0
 21 13  1  0  0  0  0
 23 20  1  6  0  0  0
 23 29  1  0  0  0  0
 24 25  1  1  0  0  0
 24 26  1  0  0  0  0
 24 23  1  0  0  0  0
 26 27  1  1  0  0  0
 26 28  1  0  0  0  0
 28 30  1  6  0  0  0
 29 28  1  0  0  0  0
 30 31  1  0  0  0  0
 32 27  1  1  0  0  0
 32 40  1  0  0  0  0
 33 35  1  0  0  0  0
 33 32  1  0  0  0  0
 33 34  1  1  0  0  0
 35 36  1  6  0  0  0
 35 37  1  0  0  0  0
 37 38  1  1  0  0  0
 37 39  1  0  0  0  0
 39 41  1  1  0  0  0
 40 39  1  0  0  0  0
 41 42  1  0  0  0  0
M  END
>  <CHROM.1>
-165.36097248,59.52585884,-96.62713942,131.00204743,104.65818929,130.35523052
-177.12680523,-167.20997373,-47.50665263,2.23071292,12.48674242,11.85746994
-1.28501555,0.70023100,-2.80682744

>  <Name>
lig.pdb

>  <RI>
0

>  <Rbt.Current_Directory>
/home/itssahil/PROJECTS/Mol_Feturizer/New_Systems/rnas/4wcr

>  <Rbt.Executable>
rbdock ($Id: //depot/dev/client3/rdock/2013.1/src/exe/rbdock.cxx#4 $)

>  <Rbt.Library>
libRbt.so (2013.1, Build901 2013/11/27)

>  <Rbt.Parameter_File>
/export/apps/rDock/src/rDock_2013.1_src/data/scripts/dock_solv.prm

>  <Rbt.Receptor>
prm/blind_docking_80.prm

>  <SCORE>
1.95832

>  <SCORE.INTER>
-11.7976

>  <SCORE.INTER.CONST>
1

>  <SCORE.INTER.POLAR>
0

>  <SCORE.INTER.ROT>
9

>  <SCORE.INTER.SOLV>
30.9842

>  <SCORE.INTER.VDW>
-27.7932

>  <SCORE.INTER.norm>
-0.280895

>  <SCORE.INTRA>
7.75944

>  <SCORE.INTRA.DIHEDRAL>
10.5812

>  <SCORE.INTRA.DIHEDRAL.0>
16.2863

>  <SCORE.INTRA.POLAR>
0

>  <SCORE.INTRA.POLAR.0>
0

>  <SCORE.INTRA.REPUL>
-0.0478542

>  <SCORE.INTRA.REPUL.0>
0.314433

>  <SCORE.INTRA.SOLV>
1.0432

>  <SCORE.INTRA.SOLV.lig_0>
-103.824

>  <SCORE.INTRA.VDW>
2.1865

>  <SCORE.INTRA.VDW.0>
-5.30945

>  <SCORE.INTRA.norm>
0.184748

>  <SCORE.RESTR>
5.99649

>  <SCORE.RESTR.CAVITY>
5.99649

>  <SCORE.RESTR.norm>
0.142773

>  <SCORE.SYSTEM>
0

>  <SCORE.SYSTEM.CONST>
0

>  <SCORE.SYSTEM.DIHEDRAL>
0

>  <SCORE.SYSTEM.SOLV>
0

>  <SCORE.SYSTEM.norm>
0

>  <SCORE.heavy>
42

>  <SCORE.norm>
0.0466266

>  <RMSD>
25.665

$$$$
lig.pdb
 OpenBabel11021811513D
libRbt.so/2013.1/901 2013/11/27
 42 45  0  0  0  0  0  0  0  0999 V2000
    5.8749   14.9373   14.2289 C   0  0  2  0  0  0  0  0  0  0  0  0
    4.4617   14.6932   13.9452 O   0  0  0  0  0  0  0  0  0  0  0  0
    6.3486   13.7467   15.1765 C   0  0  2  0  0  0  0  0  0  0  0  0
    6.2170   12.4619   14.4839 N   0  0  0  0  0  0  0  0  0  0  0  0
    5.4919   13.7947   16.5342 C   0  0  1  0  0  0  0  0  0  0  0  0
    5.8885   12.7415   17.4377 O   0  0  0  0  0  0  0  0  0  0  0  0
    5.7049   15.1850   17.1571 C   0  0  2  0  0  0  0  0  0  0  0  0
    4.9760   15.2635   18.3345 O   0  0  0  0  0  0  0  0  0  0  0  0
    5.2490   16.3174   16.1284 C   0  0  2  0  0  0  0  0  0  0  0  0
    5.9972   16.2438   14.9084 O   0  0  0  0  0  0  0  0  0  0  0  0
    5.4548   17.6986   16.6825 C   0  0  0  0  0  0  0  0  0  0  0  0
    6.8598   17.8920   16.8504 O   0  0  0  0  0  0  0  0  0  0  0  0
    1.1088   16.2769   11.4911 C   0  0  2  0  0  0  0  0  0  0  0  0
    0.3749   17.0556   10.5174 N   0  0  0  0  0  0  0  0  0  0  0  0
    1.8819   17.2320   12.4806 C   0  0  0  0  0  0  0  0  0  0  0  0
    2.6905   16.4106   13.5454 C   0  0  2  0  0  0  0  0  0  0  0  0
    3.3959   17.3301   14.4357 N   0  0  0  0  0  0  0  0  0  0  0  0
    3.7528   15.4286   12.8780 C   0  0  2  0  0  0  0  0  0  0  0  0
    2.9713   14.4693   11.9342 C   0  0  2  0  0  0  0  0  0  0  0  0
    4.0410   13.5734   11.3548 O   0  0  0  0  0  0  0  0  0  0  0  0
    2.1893   15.3241   10.7918 C   0  0  1  0  0  0  0  0  0  0  0  0
    1.3720   14.5273    9.8757 O   0  0  0  0  0  0  0  0  0  0  0  0
    3.4962   12.4679   10.7560 C   0  0  1  0  0  0  0  0  0  0  0  0
    3.6571   11.2452   11.5499 C   0  0  2  0  0  0  0  0  0  0  0  0
    4.9961   10.8736   11.4741 O   0  0  0  0  0  0  0  0  0  0  0  0
    2.5686   10.3417   10.9318 C   0  0  2  0  0  0  0  0  0  0  0  0
    3.2460    9.1889   10.3825 O   0  0  0  0  0  0  0  0  0  0  0  0
    1.9247   11.1825    9.8790 C   0  0  2  0  0  0  0  0  0  0  0  0
    2.0936   12.4826   10.5490 O   0  0  0  0  0  0  0  0  0  0  0  0
    0.3966   10.8467    9.7158 C   0  0  0  0  0  0  0  0  0  0  0  0
   -0.2619   11.6125    8.6627 O   0  0  0  0  0  0  0  0  0  0  0  0
    2.5161    7.9248   10.3976 C   0  0  2  0  0  0  0  0  0  0  0  0
    3.1119    6.9742    9.2334 C   0  0  2  0  0  0  0  0  0  0  0  0
    2.9836    7.6723    7.9132 N   0  0  0  0  0  0  0  0  0  0  0  0
    2.3057    5.5837    9.2593 C   0  0  1  0  0  0  0  0  0  0  0  0
    2.4923    4.9986   10.5839 O   0  0  0  0  0  0  0  0  0  0  0  0
    0.7624    5.8598    8.9657 C   0  0  2  0  0  0  0  0  0  0  0  0
    0.6548    6.4363    7.6070 O   0  0  0  0  0  0  0  0  0  0  0  0
    0.1975    6.8661   10.1190 C   0  0  1  0  0  0  0  0  0  0  0  0
    1.0123    8.1353   10.1266 O   0  0  0  0  0  0  0  0  0  0  0  0
   -1.3134    7.1732    9.8517 C   0  0  0  0  0  0  0  0  0  0  0  0
   -1.8955    8.1295   10.8436 N   0  0  0  0  0  0  0  0  0  0  0  0
  1  3  1  0  0  0  0
  1  2  1  1  0  0  0
  3  4  1  6  0  0  0
  3  5  1  0  0  0  0
  5  6  1  1  0  0  0
  7  8  1  1  0  0  0
  7  5  1  0  0  0  0
  9 11  1  1  0  0  0
  9  7  1  0  0  0  0
 10  9  1  0  0  0  0
 10  1  1  0  0  0  0
 12 11  1  0  0  0  0
 13 14  1  6  0  0  0
 15 13  1  0  0  0  0
 16 17  1  1  0  0  0
 16 15  1  0  0  0  0
 18  2  1  1  0  0  0
 18 19  1  0  0  0  0
 18 16  1  0  0  0  0
 19 20  1  6  0  0  0
 19 21  1  0  0  0  0
 21 22  1  6  0  0  0
 21 13  1  0  0  0  0
 23 20  1  1  0  0  0
 23 29  1  0  0  0  0
 24 25  1  6  0  0  0
 24 26  1  0  0  0  0
 24 23  1  0  0  0  0
 26 27  1  6  0  0  0
 26 28  1  0  0  0  0
 28 30  1  1  0  0  0
 29 28  1  0  0  0  0
 30 31  1  0  0  0  0
 32 27  1  6  0  0  0
 32 40  1  0  0  0  0
 33 35  1  0  0  0  0
 33 32  1  0  0  0  0
 33 34  1  6  0  0  0
 35 36  1  1  0  0  0
 35 37  1  0  0  0  0
 37 38  1  6  0  0  0
 37 39  1  0  0  0  0
 39 41  1  6  0  0  0
 40 39  1  0  0  0  0
 41 42  1  0  0  0  0
M  END
>  <CHROM.1>
-167.10325471,64.93672789,-111.16263977,165.25708989,-104.97419585,148.07219862
-177.91353430,155.83938046,-178.06361055,3.04036661,12.24697737,12.14883036
-1.03500581,0.83058169,-2.93780449

>  <Name>
lig.pdb

>  <RI>
0

>  <Rbt.Current_Directory>
/home/itssahil/PROJECTS/Mol_Feturizer/New_Systems/rnas/4wcr

>  <Rbt.Executable>
rbdock ($Id: //depot/dev/client3/rdock/2013.1/src/exe/rbdock.cxx#4 $)

>  <Rbt.Library>
libRbt.so (2013.1, Build901 2013/11/27)

>  <Rbt.Parameter_File>
/export/apps/rDock/src/rDock_2013.1_src/data/scripts/dock_solv.prm

>  <Rbt.Receptor>
prm/blind_docking_40.prm

>  <SCORE>
4.8038

>  <SCORE.INTER>
-10.4257

>  <SCORE.INTER.CONST>
1

>  <SCORE.INTER.POLAR>
0

>  <SCORE.INTER.ROT>
9

>  <SCORE.INTER.SOLV>
29.0427

>  <SCORE.INTER.VDW>
-26.2314

>  <SCORE.INTER.norm>
-0.248232

>  <SCORE.INTRA>
6.07744

>  <SCORE.INTRA.DIHEDRAL>
5.4501

>  <SCORE.INTRA.DIHEDRAL.0>
16.2863

>  <SCORE.INTRA.POLAR>
0

>  <SCORE.INTRA.POLAR.0>
0

>  <SCORE.INTRA.REPUL>
-0.314433

>  <SCORE.INTRA.REPUL.0>
0.314433

>  <SCORE.INTRA.SOLV>
0.237437

>  <SCORE.INTRA.SOLV.lig_0>
-103.824

>  <SCORE.INTRA.VDW>
4.80583

>  <SCORE.INTRA.VDW.0>
-5.30945

>  <SCORE.INTRA.norm>
0.144701

>  <SCORE.RESTR>
9.1521

>  <SCORE.RESTR.CAVITY>
9.1521

>  <SCORE.RESTR.norm>
0.217907

>  <SCORE.SYSTEM>
0

>  <SCORE.SYSTEM.CONST>
0

>  <SCORE.SYSTEM.DIHEDRAL>
0

>  <SCORE.SYSTEM.SOLV>
0

>  <SCORE.SYSTEM.norm>
0

>  <SCORE.heavy>
42

>  <SCORE.norm>
0.114376

>  <RMSD>
25.673

$$$$
lig.pdb
 OpenBabel11021811513D
libRbt.so/2013.1/901 2013/11/27
 42 45  0  0  0  0  0  0  0  0999 V2000
    5.8856   14.6820   13.8447 C   0  0  2  0  0  0  0  0  0  0  0  0
    4.4427   14.7839   14.0569 O   0  0  0  0  0  0  0  0  0  0  0  0
    6.3446   13.3342   14.5607 C   0  0  2  0  0  0  0  0  0  0  0  0
    5.6893   12.1796   13.9400 N   0  0  0  0  0  0  0  0  0  0  0  0
    6.0191   13.4457   16.1296 C   0  0  1  0  0  0  0  0  0  0  0  0
    6.4259   12.2524   16.8319 O   0  0  0  0  0  0  0  0  0  0  0  0
    6.7511   14.6911   16.6582 C   0  0  2  0  0  0  0  0  0  0  0  0
    6.4904   14.8205   18.0143 O   0  0  0  0  0  0  0  0  0  0  0  0
    6.2677   15.9859   15.8592 C   0  0  2  0  0  0  0  0  0  0  0  0
    6.5333   15.8609   14.4565 O   0  0  0  0  0  0  0  0  0  0  0  0
    6.9685   17.2304   16.3256 C   0  0  0  0  0  0  0  0  0  0  0  0
    8.3615   16.9313   16.4231 O   0  0  0  0  0  0  0  0  0  0  0  0
    0.7515   15.9273   11.8569 C   0  0  2  0  0  0  0  0  0  0  0  0
   -0.1522   16.6331   10.9747 N   0  0  0  0  0  0  0  0  0  0  0  0
    1.3960   16.9295   12.8908 C   0  0  0  0  0  0  0  0  0  0  0  0
    2.3850   16.1883   13.8577 C   0  0  2  0  0  0  0  0  0  0  0  0
    2.9643   17.1510   14.7924 N   0  0  0  0  0  0  0  0  0  0  0  0
    3.5666   15.4583   13.0772 C   0  0  2  0  0  0  0  0  0  0  0  0
    2.9167   14.4471   12.0888 C   0  0  2  0  0  0  0  0  0  0  0  0
    4.0951   13.7966   11.4025 O   0  0  0  0  0  0  0  0  0  0  0  0
    1.9444   15.2314   11.0463 C   0  0  1  0  0  0  0  0  0  0  0  0
    1.2327   14.3715   10.0996 O   0  0  0  0  0  0  0  0  0  0  0  0
    4.0215   12.4302   11.4717 C   0  0  1  0  0  0  0  0  0  0  0  0
    3.1189   11.8510   10.4712 C   0  0  2  0  0  0  0  0  0  0  0  0
    1.8171   12.1411   10.8685 O   0  0  0  0  0  0  0  0  0  0  0  0
    3.6084   10.3872   10.4384 C   0  0  2  0  0  0  0  0  0  0  0  0
    2.4903    9.5645   10.8416 O   0  0  0  0  0  0  0  0  0  0  0  0
    4.7365   10.3382   11.4154 C   0  0  2  0  0  0  0  0  0  0  0  0
    5.2183   11.7148   11.2139 O   0  0  0  0  0  0  0  0  0  0  0  0
    5.8405    9.3045   10.9827 C   0  0  0  0  0  0  0  0  0  0  0  0
    5.3205    7.9655   10.7262 O   0  0  0  0  0  0  0  0  0  0  0  0
    2.0363    8.5549    9.8899 C   0  0  2  0  0  0  0  0  0  0  0  0
    0.9463    9.2310    8.9055 C   0  0  2  0  0  0  0  0  0  0  0  0
   -0.1878    9.7715    9.7230 N   0  0  0  0  0  0  0  0  0  0  0  0
    0.4546    8.1144    7.8590 C   0  0  1  0  0  0  0  0  0  0  0  0
    1.6325    7.6558    7.1283 O   0  0  0  0  0  0  0  0  0  0  0  0
   -0.2343    6.9126    8.6500 C   0  0  2  0  0  0  0  0  0  0  0  0
   -1.4218    7.4515    9.3498 O   0  0  0  0  0  0  0  0  0  0  0  0
    0.8658    6.2836    9.6776 C   0  0  1  0  0  0  0  0  0  0  0  0
    1.3676    7.3625   10.6043 O   0  0  0  0  0  0  0  0  0  0  0  0
    0.2173    5.1104   10.4848 C   0  0  0  0  0  0  0  0  0  0  0  0
    0.2013    3.8223    9.7247 N   0  0  0  0  0  0  0  0  0  0  0  0
  1  3  1  0  0  0  0
  1  2  1  1  0  0  0
  3  4  1  6  0  0  0
  3  5  1  0  0  0  0
  5  6  1  1  0  0  0
  7  8  1  1  0  0  0
  7  5  1  0  0  0  0
  9 11  1  1  0  0  0
  9  7  1  0  0  0  0
 10  9  1  0  0  0  0
 10  1  1  0  0  0  0
 12 11  1  0  0  0  0
 13 14  1  6  0  0  0
 15 13  1  0  0  0  0
 16 17  1  1  0  0  0
 16 15  1  0  0  0  0
 18  2  1  1  0  0  0
 18 19  1  0  0  0  0
 18 16  1  0  0  0  0
 19 20  1  6  0  0  0
 19 21  1  0  0  0  0
 21 22  1  6  0  0  0
 21 13  1  0  0  0  0
 23 20  1  6  0  0  0
 23 29  1  0  0  0  0
 24 25  1  1  0  0  0
 24 26  1  0  0  0  0
 24 23  1  0  0  0  0
 26 27  1  1  0  0  0
 26 28  1  0  0  0  0
 28 30  1  6  0  0  0
 29 28  1  0  0  0  0
 30 31  1  0  0  0  0
 32 27  1  1  0  0  0
 32 40  1  0  0  0  0
 33 35  1  0  0  0  0
 33 32  1  0  0  0  0
 33 34  1  1  0  0  0
 35 36  1  1  0  0  0
 35 37  1  0  0  0  0
 37 38  1  1  0  0  0
 37 39  1  0  0  0  0
 39 41  1  1  0  0  0
 40 39  1  0  0  0  0
 41 42  1  0  0  0  0
M  END
>  <CHROM.1>
-149.98885972,46.06500051,-145.58391390,127.49888341,80.38126638,121.05475240
-53.70607960,-87.97142689,81.72413497,3.34370449,12.08729411,12.14549857
-1.01267902,0.65293225,-2.88093310

>  <Name>
lig.pdb

>  <RI>
0

>  <Rbt.Current_Directory>
/home/itssahil/PROJECTS/Mol_Feturizer/New_Systems/rnas/4wcr

>  <Rbt.Executable>
rbdock ($Id: //depot/dev/client3/rdock/2013.1/src/exe/rbdock.cxx#4 $)

>  <Rbt.Library>
libRbt.so (2013.1, Build901 2013/11/27)

>  <Rbt.Parameter_File>
/export/apps/rDock/src/rDock_2013.1_src/data/scripts/dock_solv.prm

>  <Rbt.Receptor>
prm/blind_docking_40.prm

>  <SCORE>
1.96453

>  <SCORE.INTER>
-15.9203

>  <SCORE.INTER.CONST>
1

>  <SCORE.INTER.POLAR>
0

>  <SCORE.INTER.ROT>
9

>  <SCORE.INTER.SOLV>
28.0831

>  <SCORE.INTER.VDW>
-29.5746

>  <SCORE.INTER.norm>
-0.379055

>  <SCORE.INTRA>
6.57466

>  <SCORE.INTRA.DIHEDRAL>
13.5458

>  <SCORE.INTRA.DIHEDRAL.0>
16.2863

>  <SCORE.INTRA.POLAR>
0

>  <SCORE.INTRA.POLAR.0>
0

>  <SCORE.INTRA.REPUL>
-0.314433

>  <SCORE.INTRA.REPUL.0>
0.314433

>  <SCORE.INTRA.SOLV>
1.04109

>  <SCORE.INTRA.SOLV.lig_0>
-103.824

>  <SCORE.INTRA.VDW>
0.85337

>  <SCORE.INTRA.VDW.0>
-5.30945

>  <SCORE.INTRA.norm>
0.15654

>  <SCORE.RESTR>
11.3102

>  <SCORE.RESTR.CAVITY>
11.3102

>  <SCORE.RESTR.norm>
0.26929

>  <SCORE.SYSTEM>
0

>  <SCORE.SYSTEM.CONST>
0

>  <SCORE.SYSTEM.DIHEDRAL>
0

>  <SCORE.SYSTEM.SOLV>
0

>  <SCORE.SYSTEM.norm>
0

>  <SCORE.heavy>
42

>  <SCORE.norm>
0.0467744

>  <RMSD>
25.709

$$$$
lig.pdb
 OpenBabel11021811513D
libRbt.so/2013.1/901 2013/11/27
 42 45  0  0  0  0  0  0  0  0999 V2000
    3.9093   14.9618   14.5337 C   0  0  2  0  0  0  0  0  0  0  0  0
    4.1222   15.9813   13.5077 O   0  0  0  0  0  0  0  0  0  0  0  0
    4.7054   15.4572   15.8224 C   0  0  2  0  0  0  0  0  0  0  0  0
    4.1612   16.7321   16.2978 N   0  0  0  0  0  0  0  0  0  0  0  0
    6.2660   15.5620   15.4571 C   0  0  1  0  0  0  0  0  0  0  0  0
    7.0391   15.9972   16.5954 O   0  0  0  0  0  0  0  0  0  0  0  0
    6.7122   14.1739   14.9668 C   0  0  2  0  0  0  0  0  0  0  0  0
    8.0589   14.2274   14.6396 O   0  0  0  0  0  0  0  0  0  0  0  0
    5.8367   13.7352   13.7061 C   0  0  2  0  0  0  0  0  0  0  0  0
    4.4432   13.6772   14.0353 O   0  0  0  0  0  0  0  0  0  0  0  0
    6.2210   12.3742   13.1989 C   0  0  0  0  0  0  0  0  0  0  0  0
    6.0745   11.4527   14.2802 O   0  0  0  0  0  0  0  0  0  0  0  0
   -0.0653   17.0803   12.4929 C   0  0  2  0  0  0  0  0  0  0  0  0
   -1.1954   17.7520   11.8892 N   0  0  0  0  0  0  0  0  0  0  0  0
    0.8759   18.1292   13.2020 C   0  0  0  0  0  0  0  0  0  0  0  0
    2.1134   17.4253   13.8620 C   0  0  2  0  0  0  0  0  0  0  0  0
    2.9613   18.4302   14.5001 N   0  0  0  0  0  0  0  0  0  0  0  0
    2.9875   16.6147   12.8051 C   0  0  2  0  0  0  0  0  0  0  0  0
    2.0555   15.5599   12.1415 C   0  0  2  0  0  0  0  0  0  0  0  0
    2.9564   14.8346   11.1694 O   0  0  0  0  0  0  0  0  0  0  0  0
    0.8104   16.3014   11.4017 C   0  0  1  0  0  0  0  0  0  0  0  0
   -0.1665   15.4019   10.7863 O   0  0  0  0  0  0  0  0  0  0  0  0
    2.7805   13.4778   11.2423 C   0  0  1  0  0  0  0  0  0  0  0  0
    2.0917   12.9230   10.0723 C   0  0  2  0  0  0  0  0  0  0  0  0
    0.7554   13.3023   10.1583 O   0  0  0  0  0  0  0  0  0  0  0  0
    2.4797   11.4324   10.1755 C   0  0  2  0  0  0  0  0  0  0  0  0
    1.2483   10.6905   10.3271 O   0  0  0  0  0  0  0  0  0  0  0  0
    3.3523   11.3461   11.3841 C   0  0  2  0  0  0  0  0  0  0  0  0
    3.9555   12.6848   11.2751 O   0  0  0  0  0  0  0  0  0  0  0  0
    4.4559   10.2357   11.2307 C   0  0  0  0  0  0  0  0  0  0  0  0
    3.9143    8.8958   11.0295 O   0  0  0  0  0  0  0  0  0  0  0  0
    0.9682    9.6646    9.3271 C   0  0  2  0  0  0  0  0  0  0  0  0
   -0.6341    9.5534    9.1410 C   0  0  2  0  0  0  0  0  0  0  0  0
   -1.2620    9.2256   10.4619 N   0  0  0  0  0  0  0  0  0  0  0  0
   -0.9337    8.4249    8.0361 C   0  0  1  0  0  0  0  0  0  0  0  0
   -0.2733    8.8399    6.8019 O   0  0  0  0  0  0  0  0  0  0  0  0
   -0.3710    7.0217    8.5447 C   0  0  2  0  0  0  0  0  0  0  0  0
   -1.0954    6.6647    9.7849 O   0  0  0  0  0  0  0  0  0  0  0  0
    1.2363    7.1739    8.7806 C   0  0  1  0  0  0  0  0  0  0  0  0
    1.5002    8.2849    9.7659 O   0  0  0  0  0  0  0  0  0  0  0  0
    1.8202    5.8174    9.2980 C   0  0  0  0  0  0  0  0  0  0  0  0
    3.1986    5.9565    9.8618 N   0  0  0  0  0  0  0  0  0  0  0  0
  1  3  1  0  0  0  0
  1  2  1  6  0  0  0
  3  4  1  6  0  0  0
  3  5  1  0  0  0  0
  5  6  1  1  0  0  0
  7  8  1  6  0  0  0
  7  5  1  0  0  0  0
  9 11  1  1  0  0  0
  9  7  1  0  0  0  0
 10  9  1  0  0  0  0
 10  1  1  0  0  0  0
 12 11  1  0  0  0  0
 13 14  1  6  0  0  0
 15 13  1  0  0  0  0
 16 17  1  6  0  0  0
 16 15  1  0  0  0  0
 18  2  1  1  0  0  0
 18 19  1  0  0  0  0
 18 16  1  0  0  0  0
 19 20  1  6  0  0  0
 19 21  1  0  0  0  0
 21 22  1  1  0  0  0
 21 13  1  0  0  0  0
 23 20  1  6  0  0  0
 23 29  1  0  0  0  0
 24 25  1  1  0  0  0
 24 26  1  0  0  0  0
 24 23  1  0  0  0  0
 26 27  1  1  0  0  0
 26 28  1  0  0  0  0
 28 30  1  6  0  0  0
 29 28  1  0  0  0  0
 30 31  1  0  0  0  0
 32 27  1  1  0  0  0
 32 40  1  0  0  0  0
 33 35  1  0  0  0  0
 33 32  1  0  0  0  0
 33 34  1  1  0  0  0
 35 36  1  6  0  0  0
 35 37  1  0  0  0  0
 37 38  1  1  0  0  0
 37 39  1  0  0  0  0
 39 41  1  1  0  0  0
 40 39  1  0  0  0  0
 41 42  1  0  0  0  0
M  END
>  <CHROM.1>
-126.71536580,57.25127747,63.57134683,134.84263438,108.49363233,122.12350693
-60.04079161,-148.84958262,-165.57595962,2.64608014,12.66788522,11.85303804
-1.15244379,0.52611262,-2.78178111

>  <Name>
lig.pdb

>  <RI>
0

>  <Rbt.Current_Directory>
/home/itssahil/PROJECTS/Mol_Feturizer/New_Systems/rnas/4wcr

>  <Rbt.Executable>
rbdock ($Id: //depot/dev/client3/rdock/2013.1/src/exe/rbdock.cxx#4 $)

>  <Rbt.Library>
libRbt.so (2013.1, Build901 2013/11/27)

>  <Rbt.Parameter_File>
/export/apps/rDock/src/rDock_2013.1_src/data/scripts/dock_solv.prm

>  <Rbt.Receptor>
prm/blind_docking_80.prm

>  <SCORE>
-2.32592

>  <SCORE.INTER>
-15.679

>  <SCORE.INTER.CONST>
1

>  <SCORE.INTER.POLAR>
0

>  <SCORE.INTER.ROT>
9

>  <SCORE.INTER.SOLV>
27.2193

>  <SCORE.INTER.VDW>
-29.1258

>  <SCORE.INTER.norm>
-0.373309

>  <SCORE.INTRA>
7.06196

>  <SCORE.INTRA.DIHEDRAL>
15.5121

>  <SCORE.INTRA.DIHEDRAL.0>
16.2863

>  <SCORE.INTRA.POLAR>
0

>  <SCORE.INTRA.POLAR.0>
0

>  <SCORE.INTRA.REPUL>
-0.184358

>  <SCORE.INTRA.REPUL.0>
0.314433

>  <SCORE.INTRA.SOLV>
0.729278

>  <SCORE.INTRA.SOLV.lig_0>
-103.824

>  <SCORE.INTRA.VDW>
-0.136966

>  <SCORE.INTRA.VDW.0>
-5.30945

>  <SCORE.INTRA.norm>
0.168142

>  <SCORE.RESTR>
6.29111

>  <SCORE.RESTR.CAVITY>
6.29111

>  <SCORE.RESTR.norm>
0.149788

>  <SCORE.SYSTEM>
0

>  <SCORE.SYSTEM.CONST>
0

>  <SCORE.SYSTEM.DIHEDRAL>
0

>  <SCORE.SYSTEM.SOLV>
0

>  <SCORE.SYSTEM.norm>
0

>  <SCORE.heavy>
42

>  <SCORE.norm>
-0.0553791

>  <RMSD>
25.796

$$$$
lig.pdb
 OpenBabel11021811513D
libRbt.so/2013.1/901 2013/11/27
 42 45  0  0  0  0  0  0  0  0999 V2000
    2.2097   16.3692   13.8351 C   0  0  2  0  0  0  0  0  0  0  0  0
    3.4947   15.8275   13.3964 O   0  0  0  0  0  0  0  0  0  0  0  0
    1.6358   17.2015   12.6031 C   0  0  2  0  0  0  0  0  0  0  0  0
    1.4136   16.3205   11.4532 N   0  0  0  0  0  0  0  0  0  0  0  0
    2.6567   18.3946   12.2651 C   0  0  1  0  0  0  0  0  0  0  0  0
    2.1796   19.1908   11.1601 O   0  0  0  0  0  0  0  0  0  0  0  0
    2.8119   19.2357   13.5437 C   0  0  2  0  0  0  0  0  0  0  0  0
    3.6910   20.2778   13.2889 O   0  0  0  0  0  0  0  0  0  0  0  0
    3.3460   18.3187   14.7363 C   0  0  2  0  0  0  0  0  0  0  0  0
    2.4435   17.2389   15.0067 O   0  0  0  0  0  0  0  0  0  0  0  0
    3.4972   19.0903   16.0166 C   0  0  0  0  0  0  0  0  0  0  0  0
    4.1369   18.2344   16.9642 O   0  0  0  0  0  0  0  0  0  0  0  0
    6.2139   12.5002   14.5397 C   0  0  2  0  0  0  0  0  0  0  0  0
    6.6796   11.2181   15.0217 N   0  0  0  0  0  0  0  0  0  0  0  0
    5.3221   13.2021   15.6355 C   0  0  0  0  0  0  0  0  0  0  0  0
    4.8001   14.5947   15.1348 C   0  0  2  0  0  0  0  0  0  0  0  0
    3.9746   15.2068   16.1738 N   0  0  0  0  0  0  0  0  0  0  0  0
    3.9388   14.4775   13.7996 C   0  0  2  0  0  0  0  0  0  0  0  0
    4.8433   13.8182   12.7185 C   0  0  2  0  0  0  0  0  0  0  0  0
    3.9620   13.7538   11.4930 O   0  0  0  0  0  0  0  0  0  0  0  0
    5.3260   12.3462   13.2160 C   0  0  1  0  0  0  0  0  0  0  0  0
    6.2308   11.6507   12.2996 O   0  0  0  0  0  0  0  0  0  0  0  0
    3.4226   12.5048   11.3307 C   0  0  1  0  0  0  0  0  0  0  0  0
    2.3568   12.4644   10.3240 C   0  0  2  0  0  0  0  0  0  0  0  0
    1.2429   13.0929   10.8725 O   0  0  0  0  0  0  0  0  0  0  0  0
    2.3102   10.9562    9.9978 C   0  0  2  0  0  0  0  0  0  0  0  0
    0.9846   10.4954   10.3444 O   0  0  0  0  0  0  0  0  0  0  0  0
    3.3703   10.3458   10.8541 C   0  0  2  0  0  0  0  0  0  0  0  0
    4.2937   11.4925   10.8542 O   0  0  0  0  0  0  0  0  0  0  0  0
    4.0412    9.1046   10.1586 C   0  0  0  0  0  0  0  0  0  0  0  0
    4.4656    8.0680   11.0938 O   0  0  0  0  0  0  0  0  0  0  0  0
    0.5891    9.1833    9.8414 C   0  0  2  0  0  0  0  0  0  0  0  0
    0.1374    9.3406    8.2970 C   0  0  2  0  0  0  0  0  0  0  0  0
   -0.9863   10.3288    8.2104 N   0  0  0  0  0  0  0  0  0  0  0  0
   -0.2927    7.8915    7.7500 C   0  0  1  0  0  0  0  0  0  0  0  0
    0.8661    7.0142    7.8880 O   0  0  0  0  0  0  0  0  0  0  0  0
   -1.5284    7.3487    8.6002 C   0  0  2  0  0  0  0  0  0  0  0  0
   -2.6617    8.2789    8.3986 O   0  0  0  0  0  0  0  0  0  0  0  0
   -1.0677    7.2530   10.1624 C   0  0  1  0  0  0  0  0  0  0  0  0
   -0.6004    8.6065   10.6361 O   0  0  0  0  0  0  0  0  0  0  0  0
   -2.2640    6.7392   11.0305 C   0  0  0  0  0  0  0  0  0  0  0  0
   -3.2919    7.7955   11.2850 N   0  0  0  0  0  0  0  0  0  0  0  0
  1  3  1  0  0  0  0
  1  2  1  6  0  0  0
  3  4  1  6  0  0  0
  3  5  1  0  0  0  0
  5  6  1  6  0  0  0
  7  8  1  6  0  0  0
  7  5  1  0  0  0  0
  9 11  1  1  0  0  0
  9  7  1  0  0  0  0
 10  9  1  0  0  0  0
 10  1  1  0  0  0  0
 12 11  1  0  0  0  0
 13 14  1  1  0  0  0
 15 13  1  0  0  0  0
 16 17  1  1  0  0  0
 16 15  1  0  0  0  0
 18  2  1  6  0  0  0
 18 19  1  0  0  0  0
 18 16  1  0  0  0  0
 19 20  1  6  0  0  0
 19 21  1  0  0  0  0
 21 22  1  6  0  0  0
 21 13  1  0  0  0  0
 23 20  1  6  0  0  0
 23 29  1  0  0  0  0
 24 25  1  1  0  0  0
 24 26  1  0  0  0  0
 24 23  1  0  0  0  0
 26 27  1  1  0  0  0
 26 28  1  0  0  0  0
 28 30  1  6  0  0  0
 29 28  1  0  0  0  0
 30 31  1  0  0  0  0
 32 27  1  1  0  0  0
 32 40  1  0  0  0  0
 33 35  1  0  0  0  0
 33 32  1  0  0  0  0
 33 34  1  1  0  0  0
 35 36  1  1  0  0  0
 35 37  1  0  0  0  0
 37 38  1  1  0  0  0
 37 39  1  0  0  0  0
 39 41  1  1  0  0  0
 40 39  1  0  0  0  0
 41 42  1  0  0  0  0
M  END
>  <CHROM.1>
-142.63679549,-172.65798697,-91.96374251,-99.63910244,168.32688159,166.01260639
-147.26034210,-79.96342546,-76.52786984,2.38717383,12.79170937,11.95170948
1.15193073,-0.51597319,0.27546034

>  <Name>
lig.pdb

>  <RI>
0

>  <Rbt.Current_Directory>
/home/itssahil/PROJECTS/Mol_Feturizer/New_Systems/rnas/4wcr

>  <Rbt.Executable>
rbdock ($Id: //depot/dev/client3/rdock/2013.1/src/exe/rbdock.cxx#4 $)

>  <Rbt.Library>
libRbt.so (2013.1, Build901 2013/11/27)

>  <Rbt.Parameter_File>
/export/apps/rDock/src/rDock_2013.1_src/data/scripts/dock_solv.prm

>  <Rbt.Receptor>
prm/blind_docking_40.prm

>  <SCORE>
6.84484

>  <SCORE.INTER>
-7.85772

>  <SCORE.INTER.CONST>
1

>  <SCORE.INTER.POLAR>
0

>  <SCORE.INTER.ROT>
9

>  <SCORE.INTER.SOLV>
23.7298

>  <SCORE.INTER.VDW>
-22.7484

>  <SCORE.INTER.norm>
-0.187089

>  <SCORE.INTRA>
4.91806

>  <SCORE.INTRA.DIHEDRAL>
5.47407

>  <SCORE.INTRA.DIHEDRAL.0>
16.2863

>  <SCORE.INTRA.POLAR>
0

>  <SCORE.INTRA.POLAR.0>
0

>  <SCORE.INTRA.REPUL>
-0.314433

>  <SCORE.INTRA.REPUL.0>
0.314433

>  <SCORE.INTRA.SOLV>
0.786629

>  <SCORE.INTRA.SOLV.lig_0>
-103.824

>  <SCORE.INTRA.VDW>
3.35988

>  <SCORE.INTRA.VDW.0>
-5.30945

>  <SCORE.INTRA.norm>
0.117097

>  <SCORE.RESTR>
9.7845

>  <SCORE.RESTR.CAVITY>
9.7845

>  <SCORE.RESTR.norm>
0.232964

>  <SCORE.SYSTEM>
0

>  <SCORE.SYSTEM.CONST>
0

>  <SCORE.SYSTEM.DIHEDRAL>
0

>  <SCORE.SYSTEM.SOLV>
0

>  <SCORE.SYSTEM.norm>
0

>  <SCORE.heavy>
42

>  <SCORE.norm>
0.162972

>  <RMSD>
25.818

$$$$
lig.pdb
 OpenBabel11021811513D
libRbt.so/2013.1/901 2013/11/27
 42 45  0  0  0  0  0  0  0  0999 V2000
    5.6866   14.4208   13.2199 C   0  0  2  0  0  0  0  0  0  0  0  0
    4.2451   14.3395   13.4492 O   0  0  0  0  0  0  0  0  0  0  0  0
    6.2899   13.0234   13.6924 C   0  0  2  0  0  0  0  0  0  0  0  0
    5.7399   11.9321   12.8835 N   0  0  0  0  0  0  0  0  0  0  0  0
    5.9851   12.8317   15.2577 C   0  0  1  0  0  0  0  0  0  0  0  0
    6.5209   11.5829   15.7435 O   0  0  0  0  0  0  0  0  0  0  0  0
    6.6007   14.0355   15.9913 C   0  0  2  0  0  0  0  0  0  0  0  0
    6.3545   13.9043   17.3500 O   0  0  0  0  0  0  0  0  0  0  0  0
    5.9768   15.3927   15.4280 C   0  0  2  0  0  0  0  0  0  0  0  0
    6.2265   15.5367   14.0242 O   0  0  0  0  0  0  0  0  0  0  0  0
    6.5602   16.6031   16.1002 C   0  0  0  0  0  0  0  0  0  0  0  0
    7.9814   16.5170   15.9879 O   0  0  0  0  0  0  0  0  0  0  0  0
    0.4226   16.3205   12.3372 C   0  0  2  0  0  0  0  0  0  0  0  0
   -0.5144   17.2575   11.7566 N   0  0  0  0  0  0  0  0  0  0  0  0
    1.4793   17.0863   13.2236 C   0  0  0  0  0  0  0  0  0  0  0  0
    2.5111   16.0913   13.8621 C   0  0  2  0  0  0  0  0  0  0  0  0
    3.4741   16.8398   14.6673 N   0  0  0  0  0  0  0  0  0  0  0  0
    3.3046   15.2509   12.7656 C   0  0  2  0  0  0  0  0  0  0  0  0
    2.2521   14.4725   11.9241 C   0  0  2  0  0  0  0  0  0  0  0  0
    3.0807   13.7010   10.9237 O   0  0  0  0  0  0  0  0  0  0  0  0
    1.2261   15.5145   11.2107 C   0  0  1  0  0  0  0  0  0  0  0  0
    0.1541   14.8909   10.4335 O   0  0  0  0  0  0  0  0  0  0  0  0
    2.7577   12.3695   10.9287 C   0  0  1  0  0  0  0  0  0  0  0  0
    2.0080   11.9546    9.7383 C   0  0  2  0  0  0  0  0  0  0  0  0
    0.7216   12.4723    9.8560 O   0  0  0  0  0  0  0  0  0  0  0  0
    2.2310   10.4272    9.7615 C   0  0  2  0  0  0  0  0  0  0  0  0
    0.9264    9.8172    9.8864 O   0  0  0  0  0  0  0  0  0  0  0  0
    3.0933   10.1837   10.9560 C   0  0  2  0  0  0  0  0  0  0  0  0
    3.8389   11.4524   10.9100 O   0  0  0  0  0  0  0  0  0  0  0  0
    4.0682    8.9690   10.7358 C   0  0  0  0  0  0  0  0  0  0  0  0
    4.8596    9.0676    9.5138 O   0  0  0  0  0  0  0  0  0  0  0  0
    0.7519    8.5013    9.2789 C   0  0  2  0  0  0  0  0  0  0  0  0
   -0.8036    8.0792    9.4069 C   0  0  2  0  0  0  0  0  0  0  0  0
   -1.1965    8.0781   10.8534 N   0  0  0  0  0  0  0  0  0  0  0  0
   -0.9878    6.6316    8.7326 C   0  0  1  0  0  0  0  0  0  0  0  0
   -0.5714    6.7465    7.3380 O   0  0  0  0  0  0  0  0  0  0  0  0
   -0.0940    5.5654    9.5128 C   0  0  2  0  0  0  0  0  0  0  0  0
   -0.5839    5.4962   10.9076 O   0  0  0  0  0  0  0  0  0  0  0  0
    1.4635    6.0420    9.4194 C   0  0  1  0  0  0  0  0  0  0  0  0
    1.6030    7.4305    9.9917 O   0  0  0  0  0  0  0  0  0  0  0  0
    2.3692    5.0257   10.1910 C   0  0  0  0  0  0  0  0  0  0  0  0
    2.5952    3.7571    9.4315 N   0  0  0  0  0  0  0  0  0  0  0  0
  1  3  1  0  0  0  0
  1  2  1  1  0  0  0
  3  4  1  6  0  0  0
  3  5  1  0  0  0  0
  5  6  1  1  0  0  0
  7  8  1  1  0  0  0
  7  5  1  0  0  0  0
  9 11  1  1  0  0  0
  9  7  1  0  0  0  0
 10  9  1  0  0  0  0
 10  1  1  0  0  0  0
 12 11  1  0  0  0  0
 13 14  1  6  0  0  0
 15 13  1  0  0  0  0
 16 17  1  6  0  0  0
 16 15  1  0  0  0  0
 18  2  1  1  0  0  0
 18 19  1  0  0  0  0
 18 16  1  0  0  0  0
 19 20  1  6  0  0  0
 19 21  1  0  0  0  0
 21 22  1  6  0  0  0
 21 13  1  0  0  0  0
 23 20  1  6  0  0  0
 23 29  1  0  0  0  0
 24 25  1  1  0  0  0
 24 26  1  0  0  0  0
 24 23  1  0  0  0  0
 26 27  1  1  0  0  0
 26 28  1  0  0  0  0
 28 30  1  6  0  0  0
 29 28  1  0  0  0  0
 30 31  1  0  0  0  0
 32 27  1  1  0  0  0
 32 40  1  0  0  0  0
 33 35  1  0  0  0  0
 33 32  1  0  0  0  0
 33 34  1  1  0  0  0
 35 36  1  6  0  0  0
 35 37  1  0  0  0  0
 37 38  1  1  0  0  0
 37 39  1  0  0  0  0
 39 41  1  1  0  0  0
 40 39  1  0  0  0  0
 41 42  1  0  0  0  0
M  END
>  <CHROM.1>
-160.78619505,53.46321135,-119.76313550,127.91261546,107.56659506,149.77568874
52.55735745,-174.38595822,76.39810644,2.89534257,11.78799336,11.89846661
-1.07430518,0.58413753,-2.88911466

>  <Name>
lig.pdb

>  <RI>
0

>  <Rbt.Current_Directory>
/home/itssahil/PROJECTS/Mol_Feturizer/New_Systems/rnas/4wcr

>  <Rbt.Executable>
rbdock ($Id: //depot/dev/client3/rdock/2013.1/src/exe/rbdock.cxx#4 $)

>  <Rbt.Library>
libRbt.so (2013.1, Build901 2013/11/27)

>  <Rbt.Parameter_File>
/export/apps/rDock/src/rDock_2013.1_src/data/scripts/dock_solv.prm

>  <Rbt.Receptor>
prm/blind_docking_40.prm

>  <SCORE>
-0.383998

>  <SCORE.INTER>
-15.8343

>  <SCORE.INTER.CONST>
1

>  <SCORE.INTER.POLAR>
0

>  <SCORE.INTER.ROT>
9

>  <SCORE.INTER.SOLV>
33.6531

>  <SCORE.INTER.VDW>
-31.3739

>  <SCORE.INTER.norm>
-0.377006

>  <SCORE.INTRA>
5.52611

>  <SCORE.INTRA.DIHEDRAL>
11.3725

>  <SCORE.INTRA.DIHEDRAL.0>
16.2863

>  <SCORE.INTRA.POLAR>
0

>  <SCORE.INTRA.POLAR.0>
0

>  <SCORE.INTRA.REPUL>
-0.0182906

>  <SCORE.INTRA.REPUL.0>
0.314433

>  <SCORE.INTRA.SOLV>
0.441843

>  <SCORE.INTRA.SOLV.lig_0>
-103.824

>  <SCORE.INTRA.VDW>
-0.289585

>  <SCORE.INTRA.VDW.0>
-5.30945

>  <SCORE.INTRA.norm>
0.131574

>  <SCORE.RESTR>
9.92415

>  <SCORE.RESTR.CAVITY>
9.92415

>  <SCORE.RESTR.norm>
0.236289

>  <SCORE.SYSTEM>
0

>  <SCORE.SYSTEM.CONST>
0

>  <SCORE.SYSTEM.DIHEDRAL>
0

>  <SCORE.SYSTEM.SOLV>
0

>  <SCORE.SYSTEM.norm>
0

>  <SCORE.heavy>
42

>  <SCORE.norm>
-0.0091428

>  <RMSD>
25.818

$$$$
lig.pdb
 OpenBabel11021811513D
libRbt.so/2013.1/901 2013/11/27
 42 45  0  0  0  0  0  0  0  0999 V2000
    6.2351   14.5719   13.8988 C   0  0  2  0  0  0  0  0  0  0  0  0
    4.8057   14.7723   14.1309 O   0  0  0  0  0  0  0  0  0  0  0  0
    6.6301   13.2444   14.6872 C   0  0  2  0  0  0  0  0  0  0  0  0
    5.8949   12.0959   14.1504 N   0  0  0  0  0  0  0  0  0  0  0  0
    6.3463   13.4689   16.2521 C   0  0  1  0  0  0  0  0  0  0  0  0
    6.6979   12.2977   17.0184 O   0  0  0  0  0  0  0  0  0  0  0  0
    7.1613   14.6979   16.6900 C   0  0  2  0  0  0  0  0  0  0  0  0
    6.9385   14.9236   18.0402 O   0  0  0  0  0  0  0  0  0  0  0  0
    6.7371   15.9690   15.8224 C   0  0  2  0  0  0  0  0  0  0  0  0
    6.9640   15.7446   14.4254 O   0  0  0  0  0  0  0  0  0  0  0  0
    7.5195   17.1951   16.1989 C   0  0  0  0  0  0  0  0  0  0  0  0
    7.1316   17.5660   17.5224 O   0  0  0  0  0  0  0  0  0  0  0  0
    1.4216   17.4156   12.9760 C   0  0  2  0  0  0  0  0  0  0  0  0
    0.6851   18.5449   12.4513 N   0  0  0  0  0  0  0  0  0  0  0  0
    2.4723   17.9019   14.0477 C   0  0  0  0  0  0  0  0  0  0  0  0
    3.2885   16.6946   14.6298 C   0  0  2  0  0  0  0  0  0  0  0  0
    4.2530   17.1877   15.6109 N   0  0  0  0  0  0  0  0  0  0  0  0
    4.0731   15.8897   13.5007 C   0  0  2  0  0  0  0  0  0  0  0  0
    3.0201   15.3850   12.4720 C   0  0  2  0  0  0  0  0  0  0  0  0
    3.8384   14.6306   11.4502 O   0  0  0  0  0  0  0  0  0  0  0  0
    2.2239   16.6468   11.8230 C   0  0  1  0  0  0  0  0  0  0  0  0
    1.1657   16.2888   10.8773 O   0  0  0  0  0  0  0  0  0  0  0  0
    3.0838   13.6871   10.8039 C   0  0  1  0  0  0  0  0  0  0  0  0
    3.1125   12.3770   11.4628 C   0  0  2  0  0  0  0  0  0  0  0  0
    4.3674   11.8223   11.2303 O   0  0  0  0  0  0  0  0  0  0  0  0
    1.8524   11.7143   10.8660 C   0  0  2  0  0  0  0  0  0  0  0  0
    2.2978   10.5388   10.1522 O   0  0  0  0  0  0  0  0  0  0  0  0
    1.2687   12.7473    9.9594 C   0  0  2  0  0  0  0  0  0  0  0  0
    1.6889   13.9302   10.7288 O   0  0  0  0  0  0  0  0  0  0  0  0
   -0.3010   12.6596    9.9067 C   0  0  0  0  0  0  0  0  0  0  0  0
   -0.7994   11.3892    9.3903 O   0  0  0  0  0  0  0  0  0  0  0  0
    1.2862    9.5342    9.8383 C   0  0  2  0  0  0  0  0  0  0  0  0
    1.9702    8.0719    9.9279 C   0  0  2  0  0  0  0  0  0  0  0  0
    3.1268    8.0097    8.9766 N   0  0  0  0  0  0  0  0  0  0  0  0
    0.8494    6.9719    9.5847 C   0  0  1  0  0  0  0  0  0  0  0  0
   -0.2247    7.1275   10.5613 O   0  0  0  0  0  0  0  0  0  0  0  0
    0.3140    7.2052    8.1003 C   0  0  2  0  0  0  0  0  0  0  0  0
    1.4518    7.0174    7.1726 O   0  0  0  0  0  0  0  0  0  0  0  0
   -0.3190    8.7067    8.0182 C   0  0  1  0  0  0  0  0  0  0  0  0
    0.7270    9.7191    8.4127 O   0  0  0  0  0  0  0  0  0  0  0  0
   -0.8395    8.9768    6.5675 C   0  0  0  0  0  0  0  0  0  0  0  0
   -1.6712    7.8552    6.0311 N   0  0  0  0  0  0  0  0  0  0  0  0
  1  3  1  0  0  0  0
  1  2  1  1  0  0  0
  3  4  1  6  0  0  0
  3  5  1  0  0  0  0
  5  6  1  1  0  0  0
  7  8  1  1  0  0  0
  7  5  1  0  0  0  0
  9 11  1  1  0  0  0
  9  7  1  0  0  0  0
 10  9  1  0  0  0  0
 10  1  1  0  0  0  0
 12 11  1  0  0  0  0
 13 14  1  6  0  0  0
 15 13  1  0  0  0  0
 16 17  1  1  0  0  0
 16 15  1  0  0  0  0
 18  2  1  1  0  0  0
 18 19  1  0  0  0  0
 18 16  1  0  0  0  0
 19 20  1  6  0  0  0
 19 21  1  0  0  0  0
 21 22  1  6  0  0  0
 21 13  1  0  0  0  0
 23 20  1  1  0  0  0
 23 29  1  0  0  0  0
 24 25  1  6  0  0  0
 24 26  1  0  0  0  0
 24 23  1  0  0  0  0
 26 27  1  6  0  0  0
 26 28  1  0  0  0  0
 28 30  1  1  0  0  0
 29 28  1  0  0  0  0
 30 31  1  0  0  0  0
 32 27  1  6  0  0  0
 32 40  1  0  0  0  0
 33 35  1  0  0  0  0
 33 32  1  0  0  0  0
 33 34  1  6  0  0  0
 35 36  1  1  0  0  0
 35 37  1  0  0  0  0
 37 38  1  6  0  0  0
 37 39  1  0  0  0  0
 39 41  1  6  0  0  0
 40 39  1  0  0  0  0
 41 42  1  0  0  0  0
M  END
>  <CHROM.1>
-177.44831728,-67.48817465,-127.75518620,155.09461511,-90.64959083,162.33934521
-61.69669536,-145.24553739,47.56225785,3.07522821,12.92357864,12.06036543
-0.90321813,0.71996196,-2.84321639

>  <Name>
lig.pdb

>  <RI>
0

>  <Rbt.Current_Directory>
/home/itssahil/PROJECTS/Mol_Feturizer/New_Systems/rnas/4wcr

>  <Rbt.Executable>
rbdock ($Id: //depot/dev/client3/rdock/2013.1/src/exe/rbdock.cxx#4 $)

>  <Rbt.Library>
libRbt.so (2013.1, Build901 2013/11/27)

>  <Rbt.Parameter_File>
/export/apps/rDock/src/rDock_2013.1_src/data/scripts/dock_solv.prm

>  <Rbt.Receptor>
prm/blind_docking_40.prm

>  <SCORE>
-1.79883

>  <SCORE.INTER>
-15.3473

>  <SCORE.INTER.CONST>
1

>  <SCORE.INTER.POLAR>
0

>  <SCORE.INTER.ROT>
9

>  <SCORE.INTER.SOLV>
26.1387

>  <SCORE.INTER.VDW>
-28.5444

>  <SCORE.INTER.norm>
-0.365412

>  <SCORE.INTRA>
3.42065

>  <SCORE.INTRA.DIHEDRAL>
4.16121

>  <SCORE.INTRA.DIHEDRAL.0>
16.2863

>  <SCORE.INTRA.POLAR>
0

>  <SCORE.INTRA.POLAR.0>
0

>  <SCORE.INTRA.REPUL>
-0.314433

>  <SCORE.INTRA.REPUL.0>
0.314433

>  <SCORE.INTRA.SOLV>
0.85096

>  <SCORE.INTRA.SOLV.lig_0>
-103.824

>  <SCORE.INTRA.VDW>
2.48673

>  <SCORE.INTRA.VDW.0>
-5.30945

>  <SCORE.INTRA.norm>
0.081444

>  <SCORE.RESTR>
10.1278

>  <SCORE.RESTR.CAVITY>
10.1278

>  <SCORE.RESTR.norm>
0.241138

>  <SCORE.SYSTEM>
0

>  <SCORE.SYSTEM.CONST>
0

>  <SCORE.SYSTEM.DIHEDRAL>
0

>  <SCORE.SYSTEM.SOLV>
0

>  <SCORE.SYSTEM.norm>
0

>  <SCORE.heavy>
42

>  <SCORE.norm>
-0.0428293

>  <RMSD>
25.841

$$$$
lig.pdb
 OpenBabel11021811513D
libRbt.so/2013.1/901 2013/11/27
 42 45  0  0  0  0  0  0  0  0999 V2000
    4.7247   15.4907   13.2655 C   0  0  2  0  0  0  0  0  0  0  0  0
    3.4063   14.8752   13.1227 O   0  0  0  0  0  0  0  0  0  0  0  0
    5.5801   14.4998   14.1744 C   0  0  2  0  0  0  0  0  0  0  0  0
    5.7300   13.2019   13.5107 N   0  0  0  0  0  0  0  0  0  0  0  0
    4.8683   14.3694   15.6084 C   0  0  1  0  0  0  0  0  0  0  0  0
    5.6093   13.4893   16.4795 O   0  0  0  0  0  0  0  0  0  0  0  0
    4.7623   15.7881   16.1938 C   0  0  2  0  0  0  0  0  0  0  0  0
    4.1487   15.7142   17.4354 O   0  0  0  0  0  0  0  0  0  0  0  0
    3.9320   16.7246   15.2029 C   0  0  2  0  0  0  0  0  0  0  0  0
    4.5590   16.8067   13.9169 O   0  0  0  0  0  0  0  0  0  0  0  0
    3.8153   18.1301   15.7207 C   0  0  0  0  0  0  0  0  0  0  0  0
    3.4189   18.0545   17.0907 O   0  0  0  0  0  0  0  0  0  0  0  0
   -0.4807   15.4838   11.0506 C   0  0  2  0  0  0  0  0  0  0  0  0
   -1.4905   16.0274   10.1687 N   0  0  0  0  0  0  0  0  0  0  0  0
    0.1116   16.6231   11.9672 C   0  0  0  0  0  0  0  0  0  0  0  0
    1.2138   16.0594   12.9315 C   0  0  2  0  0  0  0  0  0  0  0  0
    1.7402   17.1452   13.7559 N   0  0  0  0  0  0  0  0  0  0  0  0
    2.4223   15.3822   12.1445 C   0  0  2  0  0  0  0  0  0  0  0  0
    1.8278   14.2372   11.2743 C   0  0  2  0  0  0  0  0  0  0  0  0
    3.0298   13.6464   10.5752 O   0  0  0  0  0  0  0  0  0  0  0  0
    0.7343   14.8391   10.2305 C   0  0  1  0  0  0  0  0  0  0  0  0
    0.0655   13.8419    9.3936 O   0  0  0  0  0  0  0  0  0  0  0  0
    2.7866   12.3627   10.1625 C   0  0  1  0  0  0  0  0  0  0  0  0
    2.9562   11.3727   11.2313 C   0  0  2  0  0  0  0  0  0  0  0  0
    4.3215   11.2498   11.4711 O   0  0  0  0  0  0  0  0  0  0  0  0
    2.1615   10.1781   10.6615 C   0  0  2  0  0  0  0  0  0  0  0  0
    3.0976    9.0865   10.5146 O   0  0  0  0  0  0  0  0  0  0  0  0
    1.6333   10.6593    9.3504 C   0  0  2  0  0  0  0  0  0  0  0  0
    1.4698   12.0744    9.7228 O   0  0  0  0  0  0  0  0  0  0  0  0
    0.2369   10.0190    9.0118 C   0  0  0  0  0  0  0  0  0  0  0  0
   -0.8520   10.5132    9.8479 O   0  0  0  0  0  0  0  0  0  0  0  0
    2.5404    7.7374   10.4908 C   0  0  2  0  0  0  0  0  0  0  0  0
    3.2247    6.9209    9.2746 C   0  0  2  0  0  0  0  0  0  0  0  0
    2.9710    7.6479    7.9886 N   0  0  0  0  0  0  0  0  0  0  0  0
    2.6088    5.4362    9.2578 C   0  0  1  0  0  0  0  0  0  0  0  0
    2.9056    4.8287   10.5518 O   0  0  0  0  0  0  0  0  0  0  0  0
    1.0353    5.5174    9.0088 C   0  0  2  0  0  0  0  0  0  0  0  0
    0.8171    6.1283    7.6786 O   0  0  0  0  0  0  0  0  0  0  0  0
    0.3741    6.3936   10.2159 C   0  0  1  0  0  0  0  0  0  0  0  0
    1.0154    7.7580   10.2607 O   0  0  0  0  0  0  0  0  0  0  0  0
   -1.1705    6.5088    9.9939 C   0  0  0  0  0  0  0  0  0  0  0  0
   -1.8125    7.5170   10.8931 N   0  0  0  0  0  0  0  0  0  0  0  0
  1  3  1  0  0  0  0
  1  2  1  1  0  0  0
  3  4  1  6  0  0  0
  3  5  1  0  0  0  0
  5  6  1  1  0  0  0
  7  8  1  1  0  0  0
  7  5  1  0  0  0  0
  9 11  1  1  0  0  0
  9  7  1  0  0  0  0
 10  9  1  0  0  0  0
 10  1  1  0  0  0  0
 12 11  1  0  0  0  0
 13 14  1  6  0  0  0
 15 13  1  0  0  0  0
 16 17  1  6  0  0  0
 16 15  1  0  0  0  0
 18  2  1  1  0  0  0
 18 19  1  0  0  0  0
 18 16  1  0  0  0  0
 19 20  1  6  0  0  0
 19 21  1  0  0  0  0
 21 22  1  6  0  0  0
 21 13  1  0  0  0  0
 23 20  1  1  0  0  0
 23 29  1  0  0  0  0
 24 25  1  6  0  0  0
 24 26  1  0  0  0  0
 24 23  1  0  0  0  0
 26 27  1  6  0  0  0
 26 28  1  0  0  0  0
 28 30  1  1  0  0  0
 29 28  1  0  0  0  0
 30 31  1  0  0  0  0
 32 27  1  6  0  0  0
 32 40  1  0  0  0  0
 33 35  1  0  0  0  0
 33 32  1  0  0  0  0
 33 34  1  6  0  0  0
 35 36  1  1  0  0  0
 35 37  1  0  0  0  0
 37 38  1  6  0  0  0
 37 39  1  0  0  0  0
 39 41  1  6  0  0  0
 40 39  1  0  0  0  0
 41 42  1  0  0  0  0
M  END
>  <CHROM.1>
-168.60796781,-47.60453662,-110.89463499,157.92295670,-81.65764271,157.18682745
70.83017812,134.08145235,-168.42919346,2.29433606,12.14655810,11.74801092
-1.28878650,0.69029281,-2.80108179

>  <Name>
lig.pdb

>  <RI>
0

>  <Rbt.Current_Directory>
/home/itssahil/PROJECTS/Mol_Feturizer/New_Systems/rnas/4wcr

>  <Rbt.Executable>
rbdock ($Id: //depot/dev/client3/rdock/2013.1/src/exe/rbdock.cxx#4 $)

>  <Rbt.Library>
libRbt.so (2013.1, Build901 2013/11/27)

>  <Rbt.Parameter_File>
/export/apps/rDock/src/rDock_2013.1_src/data/scripts/dock_solv.prm

>  <Rbt.Receptor>
prm/blind_docking_80.prm

>  <SCORE>
5.78059

>  <SCORE.INTER>
-7.20117

>  <SCORE.INTER.CONST>
1

>  <SCORE.INTER.POLAR>
0

>  <SCORE.INTER.ROT>
9

>  <SCORE.INTER.SOLV>
31.3824

>  <SCORE.INTER.VDW>
-24.8616

>  <SCORE.INTER.norm>
-0.171456

>  <SCORE.INTRA>
8.12891

>  <SCORE.INTRA.DIHEDRAL>
5.6729

>  <SCORE.INTRA.DIHEDRAL.0>
16.2863

>  <SCORE.INTRA.POLAR>
0

>  <SCORE.INTRA.POLAR.0>
0

>  <SCORE.INTRA.REPUL>
-0.314433

>  <SCORE.INTRA.REPUL.0>
0.314433

>  <SCORE.INTRA.SOLV>
3.50777

>  <SCORE.INTRA.SOLV.lig_0>
-103.824

>  <SCORE.INTRA.VDW>
5.11074

>  <SCORE.INTRA.VDW.0>
-5.30945

>  <SCORE.INTRA.norm>
0.193545

>  <SCORE.RESTR>
4.85285

>  <SCORE.RESTR.CAVITY>
4.85285

>  <SCORE.RESTR.norm>
0.115544

>  <SCORE.SYSTEM>
0

>  <SCORE.SYSTEM.CONST>
0

>  <SCORE.SYSTEM.DIHEDRAL>
0

>  <SCORE.SYSTEM.SOLV>
0

>  <SCORE.SYSTEM.norm>
0

>  <SCORE.heavy>
42

>  <SCORE.norm>
0.137633

>  <RMSD>
25.844

$$$$
lig.pdb
 OpenBabel11021811513D
libRbt.so/2013.1/901 2013/11/27
 42 45  0  0  0  0  0  0  0  0999 V2000
    1.9552   17.1021   13.9374 C   0  0  2  0  0  0  0  0  0  0  0  0
    3.0864   16.5522   13.1923 O   0  0  0  0  0  0  0  0  0  0  0  0
    1.4678   18.3819   13.1222 C   0  0  2  0  0  0  0  0  0  0  0  0
    1.0123   17.9906   11.7853 N   0  0  0  0  0  0  0  0  0  0  0  0
    2.6685   19.4472   13.0665 C   0  0  1  0  0  0  0  0  0  0  0  0
    2.2775   20.6354   12.3469 O   0  0  0  0  0  0  0  0  0  0  0  0
    3.0592   19.7680   14.5194 C   0  0  2  0  0  0  0  0  0  0  0  0
    4.0982   20.6867   14.5101 O   0  0  0  0  0  0  0  0  0  0  0  0
    3.4894   18.4292   15.2751 C   0  0  2  0  0  0  0  0  0  0  0  0
    2.4214   17.4738   15.2895 O   0  0  0  0  0  0  0  0  0  0  0  0
    3.8633   18.6856   16.7074 C   0  0  0  0  0  0  0  0  0  0  0  0
    5.2314   19.0949   16.7304 O   0  0  0  0  0  0  0  0  0  0  0  0
    5.7423   12.9954   13.4543 C   0  0  2  0  0  0  0  0  0  0  0  0
    6.2006   11.6454   13.6999 N   0  0  0  0  0  0  0  0  0  0  0  0
    5.0999   13.5984   14.7630 C   0  0  0  0  0  0  0  0  0  0  0  0
    4.5901   15.0628   14.5214 C   0  0  2  0  0  0  0  0  0  0  0  0
    3.9973   15.5806   15.7528 N   0  0  0  0  0  0  0  0  0  0  0  0
    3.5056   15.1453   13.3572 C   0  0  2  0  0  0  0  0  0  0  0  0
    4.1656   14.5822   12.0654 C   0  0  2  0  0  0  0  0  0  0  0  0
    3.0838   14.7046   11.0178 O   0  0  0  0  0  0  0  0  0  0  0  0
    4.6312   13.0412   12.3020 C   0  0  1  0  0  0  0  0  0  0  0  0
    5.3177   12.4224   11.1671 O   0  0  0  0  0  0  0  0  0  0  0  0
    2.3868   13.5330   10.8802 C   0  0  1  0  0  0  0  0  0  0  0  0
    1.3288   13.6083    9.8673 C   0  0  2  0  0  0  0  0  0  0  0  0
    0.3042   14.3892   10.3937 O   0  0  0  0  0  0  0  0  0  0  0  0
    1.0872   12.1118    9.5751 C   0  0  2  0  0  0  0  0  0  0  0  0
   -0.2885   11.8358    9.9229 O   0  0  0  0  0  0  0  0  0  0  0  0
    2.0553   11.3887   10.4524 C   0  0  2  0  0  0  0  0  0  0  0  0
    3.1204   12.4051   10.4329 O   0  0  0  0  0  0  0  0  0  0  0  0
    2.5614   10.0548    9.7899 C   0  0  0  0  0  0  0  0  0  0  0  0
    1.5421    9.3683    9.0032 O   0  0  0  0  0  0  0  0  0  0  0  0
   -0.9161   10.6885    9.2744 C   0  0  2  0  0  0  0  0  0  0  0  0
   -2.4966   10.9899    9.1155 C   0  0  2  0  0  0  0  0  0  0  0  0
   -3.0865   11.2530   10.4681 N   0  0  0  0  0  0  0  0  0  0  0  0
   -3.1792    9.7240    8.3975 C   0  0  1  0  0  0  0  0  0  0  0  0
   -2.5275    9.5565    7.1018 O   0  0  0  0  0  0  0  0  0  0  0  0
   -2.9861    8.4293    9.3090 C   0  0  2  0  0  0  0  0  0  0  0  0
   -3.6828    8.6696   10.5924 O   0  0  0  0  0  0  0  0  0  0  0  0
   -1.3857    8.1782    9.5032 C   0  0  1  0  0  0  0  0  0  0  0  0
   -0.7515    9.4037   10.1119 O   0  0  0  0  0  0  0  0  0  0  0  0
   -1.1589    6.9227   10.4091 C   0  0  0  0  0  0  0  0  0  0  0  0
    0.2159    6.3495   10.2727 N   0  0  0  0  0  0  0  0  0  0  0  0
  1  3  1  0  0  0  0
  1  2  1  6  0  0  0
  3  4  1  6  0  0  0
  3  5  1  0  0  0  0
  5  6  1  1  0  0  0
  7  8  1  6  0  0  0
  7  5  1  0  0  0  0
  9 11  1  1  0  0  0
  9  7  1  0  0  0  0
 10  9  1  0  0  0  0
 10  1  1  0  0  0  0
 12 11  1  0  0  0  0
 13 14  1  1  0  0  0
 15 13  1  0  0  0  0
 16 17  1  1  0  0  0
 16 15  1  0  0  0  0
 18  2  1  6  0  0  0
 18 19  1  0  0  0  0
 18 16  1  0  0  0  0
 19 20  1  6  0  0  0
 19 21  1  0  0  0  0
 21 22  1  6  0  0  0
 21 13  1  0  0  0  0
 23 20  1  6  0  0  0
 23 29  1  0  0  0  0
 24 25  1  1  0  0  0
 24 26  1  0  0  0  0
 24 23  1  0  0  0  0
 26 27  1  1  0  0  0
 26 28  1  0  0  0  0
 28 30  1  6  0  0  0
 29 28  1  0  0  0  0
 30 31  1  0  0  0  0
 32 27  1  1  0  0  0
 32 40  1  0  0  0  0
 33 35  1  0  0  0  0
 33 32  1  0  0  0  0
 33 34  1  1  0  0  0
 35 36  1  6  0  0  0
 35 37  1  0  0  0  0
 37 38  1  1  0  0  0
 37 39  1  0  0  0  0
 39 41  1  1  0  0  0
 40 39  1  0  0  0  0
 41 42  1  0  0  0  0
M  END
>  <CHROM.1>
-158.68230731,-84.27183110,-90.35141367,-95.62658490,-179.77527643,156.44643557
-35.63860326,-149.33426787,160.72948909,1.74012137,13.63162337,11.83602530
1.07111936,-0.43407856,0.29246132

>  <Name>
lig.pdb

>  <RI>
0

>  <Rbt.Current_Directory>
/home/itssahil/PROJECTS/Mol_Feturizer/New_Systems/rnas/4wcr

>  <Rbt.Executable>
rbdock ($Id: //depot/dev/client3/rdock/2013.1/src/exe/rbdock.cxx#4 $)

>  <Rbt.Library>
libRbt.so (2013.1, Build901 2013/11/27)

>  <Rbt.Parameter_File>
/export/apps/rDock/src/rDock_2013.1_src/data/scripts/dock_solv.prm

>  <Rbt.Receptor>
prm/blind_docking_60.prm

>  <SCORE>
5.78099

>  <SCORE.INTER>
-5.82899

>  <SCORE.INTER.CONST>
1

>  <SCORE.INTER.POLAR>
0

>  <SCORE.INTER.ROT>
9

>  <SCORE.INTER.SOLV>
25.7234

>  <SCORE.INTER.VDW>
-22.0605

>  <SCORE.INTER.norm>
-0.138785

>  <SCORE.INTRA>
8.09207

>  <SCORE.INTRA.DIHEDRAL>
5.24751

>  <SCORE.INTRA.DIHEDRAL.0>
16.2863

>  <SCORE.INTRA.POLAR>
0

>  <SCORE.INTRA.POLAR.0>
0

>  <SCORE.INTRA.REPUL>
-0.308073

>  <SCORE.INTRA.REPUL.0>
0.314433

>  <SCORE.INTRA.SOLV>
-0.0856895

>  <SCORE.INTRA.SOLV.lig_0>
-103.824

>  <SCORE.INTRA.VDW>
7.05153

>  <SCORE.INTRA.VDW.0>
-5.30945

>  <SCORE.INTRA.norm>
0.192668

>  <SCORE.RESTR>
3.51791

>  <SCORE.RESTR.CAVITY>
3.51791

>  <SCORE.RESTR.norm>
0.0837597

>  <SCORE.SYSTEM>
0

>  <SCORE.SYSTEM.CONST>
0

>  <SCORE.SYSTEM.DIHEDRAL>
0

>  <SCORE.SYSTEM.SOLV>
0

>  <SCORE.SYSTEM.norm>
0

>  <SCORE.heavy>
42

>  <SCORE.norm>
0.137643

>  <RMSD>
25.847

$$$$
lig.pdb
 OpenBabel11021811513D
libRbt.so/2013.1/901 2013/11/27
 42 45  0  0  0  0  0  0  0  0999 V2000
    5.7539   14.3166   13.1832 C   0  0  2  0  0  0  0  0  0  0  0  0
    4.3095   14.1324   13.3132 O   0  0  0  0  0  0  0  0  0  0  0  0
    6.4221   12.9750   13.7250 C   0  0  2  0  0  0  0  0  0  0  0  0
    6.0117   11.8338   12.9022 N   0  0  0  0  0  0  0  0  0  0  0  0
    6.0218   12.7851   15.2688 C   0  0  1  0  0  0  0  0  0  0  0  0
    6.6112   11.5869   15.8160 O   0  0  0  0  0  0  0  0  0  0  0  0
    6.4947   14.0423   16.0188 C   0  0  2  0  0  0  0  0  0  0  0  0
    6.1629   13.9138   17.3594 O   0  0  0  0  0  0  0  0  0  0  0  0
    5.8153   15.3408   15.3858 C   0  0  2  0  0  0  0  0  0  0  0  0
    6.1528   15.4815   14.0002 O   0  0  0  0  0  0  0  0  0  0  0  0
    6.2600   16.6011   16.0722 C   0  0  0  0  0  0  0  0  0  0  0  0
    5.6822   16.6091   17.3782 O   0  0  0  0  0  0  0  0  0  0  0  0
    0.4414   15.6663   11.7454 C   0  0  2  0  0  0  0  0  0  0  0  0
   -0.5214   16.4862   11.0427 N   0  0  0  0  0  0  0  0  0  0  0  0
    1.3069   16.5567   12.7185 C   0  0  0  0  0  0  0  0  0  0  0  0
    2.3634   15.6904   13.4905 C   0  0  2  0  0  0  0  0  0  0  0  0
    3.1470   16.5520   14.3733 N   0  0  0  0  0  0  0  0  0  0  0  0
    3.3572   14.9248   12.5084 C   0  0  2  0  0  0  0  0  0  0  0  0
    2.4922   14.0232   11.5808 C   0  0  2  0  0  0  0  0  0  0  0  0
    3.5028   13.3314   10.6961 O   0  0  0  0  0  0  0  0  0  0  0  0
    1.4447   14.9356   10.7337 C   0  0  1  0  0  0  0  0  0  0  0  0
    0.5369   14.1866    9.8636 O   0  0  0  0  0  0  0  0  0  0  0  0
    3.0021   12.1630   10.1847 C   0  0  1  0  0  0  0  0  0  0  0  0
    3.0948   11.0383   11.1216 C   0  0  2  0  0  0  0  0  0  0  0  0
    4.4340   10.6667   11.1937 O   0  0  0  0  0  0  0  0  0  0  0  0
    2.0544   10.0659   10.5256 C   0  0  2  0  0  0  0  0  0  0  0  0
    2.7680    8.8616   10.1647 O   0  0  0  0  0  0  0  0  0  0  0  0
    1.4989   10.7797    9.3374 C   0  0  2  0  0  0  0  0  0  0  0  0
    1.6202   12.1478    9.8678 O   0  0  0  0  0  0  0  0  0  0  0  0
   -0.0130   10.4206    9.0935 C   0  0  0  0  0  0  0  0  0  0  0  0
   -0.9071   10.9115   10.1370 O   0  0  0  0  0  0  0  0  0  0  0  0
    2.0265    7.6066   10.2420 C   0  0  2  0  0  0  0  0  0  0  0  0
    2.2946    6.7678    8.8859 C   0  0  2  0  0  0  0  0  0  0  0  0
    1.8711    7.5898    7.7062 N   0  0  0  0  0  0  0  0  0  0  0  0
    1.4781    5.3864    8.9806 C   0  0  1  0  0  0  0  0  0  0  0  0
    1.9624    4.6762   10.1607 O   0  0  0  0  0  0  0  0  0  0  0  0
   -0.0817    5.6991    9.0985 C   0  0  2  0  0  0  0  0  0  0  0  0
   -0.4979    6.4036    7.8654 O   0  0  0  0  0  0  0  0  0  0  0  0
   -0.3207    6.5941   10.4416 C   0  0  1  0  0  0  0  0  0  0  0  0
    0.5087    7.8515   10.3660 O   0  0  0  0  0  0  0  0  0  0  0  0
   -1.8417    6.9349   10.5797 C   0  0  0  0  0  0  0  0  0  0  0  0
   -2.1545    7.6966   11.8284 N   0  0  0  0  0  0  0  0  0  0  0  0
  1  3  1  0  0  0  0
  1  2  1  1  0  0  0
  3  4  1  6  0  0  0
  3  5  1  0  0  0  0
  5  6  1  1  0  0  0
  7  8  1  1  0  0  0
  7  5  1  0  0  0  0
  9 11  1  1  0  0  0
  9  7  1  0  0  0  0
 10  9  1  0  0  0  0
 10  1  1  0  0  0  0
 12 11  1  0  0  0  0
 13 14  1  6  0  0  0
 15 13  1  0  0  0  0
 16 17  1  1  0  0  0
 16 15  1  0  0  0  0
 18  2  1  1  0  0  0
 18 19  1  0  0  0  0
 18 16  1  0  0  0  0
 19 20  1  6  0  0  0
 19 21  1  0  0  0  0
 21 22  1  6  0  0  0
 21 13  1  0  0  0  0
 23 20  1  1  0  0  0
 23 29  1  0  0  0  0
 24 25  1  6  0  0  0
 24 26  1  0  0  0  0
 24 23  1  0  0  0  0
 26 27  1  6  0  0  0
 26 28  1  0  0  0  0
 28 30  1  1  0  0  0
 29 28  1  0  0  0  0
 30 31  1  0  0  0  0
 32 27  1  6  0  0  0
 32 40  1  0  0  0  0
 33 35  1  0  0  0  0
 33 32  1  0  0  0  0
 33 34  1  6  0  0  0
 35 36  1  1  0  0  0
 35 37  1  0  0  0  0
 37 38  1  6  0  0  0
 37 39  1  0  0  0  0
 39 41  1  6  0  0  0
 40 39  1  0  0  0  0
 41 42  1  0  0  0  0
M  END
>  <CHROM.1>
-158.36304501,-70.18549184,-123.16481908,156.94883796,-81.69233510,149.13215388
67.20035236,133.28004863,177.03192567,2.68991999,11.71200425,11.84468061
-1.00180195,0.64002878,-2.91298779

>  <Name>
lig.pdb

>  <RI>
0

>  <Rbt.Current_Directory>
/home/itssahil/PROJECTS/Mol_Feturizer/New_Systems/rnas/4wcr

>  <Rbt.Executable>
rbdock ($Id: //depot/dev/client3/rdock/2013.1/src/exe/rbdock.cxx#4 $)

>  <Rbt.Library>
libRbt.so (2013.1, Build901 2013/11/27)

>  <Rbt.Parameter_File>
/export/apps/rDock/src/rDock_2013.1_src/data/scripts/dock_solv.prm

>  <Rbt.Receptor>
prm/blind_docking_40.prm

>  <SCORE>
3.85562

>  <SCORE.INTER>
-10.4187

>  <SCORE.INTER.CONST>
1

>  <SCORE.INTER.POLAR>
0

>  <SCORE.INTER.ROT>
9

>  <SCORE.INTER.SOLV>
31.5557

>  <SCORE.INTER.VDW>
-27.0644

>  <SCORE.INTER.norm>
-0.248065

>  <SCORE.INTRA>
6.20703

>  <SCORE.INTRA.DIHEDRAL>
8.39934

>  <SCORE.INTRA.DIHEDRAL.0>
16.2863

>  <SCORE.INTRA.POLAR>
0

>  <SCORE.INTRA.POLAR.0>
0

>  <SCORE.INTRA.REPUL>
-0.314433

>  <SCORE.INTRA.REPUL.0>
0.314433

>  <SCORE.INTRA.SOLV>
2.48365

>  <SCORE.INTRA.SOLV.lig_0>
-103.824

>  <SCORE.INTRA.VDW>
2.3377

>  <SCORE.INTRA.VDW.0>
-5.30945

>  <SCORE.INTRA.norm>
0.147786

>  <SCORE.RESTR>
8.06733

>  <SCORE.RESTR.CAVITY>
8.06733

>  <SCORE.RESTR.norm>
0.192079

>  <SCORE.SYSTEM>
0

>  <SCORE.SYSTEM.CONST>
0

>  <SCORE.SYSTEM.DIHEDRAL>
0

>  <SCORE.SYSTEM.SOLV>
0

>  <SCORE.SYSTEM.norm>
0

>  <SCORE.heavy>
42

>  <SCORE.norm>
0.0918005

>  <RMSD>
25.889

$$$$
lig.pdb
 OpenBabel11021811513D
libRbt.so/2013.1/901 2013/11/27
 42 45  0  0  0  0  0  0  0  0999 V2000
    3.3586   15.2175   14.3318 C   0  0  2  0  0  0  0  0  0  0  0  0
    3.4738   16.1946   13.2505 O   0  0  0  0  0  0  0  0  0  0  0  0
    4.0737   15.8708   15.5974 C   0  0  2  0  0  0  0  0  0  0  0  0
    3.3838   17.1018   15.9926 N   0  0  0  0  0  0  0  0  0  0  0  0
    5.6188   16.1284   15.2421 C   0  0  1  0  0  0  0  0  0  0  0  0
    6.3202   16.7109   16.3608 O   0  0  0  0  0  0  0  0  0  0  0  0
    6.2242   14.7732   14.8377 C   0  0  2  0  0  0  0  0  0  0  0  0
    7.5618   14.9582   14.5212 O   0  0  0  0  0  0  0  0  0  0  0  0
    5.4234   14.1688   13.5960 C   0  0  2  0  0  0  0  0  0  0  0  0
    4.0397   13.9743   13.9141 O   0  0  0  0  0  0  0  0  0  0  0  0
    5.9645   12.8328   13.1725 C   0  0  0  0  0  0  0  0  0  0  0  0
    5.8783   11.9556   14.2963 O   0  0  0  0  0  0  0  0  0  0  0  0
   -0.6306   16.1520   11.5405 C   0  0  2  0  0  0  0  0  0  0  0  0
   -1.7567   16.4388   10.6787 N   0  0  0  0  0  0  0  0  0  0  0  0
   -0.0286   17.4929   12.1135 C   0  0  0  0  0  0  0  0  0  0  0  0
    1.1986   17.2091   13.0493 C   0  0  2  0  0  0  0  0  0  0  0  0
    1.7298   18.4744   13.5519 N   0  0  0  0  0  0  0  0  0  0  0  0
    2.3663   16.4252   12.3005 C   0  0  2  0  0  0  0  0  0  0  0  0
    1.7670   15.0891   11.7740 C   0  0  2  0  0  0  0  0  0  0  0  0
    2.9311   14.4088   11.0923 O   0  0  0  0  0  0  0  0  0  0  0  0
    0.5379   15.3926   10.7519 C   0  0  1  0  0  0  0  0  0  0  0  0
   -0.1417   14.2045   10.2335 O   0  0  0  0  0  0  0  0  0  0  0  0
    2.8251   13.0447   11.1657 C   0  0  1  0  0  0  0  0  0  0  0  0
    2.2353   12.4477    9.9628 C   0  0  2  0  0  0  0  0  0  0  0  0
    0.8777   12.7539    9.9698 O   0  0  0  0  0  0  0  0  0  0  0  0
    2.6970   10.9810   10.0995 C   0  0  2  0  0  0  0  0  0  0  0  0
    1.5010   10.1737   10.1867 O   0  0  0  0  0  0  0  0  0  0  0  0
    3.5025   10.9481   11.3564 C   0  0  2  0  0  0  0  0  0  0  0  0
    4.0375   12.3171   11.2713 O   0  0  0  0  0  0  0  0  0  0  0  0
    4.6716    9.8989   11.2745 C   0  0  0  0  0  0  0  0  0  0  0  0
    5.5338    9.8899   12.4517 O   0  0  0  0  0  0  0  0  0  0  0  0
    1.3971    9.0458    9.2658 C   0  0  2  0  0  0  0  0  0  0  0  0
   -0.1512    8.5860    9.1902 C   0  0  2  0  0  0  0  0  0  0  0  0
   -0.6255    8.2241   10.5653 N   0  0  0  0  0  0  0  0  0  0  0  0
   -0.2575    7.3469    8.1719 C   0  0  1  0  0  0  0  0  0  0  0  0
    0.2342    7.8066    6.8763 O   0  0  0  0  0  0  0  0  0  0  0  0
    0.6191    6.1324    8.7207 C   0  0  2  0  0  0  0  0  0  0  0  0
    0.0529    5.7160   10.0231 O   0  0  0  0  0  0  0  0  0  0  0  0
    2.1660    6.6366    8.8433 C   0  0  1  0  0  0  0  0  0  0  0  0
    2.2350    7.8430    9.7457 O   0  0  0  0  0  0  0  0  0  0  0  0
    3.0536    5.4728    9.3967 C   0  0  0  0  0  0  0  0  0  0  0  0
    2.4458    4.7929   10.5824 N   0  0  0  0  0  0  0  0  0  0  0  0
  1  3  1  0  0  0  0
  1  2  1  6  0  0  0
  3  4  1  6  0  0  0
  3  5  1  0  0  0  0
  5  6  1  1  0  0  0
  7  8  1  6  0  0  0
  7  5  1  0  0  0  0
  9 11  1  1  0  0  0
  9  7  1  0  0  0  0
 10  9  1  0  0  0  0
 10  1  1  0  0  0  0
 12 11  1  0  0  0  0
 13 14  1  6  0  0  0
 15 13  1  0  0  0  0
 16 17  1  6  0  0  0
 16 15  1  0  0  0  0
 18  2  1  1  0  0  0
 18 19  1  0  0  0  0
 18 16  1  0  0  0  0
 19 20  1  6  0  0  0
 19 21  1  0  0  0  0
 21 22  1  1  0  0  0
 21 13  1  0  0  0  0
 23 20  1  6  0  0  0
 23 29  1  0  0  0  0
 24 25  1  1  0  0  0
 24 26  1  0  0  0  0
 24 23  1  0  0  0  0
 26 27  1  1  0  0  0
 26 28  1  0  0  0  0
 28 30  1  6  0  0  0
 29 28  1  0  0  0  0
 30 31  1  0  0  0  0
 32 27  1  1  0  0  0
 32 40  1  0  0  0  0
 33 35  1  0  0  0  0
 33 32  1  0  0  0  0
 33 34  1  1  0  0  0
 35 36  1  6  0  0  0
 35 37  1  0  0  0  0
 37 38  1  1  0  0  0
 37 39  1  0  0  0  0
 39 41  1  1  0  0  0
 40 39  1  0  0  0  0
 41 42  1  0  0  0  0
M  END
>  <CHROM.1>
-141.11522045,58.40838517,72.31440325,149.45981082,96.73220573,128.06267308
176.53976039,-162.06935174,-46.67818332,2.61452166,12.38443511,11.70352119
-1.28443519,0.54712925,-2.80150280

>  <Name>
lig.pdb

>  <RI>
0

>  <Rbt.Current_Directory>
/home/itssahil/PROJECTS/Mol_Feturizer/New_Systems/rnas/4wcr

>  <Rbt.Executable>
rbdock ($Id: //depot/dev/client3/rdock/2013.1/src/exe/rbdock.cxx#4 $)

>  <Rbt.Library>
libRbt.so (2013.1, Build901 2013/11/27)

>  <Rbt.Parameter_File>
/export/apps/rDock/src/rDock_2013.1_src/data/scripts/dock_solv.prm

>  <Rbt.Receptor>
prm/blind_docking_80.prm

>  <SCORE>
7.7524

>  <SCORE.INTER>
-15.2972

>  <SCORE.INTER.CONST>
1

>  <SCORE.INTER.POLAR>
0

>  <SCORE.INTER.ROT>
9

>  <SCORE.INTER.SOLV>
30.2731

>  <SCORE.INTER.VDW>
-29.8892

>  <SCORE.INTER.norm>
-0.364219

>  <SCORE.INTRA>
18.1475

>  <SCORE.INTRA.DIHEDRAL>
7.53946

>  <SCORE.INTRA.DIHEDRAL.0>
16.2863

>  <SCORE.INTRA.POLAR>
0

>  <SCORE.INTRA.POLAR.0>
0

>  <SCORE.INTRA.REPUL>
-0.314433

>  <SCORE.INTRA.REPUL.0>
0.314433

>  <SCORE.INTRA.SOLV>
0.741914

>  <SCORE.INTRA.SOLV.lig_0>
-103.824

>  <SCORE.INTRA.VDW>
15.579

>  <SCORE.INTRA.VDW.0>
-5.30945

>  <SCORE.INTRA.norm>
0.432084

>  <SCORE.RESTR>
4.90206

>  <SCORE.RESTR.CAVITY>
4.90206

>  <SCORE.RESTR.norm>
0.116716

>  <SCORE.SYSTEM>
0

>  <SCORE.SYSTEM.CONST>
0

>  <SCORE.SYSTEM.DIHEDRAL>
0

>  <SCORE.SYSTEM.SOLV>
0

>  <SCORE.SYSTEM.norm>
0

>  <SCORE.heavy>
42

>  <SCORE.norm>
0.184581

>  <RMSD>
25.892

$$$$
lig.pdb
 OpenBabel11021811513D
libRbt.so/2013.1/901 2013/11/27
 42 45  0  0  0  0  0  0  0  0999 V2000
    4.5761   15.6539   13.1176 C   0  0  2  0  0  0  0  0  0  0  0  0
    3.3306   14.9021   12.9740 O   0  0  0  0  0  0  0  0  0  0  0  0
    5.4235   14.8980   14.2358 C   0  0  2  0  0  0  0  0  0  0  0  0
    5.7379   13.5342   13.8010 N   0  0  0  0  0  0  0  0  0  0  0  0
    4.5977   14.9205   15.6133 C   0  0  1  0  0  0  0  0  0  0  0  0
    5.3259   14.2570   16.6679 O   0  0  0  0  0  0  0  0  0  0  0  0
    4.3242   16.3952   15.9551 C   0  0  2  0  0  0  0  0  0  0  0  0
    3.6087   16.4533   17.1419 O   0  0  0  0  0  0  0  0  0  0  0  0
    3.5136   17.0875   14.7669 C   0  0  2  0  0  0  0  0  0  0  0  0
    4.2457   17.0320   13.5362 O   0  0  0  0  0  0  0  0  0  0  0  0
    3.2366   18.5380   15.0435 C   0  0  0  0  0  0  0  0  0  0  0  0
    2.5151   19.0608   13.9273 O   0  0  0  0  0  0  0  0  0  0  0  0
   -0.2601   14.6214   10.3661 C   0  0  2  0  0  0  0  0  0  0  0  0
   -1.1766   14.8511    9.2706 N   0  0  0  0  0  0  0  0  0  0  0  0
    0.0979   15.9863   11.0714 C   0  0  0  0  0  0  0  0  0  0  0  0
    1.0955   15.7646   12.2623 C   0  0  2  0  0  0  0  0  0  0  0  0
    1.4061   17.0510   12.8823 N   0  0  0  0  0  0  0  0  0  0  0  0
    2.4562   15.0792   11.7965 C   0  0  2  0  0  0  0  0  0  0  0  0
    2.0899   13.7181   11.1371 C   0  0  2  0  0  0  0  0  0  0  0  0
    3.4245   13.1340   10.7364 O   0  0  0  0  0  0  0  0  0  0  0  0
    1.1090   13.9612    9.8619 C   0  0  1  0  0  0  0  0  0  0  0  0
    0.6523   12.7422    9.1929 O   0  0  0  0  0  0  0  0  0  0  0  0
    3.5600   11.8456   11.1824 C   0  0  1  0  0  0  0  0  0  0  0  0
    3.1099   10.8482   10.2058 C   0  0  2  0  0  0  0  0  0  0  0  0
    1.7197   10.9011   10.1683 O   0  0  0  0  0  0  0  0  0  0  0  0
    3.8209    9.5797   10.7241 C   0  0  2  0  0  0  0  0  0  0  0  0
    2.7850    8.6301   11.0630 O   0  0  0  0  0  0  0  0  0  0  0  0
    4.5935   10.0342   11.9184 C   0  0  2  0  0  0  0  0  0  0  0  0
    4.8796   11.3995   11.4474 O   0  0  0  0  0  0  0  0  0  0  0  0
    5.9312    9.2250   12.0922 C   0  0  0  0  0  0  0  0  0  0  0  0
    5.7270    7.8296   12.4667 O   0  0  0  0  0  0  0  0  0  0  0  0
    2.2723    7.7974    9.9792 C   0  0  2  0  0  0  0  0  0  0  0  0
    1.1094    8.6156    9.2095 C   0  0  2  0  0  0  0  0  0  0  0  0
    0.0323    8.9779   10.1869 N   0  0  0  0  0  0  0  0  0  0  0  0
    0.5531    7.6937    8.0160 C   0  0  1  0  0  0  0  0  0  0  0  0
    1.6795    7.3974    7.1355 O   0  0  0  0  0  0  0  0  0  0  0  0
   -0.0678    6.3561    8.6240 C   0  0  2  0  0  0  0  0  0  0  0  0
   -1.2065    6.7366    9.4892 O   0  0  0  0  0  0  0  0  0  0  0  0
    1.1079    5.5767    9.4437 C   0  0  1  0  0  0  0  0  0  0  0  0
    1.6660    6.4831   10.5122 O   0  0  0  0  0  0  0  0  0  0  0  0
    0.5282    4.2650   10.0700 C   0  0  0  0  0  0  0  0  0  0  0  0
   -0.5958    4.5242   11.0222 N   0  0  0  0  0  0  0  0  0  0  0  0
  1  3  1  0  0  0  0
  1  2  1  1  0  0  0
  3  4  1  6  0  0  0
  3  5  1  0  0  0  0
  5  6  1  1  0  0  0
  7  8  1  1  0  0  0
  7  5  1  0  0  0  0
  9 11  1  1  0  0  0
  9  7  1  0  0  0  0
 10  9  1  0  0  0  0
 10  1  1  0  0  0  0
 12 11  1  0  0  0  0
 13 14  1  6  0  0  0
 15 13  1  0  0  0  0
 16 17  1  6  0  0  0
 16 15  1  0  0  0  0
 18  2  1  1  0  0  0
 18 19  1  0  0  0  0
 18 16  1  0  0  0  0
 19 20  1  6  0  0  0
 19 21  1  0  0  0  0
 21 22  1  1  0  0  0
 21 13  1  0  0  0  0
 23 20  1  6  0  0  0
 23 29  1  0  0  0  0
 24 25  1  1  0  0  0
 24 26  1  0  0  0  0
 24 23  1  0  0  0  0
 26 27  1  1  0  0  0
 26 28  1  0  0  0  0
 28 30  1  6  0  0  0
 29 28  1  0  0  0  0
 30 31  1  0  0  0  0
 32 27  1  1  0  0  0
 32 40  1  0  0  0  0
 33 35  1  0  0  0  0
 33 32  1  0  0  0  0
 33 34  1  1  0  0  0
 35 36  1  6  0  0  0
 35 37  1  0  0  0  0
 37 38  1  1  0  0  0
 37 39  1  0  0  0  0
 39 41  1  1  0  0  0
 40 39  1  0  0  0  0
 41 42  1  0  0  0  0
M  END
>  <CHROM.1>
-163.45533766,179.89060716,-112.48910624,129.35604798,91.69182221,85.10669813
-68.80884069,-85.10401794,-60.00555325,2.50450786,12.00088075,11.68990501
-1.28965349,0.68739501,-2.87386926

>  <Name>
lig.pdb

>  <RI>
0

>  <Rbt.Current_Directory>
/home/itssahil/PROJECTS/Mol_Feturizer/New_Systems/rnas/4wcr

>  <Rbt.Executable>
rbdock ($Id: //depot/dev/client3/rdock/2013.1/src/exe/rbdock.cxx#4 $)

>  <Rbt.Library>
libRbt.so (2013.1, Build901 2013/11/27)

>  <Rbt.Parameter_File>
/export/apps/rDock/src/rDock_2013.1_src/data/scripts/dock_solv.prm

>  <Rbt.Receptor>
prm/blind_docking_40.prm

>  <SCORE>
-0.739264

>  <SCORE.INTER>
-17.0042

>  <SCORE.INTER.CONST>
1

>  <SCORE.INTER.POLAR>
0

>  <SCORE.INTER.ROT>
9

>  <SCORE.INTER.SOLV>
27.4583

>  <SCORE.INTER.VDW>
-30.0889

>  <SCORE.INTER.norm>
-0.404863

>  <SCORE.INTRA>
8.75118

>  <SCORE.INTRA.DIHEDRAL>
8.66883

>  <SCORE.INTRA.DIHEDRAL.0>
16.2863

>  <SCORE.INTRA.POLAR>
0

>  <SCORE.INTRA.POLAR.0>
0

>  <SCORE.INTRA.REPUL>
-0.314433

>  <SCORE.INTRA.REPUL.0>
0.314433

>  <SCORE.INTRA.SOLV>
4.32798

>  <SCORE.INTRA.SOLV.lig_0>
-103.824

>  <SCORE.INTRA.VDW>
3.82494

>  <SCORE.INTRA.VDW.0>
-5.30945

>  <SCORE.INTRA.norm>
0.208361

>  <SCORE.RESTR>
7.5138

>  <SCORE.RESTR.CAVITY>
7.5138

>  <SCORE.RESTR.norm>
0.1789

>  <SCORE.SYSTEM>
0

>  <SCORE.SYSTEM.CONST>
0

>  <SCORE.SYSTEM.DIHEDRAL>
0

>  <SCORE.SYSTEM.SOLV>
0

>  <SCORE.SYSTEM.norm>
0

>  <SCORE.heavy>
42

>  <SCORE.norm>
-0.0176015

>  <RMSD>
25.897

$$$$
lig.pdb
 OpenBabel11021811513D
libRbt.so/2013.1/901 2013/11/27
 42 45  0  0  0  0  0  0  0  0999 V2000
    1.9577   15.7387   13.2153 C   0  0  2  0  0  0  0  0  0  0  0  0
    3.1877   15.2560   12.5897 O   0  0  0  0  0  0  0  0  0  0  0  0
    1.4472   16.9491   12.3129 C   0  0  2  0  0  0  0  0  0  0  0  0
    1.1403   16.4801   10.9588 N   0  0  0  0  0  0  0  0  0  0  0  0
    2.5639   18.1035   12.3168 C   0  0  1  0  0  0  0  0  0  0  0  0
    2.1477   19.2333   11.5212 O   0  0  0  0  0  0  0  0  0  0  0  0
    2.8017   18.5008   13.7838 C   0  0  2  0  0  0  0  0  0  0  0  0
    3.7649   19.4978   13.8260 O   0  0  0  0  0  0  0  0  0  0  0  0
    3.2651   17.2252   14.6244 C   0  0  2  0  0  0  0  0  0  0  0  0
    2.2754   16.1895   14.5863 O   0  0  0  0  0  0  0  0  0  0  0  0
    3.4929   17.5564   16.0720 C   0  0  0  0  0  0  0  0  0  0  0  0
    4.5058   18.5614   16.1313 O   0  0  0  0  0  0  0  0  0  0  0  0
    6.1333   11.9579   13.0576 C   0  0  2  0  0  0  0  0  0  0  0  0
    6.7171   10.6876   13.4296 N   0  0  0  0  0  0  0  0  0  0  0  0
    5.5532   12.6843   14.3322 C   0  0  0  0  0  0  0  0  0  0  0  0
    4.9094   14.0646   13.9544 C   0  0  2  0  0  0  0  0  0  0  0  0
    4.3791   14.6998   15.1589 N   0  0  0  0  0  0  0  0  0  0  0  0
    3.7306   13.9160   12.8929 C   0  0  2  0  0  0  0  0  0  0  0  0
    4.3264   13.2326   11.6281 C   0  0  2  0  0  0  0  0  0  0  0  0
    3.1566   13.1393   10.6766 O   0  0  0  0  0  0  0  0  0  0  0  0
    4.9321   11.7728   12.0149 C   0  0  1  0  0  0  0  0  0  0  0  0
    5.5713   11.0570   10.9098 O   0  0  0  0  0  0  0  0  0  0  0  0
    2.5729   11.9005   10.7225 C   0  0  1  0  0  0  0  0  0  0  0  0
    1.3568   11.8066    9.9080 C   0  0  2  0  0  0  0  0  0  0  0  0
    0.3600   12.5212   10.5656 O   0  0  0  0  0  0  0  0  0  0  0  0
    1.2273   10.2777    9.7386 C   0  0  2  0  0  0  0  0  0  0  0  0
   -0.0331    9.8973   10.3354 O   0  0  0  0  0  0  0  0  0  0  0  0
    2.4002    9.7104   10.4681 C   0  0  2  0  0  0  0  0  0  0  0  0
    3.3343   10.8191   10.2111 O   0  0  0  0  0  0  0  0  0  0  0  0
    2.9238    8.3883    9.7955 C   0  0  0  0  0  0  0  0  0  0  0  0
    4.1446    7.8670   10.4014 O   0  0  0  0  0  0  0  0  0  0  0  0
   -0.6303    8.6468    9.8764 C   0  0  2  0  0  0  0  0  0  0  0  0
   -1.8389    8.2575   10.8773 C   0  0  2  0  0  0  0  0  0  0  0  0
   -1.3041    8.1369   12.2724 N   0  0  0  0  0  0  0  0  0  0  0  0
   -2.4931    6.8822   10.3631 C   0  0  1  0  0  0  0  0  0  0  0  0
   -2.9700    7.1108    9.0022 O   0  0  0  0  0  0  0  0  0  0  0  0
   -1.3949    5.7259   10.4001 C   0  0  2  0  0  0  0  0  0  0  0  0
   -0.9736    5.5448   11.8072 O   0  0  0  0  0  0  0  0  0  0  0  0
   -0.1601    6.1663    9.4289 C   0  0  1  0  0  0  0  0  0  0  0  0
    0.3936    7.4932    9.8844 O   0  0  0  0  0  0  0  0  0  0  0  0
    0.9464    5.0601    9.4547 C   0  0  0  0  0  0  0  0  0  0  0  0
    1.6684    4.9920   10.7629 N   0  0  0  0  0  0  0  0  0  0  0  0
  1  3  1  0  0  0  0
  1  2  1  6  0  0  0
  3  4  1  6  0  0  0
  3  5  1  0  0  0  0
  5  6  1  6  0  0  0
  7  8  1  6  0  0  0
  7  5  1  0  0  0  0
  9 11  1  1  0  0  0
  9  7  1  0  0  0  0
 10  9  1  0  0  0  0
 10  1  1  0  0  0  0
 12 11  1  0  0  0  0
 13 14  1  1  0  0  0
 15 13  1  0  0  0  0
 16 17  1  1  0  0  0
 16 15  1  0  0  0  0
 18  2  1  6  0  0  0
 18 19  1  0  0  0  0
 18 16  1  0  0  0  0
 19 20  1  6  0  0  0
 19 21  1  0  0  0  0
 21 22  1  6  0  0  0
 21 13  1  0  0  0  0
 23 20  1  6  0  0  0
 23 29  1  0  0  0  0
 24 25  1  1  0  0  0
 24 26  1  0  0  0  0
 24 23  1  0  0  0  0
 26 27  1  1  0  0  0
 26 28  1  0  0  0  0
 28 30  1  6  0  0  0
 29 28  1  0  0  0  0
 30 31  1  0  0  0  0
 32 27  1  1  0  0  0
 32 40  1  0  0  0  0
 33 35  1  0  0  0  0
 33 32  1  0  0  0  0
 33 34  1  1  0  0  0
 35 36  1  6  0  0  0
 35 37  1  0  0  0  0
 37 38  1  1  0  0  0
 37 39  1  0  0  0  0
 39 41  1  1  0  0  0
 40 39  1  0  0  0  0
 41 42  1  0  0  0  0
M  END
>  <CHROM.1>
-161.59697504,-59.51511532,-99.82385699,-97.52344653,174.58127241,157.12027855
174.61750241,167.97716356,-69.97415308,2.18009655,12.00897185,11.81091501
1.23680624,-0.28748162,0.24223053

>  <Name>
lig.pdb

>  <RI>
0

>  <Rbt.Current_Directory>
/home/itssahil/PROJECTS/Mol_Feturizer/New_Systems/rnas/4wcr

>  <Rbt.Executable>
rbdock ($Id: //depot/dev/client3/rdock/2013.1/src/exe/rbdock.cxx#4 $)

>  <Rbt.Library>
libRbt.so (2013.1, Build901 2013/11/27)

>  <Rbt.Parameter_File>
/export/apps/rDock/src/rDock_2013.1_src/data/scripts/dock_solv.prm

>  <Rbt.Receptor>
prm/blind_docking_40.prm

>  <SCORE>
10.3299

>  <SCORE.INTER>
-3.14877

>  <SCORE.INTER.CONST>
1

>  <SCORE.INTER.POLAR>
0

>  <SCORE.INTER.ROT>
9

>  <SCORE.INTER.SOLV>
32.619

>  <SCORE.INTER.VDW>
-22.5722

>  <SCORE.INTER.norm>
-0.0749707

>  <SCORE.INTRA>
5.20861

>  <SCORE.INTRA.DIHEDRAL>
-0.326644

>  <SCORE.INTRA.DIHEDRAL.0>
16.2863

>  <SCORE.INTRA.POLAR>
0

>  <SCORE.INTRA.POLAR.0>
0

>  <SCORE.INTRA.REPUL>
-0.314433

>  <SCORE.INTRA.REPUL.0>
0.314433

>  <SCORE.INTRA.SOLV>
1.79693

>  <SCORE.INTRA.SOLV.lig_0>
-103.824

>  <SCORE.INTRA.VDW>
6.04563

>  <SCORE.INTRA.VDW.0>
-5.30945

>  <SCORE.INTRA.norm>
0.124014

>  <SCORE.RESTR>
8.27003

>  <SCORE.RESTR.CAVITY>
8.27003

>  <SCORE.RESTR.norm>
0.196906

>  <SCORE.SYSTEM>
0

>  <SCORE.SYSTEM.CONST>
0

>  <SCORE.SYSTEM.DIHEDRAL>
0

>  <SCORE.SYSTEM.SOLV>
0

>  <SCORE.SYSTEM.norm>
0

>  <SCORE.heavy>
42

>  <SCORE.norm>
0.245949

>  <RMSD>
25.903

$$$$
lig.pdb
 OpenBabel11021811513D
libRbt.so/2013.1/901 2013/11/27
 42 45  0  0  0  0  0  0  0  0999 V2000
    3.6534   14.8869   14.3510 C   0  0  2  0  0  0  0  0  0  0  0  0
    3.9697   15.5440   13.0840 O   0  0  0  0  0  0  0  0  0  0  0  0
    4.0037   15.9393   15.4955 C   0  0  2  0  0  0  0  0  0  0  0  0
    3.1695   17.1364   15.3587 N   0  0  0  0  0  0  0  0  0  0  0  0
    5.5715   16.2804   15.4215 C   0  0  1  0  0  0  0  0  0  0  0  0
    5.9480   17.2239   16.4465 O   0  0  0  0  0  0  0  0  0  0  0  0
    6.3331   14.9518   15.5675 C   0  0  2  0  0  0  0  0  0  0  0  0
    7.6947   15.2084   15.5061 O   0  0  0  0  0  0  0  0  0  0  0  0
    5.8912   13.9420   14.4127 C   0  0  2  0  0  0  0  0  0  0  0  0
    4.4851   13.6711   14.4685 O   0  0  0  0  0  0  0  0  0  0  0  0
    6.5940   12.6186   14.5216 C   0  0  0  0  0  0  0  0  0  0  0  0
    7.9229   12.7931   14.0284 O   0  0  0  0  0  0  0  0  0  0  0  0
    0.0605   15.2758   10.9818 C   0  0  2  0  0  0  0  0  0  0  0  0
   -0.9813   15.4806    9.9992 N   0  0  0  0  0  0  0  0  0  0  0  0
    0.5625   16.6633   11.5400 C   0  0  0  0  0  0  0  0  0  0  0  0
    1.6975   16.4685   12.6060 C   0  0  2  0  0  0  0  0  0  0  0  0
    2.1383   17.7746   13.0912 N   0  0  0  0  0  0  0  0  0  0  0  0
    2.9568   15.6891   12.0185 C   0  0  2  0  0  0  0  0  0  0  0  0
    2.4527   14.3088   11.5066 C   0  0  2  0  0  0  0  0  0  0  0  0
    3.6987   13.6359   10.9799 O   0  0  0  0  0  0  0  0  0  0  0  0
    1.3241   14.5188   10.3535 C   0  0  1  0  0  0  0  0  0  0  0  0
    0.7349   13.2839    9.8339 O   0  0  0  0  0  0  0  0  0  0  0  0
    3.7941   12.3433   11.4240 C   0  0  1  0  0  0  0  0  0  0  0  0
    3.3739   11.3580   10.4221 C   0  0  2  0  0  0  0  0  0  0  0  0
    1.9878   11.4326   10.3217 O   0  0  0  0  0  0  0  0  0  0  0  0
    4.0410   10.0760   10.9649 C   0  0  2  0  0  0  0  0  0  0  0  0
    2.9764    9.1408   11.2507 O   0  0  0  0  0  0  0  0  0  0  0  0
    4.7652   10.5123   12.1957 C   0  0  2  0  0  0  0  0  0  0  0  0
    5.0932   11.8755   11.7463 O   0  0  0  0  0  0  0  0  0  0  0  0
    6.0811    9.6817   12.4256 C   0  0  0  0  0  0  0  0  0  0  0  0
    7.2731   10.5070   12.5908 O   0  0  0  0  0  0  0  0  0  0  0  0
    2.5868    8.2348   10.1745 C   0  0  2  0  0  0  0  0  0  0  0  0
    1.4725    8.9702    9.2627 C   0  0  2  0  0  0  0  0  0  0  0  0
    0.3028    9.3459   10.1213 N   0  0  0  0  0  0  0  0  0  0  0  0
    1.0519    7.9678    8.0785 C   0  0  1  0  0  0  0  0  0  0  0  0
    2.2601    7.6649    7.3168 O   0  0  0  0  0  0  0  0  0  0  0  0
    0.4201    6.6434    8.7038 C   0  0  2  0  0  0  0  0  0  0  0  0
   -0.8016    7.0292    9.4446 O   0  0  0  0  0  0  0  0  0  0  0  0
    1.5416    5.9497    9.6645 C   0  0  1  0  0  0  0  0  0  0  0  0
    1.9756    6.9301   10.7253 O   0  0  0  0  0  0  0  0  0  0  0  0
    0.9485    4.6535   10.3101 C   0  0  0  0  0  0  0  0  0  0  0  0
    0.7431    3.5529    9.3183 N   0  0  0  0  0  0  0  0  0  0  0  0
  1  3  1  0  0  0  0
  1  2  1  6  0  0  0
  3  4  1  6  0  0  0
  3  5  1  0  0  0  0
  5  6  1  1  0  0  0
  7  8  1  6  0  0  0
  7  5  1  0  0  0  0
  9 11  1  1  0  0  0
  9  7  1  0  0  0  0
 10  9  1  0  0  0  0
 10  1  1  0  0  0  0
 12 11  1  0  0  0  0
 13 14  1  6  0  0  0
 15 13  1  0  0  0  0
 16 17  1  6  0  0  0
 16 15  1  0  0  0  0
 18  2  1  1  0  0  0
 18 19  1  0  0  0  0
 18 16  1  0  0  0  0
 19 20  1  6  0  0  0
 19 21  1  0  0  0  0
 21 22  1  1  0  0  0
 21 13  1  0  0  0  0
 23 20  1  6  0  0  0
 23 29  1  0  0  0  0
 24 25  1  1  0  0  0
 24 26  1  0  0  0  0
 24 23  1  0  0  0  0
 26 27  1  1  0  0  0
 26 28  1  0  0  0  0
 28 30  1  6  0  0  0
 29 28  1  0  0  0  0
 30 31  1  0  0  0  0
 32 27  1  1  0  0  0
 32 40  1  0  0  0  0
 33 35  1  0  0  0  0
 33 32  1  0  0  0  0
 33 34  1  1  0  0  0
 35 36  1  1  0  0  0
 35 37  1  0  0  0  0
 37 38  1  1  0  0  0
 37 39  1  0  0  0  0
 39 41  1  1  0  0  0
 40 39  1  0  0  0  0
 41 42  1  0  0  0  0
M  END
>  <CHROM.1>
-124.03964838,-77.00857953,57.02407865,133.27521994,100.62706131,90.69684736
126.48211803,-87.16891683,69.66802672,3.17940875,12.05672680,11.86659856
1.18733705,-0.55954682,0.30234396

>  <Name>
lig.pdb

>  <RI>
0

>  <Rbt.Current_Directory>
/home/itssahil/PROJECTS/Mol_Feturizer/New_Systems/rnas/4wcr

>  <Rbt.Executable>
rbdock ($Id: //depot/dev/client3/rdock/2013.1/src/exe/rbdock.cxx#4 $)

>  <Rbt.Library>
libRbt.so (2013.1, Build901 2013/11/27)

>  <Rbt.Parameter_File>
/export/apps/rDock/src/rDock_2013.1_src/data/scripts/dock_solv.prm

>  <Rbt.Receptor>
prm/blind_docking_40.prm

>  <SCORE>
5.79497

>  <SCORE.INTER>
-12.2513

>  <SCORE.INTER.CONST>
1

>  <SCORE.INTER.POLAR>
0

>  <SCORE.INTER.ROT>
9

>  <SCORE.INTER.SOLV>
28.8824

>  <SCORE.INTER.VDW>
-27.395

>  <SCORE.INTER.norm>
-0.291697

>  <SCORE.INTRA>
9.70219

>  <SCORE.INTRA.DIHEDRAL>
15.616

>  <SCORE.INTRA.DIHEDRAL.0>
16.2863

>  <SCORE.INTRA.POLAR>
0

>  <SCORE.INTRA.POLAR.0>
0

>  <SCORE.INTRA.REPUL>
-0.314433

>  <SCORE.INTRA.REPUL.0>
0.314433

>  <SCORE.INTRA.SOLV>
2.33857

>  <SCORE.INTRA.SOLV.lig_0>
-103.824

>  <SCORE.INTRA.VDW>
2.29707

>  <SCORE.INTRA.VDW.0>
-5.30945

>  <SCORE.INTRA.norm>
0.231004

>  <SCORE.RESTR>
8.34405

>  <SCORE.RESTR.CAVITY>
8.34405

>  <SCORE.RESTR.norm>
0.198668

>  <SCORE.SYSTEM>
0

>  <SCORE.SYSTEM.CONST>
0

>  <SCORE.SYSTEM.DIHEDRAL>
0

>  <SCORE.SYSTEM.SOLV>
0

>  <SCORE.SYSTEM.norm>
0

>  <SCORE.heavy>
42

>  <SCORE.norm>
0.137975

>  <RMSD>
25.906

$$$$
lig.pdb
 OpenBabel11021811513D
libRbt.so/2013.1/901 2013/11/27
 42 45  0  0  0  0  0  0  0  0999 V2000
    3.7048   10.0196   11.5323 C   0  0  2  0  0  0  0  0  0  0  0  0
    3.5502   11.2605   10.7750 O   0  0  0  0  0  0  0  0  0  0  0  0
    4.9806    9.2844   10.9225 C   0  0  2  0  0  0  0  0  0  0  0  0
    6.1790   10.1075   11.1074 N   0  0  0  0  0  0  0  0  0  0  0  0
    4.6997    8.9606    9.3746 C   0  0  1  0  0  0  0  0  0  0  0  0
    5.8221    8.2821    8.7725 O   0  0  0  0  0  0  0  0  0  0  0  0
    3.4222    8.1058    9.3137 C   0  0  2  0  0  0  0  0  0  0  0  0
    3.1470    7.8077    7.9873 O   0  0  0  0  0  0  0  0  0  0  0  0
    2.2073    8.8952    9.9839 C   0  0  2  0  0  0  0  0  0  0  0  0
    2.4830    9.2075   11.3551 O   0  0  0  0  0  0  0  0  0  0  0  0
    0.9365    8.0939    9.9672 C   0  0  0  0  0  0  0  0  0  0  0  0
   -0.1497    9.0021   10.1538 O   0  0  0  0  0  0  0  0  0  0  0  0
    1.4305   15.1675   10.8952 C   0  0  2  0  0  0  0  0  0  0  0  0
    0.4579   16.1867   11.2241 N   0  0  0  0  0  0  0  0  0  0  0  0
    0.7073   13.8954   10.3056 C   0  0  0  0  0  0  0  0  0  0  0  0
    1.7414   12.7719    9.9443 C   0  0  2  0  0  0  0  0  0  0  0  0
    1.0318   11.6115    9.4096 N   0  0  0  0  0  0  0  0  0  0  0  0
    2.6026   12.3100   11.2026 C   0  0  2  0  0  0  0  0  0  0  0  0
    3.3387   13.5671   11.7498 C   0  0  2  0  0  0  0  0  0  0  0  0
    4.1327   13.0447   12.9242 O   0  0  0  0  0  0  0  0  0  0  0  0
    2.2573   14.7022   12.1852 C   0  0  1  0  0  0  0  0  0  0  0  0
    2.8385   15.9566   12.6657 O   0  0  0  0  0  0  0  0  0  0  0  0
    4.8316   14.0489   13.5410 C   0  0  1  0  0  0  0  0  0  0  0  0
    4.4171   14.2692   14.9305 C   0  0  2  0  0  0  0  0  0  0  0  0
    3.1692   14.8845   14.8994 O   0  0  0  0  0  0  0  0  0  0  0  0
    5.6390   15.0284   15.4906 C   0  0  2  0  0  0  0  0  0  0  0  0
    5.1632   16.3234   15.9224 O   0  0  0  0  0  0  0  0  0  0  0  0
    6.5909   15.1218   14.3439 C   0  0  2  0  0  0  0  0  0  0  0  0
    6.2272   13.8511   13.6951 O   0  0  0  0  0  0  0  0  0  0  0  0
    8.0888   15.0812   14.8225 C   0  0  0  0  0  0  0  0  0  0  0  0
    8.3515   14.0677   15.8388 O   0  0  0  0  0  0  0  0  0  0  0  0
    6.1399   17.2114   16.5456 C   0  0  2  0  0  0  0  0  0  0  0  0
    7.2530   16.3070   17.2920 C   0  0  2  0  0  0  0  0  0  0  0  0
    6.5781   15.4293   18.3025 N   0  0  0  0  0  0  0  0  0  0  0  0
    8.3261   17.2919   17.9721 C   0  0  1  0  0  0  0  0  0  0  0  0
    8.9113   18.0989   16.9054 O   0  0  0  0  0  0  0  0  0  0  0  0
    7.5938   18.2104   19.0513 C   0  0  2  0  0  0  0  0  0  0  0  0
    7.0418   17.3253   20.1011 O   0  0  0  0  0  0  0  0  0  0  0  0
    6.4376   19.0705   18.2862 C   0  0  1  0  0  0  0  0  0  0  0  0
    5.4818   18.1306   17.5950 O   0  0  0  0  0  0  0  0  0  0  0  0
    5.6853   19.9722   19.3204 C   0  0  0  0  0  0  0  0  0  0  0  0
    5.3499   19.2483   20.5856 N   0  0  0  0  0  0  0  0  0  0  0  0
  1  3  1  0  0  0  0
  1  2  1  6  0  0  0
  3  4  1  6  0  0  0
  3  5  1  0  0  0  0
  5  6  1  1  0  0  0
  7  8  1  6  0  0  0
  7  5  1  0  0  0  0
  9 11  1  1  0  0  0
  9  7  1  0  0  0  0
 10  9  1  0  0  0  0
 10  1  1  0  0  0  0
 12 11  1  0  0  0  0
 13 14  1  1  0  0  0
 15 13  1  0  0  0  0
 16 17  1  1  0  0  0
 16 15  1  0  0  0  0
 18  2  1  6  0  0  0
 18 19  1  0  0  0  0
 18 16  1  0  0  0  0
 19 20  1  1  0  0  0
 19 21  1  0  0  0  0
 21 22  1  6  0  0  0
 21 13  1  0  0  0  0
 23 20  1  1  0  0  0
 23 29  1  0  0  0  0
 24 25  1  6  0  0  0
 24 26  1  0  0  0  0
 24 23  1  0  0  0  0
 26 27  1  6  0  0  0
 26 28  1  0  0  0  0
 28 30  1  1  0  0  0
 29 28  1  0  0  0  0
 30 31  1  0  0  0  0
 32 27  1  1  0  0  0
 32 40  1  0  0  0  0
 33 35  1  0  0  0  0
 33 32  1  0  0  0  0
 33 34  1  1  0  0  0
 35 36  1  6  0  0  0
 35 37  1  0  0  0  0
 37 38  1  1  0  0  0
 37 39  1  0  0  0  0
 39 41  1  1  0  0  0
 40 39  1  0  0  0  0
 41 42  1  0  0  0  0
M  END
>  <CHROM.1>
-169.86711765,-160.85870016,-132.30745725,-178.95117674,117.30570899,177.56790253
43.89831743,-29.87766051,-44.20335234,4.50227469,13.72729508,13.55659831
-1.95257989,-0.45800870,0.62890518

>  <Name>
lig.pdb

>  <RI>
0

>  <Rbt.Current_Directory>
/home/itssahil/PROJECTS/Mol_Feturizer/New_Systems/rnas/4wcr

>  <Rbt.Executable>
rbdock ($Id: //depot/dev/client3/rdock/2013.1/src/exe/rbdock.cxx#4 $)

>  <Rbt.Library>
libRbt.so (2013.1, Build901 2013/11/27)

>  <Rbt.Parameter_File>
/export/apps/rDock/src/rDock_2013.1_src/data/scripts/dock_solv.prm

>  <Rbt.Receptor>
prm/blind_docking_40.prm

>  <SCORE>
14.0489

>  <SCORE.INTER>
-3.75916

>  <SCORE.INTER.CONST>
1

>  <SCORE.INTER.POLAR>
0

>  <SCORE.INTER.ROT>
9

>  <SCORE.INTER.SOLV>
30.1075

>  <SCORE.INTER.VDW>
-22.142

>  <SCORE.INTER.norm>
-0.0895038

>  <SCORE.INTRA>
6.51661

>  <SCORE.INTRA.DIHEDRAL>
4.86013

>  <SCORE.INTRA.DIHEDRAL.0>
16.2863

>  <SCORE.INTRA.POLAR>
0

>  <SCORE.INTRA.POLAR.0>
0

>  <SCORE.INTRA.REPUL>
-0.291622

>  <SCORE.INTRA.REPUL.0>
0.314433

>  <SCORE.INTRA.SOLV>
2.85134

>  <SCORE.INTRA.SOLV.lig_0>
-103.824

>  <SCORE.INTRA.VDW>
4.11899

>  <SCORE.INTRA.VDW.0>
-5.30945

>  <SCORE.INTRA.norm>
0.155157

>  <SCORE.RESTR>
11.2915

>  <SCORE.RESTR.CAVITY>
11.2915

>  <SCORE.RESTR.norm>
0.268845

>  <SCORE.SYSTEM>
0

>  <SCORE.SYSTEM.CONST>
0

>  <SCORE.SYSTEM.DIHEDRAL>
0

>  <SCORE.SYSTEM.SOLV>
0

>  <SCORE.SYSTEM.norm>
0

>  <SCORE.heavy>
42

>  <SCORE.norm>
0.334499

>  <RMSD>
25.908

$$$$
lig.pdb
 OpenBabel11021811513D
libRbt.so/2013.1/901 2013/11/27
 42 45  0  0  0  0  0  0  0  0999 V2000
    4.7153   15.5979   13.2026 C   0  0  2  0  0  0  0  0  0  0  0  0
    3.5403   14.7583   12.9755 O   0  0  0  0  0  0  0  0  0  0  0  0
    5.6473   14.7917   14.2133 C   0  0  2  0  0  0  0  0  0  0  0  0
    6.0756   13.5261   13.6112 N   0  0  0  0  0  0  0  0  0  0  0  0
    4.8476   14.5696   15.5884 C   0  0  1  0  0  0  0  0  0  0  0  0
    5.6514   13.8516   16.5481 O   0  0  0  0  0  0  0  0  0  0  0  0
    4.4484   15.9600   16.1116 C   0  0  2  0  0  0  0  0  0  0  0  0
    3.7519   15.8066   17.3012 O   0  0  0  0  0  0  0  0  0  0  0  0
    3.5575   16.7153   15.0233 C   0  0  2  0  0  0  0  0  0  0  0  0
    4.2695   16.8783   13.7904 O   0  0  0  0  0  0  0  0  0  0  0  0
    3.1559   18.0895   15.4788 C   0  0  0  0  0  0  0  0  0  0  0  0
    4.2840   18.6763   16.1290 O   0  0  0  0  0  0  0  0  0  0  0  0
   -0.1159   14.6307   10.4480 C   0  0  2  0  0  0  0  0  0  0  0  0
   -1.0509   14.9087    9.3796 N   0  0  0  0  0  0  0  0  0  0  0  0
    0.2954   15.9699   11.1733 C   0  0  0  0  0  0  0  0  0  0  0  0
    1.3138   15.6957   12.3352 C   0  0  2  0  0  0  0  0  0  0  0  0
    1.6737   16.9596   12.9747 N   0  0  0  0  0  0  0  0  0  0  0  0
    2.6442   14.9843   11.8230 C   0  0  2  0  0  0  0  0  0  0  0  0
    2.2257   13.6482   11.1439 C   0  0  2  0  0  0  0  0  0  0  0  0
    3.5342   13.0374   10.6996 O   0  0  0  0  0  0  0  0  0  0  0  0
    1.2226   13.9452    9.8977 C   0  0  1  0  0  0  0  0  0  0  0  0
    0.7174   12.7536    9.2142 O   0  0  0  0  0  0  0  0  0  0  0  0
    3.6476   11.7384   11.1205 C   0  0  1  0  0  0  0  0  0  0  0  0
    3.1585   10.7691   10.1343 C   0  0  2  0  0  0  0  0  0  0  0  0
    1.7695   10.8541   10.1215 O   0  0  0  0  0  0  0  0  0  0  0  0
    3.8488    9.4758   10.6182 C   0  0  2  0  0  0  0  0  0  0  0  0
    2.7972    8.5439   10.9580 O   0  0  0  0  0  0  0  0  0  0  0  0
    4.6514    9.8912   11.8069 C   0  0  2  0  0  0  0  0  0  0  0  0
    4.9608   11.2579   11.3552 O   0  0  0  0  0  0  0  0  0  0  0  0
    5.9729    9.0490   11.9437 C   0  0  0  0  0  0  0  0  0  0  0  0
    5.7401    7.6220   12.1398 O   0  0  0  0  0  0  0  0  0  0  0  0
    2.2743    7.7152    9.8760 C   0  0  2  0  0  0  0  0  0  0  0  0
    1.1106    8.5399    9.1144 C   0  0  2  0  0  0  0  0  0  0  0  0
    0.0410    8.9056   10.0988 N   0  0  0  0  0  0  0  0  0  0  0  0
    0.5430    7.6223    7.9228 C   0  0  1  0  0  0  0  0  0  0  0  0
    1.6628    7.3222    7.0353 O   0  0  0  0  0  0  0  0  0  0  0  0
   -0.0804    6.2867    8.5325 C   0  0  2  0  0  0  0  0  0  0  0  0
   -1.2122    6.6711    9.4051 O   0  0  0  0  0  0  0  0  0  0  0  0
    1.0966    5.5006    9.3442 C   0  0  1  0  0  0  0  0  0  0  0  0
    1.6652    6.4029   10.4106 O   0  0  0  0  0  0  0  0  0  0  0  0
    0.5146    4.1907    9.9719 C   0  0  0  0  0  0  0  0  0  0  0  0
   -0.5982    4.4540   10.9361 N   0  0  0  0  0  0  0  0  0  0  0  0
  1  3  1  0  0  0  0
  1  2  1  1  0  0  0
  3  4  1  6  0  0  0
  3  5  1  0  0  0  0
  5  6  1  1  0  0  0
  7  8  1  1  0  0  0
  7  5  1  0  0  0  0
  9 11  1  1  0  0  0
  9  7  1  0  0  0  0
 10  9  1  0  0  0  0
 10  1  1  0  0  0  0
 12 11  1  0  0  0  0
 13 14  1  6  0  0  0
 15 13  1  0  0  0  0
 16 17  1  6  0  0  0
 16 15  1  0  0  0  0
 18  2  1  1  0  0  0
 18 19  1  0  0  0  0
 18 16  1  0  0  0  0
 19 20  1  6  0  0  0
 19 21  1  0  0  0  0
 21 22  1  1  0  0  0
 21 13  1  0  0  0  0
 23 20  1  6  0  0  0
 23 29  1  0  0  0  0
 24 25  1  1  0  0  0
 24 26  1  0  0  0  0
 24 23  1  0  0  0  0
 26 27  1  1  0  0  0
 26 28  1  0  0  0  0
 28 30  1  6  0  0  0
 29 28  1  0  0  0  0
 30 31  1  0  0  0  0
 32 27  1  1  0  0  0
 32 40  1  0  0  0  0
 33 35  1  0  0  0  0
 33 32  1  0  0  0  0
 33 34  1  1  0  0  0
 35 36  1  6  0  0  0
 35 37  1  0  0  0  0
 37 38  1  1  0  0  0
 37 39  1  0  0  0  0
 39 41  1  1  0  0  0
 40 39  1  0  0  0  0
 41 42  1  0  0  0  0
M  END
>  <CHROM.1>
-162.50429543,40.64220331,-104.04447715,129.06142599,92.21338990,86.81935615
-61.93944850,-85.96659239,-60.27807975,2.63822273,11.86059937,11.73294676
-1.24819942,0.69015069,-2.85503672

>  <Name>
lig.pdb

>  <RI>
0

>  <Rbt.Current_Directory>
/home/itssahil/PROJECTS/Mol_Feturizer/New_Systems/rnas/4wcr

>  <Rbt.Executable>
rbdock ($Id: //depot/dev/client3/rdock/2013.1/src/exe/rbdock.cxx#4 $)

>  <Rbt.Library>
libRbt.so (2013.1, Build901 2013/11/27)

>  <Rbt.Parameter_File>
/export/apps/rDock/src/rDock_2013.1_src/data/scripts/dock_solv.prm

>  <Rbt.Receptor>
prm/blind_docking_40.prm

>  <SCORE>
-0.644541

>  <SCORE.INTER>
-17.3935

>  <SCORE.INTER.CONST>
1

>  <SCORE.INTER.POLAR>
0

>  <SCORE.INTER.ROT>
9

>  <SCORE.INTER.SOLV>
27.5697

>  <SCORE.INTER.VDW>
-30.3856

>  <SCORE.INTER.norm>
-0.414131

>  <SCORE.INTRA>
8.41644

>  <SCORE.INTRA.DIHEDRAL>
9.46659

>  <SCORE.INTRA.DIHEDRAL.0>
16.2863

>  <SCORE.INTRA.POLAR>
0

>  <SCORE.INTRA.POLAR.0>
0

>  <SCORE.INTRA.REPUL>
-0.274891

>  <SCORE.INTRA.REPUL.0>
0.314433

>  <SCORE.INTRA.SOLV>
3.44306

>  <SCORE.INTRA.SOLV.lig_0>
-103.824

>  <SCORE.INTRA.VDW>
3.33608

>  <SCORE.INTRA.VDW.0>
-5.30945

>  <SCORE.INTRA.norm>
0.200392

>  <SCORE.RESTR>
8.33252

>  <SCORE.RESTR.CAVITY>
8.33252

>  <SCORE.RESTR.norm>
0.198393

>  <SCORE.SYSTEM>
0

>  <SCORE.SYSTEM.CONST>
0

>  <SCORE.SYSTEM.DIHEDRAL>
0

>  <SCORE.SYSTEM.SOLV>
0

>  <SCORE.SYSTEM.norm>
0

>  <SCORE.heavy>
42

>  <SCORE.norm>
-0.0153462

>  <RMSD>
25.915

$$$$
lig.pdb
 OpenBabel11021811513D
libRbt.so/2013.1/901 2013/11/27
 42 45  0  0  0  0  0  0  0  0999 V2000
    2.2101   16.4940   13.2114 C   0  0  2  0  0  0  0  0  0  0  0  0
    3.5622   16.0332   12.9009 O   0  0  0  0  0  0  0  0  0  0  0  0
    1.9282   17.7263   12.2409 C   0  0  2  0  0  0  0  0  0  0  0  0
    1.9739   17.2930   10.8417 N   0  0  0  0  0  0  0  0  0  0  0  0
    2.9964   18.8846   12.5527 C   0  0  1  0  0  0  0  0  0  0  0  0
    2.7800   20.0338   11.7071 O   0  0  0  0  0  0  0  0  0  0  0  0
    2.8563   19.2430   14.0421 C   0  0  2  0  0  0  0  0  0  0  0  0
    3.7680   20.2423   14.3486 O   0  0  0  0  0  0  0  0  0  0  0  0
    3.1086   17.9470   14.9393 C   0  0  2  0  0  0  0  0  0  0  0  0
    2.1707   16.9089   14.6292 O   0  0  0  0  0  0  0  0  0  0  0  0
    2.9645   18.2398   16.4058 C   0  0  0  0  0  0  0  0  0  0  0  0
    3.4925   17.1236   17.1234 O   0  0  0  0  0  0  0  0  0  0  0  0
    6.2086   12.4943   13.3966 C   0  0  2  0  0  0  0  0  0  0  0  0
    6.7914   11.2874   13.9414 N   0  0  0  0  0  0  0  0  0  0  0  0
    6.2071   13.6368   14.4845 C   0  0  0  0  0  0  0  0  0  0  0  0
    5.5751   14.9572   13.9191 C   0  0  2  0  0  0  0  0  0  0  0  0
    5.5863   15.9852   14.9577 N   0  0  0  0  0  0  0  0  0  0  0  0
    4.0761   14.7495   13.4208 C   0  0  2  0  0  0  0  0  0  0  0  0
    4.0991   13.6472   12.3226 C   0  0  2  0  0  0  0  0  0  0  0  0
    2.6539   13.5200   11.9008 O   0  0  0  0  0  0  0  0  0  0  0  0
    4.6932   12.2615   12.9343 C   0  0  1  0  0  0  0  0  0  0  0  0
    4.8139   11.1641   11.9734 O   0  0  0  0  0  0  0  0  0  0  0  0
    2.3933   12.2804   11.3784 C   0  0  1  0  0  0  0  0  0  0  0  0
    1.6164   12.3314   10.1354 C   0  0  2  0  0  0  0  0  0  0  0  0
    0.3132   12.6831   10.4740 O   0  0  0  0  0  0  0  0  0  0  0  0
    1.9106   10.9373    9.5412 C   0  0  2  0  0  0  0  0  0  0  0  0
    0.6417   10.2529    9.4353 O   0  0  0  0  0  0  0  0  0  0  0  0
    2.8305   10.2887   10.5224 C   0  0  2  0  0  0  0  0  0  0  0  0
    3.5142   11.5118   10.9744 O   0  0  0  0  0  0  0  0  0  0  0  0
    3.8510    9.3218    9.8165 C   0  0  0  0  0  0  0  0  0  0  0  0
    4.4542    8.3469   10.7193 O   0  0  0  0  0  0  0  0  0  0  0  0
    0.6170    8.8447    9.8192 C   0  0  2  0  0  0  0  0  0  0  0  0
    1.2627    7.9743    8.6193 C   0  0  2  0  0  0  0  0  0  0  0  0
    0.4869    8.2191    7.3603 N   0  0  0  0  0  0  0  0  0  0  0  0
    1.2351    6.4262    9.0513 C   0  0  1  0  0  0  0  0  0  0  0  0
    2.0086    6.3059   10.2837 O   0  0  0  0  0  0  0  0  0  0  0  0
   -0.2753    5.9643    9.2739 C   0  0  2  0  0  0  0  0  0  0  0  0
   -0.9868    6.1015    7.9835 O   0  0  0  0  0  0  0  0  0  0  0  0
   -0.9235    6.8938   10.4477 C   0  0  1  0  0  0  0  0  0  0  0  0
   -0.8235    8.3468   10.0558 O   0  0  0  0  0  0  0  0  0  0  0  0
   -2.4141    6.4788   10.6808 C   0  0  0  0  0  0  0  0  0  0  0  0
   -3.0848    7.2950   11.7398 N   0  0  0  0  0  0  0  0  0  0  0  0
  1  3  1  0  0  0  0
  1  2  1  6  0  0  0
  3  4  1  6  0  0  0
  3  5  1  0  0  0  0
  5  6  1  6  0  0  0
  7  8  1  1  0  0  0
  7  5  1  0  0  0  0
  9 11  1  1  0  0  0
  9  7  1  0  0  0  0
 10  9  1  0  0  0  0
 10  1  1  0  0  0  0
 12 11  1  0  0  0  0
 13 14  1  1  0  0  0
 15 13  1  0  0  0  0
 16 17  1  1  0  0  0
 16 15  1  0  0  0  0
 18  2  1  6  0  0  0
 18 19  1  0  0  0  0
 18 16  1  0  0  0  0
 19 20  1  1  0  0  0
 19 21  1  0  0  0  0
 21 22  1  6  0  0  0
 21 13  1  0  0  0  0
 23 20  1  6  0  0  0
 23 29  1  0  0  0  0
 24 25  1  1  0  0  0
 24 26  1  0  0  0  0
 24 23  1  0  0  0  0
 26 27  1  1  0  0  0
 26 28  1  0  0  0  0
 28 30  1  6  0  0  0
 29 28  1  0  0  0  0
 30 31  1  0  0  0  0
 32 27  1  6  0  0  0
 32 40  1  0  0  0  0
 33 35  1  0  0  0  0
 33 32  1  0  0  0  0
 33 34  1  6  0  0  0
 35 36  1  1  0  0  0
 35 37  1  0  0  0  0
 37 38  1  6  0  0  0
 37 39  1  0  0  0  0
 39 41  1  6  0  0  0
 40 39  1  0  0  0  0
 41 42  1  0  0  0  0
M  END
>  <CHROM.1>
-168.31407416,-167.28453491,-137.34424598,-154.98980594,-134.21533640,-138.16460364
-160.63978670,-77.37383804,-179.57133213,2.44618385,12.54645452,11.82309864
1.25650684,-0.40639728,0.29006703

>  <Name>
lig.pdb

>  <RI>
0

>  <Rbt.Current_Directory>
/home/itssahil/PROJECTS/Mol_Feturizer/New_Systems/rnas/4wcr

>  <Rbt.Executable>
rbdock ($Id: //depot/dev/client3/rdock/2013.1/src/exe/rbdock.cxx#4 $)

>  <Rbt.Library>
libRbt.so (2013.1, Build901 2013/11/27)

>  <Rbt.Parameter_File>
/export/apps/rDock/src/rDock_2013.1_src/data/scripts/dock_solv.prm

>  <Rbt.Receptor>
prm/blind_docking_40.prm

>  <SCORE>
23.5761

>  <SCORE.INTER>
-11.6939

>  <SCORE.INTER.CONST>
1

>  <SCORE.INTER.POLAR>
0

>  <SCORE.INTER.ROT>
9

>  <SCORE.INTER.SOLV>
26.817

>  <SCORE.INTER.VDW>
-26.3349

>  <SCORE.INTER.norm>
-0.278427

>  <SCORE.INTRA>
27.295

>  <SCORE.INTRA.DIHEDRAL>
8.0729

>  <SCORE.INTRA.DIHEDRAL.0>
16.2863

>  <SCORE.INTRA.POLAR>
0

>  <SCORE.INTRA.POLAR.0>
0

>  <SCORE.INTRA.REPUL>
-0.314433

>  <SCORE.INTRA.REPUL.0>
0.314433

>  <SCORE.INTRA.SOLV>
-1.09993

>  <SCORE.INTRA.SOLV.lig_0>
-103.824

>  <SCORE.INTRA.VDW>
25.3807

>  <SCORE.INTRA.VDW.0>
-5.30945

>  <SCORE.INTRA.norm>
0.64988

>  <SCORE.RESTR>
7.97505

>  <SCORE.RESTR.CAVITY>
7.97505

>  <SCORE.RESTR.norm>
0.189882

>  <SCORE.SYSTEM>
0

>  <SCORE.SYSTEM.CONST>
0

>  <SCORE.SYSTEM.DIHEDRAL>
0

>  <SCORE.SYSTEM.SOLV>
0

>  <SCORE.SYSTEM.norm>
0

>  <SCORE.heavy>
42

>  <SCORE.norm>
0.561336

>  <RMSD>
25.933

$$$$
lig.pdb
 OpenBabel11021811513D
libRbt.so/2013.1/901 2013/11/27
 42 45  0  0  0  0  0  0  0  0999 V2000
    4.6756   15.4484   12.9048 C   0  0  2  0  0  0  0  0  0  0  0  0
    3.5366   14.5658   12.6579 O   0  0  0  0  0  0  0  0  0  0  0  0
    5.6119   14.6835   13.9433 C   0  0  2  0  0  0  0  0  0  0  0  0
    6.0986   13.4295   13.3618 N   0  0  0  0  0  0  0  0  0  0  0  0
    4.7889   14.4435   15.3015 C   0  0  1  0  0  0  0  0  0  0  0  0
    5.5952   13.7619   16.2854 O   0  0  0  0  0  0  0  0  0  0  0  0
    4.3286   15.8228   15.8038 C   0  0  2  0  0  0  0  0  0  0  0  0
    3.6106   15.6537   16.9784 O   0  0  0  0  0  0  0  0  0  0  0  0
    3.4370   16.5376   14.6891 C   0  0  2  0  0  0  0  0  0  0  0  0
    4.1712   16.7165   13.4715 O   0  0  0  0  0  0  0  0  0  0  0  0
    2.9765   17.9000   15.1238 C   0  0  0  0  0  0  0  0  0  0  0  0
    4.0927   18.5647   15.7171 O   0  0  0  0  0  0  0  0  0  0  0  0
   -0.2232   14.7135   10.2885 C   0  0  2  0  0  0  0  0  0  0  0  0
   -1.1580   15.0003    9.2222 N   0  0  0  0  0  0  0  0  0  0  0  0
    0.4333   16.0497   10.8104 C   0  0  0  0  0  0  0  0  0  0  0  0
    1.4560   15.7651   11.9662 C   0  0  2  0  0  0  0  0  0  0  0  0
    2.0454   17.0248   12.4151 N   0  0  0  0  0  0  0  0  0  0  0  0
    2.6274   14.7844   11.5143 C   0  0  2  0  0  0  0  0  0  0  0  0
    1.9667   13.4584   11.0379 C   0  0  2  0  0  0  0  0  0  0  0  0
    3.1362   12.5885   10.6401 O   0  0  0  0  0  0  0  0  0  0  0  0
    0.9583   13.7519    9.7951 C   0  0  1  0  0  0  0  0  0  0  0  0
    0.2348   12.5810    9.2973 O   0  0  0  0  0  0  0  0  0  0  0  0
    2.8384   11.2581   10.7767 C   0  0  1  0  0  0  0  0  0  0  0  0
    2.2186   10.6811    9.5791 C   0  0  2  0  0  0  0  0  0  0  0  0
    0.9178   11.1704    9.5076 O   0  0  0  0  0  0  0  0  0  0  0  0
    2.4657    9.1749    9.8104 C   0  0  2  0  0  0  0  0  0  0  0  0
    1.1664    8.5454    9.8822 O   0  0  0  0  0  0  0  0  0  0  0  0
    3.2089    9.1024   11.1035 C   0  0  2  0  0  0  0  0  0  0  0  0
    3.9325   10.3782   10.9750 O   0  0  0  0  0  0  0  0  0  0  0  0
    4.2227    7.8999   11.1288 C   0  0  0  0  0  0  0  0  0  0  0  0
    4.0023    6.9259   10.0649 O   0  0  0  0  0  0  0  0  0  0  0  0
    1.1355    7.1362   10.2617 C   0  0  2  0  0  0  0  0  0  0  0  0
    1.5880    6.2513    8.9863 C   0  0  2  0  0  0  0  0  0  0  0  0
    0.6682    6.5361    7.8376 N   0  0  0  0  0  0  0  0  0  0  0  0
    1.5549    4.7020    9.4135 C   0  0  1  0  0  0  0  0  0  0  0  0
    2.4740    4.5418   10.5365 O   0  0  0  0  0  0  0  0  0  0  0  0
    0.0682    4.2969    9.8259 C   0  0  2  0  0  0  0  0  0  0  0  0
   -0.7962    4.4719    8.6374 O   0  0  0  0  0  0  0  0  0  0  0  0
   -0.3878    5.2412   11.0758 C   0  0  1  0  0  0  0  0  0  0  0  0
   -0.2816    6.6923   10.6789 O   0  0  0  0  0  0  0  0  0  0  0  0
   -1.8517    4.8822   11.4963 C   0  0  0  0  0  0  0  0  0  0  0  0
   -1.9261    3.6564   12.3502 N   0  0  0  0  0  0  0  0  0  0  0  0
  1  3  1  0  0  0  0
  1  2  1  1  0  0  0
  3  4  1  6  0  0  0
  3  5  1  0  0  0  0
  5  6  1  1  0  0  0
  7  8  1  1  0  0  0
  7  5  1  0  0  0  0
  9 11  1  1  0  0  0
  9  7  1  0  0  0  0
 10  9  1  0  0  0  0
 10  1  1  0  0  0  0
 12 11  1  0  0  0  0
 13 14  1  6  0  0  0
 15 13  1  0  0  0  0
 16 17  1  6  0  0  0
 16 15  1  0  0  0  0
 18  2  1  1  0  0  0
 18 19  1  0  0  0  0
 18 16  1  0  0  0  0
 19 20  1  6  0  0  0
 19 21  1  0  0  0  0
 21 22  1  1  0  0  0
 21 13  1  0  0  0  0
 23 20  1  6  0  0  0
 23 29  1  0  0  0  0
 24 25  1  1  0  0  0
 24 26  1  0  0  0  0
 24 23  1  0  0  0  0
 26 27  1  1  0  0  0
 26 28  1  0  0  0  0
 28 30  1  6  0  0  0
 29 28  1  0  0  0  0
 30 31  1  0  0  0  0
 32 27  1  6  0  0  0
 32 40  1  0  0  0  0
 33 35  1  0  0  0  0
 33 32  1  0  0  0  0
 33 34  1  6  0  0  0
 35 36  1  1  0  0  0
 35 37  1  0  0  0  0
 37 38  1  6  0  0  0
 37 39  1  0  0  0  0
 39 41  1  6  0  0  0
 40 39  1  0  0  0  0
 41 42  1  0  0  0  0
M  END
>  <CHROM.1>
-165.04746587,44.34803574,-88.90046451,152.41519760,88.08131403,-172.68378695
-14.46927248,-76.60010889,79.86874683,2.19407807,11.34369142,11.61260357
-1.19526704,0.78472548,-3.04480504

>  <Name>
lig.pdb

>  <RI>
0

>  <Rbt.Current_Directory>
/home/itssahil/PROJECTS/Mol_Feturizer/New_Systems/rnas/4wcr

>  <Rbt.Executable>
rbdock ($Id: //depot/dev/client3/rdock/2013.1/src/exe/rbdock.cxx#4 $)

>  <Rbt.Library>
libRbt.so (2013.1, Build901 2013/11/27)

>  <Rbt.Parameter_File>
/export/apps/rDock/src/rDock_2013.1_src/data/scripts/dock_solv.prm

>  <Rbt.Receptor>
prm/blind_docking_40.prm

>  <SCORE>
15.0258

>  <SCORE.INTER>
-15.139

>  <SCORE.INTER.CONST>
1

>  <SCORE.INTER.POLAR>
0

>  <SCORE.INTER.ROT>
9

>  <SCORE.INTER.SOLV>
25.1791

>  <SCORE.INTER.VDW>
-28.0857

>  <SCORE.INTER.norm>
-0.360451

>  <SCORE.INTRA>
22.0164

>  <SCORE.INTRA.DIHEDRAL>
2.52788

>  <SCORE.INTRA.DIHEDRAL.0>
16.2863

>  <SCORE.INTRA.POLAR>
0

>  <SCORE.INTRA.POLAR.0>
0

>  <SCORE.INTRA.REPUL>
-0.278999

>  <SCORE.INTRA.REPUL.0>
0.314433

>  <SCORE.INTRA.SOLV>
0.665648

>  <SCORE.INTRA.SOLV.lig_0>
-103.824

>  <SCORE.INTRA.VDW>
21.8146

>  <SCORE.INTRA.VDW.0>
-5.30945

>  <SCORE.INTRA.norm>
0.5242

>  <SCORE.RESTR>
8.14839

>  <SCORE.RESTR.CAVITY>
8.14839

>  <SCORE.RESTR.norm>
0.194009

>  <SCORE.SYSTEM>
0

>  <SCORE.SYSTEM.CONST>
0

>  <SCORE.SYSTEM.DIHEDRAL>
0

>  <SCORE.SYSTEM.SOLV>
0

>  <SCORE.SYSTEM.norm>
0

>  <SCORE.heavy>
42

>  <SCORE.norm>
0.357758

>  <RMSD>
25.954

$$$$
lig.pdb
 OpenBabel11021811513D
libRbt.so/2013.1/901 2013/11/27
 42 45  0  0  0  0  0  0  0  0999 V2000
    2.0651   15.8406   13.5285 C   0  0  2  0  0  0  0  0  0  0  0  0
    3.2471   15.3347   12.8328 O   0  0  0  0  0  0  0  0  0  0  0  0
    1.3741   16.8755   12.5328 C   0  0  2  0  0  0  0  0  0  0  0  0
    0.9498   16.1954   11.3059 N   0  0  0  0  0  0  0  0  0  0  0  0
    2.4019   18.0739   12.2379 C   0  0  1  0  0  0  0  0  0  0  0  0
    1.8220   19.0500   11.3471 O   0  0  0  0  0  0  0  0  0  0  0  0
    2.7754   18.6964   13.5942 C   0  0  2  0  0  0  0  0  0  0  0  0
    3.6662   19.7372   13.3779 O   0  0  0  0  0  0  0  0  0  0  0  0
    3.4171   17.5855   14.5441 C   0  0  2  0  0  0  0  0  0  0  0  0
    2.5032   16.5058   14.7732 O   0  0  0  0  0  0  0  0  0  0  0  0
    3.7831   18.1392   15.8920 C   0  0  0  0  0  0  0  0  0  0  0  0
    4.4861   17.1189   16.6021 O   0  0  0  0  0  0  0  0  0  0  0  0
    6.2124   12.0563   13.3144 C   0  0  2  0  0  0  0  0  0  0  0  0
    6.7985   10.7838   13.6752 N   0  0  0  0  0  0  0  0  0  0  0  0
    5.5871   12.7477   14.5871 C   0  0  0  0  0  0  0  0  0  0  0  0
    4.9402   14.1297   14.2212 C   0  0  2  0  0  0  0  0  0  0  0  0
    4.3677   14.7321   15.4234 N   0  0  0  0  0  0  0  0  0  0  0  0
    3.7950   13.9936   13.1220 C   0  0  2  0  0  0  0  0  0  0  0  0
    4.4353   13.3451   11.8606 C   0  0  2  0  0  0  0  0  0  0  0  0
    3.2953   13.2618   10.8726 O   0  0  0  0  0  0  0  0  0  0  0  0
    5.0447   11.8830   12.2324 C   0  0  1  0  0  0  0  0  0  0  0  0
    5.7241   11.1989   11.1312 O   0  0  0  0  0  0  0  0  0  0  0  0
    2.7718   11.9967   10.8195 C   0  0  1  0  0  0  0  0  0  0  0  0
    1.6464   11.8782    9.8864 C   0  0  2  0  0  0  0  0  0  0  0  0
    0.5566   12.5208   10.4660 O   0  0  0  0  0  0  0  0  0  0  0  0
    1.6095   10.3524    9.6543 C   0  0  2  0  0  0  0  0  0  0  0  0
    0.3175    9.8922   10.1110 O   0  0  0  0  0  0  0  0  0  0  0  0
    2.7328    9.8122   10.4766 C   0  0  2  0  0  0  0  0  0  0  0  0
    3.6315   10.9715   10.3500 O   0  0  0  0  0  0  0  0  0  0  0  0
    3.3837    8.5420    9.8152 C   0  0  0  0  0  0  0  0  0  0  0  0
    4.4534    7.9503   10.6119 O   0  0  0  0  0  0  0  0  0  0  0  0
   -0.1780    8.6433    9.5405 C   0  0  2  0  0  0  0  0  0  0  0  0
   -1.5094    8.2038   10.3458 C   0  0  2  0  0  0  0  0  0  0  0  0
   -1.1791    8.0560   11.8004 N   0  0  0  0  0  0  0  0  0  0  0  0
   -2.0505    6.8305    9.7093 C   0  0  1  0  0  0  0  0  0  0  0  0
   -2.3308    7.0865    8.2995 O   0  0  0  0  0  0  0  0  0  0  0  0
   -0.9428    5.6951    9.8776 C   0  0  2  0  0  0  0  0  0  0  0  0
   -0.7252    5.4842   11.3262 O   0  0  0  0  0  0  0  0  0  0  0  0
    0.4090    6.1853    9.1066 C   0  0  1  0  0  0  0  0  0  0  0  0
    0.8603    7.5099    9.6692 O   0  0  0  0  0  0  0  0  0  0  0  0
    1.5253    5.1005    9.2662 C   0  0  0  0  0  0  0  0  0  0  0  0
    1.8565    4.8148   10.6966 N   0  0  0  0  0  0  0  0  0  0  0  0
  1  3  1  0  0  0  0
  1  2  1  6  0  0  0
  3  4  1  6  0  0  0
  3  5  1  0  0  0  0
  5  6  1  6  0  0  0
  7  8  1  6  0  0  0
  7  5  1  0  0  0  0
  9 11  1  1  0  0  0
  9  7  1  0  0  0  0
 10  9  1  0  0  0  0
 10  1  1  0  0  0  0
 12 11  1  0  0  0  0
 13 14  1  1  0  0  0
 15 13  1  0  0  0  0
 16 17  1  1  0  0  0
 16 15  1  0  0  0  0
 18  2  1  6  0  0  0
 18 19  1  0  0  0  0
 18 16  1  0  0  0  0
 19 20  1  6  0  0  0
 19 21  1  0  0  0  0
 21 22  1  6  0  0  0
 21 13  1  0  0  0  0
 23 20  1  6  0  0  0
 23 29  1  0  0  0  0
 24 25  1  1  0  0  0
 24 26  1  0  0  0  0
 24 23  1  0  0  0  0
 26 27  1  1  0  0  0
 26 28  1  0  0  0  0
 28 30  1  6  0  0  0
 29 28  1  0  0  0  0
 30 31  1  0  0  0  0
 32 27  1  1  0  0  0
 32 40  1  0  0  0  0
 33 35  1  0  0  0  0
 33 32  1  0  0  0  0
 33 34  1  1  0  0  0
 35 36  1  6  0  0  0
 35 37  1  0  0  0  0
 37 38  1  1  0  0  0
 37 39  1  0  0  0  0
 39 41  1  1  0  0  0
 40 39  1  0  0  0  0
 41 42  1  0  0  0  0
M  END
>  <CHROM.1>
-152.57372333,-173.28993733,-93.86549109,-100.88107163,179.06476569,156.31400613
-177.77562924,171.42164896,-58.35994714,2.37109185,12.03091279,11.77670880
1.25880766,-0.41476747,0.24611507

>  <Name>
lig.pdb

>  <RI>
0

>  <Rbt.Current_Directory>
/home/itssahil/PROJECTS/Mol_Feturizer/New_Systems/rnas/4wcr

>  <Rbt.Executable>
rbdock ($Id: //depot/dev/client3/rdock/2013.1/src/exe/rbdock.cxx#4 $)

>  <Rbt.Library>
libRbt.so (2013.1, Build901 2013/11/27)

>  <Rbt.Parameter_File>
/export/apps/rDock/src/rDock_2013.1_src/data/scripts/dock_solv.prm

>  <Rbt.Receptor>
prm/blind_docking_40.prm

>  <SCORE>
8.36953

>  <SCORE.INTER>
-6.83321

>  <SCORE.INTER.CONST>
1

>  <SCORE.INTER.POLAR>
0

>  <SCORE.INTER.ROT>
9

>  <SCORE.INTER.SOLV>
31.6981

>  <SCORE.INTER.VDW>
-24.7215

>  <SCORE.INTER.norm>
-0.162695

>  <SCORE.INTRA>
7.03256

>  <SCORE.INTRA.DIHEDRAL>
0.140529

>  <SCORE.INTRA.DIHEDRAL.0>
16.2863

>  <SCORE.INTRA.POLAR>
0

>  <SCORE.INTRA.POLAR.0>
0

>  <SCORE.INTRA.REPUL>
-0.314433

>  <SCORE.INTRA.REPUL.0>
0.314433

>  <SCORE.INTRA.SOLV>
1.84921

>  <SCORE.INTRA.SOLV.lig_0>
-103.824

>  <SCORE.INTRA.VDW>
7.60986

>  <SCORE.INTRA.VDW.0>
-5.30945

>  <SCORE.INTRA.norm>
0.167442

>  <SCORE.RESTR>
8.17018

>  <SCORE.RESTR.CAVITY>
8.17018

>  <SCORE.RESTR.norm>
0.194528

>  <SCORE.SYSTEM>
0

>  <SCORE.SYSTEM.CONST>
0

>  <SCORE.SYSTEM.DIHEDRAL>
0

>  <SCORE.SYSTEM.SOLV>
0

>  <SCORE.SYSTEM.norm>
0

>  <SCORE.heavy>
42

>  <SCORE.norm>
0.199274

>  <RMSD>
25.966

$$$$
lig.pdb
 OpenBabel11021811513D
libRbt.so/2013.1/901 2013/11/27
 42 45  0  0  0  0  0  0  0  0999 V2000
    1.6115   12.1462    9.3674 C   0  0  2  0  0  0  0  0  0  0  0  0
    2.1316   11.8398   10.6989 O   0  0  0  0  0  0  0  0  0  0  0  0
    0.2500   12.9425    9.5960 C   0  0  2  0  0  0  0  0  0  0  0  0
    0.5079   14.1978   10.3070 N   0  0  0  0  0  0  0  0  0  0  0  0
   -0.7757   11.9951   10.3898 C   0  0  1  0  0  0  0  0  0  0  0  0
   -2.0345   12.6639   10.6152 O   0  0  0  0  0  0  0  0  0  0  0  0
   -0.9554   10.7173    9.5523 C   0  0  2  0  0  0  0  0  0  0  0  0
   -1.8364    9.8721   10.2103 O   0  0  0  0  0  0  0  0  0  0  0  0
    0.4578   10.0080    9.3326 C   0  0  2  0  0  0  0  0  0  0  0  0
    1.3748   10.8745    8.6530 O   0  0  0  0  0  0  0  0  0  0  0  0
    0.3399    8.7616    8.5020 C   0  0  0  0  0  0  0  0  0  0  0  0
   -0.4301    7.8171    9.2467 O   0  0  0  0  0  0  0  0  0  0  0  0
    5.5598    9.5844   12.4114 C   0  0  2  0  0  0  0  0  0  0  0  0
    6.8822    9.0204   12.5738 N   0  0  0  0  0  0  0  0  0  0  0  0
    4.9559    9.1625   11.0164 C   0  0  0  0  0  0  0  0  0  0  0  0
    3.5217    9.7660   10.8137 C   0  0  2  0  0  0  0  0  0  0  0  0
    3.0024    9.3583    9.5098 N   0  0  0  0  0  0  0  0  0  0  0  0
    3.5143   11.3572   10.8927 C   0  0  2  0  0  0  0  0  0  0  0  0
    4.0771   11.7567   12.2874 C   0  0  2  0  0  0  0  0  0  0  0  0
    4.0270   13.2667   12.2840 O   0  0  0  0  0  0  0  0  0  0  0  0
    5.5900   11.1845   12.4640 C   0  0  1  0  0  0  0  0  0  0  0  0
    6.2038   11.4532   13.7653 O   0  0  0  0  0  0  0  0  0  0  0  0
    4.7934   13.7942   13.2899 C   0  0  1  0  0  0  0  0  0  0  0  0
    4.4524   15.1856   13.6041 C   0  0  2  0  0  0  0  0  0  0  0  0
    4.9236   15.9751   12.5594 O   0  0  0  0  0  0  0  0  0  0  0  0
    5.0588   15.3308   15.0163 C   0  0  2  0  0  0  0  0  0  0  0  0
    6.0584   16.3719   14.9358 O   0  0  0  0  0  0  0  0  0  0  0  0
    5.6489   13.9931   15.3196 C   0  0  2  0  0  0  0  0  0  0  0  0
    4.6771   13.1846   14.5648 O   0  0  0  0  0  0  0  0  0  0  0  0
    5.5686   13.6524   16.8531 C   0  0  0  0  0  0  0  0  0  0  0  0
    6.1686   12.3683   17.1998 O   0  0  0  0  0  0  0  0  0  0  0  0
    6.2374   17.2083   16.1188 C   0  0  2  0  0  0  0  0  0  0  0  0
    7.8161   17.5046   16.3038 C   0  0  2  0  0  0  0  0  0  0  0  0
    8.5502   16.2038   16.4288 N   0  0  0  0  0  0  0  0  0  0  0  0
    8.0040   18.4287   17.6056 C   0  0  1  0  0  0  0  0  0  0  0  0
    7.2461   19.6560   17.3795 O   0  0  0  0  0  0  0  0  0  0  0  0
    7.4671   17.6507   18.8905 C   0  0  2  0  0  0  0  0  0  0  0  0
    8.2901   16.4325   19.0602 O   0  0  0  0  0  0  0  0  0  0  0  0
    5.8883   17.3119   18.6568 C   0  0  1  0  0  0  0  0  0  0  0  0
    5.7255   16.5054   17.3928 O   0  0  0  0  0  0  0  0  0  0  0  0
    5.3318   16.5314   19.8936 C   0  0  0  0  0  0  0  0  0  0  0  0
    5.4971   17.2828   21.1763 N   0  0  0  0  0  0  0  0  0  0  0  0
  1  3  1  0  0  0  0
  1  2  1  1  0  0  0
  3  4  1  1  0  0  0
  3  5  1  0  0  0  0
  5  6  1  6  0  0  0
  7  8  1  1  0  0  0
  7  5  1  0  0  0  0
  9 11  1  6  0  0  0
  9  7  1  0  0  0  0
 10  9  1  0  0  0  0
 10  1  1  0  0  0  0
 12 11  1  0  0  0  0
 13 14  1  6  0  0  0
 15 13  1  0  0  0  0
 16 17  1  6  0  0  0
 16 15  1  0  0  0  0
 18  2  1  1  0  0  0
 18 19  1  0  0  0  0
 18 16  1  0  0  0  0
 19 20  1  6  0  0  0
 19 21  1  0  0  0  0
 21 22  1  1  0  0  0
 21 13  1  0  0  0  0
 23 20  1  6  0  0  0
 23 29  1  0  0  0  0
 24 25  1  6  0  0  0
 24 26  1  0  0  0  0
 24 23  1  0  0  0  0
 26 27  1  6  0  0  0
 26 28  1  0  0  0  0
 28 30  1  1  0  0  0
 29 28  1  0  0  0  0
 30 31  1  0  0  0  0
 32 27  1  6  0  0  0
 32 40  1  0  0  0  0
 33 35  1  0  0  0  0
 33 32  1  0  0  0  0
 33 34  1  1  0  0  0
 35 36  1  6  0  0  0
 35 37  1  0  0  0  0
 37 38  1  6  0  0  0
 37 39  1  0  0  0  0
 39 41  1  1  0  0  0
 40 39  1  0  0  0  0
 41 42  1  0  0  0  0
M  END
>  <CHROM.1>
-167.07435368,-65.33167867,-89.78936767,-164.53622089,-161.52698133,146.59455367
-178.37828216,140.99666850,57.72278434,4.06396575,13.33849421,13.50009729
2.18059472,0.50604718,-2.57868140

>  <Name>
lig.pdb

>  <RI>
0

>  <Rbt.Current_Directory>
/home/itssahil/PROJECTS/Mol_Feturizer/New_Systems/rnas/4wcr

>  <Rbt.Executable>
rbdock ($Id: //depot/dev/client3/rdock/2013.1/src/exe/rbdock.cxx#4 $)

>  <Rbt.Library>
libRbt.so (2013.1, Build901 2013/11/27)

>  <Rbt.Parameter_File>
/export/apps/rDock/src/rDock_2013.1_src/data/scripts/dock_solv.prm

>  <Rbt.Receptor>
prm/blind_docking_40.prm

>  <SCORE>
21.4491

>  <SCORE.INTER>
5.59328

>  <SCORE.INTER.CONST>
1

>  <SCORE.INTER.POLAR>
0

>  <SCORE.INTER.ROT>
9

>  <SCORE.INTER.SOLV>
31.5596

>  <SCORE.INTER.VDW>
-16.391

>  <SCORE.INTER.norm>
0.133173

>  <SCORE.INTRA>
4.51785

>  <SCORE.INTRA.DIHEDRAL>
0.744905

>  <SCORE.INTRA.DIHEDRAL.0>
16.2863

>  <SCORE.INTRA.POLAR>
0

>  <SCORE.INTRA.POLAR.0>
0

>  <SCORE.INTRA.REPUL>
-0.314433

>  <SCORE.INTRA.REPUL.0>
0.314433

>  <SCORE.INTRA.SOLV>
0.614109

>  <SCORE.INTRA.SOLV.lig_0>
-103.824

>  <SCORE.INTRA.VDW>
5.41051

>  <SCORE.INTRA.VDW.0>
-5.30945

>  <SCORE.INTRA.norm>
0.107568

>  <SCORE.RESTR>
11.338

>  <SCORE.RESTR.CAVITY>
11.338

>  <SCORE.RESTR.norm>
0.269952

>  <SCORE.SYSTEM>
0

>  <SCORE.SYSTEM.CONST>
0

>  <SCORE.SYSTEM.DIHEDRAL>
0

>  <SCORE.SYSTEM.SOLV>
0

>  <SCORE.SYSTEM.norm>
0

>  <SCORE.heavy>
42

>  <SCORE.norm>
0.510694

>  <RMSD>
25.993

$$$$
lig.pdb
 OpenBabel11021811513D
libRbt.so/2013.1/901 2013/11/27
 42 45  0  0  0  0  0  0  0  0999 V2000
    2.2432   15.7326   13.4733 C   0  0  2  0  0  0  0  0  0  0  0  0
    3.5060   15.2448   12.9215 O   0  0  0  0  0  0  0  0  0  0  0  0
    1.6579   16.7572   12.4020 C   0  0  2  0  0  0  0  0  0  0  0  0
    1.3905   16.0711   11.1349 N   0  0  0  0  0  0  0  0  0  0  0  0
    2.6951   17.9711   12.2276 C   0  0  1  0  0  0  0  0  0  0  0  0
    2.2088   18.9386   11.2736 O   0  0  0  0  0  0  0  0  0  0  0  0
    2.8978   18.5989   13.6173 C   0  0  2  0  0  0  0  0  0  0  0  0
    3.7921   19.6531   13.5052 O   0  0  0  0  0  0  0  0  0  0  0  0
    3.4406   17.4976   14.6375 C   0  0  2  0  0  0  0  0  0  0  0  0
    2.5225   16.4041   14.7597 O   0  0  0  0  0  0  0  0  0  0  0  0
    3.6379   18.0564   16.0181 C   0  0  0  0  0  0  0  0  0  0  0  0
    4.3957   17.1043   16.7656 O   0  0  0  0  0  0  0  0  0  0  0  0
    6.3505   11.8795   13.5180 C   0  0  2  0  0  0  0  0  0  0  0  0
    6.8801   10.5851   13.8883 N   0  0  0  0  0  0  0  0  0  0  0  0
    5.6656   12.5637   14.7636 C   0  0  0  0  0  0  0  0  0  0  0  0
    5.0783   13.9692   14.3867 C   0  0  2  0  0  0  0  0  0  0  0  0
    4.4482   14.5644   15.5633 N   0  0  0  0  0  0  0  0  0  0  0  0
    4.0003   13.8844   13.2166 C   0  0  2  0  0  0  0  0  0  0  0  0
    4.7006   13.2424   11.9841 C   0  0  2  0  0  0  0  0  0  0  0  0
    3.6221   13.2081   10.9265 O   0  0  0  0  0  0  0  0  0  0  0  0
    5.2480   11.7577   12.3631 C   0  0  1  0  0  0  0  0  0  0  0  0
    5.9764   11.0762   11.2921 O   0  0  0  0  0  0  0  0  0  0  0  0
    3.0231   11.9775   10.8636 C   0  0  1  0  0  0  0  0  0  0  0  0
    1.9504   11.9098    9.8657 C   0  0  2  0  0  0  0  0  0  0  0  0
    0.8710   12.6316   10.3662 O   0  0  0  0  0  0  0  0  0  0  0  0
    1.8303   10.3847    9.6583 C   0  0  2  0  0  0  0  0  0  0  0  0
    0.4865   10.0162   10.0431 O   0  0  0  0  0  0  0  0  0  0  0  0
    2.8655    9.7929   10.5571 C   0  0  2  0  0  0  0  0  0  0  0  0
    3.8423   10.8908   10.4655 O   0  0  0  0  0  0  0  0  0  0  0  0
    3.4725    8.4707    9.9590 C   0  0  0  0  0  0  0  0  0  0  0  0
    3.0321    8.1881    8.5969 O   0  0  0  0  0  0  0  0  0  0  0  0
    0.2094    8.5905   10.1904 C   0  0  2  0  0  0  0  0  0  0  0  0
    0.3048    7.8960    8.7334 C   0  0  2  0  0  0  0  0  0  0  0  0
   -0.6709    8.5573    7.8074 N   0  0  0  0  0  0  0  0  0  0  0  0
    0.0023    6.3266    8.9049 C   0  0  1  0  0  0  0  0  0  0  0  0
    1.0001    5.7905    9.8261 O   0  0  0  0  0  0  0  0  0  0  0  0
   -1.4731    6.1303    9.4786 C   0  0  2  0  0  0  0  0  0  0  0  0
   -2.4229    6.6831    8.4874 O   0  0  0  0  0  0  0  0  0  0  0  0
   -1.5626    6.8875   10.9210 C   0  0  1  0  0  0  0  0  0  0  0  0
   -1.2059    8.3431   10.7514 O   0  0  0  0  0  0  0  0  0  0  0  0
   -3.0052    6.7299   11.5064 C   0  0  0  0  0  0  0  0  0  0  0  0
   -3.5728    8.0204   12.0063 N   0  0  0  0  0  0  0  0  0  0  0  0
  1  3  1  0  0  0  0
  1  2  1  6  0  0  0
  3  4  1  6  0  0  0
  3  5  1  0  0  0  0
  5  6  1  6  0  0  0
  7  8  1  6  0  0  0
  7  5  1  0  0  0  0
  9 11  1  1  0  0  0
  9  7  1  0  0  0  0
 10  9  1  0  0  0  0
 10  1  1  0  0  0  0
 12 11  1  0  0  0  0
 13 14  1  1  0  0  0
 15 13  1  0  0  0  0
 16 17  1  1  0  0  0
 16 15  1  0  0  0  0
 18  2  1  6  0  0  0
 18 19  1  0  0  0  0
 18 16  1  0  0  0  0
 19 20  1  6  0  0  0
 19 21  1  0  0  0  0
 21 22  1  6  0  0  0
 21 13  1  0  0  0  0
 23 20  1  6  0  0  0
 23 29  1  0  0  0  0
 24 25  1  1  0  0  0
 24 26  1  0  0  0  0
 24 23  1  0  0  0  0
 26 27  1  1  0  0  0
 26 28  1  0  0  0  0
 28 30  1  6  0  0  0
 29 28  1  0  0  0  0
 30 31  1  0  0  0  0
 32 27  1  6  0  0  0
 32 40  1  0  0  0  0
 33 35  1  0  0  0  0
 33 32  1  0  0  0  0
 33 34  1  6  0  0  0
 35 36  1  1  0  0  0
 35 37  1  0  0  0  0
 37 38  1  6  0  0  0
 37 39  1  0  0  0  0
 39 41  1  6  0  0  0
 40 39  1  0  0  0  0
 41 42  1  0  0  0  0
M  END
>  <CHROM.1>
-149.21263243,-167.14588083,-98.59821337,-97.74613232,178.86388755,-168.08064988
7.22972982,-67.12649048,-132.51130535,2.26554023,12.13193807,11.74180994
1.17171742,-0.28971438,0.30812816

>  <Name>
lig.pdb

>  <RI>
0

>  <Rbt.Current_Directory>
/home/itssahil/PROJECTS/Mol_Feturizer/New_Systems/rnas/4wcr

>  <Rbt.Executable>
rbdock ($Id: //depot/dev/client3/rdock/2013.1/src/exe/rbdock.cxx#4 $)

>  <Rbt.Library>
libRbt.so (2013.1, Build901 2013/11/27)

>  <Rbt.Parameter_File>
/export/apps/rDock/src/rDock_2013.1_src/data/scripts/dock_solv.prm

>  <Rbt.Receptor>
prm/blind_docking_40.prm

>  <SCORE>
11.4081

>  <SCORE.INTER>
-6.83175

>  <SCORE.INTER.CONST>
1

>  <SCORE.INTER.POLAR>
0

>  <SCORE.INTER.ROT>
9

>  <SCORE.INTER.SOLV>
26.4779

>  <SCORE.INTER.VDW>
-22.9805

>  <SCORE.INTER.norm>
-0.162661

>  <SCORE.INTRA>
10.8811

>  <SCORE.INTRA.DIHEDRAL>
8.76298

>  <SCORE.INTRA.DIHEDRAL.0>
16.2863

>  <SCORE.INTRA.POLAR>
0

>  <SCORE.INTRA.POLAR.0>
0

>  <SCORE.INTRA.REPUL>
-0.314433

>  <SCORE.INTRA.REPUL.0>
0.314433

>  <SCORE.INTRA.SOLV>
1.69762

>  <SCORE.INTRA.SOLV.lig_0>
-103.824

>  <SCORE.INTRA.VDW>
7.22301

>  <SCORE.INTRA.VDW.0>
-5.30945

>  <SCORE.INTRA.norm>
0.259075

>  <SCORE.RESTR>
7.3587

>  <SCORE.RESTR.CAVITY>
7.3587

>  <SCORE.RESTR.norm>
0.175207

>  <SCORE.SYSTEM>
0

>  <SCORE.SYSTEM.CONST>
0

>  <SCORE.SYSTEM.DIHEDRAL>
0

>  <SCORE.SYSTEM.SOLV>
0

>  <SCORE.SYSTEM.norm>
0

>  <SCORE.heavy>
42

>  <SCORE.norm>
0.271621

>  <RMSD>
26.016

$$$$
lig.pdb
 OpenBabel11021811513D
libRbt.so/2013.1/901 2013/11/27
 42 45  0  0  0  0  0  0  0  0999 V2000
    5.7935   14.4024   13.2352 C   0  0  2  0  0  0  0  0  0  0  0  0
    4.3595   14.4049   13.5193 O   0  0  0  0  0  0  0  0  0  0  0  0
    6.3152   12.9416   13.6010 C   0  0  2  0  0  0  0  0  0  0  0  0
    5.6603   11.9406   12.7544 N   0  0  0  0  0  0  0  0  0  0  0  0
    6.0570   12.6771   15.1640 C   0  0  1  0  0  0  0  0  0  0  0  0
    6.5223   11.3680   15.5544 O   0  0  0  0  0  0  0  0  0  0  0  0
    6.7823   13.7903   15.9393 C   0  0  2  0  0  0  0  0  0  0  0  0
    6.5789   13.5944   17.2972 O   0  0  0  0  0  0  0  0  0  0  0  0
    6.2339   15.2179   15.4814 C   0  0  2  0  0  0  0  0  0  0  0  0
    6.4399   15.4290   14.0790 O   0  0  0  0  0  0  0  0  0  0  0  0
    6.9252   16.3435   16.1971 C   0  0  0  0  0  0  0  0  0  0  0  0
    5.9844   17.4087   16.3381 O   0  0  0  0  0  0  0  0  0  0  0  0
    0.6559   16.7458   12.7603 C   0  0  2  0  0  0  0  0  0  0  0  0
   -0.2258   17.8146   12.3441 N   0  0  0  0  0  0  0  0  0  0  0  0
    1.7482   17.2981   13.7557 C   0  0  0  0  0  0  0  0  0  0  0  0
    2.7212   16.1576   14.2193 C   0  0  2  0  0  0  0  0  0  0  0  0
    3.7193   16.7112   15.1321 N   0  0  0  0  0  0  0  0  0  0  0  0
    3.4734   15.4654   12.9973 C   0  0  2  0  0  0  0  0  0  0  0  0
    2.3845   14.8932   12.0442 C   0  0  2  0  0  0  0  0  0  0  0  0
    3.1749   14.2513   10.9281 O   0  0  0  0  0  0  0  0  0  0  0  0
    1.4202   16.0919   11.5143 C   0  0  1  0  0  0  0  0  0  0  0  0
    0.3198   15.6628   10.6499 O   0  0  0  0  0  0  0  0  0  0  0  0
    2.4420   13.2870   10.2874 C   0  0  1  0  0  0  0  0  0  0  0  0
    2.4319   12.0044   10.9986 C   0  0  2  0  0  0  0  0  0  0  0  0
    3.6916   11.4333   10.8436 O   0  0  0  0  0  0  0  0  0  0  0  0
    1.1940   11.3256   10.3741 C   0  0  2  0  0  0  0  0  0  0  0  0
    1.6611   10.1198    9.7279 O   0  0  0  0  0  0  0  0  0  0  0  0
    0.6583   12.3248    9.4023 C   0  0  2  0  0  0  0  0  0  0  0  0
    1.0536   13.5351   10.1416 O   0  0  0  0  0  0  0  0  0  0  0  0
   -0.9082   12.2443    9.2843 C   0  0  0  0  0  0  0  0  0  0  0  0
   -1.6090   12.6747   10.4897 O   0  0  0  0  0  0  0  0  0  0  0  0
    0.6589    9.1029    9.4240 C   0  0  2  0  0  0  0  0  0  0  0  0
    0.9186    7.8248   10.3796 C   0  0  2  0  0  0  0  0  0  0  0  0
    2.3103    7.3158   10.1545 N   0  0  0  0  0  0  0  0  0  0  0  0
   -0.1908    6.7118   10.0415 C   0  0  1  0  0  0  0  0  0  0  0  0
   -1.4982    7.3138   10.2866 O   0  0  0  0  0  0  0  0  0  0  0  0
   -0.0428    6.2607    8.5186 C   0  0  2  0  0  0  0  0  0  0  0  0
    1.2954    5.6507    8.3539 O   0  0  0  0  0  0  0  0  0  0  0  0
   -0.2514    7.5761    7.5762 C   0  0  1  0  0  0  0  0  0  0  0  0
    0.7521    8.6357    7.9570 O   0  0  0  0  0  0  0  0  0  0  0  0
   -0.0952    7.1727    6.0724 C   0  0  0  0  0  0  0  0  0  0  0  0
   -0.8053    8.1064    5.1444 N   0  0  0  0  0  0  0  0  0  0  0  0
  1  3  1  0  0  0  0
  1  2  1  1  0  0  0
  3  4  1  6  0  0  0
  3  5  1  0  0  0  0
  5  6  1  1  0  0  0
  7  8  1  1  0  0  0
  7  5  1  0  0  0  0
  9 11  1  1  0  0  0
  9  7  1  0  0  0  0
 10  9  1  0  0  0  0
 10  1  1  0  0  0  0
 12 11  1  0  0  0  0
 13 14  1  6  0  0  0
 15 13  1  0  0  0  0
 16 17  1  1  0  0  0
 16 15  1  0  0  0  0
 18  2  1  1  0  0  0
 18 19  1  0  0  0  0
 18 16  1  0  0  0  0
 19 20  1  6  0  0  0
 19 21  1  0  0  0  0
 21 22  1  6  0  0  0
 21 13  1  0  0  0  0
 23 20  1  1  0  0  0
 23 29  1  0  0  0  0
 24 25  1  6  0  0  0
 24 26  1  0  0  0  0
 24 23  1  0  0  0  0
 26 27  1  6  0  0  0
 26 28  1  0  0  0  0
 28 30  1  1  0  0  0
 29 28  1  0  0  0  0
 30 31  1  0  0  0  0
 32 27  1  6  0  0  0
 32 40  1  0  0  0  0
 33 35  1  0  0  0  0
 33 32  1  0  0  0  0
 33 34  1  6  0  0  0
 35 36  1  6  0  0  0
 35 37  1  0  0  0  0
 37 38  1  1  0  0  0
 37 39  1  0  0  0  0
 39 41  1  6  0  0  0
 40 39  1  0  0  0  0
 41 42  1  0  0  0  0
M  END
>  <CHROM.1>
-164.63153917,-148.26811040,-123.36585702,156.91048893,-81.04758883,161.65839008
68.10022861,-111.03226973,155.84844275,2.54890301,12.40446944,11.69488379
-0.96701580,0.65074569,-2.82087752

>  <Name>
lig.pdb

>  <RI>
0

>  <Rbt.Current_Directory>
/home/itssahil/PROJECTS/Mol_Feturizer/New_Systems/rnas/4wcr

>  <Rbt.Executable>
rbdock ($Id: //depot/dev/client3/rdock/2013.1/src/exe/rbdock.cxx#4 $)

>  <Rbt.Library>
libRbt.so (2013.1, Build901 2013/11/27)

>  <Rbt.Parameter_File>
/export/apps/rDock/src/rDock_2013.1_src/data/scripts/dock_solv.prm

>  <Rbt.Receptor>
prm/blind_docking_40.prm

>  <SCORE>
4.95823

>  <SCORE.INTER>
-11.1914

>  <SCORE.INTER.CONST>
1

>  <SCORE.INTER.POLAR>
0

>  <SCORE.INTER.ROT>
9

>  <SCORE.INTER.SOLV>
32.3537

>  <SCORE.INTER.VDW>
-27.8455

>  <SCORE.INTER.norm>
-0.266461

>  <SCORE.INTRA>
5.7776

>  <SCORE.INTRA.DIHEDRAL>
9.97664

>  <SCORE.INTRA.DIHEDRAL.0>
16.2863

>  <SCORE.INTRA.POLAR>
0

>  <SCORE.INTRA.POLAR.0>
0

>  <SCORE.INTRA.REPUL>
-0.314433

>  <SCORE.INTRA.REPUL.0>
0.314433

>  <SCORE.INTRA.SOLV>
-0.0125358

>  <SCORE.INTRA.SOLV.lig_0>
-103.824

>  <SCORE.INTRA.VDW>
2.36772

>  <SCORE.INTRA.VDW.0>
-5.30945

>  <SCORE.INTRA.norm>
0.137562

>  <SCORE.RESTR>
10.372

>  <SCORE.RESTR.CAVITY>
10.372

>  <SCORE.RESTR.norm>
0.246952

>  <SCORE.SYSTEM>
0

>  <SCORE.SYSTEM.CONST>
0

>  <SCORE.SYSTEM.DIHEDRAL>
0

>  <SCORE.SYSTEM.SOLV>
0

>  <SCORE.SYSTEM.norm>
0

>  <SCORE.heavy>
42

>  <SCORE.norm>
0.118053

>  <RMSD>
26.060

$$$$
lig.pdb
 OpenBabel11021811513D
libRbt.so/2013.1/901 2013/11/27
 42 45  0  0  0  0  0  0  0  0999 V2000
    5.2548   15.2425   13.4639 C   0  0  2  0  0  0  0  0  0  0  0  0
    3.8292   14.9197   13.4428 O   0  0  0  0  0  0  0  0  0  0  0  0
    6.0081   13.8959   13.8631 C   0  0  2  0  0  0  0  0  0  0  0  0
    5.7691   12.8607   12.8537 N   0  0  0  0  0  0  0  0  0  0  0  0
    5.5180   13.4434   15.3242 C   0  0  1  0  0  0  0  0  0  0  0  0
    6.1788   12.2306   15.7427 O   0  0  0  0  0  0  0  0  0  0  0  0
    5.8131   14.6090   16.2838 C   0  0  2  0  0  0  0  0  0  0  0  0
    5.3998   14.2533   17.5591 O   0  0  0  0  0  0  0  0  0  0  0  0
    5.0595   15.9259   15.7874 C   0  0  2  0  0  0  0  0  0  0  0  0
    5.4805   16.3010   14.4700 O   0  0  0  0  0  0  0  0  0  0  0  0
    5.3309   17.1019   16.6823 C   0  0  0  0  0  0  0  0  0  0  0  0
    4.4809   18.1699   16.2622 O   0  0  0  0  0  0  0  0  0  0  0  0
   -0.0510   16.5026   11.9557 C   0  0  2  0  0  0  0  0  0  0  0  0
   -1.0175   17.3324   11.2700 N   0  0  0  0  0  0  0  0  0  0  0  0
    0.8509   17.3861   12.9016 C   0  0  0  0  0  0  0  0  0  0  0  0
    1.9119   16.5089   13.6547 C   0  0  2  0  0  0  0  0  0  0  0  0
    2.7294   17.3643   14.5126 N   0  0  0  0  0  0  0  0  0  0  0  0
    2.8703   15.7213   12.6550 C   0  0  2  0  0  0  0  0  0  0  0  0
    1.9699   14.8268   11.7546 C   0  0  2  0  0  0  0  0  0  0  0  0
    2.9485   14.1134   10.8513 O   0  0  0  0  0  0  0  0  0  0  0  0
    0.9167   15.7495   10.9258 C   0  0  1  0  0  0  0  0  0  0  0  0
   -0.0229   15.0087   10.0828 O   0  0  0  0  0  0  0  0  0  0  0  0
    2.8329   12.7529   10.9651 C   0  0  1  0  0  0  0  0  0  0  0  0
    2.0116   12.1545    9.9075 C   0  0  2  0  0  0  0  0  0  0  0  0
    0.6868   12.4899   10.1703 O   0  0  0  0  0  0  0  0  0  0  0  0
    2.4632   10.6799    9.9759 C   0  0  2  0  0  0  0  0  0  0  0  0
    1.2914    9.8997   10.3040 O   0  0  0  0  0  0  0  0  0  0  0  0
    3.4947   10.6445   11.0551 C   0  0  2  0  0  0  0  0  0  0  0  0
    4.0291   12.0006   10.8473 O   0  0  0  0  0  0  0  0  0  0  0  0
    4.6063    9.5695   10.7667 C   0  0  0  0  0  0  0  0  0  0  0  0
    5.7090    9.5968   11.7219 O   0  0  0  0  0  0  0  0  0  0  0  0
    0.2651    9.7839    9.2723 C   0  0  2  0  0  0  0  0  0  0  0  0
   -1.0692    9.1643    9.9430 C   0  0  2  0  0  0  0  0  0  0  0  0
   -0.7427    7.8340   10.5514 N   0  0  0  0  0  0  0  0  0  0  0  0
   -2.1948    9.0438    8.8017 C   0  0  1  0  0  0  0  0  0  0  0  0
   -2.4265   10.3865    8.2772 O   0  0  0  0  0  0  0  0  0  0  0  0
   -1.6844    8.0594    7.6550 C   0  0  2  0  0  0  0  0  0  0  0  0
   -1.4869    6.7228    8.2588 O   0  0  0  0  0  0  0  0  0  0  0  0
   -0.3074    8.6746    7.0327 C   0  0  1  0  0  0  0  0  0  0  0  0
    0.7116    8.8471    8.1312 O   0  0  0  0  0  0  0  0  0  0  0  0
    0.2323    7.7231    5.9138 C   0  0  0  0  0  0  0  0  0  0  0  0
   -0.8166    7.3472    4.9159 N   0  0  0  0  0  0  0  0  0  0  0  0
  1  3  1  0  0  0  0
  1  2  1  1  0  0  0
  3  4  1  6  0  0  0
  3  5  1  0  0  0  0
  5  6  1  1  0  0  0
  7  8  1  1  0  0  0
  7  5  1  0  0  0  0
  9 11  1  1  0  0  0
  9  7  1  0  0  0  0
 10  9  1  0  0  0  0
 10  1  1  0  0  0  0
 12 11  1  0  0  0  0
 13 14  1  6  0  0  0
 15 13  1  0  0  0  0
 16 17  1  1  0  0  0
 16 15  1  0  0  0  0
 18  2  1  1  0  0  0
 18 19  1  0  0  0  0
 18 16  1  0  0  0  0
 19 20  1  6  0  0  0
 19 21  1  0  0  0  0
 21 22  1  6  0  0  0
 21 13  1  0  0  0  0
 23 20  1  6  0  0  0
 23 29  1  0  0  0  0
 24 25  1  1  0  0  0
 24 26  1  0  0  0  0
 24 23  1  0  0  0  0
 26 27  1  1  0  0  0
 26 28  1  0  0  0  0
 28 30  1  6  0  0  0
 29 28  1  0  0  0  0
 30 31  1  0  0  0  0
 32 27  1  1  0  0  0
 32 40  1  0  0  0  0
 33 35  1  0  0  0  0
 33 32  1  0  0  0  0
 33 34  1  6  0  0  0
 35 36  1  6  0  0  0
 35 37  1  0  0  0  0
 37 38  1  1  0  0  0
 37 39  1  0  0  0  0
 39 41  1  6  0  0  0
 40 39  1  0  0  0  0
 41 42  1  0  0  0  0
M  END
>  <CHROM.1>
-156.85183888,-172.42308118,-111.78091167,122.32659306,97.91520546,70.02162677
173.90084865,-167.73290610,49.68358979,2.27836848,12.67398589,11.60243279
-0.99649276,0.59198980,-2.71416398

>  <Name>
lig.pdb

>  <RI>
0

>  <Rbt.Current_Directory>
/home/itssahil/PROJECTS/Mol_Feturizer/New_Systems/rnas/4wcr

>  <Rbt.Executable>
rbdock ($Id: //depot/dev/client3/rdock/2013.1/src/exe/rbdock.cxx#4 $)

>  <Rbt.Library>
libRbt.so (2013.1, Build901 2013/11/27)

>  <Rbt.Parameter_File>
/export/apps/rDock/src/rDock_2013.1_src/data/scripts/dock_solv.prm

>  <Rbt.Receptor>
prm/blind_docking_60.prm

>  <SCORE>
-4.83888

>  <SCORE.INTER>
-15.8934

>  <SCORE.INTER.CONST>
1

>  <SCORE.INTER.POLAR>
0

>  <SCORE.INTER.ROT>
9

>  <SCORE.INTER.SOLV>
27.6477

>  <SCORE.INTER.VDW>
-29.4115

>  <SCORE.INTER.norm>
-0.378415

>  <SCORE.INTRA>
4.03083

>  <SCORE.INTRA.DIHEDRAL>
7.54611

>  <SCORE.INTRA.DIHEDRAL.0>
16.2863

>  <SCORE.INTRA.POLAR>
0

>  <SCORE.INTRA.POLAR.0>
0

>  <SCORE.INTRA.REPUL>
-0.215759

>  <SCORE.INTRA.REPUL.0>
0.314433

>  <SCORE.INTRA.SOLV>
2.14789

>  <SCORE.INTRA.SOLV.lig_0>
-103.824

>  <SCORE.INTRA.VDW>
0.262622

>  <SCORE.INTRA.VDW.0>
-5.30945

>  <SCORE.INTRA.norm>
0.0959721

>  <SCORE.RESTR>
7.02372

>  <SCORE.RESTR.CAVITY>
7.02372

>  <SCORE.RESTR.norm>
0.167231

>  <SCORE.SYSTEM>
0

>  <SCORE.SYSTEM.CONST>
0

>  <SCORE.SYSTEM.DIHEDRAL>
0

>  <SCORE.SYSTEM.SOLV>
0

>  <SCORE.SYSTEM.norm>
0

>  <SCORE.heavy>
42

>  <SCORE.norm>
-0.115211

>  <RMSD>
26.076

$$$$
lig.pdb
 OpenBabel11021811513D
libRbt.so/2013.1/901 2013/11/27
 42 45  0  0  0  0  0  0  0  0999 V2000
    2.0995   15.2361   13.3655 C   0  0  2  0  0  0  0  0  0  0  0  0
    3.3460   14.8108   12.7311 O   0  0  0  0  0  0  0  0  0  0  0  0
    1.4997   16.3848   12.4378 C   0  0  2  0  0  0  0  0  0  0  0  0
    1.1992   15.8568   11.1041 N   0  0  0  0  0  0  0  0  0  0  0  0
    2.5429   17.6051   12.3864 C   0  0  1  0  0  0  0  0  0  0  0  0
    2.0440   18.6824   11.5660 O   0  0  0  0  0  0  0  0  0  0  0  0
    2.7808   18.0609   13.8363 C   0  0  2  0  0  0  0  0  0  0  0  0
    3.6812   19.1158   13.8308 O   0  0  0  0  0  0  0  0  0  0  0  0
    3.3365   16.8423   14.7051 C   0  0  2  0  0  0  0  0  0  0  0  0
    2.4122   15.7472   14.7163 O   0  0  0  0  0  0  0  0  0  0  0  0
    3.5683   17.2309   16.1377 C   0  0  0  0  0  0  0  0  0  0  0  0
    4.5521   18.2660   16.1512 O   0  0  0  0  0  0  0  0  0  0  0  0
    6.5380   11.7758   13.3413 C   0  0  2  0  0  0  0  0  0  0  0  0
    7.2151   10.5676   13.7594 N   0  0  0  0  0  0  0  0  0  0  0  0
    5.8784   12.4879   14.5849 C   0  0  0  0  0  0  0  0  0  0  0  0
    5.1329   13.8007   14.1569 C   0  0  2  0  0  0  0  0  0  0  0  0
    4.5315   14.4242   15.3340 N   0  0  0  0  0  0  0  0  0  0  0  0
    3.9892   13.5280   13.0817 C   0  0  2  0  0  0  0  0  0  0  0  0
    4.6608   12.8602   11.8469 C   0  0  2  0  0  0  0  0  0  0  0  0
    3.5197   12.6463   10.8801 O   0  0  0  0  0  0  0  0  0  0  0  0
    5.3747   11.4653   12.2856 C   0  0  1  0  0  0  0  0  0  0  0  0
    6.0893   10.7732   11.2121 O   0  0  0  0  0  0  0  0  0  0  0  0
    3.1694   11.3238   10.8055 C   0  0  1  0  0  0  0  0  0  0  0  0
    1.9939   11.0864    9.9612 C   0  0  2  0  0  0  0  0  0  0  0  0
    0.8815   11.5484   10.6582 O   0  0  0  0  0  0  0  0  0  0  0  0
    2.1436    9.5805    9.6561 C   0  0  2  0  0  0  0  0  0  0  0  0
    0.9701    8.9279   10.1914 O   0  0  0  0  0  0  0  0  0  0  0  0
    3.3965    9.1701   10.3572 C   0  0  2  0  0  0  0  0  0  0  0  0
    4.1159   10.4471   10.2173 O   0  0  0  0  0  0  0  0  0  0  0  0
    4.1534    8.0293    9.5824 C   0  0  0  0  0  0  0  0  0  0  0  0
    5.3314    7.5280   10.2826 O   0  0  0  0  0  0  0  0  0  0  0  0
    0.6428    7.6116    9.6520 C   0  0  2  0  0  0  0  0  0  0  0  0
   -0.3890    7.8031    8.4220 C   0  0  2  0  0  0  0  0  0  0  0  0
   -1.6107    8.5210    8.9108 N   0  0  0  0  0  0  0  0  0  0  0  0
   -0.7413    6.3501    7.8316 C   0  0  1  0  0  0  0  0  0  0  0  0
    0.5131    5.7430    7.3959 O   0  0  0  0  0  0  0  0  0  0  0  0
   -1.4409    5.4722    8.9649 C   0  0  2  0  0  0  0  0  0  0  0  0
   -2.7056    6.1419    9.3419 O   0  0  0  0  0  0  0  0  0  0  0  0
   -0.4047    5.3408   10.2183 C   0  0  1  0  0  0  0  0  0  0  0  0
   -0.0306    6.7160   10.7120 O   0  0  0  0  0  0  0  0  0  0  0  0
   -1.0666    4.4982   11.3587 C   0  0  0  0  0  0  0  0  0  0  0  0
   -0.0936    4.0918   12.4194 N   0  0  0  0  0  0  0  0  0  0  0  0
  1  3  1  0  0  0  0
  1  2  1  6  0  0  0
  3  4  1  6  0  0  0
  3  5  1  0  0  0  0
  5  6  1  6  0  0  0
  7  8  1  6  0  0  0
  7  5  1  0  0  0  0
  9 11  1  1  0  0  0
  9  7  1  0  0  0  0
 10  9  1  0  0  0  0
 10  1  1  0  0  0  0
 12 11  1  0  0  0  0
 13 14  1  1  0  0  0
 15 13  1  0  0  0  0
 16 17  1  1  0  0  0
 16 15  1  0  0  0  0
 18  2  1  6  0  0  0
 18 19  1  0  0  0  0
 18 16  1  0  0  0  0
 19 20  1  6  0  0  0
 19 21  1  0  0  0  0
 21 22  1  6  0  0  0
 21 13  1  0  0  0  0
 23 20  1  6  0  0  0
 23 29  1  0  0  0  0
 24 25  1  1  0  0  0
 24 26  1  0  0  0  0
 24 23  1  0  0  0  0
 26 27  1  1  0  0  0
 26 28  1  0  0  0  0
 28 30  1  6  0  0  0
 29 28  1  0  0  0  0
 30 31  1  0  0  0  0
 32 27  1  1  0  0  0
 32 40  1  0  0  0  0
 33 35  1  0  0  0  0
 33 32  1  0  0  0  0
 33 34  1  1  0  0  0
 35 36  1  1  0  0  0
 35 37  1  0  0  0  0
 37 38  1  1  0  0  0
 37 39  1  0  0  0  0
 39 41  1  1  0  0  0
 40 39  1  0  0  0  0
 41 42  1  0  0  0  0
M  END
>  <CHROM.1>
-162.75789710,-61.47348575,-97.15347874,-106.63558496,175.29671088,159.60652290
-175.68712305,-92.66446533,168.15356926,2.49689350,11.54134962,11.67169400
1.23544605,-0.36171641,0.28416783

>  <Name>
lig.pdb

>  <RI>
0

>  <Rbt.Current_Directory>
/home/itssahil/PROJECTS/Mol_Feturizer/New_Systems/rnas/4wcr

>  <Rbt.Executable>
rbdock ($Id: //depot/dev/client3/rdock/2013.1/src/exe/rbdock.cxx#4 $)

>  <Rbt.Library>
libRbt.so (2013.1, Build901 2013/11/27)

>  <Rbt.Parameter_File>
/export/apps/rDock/src/rDock_2013.1_src/data/scripts/dock_solv.prm

>  <Rbt.Receptor>
prm/blind_docking_40.prm

>  <SCORE>
14.4959

>  <SCORE.INTER>
-2.53263

>  <SCORE.INTER.CONST>
1

>  <SCORE.INTER.POLAR>
0

>  <SCORE.INTER.ROT>
9

>  <SCORE.INTER.SOLV>
27.6074

>  <SCORE.INTER.VDW>
-20.4909

>  <SCORE.INTER.norm>
-0.0603008

>  <SCORE.INTRA>
7.19884

>  <SCORE.INTRA.DIHEDRAL>
3.45294

>  <SCORE.INTRA.DIHEDRAL.0>
16.2863

>  <SCORE.INTRA.POLAR>
0

>  <SCORE.INTRA.POLAR.0>
0

>  <SCORE.INTRA.REPUL>
-0.314433

>  <SCORE.INTRA.REPUL.0>
0.314433

>  <SCORE.INTRA.SOLV>
-1.6347

>  <SCORE.INTRA.SOLV.lig_0>
-103.824

>  <SCORE.INTRA.VDW>
7.86189

>  <SCORE.INTRA.VDW.0>
-5.30945

>  <SCORE.INTRA.norm>
0.171401

>  <SCORE.RESTR>
9.8297

>  <SCORE.RESTR.CAVITY>
9.8297

>  <SCORE.RESTR.norm>
0.23404

>  <SCORE.SYSTEM>
0

>  <SCORE.SYSTEM.CONST>
0

>  <SCORE.SYSTEM.DIHEDRAL>
0

>  <SCORE.SYSTEM.SOLV>
0

>  <SCORE.SYSTEM.norm>
0

>  <SCORE.heavy>
42

>  <SCORE.norm>
0.345141

>  <RMSD>
26.134

$$$$
lig.pdb
 OpenBabel11021811513D
libRbt.so/2013.1/901 2013/11/27
 42 45  0  0  0  0  0  0  0  0999 V2000
    1.6254   10.9773    9.1224 C   0  0  2  0  0  0  0  0  0  0  0  0
    2.0997   11.2763   10.4725 O   0  0  0  0  0  0  0  0  0  0  0  0
    0.2025   11.6821    8.9864 C   0  0  2  0  0  0  0  0  0  0  0  0
    0.3377   13.1339    9.1329 N   0  0  0  0  0  0  0  0  0  0  0  0
   -0.7928   11.0520   10.0783 C   0  0  1  0  0  0  0  0  0  0  0  0
   -2.1044   11.6478    9.9926 O   0  0  0  0  0  0  0  0  0  0  0  0
   -0.8423    9.5353    9.8265 C   0  0  2  0  0  0  0  0  0  0  0  0
   -1.6938    8.9558   10.7554 O   0  0  0  0  0  0  0  0  0  0  0  0
    0.6257    8.9176    9.9364 C   0  0  2  0  0  0  0  0  0  0  0  0
    1.5126    9.5108    8.9798 O   0  0  0  0  0  0  0  0  0  0  0  0
    0.6352    7.4374    9.6793 C   0  0  0  0  0  0  0  0  0  0  0  0
    1.9533    6.9598    9.9518 O   0  0  0  0  0  0  0  0  0  0  0  0
    5.8679   10.6041   12.7355 C   0  0  2  0  0  0  0  0  0  0  0  0
    7.2771   10.5116   13.0498 N   0  0  0  0  0  0  0  0  0  0  0  0
    5.5302    9.7083   11.4816 C   0  0  0  0  0  0  0  0  0  0  0  0
    4.0064    9.7947   11.1169 C   0  0  2  0  0  0  0  0  0  0  0  0
    3.7377    8.9585    9.9489 N   0  0  0  0  0  0  0  0  0  0  0  0
    3.5407   11.2845   10.7977 C   0  0  2  0  0  0  0  0  0  0  0  0
    3.8455   12.1474   12.0564 C   0  0  2  0  0  0  0  0  0  0  0  0
    3.3691   13.5300   11.6771 O   0  0  0  0  0  0  0  0  0  0  0  0
    5.4378   12.1071   12.3889 C   0  0  1  0  0  0  0  0  0  0  0  0
    5.8364   12.8421   13.5903 O   0  0  0  0  0  0  0  0  0  0  0  0
    3.7086   14.4542   12.6299 C   0  0  1  0  0  0  0  0  0  0  0  0
    2.7887   15.5956   12.6782 C   0  0  2  0  0  0  0  0  0  0  0  0
    3.0321   16.3735   11.5503 O   0  0  0  0  0  0  0  0  0  0  0  0
    3.0854   16.1597   14.0843 C   0  0  2  0  0  0  0  0  0  0  0  0
    3.5720   17.5082   13.8984 O   0  0  0  0  0  0  0  0  0  0  0  0
    4.1245   15.2495   14.6512 C   0  0  2  0  0  0  0  0  0  0  0  0
    3.6806   14.0173   13.9786 O   0  0  0  0  0  0  0  0  0  0  0  0
    3.9839   15.1010   16.2109 C   0  0  0  0  0  0  0  0  0  0  0  0
    2.8031   14.3497   16.6235 O   0  0  0  0  0  0  0  0  0  0  0  0
    3.5863   18.3729   15.0744 C   0  0  2  0  0  0  0  0  0  0  0  0
    5.1111   18.5050   15.5957 C   0  0  2  0  0  0  0  0  0  0  0  0
    5.6459   17.1396   15.9056 N   0  0  0  0  0  0  0  0  0  0  0  0
    5.1185   19.4613   16.8878 C   0  0  1  0  0  0  0  0  0  0  0  0
    4.5740   20.7518   16.4756 O   0  0  0  0  0  0  0  0  0  0  0  0
    4.2307   18.8047   18.0389 C   0  0  2  0  0  0  0  0  0  0  0  0
    4.8515   17.5137   18.4103 O   0  0  0  0  0  0  0  0  0  0  0  0
    2.7114   18.6282   17.4710 C   0  0  1  0  0  0  0  0  0  0  0  0
    2.7337   17.7877   16.2188 O   0  0  0  0  0  0  0  0  0  0  0  0
    1.8146   17.9690   18.5709 C   0  0  0  0  0  0  0  0  0  0  0  0
    2.2174   16.5625   18.8819 N   0  0  0  0  0  0  0  0  0  0  0  0
  1  3  1  0  0  0  0
  1  2  1  1  0  0  0
  3  4  1  1  0  0  0
  3  5  1  0  0  0  0
  5  6  1  6  0  0  0
  7  8  1  1  0  0  0
  7  5  1  0  0  0  0
  9 11  1  6  0  0  0
  9  7  1  0  0  0  0
 10  9  1  0  0  0  0
 10  1  1  0  0  0  0
 12 11  1  0  0  0  0
 13 14  1  6  0  0  0
 15 13  1  0  0  0  0
 16 17  1  6  0  0  0
 16 15  1  0  0  0  0
 18  2  1  1  0  0  0
 18 19  1  0  0  0  0
 18 16  1  0  0  0  0
 19 20  1  6  0  0  0
 19 21  1  0  0  0  0
 21 22  1  1  0  0  0
 21 13  1  0  0  0  0
 23 20  1  6  0  0  0
 23 29  1  0  0  0  0
 24 25  1  6  0  0  0
 24 26  1  0  0  0  0
 24 23  1  0  0  0  0
 26 27  1  6  0  0  0
 26 28  1  0  0  0  0
 28 30  1  1  0  0  0
 29 28  1  0  0  0  0
 30 31  1  0  0  0  0
 32 27  1  6  0  0  0
 32 40  1  0  0  0  0
 33 35  1  0  0  0  0
 33 32  1  0  0  0  0
 33 34  1  1  0  0  0
 35 36  1  6  0  0  0
 35 37  1  0  0  0  0
 37 38  1  6  0  0  0
 37 39  1  0  0  0  0
 39 41  1  1  0  0  0
 40 39  1  0  0  0  0
 41 42  1  0  0  0  0
M  END
>  <CHROM.1>
-154.88449664,-173.40326825,-84.29746846,-172.97654585,-152.34051176,164.18032441
69.98082278,104.28303167,-66.15204225,2.96459997,13.63982748,13.09100340
1.82033820,0.31677893,-2.54392331

>  <Name>
lig.pdb

>  <RI>
0

>  <Rbt.Current_Directory>
/home/itssahil/PROJECTS/Mol_Feturizer/New_Systems/rnas/4wcr

>  <Rbt.Executable>
rbdock ($Id: //depot/dev/client3/rdock/2013.1/src/exe/rbdock.cxx#4 $)

>  <Rbt.Library>
libRbt.so (2013.1, Build901 2013/11/27)

>  <Rbt.Parameter_File>
/export/apps/rDock/src/rDock_2013.1_src/data/scripts/dock_solv.prm

>  <Rbt.Receptor>
prm/blind_docking_40.prm

>  <SCORE>
37.2242

>  <SCORE.INTER>
21.0161

>  <SCORE.INTER.CONST>
1

>  <SCORE.INTER.POLAR>
0

>  <SCORE.INTER.ROT>
9

>  <SCORE.INTER.SOLV>
27.3748

>  <SCORE.INTER.VDW>
-4.7142

>  <SCORE.INTER.norm>
0.500384

>  <SCORE.INTRA>
5.4194

>  <SCORE.INTRA.DIHEDRAL>
0.600684

>  <SCORE.INTRA.DIHEDRAL.0>
16.2863

>  <SCORE.INTRA.POLAR>
0

>  <SCORE.INTRA.POLAR.0>
0

>  <SCORE.INTRA.REPUL>
-0.314433

>  <SCORE.INTRA.REPUL.0>
0.314433

>  <SCORE.INTRA.SOLV>
5.61452

>  <SCORE.INTRA.SOLV.lig_0>
-103.824

>  <SCORE.INTRA.VDW>
3.88396

>  <SCORE.INTRA.VDW.0>
-5.30945

>  <SCORE.INTRA.norm>
0.129033

>  <SCORE.RESTR>
10.7887

>  <SCORE.RESTR.CAVITY>
10.7887

>  <SCORE.RESTR.norm>
0.256874

>  <SCORE.SYSTEM>
0

>  <SCORE.SYSTEM.CONST>
0

>  <SCORE.SYSTEM.DIHEDRAL>
0

>  <SCORE.SYSTEM.SOLV>
0

>  <SCORE.SYSTEM.norm>
0

>  <SCORE.heavy>
42

>  <SCORE.norm>
0.886291

>  <RMSD>
26.172

$$$$
lig.pdb
 OpenBabel11021811513D
libRbt.so/2013.1/901 2013/11/27
 42 45  0  0  0  0  0  0  0  0999 V2000
    2.6718   15.3994   13.7019 C   0  0  2  0  0  0  0  0  0  0  0  0
    3.9773   15.0025   13.1773 O   0  0  0  0  0  0  0  0  0  0  0  0
    2.4393   16.9012   13.2219 C   0  0  2  0  0  0  0  0  0  0  0  0
    2.4047   16.9680   11.7583 N   0  0  0  0  0  0  0  0  0  0  0  0
    3.5945   17.8274   13.8444 C   0  0  1  0  0  0  0  0  0  0  0  0
    3.4263   19.2054   13.4500 O   0  0  0  0  0  0  0  0  0  0  0  0
    3.5333   17.6645   15.3729 C   0  0  2  0  0  0  0  0  0  0  0  0
    4.5214   18.4513   15.9459 O   0  0  0  0  0  0  0  0  0  0  0  0
    3.7293   16.1293   15.7643 C   0  0  2  0  0  0  0  0  0  0  0  0
    2.7122   15.3086   15.1763 O   0  0  0  0  0  0  0  0  0  0  0  0
    3.6587   15.9127   17.2493 C   0  0  0  0  0  0  0  0  0  0  0  0
    2.8867   16.9778   17.8053 O   0  0  0  0  0  0  0  0  0  0  0  0
    6.7356   11.5182   13.0235 C   0  0  2  0  0  0  0  0  0  0  0  0
    7.4005   10.2829   13.3773 N   0  0  0  0  0  0  0  0  0  0  0  0
    6.8314   12.5481   14.2146 C   0  0  0  0  0  0  0  0  0  0  0  0
    6.1130   13.8967   13.8571 C   0  0  2  0  0  0  0  0  0  0  0  0
    6.2183   14.8181   14.9866 N   0  0  0  0  0  0  0  0  0  0  0  0
    4.5725   13.6911   13.5064 C   0  0  2  0  0  0  0  0  0  0  0  0
    4.4961   12.7028   12.3067 C   0  0  2  0  0  0  0  0  0  0  0  0
    3.0159   12.5715   12.0338 O   0  0  0  0  0  0  0  0  0  0  0  0
    5.1834   11.2835   12.7075 C   0  0  1  0  0  0  0  0  0  0  0  0
    5.2192   10.2898   11.6336 O   0  0  0  0  0  0  0  0  0  0  0  0
    2.7351   11.4210   11.3448 C   0  0  1  0  0  0  0  0  0  0  0  0
    1.8931   11.6473   10.1654 C   0  0  2  0  0  0  0  0  0  0  0  0
    0.6077   11.9263   10.6199 O   0  0  0  0  0  0  0  0  0  0  0  0
    2.1635   10.3623    9.3537 C   0  0  2  0  0  0  0  0  0  0  0  0
    0.8948    9.6842    9.2115 O   0  0  0  0  0  0  0  0  0  0  0  0
    3.1379    9.5864   10.1772 C   0  0  2  0  0  0  0  0  0  0  0  0
    3.8375   10.7371   10.7724 O   0  0  0  0  0  0  0  0  0  0  0  0
    4.1251    8.7505    9.2822 C   0  0  0  0  0  0  0  0  0  0  0  0
    3.4524    7.8396    8.3619 O   0  0  0  0  0  0  0  0  0  0  0  0
    0.9199    8.3568    8.6047 C   0  0  2  0  0  0  0  0  0  0  0  0
   -0.5977    7.9253    8.2511 C   0  0  2  0  0  0  0  0  0  0  0  0
   -1.4205    7.9464    9.5037 N   0  0  0  0  0  0  0  0  0  0  0  0
   -0.5608    6.4650    7.5802 C   0  0  1  0  0  0  0  0  0  0  0  0
    0.2681    6.5589    6.3819 O   0  0  0  0  0  0  0  0  0  0  0  0
    0.0482    5.4191    8.6192 C   0  0  2  0  0  0  0  0  0  0  0  0
   -0.8506    5.3704    9.7939 O   0  0  0  0  0  0  0  0  0  0  0  0
    1.5569    5.9057    9.0053 C   0  0  1  0  0  0  0  0  0  0  0  0
    1.5092    7.3048    9.5665 O   0  0  0  0  0  0  0  0  0  0  0  0
    2.1797    4.9096   10.0390 C   0  0  0  0  0  0  0  0  0  0  0  0
    2.5787    3.6069    9.4216 N   0  0  0  0  0  0  0  0  0  0  0  0
  1  3  1  0  0  0  0
  1  2  1  6  0  0  0
  3  4  1  6  0  0  0
  3  5  1  0  0  0  0
  5  6  1  1  0  0  0
  7  8  1  1  0  0  0
  7  5  1  0  0  0  0
  9 11  1  1  0  0  0
  9  7  1  0  0  0  0
 10  9  1  0  0  0  0
 10  1  1  0  0  0  0
 12 11  1  0  0  0  0
 13 14  1  1  0  0  0
 15 13  1  0  0  0  0
 16 17  1  1  0  0  0
 16 15  1  0  0  0  0
 18  2  1  6  0  0  0
 18 19  1  0  0  0  0
 18 16  1  0  0  0  0
 19 20  1  1  0  0  0
 19 21  1  0  0  0  0
 21 22  1  6  0  0  0
 21 13  1  0  0  0  0
 23 20  1  6  0  0  0
 23 29  1  0  0  0  0
 24 25  1  1  0  0  0
 24 26  1  0  0  0  0
 24 23  1  0  0  0  0
 26 27  1  1  0  0  0
 26 28  1  0  0  0  0
 28 30  1  6  0  0  0
 29 28  1  0  0  0  0
 30 31  1  0  0  0  0
 32 27  1  1  0  0  0
 32 40  1  0  0  0  0
 33 35  1  0  0  0  0
 33 32  1  0  0  0  0
 33 34  1  1  0  0  0
 35 36  1  6  0  0  0
 35 37  1  0  0  0  0
 37 38  1  1  0  0  0
 37 39  1  0  0  0  0
 39 41  1  1  0  0  0
 40 39  1  0  0  0  0
 41 42  1  0  0  0  0
M  END
>  <CHROM.1>
175.62294856,24.84054267,-135.97075871,-158.85972068,-130.05683217,-173.25551996
-56.15779936,-167.87739509,73.92065972,2.93164413,11.60688545,11.76865782
1.28861913,-0.44535630,0.43473597

>  <Name>
lig.pdb

>  <RI>
0

>  <Rbt.Current_Directory>
/home/itssahil/PROJECTS/Mol_Feturizer/New_Systems/rnas/4wcr

>  <Rbt.Executable>
rbdock ($Id: //depot/dev/client3/rdock/2013.1/src/exe/rbdock.cxx#4 $)

>  <Rbt.Library>
libRbt.so (2013.1, Build901 2013/11/27)

>  <Rbt.Parameter_File>
/export/apps/rDock/src/rDock_2013.1_src/data/scripts/dock_solv.prm

>  <Rbt.Receptor>
prm/blind_docking_40.prm

>  <SCORE>
36.3632

>  <SCORE.INTER>
2.81707

>  <SCORE.INTER.CONST>
1

>  <SCORE.INTER.POLAR>
0

>  <SCORE.INTER.ROT>
9

>  <SCORE.INTER.SOLV>
30.7767

>  <SCORE.INTER.VDW>
-17.9809

>  <SCORE.INTER.norm>
0.0670732

>  <SCORE.INTRA>
27.6325

>  <SCORE.INTRA.DIHEDRAL>
3.93177

>  <SCORE.INTRA.DIHEDRAL.0>
16.2863

>  <SCORE.INTRA.POLAR>
0

>  <SCORE.INTRA.POLAR.0>
0

>  <SCORE.INTRA.REPUL>
-0.314433

>  <SCORE.INTRA.REPUL.0>
0.314433

>  <SCORE.INTRA.SOLV>
-0.676097

>  <SCORE.INTRA.SOLV.lig_0>
-103.824

>  <SCORE.INTRA.VDW>
27.5768

>  <SCORE.INTRA.VDW.0>
-5.30945

>  <SCORE.INTRA.norm>
0.657917

>  <SCORE.RESTR>
5.91357

>  <SCORE.RESTR.CAVITY>
5.91357

>  <SCORE.RESTR.norm>
0.140799

>  <SCORE.SYSTEM>
0

>  <SCORE.SYSTEM.CONST>
0

>  <SCORE.SYSTEM.DIHEDRAL>
0

>  <SCORE.SYSTEM.SOLV>
0

>  <SCORE.SYSTEM.norm>
0

>  <SCORE.heavy>
42

>  <SCORE.norm>
0.86579

>  <RMSD>
26.173

$$$$
lig.pdb
 OpenBabel11021811513D
libRbt.so/2013.1/901 2013/11/27
 42 45  0  0  0  0  0  0  0  0999 V2000
    3.9790   15.7325   12.5126 C   0  0  2  0  0  0  0  0  0  0  0  0
    2.7163   14.9959   12.5281 O   0  0  0  0  0  0  0  0  0  0  0  0
    5.0036   14.8737   13.3802 C   0  0  2  0  0  0  0  0  0  0  0  0
    5.2119   13.5589   12.7673 N   0  0  0  0  0  0  0  0  0  0  0  0
    4.4427   14.7617   14.8810 C   0  0  1  0  0  0  0  0  0  0  0  0
    5.3400   14.0008   15.7168 O   0  0  0  0  0  0  0  0  0  0  0  0
    4.2594   16.1960   15.4060 C   0  0  2  0  0  0  0  0  0  0  0  0
    3.7728   16.1381   16.7035 O   0  0  0  0  0  0  0  0  0  0  0  0
    3.2572   16.9983   14.4571 C   0  0  2  0  0  0  0  0  0  0  0  0
    3.7521   17.0632   13.1139 O   0  0  0  0  0  0  0  0  0  0  0  0
    3.0582   18.4149   14.9165 C   0  0  0  0  0  0  0  0  0  0  0  0
    2.1322   19.0333   14.0223 O   0  0  0  0  0  0  0  0  0  0  0  0
   -1.0079   14.4178   10.1682 C   0  0  2  0  0  0  0  0  0  0  0  0
   -2.0083   14.5637    9.1334 N   0  0  0  0  0  0  0  0  0  0  0  0
   -0.7037   15.8162   10.8320 C   0  0  0  0  0  0  0  0  0  0  0  0
    0.3831   15.6856   11.9564 C   0  0  2  0  0  0  0  0  0  0  0  0
    0.6403   17.0009   12.5392 N   0  0  0  0  0  0  0  0  0  0  0  0
    1.7562   15.0909   11.4093 C   0  0  2  0  0  0  0  0  0  0  0  0
    1.4465   13.6965   10.7918 C   0  0  2  0  0  0  0  0  0  0  0  0
    2.7905   13.2022   10.3102 O   0  0  0  0  0  0  0  0  0  0  0  0
    0.3692   13.8483    9.5819 C   0  0  1  0  0  0  0  0  0  0  0  0
   -0.0414   12.5890    8.9592 O   0  0  0  0  0  0  0  0  0  0  0  0
    3.0470   11.9340   10.7608 C   0  0  1  0  0  0  0  0  0  0  0  0
    2.6617   10.8935    9.8016 C   0  0  2  0  0  0  0  0  0  0  0  0
    1.2716   10.8263    9.7975 O   0  0  0  0  0  0  0  0  0  0  0  0
    3.4914    9.6952   10.3106 C   0  0  2  0  0  0  0  0  0  0  0  0
    2.5495    8.6629   10.6804 O   0  0  0  0  0  0  0  0  0  0  0  0
    4.2499   10.2244   11.4829 C   0  0  2  0  0  0  0  0  0  0  0  0
    4.4061   11.6053   10.9966 O   0  0  0  0  0  0  0  0  0  0  0  0
    5.6561    9.5348   11.6293 C   0  0  0  0  0  0  0  0  0  0  0  0
    5.5816    8.1279   12.0090 O   0  0  0  0  0  0  0  0  0  0  0  0
    2.1118    7.7583    9.6216 C   0  0  2  0  0  0  0  0  0  0  0  0
    0.9229    8.4754    8.7930 C   0  0  2  0  0  0  0  0  0  0  0  0
   -0.1966    8.8138    9.7305 N   0  0  0  0  0  0  0  0  0  0  0  0
    0.4495    7.4748    7.6273 C   0  0  1  0  0  0  0  0  0  0  0  0
    1.6120    7.2091    6.7850 O   0  0  0  0  0  0  0  0  0  0  0  0
   -0.1083    6.1291    8.2773 C   0  0  2  0  0  0  0  0  0  0  0  0
   -1.2876    6.4776    9.1007 O   0  0  0  0  0  0  0  0  0  0  0  0
    1.0899    5.4535    9.1546 C   0  0  1  0  0  0  0  0  0  0  0  0
    1.5691    6.4337   10.1960 O   0  0  0  0  0  0  0  0  0  0  0  0
    0.5713    4.1369    9.8226 C   0  0  0  0  0  0  0  0  0  0  0  0
   -0.4957    4.3844   10.8412 N   0  0  0  0  0  0  0  0  0  0  0  0
  1  3  1  0  0  0  0
  1  2  1  1  0  0  0
  3  4  1  6  0  0  0
  3  5  1  0  0  0  0
  5  6  1  1  0  0  0
  7  8  1  1  0  0  0
  7  5  1  0  0  0  0
  9 11  1  1  0  0  0
  9  7  1  0  0  0  0
 10  9  1  0  0  0  0
 10  1  1  0  0  0  0
 12 11  1  0  0  0  0
 13 14  1  6  0  0  0
 15 13  1  0  0  0  0
 16 17  1  6  0  0  0
 16 15  1  0  0  0  0
 18  2  1  1  0  0  0
 18 19  1  0  0  0  0
 18 16  1  0  0  0  0
 19 20  1  6  0  0  0
 19 21  1  0  0  0  0
 21 22  1  1  0  0  0
 21 13  1  0  0  0  0
 23 20  1  6  0  0  0
 23 29  1  0  0  0  0
 24 25  1  1  0  0  0
 24 26  1  0  0  0  0
 24 23  1  0  0  0  0
 26 27  1  1  0  0  0
 26 28  1  0  0  0  0
 28 30  1  6  0  0  0
 29 28  1  0  0  0  0
 30 31  1  0  0  0  0
 32 27  1  1  0  0  0
 32 40  1  0  0  0  0
 33 35  1  0  0  0  0
 33 32  1  0  0  0  0
 33 34  1  1  0  0  0
 35 36  1  6  0  0  0
 35 37  1  0  0  0  0
 37 38  1  1  0  0  0
 37 39  1  0  0  0  0
 39 41  1  1  0  0  0
 40 39  1  0  0  0  0
 41 42  1  0  0  0  0
M  END
>  <CHROM.1>
-151.39812619,-178.90961959,-118.96719594,129.38352575,94.26800015,86.65764376
-68.43604559,-82.37164813,-65.80044947,2.15465400,11.94378728,11.29063036
-1.33383474,0.61221703,-2.83999218

>  <Name>
lig.pdb

>  <RI>
0

>  <Rbt.Current_Directory>
/home/itssahil/PROJECTS/Mol_Feturizer/New_Systems/rnas/4wcr

>  <Rbt.Executable>
rbdock ($Id: //depot/dev/client3/rdock/2013.1/src/exe/rbdock.cxx#4 $)

>  <Rbt.Library>
libRbt.so (2013.1, Build901 2013/11/27)

>  <Rbt.Parameter_File>
/export/apps/rDock/src/rDock_2013.1_src/data/scripts/dock_solv.prm

>  <Rbt.Receptor>
prm/blind_docking_80.prm

>  <SCORE>
-2.14842

>  <SCORE.INTER>
-17.3545

>  <SCORE.INTER.CONST>
1

>  <SCORE.INTER.POLAR>
0

>  <SCORE.INTER.ROT>
9

>  <SCORE.INTER.SOLV>
26.7855

>  <SCORE.INTER.VDW>
-30.0982

>  <SCORE.INTER.norm>
-0.413202

>  <SCORE.INTRA>
9.78397

>  <SCORE.INTRA.DIHEDRAL>
11.377

>  <SCORE.INTRA.DIHEDRAL.0>
16.2863

>  <SCORE.INTRA.POLAR>
0

>  <SCORE.INTRA.POLAR.0>
0

>  <SCORE.INTRA.REPUL>
-0.19912

>  <SCORE.INTRA.REPUL.0>
0.314433

>  <SCORE.INTRA.SOLV>
4.7307

>  <SCORE.INTRA.SOLV.lig_0>
-103.824

>  <SCORE.INTRA.VDW>
2.7257

>  <SCORE.INTRA.VDW.0>
-5.30945

>  <SCORE.INTRA.norm>
0.232952

>  <SCORE.RESTR>
5.4221

>  <SCORE.RESTR.CAVITY>
5.4221

>  <SCORE.RESTR.norm>
0.129098

>  <SCORE.SYSTEM>
0

>  <SCORE.SYSTEM.CONST>
0

>  <SCORE.SYSTEM.DIHEDRAL>
0

>  <SCORE.SYSTEM.SOLV>
0

>  <SCORE.SYSTEM.norm>
0

>  <SCORE.heavy>
42

>  <SCORE.norm>
-0.0511528

>  <RMSD>
26.204

$$$$
lig.pdb
 OpenBabel11021811513D
libRbt.so/2013.1/901 2013/11/27
 42 45  0  0  0  0  0  0  0  0999 V2000
    5.1291   15.0860   12.9946 C   0  0  2  0  0  0  0  0  0  0  0  0
    4.3131   13.9505   13.4210 O   0  0  0  0  0  0  0  0  0  0  0  0
    5.4703   15.9078   14.3168 C   0  0  2  0  0  0  0  0  0  0  0  0
    6.2506   15.0817   15.2422 N   0  0  0  0  0  0  0  0  0  0  0  0
    4.0982   16.4236   14.9732 C   0  0  1  0  0  0  0  0  0  0  0  0
    4.3490   17.1864   16.1723 O   0  0  0  0  0  0  0  0  0  0  0  0
    3.3730   17.2644   13.9085 C   0  0  2  0  0  0  0  0  0  0  0  0
    2.1788   17.7265   14.4414 O   0  0  0  0  0  0  0  0  0  0  0  0
    3.1110   16.3818   12.6043 C   0  0  2  0  0  0  0  0  0  0  0  0
    4.3400   15.9000   12.0467 O   0  0  0  0  0  0  0  0  0  0  0  0
    2.4200   17.1641   11.5237 C   0  0  0  0  0  0  0  0  0  0  0  0
    2.1630   16.2701   10.4399 O   0  0  0  0  0  0  0  0  0  0  0  0
    7.1847   10.5828   12.9907 C   0  0  2  0  0  0  0  0  0  0  0  0
    7.7386    9.2464   13.0083 N   0  0  0  0  0  0  0  0  0  0  0  0
    6.6091   10.9518   14.4124 C   0  0  0  0  0  0  0  0  0  0  0  0
    5.9977   12.3970   14.4188 C   0  0  2  0  0  0  0  0  0  0  0  0
    5.4704   12.6962   15.7485 N   0  0  0  0  0  0  0  0  0  0  0  0
    4.8252   12.5664   13.3534 C   0  0  2  0  0  0  0  0  0  0  0  0
    5.4174   12.2357   11.9528 C   0  0  2  0  0  0  0  0  0  0  0  0
    4.2541   12.4285   11.0082 O   0  0  0  0  0  0  0  0  0  0  0  0
    5.9890   10.7124   11.9336 C   0  0  1  0  0  0  0  0  0  0  0  0
    6.6226   10.3065   10.6782 O   0  0  0  0  0  0  0  0  0  0  0  0
    3.4869   11.2965   10.9231 C   0  0  1  0  0  0  0  0  0  0  0  0
    2.3562   11.4356    9.9993 C   0  0  2  0  0  0  0  0  0  0  0  0
    1.4205   12.2652   10.6098 O   0  0  0  0  0  0  0  0  0  0  0  0
    2.0126    9.9563    9.7220 C   0  0  2  0  0  0  0  0  0  0  0  0
    0.6567    9.7505   10.1789 O   0  0  0  0  0  0  0  0  0  0  0  0
    3.0083    9.1761   10.5153 C   0  0  2  0  0  0  0  0  0  0  0  0
    4.1210   10.1350   10.4136 O   0  0  0  0  0  0  0  0  0  0  0  0
    3.3877    7.8227    9.8091 C   0  0  0  0  0  0  0  0  0  0  0  0
    2.9946    7.7647    8.4051 O   0  0  0  0  0  0  0  0  0  0  0  0
   -0.0655    8.6150    9.6133 C   0  0  2  0  0  0  0  0  0  0  0  0
   -1.6382    8.7900    9.9454 C   0  0  2  0  0  0  0  0  0  0  0  0
   -1.8213    8.8790   11.4304 N   0  0  0  0  0  0  0  0  0  0  0  0
   -2.4262    7.5382    9.3162 C   0  0  1  0  0  0  0  0  0  0  0  0
   -2.1730    7.5443    7.8783 O   0  0  0  0  0  0  0  0  0  0  0  0
   -1.9006    6.1893    9.9861 C   0  0  2  0  0  0  0  0  0  0  0  0
   -2.2045    6.2527   11.4331 O   0  0  0  0  0  0  0  0  0  0  0  0
   -0.3016    6.0629    9.6875 C   0  0  1  0  0  0  0  0  0  0  0  0
    0.4108    7.2801   10.2219 O   0  0  0  0  0  0  0  0  0  0  0  0
    0.2524    4.7564   10.3467 C   0  0  0  0  0  0  0  0  0  0  0  0
    1.7460    4.6805   10.3184 N   0  0  0  0  0  0  0  0  0  0  0  0
  1  3  1  0  0  0  0
  1  2  1  1  0  0  0
  3  4  1  1  0  0  0
  3  5  1  0  0  0  0
  5  6  1  1  0  0  0
  7  8  1  1  0  0  0
  7  5  1  0  0  0  0
  9 11  1  6  0  0  0
  9  7  1  0  0  0  0
 10  9  1  0  0  0  0
 10  1  1  0  0  0  0
 12 11  1  0  0  0  0
 13 14  1  1  0  0  0
 15 13  1  0  0  0  0
 16 17  1  1  0  0  0
 16 15  1  0  0  0  0
 18  2  1  6  0  0  0
 18 19  1  0  0  0  0
 18 16  1  0  0  0  0
 19 20  1  6  0  0  0
 19 21  1  0  0  0  0
 21 22  1  6  0  0  0
 21 13  1  0  0  0  0
 23 20  1  6  0  0  0
 23 29  1  0  0  0  0
 24 25  1  1  0  0  0
 24 26  1  0  0  0  0
 24 23  1  0  0  0  0
 26 27  1  1  0  0  0
 26 28  1  0  0  0  0
 28 30  1  6  0  0  0
 29 28  1  0  0  0  0
 30 31  1  0  0  0  0
 32 27  1  1  0  0  0
 32 40  1  0  0  0  0
 33 35  1  0  0  0  0
 33 32  1  0  0  0  0
 33 34  1  1  0  0  0
 35 36  1  6  0  0  0
 35 37  1  0  0  0  0
 37 38  1  1  0  0  0
 37 39  1  0  0  0  0
 39 41  1  1  0  0  0
 40 39  1  0  0  0  0
 41 42  1  0  0  0  0
M  END
>  <CHROM.1>
-111.61533635,-176.65419972,68.04588389,-85.55747577,-179.15474804,158.52283884
15.51963828,-165.36569682,-170.32516286,2.84864487,11.31660672,11.69915321
1.05902958,-0.31695673,0.27695205

>  <Name>
lig.pdb

>  <RI>
0

>  <Rbt.Current_Directory>
/home/itssahil/PROJECTS/Mol_Feturizer/New_Systems/rnas/4wcr

>  <Rbt.Executable>
rbdock ($Id: //depot/dev/client3/rdock/2013.1/src/exe/rbdock.cxx#4 $)

>  <Rbt.Library>
libRbt.so (2013.1, Build901 2013/11/27)

>  <Rbt.Parameter_File>
/export/apps/rDock/src/rDock_2013.1_src/data/scripts/dock_solv.prm

>  <Rbt.Receptor>
prm/blind_docking_40.prm

>  <SCORE>
11.6644

>  <SCORE.INTER>
-3.83395

>  <SCORE.INTER.CONST>
1

>  <SCORE.INTER.POLAR>
0

>  <SCORE.INTER.ROT>
9

>  <SCORE.INTER.SOLV>
31.3327

>  <SCORE.INTER.VDW>
-22.6002

>  <SCORE.INTER.norm>
-0.0912845

>  <SCORE.INTRA>
5.07738

>  <SCORE.INTRA.DIHEDRAL>
1.41692

>  <SCORE.INTRA.DIHEDRAL.0>
16.2863

>  <SCORE.INTRA.POLAR>
0

>  <SCORE.INTRA.POLAR.0>
0

>  <SCORE.INTRA.REPUL>
-0.314433

>  <SCORE.INTRA.REPUL.0>
0.314433

>  <SCORE.INTRA.SOLV>
1.0402

>  <SCORE.INTRA.SOLV.lig_0>
-103.824

>  <SCORE.INTRA.VDW>
5.42099

>  <SCORE.INTRA.VDW.0>
-5.30945

>  <SCORE.INTRA.norm>
0.12089

>  <SCORE.RESTR>
10.421

>  <SCORE.RESTR.CAVITY>
10.421

>  <SCORE.RESTR.norm>
0.248118

>  <SCORE.SYSTEM>
0

>  <SCORE.SYSTEM.CONST>
0

>  <SCORE.SYSTEM.DIHEDRAL>
0

>  <SCORE.SYSTEM.SOLV>
0

>  <SCORE.SYSTEM.norm>
0

>  <SCORE.heavy>
42

>  <SCORE.norm>
0.277724

>  <RMSD>
26.219

$$$$
lig.pdb
 OpenBabel11021811513D
libRbt.so/2013.1/901 2013/11/27
 42 45  0  0  0  0  0  0  0  0999 V2000
    3.8384   14.7599   14.1920 C   0  0  2  0  0  0  0  0  0  0  0  0
    4.3093   15.6151   13.1039 O   0  0  0  0  0  0  0  0  0  0  0  0
    4.1950   15.5256   15.5435 C   0  0  2  0  0  0  0  0  0  0  0  0
    3.4866   16.8071   15.6044 N   0  0  0  0  0  0  0  0  0  0  0  0
    5.7884   15.7084   15.6289 C   0  0  1  0  0  0  0  0  0  0  0  0
    6.1702   16.3886   16.8430 O   0  0  0  0  0  0  0  0  0  0  0  0
    6.4120   14.3046   15.5463 C   0  0  2  0  0  0  0  0  0  0  0  0
    7.7921   14.4241   15.6153 O   0  0  0  0  0  0  0  0  0  0  0  0
    5.9692   13.5920   14.1881 C   0  0  2  0  0  0  0  0  0  0  0  0
    4.5441   13.4642   14.1083 O   0  0  0  0  0  0  0  0  0  0  0  0
    6.5378   12.2066   14.0670 C   0  0  0  0  0  0  0  0  0  0  0  0
    6.0546   11.6464   12.8454 O   0  0  0  0  0  0  0  0  0  0  0  0
    0.4723   17.0500   11.3746 C   0  0  2  0  0  0  0  0  0  0  0  0
   -0.4707   17.7386   10.5204 N   0  0  0  0  0  0  0  0  0  0  0  0
    1.4869   18.0798   12.0062 C   0  0  0  0  0  0  0  0  0  0  0  0
    2.5245   17.3563   12.9349 C   0  0  2  0  0  0  0  0  0  0  0  0
    3.4479   18.3421   13.4928 N   0  0  0  0  0  0  0  0  0  0  0  0
    3.3662   16.2480   12.1593 C   0  0  2  0  0  0  0  0  0  0  0  0
    2.3549   15.2201   11.5744 C   0  0  2  0  0  0  0  0  0  0  0  0
    3.2276   14.2076   10.8701 O   0  0  0  0  0  0  0  0  0  0  0  0
    1.3240   15.9658   10.5601 C   0  0  1  0  0  0  0  0  0  0  0  0
    0.2879   15.1041    9.9891 O   0  0  0  0  0  0  0  0  0  0  0  0
    2.4838   13.1765   10.3592 C   0  0  1  0  0  0  0  0  0  0  0  0
    2.8202   11.8766   10.9495 C   0  0  2  0  0  0  0  0  0  0  0  0
    4.0599   11.4984   10.4427 O   0  0  0  0  0  0  0  0  0  0  0  0
    1.5603   11.0550   10.6017 C   0  0  2  0  0  0  0  0  0  0  0  0
    1.9955    9.9567    9.7688 O   0  0  0  0  0  0  0  0  0  0  0  0
    0.6702   12.0076    9.8737 C   0  0  2  0  0  0  0  0  0  0  0  0
    1.0846   13.2297   10.5827 O   0  0  0  0  0  0  0  0  0  0  0  0
   -0.8506   11.7092   10.1429 C   0  0  0  0  0  0  0  0  0  0  0  0
   -1.1291   10.3074   10.4368 O   0  0  0  0  0  0  0  0  0  0  0  0
    0.9723    9.0087    9.3383 C   0  0  2  0  0  0  0  0  0  0  0  0
    0.8701    7.8289   10.4392 C   0  0  2  0  0  0  0  0  0  0  0  0
    2.2094    7.1714   10.5827 N   0  0  0  0  0  0  0  0  0  0  0  0
   -0.2607    6.7919    9.9599 C   0  0  1  0  0  0  0  0  0  0  0  0
   -1.5118    7.5360    9.8466 O   0  0  0  0  0  0  0  0  0  0  0  0
    0.1600    6.1590    8.5575 C   0  0  2  0  0  0  0  0  0  0  0  0
    1.4228    5.4134    8.7565 O   0  0  0  0  0  0  0  0  0  0  0  0
    0.3132    7.3724    7.4776 C   0  0  1  0  0  0  0  0  0  0  0  0
    1.3260    8.3712    7.9790 O   0  0  0  0  0  0  0  0  0  0  0  0
    0.7433    6.7881    6.0911 C   0  0  0  0  0  0  0  0  0  0  0  0
    0.9500    7.8463    5.0544 N   0  0  0  0  0  0  0  0  0  0  0  0
  1  3  1  0  0  0  0
  1  2  1  6  0  0  0
  3  4  1  6  0  0  0
  3  5  1  0  0  0  0
  5  6  1  1  0  0  0
  7  8  1  6  0  0  0
  7  5  1  0  0  0  0
  9 11  1  1  0  0  0
  9  7  1  0  0  0  0
 10  9  1  0  0  0  0
 10  1  1  0  0  0  0
 12 11  1  0  0  0  0
 13 14  1  6  0  0  0
 15 13  1  0  0  0  0
 16 17  1  6  0  0  0
 16 15  1  0  0  0  0
 18  2  1  1  0  0  0
 18 19  1  0  0  0  0
 18 16  1  0  0  0  0
 19 20  1  6  0  0  0
 19 21  1  0  0  0  0
 21 22  1  1  0  0  0
 21 13  1  0  0  0  0
 23 20  1  1  0  0  0
 23 29  1  0  0  0  0
 24 25  1  6  0  0  0
 24 26  1  0  0  0  0
 24 23  1  0  0  0  0
 26 27  1  6  0  0  0
 26 28  1  0  0  0  0
 28 30  1  1  0  0  0
 29 28  1  0  0  0  0
 30 31  1  0  0  0  0
 32 27  1  1  0  0  0
 32 40  1  0  0  0  0
 33 35  1  0  0  0  0
 33 32  1  0  0  0  0
 33 34  1  6  0  0  0
 35 36  1  6  0  0  0
 35 37  1  0  0  0  0
 37 38  1  1  0  0  0
 37 39  1  0  0  0  0
 39 41  1  6  0  0  0
 40 39  1  0  0  0  0
 41 42  1  0  0  0  0
M  END
>  <CHROM.1>
-114.06853794,178.37604937,68.62191210,176.42288968,-117.51891076,178.36361234
-28.60470436,-89.96143594,-178.08239293,2.47145775,12.46472279,11.42581703
-1.08670757,0.68137139,-2.85795734

>  <Name>
lig.pdb

>  <RI>
0

>  <Rbt.Current_Directory>
/home/itssahil/PROJECTS/Mol_Feturizer/New_Systems/rnas/4wcr

>  <Rbt.Executable>
rbdock ($Id: //depot/dev/client3/rdock/2013.1/src/exe/rbdock.cxx#4 $)

>  <Rbt.Library>
libRbt.so (2013.1, Build901 2013/11/27)

>  <Rbt.Parameter_File>
/export/apps/rDock/src/rDock_2013.1_src/data/scripts/dock_solv.prm

>  <Rbt.Receptor>
prm/blind_docking_40.prm

>  <SCORE>
18.4411

>  <SCORE.INTER>
-2.22963

>  <SCORE.INTER.CONST>
1

>  <SCORE.INTER.POLAR>
0

>  <SCORE.INTER.ROT>
9

>  <SCORE.INTER.SOLV>
35.5433

>  <SCORE.INTER.VDW>
-22.9342

>  <SCORE.INTER.norm>
-0.0530863

>  <SCORE.INTRA>
11.0848

>  <SCORE.INTRA.DIHEDRAL>
4.77953

>  <SCORE.INTRA.DIHEDRAL.0>
16.2863

>  <SCORE.INTRA.POLAR>
0

>  <SCORE.INTRA.POLAR.0>
0

>  <SCORE.INTRA.REPUL>
-0.314433

>  <SCORE.INTRA.REPUL.0>
0.314433

>  <SCORE.INTRA.SOLV>
0.702914

>  <SCORE.INTRA.SOLV.lig_0>
-103.824

>  <SCORE.INTRA.VDW>
9.91574

>  <SCORE.INTRA.VDW.0>
-5.30945

>  <SCORE.INTRA.norm>
0.263924

>  <SCORE.RESTR>
9.58594

>  <SCORE.RESTR.CAVITY>
9.58594

>  <SCORE.RESTR.norm>
0.228237

>  <SCORE.SYSTEM>
0

>  <SCORE.SYSTEM.CONST>
0

>  <SCORE.SYSTEM.DIHEDRAL>
0

>  <SCORE.SYSTEM.SOLV>
0

>  <SCORE.SYSTEM.norm>
0

>  <SCORE.heavy>
42

>  <SCORE.norm>
0.439074

>  <RMSD>
26.276

$$$$
lig.pdb
 OpenBabel11021811513D
libRbt.so/2013.1/901 2013/11/27
 42 45  0  0  0  0  0  0  0  0999 V2000
    5.4579   14.5523   12.8946 C   0  0  2  0  0  0  0  0  0  0  0  0
    4.0337   14.5152   13.2224 O   0  0  0  0  0  0  0  0  0  0  0  0
    6.0310   13.1070   13.2451 C   0  0  2  0  0  0  0  0  0  0  0  0
    5.3788   12.0870   12.4193 N   0  0  0  0  0  0  0  0  0  0  0  0
    5.8280   12.8374   14.8154 C   0  0  1  0  0  0  0  0  0  0  0  0
    6.3413   11.5423   15.1920 O   0  0  0  0  0  0  0  0  0  0  0  0
    6.5452   13.9714   15.5677 C   0  0  2  0  0  0  0  0  0  0  0  0
    6.3889   13.7717   16.9313 O   0  0  0  0  0  0  0  0  0  0  0  0
    5.9436   15.3826   15.1260 C   0  0  2  0  0  0  0  0  0  0  0  0
    6.1009   15.5975   13.7180 O   0  0  0  0  0  0  0  0  0  0  0  0
    6.6248   16.5279   15.8198 C   0  0  0  0  0  0  0  0  0  0  0  0
    6.2280   16.5000   17.1915 O   0  0  0  0  0  0  0  0  0  0  0  0
    0.2292   16.7004   12.4993 C   0  0  2  0  0  0  0  0  0  0  0  0
   -0.7022   17.7199   12.0678 N   0  0  0  0  0  0  0  0  0  0  0  0
    1.3394   17.3340   13.4238 C   0  0  0  0  0  0  0  0  0  0  0  0
    2.3662   16.2481   13.9024 C   0  0  2  0  0  0  0  0  0  0  0  0
    3.3792   16.8760   14.7481 N   0  0  0  0  0  0  0  0  0  0  0  0
    3.0942   15.5210   12.6859 C   0  0  2  0  0  0  0  0  0  0  0  0
    1.9895   14.8698   11.8044 C   0  0  2  0  0  0  0  0  0  0  0  0
    2.7581   14.1992   10.6897 O   0  0  0  0  0  0  0  0  0  0  0  0
    0.9671   16.0108   11.2566 C   0  0  1  0  0  0  0  0  0  0  0  0
   -0.1504   15.5063   10.4572 O   0  0  0  0  0  0  0  0  0  0  0  0
    2.0519   13.1542   10.1544 C   0  0  1  0  0  0  0  0  0  0  0  0
    2.2127   11.9055   10.9069 C   0  0  2  0  0  0  0  0  0  0  0  0
    3.4957   11.4298   10.6536 O   0  0  0  0  0  0  0  0  0  0  0  0
    0.9832   11.1056   10.4255 C   0  0  2  0  0  0  0  0  0  0  0  0
    1.4874    9.9146    9.7799 O   0  0  0  0  0  0  0  0  0  0  0  0
    0.2805   12.0179    9.4749 C   0  0  2  0  0  0  0  0  0  0  0  0
    0.6403   13.2855   10.1318 O   0  0  0  0  0  0  0  0  0  0  0  0
   -1.2783   11.8090    9.5080 C   0  0  0  0  0  0  0  0  0  0  0  0
   -1.7021   10.4903    9.0492 O   0  0  0  0  0  0  0  0  0  0  0  0
    0.5121    8.8806    9.4473 C   0  0  2  0  0  0  0  0  0  0  0  0
    1.1849    7.4351    9.7154 C   0  0  2  0  0  0  0  0  0  0  0  0
    2.4290    7.3097    8.8889 N   0  0  0  0  0  0  0  0  0  0  0  0
    0.1037    6.3029    9.3505 C   0  0  1  0  0  0  0  0  0  0  0  0
   -1.0607    6.5241   10.2030 O   0  0  0  0  0  0  0  0  0  0  0  0
   -0.2842    6.4174    7.8075 C   0  0  2  0  0  0  0  0  0  0  0  0
    0.9388    6.1684    7.0123 O   0  0  0  0  0  0  0  0  0  0  0  0
   -0.9072    7.9030    7.5488 C   0  0  1  0  0  0  0  0  0  0  0  0
    0.0946    8.9512    7.9641 O   0  0  0  0  0  0  0  0  0  0  0  0
   -1.2836    8.0569    6.0378 C   0  0  0  0  0  0  0  0  0  0  0  0
   -0.1422    7.7500    5.1212 N   0  0  0  0  0  0  0  0  0  0  0  0
  1  3  1  0  0  0  0
  1  2  1  1  0  0  0
  3  4  1  6  0  0  0
  3  5  1  0  0  0  0
  5  6  1  1  0  0  0
  7  8  1  1  0  0  0
  7  5  1  0  0  0  0
  9 11  1  1  0  0  0
  9  7  1  0  0  0  0
 10  9  1  0  0  0  0
 10  1  1  0  0  0  0
 12 11  1  0  0  0  0
 13 14  1  6  0  0  0
 15 13  1  0  0  0  0
 16 17  1  1  0  0  0
 16 15  1  0  0  0  0
 18  2  1  1  0  0  0
 18 19  1  0  0  0  0
 18 16  1  0  0  0  0
 19 20  1  6  0  0  0
 19 21  1  0  0  0  0
 21 22  1  6  0  0  0
 21 13  1  0  0  0  0
 23 20  1  1  0  0  0
 23 29  1  0  0  0  0
 24 25  1  6  0  0  0
 24 26  1  0  0  0  0
 24 23  1  0  0  0  0
 26 27  1  6  0  0  0
 26 28  1  0  0  0  0
 28 30  1  1  0  0  0
 29 28  1  0  0  0  0
 30 31  1  0  0  0  0
 32 27  1  6  0  0  0
 32 40  1  0  0  0  0
 33 35  1  0  0  0  0
 33 32  1  0  0  0  0
 33 34  1  6  0  0  0
 35 36  1  1  0  0  0
 35 37  1  0  0  0  0
 37 38  1  6  0  0  0
 37 39  1  0  0  0  0
 39 41  1  6  0  0  0
 40 39  1  0  0  0  0
 41 42  1  0  0  0  0
M  END
>  <CHROM.1>
-162.31121498,-70.70954362,-122.67149217,154.88301107,-84.10305505,169.51893302
-64.61826645,-141.74785589,-53.97529096,2.29399689,12.32369089,11.40666374
-0.98909483,0.62174208,-2.78150276

>  <Name>
lig.pdb

>  <RI>
0

>  <Rbt.Current_Directory>
/home/itssahil/PROJECTS/Mol_Feturizer/New_Systems/rnas/4wcr

>  <Rbt.Executable>
rbdock ($Id: //depot/dev/client3/rdock/2013.1/src/exe/rbdock.cxx#4 $)

>  <Rbt.Library>
libRbt.so (2013.1, Build901 2013/11/27)

>  <Rbt.Parameter_File>
/export/apps/rDock/src/rDock_2013.1_src/data/scripts/dock_solv.prm

>  <Rbt.Receptor>
prm/blind_docking_80.prm

>  <SCORE>
-1.78074

>  <SCORE.INTER>
-11.0439

>  <SCORE.INTER.CONST>
1

>  <SCORE.INTER.POLAR>
0

>  <SCORE.INTER.ROT>
9

>  <SCORE.INTER.SOLV>
30.9593

>  <SCORE.INTER.VDW>
-27.2823

>  <SCORE.INTER.norm>
-0.262949

>  <SCORE.INTRA>
3.94901

>  <SCORE.INTRA.DIHEDRAL>
4.24895

>  <SCORE.INTRA.DIHEDRAL.0>
16.2863

>  <SCORE.INTRA.POLAR>
0

>  <SCORE.INTRA.POLAR.0>
0

>  <SCORE.INTRA.REPUL>
-0.314433

>  <SCORE.INTRA.REPUL.0>
0.314433

>  <SCORE.INTRA.SOLV>
2.6484

>  <SCORE.INTRA.SOLV.lig_0>
-103.824

>  <SCORE.INTRA.VDW>
2.07251

>  <SCORE.INTRA.VDW.0>
-5.30945

>  <SCORE.INTRA.norm>
0.0940242

>  <SCORE.RESTR>
5.31411

>  <SCORE.RESTR.CAVITY>
5.31411

>  <SCORE.RESTR.norm>
0.126526

>  <SCORE.SYSTEM>
0

>  <SCORE.SYSTEM.CONST>
0

>  <SCORE.SYSTEM.DIHEDRAL>
0

>  <SCORE.SYSTEM.SOLV>
0

>  <SCORE.SYSTEM.norm>
0

>  <SCORE.heavy>
42

>  <SCORE.norm>
-0.0423985

>  <RMSD>
26.289

$$$$
lig.pdb
 OpenBabel11021811513D
libRbt.so/2013.1/901 2013/11/27
 42 45  0  0  0  0  0  0  0  0999 V2000
    2.4912   15.2867   13.6502 C   0  0  2  0  0  0  0  0  0  0  0  0
    3.7407   14.8386   13.0377 O   0  0  0  0  0  0  0  0  0  0  0  0
    2.3565   16.8356   13.2999 C   0  0  2  0  0  0  0  0  0  0  0  0
    2.2698   17.0235   11.8491 N   0  0  0  0  0  0  0  0  0  0  0  0
    3.6031   17.6205   13.9400 C   0  0  1  0  0  0  0  0  0  0  0  0
    3.5262   19.0345   13.6624 O   0  0  0  0  0  0  0  0  0  0  0  0
    3.5895   17.3387   15.4523 C   0  0  2  0  0  0  0  0  0  0  0  0
    4.6569   18.0014   16.0397 O   0  0  0  0  0  0  0  0  0  0  0  0
    3.6817   15.7666   15.7134 C   0  0  2  0  0  0  0  0  0  0  0  0
    2.5823   15.0735   15.1097 O   0  0  0  0  0  0  0  0  0  0  0  0
    3.6529   15.4358   17.1786 C   0  0  0  0  0  0  0  0  0  0  0  0
    4.7195   16.1505   17.8042 O   0  0  0  0  0  0  0  0  0  0  0  0
    5.8153   11.0738   11.8999 C   0  0  2  0  0  0  0  0  0  0  0  0
    6.3001    9.7114   11.9450 N   0  0  0  0  0  0  0  0  0  0  0  0
    6.2450   11.8476   13.2058 C   0  0  0  0  0  0  0  0  0  0  0  0
    5.7269   13.3287   13.1835 C   0  0  2  0  0  0  0  0  0  0  0  0
    6.1390   14.0065   14.4109 N   0  0  0  0  0  0  0  0  0  0  0  0
    4.1411   13.4168   13.0580 C   0  0  2  0  0  0  0  0  0  0  0  0
    3.7363   12.6822   11.7472 C   0  0  2  0  0  0  0  0  0  0  0  0
    2.2325   12.8197   11.6994 O   0  0  0  0  0  0  0  0  0  0  0  0
    4.2177   11.1291   11.8057 C   0  0  1  0  0  0  0  0  0  0  0  0
    3.9385   10.3502   10.5984 O   0  0  0  0  0  0  0  0  0  0  0  0
    1.7339   12.4327   10.4833 C   0  0  1  0  0  0  0  0  0  0  0  0
    1.1433   11.0904   10.5041 C   0  0  2  0  0  0  0  0  0  0  0  0
    2.1899   10.1772   10.5903 O   0  0  0  0  0  0  0  0  0  0  0  0
    0.2578   11.1333    9.2403 C   0  0  2  0  0  0  0  0  0  0  0  0
    0.7442   10.0993    8.3550 O   0  0  0  0  0  0  0  0  0  0  0  0
    0.4538   12.5040    8.6813 C   0  0  2  0  0  0  0  0  0  0  0  0
    0.6617   13.2002    9.9618 O   0  0  0  0  0  0  0  0  0  0  0  0
   -0.8456   13.0385    7.9739 C   0  0  0  0  0  0  0  0  0  0  0  0
   -0.7342   14.4170    7.5087 O   0  0  0  0  0  0  0  0  0  0  0  0
    0.8568    8.7539    8.9101 C   0  0  2  0  0  0  0  0  0  0  0  0
    1.0742    7.7127    7.6924 C   0  0  2  0  0  0  0  0  0  0  0  0
   -0.0761    7.8238    6.7378 N   0  0  0  0  0  0  0  0  0  0  0  0
    1.2008    6.2350    8.3122 C   0  0  1  0  0  0  0  0  0  0  0  0
    2.3394    6.2439    9.2261 O   0  0  0  0  0  0  0  0  0  0  0  0
   -0.1479    5.8638    9.0787 C   0  0  2  0  0  0  0  0  0  0  0  0
   -1.2473    5.8617    8.0880 O   0  0  0  0  0  0  0  0  0  0  0  0
   -0.3767    6.9603   10.2651 C   0  0  1  0  0  0  0  0  0  0  0  0
   -0.4211    8.3461    9.6716 O   0  0  0  0  0  0  0  0  0  0  0  0
   -1.7035    6.6362   11.0287 C   0  0  0  0  0  0  0  0  0  0  0  0
   -1.5718    5.4648   11.9495 N   0  0  0  0  0  0  0  0  0  0  0  0
  1  3  1  0  0  0  0
  1  2  1  6  0  0  0
  3  4  1  6  0  0  0
  3  5  1  0  0  0  0
  5  6  1  1  0  0  0
  7  8  1  1  0  0  0
  7  5  1  0  0  0  0
  9 11  1  1  0  0  0
  9  7  1  0  0  0  0
 10  9  1  0  0  0  0
 10  1  1  0  0  0  0
 12 11  1  0  0  0  0
 13 14  1  1  0  0  0
 15 13  1  0  0  0  0
 16 17  1  1  0  0  0
 16 15  1  0  0  0  0
 18  2  1  6  0  0  0
 18 19  1  0  0  0  0
 18 16  1  0  0  0  0
 19 20  1  1  0  0  0
 19 21  1  0  0  0  0
 21 22  1  6  0  0  0
 21 13  1  0  0  0  0
 23 20  1  1  0  0  0
 23 29  1  0  0  0  0
 24 25  1  6  0  0  0
 24 26  1  0  0  0  0
 24 23  1  0  0  0  0
 26 27  1  6  0  0  0
 26 28  1  0  0  0  0
 28 30  1  1  0  0  0
 29 28  1  0  0  0  0
 30 31  1  0  0  0  0
 32 27  1  6  0  0  0
 32 40  1  0  0  0  0
 33 35  1  0  0  0  0
 33 32  1  0  0  0  0
 33 34  1  6  0  0  0
 35 36  1  1  0  0  0
 35 37  1  0  0  0  0
 37 38  1  6  0  0  0
 37 39  1  0  0  0  0
 39 41  1  6  0  0  0
 40 39  1  0  0  0  0
 41 42  1  0  0  0  0
M  END
>  <CHROM.1>
-174.73634616,-56.18486515,-145.54250400,169.14068665,101.71892624,53.18761982
175.26751912,166.85363778,75.27358416,2.24596931,11.99449581,11.54024265
1.05316550,-0.78508266,0.20891493

>  <Name>
lig.pdb

>  <RI>
0

>  <Rbt.Current_Directory>
/home/itssahil/PROJECTS/Mol_Feturizer/New_Systems/rnas/4wcr

>  <Rbt.Executable>
rbdock ($Id: //depot/dev/client3/rdock/2013.1/src/exe/rbdock.cxx#4 $)

>  <Rbt.Library>
libRbt.so (2013.1, Build901 2013/11/27)

>  <Rbt.Parameter_File>
/export/apps/rDock/src/rDock_2013.1_src/data/scripts/dock_solv.prm

>  <Rbt.Receptor>
prm/blind_docking_40.prm

>  <SCORE>
15.717

>  <SCORE.INTER>
-6.73425

>  <SCORE.INTER.CONST>
1

>  <SCORE.INTER.POLAR>
0

>  <SCORE.INTER.ROT>
9

>  <SCORE.INTER.SOLV>
26.7945

>  <SCORE.INTER.VDW>
-23.021

>  <SCORE.INTER.norm>
-0.160339

>  <SCORE.INTRA>
15.8062

>  <SCORE.INTRA.DIHEDRAL>
-3.01049

>  <SCORE.INTRA.DIHEDRAL.0>
16.2863

>  <SCORE.INTRA.POLAR>
0

>  <SCORE.INTRA.POLAR.0>
0

>  <SCORE.INTRA.REPUL>
-0.314433

>  <SCORE.INTRA.REPUL.0>
0.314433

>  <SCORE.INTRA.SOLV>
-2.83212

>  <SCORE.INTRA.SOLV.lig_0>
-103.824

>  <SCORE.INTRA.VDW>
20.2997

>  <SCORE.INTRA.VDW.0>
-5.30945

>  <SCORE.INTRA.norm>
0.376338

>  <SCORE.RESTR>
6.64503

>  <SCORE.RESTR.CAVITY>
6.64503

>  <SCORE.RESTR.norm>
0.158215

>  <SCORE.SYSTEM>
0

>  <SCORE.SYSTEM.CONST>
0

>  <SCORE.SYSTEM.DIHEDRAL>
0

>  <SCORE.SYSTEM.SOLV>
0

>  <SCORE.SYSTEM.norm>
0

>  <SCORE.heavy>
42

>  <SCORE.norm>
0.374214

>  <RMSD>
26.292

$$$$
lig.pdb
 OpenBabel11021811513D
libRbt.so/2013.1/901 2013/11/27
 42 45  0  0  0  0  0  0  0  0999 V2000
    5.4692   14.4743   12.9615 C   0  0  2  0  0  0  0  0  0  0  0  0
    4.0426   14.4369   13.2787 O   0  0  0  0  0  0  0  0  0  0  0  0
    6.0499   13.0455   13.3630 C   0  0  2  0  0  0  0  0  0  0  0  0
    5.4122   11.9945   12.5652 N   0  0  0  0  0  0  0  0  0  0  0  0
    5.8357   12.8249   14.9395 C   0  0  1  0  0  0  0  0  0  0  0  0
    6.3553   11.5465   15.3618 O   0  0  0  0  0  0  0  0  0  0  0  0
    6.5382   13.9880   15.6607 C   0  0  2  0  0  0  0  0  0  0  0  0
    6.3719   13.8310   17.0287 O   0  0  0  0  0  0  0  0  0  0  0  0
    5.9299   15.3796   15.1689 C   0  0  2  0  0  0  0  0  0  0  0  0
    6.0975   15.5503   13.7560 O   0  0  0  0  0  0  0  0  0  0  0  0
    6.5968   16.5518   15.8310 C   0  0  0  0  0  0  0  0  0  0  0  0
    6.3525   16.4520   17.2346 O   0  0  0  0  0  0  0  0  0  0  0  0
    0.2147   16.5180   12.3903 C   0  0  2  0  0  0  0  0  0  0  0  0
   -0.7245   17.5127   11.9199 N   0  0  0  0  0  0  0  0  0  0  0  0
    1.2639   17.1787   13.3658 C   0  0  0  0  0  0  0  0  0  0  0  0
    2.2981   16.1200   13.8873 C   0  0  2  0  0  0  0  0  0  0  0  0
    3.2540   16.7725   14.7796 N   0  0  0  0  0  0  0  0  0  0  0  0
    3.1003   15.4183   12.7030 C   0  0  2  0  0  0  0  0  0  0  0  0
    2.0552   14.7400   11.7707 C   0  0  2  0  0  0  0  0  0  0  0  0
    2.8917   14.0955   10.6901 O   0  0  0  0  0  0  0  0  0  0  0  0
    1.0269   15.8542   11.1804 C   0  0  1  0  0  0  0  0  0  0  0  0
   -0.0388   15.3218   10.3300 O   0  0  0  0  0  0  0  0  0  0  0  0
    2.2497   13.0191   10.1366 C   0  0  1  0  0  0  0  0  0  0  0  0
    2.3624   11.8023   10.9476 C   0  0  2  0  0  0  0  0  0  0  0  0
    3.6693   11.3401   10.8242 O   0  0  0  0  0  0  0  0  0  0  0  0
    1.1909   10.9636   10.3932 C   0  0  2  0  0  0  0  0  0  0  0  0
    1.7662    9.7584    9.8398 O   0  0  0  0  0  0  0  0  0  0  0  0
    0.5603   11.8274    9.3512 C   0  0  2  0  0  0  0  0  0  0  0  0
    0.8436   13.1247    9.9874 O   0  0  0  0  0  0  0  0  0  0  0  0
   -0.9923   11.5926    9.2579 C   0  0  0  0  0  0  0  0  0  0  0  0
   -1.7311   12.0971   10.4107 O   0  0  0  0  0  0  0  0  0  0  0  0
    0.8346    8.7314    9.3832 C   0  0  2  0  0  0  0  0  0  0  0  0
    1.6357    7.3330    9.2534 C   0  0  2  0  0  0  0  0  0  0  0  0
    2.7793    7.5069    8.3003 N   0  0  0  0  0  0  0  0  0  0  0  0
    0.6025    6.2073    8.7541 C   0  0  1  0  0  0  0  0  0  0  0  0
   -0.4661    6.1286    9.7458 O   0  0  0  0  0  0  0  0  0  0  0  0
    0.0281    6.6121    7.3220 C   0  0  2  0  0  0  0  0  0  0  0  0
    1.1634    6.6571    6.3737 O   0  0  0  0  0  0  0  0  0  0  0  0
   -0.7253    8.0522    7.4649 C   0  0  1  0  0  0  0  0  0  0  0  0
    0.2412    9.0778    8.0022 O   0  0  0  0  0  0  0  0  0  0  0  0
   -1.2874    8.4895    6.0716 C   0  0  0  0  0  0  0  0  0  0  0  0
   -2.2425    7.4945    5.4929 N   0  0  0  0  0  0  0  0  0  0  0  0
  1  3  1  0  0  0  0
  1  2  1  1  0  0  0
  3  4  1  6  0  0  0
  3  5  1  0  0  0  0
  5  6  1  1  0  0  0
  7  8  1  1  0  0  0
  7  5  1  0  0  0  0
  9 11  1  1  0  0  0
  9  7  1  0  0  0  0
 10  9  1  0  0  0  0
 10  1  1  0  0  0  0
 12 11  1  0  0  0  0
 13 14  1  6  0  0  0
 15 13  1  0  0  0  0
 16 17  1  1  0  0  0
 16 15  1  0  0  0  0
 18  2  1  1  0  0  0
 18 19  1  0  0  0  0
 18 16  1  0  0  0  0
 19 20  1  6  0  0  0
 19 21  1  0  0  0  0
 21 22  1  6  0  0  0
 21 13  1  0  0  0  0
 23 20  1  1  0  0  0
 23 29  1  0  0  0  0
 24 25  1  6  0  0  0
 24 26  1  0  0  0  0
 24 23  1  0  0  0  0
 26 27  1  6  0  0  0
 26 28  1  0  0  0  0
 28 30  1  1  0  0  0
 29 28  1  0  0  0  0
 30 31  1  0  0  0  0
 32 27  1  6  0  0  0
 32 40  1  0  0  0  0
 33 35  1  0  0  0  0
 33 32  1  0  0  0  0
 33 34  1  6  0  0  0
 35 36  1  1  0  0  0
 35 37  1  0  0  0  0
 37 38  1  6  0  0  0
 37 39  1  0  0  0  0
 39 41  1  6  0  0  0
 40 39  1  0  0  0  0
 41 42  1  0  0  0  0
M  END
>  <CHROM.1>
-162.34611292,-62.19931774,-125.81159802,153.83019834,-80.44627228,173.42557878
70.30178780,-162.23439864,58.33278736,2.36522175,12.31146924,11.37918244
-0.99743746,0.61198634,-2.73895274

>  <Name>
lig.pdb

>  <RI>
0

>  <Rbt.Current_Directory>
/home/itssahil/PROJECTS/Mol_Feturizer/New_Systems/rnas/4wcr

>  <Rbt.Executable>
rbdock ($Id: //depot/dev/client3/rdock/2013.1/src/exe/rbdock.cxx#4 $)

>  <Rbt.Library>
libRbt.so (2013.1, Build901 2013/11/27)

>  <Rbt.Parameter_File>
/export/apps/rDock/src/rDock_2013.1_src/data/scripts/dock_solv.prm

>  <Rbt.Receptor>
prm/blind_docking_80.prm

>  <SCORE>
-6.59221

>  <SCORE.INTER>
-12.6892

>  <SCORE.INTER.CONST>
1

>  <SCORE.INTER.POLAR>
0

>  <SCORE.INTER.ROT>
9

>  <SCORE.INTER.SOLV>
28.843

>  <SCORE.INTER.VDW>
-27.6738

>  <SCORE.INTER.norm>
-0.302124

>  <SCORE.INTRA>
0.393913

>  <SCORE.INTRA.DIHEDRAL>
-0.585952

>  <SCORE.INTRA.DIHEDRAL.0>
16.2863

>  <SCORE.INTRA.POLAR>
0

>  <SCORE.INTRA.POLAR.0>
0

>  <SCORE.INTRA.REPUL>
-0.314433

>  <SCORE.INTRA.REPUL.0>
0.314433

>  <SCORE.INTRA.SOLV>
0.685363

>  <SCORE.INTRA.SOLV.lig_0>
-103.824

>  <SCORE.INTRA.VDW>
1.91637

>  <SCORE.INTRA.VDW.0>
-5.30945

>  <SCORE.INTRA.norm>
0.00937889

>  <SCORE.RESTR>
5.70308

>  <SCORE.RESTR.CAVITY>
5.70308

>  <SCORE.RESTR.norm>
0.135788

>  <SCORE.SYSTEM>
0

>  <SCORE.SYSTEM.CONST>
0

>  <SCORE.SYSTEM.DIHEDRAL>
0

>  <SCORE.SYSTEM.SOLV>
0

>  <SCORE.SYSTEM.norm>
0

>  <SCORE.heavy>
42

>  <SCORE.norm>
-0.156957

>  <RMSD>
26.341

$$$$
lig.pdb
 OpenBabel11021811513D
libRbt.so/2013.1/901 2013/11/27
 42 45  0  0  0  0  0  0  0  0999 V2000
    3.1763    9.1950   11.0797 C   0  0  2  0  0  0  0  0  0  0  0  0
    2.9551   10.3518   10.2137 O   0  0  0  0  0  0  0  0  0  0  0  0
    4.3365    8.3440   10.3945 C   0  0  2  0  0  0  0  0  0  0  0  0
    5.5714    9.1301   10.3254 N   0  0  0  0  0  0  0  0  0  0  0  0
    3.8393    7.8664    8.9438 C   0  0  1  0  0  0  0  0  0  0  0  0
    4.8502    7.0790    8.2799 O   0  0  0  0  0  0  0  0  0  0  0  0
    2.5419    7.0656    9.1489 C   0  0  2  0  0  0  0  0  0  0  0  0
    2.0812    6.6373    7.9128 O   0  0  0  0  0  0  0  0  0  0  0  0
    1.4517    7.9744    9.8796 C   0  0  2  0  0  0  0  0  0  0  0  0
    1.9195    8.4216   11.1581 O   0  0  0  0  0  0  0  0  0  0  0  0
    0.1686    7.2312   10.1213 C   0  0  0  0  0  0  0  0  0  0  0  0
   -0.6713    8.0667   10.9189 O   0  0  0  0  0  0  0  0  0  0  0  0
    0.4329   14.0021    9.9197 C   0  0  2  0  0  0  0  0  0  0  0  0
   -0.5019   15.0506   10.2658 N   0  0  0  0  0  0  0  0  0  0  0  0
   -0.2435   12.5885   10.1013 C   0  0  0  0  0  0  0  0  0  0  0  0
    0.7527   11.4323    9.7359 C   0  0  2  0  0  0  0  0  0  0  0  0
    0.0911   10.1429    9.9240 N   0  0  0  0  0  0  0  0  0  0  0  0
    2.0742   11.4640   10.6253 C   0  0  2  0  0  0  0  0  0  0  0  0
    2.7493   12.8490   10.4068 C   0  0  2  0  0  0  0  0  0  0  0  0
    3.9883   12.7929   11.2696 O   0  0  0  0  0  0  0  0  0  0  0  0
    1.7349   14.0411   10.8511 C   0  0  1  0  0  0  0  0  0  0  0  0
    2.2441   15.3966   10.6375 O   0  0  0  0  0  0  0  0  0  0  0  0
    3.8733   13.6110   12.3627 C   0  0  1  0  0  0  0  0  0  0  0  0
    5.0729   13.6163   13.2064 C   0  0  2  0  0  0  0  0  0  0  0  0
    5.1167   12.3962   13.8743 O   0  0  0  0  0  0  0  0  0  0  0  0
    4.8743   14.9250   14.0008 C   0  0  2  0  0  0  0  0  0  0  0  0
    4.7964   14.5578   15.3968 O   0  0  0  0  0  0  0  0  0  0  0  0
    3.5935   15.4950   13.4867 C   0  0  2  0  0  0  0  0  0  0  0  0
    3.7074   14.9957   12.1063 O   0  0  0  0  0  0  0  0  0  0  0  0
    3.6056   17.0679   13.5012 C   0  0  0  0  0  0  0  0  0  0  0  0
    2.3154   17.6664   13.1755 O   0  0  0  0  0  0  0  0  0  0  0  0
    4.7966   15.6481   16.3674 C   0  0  2  0  0  0  0  0  0  0  0  0
    5.6736   16.8676   15.7691 C   0  0  2  0  0  0  0  0  0  0  0  0
    7.0620   16.3814   15.4816 N   0  0  0  0  0  0  0  0  0  0  0  0
    5.6657   18.0648   16.8418 C   0  0  1  0  0  0  0  0  0  0  0  0
    4.2733   18.4512   17.0504 O   0  0  0  0  0  0  0  0  0  0  0  0
    6.3323   17.5634   18.2014 C   0  0  2  0  0  0  0  0  0  0  0  0
    7.7388   17.2052   17.9123 O   0  0  0  0  0  0  0  0  0  0  0  0
    5.4654   16.2973   18.7560 C   0  0  1  0  0  0  0  0  0  0  0  0
    5.4247   15.2139   17.7076 O   0  0  0  0  0  0  0  0  0  0  0  0
    6.1030   15.7675   20.0832 C   0  0  0  0  0  0  0  0  0  0  0  0
    6.4269   16.8627   21.0490 N   0  0  0  0  0  0  0  0  0  0  0  0
  1  3  1  0  0  0  0
  1  2  1  6  0  0  0
  3  4  1  6  0  0  0
  3  5  1  0  0  0  0
  5  6  1  1  0  0  0
  7  8  1  6  0  0  0
  7  5  1  0  0  0  0
  9 11  1  1  0  0  0
  9  7  1  0  0  0  0
 10  9  1  0  0  0  0
 10  1  1  0  0  0  0
 12 11  1  0  0  0  0
 13 14  1  1  0  0  0
 15 13  1  0  0  0  0
 16 17  1  1  0  0  0
 16 15  1  0  0  0  0
 18  2  1  6  0  0  0
 18 19  1  0  0  0  0
 18 16  1  0  0  0  0
 19 20  1  1  0  0  0
 19 21  1  0  0  0  0
 21 22  1  6  0  0  0
 21 13  1  0  0  0  0
 23 20  1  6  0  0  0
 23 29  1  0  0  0  0
 24 25  1  1  0  0  0
 24 26  1  0  0  0  0
 24 23  1  0  0  0  0
 26 27  1  1  0  0  0
 26 28  1  0  0  0  0
 28 30  1  6  0  0  0
 29 28  1  0  0  0  0
 30 31  1  0  0  0  0
 32 27  1  6  0  0  0
 32 40  1  0  0  0  0
 33 35  1  0  0  0  0
 33 32  1  0  0  0  0
 33 34  1  1  0  0  0
 35 36  1  1  0  0  0
 35 37  1  0  0  0  0
 37 38  1  6  0  0  0
 37 39  1  0  0  0  0
 39 41  1  1  0  0  0
 40 39  1  0  0  0  0
 41 42  1  0  0  0  0
M  END
>  <CHROM.1>
-171.57243165,172.92448647,-109.65828113,-109.03178925,-178.27757280,171.62575442
-172.34469560,-31.41418027,46.89488785,3.51324071,12.98669541,12.81991265
-2.02471556,-0.78452597,0.43359134

>  <Name>
lig.pdb

>  <RI>
0

>  <Rbt.Current_Directory>
/home/itssahil/PROJECTS/Mol_Feturizer/New_Systems/rnas/4wcr

>  <Rbt.Executable>
rbdock ($Id: //depot/dev/client3/rdock/2013.1/src/exe/rbdock.cxx#4 $)

>  <Rbt.Library>
libRbt.so (2013.1, Build901 2013/11/27)

>  <Rbt.Parameter_File>
/export/apps/rDock/src/rDock_2013.1_src/data/scripts/dock_solv.prm

>  <Rbt.Receptor>
prm/blind_docking_40.prm

>  <SCORE>
24.6432

>  <SCORE.INTER>
-1.76411

>  <SCORE.INTER.CONST>
1

>  <SCORE.INTER.POLAR>
0

>  <SCORE.INTER.ROT>
9

>  <SCORE.INTER.SOLV>
30.248

>  <SCORE.INTER.VDW>
-20.8587

>  <SCORE.INTER.norm>
-0.0420026

>  <SCORE.INTRA>
17.0614

>  <SCORE.INTRA.DIHEDRAL>
2.49942

>  <SCORE.INTRA.DIHEDRAL.0>
16.2863

>  <SCORE.INTRA.POLAR>
0

>  <SCORE.INTRA.POLAR.0>
0

>  <SCORE.INTRA.REPUL>
-0.314433

>  <SCORE.INTRA.REPUL.0>
0.314433

>  <SCORE.INTRA.SOLV>
1.90541

>  <SCORE.INTRA.SOLV.lig_0>
-103.824

>  <SCORE.INTRA.VDW>
16.4312

>  <SCORE.INTRA.VDW.0>
-5.30945

>  <SCORE.INTRA.norm>
0.406224

>  <SCORE.RESTR>
9.34591

>  <SCORE.RESTR.CAVITY>
9.34591

>  <SCORE.RESTR.norm>
0.222522

>  <SCORE.SYSTEM>
0

>  <SCORE.SYSTEM.CONST>
0

>  <SCORE.SYSTEM.DIHEDRAL>
0

>  <SCORE.SYSTEM.SOLV>
0

>  <SCORE.SYSTEM.norm>
0

>  <SCORE.heavy>
42

>  <SCORE.norm>
0.586743

>  <RMSD>
26.347

$$$$
lig.pdb
 OpenBabel11021811513D
libRbt.so/2013.1/901 2013/11/27
 42 45  0  0  0  0  0  0  0  0999 V2000
    2.5414   14.9127   13.4915 C   0  0  2  0  0  0  0  0  0  0  0  0
    3.8637   14.6446   12.9289 O   0  0  0  0  0  0  0  0  0  0  0  0
    1.8519   15.9698   12.5183 C   0  0  2  0  0  0  0  0  0  0  0  0
    1.6922   15.3990   11.1780 N   0  0  0  0  0  0  0  0  0  0  0  0
    2.7339   17.3121   12.5051 C   0  0  1  0  0  0  0  0  0  0  0  0
    2.1477   18.3120   11.6453 O   0  0  0  0  0  0  0  0  0  0  0  0
    2.8344   17.8041   13.9592 C   0  0  2  0  0  0  0  0  0  0  0  0
    3.5934   18.9647   13.9866 O   0  0  0  0  0  0  0  0  0  0  0  0
    3.4922   16.6717   14.8721 C   0  0  2  0  0  0  0  0  0  0  0  0
    2.7142   15.4684   14.8498 O   0  0  0  0  0  0  0  0  0  0  0  0
    3.5960   17.0962   16.3096 C   0  0  0  0  0  0  0  0  0  0  0  0
    4.5964   18.1123   16.3891 O   0  0  0  0  0  0  0  0  0  0  0  0
    7.1948   11.7098   13.1808 C   0  0  2  0  0  0  0  0  0  0  0  0
    8.1063   10.7165   13.7058 N   0  0  0  0  0  0  0  0  0  0  0  0
    7.2050   12.9950   14.0955 C   0  0  0  0  0  0  0  0  0  0  0  0
    6.2198   14.0875   13.5492 C   0  0  2  0  0  0  0  0  0  0  0  0
    6.2538   15.2556   14.4268 N   0  0  0  0  0  0  0  0  0  0  0  0
    4.7189   13.5613   13.4557 C   0  0  2  0  0  0  0  0  0  0  0  0
    4.7192   12.3171   12.5210 C   0  0  2  0  0  0  0  0  0  0  0  0
    3.2705   11.8901   12.4787 O   0  0  0  0  0  0  0  0  0  0  0  0
    5.6910   11.1621   13.1287 C   0  0  1  0  0  0  0  0  0  0  0  0
    5.8135    9.9605   12.3022 O   0  0  0  0  0  0  0  0  0  0  0  0
    2.8911   11.5355   11.2108 C   0  0  1  0  0  0  0  0  0  0  0  0
    2.6853   10.0918   11.0542 C   0  0  2  0  0  0  0  0  0  0  0  0
    3.9399    9.4897   11.0627 O   0  0  0  0  0  0  0  0  0  0  0  0
    1.8170   10.0499    9.7785 C   0  0  2  0  0  0  0  0  0  0  0  0
    2.5618    9.3010    8.7916 O   0  0  0  0  0  0  0  0  0  0  0  0
    1.6336   11.4807    9.3924 C   0  0  2  0  0  0  0  0  0  0  0  0
    1.6498   12.0447   10.7523 O   0  0  0  0  0  0  0  0  0  0  0  0
    0.2358   11.7291    8.7149 C   0  0  0  0  0  0  0  0  0  0  0  0
   -0.8957   11.5115    9.6101 O   0  0  0  0  0  0  0  0  0  0  0  0
    1.9841    8.0358    8.3485 C   0  0  2  0  0  0  0  0  0  0  0  0
    0.5073    8.3251    7.7572 C   0  0  2  0  0  0  0  0  0  0  0  0
   -0.3294    8.9752    8.8174 N   0  0  0  0  0  0  0  0  0  0  0  0
   -0.1200    6.9282    7.2684 C   0  0  1  0  0  0  0  0  0  0  0  0
    0.7734    6.3840    6.2499 O   0  0  0  0  0  0  0  0  0  0  0  0
   -0.2433    5.9377    8.5126 C   0  0  2  0  0  0  0  0  0  0  0  0
   -1.1713    6.5495    9.4897 O   0  0  0  0  0  0  0  0  0  0  0  0
    1.2499    5.7060    9.1279 C   0  0  1  0  0  0  0  0  0  0  0  0
    1.8497    7.0348    9.5143 O   0  0  0  0  0  0  0  0  0  0  0  0
    1.1642    4.7506   10.3642 C   0  0  0  0  0  0  0  0  0  0  0  0
   -0.0153    5.0368   11.2382 N   0  0  0  0  0  0  0  0  0  0  0  0
  1  3  1  0  0  0  0
  1  2  1  6  0  0  0
  3  4  1  6  0  0  0
  3  5  1  0  0  0  0
  5  6  1  6  0  0  0
  7  8  1  6  0  0  0
  7  5  1  0  0  0  0
  9 11  1  1  0  0  0
  9  7  1  0  0  0  0
 10  9  1  0  0  0  0
 10  1  1  0  0  0  0
 12 11  1  0  0  0  0
 13 14  1  1  0  0  0
 15 13  1  0  0  0  0
 16 17  1  1  0  0  0
 16 15  1  0  0  0  0
 18  2  1  6  0  0  0
 18 19  1  0  0  0  0
 18 16  1  0  0  0  0
 19 20  1  1  0  0  0
 19 21  1  0  0  0  0
 21 22  1  6  0  0  0
 21 13  1  0  0  0  0
 23 20  1  1  0  0  0
 23 29  1  0  0  0  0
 24 25  1  6  0  0  0
 24 26  1  0  0  0  0
 24 23  1  0  0  0  0
 26 27  1  6  0  0  0
 26 28  1  0  0  0  0
 28 30  1  1  0  0  0
 29 28  1  0  0  0  0
 30 31  1  0  0  0  0
 32 27  1  1  0  0  0
 32 40  1  0  0  0  0
 33 35  1  0  0  0  0
 33 32  1  0  0  0  0
 33 34  1  1  0  0  0
 35 36  1  6  0  0  0
 35 37  1  0  0  0  0
 37 38  1  1  0  0  0
 37 39  1  0  0  0  0
 39 41  1  1  0  0  0
 40 39  1  0  0  0  0
 41 42  1  0  0  0  0
M  END
>  <CHROM.1>
-170.95762943,-70.29747817,-138.00246831,138.27698784,108.56366691,115.41300313
65.29004632,57.27521394,-40.71500257,2.76941872,11.80697683,11.53765059,1.20831888
-0.54963847,0.32450978

>  <Name>
lig.pdb

>  <RI>
0

>  <Rbt.Current_Directory>
/home/itssahil/PROJECTS/Mol_Feturizer/New_Systems/rnas/4wcr

>  <Rbt.Executable>
rbdock ($Id: //depot/dev/client3/rdock/2013.1/src/exe/rbdock.cxx#4 $)

>  <Rbt.Library>
libRbt.so (2013.1, Build901 2013/11/27)

>  <Rbt.Parameter_File>
/export/apps/rDock/src/rDock_2013.1_src/data/scripts/dock_solv.prm

>  <Rbt.Receptor>
prm/blind_docking_40.prm

>  <SCORE>
19.2601

>  <SCORE.INTER>
3.174

>  <SCORE.INTER.CONST>
1

>  <SCORE.INTER.POLAR>
0

>  <SCORE.INTER.ROT>
9

>  <SCORE.INTER.SOLV>
29.7461

>  <SCORE.INTER.VDW>
-17.3994

>  <SCORE.INTER.norm>
0.0755714

>  <SCORE.INTRA>
10.1839

>  <SCORE.INTRA.DIHEDRAL>
11.1512

>  <SCORE.INTRA.DIHEDRAL.0>
16.2863

>  <SCORE.INTRA.POLAR>
0

>  <SCORE.INTRA.POLAR.0>
0

>  <SCORE.INTRA.REPUL>
-0.31259

>  <SCORE.INTRA.REPUL.0>
0.314433

>  <SCORE.INTRA.SOLV>
4.4557

>  <SCORE.INTRA.SOLV.lig_0>
-103.824

>  <SCORE.INTRA.VDW>
3.94338

>  <SCORE.INTRA.VDW.0>
-5.30945

>  <SCORE.INTRA.norm>
0.242473

>  <SCORE.RESTR>
5.90224

>  <SCORE.RESTR.CAVITY>
5.90224

>  <SCORE.RESTR.norm>
0.14053

>  <SCORE.SYSTEM>
0

>  <SCORE.SYSTEM.CONST>
0

>  <SCORE.SYSTEM.DIHEDRAL>
0

>  <SCORE.SYSTEM.SOLV>
0

>  <SCORE.SYSTEM.norm>
0

>  <SCORE.heavy>
42

>  <SCORE.norm>
0.458574

>  <RMSD>
26.353

$$$$
lig.pdb
 OpenBabel11021811513D
libRbt.so/2013.1/901 2013/11/27
 42 45  0  0  0  0  0  0  0  0999 V2000
    5.3362   15.3532   13.6048 C   0  0  2  0  0  0  0  0  0  0  0  0
    3.9983   14.9512   13.1740 O   0  0  0  0  0  0  0  0  0  0  0  0
    5.9588   14.0910   14.3526 C   0  0  2  0  0  0  0  0  0  0  0  0
    6.0760   12.9592   13.4290 N   0  0  0  0  0  0  0  0  0  0  0  0
    5.0449   13.7424   15.6266 C   0  0  1  0  0  0  0  0  0  0  0  0
    5.5704   12.6098   16.3502 O   0  0  0  0  0  0  0  0  0  0  0  0
    4.9933   15.0026   16.5073 C   0  0  2  0  0  0  0  0  0  0  0  0
    4.2084   14.7382   17.6198 O   0  0  0  0  0  0  0  0  0  0  0  0
    4.4017   16.2268   15.6708 C   0  0  2  0  0  0  0  0  0  0  0  0
    5.2068   16.5071   14.5189 O   0  0  0  0  0  0  0  0  0  0  0  0
    4.3478   17.4902   16.4819 C   0  0  0  0  0  0  0  0  0  0  0  0
    5.6703   17.7615   16.9480 O   0  0  0  0  0  0  0  0  0  0  0  0
    0.5464   16.8242   11.0885 C   0  0  2  0  0  0  0  0  0  0  0  0
   -0.2193   17.6574   10.1872 N   0  0  0  0  0  0  0  0  0  0  0  0
    1.5211   17.7122   11.9547 C   0  0  0  0  0  0  0  0  0  0  0  0
    2.3674   16.8304   12.9389 C   0  0  2  0  0  0  0  0  0  0  0  0
    3.2600   17.6883   13.7154 N   0  0  0  0  0  0  0  0  0  0  0  0
    3.2420   15.7375   12.1779 C   0  0  2  0  0  0  0  0  0  0  0  0
    2.2639   14.8468   11.3583 C   0  0  2  0  0  0  0  0  0  0  0  0
    3.1647   13.8401   10.6815 O   0  0  0  0  0  0  0  0  0  0  0  0
    1.4380   15.7581   10.2931 C   0  0  1  0  0  0  0  0  0  0  0  0
    0.4436   15.0330    9.5007 O   0  0  0  0  0  0  0  0  0  0  0  0
    2.4452   12.7972   10.1602 C   0  0  1  0  0  0  0  0  0  0  0  0
    2.5988   11.5538   10.9228 C   0  0  2  0  0  0  0  0  0  0  0  0
    3.8756   11.0636   10.6657 O   0  0  0  0  0  0  0  0  0  0  0  0
    1.3587   10.7615   10.4564 C   0  0  2  0  0  0  0  0  0  0  0  0
    1.8474    9.5599    9.8184 O   0  0  0  0  0  0  0  0  0  0  0  0
    0.6586   11.6719    9.5021 C   0  0  2  0  0  0  0  0  0  0  0  0
    1.0347   12.9418   10.1453 O   0  0  0  0  0  0  0  0  0  0  0  0
   -0.9018   11.4783    9.5469 C   0  0  0  0  0  0  0  0  0  0  0  0
   -1.6181   12.2634    8.5471 O   0  0  0  0  0  0  0  0  0  0  0  0
    0.8537    8.5537    9.4563 C   0  0  2  0  0  0  0  0  0  0  0  0
    1.5855    7.1140    9.3799 C   0  0  2  0  0  0  0  0  0  0  0  0
    2.6983    7.1794    8.3779 N   0  0  0  0  0  0  0  0  0  0  0  0
    0.4843    6.0117    8.9846 C   0  0  1  0  0  0  0  0  0  0  0  0
   -0.5478    6.0398   10.0170 O   0  0  0  0  0  0  0  0  0  0  0  0
   -0.1260    6.3611    7.5529 C   0  0  2  0  0  0  0  0  0  0  0  0
    0.9728    6.2987    6.5635 O   0  0  0  0  0  0  0  0  0  0  0  0
   -0.8079    7.8409    7.6383 C   0  0  1  0  0  0  0  0  0  0  0  0
    0.2237    8.8487    8.0797 O   0  0  0  0  0  0  0  0  0  0  0  0
   -1.4029    8.2244    6.2428 C   0  0  0  0  0  0  0  0  0  0  0  0
   -0.4567    7.9581    5.1154 N   0  0  0  0  0  0  0  0  0  0  0  0
  1  3  1  0  0  0  0
  1  2  1  1  0  0  0
  3  4  1  6  0  0  0
  3  5  1  0  0  0  0
  5  6  1  1  0  0  0
  7  8  1  1  0  0  0
  7  5  1  0  0  0  0
  9 11  1  1  0  0  0
  9  7  1  0  0  0  0
 10  9  1  0  0  0  0
 10  1  1  0  0  0  0
 12 11  1  0  0  0  0
 13 14  1  6  0  0  0
 15 13  1  0  0  0  0
 16 17  1  6  0  0  0
 16 15  1  0  0  0  0
 18  2  1  1  0  0  0
 18 19  1  0  0  0  0
 18 16  1  0  0  0  0
 19 20  1  6  0  0  0
 19 21  1  0  0  0  0
 21 22  1  1  0  0  0
 21 13  1  0  0  0  0
 23 20  1  1  0  0  0
 23 29  1  0  0  0  0
 24 25  1  6  0  0  0
 24 26  1  0  0  0  0
 24 23  1  0  0  0  0
 26 27  1  6  0  0  0
 26 28  1  0  0  0  0
 28 30  1  1  0  0  0
 29 28  1  0  0  0  0
 30 31  1  0  0  0  0
 32 27  1  6  0  0  0
 32 40  1  0  0  0  0
 33 35  1  0  0  0  0
 33 32  1  0  0  0  0
 33 34  1  6  0  0  0
 35 36  1  1  0  0  0
 35 37  1  0  0  0  0
 37 38  1  6  0  0  0
 37 39  1  0  0  0  0
 39 41  1  6  0  0  0
 40 39  1  0  0  0  0
 41 42  1  0  0  0  0
M  END
>  <CHROM.1>
-165.28079448,56.92687488,-90.29506358,166.31247153,-107.05939710,171.72577182
-174.90067658,-155.64173757,-46.75044987,2.23450110,12.55996217,11.32748209
-0.98620331,0.85706439,-2.90397894

>  <Name>
lig.pdb

>  <RI>
0

>  <Rbt.Current_Directory>
/home/itssahil/PROJECTS/Mol_Feturizer/New_Systems/rnas/4wcr

>  <Rbt.Executable>
rbdock ($Id: //depot/dev/client3/rdock/2013.1/src/exe/rbdock.cxx#4 $)

>  <Rbt.Library>
libRbt.so (2013.1, Build901 2013/11/27)

>  <Rbt.Parameter_File>
/export/apps/rDock/src/rDock_2013.1_src/data/scripts/dock_solv.prm

>  <Rbt.Receptor>
prm/blind_docking_80.prm

>  <SCORE>
3.73848

>  <SCORE.INTER>
-7.19328

>  <SCORE.INTER.CONST>
1

>  <SCORE.INTER.POLAR>
0

>  <SCORE.INTER.ROT>
9

>  <SCORE.INTER.SOLV>
30.7038

>  <SCORE.INTER.VDW>
-24.6301

>  <SCORE.INTER.norm>
-0.171269

>  <SCORE.INTRA>
4.97148

>  <SCORE.INTRA.DIHEDRAL>
-0.265464

>  <SCORE.INTRA.DIHEDRAL.0>
16.2863

>  <SCORE.INTRA.POLAR>
0

>  <SCORE.INTRA.POLAR.0>
0

>  <SCORE.INTRA.REPUL>
-0.314433

>  <SCORE.INTRA.REPUL.0>
0.314433

>  <SCORE.INTRA.SOLV>
0.886297

>  <SCORE.INTRA.SOLV.lig_0>
-103.824

>  <SCORE.INTRA.VDW>
6.23323

>  <SCORE.INTRA.VDW.0>
-5.30945

>  <SCORE.INTRA.norm>
0.118369

>  <SCORE.RESTR>
5.96028

>  <SCORE.RESTR.CAVITY>
5.96028

>  <SCORE.RESTR.norm>
0.141911

>  <SCORE.SYSTEM>
0

>  <SCORE.SYSTEM.CONST>
0

>  <SCORE.SYSTEM.DIHEDRAL>
0

>  <SCORE.SYSTEM.SOLV>
0

>  <SCORE.SYSTEM.norm>
0

>  <SCORE.heavy>
42

>  <SCORE.norm>
0.0890114

>  <RMSD>
26.365

$$$$
lig.pdb
 OpenBabel11021811513D
libRbt.so/2013.1/901 2013/11/27
 42 45  0  0  0  0  0  0  0  0999 V2000
    1.1514   11.4188   10.6713 C   0  0  2  0  0  0  0  0  0  0  0  0
    2.3302   11.2085    9.8325 O   0  0  0  0  0  0  0  0  0  0  0  0
   -0.0344   10.6088    9.9802 C   0  0  2  0  0  0  0  0  0  0  0  0
    0.2780    9.1774    9.9484 N   0  0  0  0  0  0  0  0  0  0  0  0
   -0.2823   11.2086    8.5110 C   0  0  1  0  0  0  0  0  0  0  0  0
   -1.3573   10.5172    7.8408 O   0  0  0  0  0  0  0  0  0  0  0  0
   -0.5896   12.7067    8.6776 C   0  0  2  0  0  0  0  0  0  0  0  0
   -0.8080   13.2599    7.4246 O   0  0  0  0  0  0  0  0  0  0  0  0
    0.6254   13.4321    9.4165 C   0  0  2  0  0  0  0  0  0  0  0  0
    0.8584   12.8666   10.7125 O   0  0  0  0  0  0  0  0  0  0  0  0
    0.3666   14.8978    9.6213 C   0  0  0  0  0  0  0  0  0  0  0  0
    0.4707   15.5371    8.3485 O   0  0  0  0  0  0  0  0  0  0  0  0
    5.1487    9.3890   12.7512 C   0  0  2  0  0  0  0  0  0  0  0  0
    6.3226    8.7474   13.3019 N   0  0  0  0  0  0  0  0  0  0  0  0
    4.5472    8.5138   11.5846 C   0  0  0  0  0  0  0  0  0  0  0  0
    3.2736    9.1910   10.9665 C   0  0  2  0  0  0  0  0  0  0  0  0
    2.7530    8.3540    9.8876 N   0  0  0  0  0  0  0  0  0  0  0  0
    3.5777   10.6433   10.3863 C   0  0  2  0  0  0  0  0  0  0  0  0
    4.1346   11.5049   11.5564 C   0  0  2  0  0  0  0  0  0  0  0  0
    4.3851   12.8565   10.9294 O   0  0  0  0  0  0  0  0  0  0  0  0
    5.4927   10.8321   12.1483 C   0  0  1  0  0  0  0  0  0  0  0  0
    6.0784   11.5293   13.2942 O   0  0  0  0  0  0  0  0  0  0  0  0
    4.6090   13.8153   11.8821 C   0  0  1  0  0  0  0  0  0  0  0  0
    3.5426   13.8891   12.8863 C   0  0  2  0  0  0  0  0  0  0  0  0
    2.4356   14.4701   12.2751 O   0  0  0  0  0  0  0  0  0  0  0  0
    4.2645   14.6241   14.0361 C   0  0  2  0  0  0  0  0  0  0  0  0
    3.5449   15.8578   14.2591 O   0  0  0  0  0  0  0  0  0  0  0  0
    5.6516   14.8536   13.5332 C   0  0  2  0  0  0  0  0  0  0  0  0
    5.7523   13.6420   12.7028 O   0  0  0  0  0  0  0  0  0  0  0  0
    6.7103   14.8083   14.6958 C   0  0  0  0  0  0  0  0  0  0  0  0
    7.3065   16.1058   14.9957 O   0  0  0  0  0  0  0  0  0  0  0  0
    3.6181   16.4318   15.5993 C   0  0  2  0  0  0  0  0  0  0  0  0
    2.8900   17.8753   15.5798 C   0  0  2  0  0  0  0  0  0  0  0  0
    3.5596   18.7513   14.5645 N   0  0  0  0  0  0  0  0  0  0  0  0
    2.9717   18.4985   17.0593 C   0  0  1  0  0  0  0  0  0  0  0  0
    2.3005   17.5663   17.9604 O   0  0  0  0  0  0  0  0  0  0  0  0
    4.5009   18.6933   17.4692 C   0  0  2  0  0  0  0  0  0  0  0  0
    5.1054   19.6571   16.5228 O   0  0  0  0  0  0  0  0  0  0  0  0
    5.2286   17.2337   17.4262 C   0  0  1  0  0  0  0  0  0  0  0  0
    5.0792   16.6341   16.0503 O   0  0  0  0  0  0  0  0  0  0  0  0
    6.7383   17.3900   17.8070 C   0  0  0  0  0  0  0  0  0  0  0  0
    7.4663   18.3438   16.9139 N   0  0  0  0  0  0  0  0  0  0  0  0
  1  3  1  0  0  0  0
  1  2  1  6  0  0  0
  3  4  1  6  0  0  0
  3  5  1  0  0  0  0
  5  6  1  1  0  0  0
  7  8  1  6  0  0  0
  7  5  1  0  0  0  0
  9 11  1  1  0  0  0
  9  7  1  0  0  0  0
 10  9  1  0  0  0  0
 10  1  1  0  0  0  0
 12 11  1  0  0  0  0
 13 14  1  6  0  0  0
 15 13  1  0  0  0  0
 16 17  1  6  0  0  0
 16 15  1  0  0  0  0
 18  2  1  1  0  0  0
 18 19  1  0  0  0  0
 18 16  1  0  0  0  0
 19 20  1  6  0  0  0
 19 21  1  0  0  0  0
 21 22  1  1  0  0  0
 21 13  1  0  0  0  0
 23 20  1  6  0  0  0
 23 29  1  0  0  0  0
 24 25  1  6  0  0  0
 24 26  1  0  0  0  0
 24 23  1  0  0  0  0
 26 27  1  6  0  0  0
 26 28  1  0  0  0  0
 28 30  1  1  0  0  0
 29 28  1  0  0  0  0
 30 31  1  0  0  0  0
 32 27  1  6  0  0  0
 32 40  1  0  0  0  0
 33 35  1  0  0  0  0
 33 32  1  0  0  0  0
 33 34  1  6  0  0  0
 35 36  1  1  0  0  0
 35 37  1  0  0  0  0
 37 38  1  6  0  0  0
 37 39  1  0  0  0  0
 39 41  1  6  0  0  0
 40 39  1  0  0  0  0
 41 42  1  0  0  0  0
M  END
>  <CHROM.1>
-123.42301548,-72.39639368,60.27148833,167.05099611,-54.05347520,153.45646788
-110.51005917,173.73372973,-57.44493140,3.37561196,13.78899732,12.65326675
2.04852333,0.62993956,-2.63254245

>  <Name>
lig.pdb

>  <RI>
0

>  <Rbt.Current_Directory>
/home/itssahil/PROJECTS/Mol_Feturizer/New_Systems/rnas/4wcr

>  <Rbt.Executable>
rbdock ($Id: //depot/dev/client3/rdock/2013.1/src/exe/rbdock.cxx#4 $)

>  <Rbt.Library>
libRbt.so (2013.1, Build901 2013/11/27)

>  <Rbt.Parameter_File>
/export/apps/rDock/src/rDock_2013.1_src/data/scripts/dock_solv.prm

>  <Rbt.Receptor>
prm/blind_docking_40.prm

>  <SCORE>
5.18566

>  <SCORE.INTER>
-10.0179

>  <SCORE.INTER.CONST>
1

>  <SCORE.INTER.POLAR>
0

>  <SCORE.INTER.ROT>
9

>  <SCORE.INTER.SOLV>
32.4358

>  <SCORE.INTER.VDW>
-27.0905

>  <SCORE.INTER.norm>
-0.238521

>  <SCORE.INTRA>
5.5383

>  <SCORE.INTRA.DIHEDRAL>
0.240114

>  <SCORE.INTRA.DIHEDRAL.0>
16.2863

>  <SCORE.INTRA.POLAR>
0

>  <SCORE.INTRA.POLAR.0>
0

>  <SCORE.INTRA.REPUL>
-0.314433

>  <SCORE.INTRA.REPUL.0>
0.314433

>  <SCORE.INTRA.SOLV>
3.78872

>  <SCORE.INTRA.SOLV.lig_0>
-103.824

>  <SCORE.INTRA.VDW>
5.09605

>  <SCORE.INTRA.VDW.0>
-5.30945

>  <SCORE.INTRA.norm>
0.131864

>  <SCORE.RESTR>
9.66523

>  <SCORE.RESTR.CAVITY>
9.66523

>  <SCORE.RESTR.norm>
0.230125

>  <SCORE.SYSTEM>
0

>  <SCORE.SYSTEM.CONST>
0

>  <SCORE.SYSTEM.DIHEDRAL>
0

>  <SCORE.SYSTEM.SOLV>
0

>  <SCORE.SYSTEM.norm>
0

>  <SCORE.heavy>
42

>  <SCORE.norm>
0.123468

>  <RMSD>
26.411

$$$$
lig.pdb
 OpenBabel11021811513D
libRbt.so/2013.1/901 2013/11/27
 42 45  0  0  0  0  0  0  0  0999 V2000
    4.4937   15.1705   12.5540 C   0  0  2  0  0  0  0  0  0  0  0  0
    3.1263   14.6550   12.5935 O   0  0  0  0  0  0  0  0  0  0  0  0
    5.4435   13.9326   12.8788 C   0  0  2  0  0  0  0  0  0  0  0  0
    5.2959   12.8954   11.8541 N   0  0  0  0  0  0  0  0  0  0  0  0
    5.0965   13.3869   14.3490 C   0  0  1  0  0  0  0  0  0  0  0  0
    5.9376   12.2683   14.7012 O   0  0  0  0  0  0  0  0  0  0  0  0
    5.2792   14.5620   15.3248 C   0  0  2  0  0  0  0  0  0  0  0  0
    4.9853   14.1266   16.6084 O   0  0  0  0  0  0  0  0  0  0  0  0
    4.3281   15.7725   14.9023 C   0  0  2  0  0  0  0  0  0  0  0  0
    4.6248   16.2291   13.5767 O   0  0  0  0  0  0  0  0  0  0  0  0
    4.4825   16.9559   15.8149 C   0  0  0  0  0  0  0  0  0  0  0  0
    3.5059   17.9259   15.4340 O   0  0  0  0  0  0  0  0  0  0  0  0
   -0.9864   15.7889   11.3396 C   0  0  2  0  0  0  0  0  0  0  0  0
   -2.0742   16.4697   10.6716 N   0  0  0  0  0  0  0  0  0  0  0  0
   -0.0783   16.8306   12.1007 C   0  0  0  0  0  0  0  0  0  0  0  0
    1.1132   16.1168   12.8310 C   0  0  2  0  0  0  0  0  0  0  0  0
    1.9318   17.1151   13.5158 N   0  0  0  0  0  0  0  0  0  0  0  0
    2.0393   15.2973   11.8265 C   0  0  2  0  0  0  0  0  0  0  0  0
    1.1376   14.2498   11.1114 C   0  0  2  0  0  0  0  0  0  0  0  0
    2.0865   13.5156   10.1930 O   0  0  0  0  0  0  0  0  0  0  0  0
   -0.0565   15.0011   10.3009 C   0  0  1  0  0  0  0  0  0  0  0  0
   -1.0043   14.1093    9.6312 O   0  0  0  0  0  0  0  0  0  0  0  0
    2.1063   12.1729   10.4652 C   0  0  1  0  0  0  0  0  0  0  0  0
    1.7033   11.3477    9.3216 C   0  0  2  0  0  0  0  0  0  0  0  0
    0.3289   11.4989    9.1639 O   0  0  0  0  0  0  0  0  0  0  0  0
    2.2887    9.9762    9.7211 C   0  0  2  0  0  0  0  0  0  0  0  0
    1.1740    9.0620    9.8271 O   0  0  0  0  0  0  0  0  0  0  0  0
    2.9608   10.2137   11.0332 C   0  0  2  0  0  0  0  0  0  0  0  0
    3.3664   11.6073   10.7859 O   0  0  0  0  0  0  0  0  0  0  0  0
    4.2284    9.3001   11.2148 C   0  0  0  0  0  0  0  0  0  0  0  0
    4.9369    9.5248   12.4705 O   0  0  0  0  0  0  0  0  0  0  0  0
    1.0099    8.0929    8.7477 C   0  0  2  0  0  0  0  0  0  0  0  0
    0.2596    8.8209    7.5143 C   0  0  2  0  0  0  0  0  0  0  0  0
   -1.0596    9.3541    7.9855 N   0  0  0  0  0  0  0  0  0  0  0  0
    0.0862    7.7486    6.3293 C   0  0  1  0  0  0  0  0  0  0  0  0
    1.4226    7.2936    5.9570 O   0  0  0  0  0  0  0  0  0  0  0  0
   -0.8125    6.5338    6.8403 C   0  0  2  0  0  0  0  0  0  0  0  0
   -2.1484    7.0703    7.1834 O   0  0  0  0  0  0  0  0  0  0  0  0
   -0.0647    5.8513    8.1197 C   0  0  1  0  0  0  0  0  0  0  0  0
    0.1530    6.8896    9.1917 O   0  0  0  0  0  0  0  0  0  0  0  0
   -0.9292    4.6637    8.6590 C   0  0  0  0  0  0  0  0  0  0  0  0
   -0.5035    4.2063   10.0180 N   0  0  0  0  0  0  0  0  0  0  0  0
  1  3  1  0  0  0  0
  1  2  1  1  0  0  0
  3  4  1  6  0  0  0
  3  5  1  0  0  0  0
  5  6  1  1  0  0  0
  7  8  1  1  0  0  0
  7  5  1  0  0  0  0
  9 11  1  1  0  0  0
  9  7  1  0  0  0  0
 10  9  1  0  0  0  0
 10  1  1  0  0  0  0
 12 11  1  0  0  0  0
 13 14  1  6  0  0  0
 15 13  1  0  0  0  0
 16 17  1  6  0  0  0
 16 15  1  0  0  0  0
 18  2  1  1  0  0  0
 18 19  1  0  0  0  0
 18 16  1  0  0  0  0
 19 20  1  6  0  0  0
 19 21  1  0  0  0  0
 21 22  1  1  0  0  0
 21 13  1  0  0  0  0
 23 20  1  6  0  0  0
 23 29  1  0  0  0  0
 24 25  1  1  0  0  0
 24 26  1  0  0  0  0
 24 23  1  0  0  0  0
 26 27  1  1  0  0  0
 26 28  1  0  0  0  0
 28 30  1  6  0  0  0
 29 28  1  0  0  0  0
 30 31  1  0  0  0  0
 32 27  1  1  0  0  0
 32 40  1  0  0  0  0
 33 35  1  0  0  0  0
 33 32  1  0  0  0  0
 33 34  1  1  0  0  0
 35 36  1  1  0  0  0
 35 37  1  0  0  0  0
 37 38  1  1  0  0  0
 37 39  1  0  0  0  0
 39 41  1  1  0  0  0
 40 39  1  0  0  0  0
 41 42  1  0  0  0  0
M  END
>  <CHROM.1>
-154.03824372,-174.52919891,-105.11253618,121.46335793,120.26741041,105.29771491
178.48410742,-81.40207708,-165.54136171,1.95064570,11.97991709,11.07937743
-1.14881123,0.62446948,-2.79075516

>  <Name>
lig.pdb

>  <RI>
0

>  <Rbt.Current_Directory>
/home/itssahil/PROJECTS/Mol_Feturizer/New_Systems/rnas/4wcr

>  <Rbt.Executable>
rbdock ($Id: //depot/dev/client3/rdock/2013.1/src/exe/rbdock.cxx#4 $)

>  <Rbt.Library>
libRbt.so (2013.1, Build901 2013/11/27)

>  <Rbt.Parameter_File>
/export/apps/rDock/src/rDock_2013.1_src/data/scripts/dock_solv.prm

>  <Rbt.Receptor>
prm/blind_docking_80.prm

>  <SCORE>
4.59374

>  <SCORE.INTER>
-13.0331

>  <SCORE.INTER.CONST>
1

>  <SCORE.INTER.POLAR>
0

>  <SCORE.INTER.ROT>
9

>  <SCORE.INTER.SOLV>
26.4018

>  <SCORE.INTER.VDW>
-27.0893

>  <SCORE.INTER.norm>
-0.310312

>  <SCORE.INTRA>
10.579

>  <SCORE.INTRA.DIHEDRAL>
16.4676

>  <SCORE.INTRA.DIHEDRAL.0>
16.2863

>  <SCORE.INTRA.POLAR>
0

>  <SCORE.INTRA.POLAR.0>
0

>  <SCORE.INTRA.REPUL>
0.235799

>  <SCORE.INTRA.REPUL.0>
0.314433

>  <SCORE.INTRA.SOLV>
3.41997

>  <SCORE.INTRA.SOLV.lig_0>
-103.824

>  <SCORE.INTRA.VDW>
-0.543762

>  <SCORE.INTRA.VDW.0>
-5.30945

>  <SCORE.INTRA.norm>
0.251881

>  <SCORE.RESTR>
7.04782

>  <SCORE.RESTR.CAVITY>
7.04782

>  <SCORE.RESTR.norm>
0.167805

>  <SCORE.SYSTEM>
0

>  <SCORE.SYSTEM.CONST>
0

>  <SCORE.SYSTEM.DIHEDRAL>
0

>  <SCORE.SYSTEM.SOLV>
0

>  <SCORE.SYSTEM.norm>
0

>  <SCORE.heavy>
42

>  <SCORE.norm>
0.109375

>  <RMSD>
26.422

$$$$
lig.pdb
 OpenBabel11021811513D
libRbt.so/2013.1/901 2013/11/27
 42 45  0  0  0  0  0  0  0  0999 V2000
    0.6323   12.8603    8.9056 C   0  0  2  0  0  0  0  0  0  0  0  0
    1.2381   12.4645   10.1759 O   0  0  0  0  0  0  0  0  0  0  0  0
   -0.5905   13.8131    9.2757 C   0  0  2  0  0  0  0  0  0  0  0  0
   -0.1099   15.0120    9.9681 N   0  0  0  0  0  0  0  0  0  0  0  0
   -1.6434   12.9828   10.1599 C   0  0  1  0  0  0  0  0  0  0  0  0
   -2.7809   13.7965   10.5154 O   0  0  0  0  0  0  0  0  0  0  0  0
   -2.0619   11.7545    9.3336 C   0  0  2  0  0  0  0  0  0  0  0  0
   -2.9726   11.0106   10.0690 O   0  0  0  0  0  0  0  0  0  0  0  0
   -0.7765   10.8814    8.9679 C   0  0  2  0  0  0  0  0  0  0  0  0
    0.1703   11.6425    8.2076 O   0  0  0  0  0  0  0  0  0  0  0  0
   -1.1294    9.6766    8.1427 C   0  0  0  0  0  0  0  0  0  0  0  0
   -1.0849    8.5363    9.0015 O   0  0  0  0  0  0  0  0  0  0  0  0
    4.6298   10.0506   11.7385 C   0  0  2  0  0  0  0  0  0  0  0  0
    5.8660    9.3007   11.7901 N   0  0  0  0  0  0  0  0  0  0  0  0
    3.6733    9.4476   10.6384 C   0  0  0  0  0  0  0  0  0  0  0  0
    2.3253   10.2470   10.5593 C   0  0  2  0  0  0  0  0  0  0  0  0
    1.4730    9.6623    9.5262 N   0  0  0  0  0  0  0  0  0  0  0  0
    2.5506   11.7884   10.2249 C   0  0  2  0  0  0  0  0  0  0  0  0
    3.4645   12.3775   11.3382 C   0  0  2  0  0  0  0  0  0  0  0  0
    3.6190   13.8307   10.9546 O   0  0  0  0  0  0  0  0  0  0  0  0
    4.8866   11.5875   11.3696 C   0  0  1  0  0  0  0  0  0  0  0  0
    5.8107   12.0211   12.4186 O   0  0  0  0  0  0  0  0  0  0  0  0
    4.0541   14.5833   12.0137 C   0  0  1  0  0  0  0  0  0  0  0  0
    3.1780   14.4879   13.1861 C   0  0  2  0  0  0  0  0  0  0  0  0
    2.0185   15.2012   12.8975 O   0  0  0  0  0  0  0  0  0  0  0  0
    4.1236   14.9713   14.3065 C   0  0  2  0  0  0  0  0  0  0  0  0
    3.5227   16.1558   14.8771 O   0  0  0  0  0  0  0  0  0  0  0  0
    5.4169   15.2606   13.6184 C   0  0  2  0  0  0  0  0  0  0  0  0
    5.3077   14.2289   12.5737 O   0  0  0  0  0  0  0  0  0  0  0  0
    6.6520   14.9680   14.5476 C   0  0  0  0  0  0  0  0  0  0  0  0
    6.6954   13.5988   15.0501 O   0  0  0  0  0  0  0  0  0  0  0  0
    4.0813   16.6382   16.1365 C   0  0  2  0  0  0  0  0  0  0  0  0
    3.3532   18.0296   16.5213 C   0  0  2  0  0  0  0  0  0  0  0  0
    3.5568   19.0158   15.4110 N   0  0  0  0  0  0  0  0  0  0  0  0
    3.9709   18.5519   17.9104 C   0  0  1  0  0  0  0  0  0  0  0  0
    3.7244   17.5176   18.9109 O   0  0  0  0  0  0  0  0  0  0  0  0
    5.5338   18.8156   17.7301 C   0  0  2  0  0  0  0  0  0  0  0  0
    5.7005   19.8802   16.7157 O   0  0  0  0  0  0  0  0  0  0  0  0
    6.2383   17.4125   17.2864 C   0  0  1  0  0  0  0  0  0  0  0  0
    5.5965   16.9022   16.0205 O   0  0  0  0  0  0  0  0  0  0  0  0
    7.7733   17.6387   17.0832 C   0  0  0  0  0  0  0  0  0  0  0  0
    8.5173   16.3680   16.8208 N   0  0  0  0  0  0  0  0  0  0  0  0
  1  3  1  0  0  0  0
  1  2  1  1  0  0  0
  3  4  1  1  0  0  0
  3  5  1  0  0  0  0
  5  6  1  6  0  0  0
  7  8  1  1  0  0  0
  7  5  1  0  0  0  0
  9 11  1  6  0  0  0
  9  7  1  0  0  0  0
 10  9  1  0  0  0  0
 10  1  1  0  0  0  0
 12 11  1  0  0  0  0
 13 14  1  6  0  0  0
 15 13  1  0  0  0  0
 16 17  1  6  0  0  0
 16 15  1  0  0  0  0
 18  2  1  1  0  0  0
 18 19  1  0  0  0  0
 18 16  1  0  0  0  0
 19 20  1  6  0  0  0
 19 21  1  0  0  0  0
 21 22  1  1  0  0  0
 21 13  1  0  0  0  0
 23 20  1  6  0  0  0
 23 29  1  0  0  0  0
 24 25  1  6  0  0  0
 24 26  1  0  0  0  0
 24 23  1  0  0  0  0
 26 27  1  6  0  0  0
 26 28  1  0  0  0  0
 28 30  1  1  0  0  0
 29 28  1  0  0  0  0
 30 31  1  0  0  0  0
 32 27  1  6  0  0  0
 32 40  1  0  0  0  0
 33 35  1  0  0  0  0
 33 32  1  0  0  0  0
 33 34  1  6  0  0  0
 35 36  1  1  0  0  0
 35 37  1  0  0  0  0
 37 38  1  6  0  0  0
 37 39  1  0  0  0  0
 39 41  1  6  0  0  0
 40 39  1  0  0  0  0
 41 42  1  0  0  0  0
M  END
>  <CHROM.1>
-168.25656463,-103.78182697,-105.57770472,161.96247478,-56.74806803,167.45450205
56.93389118,175.13542870,173.70800111,2.99285013,13.92965594,12.69138113
2.14778528,0.35719425,-2.51847484

>  <Name>
lig.pdb

>  <RI>
0

>  <Rbt.Current_Directory>
/home/itssahil/PROJECTS/Mol_Feturizer/New_Systems/rnas/4wcr

>  <Rbt.Executable>
rbdock ($Id: //depot/dev/client3/rdock/2013.1/src/exe/rbdock.cxx#4 $)

>  <Rbt.Library>
libRbt.so (2013.1, Build901 2013/11/27)

>  <Rbt.Parameter_File>
/export/apps/rDock/src/rDock_2013.1_src/data/scripts/dock_solv.prm

>  <Rbt.Receptor>
prm/blind_docking_80.prm

>  <SCORE>
-4.7353

>  <SCORE.INTER>
-17.2062

>  <SCORE.INTER.CONST>
1

>  <SCORE.INTER.POLAR>
0

>  <SCORE.INTER.ROT>
9

>  <SCORE.INTER.SOLV>
27.2479

>  <SCORE.INTER.VDW>
-30.1535

>  <SCORE.INTER.norm>
-0.409672

>  <SCORE.INTRA>
4.27514

>  <SCORE.INTRA.DIHEDRAL>
-1.94161

>  <SCORE.INTRA.DIHEDRAL.0>
16.2863

>  <SCORE.INTRA.POLAR>
0

>  <SCORE.INTRA.POLAR.0>
0

>  <SCORE.INTRA.REPUL>
-0.235699

>  <SCORE.INTRA.REPUL.0>
0.314433

>  <SCORE.INTRA.SOLV>
1.86097

>  <SCORE.INTRA.SOLV.lig_0>
-103.824

>  <SCORE.INTRA.VDW>
5.49396

>  <SCORE.INTRA.VDW.0>
-5.30945

>  <SCORE.INTRA.norm>
0.101789

>  <SCORE.RESTR>
8.19577

>  <SCORE.RESTR.CAVITY>
8.19577

>  <SCORE.RESTR.norm>
0.195137

>  <SCORE.SYSTEM>
0

>  <SCORE.SYSTEM.CONST>
0

>  <SCORE.SYSTEM.DIHEDRAL>
0

>  <SCORE.SYSTEM.SOLV>
0

>  <SCORE.SYSTEM.norm>
0

>  <SCORE.heavy>
42

>  <SCORE.norm>
-0.112745

>  <RMSD>
26.426

$$$$
lig.pdb
 OpenBabel11021811513D
libRbt.so/2013.1/901 2013/11/27
 42 45  0  0  0  0  0  0  0  0999 V2000
    1.6680   15.0027   12.4804 C   0  0  2  0  0  0  0  0  0  0  0  0
    2.9133   14.5078   11.8960 O   0  0  0  0  0  0  0  0  0  0  0  0
    1.0489   16.0125   11.4142 C   0  0  2  0  0  0  0  0  0  0  0  0
    0.7424   15.3093   10.1655 N   0  0  0  0  0  0  0  0  0  0  0  0
    2.0792   17.2243   11.1911 C   0  0  1  0  0  0  0  0  0  0  0  0
    1.5626   18.1786   10.2397 O   0  0  0  0  0  0  0  0  0  0  0  0
    2.3248   17.8708   12.5652 C   0  0  2  0  0  0  0  0  0  0  0  0
    3.2145   18.9236   12.4109 O   0  0  0  0  0  0  0  0  0  0  0  0
    2.9001   16.7835   13.5827 C   0  0  2  0  0  0  0  0  0  0  0  0
    1.9870   15.6915   13.7483 O   0  0  0  0  0  0  0  0  0  0  0  0
    3.1401   17.3611   14.9487 C   0  0  0  0  0  0  0  0  0  0  0  0
    3.7852   16.3583   15.7348 O   0  0  0  0  0  0  0  0  0  0  0  0
    5.9052   11.2620   12.4308 C   0  0  2  0  0  0  0  0  0  0  0  0
    6.5351   10.0447   12.8937 N   0  0  0  0  0  0  0  0  0  0  0  0
    5.4863   12.1589   13.6591 C   0  0  0  0  0  0  0  0  0  0  0  0
    4.7958   13.4853   13.1833 C   0  0  2  0  0  0  0  0  0  0  0  0
    4.4178   14.2819   14.3487 N   0  0  0  0  0  0  0  0  0  0  0  0
    3.4943   13.2128   12.3056 C   0  0  2  0  0  0  0  0  0  0  0  0
    3.9300   12.3596   11.0793 C   0  0  2  0  0  0  0  0  0  0  0  0
    2.6509   12.1563   10.3013 O   0  0  0  0  0  0  0  0  0  0  0  0
    4.5840   10.9561   11.5793 C   0  0  1  0  0  0  0  0  0  0  0  0
    5.0828   10.0914   10.5089 O   0  0  0  0  0  0  0  0  0  0  0  0
    2.3182   10.8294   10.2249 C   0  0  1  0  0  0  0  0  0  0  0  0
    1.0044   10.5996    9.6146 C   0  0  2  0  0  0  0  0  0  0  0  0
    0.0419   10.9937   10.5392 O   0  0  0  0  0  0  0  0  0  0  0  0
    1.1202    9.1157    9.2050 C   0  0  2  0  0  0  0  0  0  0  0  0
    0.0874    8.4032    9.9228 O   0  0  0  0  0  0  0  0  0  0  0  0
    2.4940    8.7081    9.6248 C   0  0  2  0  0  0  0  0  0  0  0  0
    3.1473   10.0110    9.4166 O   0  0  0  0  0  0  0  0  0  0  0  0
    3.1056    7.6298    8.6565 C   0  0  0  0  0  0  0  0  0  0  0  0
    3.7369    6.5115    9.3495 O   0  0  0  0  0  0  0  0  0  0  0  0
    0.3729    7.0194   10.2898 C   0  0  2  0  0  0  0  0  0  0  0  0
    0.5679    6.1590    8.9349 C   0  0  2  0  0  0  0  0  0  0  0  0
   -0.6725    6.2662    8.1002 N   0  0  0  0  0  0  0  0  0  0  0  0
    0.8854    4.6382    9.3477 C   0  0  1  0  0  0  0  0  0  0  0  0
    2.0995    4.6532   10.1585 O   0  0  0  0  0  0  0  0  0  0  0  0
   -0.3460    4.0431   10.1686 C   0  0  2  0  0  0  0  0  0  0  0  0
   -1.5291    4.0480    9.2795 O   0  0  0  0  0  0  0  0  0  0  0  0
   -0.5603    4.9608   11.5004 C   0  0  1  0  0  0  0  0  0  0  0  0
   -0.7855    6.3960   11.0951 O   0  0  0  0  0  0  0  0  0  0  0  0
   -1.7745    4.4148   12.3227 C   0  0  0  0  0  0  0  0  0  0  0  0
   -1.5221    3.0576   12.8985 N   0  0  0  0  0  0  0  0  0  0  0  0
  1  3  1  0  0  0  0
  1  2  1  6  0  0  0
  3  4  1  6  0  0  0
  3  5  1  0  0  0  0
  5  6  1  6  0  0  0
  7  8  1  6  0  0  0
  7  5  1  0  0  0  0
  9 11  1  1  0  0  0
  9  7  1  0  0  0  0
 10  9  1  0  0  0  0
 10  1  1  0  0  0  0
 12 11  1  0  0  0  0
 13 14  1  1  0  0  0
 15 13  1  0  0  0  0
 16 17  1  1  0  0  0
 16 15  1  0  0  0  0
 18  2  1  6  0  0  0
 18 19  1  0  0  0  0
 18 16  1  0  0  0  0
 19 20  1  6  0  0  0
 19 21  1  0  0  0  0
 21 22  1  6  0  0  0
 21 13  1  0  0  0  0
 23 20  1  6  0  0  0
 23 29  1  0  0  0  0
 24 25  1  1  0  0  0
 24 26  1  0  0  0  0
 24 23  1  0  0  0  0
 26 27  1  1  0  0  0
 26 28  1  0  0  0  0
 28 30  1  6  0  0  0
 29 28  1  0  0  0  0
 30 31  1  0  0  0  0
 32 27  1  6  0  0  0
 32 40  1  0  0  0  0
 33 35  1  0  0  0  0
 33 32  1  0  0  0  0
 33 34  1  6  0  0  0
 35 36  1  1  0  0  0
 35 37  1  0  0  0  0
 37 38  1  6  0  0  0
 37 39  1  0  0  0  0
 39 41  1  6  0  0  0
 40 39  1  0  0  0  0
 41 42  1  0  0  0  0
M  END
>  <CHROM.1>
-155.97410561,-173.77912420,-107.95641420,-117.59725142,173.28070592,-148.56996504
-134.08020399,-63.03113968,66.37482049,2.09047527,10.90660916,11.26465067
1.31088242,-0.33743313,0.14971712

>  <Name>
lig.pdb

>  <RI>
0

>  <Rbt.Current_Directory>
/home/itssahil/PROJECTS/Mol_Feturizer/New_Systems/rnas/4wcr

>  <Rbt.Executable>
rbdock ($Id: //depot/dev/client3/rdock/2013.1/src/exe/rbdock.cxx#4 $)

>  <Rbt.Library>
libRbt.so (2013.1, Build901 2013/11/27)

>  <Rbt.Parameter_File>
/export/apps/rDock/src/rDock_2013.1_src/data/scripts/dock_solv.prm

>  <Rbt.Receptor>
prm/blind_docking_80.prm

>  <SCORE>
7.94459

>  <SCORE.INTER>
-9.2468

>  <SCORE.INTER.CONST>
1

>  <SCORE.INTER.POLAR>
0

>  <SCORE.INTER.ROT>
9

>  <SCORE.INTER.SOLV>
26.0522

>  <SCORE.INTER.VDW>
-24.4486

>  <SCORE.INTER.norm>
-0.220162

>  <SCORE.INTRA>
12.3118

>  <SCORE.INTRA.DIHEDRAL>
8.58782

>  <SCORE.INTRA.DIHEDRAL.0>
16.2863

>  <SCORE.INTRA.POLAR>
0

>  <SCORE.INTRA.POLAR.0>
0

>  <SCORE.INTRA.REPUL>
-0.314433

>  <SCORE.INTRA.REPUL.0>
0.314433

>  <SCORE.INTRA.SOLV>
0.968575

>  <SCORE.INTRA.SOLV.lig_0>
-103.824

>  <SCORE.INTRA.VDW>
9.10578

>  <SCORE.INTRA.VDW.0>
-5.30945

>  <SCORE.INTRA.norm>
0.293138

>  <SCORE.RESTR>
4.87959

>  <SCORE.RESTR.CAVITY>
4.87959

>  <SCORE.RESTR.norm>
0.116181

>  <SCORE.SYSTEM>
0

>  <SCORE.SYSTEM.CONST>
0

>  <SCORE.SYSTEM.DIHEDRAL>
0

>  <SCORE.SYSTEM.SOLV>
0

>  <SCORE.SYSTEM.norm>
0

>  <SCORE.heavy>
42

>  <SCORE.norm>
0.189157

>  <RMSD>
26.451

$$$$
lig.pdb
 OpenBabel11021811513D
libRbt.so/2013.1/901 2013/11/27
 42 45  0  0  0  0  0  0  0  0999 V2000
    2.6662    9.3234   10.9983 C   0  0  2  0  0  0  0  0  0  0  0  0
    2.9155   10.5974   10.3260 O   0  0  0  0  0  0  0  0  0  0  0  0
    3.8052    8.3277   10.4973 C   0  0  2  0  0  0  0  0  0  0  0  0
    5.1258    8.8246   10.8934 N   0  0  0  0  0  0  0  0  0  0  0  0
    3.6751    8.1523    8.9061 C   0  0  1  0  0  0  0  0  0  0  0  0
    4.6789    7.2485    8.3980 O   0  0  0  0  0  0  0  0  0  0  0  0
    2.2536    7.6383    8.6203 C   0  0  2  0  0  0  0  0  0  0  0  0
    2.1041    7.4764    7.2510 O   0  0  0  0  0  0  0  0  0  0  0  0
    1.1774    8.6690    9.1928 C   0  0  2  0  0  0  0  0  0  0  0  0
    1.3246    8.8425   10.6077 O   0  0  0  0  0  0  0  0  0  0  0  0
   -0.2312    8.2032    8.9557 C   0  0  0  0  0  0  0  0  0  0  0  0
   -0.4554    8.2052    7.5453 O   0  0  0  0  0  0  0  0  0  0  0  0
    1.4974   14.8115   10.2679 C   0  0  2  0  0  0  0  0  0  0  0  0
    0.7845   16.0200   10.6203 N   0  0  0  0  0  0  0  0  0  0  0  0
    0.4793   13.6330   10.0161 C   0  0  0  0  0  0  0  0  0  0  0  0
    1.2289   12.3078    9.6360 C   0  0  2  0  0  0  0  0  0  0  0  0
    0.2526   11.2421    9.4187 N   0  0  0  0  0  0  0  0  0  0  0  0
    2.2519   11.8421   10.7651 C   0  0  2  0  0  0  0  0  0  0  0  0
    3.2713   12.9989   10.9755 C   0  0  2  0  0  0  0  0  0  0  0  0
    4.2027   12.4767   12.0445 O   0  0  0  0  0  0  0  0  0  0  0  0
    2.4934   14.3522   11.4347 C   0  0  1  0  0  0  0  0  0  0  0  0
    3.3489   15.5269   11.6097 O   0  0  0  0  0  0  0  0  0  0  0  0
    4.3090   13.3579   13.0883 C   0  0  1  0  0  0  0  0  0  0  0  0
    5.6026   14.0479   13.1295 C   0  0  2  0  0  0  0  0  0  0  0  0
    6.5535   13.1235   13.5512 O   0  0  0  0  0  0  0  0  0  0  0  0
    5.2638   15.2662   14.0150 C   0  0  2  0  0  0  0  0  0  0  0  0
    6.1094   15.1799   15.1842 O   0  0  0  0  0  0  0  0  0  0  0  0
    3.8155   15.1106   14.3435 C   0  0  2  0  0  0  0  0  0  0  0  0
    3.4091   14.4537   13.0901 O   0  0  0  0  0  0  0  0  0  0  0  0
    3.0959   16.5018   14.4890 C   0  0  0  0  0  0  0  0  0  0  0  0
    3.6161   17.3187   15.5805 O   0  0  0  0  0  0  0  0  0  0  0  0
    6.3671   16.4223   15.9059 C   0  0  2  0  0  0  0  0  0  0  0  0
    7.9516   16.5183   16.2128 C   0  0  2  0  0  0  0  0  0  0  0  0
    8.3734   15.3188   17.0066 N   0  0  0  0  0  0  0  0  0  0  0  0
    8.2273   17.8903   17.0039 C   0  0  1  0  0  0  0  0  0  0  0  0
    7.7749   18.9831   16.1480 O   0  0  0  0  0  0  0  0  0  0  0  0
    7.4303   17.8753   18.3856 C   0  0  2  0  0  0  0  0  0  0  0  0
    7.9526   16.7546   19.1989 O   0  0  0  0  0  0  0  0  0  0  0  0
    5.8404   17.7199   18.0538 C   0  0  1  0  0  0  0  0  0  0  0  0
    5.6116   16.4644   17.2500 O   0  0  0  0  0  0  0  0  0  0  0  0
    5.0277   17.6840   19.3905 C   0  0  0  0  0  0  0  0  0  0  0  0
    5.4354   18.7597   20.3465 N   0  0  0  0  0  0  0  0  0  0  0  0
  1  3  1  0  0  0  0
  1  2  1  6  0  0  0
  3  4  1  6  0  0  0
  3  5  1  0  0  0  0
  5  6  1  1  0  0  0
  7  8  1  6  0  0  0
  7  5  1  0  0  0  0
  9 11  1  1  0  0  0
  9  7  1  0  0  0  0
 10  9  1  0  0  0  0
 10  1  1  0  0  0  0
 12 11  1  0  0  0  0
 13 14  1  1  0  0  0
 15 13  1  0  0  0  0
 16 17  1  1  0  0  0
 16 15  1  0  0  0  0
 18  2  1  6  0  0  0
 18 19  1  0  0  0  0
 18 16  1  0  0  0  0
 19 20  1  1  0  0  0
 19 21  1  0  0  0  0
 21 22  1  6  0  0  0
 21 13  1  0  0  0  0
 23 20  1  6  0  0  0
 23 29  1  0  0  0  0
 24 25  1  1  0  0  0
 24 26  1  0  0  0  0
 24 23  1  0  0  0  0
 26 27  1  1  0  0  0
 26 28  1  0  0  0  0
 28 30  1  6  0  0  0
 29 28  1  0  0  0  0
 30 31  1  0  0  0  0
 32 27  1  1  0  0  0
 32 40  1  0  0  0  0
 33 35  1  0  0  0  0
 33 32  1  0  0  0  0
 33 34  1  1  0  0  0
 35 36  1  6  0  0  0
 35 37  1  0  0  0  0
 37 38  1  1  0  0  0
 37 39  1  0  0  0  0
 39 41  1  1  0  0  0
 40 39  1  0  0  0  0
 41 42  1  0  0  0  0
M  END
>  <CHROM.1>
-166.13833967,-65.87845518,-111.98387778,-126.98714300,-107.52510562,156.99912060
-62.79337613,-133.27042888,46.86097595,3.97266147,13.35566703,12.86282709
-2.02264700,-0.56675190,0.53772332

>  <Name>
lig.pdb

>  <RI>
0

>  <Rbt.Current_Directory>
/home/itssahil/PROJECTS/Mol_Feturizer/New_Systems/rnas/4wcr

>  <Rbt.Executable>
rbdock ($Id: //depot/dev/client3/rdock/2013.1/src/exe/rbdock.cxx#4 $)

>  <Rbt.Library>
libRbt.so (2013.1, Build901 2013/11/27)

>  <Rbt.Parameter_File>
/export/apps/rDock/src/rDock_2013.1_src/data/scripts/dock_solv.prm

>  <Rbt.Receptor>
prm/blind_docking_40.prm

>  <SCORE>
38.8629

>  <SCORE.INTER>
-8.32471

>  <SCORE.INTER.CONST>
1

>  <SCORE.INTER.POLAR>
0

>  <SCORE.INTER.ROT>
9

>  <SCORE.INTER.SOLV>
28.9816

>  <SCORE.INTER.VDW>
-24.8104

>  <SCORE.INTER.norm>
-0.198207

>  <SCORE.INTRA>
41.4163

>  <SCORE.INTRA.DIHEDRAL>
14.7729

>  <SCORE.INTRA.DIHEDRAL.0>
16.2863

>  <SCORE.INTRA.POLAR>
0

>  <SCORE.INTRA.POLAR.0>
0

>  <SCORE.INTRA.REPUL>
-0.314433

>  <SCORE.INTRA.REPUL.0>
0.314433

>  <SCORE.INTRA.SOLV>
1.06432

>  <SCORE.INTRA.SOLV.lig_0>
-103.824

>  <SCORE.INTRA.VDW>
35.0699

>  <SCORE.INTRA.VDW.0>
-5.30945

>  <SCORE.INTRA.norm>
0.986102

>  <SCORE.RESTR>
5.77131

>  <SCORE.RESTR.CAVITY>
5.77131

>  <SCORE.RESTR.norm>
0.137412

>  <SCORE.SYSTEM>
0

>  <SCORE.SYSTEM.CONST>
0

>  <SCORE.SYSTEM.DIHEDRAL>
0

>  <SCORE.SYSTEM.SOLV>
0

>  <SCORE.SYSTEM.norm>
0

>  <SCORE.heavy>
42

>  <SCORE.norm>
0.925307

>  <RMSD>
26.452

$$$$
lig.pdb
 OpenBabel11021811513D
libRbt.so/2013.1/901 2013/11/27
 42 45  0  0  0  0  0  0  0  0999 V2000
    3.4971   15.2785   14.0727 C   0  0  2  0  0  0  0  0  0  0  0  0
    4.0647   16.1966   13.0868 O   0  0  0  0  0  0  0  0  0  0  0  0
    4.2265   15.6032   15.4521 C   0  0  2  0  0  0  0  0  0  0  0  0
    3.9434   16.9804   15.8655 N   0  0  0  0  0  0  0  0  0  0  0  0
    5.8003   15.3325   15.2806 C   0  0  1  0  0  0  0  0  0  0  0  0
    6.5115   15.6007   16.5074 O   0  0  0  0  0  0  0  0  0  0  0  0
    5.9641   13.8678   14.8398 C   0  0  2  0  0  0  0  0  0  0  0  0
    7.3151   13.5980   14.6796 O   0  0  0  0  0  0  0  0  0  0  0  0
    5.1681   13.6173   13.4789 C   0  0  2  0  0  0  0  0  0  0  0  0
    3.7706   13.8938   13.6352 O   0  0  0  0  0  0  0  0  0  0  0  0
    5.2805   12.1931   13.0140 C   0  0  0  0  0  0  0  0  0  0  0  0
    6.6637   11.8383   13.0385 O   0  0  0  0  0  0  0  0  0  0  0  0
    0.4849   17.5711   10.8355 C   0  0  2  0  0  0  0  0  0  0  0  0
   -0.3374   18.1861    9.8165 N   0  0  0  0  0  0  0  0  0  0  0  0
    1.4977   18.6260   11.4273 C   0  0  0  0  0  0  0  0  0  0  0  0
    2.4056   17.9818   12.5333 C   0  0  2  0  0  0  0  0  0  0  0  0
    3.3317   18.9878   13.0491 N   0  0  0  0  0  0  0  0  0  0  0  0
    3.2469   16.7448   11.9854 C   0  0  2  0  0  0  0  0  0  0  0  0
    2.2334   15.6975   11.4398 C   0  0  2  0  0  0  0  0  0  0  0  0
    3.1048   14.5631   10.9533 O   0  0  0  0  0  0  0  0  0  0  0  0
    1.3411   16.3525   10.2472 C   0  0  1  0  0  0  0  0  0  0  0  0
    0.3113   15.4728    9.6923 O   0  0  0  0  0  0  0  0  0  0  0  0
    2.3530   13.5480   10.4226 C   0  0  1  0  0  0  0  0  0  0  0  0
    2.6701   12.2362   10.9967 C   0  0  2  0  0  0  0  0  0  0  0  0
    3.9091   11.8508   10.4936 O   0  0  0  0  0  0  0  0  0  0  0  0
    1.4035   11.4342   10.6283 C   0  0  2  0  0  0  0  0  0  0  0  0
    1.8322   10.3427    9.7829 O   0  0  0  0  0  0  0  0  0  0  0  0
    0.5298   12.4071    9.9074 C   0  0  2  0  0  0  0  0  0  0  0  0
    0.9529   13.6142   10.6367 O   0  0  0  0  0  0  0  0  0  0  0  0
   -0.9963   12.1226   10.1614 C   0  0  0  0  0  0  0  0  0  0  0  0
   -1.4927   10.9348    9.4745 O   0  0  0  0  0  0  0  0  0  0  0  0
    0.8424    9.3131    9.4813 C   0  0  2  0  0  0  0  0  0  0  0  0
    1.2692    7.9522   10.2429 C   0  0  2  0  0  0  0  0  0  0  0  0
    2.6422    7.5481    9.7978 N   0  0  0  0  0  0  0  0  0  0  0  0
    0.1727    6.8252    9.9087 C   0  0  1  0  0  0  0  0  0  0  0  0
   -1.1180    7.3239   10.3746 O   0  0  0  0  0  0  0  0  0  0  0  0
    0.1508    6.5560    8.3366 C   0  0  2  0  0  0  0  0  0  0  0  0
    1.4824    6.0421    7.9454 O   0  0  0  0  0  0  0  0  0  0  0  0
   -0.2251    7.9551    7.5863 C   0  0  1  0  0  0  0  0  0  0  0  0
    0.7737    9.0186    7.9687 O   0  0  0  0  0  0  0  0  0  0  0  0
   -0.2385    7.7316    6.0377 C   0  0  0  0  0  0  0  0  0  0  0  0
    1.0718    7.2385    5.5112 N   0  0  0  0  0  0  0  0  0  0  0  0
  1  3  1  0  0  0  0
  1  2  1  6  0  0  0
  3  4  1  6  0  0  0
  3  5  1  0  0  0  0
  5  6  1  1  0  0  0
  7  8  1  6  0  0  0
  7  5  1  0  0  0  0
  9 11  1  1  0  0  0
  9  7  1  0  0  0  0
 10  9  1  0  0  0  0
 10  1  1  0  0  0  0
 12 11  1  0  0  0  0
 13 14  1  6  0  0  0
 15 13  1  0  0  0  0
 16 17  1  6  0  0  0
 16 15  1  0  0  0  0
 18  2  1  1  0  0  0
 18 19  1  0  0  0  0
 18 16  1  0  0  0  0
 19 20  1  6  0  0  0
 19 21  1  0  0  0  0
 21 22  1  1  0  0  0
 21 13  1  0  0  0  0
 23 20  1  1  0  0  0
 23 29  1  0  0  0  0
 24 25  1  6  0  0  0
 24 26  1  0  0  0  0
 24 23  1  0  0  0  0
 26 27  1  6  0  0  0
 26 28  1  0  0  0  0
 28 30  1  1  0  0  0
 29 28  1  0  0  0  0
 30 31  1  0  0  0  0
 32 27  1  6  0  0  0
 32 40  1  0  0  0  0
 33 35  1  0  0  0  0
 33 32  1  0  0  0  0
 33 34  1  6  0  0  0
 35 36  1  6  0  0  0
 35 37  1  0  0  0  0
 37 38  1  6  0  0  0
 37 39  1  0  0  0  0
 39 41  1  6  0  0  0
 40 39  1  0  0  0  0
 41 42  1  0  0  0  0
M  END
>  <CHROM.1>
-145.80033874,-49.62899842,81.58569645,-179.42911692,-127.98633839,170.24516193
-72.66811582,-110.39554170,-58.60069524,2.34815546,12.73186456,11.20199737
-1.09543095,0.70828356,-2.89494808

>  <Name>
lig.pdb

>  <RI>
0

>  <Rbt.Current_Directory>
/home/itssahil/PROJECTS/Mol_Feturizer/New_Systems/rnas/4wcr

>  <Rbt.Executable>
rbdock ($Id: //depot/dev/client3/rdock/2013.1/src/exe/rbdock.cxx#4 $)

>  <Rbt.Library>
libRbt.so (2013.1, Build901 2013/11/27)

>  <Rbt.Parameter_File>
/export/apps/rDock/src/rDock_2013.1_src/data/scripts/dock_solv.prm

>  <Rbt.Receptor>
prm/blind_docking_80.prm

>  <SCORE>
8.7136

>  <SCORE.INTER>
-6.80758

>  <SCORE.INTER.CONST>
1

>  <SCORE.INTER.POLAR>
0

>  <SCORE.INTER.ROT>
9

>  <SCORE.INTER.SOLV>
30.8638

>  <SCORE.INTER.VDW>
-24.4263

>  <SCORE.INTER.norm>
-0.162085

>  <SCORE.INTRA>
8.44061

>  <SCORE.INTRA.DIHEDRAL>
5.65206

>  <SCORE.INTRA.DIHEDRAL.0>
16.2863

>  <SCORE.INTRA.POLAR>
0

>  <SCORE.INTRA.POLAR.0>
0

>  <SCORE.INTRA.REPUL>
-0.314433

>  <SCORE.INTRA.REPUL.0>
0.314433

>  <SCORE.INTRA.SOLV>
0.0806367

>  <SCORE.INTRA.SOLV.lig_0>
-103.824

>  <SCORE.INTRA.VDW>
7.14642

>  <SCORE.INTRA.VDW.0>
-5.30945

>  <SCORE.INTRA.norm>
0.200967

>  <SCORE.RESTR>
7.08057

>  <SCORE.RESTR.CAVITY>
7.08057

>  <SCORE.RESTR.norm>
0.168585

>  <SCORE.SYSTEM>
0

>  <SCORE.SYSTEM.CONST>
0

>  <SCORE.SYSTEM.DIHEDRAL>
0

>  <SCORE.SYSTEM.SOLV>
0

>  <SCORE.SYSTEM.norm>
0

>  <SCORE.heavy>
42

>  <SCORE.norm>
0.207467

>  <RMSD>
26.469

$$$$
lig.pdb
 OpenBabel11021811513D
libRbt.so/2013.1/901 2013/11/27
 42 45  0  0  0  0  0  0  0  0999 V2000
    2.2810   15.2304   13.6200 C   0  0  2  0  0  0  0  0  0  0  0  0
    3.4613   14.8088   12.8674 O   0  0  0  0  0  0  0  0  0  0  0  0
    1.5246   16.2899   12.7007 C   0  0  2  0  0  0  0  0  0  0  0  0
    1.0920   15.6611   11.4497 N   0  0  0  0  0  0  0  0  0  0  0  0
    2.4986   17.5414   12.4457 C   0  0  1  0  0  0  0  0  0  0  0  0
    1.8582   18.5409   11.6250 O   0  0  0  0  0  0  0  0  0  0  0  0
    2.8861   18.1039   13.8241 C   0  0  2  0  0  0  0  0  0  0  0  0
    3.7313   19.1885   13.6424 O   0  0  0  0  0  0  0  0  0  0  0  0
    3.5949   16.9691   14.6948 C   0  0  2  0  0  0  0  0  0  0  0  0
    2.7285   15.8440   14.8877 O   0  0  0  0  0  0  0  0  0  0  0  0
    3.9773   17.4631   16.0611 C   0  0  0  0  0  0  0  0  0  0  0  0
    2.8070   18.0175   16.6635 O   0  0  0  0  0  0  0  0  0  0  0  0
    5.9421   11.2113   12.0449 C   0  0  2  0  0  0  0  0  0  0  0  0
    6.5784    9.9222   12.2065 N   0  0  0  0  0  0  0  0  0  0  0  0
    6.2895   12.1465   13.2670 C   0  0  0  0  0  0  0  0  0  0  0  0
    5.6067   13.5515   13.1178 C   0  0  2  0  0  0  0  0  0  0  0  0
    5.9470   14.3825   14.2708 N   0  0  0  0  0  0  0  0  0  0  0  0
    4.0204   13.4490   13.0112 C   0  0  2  0  0  0  0  0  0  0  0  0
    3.6933   12.5550   11.7802 C   0  0  2  0  0  0  0  0  0  0  0  0
    2.1833   12.5178   11.7452 O   0  0  0  0  0  0  0  0  0  0  0  0
    4.3480   11.0779   11.9728 C   0  0  1  0  0  0  0  0  0  0  0  0
    4.1513   10.1638   10.8468 O   0  0  0  0  0  0  0  0  0  0  0  0
    1.7199   12.2209   10.4904 C   0  0  1  0  0  0  0  0  0  0  0  0
    1.0236   10.9318   10.4240 C   0  0  2  0  0  0  0  0  0  0  0  0
    1.9878    9.9331   10.5220 O   0  0  0  0  0  0  0  0  0  0  0  0
    0.2120   11.0968    9.1212 C   0  0  2  0  0  0  0  0  0  0  0  0
    0.6599   10.0618    8.2170 O   0  0  0  0  0  0  0  0  0  0  0  0
    0.5461   12.4676    8.6324 C   0  0  2  0  0  0  0  0  0  0  0  0
    0.7414   13.0937    9.9506 O   0  0  0  0  0  0  0  0  0  0  0  0
   -0.6674   13.1343    7.8858 C   0  0  0  0  0  0  0  0  0  0  0  0
   -1.8660   13.2560    8.7090 O   0  0  0  0  0  0  0  0  0  0  0  0
    0.7928    8.7163    8.7674 C   0  0  2  0  0  0  0  0  0  0  0  0
    0.9688    7.6758    7.5424 C   0  0  2  0  0  0  0  0  0  0  0  0
   -0.2140    7.7862    6.6283 N   0  0  0  0  0  0  0  0  0  0  0  0
    1.1181    6.1979    8.1569 C   0  0  1  0  0  0  0  0  0  0  0  0
    2.2877    6.2075    9.0307 O   0  0  0  0  0  0  0  0  0  0  0  0
   -0.2029    5.8253    8.9695 C   0  0  2  0  0  0  0  0  0  0  0  0
   -1.3359    5.8225    8.0175 O   0  0  0  0  0  0  0  0  0  0  0  0
   -0.3914    6.9211   10.1635 C   0  0  1  0  0  0  0  0  0  0  0  0
   -0.4576    8.3071    9.5725 O   0  0  0  0  0  0  0  0  0  0  0  0
   -1.6907    6.5955   10.9725 C   0  0  0  0  0  0  0  0  0  0  0  0
   -1.5133    5.4513   11.9194 N   0  0  0  0  0  0  0  0  0  0  0  0
  1  3  1  0  0  0  0
  1  2  1  6  0  0  0
  3  4  1  6  0  0  0
  3  5  1  0  0  0  0
  5  6  1  6  0  0  0
  7  8  1  6  0  0  0
  7  5  1  0  0  0  0
  9 11  1  1  0  0  0
  9  7  1  0  0  0  0
 10  9  1  0  0  0  0
 10  1  1  0  0  0  0
 12 11  1  0  0  0  0
 13 14  1  1  0  0  0
 15 13  1  0  0  0  0
 16 17  1  1  0  0  0
 16 15  1  0  0  0  0
 18  2  1  6  0  0  0
 18 19  1  0  0  0  0
 18 16  1  0  0  0  0
 19 20  1  1  0  0  0
 19 21  1  0  0  0  0
 21 22  1  6  0  0  0
 21 13  1  0  0  0  0
 23 20  1  1  0  0  0
 23 29  1  0  0  0  0
 24 25  1  6  0  0  0
 24 26  1  0  0  0  0
 24 23  1  0  0  0  0
 26 27  1  6  0  0  0
 26 28  1  0  0  0  0
 28 30  1  1  0  0  0
 29 28  1  0  0  0  0
 30 31  1  0  0  0  0
 32 27  1  6  0  0  0
 32 40  1  0  0  0  0
 33 35  1  0  0  0  0
 33 32  1  0  0  0  0
 33 34  1  6  0  0  0
 35 36  1  1  0  0  0
 35 37  1  0  0  0  0
 37 38  1  6  0  0  0
 37 39  1  0  0  0  0
 39 41  1  6  0  0  0
 40 39  1  0  0  0  0
 41 42  1  0  0  0  0
M  END
>  <CHROM.1>
-149.01099050,53.67518483,-136.12016104,157.00296565,114.42441556,45.82893454
58.75133592,167.24759291,77.09437881,1.99776390,12.08070557,11.24840647,1.20076089
-0.58054409,0.28173157

>  <Name>
lig.pdb

>  <RI>
0

>  <Rbt.Current_Directory>
/home/itssahil/PROJECTS/Mol_Feturizer/New_Systems/rnas/4wcr

>  <Rbt.Executable>
rbdock ($Id: //depot/dev/client3/rdock/2013.1/src/exe/rbdock.cxx#4 $)

>  <Rbt.Library>
libRbt.so (2013.1, Build901 2013/11/27)

>  <Rbt.Parameter_File>
/export/apps/rDock/src/rDock_2013.1_src/data/scripts/dock_solv.prm

>  <Rbt.Receptor>
prm/blind_docking_40.prm

>  <SCORE>
16.0194

>  <SCORE.INTER>
-4.16009

>  <SCORE.INTER.CONST>
1

>  <SCORE.INTER.POLAR>
0

>  <SCORE.INTER.ROT>
9

>  <SCORE.INTER.SOLV>
27.6606

>  <SCORE.INTER.VDW>
-21.5936

>  <SCORE.INTER.norm>
-0.0990498

>  <SCORE.INTRA>
13.456

>  <SCORE.INTRA.DIHEDRAL>
6.14853

>  <SCORE.INTRA.DIHEDRAL.0>
16.2863

>  <SCORE.INTRA.POLAR>
0

>  <SCORE.INTRA.POLAR.0>
0

>  <SCORE.INTRA.REPUL>
0.505807

>  <SCORE.INTRA.REPUL.0>
0.314433

>  <SCORE.INTRA.SOLV>
-0.634648

>  <SCORE.INTRA.SOLV.lig_0>
-103.824

>  <SCORE.INTRA.VDW>
8.17003

>  <SCORE.INTRA.VDW.0>
-5.30945

>  <SCORE.INTRA.norm>
0.320381

>  <SCORE.RESTR>
6.72351

>  <SCORE.RESTR.CAVITY>
6.72351

>  <SCORE.RESTR.norm>
0.160084

>  <SCORE.SYSTEM>
0

>  <SCORE.SYSTEM.CONST>
0

>  <SCORE.SYSTEM.DIHEDRAL>
0

>  <SCORE.SYSTEM.SOLV>
0

>  <SCORE.SYSTEM.norm>
0

>  <SCORE.heavy>
42

>  <SCORE.norm>
0.381415

>  <RMSD>
26.478

$$$$
lig.pdb
 OpenBabel11021811513D
libRbt.so/2013.1/901 2013/11/27
 42 45  0  0  0  0  0  0  0  0999 V2000
    3.5807   16.2719   12.3678 C   0  0  2  0  0  0  0  0  0  0  0  0
    3.2142   15.3540   13.4450 O   0  0  0  0  0  0  0  0  0  0  0  0
    2.9870   17.6935   12.7759 C   0  0  2  0  0  0  0  0  0  0  0  0
    3.5948   18.1590   14.0255 N   0  0  0  0  0  0  0  0  0  0  0  0
    1.3891   17.5739   12.8860 C   0  0  1  0  0  0  0  0  0  0  0  0
    0.7955   18.8399   13.2434 O   0  0  0  0  0  0  0  0  0  0  0  0
    0.8761   17.0721   11.5253 C   0  0  2  0  0  0  0  0  0  0  0  0
   -0.5046   16.9547   11.5841 O   0  0  0  0  0  0  0  0  0  0  0  0
    1.5524   15.6696   11.1729 C   0  0  2  0  0  0  0  0  0  0  0  0
    2.9797   15.7816   11.1100 O   0  0  0  0  0  0  0  0  0  0  0  0
    1.0981   15.1435    9.8410 C   0  0  0  0  0  0  0  0  0  0  0  0
   -0.2781   14.7826    9.9654 O   0  0  0  0  0  0  0  0  0  0  0  0
    6.3292   12.1885   13.2222 C   0  0  2  0  0  0  0  0  0  0  0  0
    7.0215   10.9340   13.4217 N   0  0  0  0  0  0  0  0  0  0  0  0
    5.9554   12.8309   14.6137 C   0  0  0  0  0  0  0  0  0  0  0  0
    5.1985   14.1925   14.4246 C   0  0  2  0  0  0  0  0  0  0  0  0
    4.8650   14.7494   15.7339 N   0  0  0  0  0  0  0  0  0  0  0  0
    3.8570   14.0308   13.5805 C   0  0  2  0  0  0  0  0  0  0  0  0
    4.2462   13.4316   12.1980 C   0  0  2  0  0  0  0  0  0  0  0  0
    2.9308   13.3209   11.4631 O   0  0  0  0  0  0  0  0  0  0  0  0
    4.9705   11.9885   12.3987 C   0  0  1  0  0  0  0  0  0  0  0  0
    5.4322   11.3524   11.1640 O   0  0  0  0  0  0  0  0  0  0  0  0
    2.6565   12.0223   11.1230 C   0  0  1  0  0  0  0  0  0  0  0  0
    1.6327   11.9047   10.0793 C   0  0  2  0  0  0  0  0  0  0  0  0
    0.4085   12.2215   10.6605 O   0  0  0  0  0  0  0  0  0  0  0  0
    1.8951   10.4739    9.5625 C   0  0  2  0  0  0  0  0  0  0  0  0
    0.6857    9.7175    9.7970 O   0  0  0  0  0  0  0  0  0  0  0  0
    3.0464    9.9783   10.3741 C   0  0  2  0  0  0  0  0  0  0  0  0
    3.7195   11.2752   10.5552 O   0  0  0  0  0  0  0  0  0  0  0  0
    3.9621    8.9979    9.5526 C   0  0  0  0  0  0  0  0  0  0  0  0
    5.2876    8.8103   10.1329 O   0  0  0  0  0  0  0  0  0  0  0  0
    0.6025    8.3973    9.1796 C   0  0  2  0  0  0  0  0  0  0  0  0
   -0.8705    7.7921    9.4590 C   0  0  2  0  0  0  0  0  0  0  0  0
   -1.1044    7.7277   10.9381 N   0  0  0  0  0  0  0  0  0  0  0  0
   -0.9550    6.3407    8.7730 C   0  0  1  0  0  0  0  0  0  0  0  0
   -0.7057    6.5203    7.3457 O   0  0  0  0  0  0  0  0  0  0  0  0
    0.1351    5.3792    9.4299 C   0  0  2  0  0  0  0  0  0  0  0  0
   -0.1920    5.2363   10.8661 O   0  0  0  0  0  0  0  0  0  0  0  0
    1.6075    6.0384    9.1861 C   0  0  1  0  0  0  0  0  0  0  0  0
    1.6439    7.4270    9.7738 O   0  0  0  0  0  0  0  0  0  0  0  0
    2.7026    5.1280    9.8343 C   0  0  0  0  0  0  0  0  0  0  0  0
    4.0902    5.6386    9.6081 N   0  0  0  0  0  0  0  0  0  0  0  0
  1  3  1  0  0  0  0
  1  2  1  1  0  0  0
  3  4  1  1  0  0  0
  3  5  1  0  0  0  0
  5  6  1  6  0  0  0
  7  8  1  1  0  0  0
  7  5  1  0  0  0  0
  9 11  1  6  0  0  0
  9  7  1  0  0  0  0
 10  9  1  0  0  0  0
 10  1  1  0  0  0  0
 12 11  1  0  0  0  0
 13 14  1  1  0  0  0
 15 13  1  0  0  0  0
 16 17  1  1  0  0  0
 16 15  1  0  0  0  0
 18  2  1  6  0  0  0
 18 19  1  0  0  0  0
 18 16  1  0  0  0  0
 19 20  1  6  0  0  0
 19 21  1  0  0  0  0
 21 22  1  6  0  0  0
 21 13  1  0  0  0  0
 23 20  1  6  0  0  0
 23 29  1  0  0  0  0
 24 25  1  1  0  0  0
 24 26  1  0  0  0  0
 24 23  1  0  0  0  0
 26 27  1  1  0  0  0
 26 28  1  0  0  0  0
 28 30  1  6  0  0  0
 29 28  1  0  0  0  0
 30 31  1  0  0  0  0
 32 27  1  1  0  0  0
 32 40  1  0  0  0  0
 33 35  1  0  0  0  0
 33 32  1  0  0  0  0
 33 34  1  1  0  0  0
 35 36  1  6  0  0  0
 35 37  1  0  0  0  0
 37 38  1  1  0  0  0
 37 39  1  0  0  0  0
 39 41  1  1  0  0  0
 40 39  1  0  0  0  0
 41 42  1  0  0  0  0
M  END
>  <CHROM.1>
-165.19416683,-68.82661264,86.22508950,-119.65553421,-162.46179739,169.49054966
162.30331759,-174.99782219,177.79002218,2.41035660,11.79478733,11.22618415
-1.38709559,0.43825533,-2.87895569

>  <Name>
lig.pdb

>  <RI>
0

>  <Rbt.Current_Directory>
/home/itssahil/PROJECTS/Mol_Feturizer/New_Systems/rnas/4wcr

>  <Rbt.Executable>
rbdock ($Id: //depot/dev/client3/rdock/2013.1/src/exe/rbdock.cxx#4 $)

>  <Rbt.Library>
libRbt.so (2013.1, Build901 2013/11/27)

>  <Rbt.Parameter_File>
/export/apps/rDock/src/rDock_2013.1_src/data/scripts/dock_solv.prm

>  <Rbt.Receptor>
prm/blind_docking_80.prm

>  <SCORE>
16.862

>  <SCORE.INTER>
-12.7698

>  <SCORE.INTER.CONST>
1

>  <SCORE.INTER.POLAR>
0

>  <SCORE.INTER.ROT>
9

>  <SCORE.INTER.SOLV>
28.0712

>  <SCORE.INTER.VDW>
-27.4703

>  <SCORE.INTER.norm>
-0.304044

>  <SCORE.INTRA>
22.8064

>  <SCORE.INTRA.DIHEDRAL>
-1.33918

>  <SCORE.INTRA.DIHEDRAL.0>
16.2863

>  <SCORE.INTRA.POLAR>
0

>  <SCORE.INTRA.POLAR.0>
0

>  <SCORE.INTRA.REPUL>
-0.314433

>  <SCORE.INTRA.REPUL.0>
0.314433

>  <SCORE.INTRA.SOLV>
-0.854496

>  <SCORE.INTRA.SOLV.lig_0>
-103.824

>  <SCORE.INTRA.VDW>
25.4754

>  <SCORE.INTRA.VDW.0>
-5.30945

>  <SCORE.INTRA.norm>
0.54301

>  <SCORE.RESTR>
6.82539

>  <SCORE.RESTR.CAVITY>
6.82539

>  <SCORE.RESTR.norm>
0.162509

>  <SCORE.SYSTEM>
0

>  <SCORE.SYSTEM.CONST>
0

>  <SCORE.SYSTEM.DIHEDRAL>
0

>  <SCORE.SYSTEM.SOLV>
0

>  <SCORE.SYSTEM.norm>
0

>  <SCORE.heavy>
42

>  <SCORE.norm>
0.401476

>  <RMSD>
26.479

$$$$
lig.pdb
 OpenBabel11021811513D
libRbt.so/2013.1/901 2013/11/27
 42 45  0  0  0  0  0  0  0  0999 V2000
    2.4664   14.2396   12.6491 C   0  0  2  0  0  0  0  0  0  0  0  0
    2.6307   14.9077   11.3592 O   0  0  0  0  0  0  0  0  0  0  0  0
    2.6919   15.3597   13.7602 C   0  0  2  0  0  0  0  0  0  0  0  0
    1.6783   16.4110   13.6360 N   0  0  0  0  0  0  0  0  0  0  0  0
    4.1844   15.9359   13.6178 C   0  0  1  0  0  0  0  0  0  0  0  0
    4.4481   16.9497   14.6103 O   0  0  0  0  0  0  0  0  0  0  0  0
    5.1468   14.7438   13.7563 C   0  0  2  0  0  0  0  0  0  0  0  0
    6.4493   15.2051   13.6363 O   0  0  0  0  0  0  0  0  0  0  0  0
    4.8240   13.6515   12.6379 C   0  0  2  0  0  0  0  0  0  0  0  0
    3.4796   13.1691   12.7544 O   0  0  0  0  0  0  0  0  0  0  0  0
    5.7263   12.4547   12.7417 C   0  0  0  0  0  0  0  0  0  0  0  0
    5.6811   11.9952   14.0932 O   0  0  0  0  0  0  0  0  0  0  0  0
   -1.5057   14.7221    9.7381 C   0  0  2  0  0  0  0  0  0  0  0  0
   -2.6383   14.8977    8.8552 N   0  0  0  0  0  0  0  0  0  0  0  0
   -0.8480   16.1185   10.0636 C   0  0  0  0  0  0  0  0  0  0  0  0
    0.3873   15.9548   11.0175 C   0  0  2  0  0  0  0  0  0  0  0  0
    0.9703   17.2674   11.2877 N   0  0  0  0  0  0  0  0  0  0  0  0
    1.5130   15.0123   10.3989 C   0  0  2  0  0  0  0  0  0  0  0  0
    0.8591   13.6284   10.1183 C   0  0  2  0  0  0  0  0  0  0  0  0
    1.9861   12.7994    9.5479 O   0  0  0  0  0  0  0  0  0  0  0  0
   -0.3790   13.7967    9.0759 C   0  0  1  0  0  0  0  0  0  0  0  0
   -1.1081   12.5629    8.7789 O   0  0  0  0  0  0  0  0  0  0  0  0
    1.9672   11.5223   10.0438 C   0  0  1  0  0  0  0  0  0  0  0  0
    1.5483   10.5260    9.0523 C   0  0  2  0  0  0  0  0  0  0  0  0
    0.1796   10.6842    8.8568 O   0  0  0  0  0  0  0  0  0  0  0  0
    2.0932    9.2272    9.6845 C   0  0  2  0  0  0  0  0  0  0  0  0
    0.9531    8.3737    9.9321 O   0  0  0  0  0  0  0  0  0  0  0  0
    2.7638    9.6661   10.9444 C   0  0  2  0  0  0  0  0  0  0  0  0
    3.2093   10.9864   10.4689 O   0  0  0  0  0  0  0  0  0  0  0  0
    4.0046    8.7636   11.2915 C   0  0  0  0  0  0  0  0  0  0  0  0
    4.8267    9.2905   12.3758 O   0  0  0  0  0  0  0  0  0  0  0  0
    1.2324    6.9875   10.2945 C   0  0  2  0  0  0  0  0  0  0  0  0
    1.9648    6.2681    9.0455 C   0  0  2  0  0  0  0  0  0  0  0  0
    1.0815    6.3578    7.8379 N   0  0  0  0  0  0  0  0  0  0  0  0
    2.2720    4.7440    9.4540 C   0  0  1  0  0  0  0  0  0  0  0  0
    3.1268    4.7758   10.6372 O   0  0  0  0  0  0  0  0  0  0  0  0
    0.8999    3.9891    9.7569 C   0  0  2  0  0  0  0  0  0  0  0  0
    0.0989    3.9863    8.5125 O   0  0  0  0  0  0  0  0  0  0  0  0
    0.1517    4.7660   10.9810 C   0  0  1  0  0  0  0  0  0  0  0  0
   -0.0634    6.2112   10.6068 O   0  0  0  0  0  0  0  0  0  0  0  0
   -1.2098    4.0610   11.2941 C   0  0  0  0  0  0  0  0  0  0  0  0
   -1.0444    2.8111   12.0989 N   0  0  0  0  0  0  0  0  0  0  0  0
  1  3  1  0  0  0  0
  1  2  1  6  0  0  0
  3  4  1  6  0  0  0
  3  5  1  0  0  0  0
  5  6  1  1  0  0  0
  7  8  1  6  0  0  0
  7  5  1  0  0  0  0
  9 11  1  1  0  0  0
  9  7  1  0  0  0  0
 10  9  1  0  0  0  0
 10  1  1  0  0  0  0
 12 11  1  0  0  0  0
 13 14  1  6  0  0  0
 15 13  1  0  0  0  0
 16 17  1  6  0  0  0
 16 15  1  0  0  0  0
 18  2  1  1  0  0  0
 18 19  1  0  0  0  0
 18 16  1  0  0  0  0
 19 20  1  6  0  0  0
 19 21  1  0  0  0  0
 21 22  1  1  0  0  0
 21 13  1  0  0  0  0
 23 20  1  6  0  0  0
 23 29  1  0  0  0  0
 24 25  1  1  0  0  0
 24 26  1  0  0  0  0
 24 23  1  0  0  0  0
 26 27  1  1  0  0  0
 26 28  1  0  0  0  0
 28 30  1  6  0  0  0
 29 28  1  0  0  0  0
 30 31  1  0  0  0  0
 32 27  1  6  0  0  0
 32 40  1  0  0  0  0
 33 35  1  0  0  0  0
 33 32  1  0  0  0  0
 33 34  1  6  0  0  0
 35 36  1  1  0  0  0
 35 37  1  0  0  0  0
 37 38  1  6  0  0  0
 37 39  1  0  0  0  0
 39 41  1  6  0  0  0
 40 39  1  0  0  0  0
 41 42  1  0  0  0  0
M  END
>  <CHROM.1>
-116.48411259,51.49392334,66.62230524,138.92422850,108.50426941,168.77109207
169.83250172,-64.02174160,78.39255070,1.90690858,11.07204391,10.99588231
-1.35252253,0.58272989,-3.04261356

>  <Name>
lig.pdb

>  <RI>
0

>  <Rbt.Current_Directory>
/home/itssahil/PROJECTS/Mol_Feturizer/New_Systems/rnas/4wcr

>  <Rbt.Executable>
rbdock ($Id: //depot/dev/client3/rdock/2013.1/src/exe/rbdock.cxx#4 $)

>  <Rbt.Library>
libRbt.so (2013.1, Build901 2013/11/27)

>  <Rbt.Parameter_File>
/export/apps/rDock/src/rDock_2013.1_src/data/scripts/dock_solv.prm

>  <Rbt.Receptor>
prm/blind_docking_80.prm

>  <SCORE>
4.58319

>  <SCORE.INTER>
-5.61585

>  <SCORE.INTER.CONST>
1

>  <SCORE.INTER.POLAR>
0

>  <SCORE.INTER.ROT>
9

>  <SCORE.INTER.SOLV>
29.2897

>  <SCORE.INTER.VDW>
-23.1071

>  <SCORE.INTER.norm>
-0.133711

>  <SCORE.INTRA>
3.98149

>  <SCORE.INTRA.DIHEDRAL>
6.08762

>  <SCORE.INTRA.DIHEDRAL.0>
16.2863

>  <SCORE.INTRA.POLAR>
0

>  <SCORE.INTRA.POLAR.0>
0

>  <SCORE.INTRA.REPUL>
-0.314433

>  <SCORE.INTRA.REPUL.0>
0.314433

>  <SCORE.INTRA.SOLV>
0.442649

>  <SCORE.INTRA.SOLV.lig_0>
-103.824

>  <SCORE.INTRA.VDW>
2.28852

>  <SCORE.INTRA.VDW.0>
-5.30945

>  <SCORE.INTRA.norm>
0.0947975

>  <SCORE.RESTR>
6.21754

>  <SCORE.RESTR.CAVITY>
6.21754

>  <SCORE.RESTR.norm>
0.148037

>  <SCORE.SYSTEM>
0

>  <SCORE.SYSTEM.CONST>
0

>  <SCORE.SYSTEM.DIHEDRAL>
0

>  <SCORE.SYSTEM.SOLV>
0

>  <SCORE.SYSTEM.norm>
0

>  <SCORE.heavy>
42

>  <SCORE.norm>
0.109123

>  <RMSD>
26.499

$$$$
lig.pdb
 OpenBabel11021811513D
libRbt.so/2013.1/901 2013/11/27
 42 45  0  0  0  0  0  0  0  0999 V2000
    4.2640   15.5349   12.6544 C   0  0  2  0  0  0  0  0  0  0  0  0
    3.1697   14.5656   12.6489 O   0  0  0  0  0  0  0  0  0  0  0  0
    5.4195   14.8935   13.5452 C   0  0  2  0  0  0  0  0  0  0  0  0
    5.8928   13.6444   12.9423 N   0  0  0  0  0  0  0  0  0  0  0  0
    4.8620   14.6748   15.0355 C   0  0  1  0  0  0  0  0  0  0  0  0
    5.8741   14.1045   15.8917 O   0  0  0  0  0  0  0  0  0  0  0  0
    4.3916   16.0459   15.5505 C   0  0  2  0  0  0  0  0  0  0  0  0
    3.9004   15.8948   16.8387 O   0  0  0  0  0  0  0  0  0  0  0  0
    3.2707   16.6363   14.5792 C   0  0  2  0  0  0  0  0  0  0  0  0
    3.7697   16.7959   13.2453 O   0  0  0  0  0  0  0  0  0  0  0  0
    2.7898   17.9869   15.0284 C   0  0  0  0  0  0  0  0  0  0  0  0
    3.9252   18.7168   15.4951 O   0  0  0  0  0  0  0  0  0  0  0  0
   -0.7689   14.2358   10.6113 C   0  0  2  0  0  0  0  0  0  0  0  0
   -1.7877   14.2932    9.5858 N   0  0  0  0  0  0  0  0  0  0  0  0
   -0.0804   15.6459   10.7738 C   0  0  0  0  0  0  0  0  0  0  0  0
    1.0333   15.6091   11.8788 C   0  0  2  0  0  0  0  0  0  0  0  0
    1.6494   16.9294   11.9924 N   0  0  0  0  0  0  0  0  0  0  0  0
    2.1704   14.5393   11.5612 C   0  0  2  0  0  0  0  0  0  0  0  0
    1.4814   13.1492   11.4410 C   0  0  2  0  0  0  0  0  0  0  0  0
    2.6203   12.1994   11.1519 O   0  0  0  0  0  0  0  0  0  0  0  0
    0.3749   13.1754   10.2484 C   0  0  1  0  0  0  0  0  0  0  0  0
   -0.3793   11.9327   10.0784 O   0  0  0  0  0  0  0  0  0  0  0  0
    2.1589   10.9776   10.7379 C   0  0  1  0  0  0  0  0  0  0  0  0
    2.2623   10.7845    9.2876 C   0  0  2  0  0  0  0  0  0  0  0  0
    1.2866   11.5784    8.6921 O   0  0  0  0  0  0  0  0  0  0  0  0
    2.1763    9.2467    9.1835 C   0  0  2  0  0  0  0  0  0  0  0  0
    1.0034    8.9472    8.3934 O   0  0  0  0  0  0  0  0  0  0  0  0
    2.0521    8.7732   10.5942 C   0  0  2  0  0  0  0  0  0  0  0  0
    2.8525    9.8388   11.2202 O   0  0  0  0  0  0  0  0  0  0  0  0
    2.7429    7.3759   10.8052 C   0  0  0  0  0  0  0  0  0  0  0  0
    4.1667    7.3725   10.4861 O   0  0  0  0  0  0  0  0  0  0  0  0
    0.8976    7.5943    7.8552 C   0  0  2  0  0  0  0  0  0  0  0  0
   -0.3755    7.5359    6.8603 C   0  0  2  0  0  0  0  0  0  0  0  0
   -1.6092    7.9300    7.6149 N   0  0  0  0  0  0  0  0  0  0  0  0
   -0.4826    6.0448    6.2694 C   0  0  1  0  0  0  0  0  0  0  0  0
    0.7664    5.7659    5.5667 O   0  0  0  0  0  0  0  0  0  0  0  0
   -0.7105    5.0151    7.4661 C   0  0  2  0  0  0  0  0  0  0  0  0
   -1.9961    5.3526    8.1168 O   0  0  0  0  0  0  0  0  0  0  0  0
    0.5572    5.1327    8.4864 C   0  0  1  0  0  0  0  0  0  0  0  0
    0.6841    6.5542    8.9740 O   0  0  0  0  0  0  0  0  0  0  0  0
    0.3580    4.1462    9.6847 C   0  0  0  0  0  0  0  0  0  0  0  0
   -0.7211    4.5839   10.6234 N   0  0  0  0  0  0  0  0  0  0  0  0
  1  3  1  0  0  0  0
  1  2  1  1  0  0  0
  3  4  1  6  0  0  0
  3  5  1  0  0  0  0
  5  6  1  1  0  0  0
  7  8  1  1  0  0  0
  7  5  1  0  0  0  0
  9 11  1  1  0  0  0
  9  7  1  0  0  0  0
 10  9  1  0  0  0  0
 10  1  1  0  0  0  0
 12 11  1  0  0  0  0
 13 14  1  6  0  0  0
 15 13  1  0  0  0  0
 16 17  1  6  0  0  0
 16 15  1  0  0  0  0
 18  2  1  1  0  0  0
 18 19  1  0  0  0  0
 18 16  1  0  0  0  0
 19 20  1  6  0  0  0
 19 21  1  0  0  0  0
 21 22  1  1  0  0  0
 21 13  1  0  0  0  0
 23 20  1  6  0  0  0
 23 29  1  0  0  0  0
 24 25  1  6  0  0  0
 24 26  1  0  0  0  0
 24 23  1  0  0  0  0
 26 27  1  6  0  0  0
 26 28  1  0  0  0  0
 28 30  1  6  0  0  0
 29 28  1  0  0  0  0
 30 31  1  0  0  0  0
 32 27  1  1  0  0  0
 32 40  1  0  0  0  0
 33 35  1  0  0  0  0
 33 32  1  0  0  0  0
 33 34  1  1  0  0  0
 35 36  1  1  0  0  0
 35 37  1  0  0  0  0
 37 38  1  1  0  0  0
 37 39  1  0  0  0  0
 39 41  1  1  0  0  0
 40 39  1  0  0  0  0
 41 42  1  0  0  0  0
M  END
>  <CHROM.1>
-156.15324616,39.50900615,-84.28439569,-167.12243721,102.26827711,164.17907928
59.13000493,-172.84165985,-71.41747043,1.82740423,11.46434163,10.96393554
-1.18657135,0.69945530,-2.84931421

>  <Name>
lig.pdb

>  <RI>
0

>  <Rbt.Current_Directory>
/home/itssahil/PROJECTS/Mol_Feturizer/New_Systems/rnas/4wcr

>  <Rbt.Executable>
rbdock ($Id: //depot/dev/client3/rdock/2013.1/src/exe/rbdock.cxx#4 $)

>  <Rbt.Library>
libRbt.so (2013.1, Build901 2013/11/27)

>  <Rbt.Parameter_File>
/export/apps/rDock/src/rDock_2013.1_src/data/scripts/dock_solv.prm

>  <Rbt.Receptor>
prm/blind_docking_80.prm

>  <SCORE>
21.9844

>  <SCORE.INTER>
7.90161

>  <SCORE.INTER.CONST>
1

>  <SCORE.INTER.POLAR>
0

>  <SCORE.INTER.ROT>
9

>  <SCORE.INTER.SOLV>
26.6596

>  <SCORE.INTER.VDW>
-13.2188

>  <SCORE.INTER.norm>
0.188134

>  <SCORE.INTRA>
8.80819

>  <SCORE.INTRA.DIHEDRAL>
-1.03512

>  <SCORE.INTRA.DIHEDRAL.0>
16.2863

>  <SCORE.INTRA.POLAR>
0

>  <SCORE.INTRA.POLAR.0>
0

>  <SCORE.INTRA.REPUL>
-0.262437

>  <SCORE.INTRA.REPUL.0>
0.314433

>  <SCORE.INTRA.SOLV>
0.943666

>  <SCORE.INTRA.SOLV.lig_0>
-103.824

>  <SCORE.INTRA.VDW>
10.1661

>  <SCORE.INTRA.VDW.0>
-5.30945

>  <SCORE.INTRA.norm>
0.209719

>  <SCORE.RESTR>
5.27465

>  <SCORE.RESTR.CAVITY>
5.27465

>  <SCORE.RESTR.norm>
0.125587

>  <SCORE.SYSTEM>
0

>  <SCORE.SYSTEM.CONST>
0

>  <SCORE.SYSTEM.DIHEDRAL>
0

>  <SCORE.SYSTEM.SOLV>
0

>  <SCORE.SYSTEM.norm>
0

>  <SCORE.heavy>
42

>  <SCORE.norm>
0.523439

>  <RMSD>
26.527

$$$$
lig.pdb
 OpenBabel11021811513D
libRbt.so/2013.1/901 2013/11/27
 42 45  0  0  0  0  0  0  0  0999 V2000
    2.3907    9.1734   10.9367 C   0  0  2  0  0  0  0  0  0  0  0  0
    2.7988   10.4316   10.3142 O   0  0  0  0  0  0  0  0  0  0  0  0
    3.4701    8.0885   10.4918 C   0  0  2  0  0  0  0  0  0  0  0  0
    4.7979    8.4576   10.9902 N   0  0  0  0  0  0  0  0  0  0  0  0
    3.4384    7.9540    8.8916 C   0  0  1  0  0  0  0  0  0  0  0  0
    4.3919    6.9728    8.4325 O   0  0  0  0  0  0  0  0  0  0  0  0
    2.0009    7.5750    8.4958 C   0  0  2  0  0  0  0  0  0  0  0  0
    1.9354    7.4517    7.1159 O   0  0  0  0  0  0  0  0  0  0  0  0
    0.9820    8.6878    9.0173 C   0  0  2  0  0  0  0  0  0  0  0  0
    1.0430    8.8220   10.4427 O   0  0  0  0  0  0  0  0  0  0  0  0
   -0.4417    8.3547    8.6721 C   0  0  0  0  0  0  0  0  0  0  0  0
   -0.5527    8.3549    7.2482 O   0  0  0  0  0  0  0  0  0  0  0  0
    1.5346   14.6928   10.1832 C   0  0  2  0  0  0  0  0  0  0  0  0
    0.9167   15.9484   10.5501 N   0  0  0  0  0  0  0  0  0  0  0  0
    0.4514   13.5468   10.1357 C   0  0  0  0  0  0  0  0  0  0  0  0
    1.0979   12.1716    9.7437 C   0  0  2  0  0  0  0  0  0  0  0  0
    0.0647   11.1383    9.7181 N   0  0  0  0  0  0  0  0  0  0  0  0
    2.2424   11.7260   10.7586 C   0  0  2  0  0  0  0  0  0  0  0  0
    3.3206   12.8480   10.7662 C   0  0  2  0  0  0  0  0  0  0  0  0
    4.3644   12.3466   11.7366 O   0  0  0  0  0  0  0  0  0  0  0  0
    2.6574   14.2568   11.2384 C   0  0  1  0  0  0  0  0  0  0  0  0
    3.5692   15.4017   11.2309 O   0  0  0  0  0  0  0  0  0  0  0  0
    4.4217   13.1316   12.8582 C   0  0  1  0  0  0  0  0  0  0  0  0
    5.6337   13.9549   12.9232 C   0  0  2  0  0  0  0  0  0  0  0  0
    6.6969   13.1069   13.2187 O   0  0  0  0  0  0  0  0  0  0  0  0
    5.2055   15.0385   13.9359 C   0  0  2  0  0  0  0  0  0  0  0  0
    6.1071   14.9372   15.0613 O   0  0  0  0  0  0  0  0  0  0  0  0
    3.7987   14.6916   14.2967 C   0  0  2  0  0  0  0  0  0  0  0  0
    3.4097   14.1147   12.9991 O   0  0  0  0  0  0  0  0  0  0  0  0
    2.9404   15.9736   14.6036 C   0  0  0  0  0  0  0  0  0  0  0  0
    2.5929   16.7441   13.4141 O   0  0  0  0  0  0  0  0  0  0  0  0
    6.4657   16.1820   15.7342 C   0  0  2  0  0  0  0  0  0  0  0  0
    7.5885   15.8565   16.8512 C   0  0  2  0  0  0  0  0  0  0  0  0
    7.0470   14.8426   17.8133 N   0  0  0  0  0  0  0  0  0  0  0  0
    7.9803   17.2322   17.5845 C   0  0  1  0  0  0  0  0  0  0  0  0
    8.4845   18.1418   16.5597 O   0  0  0  0  0  0  0  0  0  0  0  0
    6.6910   17.8358   18.3040 C   0  0  2  0  0  0  0  0  0  0  0  0
    6.2504   16.8677   19.3329 O   0  0  0  0  0  0  0  0  0  0  0  0
    5.5520   18.1022   17.1667 C   0  0  1  0  0  0  0  0  0  0  0  0
    5.2499   16.8146   16.4418 O   0  0  0  0  0  0  0  0  0  0  0  0
    4.2636   18.6796   17.8413 C   0  0  0  0  0  0  0  0  0  0  0  0
    3.0622   18.6092   16.9530 N   0  0  0  0  0  0  0  0  0  0  0  0
  1  3  1  0  0  0  0
  1  2  1  6  0  0  0
  3  4  1  6  0  0  0
  3  5  1  0  0  0  0
  5  6  1  1  0  0  0
  7  8  1  6  0  0  0
  7  5  1  0  0  0  0
  9 11  1  1  0  0  0
  9  7  1  0  0  0  0
 10  9  1  0  0  0  0
 10  1  1  0  0  0  0
 12 11  1  0  0  0  0
 13 14  1  1  0  0  0
 15 13  1  0  0  0  0
 16 17  1  1  0  0  0
 16 15  1  0  0  0  0
 18  2  1  6  0  0  0
 18 19  1  0  0  0  0
 18 16  1  0  0  0  0
 19 20  1  1  0  0  0
 19 21  1  0  0  0  0
 21 22  1  6  0  0  0
 21 13  1  0  0  0  0
 23 20  1  6  0  0  0
 23 29  1  0  0  0  0
 24 25  1  1  0  0  0
 24 26  1  0  0  0  0
 24 23  1  0  0  0  0
 26 27  1  1  0  0  0
 26 28  1  0  0  0  0
 28 30  1  6  0  0  0
 29 28  1  0  0  0  0
 30 31  1  0  0  0  0
 32 27  1  1  0  0  0
 32 40  1  0  0  0  0
 33 35  1  0  0  0  0
 33 32  1  0  0  0  0
 33 34  1  1  0  0  0
 35 36  1  6  0  0  0
 35 37  1  0  0  0  0
 37 38  1  1  0  0  0
 37 39  1  0  0  0  0
 39 41  1  1  0  0  0
 40 39  1  0  0  0  0
 41 42  1  0  0  0  0
M  END
>  <CHROM.1>
-164.64028134,-63.83596178,-100.17384832,-113.32143968,-108.37761683,145.32943710
73.28514984,-174.24999474,-164.56692371,3.71677370,13.20857248,12.63152527
-2.00591457,-0.57779727,0.52088740

>  <Name>
lig.pdb

>  <RI>
0

>  <Rbt.Current_Directory>
/home/itssahil/PROJECTS/Mol_Feturizer/New_Systems/rnas/4wcr

>  <Rbt.Executable>
rbdock ($Id: //depot/dev/client3/rdock/2013.1/src/exe/rbdock.cxx#4 $)

>  <Rbt.Library>
libRbt.so (2013.1, Build901 2013/11/27)

>  <Rbt.Parameter_File>
/export/apps/rDock/src/rDock_2013.1_src/data/scripts/dock_solv.prm

>  <Rbt.Receptor>
prm/blind_docking_40.prm

>  <SCORE>
30.2439

>  <SCORE.INTER>
-4.15485

>  <SCORE.INTER.CONST>
1

>  <SCORE.INTER.POLAR>
0

>  <SCORE.INTER.ROT>
9

>  <SCORE.INTER.SOLV>
25.2429

>  <SCORE.INTER.VDW>
-20.7842

>  <SCORE.INTER.norm>
-0.0989251

>  <SCORE.INTRA>
28.012

>  <SCORE.INTRA.DIHEDRAL>
10.1048

>  <SCORE.INTRA.DIHEDRAL.0>
16.2863

>  <SCORE.INTRA.POLAR>
0

>  <SCORE.INTRA.POLAR.0>
0

>  <SCORE.INTRA.REPUL>
-0.314433

>  <SCORE.INTRA.REPUL.0>
0.314433

>  <SCORE.INTRA.SOLV>
2.24916

>  <SCORE.INTRA.SOLV.lig_0>
-103.824

>  <SCORE.INTRA.VDW>
23.4071

>  <SCORE.INTRA.VDW.0>
-5.30945

>  <SCORE.INTRA.norm>
0.666951

>  <SCORE.RESTR>
6.38679

>  <SCORE.RESTR.CAVITY>
6.38679

>  <SCORE.RESTR.norm>
0.152066

>  <SCORE.SYSTEM>
0

>  <SCORE.SYSTEM.CONST>
0

>  <SCORE.SYSTEM.DIHEDRAL>
0

>  <SCORE.SYSTEM.SOLV>
0

>  <SCORE.SYSTEM.norm>
0

>  <SCORE.heavy>
42

>  <SCORE.norm>
0.720093

>  <RMSD>
26.578

$$$$
lig.pdb
 OpenBabel11021811513D
libRbt.so/2013.1/901 2013/11/27
 42 45  0  0  0  0  0  0  0  0999 V2000
    3.4283    9.1781   11.0934 C   0  0  2  0  0  0  0  0  0  0  0  0
    3.2505   10.3899   10.2953 O   0  0  0  0  0  0  0  0  0  0  0  0
    4.4984    8.2888   10.3161 C   0  0  2  0  0  0  0  0  0  0  0  0
    5.7800    8.9943   10.2298 N   0  0  0  0  0  0  0  0  0  0  0  0
    3.9098    7.9203    8.8678 C   0  0  1  0  0  0  0  0  0  0  0  0
    4.8363    7.1032    8.1217 O   0  0  0  0  0  0  0  0  0  0  0  0
    2.5707    7.1972    9.0920 C   0  0  2  0  0  0  0  0  0  0  0  0
    2.0307    6.8644    7.8585 O   0  0  0  0  0  0  0  0  0  0  0  0
    1.5762    8.1371    9.9142 C   0  0  2  0  0  0  0  0  0  0  0  0
    2.1262    8.4861   11.1906 O   0  0  0  0  0  0  0  0  0  0  0  0
    0.2566    7.4687   10.1770 C   0  0  0  0  0  0  0  0  0  0  0  0
   -0.4255    7.3525    8.9276 O   0  0  0  0  0  0  0  0  0  0  0  0
    0.9022   14.1642   10.1791 C   0  0  2  0  0  0  0  0  0  0  0  0
   -0.1482   15.1297   10.4180 N   0  0  0  0  0  0  0  0  0  0  0  0
    0.2960   12.8389    9.5749 C   0  0  0  0  0  0  0  0  0  0  0  0
    1.4161   11.7723    9.3103 C   0  0  2  0  0  0  0  0  0  0  0  0
    0.8132   10.5605    8.7590 N   0  0  0  0  0  0  0  0  0  0  0  0
    2.2164   11.3892   10.6336 C   0  0  2  0  0  0  0  0  0  0  0  0
    2.8393   12.6995   11.1966 C   0  0  2  0  0  0  0  0  0  0  0  0
    3.5820   12.2503   12.4333 O   0  0  0  0  0  0  0  0  0  0  0  0
    1.6665   13.7764   11.5318 C   0  0  1  0  0  0  0  0  0  0  0  0
    2.1396   15.0732   12.0183 O   0  0  0  0  0  0  0  0  0  0  0  0
    4.0554   13.3194   13.1476 C   0  0  1  0  0  0  0  0  0  0  0  0
    5.4732   13.5976   12.8955 C   0  0  2  0  0  0  0  0  0  0  0  0
    6.2108   12.5972   13.5214 O   0  0  0  0  0  0  0  0  0  0  0  0
    5.5829   15.0582   13.3833 C   0  0  2  0  0  0  0  0  0  0  0  0
    6.5380   15.0648   14.4683 O   0  0  0  0  0  0  0  0  0  0  0  0
    4.2046   15.4171   13.8319 C   0  0  2  0  0  0  0  0  0  0  0  0
    3.4705   14.5805   12.8681 O   0  0  0  0  0  0  0  0  0  0  0  0
    3.8874   16.9382   13.5872 C   0  0  0  0  0  0  0  0  0  0  0  0
    2.6068   17.3657   14.1408 O   0  0  0  0  0  0  0  0  0  0  0  0
    6.6051   16.2752   15.2815 C   0  0  2  0  0  0  0  0  0  0  0  0
    7.8249   16.1211   16.3316 C   0  0  2  0  0  0  0  0  0  0  0  0
    7.6002   14.9006   17.1722 N   0  0  0  0  0  0  0  0  0  0  0  0
    7.8942   17.4589   17.2200 C   0  0  1  0  0  0  0  0  0  0  0  0
    8.1060   18.5768   16.3052 O   0  0  0  0  0  0  0  0  0  0  0  0
    6.5302   17.6296   18.0293 C   0  0  2  0  0  0  0  0  0  0  0  0
    6.3947   16.4710   18.9401 O   0  0  0  0  0  0  0  0  0  0  0  0
    5.3085   17.7251   16.9522 C   0  0  1  0  0  0  0  0  0  0  0  0
    5.3044   16.4938   16.0812 O   0  0  0  0  0  0  0  0  0  0  0  0
    3.9498   17.8760   17.7136 C   0  0  0  0  0  0  0  0  0  0  0  0
    3.8058   19.2044   18.3859 N   0  0  0  0  0  0  0  0  0  0  0  0
  1  3  1  0  0  0  0
  1  2  1  6  0  0  0
  3  4  1  6  0  0  0
  3  5  1  0  0  0  0
  5  6  1  1  0  0  0
  7  8  1  6  0  0  0
  7  5  1  0  0  0  0
  9 11  1  1  0  0  0
  9  7  1  0  0  0  0
 10  9  1  0  0  0  0
 10  1  1  0  0  0  0
 12 11  1  0  0  0  0
 13 14  1  1  0  0  0
 15 13  1  0  0  0  0
 16 17  1  1  0  0  0
 16 15  1  0  0  0  0
 18  2  1  6  0  0  0
 18 19  1  0  0  0  0
 18 16  1  0  0  0  0
 19 20  1  1  0  0  0
 19 21  1  0  0  0  0
 21 22  1  6  0  0  0
 21 13  1  0  0  0  0
 23 20  1  6  0  0  0
 23 29  1  0  0  0  0
 24 25  1  1  0  0  0
 24 26  1  0  0  0  0
 24 23  1  0  0  0  0
 26 27  1  1  0  0  0
 26 28  1  0  0  0  0
 28 30  1  6  0  0  0
 29 28  1  0  0  0  0
 30 31  1  0  0  0  0
 32 27  1  1  0  0  0
 32 40  1  0  0  0  0
 33 35  1  0  0  0  0
 33 32  1  0  0  0  0
 33 34  1  1  0  0  0
 35 36  1  6  0  0  0
 35 37  1  0  0  0  0
 37 38  1  1  0  0  0
 37 39  1  0  0  0  0
 39 41  1  1  0  0  0
 40 39  1  0  0  0  0
 41 42  1  0  0  0  0
M  END
>  <CHROM.1>
173.25969590,-69.14947892,-132.44386677,-172.40838241,-99.07117306,-167.38106660
-173.77250872,-174.56036208,69.62543189,3.83007886,13.07566229,12.67783262
-1.94525314,-0.49084373,0.52527245

>  <Name>
lig.pdb

>  <RI>
0

>  <Rbt.Current_Directory>
/home/itssahil/PROJECTS/Mol_Feturizer/New_Systems/rnas/4wcr

>  <Rbt.Executable>
rbdock ($Id: //depot/dev/client3/rdock/2013.1/src/exe/rbdock.cxx#4 $)

>  <Rbt.Library>
libRbt.so (2013.1, Build901 2013/11/27)

>  <Rbt.Parameter_File>
/export/apps/rDock/src/rDock_2013.1_src/data/scripts/dock_solv.prm

>  <Rbt.Receptor>
prm/blind_docking_40.prm

>  <SCORE>
24.8176

>  <SCORE.INTER>
-4.80255

>  <SCORE.INTER.CONST>
1

>  <SCORE.INTER.POLAR>
0

>  <SCORE.INTER.ROT>
9

>  <SCORE.INTER.SOLV>
28.3559

>  <SCORE.INTER.VDW>
-22.2537

>  <SCORE.INTER.norm>
-0.114347

>  <SCORE.INTRA>
21.0498

>  <SCORE.INTRA.DIHEDRAL>
-1.99201

>  <SCORE.INTRA.DIHEDRAL.0>
16.2863

>  <SCORE.INTRA.POLAR>
0

>  <SCORE.INTRA.POLAR.0>
0

>  <SCORE.INTRA.REPUL>
-0.314433

>  <SCORE.INTRA.REPUL.0>
0.314433

>  <SCORE.INTRA.SOLV>
-0.470398

>  <SCORE.INTRA.SOLV.lig_0>
-103.824

>  <SCORE.INTRA.VDW>
23.8532

>  <SCORE.INTRA.VDW.0>
-5.30945

>  <SCORE.INTRA.norm>
0.501185

>  <SCORE.RESTR>
8.57034

>  <SCORE.RESTR.CAVITY>
8.57034

>  <SCORE.RESTR.norm>
0.204056

>  <SCORE.SYSTEM>
0

>  <SCORE.SYSTEM.CONST>
0

>  <SCORE.SYSTEM.DIHEDRAL>
0

>  <SCORE.SYSTEM.SOLV>
0

>  <SCORE.SYSTEM.norm>
0

>  <SCORE.heavy>
42

>  <SCORE.norm>
0.590894

>  <RMSD>
26.578

$$$$
lig.pdb
 OpenBabel11021811513D
libRbt.so/2013.1/901 2013/11/27
 42 45  0  0  0  0  0  0  0  0999 V2000
    4.0704   15.5203   12.2807 C   0  0  2  0  0  0  0  0  0  0  0  0
    2.8448   14.7233   12.2829 O   0  0  0  0  0  0  0  0  0  0  0  0
    5.1235   14.7159   13.1661 C   0  0  2  0  0  0  0  0  0  0  0  0
    5.4036   13.4101   12.5626 N   0  0  0  0  0  0  0  0  0  0  0  0
    4.5484   14.5833   14.6599 C   0  0  1  0  0  0  0  0  0  0  0  0
    5.4701   13.8704   15.5113 O   0  0  0  0  0  0  0  0  0  0  0  0
    4.2888   16.0093   15.1751 C   0  0  2  0  0  0  0  0  0  0  0  0
    3.7880   15.9334   16.4663 O   0  0  0  0  0  0  0  0  0  0  0  0
    3.2618   16.7580   14.2090 C   0  0  2  0  0  0  0  0  0  0  0  0
    3.7713   16.8410   12.8722 O   0  0  0  0  0  0  0  0  0  0  0  0
    2.9883   18.1652   14.6587 C   0  0  0  0  0  0  0  0  0  0  0  0
    2.6101   18.1134   16.0349 O   0  0  0  0  0  0  0  0  0  0  0  0
   -1.0266   14.3608   10.1258 C   0  0  2  0  0  0  0  0  0  0  0  0
   -2.0622   14.5472    9.1330 N   0  0  0  0  0  0  0  0  0  0  0  0
   -0.5779   15.7548   10.7123 C   0  0  0  0  0  0  0  0  0  0  0  0
    0.5494   15.5802   11.7898 C   0  0  2  0  0  0  0  0  0  0  0  0
    0.9407   16.8921   12.3014 N   0  0  0  0  0  0  0  0  0  0  0  0
    1.8411   14.8523   11.2067 C   0  0  2  0  0  0  0  0  0  0  0  0
    1.3895   13.4646   10.6664 C   0  0  2  0  0  0  0  0  0  0  0  0
    2.6636   12.8417   10.1455 O   0  0  0  0  0  0  0  0  0  0  0  0
    0.2691   13.6561    9.5022 C   0  0  1  0  0  0  0  0  0  0  0  0
   -0.2723   12.4110    8.9555 O   0  0  0  0  0  0  0  0  0  0  0  0
    2.8659   11.5966   10.6804 C   0  0  1  0  0  0  0  0  0  0  0  0
    2.2016   10.5302    9.9236 C   0  0  2  0  0  0  0  0  0  0  0  0
    0.8360   10.6340   10.1707 O   0  0  0  0  0  0  0  0  0  0  0  0
    2.9819    9.2892   10.4073 C   0  0  2  0  0  0  0  0  0  0  0  0
    2.0232    8.4171   11.0475 O   0  0  0  0  0  0  0  0  0  0  0  0
    3.9972    9.8232   11.3633 C   0  0  2  0  0  0  0  0  0  0  0  0
    4.2031   11.1259   10.7088 O   0  0  0  0  0  0  0  0  0  0  0  0
    5.3261    8.9821   11.3355 C   0  0  0  0  0  0  0  0  0  0  0  0
    6.0454    9.0654   10.0686 O   0  0  0  0  0  0  0  0  0  0  0  0
    1.1153    7.6795   10.1741 C   0  0  2  0  0  0  0  0  0  0  0  0
    1.9310    6.4560    9.5019 C   0  0  2  0  0  0  0  0  0  0  0  0
    3.1048    7.0022    8.7466 N   0  0  0  0  0  0  0  0  0  0  0  0
    0.9237    5.6472    8.5452 C   0  0  1  0  0  0  0  0  0  0  0  0
   -0.1770    5.1709    9.3777 O   0  0  0  0  0  0  0  0  0  0  0  0
    0.3950    6.6147    7.3925 C   0  0  2  0  0  0  0  0  0  0  0  0
    1.5612    7.0418    6.5878 O   0  0  0  0  0  0  0  0  0  0  0  0
   -0.3738    7.8704    8.0956 C   0  0  1  0  0  0  0  0  0  0  0  0
    0.5662    8.5729    9.0430 O   0  0  0  0  0  0  0  0  0  0  0  0
   -0.8918    8.8514    6.9920 C   0  0  0  0  0  0  0  0  0  0  0  0
   -1.6566    8.1565    5.9105 N   0  0  0  0  0  0  0  0  0  0  0  0
  1  3  1  0  0  0  0
  1  2  1  1  0  0  0
  3  4  1  6  0  0  0
  3  5  1  0  0  0  0
  5  6  1  1  0  0  0
  7  8  1  1  0  0  0
  7  5  1  0  0  0  0
  9 11  1  1  0  0  0
  9  7  1  0  0  0  0
 10  9  1  0  0  0  0
 10  1  1  0  0  0  0
 12 11  1  0  0  0  0
 13 14  1  6  0  0  0
 15 13  1  0  0  0  0
 16 17  1  6  0  0  0
 16 15  1  0  0  0  0
 18  2  1  1  0  0  0
 18 19  1  0  0  0  0
 18 16  1  0  0  0  0
 19 20  1  6  0  0  0
 19 21  1  0  0  0  0
 21 22  1  1  0  0  0
 21 13  1  0  0  0  0
 23 20  1  6  0  0  0
 23 29  1  0  0  0  0
 24 25  1  1  0  0  0
 24 26  1  0  0  0  0
 24 23  1  0  0  0  0
 26 27  1  1  0  0  0
 26 28  1  0  0  0  0
 28 30  1  6  0  0  0
 29 28  1  0  0  0  0
 30 31  1  0  0  0  0
 32 27  1  1  0  0  0
 32 40  1  0  0  0  0
 33 35  1  0  0  0  0
 33 32  1  0  0  0  0
 33 34  1  6  0  0  0
 35 36  1  1  0  0  0
 35 37  1  0  0  0  0
 37 38  1  1  0  0  0
 37 39  1  0  0  0  0
 39 41  1  6  0  0  0
 40 39  1  0  0  0  0
 41 42  1  0  0  0  0
M  END
>  <CHROM.1>
-156.67466978,-52.04357609,-108.95990474,126.99403443,86.82850641,74.64389112
65.73388978,75.92169313,50.02948089,2.13650749,11.93641598,10.98242198,-1.30437435
0.58421028,-2.72293868

>  <Name>
lig.pdb

>  <RI>
0

>  <Rbt.Current_Directory>
/home/itssahil/PROJECTS/Mol_Feturizer/New_Systems/rnas/4wcr

>  <Rbt.Executable>
rbdock ($Id: //depot/dev/client3/rdock/2013.1/src/exe/rbdock.cxx#4 $)

>  <Rbt.Library>
libRbt.so (2013.1, Build901 2013/11/27)

>  <Rbt.Parameter_File>
/export/apps/rDock/src/rDock_2013.1_src/data/scripts/dock_solv.prm

>  <Rbt.Receptor>
prm/blind_docking_80.prm

>  <SCORE>
-3.15037

>  <SCORE.INTER>
-16.4632

>  <SCORE.INTER.CONST>
1

>  <SCORE.INTER.POLAR>
0

>  <SCORE.INTER.ROT>
9

>  <SCORE.INTER.SOLV>
28.2485

>  <SCORE.INTER.VDW>
-29.9916

>  <SCORE.INTER.norm>
-0.391981

>  <SCORE.INTRA>
8.35055

>  <SCORE.INTRA.DIHEDRAL>
5.99143

>  <SCORE.INTRA.DIHEDRAL.0>
16.2863

>  <SCORE.INTRA.POLAR>
0

>  <SCORE.INTRA.POLAR.0>
0

>  <SCORE.INTRA.REPUL>
0.0183391

>  <SCORE.INTRA.REPUL.0>
0.314433

>  <SCORE.INTRA.SOLV>
3.5207

>  <SCORE.INTRA.SOLV.lig_0>
-103.824

>  <SCORE.INTRA.VDW>
3.50279

>  <SCORE.INTRA.VDW.0>
-5.30945

>  <SCORE.INTRA.norm>
0.198823

>  <SCORE.RESTR>
4.96229

>  <SCORE.RESTR.CAVITY>
4.96229

>  <SCORE.RESTR.norm>
0.11815

>  <SCORE.SYSTEM>
0

>  <SCORE.SYSTEM.CONST>
0

>  <SCORE.SYSTEM.DIHEDRAL>
0

>  <SCORE.SYSTEM.SOLV>
0

>  <SCORE.SYSTEM.norm>
0

>  <SCORE.heavy>
42

>  <SCORE.norm>
-0.0750089

>  <RMSD>
26.583

$$$$
lig.pdb
 OpenBabel11021811513D
libRbt.so/2013.1/901 2013/11/27
 42 45  0  0  0  0  0  0  0  0999 V2000
    2.7611    9.6502    9.4333 C   0  0  2  0  0  0  0  0  0  0  0  0
    1.5891    9.7442   10.3019 O   0  0  0  0  0  0  0  0  0  0  0  0
    2.8491    8.1275    8.9711 C   0  0  2  0  0  0  0  0  0  0  0  0
    1.6566    7.7591    8.2032 N   0  0  0  0  0  0  0  0  0  0  0  0
    3.0436    7.2035   10.2704 C   0  0  1  0  0  0  0  0  0  0  0  0
    3.1410    5.8099    9.9085 O   0  0  0  0  0  0  0  0  0  0  0  0
    4.3128    7.6918   10.9895 C   0  0  2  0  0  0  0  0  0  0  0  0
    4.5118    6.9153   12.1214 O   0  0  0  0  0  0  0  0  0  0  0  0
    4.1599    9.2332   11.3759 C   0  0  2  0  0  0  0  0  0  0  0  0
    3.9539   10.0434   10.2120 O   0  0  0  0  0  0  0  0  0  0  0  0
    5.3838    9.7656   12.0657 C   0  0  0  0  0  0  0  0  0  0  0  0
    6.3767    9.9983   11.0659 O   0  0  0  0  0  0  0  0  0  0  0  0
   -1.0778   13.0272    8.9299 C   0  0  2  0  0  0  0  0  0  0  0  0
   -1.9692   14.1664    8.9546 N   0  0  0  0  0  0  0  0  0  0  0  0
   -1.6546   11.8654    9.8279 C   0  0  0  0  0  0  0  0  0  0  0  0
   -0.7026   10.6180    9.8215 C   0  0  2  0  0  0  0  0  0  0  0  0
   -1.2684    9.5702   10.6687 N   0  0  0  0  0  0  0  0  0  0  0  0
    0.7606   10.9664   10.3468 C   0  0  2  0  0  0  0  0  0  0  0  0
    1.3303   12.0865    9.4289 C   0  0  2  0  0  0  0  0  0  0  0  0
    2.7108   12.3485    9.9842 O   0  0  0  0  0  0  0  0  0  0  0  0
    0.3740   13.4013    9.4927 C   0  0  1  0  0  0  0  0  0  0  0  0
    0.7828   14.5050    8.6227 O   0  0  0  0  0  0  0  0  0  0  0  0
    2.6583   13.1439   11.0986 C   0  0  1  0  0  0  0  0  0  0  0  0
    3.9841   13.4880   11.6231 C   0  0  2  0  0  0  0  0  0  0  0  0
    4.5051   12.3436   12.2193 O   0  0  0  0  0  0  0  0  0  0  0  0
    3.6531   14.7255   12.4847 C   0  0  2  0  0  0  0  0  0  0  0  0
    4.0171   14.3963   13.8444 O   0  0  0  0  0  0  0  0  0  0  0  0
    2.1828   14.9262   12.3186 C   0  0  2  0  0  0  0  0  0  0  0  0
    2.0812   14.4289   10.9365 O   0  0  0  0  0  0  0  0  0  0  0  0
    1.7893   16.4479   12.3816 C   0  0  0  0  0  0  0  0  0  0  0  0
    2.0011   17.0536   13.6921 O   0  0  0  0  0  0  0  0  0  0  0  0
    4.7956   15.3893   14.5783 C   0  0  2  0  0  0  0  0  0  0  0  0
    5.7973   14.6151   15.5841 C   0  0  2  0  0  0  0  0  0  0  0  0
    4.9956   13.7473   16.5066 N   0  0  0  0  0  0  0  0  0  0  0  0
    6.6530   15.7150   16.3852 C   0  0  1  0  0  0  0  0  0  0  0  0
    7.3823   16.5026   15.3955 O   0  0  0  0  0  0  0  0  0  0  0  0
    5.6682   16.6349   17.2386 C   0  0  2  0  0  0  0  0  0  0  0  0
    4.9797   15.7712   18.2236 O   0  0  0  0  0  0  0  0  0  0  0  0
    4.6308   17.3607   16.2096 C   0  0  1  0  0  0  0  0  0  0  0  0
    3.8891   16.3138   15.4167 O   0  0  0  0  0  0  0  0  0  0  0  0
    3.6362   18.2598   17.0163 C   0  0  0  0  0  0  0  0  0  0  0  0
    4.3278   19.3208   17.8120 N   0  0  0  0  0  0  0  0  0  0  0  0
  1  3  1  0  0  0  0
  1  2  1  1  0  0  0
  3  4  1  1  0  0  0
  3  5  1  0  0  0  0
  5  6  1  6  0  0  0
  7  8  1  1  0  0  0
  7  5  1  0  0  0  0
  9 11  1  6  0  0  0
  9  7  1  0  0  0  0
 10  9  1  0  0  0  0
 10  1  1  0  0  0  0
 12 11  1  0  0  0  0
 13 14  1  1  0  0  0
 15 13  1  0  0  0  0
 16 17  1  1  0  0  0
 16 15  1  0  0  0  0
 18  2  1  6  0  0  0
 18 19  1  0  0  0  0
 18 16  1  0  0  0  0
 19 20  1  1  0  0  0
 19 21  1  0  0  0  0
 21 22  1  6  0  0  0
 21 13  1  0  0  0  0
 23 20  1  6  0  0  0
 23 29  1  0  0  0  0
 24 25  1  1  0  0  0
 24 26  1  0  0  0  0
 24 23  1  0  0  0  0
 26 27  1  1  0  0  0
 26 28  1  0  0  0  0
 28 30  1  6  0  0  0
 29 28  1  0  0  0  0
 30 31  1  0  0  0  0
 32 27  1  1  0  0  0
 32 40  1  0  0  0  0
 33 35  1  0  0  0  0
 33 32  1  0  0  0  0
 33 34  1  1  0  0  0
 35 36  1  6  0  0  0
 35 37  1  0  0  0  0
 37 38  1  1  0  0  0
 37 39  1  0  0  0  0
 39 41  1  1  0  0  0
 40 39  1  0  0  0  0
 41 42  1  0  0  0  0
M  END
>  <CHROM.1>
-146.71723421,77.42853074,116.27614116,-79.51694079,-176.58709988,132.87861092
-66.70742257,-146.66104310,59.27123583,3.04692397,12.73962957,12.20226448
-1.93411157,-0.65106752,0.48156513

>  <Name>
lig.pdb

>  <RI>
0

>  <Rbt.Current_Directory>
/home/itssahil/PROJECTS/Mol_Feturizer/New_Systems/rnas/4wcr

>  <Rbt.Executable>
rbdock ($Id: //depot/dev/client3/rdock/2013.1/src/exe/rbdock.cxx#4 $)

>  <Rbt.Library>
libRbt.so (2013.1, Build901 2013/11/27)

>  <Rbt.Parameter_File>
/export/apps/rDock/src/rDock_2013.1_src/data/scripts/dock_solv.prm

>  <Rbt.Receptor>
prm/blind_docking_40.prm

>  <SCORE>
4.4075

>  <SCORE.INTER>
-15.6194

>  <SCORE.INTER.CONST>
1

>  <SCORE.INTER.POLAR>
0

>  <SCORE.INTER.ROT>
9

>  <SCORE.INTER.SOLV>
27.6532

>  <SCORE.INTER.VDW>
-29.2307

>  <SCORE.INTER.norm>
-0.371891

>  <SCORE.INTRA>
7.71681

>  <SCORE.INTRA.DIHEDRAL>
9.03284

>  <SCORE.INTRA.DIHEDRAL.0>
16.2863

>  <SCORE.INTRA.POLAR>
0

>  <SCORE.INTRA.POLAR.0>
0

>  <SCORE.INTRA.REPUL>
-0.251823

>  <SCORE.INTRA.REPUL.0>
0.314433

>  <SCORE.INTRA.SOLV>
-2.89032

>  <SCORE.INTRA.SOLV.lig_0>
-103.824

>  <SCORE.INTRA.VDW>
5.90467

>  <SCORE.INTRA.VDW.0>
-5.30945

>  <SCORE.INTRA.norm>
0.183734

>  <SCORE.RESTR>
12.3101

>  <SCORE.RESTR.CAVITY>
12.3101

>  <SCORE.RESTR.norm>
0.293098

>  <SCORE.SYSTEM>
0

>  <SCORE.SYSTEM.CONST>
0

>  <SCORE.SYSTEM.DIHEDRAL>
0

>  <SCORE.SYSTEM.SOLV>
0

>  <SCORE.SYSTEM.norm>
0

>  <SCORE.heavy>
42

>  <SCORE.norm>
0.10494

>  <RMSD>
26.639

$$$$
lig.pdb
 OpenBabel11021811513D
libRbt.so/2013.1/901 2013/11/27
 42 45  0  0  0  0  0  0  0  0999 V2000
    1.4413   10.5577    9.0782 C   0  0  2  0  0  0  0  0  0  0  0  0
    1.8039   11.0104   10.4202 O   0  0  0  0  0  0  0  0  0  0  0  0
   -0.1317   10.7772    8.9465 C   0  0  2  0  0  0  0  0  0  0  0  0
   -0.4594   12.1999    9.0738 N   0  0  0  0  0  0  0  0  0  0  0  0
   -0.8730    9.8821   10.0552 C   0  0  1  0  0  0  0  0  0  0  0  0
   -2.3058   10.0339    9.9741 O   0  0  0  0  0  0  0  0  0  0  0  0
   -0.4440    8.4232    9.8226 C   0  0  2  0  0  0  0  0  0  0  0  0
   -1.0656    7.6191   10.7664 O   0  0  0  0  0  0  0  0  0  0  0  0
    1.1442    8.3003    9.9267 C   0  0  2  0  0  0  0  0  0  0  0  0
    1.7949    9.1282    8.9548 O   0  0  0  0  0  0  0  0  0  0  0  0
    1.6177    6.8946    9.6879 C   0  0  0  0  0  0  0  0  0  0  0  0
    1.1992    6.5145    8.3764 O   0  0  0  0  0  0  0  0  0  0  0  0
    5.4540   11.3396   12.9382 C   0  0  2  0  0  0  0  0  0  0  0  0
    6.8403   11.4856   13.3256 N   0  0  0  0  0  0  0  0  0  0  0  0
    5.2936   10.1322   11.9356 C   0  0  0  0  0  0  0  0  0  0  0  0
    3.7976    9.9552   11.4962 C   0  0  2  0  0  0  0  0  0  0  0  0
    3.6938    8.8339   10.5646 N   0  0  0  0  0  0  0  0  0  0  0  0
    3.2111   11.2596   10.7942 C   0  0  2  0  0  0  0  0  0  0  0  0
    3.3419   12.4327   11.8083 C   0  0  2  0  0  0  0  0  0  0  0  0
    2.7596   13.6181   11.0745 O   0  0  0  0  0  0  0  0  0  0  0  0
    4.9036   12.6541   12.2080 C   0  0  1  0  0  0  0  0  0  0  0  0
    5.1440   13.7005   13.2027 O   0  0  0  0  0  0  0  0  0  0  0  0
    2.5144   14.6622   11.9273 C   0  0  1  0  0  0  0  0  0  0  0  0
    3.2931   15.8628   11.6060 C   0  0  2  0  0  0  0  0  0  0  0  0
    4.6125   15.6125   11.9712 O   0  0  0  0  0  0  0  0  0  0  0  0
    2.4815   16.9514   12.3405 C   0  0  2  0  0  0  0  0  0  0  0  0
    3.3660   17.5414   13.3199 O   0  0  0  0  0  0  0  0  0  0  0  0
    1.3397   16.2211   12.9670 C   0  0  2  0  0  0  0  0  0  0  0  0
    1.1947   15.1806   11.9354 O   0  0  0  0  0  0  0  0  0  0  0  0
    0.0430   17.1091   13.0330 C   0  0  0  0  0  0  0  0  0  0  0  0
   -0.4511   17.5220   11.7236 O   0  0  0  0  0  0  0  0  0  0  0  0
    3.8196   16.6771   14.4054 C   0  0  2  0  0  0  0  0  0  0  0  0
    3.4008   17.3566   15.8115 C   0  0  2  0  0  0  0  0  0  0  0  0
    4.0106   18.7230   15.8994 N   0  0  0  0  0  0  0  0  0  0  0  0
    3.9003   16.3974   17.0007 C   0  0  1  0  0  0  0  0  0  0  0  0
    3.2550   15.1013   16.8128 O   0  0  0  0  0  0  0  0  0  0  0  0
    5.4886   16.2621   16.9416 C   0  0  2  0  0  0  0  0  0  0  0  0
    6.0670   17.6078   17.1532 O   0  0  0  0  0  0  0  0  0  0  0  0
    5.8913   15.6286   15.4930 C   0  0  1  0  0  0  0  0  0  0  0  0
    5.3523   16.5048   14.3901 O   0  0  0  0  0  0  0  0  0  0  0  0
    7.4474   15.4977   15.3932 C   0  0  0  0  0  0  0  0  0  0  0  0
    8.0558   14.8684   16.6062 N   0  0  0  0  0  0  0  0  0  0  0  0
  1  3  1  0  0  0  0
  1  2  1  1  0  0  0
  3  4  1  1  0  0  0
  3  5  1  0  0  0  0
  5  6  1  6  0  0  0
  7  8  1  1  0  0  0
  7  5  1  0  0  0  0
  9 11  1  6  0  0  0
  9  7  1  0  0  0  0
 10  9  1  0  0  0  0
 10  1  1  0  0  0  0
 12 11  1  0  0  0  0
 13 14  1  6  0  0  0
 15 13  1  0  0  0  0
 16 17  1  6  0  0  0
 16 15  1  0  0  0  0
 18  2  1  1  0  0  0
 18 19  1  0  0  0  0
 18 16  1  0  0  0  0
 19 20  1  6  0  0  0
 19 21  1  0  0  0  0
 21 22  1  1  0  0  0
 21 13  1  0  0  0  0
 23 20  1  6  0  0  0
 23 29  1  0  0  0  0
 24 25  1  1  0  0  0
 24 26  1  0  0  0  0
 24 23  1  0  0  0  0
 26 27  1  1  0  0  0
 26 28  1  0  0  0  0
 28 30  1  6  0  0  0
 29 28  1  0  0  0  0
 30 31  1  0  0  0  0
 32 27  1  6  0  0  0
 32 40  1  0  0  0  0
 33 35  1  0  0  0  0
 33 32  1  0  0  0  0
 33 34  1  1  0  0  0
 35 36  1  6  0  0  0
 35 37  1  0  0  0  0
 37 38  1  6  0  0  0
 37 39  1  0  0  0  0
 39 41  1  1  0  0  0
 40 39  1  0  0  0  0
 41 42  1  0  0  0  0
M  END
>  <CHROM.1>
-165.29643984,59.79318338,-95.21199800,165.99801430,117.91144715,-65.25215089
61.53638812,-122.84128372,47.56760714,2.90953281,13.19646347,12.39679232
2.02077244,0.48222275,-2.73255810

>  <Name>
lig.pdb

>  <RI>
0

>  <Rbt.Current_Directory>
/home/itssahil/PROJECTS/Mol_Feturizer/New_Systems/rnas/4wcr

>  <Rbt.Executable>
rbdock ($Id: //depot/dev/client3/rdock/2013.1/src/exe/rbdock.cxx#4 $)

>  <Rbt.Library>
libRbt.so (2013.1, Build901 2013/11/27)

>  <Rbt.Parameter_File>
/export/apps/rDock/src/rDock_2013.1_src/data/scripts/dock_solv.prm

>  <Rbt.Receptor>
prm/blind_docking_80.prm

>  <SCORE>
-1.32745

>  <SCORE.INTER>
-12.1288

>  <SCORE.INTER.CONST>
1

>  <SCORE.INTER.POLAR>
0

>  <SCORE.INTER.ROT>
9

>  <SCORE.INTER.SOLV>
29.1765

>  <SCORE.INTER.VDW>
-27.4114

>  <SCORE.INTER.norm>
-0.288781

>  <SCORE.INTRA>
5.34743

>  <SCORE.INTRA.DIHEDRAL>
5.71332

>  <SCORE.INTRA.DIHEDRAL.0>
16.2863

>  <SCORE.INTRA.POLAR>
0

>  <SCORE.INTRA.POLAR.0>
0

>  <SCORE.INTRA.REPUL>
-0.314433

>  <SCORE.INTRA.REPUL.0>
0.314433

>  <SCORE.INTRA.SOLV>
0.786309

>  <SCORE.INTRA.SOLV.lig_0>
-103.824

>  <SCORE.INTRA.VDW>
3.66978

>  <SCORE.INTRA.VDW.0>
-5.30945

>  <SCORE.INTRA.norm>
0.12732

>  <SCORE.RESTR>
5.45395

>  <SCORE.RESTR.CAVITY>
5.45395

>  <SCORE.RESTR.norm>
0.129856

>  <SCORE.SYSTEM>
0

>  <SCORE.SYSTEM.CONST>
0

>  <SCORE.SYSTEM.DIHEDRAL>
0

>  <SCORE.SYSTEM.SOLV>
0

>  <SCORE.SYSTEM.norm>
0

>  <SCORE.heavy>
42

>  <SCORE.norm>
-0.0316059

>  <RMSD>
26.643

$$$$
lig.pdb
 OpenBabel11021811513D
libRbt.so/2013.1/901 2013/11/27
 42 45  0  0  0  0  0  0  0  0999 V2000
    4.8097   15.3892   12.8910 C   0  0  2  0  0  0  0  0  0  0  0  0
    3.7041   14.4829   12.5852 O   0  0  0  0  0  0  0  0  0  0  0  0
    5.7254   14.6291   13.9511 C   0  0  2  0  0  0  0  0  0  0  0  0
    6.2661   13.3987   13.3668 N   0  0  0  0  0  0  0  0  0  0  0  0
    4.8580   14.3434   15.2724 C   0  0  1  0  0  0  0  0  0  0  0  0
    5.6438   13.6642   16.2743 O   0  0  0  0  0  0  0  0  0  0  0  0
    4.3435   15.7011   15.7807 C   0  0  2  0  0  0  0  0  0  0  0  0
    3.5862   15.4923   16.9237 O   0  0  0  0  0  0  0  0  0  0  0  0
    3.4766   16.4137   14.6453 C   0  0  2  0  0  0  0  0  0  0  0  0
    4.2515   16.6335   13.4601 O   0  0  0  0  0  0  0  0  0  0  0  0
    2.9648   17.7558   15.0858 C   0  0  0  0  0  0  0  0  0  0  0  0
    4.0486   18.4496   15.7053 O   0  0  0  0  0  0  0  0  0  0  0  0
    0.2520   15.1558    9.8644 C   0  0  2  0  0  0  0  0  0  0  0  0
   -0.5175   15.3750    8.6591 N   0  0  0  0  0  0  0  0  0  0  0  0
    1.3754   16.2551   10.0002 C   0  0  0  0  0  0  0  0  0  0  0  0
    2.2282   16.0366   11.2992 C   0  0  2  0  0  0  0  0  0  0  0  0
    3.2593   17.0689   11.3833 N   0  0  0  0  0  0  0  0  0  0  0  0
    2.9312   14.6073   11.3324 C   0  0  2  0  0  0  0  0  0  0  0  0
    1.8085   13.5340   11.2355 C   0  0  2  0  0  0  0  0  0  0  0  0
    2.5526   12.2200   11.2834 O   0  0  0  0  0  0  0  0  0  0  0  0
    0.9710   13.7250    9.8536 C   0  0  1  0  0  0  0  0  0  0  0  0
   -0.1509   12.8013    9.6789 O   0  0  0  0  0  0  0  0  0  0  0  0
    1.9953   11.2992   10.4356 C   0  0  1  0  0  0  0  0  0  0  0  0
    2.6974   10.0114   10.4425 C   0  0  2  0  0  0  0  0  0  0  0  0
    3.9047   10.1927    9.7744 O   0  0  0  0  0  0  0  0  0  0  0  0
    1.6189    9.0794    9.8497 C   0  0  2  0  0  0  0  0  0  0  0  0
    2.1667    8.5309    8.6296 O   0  0  0  0  0  0  0  0  0  0  0  0
    0.4419    9.9641    9.6015 C   0  0  2  0  0  0  0  0  0  0  0  0
    0.6671   10.8933   10.7212 O   0  0  0  0  0  0  0  0  0  0  0  0
   -0.9176    9.1966    9.7939 C   0  0  0  0  0  0  0  0  0  0  0  0
   -2.0952   10.0456    9.6466 O   0  0  0  0  0  0  0  0  0  0  0  0
    1.4849    7.3714    8.0624 C   0  0  2  0  0  0  0  0  0  0  0  0
    0.5658    7.8691    6.8288 C   0  0  2  0  0  0  0  0  0  0  0  0
   -0.4069    8.8972    7.3224 N   0  0  0  0  0  0  0  0  0  0  0  0
   -0.1781    6.5865    6.2080 C   0  0  1  0  0  0  0  0  0  0  0  0
    0.8568    5.6545    5.7699 O   0  0  0  0  0  0  0  0  0  0  0  0
   -1.1128    5.9259    7.3190 C   0  0  2  0  0  0  0  0  0  0  0  0
   -2.1392    6.9219    7.6995 O   0  0  0  0  0  0  0  0  0  0  0  0
   -0.1727    5.4842    8.5772 C   0  0  1  0  0  0  0  0  0  0  0  0
    0.5712    6.6875    9.1000 O   0  0  0  0  0  0  0  0  0  0  0  0
   -1.0614    4.8466    9.6962 C   0  0  0  0  0  0  0  0  0  0  0  0
   -1.6158    5.8610   10.6454 N   0  0  0  0  0  0  0  0  0  0  0  0
  1  3  1  0  0  0  0
  1  2  1  1  0  0  0
  3  4  1  6  0  0  0
  3  5  1  0  0  0  0
  5  6  1  1  0  0  0
  7  8  1  1  0  0  0
  7  5  1  0  0  0  0
  9 11  1  1  0  0  0
  9  7  1  0  0  0  0
 10  9  1  0  0  0  0
 10  1  1  0  0  0  0
 12 11  1  0  0  0  0
 13 14  1  6  0  0  0
 15 13  1  0  0  0  0
 16 17  1  6  0  0  0
 16 15  1  0  0  0  0
 18  2  1  1  0  0  0
 18 19  1  0  0  0  0
 18 16  1  0  0  0  0
 19 20  1  6  0  0  0
 19 21  1  0  0  0  0
 21 22  1  1  0  0  0
 21 13  1  0  0  0  0
 23 20  1  1  0  0  0
 23 29  1  0  0  0  0
 24 25  1  6  0  0  0
 24 26  1  0  0  0  0
 24 23  1  0  0  0  0
 26 27  1  6  0  0  0
 26 28  1  0  0  0  0
 28 30  1  1  0  0  0
 29 28  1  0  0  0  0
 30 31  1  0  0  0  0
 32 27  1  1  0  0  0
 32 40  1  0  0  0  0
 33 35  1  0  0  0  0
 33 32  1  0  0  0  0
 33 34  1  1  0  0  0
 35 36  1  1  0  0  0
 35 37  1  0  0  0  0
 37 38  1  1  0  0  0
 37 39  1  0  0  0  0
 39 41  1  1  0  0  0
 40 39  1  0  0  0  0
 41 42  1  0  0  0  0
M  END
>  <CHROM.1>
-157.95699215,45.67034390,-61.36838924,-141.50662725,179.44071913,164.92362791
176.21571670,101.47422587,-87.51961037,1.80161804,11.76643907,10.89474963
-0.98363866,0.85665989,-3.01574892

>  <Name>
lig.pdb

>  <RI>
0

>  <Rbt.Current_Directory>
/home/itssahil/PROJECTS/Mol_Feturizer/New_Systems/rnas/4wcr

>  <Rbt.Executable>
rbdock ($Id: //depot/dev/client3/rdock/2013.1/src/exe/rbdock.cxx#4 $)

>  <Rbt.Library>
libRbt.so (2013.1, Build901 2013/11/27)

>  <Rbt.Parameter_File>
/export/apps/rDock/src/rDock_2013.1_src/data/scripts/dock_solv.prm

>  <Rbt.Receptor>
prm/blind_docking_80.prm

>  <SCORE>
7.92721

>  <SCORE.INTER>
-8.69405

>  <SCORE.INTER.CONST>
1

>  <SCORE.INTER.POLAR>
0

>  <SCORE.INTER.ROT>
9

>  <SCORE.INTER.SOLV>
28.5795

>  <SCORE.INTER.VDW>
-24.9225

>  <SCORE.INTER.norm>
-0.207001

>  <SCORE.INTRA>
11.6219

>  <SCORE.INTRA.DIHEDRAL>
1.28748

>  <SCORE.INTRA.DIHEDRAL.0>
16.2863

>  <SCORE.INTRA.POLAR>
0

>  <SCORE.INTRA.POLAR.0>
0

>  <SCORE.INTRA.REPUL>
-0.314433

>  <SCORE.INTRA.REPUL.0>
0.314433

>  <SCORE.INTRA.SOLV>
4.4493

>  <SCORE.INTRA.SOLV.lig_0>
-103.824

>  <SCORE.INTRA.VDW>
10.3256

>  <SCORE.INTRA.VDW.0>
-5.30945

>  <SCORE.INTRA.norm>
0.276711

>  <SCORE.RESTR>
4.99941

>  <SCORE.RESTR.CAVITY>
4.99941

>  <SCORE.RESTR.norm>
0.119034

>  <SCORE.SYSTEM>
0

>  <SCORE.SYSTEM.CONST>
0

>  <SCORE.SYSTEM.DIHEDRAL>
0

>  <SCORE.SYSTEM.SOLV>
0

>  <SCORE.SYSTEM.norm>
0

>  <SCORE.heavy>
42

>  <SCORE.norm>
0.188743

>  <RMSD>
26.653

$$$$
lig.pdb
 OpenBabel11021811513D
libRbt.so/2013.1/901 2013/11/27
 42 45  0  0  0  0  0  0  0  0999 V2000
    4.1709   15.2149   12.0813 C   0  0  2  0  0  0  0  0  0  0  0  0
    2.9296   14.4436   12.1190 O   0  0  0  0  0  0  0  0  0  0  0  0
    5.1681   14.4996   13.0982 C   0  0  2  0  0  0  0  0  0  0  0  0
    5.4456   13.1291   12.6595 N   0  0  0  0  0  0  0  0  0  0  0  0
    4.5273   14.5475   14.5702 C   0  0  1  0  0  0  0  0  0  0  0  0
    5.3966   13.9214   15.5372 O   0  0  0  0  0  0  0  0  0  0  0  0
    4.2765   16.0271   14.9087 C   0  0  2  0  0  0  0  0  0  0  0  0
    3.7198   16.1071   16.1765 O   0  0  0  0  0  0  0  0  0  0  0  0
    3.3077   16.6774   13.8192 C   0  0  2  0  0  0  0  0  0  0  0  0
    3.8752   16.5992   12.5056 O   0  0  0  0  0  0  0  0  0  0  0  0
    3.0455   18.1310   14.0940 C   0  0  0  0  0  0  0  0  0  0  0  0
    2.0867   18.2052   15.1499 O   0  0  0  0  0  0  0  0  0  0  0  0
   -0.9758   14.0989   10.0211 C   0  0  2  0  0  0  0  0  0  0  0  0
   -2.0228   14.2840    9.0400 N   0  0  0  0  0  0  0  0  0  0  0  0
   -0.5016   15.4955   10.5809 C   0  0  0  0  0  0  0  0  0  0  0  0
    0.6384   15.3222   11.6452 C   0  0  2  0  0  0  0  0  0  0  0  0
    1.0530   16.6363   12.1321 N   0  0  0  0  0  0  0  0  0  0  0  0
    1.9126   14.5697   11.0550 C   0  0  2  0  0  0  0  0  0  0  0  0
    1.4362   13.1801   10.5414 C   0  0  2  0  0  0  0  0  0  0  0  0
    2.6951   12.5337   10.0121 O   0  0  0  0  0  0  0  0  0  0  0  0
    0.3021   13.3690    9.3900 C   0  0  1  0  0  0  0  0  0  0  0  0
   -0.2623   12.1231    8.8691 O   0  0  0  0  0  0  0  0  0  0  0  0
    2.8655   11.2758   10.5278 C   0  0  1  0  0  0  0  0  0  0  0  0
    2.2898   10.2244    9.6826 C   0  0  2  0  0  0  0  0  0  0  0  0
    0.9058   10.3043    9.8048 O   0  0  0  0  0  0  0  0  0  0  0  0
    3.0404    8.9791   10.2011 C   0  0  2  0  0  0  0  0  0  0  0  0
    2.0395    8.0769   10.7245 O   0  0  0  0  0  0  0  0  0  0  0  0
    3.9549    9.4967   11.2619 C   0  0  2  0  0  0  0  0  0  0  0  0
    4.2012   10.8207   10.6667 O   0  0  0  0  0  0  0  0  0  0  0  0
    5.2930    8.6729   11.3336 C   0  0  0  0  0  0  0  0  0  0  0  0
    6.2194    8.9648   10.2447 O   0  0  0  0  0  0  0  0  0  0  0  0
    0.8683    7.8329    9.8880 C   0  0  2  0  0  0  0  0  0  0  0  0
    0.1967    6.4337   10.3409 C   0  0  2  0  0  0  0  0  0  0  0  0
    1.2090    5.3360   10.2104 N   0  0  0  0  0  0  0  0  0  0  0  0
   -1.0937    6.1745    9.4180 C   0  0  1  0  0  0  0  0  0  0  0  0
   -2.0023    7.3000    9.6165 O   0  0  0  0  0  0  0  0  0  0  0  0
   -0.6412    6.0641    7.8924 C   0  0  2  0  0  0  0  0  0  0  0  0
    0.2618    4.8980    7.7700 O   0  0  0  0  0  0  0  0  0  0  0  0
    0.0846    7.4643    7.4747 C   0  0  1  0  0  0  0  0  0  0  0  0
    1.2489    7.7255    8.3971 O   0  0  0  0  0  0  0  0  0  0  0  0
    0.5582    7.3845    5.9854 C   0  0  0  0  0  0  0  0  0  0  0  0
   -0.5802    7.3305    5.0166 N   0  0  0  0  0  0  0  0  0  0  0  0
  1  3  1  0  0  0  0
  1  2  1  1  0  0  0
  3  4  1  6  0  0  0
  3  5  1  0  0  0  0
  5  6  1  1  0  0  0
  7  8  1  1  0  0  0
  7  5  1  0  0  0  0
  9 11  1  1  0  0  0
  9  7  1  0  0  0  0
 10  9  1  0  0  0  0
 10  1  1  0  0  0  0
 12 11  1  0  0  0  0
 13 14  1  6  0  0  0
 15 13  1  0  0  0  0
 16 17  1  6  0  0  0
 16 15  1  0  0  0  0
 18  2  1  1  0  0  0
 18 19  1  0  0  0  0
 18 16  1  0  0  0  0
 19 20  1  6  0  0  0
 19 21  1  0  0  0  0
 21 22  1  1  0  0  0
 21 13  1  0  0  0  0
 23 20  1  6  0  0  0
 23 29  1  0  0  0  0
 24 25  1  1  0  0  0
 24 26  1  0  0  0  0
 24 23  1  0  0  0  0
 26 27  1  1  0  0  0
 26 28  1  0  0  0  0
 28 30  1  6  0  0  0
 29 28  1  0  0  0  0
 30 31  1  0  0  0  0
 32 27  1  1  0  0  0
 32 40  1  0  0  0  0
 33 35  1  0  0  0  0
 33 32  1  0  0  0  0
 33 34  1  6  0  0  0
 35 36  1  6  0  0  0
 35 37  1  0  0  0  0
 37 38  1  1  0  0  0
 37 39  1  0  0  0  0
 39 41  1  6  0  0  0
 40 39  1  0  0  0  0
 41 42  1  0  0  0  0
M  END
>  <CHROM.1>
-162.91766082,-77.60814839,-109.58214196,129.04664876,92.57185262,47.37839231
74.92241180,158.26597992,67.41709807,2.00043678,11.65982111,10.88409207,-1.25491829
0.55888536,-2.78760071

>  <Name>
lig.pdb

>  <RI>
0

>  <Rbt.Current_Directory>
/home/itssahil/PROJECTS/Mol_Feturizer/New_Systems/rnas/4wcr

>  <Rbt.Executable>
rbdock ($Id: //depot/dev/client3/rdock/2013.1/src/exe/rbdock.cxx#4 $)

>  <Rbt.Library>
libRbt.so (2013.1, Build901 2013/11/27)

>  <Rbt.Parameter_File>
/export/apps/rDock/src/rDock_2013.1_src/data/scripts/dock_solv.prm

>  <Rbt.Receptor>
prm/blind_docking_80.prm

>  <SCORE>
-3.05554

>  <SCORE.INTER>
-16.6833

>  <SCORE.INTER.CONST>
1

>  <SCORE.INTER.POLAR>
0

>  <SCORE.INTER.ROT>
9

>  <SCORE.INTER.SOLV>
31.0882

>  <SCORE.INTER.VDW>
-31.0849

>  <SCORE.INTER.norm>
-0.397222

>  <SCORE.INTRA>
7.91222

>  <SCORE.INTRA.DIHEDRAL>
7.76971

>  <SCORE.INTRA.DIHEDRAL.0>
16.2863

>  <SCORE.INTRA.POLAR>
0

>  <SCORE.INTRA.POLAR.0>
0

>  <SCORE.INTRA.REPUL>
-0.314433

>  <SCORE.INTRA.REPUL.0>
0.314433

>  <SCORE.INTRA.SOLV>
0.78179

>  <SCORE.INTRA.SOLV.lig_0>
-103.824

>  <SCORE.INTRA.VDW>
5.20864

>  <SCORE.INTRA.VDW.0>
-5.30945

>  <SCORE.INTRA.norm>
0.188386

>  <SCORE.RESTR>
5.71555

>  <SCORE.RESTR.CAVITY>
5.71555

>  <SCORE.RESTR.norm>
0.136084

>  <SCORE.SYSTEM>
0

>  <SCORE.SYSTEM.CONST>
0

>  <SCORE.SYSTEM.DIHEDRAL>
0

>  <SCORE.SYSTEM.SOLV>
0

>  <SCORE.SYSTEM.norm>
0

>  <SCORE.heavy>
42

>  <SCORE.norm>
-0.0727509

>  <RMSD>
26.658

$$$$
lig.pdb
 OpenBabel11021811513D
libRbt.so/2013.1/901 2013/11/27
 42 45  0  0  0  0  0  0  0  0999 V2000
    1.3352   11.2243    9.1123 C   0  0  2  0  0  0  0  0  0  0  0  0
    1.8595   11.0024   10.4588 O   0  0  0  0  0  0  0  0  0  0  0  0
   -0.1070   11.8760    9.3003 C   0  0  2  0  0  0  0  0  0  0  0  0
    0.0030   13.1660    9.9870 N   0  0  0  0  0  0  0  0  0  0  0  0
   -1.0415   10.8416   10.0982 C   0  0  1  0  0  0  0  0  0  0  0  0
   -2.3680   11.3774   10.2875 O   0  0  0  0  0  0  0  0  0  0  0  0
   -1.0691    9.5350    9.2868 C   0  0  2  0  0  0  0  0  0  0  0  0
   -1.8679    8.6147    9.9491 O   0  0  0  0  0  0  0  0  0  0  0  0
    0.4151    8.9753    9.1066 C   0  0  2  0  0  0  0  0  0  0  0  0
    1.2479    9.9201    8.4229 O   0  0  0  0  0  0  0  0  0  0  0  0
    0.4455    7.7066    8.3025 C   0  0  0  0  0  0  0  0  0  0  0  0
    0.0119    8.0231    6.9791 O   0  0  0  0  0  0  0  0  0  0  0  0
    5.4219    9.3828   12.5703 C   0  0  2  0  0  0  0  0  0  0  0  0
    6.7280    8.8069   12.8062 N   0  0  0  0  0  0  0  0  0  0  0  0
    4.5820    8.4523   11.6124 C   0  0  0  0  0  0  0  0  0  0  0  0
    3.1607    9.0577   11.3369 C   0  0  2  0  0  0  0  0  0  0  0  0
    2.4197    8.1712   10.4421 N   0  0  0  0  0  0  0  0  0  0  0  0
    3.2337   10.5061   10.6773 C   0  0  2  0  0  0  0  0  0  0  0  0
    4.0321   11.4211   11.6504 C   0  0  2  0  0  0  0  0  0  0  0  0
    4.0461   12.7654   10.9610 O   0  0  0  0  0  0  0  0  0  0  0  0
    5.5280   10.8231   11.8786 C   0  0  1  0  0  0  0  0  0  0  0  0
    6.3559   11.5745   12.8232 O   0  0  0  0  0  0  0  0  0  0  0  0
    4.3258   13.7762   11.8427 C   0  0  1  0  0  0  0  0  0  0  0  0
    3.2196   14.0596   12.7631 C   0  0  2  0  0  0  0  0  0  0  0  0
    2.2250   14.7023   12.0320 O   0  0  0  0  0  0  0  0  0  0  0  0
    3.9555   14.8112   13.8930 C   0  0  2  0  0  0  0  0  0  0  0  0
    3.3736   16.1326   13.9627 O   0  0  0  0  0  0  0  0  0  0  0  0
    5.3864   14.8378   13.4672 C   0  0  2  0  0  0  0  0  0  0  0  0
    5.3921   13.5519   12.7502 O   0  0  0  0  0  0  0  0  0  0  0  0
    6.3642   14.7808   14.6982 C   0  0  0  0  0  0  0  0  0  0  0  0
    6.9751   16.0661   15.0207 O   0  0  0  0  0  0  0  0  0  0  0  0
    3.3955   16.7960   15.2629 C   0  0  2  0  0  0  0  0  0  0  0  0
    2.6144   18.2057   15.1330 C   0  0  2  0  0  0  0  0  0  0  0  0
    3.2731   19.0384   14.0750 N   0  0  0  0  0  0  0  0  0  0  0  0
    2.6398   18.9276   16.5690 C   0  0  1  0  0  0  0  0  0  0  0  0
    1.9843   18.0312   17.5169 O   0  0  0  0  0  0  0  0  0  0  0  0
    4.1511   19.2082   16.9951 C   0  0  2  0  0  0  0  0  0  0  0  0
    4.7399   20.1305   15.9986 O   0  0  0  0  0  0  0  0  0  0  0  0
    4.9339   17.7784   17.0636 C   0  0  1  0  0  0  0  0  0  0  0  0
    4.8376   17.0842   15.7281 O   0  0  0  0  0  0  0  0  0  0  0  0
    6.4278   18.0180   17.4627 C   0  0  0  0  0  0  0  0  0  0  0  0
    6.5793   18.5443   18.8546 N   0  0  0  0  0  0  0  0  0  0  0  0
  1  3  1  0  0  0  0
  1  2  1  1  0  0  0
  3  4  1  1  0  0  0
  3  5  1  0  0  0  0
  5  6  1  6  0  0  0
  7  8  1  1  0  0  0
  7  5  1  0  0  0  0
  9 11  1  6  0  0  0
  9  7  1  0  0  0  0
 10  9  1  0  0  0  0
 10  1  1  0  0  0  0
 12 11  1  0  0  0  0
 13 14  1  6  0  0  0
 15 13  1  0  0  0  0
 16 17  1  6  0  0  0
 16 15  1  0  0  0  0
 18  2  1  1  0  0  0
 18 19  1  0  0  0  0
 18 16  1  0  0  0  0
 19 20  1  6  0  0  0
 19 21  1  0  0  0  0
 21 22  1  1  0  0  0
 21 13  1  0  0  0  0
 23 20  1  1  0  0  0
 23 29  1  0  0  0  0
 24 25  1  6  0  0  0
 24 26  1  0  0  0  0
 24 23  1  0  0  0  0
 26 27  1  6  0  0  0
 26 28  1  0  0  0  0
 28 30  1  1  0  0  0
 29 28  1  0  0  0  0
 30 31  1  0  0  0  0
 32 27  1  6  0  0  0
 32 40  1  0  0  0  0
 33 35  1  0  0  0  0
 33 32  1  0  0  0  0
 33 34  1  6  0  0  0
 35 36  1  1  0  0  0
 35 37  1  0  0  0  0
 37 38  1  6  0  0  0
 37 39  1  0  0  0  0
 39 41  1  6  0  0  0
 40 39  1  0  0  0  0
 41 42  1  0  0  0  0
M  END
>  <CHROM.1>
-175.00624067,65.31679379,-114.43560567,160.67696514,-72.01554239,151.41046996
-103.93032963,-176.35642566,66.20150499,3.11311801,13.28922437,12.58921822
1.93331936,0.37150879,-2.61051082

>  <Name>
lig.pdb

>  <RI>
0

>  <Rbt.Current_Directory>
/home/itssahil/PROJECTS/Mol_Feturizer/New_Systems/rnas/4wcr

>  <Rbt.Executable>
rbdock ($Id: //depot/dev/client3/rdock/2013.1/src/exe/rbdock.cxx#4 $)

>  <Rbt.Library>
libRbt.so (2013.1, Build901 2013/11/27)

>  <Rbt.Parameter_File>
/export/apps/rDock/src/rDock_2013.1_src/data/scripts/dock_solv.prm

>  <Rbt.Receptor>
prm/blind_docking_40.prm

>  <SCORE>
1.46534

>  <SCORE.INTER>
-12.7677

>  <SCORE.INTER.CONST>
1

>  <SCORE.INTER.POLAR>
0

>  <SCORE.INTER.ROT>
9

>  <SCORE.INTER.SOLV>
27.2857

>  <SCORE.INTER.VDW>
-27.207

>  <SCORE.INTER.norm>
-0.303992

>  <SCORE.INTRA>
6.50112

>  <SCORE.INTRA.DIHEDRAL>
1.14042

>  <SCORE.INTRA.DIHEDRAL.0>
16.2863

>  <SCORE.INTRA.POLAR>
0

>  <SCORE.INTRA.POLAR.0>
0

>  <SCORE.INTRA.REPUL>
-0.216392

>  <SCORE.INTRA.REPUL.0>
0.314433

>  <SCORE.INTRA.SOLV>
0.335939

>  <SCORE.INTRA.SOLV.lig_0>
-103.824

>  <SCORE.INTRA.VDW>
6.84489

>  <SCORE.INTRA.VDW.0>
-5.30945

>  <SCORE.INTRA.norm>
0.154789

>  <SCORE.RESTR>
7.73188

>  <SCORE.RESTR.CAVITY>
7.73188

>  <SCORE.RESTR.norm>
0.184092

>  <SCORE.SYSTEM>
0

>  <SCORE.SYSTEM.CONST>
0

>  <SCORE.SYSTEM.DIHEDRAL>
0

>  <SCORE.SYSTEM.SOLV>
0

>  <SCORE.SYSTEM.norm>
0

>  <SCORE.heavy>
42

>  <SCORE.norm>
0.034889

>  <RMSD>
26.664

$$$$
lig.pdb
 OpenBabel11021811513D
libRbt.so/2013.1/901 2013/11/27
 42 45  0  0  0  0  0  0  0  0999 V2000
    5.1364   14.3331   12.6050 C   0  0  2  0  0  0  0  0  0  0  0  0
    4.4437   13.3786   13.4689 O   0  0  0  0  0  0  0  0  0  0  0  0
    5.5537   15.5547   13.5396 C   0  0  2  0  0  0  0  0  0  0  0  0
    6.4755   15.1033   14.5857 N   0  0  0  0  0  0  0  0  0  0  0  0
    4.2234   16.2180   14.1478 C   0  0  1  0  0  0  0  0  0  0  0  0
    4.5425   17.3408   14.9965 O   0  0  0  0  0  0  0  0  0  0  0  0
    3.3414   16.6389   12.9598 C   0  0  2  0  0  0  0  0  0  0  0  0
    2.1789   17.2160   13.4489 O   0  0  0  0  0  0  0  0  0  0  0  0
    3.0085   15.3682   12.0527 C   0  0  2  0  0  0  0  0  0  0  0  0
    4.2044   14.7653   11.5428 O   0  0  0  0  0  0  0  0  0  0  0  0
    2.1627   15.7295   10.8647 C   0  0  0  0  0  0  0  0  0  0  0  0
    2.8386   16.7664   10.1522 O   0  0  0  0  0  0  0  0  0  0  0  0
    7.3536   10.2472   14.6935 C   0  0  2  0  0  0  0  0  0  0  0  0
    7.9067    8.9612   15.0583 N   0  0  0  0  0  0  0  0  0  0  0  0
    6.1340   10.6004   15.6299 C   0  0  0  0  0  0  0  0  0  0  0  0
    5.5126   11.9907   15.2514 C   0  0  2  0  0  0  0  0  0  0  0  0
    4.3845   12.2760   16.1354 N   0  0  0  0  0  0  0  0  0  0  0  0
    5.0051   12.0397   13.7419 C   0  0  2  0  0  0  0  0  0  0  0  0
    6.2263   11.7266   12.8297 C   0  0  2  0  0  0  0  0  0  0  0  0
    5.6662   11.8024   11.4286 O   0  0  0  0  0  0  0  0  0  0  0  0
    6.8241   10.2549   13.1822 C   0  0  1  0  0  0  0  0  0  0  0  0
    8.0147    9.8736   12.4212 O   0  0  0  0  0  0  0  0  0  0  0  0
    4.5823   10.9777   11.2787 C   0  0  1  0  0  0  0  0  0  0  0  0
    3.4831   11.6015   10.5345 C   0  0  2  0  0  0  0  0  0  0  0  0
    2.8993   12.5480   11.3712 O   0  0  0  0  0  0  0  0  0  0  0  0
    2.6786   10.3602   10.0926 C   0  0  2  0  0  0  0  0  0  0  0  0
    1.3645   10.4833   10.6824 O   0  0  0  0  0  0  0  0  0  0  0  0
    3.4417    9.1962   10.6334 C   0  0  2  0  0  0  0  0  0  0  0  0
    4.7852    9.7899   10.5314 O   0  0  0  0  0  0  0  0  0  0  0  0
    3.3287    7.9370    9.6975 C   0  0  0  0  0  0  0  0  0  0  0  0
    3.0975    6.6900   10.4192 O   0  0  0  0  0  0  0  0  0  0  0  0
    0.5173   11.5641   10.1874 C   0  0  2  0  0  0  0  0  0  0  0  0
   -1.0130   11.0431   10.1559 C   0  0  2  0  0  0  0  0  0  0  0  0
   -1.1016    9.8264    9.2850 N   0  0  0  0  0  0  0  0  0  0  0  0
   -1.9394   12.2397    9.6136 C   0  0  1  0  0  0  0  0  0  0  0  0
   -1.7703   13.3669   10.5259 O   0  0  0  0  0  0  0  0  0  0  0  0
   -1.4919   12.6275    8.1325 C   0  0  2  0  0  0  0  0  0  0  0  0
   -1.7050   11.4444    7.2693 O   0  0  0  0  0  0  0  0  0  0  0  0
    0.0707   13.0946    8.1793 C   0  0  1  0  0  0  0  0  0  0  0  0
    0.9133   11.9853    8.7574 O   0  0  0  0  0  0  0  0  0  0  0  0
    0.5494   13.4667    6.7367 C   0  0  0  0  0  0  0  0  0  0  0  0
   -0.3777   14.4144    6.0441 N   0  0  0  0  0  0  0  0  0  0  0  0
  1  3  1  0  0  0  0
  1  2  1  1  0  0  0
  3  4  1  1  0  0  0
  3  5  1  0  0  0  0
  5  6  1  6  0  0  0
  7  8  1  1  0  0  0
  7  5  1  0  0  0  0
  9 11  1  6  0  0  0
  9  7  1  0  0  0  0
 10  9  1  0  0  0  0
 10  1  1  0  0  0  0
 12 11  1  0  0  0  0
 13 14  1  1  0  0  0
 15 13  1  0  0  0  0
 16 17  1  1  0  0  0
 16 15  1  0  0  0  0
 18  2  1  6  0  0  0
 18 19  1  0  0  0  0
 18 16  1  0  0  0  0
 19 20  1  6  0  0  0
 19 21  1  0  0  0  0
 21 22  1  6  0  0  0
 21 13  1  0  0  0  0
 23 20  1  6  0  0  0
 23 29  1  0  0  0  0
 24 25  1  1  0  0  0
 24 26  1  0  0  0  0
 24 23  1  0  0  0  0
 26 27  1  1  0  0  0
 26 28  1  0  0  0  0
 28 30  1  6  0  0  0
 29 28  1  0  0  0  0
 30 31  1  0  0  0  0
 32 27  1  6  0  0  0
 32 40  1  0  0  0  0
 33 35  1  0  0  0  0
 33 32  1  0  0  0  0
 33 34  1  6  0  0  0
 35 36  1  1  0  0  0
 35 37  1  0  0  0  0
 37 38  1  6  0  0  0
 37 39  1  0  0  0  0
 39 41  1  6  0  0  0
 40 39  1  0  0  0  0
 41 42  1  0  0  0  0
M  END
>  <CHROM.1>
-114.64972778,55.00632772,108.79486778,-54.54791986,137.02557441,67.54030580
-136.33487640,143.67995717,50.25912980,3.16378195,12.45821932,11.52153509
0.20853424,-0.68669999,0.27838022

>  <Name>
lig.pdb

>  <RI>
0

>  <Rbt.Current_Directory>
/home/itssahil/PROJECTS/Mol_Feturizer/New_Systems/rnas/4wcr

>  <Rbt.Executable>
rbdock ($Id: //depot/dev/client3/rdock/2013.1/src/exe/rbdock.cxx#4 $)

>  <Rbt.Library>
libRbt.so (2013.1, Build901 2013/11/27)

>  <Rbt.Parameter_File>
/export/apps/rDock/src/rDock_2013.1_src/data/scripts/dock_solv.prm

>  <Rbt.Receptor>
prm/blind_docking_20.prm

>  <SCORE>
57.4159

>  <SCORE.INTER>
7.97015

>  <SCORE.INTER.CONST>
1

>  <SCORE.INTER.POLAR>
0

>  <SCORE.INTER.ROT>
9

>  <SCORE.INTER.SOLV>
19.9181

>  <SCORE.INTER.VDW>
-10.9259

>  <SCORE.INTER.norm>
0.189766

>  <SCORE.INTRA>
7.78378

>  <SCORE.INTRA.DIHEDRAL>
12.9868

>  <SCORE.INTRA.DIHEDRAL.0>
16.2863

>  <SCORE.INTRA.POLAR>
0

>  <SCORE.INTRA.POLAR.0>
0

>  <SCORE.INTRA.REPUL>
-0.314433

>  <SCORE.INTRA.REPUL.0>
0.314433

>  <SCORE.INTRA.SOLV>
-1.22888

>  <SCORE.INTRA.SOLV.lig_0>
-103.824

>  <SCORE.INTRA.VDW>
3.47697

>  <SCORE.INTRA.VDW.0>
-5.30945

>  <SCORE.INTRA.norm>
0.185328

>  <SCORE.RESTR>
41.662

>  <SCORE.RESTR.CAVITY>
41.662

>  <SCORE.RESTR.norm>
0.991951

>  <SCORE.SYSTEM>
0

>  <SCORE.SYSTEM.CONST>
0

>  <SCORE.SYSTEM.DIHEDRAL>
0

>  <SCORE.SYSTEM.SOLV>
0

>  <SCORE.SYSTEM.norm>
0

>  <SCORE.heavy>
42

>  <SCORE.norm>
1.36705

>  <RMSD>
26.677

$$$$
lig.pdb
 OpenBabel11021811513D
libRbt.so/2013.1/901 2013/11/27
 42 45  0  0  0  0  0  0  0  0999 V2000
    3.8742   15.1924   11.2652 C   0  0  2  0  0  0  0  0  0  0  0  0
    5.0038   14.7891   12.1010 O   0  0  0  0  0  0  0  0  0  0  0  0
    4.0549   16.7534   10.9993 C   0  0  2  0  0  0  0  0  0  0  0  0
    5.3007   17.0044   10.2695 N   0  0  0  0  0  0  0  0  0  0  0  0
    4.0100   17.5260   12.4067 C   0  0  1  0  0  0  0  0  0  0  0  0
    4.1581   18.9499   12.2241 O   0  0  0  0  0  0  0  0  0  0  0  0
    2.6685   17.1772   13.0739 C   0  0  2  0  0  0  0  0  0  0  0  0
    2.5953   17.8277   14.2968 O   0  0  0  0  0  0  0  0  0  0  0  0
    2.5493   15.5964   13.2616 C   0  0  2  0  0  0  0  0  0  0  0  0
    2.6238   14.9159   12.0027 O   0  0  0  0  0  0  0  0  0  0  0  0
    1.2451   15.2005   13.8937 C   0  0  0  0  0  0  0  0  0  0  0  0
    1.2831   15.6155   15.2597 O   0  0  0  0  0  0  0  0  0  0  0  0
    6.4149   11.3786   14.5809 C   0  0  2  0  0  0  0  0  0  0  0  0
    6.4033   10.2198   15.4469 N   0  0  0  0  0  0  0  0  0  0  0  0
    5.6223   12.5666   15.2512 C   0  0  0  0  0  0  0  0  0  0  0  0
    5.6164   13.8360   14.3287 C   0  0  2  0  0  0  0  0  0  0  0  0
    4.8679   14.9081   14.9815 N   0  0  0  0  0  0  0  0  0  0  0  0
    4.9631   13.5498   12.9040 C   0  0  2  0  0  0  0  0  0  0  0  0
    5.7782   12.4024   12.2402 C   0  0  2  0  0  0  0  0  0  0  0  0
    5.1057   12.2019   10.9021 O   0  0  0  0  0  0  0  0  0  0  0  0
    5.7240   11.0683   13.1701 C   0  0  1  0  0  0  0  0  0  0  0  0
    6.5045    9.9354   12.6707 O   0  0  0  0  0  0  0  0  0  0  0  0
    4.1776   11.1953   10.9553 C   0  0  1  0  0  0  0  0  0  0  0  0
    3.0535   11.3997   10.0357 C   0  0  2  0  0  0  0  0  0  0  0  0
    2.2687   12.4226   10.5595 O   0  0  0  0  0  0  0  0  0  0  0  0
    2.4873    9.9673    9.9322 C   0  0  2  0  0  0  0  0  0  0  0  0
    1.1297   10.0189   10.4261 O   0  0  0  0  0  0  0  0  0  0  0  0
    3.3795    9.1389   10.7967 C   0  0  2  0  0  0  0  0  0  0  0  0
    4.6182    9.9029   10.5732 O   0  0  0  0  0  0  0  0  0  0  0  0
    3.5341    7.6743   10.2441 C   0  0  0  0  0  0  0  0  0  0  0  0
    2.4452    6.7840   10.6323 O   0  0  0  0  0  0  0  0  0  0  0  0
    0.3349   11.1848   10.0520 C   0  0  2  0  0  0  0  0  0  0  0  0
   -1.2266   10.7655   10.0602 C   0  0  2  0  0  0  0  0  0  0  0  0
   -1.4355    9.6247    9.1107 N   0  0  0  0  0  0  0  0  0  0  0  0
   -2.0946   12.0552    9.6512 C   0  0  1  0  0  0  0  0  0  0  0  0
   -1.8096   13.0988   10.6316 O   0  0  0  0  0  0  0  0  0  0  0  0
   -1.6897   12.5226    8.1808 C   0  0  2  0  0  0  0  0  0  0  0  0
   -2.0202   11.4225    7.2476 O   0  0  0  0  0  0  0  0  0  0  0  0
   -0.0990   12.8851    8.1825 C   0  0  1  0  0  0  0  0  0  0  0  0
    0.6930   11.6849    8.6376 O   0  0  0  0  0  0  0  0  0  0  0  0
    0.3377   13.3320    6.7479 C   0  0  0  0  0  0  0  0  0  0  0  0
    0.7418   14.7708    6.6861 N   0  0  0  0  0  0  0  0  0  0  0  0
  1  3  1  0  0  0  0
  1  2  1  1  0  0  0
  3  4  1  1  0  0  0
  3  5  1  0  0  0  0
  5  6  1  6  0  0  0
  7  8  1  1  0  0  0
  7  5  1  0  0  0  0
  9 11  1  6  0  0  0
  9  7  1  0  0  0  0
 10  9  1  0  0  0  0
 10  1  1  0  0  0  0
 12 11  1  0  0  0  0
 13 14  1  1  0  0  0
 15 13  1  0  0  0  0
 16 17  1  1  0  0  0
 16 15  1  0  0  0  0
 18  2  1  6  0  0  0
 18 19  1  0  0  0  0
 18 16  1  0  0  0  0
 19 20  1  6  0  0  0
 19 21  1  0  0  0  0
 21 22  1  6  0  0  0
 21 13  1  0  0  0  0
 23 20  1  6  0  0  0
 23 29  1  0  0  0  0
 24 25  1  1  0  0  0
 24 26  1  0  0  0  0
 24 23  1  0  0  0  0
 26 27  1  1  0  0  0
 26 28  1  0  0  0  0
 28 30  1  6  0  0  0
 29 28  1  0  0  0  0
 30 31  1  0  0  0  0
 32 27  1  6  0  0  0
 32 40  1  0  0  0  0
 33 35  1  0  0  0  0
 33 32  1  0  0  0  0
 33 34  1  6  0  0  0
 35 36  1  1  0  0  0
 35 37  1  0  0  0  0
 37 38  1  6  0  0  0
 37 39  1  0  0  0  0
 39 41  1  6  0  0  0
 40 39  1  0  0  0  0
 41 42  1  0  0  0  0
M  END
>  <CHROM.1>
160.03214296,-70.77428237,-139.02399789,-95.20208243,149.09290517,39.94668670
-83.06865939,153.35339655,113.57211518,2.72693030,12.86438626,11.35094462
0.73580008,-0.65549533,0.22115794

>  <Name>
lig.pdb

>  <RI>
0

>  <Rbt.Current_Directory>
/home/itssahil/PROJECTS/Mol_Feturizer/New_Systems/rnas/4wcr

>  <Rbt.Executable>
rbdock ($Id: //depot/dev/client3/rdock/2013.1/src/exe/rbdock.cxx#4 $)

>  <Rbt.Library>
libRbt.so (2013.1, Build901 2013/11/27)

>  <Rbt.Parameter_File>
/export/apps/rDock/src/rDock_2013.1_src/data/scripts/dock_solv.prm

>  <Rbt.Receptor>
prm/blind_docking_20.prm

>  <SCORE>
73.2978

>  <SCORE.INTER>
17.4218

>  <SCORE.INTER.CONST>
1

>  <SCORE.INTER.POLAR>
0

>  <SCORE.INTER.ROT>
9

>  <SCORE.INTER.SOLV>
18.3845

>  <SCORE.INTER.VDW>
-4.11366

>  <SCORE.INTER.norm>
0.414804

>  <SCORE.INTRA>
14.8814

>  <SCORE.INTRA.DIHEDRAL>
11.6789

>  <SCORE.INTRA.DIHEDRAL.0>
16.2863

>  <SCORE.INTRA.POLAR>
0

>  <SCORE.INTRA.POLAR.0>
0

>  <SCORE.INTRA.REPUL>
0.0943337

>  <SCORE.INTRA.REPUL.0>
0.314433

>  <SCORE.INTRA.SOLV>
-1.21934

>  <SCORE.INTRA.SOLV.lig_0>
-103.824

>  <SCORE.INTRA.VDW>
9.17993

>  <SCORE.INTRA.VDW.0>
-5.30945

>  <SCORE.INTRA.norm>
0.354319

>  <SCORE.RESTR>
40.9947

>  <SCORE.RESTR.CAVITY>
40.9947

>  <SCORE.RESTR.norm>
0.976064

>  <SCORE.SYSTEM>
0

>  <SCORE.SYSTEM.CONST>
0

>  <SCORE.SYSTEM.DIHEDRAL>
0

>  <SCORE.SYSTEM.SOLV>
0

>  <SCORE.SYSTEM.norm>
0

>  <SCORE.heavy>
42

>  <SCORE.norm>
1.74519

>  <RMSD>
26.679

$$$$
lig.pdb
 OpenBabel11021811513D
libRbt.so/2013.1/901 2013/11/27
 42 45  0  0  0  0  0  0  0  0999 V2000
    1.3547   10.1358    8.9165 C   0  0  2  0  0  0  0  0  0  0  0  0
    1.6882   10.5465   10.2793 O   0  0  0  0  0  0  0  0  0  0  0  0
   -0.1829   10.4996    8.7079 C   0  0  2  0  0  0  0  0  0  0  0  0
   -0.3851   11.9457    8.8322 N   0  0  0  0  0  0  0  0  0  0  0  0
   -1.0586    9.6709    9.7691 C   0  0  1  0  0  0  0  0  0  0  0  0
   -2.4655    9.9541    9.6174 O   0  0  0  0  0  0  0  0  0  0  0  0
   -0.7537    8.1799    9.5443 C   0  0  2  0  0  0  0  0  0  0  0  0
   -1.4936    7.4315   10.4477 O   0  0  0  0  0  0  0  0  0  0  0  0
    0.8092    7.9110    9.7270 C   0  0  2  0  0  0  0  0  0  0  0  0
    1.5818    8.6805    8.7972 O   0  0  0  0  0  0  0  0  0  0  0  0
    1.1636    6.4689    9.4987 C   0  0  0  0  0  0  0  0  0  0  0  0
    2.5883    6.3715    9.4809 O   0  0  0  0  0  0  0  0  0  0  0  0
    5.3288   10.9153   12.8057 C   0  0  2  0  0  0  0  0  0  0  0  0
    6.7047   11.1259   13.2002 N   0  0  0  0  0  0  0  0  0  0  0  0
    5.2454    9.7917   11.7015 C   0  0  0  0  0  0  0  0  0  0  0  0
    3.7617    9.5469   11.2527 C   0  0  2  0  0  0  0  0  0  0  0  0
    3.7293    8.5067   10.2267 N   0  0  0  0  0  0  0  0  0  0  0  0
    3.0775   10.8623   10.6696 C   0  0  2  0  0  0  0  0  0  0  0  0
    3.1339   11.9488   11.7823 C   0  0  2  0  0  0  0  0  0  0  0  0
    2.4620   13.1489   11.1571 O   0  0  0  0  0  0  0  0  0  0  0  0
    4.6795   12.2457   12.1952 C   0  0  1  0  0  0  0  0  0  0  0  0
    4.8540   13.2158   13.2772 O   0  0  0  0  0  0  0  0  0  0  0  0
    2.5514   14.2500   11.9675 C   0  0  1  0  0  0  0  0  0  0  0  0
    3.4702   15.2706   11.4525 C   0  0  2  0  0  0  0  0  0  0  0  0
    4.7647   14.7899   11.6257 O   0  0  0  0  0  0  0  0  0  0  0  0
    2.9989   16.5177   12.2308 C   0  0  2  0  0  0  0  0  0  0  0  0
    4.1231   16.9653   13.0217 O   0  0  0  0  0  0  0  0  0  0  0  0
    1.8624   16.0378   13.0721 C   0  0  2  0  0  0  0  0  0  0  0  0
    1.3658   15.0073   12.1451 O   0  0  0  0  0  0  0  0  0  0  0  0
    0.7751   17.1556   13.2790 C   0  0  0  0  0  0  0  0  0  0  0  0
    1.3278   18.4400   13.6959 O   0  0  0  0  0  0  0  0  0  0  0  0
    4.3348   16.3003   14.3039 C   0  0  2  0  0  0  0  0  0  0  0  0
    3.3968   17.0120   15.4120 C   0  0  2  0  0  0  0  0  0  0  0  0
    3.7360   18.4703   15.4815 N   0  0  0  0  0  0  0  0  0  0  0  0
    3.6330   16.2719   16.8193 C   0  0  1  0  0  0  0  0  0  0  0  0
    3.2817   14.8668   16.6349 O   0  0  0  0  0  0  0  0  0  0  0  0
    5.1602   16.4299   17.2521 C   0  0  2  0  0  0  0  0  0  0  0  0
    5.4340   17.8731   17.4321 O   0  0  0  0  0  0  0  0  0  0  0  0
    6.0896   15.7565   16.0926 C   0  0  1  0  0  0  0  0  0  0  0  0
    5.8016   16.4157   14.7669 O   0  0  0  0  0  0  0  0  0  0  0  0
    7.5987   15.9093   16.4768 C   0  0  0  0  0  0  0  0  0  0  0  0
    8.5110   15.1686   15.5514 N   0  0  0  0  0  0  0  0  0  0  0  0
  1  3  1  0  0  0  0
  1  2  1  1  0  0  0
  3  4  1  1  0  0  0
  3  5  1  0  0  0  0
  5  6  1  6  0  0  0
  7  8  1  1  0  0  0
  7  5  1  0  0  0  0
  9 11  1  6  0  0  0
  9  7  1  0  0  0  0
 10  9  1  0  0  0  0
 10  1  1  0  0  0  0
 12 11  1  0  0  0  0
 13 14  1  6  0  0  0
 15 13  1  0  0  0  0
 16 17  1  6  0  0  0
 16 15  1  0  0  0  0
 18  2  1  1  0  0  0
 18 19  1  0  0  0  0
 18 16  1  0  0  0  0
 19 20  1  6  0  0  0
 19 21  1  0  0  0  0
 21 22  1  1  0  0  0
 21 13  1  0  0  0  0
 23 20  1  6  0  0  0
 23 29  1  0  0  0  0
 24 25  1  1  0  0  0
 24 26  1  0  0  0  0
 24 23  1  0  0  0  0
 26 27  1  1  0  0  0
 26 28  1  0  0  0  0
 28 30  1  6  0  0  0
 29 28  1  0  0  0  0
 30 31  1  0  0  0  0
 32 27  1  6  0  0  0
 32 40  1  0  0  0  0
 33 35  1  0  0  0  0
 33 32  1  0  0  0  0
 33 34  1  1  0  0  0
 35 36  1  6  0  0  0
 35 37  1  0  0  0  0
 37 38  1  6  0  0  0
 37 39  1  0  0  0  0
 39 41  1  1  0  0  0
 40 39  1  0  0  0  0
 41 42  1  0  0  0  0
M  END
>  <CHROM.1>
-155.86957641,171.25112621,-92.72338964,-173.72414028,108.82421478,-83.28123947
-48.85422700,-84.33365851,172.82247372,2.98427752,12.96106126,12.39397666
1.99915892,0.43901820,-2.71100754

>  <Name>
lig.pdb

>  <RI>
0

>  <Rbt.Current_Directory>
/home/itssahil/PROJECTS/Mol_Feturizer/New_Systems/rnas/4wcr

>  <Rbt.Executable>
rbdock ($Id: //depot/dev/client3/rdock/2013.1/src/exe/rbdock.cxx#4 $)

>  <Rbt.Library>
libRbt.so (2013.1, Build901 2013/11/27)

>  <Rbt.Parameter_File>
/export/apps/rDock/src/rDock_2013.1_src/data/scripts/dock_solv.prm

>  <Rbt.Receptor>
prm/blind_docking_40.prm

>  <SCORE>
7.95967

>  <SCORE.INTER>
-3.45677

>  <SCORE.INTER.CONST>
1

>  <SCORE.INTER.POLAR>
0

>  <SCORE.INTER.ROT>
9

>  <SCORE.INTER.SOLV>
33.0192

>  <SCORE.INTER.VDW>
-22.9109

>  <SCORE.INTER.norm>
-0.0823041

>  <SCORE.INTRA>
6.90179

>  <SCORE.INTRA.DIHEDRAL>
3.23837

>  <SCORE.INTRA.DIHEDRAL.0>
16.2863

>  <SCORE.INTRA.POLAR>
0

>  <SCORE.INTRA.POLAR.0>
0

>  <SCORE.INTRA.REPUL>
-0.314433

>  <SCORE.INTRA.REPUL.0>
0.314433

>  <SCORE.INTRA.SOLV>
1.93998

>  <SCORE.INTRA.SOLV.lig_0>
-103.824

>  <SCORE.INTRA.VDW>
5.88478

>  <SCORE.INTRA.VDW.0>
-5.30945

>  <SCORE.INTRA.norm>
0.164328

>  <SCORE.RESTR>
4.51466

>  <SCORE.RESTR.CAVITY>
4.51466

>  <SCORE.RESTR.norm>
0.107492

>  <SCORE.SYSTEM>
0

>  <SCORE.SYSTEM.CONST>
0

>  <SCORE.SYSTEM.DIHEDRAL>
0

>  <SCORE.SYSTEM.SOLV>
0

>  <SCORE.SYSTEM.norm>
0

>  <SCORE.heavy>
42

>  <SCORE.norm>
0.189516

>  <RMSD>
26.704

$$$$
lig.pdb
 OpenBabel11021811513D
libRbt.so/2013.1/901 2013/11/27
 42 45  0  0  0  0  0  0  0  0999 V2000
    1.1584   10.0998    8.8885 C   0  0  2  0  0  0  0  0  0  0  0  0
    1.7834   10.4147   10.1720 O   0  0  0  0  0  0  0  0  0  0  0  0
   -0.0912   11.0795    8.7519 C   0  0  2  0  0  0  0  0  0  0  0  0
    0.3559   12.4750    8.7342 N   0  0  0  0  0  0  0  0  0  0  0  0
   -1.1128   10.7848    9.9557 C   0  0  1  0  0  0  0  0  0  0  0  0
   -2.2730   11.6392    9.8750 O   0  0  0  0  0  0  0  0  0  0  0  0
   -1.4978    9.2978    9.8714 C   0  0  2  0  0  0  0  0  0  0  0  0
   -2.3807    9.0059   10.9004 O   0  0  0  0  0  0  0  0  0  0  0  0
   -0.1879    8.3906    9.9703 C   0  0  2  0  0  0  0  0  0  0  0  0
    0.7304    8.6855    8.9104 O   0  0  0  0  0  0  0  0  0  0  0  0
   -0.5080    6.9258    9.8737 C   0  0  0  0  0  0  0  0  0  0  0  0
    0.6855    6.2018   10.1752 O   0  0  0  0  0  0  0  0  0  0  0  0
    5.2926    8.8547   12.4135 C   0  0  2  0  0  0  0  0  0  0  0  0
    6.6260    8.3761   12.7069 N   0  0  0  0  0  0  0  0  0  0  0  0
    4.6470    7.9936   11.2601 C   0  0  0  0  0  0  0  0  0  0  0  0
    3.2000    8.4961   10.9195 C   0  0  2  0  0  0  0  0  0  0  0  0
    2.6418    7.6787    9.8443 N   0  0  0  0  0  0  0  0  0  0  0  0
    3.1772   10.0232   10.4658 C   0  0  2  0  0  0  0  0  0  0  0  0
    3.7821   10.8631   11.6279 C   0  0  2  0  0  0  0  0  0  0  0  0
    3.7148   12.2863   11.1250 O   0  0  0  0  0  0  0  0  0  0  0  0
    5.3065   10.3814   11.9306 C   0  0  1  0  0  0  0  0  0  0  0  0
    5.9605   11.0669   13.0462 O   0  0  0  0  0  0  0  0  0  0  0  0
    3.5779   13.1753   12.1586 C   0  0  1  0  0  0  0  0  0  0  0  0
    4.7192   14.0873   12.2884 C   0  0  2  0  0  0  0  0  0  0  0  0
    5.7839   13.3506   12.7986 O   0  0  0  0  0  0  0  0  0  0  0  0
    4.0979   15.2272   13.1237 C   0  0  2  0  0  0  0  0  0  0  0  0
    4.8495   15.2981   14.3565 O   0  0  0  0  0  0  0  0  0  0  0  0
    2.6796   14.8140   13.3413 C   0  0  2  0  0  0  0  0  0  0  0  0
    2.4987   14.0909   12.0715 O   0  0  0  0  0  0  0  0  0  0  0  0
    1.7128   16.0532   13.4064 C   0  0  0  0  0  0  0  0  0  0  0  0
    1.8133   16.9356   12.2487 O   0  0  0  0  0  0  0  0  0  0  0  0
    4.8587   16.5819   15.0513 C   0  0  2  0  0  0  0  0  0  0  0  0
    5.1993   16.3194   16.6099 C   0  0  2  0  0  0  0  0  0  0  0  0
    4.1794   15.3846   17.1866 N   0  0  0  0  0  0  0  0  0  0  0  0
    5.2112   17.7376   17.3666 C   0  0  1  0  0  0  0  0  0  0  0  0
    6.2275   18.5645   16.7226 O   0  0  0  0  0  0  0  0  0  0  0  0
    3.7690   18.4101   17.2559 C   0  0  2  0  0  0  0  0  0  0  0  0
    2.8012   17.5240   17.9404 O   0  0  0  0  0  0  0  0  0  0  0  0
    3.4224   18.6123   15.6745 C   0  0  1  0  0  0  0  0  0  0  0  0
    3.4865   17.2813   14.9682 O   0  0  0  0  0  0  0  0  0  0  0  0
    2.0034   19.2555   15.5277 C   0  0  0  0  0  0  0  0  0  0  0  0
    1.4701   19.1721   14.1327 N   0  0  0  0  0  0  0  0  0  0  0  0
  1  3  1  0  0  0  0
  1  2  1  1  0  0  0
  3  4  1  1  0  0  0
  3  5  1  0  0  0  0
  5  6  1  6  0  0  0
  7  8  1  1  0  0  0
  7  5  1  0  0  0  0
  9 11  1  6  0  0  0
  9  7  1  0  0  0  0
 10  9  1  0  0  0  0
 10  1  1  0  0  0  0
 12 11  1  0  0  0  0
 13 14  1  6  0  0  0
 15 13  1  0  0  0  0
 16 17  1  6  0  0  0
 16 15  1  0  0  0  0
 18  2  1  1  0  0  0
 18 19  1  0  0  0  0
 18 16  1  0  0  0  0
 19 20  1  6  0  0  0
 19 21  1  0  0  0  0
 21 22  1  1  0  0  0
 21 13  1  0  0  0  0
 23 20  1  6  0  0  0
 23 29  1  0  0  0  0
 24 25  1  1  0  0  0
 24 26  1  0  0  0  0
 24 23  1  0  0  0  0
 26 27  1  1  0  0  0
 26 28  1  0  0  0  0
 28 30  1  6  0  0  0
 29 28  1  0  0  0  0
 30 31  1  0  0  0  0
 32 27  1  6  0  0  0
 32 40  1  0  0  0  0
 33 35  1  0  0  0  0
 33 32  1  0  0  0  0
 33 34  1  1  0  0  0
 35 36  1  6  0  0  0
 35 37  1  0  0  0  0
 37 38  1  6  0  0  0
 37 39  1  0  0  0  0
 39 41  1  1  0  0  0
 40 39  1  0  0  0  0
 41 42  1  0  0  0  0
M  END
>  <CHROM.1>
-160.91710227,-171.30802028,-81.51338191,150.49660724,116.23006276,154.99932757
54.19080502,157.27575137,-166.06512136,2.73036741,12.84077821,12.51596477
1.87495192,0.40951864,-2.67956953

>  <Name>
lig.pdb

>  <RI>
0

>  <Rbt.Current_Directory>
/home/itssahil/PROJECTS/Mol_Feturizer/New_Systems/rnas/4wcr

>  <Rbt.Executable>
rbdock ($Id: //depot/dev/client3/rdock/2013.1/src/exe/rbdock.cxx#4 $)

>  <Rbt.Library>
libRbt.so (2013.1, Build901 2013/11/27)

>  <Rbt.Parameter_File>
/export/apps/rDock/src/rDock_2013.1_src/data/scripts/dock_solv.prm

>  <Rbt.Receptor>
prm/blind_docking_40.prm

>  <SCORE>
-0.662014

>  <SCORE.INTER>
-14.5479

>  <SCORE.INTER.CONST>
1

>  <SCORE.INTER.POLAR>
0

>  <SCORE.INTER.ROT>
9

>  <SCORE.INTER.SOLV>
26.0246

>  <SCORE.INTER.VDW>
-27.9735

>  <SCORE.INTER.norm>
-0.346379

>  <SCORE.INTRA>
6.89903

>  <SCORE.INTRA.DIHEDRAL>
4.4587

>  <SCORE.INTRA.DIHEDRAL.0>
16.2863

>  <SCORE.INTRA.POLAR>
0

>  <SCORE.INTRA.POLAR.0>
0

>  <SCORE.INTRA.REPUL>
-0.313346

>  <SCORE.INTRA.REPUL.0>
0.314433

>  <SCORE.INTRA.SOLV>
2.44779

>  <SCORE.INTRA.SOLV.lig_0>
-103.824

>  <SCORE.INTRA.VDW>
5.01252

>  <SCORE.INTRA.VDW.0>
-5.30945

>  <SCORE.INTRA.norm>
0.164263

>  <SCORE.RESTR>
6.98689

>  <SCORE.RESTR.CAVITY>
6.98689

>  <SCORE.RESTR.norm>
0.166355

>  <SCORE.SYSTEM>
0

>  <SCORE.SYSTEM.CONST>
0

>  <SCORE.SYSTEM.DIHEDRAL>
0

>  <SCORE.SYSTEM.SOLV>
0

>  <SCORE.SYSTEM.norm>
0

>  <SCORE.heavy>
42

>  <SCORE.norm>
-0.0157622

>  <RMSD>
26.718

$$$$
lig.pdb
 OpenBabel11021811513D
libRbt.so/2013.1/901 2013/11/27
 42 45  0  0  0  0  0  0  0  0999 V2000
    2.1073   13.1807   10.0866 C   0  0  2  0  0  0  0  0  0  0  0  0
    0.9800   12.3582   10.5224 O   0  0  0  0  0  0  0  0  0  0  0  0
    2.9405   13.5228   11.4014 C   0  0  2  0  0  0  0  0  0  0  0  0
    3.4556   12.2940   12.0116 N   0  0  0  0  0  0  0  0  0  0  0  0
    2.0019   14.3524   12.4068 C   0  0  1  0  0  0  0  0  0  0  0  0
    2.7115   14.7000   13.6143 O   0  0  0  0  0  0  0  0  0  0  0  0
    1.5218   15.6039   11.6520 C   0  0  2  0  0  0  0  0  0  0  0  0
    0.7045   16.3458   12.4917 O   0  0  0  0  0  0  0  0  0  0  0  0
    0.7388   15.1739   10.3290 C   0  0  2  0  0  0  0  0  0  0  0  0
    1.5760   14.4065    9.4550 O   0  0  0  0  0  0  0  0  0  0  0  0
    0.2639   16.3631    9.5432 C   0  0  0  0  0  0  0  0  0  0  0  0
   -0.6285   17.1036   10.3769 O   0  0  0  0  0  0  0  0  0  0  0  0
   -2.5616   10.1915    8.9303 C   0  0  2  0  0  0  0  0  0  0  0  0
   -3.6494    9.8014    8.0599 N   0  0  0  0  0  0  0  0  0  0  0  0
   -2.6666   11.7267    9.2779 C   0  0  0  0  0  0  0  0  0  0  0  0
   -1.4940   12.1765   10.2187 C   0  0  2  0  0  0  0  0  0  0  0  0
   -1.6240   13.6027   10.5099 N   0  0  0  0  0  0  0  0  0  0  0  0
   -0.0612   11.9145    9.5731 C   0  0  2  0  0  0  0  0  0  0  0  0
    0.0417   10.3915    9.2706 C   0  0  2  0  0  0  0  0  0  0  0  0
    1.4208   10.2284    8.6755 O   0  0  0  0  0  0  0  0  0  0  0  0
   -1.1371    9.9455    8.2415 C   0  0  1  0  0  0  0  0  0  0  0  0
   -1.1735    8.5167    7.9262 O   0  0  0  0  0  0  0  0  0  0  0  0
    2.1621    9.3134    9.3759 C   0  0  1  0  0  0  0  0  0  0  0  0
    2.7269    9.8578   10.6151 C   0  0  2  0  0  0  0  0  0  0  0  0
    3.7596   10.7196   10.2577 O   0  0  0  0  0  0  0  0  0  0  0  0
    3.0369    8.5632   11.3968 C   0  0  2  0  0  0  0  0  0  0  0  0
    4.4638    8.5466   11.6271 O   0  0  0  0  0  0  0  0  0  0  0  0
    2.5892    7.4570   10.4993 C   0  0  2  0  0  0  0  0  0  0  0  0
    1.4723    8.1738    9.8618 O   0  0  0  0  0  0  0  0  0  0  0  0
    2.0520    6.2235   11.3144 C   0  0  0  0  0  0  0  0  0  0  0  0
    0.6041    6.0585   11.2403 O   0  0  0  0  0  0  0  0  0  0  0  0
    4.9877    9.5061   12.5945 C   0  0  2  0  0  0  0  0  0  0  0  0
    5.6279   10.7519   11.7867 C   0  0  2  0  0  0  0  0  0  0  0  0
    6.7014   10.2460   10.8711 N   0  0  0  0  0  0  0  0  0  0  0  0
    6.1988   11.8049   12.8587 C   0  0  1  0  0  0  0  0  0  0  0  0
    5.0781   12.2219   13.6965 O   0  0  0  0  0  0  0  0  0  0  0  0
    7.3394   11.1093   13.7302 C   0  0  2  0  0  0  0  0  0  0  0  0
    8.4404   10.7297   12.8170 O   0  0  0  0  0  0  0  0  0  0  0  0
    6.6850    9.8224   14.4902 C   0  0  1  0  0  0  0  0  0  0  0  0
    6.0917    8.8812   13.4719 O   0  0  0  0  0  0  0  0  0  0  0  0
    7.7829    9.1039   15.3428 C   0  0  0  0  0  0  0  0  0  0  0  0
    8.3406    9.9747   16.4235 N   0  0  0  0  0  0  0  0  0  0  0  0
  1  3  1  0  0  0  0
  1  2  1  1  0  0  0
  3  4  1  1  0  0  0
  3  5  1  0  0  0  0
  5  6  1  1  0  0  0
  7  8  1  1  0  0  0
  7  5  1  0  0  0  0
  9 11  1  6  0  0  0
  9  7  1  0  0  0  0
 10  9  1  0  0  0  0
 10  1  1  0  0  0  0
 12 11  1  0  0  0  0
 13 14  1  6  0  0  0
 15 13  1  0  0  0  0
 16 17  1  6  0  0  0
 16 15  1  0  0  0  0
 18  2  1  1  0  0  0
 18 19  1  0  0  0  0
 18 16  1  0  0  0  0
 19 20  1  6  0  0  0
 19 21  1  0  0  0  0
 21 22  1  1  0  0  0
 21 13  1  0  0  0  0
 23 20  1  1  0  0  0
 23 29  1  0  0  0  0
 24 25  1  6  0  0  0
 24 26  1  0  0  0  0
 24 23  1  0  0  0  0
 26 27  1  6  0  0  0
 26 28  1  0  0  0  0
 28 30  1  1  0  0  0
 29 28  1  0  0  0  0
 30 31  1  0  0  0  0
 32 27  1  6  0  0  0
 32 40  1  0  0  0  0
 33 35  1  0  0  0  0
 33 32  1  0  0  0  0
 33 34  1  6  0  0  0
 35 36  1  1  0  0  0
 35 37  1  0  0  0  0
 37 38  1  6  0  0  0
 37 39  1  0  0  0  0
 39 41  1  6  0  0  0
 40 39  1  0  0  0  0
 41 42  1  0  0  0  0
M  END
>  <CHROM.1>
176.38071721,-60.83693507,-133.21086684,123.72378642,-78.93168538,71.27931540
107.98869406,-100.82684815,62.42886417,2.42548023,11.26436937,11.16656244
-2.94143774,0.52802796,-2.97475016

>  <Name>
lig.pdb

>  <RI>
0

>  <Rbt.Current_Directory>
/home/itssahil/PROJECTS/Mol_Feturizer/New_Systems/rnas/4wcr

>  <Rbt.Executable>
rbdock ($Id: //depot/dev/client3/rdock/2013.1/src/exe/rbdock.cxx#4 $)

>  <Rbt.Library>
libRbt.so (2013.1, Build901 2013/11/27)

>  <Rbt.Parameter_File>
/export/apps/rDock/src/rDock_2013.1_src/data/scripts/dock_solv.prm

>  <Rbt.Receptor>
prm/blind_docking_20.prm

>  <SCORE>
55.6537

>  <SCORE.INTER>
0.305556

>  <SCORE.INTER.CONST>
1

>  <SCORE.INTER.POLAR>
0

>  <SCORE.INTER.ROT>
9

>  <SCORE.INTER.SOLV>
25.279

>  <SCORE.INTER.VDW>
-17.8226

>  <SCORE.INTER.norm>
0.00727515

>  <SCORE.INTRA>
14.2404

>  <SCORE.INTRA.DIHEDRAL>
9.59116

>  <SCORE.INTRA.DIHEDRAL.0>
16.2863

>  <SCORE.INTRA.POLAR>
0

>  <SCORE.INTRA.POLAR.0>
0

>  <SCORE.INTRA.REPUL>
-0.314433

>  <SCORE.INTRA.REPUL.0>
0.314433

>  <SCORE.INTRA.SOLV>
7.48249

>  <SCORE.INTRA.SOLV.lig_0>
-103.824

>  <SCORE.INTRA.VDW>
7.27578

>  <SCORE.INTRA.VDW.0>
-5.30945

>  <SCORE.INTRA.norm>
0.339058

>  <SCORE.RESTR>
41.1077

>  <SCORE.RESTR.CAVITY>
41.1077

>  <SCORE.RESTR.norm>
0.978755

>  <SCORE.SYSTEM>
0

>  <SCORE.SYSTEM.CONST>
0

>  <SCORE.SYSTEM.DIHEDRAL>
0

>  <SCORE.SYSTEM.SOLV>
0

>  <SCORE.SYSTEM.norm>
0

>  <SCORE.heavy>
42

>  <SCORE.norm>
1.32509

>  <RMSD>
26.734

$$$$
lig.pdb
 OpenBabel11021811513D
libRbt.so/2013.1/901 2013/11/27
 42 45  0  0  0  0  0  0  0  0999 V2000
    0.9568   10.4114   10.2982 C   0  0  2  0  0  0  0  0  0  0  0  0
    1.1896   11.5484    9.4094 O   0  0  0  0  0  0  0  0  0  0  0  0
    1.5344    9.1327    9.5424 C   0  0  2  0  0  0  0  0  0  0  0  0
    2.9762    9.2788    9.3240 N   0  0  0  0  0  0  0  0  0  0  0  0
    0.7289    8.9379    8.1666 C   0  0  1  0  0  0  0  0  0  0  0  0
    1.2047    7.7831    7.4436 O   0  0  0  0  0  0  0  0  0  0  0  0
   -0.7608    8.8061    8.5270 C   0  0  2  0  0  0  0  0  0  0  0  0
   -1.4897    8.6378    7.3590 O   0  0  0  0  0  0  0  0  0  0  0  0
   -1.2457   10.1046    9.3188 C   0  0  2  0  0  0  0  0  0  0  0  0
   -0.4977   10.2864   10.5276 O   0  0  0  0  0  0  0  0  0  0  0  0
   -2.6932   10.0176    9.7118 C   0  0  0  0  0  0  0  0  0  0  0  0
   -2.8339    8.9084   10.6004 O   0  0  0  0  0  0  0  0  0  0  0  0
    0.4838   15.9288    9.1140 C   0  0  2  0  0  0  0  0  0  0  0  0
   -0.0925   17.2389    9.3246 N   0  0  0  0  0  0  0  0  0  0  0  0
   -0.6270   14.9166    8.6339 C   0  0  0  0  0  0  0  0  0  0  0  0
   -0.0275   13.4850    8.4022 C   0  0  2  0  0  0  0  0  0  0  0  0
   -1.0878   12.5785    7.9664 N   0  0  0  0  0  0  0  0  0  0  0  0
    0.6481   12.8883    9.7159 C   0  0  2  0  0  0  0  0  0  0  0  0
    1.7656   13.8781   10.1554 C   0  0  2  0  0  0  0  0  0  0  0  0
    2.3568   13.2386   11.3900 O   0  0  0  0  0  0  0  0  0  0  0  0
    1.1263   15.3433   10.4588 C   0  0  1  0  0  0  0  0  0  0  0  0
    2.0958   16.3753   10.8292 O   0  0  0  0  0  0  0  0  0  0  0  0
    3.1509   14.1188   12.0769 C   0  0  1  0  0  0  0  0  0  0  0  0
    2.5677   14.5447   13.3535 C   0  0  2  0  0  0  0  0  0  0  0  0
    1.5169   15.4095   13.0623 O   0  0  0  0  0  0  0  0  0  0  0  0
    3.8171   15.0689   14.0933 C   0  0  2  0  0  0  0  0  0  0  0  0
    3.5828   16.4688   14.3671 O   0  0  0  0  0  0  0  0  0  0  0  0
    4.9458   14.8535   13.1397 C   0  0  2  0  0  0  0  0  0  0  0  0
    4.4176   13.6391   12.4962 O   0  0  0  0  0  0  0  0  0  0  0  0
    6.2914   14.5332   13.8889 C   0  0  0  0  0  0  0  0  0  0  0  0
    6.2870   13.2458   14.5758 O   0  0  0  0  0  0  0  0  0  0  0  0
    3.8534   16.9303   15.7254 C   0  0  2  0  0  0  0  0  0  0  0  0
    3.1801   18.3878   15.9159 C   0  0  2  0  0  0  0  0  0  0  0  0
    3.7392   19.3268   14.8900 N   0  0  0  0  0  0  0  0  0  0  0  0
    3.4792   18.8867   17.4144 C   0  0  1  0  0  0  0  0  0  0  0  0
    2.9015   17.9010   18.3233 O   0  0  0  0  0  0  0  0  0  0  0  0
    5.0552   19.0104   17.6277 C   0  0  2  0  0  0  0  0  0  0  0  0
    5.5620   20.0329   16.6855 O   0  0  0  0  0  0  0  0  0  0  0  0
    5.7193   17.5418   17.3742 C   0  0  1  0  0  0  0  0  0  0  0  0
    5.3676   17.0597   15.9890 O   0  0  0  0  0  0  0  0  0  0  0  0
    7.2707   17.6300   17.5584 C   0  0  0  0  0  0  0  0  0  0  0  0
    7.9202   18.5522   16.5761 N   0  0  0  0  0  0  0  0  0  0  0  0
  1  3  1  0  0  0  0
  1  2  1  6  0  0  0
  3  4  1  6  0  0  0
  3  5  1  0  0  0  0
  5  6  1  1  0  0  0
  7  8  1  6  0  0  0
  7  5  1  0  0  0  0
  9 11  1  1  0  0  0
  9  7  1  0  0  0  0
 10  9  1  0  0  0  0
 10  1  1  0  0  0  0
 12 11  1  0  0  0  0
 13 14  1  1  0  0  0
 15 13  1  0  0  0  0
 16 17  1  1  0  0  0
 16 15  1  0  0  0  0
 18  2  1  6  0  0  0
 18 19  1  0  0  0  0
 18 16  1  0  0  0  0
 19 20  1  1  0  0  0
 19 21  1  0  0  0  0
 21 22  1  6  0  0  0
 21 13  1  0  0  0  0
 23 20  1  1  0  0  0
 23 29  1  0  0  0  0
 24 25  1  6  0  0  0
 24 26  1  0  0  0  0
 24 23  1  0  0  0  0
 26 27  1  6  0  0  0
 26 28  1  0  0  0  0
 28 30  1  1  0  0  0
 29 28  1  0  0  0  0
 30 31  1  0  0  0  0
 32 27  1  6  0  0  0
 32 40  1  0  0  0  0
 33 35  1  0  0  0  0
 33 32  1  0  0  0  0
 33 34  1  6  0  0  0
 35 36  1  1  0  0  0
 35 37  1  0  0  0  0
 37 38  1  6  0  0  0
 37 39  1  0  0  0  0
 39 41  1  6  0  0  0
 40 39  1  0  0  0  0
 41 42  1  0  0  0  0
M  END
>  <CHROM.1>
173.15746391,62.58363941,-133.54245834,-166.38966689,109.76447446,132.12122568
67.54524980,-165.62839054,-62.13780940,2.29656692,14.09215203,12.18529599
-2.17855549,-0.66421633,0.36764251

>  <Name>
lig.pdb

>  <RI>
0

>  <Rbt.Current_Directory>
/home/itssahil/PROJECTS/Mol_Feturizer/New_Systems/rnas/4wcr

>  <Rbt.Executable>
rbdock ($Id: //depot/dev/client3/rdock/2013.1/src/exe/rbdock.cxx#4 $)

>  <Rbt.Library>
libRbt.so (2013.1, Build901 2013/11/27)

>  <Rbt.Parameter_File>
/export/apps/rDock/src/rDock_2013.1_src/data/scripts/dock_solv.prm

>  <Rbt.Receptor>
prm/blind_docking_60.prm

>  <SCORE>
12.5286

>  <SCORE.INTER>
1.80072

>  <SCORE.INTER.CONST>
1

>  <SCORE.INTER.POLAR>
0

>  <SCORE.INTER.ROT>
9

>  <SCORE.INTER.SOLV>
28.3433

>  <SCORE.INTER.VDW>
-17.8473

>  <SCORE.INTER.norm>
0.0428744

>  <SCORE.INTRA>
3.82295

>  <SCORE.INTRA.DIHEDRAL>
5.80726

>  <SCORE.INTRA.DIHEDRAL.0>
16.2863

>  <SCORE.INTRA.POLAR>
0

>  <SCORE.INTRA.POLAR.0>
0

>  <SCORE.INTRA.REPUL>
-0.307465

>  <SCORE.INTRA.REPUL.0>
0.314433

>  <SCORE.INTRA.SOLV>
-0.0214593

>  <SCORE.INTRA.SOLV.lig_0>
-103.824

>  <SCORE.INTRA.VDW>
2.46737

>  <SCORE.INTRA.VDW.0>
-5.30945

>  <SCORE.INTRA.norm>
0.0910226

>  <SCORE.RESTR>
6.9049

>  <SCORE.RESTR.CAVITY>
6.9049

>  <SCORE.RESTR.norm>
0.164402

>  <SCORE.SYSTEM>
0

>  <SCORE.SYSTEM.CONST>
0

>  <SCORE.SYSTEM.DIHEDRAL>
0

>  <SCORE.SYSTEM.SOLV>
0

>  <SCORE.SYSTEM.norm>
0

>  <SCORE.heavy>
42

>  <SCORE.norm>
0.298299

>  <RMSD>
26.737

$$$$
lig.pdb
 OpenBabel11021811513D
libRbt.so/2013.1/901 2013/11/27
 42 45  0  0  0  0  0  0  0  0999 V2000
    2.5712   15.5283   14.1527 C   0  0  2  0  0  0  0  0  0  0  0  0
    3.7480   15.0840   13.4077 O   0  0  0  0  0  0  0  0  0  0  0  0
    1.7169   16.4170   13.1425 C   0  0  2  0  0  0  0  0  0  0  0  0
    1.2803   15.6106   11.9994 N   0  0  0  0  0  0  0  0  0  0  0  0
    2.6002   17.6805   12.6918 C   0  0  1  0  0  0  0  0  0  0  0  0
    1.8690   18.5290   11.7818 O   0  0  0  0  0  0  0  0  0  0  0  0
    3.0006   18.4348   13.9713 C   0  0  2  0  0  0  0  0  0  0  0  0
    3.7686   19.5348   13.6195 O   0  0  0  0  0  0  0  0  0  0  0  0
    3.8105   17.4626   14.9447 C   0  0  2  0  0  0  0  0  0  0  0  0
    3.0242   16.3226   15.3135 O   0  0  0  0  0  0  0  0  0  0  0  0
    4.2097   18.1472   16.2210 C   0  0  0  0  0  0  0  0  0  0  0  0
    3.0123   18.5056   16.9121 O   0  0  0  0  0  0  0  0  0  0  0  0
    5.7580   11.3608   12.0401 C   0  0  2  0  0  0  0  0  0  0  0  0
    6.2160    9.9891   11.9994 N   0  0  0  0  0  0  0  0  0  0  0  0
    6.1928   12.0395   13.3962 C   0  0  0  0  0  0  0  0  0  0  0  0
    5.7036   13.5289   13.4671 C   0  0  2  0  0  0  0  0  0  0  0  0
    6.1196   14.1173   14.7385 N   0  0  0  0  0  0  0  0  0  0  0  0
    4.1207   13.6562   13.3379 C   0  0  2  0  0  0  0  0  0  0  0  0
    3.7116   13.0165   11.9796 C   0  0  2  0  0  0  0  0  0  0  0  0
    2.2111   13.1865   11.9316 O   0  0  0  0  0  0  0  0  0  0  0  0
    4.1625   11.4536   11.9398 C   0  0  1  0  0  0  0  0  0  0  0  0
    3.8772   10.7605   10.6827 O   0  0  0  0  0  0  0  0  0  0  0  0
    1.7188   12.9271   10.6795 C   0  0  1  0  0  0  0  0  0  0  0  0
    1.0164   11.6425   10.5920 C   0  0  2  0  0  0  0  0  0  0  0  0
    1.9788   10.6385   10.6399 O   0  0  0  0  0  0  0  0  0  0  0  0
    0.1766   11.8471    9.3130 C   0  0  2  0  0  0  0  0  0  0  0  0
    0.6004   10.8370    8.3698 O   0  0  0  0  0  0  0  0  0  0  0  0
    0.5048   13.2303    8.8560 C   0  0  2  0  0  0  0  0  0  0  0  0
    0.7317   13.8179   10.1868 O   0  0  0  0  0  0  0  0  0  0  0  0
   -0.7226   13.9217    8.1560 C   0  0  0  0  0  0  0  0  0  0  0  0
   -0.4690   15.3030    7.7600 O   0  0  0  0  0  0  0  0  0  0  0  0
   -0.1271    9.5715    8.3862 C   0  0  2  0  0  0  0  0  0  0  0  0
    0.5938    8.5788    9.4393 C   0  0  2  0  0  0  0  0  0  0  0  0
    2.0254    8.3897    9.0377 N   0  0  0  0  0  0  0  0  0  0  0  0
   -0.2152    7.1898    9.4541 C   0  0  1  0  0  0  0  0  0  0  0  0
   -1.5883    7.4916    9.8480 O   0  0  0  0  0  0  0  0  0  0  0  0
   -0.1658    6.5316    8.0020 C   0  0  2  0  0  0  0  0  0  0  0  0
    1.2501    6.2436    7.6820 O   0  0  0  0  0  0  0  0  0  0  0  0
   -0.8460    7.5745    6.9477 C   0  0  1  0  0  0  0  0  0  0  0  0
   -0.1179    8.8943    7.0004 O   0  0  0  0  0  0  0  0  0  0  0  0
   -0.7989    6.9672    5.5063 C   0  0  0  0  0  0  0  0  0  0  0  0
   -1.8568    5.9350    5.2767 N   0  0  0  0  0  0  0  0  0  0  0  0
  1  3  1  0  0  0  0
  1  2  1  6  0  0  0
  3  4  1  6  0  0  0
  3  5  1  0  0  0  0
  5  6  1  6  0  0  0
  7  8  1  6  0  0  0
  7  5  1  0  0  0  0
  9 11  1  1  0  0  0
  9  7  1  0  0  0  0
 10  9  1  0  0  0  0
 10  1  1  0  0  0  0
 12 11  1  0  0  0  0
 13 14  1  1  0  0  0
 15 13  1  0  0  0  0
 16 17  1  1  0  0  0
 16 15  1  0  0  0  0
 18  2  1  6  0  0  0
 18 19  1  0  0  0  0
 18 16  1  0  0  0  0
 19 20  1  1  0  0  0
 19 21  1  0  0  0  0
 21 22  1  6  0  0  0
 21 13  1  0  0  0  0
 23 20  1  1  0  0  0
 23 29  1  0  0  0  0
 24 25  1  6  0  0  0
 24 26  1  0  0  0  0
 24 23  1  0  0  0  0
 26 27  1  6  0  0  0
 26 28  1  0  0  0  0
 28 30  1  1  0  0  0
 29 28  1  0  0  0  0
 30 31  1  0  0  0  0
 32 27  1  6  0  0  0
 32 40  1  0  0  0  0
 33 35  1  0  0  0  0
 33 32  1  0  0  0  0
 33 34  1  6  0  0  0
 35 36  1  6  0  0  0
 35 37  1  0  0  0  0
 37 38  1  6  0  0  0
 37 39  1  0  0  0  0
 39 41  1  6  0  0  0
 40 39  1  0  0  0  0
 41 42  1  0  0  0  0
M  END
>  <CHROM.1>
-127.52221235,63.32099285,-139.47746084,167.36740035,105.98820138,91.09987207
176.76420313,-89.40671029,78.25507748,2.03899407,12.60161756,11.06233791
1.15410109,-0.68292605,0.35632459

>  <Name>
lig.pdb

>  <RI>
0

>  <Rbt.Current_Directory>
/home/itssahil/PROJECTS/Mol_Feturizer/New_Systems/rnas/4wcr

>  <Rbt.Executable>
rbdock ($Id: //depot/dev/client3/rdock/2013.1/src/exe/rbdock.cxx#4 $)

>  <Rbt.Library>
libRbt.so (2013.1, Build901 2013/11/27)

>  <Rbt.Parameter_File>
/export/apps/rDock/src/rDock_2013.1_src/data/scripts/dock_solv.prm

>  <Rbt.Receptor>
prm/blind_docking_40.prm

>  <SCORE>
24.6633

>  <SCORE.INTER>
-7.55553

>  <SCORE.INTER.CONST>
1

>  <SCORE.INTER.POLAR>
0

>  <SCORE.INTER.ROT>
9

>  <SCORE.INTER.SOLV>
27.7048

>  <SCORE.INTER.VDW>
-23.8719

>  <SCORE.INTER.norm>
-0.179894

>  <SCORE.INTRA>
25.0039

>  <SCORE.INTRA.DIHEDRAL>
12.0265

>  <SCORE.INTRA.DIHEDRAL.0>
16.2863

>  <SCORE.INTRA.POLAR>
0

>  <SCORE.INTRA.POLAR.0>
0

>  <SCORE.INTRA.REPUL>
0.372932

>  <SCORE.INTRA.REPUL.0>
0.314433

>  <SCORE.INTRA.SOLV>
1.68734

>  <SCORE.INTRA.SOLV.lig_0>
-103.824

>  <SCORE.INTRA.VDW>
16.2823

>  <SCORE.INTRA.VDW.0>
-5.30945

>  <SCORE.INTRA.norm>
0.595332

>  <SCORE.RESTR>
7.21489

>  <SCORE.RESTR.CAVITY>
7.21489

>  <SCORE.RESTR.norm>
0.171783

>  <SCORE.SYSTEM>
0

>  <SCORE.SYSTEM.CONST>
0

>  <SCORE.SYSTEM.DIHEDRAL>
0

>  <SCORE.SYSTEM.SOLV>
0

>  <SCORE.SYSTEM.norm>
0

>  <SCORE.heavy>
42

>  <SCORE.norm>
0.587221

>  <RMSD>
26.743

$$$$
lig.pdb
 OpenBabel11021811513D
libRbt.so/2013.1/901 2013/11/27
 42 45  0  0  0  0  0  0  0  0999 V2000
    1.3022   10.2568    8.9435 C   0  0  2  0  0  0  0  0  0  0  0  0
    1.9398   10.4734   10.2411 O   0  0  0  0  0  0  0  0  0  0  0  0
    0.0083   11.1870    8.9248 C   0  0  2  0  0  0  0  0  0  0  0  0
    0.3932   12.5966    9.0369 N   0  0  0  0  0  0  0  0  0  0  0  0
   -0.9738   10.7300   10.1108 C   0  0  1  0  0  0  0  0  0  0  0  0
   -2.1718   11.5343   10.1339 O   0  0  0  0  0  0  0  0  0  0  0  0
   -1.2948    9.2423    9.8872 C   0  0  2  0  0  0  0  0  0  0  0  0
   -2.1422    8.8114   10.8972 O   0  0  0  0  0  0  0  0  0  0  0  0
    0.0553    8.3906    9.8745 C   0  0  2  0  0  0  0  0  0  0  0  0
    0.9372    8.8291    8.8335 O   0  0  0  0  0  0  0  0  0  0  0  0
   -0.2022    6.9292    9.6398 C   0  0  0  0  0  0  0  0  0  0  0  0
   -0.5011    6.7601    8.2535 O   0  0  0  0  0  0  0  0  0  0  0  0
    5.3915    8.7496   12.4516 C   0  0  2  0  0  0  0  0  0  0  0  0
    6.6956    8.1882   12.7295 N   0  0  0  0  0  0  0  0  0  0  0  0
    4.6554    7.8955   11.3482 C   0  0  0  0  0  0  0  0  0  0  0  0
    3.2383    8.4872   11.0251 C   0  0  2  0  0  0  0  0  0  0  0  0
    2.5947    7.6733    9.9961 N   0  0  0  0  0  0  0  0  0  0  0  0
    3.3103    9.9946   10.5146 C   0  0  2  0  0  0  0  0  0  0  0  0
    4.0045   10.8308   11.6284 C   0  0  2  0  0  0  0  0  0  0  0  0
    4.0234   12.2360   11.0738 O   0  0  0  0  0  0  0  0  0  0  0  0
    5.4991   10.2530   11.9110 C   0  0  1  0  0  0  0  0  0  0  0  0
    6.2303   10.9300   12.9830 O   0  0  0  0  0  0  0  0  0  0  0  0
    3.7704   13.1622   12.0512 C   0  0  1  0  0  0  0  0  0  0  0  0
    4.9427   13.9756   12.3907 C   0  0  2  0  0  0  0  0  0  0  0  0
    5.8182   13.1645   13.1065 O   0  0  0  0  0  0  0  0  0  0  0  0
    4.2773   15.1880   13.0768 C   0  0  2  0  0  0  0  0  0  0  0  0
    4.7802   15.2284   14.4314 O   0  0  0  0  0  0  0  0  0  0  0  0
    2.8122   14.9050   13.0185 C   0  0  2  0  0  0  0  0  0  0  0  0
    2.8153   14.1648   11.7458 O   0  0  0  0  0  0  0  0  0  0  0  0
    1.9668   16.2243   12.8808 C   0  0  0  0  0  0  0  0  0  0  0  0
    0.5370   15.9883   12.7095 O   0  0  0  0  0  0  0  0  0  0  0  0
    4.7915   16.5296   15.0930 C   0  0  2  0  0  0  0  0  0  0  0  0
    5.0550   16.3005   16.6716 C   0  0  2  0  0  0  0  0  0  0  0  0
    3.9863   15.4069   17.2250 N   0  0  0  0  0  0  0  0  0  0  0  0
    5.0697   17.7376   17.3917 C   0  0  1  0  0  0  0  0  0  0  0  0
    6.1350   18.5216   16.7737 O   0  0  0  0  0  0  0  0  0  0  0  0
    3.6518   18.4424   17.1984 C   0  0  2  0  0  0  0  0  0  0  0  0
    2.6316   17.5991   17.8604 O   0  0  0  0  0  0  0  0  0  0  0  0
    3.3818   18.6109   15.5982 C   0  0  1  0  0  0  0  0  0  0  0  0
    3.4430   17.2603   14.9296 O   0  0  0  0  0  0  0  0  0  0  0  0
    1.9880   19.2849   15.3706 C   0  0  0  0  0  0  0  0  0  0  0  0
    1.5148   19.1757   13.9558 N   0  0  0  0  0  0  0  0  0  0  0  0
  1  3  1  0  0  0  0
  1  2  1  1  0  0  0
  3  4  1  1  0  0  0
  3  5  1  0  0  0  0
  5  6  1  6  0  0  0
  7  8  1  1  0  0  0
  7  5  1  0  0  0  0
  9 11  1  6  0  0  0
  9  7  1  0  0  0  0
 10  9  1  0  0  0  0
 10  1  1  0  0  0  0
 12 11  1  0  0  0  0
 13 14  1  6  0  0  0
 15 13  1  0  0  0  0
 16 17  1  6  0  0  0
 16 15  1  0  0  0  0
 18  2  1  1  0  0  0
 18 19  1  0  0  0  0
 18 16  1  0  0  0  0
 19 20  1  6  0  0  0
 19 21  1  0  0  0  0
 21 22  1  1  0  0  0
 21 13  1  0  0  0  0
 23 20  1  6  0  0  0
 23 29  1  0  0  0  0
 24 25  1  1  0  0  0
 24 26  1  0  0  0  0
 24 23  1  0  0  0  0
 26 27  1  1  0  0  0
 26 28  1  0  0  0  0
 28 30  1  6  0  0  0
 29 28  1  0  0  0  0
 30 31  1  0  0  0  0
 32 27  1  6  0  0  0
 32 40  1  0  0  0  0
 33 35  1  0  0  0  0
 33 32  1  0  0  0  0
 33 34  1  1  0  0  0
 35 36  1  6  0  0  0
 35 37  1  0  0  0  0
 37 38  1  6  0  0  0
 37 39  1  0  0  0  0
 39 41  1  1  0  0  0
 40 39  1  0  0  0  0
 41 42  1  0  0  0  0
M  END
>  <CHROM.1>
-167.25371837,75.59902903,-86.85945307,141.09615320,110.34349107,154.01089680
175.22879492,167.02746568,-165.97613267,2.74669896,12.81387542,12.47072993
1.86258140,0.39699513,-2.65688758

>  <Name>
lig.pdb

>  <RI>
0

>  <Rbt.Current_Directory>
/home/itssahil/PROJECTS/Mol_Feturizer/New_Systems/rnas/4wcr

>  <Rbt.Executable>
rbdock ($Id: //depot/dev/client3/rdock/2013.1/src/exe/rbdock.cxx#4 $)

>  <Rbt.Library>
libRbt.so (2013.1, Build901 2013/11/27)

>  <Rbt.Parameter_File>
/export/apps/rDock/src/rDock_2013.1_src/data/scripts/dock_solv.prm

>  <Rbt.Receptor>
prm/blind_docking_40.prm

>  <SCORE>
-1.83872

>  <SCORE.INTER>
-17.492

>  <SCORE.INTER.CONST>
1

>  <SCORE.INTER.POLAR>
0

>  <SCORE.INTER.ROT>
9

>  <SCORE.INTER.SOLV>
26.0358

>  <SCORE.INTER.VDW>
-29.9399

>  <SCORE.INTER.norm>
-0.416477

>  <SCORE.INTRA>
8.22829

>  <SCORE.INTRA.DIHEDRAL>
5.11963

>  <SCORE.INTRA.DIHEDRAL.0>
16.2863

>  <SCORE.INTRA.POLAR>
0

>  <SCORE.INTRA.POLAR.0>
0

>  <SCORE.INTRA.REPUL>
-0.202897

>  <SCORE.INTRA.REPUL.0>
0.314433

>  <SCORE.INTRA.SOLV>
1.23063

>  <SCORE.INTRA.SOLV.lig_0>
-103.824

>  <SCORE.INTRA.VDW>
6.06765

>  <SCORE.INTRA.VDW.0>
-5.30945

>  <SCORE.INTRA.norm>
0.195912

>  <SCORE.RESTR>
7.42501

>  <SCORE.RESTR.CAVITY>
7.42501

>  <SCORE.RESTR.norm>
0.176786

>  <SCORE.SYSTEM>
0

>  <SCORE.SYSTEM.CONST>
0

>  <SCORE.SYSTEM.DIHEDRAL>
0

>  <SCORE.SYSTEM.SOLV>
0

>  <SCORE.SYSTEM.norm>
0

>  <SCORE.heavy>
42

>  <SCORE.norm>
-0.0437791

>  <RMSD>
26.753

$$$$
lig.pdb
 OpenBabel11021811513D
libRbt.so/2013.1/901 2013/11/27
 42 45  0  0  0  0  0  0  0  0999 V2000
    4.9799   14.8209   12.9141 C   0  0  2  0  0  0  0  0  0  0  0  0
    4.4764   13.6845   13.6837 O   0  0  0  0  0  0  0  0  0  0  0  0
    5.1040   16.0323   13.9423 C   0  0  2  0  0  0  0  0  0  0  0  0
    6.0677   15.7073   14.9975 N   0  0  0  0  0  0  0  0  0  0  0  0
    3.6466   16.3611   14.5318 C   0  0  1  0  0  0  0  0  0  0  0  0
    3.6979   17.4618   15.4637 O   0  0  0  0  0  0  0  0  0  0  0  0
    2.7324   16.6746   13.3349 C   0  0  2  0  0  0  0  0  0  0  0  0
    1.4606   16.9625   13.8076 O   0  0  0  0  0  0  0  0  0  0  0  0
    2.7003   15.4309   12.3347 C   0  0  2  0  0  0  0  0  0  0  0  0
    4.0107   15.1262   11.8412 O   0  0  0  0  0  0  0  0  0  0  0  0
    1.8340   15.6938   11.1358 C   0  0  0  0  0  0  0  0  0  0  0  0
    1.7888   14.4933   10.3635 O   0  0  0  0  0  0  0  0  0  0  0  0
    6.9594   10.3731   12.0583 C   0  0  2  0  0  0  0  0  0  0  0  0
    7.6093    9.0872   11.9283 N   0  0  0  0  0  0  0  0  0  0  0  0
    7.3339   11.0347   13.4406 C   0  0  0  0  0  0  0  0  0  0  0  0
    6.6371   12.4307   13.6082 C   0  0  2  0  0  0  0  0  0  0  0  0
    7.0033   13.0049   14.9013 N   0  0  0  0  0  0  0  0  0  0  0  0
    5.0491   12.3323   13.5234 C   0  0  2  0  0  0  0  0  0  0  0  0
    4.6944   11.7131   12.1405 C   0  0  2  0  0  0  0  0  0  0  0  0
    3.1843   11.6645   12.1373 O   0  0  0  0  0  0  0  0  0  0  0  0
    5.3649   10.2372   12.0007 C   0  0  1  0  0  0  0  0  0  0  0  0
    5.1435    9.5779   10.7129 O   0  0  0  0  0  0  0  0  0  0  0  0
    2.6973   11.3478   10.8964 C   0  0  1  0  0  0  0  0  0  0  0  0
    2.3884    9.9220   10.7459 C   0  0  2  0  0  0  0  0  0  0  0  0
    3.5992    9.2407   10.6648 O   0  0  0  0  0  0  0  0  0  0  0  0
    1.4345    9.9488    9.5324 C   0  0  2  0  0  0  0  0  0  0  0  0
    2.0605    9.1638    8.4925 O   0  0  0  0  0  0  0  0  0  0  0  0
    1.3181   11.3922    9.1681 C   0  0  2  0  0  0  0  0  0  0  0  0
    1.4632   11.9403   10.5270 O   0  0  0  0  0  0  0  0  0  0  0  0
   -0.1035   11.7366    8.5895 C   0  0  0  0  0  0  0  0  0  0  0  0
   -1.1965   11.4513    9.5131 O   0  0  0  0  0  0  0  0  0  0  0  0
    1.4662    7.8632    8.1988 C   0  0  2  0  0  0  0  0  0  0  0  0
   -0.0227    8.0994    7.6144 C   0  0  2  0  0  0  0  0  0  0  0  0
   -0.8309    8.8637    8.6191 N   0  0  0  0  0  0  0  0  0  0  0  0
   -0.6682    6.6634    7.2902 C   0  0  1  0  0  0  0  0  0  0  0  0
    0.1983    6.0085    6.3146 O   0  0  0  0  0  0  0  0  0  0  0  0
   -0.7668    5.8104    8.6345 C   0  0  2  0  0  0  0  0  0  0  0  0
   -1.6684    6.5285    9.5627 O   0  0  0  0  0  0  0  0  0  0  0  0
    0.7394    5.6340    9.2363 C   0  0  1  0  0  0  0  0  0  0  0  0
    1.3546    6.9916    9.4665 O   0  0  0  0  0  0  0  0  0  0  0  0
    0.6784    4.8147   10.5681 C   0  0  0  0  0  0  0  0  0  0  0  0
   -0.0928    3.5405   10.4308 N   0  0  0  0  0  0  0  0  0  0  0  0
  1  3  1  0  0  0  0
  1  2  1  1  0  0  0
  3  4  1  1  0  0  0
  3  5  1  0  0  0  0
  5  6  1  1  0  0  0
  7  8  1  1  0  0  0
  7  5  1  0  0  0  0
  9 11  1  6  0  0  0
  9  7  1  0  0  0  0
 10  9  1  0  0  0  0
 10  1  1  0  0  0  0
 12 11  1  0  0  0  0
 13 14  1  1  0  0  0
 15 13  1  0  0  0  0
 16 17  1  1  0  0  0
 16 15  1  0  0  0  0
 18  2  1  6  0  0  0
 18 19  1  0  0  0  0
 18 16  1  0  0  0  0
 19 20  1  1  0  0  0
 19 21  1  0  0  0  0
 21 22  1  6  0  0  0
 21 13  1  0  0  0  0
 23 20  1  1  0  0  0
 23 29  1  0  0  0  0
 24 25  1  6  0  0  0
 24 26  1  0  0  0  0
 24 23  1  0  0  0  0
 26 27  1  6  0  0  0
 26 28  1  0  0  0  0
 28 30  1  1  0  0  0
 29 28  1  0  0  0  0
 30 31  1  0  0  0  0
 32 27  1  1  0  0  0
 32 40  1  0  0  0  0
 33 35  1  0  0  0  0
 33 32  1  0  0  0  0
 33 34  1  1  0  0  0
 35 36  1  6  0  0  0
 35 37  1  0  0  0  0
 37 38  1  1  0  0  0
 37 39  1  0  0  0  0
 39 41  1  1  0  0  0
 40 39  1  0  0  0  0
 41 42  1  0  0  0  0
M  END
>  <CHROM.1>
-136.09210122,-175.55320297,48.78570547,169.91129614,96.63536448,107.98730934
59.28721431,64.68345859,50.92350837,2.71386831,11.12829174,11.15167970,-1.09350436
0.48082729,-2.83814446

>  <Name>
lig.pdb

>  <RI>
0

>  <Rbt.Current_Directory>
/home/itssahil/PROJECTS/Mol_Feturizer/New_Systems/rnas/4wcr

>  <Rbt.Executable>
rbdock ($Id: //depot/dev/client3/rdock/2013.1/src/exe/rbdock.cxx#4 $)

>  <Rbt.Library>
libRbt.so (2013.1, Build901 2013/11/27)

>  <Rbt.Parameter_File>
/export/apps/rDock/src/rDock_2013.1_src/data/scripts/dock_solv.prm

>  <Rbt.Receptor>
prm/blind_docking_40.prm

>  <SCORE>
23.0519

>  <SCORE.INTER>
-7.5523

>  <SCORE.INTER.CONST>
1

>  <SCORE.INTER.POLAR>
0

>  <SCORE.INTER.ROT>
9

>  <SCORE.INTER.SOLV>
25.6394

>  <SCORE.INTER.VDW>
-23.1813

>  <SCORE.INTER.norm>
-0.179817

>  <SCORE.INTRA>
22.9786

>  <SCORE.INTRA.DIHEDRAL>
2.9516

>  <SCORE.INTRA.DIHEDRAL.0>
16.2863

>  <SCORE.INTRA.POLAR>
0

>  <SCORE.INTRA.POLAR.0>
0

>  <SCORE.INTRA.REPUL>
-0.314433

>  <SCORE.INTRA.REPUL.0>
0.314433

>  <SCORE.INTRA.SOLV>
4.08253

>  <SCORE.INTRA.SOLV.lig_0>
-103.824

>  <SCORE.INTRA.VDW>
21.0337

>  <SCORE.INTRA.VDW.0>
-5.30945

>  <SCORE.INTRA.norm>
0.54711

>  <SCORE.RESTR>
7.62554

>  <SCORE.RESTR.CAVITY>
7.62554

>  <SCORE.RESTR.norm>
0.18156

>  <SCORE.SYSTEM>
0

>  <SCORE.SYSTEM.CONST>
0

>  <SCORE.SYSTEM.DIHEDRAL>
0

>  <SCORE.SYSTEM.SOLV>
0

>  <SCORE.SYSTEM.norm>
0

>  <SCORE.heavy>
42

>  <SCORE.norm>
0.548854

>  <RMSD>
26.755

$$$$
lig.pdb
 OpenBabel11021811513D
libRbt.so/2013.1/901 2013/11/27
 42 45  0  0  0  0  0  0  0  0999 V2000
    0.6430   10.4985   10.2311 C   0  0  2  0  0  0  0  0  0  0  0  0
    1.8687   10.7254    9.4674 O   0  0  0  0  0  0  0  0  0  0  0  0
   -0.2172    9.4544    9.3885 C   0  0  2  0  0  0  0  0  0  0  0  0
    0.5054    8.1860    9.2601 N   0  0  0  0  0  0  0  0  0  0  0  0
   -0.5631   10.1031    7.9604 C   0  0  1  0  0  0  0  0  0  0  0  0
   -1.3535    9.2019    7.1569 O   0  0  0  0  0  0  0  0  0  0  0  0
   -1.3067   11.4227    8.2288 C   0  0  2  0  0  0  0  0  0  0  0  0
   -1.6207   12.0135    7.0139 O   0  0  0  0  0  0  0  0  0  0  0  0
   -0.3959   12.3898    9.1140 C   0  0  2  0  0  0  0  0  0  0  0  0
   -0.0665   11.7872   10.3717 O   0  0  0  0  0  0  0  0  0  0  0  0
   -1.0856   13.6887    9.4212 C   0  0  0  0  0  0  0  0  0  0  0  0
   -0.0791   14.6950    9.5397 O   0  0  0  0  0  0  0  0  0  0  0  0
    4.9628   10.9370   12.6540 C   0  0  2  0  0  0  0  0  0  0  0  0
    6.2317   11.1441   13.3172 N   0  0  0  0  0  0  0  0  0  0  0  0
    5.1346    9.9281   11.4535 C   0  0  0  0  0  0  0  0  0  0  0  0
    3.7713    9.6896   10.7139 C   0  0  2  0  0  0  0  0  0  0  0  0
    3.9751    8.7573    9.6071 N   0  0  0  0  0  0  0  0  0  0  0  0
    3.1469   11.0379   10.1388 C   0  0  2  0  0  0  0  0  0  0  0  0
    2.9487   12.0082   11.3392 C   0  0  2  0  0  0  0  0  0  0  0  0
    2.3494   13.2464   10.7144 O   0  0  0  0  0  0  0  0  0  0  0  0
    4.3770   12.3039   12.0602 C   0  0  1  0  0  0  0  0  0  0  0  0
    4.3057   13.1648   13.2417 O   0  0  0  0  0  0  0  0  0  0  0  0
    2.3638   14.3030   11.5866 C   0  0  1  0  0  0  0  0  0  0  0  0
    3.2621   15.3837   11.1668 C   0  0  2  0  0  0  0  0  0  0  0  0
    4.5663   14.9415   11.3676 O   0  0  0  0  0  0  0  0  0  0  0  0
    2.7122   16.5672   11.9915 C   0  0  2  0  0  0  0  0  0  0  0  0
    3.7859   17.0105   12.8518 O   0  0  0  0  0  0  0  0  0  0  0  0
    1.5626   15.9998   12.7571 C   0  0  2  0  0  0  0  0  0  0  0  0
    1.1436   15.0053   11.7554 O   0  0  0  0  0  0  0  0  0  0  0  0
    0.4255   17.0638   12.9789 C   0  0  0  0  0  0  0  0  0  0  0  0
    0.9114   18.3434   13.4845 O   0  0  0  0  0  0  0  0  0  0  0  0
    4.0588   16.2028   14.0368 C   0  0  2  0  0  0  0  0  0  0  0  0
    3.3568   16.9078   15.3113 C   0  0  2  0  0  0  0  0  0  0  0  0
    3.8870   18.3022   15.4571 N   0  0  0  0  0  0  0  0  0  0  0  0
    3.6588   16.0107   16.6104 C   0  0  1  0  0  0  0  0  0  0  0  0
    3.1100   14.6817   16.3571 O   0  0  0  0  0  0  0  0  0  0  0  0
    5.2337   15.9446   16.8551 C   0  0  2  0  0  0  0  0  0  0  0  0
    5.7105   17.3208   17.1173 O   0  0  0  0  0  0  0  0  0  0  0  0
    5.9262   15.2833   15.5341 C   0  0  1  0  0  0  0  0  0  0  0  0
    5.5723   16.0986   14.3156 O   0  0  0  0  0  0  0  0  0  0  0  0
    7.4770   15.2189   15.7327 C   0  0  0  0  0  0  0  0  0  0  0  0
    8.1922   14.6671   14.5405 N   0  0  0  0  0  0  0  0  0  0  0  0
  1  3  1  0  0  0  0
  1  2  1  6  0  0  0
  3  4  1  6  0  0  0
  3  5  1  0  0  0  0
  5  6  1  6  0  0  0
  7  8  1  6  0  0  0
  7  5  1  0  0  0  0
  9 11  1  1  0  0  0
  9  7  1  0  0  0  0
 10  9  1  0  0  0  0
 10  1  1  0  0  0  0
 12 11  1  0  0  0  0
 13 14  1  6  0  0  0
 15 13  1  0  0  0  0
 16 17  1  6  0  0  0
 16 15  1  0  0  0  0
 18  2  1  1  0  0  0
 18 19  1  0  0  0  0
 18 16  1  0  0  0  0
 19 20  1  6  0  0  0
 19 21  1  0  0  0  0
 21 22  1  1  0  0  0
 21 13  1  0  0  0  0
 23 20  1  6  0  0  0
 23 29  1  0  0  0  0
 24 25  1  1  0  0  0
 24 26  1  0  0  0  0
 24 23  1  0  0  0  0
 26 27  1  1  0  0  0
 26 28  1  0  0  0  0
 28 30  1  6  0  0  0
 29 28  1  0  0  0  0
 30 31  1  0  0  0  0
 32 27  1  6  0  0  0
 32 40  1  0  0  0  0
 33 35  1  0  0  0  0
 33 32  1  0  0  0  0
 33 34  1  1  0  0  0
 35 36  1  6  0  0  0
 35 37  1  0  0  0  0
 37 38  1  6  0  0  0
 37 39  1  0  0  0  0
 39 41  1  1  0  0  0
 40 39  1  0  0  0  0
 41 42  1  0  0  0  0
M  END
>  <CHROM.1>
-148.75977278,-149.52325311,78.56163204,-167.53721247,113.11145393,-77.30334185
-48.70062601,-99.30981882,-177.96602713,2.70226302,13.55258235,11.99449396
-2.17095969,-0.55920764,0.49837880

>  <Name>
lig.pdb

>  <RI>
0

>  <Rbt.Current_Directory>
/home/itssahil/PROJECTS/Mol_Feturizer/New_Systems/rnas/4wcr

>  <Rbt.Executable>
rbdock ($Id: //depot/dev/client3/rdock/2013.1/src/exe/rbdock.cxx#4 $)

>  <Rbt.Library>
libRbt.so (2013.1, Build901 2013/11/27)

>  <Rbt.Parameter_File>
/export/apps/rDock/src/rDock_2013.1_src/data/scripts/dock_solv.prm

>  <Rbt.Receptor>
prm/blind_docking_80.prm

>  <SCORE>
5.81914

>  <SCORE.INTER>
-3.37073

>  <SCORE.INTER.CONST>
1

>  <SCORE.INTER.POLAR>
0

>  <SCORE.INTER.ROT>
9

>  <SCORE.INTER.SOLV>
33.6477

>  <SCORE.INTER.VDW>
-23.0631

>  <SCORE.INTER.norm>
-0.0802555

>  <SCORE.INTRA>
3.26145

>  <SCORE.INTRA.DIHEDRAL>
6.99818

>  <SCORE.INTRA.DIHEDRAL.0>
16.2863

>  <SCORE.INTRA.POLAR>
0

>  <SCORE.INTRA.POLAR.0>
0

>  <SCORE.INTRA.REPUL>
-0.26767

>  <SCORE.INTRA.REPUL.0>
0.314433

>  <SCORE.INTRA.SOLV>
0.153048

>  <SCORE.INTRA.SOLV.lig_0>
-103.824

>  <SCORE.INTRA.VDW>
1.02419

>  <SCORE.INTRA.VDW.0>
-5.30945

>  <SCORE.INTRA.norm>
0.0776536

>  <SCORE.RESTR>
5.92842

>  <SCORE.RESTR.CAVITY>
5.92842

>  <SCORE.RESTR.norm>
0.141153

>  <SCORE.SYSTEM>
0

>  <SCORE.SYSTEM.CONST>
0

>  <SCORE.SYSTEM.DIHEDRAL>
0

>  <SCORE.SYSTEM.SOLV>
0

>  <SCORE.SYSTEM.norm>
0

>  <SCORE.heavy>
42

>  <SCORE.norm>
0.138551

>  <RMSD>
26.760

$$$$
lig.pdb
 OpenBabel11021811513D
libRbt.so/2013.1/901 2013/11/27
 42 45  0  0  0  0  0  0  0  0999 V2000
    1.7833   16.1665   13.7895 C   0  0  2  0  0  0  0  0  0  0  0  0
    2.8369   15.7110   12.8842 O   0  0  0  0  0  0  0  0  0  0  0  0
    0.5776   16.6424   12.8623 C   0  0  2  0  0  0  0  0  0  0  0  0
    0.0712   15.5188   12.0693 N   0  0  0  0  0  0  0  0  0  0  0  0
    1.0829   17.8568   11.9404 C   0  0  1  0  0  0  0  0  0  0  0  0
    0.0243   18.3366   11.0850 O   0  0  0  0  0  0  0  0  0  0  0  0
    1.5939   18.9604   12.8824 C   0  0  2  0  0  0  0  0  0  0  0  0
    2.0415   20.0279   12.1184 O   0  0  0  0  0  0  0  0  0  0  0  0
    2.7652   18.3890   13.8043 C   0  0  2  0  0  0  0  0  0  0  0  0
    2.3115   17.2852   14.5976 O   0  0  0  0  0  0  0  0  0  0  0  0
    3.2878   19.4251   14.7586 C   0  0  0  0  0  0  0  0  0  0  0  0
    3.7641   20.5259   13.9833 O   0  0  0  0  0  0  0  0  0  0  0  0
    5.3141   12.1443   11.9279 C   0  0  2  0  0  0  0  0  0  0  0  0
    5.9113   10.8296   12.0169 N   0  0  0  0  0  0  0  0  0  0  0  0
    5.5730   12.9507   13.2588 C   0  0  0  0  0  0  0  0  0  0  0  0
    4.9306   14.3807   13.1893 C   0  0  2  0  0  0  0  0  0  0  0  0
    5.1865   15.0901   14.4411 N   0  0  0  0  0  0  0  0  0  0  0  0
    3.3574   14.3297   12.9424 C   0  0  2  0  0  0  0  0  0  0  0  0
    3.1202   13.5646   11.6082 C   0  0  2  0  0  0  0  0  0  0  0  0
    1.6182   13.5698   11.4448 O   0  0  0  0  0  0  0  0  0  0  0  0
    3.7298   12.0595   11.7114 C   0  0  1  0  0  0  0  0  0  0  0  0
    3.6131   11.2611   10.4903 O   0  0  0  0  0  0  0  0  0  0  0  0
    1.2444   13.0256   10.2442 C   0  0  1  0  0  0  0  0  0  0  0  0
    0.5384   11.7479   10.3864 C   0  0  2  0  0  0  0  0  0  0  0  0
    1.4799   10.7915   10.7545 O   0  0  0  0  0  0  0  0  0  0  0  0
   -0.1732   11.6456    9.0202 C   0  0  2  0  0  0  0  0  0  0  0  0
    0.3267   10.4507    8.3782 O   0  0  0  0  0  0  0  0  0  0  0  0
    0.2135   12.8907    8.2923 C   0  0  2  0  0  0  0  0  0  0  0  0
    0.3195   13.7697    9.4687 O   0  0  0  0  0  0  0  0  0  0  0  0
   -0.9333   13.3908    7.3387 C   0  0  0  0  0  0  0  0  0  0  0  0
   -1.8538   12.3362    6.9269 O   0  0  0  0  0  0  0  0  0  0  0  0
   -0.3282    9.1925    8.7232 C   0  0  2  0  0  0  0  0  0  0  0  0
    0.5160    8.4817    9.9048 C   0  0  2  0  0  0  0  0  0  0  0  0
    1.9248    8.2642    9.4416 N   0  0  0  0  0  0  0  0  0  0  0  0
   -0.2135    7.0996   10.2811 C   0  0  1  0  0  0  0  0  0  0  0  0
   -1.5707    7.4275   10.7078 O   0  0  0  0  0  0  0  0  0  0  0  0
   -0.2283    6.1428    9.0048 C   0  0  2  0  0  0  0  0  0  0  0  0
    1.1759    5.8461    8.6437 O   0  0  0  0  0  0  0  0  0  0  0  0
   -1.0348    6.9039    7.8081 C   0  0  1  0  0  0  0  0  0  0  0  0
   -0.3775    8.2302    7.5188 O   0  0  0  0  0  0  0  0  0  0  0  0
   -1.0538    5.9990    6.5316 C   0  0  0  0  0  0  0  0  0  0  0  0
   -1.5835    6.7078    5.3257 N   0  0  0  0  0  0  0  0  0  0  0  0
  1  3  1  0  0  0  0
  1  2  1  6  0  0  0
  3  4  1  6  0  0  0
  3  5  1  0  0  0  0
  5  6  1  1  0  0  0
  7  8  1  6  0  0  0
  7  5  1  0  0  0  0
  9 11  1  1  0  0  0
  9  7  1  0  0  0  0
 10  9  1  0  0  0  0
 10  1  1  0  0  0  0
 12 11  1  0  0  0  0
 13 14  1  1  0  0  0
 15 13  1  0  0  0  0
 16 17  1  1  0  0  0
 16 15  1  0  0  0  0
 18  2  1  6  0  0  0
 18 19  1  0  0  0  0
 18 16  1  0  0  0  0
 19 20  1  1  0  0  0
 19 21  1  0  0  0  0
 21 22  1  6  0  0  0
 21 13  1  0  0  0  0
 23 20  1  1  0  0  0
 23 29  1  0  0  0  0
 24 25  1  6  0  0  0
 24 26  1  0  0  0  0
 24 23  1  0  0  0  0
 26 27  1  6  0  0  0
 26 28  1  0  0  0  0
 28 30  1  6  0  0  0
 29 28  1  0  0  0  0
 30 31  1  0  0  0  0
 32 27  1  6  0  0  0
 32 40  1  0  0  0  0
 33 35  1  0  0  0  0
 33 32  1  0  0  0  0
 33 34  1  6  0  0  0
 35 36  1  6  0  0  0
 35 37  1  0  0  0  0
 37 38  1  6  0  0  0
 37 39  1  0  0  0  0
 39 41  1  6  0  0  0
 40 39  1  0  0  0  0
 41 42  1  0  0  0  0
M  END
>  <CHROM.1>
-121.13078796,-58.75210969,-122.74979502,174.82975166,112.08253974,84.91404419
-23.85932985,-95.14269132,-170.93278471,1.47915908,12.77158128,10.80542391
-1.24211707,0.64348295,-2.87264715

>  <Name>
lig.pdb

>  <RI>
0

>  <Rbt.Current_Directory>
/home/itssahil/PROJECTS/Mol_Feturizer/New_Systems/rnas/4wcr

>  <Rbt.Executable>
rbdock ($Id: //depot/dev/client3/rdock/2013.1/src/exe/rbdock.cxx#4 $)

>  <Rbt.Library>
libRbt.so (2013.1, Build901 2013/11/27)

>  <Rbt.Parameter_File>
/export/apps/rDock/src/rDock_2013.1_src/data/scripts/dock_solv.prm

>  <Rbt.Receptor>
prm/blind_docking_60.prm

>  <SCORE>
13.2085

>  <SCORE.INTER>
-6.996

>  <SCORE.INTER.CONST>
1

>  <SCORE.INTER.POLAR>
0

>  <SCORE.INTER.ROT>
9

>  <SCORE.INTER.SOLV>
28.7168

>  <SCORE.INTER.VDW>
-23.8363

>  <SCORE.INTER.norm>
-0.166571

>  <SCORE.INTRA>
15.5341

>  <SCORE.INTRA.DIHEDRAL>
15.886

>  <SCORE.INTRA.DIHEDRAL.0>
16.2863

>  <SCORE.INTRA.POLAR>
0

>  <SCORE.INTRA.POLAR.0>
0

>  <SCORE.INTRA.REPUL>
0.138338

>  <SCORE.INTRA.REPUL.0>
0.314433

>  <SCORE.INTRA.SOLV>
1.30174

>  <SCORE.INTRA.SOLV.lig_0>
-103.824

>  <SCORE.INTRA.VDW>
6.24858

>  <SCORE.INTRA.VDW.0>
-5.30945

>  <SCORE.INTRA.norm>
0.36986

>  <SCORE.RESTR>
4.67037

>  <SCORE.RESTR.CAVITY>
4.67037

>  <SCORE.RESTR.norm>
0.111199

>  <SCORE.SYSTEM>
0

>  <SCORE.SYSTEM.CONST>
0

>  <SCORE.SYSTEM.DIHEDRAL>
0

>  <SCORE.SYSTEM.SOLV>
0

>  <SCORE.SYSTEM.norm>
0

>  <SCORE.heavy>
42

>  <SCORE.norm>
0.314488

>  <RMSD>
26.810

$$$$
lig.pdb
 OpenBabel11021811513D
libRbt.so/2013.1/901 2013/11/27
 42 45  0  0  0  0  0  0  0  0999 V2000
    2.4462   15.4446   13.4566 C   0  0  2  0  0  0  0  0  0  0  0  0
    3.7787   15.0505   13.0022 O   0  0  0  0  0  0  0  0  0  0  0  0
    1.9083   16.4994   12.3899 C   0  0  2  0  0  0  0  0  0  0  0  0
    1.7956   15.8749   11.0689 N   0  0  0  0  0  0  0  0  0  0  0  0
    2.8910   17.7699   12.3786 C   0  0  1  0  0  0  0  0  0  0  0  0
    2.4437   18.7658   11.4348 O   0  0  0  0  0  0  0  0  0  0  0  0
    2.9312   18.3261   13.8123 C   0  0  2  0  0  0  0  0  0  0  0  0
    3.7746   19.4268   13.8409 O   0  0  0  0  0  0  0  0  0  0  0  0
    3.4357   17.1956   14.8201 C   0  0  2  0  0  0  0  0  0  0  0  0
    2.5698   16.0540   14.7971 O   0  0  0  0  0  0  0  0  0  0  0  0
    3.4750   17.6834   16.2406 C   0  0  0  0  0  0  0  0  0  0  0  0
    4.0170   16.6337   17.0432 O   0  0  0  0  0  0  0  0  0  0  0  0
    6.1147   11.3190   12.3761 C   0  0  2  0  0  0  0  0  0  0  0  0
    6.7126   10.0233   12.6135 N   0  0  0  0  0  0  0  0  0  0  0  0
    6.5282   12.3264   13.5175 C   0  0  0  0  0  0  0  0  0  0  0  0
    5.8880   13.7402   13.2853 C   0  0  2  0  0  0  0  0  0  0  0  0
    6.2890   14.6390   14.3656 N   0  0  0  0  0  0  0  0  0  0  0  0
    4.2967   13.6857   13.2290 C   0  0  2  0  0  0  0  0  0  0  0  0
    3.9045   12.7181   12.0752 C   0  0  2  0  0  0  0  0  0  0  0  0
    2.3937   12.7312   12.0834 O   0  0  0  0  0  0  0  0  0  0  0  0
    4.5156   11.2366   12.3565 C   0  0  1  0  0  0  0  0  0  0  0  0
    4.2560   10.2518   11.3053 O   0  0  0  0  0  0  0  0  0  0  0  0
    1.8864   12.6347   10.8143 C   0  0  1  0  0  0  0  0  0  0  0  0
    1.1050   11.4125   10.5982 C   0  0  2  0  0  0  0  0  0  0  0  0
    2.0027   10.3509   10.5353 O   0  0  0  0  0  0  0  0  0  0  0  0
    0.2799   11.8011    9.3526 C   0  0  2  0  0  0  0  0  0  0  0  0
    0.6399   10.8702    8.3069 O   0  0  0  0  0  0  0  0  0  0  0  0
    0.6941   13.2012    9.0399 C   0  0  2  0  0  0  0  0  0  0  0  0
    0.9571   13.6317   10.4231 O   0  0  0  0  0  0  0  0  0  0  0  0
   -0.4874   14.0368    8.4233 C   0  0  0  0  0  0  0  0  0  0  0  0
   -0.1865   15.4572    8.2780 O   0  0  0  0  0  0  0  0  0  0  0  0
   -0.1020    9.6140    8.2570 C   0  0  2  0  0  0  0  0  0  0  0  0
    0.6140    8.5554    9.2472 C   0  0  2  0  0  0  0  0  0  0  0  0
    2.0408    8.3733    8.8255 N   0  0  0  0  0  0  0  0  0  0  0  0
   -0.2108    7.1769    9.1892 C   0  0  1  0  0  0  0  0  0  0  0  0
   -1.5778    7.4713    9.6091 O   0  0  0  0  0  0  0  0  0  0  0  0
   -0.1784    6.6014    7.7019 C   0  0  2  0  0  0  0  0  0  0  0  0
    1.2321    6.3161    7.3562 O   0  0  0  0  0  0  0  0  0  0  0  0
   -0.8532    7.7098    6.7130 C   0  0  1  0  0  0  0  0  0  0  0  0
   -0.1096    9.0163    6.8351 O   0  0  0  0  0  0  0  0  0  0  0  0
   -0.8223    7.1844    5.2393 C   0  0  0  0  0  0  0  0  0  0  0  0
   -1.7761    6.0563    5.0053 N   0  0  0  0  0  0  0  0  0  0  0  0
  1  3  1  0  0  0  0
  1  2  1  6  0  0  0
  3  4  1  6  0  0  0
  3  5  1  0  0  0  0
  5  6  1  6  0  0  0
  7  8  1  6  0  0  0
  7  5  1  0  0  0  0
  9 11  1  1  0  0  0
  9  7  1  0  0  0  0
 10  9  1  0  0  0  0
 10  1  1  0  0  0  0
 12 11  1  0  0  0  0
 13 14  1  1  0  0  0
 15 13  1  0  0  0  0
 16 17  1  1  0  0  0
 16 15  1  0  0  0  0
 18  2  1  6  0  0  0
 18 19  1  0  0  0  0
 18 16  1  0  0  0  0
 19 20  1  1  0  0  0
 19 21  1  0  0  0  0
 21 22  1  6  0  0  0
 21 13  1  0  0  0  0
 23 20  1  1  0  0  0
 23 29  1  0  0  0  0
 24 25  1  6  0  0  0
 24 26  1  0  0  0  0
 24 23  1  0  0  0  0
 26 27  1  6  0  0  0
 26 28  1  0  0  0  0
 28 30  1  1  0  0  0
 29 28  1  0  0  0  0
 30 31  1  0  0  0  0
 32 27  1  6  0  0  0
 32 40  1  0  0  0  0
 33 35  1  0  0  0  0
 33 32  1  0  0  0  0
 33 34  1  6  0  0  0
 35 36  1  6  0  0  0
 35 37  1  0  0  0  0
 37 38  1  6  0  0  0
 37 39  1  0  0  0  0
 39 41  1  6  0  0  0
 40 39  1  0  0  0  0
 41 42  1  0  0  0  0
M  END
>  <CHROM.1>
-147.01217827,-176.34718839,-153.28495769,144.50388804,116.46181963,86.78774432
171.79639476,-86.29285130,70.93901178,2.16423266,12.52178061,10.98161316
1.11315861,-0.70413671,0.33373294

>  <Name>
lig.pdb

>  <RI>
0

>  <Rbt.Current_Directory>
/home/itssahil/PROJECTS/Mol_Feturizer/New_Systems/rnas/4wcr

>  <Rbt.Executable>
rbdock ($Id: //depot/dev/client3/rdock/2013.1/src/exe/rbdock.cxx#4 $)

>  <Rbt.Library>
libRbt.so (2013.1, Build901 2013/11/27)

>  <Rbt.Parameter_File>
/export/apps/rDock/src/rDock_2013.1_src/data/scripts/dock_solv.prm

>  <Rbt.Receptor>
prm/blind_docking_40.prm

>  <SCORE>
12.753

>  <SCORE.INTER>
-2.95184

>  <SCORE.INTER.CONST>
1

>  <SCORE.INTER.POLAR>
0

>  <SCORE.INTER.ROT>
9

>  <SCORE.INTER.SOLV>
29.239

>  <SCORE.INTER.VDW>
-21.3142

>  <SCORE.INTER.norm>
-0.0702818

>  <SCORE.INTRA>
7.50011

>  <SCORE.INTRA.DIHEDRAL>
9.62019

>  <SCORE.INTRA.DIHEDRAL.0>
16.2863

>  <SCORE.INTRA.POLAR>
0

>  <SCORE.INTRA.POLAR.0>
0

>  <SCORE.INTRA.REPUL>
-0.13974

>  <SCORE.INTRA.REPUL.0>
0.314433

>  <SCORE.INTRA.SOLV>
1.57064

>  <SCORE.INTRA.SOLV.lig_0>
-103.824

>  <SCORE.INTRA.VDW>
2.60339

>  <SCORE.INTRA.VDW.0>
-5.30945

>  <SCORE.INTRA.norm>
0.178574

>  <SCORE.RESTR>
8.20471

>  <SCORE.RESTR.CAVITY>
8.20471

>  <SCORE.RESTR.norm>
0.19535

>  <SCORE.SYSTEM>
0

>  <SCORE.SYSTEM.CONST>
0

>  <SCORE.SYSTEM.DIHEDRAL>
0

>  <SCORE.SYSTEM.SOLV>
0

>  <SCORE.SYSTEM.norm>
0

>  <SCORE.heavy>
42

>  <SCORE.norm>
0.303642

>  <RMSD>
26.857

$$$$
lig.pdb
 OpenBabel11021811513D
libRbt.so/2013.1/901 2013/11/27
 42 45  0  0  0  0  0  0  0  0999 V2000
    3.0449   14.7638   13.2026 C   0  0  2  0  0  0  0  0  0  0  0  0
    3.5713   15.6560   12.1711 O   0  0  0  0  0  0  0  0  0  0  0  0
    3.7155   15.2259   14.5725 C   0  0  2  0  0  0  0  0  0  0  0  0
    3.3269   16.6028   14.8903 N   0  0  0  0  0  0  0  0  0  0  0  0
    5.3082   15.0577   14.4508 C   0  0  1  0  0  0  0  0  0  0  0  0
    5.9684   15.4526   15.6718 O   0  0  0  0  0  0  0  0  0  0  0  0
    5.5846   13.5835   14.1089 C   0  0  2  0  0  0  0  0  0  0  0  0
    6.9547   13.4010   13.9939 O   0  0  0  0  0  0  0  0  0  0  0  0
    4.8419   13.1917   12.7512 C   0  0  2  0  0  0  0  0  0  0  0  0
    3.4251   13.3773   12.8610 O   0  0  0  0  0  0  0  0  0  0  0  0
    5.0649   11.7527   12.3816 C   0  0  0  0  0  0  0  0  0  0  0  0
    5.1057   11.6738   10.9562 O   0  0  0  0  0  0  0  0  0  0  0  0
    0.0818   16.8078    9.6672 C   0  0  2  0  0  0  0  0  0  0  0  0
   -0.7052   17.2351    8.5310 N   0  0  0  0  0  0  0  0  0  0  0  0
    1.2180   17.8599    9.9687 C   0  0  0  0  0  0  0  0  0  0  0  0
    2.0898   17.4168   11.1959 C   0  0  2  0  0  0  0  0  0  0  0  0
    3.1323   18.4124   11.4365 N   0  0  0  0  0  0  0  0  0  0  0  0
    2.7792   15.9980   10.9720 C   0  0  2  0  0  0  0  0  0  0  0  0
    1.6446   14.9648   10.7132 C   0  0  2  0  0  0  0  0  0  0  0  0
    2.3764   13.6568   10.5227 O   0  0  0  0  0  0  0  0  0  0  0  0
    0.7864   15.3949    9.3995 C   0  0  1  0  0  0  0  0  0  0  0  0
   -0.3472   14.5225    9.0897 O   0  0  0  0  0  0  0  0  0  0  0  0
    1.5460   12.6878   10.0241 C   0  0  1  0  0  0  0  0  0  0  0  0
    1.9285   11.3335   10.4372 C   0  0  2  0  0  0  0  0  0  0  0  0
    3.0786   10.9931    9.7314 O   0  0  0  0  0  0  0  0  0  0  0  0
    0.6140   10.5627   10.1900 C   0  0  2  0  0  0  0  0  0  0  0  0
    0.9059    9.5455    9.2052 O   0  0  0  0  0  0  0  0  0  0  0  0
   -0.3439   11.5905    9.6843 C   0  0  2  0  0  0  0  0  0  0  0  0
    0.1917   12.7339   10.4417 O   0  0  0  0  0  0  0  0  0  0  0  0
   -1.8207   11.2836   10.1307 C   0  0  0  0  0  0  0  0  0  0  0  0
   -2.7974   12.2401    9.6206 O   0  0  0  0  0  0  0  0  0  0  0  0
   -0.0285    8.4278    9.1135 C   0  0  2  0  0  0  0  0  0  0  0  0
    0.3689    7.3333   10.2353 C   0  0  2  0  0  0  0  0  0  0  0  0
    1.7841    6.8920   10.0137 N   0  0  0  0  0  0  0  0  0  0  0  0
   -0.6666    6.1083   10.1301 C   0  0  1  0  0  0  0  0  0  0  0  0
   -2.0039    6.6502   10.3529 O   0  0  0  0  0  0  0  0  0  0  0  0
   -0.5514    5.4387    8.6869 C   0  0  2  0  0  0  0  0  0  0  0  0
    0.8209    4.9035    8.5431 O   0  0  0  0  0  0  0  0  0  0  0  0
   -0.9001    6.5754    7.5697 C   0  0  1  0  0  0  0  0  0  0  0  0
    0.0358    7.7471    7.7309 O   0  0  0  0  0  0  0  0  0  0  0  0
   -0.7795    5.9563    6.1377 C   0  0  0  0  0  0  0  0  0  0  0  0
    0.6397    5.7721    5.7028 N   0  0  0  0  0  0  0  0  0  0  0  0
  1  3  1  0  0  0  0
  1  2  1  6  0  0  0
  3  4  1  6  0  0  0
  3  5  1  0  0  0  0
  5  6  1  1  0  0  0
  7  8  1  6  0  0  0
  7  5  1  0  0  0  0
  9 11  1  1  0  0  0
  9  7  1  0  0  0  0
 10  9  1  0  0  0  0
 10  1  1  0  0  0  0
 12 11  1  0  0  0  0
 13 14  1  6  0  0  0
 15 13  1  0  0  0  0
 16 17  1  6  0  0  0
 16 15  1  0  0  0  0
 18  2  1  1  0  0  0
 18 19  1  0  0  0  0
 18 16  1  0  0  0  0
 19 20  1  6  0  0  0
 19 21  1  0  0  0  0
 21 22  1  1  0  0  0
 21 13  1  0  0  0  0
 23 20  1  1  0  0  0
 23 29  1  0  0  0  0
 24 25  1  6  0  0  0
 24 26  1  0  0  0  0
 24 23  1  0  0  0  0
 26 27  1  6  0  0  0
 26 28  1  0  0  0  0
 28 30  1  1  0  0  0
 29 28  1  0  0  0  0
 30 31  1  0  0  0  0
 32 27  1  6  0  0  0
 32 40  1  0  0  0  0
 33 35  1  0  0  0  0
 33 32  1  0  0  0  0
 33 34  1  6  0  0  0
 35 36  1  6  0  0  0
 35 37  1  0  0  0  0
 37 38  1  6  0  0  0
 37 39  1  0  0  0  0
 39 41  1  6  0  0  0
 40 39  1  0  0  0  0
 41 42  1  0  0  0  0
M  END
>  <CHROM.1>
-150.18397615,-146.35963149,98.52679412,-167.96896900,-150.73319349,160.90648902
-178.08436000,-83.87290220,-75.37402199,1.70267285,12.03965953,10.64540150
-1.08404886,0.66501316,-3.01245151

>  <Name>
lig.pdb

>  <RI>
0

>  <Rbt.Current_Directory>
/home/itssahil/PROJECTS/Mol_Feturizer/New_Systems/rnas/4wcr

>  <Rbt.Executable>
rbdock ($Id: //depot/dev/client3/rdock/2013.1/src/exe/rbdock.cxx#4 $)

>  <Rbt.Library>
libRbt.so (2013.1, Build901 2013/11/27)

>  <Rbt.Parameter_File>
/export/apps/rDock/src/rDock_2013.1_src/data/scripts/dock_solv.prm

>  <Rbt.Receptor>
prm/blind_docking_80.prm

>  <SCORE>
7.72392

>  <SCORE.INTER>
-5.47687

>  <SCORE.INTER.CONST>
1

>  <SCORE.INTER.POLAR>
0

>  <SCORE.INTER.ROT>
9

>  <SCORE.INTER.SOLV>
31.1669

>  <SCORE.INTER.VDW>
-23.6402

>  <SCORE.INTER.norm>
-0.130402

>  <SCORE.INTRA>
4.67654

>  <SCORE.INTRA.DIHEDRAL>
5.12638

>  <SCORE.INTRA.DIHEDRAL.0>
16.2863

>  <SCORE.INTRA.POLAR>
0

>  <SCORE.INTRA.POLAR.0>
0

>  <SCORE.INTRA.REPUL>
-0.314433

>  <SCORE.INTRA.REPUL.0>
0.314433

>  <SCORE.INTRA.SOLV>
-1.36719

>  <SCORE.INTRA.SOLV.lig_0>
-103.824

>  <SCORE.INTRA.VDW>
4.36911

>  <SCORE.INTRA.VDW.0>
-5.30945

>  <SCORE.INTRA.norm>
0.111346

>  <SCORE.RESTR>
8.52426

>  <SCORE.RESTR.CAVITY>
8.52426

>  <SCORE.RESTR.norm>
0.202958

>  <SCORE.SYSTEM>
0

>  <SCORE.SYSTEM.CONST>
0

>  <SCORE.SYSTEM.DIHEDRAL>
0

>  <SCORE.SYSTEM.SOLV>
0

>  <SCORE.SYSTEM.norm>
0

>  <SCORE.heavy>
42

>  <SCORE.norm>
0.183903

>  <RMSD>
26.893

$$$$
lig.pdb
 OpenBabel11021811513D
libRbt.so/2013.1/901 2013/11/27
 42 45  0  0  0  0  0  0  0  0999 V2000
    1.2381   10.0464    8.8826 C   0  0  2  0  0  0  0  0  0  0  0  0
    1.8059   10.1939   10.2216 O   0  0  0  0  0  0  0  0  0  0  0  0
   -0.1538   10.8225    8.9035 C   0  0  2  0  0  0  0  0  0  0  0  0
    0.0617   12.2464    9.1751 N   0  0  0  0  0  0  0  0  0  0  0  0
   -1.1124   10.1351    9.9936 C   0  0  1  0  0  0  0  0  0  0  0  0
   -2.3956   10.7932   10.0474 O   0  0  0  0  0  0  0  0  0  0  0  0
   -1.2519    8.6530    9.6059 C   0  0  2  0  0  0  0  0  0  0  0  0
   -2.0744    8.0252   10.5295 O   0  0  0  0  0  0  0  0  0  0  0  0
    0.1875    7.9640    9.5642 C   0  0  2  0  0  0  0  0  0  0  0  0
    1.0444    8.6066    8.6121 O   0  0  0  0  0  0  0  0  0  0  0  0
    0.1084    6.5162    9.1708 C   0  0  0  0  0  0  0  0  0  0  0  0
   -0.1850    5.7637   10.3487 O   0  0  0  0  0  0  0  0  0  0  0  0
    5.4286    8.9896   12.5015 C   0  0  2  0  0  0  0  0  0  0  0  0
    6.7765    8.5565   12.7992 N   0  0  0  0  0  0  0  0  0  0  0  0
    4.7280    7.9605   11.5327 C   0  0  0  0  0  0  0  0  0  0  0  0
    3.2641    8.4103   11.1904 C   0  0  2  0  0  0  0  0  0  0  0  0
    2.6546    7.4362   10.2874 N   0  0  0  0  0  0  0  0  0  0  0  0
    3.2139    9.8467   10.5029 C   0  0  2  0  0  0  0  0  0  0  0  0
    3.8744   10.8565   11.4856 C   0  0  2  0  0  0  0  0  0  0  0  0
    3.7776   12.1827   10.7683 O   0  0  0  0  0  0  0  0  0  0  0  0
    5.4135   10.4208   11.7834 C   0  0  1  0  0  0  0  0  0  0  0  0
    6.1212   11.2705   12.7423 O   0  0  0  0  0  0  0  0  0  0  0  0
    3.6106   13.2171   11.6512 C   0  0  1  0  0  0  0  0  0  0  0  0
    4.8713   13.6791   12.2414 C   0  0  2  0  0  0  0  0  0  0  0  0
    5.2863   12.7082   13.1479 O   0  0  0  0  0  0  0  0  0  0  0  0
    4.4702   15.0830   12.7429 C   0  0  2  0  0  0  0  0  0  0  0  0
    4.6577   15.0831   14.1762 O   0  0  0  0  0  0  0  0  0  0  0  0
    3.0366   15.2341   12.3533 C   0  0  2  0  0  0  0  0  0  0  0  0
    3.0909   14.4262   11.1236 O   0  0  0  0  0  0  0  0  0  0  0  0
    2.6779   16.7269   12.0105 C   0  0  0  0  0  0  0  0  0  0  0  0
    1.3541   17.1317   12.4720 O   0  0  0  0  0  0  0  0  0  0  0  0
    4.7955   16.3840   14.8240 C   0  0  2  0  0  0  0  0  0  0  0  0
    4.8103   16.1609   16.4253 C   0  0  2  0  0  0  0  0  0  0  0  0
    3.5472   15.4675   16.8380 N   0  0  0  0  0  0  0  0  0  0  0  0
    4.9660   17.5970   17.1305 C   0  0  1  0  0  0  0  0  0  0  0  0
    6.2164   18.1811   16.6541 O   0  0  0  0  0  0  0  0  0  0  0  0
    3.7198   18.5152   16.7452 C   0  0  2  0  0  0  0  0  0  0  0  0
    2.4982   17.8667   17.2718 O   0  0  0  0  0  0  0  0  0  0  0  0
    3.6915   18.6789   15.1222 C   0  0  1  0  0  0  0  0  0  0  0  0
    3.6174   17.3175   14.4775 O   0  0  0  0  0  0  0  0  0  0  0  0
    2.4683   19.5618   14.7063 C   0  0  0  0  0  0  0  0  0  0  0  0
    1.1550   18.9242   15.0321 N   0  0  0  0  0  0  0  0  0  0  0  0
  1  3  1  0  0  0  0
  1  2  1  1  0  0  0
  3  4  1  1  0  0  0
  3  5  1  0  0  0  0
  5  6  1  6  0  0  0
  7  8  1  1  0  0  0
  7  5  1  0  0  0  0
  9 11  1  6  0  0  0
  9  7  1  0  0  0  0
 10  9  1  0  0  0  0
 10  1  1  0  0  0  0
 12 11  1  0  0  0  0
 13 14  1  6  0  0  0
 15 13  1  0  0  0  0
 16 17  1  6  0  0  0
 16 15  1  0  0  0  0
 18  2  1  1  0  0  0
 18 19  1  0  0  0  0
 18 16  1  0  0  0  0
 19 20  1  6  0  0  0
 19 21  1  0  0  0  0
 21 22  1  1  0  0  0
 21 13  1  0  0  0  0
 23 20  1  6  0  0  0
 23 29  1  0  0  0  0
 24 25  1  1  0  0  0
 24 26  1  0  0  0  0
 24 23  1  0  0  0  0
 26 27  1  1  0  0  0
 26 28  1  0  0  0  0
 28 30  1  6  0  0  0
 29 28  1  0  0  0  0
 30 31  1  0  0  0  0
 32 27  1  6  0  0  0
 32 40  1  0  0  0  0
 33 35  1  0  0  0  0
 33 32  1  0  0  0  0
 33 34  1  1  0  0  0
 35 36  1  6  0  0  0
 35 37  1  0  0  0  0
 37 38  1  6  0  0  0
 37 39  1  0  0  0  0
 39 41  1  1  0  0  0
 40 39  1  0  0  0  0
 41 42  1  0  0  0  0
M  END
>  <CHROM.1>
-167.18456094,-83.96101050,-100.53534185,146.89027256,82.44189477,159.43930844
-141.70745474,173.11338091,-64.49522916,2.76476961,12.71248468,12.32933417
1.86503349,0.39707759,-2.71887529

>  <Name>
lig.pdb

>  <RI>
0

>  <Rbt.Current_Directory>
/home/itssahil/PROJECTS/Mol_Feturizer/New_Systems/rnas/4wcr

>  <Rbt.Executable>
rbdock ($Id: //depot/dev/client3/rdock/2013.1/src/exe/rbdock.cxx#4 $)

>  <Rbt.Library>
libRbt.so (2013.1, Build901 2013/11/27)

>  <Rbt.Parameter_File>
/export/apps/rDock/src/rDock_2013.1_src/data/scripts/dock_solv.prm

>  <Rbt.Receptor>
prm/blind_docking_40.prm

>  <SCORE>
12.8785

>  <SCORE.INTER>
-14.0592

>  <SCORE.INTER.CONST>
1

>  <SCORE.INTER.POLAR>
0

>  <SCORE.INTER.ROT>
9

>  <SCORE.INTER.SOLV>
26.7643

>  <SCORE.INTER.VDW>
-27.8942

>  <SCORE.INTER.norm>
-0.334742

>  <SCORE.INTRA>
20.9768

>  <SCORE.INTRA.DIHEDRAL>
3.96096

>  <SCORE.INTRA.DIHEDRAL.0>
16.2863

>  <SCORE.INTRA.POLAR>
0

>  <SCORE.INTRA.POLAR.0>
0

>  <SCORE.INTRA.REPUL>
-0.31028

>  <SCORE.INTRA.REPUL.0>
0.314433

>  <SCORE.INTRA.SOLV>
3.06258

>  <SCORE.INTRA.SOLV.lig_0>
-103.824

>  <SCORE.INTRA.VDW>
19.0164

>  <SCORE.INTRA.VDW.0>
-5.30945

>  <SCORE.INTRA.norm>
0.499448

>  <SCORE.RESTR>
5.96088

>  <SCORE.RESTR.CAVITY>
5.96088

>  <SCORE.RESTR.norm>
0.141926

>  <SCORE.SYSTEM>
0

>  <SCORE.SYSTEM.CONST>
0

>  <SCORE.SYSTEM.DIHEDRAL>
0

>  <SCORE.SYSTEM.SOLV>
0

>  <SCORE.SYSTEM.norm>
0

>  <SCORE.heavy>
42

>  <SCORE.norm>
0.306632

>  <RMSD>
26.923

$$$$
lig.pdb
 OpenBabel11021811513D
libRbt.so/2013.1/901 2013/11/27
 42 45  0  0  0  0  0  0  0  0999 V2000
    0.5917   10.4819   10.2022 C   0  0  2  0  0  0  0  0  0  0  0  0
    1.7726   10.8841    9.4400 O   0  0  0  0  0  0  0  0  0  0  0  0
    0.2054    9.0249    9.6846 C   0  0  2  0  0  0  0  0  0  0  0  0
    1.2933    8.0822    9.9594 N   0  0  0  0  0  0  0  0  0  0  0  0
   -0.1443    9.1085    8.1192 C   0  0  1  0  0  0  0  0  0  0  0  0
   -0.5135    7.8142    7.5983 O   0  0  0  0  0  0  0  0  0  0  0  0
   -1.2850   10.1285    7.9622 C   0  0  2  0  0  0  0  0  0  0  0  0
   -1.6131   10.2284    6.6183 O   0  0  0  0  0  0  0  0  0  0  0  0
   -0.8325   11.5443    8.5447 C   0  0  2  0  0  0  0  0  0  0  0  0
   -0.4914   11.4505    9.9334 O   0  0  0  0  0  0  0  0  0  0  0  0
   -1.9207   12.5740    8.4324 C   0  0  0  0  0  0  0  0  0  0  0  0
   -1.9611   13.0138    7.0742 O   0  0  0  0  0  0  0  0  0  0  0  0
    4.8645   11.0890   12.6291 C   0  0  2  0  0  0  0  0  0  0  0  0
    6.1358   11.2839   13.2916 N   0  0  0  0  0  0  0  0  0  0  0  0
    5.0210   10.0599   11.4437 C   0  0  0  0  0  0  0  0  0  0  0  0
    3.6550    9.8341   10.7050 C   0  0  2  0  0  0  0  0  0  0  0  0
    3.8446    8.8823    9.6123 N   0  0  0  0  0  0  0  0  0  0  0  0
    3.0549   11.1844   10.1092 C   0  0  2  0  0  0  0  0  0  0  0  0
    2.8714   12.1753   11.2949 C   0  0  2  0  0  0  0  0  0  0  0  0
    2.2945   13.4144   10.6511 O   0  0  0  0  0  0  0  0  0  0  0  0
    4.3034   12.4570   12.0143 C   0  0  1  0  0  0  0  0  0  0  0  0
    4.2450   13.3361   13.1830 O   0  0  0  0  0  0  0  0  0  0  0  0
    2.2316   14.4558   11.5393 C   0  0  1  0  0  0  0  0  0  0  0  0
    3.0958   15.5814   11.1687 C   0  0  2  0  0  0  0  0  0  0  0  0
    4.4103   15.1930   11.4094 O   0  0  0  0  0  0  0  0  0  0  0  0
    2.4656   16.7259   11.9910 C   0  0  2  0  0  0  0  0  0  0  0  0
    3.4878   17.2008   12.8961 O   0  0  0  0  0  0  0  0  0  0  0  0
    1.3158   16.0963   12.7060 C   0  0  2  0  0  0  0  0  0  0  0  0
    0.9766   15.1015   11.6748 O   0  0  0  0  0  0  0  0  0  0  0  0
    0.1258   17.1060   12.9030 C   0  0  0  0  0  0  0  0  0  0  0  0
   -0.5185   17.5023   11.6552 O   0  0  0  0  0  0  0  0  0  0  0  0
    3.8449   16.3241   14.0073 C   0  0  2  0  0  0  0  0  0  0  0  0
    3.3291   17.0016   15.3818 C   0  0  2  0  0  0  0  0  0  0  0  0
    3.9492   18.3586   15.5253 N   0  0  0  0  0  0  0  0  0  0  0  0
    3.7228   16.0287   16.5993 C   0  0  1  0  0  0  0  0  0  0  0  0
    3.0760   14.7430   16.3539 O   0  0  0  0  0  0  0  0  0  0  0  0
    5.3090   15.8710   16.6609 C   0  0  2  0  0  0  0  0  0  0  0  0
    5.8880   17.2071   16.9251 O   0  0  0  0  0  0  0  0  0  0  0  0
    5.8126   15.2400   15.2431 C   0  0  1  0  0  0  0  0  0  0  0  0
    5.3718   16.1300   14.1081 O   0  0  0  0  0  0  0  0  0  0  0  0
    7.3698   15.0875   15.2617 C   0  0  0  0  0  0  0  0  0  0  0  0
    7.8591   14.0167   14.3391 N   0  0  0  0  0  0  0  0  0  0  0  0
  1  3  1  0  0  0  0
  1  2  1  6  0  0  0
  3  4  1  6  0  0  0
  3  5  1  0  0  0  0
  5  6  1  1  0  0  0
  7  8  1  6  0  0  0
  7  5  1  0  0  0  0
  9 11  1  1  0  0  0
  9  7  1  0  0  0  0
 10  9  1  0  0  0  0
 10  1  1  0  0  0  0
 12 11  1  0  0  0  0
 13 14  1  6  0  0  0
 15 13  1  0  0  0  0
 16 17  1  6  0  0  0
 16 15  1  0  0  0  0
 18  2  1  1  0  0  0
 18 19  1  0  0  0  0
 18 16  1  0  0  0  0
 19 20  1  6  0  0  0
 19 21  1  0  0  0  0
 21 22  1  1  0  0  0
 21 13  1  0  0  0  0
 23 20  1  6  0  0  0
 23 29  1  0  0  0  0
 24 25  1  1  0  0  0
 24 26  1  0  0  0  0
 24 23  1  0  0  0  0
 26 27  1  1  0  0  0
 26 28  1  0  0  0  0
 28 30  1  6  0  0  0
 29 28  1  0  0  0  0
 30 31  1  0  0  0  0
 32 27  1  6  0  0  0
 32 40  1  0  0  0  0
 33 35  1  0  0  0  0
 33 32  1  0  0  0  0
 33 34  1  1  0  0  0
 35 36  1  6  0  0  0
 35 37  1  0  0  0  0
 37 38  1  6  0  0  0
 37 39  1  0  0  0  0
 39 41  1  1  0  0  0
 40 39  1  0  0  0  0
 41 42  1  0  0  0  0
M  END
>  <CHROM.1>
-119.08241413,-77.21513864,68.74750961,-172.15685926,115.52399665,-71.55802234
66.92984542,-110.83325634,154.51919290,2.55229428,13.33726276,11.80653277
-2.17574357,-0.56959290,0.46763065

>  <Name>
lig.pdb

>  <RI>
0

>  <Rbt.Current_Directory>
/home/itssahil/PROJECTS/Mol_Feturizer/New_Systems/rnas/4wcr

>  <Rbt.Executable>
rbdock ($Id: //depot/dev/client3/rdock/2013.1/src/exe/rbdock.cxx#4 $)

>  <Rbt.Library>
libRbt.so (2013.1, Build901 2013/11/27)

>  <Rbt.Parameter_File>
/export/apps/rDock/src/rDock_2013.1_src/data/scripts/dock_solv.prm

>  <Rbt.Receptor>
prm/blind_docking_80.prm

>  <SCORE>
6.79718

>  <SCORE.INTER>
-5.50962

>  <SCORE.INTER.CONST>
1

>  <SCORE.INTER.POLAR>
0

>  <SCORE.INTER.ROT>
9

>  <SCORE.INTER.SOLV>
32.0878

>  <SCORE.INTER.VDW>
-23.969

>  <SCORE.INTER.norm>
-0.131181

>  <SCORE.INTRA>
6.30481

>  <SCORE.INTRA.DIHEDRAL>
9.71173

>  <SCORE.INTRA.DIHEDRAL.0>
16.2863

>  <SCORE.INTRA.POLAR>
0

>  <SCORE.INTRA.POLAR.0>
0

>  <SCORE.INTRA.REPUL>
-0.198921

>  <SCORE.INTRA.REPUL.0>
0.314433

>  <SCORE.INTRA.SOLV>
2.10296

>  <SCORE.INTRA.SOLV.lig_0>
-103.824

>  <SCORE.INTRA.VDW>
1.39207

>  <SCORE.INTRA.VDW.0>
-5.30945

>  <SCORE.INTRA.norm>
0.150114

>  <SCORE.RESTR>
6.00199

>  <SCORE.RESTR.CAVITY>
6.00199

>  <SCORE.RESTR.norm>
0.142904

>  <SCORE.SYSTEM>
0

>  <SCORE.SYSTEM.CONST>
0

>  <SCORE.SYSTEM.DIHEDRAL>
0

>  <SCORE.SYSTEM.SOLV>
0

>  <SCORE.SYSTEM.norm>
0

>  <SCORE.heavy>
42

>  <SCORE.norm>
0.161838

>  <RMSD>
26.955

$$$$
lig.pdb
 OpenBabel11021811513D
libRbt.so/2013.1/901 2013/11/27
 42 45  0  0  0  0  0  0  0  0999 V2000
    3.9284   13.6412   13.0368 C   0  0  2  0  0  0  0  0  0  0  0  0
    4.4388   14.4853   11.9578 O   0  0  0  0  0  0  0  0  0  0  0  0
    5.1321   13.4615   14.0659 C   0  0  2  0  0  0  0  0  0  0  0  0
    5.5245   14.7595   14.6217 N   0  0  0  0  0  0  0  0  0  0  0  0
    6.3490   12.7300   13.3150 C   0  0  1  0  0  0  0  0  0  0  0  0
    7.4664   12.5307   14.2063 O   0  0  0  0  0  0  0  0  0  0  0  0
    5.8117   11.3943   12.7732 C   0  0  2  0  0  0  0  0  0  0  0  0
    6.8383   10.7339   12.1148 O   0  0  0  0  0  0  0  0  0  0  0  0
    4.5831   11.6613   11.7895 C   0  0  2  0  0  0  0  0  0  0  0  0
    3.5171   12.3436   12.4617 O   0  0  0  0  0  0  0  0  0  0  0  0
    4.0080   10.3841   11.2461 C   0  0  0  0  0  0  0  0  0  0  0  0
    4.2343    9.3609   12.2165 O   0  0  0  0  0  0  0  0  0  0  0  0
    1.6297   17.6539   10.6008 C   0  0  2  0  0  0  0  0  0  0  0  0
    0.8030   18.4726    9.7411 N   0  0  0  0  0  0  0  0  0  0  0  0
    3.1159   17.6379   10.0719 C   0  0  0  0  0  0  0  0  0  0  0  0
    4.0335   16.7518   10.9859 C   0  0  2  0  0  0  0  0  0  0  0  0
    5.3964   16.7579   10.4586 N   0  0  0  0  0  0  0  0  0  0  0  0
    3.5269   15.2440   11.0775 C   0  0  2  0  0  0  0  0  0  0  0  0
    2.0746   15.2739   11.6355 C   0  0  2  0  0  0  0  0  0  0  0  0
    1.6767   13.8178   11.6998 O   0  0  0  0  0  0  0  0  0  0  0  0
    1.1140   16.1386   10.6470 C   0  0  1  0  0  0  0  0  0  0  0  0
   -0.2699   16.2824   11.1013 O   0  0  0  0  0  0  0  0  0  0  0  0
    0.9202   13.4584   10.6154 C   0  0  1  0  0  0  0  0  0  0  0  0
    0.9521   12.0175   10.3436 C   0  0  2  0  0  0  0  0  0  0  0  0
    2.2064   11.7212    9.8187 O   0  0  0  0  0  0  0  0  0  0  0  0
   -0.3099   11.8497    9.4703 C   0  0  2  0  0  0  0  0  0  0  0  0
    0.1335   11.3502    8.1883 O   0  0  0  0  0  0  0  0  0  0  0  0
   -0.8975   13.2193    9.3786 C   0  0  2  0  0  0  0  0  0  0  0  0
   -0.4751   13.6933   10.7070 O   0  0  0  0  0  0  0  0  0  0  0  0
   -2.4674   13.1774    9.2876 C   0  0  0  0  0  0  0  0  0  0  0  0
   -3.0803   14.4927    9.1347 O   0  0  0  0  0  0  0  0  0  0  0  0
    0.5478    9.9515    8.1321 C   0  0  2  0  0  0  0  0  0  0  0  0
   -0.4579    9.0811    9.0513 C   0  0  2  0  0  0  0  0  0  0  0  0
   -0.4283    9.6117   10.4528 N   0  0  0  0  0  0  0  0  0  0  0  0
    0.0027    7.5426    8.9809 C   0  0  1  0  0  0  0  0  0  0  0  0
   -0.0560    7.1358    7.5799 O   0  0  0  0  0  0  0  0  0  0  0  0
    1.4838    7.4053    9.5571 C   0  0  2  0  0  0  0  0  0  0  0  0
    1.4586    7.8203   10.9774 O   0  0  0  0  0  0  0  0  0  0  0  0
    2.4704    8.3362    8.6505 C   0  0  1  0  0  0  0  0  0  0  0  0
    1.9805    9.7625    8.6713 O   0  0  0  0  0  0  0  0  0  0  0  0
    3.9324    8.2391    9.1996 C   0  0  0  0  0  0  0  0  0  0  0  0
    4.0145    7.5170   10.5069 N   0  0  0  0  0  0  0  0  0  0  0  0
  1  3  1  0  0  0  0
  1  2  1  6  0  0  0
  3  4  1  6  0  0  0
  3  5  1  0  0  0  0
  5  6  1  1  0  0  0
  7  8  1  6  0  0  0
  7  5  1  0  0  0  0
  9 11  1  1  0  0  0
  9  7  1  0  0  0  0
 10  9  1  0  0  0  0
 10  1  1  0  0  0  0
 12 11  1  0  0  0  0
 13 14  1  6  0  0  0
 15 13  1  0  0  0  0
 16 17  1  6  0  0  0
 16 15  1  0  0  0  0
 18  2  1  1  0  0  0
 18 19  1  0  0  0  0
 18 16  1  0  0  0  0
 19 20  1  6  0  0  0
 19 21  1  0  0  0  0
 21 22  1  1  0  0  0
 21 13  1  0  0  0  0
 23 20  1  1  0  0  0
 23 29  1  0  0  0  0
 24 25  1  6  0  0  0
 24 26  1  0  0  0  0
 24 23  1  0  0  0  0
 26 27  1  6  0  0  0
 26 28  1  0  0  0  0
 28 30  1  1  0  0  0
 29 28  1  0  0  0  0
 30 31  1  0  0  0  0
 32 27  1  1  0  0  0
 32 40  1  0  0  0  0
 33 35  1  0  0  0  0
 33 32  1  0  0  0  0
 33 34  1  1  0  0  0
 35 36  1  6  0  0  0
 35 37  1  0  0  0  0
 37 38  1  1  0  0  0
 37 39  1  0  0  0  0
 39 41  1  1  0  0  0
 40 39  1  0  0  0  0
 41 42  1  0  0  0  0
M  END
>  <CHROM.1>
-158.72561262,28.81600168,131.11182972,-98.78530313,157.30166653,73.91977298
-177.34989683,39.50613313,-9.04561628,2.30036567,12.32653432,10.72848464
-1.19335639,0.49866646,-2.98021335

>  <Name>
lig.pdb

>  <RI>
0

>  <Rbt.Current_Directory>
/home/itssahil/PROJECTS/Mol_Feturizer/New_Systems/rnas/4wcr

>  <Rbt.Executable>
rbdock ($Id: //depot/dev/client3/rdock/2013.1/src/exe/rbdock.cxx#4 $)

>  <Rbt.Library>
libRbt.so (2013.1, Build901 2013/11/27)

>  <Rbt.Parameter_File>
/export/apps/rDock/src/rDock_2013.1_src/data/scripts/dock_solv.prm

>  <Rbt.Receptor>
prm/blind_docking_20.prm

>  <SCORE>
59.8544

>  <SCORE.INTER>
2.71645

>  <SCORE.INTER.CONST>
1

>  <SCORE.INTER.POLAR>
0

>  <SCORE.INTER.ROT>
9

>  <SCORE.INTER.SOLV>
22.0302

>  <SCORE.INTER.VDW>
-15.1324

>  <SCORE.INTER.norm>
0.0646774

>  <SCORE.INTRA>
20.6098

>  <SCORE.INTRA.DIHEDRAL>
10.8422

>  <SCORE.INTRA.DIHEDRAL.0>
16.2863

>  <SCORE.INTRA.POLAR>
0

>  <SCORE.INTRA.POLAR.0>
0

>  <SCORE.INTRA.REPUL>
-0.314433

>  <SCORE.INTRA.REPUL.0>
0.314433

>  <SCORE.INTRA.SOLV>
4.90294

>  <SCORE.INTRA.SOLV.lig_0>
-103.824

>  <SCORE.INTRA.VDW>
14.3094

>  <SCORE.INTRA.VDW.0>
-5.30945

>  <SCORE.INTRA.norm>
0.490709

>  <SCORE.RESTR>
36.5282

>  <SCORE.RESTR.CAVITY>
36.5282

>  <SCORE.RESTR.norm>
0.869718

>  <SCORE.SYSTEM>
0

>  <SCORE.SYSTEM.CONST>
0

>  <SCORE.SYSTEM.DIHEDRAL>
0

>  <SCORE.SYSTEM.SOLV>
0

>  <SCORE.SYSTEM.norm>
0

>  <SCORE.heavy>
42

>  <SCORE.norm>
1.4251

>  <RMSD>
26.964

$$$$
lig.pdb
 OpenBabel11021811513D
libRbt.so/2013.1/901 2013/11/27
 42 45  0  0  0  0  0  0  0  0999 V2000
    2.2177    8.7056   10.9743 C   0  0  2  0  0  0  0  0  0  0  0  0
    1.8025    9.6139    9.9067 O   0  0  0  0  0  0  0  0  0  0  0  0
    3.7777    8.9541   11.1858 C   0  0  2  0  0  0  0  0  0  0  0  0
    4.0195   10.3346   11.6143 N   0  0  0  0  0  0  0  0  0  0  0  0
    4.5473    8.5986    9.8216 C   0  0  1  0  0  0  0  0  0  0  0  0
    5.9702    8.7955    9.9599 O   0  0  0  0  0  0  0  0  0  0  0  0
    4.2087    7.1383    9.4761 C   0  0  2  0  0  0  0  0  0  0  0  0
    4.8568    6.7960    8.2986 O   0  0  0  0  0  0  0  0  0  0  0  0
    2.6285    6.9671    9.3270 C   0  0  2  0  0  0  0  0  0  0  0  0
    1.9504    7.3187   10.5395 O   0  0  0  0  0  0  0  0  0  0  0  0
    2.2425    5.5508    9.0075 C   0  0  0  0  0  0  0  0  0  0  0  0
    2.5940    4.7429   10.1316 O   0  0  0  0  0  0  0  0  0  0  0  0
   -1.3194   12.6965    9.1830 C   0  0  2  0  0  0  0  0  0  0  0  0
   -2.3043   13.7288    9.4227 N   0  0  0  0  0  0  0  0  0  0  0  0
   -1.6620   11.4106   10.0303 C   0  0  0  0  0  0  0  0  0  0  0  0
   -0.6047   10.2759    9.7912 C   0  0  2  0  0  0  0  0  0  0  0  0
   -0.9537    9.1082   10.5977 N   0  0  0  0  0  0  0  0  0  0  0  0
    0.8745   10.7336   10.1666 C   0  0  2  0  0  0  0  0  0  0  0  0
    1.2114   11.9790    9.2965 C   0  0  2  0  0  0  0  0  0  0  0  0
    2.6211   12.3397    9.7033 O   0  0  0  0  0  0  0  0  0  0  0  0
    0.1509   13.1753    9.5993 C   0  0  1  0  0  0  0  0  0  0  0  0
    0.3367   14.3835    8.7944 O   0  0  0  0  0  0  0  0  0  0  0  0
    2.6399   13.0128   10.8966 C   0  0  1  0  0  0  0  0  0  0  0  0
    3.9443   13.6109   11.1995 C   0  0  2  0  0  0  0  0  0  0  0  0
    4.8075   12.5742   11.5417 O   0  0  0  0  0  0  0  0  0  0  0  0
    3.5513   14.6683   12.2534 C   0  0  2  0  0  0  0  0  0  0  0  0
    4.2551   14.3272   13.4690 O   0  0  0  0  0  0  0  0  0  0  0  0
    2.0704   14.5377   12.3937 C   0  0  2  0  0  0  0  0  0  0  0  0
    1.7855   14.1392   11.0052 O   0  0  0  0  0  0  0  0  0  0  0  0
    1.3894   15.9186   12.7161 C   0  0  0  0  0  0  0  0  0  0  0  0
    1.4020   16.8533   11.5957 O   0  0  0  0  0  0  0  0  0  0  0  0
    4.8066   15.4336   14.2453 C   0  0  2  0  0  0  0  0  0  0  0  0
    5.5577   14.8265   15.5421 C   0  0  2  0  0  0  0  0  0  0  0  0
    4.5818   14.0194   16.3438 N   0  0  0  0  0  0  0  0  0  0  0  0
    6.1649   16.0504   16.3890 C   0  0  1  0  0  0  0  0  0  0  0  0
    7.0890   16.7668   15.5146 O   0  0  0  0  0  0  0  0  0  0  0  0
    4.9788   17.0008   16.8730 C   0  0  2  0  0  0  0  0  0  0  0  0
    4.0975   16.2106   17.7612 O   0  0  0  0  0  0  0  0  0  0  0  0
    4.2000   17.5554   15.5509 C   0  0  1  0  0  0  0  0  0  0  0  0
    3.7000   16.3912   14.7327 O   0  0  0  0  0  0  0  0  0  0  0  0
    3.0161   18.4797   15.9899 C   0  0  0  0  0  0  0  0  0  0  0  0
    1.9431   18.5803   14.9528 N   0  0  0  0  0  0  0  0  0  0  0  0
  1  3  1  0  0  0  0
  1  2  1  6  0  0  0
  3  4  1  6  0  0  0
  3  5  1  0  0  0  0
  5  6  1  1  0  0  0
  7  8  1  6  0  0  0
  7  5  1  0  0  0  0
  9 11  1  1  0  0  0
  9  7  1  0  0  0  0
 10  9  1  0  0  0  0
 10  1  1  0  0  0  0
 12 11  1  0  0  0  0
 13 14  1  1  0  0  0
 15 13  1  0  0  0  0
 16 17  1  1  0  0  0
 16 15  1  0  0  0  0
 18  2  1  6  0  0  0
 18 19  1  0  0  0  0
 18 16  1  0  0  0  0
 19 20  1  1  0  0  0
 19 21  1  0  0  0  0
 21 22  1  6  0  0  0
 21 13  1  0  0  0  0
 23 20  1  6  0  0  0
 23 29  1  0  0  0  0
 24 25  1  1  0  0  0
 24 26  1  0  0  0  0
 24 23  1  0  0  0  0
 26 27  1  1  0  0  0
 26 28  1  0  0  0  0
 28 30  1  6  0  0  0
 29 28  1  0  0  0  0
 30 31  1  0  0  0  0
 32 27  1  1  0  0  0
 32 40  1  0  0  0  0
 33 35  1  0  0  0  0
 33 32  1  0  0  0  0
 33 34  1  1  0  0  0
 35 36  1  6  0  0  0
 35 37  1  0  0  0  0
 37 38  1  1  0  0  0
 37 39  1  0  0  0  0
 39 41  1  1  0  0  0
 40 39  1  0  0  0  0
 41 42  1  0  0  0  0
M  END
>  <CHROM.1>
-113.61786460,65.23792824,-96.28873836,-78.55658171,-168.65182466,140.14131597
70.34778900,-179.39174170,-156.64852188,2.76523133,12.47384979,11.84401478
-1.78368046,-0.56052937,0.47025776

>  <Name>
lig.pdb

>  <RI>
0

>  <Rbt.Current_Directory>
/home/itssahil/PROJECTS/Mol_Feturizer/New_Systems/rnas/4wcr

>  <Rbt.Executable>
rbdock ($Id: //depot/dev/client3/rdock/2013.1/src/exe/rbdock.cxx#4 $)

>  <Rbt.Library>
libRbt.so (2013.1, Build901 2013/11/27)

>  <Rbt.Parameter_File>
/export/apps/rDock/src/rDock_2013.1_src/data/scripts/dock_solv.prm

>  <Rbt.Receptor>
prm/blind_docking_80.prm

>  <SCORE>
14.8061

>  <SCORE.INTER>
-3.63507

>  <SCORE.INTER.CONST>
1

>  <SCORE.INTER.POLAR>
0

>  <SCORE.INTER.ROT>
9

>  <SCORE.INTER.SOLV>
31.5718

>  <SCORE.INTER.VDW>
-22.5473

>  <SCORE.INTER.norm>
-0.0865493

>  <SCORE.INTRA>
9.26511

>  <SCORE.INTRA.DIHEDRAL>
5.54769

>  <SCORE.INTRA.DIHEDRAL.0>
16.2863

>  <SCORE.INTRA.POLAR>
0

>  <SCORE.INTRA.POLAR.0>
0

>  <SCORE.INTRA.REPUL>
-0.277241

>  <SCORE.INTRA.REPUL.0>
0.314433

>  <SCORE.INTRA.SOLV>
1.65033

>  <SCORE.INTRA.SOLV.lig_0>
-103.824

>  <SCORE.INTRA.VDW>
7.0523

>  <SCORE.INTRA.VDW.0>
-5.30945

>  <SCORE.INTRA.norm>
0.220598

>  <SCORE.RESTR>
9.17608

>  <SCORE.RESTR.CAVITY>
9.17608

>  <SCORE.RESTR.norm>
0.218478

>  <SCORE.SYSTEM>
0

>  <SCORE.SYSTEM.CONST>
0

>  <SCORE.SYSTEM.DIHEDRAL>
0

>  <SCORE.SYSTEM.SOLV>
0

>  <SCORE.SYSTEM.norm>
0

>  <SCORE.heavy>
42

>  <SCORE.norm>
0.352527

>  <RMSD>
26.990

$$$$
lig.pdb
 OpenBabel11021811513D
libRbt.so/2013.1/901 2013/11/27
 42 45  0  0  0  0  0  0  0  0999 V2000
    4.3816   15.8418   12.4817 C   0  0  2  0  0  0  0  0  0  0  0  0
    4.3144   14.6662   11.6153 O   0  0  0  0  0  0  0  0  0  0  0  0
    3.5436   15.4782   13.7876 C   0  0  2  0  0  0  0  0  0  0  0  0
    4.1516   14.3397   14.4818 N   0  0  0  0  0  0  0  0  0  0  0  0
    2.0227   15.1872   13.3613 C   0  0  1  0  0  0  0  0  0  0  0  0
    1.2127   14.8624   14.5107 O   0  0  0  0  0  0  0  0  0  0  0  0
    1.5045   16.4433   12.6401 C   0  0  2  0  0  0  0  0  0  0  0  0
    0.1899   16.2268   12.2546 O   0  0  0  0  0  0  0  0  0  0  0  0
    2.4241   16.7621   11.3747 C   0  0  2  0  0  0  0  0  0  0  0  0
    3.7847   16.9873   11.7639 O   0  0  0  0  0  0  0  0  0  0  0  0
    1.9707   17.9943   10.6444 C   0  0  0  0  0  0  0  0  0  0  0  0
    0.6999   17.7069   10.0593 O   0  0  0  0  0  0  0  0  0  0  0  0
    5.0157   10.2960   12.0414 C   0  0  2  0  0  0  0  0  0  0  0  0
    5.0505    8.9647   12.6065 N   0  0  0  0  0  0  0  0  0  0  0  0
    5.7592   11.3107   12.9933 C   0  0  0  0  0  0  0  0  0  0  0  0
    5.7317   12.7649   12.4042 C   0  0  2  0  0  0  0  0  0  0  0  0
    6.4228   13.6727   13.3174 N   0  0  0  0  0  0  0  0  0  0  0  0
    4.2489   13.3006   12.1749 C   0  0  2  0  0  0  0  0  0  0  0  0
    3.5409   12.3106   11.2052 C   0  0  2  0  0  0  0  0  0  0  0  0
    2.1568   12.8917   11.0342 O   0  0  0  0  0  0  0  0  0  0  0  0
    3.5137   10.8180   11.8525 C   0  0  1  0  0  0  0  0  0  0  0  0
    2.9182    9.7868   11.0017 O   0  0  0  0  0  0  0  0  0  0  0  0
    1.5625   12.4371    9.8864 C   0  0  1  0  0  0  0  0  0  0  0  0
    0.9890   11.0947   10.0279 C   0  0  2  0  0  0  0  0  0  0  0  0
    2.0481   10.1931   10.0747 O   0  0  0  0  0  0  0  0  0  0  0  0
    0.0010   11.0648    8.8421 C   0  0  2  0  0  0  0  0  0  0  0  0
    0.4221    9.9872    7.9755 O   0  0  0  0  0  0  0  0  0  0  0  0
    0.1362   12.4044    8.1965 C   0  0  2  0  0  0  0  0  0  0  0  0
    0.4431   13.1697    9.4164 O   0  0  0  0  0  0  0  0  0  0  0  0
   -1.2228   12.8931    7.5729 C   0  0  0  0  0  0  0  0  0  0  0  0
   -1.1112   14.1473    6.8356 O   0  0  0  0  0  0  0  0  0  0  0  0
    0.7513    8.7165    8.6142 C   0  0  2  0  0  0  0  0  0  0  0  0
    0.9975    7.6108    7.4604 C   0  0  2  0  0  0  0  0  0  0  0  0
   -0.2331    7.5019    6.6117 N   0  0  0  0  0  0  0  0  0  0  0  0
    1.3629    6.2163    8.1716 C   0  0  1  0  0  0  0  0  0  0  0  0
    2.5633    6.4391    8.9723 O   0  0  0  0  0  0  0  0  0  0  0  0
    0.1413    5.7507    9.0855 C   0  0  2  0  0  0  0  0  0  0  0  0
   -1.0276    5.5329    8.2043 O   0  0  0  0  0  0  0  0  0  0  0  0
   -0.1258    6.9071   10.2050 C   0  0  1  0  0  0  0  0  0  0  0  0
   -0.3961    8.2228    9.5191 O   0  0  0  0  0  0  0  0  0  0  0  0
   -1.3321    6.4904   11.1105 C   0  0  0  0  0  0  0  0  0  0  0  0
   -2.6550    6.8752   10.5281 N   0  0  0  0  0  0  0  0  0  0  0  0
  1  3  1  0  0  0  0
  1  2  1  6  0  0  0
  3  4  1  6  0  0  0
  3  5  1  0  0  0  0
  5  6  1  1  0  0  0
  7  8  1  6  0  0  0
  7  5  1  0  0  0  0
  9 11  1  1  0  0  0
  9  7  1  0  0  0  0
 10  9  1  0  0  0  0
 10  1  1  0  0  0  0
 12 11  1  0  0  0  0
 13 14  1  1  0  0  0
 15 13  1  0  0  0  0
 16 17  1  1  0  0  0
 16 15  1  0  0  0  0
 18  2  1  6  0  0  0
 18 19  1  0  0  0  0
 18 16  1  0  0  0  0
 19 20  1  1  0  0  0
 19 21  1  0  0  0  0
 21 22  1  6  0  0  0
 21 13  1  0  0  0  0
 23 20  1  1  0  0  0
 23 29  1  0  0  0  0
 24 25  1  6  0  0  0
 24 26  1  0  0  0  0
 24 23  1  0  0  0  0
 26 27  1  6  0  0  0
 26 28  1  0  0  0  0
 28 30  1  1  0  0  0
 29 28  1  0  0  0  0
 30 31  1  0  0  0  0
 32 27  1  6  0  0  0
 32 40  1  0  0  0  0
 33 35  1  0  0  0  0
 33 32  1  0  0  0  0
 33 34  1  1  0  0  0
 35 36  1  1  0  0  0
 35 37  1  0  0  0  0
 37 38  1  6  0  0  0
 37 39  1  0  0  0  0
 39 41  1  6  0  0  0
 40 39  1  0  0  0  0
 41 42  1  0  0  0  0
M  END
>  <CHROM.1>
-32.77735834,-67.25751774,-88.11545477,158.75453620,80.06314516,45.92321481
-175.21816232,172.42441693,-85.38686424,1.81746910,11.74530857,10.61905224
-1.15887105,0.66251592,-3.00846088

>  <Name>
lig.pdb

>  <RI>
0

>  <Rbt.Current_Directory>
/home/itssahil/PROJECTS/Mol_Feturizer/New_Systems/rnas/4wcr

>  <Rbt.Executable>
rbdock ($Id: //depot/dev/client3/rdock/2013.1/src/exe/rbdock.cxx#4 $)

>  <Rbt.Library>
libRbt.so (2013.1, Build901 2013/11/27)

>  <Rbt.Parameter_File>
/export/apps/rDock/src/rDock_2013.1_src/data/scripts/dock_solv.prm

>  <Rbt.Receptor>
prm/blind_docking_80.prm

>  <SCORE>
43.9469

>  <SCORE.INTER>
8.50092

>  <SCORE.INTER.CONST>
1

>  <SCORE.INTER.POLAR>
0

>  <SCORE.INTER.ROT>
9

>  <SCORE.INTER.SOLV>
33.5113

>  <SCORE.INTER.VDW>
-15.1031

>  <SCORE.INTER.norm>
0.202403

>  <SCORE.INTRA>
30.3943

>  <SCORE.INTRA.DIHEDRAL>
-2.1834

>  <SCORE.INTRA.DIHEDRAL.0>
16.2863

>  <SCORE.INTRA.POLAR>
0

>  <SCORE.INTRA.POLAR.0>
0

>  <SCORE.INTRA.REPUL>
-0.314433

>  <SCORE.INTRA.REPUL.0>
0.314433

>  <SCORE.INTRA.SOLV>
3.69161

>  <SCORE.INTRA.SOLV.lig_0>
-103.824

>  <SCORE.INTRA.VDW>
31.2123

>  <SCORE.INTRA.VDW.0>
-5.30945

>  <SCORE.INTRA.norm>
0.723673

>  <SCORE.RESTR>
5.05168

>  <SCORE.RESTR.CAVITY>
5.05168

>  <SCORE.RESTR.norm>
0.120278

>  <SCORE.SYSTEM>
0

>  <SCORE.SYSTEM.CONST>
0

>  <SCORE.SYSTEM.DIHEDRAL>
0

>  <SCORE.SYSTEM.SOLV>
0

>  <SCORE.SYSTEM.norm>
0

>  <SCORE.heavy>
42

>  <SCORE.norm>
1.04635

>  <RMSD>
27.005

$$$$
lig.pdb
 OpenBabel11021811513D
libRbt.so/2013.1/901 2013/11/27
 42 45  0  0  0  0  0  0  0  0999 V2000
    0.8013    9.8062    8.9440 C   0  0  2  0  0  0  0  0  0  0  0  0
    1.4842   10.1272   10.1961 O   0  0  0  0  0  0  0  0  0  0  0  0
   -0.7384   10.1435    9.1800 C   0  0  2  0  0  0  0  0  0  0  0  0
   -0.9090   11.5712    9.4629 N   0  0  0  0  0  0  0  0  0  0  0  0
   -1.2935    9.2185   10.3700 C   0  0  1  0  0  0  0  0  0  0  0  0
   -2.6915    9.4748   10.6199 O   0  0  0  0  0  0  0  0  0  0  0  0
   -1.0505    7.7559    9.9598 C   0  0  2  0  0  0  0  0  0  0  0  0
   -1.5174    6.9257   10.9681 O   0  0  0  0  0  0  0  0  0  0  0  0
    0.5061    7.5156    9.6994 C   0  0  2  0  0  0  0  0  0  0  0  0
    0.9973    8.3696    8.6586 O   0  0  0  0  0  0  0  0  0  0  0  0
    0.7955    6.1034    9.2764 C   0  0  0  0  0  0  0  0  0  0  0  0
    0.5284    5.2543   10.3933 O   0  0  0  0  0  0  0  0  0  0  0  0
    5.5908    9.9429   11.8916 C   0  0  2  0  0  0  0  0  0  0  0  0
    7.0346    9.9230   11.9803 N   0  0  0  0  0  0  0  0  0  0  0  0
    5.0901    8.8119   10.9124 C   0  0  0  0  0  0  0  0  0  0  0  0
    3.5253    8.8152   10.7952 C   0  0  2  0  0  0  0  0  0  0  0  0
    3.1042    7.7602    9.8758 N   0  0  0  0  0  0  0  0  0  0  0  0
    2.9574   10.2082   10.2702 C   0  0  2  0  0  0  0  0  0  0  0  0
    3.4277   11.3077   11.2660 C   0  0  2  0  0  0  0  0  0  0  0  0
    2.8437   12.5835   10.7058 O   0  0  0  0  0  0  0  0  0  0  0  0
    5.0531   11.3435   11.3317 C   0  0  1  0  0  0  0  0  0  0  0  0
    5.6115   12.3067   12.2817 O   0  0  0  0  0  0  0  0  0  0  0  0
    3.0821   13.6481   11.5346 C   0  0  1  0  0  0  0  0  0  0  0  0
    1.8614   14.3680   11.9126 C   0  0  2  0  0  0  0  0  0  0  0  0
    1.4343   15.0777   10.7943 O   0  0  0  0  0  0  0  0  0  0  0  0
    2.3374   15.1238   13.1717 C   0  0  2  0  0  0  0  0  0  0  0  0
    2.1952   16.5345   12.8898 O   0  0  0  0  0  0  0  0  0  0  0  0
    3.7631   14.7163   13.3475 C   0  0  2  0  0  0  0  0  0  0  0  0
    3.6359   13.3530   12.8062 O   0  0  0  0  0  0  0  0  0  0  0  0
    4.1739   14.6650   14.8650 C   0  0  0  0  0  0  0  0  0  0  0  0
    5.5948   14.4106   15.0787 O   0  0  0  0  0  0  0  0  0  0  0  0
    1.9330   17.4119   14.0267 C   0  0  2  0  0  0  0  0  0  0  0  0
    1.9185   18.9412   13.5021 C   0  0  2  0  0  0  0  0  0  0  0  0
    3.2338   19.2523   12.8540 N   0  0  0  0  0  0  0  0  0  0  0  0
    1.6255   19.8999   14.7587 C   0  0  1  0  0  0  0  0  0  0  0  0
    0.3336   19.5059   15.3131 O   0  0  0  0  0  0  0  0  0  0  0  0
    2.7887   19.7314   15.8371 C   0  0  2  0  0  0  0  0  0  0  0  0
    4.0571   20.1615   15.2077 O   0  0  0  0  0  0  0  0  0  0  0  0
    2.8222   18.1699   16.3090 C   0  0  1  0  0  0  0  0  0  0  0  0
    3.0264   17.2823   15.1068 O   0  0  0  0  0  0  0  0  0  0  0  0
    3.9660   17.9641   17.3568 C   0  0  0  0  0  0  0  0  0  0  0  0
    5.3235   18.2498   16.7976 N   0  0  0  0  0  0  0  0  0  0  0  0
  1  3  1  0  0  0  0
  1  2  1  1  0  0  0
  3  4  1  1  0  0  0
  3  5  1  0  0  0  0
  5  6  1  6  0  0  0
  7  8  1  1  0  0  0
  7  5  1  0  0  0  0
  9 11  1  6  0  0  0
  9  7  1  0  0  0  0
 10  9  1  0  0  0  0
 10  1  1  0  0  0  0
 12 11  1  0  0  0  0
 13 14  1  6  0  0  0
 15 13  1  0  0  0  0
 16 17  1  6  0  0  0
 16 15  1  0  0  0  0
 18  2  1  1  0  0  0
 18 19  1  0  0  0  0
 18 16  1  0  0  0  0
 19 20  1  6  0  0  0
 19 21  1  0  0  0  0
 21 22  1  1  0  0  0
 21 13  1  0  0  0  0
 23 20  1  1  0  0  0
 23 29  1  0  0  0  0
 24 25  1  6  0  0  0
 24 26  1  0  0  0  0
 24 23  1  0  0  0  0
 26 27  1  6  0  0  0
 26 28  1  0  0  0  0
 28 30  1  1  0  0  0
 29 28  1  0  0  0  0
 30 31  1  0  0  0  0
 32 27  1  6  0  0  0
 32 40  1  0  0  0  0
 33 35  1  0  0  0  0
 33 32  1  0  0  0  0
 33 34  1  1  0  0  0
 35 36  1  1  0  0  0
 35 37  1  0  0  0  0
 37 38  1  6  0  0  0
 37 39  1  0  0  0  0
 39 41  1  1  0  0  0
 40 39  1  0  0  0  0
 41 42  1  0  0  0  0
M  END
>  <CHROM.1>
-167.18573677,-67.78291580,-96.25291866,175.24345830,-125.51510857,150.54637564
-173.81980545,175.93001505,-62.42095137,2.37494538,12.94289276,12.20952020
1.76756159,0.25754023,-2.73182025

>  <Name>
lig.pdb

>  <RI>
0

>  <Rbt.Current_Directory>
/home/itssahil/PROJECTS/Mol_Feturizer/New_Systems/rnas/4wcr

>  <Rbt.Executable>
rbdock ($Id: //depot/dev/client3/rdock/2013.1/src/exe/rbdock.cxx#4 $)

>  <Rbt.Library>
libRbt.so (2013.1, Build901 2013/11/27)

>  <Rbt.Parameter_File>
/export/apps/rDock/src/rDock_2013.1_src/data/scripts/dock_solv.prm

>  <Rbt.Receptor>
prm/blind_docking_40.prm

>  <SCORE>
2.20617

>  <SCORE.INTER>
-10.8631

>  <SCORE.INTER.CONST>
1

>  <SCORE.INTER.POLAR>
0

>  <SCORE.INTER.ROT>
9

>  <SCORE.INTER.SOLV>
25.5333

>  <SCORE.INTER.VDW>
-25.3532

>  <SCORE.INTER.norm>
-0.258646

>  <SCORE.INTRA>
5.17028

>  <SCORE.INTRA.DIHEDRAL>
0.70238

>  <SCORE.INTRA.DIHEDRAL.0>
16.2863

>  <SCORE.INTRA.POLAR>
0

>  <SCORE.INTRA.POLAR.0>
0

>  <SCORE.INTRA.REPUL>
-0.314433

>  <SCORE.INTRA.REPUL.0>
0.314433

>  <SCORE.INTRA.SOLV>
1.23086

>  <SCORE.INTRA.SOLV.lig_0>
-103.824

>  <SCORE.INTRA.VDW>
5.77582

>  <SCORE.INTRA.VDW.0>
-5.30945

>  <SCORE.INTRA.norm>
0.123102

>  <SCORE.RESTR>
7.89903

>  <SCORE.RESTR.CAVITY>
7.89903

>  <SCORE.RESTR.norm>
0.188072

>  <SCORE.SYSTEM>
0

>  <SCORE.SYSTEM.CONST>
0

>  <SCORE.SYSTEM.DIHEDRAL>
0

>  <SCORE.SYSTEM.SOLV>
0

>  <SCORE.SYSTEM.norm>
0

>  <SCORE.heavy>
42

>  <SCORE.norm>
0.0525279

>  <RMSD>
27.007

$$$$
lig.pdb
 OpenBabel11021811513D
libRbt.so/2013.1/901 2013/11/27
 42 45  0  0  0  0  0  0  0  0999 V2000
    0.7641   14.3321   10.7214 C   0  0  2  0  0  0  0  0  0  0  0  0
    1.4084   13.6966    9.5733 O   0  0  0  0  0  0  0  0  0  0  0  0
    0.3749   15.8046   10.2521 C   0  0  2  0  0  0  0  0  0  0  0  0
   -0.5792   15.7491    9.1411 N   0  0  0  0  0  0  0  0  0  0  0  0
    1.7177   16.5938    9.8599 C   0  0  1  0  0  0  0  0  0  0  0  0
    1.4246   17.9419    9.4365 O   0  0  0  0  0  0  0  0  0  0  0  0
    2.6334   16.5749   11.0959 C   0  0  2  0  0  0  0  0  0  0  0  0
    3.8074   17.2481   10.7924 O   0  0  0  0  0  0  0  0  0  0  0  0
    2.9359   15.0675   11.5255 C   0  0  2  0  0  0  0  0  0  0  0  0
    1.7280   14.3640   11.8410 O   0  0  0  0  0  0  0  0  0  0  0  0
    3.8133   14.9934   12.7428 C   0  0  0  0  0  0  0  0  0  0  0  0
    2.9671   14.7793   13.8732 O   0  0  0  0  0  0  0  0  0  0  0  0
   -1.8108   11.3194    7.6345 C   0  0  2  0  0  0  0  0  0  0  0  0
   -2.4768   10.3153    6.8338 N   0  0  0  0  0  0  0  0  0  0  0  0
   -0.7864   12.1295    6.7496 C   0  0  0  0  0  0  0  0  0  0  0  0
   -0.0465   13.2236    7.5970 C   0  0  2  0  0  0  0  0  0  0  0  0
    0.8960   13.9445    6.7439 N   0  0  0  0  0  0  0  0  0  0  0  0
    0.7502   12.6031    8.8294 C   0  0  2  0  0  0  0  0  0  0  0  0
   -0.2791   11.8395    9.7121 C   0  0  2  0  0  0  0  0  0  0  0  0
    0.5488   11.2954   10.8528 O   0  0  0  0  0  0  0  0  0  0  0  0
   -0.9940   10.6627    8.8452 C   0  0  1  0  0  0  0  0  0  0  0  0
   -2.0258    9.9095    9.5597 O   0  0  0  0  0  0  0  0  0  0  0  0
    1.7537   10.8154   10.4109 C   0  0  1  0  0  0  0  0  0  0  0  0
    2.8184   10.9217   11.4140 C   0  0  2  0  0  0  0  0  0  0  0  0
    3.1635   12.2663   11.5129 O   0  0  0  0  0  0  0  0  0  0  0  0
    3.8414    9.8994   10.8741 C   0  0  2  0  0  0  0  0  0  0  0  0
    5.0536   10.6334   10.5887 O   0  0  0  0  0  0  0  0  0  0  0  0
    3.2093    9.3379    9.6433 C   0  0  2  0  0  0  0  0  0  0  0  0
    1.8100    9.4352   10.0908 O   0  0  0  0  0  0  0  0  0  0  0  0
    3.6065    7.8329    9.4163 C   0  0  0  0  0  0  0  0  0  0  0  0
    3.7355    7.0685   10.6525 O   0  0  0  0  0  0  0  0  0  0  0  0
    6.0279   10.7451   11.6700 C   0  0  2  0  0  0  0  0  0  0  0  0
    6.0625    9.3442   12.4764 C   0  0  2  0  0  0  0  0  0  0  0  0
    4.6898    9.0410   12.9966 N   0  0  0  0  0  0  0  0  0  0  0  0
    7.1399    9.4743   13.6622 C   0  0  1  0  0  0  0  0  0  0  0  0
    8.4288    9.7758   13.0463 O   0  0  0  0  0  0  0  0  0  0  0  0
    6.6939   10.6369   14.6591 C   0  0  2  0  0  0  0  0  0  0  0  0
    5.3927   10.2532   15.2508 O   0  0  0  0  0  0  0  0  0  0  0  0
    6.6100   12.0287   13.8119 C   0  0  1  0  0  0  0  0  0  0  0  0
    5.6484   11.8638   12.6618 O   0  0  0  0  0  0  0  0  0  0  0  0
    6.1571   13.1905   14.7572 C   0  0  0  0  0  0  0  0  0  0  0  0
    6.0424   14.5032   14.0495 N   0  0  0  0  0  0  0  0  0  0  0  0
  1  3  1  0  0  0  0
  1  2  1  6  0  0  0
  3  4  1  6  0  0  0
  3  5  1  0  0  0  0
  5  6  1  1  0  0  0
  7  8  1  6  0  0  0
  7  5  1  0  0  0  0
  9 11  1  1  0  0  0
  9  7  1  0  0  0  0
 10  9  1  0  0  0  0
 10  1  1  0  0  0  0
 12 11  1  0  0  0  0
 13 14  1  6  0  0  0
 15 13  1  0  0  0  0
 16 17  1  6  0  0  0
 16 15  1  0  0  0  0
 18  2  1  1  0  0  0
 18 19  1  0  0  0  0
 18 16  1  0  0  0  0
 19 20  1  1  0  0  0
 19 21  1  0  0  0  0
 21 22  1  1  0  0  0
 21 13  1  0  0  0  0
 23 20  1  1  0  0  0
 23 29  1  0  0  0  0
 24 25  1  6  0  0  0
 24 26  1  0  0  0  0
 24 23  1  0  0  0  0
 26 27  1  6  0  0  0
 26 28  1  0  0  0  0
 28 30  1  1  0  0  0
 29 28  1  0  0  0  0
 30 31  1  0  0  0  0
 32 27  1  6  0  0  0
 32 40  1  0  0  0  0
 33 35  1  0  0  0  0
 33 32  1  0  0  0  0
 33 34  1  1  0  0  0
 35 36  1  6  0  0  0
 35 37  1  0  0  0  0
 37 38  1  6  0  0  0
 37 39  1  0  0  0  0
 39 41  1  1  0  0  0
 40 39  1  0  0  0  0
 41 42  1  0  0  0  0
M  END
>  <CHROM.1>
-110.11300830,98.37329170,93.47737444,-41.06858972,150.43704681,90.14060740
35.99554449,38.25801986,-179.42664585,2.74899382,12.22477196,10.92913895
-2.90431265,0.66301882,-3.00644173

>  <Name>
lig.pdb

>  <RI>
0

>  <Rbt.Current_Directory>
/home/itssahil/PROJECTS/Mol_Feturizer/New_Systems/rnas/4wcr

>  <Rbt.Executable>
rbdock ($Id: //depot/dev/client3/rdock/2013.1/src/exe/rbdock.cxx#4 $)

>  <Rbt.Library>
libRbt.so (2013.1, Build901 2013/11/27)

>  <Rbt.Parameter_File>
/export/apps/rDock/src/rDock_2013.1_src/data/scripts/dock_solv.prm

>  <Rbt.Receptor>
prm/blind_docking_20.prm

>  <SCORE>
64.3244

>  <SCORE.INTER>
9.34195

>  <SCORE.INTER.CONST>
1

>  <SCORE.INTER.POLAR>
0

>  <SCORE.INTER.ROT>
9

>  <SCORE.INTER.SOLV>
24.2495

>  <SCORE.INTER.VDW>
-11.4552

>  <SCORE.INTER.norm>
0.222427

>  <SCORE.INTRA>
16.9775

>  <SCORE.INTRA.DIHEDRAL>
11.349

>  <SCORE.INTRA.DIHEDRAL.0>
16.2863

>  <SCORE.INTRA.POLAR>
0

>  <SCORE.INTRA.POLAR.0>
0

>  <SCORE.INTRA.REPUL>
-0.314433

>  <SCORE.INTRA.REPUL.0>
0.314433

>  <SCORE.INTRA.SOLV>
6.46234

>  <SCORE.INTRA.SOLV.lig_0>
-103.824

>  <SCORE.INTRA.VDW>
9.64394

>  <SCORE.INTRA.VDW.0>
-5.30945

>  <SCORE.INTRA.norm>
0.404226

>  <SCORE.RESTR>
38.005

>  <SCORE.RESTR.CAVITY>
38.005

>  <SCORE.RESTR.norm>
0.90488

>  <SCORE.SYSTEM>
0

>  <SCORE.SYSTEM.CONST>
0

>  <SCORE.SYSTEM.DIHEDRAL>
0

>  <SCORE.SYSTEM.SOLV>
0

>  <SCORE.SYSTEM.norm>
0

>  <SCORE.heavy>
42

>  <SCORE.norm>
1.53153

>  <RMSD>
27.019

$$$$
lig.pdb
 OpenBabel11021811513D
libRbt.so/2013.1/901 2013/11/27
 42 45  0  0  0  0  0  0  0  0999 V2000
    1.0452   10.4865    8.9131 C   0  0  2  0  0  0  0  0  0  0  0  0
    1.5841   10.2353   10.2486 O   0  0  0  0  0  0  0  0  0  0  0  0
   -0.4603   10.9643    9.1255 C   0  0  2  0  0  0  0  0  0  0  0  0
   -0.4947   12.2111    9.8950 N   0  0  0  0  0  0  0  0  0  0  0  0
   -1.2804    9.7849    9.8440 C   0  0  1  0  0  0  0  0  0  0  0  0
   -2.6583   10.1603   10.0516 O   0  0  0  0  0  0  0  0  0  0  0  0
   -1.1615    8.5387    8.9499 C   0  0  2  0  0  0  0  0  0  0  0  0
   -1.8586    7.4960    9.5420 O   0  0  0  0  0  0  0  0  0  0  0  0
    0.3756    8.1563    8.7517 C   0  0  2  0  0  0  0  0  0  0  0  0
    1.1038    9.2283    8.1402 O   0  0  0  0  0  0  0  0  0  0  0  0
    0.5479    6.9535    7.8680 C   0  0  0  0  0  0  0  0  0  0  0  0
    0.0386    7.2893    6.5767 O   0  0  0  0  0  0  0  0  0  0  0  0
    5.3179    8.9875   12.3161 C   0  0  2  0  0  0  0  0  0  0  0  0
    6.6812    8.5563   12.5362 N   0  0  0  0  0  0  0  0  0  0  0  0
    4.5798    7.9849   11.3472 C   0  0  0  0  0  0  0  0  0  0  0  0
    3.0984    8.4333   11.0886 C   0  0  2  0  0  0  0  0  0  0  0  0
    2.4542    7.4843   10.1830 N   0  0  0  0  0  0  0  0  0  0  0  0
    3.0062    9.8910   10.4524 C   0  0  2  0  0  0  0  0  0  0  0  0
    3.7048   10.8735   11.4364 C   0  0  2  0  0  0  0  0  0  0  0  0
    3.5653   12.2217   10.7690 O   0  0  0  0  0  0  0  0  0  0  0  0
    5.2592   10.4414   11.6476 C   0  0  1  0  0  0  0  0  0  0  0  0
    6.0050   11.2650   12.6002 O   0  0  0  0  0  0  0  0  0  0  0  0
    3.4515   13.2271   11.6929 C   0  0  1  0  0  0  0  0  0  0  0  0
    4.7441   13.6620   12.2324 C   0  0  2  0  0  0  0  0  0  0  0  0
    5.1977   12.6591   13.0839 O   0  0  0  0  0  0  0  0  0  0  0  0
    4.3796   15.0507   12.7998 C   0  0  2  0  0  0  0  0  0  0  0  0
    4.6403   15.0020   14.2208 O   0  0  0  0  0  0  0  0  0  0  0  0
    2.9291   15.2229   12.4897 C   0  0  2  0  0  0  0  0  0  0  0  0
    2.9144   14.4561   11.2329 O   0  0  0  0  0  0  0  0  0  0  0  0
    2.5644   16.7282   12.2152 C   0  0  0  0  0  0  0  0  0  0  0  0
    3.1472   17.2572   10.9865 O   0  0  0  0  0  0  0  0  0  0  0  0
    4.7186   16.2800   14.9219 C   0  0  2  0  0  0  0  0  0  0  0  0
    5.0624   15.9928   16.4755 C   0  0  2  0  0  0  0  0  0  0  0  0
    4.0047   15.1050   17.0584 N   0  0  0  0  0  0  0  0  0  0  0  0
    5.1505   17.4046   17.2391 C   0  0  1  0  0  0  0  0  0  0  0  0
    6.1988   18.1852   16.5884 O   0  0  0  0  0  0  0  0  0  0  0  0
    3.7414   18.1463   17.1472 C   0  0  2  0  0  0  0  0  0  0  0  0
    2.7392   17.3041   17.8375 O   0  0  0  0  0  0  0  0  0  0  0  0
    3.3884   18.3738   15.5707 C   0  0  1  0  0  0  0  0  0  0  0  0
    3.3809   17.0451   14.8570 O   0  0  0  0  0  0  0  0  0  0  0  0
    2.0006   19.0853   15.4422 C   0  0  0  0  0  0  0  0  0  0  0  0
    2.0062   20.4730   16.0003 N   0  0  0  0  0  0  0  0  0  0  0  0
  1  3  1  0  0  0  0
  1  2  1  1  0  0  0
  3  4  1  1  0  0  0
  3  5  1  0  0  0  0
  5  6  1  6  0  0  0
  7  8  1  1  0  0  0
  7  5  1  0  0  0  0
  9 11  1  6  0  0  0
  9  7  1  0  0  0  0
 10  9  1  0  0  0  0
 10  1  1  0  0  0  0
 12 11  1  0  0  0  0
 13 14  1  6  0  0  0
 15 13  1  0  0  0  0
 16 17  1  6  0  0  0
 16 15  1  0  0  0  0
 18  2  1  1  0  0  0
 18 19  1  0  0  0  0
 18 16  1  0  0  0  0
 19 20  1  6  0  0  0
 19 21  1  0  0  0  0
 21 22  1  1  0  0  0
 21 13  1  0  0  0  0
 23 20  1  6  0  0  0
 23 29  1  0  0  0  0
 24 25  1  1  0  0  0
 24 26  1  0  0  0  0
 24 23  1  0  0  0  0
 26 27  1  1  0  0  0
 26 28  1  0  0  0  0
 28 30  1  6  0  0  0
 29 28  1  0  0  0  0
 30 31  1  0  0  0  0
 32 27  1  6  0  0  0
 32 40  1  0  0  0  0
 33 35  1  0  0  0  0
 33 32  1  0  0  0  0
 33 34  1  1  0  0  0
 35 36  1  6  0  0  0
 35 37  1  0  0  0  0
 37 38  1  6  0  0  0
 37 39  1  0  0  0  0
 39 41  1  1  0  0  0
 40 39  1  0  0  0  0
 41 42  1  0  0  0  0
M  END
>  <CHROM.1>
-174.38255548,62.99957784,-117.63075633,147.74067280,81.78878575,164.00908947
67.85831923,-178.16889723,65.38388886,2.76542181,12.73016193,12.18365759
1.88446659,0.44769529,-2.64912467

>  <Name>
lig.pdb

>  <RI>
0

>  <Rbt.Current_Directory>
/home/itssahil/PROJECTS/Mol_Feturizer/New_Systems/rnas/4wcr

>  <Rbt.Executable>
rbdock ($Id: //depot/dev/client3/rdock/2013.1/src/exe/rbdock.cxx#4 $)

>  <Rbt.Library>
libRbt.so (2013.1, Build901 2013/11/27)

>  <Rbt.Parameter_File>
/export/apps/rDock/src/rDock_2013.1_src/data/scripts/dock_solv.prm

>  <Rbt.Receptor>
prm/blind_docking_40.prm

>  <SCORE>
7.27477

>  <SCORE.INTER>
-17.4129

>  <SCORE.INTER.CONST>
1

>  <SCORE.INTER.POLAR>
0

>  <SCORE.INTER.ROT>
9

>  <SCORE.INTER.SOLV>
23.9211

>  <SCORE.INTER.VDW>
-29.1823

>  <SCORE.INTER.norm>
-0.414593

>  <SCORE.INTRA>
17.0246

>  <SCORE.INTRA.DIHEDRAL>
-0.85149

>  <SCORE.INTRA.DIHEDRAL.0>
16.2863

>  <SCORE.INTRA.POLAR>
0

>  <SCORE.INTRA.POLAR.0>
0

>  <SCORE.INTRA.REPUL>
-0.308872

>  <SCORE.INTRA.REPUL.0>
0.314433

>  <SCORE.INTRA.SOLV>
-0.730478

>  <SCORE.INTRA.SOLV.lig_0>
-103.824

>  <SCORE.INTRA.VDW>
19.3599

>  <SCORE.INTRA.VDW.0>
-5.30945

>  <SCORE.INTRA.norm>
0.405347

>  <SCORE.RESTR>
7.66312

>  <SCORE.RESTR.CAVITY>
7.66312

>  <SCORE.RESTR.norm>
0.182455

>  <SCORE.SYSTEM>
0

>  <SCORE.SYSTEM.CONST>
0

>  <SCORE.SYSTEM.DIHEDRAL>
0

>  <SCORE.SYSTEM.SOLV>
0

>  <SCORE.SYSTEM.norm>
0

>  <SCORE.heavy>
42

>  <SCORE.norm>
0.173209

>  <RMSD>
27.027

$$$$
lig.pdb
 OpenBabel11021811513D
libRbt.so/2013.1/901 2013/11/27
 42 45  0  0  0  0  0  0  0  0999 V2000
    5.6893   10.1059   12.9286 C   0  0  2  0  0  0  0  0  0  0  0  0
    5.2474   11.4285   12.4899 O   0  0  0  0  0  0  0  0  0  0  0  0
    6.9409    9.7316   12.0157 C   0  0  2  0  0  0  0  0  0  0  0  0
    8.0288   10.6908   12.2255 N   0  0  0  0  0  0  0  0  0  0  0  0
    6.4651    9.6794   10.4825 C   0  0  1  0  0  0  0  0  0  0  0  0
    7.5602    9.3325    9.6089 O   0  0  0  0  0  0  0  0  0  0  0  0
    5.3238    8.6516   10.3955 C   0  0  2  0  0  0  0  0  0  0  0  0
    4.8853    8.5812    9.0816 O   0  0  0  0  0  0  0  0  0  0  0  0
    4.1339    9.0765   11.3712 C   0  0  2  0  0  0  0  0  0  0  0  0
    4.5782    9.1517   12.7315 O   0  0  0  0  0  0  0  0  0  0  0  0
    2.9990    8.0926   11.3379 C   0  0  0  0  0  0  0  0  0  0  0  0
    2.4826    8.0732   10.0065 O   0  0  0  0  0  0  0  0  0  0  0  0
    5.3016   14.9350   15.2238 C   0  0  2  0  0  0  0  0  0  0  0  0
    5.7715   16.0871   15.9620 N   0  0  0  0  0  0  0  0  0  0  0  0
    6.2166   13.6857   15.5250 C   0  0  0  0  0  0  0  0  0  0  0  0
    5.7300   12.4222   14.7318 C   0  0  2  0  0  0  0  0  0  0  0  0
    6.6063   11.2920   15.0324 N   0  0  0  0  0  0  0  0  0  0  0  0
    5.7221   12.6586   13.1562 C   0  0  2  0  0  0  0  0  0  0  0  0
    4.7867   13.8693   12.8718 C   0  0  2  0  0  0  0  0  0  0  0  0
    4.8271   14.0186   11.3689 O   0  0  0  0  0  0  0  0  0  0  0  0
    5.3353   15.1925   13.6437 C   0  0  1  0  0  0  0  0  0  0  0  0
    4.5009   16.3855   13.4932 O   0  0  0  0  0  0  0  0  0  0  0  0
    3.6273   13.6794   10.8008 C   0  0  1  0  0  0  0  0  0  0  0  0
    3.1881   12.3242   11.1494 C   0  0  2  0  0  0  0  0  0  0  0  0
    3.9980   11.4326   10.4523 O   0  0  0  0  0  0  0  0  0  0  0  0
    1.6796   12.4076   10.8321 C   0  0  2  0  0  0  0  0  0  0  0  0
    1.4156   11.4293    9.8012 O   0  0  0  0  0  0  0  0  0  0  0  0
    1.4638   13.8080   10.3608 C   0  0  2  0  0  0  0  0  0  0  0  0
    2.4998   14.4460   11.1900 O   0  0  0  0  0  0  0  0  0  0  0  0
    0.0396   14.3456   10.7571 C   0  0  0  0  0  0  0  0  0  0  0  0
   -0.1390   15.7716   10.5047 O   0  0  0  0  0  0  0  0  0  0  0  0
    0.0216   11.2413    9.4108 C   0  0  2  0  0  0  0  0  0  0  0  0
   -0.2183   11.9803    7.9929 C   0  0  2  0  0  0  0  0  0  0  0  0
    0.1279   13.4323    8.1291 N   0  0  0  0  0  0  0  0  0  0  0  0
   -1.7538   11.7654    7.5685 C   0  0  1  0  0  0  0  0  0  0  0  0
   -1.9804   10.3263    7.4736 O   0  0  0  0  0  0  0  0  0  0  0  0
   -2.7049   12.4253    8.6660 C   0  0  2  0  0  0  0  0  0  0  0  0
   -2.4271   13.8787    8.6927 O   0  0  0  0  0  0  0  0  0  0  0  0
   -2.4047   11.7045   10.0985 C   0  0  1  0  0  0  0  0  0  0  0  0
   -0.9445   11.8552   10.4447 O   0  0  0  0  0  0  0  0  0  0  0  0
   -3.3101   12.3408   11.2048 C   0  0  0  0  0  0  0  0  0  0  0  0
   -2.9103   11.9332   12.5873 N   0  0  0  0  0  0  0  0  0  0  0  0
  1  3  1  0  0  0  0
  1  2  1  6  0  0  0
  3  4  1  6  0  0  0
  3  5  1  0  0  0  0
  5  6  1  6  0  0  0
  7  8  1  6  0  0  0
  7  5  1  0  0  0  0
  9 11  1  1  0  0  0
  9  7  1  0  0  0  0
 10  9  1  0  0  0  0
 10  1  1  0  0  0  0
 12 11  1  0  0  0  0
 13 14  1  1  0  0  0
 15 13  1  0  0  0  0
 16 17  1  6  0  0  0
 16 15  1  0  0  0  0
 18  2  1  6  0  0  0
 18 19  1  0  0  0  0
 18 16  1  0  0  0  0
 19 20  1  6  0  0  0
 19 21  1  0  0  0  0
 21 22  1  1  0  0  0
 21 13  1  0  0  0  0
 23 20  1  1  0  0  0
 23 29  1  0  0  0  0
 24 25  1  6  0  0  0
 24 26  1  0  0  0  0
 24 23  1  0  0  0  0
 26 27  1  6  0  0  0
 26 28  1  0  0  0  0
 28 30  1  1  0  0  0
 29 28  1  0  0  0  0
 30 31  1  0  0  0  0
 32 27  1  1  0  0  0
 32 40  1  0  0  0  0
 33 35  1  0  0  0  0
 33 32  1  0  0  0  0
 33 34  1  1  0  0  0
 35 36  1  1  0  0  0
 35 37  1  0  0  0  0
 37 38  1  1  0  0  0
 37 39  1  0  0  0  0
 39 41  1  1  0  0  0
 40 39  1  0  0  0  0
 41 42  1  0  0  0  0
M  END
>  <CHROM.1>
-93.97054764,-61.80012944,-41.87353551,110.82177960,-56.00857655,174.96080183
170.90236402,103.65126603,-168.56747856,2.80112019,12.03341208,11.24682957
-0.19210798,0.42356851,-2.60950119

>  <Name>
lig.pdb

>  <RI>
0

>  <Rbt.Current_Directory>
/home/itssahil/PROJECTS/Mol_Feturizer/New_Systems/rnas/4wcr

>  <Rbt.Executable>
rbdock ($Id: //depot/dev/client3/rdock/2013.1/src/exe/rbdock.cxx#4 $)

>  <Rbt.Library>
libRbt.so (2013.1, Build901 2013/11/27)

>  <Rbt.Parameter_File>
/export/apps/rDock/src/rDock_2013.1_src/data/scripts/dock_solv.prm

>  <Rbt.Receptor>
prm/blind_docking_20.prm

>  <SCORE>
51.4729

>  <SCORE.INTER>
0.427602

>  <SCORE.INTER.CONST>
1

>  <SCORE.INTER.POLAR>
0

>  <SCORE.INTER.ROT>
9

>  <SCORE.INTER.SOLV>
23.0636

>  <SCORE.INTER.VDW>
-17.0028

>  <SCORE.INTER.norm>
0.010181

>  <SCORE.INTRA>
10.3715

>  <SCORE.INTRA.DIHEDRAL>
3.79787

>  <SCORE.INTRA.DIHEDRAL.0>
16.2863

>  <SCORE.INTRA.POLAR>
0

>  <SCORE.INTRA.POLAR.0>
0

>  <SCORE.INTRA.REPUL>
-0.314433

>  <SCORE.INTRA.REPUL.0>
0.314433

>  <SCORE.INTRA.SOLV>
4.78576

>  <SCORE.INTRA.SOLV.lig_0>
-103.824

>  <SCORE.INTRA.VDW>
7.65185

>  <SCORE.INTRA.VDW.0>
-5.30945

>  <SCORE.INTRA.norm>
0.246941

>  <SCORE.RESTR>
40.6737

>  <SCORE.RESTR.CAVITY>
40.6737

>  <SCORE.RESTR.norm>
0.968423

>  <SCORE.SYSTEM>
0

>  <SCORE.SYSTEM.CONST>
0

>  <SCORE.SYSTEM.DIHEDRAL>
0

>  <SCORE.SYSTEM.SOLV>
0

>  <SCORE.SYSTEM.norm>
0

>  <SCORE.heavy>
42

>  <SCORE.norm>
1.22554

>  <RMSD>
27.054

$$$$
lig.pdb
 OpenBabel11021811513D
libRbt.so/2013.1/901 2013/11/27
 42 45  0  0  0  0  0  0  0  0999 V2000
    4.1315   14.6435   11.5294 C   0  0  2  0  0  0  0  0  0  0  0  0
    4.1207   14.3075   12.9521 O   0  0  0  0  0  0  0  0  0  0  0  0
    3.5753   16.1332   11.4217 C   0  0  2  0  0  0  0  0  0  0  0  0
    4.4584   17.0590   12.1363 N   0  0  0  0  0  0  0  0  0  0  0  0
    2.0735   16.1664   11.9902 C   0  0  1  0  0  0  0  0  0  0  0  0
    1.5141   17.4941   11.9061 O   0  0  0  0  0  0  0  0  0  0  0  0
    1.2548   15.1542   11.1706 C   0  0  2  0  0  0  0  0  0  0  0  0
   -0.0515   15.1545   11.6366 O   0  0  0  0  0  0  0  0  0  0  0  0
    1.9040   13.7012   11.2961 C   0  0  2  0  0  0  0  0  0  0  0  0
    3.2544   13.6914   10.8167 O   0  0  0  0  0  0  0  0  0  0  0  0
    1.1509   12.6762   10.4964 C   0  0  0  0  0  0  0  0  0  0  0  0
    1.0476   13.1630    9.1577 O   0  0  0  0  0  0  0  0  0  0  0  0
    7.5354   11.4780   13.2777 C   0  0  2  0  0  0  0  0  0  0  0  0
    8.4694   10.5181   13.8249 N   0  0  0  0  0  0  0  0  0  0  0  0
    7.4945   12.7720   14.1792 C   0  0  0  0  0  0  0  0  0  0  0  0
    6.4840   13.8285   13.6088 C   0  0  2  0  0  0  0  0  0  0  0  0
    6.4711   15.0058   14.4746 N   0  0  0  0  0  0  0  0  0  0  0  0
    5.0011   13.2560   13.5012 C   0  0  2  0  0  0  0  0  0  0  0  0
    5.0515   12.0031   12.5796 C   0  0  2  0  0  0  0  0  0  0  0  0
    3.6171   11.5319   12.5230 O   0  0  0  0  0  0  0  0  0  0  0  0
    6.0496   10.8844   13.2119 C   0  0  1  0  0  0  0  0  0  0  0  0
    6.2194    9.6788   12.3995 O   0  0  0  0  0  0  0  0  0  0  0  0
    3.4985   10.3792   11.7919 C   0  0  1  0  0  0  0  0  0  0  0  0
    4.0845   10.4848   10.4515 C   0  0  2  0  0  0  0  0  0  0  0  0
    3.2417   11.2905    9.6917 O   0  0  0  0  0  0  0  0  0  0  0  0
    4.2662    8.9960   10.0861 C   0  0  2  0  0  0  0  0  0  0  0  0
    3.4633    8.7547    8.9085 O   0  0  0  0  0  0  0  0  0  0  0  0
    3.7725    8.2455   11.2789 C   0  0  2  0  0  0  0  0  0  0  0  0
    4.1646    9.2340   12.2972 O   0  0  0  0  0  0  0  0  0  0  0  0
    4.5607    6.9008   11.4913 C   0  0  0  0  0  0  0  0  0  0  0  0
    3.9573    6.0192   12.4852 O   0  0  0  0  0  0  0  0  0  0  0  0
    2.0189    8.6664    9.1008 C   0  0  2  0  0  0  0  0  0  0  0  0
    1.4460    7.4892    8.1521 C   0  0  2  0  0  0  0  0  0  0  0  0
    1.7977    7.7901    6.7265 N   0  0  0  0  0  0  0  0  0  0  0  0
   -0.1436    7.3961    8.3726 C   0  0  1  0  0  0  0  0  0  0  0  0
   -0.3695    7.1097    9.7863 O   0  0  0  0  0  0  0  0  0  0  0  0
   -0.8195    8.7782    7.9515 C   0  0  2  0  0  0  0  0  0  0  0  0
   -0.5599    8.9900    6.5100 O   0  0  0  0  0  0  0  0  0  0  0  0
   -0.1847    9.9588    8.8817 C   0  0  1  0  0  0  0  0  0  0  0  0
    1.3142    9.9831    8.7155 O   0  0  0  0  0  0  0  0  0  0  0  0
   -0.8139   11.3349    8.4830 C   0  0  0  0  0  0  0  0  0  0  0  0
   -1.4927   12.0163    9.6285 N   0  0  0  0  0  0  0  0  0  0  0  0
  1  3  1  0  0  0  0
  1  2  1  1  0  0  0
  3  4  1  1  0  0  0
  3  5  1  0  0  0  0
  5  6  1  6  0  0  0
  7  8  1  1  0  0  0
  7  5  1  0  0  0  0
  9 11  1  6  0  0  0
  9  7  1  0  0  0  0
 10  9  1  0  0  0  0
 10  1  1  0  0  0  0
 12 11  1  0  0  0  0
 13 14  1  1  0  0  0
 15 13  1  0  0  0  0
 16 17  1  1  0  0  0
 16 15  1  0  0  0  0
 18  2  1  6  0  0  0
 18 19  1  0  0  0  0
 18 16  1  0  0  0  0
 19 20  1  1  0  0  0
 19 21  1  0  0  0  0
 21 22  1  6  0  0  0
 21 13  1  0  0  0  0
 23 20  1  1  0  0  0
 23 29  1  0  0  0  0
 24 25  1  6  0  0  0
 24 26  1  0  0  0  0
 24 23  1  0  0  0  0
 26 27  1  6  0  0  0
 26 28  1  0  0  0  0
 28 30  1  1  0  0  0
 29 28  1  0  0  0  0
 30 31  1  0  0  0  0
 32 27  1  6  0  0  0
 32 40  1  0  0  0  0
 33 35  1  0  0  0  0
 33 32  1  0  0  0  0
 33 34  1  6  0  0  0
 35 36  1  1  0  0  0
 35 37  1  0  0  0  0
 37 38  1  6  0  0  0
 37 39  1  0  0  0  0
 39 41  1  6  0  0  0
 40 39  1  0  0  0  0
 41 42  1  0  0  0  0
M  END
>  <CHROM.1>
-156.78866877,53.38226812,76.20352638,-176.98831625,-53.40562996,-75.08936049
-169.21793570,-140.52636494,121.96952900,3.01739819,11.41844632,10.95865892
0.94563965,-0.57933272,0.24982270

>  <Name>
lig.pdb

>  <RI>
0

>  <Rbt.Current_Directory>
/home/itssahil/PROJECTS/Mol_Feturizer/New_Systems/rnas/4wcr

>  <Rbt.Executable>
rbdock ($Id: //depot/dev/client3/rdock/2013.1/src/exe/rbdock.cxx#4 $)

>  <Rbt.Library>
libRbt.so (2013.1, Build901 2013/11/27)

>  <Rbt.Parameter_File>
/export/apps/rDock/src/rDock_2013.1_src/data/scripts/dock_solv.prm

>  <Rbt.Receptor>
prm/blind_docking_20.prm

>  <SCORE>
57.4563

>  <SCORE.INTER>
7.77604

>  <SCORE.INTER.CONST>
1

>  <SCORE.INTER.POLAR>
0

>  <SCORE.INTER.ROT>
9

>  <SCORE.INTER.SOLV>
23.6601

>  <SCORE.INTER.VDW>
-12.3027

>  <SCORE.INTER.norm>
0.185144

>  <SCORE.INTRA>
12.4757

>  <SCORE.INTRA.DIHEDRAL>
0.151089

>  <SCORE.INTRA.DIHEDRAL.0>
16.2863

>  <SCORE.INTRA.POLAR>
0

>  <SCORE.INTRA.POLAR.0>
0

>  <SCORE.INTRA.REPUL>
-0.314433

>  <SCORE.INTRA.REPUL.0>
0.314433

>  <SCORE.INTRA.SOLV>
1.92125

>  <SCORE.INTRA.SOLV.lig_0>
-103.824

>  <SCORE.INTRA.VDW>
13.0117

>  <SCORE.INTRA.VDW.0>
-5.30945

>  <SCORE.INTRA.norm>
0.297042

>  <SCORE.RESTR>
37.2045

>  <SCORE.RESTR.CAVITY>
37.2045

>  <SCORE.RESTR.norm>
0.885822

>  <SCORE.SYSTEM>
0

>  <SCORE.SYSTEM.CONST>
0

>  <SCORE.SYSTEM.DIHEDRAL>
0

>  <SCORE.SYSTEM.SOLV>
0

>  <SCORE.SYSTEM.norm>
0

>  <SCORE.heavy>
42

>  <SCORE.norm>
1.36801

>  <RMSD>
27.056

$$$$
lig.pdb
 OpenBabel11021811513D
libRbt.so/2013.1/901 2013/11/27
 42 45  0  0  0  0  0  0  0  0999 V2000
    2.3200    8.2415    9.1094 C   0  0  2  0  0  0  0  0  0  0  0  0
    2.2219    9.6825    8.8830 O   0  0  0  0  0  0  0  0  0  0  0  0
    2.4213    8.0469   10.6879 C   0  0  2  0  0  0  0  0  0  0  0  0
    1.2099    8.5502   11.3415 N   0  0  0  0  0  0  0  0  0  0  0  0
    3.7467    8.7848   11.2156 C   0  0  1  0  0  0  0  0  0  0  0  0
    3.8953    8.6307   12.6428 O   0  0  0  0  0  0  0  0  0  0  0  0
    4.9380    8.1791   10.4537 C   0  0  2  0  0  0  0  0  0  0  0  0
    6.1035    8.7958   10.8837 O   0  0  0  0  0  0  0  0  0  0  0  0
    4.7355    8.3764    8.8825 C   0  0  2  0  0  0  0  0  0  0  0  0
    3.5331    7.7421    8.4292 O   0  0  0  0  0  0  0  0  0  0  0  0
    5.8657    7.7838    8.0896 C   0  0  0  0  0  0  0  0  0  0  0  0
    6.5903    8.8625    7.4972 O   0  0  0  0  0  0  0  0  0  0  0  0
   -0.7497   12.9844    9.0821 C   0  0  2  0  0  0  0  0  0  0  0  0
   -1.9567   13.7222    9.3847 N   0  0  0  0  0  0  0  0  0  0  0  0
   -1.1048   11.6482    8.3222 C   0  0  0  0  0  0  0  0  0  0  0  0
    0.1889   10.8263    7.9859 C   0  0  2  0  0  0  0  0  0  0  0  0
   -0.1836    9.5960    7.2906 N   0  0  0  0  0  0  0  0  0  0  0  0
    1.0236   10.4453    9.2885 C   0  0  2  0  0  0  0  0  0  0  0  0
    1.3983   11.7741   10.0065 C   0  0  2  0  0  0  0  0  0  0  0  0
    2.1891   11.3278   11.2140 O   0  0  0  0  0  0  0  0  0  0  0  0
    0.0498   12.5893   10.4122 C   0  0  1  0  0  0  0  0  0  0  0  0
    0.2807   13.8874   11.0475 O   0  0  0  0  0  0  0  0  0  0  0  0
    2.8657   12.3747   11.7828 C   0  0  1  0  0  0  0  0  0  0  0  0
    4.1165   12.6971   11.0880 C   0  0  2  0  0  0  0  0  0  0  0  0
    5.0277   11.6872   11.3824 O   0  0  0  0  0  0  0  0  0  0  0  0
    4.3719   14.1365   11.5839 C   0  0  2  0  0  0  0  0  0  0  0  0
    5.6338   14.1170   12.2887 O   0  0  0  0  0  0  0  0  0  0  0  0
    3.2193   14.4426   12.4825 C   0  0  2  0  0  0  0  0  0  0  0  0
    2.2121   13.6330   11.7770 O   0  0  0  0  0  0  0  0  0  0  0  0
    2.8277   15.9654   12.4334 C   0  0  0  0  0  0  0  0  0  0  0  0
    2.3865   16.4143   11.1170 O   0  0  0  0  0  0  0  0  0  0  0  0
    5.6063   13.6760   13.6800 C   0  0  2  0  0  0  0  0  0  0  0  0
    7.1261   13.4132   14.1652 C   0  0  2  0  0  0  0  0  0  0  0  0
    7.7584   12.3891   13.2719 N   0  0  0  0  0  0  0  0  0  0  0  0
    7.0871   12.9318   15.6985 C   0  0  1  0  0  0  0  0  0  0  0  0
    6.4488   13.9939   16.4705 O   0  0  0  0  0  0  0  0  0  0  0  0
    6.2642   11.5696   15.8061 C   0  0  2  0  0  0  0  0  0  0  0  0
    6.9781   10.5441   15.0131 O   0  0  0  0  0  0  0  0  0  0  0  0
    4.7523   11.8443   15.2579 C   0  0  1  0  0  0  0  0  0  0  0  0
    4.8135   12.3630   13.8430 O   0  0  0  0  0  0  0  0  0  0  0  0
    3.9198   10.5214   15.3329 C   0  0  0  0  0  0  0  0  0  0  0  0
    4.3836    9.6048   16.4201 N   0  0  0  0  0  0  0  0  0  0  0  0
  1  3  1  0  0  0  0
  1  2  1  1  0  0  0
  3  4  1  1  0  0  0
  3  5  1  0  0  0  0
  5  6  1  1  0  0  0
  7  8  1  1  0  0  0
  7  5  1  0  0  0  0
  9 11  1  6  0  0  0
  9  7  1  0  0  0  0
 10  9  1  0  0  0  0
 10  1  1  0  0  0  0
 12 11  1  0  0  0  0
 13 14  1  1  0  0  0
 15 13  1  0  0  0  0
 16 17  1  1  0  0  0
 16 15  1  0  0  0  0
 18  2  1  6  0  0  0
 18 19  1  0  0  0  0
 18 16  1  0  0  0  0
 19 20  1  1  0  0  0
 19 21  1  0  0  0  0
 21 22  1  6  0  0  0
 21 13  1  0  0  0  0
 23 20  1  6  0  0  0
 23 29  1  0  0  0  0
 24 25  1  1  0  0  0
 24 26  1  0  0  0  0
 24 23  1  0  0  0  0
 26 27  1  1  0  0  0
 26 28  1  0  0  0  0
 28 30  1  6  0  0  0
 29 28  1  0  0  0  0
 30 31  1  0  0  0  0
 32 27  1  6  0  0  0
 32 40  1  0  0  0  0
 33 35  1  0  0  0  0
 33 32  1  0  0  0  0
 33 34  1  6  0  0  0
 35 36  1  1  0  0  0
 35 37  1  0  0  0  0
 37 38  1  6  0  0  0
 37 39  1  0  0  0  0
 39 41  1  6  0  0  0
 40 39  1  0  0  0  0
 41 42  1  0  0  0  0
M  END
>  <CHROM.1>
-68.38785559,-111.49440697,-106.44503943,165.46341886,-80.57780503,-82.66042753
62.27143614,167.44137446,28.32991299,3.52132903,11.40565683,11.50568792,-2.42815602
-0.63565253,0.60300022

>  <Name>
lig.pdb

>  <RI>
0

>  <Rbt.Current_Directory>
/home/itssahil/PROJECTS/Mol_Feturizer/New_Systems/rnas/4wcr

>  <Rbt.Executable>
rbdock ($Id: //depot/dev/client3/rdock/2013.1/src/exe/rbdock.cxx#4 $)

>  <Rbt.Library>
libRbt.so (2013.1, Build901 2013/11/27)

>  <Rbt.Parameter_File>
/export/apps/rDock/src/rDock_2013.1_src/data/scripts/dock_solv.prm

>  <Rbt.Receptor>
prm/blind_docking_20.prm

>  <SCORE>
87.0648

>  <SCORE.INTER>
35.357

>  <SCORE.INTER.CONST>
1

>  <SCORE.INTER.POLAR>
0

>  <SCORE.INTER.ROT>
9

>  <SCORE.INTER.SOLV>
28.8699

>  <SCORE.INTER.VDW>
4.34804

>  <SCORE.INTER.norm>
0.841833

>  <SCORE.INTRA>
12.2002

>  <SCORE.INTRA.DIHEDRAL>
4.61199

>  <SCORE.INTRA.DIHEDRAL.0>
16.2863

>  <SCORE.INTRA.POLAR>
0

>  <SCORE.INTRA.POLAR.0>
0

>  <SCORE.INTRA.REPUL>
-0.314433

>  <SCORE.INTRA.REPUL.0>
0.314433

>  <SCORE.INTRA.SOLV>
2.72169

>  <SCORE.INTRA.SOLV.lig_0>
-103.824

>  <SCORE.INTRA.VDW>
10.1055

>  <SCORE.INTRA.VDW.0>
-5.30945

>  <SCORE.INTRA.norm>
0.29048

>  <SCORE.RESTR>
39.5076

>  <SCORE.RESTR.CAVITY>
39.5076

>  <SCORE.RESTR.norm>
0.940658

>  <SCORE.SYSTEM>
0

>  <SCORE.SYSTEM.CONST>
0

>  <SCORE.SYSTEM.DIHEDRAL>
0

>  <SCORE.SYSTEM.SOLV>
0

>  <SCORE.SYSTEM.norm>
0

>  <SCORE.heavy>
42

>  <SCORE.norm>
2.07297

>  <RMSD>
27.057

$$$$
lig.pdb
 OpenBabel11021811513D
libRbt.so/2013.1/901 2013/11/27
 42 45  0  0  0  0  0  0  0  0999 V2000
    4.8354   15.7323   12.7705 C   0  0  2  0  0  0  0  0  0  0  0  0
    5.1512   14.5302   12.0008 O   0  0  0  0  0  0  0  0  0  0  0  0
    3.5362   15.3828   13.6248 C   0  0  2  0  0  0  0  0  0  0  0  0
    3.8177   14.2837   14.5524 N   0  0  0  0  0  0  0  0  0  0  0  0
    2.3341   15.0346   12.6182 C   0  0  1  0  0  0  0  0  0  0  0  0
    1.1248   14.7200   13.3403 O   0  0  0  0  0  0  0  0  0  0  0  0
    2.1438   16.2531   11.6987 C   0  0  2  0  0  0  0  0  0  0  0  0
    1.1113   15.9866   10.8119 O   0  0  0  0  0  0  0  0  0  0  0  0
    3.5010   16.5614   10.9168 C   0  0  2  0  0  0  0  0  0  0  0  0
    4.5738   16.8380   11.8257 O   0  0  0  0  0  0  0  0  0  0  0  0
    3.3738   17.7576   10.0167 C   0  0  0  0  0  0  0  0  0  0  0  0
    4.4988   17.7581    9.1369 O   0  0  0  0  0  0  0  0  0  0  0  0
    6.3628   10.4352   13.2400 C   0  0  2  0  0  0  0  0  0  0  0  0
    6.3558    9.1466   13.8975 N   0  0  0  0  0  0  0  0  0  0  0  0
    6.2841   11.5922   14.3095 C   0  0  0  0  0  0  0  0  0  0  0  0
    6.2857   13.0021   13.6207 C   0  0  2  0  0  0  0  0  0  0  0  0
    6.2046   14.0431   14.6432 N   0  0  0  0  0  0  0  0  0  0  0  0
    5.0706   13.1853   12.6066 C   0  0  2  0  0  0  0  0  0  0  0  0
    5.1832   12.0605   11.5371 C   0  0  2  0  0  0  0  0  0  0  0  0
    4.0107   12.3104   10.6176 O   0  0  0  0  0  0  0  0  0  0  0  0
    5.1133   10.6007   12.2523 C   0  0  1  0  0  0  0  0  0  0  0  0
    5.2650    9.4613   11.3461 O   0  0  0  0  0  0  0  0  0  0  0  0
    3.0843   11.3046   10.7049 C   0  0  1  0  0  0  0  0  0  0  0  0
    1.8252   11.6210   10.0224 C   0  0  2  0  0  0  0  0  0  0  0  0
    1.1618   12.5708   10.7934 O   0  0  0  0  0  0  0  0  0  0  0  0
    1.2200   10.2123    9.8427 C   0  0  2  0  0  0  0  0  0  0  0  0
   -0.0331   10.2017   10.5634 O   0  0  0  0  0  0  0  0  0  0  0  0
    2.2283    9.2834   10.4345 C   0  0  2  0  0  0  0  0  0  0  0  0
    3.4268   10.0697   10.0982 O   0  0  0  0  0  0  0  0  0  0  0  0
    2.2566    7.8987    9.6888 C   0  0  0  0  0  0  0  0  0  0  0  0
    3.0970    7.8933    8.4959 O   0  0  0  0  0  0  0  0  0  0  0  0
   -1.1472   10.9277    9.9613 C   0  0  2  0  0  0  0  0  0  0  0  0
   -1.4953   10.2447    8.5377 C   0  0  2  0  0  0  0  0  0  0  0  0
   -0.2771   10.2763    7.6650 N   0  0  0  0  0  0  0  0  0  0  0  0
   -2.7249   11.0472    7.8834 C   0  0  1  0  0  0  0  0  0  0  0  0
   -3.8458   10.9580    8.8147 O   0  0  0  0  0  0  0  0  0  0  0  0
   -2.2988   12.5651    7.6412 C   0  0  2  0  0  0  0  0  0  0  0  0
   -1.1727   12.5729    6.6810 O   0  0  0  0  0  0  0  0  0  0  0  0
   -1.8971   13.2166    9.0821 C   0  0  1  0  0  0  0  0  0  0  0  0
   -0.7912   12.4077    9.7124 O   0  0  0  0  0  0  0  0  0  0  0  0
   -1.4561   14.7042    8.8794 C   0  0  0  0  0  0  0  0  0  0  0  0
   -0.1969   14.8327    8.0824 N   0  0  0  0  0  0  0  0  0  0  0  0
  1  3  1  0  0  0  0
  1  2  1  6  0  0  0
  3  4  1  1  0  0  0
  3  5  1  0  0  0  0
  5  6  1  1  0  0  0
  7  8  1  6  0  0  0
  7  5  1  0  0  0  0
  9 11  1  6  0  0  0
  9  7  1  0  0  0  0
 10  9  1  0  0  0  0
 10  1  1  0  0  0  0
 12 11  1  0  0  0  0
 13 14  1  1  0  0  0
 15 13  1  0  0  0  0
 16 17  1  1  0  0  0
 16 15  1  0  0  0  0
 18  2  1  6  0  0  0
 18 19  1  0  0  0  0
 18 16  1  0  0  0  0
 19 20  1  6  0  0  0
 19 21  1  0  0  0  0
 21 22  1  6  0  0  0
 21 13  1  0  0  0  0
 23 20  1  6  0  0  0
 23 29  1  0  0  0  0
 24 25  1  1  0  0  0
 24 26  1  0  0  0  0
 24 23  1  0  0  0  0
 26 27  1  1  0  0  0
 26 28  1  0  0  0  0
 28 30  1  6  0  0  0
 29 28  1  0  0  0  0
 30 31  1  0  0  0  0
 32 27  1  6  0  0  0
 32 40  1  0  0  0  0
 33 35  1  0  0  0  0
 33 32  1  0  0  0  0
 33 34  1  6  0  0  0
 35 36  1  1  0  0  0
 35 37  1  0  0  0  0
 37 38  1  6  0  0  0
 37 39  1  0  0  0  0
 39 41  1  6  0  0  0
 40 39  1  0  0  0  0
 41 42  1  0  0  0  0
M  END
>  <CHROM.1>
-42.06212302,-166.19439831,-72.36163960,-112.75466853,169.45462781,73.88332620
84.46541121,62.32098802,-65.59851591,2.29726746,12.66107472,10.80258759,0.34265265
-0.56698669,0.09822020

>  <Name>
lig.pdb

>  <RI>
0

>  <Rbt.Current_Directory>
/home/itssahil/PROJECTS/Mol_Feturizer/New_Systems/rnas/4wcr

>  <Rbt.Executable>
rbdock ($Id: //depot/dev/client3/rdock/2013.1/src/exe/rbdock.cxx#4 $)

>  <Rbt.Library>
libRbt.so (2013.1, Build901 2013/11/27)

>  <Rbt.Parameter_File>
/export/apps/rDock/src/rDock_2013.1_src/data/scripts/dock_solv.prm

>  <Rbt.Receptor>
prm/blind_docking_20.prm

>  <SCORE>
54.9566

>  <SCORE.INTER>
3.65262

>  <SCORE.INTER.CONST>
1

>  <SCORE.INTER.POLAR>
0

>  <SCORE.INTER.ROT>
9

>  <SCORE.INTER.SOLV>
28.8463

>  <SCORE.INTER.VDW>
-16.7804

>  <SCORE.INTER.norm>
0.0869672

>  <SCORE.INTRA>
13.7445

>  <SCORE.INTRA.DIHEDRAL>
-2.84158

>  <SCORE.INTRA.DIHEDRAL.0>
16.2863

>  <SCORE.INTRA.POLAR>
0

>  <SCORE.INTRA.POLAR.0>
0

>  <SCORE.INTRA.REPUL>
-0.239952

>  <SCORE.INTRA.REPUL.0>
0.314433

>  <SCORE.INTRA.SOLV>
8.18412

>  <SCORE.INTRA.SOLV.lig_0>
-103.824

>  <SCORE.INTRA.VDW>
12.273

>  <SCORE.INTRA.VDW.0>
-5.30945

>  <SCORE.INTRA.norm>
0.32725

>  <SCORE.RESTR>
37.5595

>  <SCORE.RESTR.CAVITY>
37.5595

>  <SCORE.RESTR.norm>
0.894273

>  <SCORE.SYSTEM>
0

>  <SCORE.SYSTEM.CONST>
0

>  <SCORE.SYSTEM.DIHEDRAL>
0

>  <SCORE.SYSTEM.SOLV>
0

>  <SCORE.SYSTEM.norm>
0

>  <SCORE.heavy>
42

>  <SCORE.norm>
1.30849

>  <RMSD>
27.114

$$$$
lig.pdb
 OpenBabel11021811513D
libRbt.so/2013.1/901 2013/11/27
 42 45  0  0  0  0  0  0  0  0999 V2000
    1.2299   13.9706    9.6989 C   0  0  2  0  0  0  0  0  0  0  0  0
    0.9305   14.2633   11.0996 O   0  0  0  0  0  0  0  0  0  0  0  0
   -0.0398   14.4517    8.8645 C   0  0  2  0  0  0  0  0  0  0  0  0
   -0.2323   15.8964    9.0184 N   0  0  0  0  0  0  0  0  0  0  0  0
   -1.3226   13.6139    9.3464 C   0  0  1  0  0  0  0  0  0  0  0  0
   -2.5035   14.0020    8.6133 O   0  0  0  0  0  0  0  0  0  0  0  0
   -0.9948   12.1245    9.1444 C   0  0  2  0  0  0  0  0  0  0  0  0
   -2.0831   11.3681    9.5532 O   0  0  0  0  0  0  0  0  0  0  0  0
    0.3121   11.7378    9.9757 C   0  0  2  0  0  0  0  0  0  0  0  0
    1.4421   12.5148    9.5598 O   0  0  0  0  0  0  0  0  0  0  0  0
    0.6872   10.2940    9.7970 C   0  0  0  0  0  0  0  0  0  0  0  0
    0.9706   10.0892    8.4123 O   0  0  0  0  0  0  0  0  0  0  0  0
    4.9160   15.4512   12.6735 C   0  0  2  0  0  0  0  0  0  0  0  0
    5.9632   15.8417   13.5921 N   0  0  0  0  0  0  0  0  0  0  0  0
    3.6956   16.4445   12.7857 C   0  0  0  0  0  0  0  0  0  0  0  0
    2.5427   16.0395   11.8011 C   0  0  2  0  0  0  0  0  0  0  0  0
    1.4314   16.9782   11.9412 N   0  0  0  0  0  0  0  0  0  0  0  0
    2.0036   14.5645   12.0692 C   0  0  2  0  0  0  0  0  0  0  0  0
    3.2100   13.5932   11.9182 C   0  0  2  0  0  0  0  0  0  0  0  0
    2.6160   12.2281   12.1760 O   0  0  0  0  0  0  0  0  0  0  0  0
    4.3739   13.9777   12.9883 C   0  0  1  0  0  0  0  0  0  0  0  0
    5.5863   13.1623   12.9014 O   0  0  0  0  0  0  0  0  0  0  0  0
    3.5565   11.2408   12.0420 C   0  0  1  0  0  0  0  0  0  0  0  0
    4.2548   11.2822   10.7529 C   0  0  2  0  0  0  0  0  0  0  0  0
    3.3614   10.8398    9.7818 O   0  0  0  0  0  0  0  0  0  0  0  0
    5.5203   10.4574   11.0714 C   0  0  2  0  0  0  0  0  0  0  0  0
    5.5061    9.3138   10.1873 O   0  0  0  0  0  0  0  0  0  0  0  0
    5.3759   10.0726   12.5069 C   0  0  2  0  0  0  0  0  0  0  0  0
    4.6456   11.2721   12.9494 O   0  0  0  0  0  0  0  0  0  0  0  0
    6.7692    9.9835   13.2316 C   0  0  0  0  0  0  0  0  0  0  0  0
    7.4812   11.2558   13.2901 O   0  0  0  0  0  0  0  0  0  0  0  0
    4.6345    8.2031   10.5583 C   0  0  2  0  0  0  0  0  0  0  0  0
    5.2764    6.8338    9.9864 C   0  0  2  0  0  0  0  0  0  0  0  0
    5.4298    6.9449    8.4995 N   0  0  0  0  0  0  0  0  0  0  0  0
    4.3130    5.6160   10.4023 C   0  0  1  0  0  0  0  0  0  0  0  0
    4.2298    5.6069   11.8599 O   0  0  0  0  0  0  0  0  0  0  0  0
    2.8748    5.8295    9.7463 C   0  0  2  0  0  0  0  0  0  0  0  0
    3.0396    5.8129    8.2757 O   0  0  0  0  0  0  0  0  0  0  0  0
    2.2717    7.2436   10.2925 C   0  0  1  0  0  0  0  0  0  0  0  0
    3.2238    8.3637    9.9555 O   0  0  0  0  0  0  0  0  0  0  0  0
    0.8652    7.4943    9.6541 C   0  0  0  0  0  0  0  0  0  0  0  0
   -0.2122    6.6675   10.2809 N   0  0  0  0  0  0  0  0  0  0  0  0
  1  3  1  0  0  0  0
  1  2  1  1  0  0  0
  3  4  1  1  0  0  0
  3  5  1  0  0  0  0
  5  6  1  6  0  0  0
  7  8  1  1  0  0  0
  7  5  1  0  0  0  0
  9 11  1  6  0  0  0
  9  7  1  0  0  0  0
 10  9  1  0  0  0  0
 10  1  1  0  0  0  0
 12 11  1  0  0  0  0
 13 14  1  1  0  0  0
 15 13  1  0  0  0  0
 16 17  1  1  0  0  0
 16 15  1  0  0  0  0
 18  2  1  6  0  0  0
 18 19  1  0  0  0  0
 18 16  1  0  0  0  0
 19 20  1  1  0  0  0
 19 21  1  0  0  0  0
 21 22  1  6  0  0  0
 21 13  1  0  0  0  0
 23 20  1  1  0  0  0
 23 29  1  0  0  0  0
 24 25  1  6  0  0  0
 24 26  1  0  0  0  0
 24 23  1  0  0  0  0
 26 27  1  6  0  0  0
 26 28  1  0  0  0  0
 28 30  1  1  0  0  0
 29 28  1  0  0  0  0
 30 31  1  0  0  0  0
 32 27  1  6  0  0  0
 32 40  1  0  0  0  0
 33 35  1  0  0  0  0
 33 32  1  0  0  0  0
 33 34  1  6  0  0  0
 35 36  1  1  0  0  0
 35 37  1  0  0  0  0
 37 38  1  6  0  0  0
 37 39  1  0  0  0  0
 39 41  1  6  0  0  0
 40 39  1  0  0  0  0
 41 42  1  0  0  0  0
M  END
>  <CHROM.1>
-150.83580195,61.52019329,74.63473817,178.28228603,-53.81379562,-79.13484557
63.26726042,-150.88687433,76.52593324,2.78518992,11.23139473,10.78231222
1.87674111,-0.47439689,0.25838884

>  <Name>
lig.pdb

>  <RI>
0

>  <Rbt.Current_Directory>
/home/itssahil/PROJECTS/Mol_Feturizer/New_Systems/rnas/4wcr

>  <Rbt.Executable>
rbdock ($Id: //depot/dev/client3/rdock/2013.1/src/exe/rbdock.cxx#4 $)

>  <Rbt.Library>
libRbt.so (2013.1, Build901 2013/11/27)

>  <Rbt.Parameter_File>
/export/apps/rDock/src/rDock_2013.1_src/data/scripts/dock_solv.prm

>  <Rbt.Receptor>
prm/blind_docking_20.prm

>  <SCORE>
50.9963

>  <SCORE.INTER>
5.63169

>  <SCORE.INTER.CONST>
1

>  <SCORE.INTER.POLAR>
0

>  <SCORE.INTER.ROT>
9

>  <SCORE.INTER.SOLV>
27.5675

>  <SCORE.INTER.VDW>
-15.0347

>  <SCORE.INTER.norm>
0.134088

>  <SCORE.INTRA>
9.28405

>  <SCORE.INTRA.DIHEDRAL>
-5.09234

>  <SCORE.INTRA.DIHEDRAL.0>
16.2863

>  <SCORE.INTRA.POLAR>
0

>  <SCORE.INTRA.POLAR.0>
0

>  <SCORE.INTRA.REPUL>
-0.314433

>  <SCORE.INTRA.REPUL.0>
0.314433

>  <SCORE.INTRA.SOLV>
1.12485

>  <SCORE.INTRA.SOLV.lig_0>
-103.824

>  <SCORE.INTRA.VDW>
12.84

>  <SCORE.INTRA.VDW.0>
-5.30945

>  <SCORE.INTRA.norm>
0.221049

>  <SCORE.RESTR>
36.0806

>  <SCORE.RESTR.CAVITY>
36.0806

>  <SCORE.RESTR.norm>
0.859061

>  <SCORE.SYSTEM>
0

>  <SCORE.SYSTEM.CONST>
0

>  <SCORE.SYSTEM.DIHEDRAL>
0

>  <SCORE.SYSTEM.SOLV>
0

>  <SCORE.SYSTEM.norm>
0

>  <SCORE.heavy>
42

>  <SCORE.norm>
1.2142

>  <RMSD>
27.134

$$$$
lig.pdb
 OpenBabel11021811513D
libRbt.so/2013.1/901 2013/11/27
 42 45  0  0  0  0  0  0  0  0999 V2000
   -1.6155   11.0182    9.7115 C   0  0  2  0  0  0  0  0  0  0  0  0
   -0.4747   10.5732   10.5100 O   0  0  0  0  0  0  0  0  0  0  0  0
   -1.1093   11.0610    8.2009 C   0  0  2  0  0  0  0  0  0  0  0  0
   -0.7126    9.7211    7.7591 N   0  0  0  0  0  0  0  0  0  0  0  0
    0.0948   12.1181    8.0891 C   0  0  1  0  0  0  0  0  0  0  0  0
    0.5863   12.2061    6.7351 O   0  0  0  0  0  0  0  0  0  0  0  0
   -0.4412   13.4716    8.5861 C   0  0  2  0  0  0  0  0  0  0  0  0
    0.5755   14.4116    8.5052 O   0  0  0  0  0  0  0  0  0  0  0  0
   -0.9681   13.3301   10.0863 C   0  0  2  0  0  0  0  0  0  0  0  0
   -2.0193   12.3606   10.1792 O   0  0  0  0  0  0  0  0  0  0  0  0
   -1.5212   14.6235   10.6140 C   0  0  0  0  0  0  0  0  0  0  0  0
   -0.4352   15.5443   10.7259 O   0  0  0  0  0  0  0  0  0  0  0  0
    3.1551    8.0299   10.1511 C   0  0  2  0  0  0  0  0  0  0  0  0
    4.2302    7.2540    9.5721 N   0  0  0  0  0  0  0  0  0  0  0  0
    1.7615    7.4917    9.6441 C   0  0  0  0  0  0  0  0  0  0  0  0
    0.5774    8.3206   10.2551 C   0  0  2  0  0  0  0  0  0  0  0  0
   -0.6919    7.7958    9.7560 N   0  0  0  0  0  0  0  0  0  0  0  0
    0.6685    9.8695    9.8933 C   0  0  2  0  0  0  0  0  0  0  0  0
    2.0308   10.3941   10.4323 C   0  0  2  0  0  0  0  0  0  0  0  0
    2.0328   11.8584   10.0600 O   0  0  0  0  0  0  0  0  0  0  0  0
    3.2567    9.5752    9.7437 C   0  0  1  0  0  0  0  0  0  0  0  0
    4.5906    9.9469   10.2176 O   0  0  0  0  0  0  0  0  0  0  0  0
    2.5400   12.6304   11.0720 C   0  0  1  0  0  0  0  0  0  0  0  0
    3.8273   13.2474   10.7354 C   0  0  2  0  0  0  0  0  0  0  0  0
    4.7878   12.2404   10.7522 O   0  0  0  0  0  0  0  0  0  0  0  0
    3.8901   14.3919   11.7694 C   0  0  2  0  0  0  0  0  0  0  0  0
    5.0589   14.1528   12.5857 O   0  0  0  0  0  0  0  0  0  0  0  0
    2.6184   14.2791   12.5439 C   0  0  2  0  0  0  0  0  0  0  0  0
    1.7781   13.7651   11.4497 O   0  0  0  0  0  0  0  0  0  0  0  0
    2.0963   15.6848   13.0191 C   0  0  0  0  0  0  0  0  0  0  0  0
    0.6552   15.7289   13.2435 O   0  0  0  0  0  0  0  0  0  0  0  0
    5.1396   12.8612   13.2610 C   0  0  2  0  0  0  0  0  0  0  0  0
    5.7398   13.0941   14.7442 C   0  0  2  0  0  0  0  0  0  0  0  0
    7.0845   13.7471   14.6347 N   0  0  0  0  0  0  0  0  0  0  0  0
    5.8219   11.6683   15.4819 C   0  0  1  0  0  0  0  0  0  0  0  0
    4.4679   11.1238   15.5256 O   0  0  0  0  0  0  0  0  0  0  0  0
    6.8017   10.7065   14.6700 C   0  0  2  0  0  0  0  0  0  0  0  0
    8.1499   11.3167   14.6824 O   0  0  0  0  0  0  0  0  0  0  0  0
    6.2075   10.5323   13.1605 C   0  0  1  0  0  0  0  0  0  0  0  0
    6.0707   11.8866   12.5111 O   0  0  0  0  0  0  0  0  0  0  0  0
    7.1555    9.6063   12.3283 C   0  0  0  0  0  0  0  0  0  0  0  0
    7.0397    8.1646   12.7094 N   0  0  0  0  0  0  0  0  0  0  0  0
  1  3  1  0  0  0  0
  1  2  1  1  0  0  0
  3  4  1  1  0  0  0
  3  5  1  0  0  0  0
  5  6  1  6  0  0  0
  7  8  1  1  0  0  0
  7  5  1  0  0  0  0
  9 11  1  6  0  0  0
  9  7  1  0  0  0  0
 10  9  1  0  0  0  0
 10  1  1  0  0  0  0
 12 11  1  0  0  0  0
 13 14  1  6  0  0  0
 15 13  1  0  0  0  0
 16 17  1  6  0  0  0
 16 15  1  0  0  0  0
 18  2  1  1  0  0  0
 18 19  1  0  0  0  0
 18 16  1  0  0  0  0
 19 20  1  6  0  0  0
 19 21  1  0  0  0  0
 21 22  1  1  0  0  0
 21 13  1  0  0  0  0
 23 20  1  6  0  0  0
 23 29  1  0  0  0  0
 24 25  1  1  0  0  0
 24 26  1  0  0  0  0
 24 23  1  0  0  0  0
 26 27  1  1  0  0  0
 26 28  1  0  0  0  0
 28 30  1  6  0  0  0
 29 28  1  0  0  0  0
 30 31  1  0  0  0  0
 32 27  1  6  0  0  0
 32 40  1  0  0  0  0
 33 35  1  0  0  0  0
 33 32  1  0  0  0  0
 33 34  1  6  0  0  0
 35 36  1  6  0  0  0
 35 37  1  0  0  0  0
 37 38  1  6  0  0  0
 37 39  1  0  0  0  0
 39 41  1  6  0  0  0
 40 39  1  0  0  0  0
 41 42  1  0  0  0  0
M  END
>  <CHROM.1>
-19.38186984,-66.79866506,-104.82331994,138.96300864,112.10513969,-56.25059617
154.80119989,-140.30039000,74.34451329,2.63049135,11.75671684,11.20116164
-2.96350752,-0.56408109,0.39144943

>  <Name>
lig.pdb

>  <RI>
0

>  <Rbt.Current_Directory>
/home/itssahil/PROJECTS/Mol_Feturizer/New_Systems/rnas/4wcr

>  <Rbt.Executable>
rbdock ($Id: //depot/dev/client3/rdock/2013.1/src/exe/rbdock.cxx#4 $)

>  <Rbt.Library>
libRbt.so (2013.1, Build901 2013/11/27)

>  <Rbt.Parameter_File>
/export/apps/rDock/src/rDock_2013.1_src/data/scripts/dock_solv.prm

>  <Rbt.Receptor>
prm/blind_docking_20.prm

>  <SCORE>
44.3034

>  <SCORE.INTER>
-3.82236

>  <SCORE.INTER.CONST>
1

>  <SCORE.INTER.POLAR>
0

>  <SCORE.INTER.ROT>
9

>  <SCORE.INTER.SOLV>
24.2783

>  <SCORE.INTER.VDW>
-20.241

>  <SCORE.INTER.norm>
-0.0910085

>  <SCORE.INTRA>
16.5101

>  <SCORE.INTRA.DIHEDRAL>
16.3117

>  <SCORE.INTRA.DIHEDRAL.0>
16.2863

>  <SCORE.INTRA.POLAR>
0

>  <SCORE.INTRA.POLAR.0>
0

>  <SCORE.INTRA.REPUL>
-0.314433

>  <SCORE.INTRA.REPUL.0>
0.314433

>  <SCORE.INTRA.SOLV>
4.11815

>  <SCORE.INTRA.SOLV.lig_0>
-103.824

>  <SCORE.INTRA.VDW>
7.86732

>  <SCORE.INTRA.VDW.0>
-5.30945

>  <SCORE.INTRA.norm>
0.393097

>  <SCORE.RESTR>
31.6157

>  <SCORE.RESTR.CAVITY>
31.6157

>  <SCORE.RESTR.norm>
0.752754

>  <SCORE.SYSTEM>
0

>  <SCORE.SYSTEM.CONST>
0

>  <SCORE.SYSTEM.DIHEDRAL>
0

>  <SCORE.SYSTEM.SOLV>
0

>  <SCORE.SYSTEM.norm>
0

>  <SCORE.heavy>
42

>  <SCORE.norm>
1.05484

>  <RMSD>
27.151

$$$$
lig.pdb
 OpenBabel11021811513D
libRbt.so/2013.1/901 2013/11/27
 42 45  0  0  0  0  0  0  0  0999 V2000
    2.1271    9.0742    8.9988 C   0  0  2  0  0  0  0  0  0  0  0  0
    1.1245    9.4891    9.9785 O   0  0  0  0  0  0  0  0  0  0  0  0
    2.1077    7.4806    8.9926 C   0  0  2  0  0  0  0  0  0  0  0  0
    0.7942    6.9894    8.5670 N   0  0  0  0  0  0  0  0  0  0  0  0
    2.5077    6.9533   10.4561 C   0  0  1  0  0  0  0  0  0  0  0  0
    2.5171    5.5110   10.5053 O   0  0  0  0  0  0  0  0  0  0  0  0
    3.8903    7.5403   10.7884 C   0  0  2  0  0  0  0  0  0  0  0  0
    4.2683    7.1060   12.0502 O   0  0  0  0  0  0  0  0  0  0  0  0
    3.8330    9.1345   10.7281 C   0  0  2  0  0  0  0  0  0  0  0  0
    3.4431    9.5922    9.4273 O   0  0  0  0  0  0  0  0  0  0  0  0
    5.1666    9.7583   11.0272 C   0  0  0  0  0  0  0  0  0  0  0  0
    6.1007    9.2626   10.0674 O   0  0  0  0  0  0  0  0  0  0  0  0
   -0.4734   13.1891    8.0997 C   0  0  2  0  0  0  0  0  0  0  0  0
   -1.3609   14.2836    7.7720 N   0  0  0  0  0  0  0  0  0  0  0  0
   -1.2033   11.8094    7.8705 C   0  0  0  0  0  0  0  0  0  0  0  0
   -0.2620   10.6045    8.2235 C   0  0  2  0  0  0  0  0  0  0  0  0
   -0.9767    9.3487    8.0049 N   0  0  0  0  0  0  0  0  0  0  0  0
    0.2435   10.6494    9.7338 C   0  0  2  0  0  0  0  0  0  0  0  0
    0.9932   11.9983    9.9339 C   0  0  2  0  0  0  0  0  0  0  0  0
    1.4444   11.9566   11.3752 O   0  0  0  0  0  0  0  0  0  0  0  0
   -0.0084   13.2444    9.6311 C   0  0  1  0  0  0  0  0  0  0  0  0
    0.6053   14.5691    9.7344 O   0  0  0  0  0  0  0  0  0  0  0  0
    2.2562   13.0187   11.6754 C   0  0  1  0  0  0  0  0  0  0  0  0
    3.6334   12.8421   11.2029 C   0  0  2  0  0  0  0  0  0  0  0  0
    4.2357   11.8926   12.0229 O   0  0  0  0  0  0  0  0  0  0  0  0
    4.1407   14.3001   11.2076 C   0  0  2  0  0  0  0  0  0  0  0  0
    5.2506   14.3525   12.1322 O   0  0  0  0  0  0  0  0  0  0  0  0
    2.9740   15.1105   11.6677 C   0  0  2  0  0  0  0  0  0  0  0  0
    1.9181   14.2640   11.0878 O   0  0  0  0  0  0  0  0  0  0  0  0
    2.9552   16.5373   11.0055 C   0  0  0  0  0  0  0  0  0  0  0  0
    4.0662   16.7720   10.0891 O   0  0  0  0  0  0  0  0  0  0  0  0
    4.9697   14.0033   13.5215 C   0  0  2  0  0  0  0  0  0  0  0  0
    5.8452   14.9671   14.4800 C   0  0  2  0  0  0  0  0  0  0  0  0
    7.2981   14.8021   14.1501 N   0  0  0  0  0  0  0  0  0  0  0  0
    5.5274   14.5788   16.0071 C   0  0  1  0  0  0  0  0  0  0  0  0
    4.0945   14.7676   16.2136 O   0  0  0  0  0  0  0  0  0  0  0  0
    5.9504   13.0631   16.2682 C   0  0  2  0  0  0  0  0  0  0  0  0
    7.4108   12.9559   16.0537 O   0  0  0  0  0  0  0  0  0  0  0  0
    5.0972   12.1147   15.2511 C   0  0  1  0  0  0  0  0  0  0  0  0
    5.3534   12.5409   13.8272 O   0  0  0  0  0  0  0  0  0  0  0  0
    5.5006   10.6185   15.4681 C   0  0  0  0  0  0  0  0  0  0  0  0
    4.3615    9.6733   15.2526 N   0  0  0  0  0  0  0  0  0  0  0  0
  1  3  1  0  0  0  0
  1  2  1  1  0  0  0
  3  4  1  1  0  0  0
  3  5  1  0  0  0  0
  5  6  1  6  0  0  0
  7  8  1  1  0  0  0
  7  5  1  0  0  0  0
  9 11  1  6  0  0  0
  9  7  1  0  0  0  0
 10  9  1  0  0  0  0
 10  1  1  0  0  0  0
 12 11  1  0  0  0  0
 13 14  1  1  0  0  0
 15 13  1  0  0  0  0
 16 17  1  1  0  0  0
 16 15  1  0  0  0  0
 18  2  1  6  0  0  0
 18 19  1  0  0  0  0
 18 16  1  0  0  0  0
 19 20  1  1  0  0  0
 19 21  1  0  0  0  0
 21 22  1  6  0  0  0
 21 13  1  0  0  0  0
 23 20  1  6  0  0  0
 23 29  1  0  0  0  0
 24 25  1  1  0  0  0
 24 26  1  0  0  0  0
 24 23  1  0  0  0  0
 26 27  1  1  0  0  0
 26 28  1  0  0  0  0
 28 30  1  6  0  0  0
 29 28  1  0  0  0  0
 30 31  1  0  0  0  0
 32 27  1  6  0  0  0
 32 40  1  0  0  0  0
 33 35  1  0  0  0  0
 33 32  1  0  0  0  0
 33 34  1  6  0  0  0
 35 36  1  6  0  0  0
 35 37  1  0  0  0  0
 37 38  1  6  0  0  0
 37 39  1  0  0  0  0
 39 41  1  6  0  0  0
 40 39  1  0  0  0  0
 41 42  1  0  0  0  0
M  END
>  <CHROM.1>
-140.49623217,58.75128845,42.59638751,173.26602788,-78.77492934,-60.79175901
0.05030444,-142.72266142,146.64962533,3.12276847,11.73252190,11.45714360
-2.47514064,-0.80078548,0.15455443

>  <Name>
lig.pdb

>  <RI>
0

>  <Rbt.Current_Directory>
/home/itssahil/PROJECTS/Mol_Feturizer/New_Systems/rnas/4wcr

>  <Rbt.Executable>
rbdock ($Id: //depot/dev/client3/rdock/2013.1/src/exe/rbdock.cxx#4 $)

>  <Rbt.Library>
libRbt.so (2013.1, Build901 2013/11/27)

>  <Rbt.Parameter_File>
/export/apps/rDock/src/rDock_2013.1_src/data/scripts/dock_solv.prm

>  <Rbt.Receptor>
prm/blind_docking_20.prm

>  <SCORE>
57.8596

>  <SCORE.INTER>
-6.01267

>  <SCORE.INTER.CONST>
1

>  <SCORE.INTER.POLAR>
0

>  <SCORE.INTER.ROT>
9

>  <SCORE.INTER.SOLV>
24.0984

>  <SCORE.INTER.VDW>
-21.6413

>  <SCORE.INTER.norm>
-0.143159

>  <SCORE.INTRA>
25.1768

>  <SCORE.INTRA.DIHEDRAL>
5.3216

>  <SCORE.INTRA.DIHEDRAL.0>
16.2863

>  <SCORE.INTRA.POLAR>
0

>  <SCORE.INTRA.POLAR.0>
0

>  <SCORE.INTRA.REPUL>
-0.313438

>  <SCORE.INTRA.REPUL.0>
0.314433

>  <SCORE.INTRA.SOLV>
0.34864

>  <SCORE.INTRA.SOLV.lig_0>
-103.824

>  <SCORE.INTRA.VDW>
23.9089

>  <SCORE.INTRA.VDW.0>
-5.30945

>  <SCORE.INTRA.norm>
0.599448

>  <SCORE.RESTR>
38.6954

>  <SCORE.RESTR.CAVITY>
38.6954

>  <SCORE.RESTR.norm>
0.92132

>  <SCORE.SYSTEM>
0

>  <SCORE.SYSTEM.CONST>
0

>  <SCORE.SYSTEM.DIHEDRAL>
0

>  <SCORE.SYSTEM.SOLV>
0

>  <SCORE.SYSTEM.norm>
0

>  <SCORE.heavy>
42

>  <SCORE.norm>
1.37761

>  <RMSD>
27.158

$$$$
lig.pdb
 OpenBabel11021811513D
libRbt.so/2013.1/901 2013/11/27
 42 45  0  0  0  0  0  0  0  0999 V2000
    5.3039   12.0331   13.5682 C   0  0  2  0  0  0  0  0  0  0  0  0
    5.7570   13.0417   12.6118 O   0  0  0  0  0  0  0  0  0  0  0  0
    6.5517   11.7234   14.5100 C   0  0  2  0  0  0  0  0  0  0  0  0
    6.9485   12.9295   15.2420 N   0  0  0  0  0  0  0  0  0  0  0  0
    7.7466   11.1396   13.6094 C   0  0  1  0  0  0  0  0  0  0  0  0
    8.9028   10.8298   14.4156 O   0  0  0  0  0  0  0  0  0  0  0  0
    7.2061    9.8912   12.8912 C   0  0  2  0  0  0  0  0  0  0  0  0
    8.2137    9.3596   12.1001 O   0  0  0  0  0  0  0  0  0  0  0  0
    5.9341   10.2797   12.0084 C   0  0  2  0  0  0  0  0  0  0  0  0
    4.8874   10.8300   12.8180 O   0  0  0  0  0  0  0  0  0  0  0  0
    5.3550    9.0886   11.2991 C   0  0  0  0  0  0  0  0  0  0  0  0
    5.9836    8.9996   10.0198 O   0  0  0  0  0  0  0  0  0  0  0  0
    2.4081   15.9624   12.7751 C   0  0  2  0  0  0  0  0  0  0  0  0
    1.6102   17.1441   12.5302 N   0  0  0  0  0  0  0  0  0  0  0  0
    3.8374   16.3707   13.3033 C   0  0  0  0  0  0  0  0  0  0  0  0
    4.7251   15.1051   13.5728 C   0  0  2  0  0  0  0  0  0  0  0  0
    6.0397   15.5264   14.0527 N   0  0  0  0  0  0  0  0  0  0  0  0
    4.9190   14.2092   12.2697 C   0  0  2  0  0  0  0  0  0  0  0  0
    3.5036   13.7835   11.7827 C   0  0  2  0  0  0  0  0  0  0  0  0
    3.7757   12.9369   10.5612 O   0  0  0  0  0  0  0  0  0  0  0  0
    2.6110   15.1003   11.4410 C   0  0  1  0  0  0  0  0  0  0  0  0
    1.2358   14.8228   11.0237 O   0  0  0  0  0  0  0  0  0  0  0  0
    3.0504   11.7747   10.5873 C   0  0  1  0  0  0  0  0  0  0  0  0
    1.7833   11.8704    9.8549 C   0  0  2  0  0  0  0  0  0  0  0  0
    0.9234   12.6593   10.6133 O   0  0  0  0  0  0  0  0  0  0  0  0
    1.4593   10.3793    9.6212 C   0  0  2  0  0  0  0  0  0  0  0  0
    0.2019   10.1168   10.2843 O   0  0  0  0  0  0  0  0  0  0  0  0
    2.5982    9.6379   10.2400 C   0  0  2  0  0  0  0  0  0  0  0  0
    3.6417   10.6417    9.9732 O   0  0  0  0  0  0  0  0  0  0  0  0
    2.9147    8.3033    9.4699 C   0  0  0  0  0  0  0  0  0  0  0  0
    1.7448    7.4570    9.2597 O   0  0  0  0  0  0  0  0  0  0  0  0
   -0.9741   10.8111    9.7685 C   0  0  2  0  0  0  0  0  0  0  0  0
   -1.7039    9.8527    8.6900 C   0  0  2  0  0  0  0  0  0  0  0  0
   -0.7360    9.5148    7.5966 N   0  0  0  0  0  0  0  0  0  0  0  0
   -2.9991   10.6226    8.1301 C   0  0  1  0  0  0  0  0  0  0  0  0
   -3.8625   10.9070    9.2726 O   0  0  0  0  0  0  0  0  0  0  0  0
   -2.5440   11.9686    7.4051 C   0  0  2  0  0  0  0  0  0  0  0  0
   -1.6881   11.5983    6.2559 O   0  0  0  0  0  0  0  0  0  0  0  0
   -1.7602   12.8940    8.4966 C   0  0  1  0  0  0  0  0  0  0  0  0
   -0.5908   12.1279    9.0627 O   0  0  0  0  0  0  0  0  0  0  0  0
   -1.2830   14.2185    7.8135 C   0  0  0  0  0  0  0  0  0  0  0  0
   -0.2579   13.9859    6.7493 N   0  0  0  0  0  0  0  0  0  0  0  0
  1  3  1  0  0  0  0
  1  2  1  6  0  0  0
  3  4  1  6  0  0  0
  3  5  1  0  0  0  0
  5  6  1  1  0  0  0
  7  8  1  6  0  0  0
  7  5  1  0  0  0  0
  9 11  1  1  0  0  0
  9  7  1  0  0  0  0
 10  9  1  0  0  0  0
 10  1  1  0  0  0  0
 12 11  1  0  0  0  0
 13 14  1  6  0  0  0
 15 13  1  0  0  0  0
 16 17  1  6  0  0  0
 16 15  1  0  0  0  0
 18  2  1  1  0  0  0
 18 19  1  0  0  0  0
 18 16  1  0  0  0  0
 19 20  1  6  0  0  0
 19 21  1  0  0  0  0
 21 22  1  1  0  0  0
 21 13  1  0  0  0  0
 23 20  1  6  0  0  0
 23 29  1  0  0  0  0
 24 25  1  1  0  0  0
 24 26  1  0  0  0  0
 24 23  1  0  0  0  0
 26 27  1  1  0  0  0
 26 28  1  0  0  0  0
 28 30  1  6  0  0  0
 29 28  1  0  0  0  0
 30 31  1  0  0  0  0
 32 27  1  6  0  0  0
 32 40  1  0  0  0  0
 33 35  1  0  0  0  0
 33 32  1  0  0  0  0
 33 34  1  6  0  0  0
 35 36  1  1  0  0  0
 35 37  1  0  0  0  0
 37 38  1  6  0  0  0
 37 39  1  0  0  0  0
 39 41  1  6  0  0  0
 40 39  1  0  0  0  0
 41 42  1  0  0  0  0
M  END
>  <CHROM.1>
-135.99096898,-91.02833634,64.03050280,133.25783771,94.58952626,64.52535237
-51.22396271,93.43521965,-65.17047211,2.70626257,11.92299275,10.87284686
0.23994645,-0.51548791,0.35089103

>  <Name>
lig.pdb

>  <RI>
0

>  <Rbt.Current_Directory>
/home/itssahil/PROJECTS/Mol_Feturizer/New_Systems/rnas/4wcr

>  <Rbt.Executable>
rbdock ($Id: //depot/dev/client3/rdock/2013.1/src/exe/rbdock.cxx#4 $)

>  <Rbt.Library>
libRbt.so (2013.1, Build901 2013/11/27)

>  <Rbt.Parameter_File>
/export/apps/rDock/src/rDock_2013.1_src/data/scripts/dock_solv.prm

>  <Rbt.Receptor>
prm/blind_docking_20.prm

>  <SCORE>
43.9405

>  <SCORE.INTER>
-10.4683

>  <SCORE.INTER.CONST>
1

>  <SCORE.INTER.POLAR>
0

>  <SCORE.INTER.ROT>
9

>  <SCORE.INTER.SOLV>
22.0029

>  <SCORE.INTER.VDW>
-23.9132

>  <SCORE.INTER.norm>
-0.249246

>  <SCORE.INTRA>
15.0103

>  <SCORE.INTRA.DIHEDRAL>
8.52732

>  <SCORE.INTRA.DIHEDRAL.0>
16.2863

>  <SCORE.INTRA.POLAR>
0

>  <SCORE.INTRA.POLAR.0>
0

>  <SCORE.INTRA.REPUL>
-0.178838

>  <SCORE.INTRA.REPUL.0>
0.314433

>  <SCORE.INTRA.SOLV>
3.84426

>  <SCORE.INTRA.SOLV.lig_0>
-103.824

>  <SCORE.INTRA.VDW>
9.71869

>  <SCORE.INTRA.VDW.0>
-5.30945

>  <SCORE.INTRA.norm>
0.357388

>  <SCORE.RESTR>
39.3986

>  <SCORE.RESTR.CAVITY>
39.3986

>  <SCORE.RESTR.norm>
0.938062

>  <SCORE.SYSTEM>
0

>  <SCORE.SYSTEM.CONST>
0

>  <SCORE.SYSTEM.DIHEDRAL>
0

>  <SCORE.SYSTEM.SOLV>
0

>  <SCORE.SYSTEM.norm>
0

>  <SCORE.heavy>
42

>  <SCORE.norm>
1.0462

>  <RMSD>
27.191

$$$$
lig.pdb
 OpenBabel11021811513D
libRbt.so/2013.1/901 2013/11/27
 42 45  0  0  0  0  0  0  0  0999 V2000
    1.8224    9.2776    9.1149 C   0  0  2  0  0  0  0  0  0  0  0  0
    0.8681    9.5942   10.1761 O   0  0  0  0  0  0  0  0  0  0  0  0
    1.8413    7.6885    8.9957 C   0  0  2  0  0  0  0  0  0  0  0  0
    0.5178    7.1914    8.6097 N   0  0  0  0  0  0  0  0  0  0  0  0
    2.3376    7.0713   10.3930 C   0  0  1  0  0  0  0  0  0  0  0  0
    2.3847    5.6299   10.3382 O   0  0  0  0  0  0  0  0  0  0  0  0
    3.7223    7.6723   10.6890 C   0  0  2  0  0  0  0  0  0  0  0  0
    4.1828    7.1615   11.8935 O   0  0  0  0  0  0  0  0  0  0  0  0
    3.6230    9.2645   10.7464 C   0  0  2  0  0  0  0  0  0  0  0  0
    3.1479    9.8012    9.5055 O   0  0  0  0  0  0  0  0  0  0  0  0
    4.9562    9.9032   11.0147 C   0  0  0  0  0  0  0  0  0  0  0  0
    5.2011    9.8188   12.4192 O   0  0  0  0  0  0  0  0  0  0  0  0
   -1.5327   13.0928    8.8461 C   0  0  2  0  0  0  0  0  0  0  0  0
   -2.2976   14.3202    8.8816 N   0  0  0  0  0  0  0  0  0  0  0  0
   -2.1635   12.0300    9.8264 C   0  0  0  0  0  0  0  0  0  0  0  0
   -1.3485   10.6892    9.8096 C   0  0  2  0  0  0  0  0  0  0  0  0
   -1.9600    9.7367   10.7340 N   0  0  0  0  0  0  0  0  0  0  0  0
    0.1756   10.8982   10.2244 C   0  0  2  0  0  0  0  0  0  0  0  0
    0.7937   11.9197    9.2263 C   0  0  2  0  0  0  0  0  0  0  0  0
    2.2288   12.0526    9.6797 O   0  0  0  0  0  0  0  0  0  0  0  0
   -0.0148   13.3299    9.2978 C   0  0  1  0  0  0  0  0  0  0  0  0
    0.4453   14.3537    8.3585 O   0  0  0  0  0  0  0  0  0  0  0  0
    2.3592   13.0107   10.6505 C   0  0  1  0  0  0  0  0  0  0  0  0
    3.6511   12.9566   11.3427 C   0  0  2  0  0  0  0  0  0  0  0  0
    3.6335   11.8367   12.1687 O   0  0  0  0  0  0  0  0  0  0  0  0
    3.7197   14.3702   11.9592 C   0  0  2  0  0  0  0  0  0  0  0  0
    3.7821   14.1972   13.3930 O   0  0  0  0  0  0  0  0  0  0  0  0
    2.4614   15.0423   11.5182 C   0  0  2  0  0  0  0  0  0  0  0  0
    2.3309   14.3612   10.2194 O   0  0  0  0  0  0  0  0  0  0  0  0
    2.6668   16.5874   11.3063 C   0  0  0  0  0  0  0  0  0  0  0  0
    3.5620   17.1985   12.2832 O   0  0  0  0  0  0  0  0  0  0  0  0
    4.7743   13.2550   13.9018 C   0  0  2  0  0  0  0  0  0  0  0  0
    5.6000   13.9724   15.0926 C   0  0  2  0  0  0  0  0  0  0  0  0
    6.2406   15.2208   14.5654 N   0  0  0  0  0  0  0  0  0  0  0  0
    6.6872   12.9276   15.6495 C   0  0  1  0  0  0  0  0  0  0  0  0
    5.9584   11.7558   16.1263 O   0  0  0  0  0  0  0  0  0  0  0  0
    7.6974   12.5381   14.4780 C   0  0  2  0  0  0  0  0  0  0  0  0
    8.4045   13.7692   14.0603 O   0  0  0  0  0  0  0  0  0  0  0  0
    6.8355   11.8693   13.2649 C   0  0  1  0  0  0  0  0  0  0  0  0
    5.7745   12.8373   12.8044 O   0  0  0  0  0  0  0  0  0  0  0  0
    7.7948   11.4899   12.0883 C   0  0  0  0  0  0  0  0  0  0  0  0
    8.3037   12.6848   11.3463 N   0  0  0  0  0  0  0  0  0  0  0  0
  1  3  1  0  0  0  0
  1  2  1  1  0  0  0
  3  4  1  1  0  0  0
  3  5  1  0  0  0  0
  5  6  1  6  0  0  0
  7  8  1  1  0  0  0
  7  5  1  0  0  0  0
  9 11  1  6  0  0  0
  9  7  1  0  0  0  0
 10  9  1  0  0  0  0
 10  1  1  0  0  0  0
 12 11  1  0  0  0  0
 13 14  1  1  0  0  0
 15 13  1  0  0  0  0
 16 17  1  1  0  0  0
 16 15  1  0  0  0  0
 18  2  1  6  0  0  0
 18 19  1  0  0  0  0
 18 16  1  0  0  0  0
 19 20  1  1  0  0  0
 19 21  1  0  0  0  0
 21 22  1  6  0  0  0
 21 13  1  0  0  0  0
 23 20  1  6  0  0  0
 23 29  1  0  0  0  0
 24 25  1  1  0  0  0
 24 26  1  0  0  0  0
 24 23  1  0  0  0  0
 26 27  1  1  0  0  0
 26 28  1  0  0  0  0
 28 30  1  6  0  0  0
 29 28  1  0  0  0  0
 30 31  1  0  0  0  0
 32 27  1  6  0  0  0
 32 40  1  0  0  0  0
 33 35  1  0  0  0  0
 33 32  1  0  0  0  0
 33 34  1  6  0  0  0
 35 36  1  6  0  0  0
 35 37  1  0  0  0  0
 37 38  1  6  0  0  0
 37 39  1  0  0  0  0
 39 41  1  6  0  0  0
 40 39  1  0  0  0  0
 41 42  1  0  0  0  0
M  END
>  <CHROM.1>
-155.03643772,-80.36639511,107.15811617,-87.07453041,166.26843175,49.72188950
-37.40671485,131.08868011,-72.01858598,3.15722200,11.77422690,11.37282224
-2.65369041,-0.53612396,0.17119974

>  <Name>
lig.pdb

>  <RI>
0

>  <Rbt.Current_Directory>
/home/itssahil/PROJECTS/Mol_Feturizer/New_Systems/rnas/4wcr

>  <Rbt.Executable>
rbdock ($Id: //depot/dev/client3/rdock/2013.1/src/exe/rbdock.cxx#4 $)

>  <Rbt.Library>
libRbt.so (2013.1, Build901 2013/11/27)

>  <Rbt.Parameter_File>
/export/apps/rDock/src/rDock_2013.1_src/data/scripts/dock_solv.prm

>  <Rbt.Receptor>
prm/blind_docking_20.prm

>  <SCORE>
37.4533

>  <SCORE.INTER>
-10.0289

>  <SCORE.INTER.CONST>
1

>  <SCORE.INTER.POLAR>
0

>  <SCORE.INTER.ROT>
9

>  <SCORE.INTER.SOLV>
22.9616

>  <SCORE.INTER.VDW>
-23.9398

>  <SCORE.INTER.norm>
-0.238784

>  <SCORE.INTRA>
12.5789

>  <SCORE.INTRA.DIHEDRAL>
7.54456

>  <SCORE.INTRA.DIHEDRAL.0>
16.2863

>  <SCORE.INTRA.POLAR>
0

>  <SCORE.INTRA.POLAR.0>
0

>  <SCORE.INTRA.REPUL>
-0.314433

>  <SCORE.INTRA.REPUL.0>
0.314433

>  <SCORE.INTRA.SOLV>
0.414791

>  <SCORE.INTRA.SOLV.lig_0>
-103.824

>  <SCORE.INTRA.VDW>
10.1714

>  <SCORE.INTRA.VDW.0>
-5.30945

>  <SCORE.INTRA.norm>
0.299497

>  <SCORE.RESTR>
34.9034

>  <SCORE.RESTR.CAVITY>
34.9034

>  <SCORE.RESTR.norm>
0.831033

>  <SCORE.SYSTEM>
0

>  <SCORE.SYSTEM.CONST>
0

>  <SCORE.SYSTEM.DIHEDRAL>
0

>  <SCORE.SYSTEM.SOLV>
0

>  <SCORE.SYSTEM.norm>
0

>  <SCORE.heavy>
42

>  <SCORE.norm>
0.891746

>  <RMSD>
27.199

$$$$
lig.pdb
 OpenBabel11021811513D
libRbt.so/2013.1/901 2013/11/27
 42 45  0  0  0  0  0  0  0  0999 V2000
    1.8704    8.8803    8.9005 C   0  0  2  0  0  0  0  0  0  0  0  0
    0.8600    9.1767    9.9146 O   0  0  0  0  0  0  0  0  0  0  0  0
    1.8882    7.2945    8.7431 C   0  0  2  0  0  0  0  0  0  0  0  0
    0.5859    6.8152    8.2720 N   0  0  0  0  0  0  0  0  0  0  0  0
    2.3030    6.6401   10.1500 C   0  0  1  0  0  0  0  0  0  0  0  0
    2.3461    5.2003   10.0621 O   0  0  0  0  0  0  0  0  0  0  0  0
    3.6720    7.2250   10.5374 C   0  0  2  0  0  0  0  0  0  0  0  0
    4.0622    6.6819   11.7525 O   0  0  0  0  0  0  0  0  0  0  0  0
    3.5774    8.8160   10.6287 C   0  0  2  0  0  0  0  0  0  0  0  0
    3.1747    9.3859    9.3771 O   0  0  0  0  0  0  0  0  0  0  0  0
    4.8966    9.4396   10.9865 C   0  0  0  0  0  0  0  0  0  0  0  0
    4.7787   10.8480   10.7811 O   0  0  0  0  0  0  0  0  0  0  0  0
   -2.0027   12.0075    8.0269 C   0  0  2  0  0  0  0  0  0  0  0  0
   -2.9840   13.0587    7.8688 N   0  0  0  0  0  0  0  0  0  0  0  0
   -2.5217   10.9288    9.0543 C   0  0  0  0  0  0  0  0  0  0  0  0
   -1.4720    9.7783    9.2470 C   0  0  2  0  0  0  0  0  0  0  0  0
   -1.9870    8.8063   10.2092 N   0  0  0  0  0  0  0  0  0  0  0  0
   -0.0663   10.3180    9.7675 C   0  0  2  0  0  0  0  0  0  0  0  0
    0.4499   11.3524    8.7257 C   0  0  2  0  0  0  0  0  0  0  0  0
    1.7791   11.8035    9.2847 O   0  0  0  0  0  0  0  0  0  0  0  0
   -0.6120   12.5766    8.5806 C   0  0  1  0  0  0  0  0  0  0  0  0
   -0.2568   13.5871    7.5832 O   0  0  0  0  0  0  0  0  0  0  0  0
    1.6190   12.8011   10.2101 C   0  0  1  0  0  0  0  0  0  0  0  0
    2.8404   13.0802   10.9726 C   0  0  2  0  0  0  0  0  0  0  0  0
    3.0318   12.0199   11.8535 O   0  0  0  0  0  0  0  0  0  0  0  0
    2.5368   14.4922   11.5179 C   0  0  2  0  0  0  0  0  0  0  0  0
    2.5453   14.3931   12.9600 O   0  0  0  0  0  0  0  0  0  0  0  0
    1.1873   14.8306   10.9755 C   0  0  2  0  0  0  0  0  0  0  0  0
    1.3038   14.0895    9.7087 O   0  0  0  0  0  0  0  0  0  0  0  0
    1.0392   16.3713   10.6951 C   0  0  0  0  0  0  0  0  0  0  0  0
    1.2782   17.2056   11.8681 O   0  0  0  0  0  0  0  0  0  0  0  0
    3.7273   14.9009   13.6498 C   0  0  2  0  0  0  0  0  0  0  0  0
    4.9848   13.9553   13.2770 C   0  0  2  0  0  0  0  0  0  0  0  0
    4.6749   12.5438   13.6747 N   0  0  0  0  0  0  0  0  0  0  0  0
    6.2823   14.5232   14.0372 C   0  0  1  0  0  0  0  0  0  0  0  0
    6.4847   15.8962   13.5836 O   0  0  0  0  0  0  0  0  0  0  0  0
    6.0403   14.4688   15.6129 C   0  0  2  0  0  0  0  0  0  0  0  0
    5.8586   13.0508   15.9956 O   0  0  0  0  0  0  0  0  0  0  0  0
    4.7336   15.3826   15.9584 C   0  0  1  0  0  0  0  0  0  0  0  0
    3.5435   14.8783   15.1811 O   0  0  0  0  0  0  0  0  0  0  0  0
    4.4557   15.3379   17.4977 C   0  0  0  0  0  0  0  0  0  0  0  0
    3.9671   14.0021   17.9606 N   0  0  0  0  0  0  0  0  0  0  0  0
  1  3  1  0  0  0  0
  1  2  1  1  0  0  0
  3  4  1  1  0  0  0
  3  5  1  0  0  0  0
  5  6  1  6  0  0  0
  7  8  1  1  0  0  0
  7  5  1  0  0  0  0
  9 11  1  6  0  0  0
  9  7  1  0  0  0  0
 10  9  1  0  0  0  0
 10  1  1  0  0  0  0
 12 11  1  0  0  0  0
 13 14  1  1  0  0  0
 15 13  1  0  0  0  0
 16 17  1  1  0  0  0
 16 15  1  0  0  0  0
 18  2  1  6  0  0  0
 18 19  1  0  0  0  0
 18 16  1  0  0  0  0
 19 20  1  1  0  0  0
 19 21  1  0  0  0  0
 21 22  1  6  0  0  0
 21 13  1  0  0  0  0
 23 20  1  6  0  0  0
 23 29  1  0  0  0  0
 24 25  1  1  0  0  0
 24 26  1  0  0  0  0
 24 23  1  0  0  0  0
 26 27  1  1  0  0  0
 26 28  1  0  0  0  0
 28 30  1  6  0  0  0
 29 28  1  0  0  0  0
 30 31  1  0  0  0  0
 32 27  1  6  0  0  0
 32 40  1  0  0  0  0
 33 35  1  0  0  0  0
 33 32  1  0  0  0  0
 33 34  1  1  0  0  0
 35 36  1  6  0  0  0
 35 37  1  0  0  0  0
 37 38  1  6  0  0  0
 37 39  1  0  0  0  0
 39 41  1  1  0  0  0
 40 39  1  0  0  0  0
 41 42  1  0  0  0  0
M  END
>  <CHROM.1>
-139.24362055,168.55883462,100.39762269,-83.94003258,168.31268669,103.22074181
-57.27624373,-67.11453530,-69.59432500,2.32593728,11.88772541,11.33882302
-2.21096981,-0.72079483,0.32298657

>  <Name>
lig.pdb

>  <RI>
0

>  <Rbt.Current_Directory>
/home/itssahil/PROJECTS/Mol_Feturizer/New_Systems/rnas/4wcr

>  <Rbt.Executable>
rbdock ($Id: //depot/dev/client3/rdock/2013.1/src/exe/rbdock.cxx#4 $)

>  <Rbt.Library>
libRbt.so (2013.1, Build901 2013/11/27)

>  <Rbt.Parameter_File>
/export/apps/rDock/src/rDock_2013.1_src/data/scripts/dock_solv.prm

>  <Rbt.Receptor>
prm/blind_docking_80.prm

>  <SCORE>
8.53195

>  <SCORE.INTER>
-8.01664

>  <SCORE.INTER.CONST>
1

>  <SCORE.INTER.POLAR>
0

>  <SCORE.INTER.ROT>
9

>  <SCORE.INTER.SOLV>
26.4628

>  <SCORE.INTER.VDW>
-23.7653

>  <SCORE.INTER.norm>
-0.190872

>  <SCORE.INTRA>
6.14658

>  <SCORE.INTRA.DIHEDRAL>
5.13843

>  <SCORE.INTRA.DIHEDRAL.0>
16.2863

>  <SCORE.INTRA.POLAR>
0

>  <SCORE.INTRA.POLAR.0>
0

>  <SCORE.INTRA.REPUL>
-0.314433

>  <SCORE.INTRA.REPUL.0>
0.314433

>  <SCORE.INTRA.SOLV>
1.97605

>  <SCORE.INTRA.SOLV.lig_0>
-103.824

>  <SCORE.INTRA.VDW>
4.16151

>  <SCORE.INTRA.VDW.0>
-5.30945

>  <SCORE.INTRA.norm>
0.146347

>  <SCORE.RESTR>
10.402

>  <SCORE.RESTR.CAVITY>
10.402

>  <SCORE.RESTR.norm>
0.247667

>  <SCORE.SYSTEM>
0

>  <SCORE.SYSTEM.CONST>
0

>  <SCORE.SYSTEM.DIHEDRAL>
0

>  <SCORE.SYSTEM.SOLV>
0

>  <SCORE.SYSTEM.norm>
0

>  <SCORE.heavy>
42

>  <SCORE.norm>
0.203142

>  <RMSD>
27.202

$$$$
lig.pdb
 OpenBabel11021811513D
libRbt.so/2013.1/901 2013/11/27
 42 45  0  0  0  0  0  0  0  0999 V2000
   -0.4999   11.5115    8.2553 C   0  0  2  0  0  0  0  0  0  0  0  0
    0.0392   10.7165    9.3574 O   0  0  0  0  0  0  0  0  0  0  0  0
   -0.4179   13.0323    8.7246 C   0  0  2  0  0  0  0  0  0  0  0  0
    0.9768   13.4197    8.9535 N   0  0  0  0  0  0  0  0  0  0  0  0
   -1.3225   13.2171   10.0389 C   0  0  1  0  0  0  0  0  0  0  0  0
   -1.2940   14.5833   10.5028 O   0  0  0  0  0  0  0  0  0  0  0  0
   -2.7494   12.7724    9.6746 C   0  0  2  0  0  0  0  0  0  0  0  0
   -3.5608   12.9170   10.7901 O   0  0  0  0  0  0  0  0  0  0  0  0
   -2.7353   11.2569    9.1732 C   0  0  2  0  0  0  0  0  0  0  0  0
   -1.8991   11.0981    8.0203 O   0  0  0  0  0  0  0  0  0  0  0  0
   -4.1058   10.7785    8.7858 C   0  0  0  0  0  0  0  0  0  0  0  0
   -4.9105   10.7708    9.9657 O   0  0  0  0  0  0  0  0  0  0  0  0
    3.5452    8.2174   10.4688 C   0  0  2  0  0  0  0  0  0  0  0  0
    4.7701    7.4548   10.3636 N   0  0  0  0  0  0  0  0  0  0  0  0
    2.4702    7.6626    9.4561 C   0  0  0  0  0  0  0  0  0  0  0  0
    1.1319    8.4768    9.5475 C   0  0  2  0  0  0  0  0  0  0  0  0
    0.1680    7.9370    8.5909 N   0  0  0  0  0  0  0  0  0  0  0  0
    1.3407   10.0269    9.2441 C   0  0  2  0  0  0  0  0  0  0  0  0
    2.3744   10.5677   10.2740 C   0  0  2  0  0  0  0  0  0  0  0  0
    2.5064   12.0321    9.9262 O   0  0  0  0  0  0  0  0  0  0  0  0
    3.7815    9.7640   10.1277 C   0  0  1  0  0  0  0  0  0  0  0  0
    4.8166   10.1516   11.0873 O   0  0  0  0  0  0  0  0  0  0  0  0
    2.8099   12.7826   11.0317 C   0  0  1  0  0  0  0  0  0  0  0  0
    4.0192   13.5948   10.8616 C   0  0  2  0  0  0  0  0  0  0  0  0
    5.1093   12.7306   10.9018 O   0  0  0  0  0  0  0  0  0  0  0  0
    3.8292   14.6506   11.9717 C   0  0  2  0  0  0  0  0  0  0  0  0
    4.9467   14.5090   12.8776 O   0  0  0  0  0  0  0  0  0  0  0  0
    2.5258   14.3032   12.6122 C   0  0  2  0  0  0  0  0  0  0  0  0
    1.8638   13.7684   11.4107 O   0  0  0  0  0  0  0  0  0  0  0  0
    1.7691   15.5817   13.1292 C   0  0  0  0  0  0  0  0  0  0  0  0
    1.3198   16.4682   12.0608 O   0  0  0  0  0  0  0  0  0  0  0  0
    5.0840   13.2266   13.5614 C   0  0  2  0  0  0  0  0  0  0  0  0
    5.6749   13.4952   15.0422 C   0  0  2  0  0  0  0  0  0  0  0  0
    6.9900   14.2051   14.9267 N   0  0  0  0  0  0  0  0  0  0  0  0
    5.8194   12.0793   15.7893 C   0  0  1  0  0  0  0  0  0  0  0  0
    4.4903   11.4769   15.8383 O   0  0  0  0  0  0  0  0  0  0  0  0
    6.8392   11.1553   14.9825 C   0  0  2  0  0  0  0  0  0  0  0  0
    8.1597   11.8234   14.9892 O   0  0  0  0  0  0  0  0  0  0  0  0
    6.2516   10.9455   13.4750 C   0  0  1  0  0  0  0  0  0  0  0  0
    6.0557   12.2882   12.8167 O   0  0  0  0  0  0  0  0  0  0  0  0
    7.2381   10.0559   12.6478 C   0  0  0  0  0  0  0  0  0  0  0  0
    8.4851   10.7827   12.2556 N   0  0  0  0  0  0  0  0  0  0  0  0
  1  3  1  0  0  0  0
  1  2  1  1  0  0  0
  3  4  1  1  0  0  0
  3  5  1  0  0  0  0
  5  6  1  6  0  0  0
  7  8  1  1  0  0  0
  7  5  1  0  0  0  0
  9 11  1  6  0  0  0
  9  7  1  0  0  0  0
 10  9  1  0  0  0  0
 10  1  1  0  0  0  0
 12 11  1  0  0  0  0
 13 14  1  6  0  0  0
 15 13  1  0  0  0  0
 16 17  1  6  0  0  0
 16 15  1  0  0  0  0
 18  2  1  1  0  0  0
 18 19  1  0  0  0  0
 18 16  1  0  0  0  0
 19 20  1  6  0  0  0
 19 21  1  0  0  0  0
 21 22  1  1  0  0  0
 21 13  1  0  0  0  0
 23 20  1  6  0  0  0
 23 29  1  0  0  0  0
 24 25  1  1  0  0  0
 24 26  1  0  0  0  0
 24 23  1  0  0  0  0
 26 27  1  1  0  0  0
 26 28  1  0  0  0  0
 28 30  1  6  0  0  0
 29 28  1  0  0  0  0
 30 31  1  0  0  0  0
 32 27  1  6  0  0  0
 32 40  1  0  0  0  0
 33 35  1  0  0  0  0
 33 32  1  0  0  0  0
 33 34  1  6  0  0  0
 35 36  1  6  0  0  0
 35 37  1  0  0  0  0
 37 38  1  6  0  0  0
 37 39  1  0  0  0  0
 39 41  1  6  0  0  0
 40 39  1  0  0  0  0
 41 42  1  0  0  0  0
M  END
>  <CHROM.1>
-109.80963702,-65.02948946,-124.33715693,150.08566044,125.09112226,-61.60728744
66.73449334,-145.45937986,-73.25639934,2.44537888,11.89526667,11.30542033
-2.88006231,-0.42339723,0.45712901

>  <Name>
lig.pdb

>  <RI>
0

>  <Rbt.Current_Directory>
/home/itssahil/PROJECTS/Mol_Feturizer/New_Systems/rnas/4wcr

>  <Rbt.Executable>
rbdock ($Id: //depot/dev/client3/rdock/2013.1/src/exe/rbdock.cxx#4 $)

>  <Rbt.Library>
libRbt.so (2013.1, Build901 2013/11/27)

>  <Rbt.Parameter_File>
/export/apps/rDock/src/rDock_2013.1_src/data/scripts/dock_solv.prm

>  <Rbt.Receptor>
prm/blind_docking_20.prm

>  <SCORE>
41.2616

>  <SCORE.INTER>
-11.1713

>  <SCORE.INTER.CONST>
1

>  <SCORE.INTER.POLAR>
0

>  <SCORE.INTER.ROT>
9

>  <SCORE.INTER.SOLV>
20.3621

>  <SCORE.INTER.VDW>
-23.8349

>  <SCORE.INTER.norm>
-0.265982

>  <SCORE.INTRA>
15.3105

>  <SCORE.INTRA.DIHEDRAL>
13.9212

>  <SCORE.INTRA.DIHEDRAL.0>
16.2863

>  <SCORE.INTRA.POLAR>
0

>  <SCORE.INTRA.POLAR.0>
0

>  <SCORE.INTRA.REPUL>
-0.262198

>  <SCORE.INTRA.REPUL.0>
0.314433

>  <SCORE.INTRA.SOLV>
4.33601

>  <SCORE.INTRA.SOLV.lig_0>
-103.824

>  <SCORE.INTRA.VDW>
7.49287

>  <SCORE.INTRA.VDW.0>
-5.30945

>  <SCORE.INTRA.norm>
0.364535

>  <SCORE.RESTR>
37.1224

>  <SCORE.RESTR.CAVITY>
37.1224

>  <SCORE.RESTR.norm>
0.883866

>  <SCORE.SYSTEM>
0

>  <SCORE.SYSTEM.CONST>
0

>  <SCORE.SYSTEM.DIHEDRAL>
0

>  <SCORE.SYSTEM.SOLV>
0

>  <SCORE.SYSTEM.norm>
0

>  <SCORE.heavy>
42

>  <SCORE.norm>
0.982419

>  <RMSD>
27.203

$$$$
lig.pdb
 OpenBabel11021811513D
libRbt.so/2013.1/901 2013/11/27
 42 45  0  0  0  0  0  0  0  0999 V2000
    0.2648    8.7233   10.0259 C   0  0  2  0  0  0  0  0  0  0  0  0
    0.9027    9.9938    9.6852 O   0  0  0  0  0  0  0  0  0  0  0  0
    1.4334    7.6410   10.0789 C   0  0  2  0  0  0  0  0  0  0  0  0
    2.3987    7.9852   11.1265 N   0  0  0  0  0  0  0  0  0  0  0  0
    2.1185    7.5487    8.6291 C   0  0  1  0  0  0  0  0  0  0  0  0
    3.1804    6.5716    8.6162 O   0  0  0  0  0  0  0  0  0  0  0  0
    1.0094    7.1929    7.6242 C   0  0  2  0  0  0  0  0  0  0  0  0
    1.5660    7.1064    6.3568 O   0  0  0  0  0  0  0  0  0  0  0  0
   -0.1393    8.3006    7.6675 C   0  0  2  0  0  0  0  0  0  0  0  0
   -0.7203    8.3969    8.9739 O   0  0  0  0  0  0  0  0  0  0  0  0
   -1.2589    7.9892    6.7152 C   0  0  0  0  0  0  0  0  0  0  0  0
   -2.1576    9.0991    6.7270 O   0  0  0  0  0  0  0  0  0  0  0  0
   -1.1740   13.9213    9.4995 C   0  0  2  0  0  0  0  0  0  0  0  0
   -1.8208   15.1478    9.9124 N   0  0  0  0  0  0  0  0  0  0  0  0
   -1.8918   12.6797   10.1566 C   0  0  0  0  0  0  0  0  0  0  0  0
   -1.2055   11.3354    9.7274 C   0  0  2  0  0  0  0  0  0  0  0  0
   -1.8944   10.2135   10.3618 N   0  0  0  0  0  0  0  0  0  0  0  0
    0.3353   11.2833   10.1295 C   0  0  2  0  0  0  0  0  0  0  0  0
    1.0364   12.4917    9.4440 C   0  0  2  0  0  0  0  0  0  0  0  0
    2.4819   12.3635    9.8646 O   0  0  0  0  0  0  0  0  0  0  0  0
    0.3636   13.8858    9.9453 C   0  0  1  0  0  0  0  0  0  0  0  0
    0.9082   15.0931    9.3224 O   0  0  0  0  0  0  0  0  0  0  0  0
    2.7750   13.2026   10.9073 C   0  0  1  0  0  0  0  0  0  0  0  0
    4.1652   13.0923   11.3616 C   0  0  2  0  0  0  0  0  0  0  0  0
    4.2863   11.8827   12.0390 O   0  0  0  0  0  0  0  0  0  0  0  0
    4.3379   14.4243   12.1225 C   0  0  2  0  0  0  0  0  0  0  0  0
    4.6413   14.0845   13.4944 O   0  0  0  0  0  0  0  0  0  0  0  0
    3.0238   15.1193   11.9823 C   0  0  2  0  0  0  0  0  0  0  0  0
    2.6755   14.5938   10.6517 O   0  0  0  0  0  0  0  0  0  0  0  0
    3.1918   16.6823   11.9252 C   0  0  0  0  0  0  0  0  0  0  0  0
    1.9354   17.3996   11.7356 O   0  0  0  0  0  0  0  0  0  0  0  0
    5.1960   15.1451   14.3302 C   0  0  2  0  0  0  0  0  0  0  0  0
    5.9691   14.4648   15.5767 C   0  0  2  0  0  0  0  0  0  0  0  0
    5.0099   13.6023   16.3401 N   0  0  0  0  0  0  0  0  0  0  0  0
    6.5799   15.6386   16.4894 C   0  0  1  0  0  0  0  0  0  0  0  0
    7.4869   16.4145   15.6486 O   0  0  0  0  0  0  0  0  0  0  0  0
    5.3942   16.5483   17.0471 C   0  0  2  0  0  0  0  0  0  0  0  0
    4.5307   15.6981   17.8966 O   0  0  0  0  0  0  0  0  0  0  0  0
    4.5934   17.1775   15.7725 C   0  0  1  0  0  0  0  0  0  0  0  0
    4.0899   16.0624   14.8906 O   0  0  0  0  0  0  0  0  0  0  0  0
    3.4096   18.0640   16.2837 C   0  0  0  0  0  0  0  0  0  0  0  0
    3.8506   19.1248   17.2415 N   0  0  0  0  0  0  0  0  0  0  0  0
  1  3  1  0  0  0  0
  1  2  1  6  0  0  0
  3  4  1  1  0  0  0
  3  5  1  0  0  0  0
  5  6  1  1  0  0  0
  7  8  1  6  0  0  0
  7  5  1  0  0  0  0
  9 11  1  6  0  0  0
  9  7  1  0  0  0  0
 10  9  1  0  0  0  0
 10  1  1  0  0  0  0
 12 11  1  0  0  0  0
 13 14  1  1  0  0  0
 15 13  1  0  0  0  0
 16 17  1  1  0  0  0
 16 15  1  0  0  0  0
 18  2  1  6  0  0  0
 18 19  1  0  0  0  0
 18 16  1  0  0  0  0
 19 20  1  1  0  0  0
 19 21  1  0  0  0  0
 21 22  1  6  0  0  0
 21 13  1  0  0  0  0
 23 20  1  6  0  0  0
 23 29  1  0  0  0  0
 24 25  1  1  0  0  0
 24 26  1  0  0  0  0
 24 23  1  0  0  0  0
 26 27  1  1  0  0  0
 26 28  1  0  0  0  0
 28 30  1  6  0  0  0
 29 28  1  0  0  0  0
 30 31  1  0  0  0  0
 32 27  1  6  0  0  0
 32 40  1  0  0  0  0
 33 35  1  0  0  0  0
 33 32  1  0  0  0  0
 33 34  1  1  0  0  0
 35 36  1  6  0  0  0
 35 37  1  0  0  0  0
 37 38  1  6  0  0  0
 37 39  1  0  0  0  0
 39 41  1  1  0  0  0
 40 39  1  0  0  0  0
 41 42  1  0  0  0  0
M  END
>  <CHROM.1>
-151.36242127,-174.06062484,-51.42424311,-99.44637047,179.02121568,164.06125192
177.73126326,-158.58185313,54.75027720,2.22067501,12.69656160,11.51429146
-2.10873783,-0.64608862,0.41357335

>  <Name>
lig.pdb

>  <RI>
0

>  <Rbt.Current_Directory>
/home/itssahil/PROJECTS/Mol_Feturizer/New_Systems/rnas/4wcr

>  <Rbt.Executable>
rbdock ($Id: //depot/dev/client3/rdock/2013.1/src/exe/rbdock.cxx#4 $)

>  <Rbt.Library>
libRbt.so (2013.1, Build901 2013/11/27)

>  <Rbt.Parameter_File>
/export/apps/rDock/src/rDock_2013.1_src/data/scripts/dock_solv.prm

>  <Rbt.Receptor>
prm/blind_docking_80.prm

>  <SCORE>
-0.316924

>  <SCORE.INTER>
-10.3635

>  <SCORE.INTER.CONST>
1

>  <SCORE.INTER.POLAR>
0

>  <SCORE.INTER.ROT>
9

>  <SCORE.INTER.SOLV>
29.5354

>  <SCORE.INTER.VDW>
-26.3541

>  <SCORE.INTER.norm>
-0.24675

>  <SCORE.INTRA>
4.21244

>  <SCORE.INTRA.DIHEDRAL>
-3.28605

>  <SCORE.INTRA.DIHEDRAL.0>
16.2863

>  <SCORE.INTRA.POLAR>
0

>  <SCORE.INTRA.POLAR.0>
0

>  <SCORE.INTRA.REPUL>
-0.311755

>  <SCORE.INTRA.REPUL.0>
0.314433

>  <SCORE.INTRA.SOLV>
-1.96439

>  <SCORE.INTRA.SOLV.lig_0>
-103.824

>  <SCORE.INTRA.VDW>
8.39644

>  <SCORE.INTRA.VDW.0>
-5.30945

>  <SCORE.INTRA.norm>
0.100296

>  <SCORE.RESTR>
5.83413

>  <SCORE.RESTR.CAVITY>
5.83413

>  <SCORE.RESTR.norm>
0.138908

>  <SCORE.SYSTEM>
0

>  <SCORE.SYSTEM.CONST>
0

>  <SCORE.SYSTEM.DIHEDRAL>
0

>  <SCORE.SYSTEM.SOLV>
0

>  <SCORE.SYSTEM.norm>
0

>  <SCORE.heavy>
42

>  <SCORE.norm>
-0.00754582

>  <RMSD>
27.203

$$$$
lig.pdb
 OpenBabel11021811513D
libRbt.so/2013.1/901 2013/11/27
 42 45  0  0  0  0  0  0  0  0999 V2000
   -0.5010   11.4244    8.2583 C   0  0  2  0  0  0  0  0  0  0  0  0
    0.0489   10.6443    9.3656 O   0  0  0  0  0  0  0  0  0  0  0  0
   -0.4249   12.9507    8.7108 C   0  0  2  0  0  0  0  0  0  0  0  0
    0.9689   13.3484    8.9273 N   0  0  0  0  0  0  0  0  0  0  0  0
   -1.3229   13.1444   10.0283 C   0  0  1  0  0  0  0  0  0  0  0  0
   -1.2995   14.5157   10.4775 O   0  0  0  0  0  0  0  0  0  0  0  0
   -2.7494   12.6879    9.6773 C   0  0  2  0  0  0  0  0  0  0  0  0
   -3.5550   12.8398   10.7960 O   0  0  0  0  0  0  0  0  0  0  0  0
   -2.7296   11.1672    9.1920 C   0  0  2  0  0  0  0  0  0  0  0  0
   -1.8992   11.0008    8.0360 O   0  0  0  0  0  0  0  0  0  0  0  0
   -4.0996   10.6769    8.8179 C   0  0  0  0  0  0  0  0  0  0  0  0
   -4.8998   10.6856   10.0008 O   0  0  0  0  0  0  0  0  0  0  0  0
    3.5979    8.2173   10.5002 C   0  0  2  0  0  0  0  0  0  0  0  0
    4.8361    7.4756   10.4021 N   0  0  0  0  0  0  0  0  0  0  0  0
    2.5335    7.6349    9.4919 C   0  0  0  0  0  0  0  0  0  0  0  0
    1.1809    8.4261    9.5756 C   0  0  2  0  0  0  0  0  0  0  0  0
    0.2272    7.8610    8.6233 N   0  0  0  0  0  0  0  0  0  0  0  0
    1.3625    9.9769    9.2588 C   0  0  2  0  0  0  0  0  0  0  0  0
    2.3859   10.5448   10.2844 C   0  0  2  0  0  0  0  0  0  0  0  0
    2.4922   12.0082    9.9239 O   0  0  0  0  0  0  0  0  0  0  0  0
    3.8071    9.7648   10.1457 C   0  0  1  0  0  0  0  0  0  0  0  0
    4.8346   10.1790   11.1023 O   0  0  0  0  0  0  0  0  0  0  0  0
    2.7955   12.7719   11.0203 C   0  0  1  0  0  0  0  0  0  0  0  0
    4.0064   13.5800   10.8418 C   0  0  2  0  0  0  0  0  0  0  0  0
    5.0950   12.7146   10.8943 O   0  0  0  0  0  0  0  0  0  0  0  0
    3.8166   14.6499   11.9384 C   0  0  2  0  0  0  0  0  0  0  0  0
    4.9327   14.5177   12.8476 O   0  0  0  0  0  0  0  0  0  0  0  0
    2.5118   14.3126   12.5814 C   0  0  2  0  0  0  0  0  0  0  0  0
    1.8505   13.7639   11.3858 O   0  0  0  0  0  0  0  0  0  0  0  0
    1.7564   15.5986   13.0814 C   0  0  0  0  0  0  0  0  0  0  0  0
    1.1911   16.4022   12.0026 O   0  0  0  0  0  0  0  0  0  0  0  0
    5.0689   13.2425   13.5449 C   0  0  2  0  0  0  0  0  0  0  0  0
    5.6484   13.5275   15.0272 C   0  0  2  0  0  0  0  0  0  0  0  0
    6.9621   14.2402   14.9140 N   0  0  0  0  0  0  0  0  0  0  0  0
    5.7917   12.1194   15.7891 C   0  0  1  0  0  0  0  0  0  0  0  0
    4.4641   11.5135   15.8346 O   0  0  0  0  0  0  0  0  0  0  0  0
    6.8200   11.1907   14.9988 C   0  0  2  0  0  0  0  0  0  0  0  0
    8.1385   11.8628   15.0082 O   0  0  0  0  0  0  0  0  0  0  0  0
    6.2439   10.9642   13.4892 C   0  0  1  0  0  0  0  0  0  0  0  0
    6.0486   12.2999   12.8164 O   0  0  0  0  0  0  0  0  0  0  0  0
    7.2388   10.0696   12.6779 C   0  0  0  0  0  0  0  0  0  0  0  0
    8.5382   10.7549   12.3964 N   0  0  0  0  0  0  0  0  0  0  0  0
  1  3  1  0  0  0  0
  1  2  1  1  0  0  0
  3  4  1  1  0  0  0
  3  5  1  0  0  0  0
  5  6  1  6  0  0  0
  7  8  1  1  0  0  0
  7  5  1  0  0  0  0
  9 11  1  6  0  0  0
  9  7  1  0  0  0  0
 10  9  1  0  0  0  0
 10  1  1  0  0  0  0
 12 11  1  0  0  0  0
 13 14  1  6  0  0  0
 15 13  1  0  0  0  0
 16 17  1  6  0  0  0
 16 15  1  0  0  0  0
 18  2  1  1  0  0  0
 18 19  1  0  0  0  0
 18 16  1  0  0  0  0
 19 20  1  6  0  0  0
 19 21  1  0  0  0  0
 21 22  1  1  0  0  0
 21 13  1  0  0  0  0
 23 20  1  6  0  0  0
 23 29  1  0  0  0  0
 24 25  1  1  0  0  0
 24 26  1  0  0  0  0
 24 23  1  0  0  0  0
 26 27  1  1  0  0  0
 26 28  1  0  0  0  0
 28 30  1  6  0  0  0
 29 28  1  0  0  0  0
 30 31  1  0  0  0  0
 32 27  1  6  0  0  0
 32 40  1  0  0  0  0
 33 35  1  0  0  0  0
 33 32  1  0  0  0  0
 33 34  1  6  0  0  0
 35 36  1  6  0  0  0
 35 37  1  0  0  0  0
 37 38  1  6  0  0  0
 37 39  1  0  0  0  0
 39 41  1  6  0  0  0
 40 39  1  0  0  0  0
 41 42  1  0  0  0  0
M  END
>  <CHROM.1>
-108.92432183,-64.65717271,-124.58152332,150.71314889,123.90029099,-61.45646885
72.65996680,-145.09881736,-67.95171255,2.44487378,11.87081991,11.30936307
-2.87370428,-0.42066739,0.45348498

>  <Name>
lig.pdb

>  <RI>
0

>  <Rbt.Current_Directory>
/home/itssahil/PROJECTS/Mol_Feturizer/New_Systems/rnas/4wcr

>  <Rbt.Executable>
rbdock ($Id: //depot/dev/client3/rdock/2013.1/src/exe/rbdock.cxx#4 $)

>  <Rbt.Library>
libRbt.so (2013.1, Build901 2013/11/27)

>  <Rbt.Parameter_File>
/export/apps/rDock/src/rDock_2013.1_src/data/scripts/dock_solv.prm

>  <Rbt.Receptor>
prm/blind_docking_20.prm

>  <SCORE>
41.6194

>  <SCORE.INTER>
-11.047

>  <SCORE.INTER.CONST>
1

>  <SCORE.INTER.POLAR>
0

>  <SCORE.INTER.ROT>
9

>  <SCORE.INTER.SOLV>
20.4605

>  <SCORE.INTER.VDW>
-23.7848

>  <SCORE.INTER.norm>
-0.263023

>  <SCORE.INTRA>
15.6477

>  <SCORE.INTRA.DIHEDRAL>
13.7377

>  <SCORE.INTRA.DIHEDRAL.0>
16.2863

>  <SCORE.INTRA.POLAR>
0

>  <SCORE.INTRA.POLAR.0>
0

>  <SCORE.INTRA.REPUL>
-0.25722

>  <SCORE.INTRA.REPUL.0>
0.314433

>  <SCORE.INTRA.SOLV>
4.35096

>  <SCORE.INTRA.SOLV.lig_0>
-103.824

>  <SCORE.INTRA.VDW>
7.8895

>  <SCORE.INTRA.VDW.0>
-5.30945

>  <SCORE.INTRA.norm>
0.372565

>  <SCORE.RESTR>
37.0186

>  <SCORE.RESTR.CAVITY>
37.0186

>  <SCORE.RESTR.norm>
0.881396

>  <SCORE.SYSTEM>
0

>  <SCORE.SYSTEM.CONST>
0

>  <SCORE.SYSTEM.DIHEDRAL>
0

>  <SCORE.SYSTEM.SOLV>
0

>  <SCORE.SYSTEM.norm>
0

>  <SCORE.heavy>
42

>  <SCORE.norm>
0.990937

>  <RMSD>
27.207

$$$$
lig.pdb
 OpenBabel11021811513D
libRbt.so/2013.1/901 2013/11/27
 42 45  0  0  0  0  0  0  0  0999 V2000
   -0.2439   11.8279    8.4011 C   0  0  2  0  0  0  0  0  0  0  0  0
    0.4511   11.2076    9.5277 O   0  0  0  0  0  0  0  0  0  0  0  0
   -0.4181   13.3660    8.7805 C   0  0  2  0  0  0  0  0  0  0  0  0
    0.8923   14.0023    8.9402 N   0  0  0  0  0  0  0  0  0  0  0  0
   -1.3105   13.4720   10.1118 C   0  0  1  0  0  0  0  0  0  0  0  0
   -1.5105   14.8485   10.4964 O   0  0  0  0  0  0  0  0  0  0  0  0
   -2.6457   12.7655    9.8214 C   0  0  2  0  0  0  0  0  0  0  0  0
   -3.4439   12.8359   10.9535 O   0  0  0  0  0  0  0  0  0  0  0  0
   -2.3786   11.2473    9.4063 C   0  0  2  0  0  0  0  0  0  0  0  0
   -1.5544   11.1650    8.2369 O   0  0  0  0  0  0  0  0  0  0  0  0
   -3.6530   10.5159    9.0929 C   0  0  0  0  0  0  0  0  0  0  0  0
   -3.3035    9.1899    8.6941 O   0  0  0  0  0  0  0  0  0  0  0  0
    2.4382    7.3434   10.4722 C   0  0  2  0  0  0  0  0  0  0  0  0
    3.1576    6.0990   10.3083 N   0  0  0  0  0  0  0  0  0  0  0  0
    1.1760    7.3709    9.5262 C   0  0  0  0  0  0  0  0  0  0  0  0
    0.3799    8.7142    9.6820 C   0  0  2  0  0  0  0  0  0  0  0  0
   -0.7743    8.7021    8.7857 N   0  0  0  0  0  0  0  0  0  0  0  0
    1.2718    9.9921    9.3507 C   0  0  2  0  0  0  0  0  0  0  0  0
    2.4920    9.9713   10.3163 C   0  0  2  0  0  0  0  0  0  0  0  0
    3.2737   11.2100    9.9458 O   0  0  0  0  0  0  0  0  0  0  0  0
    3.3508    8.6060   10.1018 C   0  0  1  0  0  0  0  0  0  0  0  0
    4.4968    8.4502   10.9987 O   0  0  0  0  0  0  0  0  0  0  0  0
    3.1676   12.1752   10.9124 C   0  0  1  0  0  0  0  0  0  0  0  0
    4.2592   13.1540   10.8707 C   0  0  2  0  0  0  0  0  0  0  0  0
    5.4036   12.5207   11.3460 O   0  0  0  0  0  0  0  0  0  0  0  0
    3.6402   14.3264   11.6615 C   0  0  2  0  0  0  0  0  0  0  0  0
    4.4831   14.5416   12.8161 O   0  0  0  0  0  0  0  0  0  0  0  0
    2.2712   13.8589   12.0316 C   0  0  2  0  0  0  0  0  0  0  0  0
    2.0322   13.0218   10.8442 O   0  0  0  0  0  0  0  0  0  0  0  0
    1.2406   15.0463   12.0790 C   0  0  0  0  0  0  0  0  0  0  0  0
    1.4988   16.0034   13.1498 O   0  0  0  0  0  0  0  0  0  0  0  0
    4.8171   13.3682   13.6177 C   0  0  2  0  0  0  0  0  0  0  0  0
    5.7029   13.8463   14.8830 C   0  0  2  0  0  0  0  0  0  0  0  0
    6.9318   14.5470   14.3876 N   0  0  0  0  0  0  0  0  0  0  0  0
    6.0630   12.5496   15.7620 C   0  0  1  0  0  0  0  0  0  0  0  0
    4.8016   11.9460   16.1818 O   0  0  0  0  0  0  0  0  0  0  0  0
    6.9209   11.5332   14.8814 C   0  0  2  0  0  0  0  0  0  0  0  0
    8.1833   12.2095   14.5084 O   0  0  0  0  0  0  0  0  0  0  0  0
    6.0302   11.1096   13.5817 C   0  0  1  0  0  0  0  0  0  0  0  0
    5.6421   12.3457   12.8096 O   0  0  0  0  0  0  0  0  0  0  0  0
    6.8497   10.1241   12.6841 C   0  0  0  0  0  0  0  0  0  0  0  0
    6.3591   10.0811   11.2717 N   0  0  0  0  0  0  0  0  0  0  0  0
  1  3  1  0  0  0  0
  1  2  1  1  0  0  0
  3  4  1  1  0  0  0
  3  5  1  0  0  0  0
  5  6  1  6  0  0  0
  7  8  1  1  0  0  0
  7  5  1  0  0  0  0
  9 11  1  6  0  0  0
  9  7  1  0  0  0  0
 10  9  1  0  0  0  0
 10  1  1  0  0  0  0
 12 11  1  0  0  0  0
 13 14  1  6  0  0  0
 15 13  1  0  0  0  0
 16 17  1  6  0  0  0
 16 15  1  0  0  0  0
 18  2  1  1  0  0  0
 18 19  1  0  0  0  0
 18 16  1  0  0  0  0
 19 20  1  6  0  0  0
 19 21  1  0  0  0  0
 21 22  1  1  0  0  0
 21 13  1  0  0  0  0
 23 20  1  6  0  0  0
 23 29  1  0  0  0  0
 24 25  1  1  0  0  0
 24 26  1  0  0  0  0
 24 23  1  0  0  0  0
 26 27  1  1  0  0  0
 26 28  1  0  0  0  0
 28 30  1  6  0  0  0
 29 28  1  0  0  0  0
 30 31  1  0  0  0  0
 32 27  1  6  0  0  0
 32 40  1  0  0  0  0
 33 35  1  0  0  0  0
 33 32  1  0  0  0  0
 33 34  1  6  0  0  0
 35 36  1  6  0  0  0
 35 37  1  0  0  0  0
 37 38  1  6  0  0  0
 37 39  1  0  0  0  0
 39 41  1  6  0  0  0
 40 39  1  0  0  0  0
 41 42  1  0  0  0  0
M  END
>  <CHROM.1>
-154.24750181,178.15673034,-94.66225067,108.00116868,158.35366082,-49.78411793
-66.80302013,-177.45389703,-158.64314158,2.33375541,11.71959478,11.25218066
2.81434846,0.45719971,-2.78051274

>  <Name>
lig.pdb

>  <RI>
0

>  <Rbt.Current_Directory>
/home/itssahil/PROJECTS/Mol_Feturizer/New_Systems/rnas/4wcr

>  <Rbt.Executable>
rbdock ($Id: //depot/dev/client3/rdock/2013.1/src/exe/rbdock.cxx#4 $)

>  <Rbt.Library>
libRbt.so (2013.1, Build901 2013/11/27)

>  <Rbt.Parameter_File>
/export/apps/rDock/src/rDock_2013.1_src/data/scripts/dock_solv.prm

>  <Rbt.Receptor>
prm/blind_docking_20.prm

>  <SCORE>
57.9826

>  <SCORE.INTER>
-6.41834

>  <SCORE.INTER.CONST>
1

>  <SCORE.INTER.POLAR>
0

>  <SCORE.INTER.ROT>
9

>  <SCORE.INTER.SOLV>
23.3363

>  <SCORE.INTER.VDW>
-21.6577

>  <SCORE.INTER.norm>
-0.152818

>  <SCORE.INTRA>
28.0602

>  <SCORE.INTRA.DIHEDRAL>
2.27276

>  <SCORE.INTRA.DIHEDRAL.0>
16.2863

>  <SCORE.INTRA.POLAR>
0

>  <SCORE.INTRA.POLAR.0>
0

>  <SCORE.INTRA.REPUL>
-0.0451031

>  <SCORE.INTRA.REPUL.0>
0.314433

>  <SCORE.INTRA.SOLV>
9.70728

>  <SCORE.INTRA.SOLV.lig_0>
-103.824

>  <SCORE.INTRA.VDW>
22.2957

>  <SCORE.INTRA.VDW.0>
-5.30945

>  <SCORE.INTRA.norm>
0.6681

>  <SCORE.RESTR>
36.3407

>  <SCORE.RESTR.CAVITY>
36.3407

>  <SCORE.RESTR.norm>
0.865255

>  <SCORE.SYSTEM>
0

>  <SCORE.SYSTEM.CONST>
0

>  <SCORE.SYSTEM.DIHEDRAL>
0

>  <SCORE.SYSTEM.SOLV>
0

>  <SCORE.SYSTEM.norm>
0

>  <SCORE.heavy>
42

>  <SCORE.norm>
1.38054

>  <RMSD>
27.229

$$$$
lig.pdb
 OpenBabel11021811513D
libRbt.so/2013.1/901 2013/11/27
 42 45  0  0  0  0  0  0  0  0999 V2000
    3.3607   14.1546   13.1924 C   0  0  2  0  0  0  0  0  0  0  0  0
    4.5422   13.5626   12.5673 O   0  0  0  0  0  0  0  0  0  0  0  0
    2.2169   14.1377   12.0828 C   0  0  2  0  0  0  0  0  0  0  0  0
    1.9083   12.7597   11.6910 N   0  0  0  0  0  0  0  0  0  0  0  0
    2.6935   15.0308   10.8357 C   0  0  1  0  0  0  0  0  0  0  0  0
    1.6874   15.0602    9.8016 O   0  0  0  0  0  0  0  0  0  0  0  0
    2.9932   16.4403   11.3744 C   0  0  2  0  0  0  0  0  0  0  0  0
    3.4107   17.2412   10.3218 O   0  0  0  0  0  0  0  0  0  0  0  0
    4.1129   16.3619   12.5094 C   0  0  2  0  0  0  0  0  0  0  0  0
    3.6899   15.5360   13.6014 O   0  0  0  0  0  0  0  0  0  0  0  0
    4.4294   17.7137   13.0835 C   0  0  0  0  0  0  0  0  0  0  0  0
    4.3920   18.6577   12.0124 O   0  0  0  0  0  0  0  0  0  0  0  0
    7.2368   10.0388   12.8747 C   0  0  2  0  0  0  0  0  0  0  0  0
    7.9453    8.9018   13.4209 N   0  0  0  0  0  0  0  0  0  0  0  0
    7.5161   11.3238   13.7462 C   0  0  0  0  0  0  0  0  0  0  0  0
    6.7544   12.5718   13.1763 C   0  0  2  0  0  0  0  0  0  0  0  0
    7.0334   13.7361   14.0143 N   0  0  0  0  0  0  0  0  0  0  0  0
    5.1779   12.3485   13.1190 C   0  0  2  0  0  0  0  0  0  0  0  0
    4.9166   11.1011   12.2261 C   0  0  2  0  0  0  0  0  0  0  0  0
    3.4118   10.9664   12.2160 O   0  0  0  0  0  0  0  0  0  0  0  0
    5.6540    9.7964   12.8595 C   0  0  1  0  0  0  0  0  0  0  0  0
    5.5229    8.5698   12.0718 O   0  0  0  0  0  0  0  0  0  0  0  0
    3.0065    9.9533   11.3873 C   0  0  1  0  0  0  0  0  0  0  0  0
    3.4531   10.1299   10.0015 C   0  0  2  0  0  0  0  0  0  0  0  0
    2.6940   11.1564    9.4477 O   0  0  0  0  0  0  0  0  0  0  0  0
    3.3197    8.6910    9.4584 C   0  0  2  0  0  0  0  0  0  0  0  0
    2.3634    8.7411    8.3755 O   0  0  0  0  0  0  0  0  0  0  0  0
    2.8297    7.8875   10.6177 C   0  0  2  0  0  0  0  0  0  0  0  0
    3.5035    8.6573   11.6767 O   0  0  0  0  0  0  0  0  0  0  0  0
    3.3779    6.4136   10.5812 C   0  0  0  0  0  0  0  0  0  0  0  0
    2.9538    5.6602    9.4057 O   0  0  0  0  0  0  0  0  0  0  0  0
    1.0285    9.2375    8.6958 C   0  0  2  0  0  0  0  0  0  0  0  0
    0.0470    8.9085    7.4538 C   0  0  2  0  0  0  0  0  0  0  0  0
    0.5923    9.5470    6.2122 N   0  0  0  0  0  0  0  0  0  0  0  0
   -1.4209    9.4547    7.8160 C   0  0  1  0  0  0  0  0  0  0  0  0
   -1.8471    8.7766    9.0367 O   0  0  0  0  0  0  0  0  0  0  0  0
   -1.3618   11.0346    8.0274 C   0  0  2  0  0  0  0  0  0  0  0  0
   -0.9379   11.6482    6.7491 O   0  0  0  0  0  0  0  0  0  0  0  0
   -0.3226   11.3460    9.2460 C   0  0  1  0  0  0  0  0  0  0  0  0
    1.0297   10.7637    8.9191 O   0  0  0  0  0  0  0  0  0  0  0  0
   -0.2264   12.8917    9.4699 C   0  0  0  0  0  0  0  0  0  0  0  0
    0.0260   13.6469    8.2038 N   0  0  0  0  0  0  0  0  0  0  0  0
  1  3  1  0  0  0  0
  1  2  1  6  0  0  0
  3  4  1  6  0  0  0
  3  5  1  0  0  0  0
  5  6  1  6  0  0  0
  7  8  1  6  0  0  0
  7  5  1  0  0  0  0
  9 11  1  1  0  0  0
  9  7  1  0  0  0  0
 10  9  1  0  0  0  0
 10  1  1  0  0  0  0
 12 11  1  0  0  0  0
 13 14  1  1  0  0  0
 15 13  1  0  0  0  0
 16 17  1  1  0  0  0
 16 15  1  0  0  0  0
 18  2  1  6  0  0  0
 18 19  1  0  0  0  0
 18 16  1  0  0  0  0
 19 20  1  1  0  0  0
 19 21  1  0  0  0  0
 21 22  1  6  0  0  0
 21 13  1  0  0  0  0
 23 20  1  1  0  0  0
 23 29  1  0  0  0  0
 24 25  1  6  0  0  0
 24 26  1  0  0  0  0
 24 23  1  0  0  0  0
 26 27  1  6  0  0  0
 26 28  1  0  0  0  0
 28 30  1  6  0  0  0
 29 28  1  0  0  0  0
 30 31  1  0  0  0  0
 32 27  1  6  0  0  0
 32 40  1  0  0  0  0
 33 35  1  0  0  0  0
 33 32  1  0  0  0  0
 33 34  1  6  0  0  0
 35 36  1  1  0  0  0
 35 37  1  0  0  0  0
 37 38  1  6  0  0  0
 37 39  1  0  0  0  0
 39 41  1  6  0  0  0
 40 39  1  0  0  0  0
 41 42  1  0  0  0  0
M  END
>  <CHROM.1>
-120.43253138,-37.84168387,-133.77769372,175.82840772,-58.24041718,-58.55027770
-61.82566178,-167.73242199,-50.00730225,2.95350316,11.69034651,10.78008196
0.91744024,-0.64653907,0.16950421

>  <Name>
lig.pdb

>  <RI>
0

>  <Rbt.Current_Directory>
/home/itssahil/PROJECTS/Mol_Feturizer/New_Systems/rnas/4wcr

>  <Rbt.Executable>
rbdock ($Id: //depot/dev/client3/rdock/2013.1/src/exe/rbdock.cxx#4 $)

>  <Rbt.Library>
libRbt.so (2013.1, Build901 2013/11/27)

>  <Rbt.Parameter_File>
/export/apps/rDock/src/rDock_2013.1_src/data/scripts/dock_solv.prm

>  <Rbt.Receptor>
prm/blind_docking_20.prm

>  <SCORE>
92.8452

>  <SCORE.INTER>
21.1554

>  <SCORE.INTER.CONST>
1

>  <SCORE.INTER.POLAR>
0

>  <SCORE.INTER.ROT>
9

>  <SCORE.INTER.SOLV>
27.2086

>  <SCORE.INTER.VDW>
-4.56596

>  <SCORE.INTER.norm>
0.503699

>  <SCORE.INTRA>
33.1884

>  <SCORE.INTRA.DIHEDRAL>
0.539298

>  <SCORE.INTRA.DIHEDRAL.0>
16.2863

>  <SCORE.INTRA.POLAR>
0

>  <SCORE.INTRA.POLAR.0>
0

>  <SCORE.INTRA.REPUL>
-0.299791

>  <SCORE.INTRA.REPUL.0>
0.314433

>  <SCORE.INTRA.SOLV>
7.42404

>  <SCORE.INTRA.SOLV.lig_0>
-103.824

>  <SCORE.INTRA.VDW>
30.7057

>  <SCORE.INTRA.VDW.0>
-5.30945

>  <SCORE.INTRA.norm>
0.7902

>  <SCORE.RESTR>
38.5015

>  <SCORE.RESTR.CAVITY>
38.5015

>  <SCORE.RESTR.norm>
0.916702

>  <SCORE.SYSTEM>
0

>  <SCORE.SYSTEM.CONST>
0

>  <SCORE.SYSTEM.DIHEDRAL>
0

>  <SCORE.SYSTEM.SOLV>
0

>  <SCORE.SYSTEM.norm>
0

>  <SCORE.heavy>
42

>  <SCORE.norm>
2.2106

>  <RMSD>
27.250

$$$$
lig.pdb
 OpenBabel11021811513D
libRbt.so/2013.1/901 2013/11/27
 42 45  0  0  0  0  0  0  0  0999 V2000
    0.5215    8.5445   10.2351 C   0  0  2  0  0  0  0  0  0  0  0  0
    1.1661    9.8078    9.8805 O   0  0  0  0  0  0  0  0  0  0  0  0
    1.6675    7.4375   10.2011 C   0  0  2  0  0  0  0  0  0  0  0  0
    2.6987    7.7418   11.1969 N   0  0  0  0  0  0  0  0  0  0  0  0
    2.2658    7.3586    8.7126 C   0  0  1  0  0  0  0  0  0  0  0  0
    3.3038    6.3603    8.6208 O   0  0  0  0  0  0  0  0  0  0  0  0
    1.0932    7.0449    7.7675 C   0  0  2  0  0  0  0  0  0  0  0  0
    1.5739    6.9710    6.4686 O   0  0  0  0  0  0  0  0  0  0  0  0
   -0.0268    8.1750    7.8969 C   0  0  2  0  0  0  0  0  0  0  0  0
   -0.5294    8.2584    9.2363 O   0  0  0  0  0  0  0  0  0  0  0  0
   -1.2058    7.9049    7.0057 C   0  0  0  0  0  0  0  0  0  0  0  0
   -0.7592    8.0126    5.6535 O   0  0  0  0  0  0  0  0  0  0  0  0
   -1.0576   13.6120    9.2840 C   0  0  2  0  0  0  0  0  0  0  0  0
   -1.7642   14.8424    9.5665 N   0  0  0  0  0  0  0  0  0  0  0  0
   -1.7449   12.4056   10.0329 C   0  0  0  0  0  0  0  0  0  0  0  0
   -0.9937   11.0581    9.7459 C   0  0  2  0  0  0  0  0  0  0  0  0
   -1.6562    9.9699   10.4621 N   0  0  0  0  0  0  0  0  0  0  0  0
    0.5353   11.1071   10.1907 C   0  0  2  0  0  0  0  0  0  0  0  0
    1.2082   12.2772    9.4161 C   0  0  2  0  0  0  0  0  0  0  0  0
    2.6445   12.2482    9.8837 O   0  0  0  0  0  0  0  0  0  0  0  0
    0.4664   13.6813    9.7707 C   0  0  1  0  0  0  0  0  0  0  0  0
    0.9810   14.8495    9.0546 O   0  0  0  0  0  0  0  0  0  0  0  0
    2.8388   13.0832   10.9526 C   0  0  1  0  0  0  0  0  0  0  0  0
    4.2428   13.1693   11.3679 C   0  0  2  0  0  0  0  0  0  0  0  0
    4.5661   11.9681   11.9919 O   0  0  0  0  0  0  0  0  0  0  0  0
    4.2351   14.4831   12.1785 C   0  0  2  0  0  0  0  0  0  0  0  0
    4.6278   14.1431   13.5275 O   0  0  0  0  0  0  0  0  0  0  0  0
    2.8272   14.9744   12.0990 C   0  0  2  0  0  0  0  0  0  0  0  0
    2.5223   14.4514   10.7569 O   0  0  0  0  0  0  0  0  0  0  0  0
    2.7550   16.5457   12.1021 C   0  0  0  0  0  0  0  0  0  0  0  0
    3.4179   17.1646   10.9589 O   0  0  0  0  0  0  0  0  0  0  0  0
    5.2171   15.2091   14.3321 C   0  0  2  0  0  0  0  0  0  0  0  0
    5.9614   14.5413   15.6027 C   0  0  2  0  0  0  0  0  0  0  0  0
    4.9696   13.7378   16.3884 N   0  0  0  0  0  0  0  0  0  0  0  0
    6.6104   15.7209   16.4809 C   0  0  1  0  0  0  0  0  0  0  0  0
    7.5472   16.4375   15.6204 O   0  0  0  0  0  0  0  0  0  0  0  0
    5.4560   16.6891   17.0047 C   0  0  2  0  0  0  0  0  0  0  0  0
    4.5599   15.8971   17.8764 O   0  0  0  0  0  0  0  0  0  0  0  0
    4.6822   17.3059   15.7074 C   0  0  1  0  0  0  0  0  0  0  0  0
    4.1424   16.1821   14.8587 O   0  0  0  0  0  0  0  0  0  0  0  0
    3.5290   18.2493   16.1854 C   0  0  0  0  0  0  0  0  0  0  0  0
    2.7849   17.7054   17.3634 N   0  0  0  0  0  0  0  0  0  0  0  0
  1  3  1  0  0  0  0
  1  2  1  6  0  0  0
  3  4  1  1  0  0  0
  3  5  1  0  0  0  0
  5  6  1  1  0  0  0
  7  8  1  6  0  0  0
  7  5  1  0  0  0  0
  9 11  1  6  0  0  0
  9  7  1  0  0  0  0
 10  9  1  0  0  0  0
 10  1  1  0  0  0  0
 12 11  1  0  0  0  0
 13 14  1  1  0  0  0
 15 13  1  0  0  0  0
 16 17  1  1  0  0  0
 16 15  1  0  0  0  0
 18  2  1  6  0  0  0
 18 19  1  0  0  0  0
 18 16  1  0  0  0  0
 19 20  1  1  0  0  0
 19 21  1  0  0  0  0
 21 22  1  6  0  0  0
 21 13  1  0  0  0  0
 23 20  1  6  0  0  0
 23 29  1  0  0  0  0
 24 25  1  1  0  0  0
 24 26  1  0  0  0  0
 24 23  1  0  0  0  0
 26 27  1  1  0  0  0
 26 28  1  0  0  0  0
 28 30  1  6  0  0  0
 29 28  1  0  0  0  0
 30 31  1  0  0  0  0
 32 27  1  1  0  0  0
 32 40  1  0  0  0  0
 33 35  1  0  0  0  0
 33 32  1  0  0  0  0
 33 34  1  1  0  0  0
 35 36  1  6  0  0  0
 35 37  1  0  0  0  0
 37 38  1  1  0  0  0
 37 39  1  0  0  0  0
 39 41  1  1  0  0  0
 40 39  1  0  0  0  0
 41 42  1  0  0  0  0
M  END
>  <CHROM.1>
-161.50909484,-66.20997772,-46.98477802,-92.71504388,-175.24460287,155.71153289
62.22050943,-163.75571480,-40.79318560,2.34836794,12.55058171,11.49215497
-2.09646473,-0.69206974,0.39246905

>  <Name>
lig.pdb

>  <RI>
0

>  <Rbt.Current_Directory>
/home/itssahil/PROJECTS/Mol_Feturizer/New_Systems/rnas/4wcr

>  <Rbt.Executable>
rbdock ($Id: //depot/dev/client3/rdock/2013.1/src/exe/rbdock.cxx#4 $)

>  <Rbt.Library>
libRbt.so (2013.1, Build901 2013/11/27)

>  <Rbt.Parameter_File>
/export/apps/rDock/src/rDock_2013.1_src/data/scripts/dock_solv.prm

>  <Rbt.Receptor>
prm/blind_docking_40.prm

>  <SCORE>
10.7612

>  <SCORE.INTER>
-5.34849

>  <SCORE.INTER.CONST>
1

>  <SCORE.INTER.POLAR>
0

>  <SCORE.INTER.ROT>
9

>  <SCORE.INTER.SOLV>
32.4898

>  <SCORE.INTER.VDW>
-23.9956

>  <SCORE.INTER.norm>
-0.127345

>  <SCORE.INTRA>
7.20356

>  <SCORE.INTRA.DIHEDRAL>
-4.10313

>  <SCORE.INTRA.DIHEDRAL.0>
16.2863

>  <SCORE.INTRA.POLAR>
0

>  <SCORE.INTRA.POLAR.0>
0

>  <SCORE.INTRA.REPUL>
-0.314433

>  <SCORE.INTRA.REPUL.0>
0.314433

>  <SCORE.INTRA.SOLV>
-0.103938

>  <SCORE.INTRA.SOLV.lig_0>
-103.824

>  <SCORE.INTRA.VDW>
10.8793

>  <SCORE.INTRA.VDW.0>
-5.30945

>  <SCORE.INTRA.norm>
0.171513

>  <SCORE.RESTR>
8.90614

>  <SCORE.RESTR.CAVITY>
8.90614

>  <SCORE.RESTR.norm>
0.212051

>  <SCORE.SYSTEM>
0

>  <SCORE.SYSTEM.CONST>
0

>  <SCORE.SYSTEM.DIHEDRAL>
0

>  <SCORE.SYSTEM.SOLV>
0

>  <SCORE.SYSTEM.norm>
0

>  <SCORE.heavy>
42

>  <SCORE.norm>
0.256219

>  <RMSD>
27.262

$$$$
lig.pdb
 OpenBabel11021811513D
libRbt.so/2013.1/901 2013/11/27
 42 45  0  0  0  0  0  0  0  0999 V2000
   -0.6031   10.7206    9.6103 C   0  0  2  0  0  0  0  0  0  0  0  0
    0.4439   10.3384    8.6643 O   0  0  0  0  0  0  0  0  0  0  0  0
   -1.9838   10.5664    8.8292 C   0  0  2  0  0  0  0  0  0  0  0  0
   -2.1893    9.1715    8.4296 N   0  0  0  0  0  0  0  0  0  0  0  0
   -1.9796   11.5640    7.5704 C   0  0  1  0  0  0  0  0  0  0  0  0
   -3.2154   11.4740    6.8306 O   0  0  0  0  0  0  0  0  0  0  0  0
   -1.7485   12.9835    8.1163 C   0  0  2  0  0  0  0  0  0  0  0  0
   -1.7370   13.8744    7.0534 O   0  0  0  0  0  0  0  0  0  0  0  0
   -0.3710   13.0391    8.9211 C   0  0  2  0  0  0  0  0  0  0  0  0
   -0.3740   12.1213   10.0217 O   0  0  0  0  0  0  0  0  0  0  0  0
   -0.1066   14.4031    9.4927 C   0  0  0  0  0  0  0  0  0  0  0  0
    1.2441   14.7476    9.1819 O   0  0  0  0  0  0  0  0  0  0  0  0
    3.5814    8.5438   11.2543 C   0  0  2  0  0  0  0  0  0  0  0  0
    4.8572    8.0268   11.6994 N   0  0  0  0  0  0  0  0  0  0  0  0
    3.1202    7.7988    9.9425 C   0  0  0  0  0  0  0  0  0  0  0  0
    1.7390    8.3451    9.4360 C   0  0  2  0  0  0  0  0  0  0  0  0
    1.3523    7.6355    8.2184 N   0  0  0  0  0  0  0  0  0  0  0  0
    1.7790    9.9075    9.1270 C   0  0  2  0  0  0  0  0  0  0  0  0
    2.1987   10.6311   10.4392 C   0  0  2  0  0  0  0  0  0  0  0  0
    2.2025   12.0950   10.0655 O   0  0  0  0  0  0  0  0  0  0  0  0
    3.6620   10.1082   10.9220 C   0  0  1  0  0  0  0  0  0  0  0  0
    4.1379   10.6817   12.1816 O   0  0  0  0  0  0  0  0  0  0  0  0
    2.6037   12.8777   11.1160 C   0  0  1  0  0  0  0  0  0  0  0  0
    3.8419   13.6154   10.8441 C   0  0  2  0  0  0  0  0  0  0  0  0
    4.8870   12.6968   10.8692 O   0  0  0  0  0  0  0  0  0  0  0  0
    3.7668   14.7293   11.9103 C   0  0  2  0  0  0  0  0  0  0  0  0
    4.9234   14.5695   12.7625 O   0  0  0  0  0  0  0  0  0  0  0  0
    2.4843   14.4817   12.6339 C   0  0  2  0  0  0  0  0  0  0  0  0
    1.7313   13.9290   11.4958 O   0  0  0  0  0  0  0  0  0  0  0  0
    1.8231   15.8210   13.1273 C   0  0  0  0  0  0  0  0  0  0  0  0
    0.5165   16.0826   12.5327 O   0  0  0  0  0  0  0  0  0  0  0  0
    5.0680   13.2876   13.4459 C   0  0  2  0  0  0  0  0  0  0  0  0
    5.5576   13.5664   14.9614 C   0  0  2  0  0  0  0  0  0  0  0  0
    6.8492   14.3263   14.9301 N   0  0  0  0  0  0  0  0  0  0  0  0
    5.7106   12.1509   15.7076 C   0  0  1  0  0  0  0  0  0  0  0  0
    4.4050   11.4984   15.6723 O   0  0  0  0  0  0  0  0  0  0  0  0
    6.8118   11.2727   14.9589 C   0  0  2  0  0  0  0  0  0  0  0  0
    8.1031   11.9901   15.0497 O   0  0  0  0  0  0  0  0  0  0  0  0
    6.3250   11.0530   13.4173 C   0  0  1  0  0  0  0  0  0  0  0  0
    6.1181   12.3928   12.7562 O   0  0  0  0  0  0  0  0  0  0  0  0
    7.3928   10.2081   12.6464 C   0  0  0  0  0  0  0  0  0  0  0  0
    7.5002    8.8054   13.1547 N   0  0  0  0  0  0  0  0  0  0  0  0
  1  3  1  0  0  0  0
  1  2  1  6  0  0  0
  3  4  1  6  0  0  0
  3  5  1  0  0  0  0
  5  6  1  1  0  0  0
  7  8  1  6  0  0  0
  7  5  1  0  0  0  0
  9 11  1  1  0  0  0
  9  7  1  0  0  0  0
 10  9  1  0  0  0  0
 10  1  1  0  0  0  0
 12 11  1  0  0  0  0
 13 14  1  6  0  0  0
 15 13  1  0  0  0  0
 16 17  1  6  0  0  0
 16 15  1  0  0  0  0
 18  2  1  1  0  0  0
 18 19  1  0  0  0  0
 18 16  1  0  0  0  0
 19 20  1  6  0  0  0
 19 21  1  0  0  0  0
 21 22  1  1  0  0  0
 21 13  1  0  0  0  0
 23 20  1  6  0  0  0
 23 29  1  0  0  0  0
 24 25  1  1  0  0  0
 24 26  1  0  0  0  0
 24 23  1  0  0  0  0
 26 27  1  1  0  0  0
 26 28  1  0  0  0  0
 28 30  1  6  0  0  0
 29 28  1  0  0  0  0
 30 31  1  0  0  0  0
 32 27  1  6  0  0  0
 32 40  1  0  0  0  0
 33 35  1  0  0  0  0
 33 32  1  0  0  0  0
 33 34  1  6  0  0  0
 35 36  1  6  0  0  0
 35 37  1  0  0  0  0
 37 38  1  6  0  0  0
 37 39  1  0  0  0  0
 39 41  1  6  0  0  0
 40 39  1  0  0  0  0
 41 42  1  0  0  0  0
M  END
>  <CHROM.1>
-158.59466443,-132.89021305,86.03059328,-177.83142666,117.25689973,-58.54813560
117.50424666,-138.38099687,66.52304049,2.66729879,11.90497473,11.18438884
-2.89555865,-0.62023980,0.33400959

>  <Name>
lig.pdb

>  <RI>
0

>  <Rbt.Current_Directory>
/home/itssahil/PROJECTS/Mol_Feturizer/New_Systems/rnas/4wcr

>  <Rbt.Executable>
rbdock ($Id: //depot/dev/client3/rdock/2013.1/src/exe/rbdock.cxx#4 $)

>  <Rbt.Library>
libRbt.so (2013.1, Build901 2013/11/27)

>  <Rbt.Parameter_File>
/export/apps/rDock/src/rDock_2013.1_src/data/scripts/dock_solv.prm

>  <Rbt.Receptor>
prm/blind_docking_20.prm

>  <SCORE>
30.3867

>  <SCORE.INTER>
-15.7751

>  <SCORE.INTER.CONST>
1

>  <SCORE.INTER.POLAR>
0

>  <SCORE.INTER.ROT>
9

>  <SCORE.INTER.SOLV>
23.6852

>  <SCORE.INTER.VDW>
-28.0118

>  <SCORE.INTER.norm>
-0.375598

>  <SCORE.INTRA>
12.1755

>  <SCORE.INTRA.DIHEDRAL>
11.2381

>  <SCORE.INTRA.DIHEDRAL.0>
16.2863

>  <SCORE.INTRA.POLAR>
0

>  <SCORE.INTRA.POLAR.0>
0

>  <SCORE.INTRA.REPUL>
-0.170923

>  <SCORE.INTRA.REPUL.0>
0.314433

>  <SCORE.INTRA.SOLV>
3.21604

>  <SCORE.INTRA.SOLV.lig_0>
-103.824

>  <SCORE.INTRA.VDW>
5.80299

>  <SCORE.INTRA.VDW.0>
-5.30945

>  <SCORE.INTRA.norm>
0.289892

>  <SCORE.RESTR>
33.9864

>  <SCORE.RESTR.CAVITY>
33.9864

>  <SCORE.RESTR.norm>
0.809199

>  <SCORE.SYSTEM>
0

>  <SCORE.SYSTEM.CONST>
0

>  <SCORE.SYSTEM.DIHEDRAL>
0

>  <SCORE.SYSTEM.SOLV>
0

>  <SCORE.SYSTEM.norm>
0

>  <SCORE.heavy>
42

>  <SCORE.norm>
0.723494

>  <RMSD>
27.268

$$$$
lig.pdb
 OpenBabel11021811513D
libRbt.so/2013.1/901 2013/11/27
 42 45  0  0  0  0  0  0  0  0999 V2000
    1.8366   15.1318   12.9174 C   0  0  2  0  0  0  0  0  0  0  0  0
    3.0469   14.6639   12.2442 O   0  0  0  0  0  0  0  0  0  0  0  0
    1.3003   16.3632   12.0594 C   0  0  2  0  0  0  0  0  0  0  0  0
    0.9528   15.9263   10.7044 N   0  0  0  0  0  0  0  0  0  0  0  0
    2.4176   17.5171   12.0571 C   0  0  1  0  0  0  0  0  0  0  0  0
    1.9788   18.6653   11.3011 O   0  0  0  0  0  0  0  0  0  0  0  0
    2.6994   17.8797   13.5253 C   0  0  2  0  0  0  0  0  0  0  0  0
    3.6642   18.8754   13.5622 O   0  0  0  0  0  0  0  0  0  0  0  0
    3.1866   16.5846   14.3214 C   0  0  2  0  0  0  0  0  0  0  0  0
    2.1954   15.5502   14.2885 O   0  0  0  0  0  0  0  0  0  0  0  0
    3.4578   16.8816   15.7690 C   0  0  0  0  0  0  0  0  0  0  0  0
    4.7079   17.5681   15.8426 O   0  0  0  0  0  0  0  0  0  0  0  0
    5.6453   11.0712   11.9070 C   0  0  2  0  0  0  0  0  0  0  0  0
    6.3251    9.8383   12.2400 N   0  0  0  0  0  0  0  0  0  0  0  0
    5.9642   12.1769   12.9861 C   0  0  0  0  0  0  0  0  0  0  0  0
    5.2341   13.5246   12.6498 C   0  0  2  0  0  0  0  0  0  0  0  0
    5.5493   14.5174   13.6749 N   0  0  0  0  0  0  0  0  0  0  0  0
    3.6519   13.3560   12.5698 C   0  0  2  0  0  0  0  0  0  0  0  0
    3.3518   12.2906   11.4760 C   0  0  2  0  0  0  0  0  0  0  0  0
    1.8439   12.1991   11.4574 O   0  0  0  0  0  0  0  0  0  0  0  0
    4.0564   10.8766   11.8654 C   0  0  1  0  0  0  0  0  0  0  0  0
    3.8876    9.8099   10.8775 O   0  0  0  0  0  0  0  0  0  0  0  0
    1.3730   11.9687   10.1915 C   0  0  1  0  0  0  0  0  0  0  0  0
    0.6389   10.7046   10.0716 C   0  0  2  0  0  0  0  0  0  0  0  0
    1.5731    9.6746   10.1275 O   0  0  0  0  0  0  0  0  0  0  0  0
   -0.1663   10.9476    8.7771 C   0  0  2  0  0  0  0  0  0  0  0  0
    0.2517    9.9384    7.8304 O   0  0  0  0  0  0  0  0  0  0  0  0
    0.2087   12.3271    8.3457 C   0  0  2  0  0  0  0  0  0  0  0  0
    0.4213   12.8917    9.6888 O   0  0  0  0  0  0  0  0  0  0  0  0
   -0.9839   13.0599    7.6279 C   0  0  0  0  0  0  0  0  0  0  0  0
   -2.0443   13.4818    8.5373 O   0  0  0  0  0  0  0  0  0  0  0  0
   -0.3016    8.5990    8.0058 C   0  0  2  0  0  0  0  0  0  0  0  0
    0.9188    7.5682    8.2553 C   0  0  2  0  0  0  0  0  0  0  0  0
    1.8618    7.6301    7.0919 N   0  0  0  0  0  0  0  0  0  0  0  0
    0.3011    6.0972    8.4512 C   0  0  1  0  0  0  0  0  0  0  0  0
   -0.6014    6.1546    9.5974 O   0  0  0  0  0  0  0  0  0  0  0  0
   -0.4787    5.6686    7.1272 C   0  0  2  0  0  0  0  0  0  0  0  0
    0.5010    5.6196    6.0191 O   0  0  0  0  0  0  0  0  0  0  0  0
   -1.6678    6.7542    6.8637 C   0  0  1  0  0  0  0  0  0  0  0  0
   -1.0755    8.1369    6.7541 O   0  0  0  0  0  0  0  0  0  0  0  0
   -2.4444    6.3736    5.5596 C   0  0  0  0  0  0  0  0  0  0  0  0
   -1.7445    6.8213    4.3159 N   0  0  0  0  0  0  0  0  0  0  0  0
  1  3  1  0  0  0  0
  1  2  1  6  0  0  0
  3  4  1  6  0  0  0
  3  5  1  0  0  0  0
  5  6  1  6  0  0  0
  7  8  1  6  0  0  0
  7  5  1  0  0  0  0
  9 11  1  1  0  0  0
  9  7  1  0  0  0  0
 10  9  1  0  0  0  0
 10  1  1  0  0  0  0
 12 11  1  0  0  0  0
 13 14  1  1  0  0  0
 15 13  1  0  0  0  0
 16 17  1  1  0  0  0
 16 15  1  0  0  0  0
 18  2  1  6  0  0  0
 18 19  1  0  0  0  0
 18 16  1  0  0  0  0
 19 20  1  1  0  0  0
 19 21  1  0  0  0  0
 21 22  1  6  0  0  0
 21 13  1  0  0  0  0
 23 20  1  1  0  0  0
 23 29  1  0  0  0  0
 24 25  1  6  0  0  0
 24 26  1  0  0  0  0
 24 23  1  0  0  0  0
 26 27  1  6  0  0  0
 26 28  1  0  0  0  0
 28 30  1  1  0  0  0
 29 28  1  0  0  0  0
 30 31  1  0  0  0  0
 32 27  1  6  0  0  0
 32 40  1  0  0  0  0
 33 35  1  0  0  0  0
 33 32  1  0  0  0  0
 33 34  1  6  0  0  0
 35 36  1  1  0  0  0
 35 37  1  0  0  0  0
 37 38  1  6  0  0  0
 37 39  1  0  0  0  0
 39 41  1  6  0  0  0
 40 39  1  0  0  0  0
 41 42  1  0  0  0  0
M  END
>  <CHROM.1>
-166.00778194,-76.20201541,-137.61297321,145.26528900,118.57698164,77.96599212
73.28108273,-119.67392875,-80.89776774,1.73442500,11.96777566,10.46622238
1.14375077,-0.63833713,0.35130872

>  <Name>
lig.pdb

>  <RI>
0

>  <Rbt.Current_Directory>
/home/itssahil/PROJECTS/Mol_Feturizer/New_Systems/rnas/4wcr

>  <Rbt.Executable>
rbdock ($Id: //depot/dev/client3/rdock/2013.1/src/exe/rbdock.cxx#4 $)

>  <Rbt.Library>
libRbt.so (2013.1, Build901 2013/11/27)

>  <Rbt.Parameter_File>
/export/apps/rDock/src/rDock_2013.1_src/data/scripts/dock_solv.prm

>  <Rbt.Receptor>
prm/blind_docking_80.prm

>  <SCORE>
6.08405

>  <SCORE.INTER>
-5.40409

>  <SCORE.INTER.CONST>
1

>  <SCORE.INTER.POLAR>
0

>  <SCORE.INTER.ROT>
9

>  <SCORE.INTER.SOLV>
31.9715

>  <SCORE.INTER.VDW>
-23.8599

>  <SCORE.INTER.norm>
-0.128669

>  <SCORE.INTRA>
7.14187

>  <SCORE.INTRA.DIHEDRAL>
13.98

>  <SCORE.INTRA.DIHEDRAL.0>
16.2863

>  <SCORE.INTRA.POLAR>
0

>  <SCORE.INTRA.POLAR.0>
0

>  <SCORE.INTRA.REPUL>
-0.10534

>  <SCORE.INTRA.REPUL.0>
0.314433

>  <SCORE.INTRA.SOLV>
0.50658

>  <SCORE.INTRA.SOLV.lig_0>
-103.824

>  <SCORE.INTRA.VDW>
0.425264

>  <SCORE.INTRA.VDW.0>
-5.30945

>  <SCORE.INTRA.norm>
0.170045

>  <SCORE.RESTR>
4.34626

>  <SCORE.RESTR.CAVITY>
4.34626

>  <SCORE.RESTR.norm>
0.103482

>  <SCORE.SYSTEM>
0

>  <SCORE.SYSTEM.CONST>
0

>  <SCORE.SYSTEM.DIHEDRAL>
0

>  <SCORE.SYSTEM.SOLV>
0

>  <SCORE.SYSTEM.norm>
0

>  <SCORE.heavy>
42

>  <SCORE.norm>
0.144858

>  <RMSD>
27.279

$$$$
lig.pdb
 OpenBabel11021811513D
libRbt.so/2013.1/901 2013/11/27
 42 45  0  0  0  0  0  0  0  0999 V2000
    2.2367    9.5570    9.3482 C   0  0  2  0  0  0  0  0  0  0  0  0
    1.4371   10.0304   10.4768 O   0  0  0  0  0  0  0  0  0  0  0  0
    1.3387    8.4810    8.5894 C   0  0  2  0  0  0  0  0  0  0  0  0
    0.1169    9.1079    8.0775 N   0  0  0  0  0  0  0  0  0  0  0  0
    1.0233    7.2693    9.5954 C   0  0  1  0  0  0  0  0  0  0  0  0
    0.2193    6.2564    8.9548 O   0  0  0  0  0  0  0  0  0  0  0  0
    2.3751    6.7055   10.0658 C   0  0  2  0  0  0  0  0  0  0  0  0
    2.1410    5.6550   10.9405 O   0  0  0  0  0  0  0  0  0  0  0  0
    3.2278    7.8555   10.7721 C   0  0  2  0  0  0  0  0  0  0  0  0
    3.4746    8.9456    9.8752 O   0  0  0  0  0  0  0  0  0  0  0  0
    4.5687    7.3601   11.2342 C   0  0  0  0  0  0  0  0  0  0  0  0
    5.3281    7.0214   10.0731 O   0  0  0  0  0  0  0  0  0  0  0  0
   -1.3855   13.0110    8.7676 C   0  0  2  0  0  0  0  0  0  0  0  0
   -2.2885   14.1364    8.6621 N   0  0  0  0  0  0  0  0  0  0  0  0
   -1.8665   12.0326    9.9078 C   0  0  0  0  0  0  0  0  0  0  0  0
   -0.9000   10.8040   10.0456 C   0  0  2  0  0  0  0  0  0  0  0  0
   -1.3759    9.9283   11.1144 N   0  0  0  0  0  0  0  0  0  0  0  0
    0.5972   11.2411   10.3706 C   0  0  2  0  0  0  0  0  0  0  0  0
    1.0700   12.1749    9.2191 C   0  0  2  0  0  0  0  0  0  0  0  0
    2.4887   12.5325    9.5962 O   0  0  0  0  0  0  0  0  0  0  0  0
    0.1031   13.4802    9.1257 C   0  0  1  0  0  0  0  0  0  0  0  0
    0.4199   14.4067    8.0379 O   0  0  0  0  0  0  0  0  0  0  0  0
    2.5325   13.2208   10.7801 C   0  0  1  0  0  0  0  0  0  0  0  0
    3.6915   14.1135   10.8844 C   0  0  2  0  0  0  0  0  0  0  0  0
    4.8151   13.3152   11.0762 O   0  0  0  0  0  0  0  0  0  0  0  0
    3.2285   15.0761   11.9989 C   0  0  2  0  0  0  0  0  0  0  0  0
    4.1705   14.9386   13.0867 O   0  0  0  0  0  0  0  0  0  0  0  0
    1.8588   14.6078   12.3655 C   0  0  2  0  0  0  0  0  0  0  0  0
    1.4654   14.1196   11.0333 O   0  0  0  0  0  0  0  0  0  0  0  0
    0.9315   15.7997   12.8060 C   0  0  0  0  0  0  0  0  0  0  0  0
   -0.1569   16.0705   11.8726 O   0  0  0  0  0  0  0  0  0  0  0  0
    4.4448   13.5835   13.5553 C   0  0  2  0  0  0  0  0  0  0  0  0
    5.5285   13.6640   14.7524 C   0  0  2  0  0  0  0  0  0  0  0  0
    6.7692   14.3380   14.2495 N   0  0  0  0  0  0  0  0  0  0  0  0
    5.8219   12.1689   15.2650 C   0  0  1  0  0  0  0  0  0  0  0  0
    4.5527   11.6096   15.7209 O   0  0  0  0  0  0  0  0  0  0  0  0
    6.4320   11.3081   14.0686 C   0  0  2  0  0  0  0  0  0  0  0  0
    7.7171   11.9266   13.6736 O   0  0  0  0  0  0  0  0  0  0  0  0
    5.3463   11.2889   12.8509 C   0  0  1  0  0  0  0  0  0  0  0  0
    5.0303   12.7030   12.4323 O   0  0  0  0  0  0  0  0  0  0  0  0
    5.9206   10.4656   11.6505 C   0  0  0  0  0  0  0  0  0  0  0  0
    6.5455    9.1755   12.0778 N   0  0  0  0  0  0  0  0  0  0  0  0
  1  3  1  0  0  0  0
  1  2  1  1  0  0  0
  3  4  1  1  0  0  0
  3  5  1  0  0  0  0
  5  6  1  6  0  0  0
  7  8  1  1  0  0  0
  7  5  1  0  0  0  0
  9 11  1  6  0  0  0
  9  7  1  0  0  0  0
 10  9  1  0  0  0  0
 10  1  1  0  0  0  0
 12 11  1  0  0  0  0
 13 14  1  1  0  0  0
 15 13  1  0  0  0  0
 16 17  1  1  0  0  0
 16 15  1  0  0  0  0
 18  2  1  6  0  0  0
 18 19  1  0  0  0  0
 18 16  1  0  0  0  0
 19 20  1  1  0  0  0
 19 21  1  0  0  0  0
 21 22  1  6  0  0  0
 21 13  1  0  0  0  0
 23 20  1  6  0  0  0
 23 29  1  0  0  0  0
 24 25  1  1  0  0  0
 24 26  1  0  0  0  0
 24 23  1  0  0  0  0
 26 27  1  1  0  0  0
 26 28  1  0  0  0  0
 28 30  1  6  0  0  0
 29 28  1  0  0  0  0
 30 31  1  0  0  0  0
 32 27  1  6  0  0  0
 32 40  1  0  0  0  0
 33 35  1  0  0  0  0
 33 32  1  0  0  0  0
 33 34  1  6  0  0  0
 35 36  1  6  0  0  0
 35 37  1  0  0  0  0
 37 38  1  6  0  0  0
 37 39  1  0  0  0  0
 39 41  1  6  0  0  0
 40 39  1  0  0  0  0
 41 42  1  0  0  0  0
M  END
>  <CHROM.1>
-93.77297606,65.94109259,97.03253767,-62.53251531,-152.64797147,-51.30358958
112.08668970,179.34708981,45.30770159,2.66579265,11.45776664,11.16918492
-2.43168122,-0.55364097,0.27340058

>  <Name>
lig.pdb

>  <RI>
0

>  <Rbt.Current_Directory>
/home/itssahil/PROJECTS/Mol_Feturizer/New_Systems/rnas/4wcr

>  <Rbt.Executable>
rbdock ($Id: //depot/dev/client3/rdock/2013.1/src/exe/rbdock.cxx#4 $)

>  <Rbt.Library>
libRbt.so (2013.1, Build901 2013/11/27)

>  <Rbt.Parameter_File>
/export/apps/rDock/src/rDock_2013.1_src/data/scripts/dock_solv.prm

>  <Rbt.Receptor>
prm/blind_docking_20.prm

>  <SCORE>
62.0628

>  <SCORE.INTER>
0.184731

>  <SCORE.INTER.CONST>
1

>  <SCORE.INTER.POLAR>
0

>  <SCORE.INTER.ROT>
9

>  <SCORE.INTER.SOLV>
28.0569

>  <SCORE.INTER.VDW>
-18.8292

>  <SCORE.INTER.norm>
0.00439836

>  <SCORE.INTRA>
30.1299

>  <SCORE.INTRA.DIHEDRAL>
2.06999

>  <SCORE.INTRA.DIHEDRAL.0>
16.2863

>  <SCORE.INTRA.POLAR>
0

>  <SCORE.INTRA.POLAR.0>
0

>  <SCORE.INTRA.REPUL>
-0.314433

>  <SCORE.INTRA.REPUL.0>
0.314433

>  <SCORE.INTRA.SOLV>
5.27715

>  <SCORE.INTRA.SOLV.lig_0>
-103.824

>  <SCORE.INTRA.VDW>
28.0284

>  <SCORE.INTRA.VDW.0>
-5.30945

>  <SCORE.INTRA.norm>
0.717377

>  <SCORE.RESTR>
31.7482

>  <SCORE.RESTR.CAVITY>
31.7482

>  <SCORE.RESTR.norm>
0.755909

>  <SCORE.SYSTEM>
0

>  <SCORE.SYSTEM.CONST>
0

>  <SCORE.SYSTEM.DIHEDRAL>
0

>  <SCORE.SYSTEM.SOLV>
0

>  <SCORE.SYSTEM.norm>
0

>  <SCORE.heavy>
42

>  <SCORE.norm>
1.47769

>  <RMSD>
27.298

$$$$
lig.pdb
 OpenBabel11021811513D
libRbt.so/2013.1/901 2013/11/27
 42 45  0  0  0  0  0  0  0  0999 V2000
   -1.0117    8.0311    9.5789 C   0  0  2  0  0  0  0  0  0  0  0  0
   -0.0929    9.0070   10.1625 O   0  0  0  0  0  0  0  0  0  0  0  0
   -0.8274    6.6904   10.4206 C   0  0  2  0  0  0  0  0  0  0  0  0
   -1.1968    6.9139   11.8210 N   0  0  0  0  0  0  0  0  0  0  0  0
    0.6903    6.1878   10.2661 C   0  0  1  0  0  0  0  0  0  0  0  0
    0.9117    4.9661   11.0017 O   0  0  0  0  0  0  0  0  0  0  0  0
    0.9559    5.9996    8.7626 C   0  0  2  0  0  0  0  0  0  0  0  0
    2.2622    5.5664    8.5906 O   0  0  0  0  0  0  0  0  0  0  0  0
    0.7052    7.3739    7.9900 C   0  0  2  0  0  0  0  0  0  0  0  0
   -0.6426    7.8292    8.1623 O   0  0  0  0  0  0  0  0  0  0  0  0
    0.9333    7.2390    6.5111 C   0  0  0  0  0  0  0  0  0  0  0  0
    0.1128    8.2078    5.8571 O   0  0  0  0  0  0  0  0  0  0  0  0
   -1.4090   13.0622    8.8993 C   0  0  2  0  0  0  0  0  0  0  0  0
   -1.8483   14.4392    8.9617 N   0  0  0  0  0  0  0  0  0  0  0  0
   -2.3799   12.1429    9.7365 C   0  0  0  0  0  0  0  0  0  0  0  0
   -1.9221   10.6427    9.6885 C   0  0  2  0  0  0  0  0  0  0  0  0
   -2.8415    9.8281   10.4802 N   0  0  0  0  0  0  0  0  0  0  0  0
   -0.4449   10.4390   10.2497 C   0  0  2  0  0  0  0  0  0  0  0  0
    0.5054   11.3225    9.3905 C   0  0  2  0  0  0  0  0  0  0  0  0
    1.8741   11.0656    9.9766 O   0  0  0  0  0  0  0  0  0  0  0  0
    0.0653   12.8852    9.4988 C   0  0  1  0  0  0  0  0  0  0  0  0
    0.8578   13.8077    8.6845 O   0  0  0  0  0  0  0  0  0  0  0  0
    2.2075   12.0181   10.9033 C   0  0  1  0  0  0  0  0  0  0  0  0
    3.6535   12.1257   11.1235 C   0  0  2  0  0  0  0  0  0  0  0  0
    4.0493   11.0014   11.8418 O   0  0  0  0  0  0  0  0  0  0  0  0
    3.7554   13.5267   11.7637 C   0  0  2  0  0  0  0  0  0  0  0  0
    4.3167   13.3425   13.0830 O   0  0  0  0  0  0  0  0  0  0  0  0
    2.3510   14.0324   11.8050 C   0  0  2  0  0  0  0  0  0  0  0  0
    1.8740   13.3592   10.5855 O   0  0  0  0  0  0  0  0  0  0  0  0
    2.2862   15.5940   11.6273 C   0  0  0  0  0  0  0  0  0  0  0  0
    0.9838   16.1666   11.9514 O   0  0  0  0  0  0  0  0  0  0  0  0
    4.8981   14.5185   13.7234 C   0  0  2  0  0  0  0  0  0  0  0  0
    5.6923   14.0414   15.0484 C   0  0  2  0  0  0  0  0  0  0  0  0
    4.7428   13.3259   15.9613 N   0  0  0  0  0  0  0  0  0  0  0  0
    6.3322   15.3410   15.7451 C   0  0  1  0  0  0  0  0  0  0  0  0
    7.2271   15.9591   14.7711 O   0  0  0  0  0  0  0  0  0  0  0  0
    5.1663   16.3431   16.1706 C   0  0  2  0  0  0  0  0  0  0  0  0
    4.3144   15.6527   17.1644 O   0  0  0  0  0  0  0  0  0  0  0  0
    4.3433   16.7655   14.8267 C   0  0  1  0  0  0  0  0  0  0  0  0
    3.8118   15.5275   14.1488 O   0  0  0  0  0  0  0  0  0  0  0  0
    3.1781   17.7371   15.2101 C   0  0  0  0  0  0  0  0  0  0  0  0
    3.5942   18.7814   16.1968 N   0  0  0  0  0  0  0  0  0  0  0  0
  1  3  1  0  0  0  0
  1  2  1  1  0  0  0
  3  4  1  1  0  0  0
  3  5  1  0  0  0  0
  5  6  1  1  0  0  0
  7  8  1  1  0  0  0
  7  5  1  0  0  0  0
  9 11  1  6  0  0  0
  9  7  1  0  0  0  0
 10  9  1  0  0  0  0
 10  1  1  0  0  0  0
 12 11  1  0  0  0  0
 13 14  1  1  0  0  0
 15 13  1  0  0  0  0
 16 17  1  1  0  0  0
 16 15  1  0  0  0  0
 18  2  1  6  0  0  0
 18 19  1  0  0  0  0
 18 16  1  0  0  0  0
 19 20  1  1  0  0  0
 19 21  1  0  0  0  0
 21 22  1  6  0  0  0
 21 13  1  0  0  0  0
 23 20  1  6  0  0  0
 23 29  1  0  0  0  0
 24 25  1  1  0  0  0
 24 26  1  0  0  0  0
 24 23  1  0  0  0  0
 26 27  1  1  0  0  0
 26 28  1  0  0  0  0
 28 30  1  6  0  0  0
 29 28  1  0  0  0  0
 30 31  1  0  0  0  0
 32 27  1  1  0  0  0
 32 40  1  0  0  0  0
 33 35  1  0  0  0  0
 33 32  1  0  0  0  0
 33 34  1  1  0  0  0
 35 36  1  6  0  0  0
 35 37  1  0  0  0  0
 37 38  1  1  0  0  0
 37 39  1  0  0  0  0
 39 41  1  1  0  0  0
 40 39  1  0  0  0  0
 41 42  1  0  0  0  0
M  END
>  <CHROM.1>
-144.44541605,152.31333091,2.46891378,-95.17063787,-158.31357571,161.29349088
-167.23958118,-169.94553835,43.23996409,1.78293364,11.86759759,11.37834396
-2.14987253,-0.69853066,0.23310299

>  <Name>
lig.pdb

>  <RI>
0

>  <Rbt.Current_Directory>
/home/itssahil/PROJECTS/Mol_Feturizer/New_Systems/rnas/4wcr

>  <Rbt.Executable>
rbdock ($Id: //depot/dev/client3/rdock/2013.1/src/exe/rbdock.cxx#4 $)

>  <Rbt.Library>
libRbt.so (2013.1, Build901 2013/11/27)

>  <Rbt.Parameter_File>
/export/apps/rDock/src/rDock_2013.1_src/data/scripts/dock_solv.prm

>  <Rbt.Receptor>
prm/blind_docking_40.prm

>  <SCORE>
25.8269

>  <SCORE.INTER>
-8.52517

>  <SCORE.INTER.CONST>
1

>  <SCORE.INTER.POLAR>
0

>  <SCORE.INTER.ROT>
9

>  <SCORE.INTER.SOLV>
29.9401

>  <SCORE.INTER.VDW>
-25.2635

>  <SCORE.INTER.norm>
-0.20298

>  <SCORE.INTRA>
24.5424

>  <SCORE.INTRA.DIHEDRAL>
8.40409

>  <SCORE.INTRA.DIHEDRAL.0>
16.2863

>  <SCORE.INTRA.POLAR>
0

>  <SCORE.INTRA.POLAR.0>
0

>  <SCORE.INTRA.REPUL>
-0.314433

>  <SCORE.INTRA.REPUL.0>
0.314433

>  <SCORE.INTRA.SOLV>
-1.70268

>  <SCORE.INTRA.SOLV.lig_0>
-103.824

>  <SCORE.INTRA.VDW>
22.7639

>  <SCORE.INTRA.VDW.0>
-5.30945

>  <SCORE.INTRA.norm>
0.584344

>  <SCORE.RESTR>
9.80967

>  <SCORE.RESTR.CAVITY>
9.80967

>  <SCORE.RESTR.norm>
0.233564

>  <SCORE.SYSTEM>
0

>  <SCORE.SYSTEM.CONST>
0

>  <SCORE.SYSTEM.DIHEDRAL>
0

>  <SCORE.SYSTEM.SOLV>
0

>  <SCORE.SYSTEM.norm>
0

>  <SCORE.heavy>
42

>  <SCORE.norm>
0.614927

>  <RMSD>
27.321

$$$$
lig.pdb
 OpenBabel11021811513D
libRbt.so/2013.1/901 2013/11/27
 42 45  0  0  0  0  0  0  0  0999 V2000
    0.3192    9.9343    8.5044 C   0  0  2  0  0  0  0  0  0  0  0  0
    0.9693   10.4068    9.7255 O   0  0  0  0  0  0  0  0  0  0  0  0
   -0.9377   10.8870    8.2745 C   0  0  2  0  0  0  0  0  0  0  0  0
   -0.4977   12.2706    8.0749 N   0  0  0  0  0  0  0  0  0  0  0  0
   -1.9325   10.7413    9.5270 C   0  0  1  0  0  0  0  0  0  0  0  0
   -3.0982   11.5767    9.3661 O   0  0  0  0  0  0  0  0  0  0  0  0
   -2.3121    9.2544    9.6353 C   0  0  2  0  0  0  0  0  0  0  0  0
   -3.1720    9.0901   10.7110 O   0  0  0  0  0  0  0  0  0  0  0  0
   -0.9962    8.3692    9.8175 C   0  0  2  0  0  0  0  0  0  0  0  0
   -0.1016    8.5328    8.7100 O   0  0  0  0  0  0  0  0  0  0  0  0
   -1.3113    6.9031    9.9095 C   0  0  0  0  0  0  0  0  0  0  0  0
   -0.0741    6.2027   10.0454 O   0  0  0  0  0  0  0  0  0  0  0  0
    4.6557    9.3314   11.9675 C   0  0  2  0  0  0  0  0  0  0  0  0
    6.0255    8.9627   12.2518 N   0  0  0  0  0  0  0  0  0  0  0  0
    4.0096    8.2955   10.9683 C   0  0  0  0  0  0  0  0  0  0  0  0
    2.5231    8.6760   10.6400 C   0  0  2  0  0  0  0  0  0  0  0  0
    1.9652    7.6980    9.7083 N   0  0  0  0  0  0  0  0  0  0  0  0
    2.3945   10.1276    9.9960 C   0  0  2  0  0  0  0  0  0  0  0  0
    3.0015   11.1415   11.0085 C   0  0  2  0  0  0  0  0  0  0  0  0
    2.8322   12.4815   10.3314 O   0  0  0  0  0  0  0  0  0  0  0  0
    4.5624   10.7806   11.2927 C   0  0  1  0  0  0  0  0  0  0  0  0
    5.2251   11.6380   12.2766 O   0  0  0  0  0  0  0  0  0  0  0  0
    2.4565   13.4492   11.2257 C   0  0  1  0  0  0  0  0  0  0  0  0
    3.4402   14.5297   11.3516 C   0  0  2  0  0  0  0  0  0  0  0  0
    4.5287   14.0210   12.0537 O   0  0  0  0  0  0  0  0  0  0  0  0
    2.5769   15.6498   11.9706 C   0  0  2  0  0  0  0  0  0  0  0  0
    3.1635   15.9680   13.2529 O   0  0  0  0  0  0  0  0  0  0  0  0
    1.2124   15.0566   12.0970 C   0  0  2  0  0  0  0  0  0  0  0  0
    1.2803   14.1785   10.9172 O   0  0  0  0  0  0  0  0  0  0  0  0
    0.0850   16.1375   11.9091 C   0  0  0  0  0  0  0  0  0  0  0  0
   -0.1298   16.9704   13.0877 O   0  0  0  0  0  0  0  0  0  0  0  0
    2.5678   17.0749   13.9951 C   0  0  2  0  0  0  0  0  0  0  0  0
    2.1291   18.2213   12.9428 C   0  0  2  0  0  0  0  0  0  0  0  0
    3.3314   18.6606   12.1630 N   0  0  0  0  0  0  0  0  0  0  0  0
    1.4710   19.4341   13.7674 C   0  0  1  0  0  0  0  0  0  0  0  0
    0.3225   18.8948   14.4898 O   0  0  0  0  0  0  0  0  0  0  0  0
    2.5505   20.0385   14.7742 C   0  0  2  0  0  0  0  0  0  0  0  0
    3.6711   20.5748   13.9700 O   0  0  0  0  0  0  0  0  0  0  0  0
    3.0208   18.8503   15.7887 C   0  0  1  0  0  0  0  0  0  0  0  0
    3.5692   17.6927   14.9925 O   0  0  0  0  0  0  0  0  0  0  0  0
    4.0954   19.4048   16.7818 C   0  0  0  0  0  0  0  0  0  0  0  0
    4.6634   18.3459   17.6726 N   0  0  0  0  0  0  0  0  0  0  0  0
  1  3  1  0  0  0  0
  1  2  1  1  0  0  0
  3  4  1  1  0  0  0
  3  5  1  0  0  0  0
  5  6  1  6  0  0  0
  7  8  1  1  0  0  0
  7  5  1  0  0  0  0
  9 11  1  6  0  0  0
  9  7  1  0  0  0  0
 10  9  1  0  0  0  0
 10  1  1  0  0  0  0
 12 11  1  0  0  0  0
 13 14  1  6  0  0  0
 15 13  1  0  0  0  0
 16 17  1  6  0  0  0
 16 15  1  0  0  0  0
 18  2  1  1  0  0  0
 18 19  1  0  0  0  0
 18 16  1  0  0  0  0
 19 20  1  6  0  0  0
 19 21  1  0  0  0  0
 21 22  1  1  0  0  0
 21 13  1  0  0  0  0
 23 20  1  6  0  0  0
 23 29  1  0  0  0  0
 24 25  1  1  0  0  0
 24 26  1  0  0  0  0
 24 23  1  0  0  0  0
 26 27  1  1  0  0  0
 26 28  1  0  0  0  0
 28 30  1  6  0  0  0
 29 28  1  0  0  0  0
 30 31  1  0  0  0  0
 32 27  1  6  0  0  0
 32 40  1  0  0  0  0
 33 35  1  0  0  0  0
 33 32  1  0  0  0  0
 33 34  1  1  0  0  0
 35 36  1  1  0  0  0
 35 37  1  0  0  0  0
 37 38  1  6  0  0  0
 37 39  1  0  0  0  0
 39 41  1  1  0  0  0
 40 39  1  0  0  0  0
 41 42  1  0  0  0  0
M  END
>  <CHROM.1>
-157.10774947,178.96432636,-83.62140002,139.75006809,117.59201892,175.93288611
-78.26021505,-37.05587847,-175.16211020,1.74553465,13.25831200,11.71947106
1.82242459,0.34698422,-2.77622675

>  <Name>
lig.pdb

>  <RI>
0

>  <Rbt.Current_Directory>
/home/itssahil/PROJECTS/Mol_Feturizer/New_Systems/rnas/4wcr

>  <Rbt.Executable>
rbdock ($Id: //depot/dev/client3/rdock/2013.1/src/exe/rbdock.cxx#4 $)

>  <Rbt.Library>
libRbt.so (2013.1, Build901 2013/11/27)

>  <Rbt.Parameter_File>
/export/apps/rDock/src/rDock_2013.1_src/data/scripts/dock_solv.prm

>  <Rbt.Receptor>
prm/blind_docking_60.prm

>  <SCORE>
0.654346

>  <SCORE.INTER>
-11.1179

>  <SCORE.INTER.CONST>
1

>  <SCORE.INTER.POLAR>
0

>  <SCORE.INTER.ROT>
9

>  <SCORE.INTER.SOLV>
26.8231

>  <SCORE.INTER.VDW>
-25.953

>  <SCORE.INTER.norm>
-0.264713

>  <SCORE.INTRA>
7.1937

>  <SCORE.INTRA.DIHEDRAL>
4.99075

>  <SCORE.INTRA.DIHEDRAL.0>
16.2863

>  <SCORE.INTRA.POLAR>
0

>  <SCORE.INTRA.POLAR.0>
0

>  <SCORE.INTRA.REPUL>
-0.306737

>  <SCORE.INTRA.REPUL.0>
0.314433

>  <SCORE.INTRA.SOLV>
1.84707

>  <SCORE.INTRA.SOLV.lig_0>
-103.824

>  <SCORE.INTRA.VDW>
5.30848

>  <SCORE.INTRA.VDW.0>
-5.30945

>  <SCORE.INTRA.norm>
0.171279

>  <SCORE.RESTR>
4.57859

>  <SCORE.RESTR.CAVITY>
4.57859

>  <SCORE.RESTR.norm>
0.109014

>  <SCORE.SYSTEM>
0

>  <SCORE.SYSTEM.CONST>
0

>  <SCORE.SYSTEM.DIHEDRAL>
0

>  <SCORE.SYSTEM.SOLV>
0

>  <SCORE.SYSTEM.norm>
0

>  <SCORE.heavy>
42

>  <SCORE.norm>
0.0155797

>  <RMSD>
27.325

$$$$
lig.pdb
 OpenBabel11021811513D
libRbt.so/2013.1/901 2013/11/27
 42 45  0  0  0  0  0  0  0  0999 V2000
    1.9942    9.4466    9.2852 C   0  0  2  0  0  0  0  0  0  0  0  0
    0.9600    9.8090   10.2528 O   0  0  0  0  0  0  0  0  0  0  0  0
    1.5384    8.0585    8.6485 C   0  0  2  0  0  0  0  0  0  0  0  0
    0.2624    8.2159    7.9451 N   0  0  0  0  0  0  0  0  0  0  0  0
    1.4566    6.9571    9.8147 C   0  0  1  0  0  0  0  0  0  0  0  0
    1.0577    5.6728    9.2911 O   0  0  0  0  0  0  0  0  0  0  0  0
    2.8436    6.8925   10.4769 C   0  0  2  0  0  0  0  0  0  0  0  0
    2.8098    5.9497   11.4936 O   0  0  0  0  0  0  0  0  0  0  0  0
    3.2419    8.3298   11.0461 C   0  0  2  0  0  0  0  0  0  0  0  0
    3.2793    9.3108   10.0021 O   0  0  0  0  0  0  0  0  0  0  0  0
    4.6002    8.3255   11.6880 C   0  0  0  0  0  0  0  0  0  0  0  0
    4.5243    9.1298   12.8658 O   0  0  0  0  0  0  0  0  0  0  0  0
   -1.6395   12.9177    8.4224 C   0  0  2  0  0  0  0  0  0  0  0  0
   -2.4881   14.0806    8.2791 N   0  0  0  0  0  0  0  0  0  0  0  0
   -2.2219   11.9517    9.5253 C   0  0  0  0  0  0  0  0  0  0  0  0
   -1.3160   10.6828    9.7032 C   0  0  2  0  0  0  0  0  0  0  0  0
   -1.8853    9.8199   10.7361 N   0  0  0  0  0  0  0  0  0  0  0  0
    0.1780   11.0545   10.1131 C   0  0  2  0  0  0  0  0  0  0  0  0
    0.7511   11.9763    8.9980 C   0  0  2  0  0  0  0  0  0  0  0  0
    2.1607   12.2714    9.4549 O   0  0  0  0  0  0  0  0  0  0  0  0
   -0.1545   13.3215    8.8651 C   0  0  1  0  0  0  0  0  0  0  0  0
    0.2592   14.2421    7.8051 O   0  0  0  0  0  0  0  0  0  0  0  0
    2.1694   13.1136   10.5357 C   0  0  1  0  0  0  0  0  0  0  0  0
    3.4013   13.0223   11.3265 C   0  0  2  0  0  0  0  0  0  0  0  0
    3.3642   11.8139   12.0157 O   0  0  0  0  0  0  0  0  0  0  0  0
    3.3580   14.3560   12.1029 C   0  0  2  0  0  0  0  0  0  0  0  0
    3.3098   14.0192   13.5078 O   0  0  0  0  0  0  0  0  0  0  0  0
    2.1123   15.0325   11.6336 C   0  0  2  0  0  0  0  0  0  0  0  0
    2.1185   14.5034   10.2596 O   0  0  0  0  0  0  0  0  0  0  0  0
    2.2676   16.5978   11.6166 C   0  0  0  0  0  0  0  0  0  0  0  0
    2.8935   17.1371   12.8194 O   0  0  0  0  0  0  0  0  0  0  0  0
    4.5465   13.5349   14.1135 C   0  0  2  0  0  0  0  0  0  0  0  0
    5.6507   14.7136   14.0383 C   0  0  2  0  0  0  0  0  0  0  0  0
    5.8527   15.1089   12.6066 N   0  0  0  0  0  0  0  0  0  0  0  0
    7.0075   14.1737   14.7103 C   0  0  1  0  0  0  0  0  0  0  0  0
    6.6946   13.8129   16.0899 O   0  0  0  0  0  0  0  0  0  0  0  0
    7.5386   12.9112   13.8928 C   0  0  2  0  0  0  0  0  0  0  0  0
    7.8456   13.3583   12.5159 O   0  0  0  0  0  0  0  0  0  0  0  0
    6.3857   11.7574   13.9337 C   0  0  1  0  0  0  0  0  0  0  0  0
    5.1009   12.3055   13.3648 O   0  0  0  0  0  0  0  0  0  0  0  0
    6.8670   10.5075   13.1247 C   0  0  0  0  0  0  0  0  0  0  0  0
    6.4759   10.5641   11.6821 N   0  0  0  0  0  0  0  0  0  0  0  0
  1  3  1  0  0  0  0
  1  2  1  1  0  0  0
  3  4  1  1  0  0  0
  3  5  1  0  0  0  0
  5  6  1  6  0  0  0
  7  8  1  1  0  0  0
  7  5  1  0  0  0  0
  9 11  1  6  0  0  0
  9  7  1  0  0  0  0
 10  9  1  0  0  0  0
 10  1  1  0  0  0  0
 12 11  1  0  0  0  0
 13 14  1  1  0  0  0
 15 13  1  0  0  0  0
 16 17  1  1  0  0  0
 16 15  1  0  0  0  0
 18  2  1  6  0  0  0
 18 19  1  0  0  0  0
 18 16  1  0  0  0  0
 19 20  1  1  0  0  0
 19 21  1  0  0  0  0
 21 22  1  6  0  0  0
 21 13  1  0  0  0  0
 23 20  1  6  0  0  0
 23 29  1  0  0  0  0
 24 25  1  1  0  0  0
 24 26  1  0  0  0  0
 24 23  1  0  0  0  0
 26 27  1  1  0  0  0
 26 28  1  0  0  0  0
 28 30  1  6  0  0  0
 29 28  1  0  0  0  0
 30 31  1  0  0  0  0
 32 27  1  6  0  0  0
 32 40  1  0  0  0  0
 33 35  1  0  0  0  0
 33 32  1  0  0  0  0
 33 34  1  6  0  0  0
 35 36  1  1  0  0  0
 35 37  1  0  0  0  0
 37 38  1  6  0  0  0
 37 39  1  0  0  0  0
 39 41  1  6  0  0  0
 40 39  1  0  0  0  0
 41 42  1  0  0  0  0
M  END
>  <CHROM.1>
-119.22478280,-139.74512663,109.26712049,-71.46475524,157.52307528,74.22251306
-45.25311249,63.19392256,-90.26491225,2.81746334,11.68354651,11.22314629
-2.51836599,-0.57563474,0.15473748

>  <Name>
lig.pdb

>  <RI>
0

>  <Rbt.Current_Directory>
/home/itssahil/PROJECTS/Mol_Feturizer/New_Systems/rnas/4wcr

>  <Rbt.Executable>
rbdock ($Id: //depot/dev/client3/rdock/2013.1/src/exe/rbdock.cxx#4 $)

>  <Rbt.Library>
libRbt.so (2013.1, Build901 2013/11/27)

>  <Rbt.Parameter_File>
/export/apps/rDock/src/rDock_2013.1_src/data/scripts/dock_solv.prm

>  <Rbt.Receptor>
prm/blind_docking_20.prm

>  <SCORE>
50.2846

>  <SCORE.INTER>
1.65035

>  <SCORE.INTER.CONST>
1

>  <SCORE.INTER.POLAR>
0

>  <SCORE.INTER.ROT>
9

>  <SCORE.INTER.SOLV>
29.1838

>  <SCORE.INTER.VDW>
-18.2277

>  <SCORE.INTER.norm>
0.0392941

>  <SCORE.INTRA>
13.5332

>  <SCORE.INTRA.DIHEDRAL>
9.14899

>  <SCORE.INTRA.DIHEDRAL.0>
16.2863

>  <SCORE.INTRA.POLAR>
0

>  <SCORE.INTRA.POLAR.0>
0

>  <SCORE.INTRA.REPUL>
-0.0720937

>  <SCORE.INTRA.REPUL.0>
0.314433

>  <SCORE.INTRA.SOLV>
6.6864

>  <SCORE.INTRA.SOLV.lig_0>
-103.824

>  <SCORE.INTRA.VDW>
5.97595

>  <SCORE.INTRA.VDW.0>
-5.30945

>  <SCORE.INTRA.norm>
0.322219

>  <SCORE.RESTR>
35.1011

>  <SCORE.RESTR.CAVITY>
35.1011

>  <SCORE.RESTR.norm>
0.83574

>  <SCORE.SYSTEM>
0

>  <SCORE.SYSTEM.CONST>
0

>  <SCORE.SYSTEM.DIHEDRAL>
0

>  <SCORE.SYSTEM.SOLV>
0

>  <SCORE.SYSTEM.norm>
0

>  <SCORE.heavy>
42

>  <SCORE.norm>
1.19725

>  <RMSD>
27.330

$$$$
lig.pdb
 OpenBabel11021811513D
libRbt.so/2013.1/901 2013/11/27
 42 45  0  0  0  0  0  0  0  0999 V2000
    2.0785    8.7811    8.9139 C   0  0  2  0  0  0  0  0  0  0  0  0
    1.3836    9.1215   10.1542 O   0  0  0  0  0  0  0  0  0  0  0  0
    0.9445    8.3979    7.8616 C   0  0  2  0  0  0  0  0  0  0  0  0
    0.0685    9.5469    7.6166 N   0  0  0  0  0  0  0  0  0  0  0  0
    0.1357    7.1250    8.4140 C   0  0  1  0  0  0  0  0  0  0  0  0
   -0.9003    6.7261    7.4919 O   0  0  0  0  0  0  0  0  0  0  0  0
    1.1590    5.9984    8.6378 C   0  0  2  0  0  0  0  0  0  0  0  0
    0.4942    4.8800    9.1181 O   0  0  0  0  0  0  0  0  0  0  0  0
    2.2811    6.4795    9.6663 C   0  0  2  0  0  0  0  0  0  0  0  0
    2.9735    7.6352    9.1778 O   0  0  0  0  0  0  0  0  0  0  0  0
    3.3186    5.4194    9.9053 C   0  0  0  0  0  0  0  0  0  0  0  0
    2.6611    4.2958   10.4926 O   0  0  0  0  0  0  0  0  0  0  0  0
   -1.1172   12.6333    9.0653 C   0  0  2  0  0  0  0  0  0  0  0  0
   -1.9307   13.8236    9.1857 N   0  0  0  0  0  0  0  0  0  0  0  0
   -1.7314   11.4649    9.9293 C   0  0  0  0  0  0  0  0  0  0  0  0
   -0.8639   10.1620    9.8192 C   0  0  2  0  0  0  0  0  0  0  0  0
   -1.4617    9.1091   10.6376 N   0  0  0  0  0  0  0  0  0  0  0  0
    0.6391   10.3896   10.2961 C   0  0  2  0  0  0  0  0  0  0  0  0
    1.2427   11.5178    9.4105 C   0  0  2  0  0  0  0  0  0  0  0  0
    2.6589   11.6629    9.9166 O   0  0  0  0  0  0  0  0  0  0  0  0
    0.3776   12.8852    9.5814 C   0  0  1  0  0  0  0  0  0  0  0  0
    0.8217   14.0049    8.7499 O   0  0  0  0  0  0  0  0  0  0  0  0
    2.7464   12.6265   10.8867 C   0  0  1  0  0  0  0  0  0  0  0  0
    4.1001   12.7732   11.4318 C   0  0  2  0  0  0  0  0  0  0  0  0
    4.3487   11.6618   12.2317 O   0  0  0  0  0  0  0  0  0  0  0  0
    4.0168   14.1781   12.0661 C   0  0  2  0  0  0  0  0  0  0  0  0
    4.2647   14.0125   13.4805 O   0  0  0  0  0  0  0  0  0  0  0  0
    2.6281   14.6464   11.7795 C   0  0  2  0  0  0  0  0  0  0  0  0
    2.4610   13.9573   10.4891 O   0  0  0  0  0  0  0  0  0  0  0  0
    2.5664   16.2053   11.5781 C   0  0  0  0  0  0  0  0  0  0  0  0
    2.2613   16.9419   12.8001 O   0  0  0  0  0  0  0  0  0  0  0  0
    4.8449   15.1507   14.1869 C   0  0  2  0  0  0  0  0  0  0  0  0
    5.5761   14.6071   15.5226 C   0  0  2  0  0  0  0  0  0  0  0  0
    4.5765   13.8800   16.3704 N   0  0  0  0  0  0  0  0  0  0  0  0
    6.2152   15.8654   16.2921 C   0  0  1  0  0  0  0  0  0  0  0  0
    7.1606   16.4988   15.3775 O   0  0  0  0  0  0  0  0  0  0  0  0
    5.0548   16.8771   16.7099 C   0  0  2  0  0  0  0  0  0  0  0  0
    4.1500   16.1696   17.6432 O   0  0  0  0  0  0  0  0  0  0  0  0
    4.2945   17.3673   15.3521 C   0  0  1  0  0  0  0  0  0  0  0  0
    3.7642   16.1675   14.6078 O   0  0  0  0  0  0  0  0  0  0  0  0
    3.1357   18.3499   15.7267 C   0  0  0  0  0  0  0  0  0  0  0  0
    2.5511   18.0707   17.0749 N   0  0  0  0  0  0  0  0  0  0  0  0
  1  3  1  0  0  0  0
  1  2  1  1  0  0  0
  3  4  1  1  0  0  0
  3  5  1  0  0  0  0
  5  6  1  6  0  0  0
  7  8  1  1  0  0  0
  7  5  1  0  0  0  0
  9 11  1  6  0  0  0
  9  7  1  0  0  0  0
 10  9  1  0  0  0  0
 10  1  1  0  0  0  0
 12 11  1  0  0  0  0
 13 14  1  1  0  0  0
 15 13  1  0  0  0  0
 16 17  1  1  0  0  0
 16 15  1  0  0  0  0
 18  2  1  6  0  0  0
 18 19  1  0  0  0  0
 18 16  1  0  0  0  0
 19 20  1  1  0  0  0
 19 21  1  0  0  0  0
 21 22  1  6  0  0  0
 21 13  1  0  0  0  0
 23 20  1  6  0  0  0
 23 29  1  0  0  0  0
 24 25  1  1  0  0  0
 24 26  1  0  0  0  0
 24 23  1  0  0  0  0
 26 27  1  1  0  0  0
 26 28  1  0  0  0  0
 28 30  1  6  0  0  0
 29 28  1  0  0  0  0
 30 31  1  0  0  0  0
 32 27  1  1  0  0  0
 32 40  1  0  0  0  0
 33 35  1  0  0  0  0
 33 32  1  0  0  0  0
 33 34  1  1  0  0  0
 35 36  1  6  0  0  0
 35 37  1  0  0  0  0
 37 38  1  1  0  0  0
 37 39  1  0  0  0  0
 39 41  1  1  0  0  0
 40 39  1  0  0  0  0
 41 42  1  0  0  0  0
M  END
>  <CHROM.1>
-73.44605234,-62.39601304,89.45870452,-92.74934141,178.40434357,152.35121636
-92.88741395,-157.41434780,-29.78350360,2.30133889,12.08047731,11.56889414
-1.99970543,-0.72076735,0.32851182

>  <Name>
lig.pdb

>  <RI>
0

>  <Rbt.Current_Directory>
/home/itssahil/PROJECTS/Mol_Feturizer/New_Systems/rnas/4wcr

>  <Rbt.Executable>
rbdock ($Id: //depot/dev/client3/rdock/2013.1/src/exe/rbdock.cxx#4 $)

>  <Rbt.Library>
libRbt.so (2013.1, Build901 2013/11/27)

>  <Rbt.Parameter_File>
/export/apps/rDock/src/rDock_2013.1_src/data/scripts/dock_solv.prm

>  <Rbt.Receptor>
prm/blind_docking_40.prm

>  <SCORE>
9.31451

>  <SCORE.INTER>
-9.11386

>  <SCORE.INTER.CONST>
1

>  <SCORE.INTER.POLAR>
0

>  <SCORE.INTER.ROT>
9

>  <SCORE.INTER.SOLV>
29.2517

>  <SCORE.INTER.VDW>
-25.4265

>  <SCORE.INTER.norm>
-0.216997

>  <SCORE.INTRA>
11.782

>  <SCORE.INTRA.DIHEDRAL>
3.3809

>  <SCORE.INTRA.DIHEDRAL.0>
16.2863

>  <SCORE.INTRA.POLAR>
0

>  <SCORE.INTRA.POLAR.0>
0

>  <SCORE.INTRA.REPUL>
-0.314433

>  <SCORE.INTRA.REPUL.0>
0.314433

>  <SCORE.INTRA.SOLV>
4.35769

>  <SCORE.INTRA.SOLV.lig_0>
-103.824

>  <SCORE.INTRA.VDW>
9.48488

>  <SCORE.INTRA.VDW.0>
-5.30945

>  <SCORE.INTRA.norm>
0.280524

>  <SCORE.RESTR>
6.64636

>  <SCORE.RESTR.CAVITY>
6.64636

>  <SCORE.RESTR.norm>
0.158247

>  <SCORE.SYSTEM>
0

>  <SCORE.SYSTEM.CONST>
0

>  <SCORE.SYSTEM.DIHEDRAL>
0

>  <SCORE.SYSTEM.SOLV>
0

>  <SCORE.SYSTEM.norm>
0

>  <SCORE.heavy>
42

>  <SCORE.norm>
0.221774

>  <RMSD>
27.344

$$$$
lig.pdb
 OpenBabel11021811513D
libRbt.so/2013.1/901 2013/11/27
 42 45  0  0  0  0  0  0  0  0999 V2000
   -0.0826   12.1362    9.9114 C   0  0  2  0  0  0  0  0  0  0  0  0
    0.4733   11.4226    8.7629 O   0  0  0  0  0  0  0  0  0  0  0  0
   -1.6646   11.9712    9.8121 C   0  0  2  0  0  0  0  0  0  0  0  0
   -2.0355   10.5564    9.9055 N   0  0  0  0  0  0  0  0  0  0  0  0
   -2.1692   12.6417    8.4426 C   0  0  1  0  0  0  0  0  0  0  0  0
   -3.6015   12.5309    8.3054 O   0  0  0  0  0  0  0  0  0  0  0  0
   -1.7141   14.1111    8.4614 C   0  0  2  0  0  0  0  0  0  0  0  0
   -2.1323   14.7232    7.2892 O   0  0  0  0  0  0  0  0  0  0  0  0
   -0.1263   14.1867    8.6085 C   0  0  2  0  0  0  0  0  0  0  0  0
    0.3148   13.5564    9.8175 O   0  0  0  0  0  0  0  0  0  0  0  0
    0.3690   15.6045    8.6511 C   0  0  0  0  0  0  0  0  0  0  0  0
    1.0417   15.7900    9.8972 O   0  0  0  0  0  0  0  0  0  0  0  0
    1.6910    7.5445   10.5658 C   0  0  2  0  0  0  0  0  0  0  0  0
    2.2697    6.2270   10.7153 N   0  0  0  0  0  0  0  0  0  0  0  0
    0.6997    7.5673    9.3387 C   0  0  0  0  0  0  0  0  0  0  0  0
    0.0611    8.9885    9.1522 C   0  0  2  0  0  0  0  0  0  0  0  0
   -0.8427    8.9687    8.0039 N   0  0  0  0  0  0  0  0  0  0  0  0
    1.1564   10.1224    8.9219 C   0  0  2  0  0  0  0  0  0  0  0  0
    2.1033   10.1127   10.1567 C   0  0  2  0  0  0  0  0  0  0  0  0
    3.0967   11.2131    9.8654 O   0  0  0  0  0  0  0  0  0  0  0  0
    2.8135    8.6562   10.3045 C   0  0  1  0  0  0  0  0  0  0  0  0
    3.6885    8.5112   11.4688 O   0  0  0  0  0  0  0  0  0  0  0  0
    3.2206   12.0685   10.9285 C   0  0  1  0  0  0  0  0  0  0  0  0
    4.3769   12.9637   10.8153 C   0  0  2  0  0  0  0  0  0  0  0  0
    5.5179   12.1994   11.0403 O   0  0  0  0  0  0  0  0  0  0  0  0
    3.9881   14.0815   11.8065 C   0  0  2  0  0  0  0  0  0  0  0  0
    5.0076   14.1034   12.8311 O   0  0  0  0  0  0  0  0  0  0  0  0
    2.6525   13.6761   12.3370 C   0  0  2  0  0  0  0  0  0  0  0  0
    2.1675   12.9977   11.1236 O   0  0  0  0  0  0  0  0  0  0  0  0
    1.7499   14.9224   12.6634 C   0  0  0  0  0  0  0  0  0  0  0  0
    2.4652   16.1932   12.6107 O   0  0  0  0  0  0  0  0  0  0  0  0
    5.2971   12.8395   13.5017 C   0  0  2  0  0  0  0  0  0  0  0  0
    6.6026   13.0405   14.4341 C   0  0  2  0  0  0  0  0  0  0  0  0
    7.7511   13.4920   13.5833 N   0  0  0  0  0  0  0  0  0  0  0  0
    6.9121   11.6460   15.1714 C   0  0  1  0  0  0  0  0  0  0  0  0
    5.7326   11.3007   15.9594 O   0  0  0  0  0  0  0  0  0  0  0  0
    7.2212   10.5255   14.0790 C   0  0  2  0  0  0  0  0  0  0  0  0
    8.4318   10.9386   13.3348 O   0  0  0  0  0  0  0  0  0  0  0  0
    5.9130   10.3808   13.1149 C   0  0  1  0  0  0  0  0  0  0  0  0
    5.5959   11.7156   12.4884 O   0  0  0  0  0  0  0  0  0  0  0  0
    6.1882    9.2995   12.0178 C   0  0  0  0  0  0  0  0  0  0  0  0
    7.0509    9.8070   10.9063 N   0  0  0  0  0  0  0  0  0  0  0  0
  1  3  1  0  0  0  0
  1  2  1  6  0  0  0
  3  4  1  6  0  0  0
  3  5  1  0  0  0  0
  5  6  1  1  0  0  0
  7  8  1  6  0  0  0
  7  5  1  0  0  0  0
  9 11  1  1  0  0  0
  9  7  1  0  0  0  0
 10  9  1  0  0  0  0
 10  1  1  0  0  0  0
 12 11  1  0  0  0  0
 13 14  1  6  0  0  0
 15 13  1  0  0  0  0
 16 17  1  6  0  0  0
 16 15  1  0  0  0  0
 18  2  1  1  0  0  0
 18 19  1  0  0  0  0
 18 16  1  0  0  0  0
 19 20  1  6  0  0  0
 19 21  1  0  0  0  0
 21 22  1  1  0  0  0
 21 13  1  0  0  0  0
 23 20  1  6  0  0  0
 23 29  1  0  0  0  0
 24 25  1  1  0  0  0
 24 26  1  0  0  0  0
 24 23  1  0  0  0  0
 26 27  1  1  0  0  0
 26 28  1  0  0  0  0
 28 30  1  6  0  0  0
 29 28  1  0  0  0  0
 30 31  1  0  0  0  0
 32 27  1  6  0  0  0
 32 40  1  0  0  0  0
 33 35  1  0  0  0  0
 33 32  1  0  0  0  0
 33 34  1  6  0  0  0
 35 36  1  6  0  0  0
 35 37  1  0  0  0  0
 37 38  1  6  0  0  0
 37 39  1  0  0  0  0
 39 41  1  6  0  0  0
 40 39  1  0  0  0  0
 41 42  1  0  0  0  0
M  END
>  <CHROM.1>
-106.27154216,119.97643832,75.92101962,129.81036506,167.05997707,-53.12889564
-10.17824062,171.53868086,-77.81675510,2.60775028,11.83792904,10.97911705
-3.12698692,0.55466842,-2.99333428

>  <Name>
lig.pdb

>  <RI>
0

>  <Rbt.Current_Directory>
/home/itssahil/PROJECTS/Mol_Feturizer/New_Systems/rnas/4wcr

>  <Rbt.Executable>
rbdock ($Id: //depot/dev/client3/rdock/2013.1/src/exe/rbdock.cxx#4 $)

>  <Rbt.Library>
libRbt.so (2013.1, Build901 2013/11/27)

>  <Rbt.Parameter_File>
/export/apps/rDock/src/rDock_2013.1_src/data/scripts/dock_solv.prm

>  <Rbt.Receptor>
prm/blind_docking_20.prm

>  <SCORE>
69.5614

>  <SCORE.INTER>
-0.311091

>  <SCORE.INTER.CONST>
1

>  <SCORE.INTER.POLAR>
0

>  <SCORE.INTER.ROT>
9

>  <SCORE.INTER.SOLV>
21.2111

>  <SCORE.INTER.VDW>
-16.8778

>  <SCORE.INTER.norm>
-0.00740693

>  <SCORE.INTRA>
35.7034

>  <SCORE.INTRA.DIHEDRAL>
10.311

>  <SCORE.INTRA.DIHEDRAL.0>
16.2863

>  <SCORE.INTRA.POLAR>
0

>  <SCORE.INTRA.POLAR.0>
0

>  <SCORE.INTRA.REPUL>
0.130022

>  <SCORE.INTRA.REPUL.0>
0.314433

>  <SCORE.INTRA.SOLV>
6.90277

>  <SCORE.INTRA.SOLV.lig_0>
-103.824

>  <SCORE.INTRA.VDW>
26.4464

>  <SCORE.INTRA.VDW.0>
-5.30945

>  <SCORE.INTRA.norm>
0.850081

>  <SCORE.RESTR>
34.1691

>  <SCORE.RESTR.CAVITY>
34.1691

>  <SCORE.RESTR.norm>
0.813551

>  <SCORE.SYSTEM>
0

>  <SCORE.SYSTEM.CONST>
0

>  <SCORE.SYSTEM.DIHEDRAL>
0

>  <SCORE.SYSTEM.SOLV>
0

>  <SCORE.SYSTEM.norm>
0

>  <SCORE.heavy>
42

>  <SCORE.norm>
1.65622

>  <RMSD>
27.350

$$$$
lig.pdb
 OpenBabel11021811513D
libRbt.so/2013.1/901 2013/11/27
 42 45  0  0  0  0  0  0  0  0999 V2000
   -0.3281   11.7741    9.6773 C   0  0  2  0  0  0  0  0  0  0  0  0
    0.1564   10.7455    8.7583 O   0  0  0  0  0  0  0  0  0  0  0  0
   -1.8493   11.4122    9.9852 C   0  0  2  0  0  0  0  0  0  0  0  0
   -1.9384   10.1057   10.6432 N   0  0  0  0  0  0  0  0  0  0  0  0
   -2.6797   11.4575    8.6111 C   0  0  1  0  0  0  0  0  0  0  0  0
   -4.0715   11.1475    8.8332 O   0  0  0  0  0  0  0  0  0  0  0  0
   -2.5008   12.8657    8.0182 C   0  0  2  0  0  0  0  0  0  0  0  0
   -3.2051   12.9411    6.8258 O   0  0  0  0  0  0  0  0  0  0  0  0
   -0.9502   13.1640    7.7837 C   0  0  2  0  0  0  0  0  0  0  0  0
   -0.2144   13.0883    9.0111 O   0  0  0  0  0  0  0  0  0  0  0  0
   -0.7191   14.5382    7.2220 C   0  0  0  0  0  0  0  0  0  0  0  0
    0.6537   14.8680    7.4374 O   0  0  0  0  0  0  0  0  0  0  0  0
    3.2257    8.2504   10.7897 C   0  0  2  0  0  0  0  0  0  0  0  0
    4.4240    7.4728   11.0188 N   0  0  0  0  0  0  0  0  0  0  0  0
    2.4298    7.6729    9.5561 C   0  0  0  0  0  0  0  0  0  0  0  0
    1.1262    8.5028    9.2837 C   0  0  2  0  0  0  0  0  0  0  0  0
    0.4238    7.9409    8.1318 N   0  0  0  0  0  0  0  0  0  0  0  0
    1.4321   10.0398    8.9966 C   0  0  2  0  0  0  0  0  0  0  0  0
    2.1835   10.6044   10.2369 C   0  0  2  0  0  0  0  0  0  0  0  0
    2.4248   12.0550    9.8902 O   0  0  0  0  0  0  0  0  0  0  0  0
    3.5678    9.7825   10.4733 C   0  0  1  0  0  0  0  0  0  0  0  0
    4.3354   10.1916   11.6503 O   0  0  0  0  0  0  0  0  0  0  0  0
    2.7257   12.7918   11.0055 C   0  0  1  0  0  0  0  0  0  0  0  0
    3.8995   13.6528   10.8270 C   0  0  2  0  0  0  0  0  0  0  0  0
    5.0218   12.8300   10.8227 O   0  0  0  0  0  0  0  0  0  0  0  0
    3.6962   14.6758   11.9651 C   0  0  2  0  0  0  0  0  0  0  0  0
    4.8391   14.5566   12.8421 O   0  0  0  0  0  0  0  0  0  0  0  0
    2.4220   14.2651   12.6266 C   0  0  2  0  0  0  0  0  0  0  0  0
    1.7526   13.7323   11.4284 O   0  0  0  0  0  0  0  0  0  0  0  0
    1.6302   15.5021   13.1899 C   0  0  0  0  0  0  0  0  0  0  0  0
    0.5498   15.9518   12.3184 O   0  0  0  0  0  0  0  0  0  0  0  0
    5.0058   13.2856   13.5405 C   0  0  2  0  0  0  0  0  0  0  0  0
    5.6852   13.5756   14.9787 C   0  0  2  0  0  0  0  0  0  0  0  0
    6.9970   14.2709   14.7728 N   0  0  0  0  0  0  0  0  0  0  0  0
    5.8617   12.1722   15.7424 C   0  0  1  0  0  0  0  0  0  0  0  0
    4.5329   11.5834   15.8807 O   0  0  0  0  0  0  0  0  0  0  0  0
    6.8244   11.2242   14.8945 C   0  0  2  0  0  0  0  0  0  0  0  0
    8.1486   11.8798   14.8110 O   0  0  0  0  0  0  0  0  0  0  0  0
    6.1473   10.9924   13.4283 C   0  0  1  0  0  0  0  0  0  0  0  0
    5.9240   12.3248   12.7577 O   0  0  0  0  0  0  0  0  0  0  0  0
    7.0758   10.0787   12.5613 C   0  0  0  0  0  0  0  0  0  0  0  0
    8.3263   10.7721   12.1225 N   0  0  0  0  0  0  0  0  0  0  0  0
  1  3  1  0  0  0  0
  1  2  1  6  0  0  0
  3  4  1  6  0  0  0
  3  5  1  0  0  0  0
  5  6  1  1  0  0  0
  7  8  1  6  0  0  0
  7  5  1  0  0  0  0
  9 11  1  1  0  0  0
  9  7  1  0  0  0  0
 10  9  1  0  0  0  0
 10  1  1  0  0  0  0
 12 11  1  0  0  0  0
 13 14  1  6  0  0  0
 15 13  1  0  0  0  0
 16 17  1  6  0  0  0
 16 15  1  0  0  0  0
 18  2  1  1  0  0  0
 18 19  1  0  0  0  0
 18 16  1  0  0  0  0
 19 20  1  6  0  0  0
 19 21  1  0  0  0  0
 21 22  1  1  0  0  0
 21 13  1  0  0  0  0
 23 20  1  6  0  0  0
 23 29  1  0  0  0  0
 24 25  1  1  0  0  0
 24 26  1  0  0  0  0
 24 23  1  0  0  0  0
 26 27  1  1  0  0  0
 26 28  1  0  0  0  0
 28 30  1  6  0  0  0
 29 28  1  0  0  0  0
 30 31  1  0  0  0  0
 32 27  1  6  0  0  0
 32 40  1  0  0  0  0
 33 35  1  0  0  0  0
 33 32  1  0  0  0  0
 33 34  1  6  0  0  0
 35 36  1  6  0  0  0
 35 37  1  0  0  0  0
 37 38  1  6  0  0  0
 37 39  1  0  0  0  0
 39 41  1  6  0  0  0
 40 39  1  0  0  0  0
 41 42  1  0  0  0  0
M  END
>  <CHROM.1>
-131.17688967,162.18658563,114.36012606,162.48600212,132.29161593,-64.34324526
99.01434295,-147.53156566,-71.26354530,2.48930344,11.96235544,11.06964878
2.94529642,0.58136882,-2.83038169

>  <Name>
lig.pdb

>  <RI>
0

>  <Rbt.Current_Directory>
/home/itssahil/PROJECTS/Mol_Feturizer/New_Systems/rnas/4wcr

>  <Rbt.Executable>
rbdock ($Id: //depot/dev/client3/rdock/2013.1/src/exe/rbdock.cxx#4 $)

>  <Rbt.Library>
libRbt.so (2013.1, Build901 2013/11/27)

>  <Rbt.Parameter_File>
/export/apps/rDock/src/rDock_2013.1_src/data/scripts/dock_solv.prm

>  <Rbt.Receptor>
prm/blind_docking_20.prm

>  <SCORE>
40.3124

>  <SCORE.INTER>
-10.9041

>  <SCORE.INTER.CONST>
1

>  <SCORE.INTER.POLAR>
0

>  <SCORE.INTER.ROT>
9

>  <SCORE.INTER.SOLV>
25.4902

>  <SCORE.INTER.VDW>
-25.3662

>  <SCORE.INTER.norm>
-0.259623

>  <SCORE.INTRA>
14.6413

>  <SCORE.INTRA.DIHEDRAL>
14.5801

>  <SCORE.INTRA.DIHEDRAL.0>
16.2863

>  <SCORE.INTRA.POLAR>
0

>  <SCORE.INTRA.POLAR.0>
0

>  <SCORE.INTRA.REPUL>
0.197823

>  <SCORE.INTRA.REPUL.0>
0.314433

>  <SCORE.INTRA.SOLV>
-0.206177

>  <SCORE.INTRA.SOLV.lig_0>
-103.824

>  <SCORE.INTRA.VDW>
6.46523

>  <SCORE.INTRA.VDW.0>
-5.30945

>  <SCORE.INTRA.norm>
0.348603

>  <SCORE.RESTR>
36.5753

>  <SCORE.RESTR.CAVITY>
36.5753

>  <SCORE.RESTR.norm>
0.87084

>  <SCORE.SYSTEM>
0

>  <SCORE.SYSTEM.CONST>
0

>  <SCORE.SYSTEM.DIHEDRAL>
0

>  <SCORE.SYSTEM.SOLV>
0

>  <SCORE.SYSTEM.norm>
0

>  <SCORE.heavy>
42

>  <SCORE.norm>
0.95982

>  <RMSD>
27.359

$$$$
lig.pdb
 OpenBabel11021811513D
libRbt.so/2013.1/901 2013/11/27
 42 45  0  0  0  0  0  0  0  0999 V2000
    1.8143    9.2338    9.1433 C   0  0  2  0  0  0  0  0  0  0  0  0
    0.8245    9.5810   10.1616 O   0  0  0  0  0  0  0  0  0  0  0  0
    1.5277    7.7174    8.7457 C   0  0  2  0  0  0  0  0  0  0  0  0
    0.1863    7.5871    8.1698 N   0  0  0  0  0  0  0  0  0  0  0  0
    1.7213    6.7963   10.0472 C   0  0  1  0  0  0  0  0  0  0  0  0
    1.4843    5.4061    9.7412 O   0  0  0  0  0  0  0  0  0  0  0  0
    3.1537    7.0274   10.5583 C   0  0  2  0  0  0  0  0  0  0  0  0
    3.3567    6.2467   11.6866 O   0  0  0  0  0  0  0  0  0  0  0  0
    3.3702    8.5740   10.8893 C   0  0  2  0  0  0  0  0  0  0  0  0
    3.1624    9.3884    9.7286 O   0  0  0  0  0  0  0  0  0  0  0  0
    4.7632    8.8569   11.3757 C   0  0  0  0  0  0  0  0  0  0  0  0
    5.1156   10.1698   10.9378 O   0  0  0  0  0  0  0  0  0  0  0  0
   -1.6356   12.9395    8.5993 C   0  0  2  0  0  0  0  0  0  0  0  0
   -2.4286   14.1486    8.5535 N   0  0  0  0  0  0  0  0  0  0  0  0
   -2.2562   11.9207    9.6317 C   0  0  0  0  0  0  0  0  0  0  0  0
   -1.4108   10.6006    9.7034 C   0  0  2  0  0  0  0  0  0  0  0  0
   -2.0138    9.6891   10.6737 N   0  0  0  0  0  0  0  0  0  0  0  0
    0.1020   10.8690   10.1249 C   0  0  2  0  0  0  0  0  0  0  0  0
    0.7111   11.8452    9.0772 C   0  0  2  0  0  0  0  0  0  0  0  0
    2.1361   12.0377    9.5406 O   0  0  0  0  0  0  0  0  0  0  0  0
   -0.1301   13.2378    9.0561 C   0  0  1  0  0  0  0  0  0  0  0  0
    0.3200   14.2161    8.0648 O   0  0  0  0  0  0  0  0  0  0  0  0
    2.2051   12.9106   10.5944 C   0  0  1  0  0  0  0  0  0  0  0  0
    3.4655   12.8163   11.3384 C   0  0  2  0  0  0  0  0  0  0  0  0
    3.4318   11.6295   12.0644 O   0  0  0  0  0  0  0  0  0  0  0  0
    3.4800   14.1726   12.0757 C   0  0  2  0  0  0  0  0  0  0  0  0
    3.4814   13.8779   13.4909 O   0  0  0  0  0  0  0  0  0  0  0  0
    2.2303   14.8615   11.6359 C   0  0  2  0  0  0  0  0  0  0  0  0
    2.1709   14.2926   10.2792 O   0  0  0  0  0  0  0  0  0  0  0  0
    2.4162   16.4219   11.5660 C   0  0  0  0  0  0  0  0  0  0  0  0
    3.4245   16.8488   10.6015 O   0  0  0  0  0  0  0  0  0  0  0  0
    4.7312   13.3843   14.0613 C   0  0  2  0  0  0  0  0  0  0  0  0
    5.7809   14.6116   14.1369 C   0  0  2  0  0  0  0  0  0  0  0  0
    5.9831   15.1726   12.7617 N   0  0  0  0  0  0  0  0  0  0  0  0
    7.1523   14.0607   14.7692 C   0  0  1  0  0  0  0  0  0  0  0  0
    6.8385   13.5349   16.0946 O   0  0  0  0  0  0  0  0  0  0  0  0
    7.7513   12.9219   13.8266 C   0  0  2  0  0  0  0  0  0  0  0  0
    8.0553   13.5328   12.5134 O   0  0  0  0  0  0  0  0  0  0  0  0
    6.6522   11.7209   13.7188 C   0  0  1  0  0  0  0  0  0  0  0  0
    5.3510   12.2717   13.1911 O   0  0  0  0  0  0  0  0  0  0  0  0
    7.2008   10.5915   12.7850 C   0  0  0  0  0  0  0  0  0  0  0  0
    7.9740    9.5487   13.5282 N   0  0  0  0  0  0  0  0  0  0  0  0
  1  3  1  0  0  0  0
  1  2  1  1  0  0  0
  3  4  1  1  0  0  0
  3  5  1  0  0  0  0
  5  6  1  6  0  0  0
  7  8  1  1  0  0  0
  7  5  1  0  0  0  0
  9 11  1  6  0  0  0
  9  7  1  0  0  0  0
 10  9  1  0  0  0  0
 10  1  1  0  0  0  0
 12 11  1  0  0  0  0
 13 14  1  1  0  0  0
 15 13  1  0  0  0  0
 16 17  1  1  0  0  0
 16 15  1  0  0  0  0
 18  2  1  6  0  0  0
 18 19  1  0  0  0  0
 18 16  1  0  0  0  0
 19 20  1  1  0  0  0
 19 21  1  0  0  0  0
 21 22  1  6  0  0  0
 21 13  1  0  0  0  0
 23 20  1  6  0  0  0
 23 29  1  0  0  0  0
 24 25  1  1  0  0  0
 24 26  1  0  0  0  0
 24 23  1  0  0  0  0
 26 27  1  1  0  0  0
 26 28  1  0  0  0  0
 28 30  1  6  0  0  0
 29 28  1  0  0  0  0
 30 31  1  0  0  0  0
 32 27  1  6  0  0  0
 32 40  1  0  0  0  0
 33 35  1  0  0  0  0
 33 32  1  0  0  0  0
 33 34  1  6  0  0  0
 35 36  1  1  0  0  0
 35 37  1  0  0  0  0
 37 38  1  6  0  0  0
 37 39  1  0  0  0  0
 39 41  1  6  0  0  0
 40 39  1  0  0  0  0
 41 42  1  0  0  0  0
M  END
>  <CHROM.1>
-136.08116877,147.72328912,108.01838424,-78.05339563,162.08059368,74.17204965
62.10178152,72.67122126,90.14933236,2.97595415,11.60403033,11.17839351,-2.62582895
-0.53882924,0.13074499

>  <Name>
lig.pdb

>  <RI>
0

>  <Rbt.Current_Directory>
/home/itssahil/PROJECTS/Mol_Feturizer/New_Systems/rnas/4wcr

>  <Rbt.Executable>
rbdock ($Id: //depot/dev/client3/rdock/2013.1/src/exe/rbdock.cxx#4 $)

>  <Rbt.Library>
libRbt.so (2013.1, Build901 2013/11/27)

>  <Rbt.Parameter_File>
/export/apps/rDock/src/rDock_2013.1_src/data/scripts/dock_solv.prm

>  <Rbt.Receptor>
prm/blind_docking_20.prm

>  <SCORE>
37.947

>  <SCORE.INTER>
-6.16214

>  <SCORE.INTER.CONST>
1

>  <SCORE.INTER.POLAR>
0

>  <SCORE.INTER.ROT>
9

>  <SCORE.INTER.SOLV>
24.2503

>  <SCORE.INTER.VDW>
-21.7915

>  <SCORE.INTER.norm>
-0.146718

>  <SCORE.INTRA>
8.44467

>  <SCORE.INTRA.DIHEDRAL>
6.98082

>  <SCORE.INTRA.DIHEDRAL.0>
16.2863

>  <SCORE.INTRA.POLAR>
0

>  <SCORE.INTRA.POLAR.0>
0

>  <SCORE.INTRA.REPUL>
-0.314433

>  <SCORE.INTRA.REPUL.0>
0.314433

>  <SCORE.INTRA.SOLV>
1.39663

>  <SCORE.INTRA.SOLV.lig_0>
-103.824

>  <SCORE.INTRA.VDW>
5.8281

>  <SCORE.INTRA.VDW.0>
-5.30945

>  <SCORE.INTRA.norm>
0.201063

>  <SCORE.RESTR>
35.6644

>  <SCORE.RESTR.CAVITY>
35.6644

>  <SCORE.RESTR.norm>
0.849153

>  <SCORE.SYSTEM>
0

>  <SCORE.SYSTEM.CONST>
0

>  <SCORE.SYSTEM.DIHEDRAL>
0

>  <SCORE.SYSTEM.SOLV>
0

>  <SCORE.SYSTEM.norm>
0

>  <SCORE.heavy>
42

>  <SCORE.norm>
0.903499

>  <RMSD>
27.374

$$$$
lig.pdb
 OpenBabel11021811513D
libRbt.so/2013.1/901 2013/11/27
 42 45  0  0  0  0  0  0  0  0999 V2000
    1.2821   14.8623   12.1129 C   0  0  2  0  0  0  0  0  0  0  0  0
    2.4051   14.2550   11.4007 O   0  0  0  0  0  0  0  0  0  0  0  0
    0.5650   15.8284   11.0678 C   0  0  2  0  0  0  0  0  0  0  0  0
    0.0485   15.0575    9.9335 N   0  0  0  0  0  0  0  0  0  0  0  0
    1.6094   16.9587   10.6080 C   0  0  1  0  0  0  0  0  0  0  0  0
    1.0076   17.8717    9.6663 O   0  0  0  0  0  0  0  0  0  0  0  0
    2.0811   17.6857   11.8790 C   0  0  2  0  0  0  0  0  0  0  0  0
    2.9887   18.6709   11.5194 O   0  0  0  0  0  0  0  0  0  0  0  0
    2.7441   16.6415   12.8883 C   0  0  2  0  0  0  0  0  0  0  0  0
    1.8130   15.6195   13.2655 O   0  0  0  0  0  0  0  0  0  0  0  0
    3.2057   17.2996   14.1576 C   0  0  0  0  0  0  0  0  0  0  0  0
    3.9066   16.3184   14.9229 O   0  0  0  0  0  0  0  0  0  0  0  0
    5.4006   10.9872   11.7486 C   0  0  2  0  0  0  0  0  0  0  0  0
    6.2159    9.9329   12.3113 N   0  0  0  0  0  0  0  0  0  0  0  0
    5.5851   12.3179   12.5757 C   0  0  0  0  0  0  0  0  0  0  0  0
    4.7067   13.4775   11.9874 C   0  0  2  0  0  0  0  0  0  0  0  0
    4.9007   14.6869   12.7844 N   0  0  0  0  0  0  0  0  0  0  0  0
    3.1547   13.1178   11.9727 C   0  0  2  0  0  0  0  0  0  0  0  0
    2.9843   11.8254   11.1228 C   0  0  2  0  0  0  0  0  0  0  0  0
    1.4969   11.5615   11.1512 O   0  0  0  0  0  0  0  0  0  0  0  0
    3.8448   10.6092   11.7769 C   0  0  1  0  0  0  0  0  0  0  0  0
    3.8044    9.3521   11.0284 O   0  0  0  0  0  0  0  0  0  0  0  0
    0.9983   11.3764    9.8885 C   0  0  1  0  0  0  0  0  0  0  0  0
    0.7670    9.9653    9.5621 C   0  0  2  0  0  0  0  0  0  0  0  0
    2.0121    9.3729    9.3737 O   0  0  0  0  0  0  0  0  0  0  0  0
   -0.2165   10.0891    8.3787 C   0  0  2  0  0  0  0  0  0  0  0  0
    0.4271    9.4808    7.2362 O   0  0  0  0  0  0  0  0  0  0  0  0
   -0.4235   11.5576    8.2042 C   0  0  2  0  0  0  0  0  0  0  0  0
   -0.2762   11.9366    9.6193 O   0  0  0  0  0  0  0  0  0  0  0  0
   -1.8762   11.8876    7.6990 C   0  0  0  0  0  0  0  0  0  0  0  0
   -2.0926   13.3041    7.4235 O   0  0  0  0  0  0  0  0  0  0  0  0
    0.4272    8.0222    7.1775 C   0  0  2  0  0  0  0  0  0  0  0  0
   -1.0996    7.5150    7.0168 C   0  0  2  0  0  0  0  0  0  0  0  0
   -1.9115    8.0230    8.1698 N   0  0  0  0  0  0  0  0  0  0  0  0
   -1.0903    5.9090    6.9492 C   0  0  1  0  0  0  0  0  0  0  0  0
   -0.2702    5.5277    5.8030 O   0  0  0  0  0  0  0  0  0  0  0  0
   -0.4884    5.3243    8.3058 C   0  0  2  0  0  0  0  0  0  0  0  0
   -1.3780    5.7396    9.4132 O   0  0  0  0  0  0  0  0  0  0  0  0
    1.0306    5.8950    8.4756 C   0  0  1  0  0  0  0  0  0  0  0  0
    1.0087    7.4031    8.4650 O   0  0  0  0  0  0  0  0  0  0  0  0
    1.6471    5.3542    9.8083 C   0  0  0  0  0  0  0  0  0  0  0  0
    3.0761    5.7561    9.9917 N   0  0  0  0  0  0  0  0  0  0  0  0
  1  3  1  0  0  0  0
  1  2  1  6  0  0  0
  3  4  1  6  0  0  0
  3  5  1  0  0  0  0
  5  6  1  6  0  0  0
  7  8  1  6  0  0  0
  7  5  1  0  0  0  0
  9 11  1  1  0  0  0
  9  7  1  0  0  0  0
 10  9  1  0  0  0  0
 10  1  1  0  0  0  0
 12 11  1  0  0  0  0
 13 14  1  1  0  0  0
 15 13  1  0  0  0  0
 16 17  1  1  0  0  0
 16 15  1  0  0  0  0
 18  2  1  6  0  0  0
 18 19  1  0  0  0  0
 18 16  1  0  0  0  0
 19 20  1  1  0  0  0
 19 21  1  0  0  0  0
 21 22  1  6  0  0  0
 21 13  1  0  0  0  0
 23 20  1  1  0  0  0
 23 29  1  0  0  0  0
 24 25  1  6  0  0  0
 24 26  1  0  0  0  0
 24 23  1  0  0  0  0
 26 27  1  6  0  0  0
 26 28  1  0  0  0  0
 28 30  1  1  0  0  0
 29 28  1  0  0  0  0
 30 31  1  0  0  0  0
 32 27  1  1  0  0  0
 32 40  1  0  0  0  0
 33 35  1  0  0  0  0
 33 32  1  0  0  0  0
 33 34  1  1  0  0  0
 35 36  1  6  0  0  0
 35 37  1  0  0  0  0
 37 38  1  1  0  0  0
 37 39  1  0  0  0  0
 39 41  1  1  0  0  0
 40 39  1  0  0  0  0
 41 42  1  0  0  0  0
M  END
>  <CHROM.1>
-168.71497233,-173.87241374,-126.57529397,128.87283534,101.85955794,77.84361648
-175.87170234,65.29611702,175.99726432,1.55746842,11.55177695,10.20653562
1.24199582,-0.63883096,0.22767361

>  <Name>
lig.pdb

>  <RI>
0

>  <Rbt.Current_Directory>
/home/itssahil/PROJECTS/Mol_Feturizer/New_Systems/rnas/4wcr

>  <Rbt.Executable>
rbdock ($Id: //depot/dev/client3/rdock/2013.1/src/exe/rbdock.cxx#4 $)

>  <Rbt.Library>
libRbt.so (2013.1, Build901 2013/11/27)

>  <Rbt.Parameter_File>
/export/apps/rDock/src/rDock_2013.1_src/data/scripts/dock_solv.prm

>  <Rbt.Receptor>
prm/blind_docking_80.prm

>  <SCORE>
3.05286

>  <SCORE.INTER>
-7.65082

>  <SCORE.INTER.CONST>
1

>  <SCORE.INTER.POLAR>
0

>  <SCORE.INTER.ROT>
9

>  <SCORE.INTER.SOLV>
28.0651

>  <SCORE.INTER.VDW>
-24.0556

>  <SCORE.INTER.norm>
-0.182162

>  <SCORE.INTRA>
5.79182

>  <SCORE.INTRA.DIHEDRAL>
6.10036

>  <SCORE.INTRA.DIHEDRAL.0>
16.2863

>  <SCORE.INTRA.POLAR>
0

>  <SCORE.INTRA.POLAR.0>
0

>  <SCORE.INTRA.REPUL>
-0.230008

>  <SCORE.INTRA.REPUL.0>
0.314433

>  <SCORE.INTRA.SOLV>
3.55961

>  <SCORE.INTRA.SOLV.lig_0>
-103.824

>  <SCORE.INTRA.VDW>
2.11188

>  <SCORE.INTRA.VDW.0>
-5.30945

>  <SCORE.INTRA.norm>
0.137901

>  <SCORE.RESTR>
4.91186

>  <SCORE.RESTR.CAVITY>
4.91186

>  <SCORE.RESTR.norm>
0.116949

>  <SCORE.SYSTEM>
0

>  <SCORE.SYSTEM.CONST>
0

>  <SCORE.SYSTEM.DIHEDRAL>
0

>  <SCORE.SYSTEM.SOLV>
0

>  <SCORE.SYSTEM.norm>
0

>  <SCORE.heavy>
42

>  <SCORE.norm>
0.0726872

>  <RMSD>
27.384

$$$$
lig.pdb
 OpenBabel11021811513D
libRbt.so/2013.1/901 2013/11/27
 42 45  0  0  0  0  0  0  0  0999 V2000
    4.5726   15.0555   12.6541 C   0  0  2  0  0  0  0  0  0  0  0  0
    3.9958   13.9219   13.3748 O   0  0  0  0  0  0  0  0  0  0  0  0
    4.5968   16.2703   13.6855 C   0  0  2  0  0  0  0  0  0  0  0  0
    5.4529   15.9487   14.8306 N   0  0  0  0  0  0  0  0  0  0  0  0
    3.0891   16.6017   14.1290 C   0  0  1  0  0  0  0  0  0  0  0  0
    3.0502   17.7056   15.0578 O   0  0  0  0  0  0  0  0  0  0  0  0
    2.2961   16.9114   12.8478 C   0  0  2  0  0  0  0  0  0  0  0  0
    0.9845   17.2013   13.1933 O   0  0  0  0  0  0  0  0  0  0  0  0
    2.3607   15.6642   11.8534 C   0  0  2  0  0  0  0  0  0  0  0  0
    3.7128   15.3575   11.4909 O   0  0  0  0  0  0  0  0  0  0  0  0
    1.6155   15.9234   10.5748 C   0  0  0  0  0  0  0  0  0  0  0  0
    2.2603   17.0114    9.9116 O   0  0  0  0  0  0  0  0  0  0  0  0
    6.0116   10.5066   11.3639 C   0  0  2  0  0  0  0  0  0  0  0  0
    6.5072    9.1732   11.1001 N   0  0  0  0  0  0  0  0  0  0  0  0
    6.5251   11.0099   12.7681 C   0  0  0  0  0  0  0  0  0  0  0  0
    5.9971   12.4542   13.0803 C   0  0  2  0  0  0  0  0  0  0  0  0
    6.4883   12.8791   14.3895 N   0  0  0  0  0  0  0  0  0  0  0  0
    4.4058   12.5336   13.0803 C   0  0  2  0  0  0  0  0  0  0  0  0
    3.9166   12.0703   11.6776 C   0  0  2  0  0  0  0  0  0  0  0  0
    2.4122   12.1840   11.7582 O   0  0  0  0  0  0  0  0  0  0  0  0
    4.4110   10.5473   11.3886 C   0  0  1  0  0  0  0  0  0  0  0  0
    4.0544   10.0222   10.0698 O   0  0  0  0  0  0  0  0  0  0  0  0
    1.8406   12.1409   10.5137 C   0  0  1  0  0  0  0  0  0  0  0  0
    0.9912   10.9626   10.3109 C   0  0  2  0  0  0  0  0  0  0  0  0
    1.8321    9.8612   10.1825 O   0  0  0  0  0  0  0  0  0  0  0  0
    0.1274   11.4184    9.1155 C   0  0  2  0  0  0  0  0  0  0  0  0
    0.3912   10.4957    8.0345 O   0  0  0  0  0  0  0  0  0  0  0  0
    0.5939   12.8040    8.8117 C   0  0  2  0  0  0  0  0  0  0  0  0
    0.9434   13.1897   10.1889 O   0  0  0  0  0  0  0  0  0  0  0  0
   -0.5737   13.7089    8.2709 C   0  0  0  0  0  0  0  0  0  0  0  0
   -1.5106   13.0004    7.4052 O   0  0  0  0  0  0  0  0  0  0  0  0
   -0.3470    9.2363    8.0464 C   0  0  2  0  0  0  0  0  0  0  0  0
    0.5379    8.1302    8.8260 C   0  0  2  0  0  0  0  0  0  0  0  0
    1.8640    7.9886    8.1420 N   0  0  0  0  0  0  0  0  0  0  0  0
   -0.2832    6.7483    8.8380 C   0  0  1  0  0  0  0  0  0  0  0  0
   -1.5510    7.0028    9.5159 O   0  0  0  0  0  0  0  0  0  0  0  0
   -0.5219    6.2601    7.3383 C   0  0  2  0  0  0  0  0  0  0  0  0
    0.8021    6.0109    6.7258 O   0  0  0  0  0  0  0  0  0  0  0  0
   -1.3660    7.4162    6.5554 C   0  0  1  0  0  0  0  0  0  0  0  0
   -0.6131    8.7216    6.6169 O   0  0  0  0  0  0  0  0  0  0  0  0
   -1.6037    6.9772    5.0724 C   0  0  0  0  0  0  0  0  0  0  0  0
   -2.4019    5.7171    4.9611 N   0  0  0  0  0  0  0  0  0  0  0  0
  1  3  1  0  0  0  0
  1  2  1  1  0  0  0
  3  4  1  1  0  0  0
  3  5  1  0  0  0  0
  5  6  1  1  0  0  0
  7  8  1  1  0  0  0
  7  5  1  0  0  0  0
  9 11  1  6  0  0  0
  9  7  1  0  0  0  0
 10  9  1  0  0  0  0
 10  1  1  0  0  0  0
 12 11  1  0  0  0  0
 13 14  1  1  0  0  0
 15 13  1  0  0  0  0
 16 17  1  1  0  0  0
 16 15  1  0  0  0  0
 18  2  1  6  0  0  0
 18 19  1  0  0  0  0
 18 16  1  0  0  0  0
 19 20  1  1  0  0  0
 19 21  1  0  0  0  0
 21 22  1  6  0  0  0
 21 13  1  0  0  0  0
 23 20  1  1  0  0  0
 23 29  1  0  0  0  0
 24 25  1  6  0  0  0
 24 26  1  0  0  0  0
 24 23  1  0  0  0  0
 26 27  1  6  0  0  0
 26 28  1  0  0  0  0
 28 30  1  1  0  0  0
 29 28  1  0  0  0  0
 30 31  1  0  0  0  0
 32 27  1  6  0  0  0
 32 40  1  0  0  0  0
 33 35  1  0  0  0  0
 33 32  1  0  0  0  0
 33 34  1  6  0  0  0
 35 36  1  6  0  0  0
 35 37  1  0  0  0  0
 37 38  1  6  0  0  0
 37 39  1  0  0  0  0
 39 41  1  6  0  0  0
 40 39  1  0  0  0  0
 41 42  1  0  0  0  0
M  END
>  <CHROM.1>
-148.12637133,62.98983892,49.51577596,164.57133385,115.28113298,82.69122533
-36.94182466,-92.19907220,61.45860594,2.05782985,11.80236158,10.40445849
-1.04995770,0.58905742,-2.79138587

>  <Name>
lig.pdb

>  <RI>
0

>  <Rbt.Current_Directory>
/home/itssahil/PROJECTS/Mol_Feturizer/New_Systems/rnas/4wcr

>  <Rbt.Executable>
rbdock ($Id: //depot/dev/client3/rdock/2013.1/src/exe/rbdock.cxx#4 $)

>  <Rbt.Library>
libRbt.so (2013.1, Build901 2013/11/27)

>  <Rbt.Parameter_File>
/export/apps/rDock/src/rDock_2013.1_src/data/scripts/dock_solv.prm

>  <Rbt.Receptor>
prm/blind_docking_80.prm

>  <SCORE>
1.42817

>  <SCORE.INTER>
-8.00256

>  <SCORE.INTER.CONST>
1

>  <SCORE.INTER.POLAR>
0

>  <SCORE.INTER.ROT>
9

>  <SCORE.INTER.SOLV>
29.7884

>  <SCORE.INTER.VDW>
-24.8645

>  <SCORE.INTER.norm>
-0.190537

>  <SCORE.INTRA>
5.80862

>  <SCORE.INTRA.DIHEDRAL>
4.50843

>  <SCORE.INTRA.DIHEDRAL.0>
16.2863

>  <SCORE.INTRA.POLAR>
0

>  <SCORE.INTRA.POLAR.0>
0

>  <SCORE.INTRA.REPUL>
-0.314433

>  <SCORE.INTRA.REPUL.0>
0.314433

>  <SCORE.INTRA.SOLV>
0.525912

>  <SCORE.INTRA.SOLV.lig_0>
-103.824

>  <SCORE.INTRA.VDW>
4.86362

>  <SCORE.INTRA.VDW.0>
-5.30945

>  <SCORE.INTRA.norm>
0.138301

>  <SCORE.RESTR>
3.6221

>  <SCORE.RESTR.CAVITY>
3.6221

>  <SCORE.RESTR.norm>
0.0862405

>  <SCORE.SYSTEM>
0

>  <SCORE.SYSTEM.CONST>
0

>  <SCORE.SYSTEM.DIHEDRAL>
0

>  <SCORE.SYSTEM.SOLV>
0

>  <SCORE.SYSTEM.norm>
0

>  <SCORE.heavy>
42

>  <SCORE.norm>
0.034004

>  <RMSD>
27.393

$$$$
lig.pdb
 OpenBabel11021811513D
libRbt.so/2013.1/901 2013/11/27
 42 45  0  0  0  0  0  0  0  0999 V2000
    4.5930   15.0628   12.6356 C   0  0  2  0  0  0  0  0  0  0  0  0
    3.8488   13.9359   13.1955 O   0  0  0  0  0  0  0  0  0  0  0  0
    4.6404   16.1736   13.7775 C   0  0  2  0  0  0  0  0  0  0  0  0
    5.3563   15.6664   14.9514 N   0  0  0  0  0  0  0  0  0  0  0  0
    3.1375   16.6183   14.1286 C   0  0  1  0  0  0  0  0  0  0  0  0
    3.1210   17.6347   15.1529 O   0  0  0  0  0  0  0  0  0  0  0  0
    2.4951   17.1191   12.8236 C   0  0  2  0  0  0  0  0  0  0  0  0
    1.1915   17.5111   13.0891 O   0  0  0  0  0  0  0  0  0  0  0  0
    2.5294   15.9639   11.7224 C   0  0  2  0  0  0  0  0  0  0  0  0
    3.8731   15.5524   11.4416 O   0  0  0  0  0  0  0  0  0  0  0  0
    1.9294   16.4094   10.4190 C   0  0  0  0  0  0  0  0  0  0  0  0
    0.5543   16.7126   10.6575 O   0  0  0  0  0  0  0  0  0  0  0  0
    5.8275   10.4735   11.2284 C   0  0  2  0  0  0  0  0  0  0  0  0
    6.3078    9.1315   10.9812 N   0  0  0  0  0  0  0  0  0  0  0  0
    6.3449   10.9876   12.6273 C   0  0  0  0  0  0  0  0  0  0  0  0
    5.8333   12.4416   12.9215 C   0  0  2  0  0  0  0  0  0  0  0  0
    6.3276   12.8762   14.2264 N   0  0  0  0  0  0  0  0  0  0  0  0
    4.2431   12.5395   12.9182 C   0  0  2  0  0  0  0  0  0  0  0  0
    3.7504   12.0652   11.5204 C   0  0  2  0  0  0  0  0  0  0  0  0
    2.2473   12.1974   11.5973 O   0  0  0  0  0  0  0  0  0  0  0  0
    4.2274   10.5332   11.2502 C   0  0  1  0  0  0  0  0  0  0  0  0
    3.8665    9.9966    9.9372 O   0  0  0  0  0  0  0  0  0  0  0  0
    1.6725   12.0912   10.3581 C   0  0  1  0  0  0  0  0  0  0  0  0
    0.8240   10.9032   10.2171 C   0  0  2  0  0  0  0  0  0  0  0  0
    1.6660    9.7977   10.1417 O   0  0  0  0  0  0  0  0  0  0  0  0
   -0.0436   11.2975    9.0026 C   0  0  2  0  0  0  0  0  0  0  0  0
    0.2185   10.3219    7.9686 O   0  0  0  0  0  0  0  0  0  0  0  0
    0.4202   12.6666    8.6284 C   0  0  2  0  0  0  0  0  0  0  0  0
    0.7730   13.1214    9.9836 O   0  0  0  0  0  0  0  0  0  0  0  0
   -0.7500   13.5418    8.0461 C   0  0  0  0  0  0  0  0  0  0  0  0
   -0.4372   14.9653    7.9756 O   0  0  0  0  0  0  0  0  0  0  0  0
   -0.5515    9.0828    8.0194 C   0  0  2  0  0  0  0  0  0  0  0  0
    0.2310    8.0307    8.9654 C   0  0  2  0  0  0  0  0  0  0  0  0
    1.6080    7.8053    8.4180 N   0  0  0  0  0  0  0  0  0  0  0  0
   -0.6250    6.6711    9.0190 C   0  0  1  0  0  0  0  0  0  0  0  0
   -1.9402    7.0074    9.5563 O   0  0  0  0  0  0  0  0  0  0  0  0
   -0.7436    6.0607    7.5501 C   0  0  2  0  0  0  0  0  0  0  0  0
    0.6220    5.7343    7.0825 O   0  0  0  0  0  0  0  0  0  0  0  0
   -1.4839    7.1615    6.6003 C   0  0  1  0  0  0  0  0  0  0  0  0
   -0.7044    8.4526    6.6199 O   0  0  0  0  0  0  0  0  0  0  0  0
   -1.6017    6.6016    5.1439 C   0  0  0  0  0  0  0  0  0  0  0  0
   -1.9628    7.6546    4.1448 N   0  0  0  0  0  0  0  0  0  0  0  0
  1  3  1  0  0  0  0
  1  2  1  1  0  0  0
  3  4  1  1  0  0  0
  3  5  1  0  0  0  0
  5  6  1  1  0  0  0
  7  8  1  1  0  0  0
  7  5  1  0  0  0  0
  9 11  1  6  0  0  0
  9  7  1  0  0  0  0
 10  9  1  0  0  0  0
 10  1  1  0  0  0  0
 12 11  1  0  0  0  0
 13 14  1  1  0  0  0
 15 13  1  0  0  0  0
 16 17  1  1  0  0  0
 16 15  1  0  0  0  0
 18  2  1  6  0  0  0
 18 19  1  0  0  0  0
 18 16  1  0  0  0  0
 19 20  1  1  0  0  0
 19 21  1  0  0  0  0
 21 22  1  6  0  0  0
 21 13  1  0  0  0  0
 23 20  1  1  0  0  0
 23 29  1  0  0  0  0
 24 25  1  6  0  0  0
 24 26  1  0  0  0  0
 24 23  1  0  0  0  0
 26 27  1  6  0  0  0
 26 28  1  0  0  0  0
 28 30  1  1  0  0  0
 29 28  1  0  0  0  0
 30 31  1  0  0  0  0
 32 27  1  6  0  0  0
 32 40  1  0  0  0  0
 33 35  1  0  0  0  0
 33 32  1  0  0  0  0
 33 34  1  6  0  0  0
 35 36  1  6  0  0  0
 35 37  1  0  0  0  0
 37 38  1  6  0  0  0
 37 39  1  0  0  0  0
 39 41  1  6  0  0  0
 40 39  1  0  0  0  0
 41 42  1  0  0  0  0
M  END
>  <CHROM.1>
-141.37319846,-62.85429976,38.87287890,167.05806986,114.60899990,84.74583493
165.70996858,-87.61165101,-166.21857856,1.95145619,11.85065559,10.38275084
-1.05466519,0.61416386,-2.81587187

>  <Name>
lig.pdb

>  <RI>
0

>  <Rbt.Current_Directory>
/home/itssahil/PROJECTS/Mol_Feturizer/New_Systems/rnas/4wcr

>  <Rbt.Executable>
rbdock ($Id: //depot/dev/client3/rdock/2013.1/src/exe/rbdock.cxx#4 $)

>  <Rbt.Library>
libRbt.so (2013.1, Build901 2013/11/27)

>  <Rbt.Parameter_File>
/export/apps/rDock/src/rDock_2013.1_src/data/scripts/dock_solv.prm

>  <Rbt.Receptor>
prm/blind_docking_80.prm

>  <SCORE>
2.05557

>  <SCORE.INTER>
-9.84682

>  <SCORE.INTER.CONST>
1

>  <SCORE.INTER.POLAR>
0

>  <SCORE.INTER.ROT>
9

>  <SCORE.INTER.SOLV>
28.3315

>  <SCORE.INTER.VDW>
-25.6084

>  <SCORE.INTER.norm>
-0.234448

>  <SCORE.INTRA>
7.4127

>  <SCORE.INTRA.DIHEDRAL>
6.23981

>  <SCORE.INTRA.DIHEDRAL.0>
16.2863

>  <SCORE.INTRA.POLAR>
0

>  <SCORE.INTRA.POLAR.0>
0

>  <SCORE.INTRA.REPUL>
-0.314433

>  <SCORE.INTRA.REPUL.0>
0.314433

>  <SCORE.INTRA.SOLV>
0.869056

>  <SCORE.INTRA.SOLV.lig_0>
-103.824

>  <SCORE.INTRA.VDW>
5.43043

>  <SCORE.INTRA.VDW.0>
-5.30945

>  <SCORE.INTRA.norm>
0.176493

>  <SCORE.RESTR>
4.48969

>  <SCORE.RESTR.CAVITY>
4.48969

>  <SCORE.RESTR.norm>
0.106897

>  <SCORE.SYSTEM>
0

>  <SCORE.SYSTEM.CONST>
0

>  <SCORE.SYSTEM.DIHEDRAL>
0

>  <SCORE.SYSTEM.SOLV>
0

>  <SCORE.SYSTEM.norm>
0

>  <SCORE.heavy>
42

>  <SCORE.norm>
0.048942

>  <RMSD>
27.394

$$$$
lig.pdb
 OpenBabel11021811513D
libRbt.so/2013.1/901 2013/11/27
 42 45  0  0  0  0  0  0  0  0999 V2000
    1.0206    9.3501    8.4433 C   0  0  2  0  0  0  0  0  0  0  0  0
   -0.0625    9.8331    9.2982 O   0  0  0  0  0  0  0  0  0  0  0  0
    1.0624    7.7682    8.6323 C   0  0  2  0  0  0  0  0  0  0  0  0
   -0.1988    7.1691    8.1871 N   0  0  0  0  0  0  0  0  0  0  0  0
    1.3799    7.4398   10.1721 C   0  0  1  0  0  0  0  0  0  0  0  0
    1.4408    6.0159   10.3991 O   0  0  0  0  0  0  0  0  0  0  0  0
    2.7128    8.1258   10.5175 C   0  0  2  0  0  0  0  0  0  0  0  0
    3.0188    7.8645   11.8448 O   0  0  0  0  0  0  0  0  0  0  0  0
    2.5992    9.6968   10.2578 C   0  0  2  0  0  0  0  0  0  0  0  0
    2.2831    9.9762    8.8883 O   0  0  0  0  0  0  0  0  0  0  0  0
    3.8842   10.4130   10.5627 C   0  0  0  0  0  0  0  0  0  0  0  0
    4.3335    9.9685   11.8434 O   0  0  0  0  0  0  0  0  0  0  0  0
   -0.4567   14.0319    7.8885 C   0  0  2  0  0  0  0  0  0  0  0  0
   -0.9764   15.3690    7.7010 N   0  0  0  0  0  0  0  0  0  0  0  0
   -1.5509   12.9636    7.5009 C   0  0  0  0  0  0  0  0  0  0  0  0
   -1.0127   11.5030    7.6999 C   0  0  2  0  0  0  0  0  0  0  0  0
   -2.0566   10.5465    7.3375 N   0  0  0  0  0  0  0  0  0  0  0  0
   -0.5590   11.2210    9.2009 C   0  0  2  0  0  0  0  0  0  0  0  0
    0.5459   12.2577    9.5558 C   0  0  2  0  0  0  0  0  0  0  0  0
    0.9244   11.9175   10.9784 O   0  0  0  0  0  0  0  0  0  0  0  0
   -0.0393   13.7691    9.4120 C   0  0  1  0  0  0  0  0  0  0  0  0
    0.9313   14.8341    9.6690 O   0  0  0  0  0  0  0  0  0  0  0  0
    1.7329   12.8797   11.5240 C   0  0  1  0  0  0  0  0  0  0  0  0
    2.8894   13.2046   10.6825 C   0  0  2  0  0  0  0  0  0  0  0  0
    3.7741   12.1332   10.7604 O   0  0  0  0  0  0  0  0  0  0  0  0
    3.2937   14.5828   11.2486 C   0  0  2  0  0  0  0  0  0  0  0  0
    4.6392   14.4457   11.7587 O   0  0  0  0  0  0  0  0  0  0  0  0
    2.2986   14.8614   12.3266 C   0  0  2  0  0  0  0  0  0  0  0  0
    1.1576   14.1619   11.7130 O   0  0  0  0  0  0  0  0  0  0  0  0
    1.9912   16.3987   12.4558 C   0  0  0  0  0  0  0  0  0  0  0  0
    3.1861   17.2254   12.5898 O   0  0  0  0  0  0  0  0  0  0  0  0
    4.8556   13.4318   12.7865 C   0  0  2  0  0  0  0  0  0  0  0  0
    5.4096   14.1616   14.1186 C   0  0  2  0  0  0  0  0  0  0  0  0
    6.6745   14.8951   13.7889 N   0  0  0  0  0  0  0  0  0  0  0  0
    5.6416   13.0393   15.2459 C   0  0  1  0  0  0  0  0  0  0  0  0
    4.3562   12.3880   15.4806 O   0  0  0  0  0  0  0  0  0  0  0  0
    6.7313   11.9921   14.7356 C   0  0  2  0  0  0  0  0  0  0  0  0
    8.0031   12.7218   14.5349 O   0  0  0  0  0  0  0  0  0  0  0  0
    6.1770   11.3108   13.3607 C   0  0  1  0  0  0  0  0  0  0  0  0
    5.8976   12.3857   12.3402 O   0  0  0  0  0  0  0  0  0  0  0  0
    7.2313   10.2881   12.8212 C   0  0  0  0  0  0  0  0  0  0  0  0
    6.9255    9.8163   11.4351 N   0  0  0  0  0  0  0  0  0  0  0  0
  1  3  1  0  0  0  0
  1  2  1  1  0  0  0
  3  4  1  1  0  0  0
  3  5  1  0  0  0  0
  5  6  1  6  0  0  0
  7  8  1  1  0  0  0
  7  5  1  0  0  0  0
  9 11  1  6  0  0  0
  9  7  1  0  0  0  0
 10  9  1  0  0  0  0
 10  1  1  0  0  0  0
 12 11  1  0  0  0  0
 13 14  1  1  0  0  0
 15 13  1  0  0  0  0
 16 17  1  1  0  0  0
 16 15  1  0  0  0  0
 18  2  1  6  0  0  0
 18 19  1  0  0  0  0
 18 16  1  0  0  0  0
 19 20  1  1  0  0  0
 19 21  1  0  0  0  0
 21 22  1  6  0  0  0
 21 13  1  0  0  0  0
 23 20  1  6  0  0  0
 23 29  1  0  0  0  0
 24 25  1  1  0  0  0
 24 26  1  0  0  0  0
 24 23  1  0  0  0  0
 26 27  1  1  0  0  0
 26 28  1  0  0  0  0
 28 30  1  6  0  0  0
 29 28  1  0  0  0  0
 30 31  1  0  0  0  0
 32 27  1  6  0  0  0
 32 40  1  0  0  0  0
 33 35  1  0  0  0  0
 33 32  1  0  0  0  0
 33 34  1  6  0  0  0
 35 36  1  6  0  0  0
 35 37  1  0  0  0  0
 37 38  1  6  0  0  0
 37 39  1  0  0  0  0
 39 41  1  6  0  0  0
 40 39  1  0  0  0  0
 41 42  1  0  0  0  0
M  END
>  <CHROM.1>
-168.80302451,-48.26012152,56.11417786,-169.85784594,-51.29310212,-57.91742921
-52.05508356,-120.03698004,-168.89470691,2.69790041,11.86628262,11.02188901
-2.68378861,-0.64773867,0.17651949

>  <Name>
lig.pdb

>  <RI>
0

>  <Rbt.Current_Directory>
/home/itssahil/PROJECTS/Mol_Feturizer/New_Systems/rnas/4wcr

>  <Rbt.Executable>
rbdock ($Id: //depot/dev/client3/rdock/2013.1/src/exe/rbdock.cxx#4 $)

>  <Rbt.Library>
libRbt.so (2013.1, Build901 2013/11/27)

>  <Rbt.Parameter_File>
/export/apps/rDock/src/rDock_2013.1_src/data/scripts/dock_solv.prm

>  <Rbt.Receptor>
prm/blind_docking_20.prm

>  <SCORE>
56.3313

>  <SCORE.INTER>
-0.245382

>  <SCORE.INTER.CONST>
1

>  <SCORE.INTER.POLAR>
0

>  <SCORE.INTER.ROT>
9

>  <SCORE.INTER.SOLV>
25.9508

>  <SCORE.INTER.VDW>
-18.4139

>  <SCORE.INTER.norm>
-0.00584242

>  <SCORE.INTRA>
24.6583

>  <SCORE.INTRA.DIHEDRAL>
-5.90554

>  <SCORE.INTRA.DIHEDRAL.0>
16.2863

>  <SCORE.INTRA.POLAR>
0

>  <SCORE.INTRA.POLAR.0>
0

>  <SCORE.INTRA.REPUL>
-0.314433

>  <SCORE.INTRA.REPUL.0>
0.314433

>  <SCORE.INTRA.SOLV>
2.52963

>  <SCORE.INTRA.SOLV.lig_0>
-103.824

>  <SCORE.INTRA.VDW>
27.9184

>  <SCORE.INTRA.VDW.0>
-5.30945

>  <SCORE.INTRA.norm>
0.587101

>  <SCORE.RESTR>
31.9184

>  <SCORE.RESTR.CAVITY>
31.9184

>  <SCORE.RESTR.norm>
0.759963

>  <SCORE.SYSTEM>
0

>  <SCORE.SYSTEM.CONST>
0

>  <SCORE.SYSTEM.DIHEDRAL>
0

>  <SCORE.SYSTEM.SOLV>
0

>  <SCORE.SYSTEM.norm>
0

>  <SCORE.heavy>
42

>  <SCORE.norm>
1.34122

>  <RMSD>
27.397

$$$$
lig.pdb
 OpenBabel11021811513D
libRbt.so/2013.1/901 2013/11/27
 42 45  0  0  0  0  0  0  0  0999 V2000
   -1.1233   10.2597    9.5120 C   0  0  2  0  0  0  0  0  0  0  0  0
    0.0951   10.2326   10.3194 O   0  0  0  0  0  0  0  0  0  0  0  0
   -0.6651   10.6282    8.0307 C   0  0  2  0  0  0  0  0  0  0  0  0
    0.2323    9.5962    7.5041 N   0  0  0  0  0  0  0  0  0  0  0  0
    0.0233   12.0793    8.0487 C   0  0  1  0  0  0  0  0  0  0  0  0
    0.4491   12.4701    6.7263 O   0  0  0  0  0  0  0  0  0  0  0  0
   -1.0078   13.0643    8.6257 C   0  0  2  0  0  0  0  0  0  0  0  0
   -0.4454   14.3317    8.6581 O   0  0  0  0  0  0  0  0  0  0  0  0
   -1.4459   12.5981   10.0883 C   0  0  2  0  0  0  0  0  0  0  0  0
   -2.0284   11.2890   10.0644 O   0  0  0  0  0  0  0  0  0  0  0  0
   -2.4691   13.5187   10.6906 C   0  0  0  0  0  0  0  0  0  0  0  0
   -3.5709   13.5921    9.7850 O   0  0  0  0  0  0  0  0  0  0  0  0
    3.7950    7.7830   10.6073 C   0  0  2  0  0  0  0  0  0  0  0  0
    4.9126    6.9438   10.2337 N   0  0  0  0  0  0  0  0  0  0  0  0
    2.4384    7.1134   10.1601 C   0  0  0  0  0  0  0  0  0  0  0  0
    1.2092    8.0074   10.5505 C   0  0  2  0  0  0  0  0  0  0  0  0
   -0.0240    7.3563   10.1133 N   0  0  0  0  0  0  0  0  0  0  0  0
    1.2807    9.4589    9.8975 C   0  0  2  0  0  0  0  0  0  0  0  0
    2.6049   10.1205   10.3775 C   0  0  2  0  0  0  0  0  0  0  0  0
    2.5899   11.4842    9.7273 O   0  0  0  0  0  0  0  0  0  0  0  0
    3.8791    9.2226    9.9109 C   0  0  1  0  0  0  0  0  0  0  0  0
    5.1815    9.7207   10.3557 O   0  0  0  0  0  0  0  0  0  0  0  0
    2.3808   12.4753   10.6500 C   0  0  1  0  0  0  0  0  0  0  0  0
    3.5526   12.7328   11.4936 C   0  0  2  0  0  0  0  0  0  0  0  0
    3.6738   11.6624   12.3746 O   0  0  0  0  0  0  0  0  0  0  0  0
    3.2298   14.1433   12.0317 C   0  0  2  0  0  0  0  0  0  0  0  0
    3.1426   14.0310   13.4703 O   0  0  0  0  0  0  0  0  0  0  0  0
    1.9227   14.5027   11.4056 C   0  0  2  0  0  0  0  0  0  0  0  0
    2.1136   13.7717   10.1418 O   0  0  0  0  0  0  0  0  0  0  0  0
    1.8107   16.0475   11.1312 C   0  0  0  0  0  0  0  0  0  0  0  0
    0.5555   16.4404   10.4993 O   0  0  0  0  0  0  0  0  0  0  0  0
    4.3975   13.8614   14.1966 C   0  0  2  0  0  0  0  0  0  0  0  0
    5.3122   15.1723   13.9538 C   0  0  2  0  0  0  0  0  0  0  0  0
    5.5425   15.3469   12.4830 N   0  0  0  0  0  0  0  0  0  0  0  0
    6.6897   14.9792   14.7595 C   0  0  1  0  0  0  0  0  0  0  0  0
    6.3480   14.8115   16.1690 O   0  0  0  0  0  0  0  0  0  0  0  0
    7.4575   13.6985   14.1985 C   0  0  2  0  0  0  0  0  0  0  0  0
    7.7801   13.9496   12.7761 O   0  0  0  0  0  0  0  0  0  0  0  0
    6.4931   12.3982   14.4013 C   0  0  1  0  0  0  0  0  0  0  0  0
    5.1788   12.6284   13.6982 O   0  0  0  0  0  0  0  0  0  0  0  0
    7.2093   11.1233   13.8445 C   0  0  0  0  0  0  0  0  0  0  0  0
    7.7573   11.3206   12.4668 N   0  0  0  0  0  0  0  0  0  0  0  0
  1  3  1  0  0  0  0
  1  2  1  1  0  0  0
  3  4  1  1  0  0  0
  3  5  1  0  0  0  0
  5  6  1  6  0  0  0
  7  8  1  1  0  0  0
  7  5  1  0  0  0  0
  9 11  1  6  0  0  0
  9  7  1  0  0  0  0
 10  9  1  0  0  0  0
 10  1  1  0  0  0  0
 12 11  1  0  0  0  0
 13 14  1  6  0  0  0
 15 13  1  0  0  0  0
 16 17  1  6  0  0  0
 16 15  1  0  0  0  0
 18  2  1  1  0  0  0
 18 19  1  0  0  0  0
 18 16  1  0  0  0  0
 19 20  1  6  0  0  0
 19 21  1  0  0  0  0
 21 22  1  1  0  0  0
 21 13  1  0  0  0  0
 23 20  1  6  0  0  0
 23 29  1  0  0  0  0
 24 25  1  1  0  0  0
 24 26  1  0  0  0  0
 24 23  1  0  0  0  0
 26 27  1  1  0  0  0
 26 28  1  0  0  0  0
 28 30  1  6  0  0  0
 29 28  1  0  0  0  0
 30 31  1  0  0  0  0
 32 27  1  6  0  0  0
 32 40  1  0  0  0  0
 33 35  1  0  0  0  0
 33 32  1  0  0  0  0
 33 34  1  6  0  0  0
 35 36  1  1  0  0  0
 35 37  1  0  0  0  0
 37 38  1  6  0  0  0
 37 39  1  0  0  0  0
 39 41  1  6  0  0  0
 40 39  1  0  0  0  0
 41 42  1  0  0  0  0
M  END
>  <CHROM.1>
-50.65052605,55.69873760,-92.62672486,109.18722646,73.72610355,73.47031829
179.08025507,62.52685490,-49.33635224,2.56381689,12.08887721,11.09330753
-2.71224341,-0.49499457,0.31314262

>  <Name>
lig.pdb

>  <RI>
0

>  <Rbt.Current_Directory>
/home/itssahil/PROJECTS/Mol_Feturizer/New_Systems/rnas/4wcr

>  <Rbt.Executable>
rbdock ($Id: //depot/dev/client3/rdock/2013.1/src/exe/rbdock.cxx#4 $)

>  <Rbt.Library>
libRbt.so (2013.1, Build901 2013/11/27)

>  <Rbt.Parameter_File>
/export/apps/rDock/src/rDock_2013.1_src/data/scripts/dock_solv.prm

>  <Rbt.Receptor>
prm/blind_docking_20.prm

>  <SCORE>
46.0334

>  <SCORE.INTER>
4.84921

>  <SCORE.INTER.CONST>
1

>  <SCORE.INTER.POLAR>
0

>  <SCORE.INTER.ROT>
9

>  <SCORE.INTER.SOLV>
26.4414

>  <SCORE.INTER.VDW>
-15.181

>  <SCORE.INTER.norm>
0.115457

>  <SCORE.INTRA>
5.26635

>  <SCORE.INTRA.DIHEDRAL>
-2.37802

>  <SCORE.INTRA.DIHEDRAL.0>
16.2863

>  <SCORE.INTRA.POLAR>
0

>  <SCORE.INTRA.POLAR.0>
0

>  <SCORE.INTRA.REPUL>
-0.314433

>  <SCORE.INTRA.REPUL.0>
0.314433

>  <SCORE.INTRA.SOLV>
6.0382

>  <SCORE.INTRA.SOLV.lig_0>
-103.824

>  <SCORE.INTRA.VDW>
5.00843

>  <SCORE.INTRA.VDW.0>
-5.30945

>  <SCORE.INTRA.norm>
0.125389

>  <SCORE.RESTR>
35.9178

>  <SCORE.RESTR.CAVITY>
35.9178

>  <SCORE.RESTR.norm>
0.855186

>  <SCORE.SYSTEM>
0

>  <SCORE.SYSTEM.CONST>
0

>  <SCORE.SYSTEM.DIHEDRAL>
0

>  <SCORE.SYSTEM.SOLV>
0

>  <SCORE.SYSTEM.norm>
0

>  <SCORE.heavy>
42

>  <SCORE.norm>
1.09603

>  <RMSD>
27.445

$$$$
lig.pdb
 OpenBabel11021811513D
libRbt.so/2013.1/901 2013/11/27
 42 45  0  0  0  0  0  0  0  0999 V2000
    0.3317    8.2393   10.0785 C   0  0  2  0  0  0  0  0  0  0  0  0
    0.6740    9.6529    9.9311 O   0  0  0  0  0  0  0  0  0  0  0  0
    1.7093    7.4406   10.0124 C   0  0  2  0  0  0  0  0  0  0  0  0
    2.5813    7.8375   11.1214 N   0  0  0  0  0  0  0  0  0  0  0  0
    2.3902    7.7022    8.5815 C   0  0  1  0  0  0  0  0  0  0  0  0
    3.6403    6.9912    8.4618 O   0  0  0  0  0  0  0  0  0  0  0  0
    1.3806    7.2569    7.5096 C   0  0  2  0  0  0  0  0  0  0  0  0
    1.9358    7.4708    6.2567 O   0  0  0  0  0  0  0  0  0  0  0  0
    0.0174    8.0710    7.6749 C   0  0  2  0  0  0  0  0  0  0  0  0
   -0.5636    7.8558    8.9672 O   0  0  0  0  0  0  0  0  0  0  0  0
   -1.0119    7.6590    6.6610 C   0  0  0  0  0  0  0  0  0  0  0  0
   -1.0912    6.2331    6.6804 O   0  0  0  0  0  0  0  0  0  0  0  0
   -2.8870   12.0604    8.7928 C   0  0  2  0  0  0  0  0  0  0  0  0
   -3.9692   13.0181    8.8598 N   0  0  0  0  0  0  0  0  0  0  0  0
   -2.9656   11.0644   10.0137 C   0  0  0  0  0  0  0  0  0  0  0  0
   -1.7984   10.0166    9.9666 C   0  0  2  0  0  0  0  0  0  0  0  0
   -1.9032    9.1198   11.1158 N   0  0  0  0  0  0  0  0  0  0  0  0
   -0.3616   10.7050    9.9842 C   0  0  2  0  0  0  0  0  0  0  0  0
   -0.2856   11.6552    8.7541 C   0  0  2  0  0  0  0  0  0  0  0  0
    1.0987   12.2545    8.8390 O   0  0  0  0  0  0  0  0  0  0  0  0
   -1.4576   12.7803    8.8442 C   0  0  1  0  0  0  0  0  0  0  0  0
   -1.5187   13.7005    7.7077 O   0  0  0  0  0  0  0  0  0  0  0  0
    1.2142   13.0945    9.9153 C   0  0  1  0  0  0  0  0  0  0  0  0
    2.5375   13.0437   10.5456 C   0  0  2  0  0  0  0  0  0  0  0  0
    2.6273   11.8334   11.2267 O   0  0  0  0  0  0  0  0  0  0  0  0
    2.5469   14.3736   11.3295 C   0  0  2  0  0  0  0  0  0  0  0  0
    2.6859   14.0328   12.7274 O   0  0  0  0  0  0  0  0  0  0  0  0
    1.2304   15.0083   11.0235 C   0  0  2  0  0  0  0  0  0  0  0  0
    1.0826   14.4823    9.6562 O   0  0  0  0  0  0  0  0  0  0  0  0
    1.3300   16.5780   10.9968 C   0  0  0  0  0  0  0  0  0  0  0  0
    1.6852   17.1641   12.2850 O   0  0  0  0  0  0  0  0  0  0  0  0
    3.7804   14.6669   13.4560 C   0  0  2  0  0  0  0  0  0  0  0  0
    5.1229   13.7959   13.2256 C   0  0  2  0  0  0  0  0  0  0  0  0
    4.8858   12.3919   13.6939 N   0  0  0  0  0  0  0  0  0  0  0  0
    6.3234   14.5027   14.0277 C   0  0  1  0  0  0  0  0  0  0  0  0
    6.4600   15.8569   13.4995 O   0  0  0  0  0  0  0  0  0  0  0  0
    5.9797   14.5257   15.5852 C   0  0  2  0  0  0  0  0  0  0  0  0
    5.8716   13.1239   16.0470 O   0  0  0  0  0  0  0  0  0  0  0  0
    4.5922   15.3599   15.7873 C   0  0  1  0  0  0  0  0  0  0  0  0
    3.4954   14.7233   14.9708 O   0  0  0  0  0  0  0  0  0  0  0  0
    4.2145   15.3878   17.3056 C   0  0  0  0  0  0  0  0  0  0  0  0
    3.7657   14.0556   17.8165 N   0  0  0  0  0  0  0  0  0  0  0  0
  1  3  1  0  0  0  0
  1  2  1  6  0  0  0
  3  4  1  1  0  0  0
  3  5  1  0  0  0  0
  5  6  1  1  0  0  0
  7  8  1  6  0  0  0
  7  5  1  0  0  0  0
  9 11  1  6  0  0  0
  9  7  1  0  0  0  0
 10  9  1  0  0  0  0
 10  1  1  0  0  0  0
 12 11  1  0  0  0  0
 13 14  1  1  0  0  0
 15 13  1  0  0  0  0
 16 17  1  1  0  0  0
 16 15  1  0  0  0  0
 18  2  1  6  0  0  0
 18 19  1  0  0  0  0
 18 16  1  0  0  0  0
 19 20  1  1  0  0  0
 19 21  1  0  0  0  0
 21 22  1  6  0  0  0
 21 13  1  0  0  0  0
 23 20  1  6  0  0  0
 23 29  1  0  0  0  0
 24 25  1  1  0  0  0
 24 26  1  0  0  0  0
 24 23  1  0  0  0  0
 26 27  1  1  0  0  0
 26 28  1  0  0  0  0
 28 30  1  6  0  0  0
 29 28  1  0  0  0  0
 30 31  1  0  0  0  0
 32 27  1  6  0  0  0
 32 40  1  0  0  0  0
 33 35  1  0  0  0  0
 33 32  1  0  0  0  0
 33 34  1  1  0  0  0
 35 36  1  6  0  0  0
 35 37  1  0  0  0  0
 37 38  1  6  0  0  0
 37 39  1  0  0  0  0
 39 41  1  1  0  0  0
 40 39  1  0  0  0  0
 41 42  1  0  0  0  0
M  END
>  <CHROM.1>
-178.19289012,49.48932330,-9.42939457,-68.51383052,144.12703676,125.98645167
-63.90577650,-84.95012105,-70.65769425,1.61969785,11.82834715,10.93560273
-2.18723460,-0.61424619,0.41934798

>  <Name>
lig.pdb

>  <RI>
0

>  <Rbt.Current_Directory>
/home/itssahil/PROJECTS/Mol_Feturizer/New_Systems/rnas/4wcr

>  <Rbt.Executable>
rbdock ($Id: //depot/dev/client3/rdock/2013.1/src/exe/rbdock.cxx#4 $)

>  <Rbt.Library>
libRbt.so (2013.1, Build901 2013/11/27)

>  <Rbt.Parameter_File>
/export/apps/rDock/src/rDock_2013.1_src/data/scripts/dock_solv.prm

>  <Rbt.Receptor>
prm/blind_docking_80.prm

>  <SCORE>
17.3061

>  <SCORE.INTER>
2.67399

>  <SCORE.INTER.CONST>
1

>  <SCORE.INTER.POLAR>
0

>  <SCORE.INTER.ROT>
9

>  <SCORE.INTER.SOLV>
30.8727

>  <SCORE.INTER.VDW>
-18.1082

>  <SCORE.INTER.norm>
0.0636664

>  <SCORE.INTRA>
5.56186

>  <SCORE.INTRA.DIHEDRAL>
6.37684

>  <SCORE.INTRA.DIHEDRAL.0>
16.2863

>  <SCORE.INTRA.POLAR>
0

>  <SCORE.INTRA.POLAR.0>
0

>  <SCORE.INTRA.REPUL>
-0.314433

>  <SCORE.INTRA.REPUL.0>
0.314433

>  <SCORE.INTRA.SOLV>
-0.0996806

>  <SCORE.INTRA.SOLV.lig_0>
-103.824

>  <SCORE.INTRA.VDW>
3.99544

>  <SCORE.INTRA.VDW.0>
-5.30945

>  <SCORE.INTRA.norm>
0.132425

>  <SCORE.RESTR>
9.0702

>  <SCORE.RESTR.CAVITY>
9.0702

>  <SCORE.RESTR.norm>
0.215957

>  <SCORE.SYSTEM>
0

>  <SCORE.SYSTEM.CONST>
0

>  <SCORE.SYSTEM.DIHEDRAL>
0

>  <SCORE.SYSTEM.SOLV>
0

>  <SCORE.SYSTEM.norm>
0

>  <SCORE.heavy>
42

>  <SCORE.norm>
0.412049

>  <RMSD>
27.504

$$$$
lig.pdb
 OpenBabel11021811513D
libRbt.so/2013.1/901 2013/11/27
 42 45  0  0  0  0  0  0  0  0999 V2000
    7.4941   10.3785   12.3833 C   0  0  2  0  0  0  0  0  0  0  0  0
    6.5062   10.6375   11.3373 O   0  0  0  0  0  0  0  0  0  0  0  0
    6.6769   10.2693   13.7472 C   0  0  2  0  0  0  0  0  0  0  0  0
    5.7386    9.1451   13.6897 N   0  0  0  0  0  0  0  0  0  0  0  0
    5.9334   11.6671   14.0175 C   0  0  1  0  0  0  0  0  0  0  0  0
    5.1843   11.6286   15.2504 O   0  0  0  0  0  0  0  0  0  0  0  0
    7.0160   12.7596   14.0466 C   0  0  2  0  0  0  0  0  0  0  0  0
    6.4081   13.9848   14.2768 O   0  0  0  0  0  0  0  0  0  0  0  0
    7.8145   12.7707   12.6643 C   0  0  2  0  0  0  0  0  0  0  0  0
    8.4462   11.5081   12.4182 O   0  0  0  0  0  0  0  0  0  0  0  0
    8.8991   13.8103   12.6481 C   0  0  0  0  0  0  0  0  0  0  0  0
    8.5494   14.8146   13.6015 O   0  0  0  0  0  0  0  0  0  0  0  0
    2.7239    8.9010    9.7714 C   0  0  2  0  0  0  0  0  0  0  0  0
    1.4890    8.1506    9.7014 N   0  0  0  0  0  0  0  0  0  0  0  0
    3.9137    7.9530   10.1891 C   0  0  0  0  0  0  0  0  0  0  0  0
    5.2657    8.7448   10.2766 C   0  0  2  0  0  0  0  0  0  0  0  0
    6.3379    7.8340   10.6723 N   0  0  0  0  0  0  0  0  0  0  0  0
    5.2014    9.9448   11.3226 C   0  0  2  0  0  0  0  0  0  0  0  0
    4.0487   10.8901   10.8764 C   0  0  2  0  0  0  0  0  0  0  0  0
    4.0622   11.9958   11.9060 O   0  0  0  0  0  0  0  0  0  0  0  0
    2.6384   10.0789   10.8528 C   0  0  1  0  0  0  0  0  0  0  0  0
    1.4866   10.8562   10.3931 O   0  0  0  0  0  0  0  0  0  0  0  0
    3.5638   13.1637   11.3913 C   0  0  1  0  0  0  0  0  0  0  0  0
    2.3234   13.5969   12.0431 C   0  0  2  0  0  0  0  0  0  0  0  0
    1.3102   12.7430   11.6176 O   0  0  0  0  0  0  0  0  0  0  0  0
    2.2878   15.0909   11.6560 C   0  0  2  0  0  0  0  0  0  0  0  0
    1.0813   15.2935   10.8860 O   0  0  0  0  0  0  0  0  0  0  0  0
    3.5251   15.3073   10.8485 C   0  0  2  0  0  0  0  0  0  0  0  0
    4.3725   14.3193   11.5366 O   0  0  0  0  0  0  0  0  0  0  0  0
    4.1058   16.7559   11.0450 C   0  0  0  0  0  0  0  0  0  0  0  0
    5.4456   16.9294   10.4935 O   0  0  0  0  0  0  0  0  0  0  0  0
    0.9627   14.5486    9.6362 C   0  0  2  0  0  0  0  0  0  0  0  0
    0.1736   15.4667    8.5645 C   0  0  2  0  0  0  0  0  0  0  0  0
   -1.1693   15.8310    9.1219 N   0  0  0  0  0  0  0  0  0  0  0  0
    0.0506   14.6410    7.1908 C   0  0  1  0  0  0  0  0  0  0  0  0
    1.4070   14.3347    6.7458 O   0  0  0  0  0  0  0  0  0  0  0  0
   -0.7848   13.3065    7.4468 C   0  0  2  0  0  0  0  0  0  0  0  0
   -2.1449   13.6983    7.8791 O   0  0  0  0  0  0  0  0  0  0  0  0
   -0.0004   12.4237    8.5725 C   0  0  1  0  0  0  0  0  0  0  0  0
    0.1683   13.2406    9.8291 O   0  0  0  0  0  0  0  0  0  0  0  0
   -0.8031   11.1120    8.8619 C   0  0  0  0  0  0  0  0  0  0  0  0
   -2.2588   11.3624    9.0969 N   0  0  0  0  0  0  0  0  0  0  0  0
  1  3  1  0  0  0  0
  1  2  1  6  0  0  0
  3  4  1  6  0  0  0
  3  5  1  0  0  0  0
  5  6  1  1  0  0  0
  7  8  1  6  0  0  0
  7  5  1  0  0  0  0
  9 11  1  1  0  0  0
  9  7  1  0  0  0  0
 10  9  1  0  0  0  0
 10  1  1  0  0  0  0
 12 11  1  0  0  0  0
 13 14  1  1  0  0  0
 15 13  1  0  0  0  0
 16 17  1  1  0  0  0
 16 15  1  0  0  0  0
 18  2  1  6  0  0  0
 18 19  1  0  0  0  0
 18 16  1  0  0  0  0
 19 20  1  1  0  0  0
 19 21  1  0  0  0  0
 21 22  1  6  0  0  0
 21 13  1  0  0  0  0
 23 20  1  1  0  0  0
 23 29  1  0  0  0  0
 24 25  1  6  0  0  0
 24 26  1  0  0  0  0
 24 23  1  0  0  0  0
 26 27  1  6  0  0  0
 26 28  1  0  0  0  0
 28 30  1  1  0  0  0
 29 28  1  0  0  0  0
 30 31  1  0  0  0  0
 32 27  1  1  0  0  0
 32 40  1  0  0  0  0
 33 35  1  0  0  0  0
 33 32  1  0  0  0  0
 33 34  1  1  0  0  0
 35 36  1  1  0  0  0
 35 37  1  0  0  0  0
 37 38  1  1  0  0  0
 37 39  1  0  0  0  0
 39 41  1  1  0  0  0
 40 39  1  0  0  0  0
 41 42  1  0  0  0  0
M  END
>  <CHROM.1>
-40.74032201,-23.66919465,-100.00629048,153.23197616,115.47329187,-61.47738413
168.48714419,-145.43664475,-48.10897440,3.47401583,12.46956890,10.98163360
0.19760955,0.53500324,-3.09526753

>  <Name>
lig.pdb

>  <RI>
0

>  <Rbt.Current_Directory>
/home/itssahil/PROJECTS/Mol_Feturizer/New_Systems/rnas/4wcr

>  <Rbt.Executable>
rbdock ($Id: //depot/dev/client3/rdock/2013.1/src/exe/rbdock.cxx#4 $)

>  <Rbt.Library>
libRbt.so (2013.1, Build901 2013/11/27)

>  <Rbt.Parameter_File>
/export/apps/rDock/src/rDock_2013.1_src/data/scripts/dock_solv.prm

>  <Rbt.Receptor>
prm/blind_docking_20.prm

>  <SCORE>
64.8877

>  <SCORE.INTER>
7.77489

>  <SCORE.INTER.CONST>
1

>  <SCORE.INTER.POLAR>
0

>  <SCORE.INTER.ROT>
9

>  <SCORE.INTER.SOLV>
20.7412

>  <SCORE.INTER.VDW>
-11.3305

>  <SCORE.INTER.norm>
0.185116

>  <SCORE.INTRA>
18.2027

>  <SCORE.INTRA.DIHEDRAL>
10.25

>  <SCORE.INTRA.DIHEDRAL.0>
16.2863

>  <SCORE.INTRA.POLAR>
0

>  <SCORE.INTRA.POLAR.0>
0

>  <SCORE.INTRA.REPUL>
-0.314433

>  <SCORE.INTRA.REPUL.0>
0.314433

>  <SCORE.INTRA.SOLV>
4.39765

>  <SCORE.INTRA.SOLV.lig_0>
-103.824

>  <SCORE.INTRA.VDW>
12.451

>  <SCORE.INTRA.VDW.0>
-5.30945

>  <SCORE.INTRA.norm>
0.433397

>  <SCORE.RESTR>
38.9102

>  <SCORE.RESTR.CAVITY>
38.9102

>  <SCORE.RESTR.norm>
0.926433

>  <SCORE.SYSTEM>
0

>  <SCORE.SYSTEM.CONST>
0

>  <SCORE.SYSTEM.DIHEDRAL>
0

>  <SCORE.SYSTEM.SOLV>
0

>  <SCORE.SYSTEM.norm>
0

>  <SCORE.heavy>
42

>  <SCORE.norm>
1.54495

>  <RMSD>
27.505

$$$$
lig.pdb
 OpenBabel11021811513D
libRbt.so/2013.1/901 2013/11/27
 42 45  0  0  0  0  0  0  0  0999 V2000
    1.0892    8.5729    8.0610 C   0  0  2  0  0  0  0  0  0  0  0  0
    1.1087    9.9890    8.4237 O   0  0  0  0  0  0  0  0  0  0  0  0
    0.2749    7.8316    9.2131 C   0  0  2  0  0  0  0  0  0  0  0  0
   -1.1026    8.3292    9.2635 N   0  0  0  0  0  0  0  0  0  0  0  0
    1.0464    8.0389   10.6065 C   0  0  1  0  0  0  0  0  0  0  0  0
    0.3565    7.3764   11.6872 O   0  0  0  0  0  0  0  0  0  0  0  0
    2.4714    7.4892   10.4232 C   0  0  2  0  0  0  0  0  0  0  0  0
    3.1698    7.6537   11.6101 O   0  0  0  0  0  0  0  0  0  0  0  0
    3.1984    8.2523    9.2241 C   0  0  2  0  0  0  0  0  0  0  0  0
    2.4833    8.0876    7.9932 O   0  0  0  0  0  0  0  0  0  0  0  0
    4.5907    7.7384    8.9906 C   0  0  0  0  0  0  0  0  0  0  0  0
    5.3778    8.0899   10.1293 O   0  0  0  0  0  0  0  0  0  0  0  0
   -1.9651   13.1981    8.5854 C   0  0  2  0  0  0  0  0  0  0  0  0
   -3.2057   13.8919    8.8547 N   0  0  0  0  0  0  0  0  0  0  0  0
   -2.2465   11.8765    7.7710 C   0  0  0  0  0  0  0  0  0  0  0  0
   -0.9154   11.1022    7.4695 C   0  0  2  0  0  0  0  0  0  0  0  0
   -1.2201    9.8839    6.7220 N   0  0  0  0  0  0  0  0  0  0  0  0
   -0.1285   10.7048    8.7967 C   0  0  2  0  0  0  0  0  0  0  0  0
    0.1744   12.0209    9.5699 C   0  0  2  0  0  0  0  0  0  0  0  0
    0.9237   11.5600   10.7983 O   0  0  0  0  0  0  0  0  0  0  0  0
   -1.2142   12.7848    9.9380 C   0  0  1  0  0  0  0  0  0  0  0  0
   -1.0503   14.0687   10.6213 O   0  0  0  0  0  0  0  0  0  0  0  0
    1.7036   12.5621   11.3129 C   0  0  1  0  0  0  0  0  0  0  0  0
    2.9086   12.8197   10.5174 C   0  0  2  0  0  0  0  0  0  0  0  0
    3.7822   11.7576   10.7304 O   0  0  0  0  0  0  0  0  0  0  0  0
    3.2858   14.2380   10.9962 C   0  0  2  0  0  0  0  0  0  0  0  0
    4.5988   14.1413   11.5930 O   0  0  0  0  0  0  0  0  0  0  0  0
    2.2312   14.6006   11.9892 C   0  0  2  0  0  0  0  0  0  0  0  0
    1.1244   13.8552   11.3670 O   0  0  0  0  0  0  0  0  0  0  0  0
    1.9241   16.1433   11.9794 C   0  0  0  0  0  0  0  0  0  0  0  0
    1.3608   16.6201   10.7206 O   0  0  0  0  0  0  0  0  0  0  0  0
    4.7835   13.1211   12.6206 C   0  0  2  0  0  0  0  0  0  0  0  0
    5.3493   13.8348   13.9565 C   0  0  2  0  0  0  0  0  0  0  0  0
    6.6346   14.5355   13.6341 N   0  0  0  0  0  0  0  0  0  0  0  0
    5.5462   12.7057   15.0836 C   0  0  1  0  0  0  0  0  0  0  0  0
    4.2431   12.0878   15.3110 O   0  0  0  0  0  0  0  0  0  0  0  0
    6.6109   11.6311   14.5777 C   0  0  2  0  0  0  0  0  0  0  0  0
    7.9023   12.3276   14.3844 O   0  0  0  0  0  0  0  0  0  0  0  0
    6.0462   10.9658   13.1991 C   0  0  1  0  0  0  0  0  0  0  0  0
    5.8002   12.0487   12.1785 O   0  0  0  0  0  0  0  0  0  0  0  0
    7.0763    9.9166   12.6639 C   0  0  0  0  0  0  0  0  0  0  0  0
    7.0937    8.6569   13.4702 N   0  0  0  0  0  0  0  0  0  0  0  0
  1  3  1  0  0  0  0
  1  2  1  1  0  0  0
  3  4  1  1  0  0  0
  3  5  1  0  0  0  0
  5  6  1  1  0  0  0
  7  8  1  1  0  0  0
  7  5  1  0  0  0  0
  9 11  1  6  0  0  0
  9  7  1  0  0  0  0
 10  9  1  0  0  0  0
 10  1  1  0  0  0  0
 12 11  1  0  0  0  0
 13 14  1  1  0  0  0
 15 13  1  0  0  0  0
 16 17  1  1  0  0  0
 16 15  1  0  0  0  0
 18  2  1  6  0  0  0
 18 19  1  0  0  0  0
 18 16  1  0  0  0  0
 19 20  1  1  0  0  0
 19 21  1  0  0  0  0
 21 22  1  1  0  0  0
 21 13  1  0  0  0  0
 23 20  1  6  0  0  0
 23 29  1  0  0  0  0
 24 25  1  1  0  0  0
 24 26  1  0  0  0  0
 24 23  1  0  0  0  0
 26 27  1  1  0  0  0
 26 28  1  0  0  0  0
 28 30  1  6  0  0  0
 29 28  1  0  0  0  0
 30 31  1  0  0  0  0
 32 27  1  6  0  0  0
 32 40  1  0  0  0  0
 33 35  1  0  0  0  0
 33 32  1  0  0  0  0
 33 34  1  6  0  0  0
 35 36  1  6  0  0  0
 35 37  1  0  0  0  0
 37 38  1  6  0  0  0
 37 39  1  0  0  0  0
 39 41  1  6  0  0  0
 40 39  1  0  0  0  0
 41 42  1  0  0  0  0
M  END
>  <CHROM.1>
-49.74320526,-67.09798358,-79.98051499,156.35334348,-74.40473787,-52.20419064
64.13409722,-125.06562287,73.55106973,2.48726174,11.36081442,10.90015670
-2.79494687,-0.55013468,0.31288716

>  <Name>
lig.pdb

>  <RI>
0

>  <Rbt.Current_Directory>
/home/itssahil/PROJECTS/Mol_Feturizer/New_Systems/rnas/4wcr

>  <Rbt.Executable>
rbdock ($Id: //depot/dev/client3/rdock/2013.1/src/exe/rbdock.cxx#4 $)

>  <Rbt.Library>
libRbt.so (2013.1, Build901 2013/11/27)

>  <Rbt.Parameter_File>
/export/apps/rDock/src/rDock_2013.1_src/data/scripts/dock_solv.prm

>  <Rbt.Receptor>
prm/blind_docking_20.prm

>  <SCORE>
73.3895

>  <SCORE.INTER>
33.0654

>  <SCORE.INTER.CONST>
1

>  <SCORE.INTER.POLAR>
0

>  <SCORE.INTER.ROT>
9

>  <SCORE.INTER.SOLV>
26.3202

>  <SCORE.INTER.VDW>
3.67021

>  <SCORE.INTER.norm>
0.787272

>  <SCORE.INTRA>
4.93871

>  <SCORE.INTRA.DIHEDRAL>
-1.84566

>  <SCORE.INTRA.DIHEDRAL.0>
16.2863

>  <SCORE.INTRA.POLAR>
0

>  <SCORE.INTRA.POLAR.0>
0

>  <SCORE.INTRA.REPUL>
-0.314433

>  <SCORE.INTRA.REPUL.0>
0.314433

>  <SCORE.INTRA.SOLV>
1.84839

>  <SCORE.INTRA.SOLV.lig_0>
-103.824

>  <SCORE.INTRA.VDW>
6.50952

>  <SCORE.INTRA.VDW.0>
-5.30945

>  <SCORE.INTRA.norm>
0.117588

>  <SCORE.RESTR>
35.3854

>  <SCORE.RESTR.CAVITY>
35.3854

>  <SCORE.RESTR.norm>
0.842509

>  <SCORE.SYSTEM>
0

>  <SCORE.SYSTEM.CONST>
0

>  <SCORE.SYSTEM.DIHEDRAL>
0

>  <SCORE.SYSTEM.SOLV>
0

>  <SCORE.SYSTEM.norm>
0

>  <SCORE.heavy>
42

>  <SCORE.norm>
1.74737

>  <RMSD>
27.509

$$$$
lig.pdb
 OpenBabel11021811513D
libRbt.so/2013.1/901 2013/11/27
 42 45  0  0  0  0  0  0  0  0999 V2000
    1.6175    9.2386    8.6764 C   0  0  2  0  0  0  0  0  0  0  0  0
    0.4268    9.5878    9.4493 O   0  0  0  0  0  0  0  0  0  0  0  0
    1.3827    7.7536    8.1476 C   0  0  2  0  0  0  0  0  0  0  0  0
    0.2124    7.7061    7.2668 N   0  0  0  0  0  0  0  0  0  0  0  0
    1.2317    6.7731    9.4108 C   0  0  1  0  0  0  0  0  0  0  0  0
    1.0276    5.4081    8.9890 O   0  0  0  0  0  0  0  0  0  0  0  0
    2.5091    6.9198   10.2553 C   0  0  2  0  0  0  0  0  0  0  0  0
    2.4128    6.0860   11.3595 O   0  0  0  0  0  0  0  0  0  0  0  0
    2.6925    8.4407   10.7042 C   0  0  2  0  0  0  0  0  0  0  0  0
    2.7929    9.3097    9.5692 O   0  0  0  0  0  0  0  0  0  0  0  0
    3.9392    8.6419   11.5180 C   0  0  0  0  0  0  0  0  0  0  0  0
    3.9187    9.9801   12.0166 O   0  0  0  0  0  0  0  0  0  0  0  0
   -0.4600   13.6475    7.8665 C   0  0  2  0  0  0  0  0  0  0  0  0
   -1.1475   14.8925    7.6016 N   0  0  0  0  0  0  0  0  0  0  0  0
   -1.3708   12.4256    7.4590 C   0  0  0  0  0  0  0  0  0  0  0  0
   -0.6486   11.0612    7.7410 C   0  0  2  0  0  0  0  0  0  0  0  0
   -1.5267    9.9578    7.3573 N   0  0  0  0  0  0  0  0  0  0  0  0
   -0.2503   10.8890    9.2739 C   0  0  2  0  0  0  0  0  0  0  0  0
    0.6776   12.0802    9.6505 C   0  0  2  0  0  0  0  0  0  0  0  0
    1.0143   11.8375   11.1032 O   0  0  0  0  0  0  0  0  0  0  0  0
   -0.1014   13.4898    9.4192 C   0  0  1  0  0  0  0  0  0  0  0  0
    0.6955   14.6873    9.6896 O   0  0  0  0  0  0  0  0  0  0  0  0
    1.8331   12.8189   11.5969 C   0  0  1  0  0  0  0  0  0  0  0  0
    3.0002   13.0763   10.7467 C   0  0  2  0  0  0  0  0  0  0  0  0
    3.8683   11.9988   10.8952 O   0  0  0  0  0  0  0  0  0  0  0  0
    3.4208   14.4799   11.2329 C   0  0  2  0  0  0  0  0  0  0  0  0
    4.7606   14.3541   11.7609 O   0  0  0  0  0  0  0  0  0  0  0  0
    2.4225   14.8365   12.2845 C   0  0  2  0  0  0  0  0  0  0  0  0
    1.2755   14.1181   11.7047 O   0  0  0  0  0  0  0  0  0  0  0  0
    2.1371   16.3830   12.3196 C   0  0  0  0  0  0  0  0  0  0  0  0
    1.5129   16.8909   11.1024 O   0  0  0  0  0  0  0  0  0  0  0  0
    4.9702   13.3476   12.7972 C   0  0  2  0  0  0  0  0  0  0  0  0
    5.5582   14.0804   14.1130 C   0  0  2  0  0  0  0  0  0  0  0  0
    6.8334   14.7832   13.7572 N   0  0  0  0  0  0  0  0  0  0  0  0
    5.7824   12.9663   15.2499 C   0  0  1  0  0  0  0  0  0  0  0  0
    4.4870   12.3451   15.5100 O   0  0  0  0  0  0  0  0  0  0  0  0
    6.8425   11.8905   14.7367 C   0  0  2  0  0  0  0  0  0  0  0  0
    8.1264   12.5908   14.5098 O   0  0  0  0  0  0  0  0  0  0  0  0
    6.2546   11.2057   13.3776 C   0  0  1  0  0  0  0  0  0  0  0  0
    5.9835   12.2746   12.3487 O   0  0  0  0  0  0  0  0  0  0  0  0
    7.2794   10.1548   12.8354 C   0  0  0  0  0  0  0  0  0  0  0  0
    7.4935    9.0132   13.7779 N   0  0  0  0  0  0  0  0  0  0  0  0
  1  3  1  0  0  0  0
  1  2  1  1  0  0  0
  3  4  1  1  0  0  0
  3  5  1  0  0  0  0
  5  6  1  6  0  0  0
  7  8  1  1  0  0  0
  7  5  1  0  0  0  0
  9 11  1  6  0  0  0
  9  7  1  0  0  0  0
 10  9  1  0  0  0  0
 10  1  1  0  0  0  0
 12 11  1  0  0  0  0
 13 14  1  1  0  0  0
 15 13  1  0  0  0  0
 16 17  1  1  0  0  0
 16 15  1  0  0  0  0
 18  2  1  6  0  0  0
 18 19  1  0  0  0  0
 18 16  1  0  0  0  0
 19 20  1  1  0  0  0
 19 21  1  0  0  0  0
 21 22  1  6  0  0  0
 21 13  1  0  0  0  0
 23 20  1  6  0  0  0
 23 29  1  0  0  0  0
 24 25  1  1  0  0  0
 24 26  1  0  0  0  0
 24 23  1  0  0  0  0
 26 27  1  1  0  0  0
 26 28  1  0  0  0  0
 28 30  1  6  0  0  0
 29 28  1  0  0  0  0
 30 31  1  0  0  0  0
 32 27  1  6  0  0  0
 32 40  1  0  0  0  0
 33 35  1  0  0  0  0
 33 32  1  0  0  0  0
 33 34  1  6  0  0  0
 35 36  1  6  0  0  0
 35 37  1  0  0  0  0
 37 38  1  6  0  0  0
 37 39  1  0  0  0  0
 39 41  1  6  0  0  0
 40 39  1  0  0  0  0
 41 42  1  0  0  0  0
M  END
>  <CHROM.1>
-133.94347972,-172.37963871,56.29991011,-179.69002276,-49.93366402,-54.60068747
64.38689320,-122.25001585,63.62002462,2.75418525,11.53414464,11.00370996
-2.61552631,-0.67094073,0.18009433

>  <Name>
lig.pdb

>  <RI>
0

>  <Rbt.Current_Directory>
/home/itssahil/PROJECTS/Mol_Feturizer/New_Systems/rnas/4wcr

>  <Rbt.Executable>
rbdock ($Id: //depot/dev/client3/rdock/2013.1/src/exe/rbdock.cxx#4 $)

>  <Rbt.Library>
libRbt.so (2013.1, Build901 2013/11/27)

>  <Rbt.Parameter_File>
/export/apps/rDock/src/rDock_2013.1_src/data/scripts/dock_solv.prm

>  <Rbt.Receptor>
prm/blind_docking_20.prm

>  <SCORE>
47.5114

>  <SCORE.INTER>
1.95432

>  <SCORE.INTER.CONST>
1

>  <SCORE.INTER.POLAR>
0

>  <SCORE.INTER.ROT>
9

>  <SCORE.INTER.SOLV>
26.5774

>  <SCORE.INTER.VDW>
-17.1562

>  <SCORE.INTER.norm>
0.0465315

>  <SCORE.INTRA>
9.65068

>  <SCORE.INTRA.DIHEDRAL>
-1.29367

>  <SCORE.INTRA.DIHEDRAL.0>
16.2863

>  <SCORE.INTRA.POLAR>
0

>  <SCORE.INTRA.POLAR.0>
0

>  <SCORE.INTRA.REPUL>
-0.105118

>  <SCORE.INTRA.REPUL.0>
0.314433

>  <SCORE.INTRA.SOLV>
2.3137

>  <SCORE.INTRA.SOLV.lig_0>
-103.824

>  <SCORE.INTRA.VDW>
9.66626

>  <SCORE.INTRA.VDW.0>
-5.30945

>  <SCORE.INTRA.norm>
0.229778

>  <SCORE.RESTR>
35.9064

>  <SCORE.RESTR.CAVITY>
35.9064

>  <SCORE.RESTR.norm>
0.854915

>  <SCORE.SYSTEM>
0

>  <SCORE.SYSTEM.CONST>
0

>  <SCORE.SYSTEM.DIHEDRAL>
0

>  <SCORE.SYSTEM.SOLV>
0

>  <SCORE.SYSTEM.norm>
0

>  <SCORE.heavy>
42

>  <SCORE.norm>
1.13122

>  <RMSD>
27.511

$$$$
lig.pdb
 OpenBabel11021811513D
libRbt.so/2013.1/901 2013/11/27
 42 45  0  0  0  0  0  0  0  0999 V2000
    6.0598    9.9408   13.3444 C   0  0  2  0  0  0  0  0  0  0  0  0
    5.0013   10.9183   13.0969 O   0  0  0  0  0  0  0  0  0  0  0  0
    7.2466   10.3108   12.3472 C   0  0  2  0  0  0  0  0  0  0  0  0
    7.7589   11.6520   12.6412 N   0  0  0  0  0  0  0  0  0  0  0  0
    6.7123   10.1827   10.8379 C   0  0  1  0  0  0  0  0  0  0  0  0
    7.7530   10.4967    9.8887 O   0  0  0  0  0  0  0  0  0  0  0  0
    6.1977    8.7441   10.6586 C   0  0  2  0  0  0  0  0  0  0  0  0
    5.7252    8.5970    9.3629 O   0  0  0  0  0  0  0  0  0  0  0  0
    5.0464    8.4419   11.7224 C   0  0  2  0  0  0  0  0  0  0  0  0
    5.5260    8.5916   13.0645 O   0  0  0  0  0  0  0  0  0  0  0  0
    4.5213    7.0395   11.6018 C   0  0  0  0  0  0  0  0  0  0  0  0
    5.6455    6.1606   11.5426 O   0  0  0  0  0  0  0  0  0  0  0  0
    4.6000   15.3446   13.2374 C   0  0  2  0  0  0  0  0  0  0  0  0
    4.9145   16.7514   13.1149 N   0  0  0  0  0  0  0  0  0  0  0  0
    5.6798   14.6216   14.1319 C   0  0  0  0  0  0  0  0  0  0  0  0
    5.3634   13.0915   14.2769 C   0  0  2  0  0  0  0  0  0  0  0  0
    6.3887   12.4592   15.1045 N   0  0  0  0  0  0  0  0  0  0  0  0
    5.3093   12.3453   12.8703 C   0  0  2  0  0  0  0  0  0  0  0  0
    4.2147   13.0452   12.0138 C   0  0  2  0  0  0  0  0  0  0  0  0
    4.2210   12.2776   10.7125 O   0  0  0  0  0  0  0  0  0  0  0  0
    4.5842   14.6168   11.8111 C   0  0  1  0  0  0  0  0  0  0  0  0
    3.5932   15.3927   11.0639 O   0  0  0  0  0  0  0  0  0  0  0  0
    3.2677   11.2935   10.7084 C   0  0  1  0  0  0  0  0  0  0  0  0
    2.0184   11.7051   10.0595 C   0  0  2  0  0  0  0  0  0  0  0  0
    1.3800   12.5977   10.9152 O   0  0  0  0  0  0  0  0  0  0  0  0
    1.3755   10.3356    9.7522 C   0  0  2  0  0  0  0  0  0  0  0  0
    0.1218   10.2930   10.4705 O   0  0  0  0  0  0  0  0  0  0  0  0
    2.3576    9.3295   10.2551 C   0  0  2  0  0  0  0  0  0  0  0  0
    3.5774   10.1106    9.9906 O   0  0  0  0  0  0  0  0  0  0  0  0
    2.3494    8.0187    9.3855 C   0  0  0  0  0  0  0  0  0  0  0  0
    1.0452    7.3676    9.3202 O   0  0  0  0  0  0  0  0  0  0  0  0
   -0.9605   11.1290    9.9600 C   0  0  2  0  0  0  0  0  0  0  0  0
   -1.4631   10.5143    8.5515 C   0  0  2  0  0  0  0  0  0  0  0  0
   -0.3081   10.4595    7.5976 N   0  0  0  0  0  0  0  0  0  0  0  0
   -2.6567   11.4381    7.9983 C   0  0  1  0  0  0  0  0  0  0  0  0
   -3.7161   11.4256    9.0028 O   0  0  0  0  0  0  0  0  0  0  0  0
   -2.1132   12.9179    7.7552 C   0  0  2  0  0  0  0  0  0  0  0  0
   -1.0578   12.8496    6.7200 O   0  0  0  0  0  0  0  0  0  0  0  0
   -1.5590   13.4960    9.1767 C   0  0  1  0  0  0  0  0  0  0  0  0
   -0.4904   12.5774    9.7144 O   0  0  0  0  0  0  0  0  0  0  0  0
   -1.0007   14.9433    8.9713 C   0  0  0  0  0  0  0  0  0  0  0  0
   -0.4305   15.5284   10.2242 N   0  0  0  0  0  0  0  0  0  0  0  0
  1  3  1  0  0  0  0
  1  2  1  6  0  0  0
  3  4  1  1  0  0  0
  3  5  1  0  0  0  0
  5  6  1  6  0  0  0
  7  8  1  6  0  0  0
  7  5  1  0  0  0  0
  9 11  1  1  0  0  0
  9  7  1  0  0  0  0
 10  9  1  0  0  0  0
 10  1  1  0  0  0  0
 12 11  1  0  0  0  0
 13 14  1  6  0  0  0
 15 13  1  0  0  0  0
 16 17  1  1  0  0  0
 16 15  1  0  0  0  0
 18  2  1  1  0  0  0
 18 19  1  0  0  0  0
 18 16  1  0  0  0  0
 19 20  1  6  0  0  0
 19 21  1  0  0  0  0
 21 22  1  6  0  0  0
 21 13  1  0  0  0  0
 23 20  1  6  0  0  0
 23 29  1  0  0  0  0
 24 25  1  1  0  0  0
 24 26  1  0  0  0  0
 24 23  1  0  0  0  0
 26 27  1  1  0  0  0
 26 28  1  0  0  0  0
 28 30  1  6  0  0  0
 29 28  1  0  0  0  0
 30 31  1  0  0  0  0
 32 27  1  6  0  0  0
 32 40  1  0  0  0  0
 33 35  1  0  0  0  0
 33 32  1  0  0  0  0
 33 34  1  6  0  0  0
 35 36  1  1  0  0  0
 35 37  1  0  0  0  0
 37 38  1  6  0  0  0
 37 39  1  0  0  0  0
 39 41  1  6  0  0  0
 40 39  1  0  0  0  0
 41 42  1  0  0  0  0
M  END
>  <CHROM.1>
-40.84677367,47.89666077,-87.88920425,95.05351946,96.16116661,72.26322528
-57.93189448,69.53777708,-178.11133775,2.93845807,11.37706770,10.80762142
0.02798460,0.48320148,-2.86655950

>  <Name>
lig.pdb

>  <RI>
0

>  <Rbt.Current_Directory>
/home/itssahil/PROJECTS/Mol_Feturizer/New_Systems/rnas/4wcr

>  <Rbt.Executable>
rbdock ($Id: //depot/dev/client3/rdock/2013.1/src/exe/rbdock.cxx#4 $)

>  <Rbt.Library>
libRbt.so (2013.1, Build901 2013/11/27)

>  <Rbt.Parameter_File>
/export/apps/rDock/src/rDock_2013.1_src/data/scripts/dock_solv.prm

>  <Rbt.Receptor>
prm/blind_docking_20.prm

>  <SCORE>
38.0321

>  <SCORE.INTER>
-7.13509

>  <SCORE.INTER.CONST>
1

>  <SCORE.INTER.POLAR>
0

>  <SCORE.INTER.ROT>
9

>  <SCORE.INTER.SOLV>
22.3925

>  <SCORE.INTER.VDW>
-21.8209

>  <SCORE.INTER.norm>
-0.169883

>  <SCORE.INTRA>
6.49915

>  <SCORE.INTRA.DIHEDRAL>
0.0194213

>  <SCORE.INTRA.DIHEDRAL.0>
16.2863

>  <SCORE.INTRA.POLAR>
0

>  <SCORE.INTRA.POLAR.0>
0

>  <SCORE.INTRA.REPUL>
-0.294573

>  <SCORE.INTRA.REPUL.0>
0.314433

>  <SCORE.INTRA.SOLV>
5.37611

>  <SCORE.INTRA.SOLV.lig_0>
-103.824

>  <SCORE.INTRA.VDW>
5.27425

>  <SCORE.INTRA.VDW.0>
-5.30945

>  <SCORE.INTRA.norm>
0.154742

>  <SCORE.RESTR>
38.668

>  <SCORE.RESTR.CAVITY>
38.668

>  <SCORE.RESTR.norm>
0.920668

>  <SCORE.SYSTEM>
0

>  <SCORE.SYSTEM.CONST>
0

>  <SCORE.SYSTEM.DIHEDRAL>
0

>  <SCORE.SYSTEM.SOLV>
0

>  <SCORE.SYSTEM.norm>
0

>  <SCORE.heavy>
42

>  <SCORE.norm>
0.905526

>  <RMSD>
27.518

$$$$
lig.pdb
 OpenBabel11021811513D
libRbt.so/2013.1/901 2013/11/27
 42 45  0  0  0  0  0  0  0  0999 V2000
   -1.6902   10.2968    8.6846 C   0  0  2  0  0  0  0  0  0  0  0  0
   -0.5797    9.8101    9.5013 O   0  0  0  0  0  0  0  0  0  0  0  0
   -1.0499   11.2823    7.6081 C   0  0  2  0  0  0  0  0  0  0  0  0
   -0.1098   10.5565    6.7495 N   0  0  0  0  0  0  0  0  0  0  0  0
   -0.3483   12.5043    8.3789 C   0  0  1  0  0  0  0  0  0  0  0  0
    0.2407   13.4373    7.4488 O   0  0  0  0  0  0  0  0  0  0  0  0
   -1.4279   13.1745    9.2460 C   0  0  2  0  0  0  0  0  0  0  0  0
   -0.8557   14.2368    9.9299 O   0  0  0  0  0  0  0  0  0  0  0  0
   -2.0474   12.1103   10.2620 C   0  0  2  0  0  0  0  0  0  0  0  0
   -2.6411   11.0087    9.5636 O   0  0  0  0  0  0  0  0  0  0  0  0
   -3.1231   12.7113   11.1215 C   0  0  0  0  0  0  0  0  0  0  0  0
   -4.0978   13.2899   10.2526 O   0  0  0  0  0  0  0  0  0  0  0  0
    2.2059    6.3443    9.5362 C   0  0  2  0  0  0  0  0  0  0  0  0
    3.0416    5.2561    9.0775 N   0  0  0  0  0  0  0  0  0  0  0  0
    0.7366    6.1699    8.9890 C   0  0  0  0  0  0  0  0  0  0  0  0
   -0.1901    7.3416    9.4695 C   0  0  2  0  0  0  0  0  0  0  0  0
   -1.5367    7.1465    8.9363 N   0  0  0  0  0  0  0  0  0  0  0  0
    0.3429    8.7690    9.0038 C   0  0  2  0  0  0  0  0  0  0  0  0
    1.7772    8.9418    9.5821 C   0  0  2  0  0  0  0  0  0  0  0  0
    2.2014   10.3118    9.1068 O   0  0  0  0  0  0  0  0  0  0  0  0
    2.7495    7.7615    9.0261 C   0  0  1  0  0  0  0  0  0  0  0  0
    4.1163    7.7901    9.5488 O   0  0  0  0  0  0  0  0  0  0  0  0
    2.3932   11.1682   10.1590 C   0  0  1  0  0  0  0  0  0  0  0  0
    3.8002   11.2865   10.5558 C   0  0  2  0  0  0  0  0  0  0  0  0
    4.1524   10.1021   11.1960 O   0  0  0  0  0  0  0  0  0  0  0  0
    3.7783   12.6137   11.3441 C   0  0  2  0  0  0  0  0  0  0  0  0
    4.1930   12.3039   12.6938 O   0  0  0  0  0  0  0  0  0  0  0  0
    2.3609   13.0783   11.2734 C   0  0  2  0  0  0  0  0  0  0  0  0
    2.0497   12.5271    9.9441 O   0  0  0  0  0  0  0  0  0  0  0  0
    2.2604   14.6479   11.2508 C   0  0  0  0  0  0  0  0  0  0  0  0
    1.0750   15.1684   11.9240 O   0  0  0  0  0  0  0  0  0  0  0  0
    5.4807   12.8372   13.1278 C   0  0  2  0  0  0  0  0  0  0  0  0
    6.1908   11.7467   14.0873 C   0  0  2  0  0  0  0  0  0  0  0  0
    5.2918   11.4543   15.2505 N   0  0  0  0  0  0  0  0  0  0  0  0
    7.6089   12.3399   14.5574 C   0  0  1  0  0  0  0  0  0  0  0  0
    8.3940   12.5933   13.3529 O   0  0  0  0  0  0  0  0  0  0  0  0
    7.3742   13.6843   15.3833 C   0  0  2  0  0  0  0  0  0  0  0  0
    6.5874   13.3444   16.5898 O   0  0  0  0  0  0  0  0  0  0  0  0
    6.6058   14.7485   14.4144 C   0  0  1  0  0  0  0  0  0  0  0  0
    5.3121   14.1460   13.9264 O   0  0  0  0  0  0  0  0  0  0  0  0
    6.3430   16.0763   15.1996 C   0  0  0  0  0  0  0  0  0  0  0  0
    5.8658   15.8392   16.5972 N   0  0  0  0  0  0  0  0  0  0  0  0
  1  3  1  0  0  0  0
  1  2  1  1  0  0  0
  3  4  1  1  0  0  0
  3  5  1  0  0  0  0
  5  6  1  6  0  0  0
  7  8  1  1  0  0  0
  7  5  1  0  0  0  0
  9 11  1  6  0  0  0
  9  7  1  0  0  0  0
 10  9  1  0  0  0  0
 10  1  1  0  0  0  0
 12 11  1  0  0  0  0
 13 14  1  6  0  0  0
 15 13  1  0  0  0  0
 16 17  1  6  0  0  0
 16 15  1  0  0  0  0
 18  2  1  1  0  0  0
 18 19  1  0  0  0  0
 18 16  1  0  0  0  0
 19 20  1  6  0  0  0
 19 21  1  0  0  0  0
 21 22  1  1  0  0  0
 21 13  1  0  0  0  0
 23 20  1  6  0  0  0
 23 29  1  0  0  0  0
 24 25  1  1  0  0  0
 24 26  1  0  0  0  0
 24 23  1  0  0  0  0
 26 27  1  1  0  0  0
 26 28  1  0  0  0  0
 28 30  1  6  0  0  0
 29 28  1  0  0  0  0
 30 31  1  0  0  0  0
 32 27  1  1  0  0  0
 32 40  1  0  0  0  0
 33 35  1  0  0  0  0
 33 32  1  0  0  0  0
 33 34  1  1  0  0  0
 35 36  1  6  0  0  0
 35 37  1  0  0  0  0
 37 38  1  1  0  0  0
 37 39  1  0  0  0  0
 39 41  1  1  0  0  0
 40 39  1  0  0  0  0
 41 42  1  0  0  0  0
M  END
>  <CHROM.1>
-76.78794844,55.05581486,-92.74371714,115.95020561,97.66875664,112.21793100
-146.74241806,-143.64170171,-42.74691182,2.24794645,11.51663585,11.05218137
2.51776941,0.48541389,-2.72406985

>  <Name>
lig.pdb

>  <RI>
0

>  <Rbt.Current_Directory>
/home/itssahil/PROJECTS/Mol_Feturizer/New_Systems/rnas/4wcr

>  <Rbt.Executable>
rbdock ($Id: //depot/dev/client3/rdock/2013.1/src/exe/rbdock.cxx#4 $)

>  <Rbt.Library>
libRbt.so (2013.1, Build901 2013/11/27)

>  <Rbt.Parameter_File>
/export/apps/rDock/src/rDock_2013.1_src/data/scripts/dock_solv.prm

>  <Rbt.Receptor>
prm/blind_docking_20.prm

>  <SCORE>
45.1642

>  <SCORE.INTER>
-10.9929

>  <SCORE.INTER.CONST>
1

>  <SCORE.INTER.POLAR>
0

>  <SCORE.INTER.ROT>
9

>  <SCORE.INTER.SOLV>
15.6091

>  <SCORE.INTER.VDW>
-22.1316

>  <SCORE.INTER.norm>
-0.261736

>  <SCORE.INTRA>
6.24446

>  <SCORE.INTRA.DIHEDRAL>
16.8799

>  <SCORE.INTRA.DIHEDRAL.0>
16.2863

>  <SCORE.INTRA.POLAR>
0

>  <SCORE.INTRA.POLAR.0>
0

>  <SCORE.INTRA.REPUL>
-0.314433

>  <SCORE.INTRA.REPUL.0>
0.314433

>  <SCORE.INTRA.SOLV>
0.531827

>  <SCORE.INTRA.SOLV.lig_0>
-103.824

>  <SCORE.INTRA.VDW>
-0.88923

>  <SCORE.INTRA.VDW.0>
-5.30945

>  <SCORE.INTRA.norm>
0.148678

>  <SCORE.RESTR>
49.9127

>  <SCORE.RESTR.CAVITY>
49.9127

>  <SCORE.RESTR.norm>
1.1884

>  <SCORE.SYSTEM>
0

>  <SCORE.SYSTEM.CONST>
0

>  <SCORE.SYSTEM.DIHEDRAL>
0

>  <SCORE.SYSTEM.SOLV>
0

>  <SCORE.SYSTEM.norm>
0

>  <SCORE.heavy>
42

>  <SCORE.norm>
1.07534

>  <RMSD>
27.519

$$$$
lig.pdb
 OpenBabel11021811513D
libRbt.so/2013.1/901 2013/11/27
 42 45  0  0  0  0  0  0  0  0999 V2000
    1.5793    8.7839    8.7380 C   0  0  2  0  0  0  0  0  0  0  0  0
    0.7673    9.0628    9.9212 O   0  0  0  0  0  0  0  0  0  0  0  0
    0.5710    8.2526    7.6240 C   0  0  2  0  0  0  0  0  0  0  0  0
   -0.4130    9.2871    7.2932 N   0  0  0  0  0  0  0  0  0  0  0  0
   -0.1214    6.9040    8.1545 C   0  0  1  0  0  0  0  0  0  0  0  0
   -1.0396    6.3707    7.1772 O   0  0  0  0  0  0  0  0  0  0  0  0
    1.0073    5.9086    8.4732 C   0  0  2  0  0  0  0  0  0  0  0  0
    0.4447    4.7289    8.9374 O   0  0  0  0  0  0  0  0  0  0  0  0
    1.9942    6.5354    9.5603 C   0  0  2  0  0  0  0  0  0  0  0  0
    2.5803    7.7551    9.0889 O   0  0  0  0  0  0  0  0  0  0  0  0
    3.1282    5.6079    9.8935 C   0  0  0  0  0  0  0  0  0  0  0  0
    2.5727    4.4585   10.5338 O   0  0  0  0  0  0  0  0  0  0  0  0
   -1.4539   12.8207    9.0742 C   0  0  2  0  0  0  0  0  0  0  0  0
   -2.1431   14.0770    9.2733 N   0  0  0  0  0  0  0  0  0  0  0  0
   -2.1217   11.6894    9.9478 C   0  0  0  0  0  0  0  0  0  0  0  0
   -1.3887   10.3157    9.7529 C   0  0  2  0  0  0  0  0  0  0  0  0
   -2.0321    9.2992   10.5827 N   0  0  0  0  0  0  0  0  0  0  0  0
    0.1552   10.3896   10.1392 C   0  0  2  0  0  0  0  0  0  0  0  0
    0.8074   11.4825    9.2438 C   0  0  2  0  0  0  0  0  0  0  0  0
    2.2590   11.4814    9.6628 O   0  0  0  0  0  0  0  0  0  0  0  0
    0.0865   12.9184    9.5007 C   0  0  1  0  0  0  0  0  0  0  0  0
    0.5826   14.0159    8.6691 O   0  0  0  0  0  0  0  0  0  0  0  0
    2.4995   12.4185   10.6330 C   0  0  1  0  0  0  0  0  0  0  0  0
    3.8956   12.4366   11.0822 C   0  0  2  0  0  0  0  0  0  0  0  0
    4.0992   11.2955   11.8523 O   0  0  0  0  0  0  0  0  0  0  0  0
    3.9823   13.8336   11.7335 C   0  0  2  0  0  0  0  0  0  0  0  0
    4.3125   13.6250   13.1253 O   0  0  0  0  0  0  0  0  0  0  0  0
    2.6244   14.4270   11.5503 C   0  0  2  0  0  0  0  0  0  0  0  0
    2.3069   13.7753   10.2688 O   0  0  0  0  0  0  0  0  0  0  0  0
    2.6880   15.9881   11.3679 C   0  0  0  0  0  0  0  0  0  0  0  0
    1.3782   16.6312   11.3658 O   0  0  0  0  0  0  0  0  0  0  0  0
    4.9243   14.7452   13.8338 C   0  0  2  0  0  0  0  0  0  0  0  0
    5.7010   14.1699   15.1299 C   0  0  2  0  0  0  0  0  0  0  0  0
    4.7293   13.4293   15.9983 N   0  0  0  0  0  0  0  0  0  0  0  0
    6.3745   15.4086   15.9020 C   0  0  1  0  0  0  0  0  0  0  0  0
    7.2892   16.0571   14.9669 O   0  0  0  0  0  0  0  0  0  0  0  0
    5.2356   16.4163   16.3834 C   0  0  2  0  0  0  0  0  0  0  0  0
    4.3619   15.6932   17.3342 O   0  0  0  0  0  0  0  0  0  0  0  0
    4.4287   16.9388   15.0652 C   0  0  1  0  0  0  0  0  0  0  0  0
    3.8651   15.7576   14.3157 O   0  0  0  0  0  0  0  0  0  0  0  0
    3.2896   17.9185   15.5029 C   0  0  0  0  0  0  0  0  0  0  0  0
    3.7613   18.9658   16.4609 N   0  0  0  0  0  0  0  0  0  0  0  0
  1  3  1  0  0  0  0
  1  2  1  1  0  0  0
  3  4  1  1  0  0  0
  3  5  1  0  0  0  0
  5  6  1  6  0  0  0
  7  8  1  1  0  0  0
  7  5  1  0  0  0  0
  9 11  1  6  0  0  0
  9  7  1  0  0  0  0
 10  9  1  0  0  0  0
 10  1  1  0  0  0  0
 12 11  1  0  0  0  0
 13 14  1  1  0  0  0
 15 13  1  0  0  0  0
 16 17  1  1  0  0  0
 16 15  1  0  0  0  0
 18  2  1  6  0  0  0
 18 19  1  0  0  0  0
 18 16  1  0  0  0  0
 19 20  1  1  0  0  0
 19 21  1  0  0  0  0
 21 22  1  6  0  0  0
 21 13  1  0  0  0  0
 23 20  1  6  0  0  0
 23 29  1  0  0  0  0
 24 25  1  1  0  0  0
 24 26  1  0  0  0  0
 24 23  1  0  0  0  0
 26 27  1  1  0  0  0
 26 28  1  0  0  0  0
 28 30  1  6  0  0  0
 29 28  1  0  0  0  0
 30 31  1  0  0  0  0
 32 27  1  1  0  0  0
 32 40  1  0  0  0  0
 33 35  1  0  0  0  0
 33 32  1  0  0  0  0
 33 34  1  1  0  0  0
 35 36  1  6  0  0  0
 35 37  1  0  0  0  0
 37 38  1  1  0  0  0
 37 39  1  0  0  0  0
 39 41  1  1  0  0  0
 40 39  1  0  0  0  0
 41 42  1  0  0  0  0
M  END
>  <CHROM.1>
-89.69406035,-65.61796947,101.74097685,-93.68542046,179.16522618,158.07833838
-172.20862434,-158.95663954,48.19200944,2.14837140,11.93548677,11.31400039
-2.05763763,-0.68623048,0.29776602

>  <Name>
lig.pdb

>  <RI>
0

>  <Rbt.Current_Directory>
/home/itssahil/PROJECTS/Mol_Feturizer/New_Systems/rnas/4wcr

>  <Rbt.Executable>
rbdock ($Id: //depot/dev/client3/rdock/2013.1/src/exe/rbdock.cxx#4 $)

>  <Rbt.Library>
libRbt.so (2013.1, Build901 2013/11/27)

>  <Rbt.Parameter_File>
/export/apps/rDock/src/rDock_2013.1_src/data/scripts/dock_solv.prm

>  <Rbt.Receptor>
prm/blind_docking_80.prm

>  <SCORE>
-4.30113

>  <SCORE.INTER>
-15.1626

>  <SCORE.INTER.CONST>
1

>  <SCORE.INTER.POLAR>
0

>  <SCORE.INTER.ROT>
9

>  <SCORE.INTER.SOLV>
28.4596

>  <SCORE.INTER.VDW>
-29.1949

>  <SCORE.INTER.norm>
-0.361014

>  <SCORE.INTRA>
6.21004

>  <SCORE.INTRA.DIHEDRAL>
2.55417

>  <SCORE.INTRA.DIHEDRAL.0>
16.2863

>  <SCORE.INTRA.POLAR>
0

>  <SCORE.INTRA.POLAR.0>
0

>  <SCORE.INTRA.REPUL>
-0.314433

>  <SCORE.INTRA.REPUL.0>
0.314433

>  <SCORE.INTRA.SOLV>
0.0626657

>  <SCORE.INTRA.SOLV.lig_0>
-103.824

>  <SCORE.INTRA.VDW>
6.47378

>  <SCORE.INTRA.VDW.0>
-5.30945

>  <SCORE.INTRA.norm>
0.147858

>  <SCORE.RESTR>
4.65142

>  <SCORE.RESTR.CAVITY>
4.65142

>  <SCORE.RESTR.norm>
0.110748

>  <SCORE.SYSTEM>
0

>  <SCORE.SYSTEM.CONST>
0

>  <SCORE.SYSTEM.DIHEDRAL>
0

>  <SCORE.SYSTEM.SOLV>
0

>  <SCORE.SYSTEM.norm>
0

>  <SCORE.heavy>
42

>  <SCORE.norm>
-0.102408

>  <RMSD>
27.524

$$$$
lig.pdb
 OpenBabel11021811513D
libRbt.so/2013.1/901 2013/11/27
 42 45  0  0  0  0  0  0  0  0999 V2000
    1.2140    8.5841    8.0634 C   0  0  2  0  0  0  0  0  0  0  0  0
    1.2075    9.9964    8.4409 O   0  0  0  0  0  0  0  0  0  0  0  0
    0.3780    7.8216    9.1857 C   0  0  2  0  0  0  0  0  0  0  0  0
   -1.0060    8.3030    9.2045 N   0  0  0  0  0  0  0  0  0  0  0  0
    1.1098    8.0228   10.6013 C   0  0  1  0  0  0  0  0  0  0  0  0
    0.3991    7.3413   11.6564 O   0  0  0  0  0  0  0  0  0  0  0  0
    2.5454    7.4913   10.4504 C   0  0  2  0  0  0  0  0  0  0  0  0
    3.2101    7.6511   11.6572 O   0  0  0  0  0  0  0  0  0  0  0  0
    3.2951    8.2750    9.2790 C   0  0  2  0  0  0  0  0  0  0  0  0
    2.6149    8.1153    8.0278 O   0  0  0  0  0  0  0  0  0  0  0  0
    4.6990    7.7793    9.0775 C   0  0  0  0  0  0  0  0  0  0  0  0
    4.6372    6.3624    8.9095 O   0  0  0  0  0  0  0  0  0  0  0  0
   -1.9240   13.1452    8.6683 C   0  0  2  0  0  0  0  0  0  0  0  0
   -3.1760   13.8114    8.9539 N   0  0  0  0  0  0  0  0  0  0  0  0
   -2.1843   11.8326    7.8327 C   0  0  0  0  0  0  0  0  0  0  0  0
   -0.8404   11.0881    7.5132 C   0  0  2  0  0  0  0  0  0  0  0  0
   -1.1258    9.8772    6.7463 N   0  0  0  0  0  0  0  0  0  0  0  0
   -0.0412   10.6829    8.8306 C   0  0  2  0  0  0  0  0  0  0  0  0
    0.2407   11.9911    9.6249 C   0  0  2  0  0  0  0  0  0  0  0  0
    1.0031   11.5234   10.8426 O   0  0  0  0  0  0  0  0  0  0  0  0
   -1.1603   12.7230   10.0110 C   0  0  1  0  0  0  0  0  0  0  0  0
   -1.0171   13.9980   10.7153 O   0  0  0  0  0  0  0  0  0  0  0  0
    1.7852   12.5240   11.3570 C   0  0  1  0  0  0  0  0  0  0  0  0
    3.0016   12.7641   10.5736 C   0  0  2  0  0  0  0  0  0  0  0  0
    3.8638   11.6970   10.8072 O   0  0  0  0  0  0  0  0  0  0  0  0
    3.3847   14.1839   11.0434 C   0  0  2  0  0  0  0  0  0  0  0  0
    4.6897   14.0821   11.6569 O   0  0  0  0  0  0  0  0  0  0  0  0
    2.3214   14.5645   12.0202 C   0  0  2  0  0  0  0  0  0  0  0  0
    1.2160   13.8222   11.3918 O   0  0  0  0  0  0  0  0  0  0  0  0
    2.0271   16.1095   11.9921 C   0  0  0  0  0  0  0  0  0  0  0  0
    1.7071   16.6204   10.6633 O   0  0  0  0  0  0  0  0  0  0  0  0
    4.8376   13.1115   12.7371 C   0  0  2  0  0  0  0  0  0  0  0  0
    5.3037   13.8961   14.0718 C   0  0  2  0  0  0  0  0  0  0  0  0
    6.5880   14.6180   13.7959 N   0  0  0  0  0  0  0  0  0  0  0  0
    5.4605   12.8212   15.2567 C   0  0  1  0  0  0  0  0  0  0  0  0
    4.1621   12.1774   15.4332 O   0  0  0  0  0  0  0  0  0  0  0  0
    6.5806   11.7562   14.8621 C   0  0  2  0  0  0  0  0  0  0  0  0
    7.8633   12.4796   14.7155 O   0  0  0  0  0  0  0  0  0  0  0  0
    6.1170   11.0183   13.4828 C   0  0  1  0  0  0  0  0  0  0  0  0
    5.9059   12.0501   12.4032 O   0  0  0  0  0  0  0  0  0  0  0  0
    7.2037    9.9765   13.0557 C   0  0  0  0  0  0  0  0  0  0  0  0
    6.8650    9.2752   11.7787 N   0  0  0  0  0  0  0  0  0  0  0  0
  1  3  1  0  0  0  0
  1  2  1  1  0  0  0
  3  4  1  1  0  0  0
  3  5  1  0  0  0  0
  5  6  1  1  0  0  0
  7  8  1  1  0  0  0
  7  5  1  0  0  0  0
  9 11  1  6  0  0  0
  9  7  1  0  0  0  0
 10  9  1  0  0  0  0
 10  1  1  0  0  0  0
 12 11  1  0  0  0  0
 13 14  1  1  0  0  0
 15 13  1  0  0  0  0
 16 17  1  1  0  0  0
 16 15  1  0  0  0  0
 18  2  1  6  0  0  0
 18 19  1  0  0  0  0
 18 16  1  0  0  0  0
 19 20  1  1  0  0  0
 19 21  1  0  0  0  0
 21 22  1  1  0  0  0
 21 13  1  0  0  0  0
 23 20  1  6  0  0  0
 23 29  1  0  0  0  0
 24 25  1  1  0  0  0
 24 26  1  0  0  0  0
 24 23  1  0  0  0  0
 26 27  1  1  0  0  0
 26 28  1  0  0  0  0
 28 30  1  6  0  0  0
 29 28  1  0  0  0  0
 30 31  1  0  0  0  0
 32 27  1  6  0  0  0
 32 40  1  0  0  0  0
 33 35  1  0  0  0  0
 33 32  1  0  0  0  0
 33 34  1  6  0  0  0
 35 36  1  6  0  0  0
 35 37  1  0  0  0  0
 37 38  1  6  0  0  0
 37 39  1  0  0  0  0
 39 41  1  6  0  0  0
 40 39  1  0  0  0  0
 41 42  1  0  0  0  0
M  END
>  <CHROM.1>
-47.72659058,52.75669677,-80.41696271,155.26146214,-76.10444837,-54.85130817
54.02628153,-120.77978760,-178.77777768,2.52717905,11.32813482,10.90521191
-2.66029134,-0.54483705,0.35295193

>  <Name>
lig.pdb

>  <RI>
0

>  <Rbt.Current_Directory>
/home/itssahil/PROJECTS/Mol_Feturizer/New_Systems/rnas/4wcr

>  <Rbt.Executable>
rbdock ($Id: //depot/dev/client3/rdock/2013.1/src/exe/rbdock.cxx#4 $)

>  <Rbt.Library>
libRbt.so (2013.1, Build901 2013/11/27)

>  <Rbt.Parameter_File>
/export/apps/rDock/src/rDock_2013.1_src/data/scripts/dock_solv.prm

>  <Rbt.Receptor>
prm/blind_docking_20.prm

>  <SCORE>
72.2503

>  <SCORE.INTER>
32.3321

>  <SCORE.INTER.CONST>
1

>  <SCORE.INTER.POLAR>
0

>  <SCORE.INTER.ROT>
9

>  <SCORE.INTER.SOLV>
25.6722

>  <SCORE.INTER.VDW>
3.39736

>  <SCORE.INTER.norm>
0.769812

>  <SCORE.INTRA>
4.35497

>  <SCORE.INTRA.DIHEDRAL>
-1.70138

>  <SCORE.INTRA.DIHEDRAL.0>
16.2863

>  <SCORE.INTRA.POLAR>
0

>  <SCORE.INTRA.POLAR.0>
0

>  <SCORE.INTRA.REPUL>
-0.314433

>  <SCORE.INTRA.REPUL.0>
0.314433

>  <SCORE.INTRA.SOLV>
2.43194

>  <SCORE.INTRA.SOLV.lig_0>
-103.824

>  <SCORE.INTRA.VDW>
5.56185

>  <SCORE.INTRA.VDW.0>
-5.30945

>  <SCORE.INTRA.norm>
0.10369

>  <SCORE.RESTR>
35.5632

>  <SCORE.RESTR.CAVITY>
35.5632

>  <SCORE.RESTR.norm>
0.846744

>  <SCORE.SYSTEM>
0

>  <SCORE.SYSTEM.CONST>
0

>  <SCORE.SYSTEM.DIHEDRAL>
0

>  <SCORE.SYSTEM.SOLV>
0

>  <SCORE.SYSTEM.norm>
0

>  <SCORE.heavy>
42

>  <SCORE.norm>
1.72025

>  <RMSD>
27.533

$$$$
lig.pdb
 OpenBabel11021811513D
libRbt.so/2013.1/901 2013/11/27
 42 45  0  0  0  0  0  0  0  0999 V2000
    0.6216   10.9936    9.8611 C   0  0  2  0  0  0  0  0  0  0  0  0
    1.0677   10.2404    8.6903 O   0  0  0  0  0  0  0  0  0  0  0  0
   -0.8637   10.5018   10.1647 C   0  0  2  0  0  0  0  0  0  0  0  0
   -0.8705    9.0723   10.4872 N   0  0  0  0  0  0  0  0  0  0  0  0
   -1.7900   10.8424    8.8975 C   0  0  1  0  0  0  0  0  0  0  0  0
   -3.1537   10.4274    9.1227 O   0  0  0  0  0  0  0  0  0  0  0  0
   -1.6919   12.3587    8.6573 C   0  0  2  0  0  0  0  0  0  0  0  0
   -2.4805   12.6900    7.5654 O   0  0  0  0  0  0  0  0  0  0  0  0
   -0.1704   12.7724    8.4074 C   0  0  2  0  0  0  0  0  0  0  0  0
    0.6520   12.4337    9.5310 O   0  0  0  0  0  0  0  0  0  0  0  0
   -0.0171   14.2504    8.1857 C   0  0  0  0  0  0  0  0  0  0  0  0
   -0.6189   14.5637    6.9290 O   0  0  0  0  0  0  0  0  0  0  0  0
    2.0773    6.2665   10.4111 C   0  0  2  0  0  0  0  0  0  0  0  0
    2.5889    4.9188   10.5339 N   0  0  0  0  0  0  0  0  0  0  0  0
    1.0983    6.3665    9.1781 C   0  0  0  0  0  0  0  0  0  0  0  0
    0.5323    7.8216    9.0202 C   0  0  2  0  0  0  0  0  0  0  0  0
   -0.3621    7.8729    7.8655 N   0  0  0  0  0  0  0  0  0  0  0  0
    1.6842    8.9046    8.8237 C   0  0  2  0  0  0  0  0  0  0  0  0
    2.6196    8.8196   10.0644 C   0  0  2  0  0  0  0  0  0  0  0  0
    3.6686    9.8757    9.8056 O   0  0  0  0  0  0  0  0  0  0  0  0
    3.2556    7.3267   10.1834 C   0  0  1  0  0  0  0  0  0  0  0  0
    4.1129    7.1119   11.3500 O   0  0  0  0  0  0  0  0  0  0  0  0
    3.5660   10.9109   10.6973 C   0  0  1  0  0  0  0  0  0  0  0  0
    4.8638   11.4920   11.0564 C   0  0  2  0  0  0  0  0  0  0  0  0
    5.5131   10.5801   11.8833 O   0  0  0  0  0  0  0  0  0  0  0  0
    4.4330   12.8669   11.6109 C   0  0  2  0  0  0  0  0  0  0  0  0
    4.8643   12.9141   12.9898 O   0  0  0  0  0  0  0  0  0  0  0  0
    2.9460   12.8860   11.4755 C   0  0  2  0  0  0  0  0  0  0  0  0
    2.8583   12.0593   10.2603 O   0  0  0  0  0  0  0  0  0  0  0  0
    2.4033   14.3347   11.1907 C   0  0  0  0  0  0  0  0  0  0  0  0
    0.9478   14.4322   11.2265 O   0  0  0  0  0  0  0  0  0  0  0  0
    5.2066   14.2264   13.5300 C   0  0  2  0  0  0  0  0  0  0  0  0
    5.7797   14.0307   15.0291 C   0  0  2  0  0  0  0  0  0  0  0  0
    4.7456   13.3397   15.8657 N   0  0  0  0  0  0  0  0  0  0  0  0
    6.1575   15.4792   15.6149 C   0  0  1  0  0  0  0  0  0  0  0  0
    7.1585   16.0596   14.7246 O   0  0  0  0  0  0  0  0  0  0  0  0
    4.8466   16.3860   15.6739 C   0  0  2  0  0  0  0  0  0  0  0  0
    3.8906   15.7421   16.6021 O   0  0  0  0  0  0  0  0  0  0  0  0
    4.2539   16.5219   14.1599 C   0  0  1  0  0  0  0  0  0  0  0  0
    3.9729   15.1494   13.6014 O   0  0  0  0  0  0  0  0  0  0  0  0
    2.9542   17.3931   14.1828 C   0  0  0  0  0  0  0  0  0  0  0  0
    2.4009   17.6458   12.8163 N   0  0  0  0  0  0  0  0  0  0  0  0
  1  3  1  0  0  0  0
  1  2  1  6  0  0  0
  3  4  1  6  0  0  0
  3  5  1  0  0  0  0
  5  6  1  1  0  0  0
  7  8  1  6  0  0  0
  7  5  1  0  0  0  0
  9 11  1  1  0  0  0
  9  7  1  0  0  0  0
 10  9  1  0  0  0  0
 10  1  1  0  0  0  0
 12 11  1  0  0  0  0
 13 14  1  6  0  0  0
 15 13  1  0  0  0  0
 16 17  1  6  0  0  0
 16 15  1  0  0  0  0
 18  2  1  1  0  0  0
 18 19  1  0  0  0  0
 18 16  1  0  0  0  0
 19 20  1  6  0  0  0
 19 21  1  0  0  0  0
 21 22  1  1  0  0  0
 21 13  1  0  0  0  0
 23 20  1  6  0  0  0
 23 29  1  0  0  0  0
 24 25  1  1  0  0  0
 24 26  1  0  0  0  0
 24 23  1  0  0  0  0
 26 27  1  1  0  0  0
 26 28  1  0  0  0  0
 28 30  1  6  0  0  0
 29 28  1  0  0  0  0
 30 31  1  0  0  0  0
 32 27  1  1  0  0  0
 32 40  1  0  0  0  0
 33 35  1  0  0  0  0
 33 32  1  0  0  0  0
 33 34  1  1  0  0  0
 35 36  1  6  0  0  0
 35 37  1  0  0  0  0
 37 38  1  1  0  0  0
 37 39  1  0  0  0  0
 39 41  1  1  0  0  0
 40 39  1  0  0  0  0
 41 42  1  0  0  0  0
M  END
>  <CHROM.1>
-86.35650167,-68.71993956,80.15890170,112.39817529,145.55766513,149.73357713
-172.33890064,-175.13250494,175.96381455,2.27254051,11.95889234,11.13266639
2.21585807,0.65988281,-2.86659094

>  <Name>
lig.pdb

>  <RI>
0

>  <Rbt.Current_Directory>
/home/itssahil/PROJECTS/Mol_Feturizer/New_Systems/rnas/4wcr

>  <Rbt.Executable>
rbdock ($Id: //depot/dev/client3/rdock/2013.1/src/exe/rbdock.cxx#4 $)

>  <Rbt.Library>
libRbt.so (2013.1, Build901 2013/11/27)

>  <Rbt.Parameter_File>
/export/apps/rDock/src/rDock_2013.1_src/data/scripts/dock_solv.prm

>  <Rbt.Receptor>
prm/blind_docking_80.prm

>  <SCORE>
-1.35246

>  <SCORE.INTER>
-17.6546

>  <SCORE.INTER.CONST>
1

>  <SCORE.INTER.POLAR>
0

>  <SCORE.INTER.ROT>
9

>  <SCORE.INTER.SOLV>
31.0198

>  <SCORE.INTER.VDW>
-31.7096

>  <SCORE.INTER.norm>
-0.420347

>  <SCORE.INTRA>
9.20159

>  <SCORE.INTRA.DIHEDRAL>
4.44867

>  <SCORE.INTRA.DIHEDRAL.0>
16.2863

>  <SCORE.INTRA.POLAR>
0

>  <SCORE.INTRA.POLAR.0>
0

>  <SCORE.INTRA.REPUL>
-0.26761

>  <SCORE.INTRA.REPUL.0>
0.314433

>  <SCORE.INTRA.SOLV>
3.12977

>  <SCORE.INTRA.SOLV.lig_0>
-103.824

>  <SCORE.INTRA.VDW>
6.75041

>  <SCORE.INTRA.VDW.0>
-5.30945

>  <SCORE.INTRA.norm>
0.219085

>  <SCORE.RESTR>
7.10052

>  <SCORE.RESTR.CAVITY>
7.10052

>  <SCORE.RESTR.norm>
0.16906

>  <SCORE.SYSTEM>
0

>  <SCORE.SYSTEM.CONST>
0

>  <SCORE.SYSTEM.DIHEDRAL>
0

>  <SCORE.SYSTEM.SOLV>
0

>  <SCORE.SYSTEM.norm>
0

>  <SCORE.heavy>
42

>  <SCORE.norm>
-0.0322015

>  <RMSD>
27.537

$$$$
lig.pdb
 OpenBabel11021811513D
libRbt.so/2013.1/901 2013/11/27
 42 45  0  0  0  0  0  0  0  0999 V2000
    1.2806   14.7745   12.0599 C   0  0  2  0  0  0  0  0  0  0  0  0
    2.4072   14.1761   11.3457 O   0  0  0  0  0  0  0  0  0  0  0  0
    0.5731   15.7593   11.0258 C   0  0  2  0  0  0  0  0  0  0  0  0
    0.0628   15.0082    9.8755 N   0  0  0  0  0  0  0  0  0  0  0  0
    1.6233   16.8944   10.5918 C   0  0  1  0  0  0  0  0  0  0  0  0
    1.0302   17.8241    9.6610 O   0  0  0  0  0  0  0  0  0  0  0  0
    2.0878   17.5994   11.8778 C   0  0  2  0  0  0  0  0  0  0  0  0
    3.0001   18.5881   11.5407 O   0  0  0  0  0  0  0  0  0  0  0  0
    2.7412   16.5373   12.8745 C   0  0  2  0  0  0  0  0  0  0  0  0
    1.8052   15.5115   13.2284 O   0  0  0  0  0  0  0  0  0  0  0  0
    3.1954   17.1734   14.1576 C   0  0  0  0  0  0  0  0  0  0  0  0
    3.7710   16.1481   14.9683 O   0  0  0  0  0  0  0  0  0  0  0  0
    5.2988   10.8072   11.5935 C   0  0  2  0  0  0  0  0  0  0  0  0
    6.0867    9.7169   12.1259 N   0  0  0  0  0  0  0  0  0  0  0  0
    5.5378   12.1159   12.4413 C   0  0  0  0  0  0  0  0  0  0  0  0
    4.6899   13.3139   11.8861 C   0  0  2  0  0  0  0  0  0  0  0  0
    4.9341   14.5017   12.7016 N   0  0  0  0  0  0  0  0  0  0  0  0
    3.1269   13.0050   11.8869 C   0  0  2  0  0  0  0  0  0  0  0  0
    2.9029   11.7345   11.0168 C   0  0  2  0  0  0  0  0  0  0  0  0
    1.4082   11.5185   11.0615 O   0  0  0  0  0  0  0  0  0  0  0  0
    3.7319   10.4794   11.6370 C   0  0  1  0  0  0  0  0  0  0  0  0
    3.6404    9.2380   10.8670 O   0  0  0  0  0  0  0  0  0  0  0  0
    0.8858   11.3787    9.8025 C   0  0  1  0  0  0  0  0  0  0  0  0
    0.6268    9.9817    9.4387 C   0  0  2  0  0  0  0  0  0  0  0  0
    1.8590    9.3760    9.2118 O   0  0  0  0  0  0  0  0  0  0  0  0
   -0.3741   10.1558    8.2764 C   0  0  2  0  0  0  0  0  0  0  0  0
    0.2408    9.5718    7.1057 O   0  0  0  0  0  0  0  0  0  0  0  0
   -0.5605   11.6318    8.1488 C   0  0  2  0  0  0  0  0  0  0  0  0
   -0.3839   11.9662    9.5717 O   0  0  0  0  0  0  0  0  0  0  0  0
   -2.0159   11.9990    7.6782 C   0  0  0  0  0  0  0  0  0  0  0  0
   -2.2032   13.4209    7.4097 O   0  0  0  0  0  0  0  0  0  0  0  0
    0.3803    8.1188    7.0884 C   0  0  2  0  0  0  0  0  0  0  0  0
   -0.8122    7.4995    6.1892 C   0  0  2  0  0  0  0  0  0  0  0  0
   -2.1315    7.9227    6.7612 N   0  0  0  0  0  0  0  0  0  0  0  0
   -0.6492    5.9004    6.1722 C   0  0  1  0  0  0  0  0  0  0  0  0
    0.6641    5.6041    5.6073 O   0  0  0  0  0  0  0  0  0  0  0  0
   -0.7745    5.3385    7.6598 C   0  0  2  0  0  0  0  0  0  0  0  0
   -2.1305    5.6642    8.1554 O   0  0  0  0  0  0  0  0  0  0  0  0
    0.4018    6.0204    8.5616 C   0  0  1  0  0  0  0  0  0  0  0  0
    0.2750    7.5223    8.5069 O   0  0  0  0  0  0  0  0  0  0  0  0
    0.2979    5.5038   10.0350 C   0  0  0  0  0  0  0  0  0  0  0  0
    0.4582    4.0206   10.1425 N   0  0  0  0  0  0  0  0  0  0  0  0
  1  3  1  0  0  0  0
  1  2  1  6  0  0  0
  3  4  1  6  0  0  0
  3  5  1  0  0  0  0
  5  6  1  6  0  0  0
  7  8  1  6  0  0  0
  7  5  1  0  0  0  0
  9 11  1  1  0  0  0
  9  7  1  0  0  0  0
 10  9  1  0  0  0  0
 10  1  1  0  0  0  0
 12 11  1  0  0  0  0
 13 14  1  1  0  0  0
 15 13  1  0  0  0  0
 16 17  1  1  0  0  0
 16 15  1  0  0  0  0
 18  2  1  6  0  0  0
 18 19  1  0  0  0  0
 18 16  1  0  0  0  0
 19 20  1  1  0  0  0
 19 21  1  0  0  0  0
 21 22  1  6  0  0  0
 21 13  1  0  0  0  0
 23 20  1  1  0  0  0
 23 29  1  0  0  0  0
 24 25  1  6  0  0  0
 24 26  1  0  0  0  0
 24 23  1  0  0  0  0
 26 27  1  6  0  0  0
 26 28  1  0  0  0  0
 28 30  1  1  0  0  0
 29 28  1  0  0  0  0
 30 31  1  0  0  0  0
 32 27  1  1  0  0  0
 32 40  1  0  0  0  0
 33 35  1  0  0  0  0
 33 32  1  0  0  0  0
 33 34  1  1  0  0  0
 35 36  1  1  0  0  0
 35 37  1  0  0  0  0
 37 38  1  1  0  0  0
 37 39  1  0  0  0  0
 39 41  1  1  0  0  0
 40 39  1  0  0  0  0
 41 42  1  0  0  0  0
M  END
>  <CHROM.1>
-167.03390260,-179.51258106,-128.99122453,128.59668242,100.79877558,69.73825185
-174.13236449,100.06864361,60.53703908,1.38947257,11.47338274,10.04358759
1.19366842,-0.67732348,0.21201507

>  <Name>
lig.pdb

>  <RI>
0

>  <Rbt.Current_Directory>
/home/itssahil/PROJECTS/Mol_Feturizer/New_Systems/rnas/4wcr

>  <Rbt.Executable>
rbdock ($Id: //depot/dev/client3/rdock/2013.1/src/exe/rbdock.cxx#4 $)

>  <Rbt.Library>
libRbt.so (2013.1, Build901 2013/11/27)

>  <Rbt.Parameter_File>
/export/apps/rDock/src/rDock_2013.1_src/data/scripts/dock_solv.prm

>  <Rbt.Receptor>
prm/blind_docking_80.prm

>  <SCORE>
2.25528

>  <SCORE.INTER>
-9.78565

>  <SCORE.INTER.CONST>
1

>  <SCORE.INTER.POLAR>
0

>  <SCORE.INTER.ROT>
9

>  <SCORE.INTER.SOLV>
27.8843

>  <SCORE.INTER.VDW>
-25.4185

>  <SCORE.INTER.norm>
-0.232992

>  <SCORE.INTRA>
6.58472

>  <SCORE.INTRA.DIHEDRAL>
10.1127

>  <SCORE.INTRA.DIHEDRAL.0>
16.2863

>  <SCORE.INTRA.POLAR>
0

>  <SCORE.INTRA.POLAR.0>
0

>  <SCORE.INTRA.REPUL>
-0.314433

>  <SCORE.INTRA.REPUL.0>
0.314433

>  <SCORE.INTRA.SOLV>
2.22213

>  <SCORE.INTRA.SOLV.lig_0>
-103.824

>  <SCORE.INTRA.VDW>
1.98947

>  <SCORE.INTRA.VDW.0>
-5.30945

>  <SCORE.INTRA.norm>
0.156779

>  <SCORE.RESTR>
5.45622

>  <SCORE.RESTR.CAVITY>
5.45622

>  <SCORE.RESTR.norm>
0.12991

>  <SCORE.SYSTEM>
0

>  <SCORE.SYSTEM.CONST>
0

>  <SCORE.SYSTEM.DIHEDRAL>
0

>  <SCORE.SYSTEM.SOLV>
0

>  <SCORE.SYSTEM.norm>
0

>  <SCORE.heavy>
42

>  <SCORE.norm>
0.0536971

>  <RMSD>
27.540

$$$$
lig.pdb
 OpenBabel11021811513D
libRbt.so/2013.1/901 2013/11/27
 42 45  0  0  0  0  0  0  0  0999 V2000
   -0.0165   10.9823   10.1384 C   0  0  2  0  0  0  0  0  0  0  0  0
    0.4047   10.0230    9.1189 O   0  0  0  0  0  0  0  0  0  0  0  0
   -1.5861   10.7747   10.3206 C   0  0  2  0  0  0  0  0  0  0  0  0
   -1.8679    9.4181   10.7980 N   0  0  0  0  0  0  0  0  0  0  0  0
   -2.3146   11.0902    8.9244 C   0  0  1  0  0  0  0  0  0  0  0  0
   -3.7444   10.9284    9.0349 O   0  0  0  0  0  0  0  0  0  0  0  0
   -1.9364   12.5280    8.5292 C   0  0  2  0  0  0  0  0  0  0  0  0
   -2.5483   12.8353    7.3230 O   0  0  0  0  0  0  0  0  0  0  0  0
   -0.3498   12.6604    8.4129 C   0  0  2  0  0  0  0  0  0  0  0  0
    0.2911   12.3445    9.6551 O   0  0  0  0  0  0  0  0  0  0  0  0
    0.0743   14.0544    8.0466 C   0  0  0  0  0  0  0  0  0  0  0  0
   -0.3594   14.9266    9.0910 O   0  0  0  0  0  0  0  0  0  0  0  0
    3.5300    7.4937   11.0183 C   0  0  2  0  0  0  0  0  0  0  0  0
    4.6849    6.6377   11.1809 N   0  0  0  0  0  0  0  0  0  0  0  0
    2.5241    6.8592    9.9818 C   0  0  0  0  0  0  0  0  0  0  0  0
    1.2631    7.7720    9.7840 C   0  0  2  0  0  0  0  0  0  0  0  0
    0.3624    7.1533    8.8135 N   0  0  0  0  0  0  0  0  0  0  0  0
    1.6430    9.2319    9.2714 C   0  0  2  0  0  0  0  0  0  0  0  0
    2.6049    9.8585   10.3220 C   0  0  2  0  0  0  0  0  0  0  0  0
    2.9058   11.2323    9.7700 O   0  0  0  0  0  0  0  0  0  0  0  0
    3.9409    8.9420   10.4726 C   0  0  1  0  0  0  0  0  0  0  0  0
    4.8979    9.4062   11.4781 O   0  0  0  0  0  0  0  0  0  0  0  0
    2.6955   12.2058   10.7110 C   0  0  1  0  0  0  0  0  0  0  0  0
    3.8983   12.5257   11.4869 C   0  0  2  0  0  0  0  0  0  0  0  0
    4.1310   11.4599   12.3510 O   0  0  0  0  0  0  0  0  0  0  0  0
    3.5285   13.9131   12.0538 C   0  0  2  0  0  0  0  0  0  0  0  0
    3.5321   13.7896   13.4940 O   0  0  0  0  0  0  0  0  0  0  0  0
    2.1688   14.2006   11.5075 C   0  0  2  0  0  0  0  0  0  0  0  0
    2.3263   13.4873   10.2292 O   0  0  0  0  0  0  0  0  0  0  0  0
    1.9540   15.7378   11.2522 C   0  0  0  0  0  0  0  0  0  0  0  0
    1.8770   16.0913    9.8386 O   0  0  0  0  0  0  0  0  0  0  0  0
    4.8345   13.6785   14.1439 C   0  0  2  0  0  0  0  0  0  0  0  0
    5.5329   15.1367   14.1465 C   0  0  2  0  0  0  0  0  0  0  0  0
    5.6579   15.6257   12.7351 N   0  0  0  0  0  0  0  0  0  0  0  0
    6.9641   15.0064   14.8668 C   0  0  1  0  0  0  0  0  0  0  0  0
    6.7249   14.5188   16.2220 O   0  0  0  0  0  0  0  0  0  0  0  0
    7.8812   13.9923   14.0451 C   0  0  2  0  0  0  0  0  0  0  0  0
    8.0886   14.5603   12.6944 O   0  0  0  0  0  0  0  0  0  0  0  0
    7.1301   12.5445   14.0066 C   0  0  1  0  0  0  0  0  0  0  0  0
    5.7613   12.7006   13.3928 O   0  0  0  0  0  0  0  0  0  0  0  0
    7.9956   11.5272   13.1915 C   0  0  0  0  0  0  0  0  0  0  0  0
    7.7624   11.6178   11.7168 N   0  0  0  0  0  0  0  0  0  0  0  0
  1  3  1  0  0  0  0
  1  2  1  6  0  0  0
  3  4  1  6  0  0  0
  3  5  1  0  0  0  0
  5  6  1  1  0  0  0
  7  8  1  6  0  0  0
  7  5  1  0  0  0  0
  9 11  1  1  0  0  0
  9  7  1  0  0  0  0
 10  9  1  0  0  0  0
 10  1  1  0  0  0  0
 12 11  1  0  0  0  0
 13 14  1  6  0  0  0
 15 13  1  0  0  0  0
 16 17  1  6  0  0  0
 16 15  1  0  0  0  0
 18  2  1  1  0  0  0
 18 19  1  0  0  0  0
 18 16  1  0  0  0  0
 19 20  1  6  0  0  0
 19 21  1  0  0  0  0
 21 22  1  1  0  0  0
 21 13  1  0  0  0  0
 23 20  1  6  0  0  0
 23 29  1  0  0  0  0
 24 25  1  1  0  0  0
 24 26  1  0  0  0  0
 24 23  1  0  0  0  0
 26 27  1  1  0  0  0
 26 28  1  0  0  0  0
 28 30  1  6  0  0  0
 29 28  1  0  0  0  0
 30 31  1  0  0  0  0
 32 27  1  6  0  0  0
 32 40  1  0  0  0  0
 33 35  1  0  0  0  0
 33 32  1  0  0  0  0
 33 34  1  6  0  0  0
 35 36  1  1  0  0  0
 35 37  1  0  0  0  0
 37 38  1  6  0  0  0
 37 39  1  0  0  0  0
 39 41  1  6  0  0  0
 40 39  1  0  0  0  0
 41 42  1  0  0  0  0
M  END
>  <CHROM.1>
-136.94111840,61.76400205,99.94425014,128.82828013,91.68884274,73.03753025
110.65120854,75.06388993,-84.14838082,2.72212295,11.98084503,11.07411001
2.75281119,0.50383364,-2.98370125

>  <Name>
lig.pdb

>  <RI>
0

>  <Rbt.Current_Directory>
/home/itssahil/PROJECTS/Mol_Feturizer/New_Systems/rnas/4wcr

>  <Rbt.Executable>
rbdock ($Id: //depot/dev/client3/rdock/2013.1/src/exe/rbdock.cxx#4 $)

>  <Rbt.Library>
libRbt.so (2013.1, Build901 2013/11/27)

>  <Rbt.Parameter_File>
/export/apps/rDock/src/rDock_2013.1_src/data/scripts/dock_solv.prm

>  <Rbt.Receptor>
prm/blind_docking_20.prm

>  <SCORE>
43.5317

>  <SCORE.INTER>
-9.6274

>  <SCORE.INTER.CONST>
1

>  <SCORE.INTER.POLAR>
0

>  <SCORE.INTER.ROT>
9

>  <SCORE.INTER.SOLV>
26.7491

>  <SCORE.INTER.VDW>
-24.9346

>  <SCORE.INTER.norm>
-0.229224

>  <SCORE.INTRA>
15.0861

>  <SCORE.INTRA.DIHEDRAL>
14.1181

>  <SCORE.INTRA.DIHEDRAL.0>
16.2863

>  <SCORE.INTRA.POLAR>
0

>  <SCORE.INTRA.POLAR.0>
0

>  <SCORE.INTRA.REPUL>
0.0425255

>  <SCORE.INTRA.REPUL.0>
0.314433

>  <SCORE.INTRA.SOLV>
4.00565

>  <SCORE.INTRA.SOLV.lig_0>
-103.824

>  <SCORE.INTRA.VDW>
5.81158

>  <SCORE.INTRA.VDW.0>
-5.30945

>  <SCORE.INTRA.norm>
0.359192

>  <SCORE.RESTR>
38.0731

>  <SCORE.RESTR.CAVITY>
38.0731

>  <SCORE.RESTR.norm>
0.906501

>  <SCORE.SYSTEM>
0

>  <SCORE.SYSTEM.CONST>
0

>  <SCORE.SYSTEM.DIHEDRAL>
0

>  <SCORE.SYSTEM.SOLV>
0

>  <SCORE.SYSTEM.norm>
0

>  <SCORE.heavy>
42

>  <SCORE.norm>
1.03647

>  <RMSD>
27.545

$$$$
lig.pdb
 OpenBabel11021811513D
libRbt.so/2013.1/901 2013/11/27
 42 45  0  0  0  0  0  0  0  0999 V2000
    2.3195    8.9827    9.0412 C   0  0  2  0  0  0  0  0  0  0  0  0
    1.0125    9.0236    9.6947 O   0  0  0  0  0  0  0  0  0  0  0  0
    2.5327    7.4749    8.5708 C   0  0  2  0  0  0  0  0  0  0  0  0
    1.5029    7.0943    7.6000 N   0  0  0  0  0  0  0  0  0  0  0  0
    2.5275    6.5241    9.8653 C   0  0  1  0  0  0  0  0  0  0  0  0
    2.7287    5.1431    9.4978 O   0  0  0  0  0  0  0  0  0  0  0  0
    3.6375    7.0279   10.8037 C   0  0  2  0  0  0  0  0  0  0  0  0
    3.6611    6.2287   11.9370 O   0  0  0  0  0  0  0  0  0  0  0  0
    3.3729    8.5544   11.1886 C   0  0  2  0  0  0  0  0  0  0  0  0
    3.3469    9.3878   10.0231 O   0  0  0  0  0  0  0  0  0  0  0  0
    4.4421    9.1017   12.0911 C   0  0  0  0  0  0  0  0  0  0  0  0
    5.5582    9.4560   11.2736 O   0  0  0  0  0  0  0  0  0  0  0  0
   -0.8203   12.5716    7.7388 C   0  0  2  0  0  0  0  0  0  0  0  0
   -1.7895   13.5764    7.3594 N   0  0  0  0  0  0  0  0  0  0  0  0
   -1.3904   11.1292    7.4500 C   0  0  0  0  0  0  0  0  0  0  0  0
   -0.3583   10.0196    7.8575 C   0  0  2  0  0  0  0  0  0  0  0  0
   -0.9266    8.7019    7.5813 N   0  0  0  0  0  0  0  0  0  0  0  0
    0.0375   10.0933    9.3990 C   0  0  2  0  0  0  0  0  0  0  0  0
    0.6323   11.5075    9.6598 C   0  0  2  0  0  0  0  0  0  0  0  0
    0.9875   11.4905   11.1283 O   0  0  0  0  0  0  0  0  0  0  0  0
   -0.4672   12.6512    9.2987 C   0  0  1  0  0  0  0  0  0  0  0  0
    0.0016   14.0291    9.4535 O   0  0  0  0  0  0  0  0  0  0  0  0
    1.7914   12.5494   11.4600 C   0  0  1  0  0  0  0  0  0  0  0  0
    2.9837   12.6546   10.6124 C   0  0  2  0  0  0  0  0  0  0  0  0
    3.8466   11.6264   10.9795 O   0  0  0  0  0  0  0  0  0  0  0  0
    3.3898   14.1251   10.8483 C   0  0  2  0  0  0  0  0  0  0  0  0
    4.7130   14.1041   11.4300 O   0  0  0  0  0  0  0  0  0  0  0  0
    2.3603   14.6612   11.7877 C   0  0  2  0  0  0  0  0  0  0  0  0
    1.2311   13.8437   11.3138 O   0  0  0  0  0  0  0  0  0  0  0  0
    2.0743   16.1870   11.5332 C   0  0  0  0  0  0  0  0  0  0  0  0
    2.4355   16.6347   10.1923 O   0  0  0  0  0  0  0  0  0  0  0  0
    4.8782   13.3480   12.6677 C   0  0  2  0  0  0  0  0  0  0  0  0
    5.0462   14.3938   13.8894 C   0  0  2  0  0  0  0  0  0  0  0  0
    6.2243   15.2806   13.6204 N   0  0  0  0  0  0  0  0  0  0  0  0
    5.2238   13.5536   15.2482 C   0  0  1  0  0  0  0  0  0  0  0  0
    4.0317   12.7254   15.4052 O   0  0  0  0  0  0  0  0  0  0  0  0
    6.5381   12.6553   15.1487 C   0  0  2  0  0  0  0  0  0  0  0  0
    7.6985   13.5627   15.0061 O   0  0  0  0  0  0  0  0  0  0  0  0
    6.3707   11.6487   13.8756 C   0  0  1  0  0  0  0  0  0  0  0  0
    6.1338   12.4532   12.6221 O   0  0  0  0  0  0  0  0  0  0  0  0
    7.6527   10.7621   13.7371 C   0  0  0  0  0  0  0  0  0  0  0  0
    7.7655   10.1108   12.3953 N   0  0  0  0  0  0  0  0  0  0  0  0
  1  3  1  0  0  0  0
  1  2  1  1  0  0  0
  3  4  1  6  0  0  0
  3  5  1  0  0  0  0
  5  6  1  6  0  0  0
  7  8  1  1  0  0  0
  7  5  1  0  0  0  0
  9 11  1  1  0  0  0
  9  7  1  0  0  0  0
 10  9  1  0  0  0  0
 10  1  1  0  0  0  0
 12 11  1  0  0  0  0
 13 14  1  1  0  0  0
 15 13  1  0  0  0  0
 16 17  1  1  0  0  0
 16 15  1  0  0  0  0
 18  2  1  6  0  0  0
 18 19  1  0  0  0  0
 18 16  1  0  0  0  0
 19 20  1  1  0  0  0
 19 21  1  0  0  0  0
 21 22  1  6  0  0  0
 21 13  1  0  0  0  0
 23 20  1  6  0  0  0
 23 29  1  0  0  0  0
 24 25  1  1  0  0  0
 24 26  1  0  0  0  0
 24 23  1  0  0  0  0
 26 27  1  1  0  0  0
 26 28  1  0  0  0  0
 28 30  1  6  0  0  0
 29 28  1  0  0  0  0
 30 31  1  0  0  0  0
 32 27  1  6  0  0  0
 32 40  1  0  0  0  0
 33 35  1  0  0  0  0
 33 32  1  0  0  0  0
 33 34  1  6  0  0  0
 35 36  1  6  0  0  0
 35 37  1  0  0  0  0
 37 38  1  6  0  0  0
 37 39  1  0  0  0  0
 39 41  1  6  0  0  0
 40 39  1  0  0  0  0
 41 42  1  0  0  0  0
M  END
>  <CHROM.1>
-133.98866393,80.62760890,61.88974938,166.56884785,-53.08676433,-57.04849215
22.09963413,-106.92140884,-163.10131760,3.00137716,11.35266378,11.02666417
-2.48931876,-0.65311128,0.23308668

>  <Name>
lig.pdb

>  <RI>
0

>  <Rbt.Current_Directory>
/home/itssahil/PROJECTS/Mol_Feturizer/New_Systems/rnas/4wcr

>  <Rbt.Executable>
rbdock ($Id: //depot/dev/client3/rdock/2013.1/src/exe/rbdock.cxx#4 $)

>  <Rbt.Library>
libRbt.so (2013.1, Build901 2013/11/27)

>  <Rbt.Parameter_File>
/export/apps/rDock/src/rDock_2013.1_src/data/scripts/dock_solv.prm

>  <Rbt.Receptor>
prm/blind_docking_20.prm

>  <SCORE>
43.8712

>  <SCORE.INTER>
-0.141744

>  <SCORE.INTER.CONST>
1

>  <SCORE.INTER.POLAR>
0

>  <SCORE.INTER.ROT>
9

>  <SCORE.INTER.SOLV>
28.1849

>  <SCORE.INTER.VDW>
-19.0895

>  <SCORE.INTER.norm>
-0.00337485

>  <SCORE.INTRA>
8.22434

>  <SCORE.INTRA.DIHEDRAL>
3.64676

>  <SCORE.INTRA.DIHEDRAL.0>
16.2863

>  <SCORE.INTRA.POLAR>
0

>  <SCORE.INTRA.POLAR.0>
0

>  <SCORE.INTRA.REPUL>
-0.314433

>  <SCORE.INTRA.REPUL.0>
0.314433

>  <SCORE.INTRA.SOLV>
3.47081

>  <SCORE.INTRA.SOLV.lig_0>
-103.824

>  <SCORE.INTRA.VDW>
6.23772

>  <SCORE.INTRA.VDW.0>
-5.30945

>  <SCORE.INTRA.norm>
0.195818

>  <SCORE.RESTR>
35.7886

>  <SCORE.RESTR.CAVITY>
35.7886

>  <SCORE.RESTR.norm>
0.852109

>  <SCORE.SYSTEM>
0

>  <SCORE.SYSTEM.CONST>
0

>  <SCORE.SYSTEM.DIHEDRAL>
0

>  <SCORE.SYSTEM.SOLV>
0

>  <SCORE.SYSTEM.norm>
0

>  <SCORE.heavy>
42

>  <SCORE.norm>
1.04455

>  <RMSD>
27.564

$$$$
lig.pdb
 OpenBabel11021811513D
libRbt.so/2013.1/901 2013/11/27
 42 45  0  0  0  0  0  0  0  0999 V2000
    0.3495   11.2712   10.1225 C   0  0  2  0  0  0  0  0  0  0  0  0
    0.7770   10.6301    8.8802 O   0  0  0  0  0  0  0  0  0  0  0  0
   -1.2355   11.1147   10.1791 C   0  0  2  0  0  0  0  0  0  0  0  0
   -1.6057    9.6974   10.2228 N   0  0  0  0  0  0  0  0  0  0  0  0
   -1.8749   11.8702    8.9141 C   0  0  1  0  0  0  0  0  0  0  0  0
   -3.3146   11.7700    8.9207 O   0  0  0  0  0  0  0  0  0  0  0  0
   -1.4090   13.3349    8.9762 C   0  0  2  0  0  0  0  0  0  0  0  0
   -1.9423   14.0196    7.8944 O   0  0  0  0  0  0  0  0  0  0  0  0
    0.1860   13.3992    8.9609 C   0  0  2  0  0  0  0  0  0  0  0  0
    0.7459   12.6940   10.0757 O   0  0  0  0  0  0  0  0  0  0  0  0
    0.6941   14.8109    9.0393 C   0  0  0  0  0  0  0  0  0  0  0  0
    0.4386   15.4329    7.7794 O   0  0  0  0  0  0  0  0  0  0  0  0
    2.5618    6.8181   10.3141 C   0  0  2  0  0  0  0  0  0  0  0  0
    3.2824    5.5637   10.3249 N   0  0  0  0  0  0  0  0  0  0  0  0
    1.4490    6.7968    9.1960 C   0  0  0  0  0  0  0  0  0  0  0  0
    0.6548    8.1497    9.1607 C   0  0  2  0  0  0  0  0  0  0  0  0
   -0.3588    8.0913    8.1095 N   0  0  0  0  0  0  0  0  0  0  0  0
    1.6001    9.4034    8.8910 C   0  0  2  0  0  0  0  0  0  0  0  0
    2.6686    9.4327   10.0220 C   0  0  2  0  0  0  0  0  0  0  0  0
    3.5101   10.6455    9.6999 O   0  0  0  0  0  0  0  0  0  0  0  0
    3.5330    8.0543   10.0096 C   0  0  1  0  0  0  0  0  0  0  0  0
    4.5364    7.9452   11.0696 O   0  0  0  0  0  0  0  0  0  0  0  0
    4.4745   10.8513   10.6512 C   0  0  1  0  0  0  0  0  0  0  0  0
    4.0381   10.4833   12.0022 C   0  0  2  0  0  0  0  0  0  0  0  0
    3.1318   11.4514   12.4243 O   0  0  0  0  0  0  0  0  0  0  0  0
    5.3944   10.3283   12.7230 C   0  0  2  0  0  0  0  0  0  0  0  0
    5.4108   11.2992   13.7939 O   0  0  0  0  0  0  0  0  0  0  0  0
    6.4199   10.6140   11.6759 C   0  0  2  0  0  0  0  0  0  0  0  0
    5.6641   10.0899   10.5262 O   0  0  0  0  0  0  0  0  0  0  0  0
    7.7310    9.7733   11.8965 C   0  0  0  0  0  0  0  0  0  0  0  0
    8.2730    9.8775   13.2473 O   0  0  0  0  0  0  0  0  0  0  0  0
    5.5340   12.7025   13.4112 C   0  0  2  0  0  0  0  0  0  0  0  0
    5.3873   13.6117   14.7401 C   0  0  2  0  0  0  0  0  0  0  0  0
    4.0657   13.3281   15.3878 N   0  0  0  0  0  0  0  0  0  0  0  0
    5.5279   15.1543   14.3106 C   0  0  1  0  0  0  0  0  0  0  0  0
    6.8389   15.3137   13.6881 O   0  0  0  0  0  0  0  0  0  0  0  0
    4.3591   15.5301   13.2922 C   0  0  2  0  0  0  0  0  0  0  0  0
    3.0696   15.3577   13.9974 O   0  0  0  0  0  0  0  0  0  0  0  0
    4.4923   14.5619   11.9858 C   0  0  1  0  0  0  0  0  0  0  0  0
    4.4299   13.1181   12.4175 O   0  0  0  0  0  0  0  0  0  0  0  0
    3.3480   14.8919   10.9707 C   0  0  0  0  0  0  0  0  0  0  0  0
    1.9968   14.9277   11.6111 N   0  0  0  0  0  0  0  0  0  0  0  0
  1  3  1  0  0  0  0
  1  2  1  6  0  0  0
  3  4  1  6  0  0  0
  3  5  1  0  0  0  0
  5  6  1  1  0  0  0
  7  8  1  6  0  0  0
  7  5  1  0  0  0  0
  9 11  1  1  0  0  0
  9  7  1  0  0  0  0
 10  9  1  0  0  0  0
 10  1  1  0  0  0  0
 12 11  1  0  0  0  0
 13 14  1  6  0  0  0
 15 13  1  0  0  0  0
 16 17  1  6  0  0  0
 16 15  1  0  0  0  0
 18  2  1  1  0  0  0
 18 19  1  0  0  0  0
 18 16  1  0  0  0  0
 19 20  1  6  0  0  0
 19 21  1  0  0  0  0
 21 22  1  1  0  0  0
 21 13  1  0  0  0  0
 23 20  1  6  0  0  0
 23 29  1  0  0  0  0
 24 25  1  1  0  0  0
 24 26  1  0  0  0  0
 24 23  1  0  0  0  0
 26 27  1  1  0  0  0
 26 28  1  0  0  0  0
 28 30  1  1  0  0  0
 29 28  1  0  0  0  0
 30 31  1  0  0  0  0
 32 27  1  1  0  0  0
 32 40  1  0  0  0  0
 33 35  1  0  0  0  0
 33 32  1  0  0  0  0
 33 34  1  6  0  0  0
 35 36  1  6  0  0  0
 35 37  1  0  0  0  0
 37 38  1  1  0  0  0
 37 39  1  0  0  0  0
 39 41  1  6  0  0  0
 40 39  1  0  0  0  0
 41 42  1  0  0  0  0
M  END
>  <CHROM.1>
-113.54244308,-72.45515528,79.93670667,177.16599070,-34.41879738,-71.19729607
-51.47887780,174.58551125,-49.80642996,2.74401199,11.56025192,10.98771720
2.78975085,0.53076185,-2.87658394

>  <Name>
lig.pdb

>  <RI>
0

>  <Rbt.Current_Directory>
/home/itssahil/PROJECTS/Mol_Feturizer/New_Systems/rnas/4wcr

>  <Rbt.Executable>
rbdock ($Id: //depot/dev/client3/rdock/2013.1/src/exe/rbdock.cxx#4 $)

>  <Rbt.Library>
libRbt.so (2013.1, Build901 2013/11/27)

>  <Rbt.Parameter_File>
/export/apps/rDock/src/rDock_2013.1_src/data/scripts/dock_solv.prm

>  <Rbt.Receptor>
prm/blind_docking_20.prm

>  <SCORE>
70.5935

>  <SCORE.INTER>
23.2242

>  <SCORE.INTER.CONST>
1

>  <SCORE.INTER.POLAR>
0

>  <SCORE.INTER.ROT>
9

>  <SCORE.INTER.SOLV>
23.3724

>  <SCORE.INTER.VDW>
-1.90801

>  <SCORE.INTER.norm>
0.552957

>  <SCORE.INTRA>
13.2341

>  <SCORE.INTRA.DIHEDRAL>
-2.35404

>  <SCORE.INTRA.DIHEDRAL.0>
16.2863

>  <SCORE.INTRA.POLAR>
0

>  <SCORE.INTRA.POLAR.0>
0

>  <SCORE.INTRA.REPUL>
-0.299695

>  <SCORE.INTRA.REPUL.0>
0.314433

>  <SCORE.INTRA.SOLV>
6.84975

>  <SCORE.INTRA.SOLV.lig_0>
-103.824

>  <SCORE.INTRA.VDW>
12.4847

>  <SCORE.INTRA.VDW.0>
-5.30945

>  <SCORE.INTRA.norm>
0.315097

>  <SCORE.RESTR>
34.1352

>  <SCORE.RESTR.CAVITY>
34.1352

>  <SCORE.RESTR.norm>
0.812744

>  <SCORE.SYSTEM>
0

>  <SCORE.SYSTEM.CONST>
0

>  <SCORE.SYSTEM.DIHEDRAL>
0

>  <SCORE.SYSTEM.SOLV>
0

>  <SCORE.SYSTEM.norm>
0

>  <SCORE.heavy>
42

>  <SCORE.norm>
1.6808

>  <RMSD>
27.566

$$$$
lig.pdb
 OpenBabel11021811513D
libRbt.so/2013.1/901 2013/11/27
 42 45  0  0  0  0  0  0  0  0999 V2000
    1.6832    8.8345    8.7633 C   0  0  2  0  0  0  0  0  0  0  0  0
    0.8745    9.0961    9.9527 O   0  0  0  0  0  0  0  0  0  0  0  0
    0.6662    8.3605    7.6315 C   0  0  2  0  0  0  0  0  0  0  0  0
   -0.2929    9.4268    7.3301 N   0  0  0  0  0  0  0  0  0  0  0  0
   -0.0584    7.0126    8.1194 C   0  0  1  0  0  0  0  0  0  0  0  0
   -0.9858    6.5304    7.1244 O   0  0  0  0  0  0  0  0  0  0  0  0
    1.0464    5.9824    8.4102 C   0  0  2  0  0  0  0  0  0  0  0  0
    0.4557    4.8024    8.8372 O   0  0  0  0  0  0  0  0  0  0  0  0
    2.0443    6.5532    9.5179 C   0  0  2  0  0  0  0  0  0  0  0  0
    2.6595    7.7729    9.0850 O   0  0  0  0  0  0  0  0  0  0  0  0
    3.1559    5.5903    9.8252 C   0  0  0  0  0  0  0  0  0  0  0  0
    2.5709    4.4290   10.4158 O   0  0  0  0  0  0  0  0  0  0  0  0
   -1.4407   12.7842    9.0527 C   0  0  2  0  0  0  0  0  0  0  0  0
   -2.1815   14.0133    9.2357 N   0  0  0  0  0  0  0  0  0  0  0  0
   -2.1040   11.6200    9.8853 C   0  0  0  0  0  0  0  0  0  0  0  0
   -1.3155   10.2750    9.7070 C   0  0  2  0  0  0  0  0  0  0  0  0
   -1.9567    9.2269   10.4982 N   0  0  0  0  0  0  0  0  0  0  0  0
    0.2074   10.3980   10.1587 C   0  0  2  0  0  0  0  0  0  0  0  0
    0.8574   11.5236    9.3032 C   0  0  2  0  0  0  0  0  0  0  0  0
    2.2894   11.5681    9.7829 O   0  0  0  0  0  0  0  0  0  0  0  0
    0.0762   12.9304    9.5446 C   0  0  1  0  0  0  0  0  0  0  0  0
    0.5675   14.0544    8.7463 O   0  0  0  0  0  0  0  0  0  0  0  0
    2.4739   12.5563   10.7138 C   0  0  1  0  0  0  0  0  0  0  0  0
    3.8523   12.6301   11.2094 C   0  0  2  0  0  0  0  0  0  0  0  0
    4.0544   11.5326   12.0408 O   0  0  0  0  0  0  0  0  0  0  0  0
    3.8840   14.0585   11.7942 C   0  0  2  0  0  0  0  0  0  0  0  0
    4.1692   13.9251   13.2051 O   0  0  0  0  0  0  0  0  0  0  0  0
    2.5202   14.6090   11.5356 C   0  0  2  0  0  0  0  0  0  0  0  0
    2.2635   13.8889   10.2773 O   0  0  0  0  0  0  0  0  0  0  0  0
    2.5547   16.1606   11.2795 C   0  0  0  0  0  0  0  0  0  0  0  0
    1.2317   16.7723   11.2109 O   0  0  0  0  0  0  0  0  0  0  0  0
    4.6795   15.1088   13.8903 C   0  0  2  0  0  0  0  0  0  0  0  0
    5.1063   14.6883   15.3920 C   0  0  2  0  0  0  0  0  0  0  0  0
    3.9179   14.1087   16.0980 N   0  0  0  0  0  0  0  0  0  0  0  0
    5.6703   15.9957   16.1380 C   0  0  1  0  0  0  0  0  0  0  0  0
    6.8121   16.4772   15.3659 O   0  0  0  0  0  0  0  0  0  0  0  0
    4.5218   17.1001   16.2141 C   0  0  2  0  0  0  0  0  0  0  0  0
    3.4114   16.5455   17.0200 O   0  0  0  0  0  0  0  0  0  0  0  0
    4.0671   17.4665   14.6906 C   0  0  1  0  0  0  0  0  0  0  0  0
    3.6088   16.2150   13.9845 O   0  0  0  0  0  0  0  0  0  0  0  0
    2.9265   18.5371   14.7278 C   0  0  0  0  0  0  0  0  0  0  0  0
    1.5616   17.9348   14.6196 N   0  0  0  0  0  0  0  0  0  0  0  0
  1  3  1  0  0  0  0
  1  2  1  1  0  0  0
  3  4  1  1  0  0  0
  3  5  1  0  0  0  0
  5  6  1  6  0  0  0
  7  8  1  1  0  0  0
  7  5  1  0  0  0  0
  9 11  1  6  0  0  0
  9  7  1  0  0  0  0
 10  9  1  0  0  0  0
 10  1  1  0  0  0  0
 12 11  1  0  0  0  0
 13 14  1  1  0  0  0
 15 13  1  0  0  0  0
 16 17  1  1  0  0  0
 16 15  1  0  0  0  0
 18  2  1  6  0  0  0
 18 19  1  0  0  0  0
 18 16  1  0  0  0  0
 19 20  1  1  0  0  0
 19 21  1  0  0  0  0
 21 22  1  6  0  0  0
 21 13  1  0  0  0  0
 23 20  1  6  0  0  0
 23 29  1  0  0  0  0
 24 25  1  1  0  0  0
 24 26  1  0  0  0  0
 24 23  1  0  0  0  0
 26 27  1  1  0  0  0
 26 28  1  0  0  0  0
 28 30  1  6  0  0  0
 29 28  1  0  0  0  0
 30 31  1  0  0  0  0
 32 27  1  1  0  0  0
 32 40  1  0  0  0  0
 33 35  1  0  0  0  0
 33 32  1  0  0  0  0
 33 34  1  1  0  0  0
 35 36  1  6  0  0  0
 35 37  1  0  0  0  0
 37 38  1  1  0  0  0
 37 39  1  0  0  0  0
 39 41  1  1  0  0  0
 40 39  1  0  0  0  0
 41 42  1  0  0  0  0
M  END
>  <CHROM.1>
-84.97871949,-64.99747543,98.22116113,-97.37766648,179.80598323,160.45387471
-171.77594520,-172.77132161,-96.72244575,1.97130592,12.10351750,11.24789517
-1.97151800,-0.68430377,0.31820290

>  <Name>
lig.pdb

>  <RI>
0

>  <Rbt.Current_Directory>
/home/itssahil/PROJECTS/Mol_Feturizer/New_Systems/rnas/4wcr

>  <Rbt.Executable>
rbdock ($Id: //depot/dev/client3/rdock/2013.1/src/exe/rbdock.cxx#4 $)

>  <Rbt.Library>
libRbt.so (2013.1, Build901 2013/11/27)

>  <Rbt.Parameter_File>
/export/apps/rDock/src/rDock_2013.1_src/data/scripts/dock_solv.prm

>  <Rbt.Receptor>
prm/blind_docking_80.prm

>  <SCORE>
2.17758

>  <SCORE.INTER>
-9.82882

>  <SCORE.INTER.CONST>
1

>  <SCORE.INTER.POLAR>
0

>  <SCORE.INTER.ROT>
9

>  <SCORE.INTER.SOLV>
30.3557

>  <SCORE.INTER.VDW>
-26.2711

>  <SCORE.INTER.norm>
-0.23402

>  <SCORE.INTRA>
8.82426

>  <SCORE.INTRA.DIHEDRAL>
2.71991

>  <SCORE.INTRA.DIHEDRAL.0>
16.2863

>  <SCORE.INTRA.POLAR>
0

>  <SCORE.INTRA.POLAR.0>
0

>  <SCORE.INTRA.REPUL>
-0.314433

>  <SCORE.INTRA.REPUL.0>
0.314433

>  <SCORE.INTRA.SOLV>
2.62546

>  <SCORE.INTRA.SOLV.lig_0>
-103.824

>  <SCORE.INTRA.VDW>
7.72374

>  <SCORE.INTRA.VDW.0>
-5.30945

>  <SCORE.INTRA.norm>
0.210101

>  <SCORE.RESTR>
3.18214

>  <SCORE.RESTR.CAVITY>
3.18214

>  <SCORE.RESTR.norm>
0.0757653

>  <SCORE.SYSTEM>
0

>  <SCORE.SYSTEM.CONST>
0

>  <SCORE.SYSTEM.DIHEDRAL>
0

>  <SCORE.SYSTEM.SOLV>
0

>  <SCORE.SYSTEM.norm>
0

>  <SCORE.heavy>
42

>  <SCORE.norm>
0.0518472

>  <RMSD>
27.573

$$$$
lig.pdb
 OpenBabel11021811513D
libRbt.so/2013.1/901 2013/11/27
 42 45  0  0  0  0  0  0  0  0999 V2000
   -0.1199    8.8965    9.0934 C   0  0  2  0  0  0  0  0  0  0  0  0
    1.1905    9.0674    8.4683 O   0  0  0  0  0  0  0  0  0  0  0  0
   -1.1535    8.6716    7.9013 C   0  0  2  0  0  0  0  0  0  0  0  0
   -0.8173    7.4533    7.1594 N   0  0  0  0  0  0  0  0  0  0  0  0
   -1.1504    9.9744    6.9619 C   0  0  1  0  0  0  0  0  0  0  0  0
   -2.0804    9.8298    5.8679 O   0  0  0  0  0  0  0  0  0  0  0  0
   -1.5061   11.1774    7.8522 C   0  0  2  0  0  0  0  0  0  0  0  0
   -1.5111   12.3244    7.0723 O   0  0  0  0  0  0  0  0  0  0  0  0
   -0.4508   11.3032    9.0434 C   0  0  2  0  0  0  0  0  0  0  0  0
   -0.4390   10.1221    9.8549 O   0  0  0  0  0  0  0  0  0  0  0  0
   -0.7651   12.4548    9.9558 C   0  0  0  0  0  0  0  0  0  0  0  0
   -2.0478   12.2105   10.5342 O   0  0  0  0  0  0  0  0  0  0  0  0
    3.8186    6.8104   11.2561 C   0  0  2  0  0  0  0  0  0  0  0  0
    4.9390    6.0513   11.7674 N   0  0  0  0  0  0  0  0  0  0  0  0
    3.2042    6.0903    9.9940 C   0  0  0  0  0  0  0  0  0  0  0  0
    1.9883    6.8972    9.4169 C   0  0  2  0  0  0  0  0  0  0  0  0
    1.4542    6.2018    8.2478 N   0  0  0  0  0  0  0  0  0  0  0  0
    2.3885    8.3797    8.9920 C   0  0  2  0  0  0  0  0  0  0  0  0
    2.9575    9.0884   10.2552 C   0  0  2  0  0  0  0  0  0  0  0  0
    3.3000   10.4785    9.7724 O   0  0  0  0  0  0  0  0  0  0  0  0
    4.2588    8.2836   10.8087 C   0  0  1  0  0  0  0  0  0  0  0  0
    4.8482    8.8298   12.0320 O   0  0  0  0  0  0  0  0  0  0  0  0
    3.0475   11.4185   10.7367 C   0  0  1  0  0  0  0  0  0  0  0  0
    4.2513   12.1347   11.1716 C   0  0  2  0  0  0  0  0  0  0  0  0
    5.0028   11.2538   11.9436 O   0  0  0  0  0  0  0  0  0  0  0  0
    3.6338   13.3938   11.8169 C   0  0  2  0  0  0  0  0  0  0  0  0
    4.0338   13.3892   13.2060 O   0  0  0  0  0  0  0  0  0  0  0  0
    2.1596   13.2287   11.6455 C   0  0  2  0  0  0  0  0  0  0  0  0
    2.2008   12.4951   10.3696 O   0  0  0  0  0  0  0  0  0  0  0  0
    1.4343   14.6117   11.4569 C   0  0  0  0  0  0  0  0  0  0  0  0
    1.8268   15.3178   10.2417 O   0  0  0  0  0  0  0  0  0  0  0  0
    3.6646   14.5550   14.0033 C   0  0  2  0  0  0  0  0  0  0  0  0
    4.3695   15.8604   13.3606 C   0  0  2  0  0  0  0  0  0  0  0  0
    5.8541   15.6556   13.3332 N   0  0  0  0  0  0  0  0  0  0  0  0
    3.9551   17.1395   14.2416 C   0  0  1  0  0  0  0  0  0  0  0  0
    2.4989   17.2380   14.2052 O   0  0  0  0  0  0  0  0  0  0  0  0
    4.4805   16.9475   15.7354 C   0  0  2  0  0  0  0  0  0  0  0  0
    5.9578   16.8705   15.6907 O   0  0  0  0  0  0  0  0  0  0  0  0
    3.8015   15.5942   16.3433 C   0  0  1  0  0  0  0  0  0  0  0  0
    4.1426   14.4178   15.4633 O   0  0  0  0  0  0  0  0  0  0  0  0
    4.3096   15.3648   17.8054 C   0  0  0  0  0  0  0  0  0  0  0  0
    5.7685   15.6539   17.9648 N   0  0  0  0  0  0  0  0  0  0  0  0
  1  3  1  0  0  0  0
  1  2  1  6  0  0  0
  3  4  1  6  0  0  0
  3  5  1  0  0  0  0
  5  6  1  6  0  0  0
  7  8  1  6  0  0  0
  7  5  1  0  0  0  0
  9 11  1  1  0  0  0
  9  7  1  0  0  0  0
 10  9  1  0  0  0  0
 10  1  1  0  0  0  0
 12 11  1  0  0  0  0
 13 14  1  6  0  0  0
 15 13  1  0  0  0  0
 16 17  1  6  0  0  0
 16 15  1  0  0  0  0
 18  2  1  1  0  0  0
 18 19  1  0  0  0  0
 18 16  1  0  0  0  0
 19 20  1  6  0  0  0
 19 21  1  0  0  0  0
 21 22  1  1  0  0  0
 21 13  1  0  0  0  0
 23 20  1  6  0  0  0
 23 29  1  0  0  0  0
 24 25  1  1  0  0  0
 24 26  1  0  0  0  0
 24 23  1  0  0  0  0
 26 27  1  1  0  0  0
 26 28  1  0  0  0  0
 28 30  1  6  0  0  0
 29 28  1  0  0  0  0
 30 31  1  0  0  0  0
 32 27  1  6  0  0  0
 32 40  1  0  0  0  0
 33 35  1  0  0  0  0
 33 32  1  0  0  0  0
 33 34  1  1  0  0  0
 35 36  1  1  0  0  0
 35 37  1  0  0  0  0
 37 38  1  6  0  0  0
 37 39  1  0  0  0  0
 39 41  1  1  0  0  0
 40 39  1  0  0  0  0
 41 42  1  0  0  0  0
M  END
>  <CHROM.1>
-135.07532508,61.71870921,40.20848619,143.68906133,117.65122844,174.74471489
64.00910824,-61.20250871,-40.91780601,2.33711043,11.77848590,11.25874998
2.09241715,0.68440238,-2.72762327

>  <Name>
lig.pdb

>  <RI>
0

>  <Rbt.Current_Directory>
/home/itssahil/PROJECTS/Mol_Feturizer/New_Systems/rnas/4wcr

>  <Rbt.Executable>
rbdock ($Id: //depot/dev/client3/rdock/2013.1/src/exe/rbdock.cxx#4 $)

>  <Rbt.Library>
libRbt.so (2013.1, Build901 2013/11/27)

>  <Rbt.Parameter_File>
/export/apps/rDock/src/rDock_2013.1_src/data/scripts/dock_solv.prm

>  <Rbt.Receptor>
prm/blind_docking_80.prm

>  <SCORE>
2.60974

>  <SCORE.INTER>
-9.82302

>  <SCORE.INTER.CONST>
1

>  <SCORE.INTER.POLAR>
0

>  <SCORE.INTER.ROT>
9

>  <SCORE.INTER.SOLV>
33.8528

>  <SCORE.INTER.VDW>
-27.4329

>  <SCORE.INTER.norm>
-0.233882

>  <SCORE.INTRA>
2.98183

>  <SCORE.INTRA.DIHEDRAL>
5.4255

>  <SCORE.INTRA.DIHEDRAL.0>
16.2863

>  <SCORE.INTRA.POLAR>
0

>  <SCORE.INTRA.POLAR.0>
0

>  <SCORE.INTRA.REPUL>
-0.314433

>  <SCORE.INTRA.REPUL.0>
0.314433

>  <SCORE.INTRA.SOLV>
1.43008

>  <SCORE.INTRA.SOLV.lig_0>
-103.824

>  <SCORE.INTRA.VDW>
1.1262

>  <SCORE.INTRA.VDW.0>
-5.30945

>  <SCORE.INTRA.norm>
0.0709958

>  <SCORE.RESTR>
9.45094

>  <SCORE.RESTR.CAVITY>
9.45094

>  <SCORE.RESTR.norm>
0.225022

>  <SCORE.SYSTEM>
0

>  <SCORE.SYSTEM.CONST>
0

>  <SCORE.SYSTEM.DIHEDRAL>
0

>  <SCORE.SYSTEM.SOLV>
0

>  <SCORE.SYSTEM.norm>
0

>  <SCORE.heavy>
42

>  <SCORE.norm>
0.0621366

>  <RMSD>
27.602

$$$$
lig.pdb
 OpenBabel11021811513D
libRbt.so/2013.1/901 2013/11/27
 42 45  0  0  0  0  0  0  0  0999 V2000
    1.4152   14.6763   11.9101 C   0  0  2  0  0  0  0  0  0  0  0  0
    2.5316   14.0534   11.2011 O   0  0  0  0  0  0  0  0  0  0  0  0
    1.3038   16.1617   11.3433 C   0  0  2  0  0  0  0  0  0  0  0  0
    1.0032   16.1379    9.9092 N   0  0  0  0  0  0  0  0  0  0  0  0
    2.6712   16.9410   11.6639 C   0  0  1  0  0  0  0  0  0  0  0  0
    2.6215   18.3000   11.1809 O   0  0  0  0  0  0  0  0  0  0  0  0
    2.8777   16.8887   13.1874 C   0  0  2  0  0  0  0  0  0  0  0  0
    4.0541   17.5526   13.5017 O   0  0  0  0  0  0  0  0  0  0  0  0
    2.9323   15.3702   13.6769 C   0  0  2  0  0  0  0  0  0  0  0  0
    1.7202   14.6763   13.3561 O   0  0  0  0  0  0  0  0  0  0  0  0
    3.1141   15.2636   15.1644 C   0  0  0  0  0  0  0  0  0  0  0  0
    4.3747   15.8511   15.4890 O   0  0  0  0  0  0  0  0  0  0  0  0
    4.2951   10.0319   10.5011 C   0  0  2  0  0  0  0  0  0  0  0  0
    4.7540    8.6798   10.7342 N   0  0  0  0  0  0  0  0  0  0  0  0
    4.9677   11.0199   11.5308 C   0  0  0  0  0  0  0  0  0  0  0  0
    4.4824   12.4944   11.3015 C   0  0  2  0  0  0  0  0  0  0  0  0
    5.1218   13.3741   12.2778 N   0  0  0  0  0  0  0  0  0  0  0  0
    2.9019   12.6429   11.4369 C   0  0  2  0  0  0  0  0  0  0  0  0
    2.2536   11.6911   10.3902 C   0  0  2  0  0  0  0  0  0  0  0  0
    0.7687   11.8985   10.5764 O   0  0  0  0  0  0  0  0  0  0  0  0
    2.7080   10.1549   10.6752 C   0  0  1  0  0  0  0  0  0  0  0  0
    2.2010    9.1729    9.7156 O   0  0  0  0  0  0  0  0  0  0  0  0
    0.0568   11.3847    9.5245 C   0  0  1  0  0  0  0  0  0  0  0  0
   -1.1282   10.6299    9.9455 C   0  0  2  0  0  0  0  0  0  0  0  0
   -0.6839    9.4292   10.4911 O   0  0  0  0  0  0  0  0  0  0  0  0
   -1.9588   10.6266    8.6442 C   0  0  2  0  0  0  0  0  0  0  0  0
   -2.1272    9.2431    8.2606 O   0  0  0  0  0  0  0  0  0  0  0  0
   -1.1375   11.3965    7.6632 C   0  0  2  0  0  0  0  0  0  0  0  0
   -0.5145   12.3205    8.6254 O   0  0  0  0  0  0  0  0  0  0  0  0
   -2.0354   12.1917    6.6454 C   0  0  0  0  0  0  0  0  0  0  0  0
   -2.3814   13.5357    7.0959 O   0  0  0  0  0  0  0  0  0  0  0  0
   -0.9818    8.5864    7.6379 C   0  0  2  0  0  0  0  0  0  0  0  0
   -1.5200    7.6412    6.4416 C   0  0  2  0  0  0  0  0  0  0  0  0
   -2.4931    6.6468    6.9990 N   0  0  0  0  0  0  0  0  0  0  0  0
   -0.2529    6.9252    5.7592 C   0  0  1  0  0  0  0  0  0  0  0  0
    0.6257    7.9798    5.2618 O   0  0  0  0  0  0  0  0  0  0  0  0
    0.4917    6.0203    6.8414 C   0  0  2  0  0  0  0  0  0  0  0  0
   -0.4541    4.9719    7.2847 O   0  0  0  0  0  0  0  0  0  0  0  0
    0.9748    6.9853    8.0652 C   0  0  1  0  0  0  0  0  0  0  0  0
   -0.2184    7.7024    8.6454 O   0  0  0  0  0  0  0  0  0  0  0  0
    1.6956    6.1259    9.1562 C   0  0  0  0  0  0  0  0  0  0  0  0
    0.7864    5.1317    9.8061 N   0  0  0  0  0  0  0  0  0  0  0  0
  1  3  1  0  0  0  0
  1  2  1  6  0  0  0
  3  4  1  6  0  0  0
  3  5  1  0  0  0  0
  5  6  1  1  0  0  0
  7  8  1  6  0  0  0
  7  5  1  0  0  0  0
  9 11  1  1  0  0  0
  9  7  1  0  0  0  0
 10  9  1  0  0  0  0
 10  1  1  0  0  0  0
 12 11  1  0  0  0  0
 13 14  1  1  0  0  0
 15 13  1  0  0  0  0
 16 17  1  1  0  0  0
 16 15  1  0  0  0  0
 18  2  1  6  0  0  0
 18 19  1  0  0  0  0
 18 16  1  0  0  0  0
 19 20  1  1  0  0  0
 19 21  1  0  0  0  0
 21 22  1  6  0  0  0
 21 13  1  0  0  0  0
 23 20  1  1  0  0  0
 23 29  1  0  0  0  0
 24 25  1  6  0  0  0
 24 26  1  0  0  0  0
 24 23  1  0  0  0  0
 26 27  1  6  0  0  0
 26 28  1  0  0  0  0
 28 30  1  6  0  0  0
 29 28  1  0  0  0  0
 30 31  1  0  0  0  0
 32 27  1  1  0  0  0
 32 40  1  0  0  0  0
 33 35  1  0  0  0  0
 33 32  1  0  0  0  0
 33 34  1  1  0  0  0
 35 36  1  1  0  0  0
 35 37  1  0  0  0  0
 37 38  1  1  0  0  0
 37 39  1  0  0  0  0
 39 41  1  1  0  0  0
 40 39  1  0  0  0  0
 41 42  1  0  0  0  0
M  END
>  <CHROM.1>
-177.79268850,-62.71348201,-146.02401385,165.28481016,135.96070896,-76.99768776
89.49255359,-140.33727392,-64.27601119,1.21973646,11.41568748,9.99667974
1.13358653,-0.65583794,0.28441956

>  <Name>
lig.pdb

>  <RI>
0

>  <Rbt.Current_Directory>
/home/itssahil/PROJECTS/Mol_Feturizer/New_Systems/rnas/4wcr

>  <Rbt.Executable>
rbdock ($Id: //depot/dev/client3/rdock/2013.1/src/exe/rbdock.cxx#4 $)

>  <Rbt.Library>
libRbt.so (2013.1, Build901 2013/11/27)

>  <Rbt.Parameter_File>
/export/apps/rDock/src/rDock_2013.1_src/data/scripts/dock_solv.prm

>  <Rbt.Receptor>
prm/blind_docking_80.prm

>  <SCORE>
-3.42564

>  <SCORE.INTER>
-10.0941

>  <SCORE.INTER.CONST>
1

>  <SCORE.INTER.POLAR>
0

>  <SCORE.INTER.ROT>
9

>  <SCORE.INTER.SOLV>
28.172

>  <SCORE.INTER.VDW>
-25.72

>  <SCORE.INTER.norm>
-0.240335

>  <SCORE.INTRA>
1.12524

>  <SCORE.INTRA.DIHEDRAL>
4.44356

>  <SCORE.INTRA.DIHEDRAL.0>
16.2863

>  <SCORE.INTRA.POLAR>
0

>  <SCORE.INTRA.POLAR.0>
0

>  <SCORE.INTRA.REPUL>
-0.314433

>  <SCORE.INTRA.REPUL.0>
0.314433

>  <SCORE.INTRA.SOLV>
-0.486709

>  <SCORE.INTRA.SOLV.lig_0>
-103.824

>  <SCORE.INTRA.VDW>
0.718983

>  <SCORE.INTRA.VDW.0>
-5.30945

>  <SCORE.INTRA.norm>
0.0267915

>  <SCORE.RESTR>
5.54319

>  <SCORE.RESTR.CAVITY>
5.54319

>  <SCORE.RESTR.norm>
0.131981

>  <SCORE.SYSTEM>
0

>  <SCORE.SYSTEM.CONST>
0

>  <SCORE.SYSTEM.DIHEDRAL>
0

>  <SCORE.SYSTEM.SOLV>
0

>  <SCORE.SYSTEM.norm>
0

>  <SCORE.heavy>
42

>  <SCORE.norm>
-0.0815628

>  <RMSD>
27.607

$$$$
lig.pdb
 OpenBabel11021811513D
libRbt.so/2013.1/901 2013/11/27
 42 45  0  0  0  0  0  0  0  0999 V2000
    3.9178    8.6225   11.6310 C   0  0  2  0  0  0  0  0  0  0  0  0
    4.6609    9.7291   11.0307 O   0  0  0  0  0  0  0  0  0  0  0  0
    4.4190    7.3011   10.8944 C   0  0  2  0  0  0  0  0  0  0  0  0
    5.8507    7.0977   11.1323 N   0  0  0  0  0  0  0  0  0  0  0  0
    4.0745    7.4191    9.3301 C   0  0  1  0  0  0  0  0  0  0  0  0
    4.4978    6.2403    8.6132 O   0  0  0  0  0  0  0  0  0  0  0  0
    2.5562    7.6375    9.2143 C   0  0  2  0  0  0  0  0  0  0  0  0
    2.2215    7.7462    7.8727 O   0  0  0  0  0  0  0  0  0  0  0  0
    2.1333    8.9522   10.0151 C   0  0  2  0  0  0  0  0  0  0  0  0
    2.4754    8.8486   11.4029 O   0  0  0  0  0  0  0  0  0  0  0  0
    0.6531    9.2008    9.9492 C   0  0  0  0  0  0  0  0  0  0  0  0
    0.2735    9.1882    8.5725 O   0  0  0  0  0  0  0  0  0  0  0  0
    6.2693   12.0681   14.4534 C   0  0  2  0  0  0  0  0  0  0  0  0
    7.1863   12.8007   15.2992 N   0  0  0  0  0  0  0  0  0  0  0  0
    6.8491   10.6359   14.1348 C   0  0  0  0  0  0  0  0  0  0  0  0
    5.8738    9.8214   13.2139 C   0  0  2  0  0  0  0  0  0  0  0  0
    6.4499    8.5071   12.9375 N   0  0  0  0  0  0  0  0  0  0  0  0
    5.5882   10.5564   11.8295 C   0  0  2  0  0  0  0  0  0  0  0  0
    4.9824   11.9513   12.1593 C   0  0  2  0  0  0  0  0  0  0  0  0
    4.7340   12.5725   10.8046 O   0  0  0  0  0  0  0  0  0  0  0  0
    6.0274   12.8158   13.0582 C   0  0  1  0  0  0  0  0  0  0  0  0
    5.5405   14.1310   13.4771 O   0  0  0  0  0  0  0  0  0  0  0  0
    3.7825   13.5561   10.8730 C   0  0  1  0  0  0  0  0  0  0  0  0
    2.6515   13.2037   11.7377 C   0  0  2  0  0  0  0  0  0  0  0  0
    1.8987   12.2444   11.0670 O   0  0  0  0  0  0  0  0  0  0  0  0
    2.0493   14.5958   12.0251 C   0  0  2  0  0  0  0  0  0  0  0  0
    0.7001   14.5817   11.5063 O   0  0  0  0  0  0  0  0  0  0  0  0
    2.9327   15.5536   11.2959 C   0  0  2  0  0  0  0  0  0  0  0  0
    4.1864   14.7941   11.4342 O   0  0  0  0  0  0  0  0  0  0  0  0
    3.0443   16.9325   12.0446 C   0  0  0  0  0  0  0  0  0  0  0  0
    3.8613   16.8785   13.2524 O   0  0  0  0  0  0  0  0  0  0  0  0
    0.3375   13.4643   10.6397 C   0  0  2  0  0  0  0  0  0  0  0  0
    0.6867   13.8648    9.1127 C   0  0  2  0  0  0  0  0  0  0  0  0
   -0.0584   15.1132    8.7480 N   0  0  0  0  0  0  0  0  0  0  0  0
    0.2882   12.6283    8.1660 C   0  0  1  0  0  0  0  0  0  0  0  0
    1.0613   11.4731    8.6126 O   0  0  0  0  0  0  0  0  0  0  0  0
   -1.2783   12.3519    8.2856 C   0  0  2  0  0  0  0  0  0  0  0  0
   -1.9899   13.5568    7.8039 O   0  0  0  0  0  0  0  0  0  0  0  0
   -1.6161   12.0068    9.8440 C   0  0  1  0  0  0  0  0  0  0  0  0
   -1.1698   13.1480   10.7233 O   0  0  0  0  0  0  0  0  0  0  0  0
   -3.1510   11.7466   10.0017 C   0  0  0  0  0  0  0  0  0  0  0  0
   -3.9859   12.8915    9.5227 N   0  0  0  0  0  0  0  0  0  0  0  0
  1  3  1  0  0  0  0
  1  2  1  6  0  0  0
  3  4  1  6  0  0  0
  3  5  1  0  0  0  0
  5  6  1  6  0  0  0
  7  8  1  6  0  0  0
  7  5  1  0  0  0  0
  9 11  1  1  0  0  0
  9  7  1  0  0  0  0
 10  9  1  0  0  0  0
 10  1  1  0  0  0  0
 12 11  1  0  0  0  0
 13 14  1  1  0  0  0
 15 13  1  0  0  0  0
 16 17  1  6  0  0  0
 16 15  1  0  0  0  0
 18  2  1  6  0  0  0
 18 19  1  0  0  0  0
 18 16  1  0  0  0  0
 19 20  1  6  0  0  0
 19 21  1  0  0  0  0
 21 22  1  1  0  0  0
 21 13  1  0  0  0  0
 23 20  1  1  0  0  0
 23 29  1  0  0  0  0
 24 25  1  6  0  0  0
 24 26  1  0  0  0  0
 24 23  1  0  0  0  0
 26 27  1  6  0  0  0
 26 28  1  0  0  0  0
 28 30  1  1  0  0  0
 29 28  1  0  0  0  0
 30 31  1  0  0  0  0
 32 27  1  1  0  0  0
 32 40  1  0  0  0  0
 33 35  1  0  0  0  0
 33 32  1  0  0  0  0
 33 34  1  6  0  0  0
 35 36  1  1  0  0  0
 35 37  1  0  0  0  0
 37 38  1  1  0  0  0
 37 39  1  0  0  0  0
 39 41  1  6  0  0  0
 40 39  1  0  0  0  0
 41 42  1  0  0  0  0
M  END
>  <CHROM.1>
-116.98566283,-52.80675860,13.95837853,157.72657990,-41.27976199,-12.29256872
73.18719614,-89.41676958,-56.29052696,2.63113712,11.64135398,10.87570503
0.24473925,0.51694778,-2.81603042

>  <Name>
lig.pdb

>  <RI>
0

>  <Rbt.Current_Directory>
/home/itssahil/PROJECTS/Mol_Feturizer/New_Systems/rnas/4wcr

>  <Rbt.Executable>
rbdock ($Id: //depot/dev/client3/rdock/2013.1/src/exe/rbdock.cxx#4 $)

>  <Rbt.Library>
libRbt.so (2013.1, Build901 2013/11/27)

>  <Rbt.Parameter_File>
/export/apps/rDock/src/rDock_2013.1_src/data/scripts/dock_solv.prm

>  <Rbt.Receptor>
prm/blind_docking_20.prm

>  <SCORE>
65.2508

>  <SCORE.INTER>
1.11806

>  <SCORE.INTER.CONST>
1

>  <SCORE.INTER.POLAR>
0

>  <SCORE.INTER.ROT>
9

>  <SCORE.INTER.SOLV>
22.9857

>  <SCORE.INTER.VDW>
-16.5165

>  <SCORE.INTER.norm>
0.0266206

>  <SCORE.INTRA>
31.9631

>  <SCORE.INTRA.DIHEDRAL>
11.9457

>  <SCORE.INTRA.DIHEDRAL.0>
16.2863

>  <SCORE.INTRA.POLAR>
0

>  <SCORE.INTRA.POLAR.0>
0

>  <SCORE.INTRA.REPUL>
-0.314433

>  <SCORE.INTRA.REPUL.0>
0.314433

>  <SCORE.INTRA.SOLV>
5.81575

>  <SCORE.INTRA.SOLV.lig_0>
-103.824

>  <SCORE.INTRA.VDW>
24.6545

>  <SCORE.INTRA.VDW.0>
-5.30945

>  <SCORE.INTRA.norm>
0.761026

>  <SCORE.RESTR>
32.1696

>  <SCORE.RESTR.CAVITY>
32.1696

>  <SCORE.RESTR.norm>
0.765944

>  <SCORE.SYSTEM>
0

>  <SCORE.SYSTEM.CONST>
0

>  <SCORE.SYSTEM.DIHEDRAL>
0

>  <SCORE.SYSTEM.SOLV>
0

>  <SCORE.SYSTEM.norm>
0

>  <SCORE.heavy>
42

>  <SCORE.norm>
1.55359

>  <RMSD>
27.633

$$$$
lig.pdb
 OpenBabel11021811513D
libRbt.so/2013.1/901 2013/11/27
 42 45  0  0  0  0  0  0  0  0999 V2000
    2.2170    9.1060   10.5473 C   0  0  2  0  0  0  0  0  0  0  0  0
    1.7508    9.6961    9.2937 O   0  0  0  0  0  0  0  0  0  0  0  0
    3.7518    8.7410   10.3215 C   0  0  2  0  0  0  0  0  0  0  0  0
    4.5283    9.9534   10.0482 N   0  0  0  0  0  0  0  0  0  0  0  0
    3.8583    7.6705    9.1288 C   0  0  1  0  0  0  0  0  0  0  0  0
    5.2305    7.2941    8.8878 O   0  0  0  0  0  0  0  0  0  0  0  0
    3.0004    6.4577    9.5287 C   0  0  2  0  0  0  0  0  0  0  0  0
    3.0674    5.5104    8.5178 O   0  0  0  0  0  0  0  0  0  0  0  0
    1.4924    6.9174    9.7795 C   0  0  2  0  0  0  0  0  0  0  0  0
    1.4137    7.8966   10.8228 O   0  0  0  0  0  0  0  0  0  0  0  0
    0.6145    5.7702   10.1923 C   0  0  0  0  0  0  0  0  0  0  0  0
   -0.6914    6.2926   10.4399 O   0  0  0  0  0  0  0  0  0  0  0  0
   -1.4326   12.4938    7.9478 C   0  0  2  0  0  0  0  0  0  0  0  0
   -2.7350   13.0933    7.7547 N   0  0  0  0  0  0  0  0  0  0  0  0
   -1.4492   10.9907    7.4690 C   0  0  0  0  0  0  0  0  0  0  0  0
   -0.0474   10.3154    7.6723 C   0  0  2  0  0  0  0  0  0  0  0  0
   -0.1075    8.9257    7.2242 N   0  0  0  0  0  0  0  0  0  0  0  0
    0.4264   10.3427    9.1932 C   0  0  2  0  0  0  0  0  0  0  0  0
    0.4739   11.8328    9.6393 C   0  0  2  0  0  0  0  0  0  0  0  0
    0.9374   11.7706   11.0760 O   0  0  0  0  0  0  0  0  0  0  0  0
   -0.9989   12.5080    9.4892 C   0  0  1  0  0  0  0  0  0  0  0  0
   -1.0637   13.9300    9.8296 O   0  0  0  0  0  0  0  0  0  0  0  0
    1.6719   12.8773   11.4122 C   0  0  1  0  0  0  0  0  0  0  0  0
    2.9313   12.9803   10.6676 C   0  0  2  0  0  0  0  0  0  0  0  0
    3.7921   12.0093   11.1706 O   0  0  0  0  0  0  0  0  0  0  0  0
    3.2646   14.4767   10.8488 C   0  0  2  0  0  0  0  0  0  0  0  0
    4.5301   14.5407   11.5445 O   0  0  0  0  0  0  0  0  0  0  0  0
    2.1373   15.0251   11.6601 C   0  0  2  0  0  0  0  0  0  0  0  0
    1.0836   14.1383   11.1394 O   0  0  0  0  0  0  0  0  0  0  0  0
    1.8239   16.5214   11.2897 C   0  0  0  0  0  0  0  0  0  0  0  0
    2.9959   17.3900   11.3206 O   0  0  0  0  0  0  0  0  0  0  0  0
    4.6970   13.6571   12.6944 C   0  0  2  0  0  0  0  0  0  0  0  0
    5.1634   14.5464   13.9616 C   0  0  2  0  0  0  0  0  0  0  0  0
    6.4373   15.2592   13.6212 N   0  0  0  0  0  0  0  0  0  0  0  0
    5.3411   13.5669   15.2238 C   0  0  1  0  0  0  0  0  0  0  0  0
    4.0515   12.9243   15.4592 O   0  0  0  0  0  0  0  0  0  0  0  0
    6.4706   12.4872   14.9026 C   0  0  2  0  0  0  0  0  0  0  0  0
    7.7438   13.2113   14.6909 O   0  0  0  0  0  0  0  0  0  0  0  0
    6.0057   11.6411   13.5873 C   0  0  1  0  0  0  0  0  0  0  0  0
    5.7750   12.5851   12.4339 O   0  0  0  0  0  0  0  0  0  0  0  0
    7.1013   10.5817   13.2322 C   0  0  0  0  0  0  0  0  0  0  0  0
    6.7623    9.7824   12.0143 N   0  0  0  0  0  0  0  0  0  0  0  0
  1  3  1  0  0  0  0
  1  2  1  6  0  0  0
  3  4  1  6  0  0  0
  3  5  1  0  0  0  0
  5  6  1  1  0  0  0
  7  8  1  6  0  0  0
  7  5  1  0  0  0  0
  9 11  1  1  0  0  0
  9  7  1  0  0  0  0
 10  9  1  0  0  0  0
 10  1  1  0  0  0  0
 12 11  1  0  0  0  0
 13 14  1  1  0  0  0
 15 13  1  0  0  0  0
 16 17  1  1  0  0  0
 16 15  1  0  0  0  0
 18  2  1  6  0  0  0
 18 19  1  0  0  0  0
 18 16  1  0  0  0  0
 19 20  1  1  0  0  0
 19 21  1  0  0  0  0
 21 22  1  6  0  0  0
 21 13  1  0  0  0  0
 23 20  1  6  0  0  0
 23 29  1  0  0  0  0
 24 25  1  1  0  0  0
 24 26  1  0  0  0  0
 24 23  1  0  0  0  0
 26 27  1  1  0  0  0
 26 28  1  0  0  0  0
 28 30  1  6  0  0  0
 29 28  1  0  0  0  0
 30 31  1  0  0  0  0
 32 27  1  6  0  0  0
 32 40  1  0  0  0  0
 33 35  1  0  0  0  0
 33 32  1  0  0  0  0
 33 34  1  6  0  0  0
 35 36  1  6  0  0  0
 35 37  1  0  0  0  0
 37 38  1  6  0  0  0
 37 39  1  0  0  0  0
 39 41  1  6  0  0  0
 40 39  1  0  0  0  0
 41 42  1  0  0  0  0
M  END
>  <CHROM.1>
-170.70941594,177.82217599,-155.99858949,148.67846389,-64.75907516,-45.35213342
-51.82831877,-127.13469093,-178.71143941,2.72520926,11.37131446,10.90870952
-2.26695366,-0.56041208,0.26201324

>  <Name>
lig.pdb

>  <RI>
0

>  <Rbt.Current_Directory>
/home/itssahil/PROJECTS/Mol_Feturizer/New_Systems/rnas/4wcr

>  <Rbt.Executable>
rbdock ($Id: //depot/dev/client3/rdock/2013.1/src/exe/rbdock.cxx#4 $)

>  <Rbt.Library>
libRbt.so (2013.1, Build901 2013/11/27)

>  <Rbt.Parameter_File>
/export/apps/rDock/src/rDock_2013.1_src/data/scripts/dock_solv.prm

>  <Rbt.Receptor>
prm/blind_docking_20.prm

>  <SCORE>
47.5485

>  <SCORE.INTER>
6.04487

>  <SCORE.INTER.CONST>
1

>  <SCORE.INTER.POLAR>
0

>  <SCORE.INTER.ROT>
9

>  <SCORE.INTER.SOLV>
30.4256

>  <SCORE.INTER.VDW>
-15.7119

>  <SCORE.INTER.norm>
0.143925

>  <SCORE.INTRA>
5.39436

>  <SCORE.INTRA.DIHEDRAL>
-0.759125

>  <SCORE.INTRA.DIHEDRAL.0>
16.2863

>  <SCORE.INTRA.POLAR>
0

>  <SCORE.INTRA.POLAR.0>
0

>  <SCORE.INTRA.REPUL>
-0.314433

>  <SCORE.INTRA.REPUL.0>
0.314433

>  <SCORE.INTRA.SOLV>
1.98942

>  <SCORE.INTRA.SOLV.lig_0>
-103.824

>  <SCORE.INTRA.VDW>
6.35137

>  <SCORE.INTRA.VDW.0>
-5.30945

>  <SCORE.INTRA.norm>
0.128437

>  <SCORE.RESTR>
36.1093

>  <SCORE.RESTR.CAVITY>
36.1093

>  <SCORE.RESTR.norm>
0.859745

>  <SCORE.SYSTEM>
0

>  <SCORE.SYSTEM.CONST>
0

>  <SCORE.SYSTEM.DIHEDRAL>
0

>  <SCORE.SYSTEM.SOLV>
0

>  <SCORE.SYSTEM.norm>
0

>  <SCORE.heavy>
42

>  <SCORE.norm>
1.13211

>  <RMSD>
27.661

$$$$
lig.pdb
 OpenBabel11021811513D
libRbt.so/2013.1/901 2013/11/27
 42 45  0  0  0  0  0  0  0  0999 V2000
    3.5392   16.2262   12.2471 C   0  0  2  0  0  0  0  0  0  0  0  0
    3.2377   14.8697   11.7929 O   0  0  0  0  0  0  0  0  0  0  0  0
    2.3769   16.6217   13.2634 C   0  0  2  0  0  0  0  0  0  0  0  0
    2.3828   15.7203   14.4189 N   0  0  0  0  0  0  0  0  0  0  0  0
    0.9747   16.5954   12.4804 C   0  0  1  0  0  0  0  0  0  0  0  0
   -0.1158   16.9581   13.3532 O   0  0  0  0  0  0  0  0  0  0  0  0
    1.0982   17.5674   11.2945 C   0  0  2  0  0  0  0  0  0  0  0  0
   -0.0978   17.5693   10.5921 O   0  0  0  0  0  0  0  0  0  0  0  0
    2.3104   17.1266   10.3540 C   0  0  2  0  0  0  0  0  0  0  0  0
    3.5507   17.1218   11.0718 O   0  0  0  0  0  0  0  0  0  0  0  0
    2.4862   18.0569    9.1875 C   0  0  0  0  0  0  0  0  0  0  0  0
    3.7232   17.7274    8.5544 O   0  0  0  0  0  0  0  0  0  0  0  0
    5.8418   11.3229   12.4345 C   0  0  2  0  0  0  0  0  0  0  0  0
    6.5106   10.2161   13.0830 N   0  0  0  0  0  0  0  0  0  0  0  0
    6.1302   12.6645   13.2128 C   0  0  0  0  0  0  0  0  0  0  0  0
    5.4113   13.8813   12.5309 C   0  0  2  0  0  0  0  0  0  0  0  0
    5.6975   15.1000   13.2850 N   0  0  0  0  0  0  0  0  0  0  0  0
    3.8319   13.6880   12.4509 C   0  0  2  0  0  0  0  0  0  0  0  0
    3.5627   12.3819   11.6489 C   0  0  2  0  0  0  0  0  0  0  0  0
    2.0558   12.2790   11.6111 O   0  0  0  0  0  0  0  0  0  0  0  0
    4.2546   11.1139   12.3979 C   0  0  1  0  0  0  0  0  0  0  0  0
    4.1136    9.8339   11.7023 O   0  0  0  0  0  0  0  0  0  0  0  0
    1.6016   12.0647   10.3364 C   0  0  1  0  0  0  0  0  0  0  0  0
    0.9185   10.7765   10.1777 C   0  0  2  0  0  0  0  0  0  0  0  0
    1.8921    9.7828   10.2122 O   0  0  0  0  0  0  0  0  0  0  0  0
    0.1117   11.0229    8.8848 C   0  0  2  0  0  0  0  0  0  0  0  0
    0.5744   10.0568    7.9141 O   0  0  0  0  0  0  0  0  0  0  0  0
    0.4345   12.4272    8.4931 C   0  0  2  0  0  0  0  0  0  0  0  0
    0.6171   12.9630    9.8523 O   0  0  0  0  0  0  0  0  0  0  0  0
   -0.7819   13.1319    7.7873 C   0  0  0  0  0  0  0  0  0  0  0  0
   -1.9016   13.4030    8.6828 O   0  0  0  0  0  0  0  0  0  0  0  0
   -0.2166    8.8389    7.7659 C   0  0  2  0  0  0  0  0  0  0  0  0
    0.6985    7.5771    8.1955 C   0  0  2  0  0  0  0  0  0  0  0  0
    1.9286    7.5464    7.3396 N   0  0  0  0  0  0  0  0  0  0  0  0
   -0.1807    6.2412    8.0331 C   0  0  1  0  0  0  0  0  0  0  0  0
   -1.3481    6.3823    8.8984 O   0  0  0  0  0  0  0  0  0  0  0  0
   -0.6138    6.0734    6.5071 C   0  0  2  0  0  0  0  0  0  0  0  0
    0.6173    5.9229    5.6997 O   0  0  0  0  0  0  0  0  0  0  0  0
   -1.4864    7.3839    6.0792 C   0  0  1  0  0  0  0  0  0  0  0  0
   -0.6701    8.6316    6.3062 O   0  0  0  0  0  0  0  0  0  0  0  0
   -1.9144    7.2609    4.5791 C   0  0  0  0  0  0  0  0  0  0  0  0
   -2.7959    6.0802    4.3221 N   0  0  0  0  0  0  0  0  0  0  0  0
  1  3  1  0  0  0  0
  1  2  1  6  0  0  0
  3  4  1  1  0  0  0
  3  5  1  0  0  0  0
  5  6  1  1  0  0  0
  7  8  1  6  0  0  0
  7  5  1  0  0  0  0
  9 11  1  6  0  0  0
  9  7  1  0  0  0  0
 10  9  1  0  0  0  0
 10  1  1  0  0  0  0
 12 11  1  0  0  0  0
 13 14  1  1  0  0  0
 15 13  1  0  0  0  0
 16 17  1  1  0  0  0
 16 15  1  0  0  0  0
 18  2  1  6  0  0  0
 18 19  1  0  0  0  0
 18 16  1  0  0  0  0
 19 20  1  1  0  0  0
 19 21  1  0  0  0  0
 21 22  1  6  0  0  0
 21 13  1  0  0  0  0
 23 20  1  1  0  0  0
 23 29  1  0  0  0  0
 24 25  1  6  0  0  0
 24 26  1  0  0  0  0
 24 23  1  0  0  0  0
 26 27  1  6  0  0  0
 26 28  1  0  0  0  0
 28 30  1  1  0  0  0
 29 28  1  0  0  0  0
 30 31  1  0  0  0  0
 32 27  1  6  0  0  0
 32 40  1  0  0  0  0
 33 35  1  0  0  0  0
 33 32  1  0  0  0  0
 33 34  1  6  0  0  0
 35 36  1  1  0  0  0
 35 37  1  0  0  0  0
 37 38  1  6  0  0  0
 37 39  1  0  0  0  0
 39 41  1  6  0  0  0
 40 39  1  0  0  0  0
 41 42  1  0  0  0  0
M  END
>  <CHROM.1>
-94.40520935,169.64389446,-51.62119792,129.91950029,116.63621067,97.03696576
69.24673616,-116.75199399,62.31367449,1.64684621,12.11561213,9.95543593,1.11443442
-0.68350899,0.25199057

>  <Name>
lig.pdb

>  <RI>
0

>  <Rbt.Current_Directory>
/home/itssahil/PROJECTS/Mol_Feturizer/New_Systems/rnas/4wcr

>  <Rbt.Executable>
rbdock ($Id: //depot/dev/client3/rdock/2013.1/src/exe/rbdock.cxx#4 $)

>  <Rbt.Library>
libRbt.so (2013.1, Build901 2013/11/27)

>  <Rbt.Parameter_File>
/export/apps/rDock/src/rDock_2013.1_src/data/scripts/dock_solv.prm

>  <Rbt.Receptor>
prm/blind_docking_80.prm

>  <SCORE>
16.28

>  <SCORE.INTER>
1.04225

>  <SCORE.INTER.CONST>
1

>  <SCORE.INTER.POLAR>
0

>  <SCORE.INTER.ROT>
9

>  <SCORE.INTER.SOLV>
36.9312

>  <SCORE.INTER.VDW>
-21.2156

>  <SCORE.INTER.norm>
0.0248154

>  <SCORE.INTRA>
7.1015

>  <SCORE.INTRA.DIHEDRAL>
15.349

>  <SCORE.INTRA.DIHEDRAL.0>
16.2863

>  <SCORE.INTRA.POLAR>
0

>  <SCORE.INTRA.POLAR.0>
0

>  <SCORE.INTRA.REPUL>
-0.314433

>  <SCORE.INTRA.REPUL.0>
0.314433

>  <SCORE.INTRA.SOLV>
-1.42235

>  <SCORE.INTRA.SOLV.lig_0>
-103.824

>  <SCORE.INTRA.VDW>
1.71036

>  <SCORE.INTRA.VDW.0>
-5.30945

>  <SCORE.INTRA.norm>
0.169083

>  <SCORE.RESTR>
8.13624

>  <SCORE.RESTR.CAVITY>
8.13624

>  <SCORE.RESTR.norm>
0.19372

>  <SCORE.SYSTEM>
0

>  <SCORE.SYSTEM.CONST>
0

>  <SCORE.SYSTEM.DIHEDRAL>
0

>  <SCORE.SYSTEM.SOLV>
0

>  <SCORE.SYSTEM.norm>
0

>  <SCORE.heavy>
42

>  <SCORE.norm>
0.387619

>  <RMSD>
27.697

$$$$
lig.pdb
 OpenBabel11021811513D
libRbt.so/2013.1/901 2013/11/27
 42 45  0  0  0  0  0  0  0  0999 V2000
    1.8712    9.3157   10.4465 C   0  0  2  0  0  0  0  0  0  0  0  0
    1.3848    9.9296    9.2122 O   0  0  0  0  0  0  0  0  0  0  0  0
    3.4477    9.1598   10.2725 C   0  0  2  0  0  0  0  0  0  0  0  0
    4.0749   10.4750   10.1156 N   0  0  0  0  0  0  0  0  0  0  0  0
    3.7366    8.1965    9.0201 C   0  0  1  0  0  0  0  0  0  0  0  0
    5.1540    8.0104    8.8224 O   0  0  0  0  0  0  0  0  0  0  0  0
    3.0238    6.8621    9.2993 C   0  0  2  0  0  0  0  0  0  0  0  0
    3.2506    6.0032    8.2342 O   0  0  0  0  0  0  0  0  0  0  0  0
    1.4609    7.1133    9.5056 C   0  0  2  0  0  0  0  0  0  0  0  0
    1.2171    8.0001   10.6046 O   0  0  0  0  0  0  0  0  0  0  0  0
    0.7195    5.8404    9.8008 C   0  0  0  0  0  0  0  0  0  0  0  0
    0.7089    5.0591    8.6054 O   0  0  0  0  0  0  0  0  0  0  0  0
   -1.4227   13.1944    8.1023 C   0  0  2  0  0  0  0  0  0  0  0  0
   -2.6331   13.9790    7.9908 N   0  0  0  0  0  0  0  0  0  0  0  0
   -1.6768   11.7257    7.5854 C   0  0  0  0  0  0  0  0  0  0  0  0
   -0.3785   10.8518    7.7000 C   0  0  2  0  0  0  0  0  0  0  0  0
   -0.6579    9.5004    7.2190 N   0  0  0  0  0  0  0  0  0  0  0  0
    0.1637   10.7608    9.1954 C   0  0  2  0  0  0  0  0  0  0  0  0
    0.4449   12.2133    9.6778 C   0  0  2  0  0  0  0  0  0  0  0  0
    0.9602   12.0381   11.0872 O   0  0  0  0  0  0  0  0  0  0  0  0
   -0.9211   13.0955    9.6198 C   0  0  1  0  0  0  0  0  0  0  0  0
   -0.7655   14.5002   10.0005 O   0  0  0  0  0  0  0  0  0  0  0  0
    1.8084   13.0550   11.4390 C   0  0  1  0  0  0  0  0  0  0  0  0
    3.2178   12.7461   11.1754 C   0  0  2  0  0  0  0  0  0  0  0  0
    3.6228   11.8115   12.1237 O   0  0  0  0  0  0  0  0  0  0  0  0
    3.8381   14.1598   11.1702 C   0  0  2  0  0  0  0  0  0  0  0  0
    4.8126   14.1915   12.2373 O   0  0  0  0  0  0  0  0  0  0  0  0
    2.6904   15.0829   11.4157 C   0  0  2  0  0  0  0  0  0  0  0  0
    1.6570   14.2800   10.7412 O   0  0  0  0  0  0  0  0  0  0  0  0
    2.8793   16.4599   10.6790 C   0  0  0  0  0  0  0  0  0  0  0  0
    4.1441   17.1195   10.9861 O   0  0  0  0  0  0  0  0  0  0  0  0
    4.9867   12.9647   13.0092 C   0  0  2  0  0  0  0  0  0  0  0  0
    5.7007   13.3375   14.4111 C   0  0  2  0  0  0  0  0  0  0  0  0
    7.0121   14.0081   14.1333 N   0  0  0  0  0  0  0  0  0  0  0  0
    5.8852   11.9825   15.2561 C   0  0  1  0  0  0  0  0  0  0  0  0
    4.5560   11.4142   15.4603 O   0  0  0  0  0  0  0  0  0  0  0  0
    6.8220   10.9763   14.4472 C   0  0  2  0  0  0  0  0  0  0  0  0
    8.1483   11.6147   14.2937 O   0  0  0  0  0  0  0  0  0  0  0  0
    6.1101   10.6599   13.0137 C   0  0  1  0  0  0  0  0  0  0  0  0
    5.8805   11.9500   12.2670 O   0  0  0  0  0  0  0  0  0  0  0  0
    7.0124    9.6869   12.1845 C   0  0  0  0  0  0  0  0  0  0  0  0
    6.4326    9.3570   10.8457 N   0  0  0  0  0  0  0  0  0  0  0  0
  1  3  1  0  0  0  0
  1  2  1  6  0  0  0
  3  4  1  6  0  0  0
  3  5  1  0  0  0  0
  5  6  1  1  0  0  0
  7  8  1  6  0  0  0
  7  5  1  0  0  0  0
  9 11  1  1  0  0  0
  9  7  1  0  0  0  0
 10  9  1  0  0  0  0
 10  1  1  0  0  0  0
 12 11  1  0  0  0  0
 13 14  1  1  0  0  0
 15 13  1  0  0  0  0
 16 17  1  1  0  0  0
 16 15  1  0  0  0  0
 18  2  1  6  0  0  0
 18 19  1  0  0  0  0
 18 16  1  0  0  0  0
 19 20  1  1  0  0  0
 19 21  1  0  0  0  0
 21 22  1  6  0  0  0
 21 13  1  0  0  0  0
 23 20  1  6  0  0  0
 23 29  1  0  0  0  0
 24 25  1  1  0  0  0
 24 26  1  0  0  0  0
 24 23  1  0  0  0  0
 26 27  1  1  0  0  0
 26 28  1  0  0  0  0
 28 30  1  6  0  0  0
 29 28  1  0  0  0  0
 30 31  1  0  0  0  0
 32 27  1  6  0  0  0
 32 40  1  0  0  0  0
 33 35  1  0  0  0  0
 33 32  1  0  0  0  0
 33 34  1  6  0  0  0
 35 36  1  6  0  0  0
 35 37  1  0  0  0  0
 37 38  1  6  0  0  0
 37 39  1  0  0  0  0
 39 41  1  6  0  0  0
 40 39  1  0  0  0  0
 41 42  1  0  0  0  0
M  END
>  <CHROM.1>
-152.40530399,-70.10621469,-160.42860330,151.75387489,-92.77502138,0.67398381
-53.87526777,-160.92882871,-179.45467078,2.88473616,11.24568950,10.80203897
-2.52246562,-0.58656725,0.25455098

>  <Name>
lig.pdb

>  <RI>
0

>  <Rbt.Current_Directory>
/home/itssahil/PROJECTS/Mol_Feturizer/New_Systems/rnas/4wcr

>  <Rbt.Executable>
rbdock ($Id: //depot/dev/client3/rdock/2013.1/src/exe/rbdock.cxx#4 $)

>  <Rbt.Library>
libRbt.so (2013.1, Build901 2013/11/27)

>  <Rbt.Parameter_File>
/export/apps/rDock/src/rDock_2013.1_src/data/scripts/dock_solv.prm

>  <Rbt.Receptor>
prm/blind_docking_20.prm

>  <SCORE>
64.2953

>  <SCORE.INTER>
1.70533

>  <SCORE.INTER.CONST>
1

>  <SCORE.INTER.POLAR>
0

>  <SCORE.INTER.ROT>
9

>  <SCORE.INTER.SOLV>
26.6607

>  <SCORE.INTER.VDW>
-17.35

>  <SCORE.INTER.norm>
0.040603

>  <SCORE.INTRA>
27.9928

>  <SCORE.INTRA.DIHEDRAL>
5.58858

>  <SCORE.INTRA.DIHEDRAL.0>
16.2863

>  <SCORE.INTRA.POLAR>
0

>  <SCORE.INTRA.POLAR.0>
0

>  <SCORE.INTRA.REPUL>
-0.314433

>  <SCORE.INTRA.REPUL.0>
0.314433

>  <SCORE.INTRA.SOLV>
6.91011

>  <SCORE.INTRA.SOLV.lig_0>
-103.824

>  <SCORE.INTRA.VDW>
23.3156

>  <SCORE.INTRA.VDW.0>
-5.30945

>  <SCORE.INTRA.norm>
0.666495

>  <SCORE.RESTR>
34.5972

>  <SCORE.RESTR.CAVITY>
34.5972

>  <SCORE.RESTR.norm>
0.823742

>  <SCORE.SYSTEM>
0

>  <SCORE.SYSTEM.CONST>
0

>  <SCORE.SYSTEM.DIHEDRAL>
0

>  <SCORE.SYSTEM.SOLV>
0

>  <SCORE.SYSTEM.norm>
0

>  <SCORE.heavy>
42

>  <SCORE.norm>
1.53084

>  <RMSD>
27.700

$$$$
lig.pdb
 OpenBabel11021811513D
libRbt.so/2013.1/901 2013/11/27
 42 45  0  0  0  0  0  0  0  0999 V2000
    1.8532    8.6500   10.4359 C   0  0  2  0  0  0  0  0  0  0  0  0
    1.5736    9.5129    9.2894 O   0  0  0  0  0  0  0  0  0  0  0  0
    3.2391    9.1527   11.0413 C   0  0  2  0  0  0  0  0  0  0  0  0
    3.1191   10.5375   11.5057 N   0  0  0  0  0  0  0  0  0  0  0  0
    4.3820    8.9837    9.9255 C   0  0  1  0  0  0  0  0  0  0  0  0
    5.6654    9.4149   10.4253 O   0  0  0  0  0  0  0  0  0  0  0  0
    4.4026    7.5008    9.5170 C   0  0  2  0  0  0  0  0  0  0  0  0
    5.3800    7.3174    8.5501 O   0  0  0  0  0  0  0  0  0  0  0  0
    2.9681    7.0686    8.9660 C   0  0  2  0  0  0  0  0  0  0  0  0
    1.9517    7.2548    9.9589 O   0  0  0  0  0  0  0  0  0  0  0  0
    2.9293    5.6199    8.5699 C   0  0  0  0  0  0  0  0  0  0  0  0
    3.8311    5.4465    7.4761 O   0  0  0  0  0  0  0  0  0  0  0  0
   -1.3993   12.5079    7.8879 C   0  0  2  0  0  0  0  0  0  0  0  0
   -2.6551   13.1958    7.6811 N   0  0  0  0  0  0  0  0  0  0  0  0
   -1.5228   11.0020    7.4345 C   0  0  0  0  0  0  0  0  0  0  0  0
   -0.1732   10.2316    7.6529 C   0  0  2  0  0  0  0  0  0  0  0  0
   -0.3321    8.8423    7.2282 N   0  0  0  0  0  0  0  0  0  0  0  0
    0.2991   10.2509    9.1744 C   0  0  2  0  0  0  0  0  0  0  0  0
    0.4525   11.7411    9.5954 C   0  0  2  0  0  0  0  0  0  0  0  0
    0.9083   11.6704   11.0341 O   0  0  0  0  0  0  0  0  0  0  0  0
   -0.9679   12.5174    9.4299 C   0  0  1  0  0  0  0  0  0  0  0  0
   -0.9312   13.9460    9.7461 O   0  0  0  0  0  0  0  0  0  0  0  0
    1.6079   12.7928   11.3922 C   0  0  1  0  0  0  0  0  0  0  0  0
    2.8447   12.9696   10.6239 C   0  0  2  0  0  0  0  0  0  0  0  0
    3.7533   12.0162   11.0737 O   0  0  0  0  0  0  0  0  0  0  0  0
    3.1251   14.4708   10.8495 C   0  0  2  0  0  0  0  0  0  0  0  0
    4.4033   14.5603   11.5187 O   0  0  0  0  0  0  0  0  0  0  0  0
    1.9972   14.9474   11.7040 C   0  0  2  0  0  0  0  0  0  0  0  0
    0.9660   14.0385   11.1764 O   0  0  0  0  0  0  0  0  0  0  0  0
    1.6186   16.4421   11.3928 C   0  0  0  0  0  0  0  0  0  0  0  0
    2.7749   17.3142   11.2154 O   0  0  0  0  0  0  0  0  0  0  0  0
    4.6156   13.6728   12.6582 C   0  0  2  0  0  0  0  0  0  0  0  0
    5.1240   14.5591   13.9112 C   0  0  2  0  0  0  0  0  0  0  0  0
    6.3816   15.2789   13.5277 N   0  0  0  0  0  0  0  0  0  0  0  0
    5.3516   13.5754   15.1620 C   0  0  1  0  0  0  0  0  0  0  0  0
    4.0741   12.9263   15.4416 O   0  0  0  0  0  0  0  0  0  0  0  0
    6.4732   12.5020   14.7956 C   0  0  2  0  0  0  0  0  0  0  0  0
    7.7347   13.2326   14.5408 O   0  0  0  0  0  0  0  0  0  0  0  0
    5.9645   11.6591   13.4946 C   0  0  1  0  0  0  0  0  0  0  0  0
    5.6879   12.6066   12.3542 O   0  0  0  0  0  0  0  0  0  0  0  0
    7.0509   10.6059   13.0956 C   0  0  0  0  0  0  0  0  0  0  0  0
    8.2888   11.2325   12.5368 N   0  0  0  0  0  0  0  0  0  0  0  0
  1  3  1  0  0  0  0
  1  2  1  6  0  0  0
  3  4  1  6  0  0  0
  3  5  1  0  0  0  0
  5  6  1  1  0  0  0
  7  8  1  6  0  0  0
  7  5  1  0  0  0  0
  9 11  1  1  0  0  0
  9  7  1  0  0  0  0
 10  9  1  0  0  0  0
 10  1  1  0  0  0  0
 12 11  1  0  0  0  0
 13 14  1  1  0  0  0
 15 13  1  0  0  0  0
 16 17  1  1  0  0  0
 16 15  1  0  0  0  0
 18  2  1  6  0  0  0
 18 19  1  0  0  0  0
 18 16  1  0  0  0  0
 19 20  1  1  0  0  0
 19 21  1  0  0  0  0
 21 22  1  6  0  0  0
 21 13  1  0  0  0  0
 23 20  1  6  0  0  0
 23 29  1  0  0  0  0
 24 25  1  1  0  0  0
 24 26  1  0  0  0  0
 24 23  1  0  0  0  0
 26 27  1  1  0  0  0
 26 28  1  0  0  0  0
 28 30  1  6  0  0  0
 29 28  1  0  0  0  0
 30 31  1  0  0  0  0
 32 27  1  6  0  0  0
 32 40  1  0  0  0  0
 33 35  1  0  0  0  0
 33 32  1  0  0  0  0
 33 34  1  6  0  0  0
 35 36  1  6  0  0  0
 35 37  1  0  0  0  0
 37 38  1  6  0  0  0
 37 39  1  0  0  0  0
 39 41  1  6  0  0  0
 40 39  1  0  0  0  0
 41 42  1  0  0  0  0
M  END
>  <CHROM.1>
-125.61426987,-64.24988442,-141.23404768,154.74940383,-62.67603531,-47.10910341
-42.52676604,-128.56344572,-69.34583503,2.99932550,11.51671837,10.83619518
-2.24656863,-0.53118970,0.42289132

>  <Name>
lig.pdb

>  <RI>
0

>  <Rbt.Current_Directory>
/home/itssahil/PROJECTS/Mol_Feturizer/New_Systems/rnas/4wcr

>  <Rbt.Executable>
rbdock ($Id: //depot/dev/client3/rdock/2013.1/src/exe/rbdock.cxx#4 $)

>  <Rbt.Library>
libRbt.so (2013.1, Build901 2013/11/27)

>  <Rbt.Parameter_File>
/export/apps/rDock/src/rDock_2013.1_src/data/scripts/dock_solv.prm

>  <Rbt.Receptor>
prm/blind_docking_20.prm

>  <SCORE>
65.1268

>  <SCORE.INTER>
1.32089

>  <SCORE.INTER.CONST>
1

>  <SCORE.INTER.POLAR>
0

>  <SCORE.INTER.ROT>
9

>  <SCORE.INTER.SOLV>
27.9814

>  <SCORE.INTER.VDW>
-18.0465

>  <SCORE.INTER.norm>
0.0314497

>  <SCORE.INTRA>
27.9871

>  <SCORE.INTRA.DIHEDRAL>
8.03927

>  <SCORE.INTRA.DIHEDRAL.0>
16.2863

>  <SCORE.INTRA.POLAR>
0

>  <SCORE.INTRA.POLAR.0>
0

>  <SCORE.INTRA.REPUL>
-0.314433

>  <SCORE.INTRA.REPUL.0>
0.314433

>  <SCORE.INTRA.SOLV>
6.09767

>  <SCORE.INTRA.SOLV.lig_0>
-103.824

>  <SCORE.INTRA.VDW>
22.4908

>  <SCORE.INTRA.VDW.0>
-5.30945

>  <SCORE.INTRA.norm>
0.666361

>  <SCORE.RESTR>
35.8188

>  <SCORE.RESTR.CAVITY>
35.8188

>  <SCORE.RESTR.norm>
0.852828

>  <SCORE.SYSTEM>
0

>  <SCORE.SYSTEM.CONST>
0

>  <SCORE.SYSTEM.DIHEDRAL>
0

>  <SCORE.SYSTEM.SOLV>
0

>  <SCORE.SYSTEM.norm>
0

>  <SCORE.heavy>
42

>  <SCORE.norm>
1.55064

>  <RMSD>
27.707

$$$$
lig.pdb
 OpenBabel11021811513D
libRbt.so/2013.1/901 2013/11/27
 42 45  0  0  0  0  0  0  0  0999 V2000
    1.5035    8.1673    8.6166 C   0  0  2  0  0  0  0  0  0  0  0  0
    1.5530    9.4230    9.3636 O   0  0  0  0  0  0  0  0  0  0  0  0
    1.2689    7.0186    9.6960 C   0  0  2  0  0  0  0  0  0  0  0  0
   -0.0122    7.2167   10.3797 N   0  0  0  0  0  0  0  0  0  0  0  0
    2.5074    7.0095   10.7186 C   0  0  1  0  0  0  0  0  0  0  0  0
    2.3524    5.9772   11.7151 O   0  0  0  0  0  0  0  0  0  0  0  0
    3.7838    6.8046    9.8847 C   0  0  2  0  0  0  0  0  0  0  0  0
    4.8775    6.7933   10.7376 O   0  0  0  0  0  0  0  0  0  0  0  0
    3.9183    7.9693    8.8013 C   0  0  2  0  0  0  0  0  0  0  0  0
    2.7920    7.9884    7.9155 O   0  0  0  0  0  0  0  0  0  0  0  0
    5.1422    7.8047    7.9457 C   0  0  0  0  0  0  0  0  0  0  0  0
    4.7418    7.1536    6.7393 O   0  0  0  0  0  0  0  0  0  0  0  0
   -0.8925   12.9581    8.2255 C   0  0  2  0  0  0  0  0  0  0  0  0
   -2.0131   13.8652    8.1059 N   0  0  0  0  0  0  0  0  0  0  0  0
   -1.2994   11.5209    7.7178 C   0  0  0  0  0  0  0  0  0  0  0  0
   -0.1007   10.5156    7.8413 C   0  0  2  0  0  0  0  0  0  0  0  0
   -0.5205    9.1980    7.3687 N   0  0  0  0  0  0  0  0  0  0  0  0
    0.4264   10.3782    9.3385 C   0  0  2  0  0  0  0  0  0  0  0  0
    0.8587   11.7962    9.8118 C   0  0  2  0  0  0  0  0  0  0  0  0
    1.3504   11.5773   11.2235 O   0  0  0  0  0  0  0  0  0  0  0  0
   -0.4064   12.8173    9.7448 C   0  0  1  0  0  0  0  0  0  0  0  0
   -0.1041   14.2003   10.1164 O   0  0  0  0  0  0  0  0  0  0  0  0
    2.1548   12.6063   11.6375 C   0  0  1  0  0  0  0  0  0  0  0  0
    3.3255   12.8040   10.7763 C   0  0  2  0  0  0  0  0  0  0  0  0
    4.2041   11.7530   11.0215 O   0  0  0  0  0  0  0  0  0  0  0  0
    3.7273   14.2484   11.1443 C   0  0  2  0  0  0  0  0  0  0  0  0
    5.0643   14.1832   11.6899 O   0  0  0  0  0  0  0  0  0  0  0  0
    2.7172   14.6816   12.1552 C   0  0  2  0  0  0  0  0  0  0  0  0
    1.5825   13.9036   11.6309 O   0  0  0  0  0  0  0  0  0  0  0  0
    2.4148   16.2222   12.0569 C   0  0  0  0  0  0  0  0  0  0  0  0
    3.3142   17.0475   12.8563 O   0  0  0  0  0  0  0  0  0  0  0  0
    5.2883   13.2351   12.7771 C   0  0  2  0  0  0  0  0  0  0  0  0
    6.5691   13.7278   13.6320 C   0  0  2  0  0  0  0  0  0  0  0  0
    7.7593   13.8231   12.7259 N   0  0  0  0  0  0  0  0  0  0  0  0
    6.8065   12.6810   14.8286 C   0  0  1  0  0  0  0  0  0  0  0  0
    5.5908   12.6632   15.6370 O   0  0  0  0  0  0  0  0  0  0  0  0
    7.1120   11.2389   14.2191 C   0  0  2  0  0  0  0  0  0  0  0  0
    8.3595   11.3351   13.4289 O   0  0  0  0  0  0  0  0  0  0  0  0
    5.8314   10.7876   13.3145 C   0  0  1  0  0  0  0  0  0  0  0  0
    5.5809   11.8182   12.2423 O   0  0  0  0  0  0  0  0  0  0  0  0
    6.1046    9.3811   12.6853 C   0  0  0  0  0  0  0  0  0  0  0  0
    4.8677    8.7374   12.1441 N   0  0  0  0  0  0  0  0  0  0  0  0
  1  3  1  0  0  0  0
  1  2  1  1  0  0  0
  3  4  1  1  0  0  0
  3  5  1  0  0  0  0
  5  6  1  1  0  0  0
  7  8  1  1  0  0  0
  7  5  1  0  0  0  0
  9 11  1  6  0  0  0
  9  7  1  0  0  0  0
 10  9  1  0  0  0  0
 10  1  1  0  0  0  0
 12 11  1  0  0  0  0
 13 14  1  1  0  0  0
 15 13  1  0  0  0  0
 16 17  1  1  0  0  0
 16 15  1  0  0  0  0
 18  2  1  6  0  0  0
 18 19  1  0  0  0  0
 18 16  1  0  0  0  0
 19 20  1  1  0  0  0
 19 21  1  0  0  0  0
 21 22  1  6  0  0  0
 21 13  1  0  0  0  0
 23 20  1  6  0  0  0
 23 29  1  0  0  0  0
 24 25  1  1  0  0  0
 24 26  1  0  0  0  0
 24 23  1  0  0  0  0
 26 27  1  1  0  0  0
 26 28  1  0  0  0  0
 28 30  1  6  0  0  0
 29 28  1  0  0  0  0
 30 31  1  0  0  0  0
 32 27  1  6  0  0  0
 32 40  1  0  0  0  0
 33 35  1  0  0  0  0
 33 32  1  0  0  0  0
 33 34  1  6  0  0  0
 35 36  1  1  0  0  0
 35 37  1  0  0  0  0
 37 38  1  6  0  0  0
 37 39  1  0  0  0  0
 39 41  1  6  0  0  0
 40 39  1  0  0  0  0
 41 42  1  0  0  0  0
M  END
>  <CHROM.1>
-105.60028783,96.72435913,-43.46270119,160.37311091,-58.19087520,-52.42551097
-87.90166194,-156.39384378,164.99752342,3.12805857,11.07311080,10.83743482
-2.29642422,-0.55716665,0.34099289

>  <Name>
lig.pdb

>  <RI>
0

>  <Rbt.Current_Directory>
/home/itssahil/PROJECTS/Mol_Feturizer/New_Systems/rnas/4wcr

>  <Rbt.Executable>
rbdock ($Id: //depot/dev/client3/rdock/2013.1/src/exe/rbdock.cxx#4 $)

>  <Rbt.Library>
libRbt.so (2013.1, Build901 2013/11/27)

>  <Rbt.Parameter_File>
/export/apps/rDock/src/rDock_2013.1_src/data/scripts/dock_solv.prm

>  <Rbt.Receptor>
prm/blind_docking_20.prm

>  <SCORE>
70.164

>  <SCORE.INTER>
6.02572

>  <SCORE.INTER.CONST>
1

>  <SCORE.INTER.POLAR>
0

>  <SCORE.INTER.ROT>
9

>  <SCORE.INTER.SOLV>
25.1129

>  <SCORE.INTER.VDW>
-13.9538

>  <SCORE.INTER.norm>
0.14347

>  <SCORE.INTRA>
26.367

>  <SCORE.INTRA.DIHEDRAL>
2.59278

>  <SCORE.INTRA.DIHEDRAL.0>
16.2863

>  <SCORE.INTRA.POLAR>
0

>  <SCORE.INTRA.POLAR.0>
0

>  <SCORE.INTRA.REPUL>
-0.210835

>  <SCORE.INTRA.REPUL.0>
0.314433

>  <SCORE.INTRA.SOLV>
4.1776

>  <SCORE.INTRA.SOLV.lig_0>
-103.824

>  <SCORE.INTRA.VDW>
24.0359

>  <SCORE.INTRA.VDW.0>
-5.30945

>  <SCORE.INTRA.norm>
0.627785

>  <SCORE.RESTR>
37.7713

>  <SCORE.RESTR.CAVITY>
37.7713

>  <SCORE.RESTR.norm>
0.899317

>  <SCORE.SYSTEM>
0

>  <SCORE.SYSTEM.CONST>
0

>  <SCORE.SYSTEM.DIHEDRAL>
0

>  <SCORE.SYSTEM.SOLV>
0

>  <SCORE.SYSTEM.norm>
0

>  <SCORE.heavy>
42

>  <SCORE.norm>
1.67057

>  <RMSD>
27.721

$$$$
lig.pdb
 OpenBabel11021811513D
libRbt.so/2013.1/901 2013/11/27
 42 45  0  0  0  0  0  0  0  0999 V2000
    1.5503   14.3758   12.0494 C   0  0  2  0  0  0  0  0  0  0  0  0
    2.7096   13.8281   11.3471 O   0  0  0  0  0  0  0  0  0  0  0  0
    0.8942   15.4387   11.0595 C   0  0  2  0  0  0  0  0  0  0  0  0
    0.4395   14.7784    9.8327 N   0  0  0  0  0  0  0  0  0  0  0  0
    1.9649   16.5987   10.7634 C   0  0  1  0  0  0  0  0  0  0  0  0
    1.4180   17.5983    9.8777 O   0  0  0  0  0  0  0  0  0  0  0  0
    2.3671   17.2029   12.1196 C   0  0  2  0  0  0  0  0  0  0  0  0
    3.2954   18.2103   11.9022 O   0  0  0  0  0  0  0  0  0  0  0  0
    2.9710   16.0661   13.0637 C   0  0  2  0  0  0  0  0  0  0  0  0
    2.0183   15.0206   13.2939 O   0  0  0  0  0  0  0  0  0  0  0  0
    3.3632   16.6019   14.4114 C   0  0  0  0  0  0  0  0  0  0  0  0
    2.3287   17.4873   14.8423 O   0  0  0  0  0  0  0  0  0  0  0  0
    4.6593    9.8975   10.6247 C   0  0  2  0  0  0  0  0  0  0  0  0
    5.2079    8.5792   10.8572 N   0  0  0  0  0  0  0  0  0  0  0  0
    5.3314   10.9451   11.5940 C   0  0  0  0  0  0  0  0  0  0  0  0
    4.7496   12.3844   11.3645 C   0  0  2  0  0  0  0  0  0  0  0  0
    5.3918   13.3208   12.2845 N   0  0  0  0  0  0  0  0  0  0  0  0
    3.1735   12.4464   11.5886 C   0  0  2  0  0  0  0  0  0  0  0  0
    2.5226   11.4359   10.6002 C   0  0  2  0  0  0  0  0  0  0  0  0
    1.0412   11.5634   10.8684 O   0  0  0  0  0  0  0  0  0  0  0  0
    3.0803    9.9347   10.8884 C   0  0  1  0  0  0  0  0  0  0  0  0
    2.5769    8.9040    9.9793 O   0  0  0  0  0  0  0  0  0  0  0  0
    0.3034   11.2439    9.7589 C   0  0  1  0  0  0  0  0  0  0  0  0
   -0.9350   10.5260   10.0783 C   0  0  2  0  0  0  0  0  0  0  0  0
   -0.5806    9.2357   10.4606 O   0  0  0  0  0  0  0  0  0  0  0  0
   -1.7532   10.7524    8.7890 C   0  0  2  0  0  0  0  0  0  0  0  0
   -2.0154    9.4467    8.2268 O   0  0  0  0  0  0  0  0  0  0  0  0
   -0.8720   11.5845    7.9168 C   0  0  2  0  0  0  0  0  0  0  0  0
   -0.1935   12.3277    8.9914 O   0  0  0  0  0  0  0  0  0  0  0  0
   -1.7036   12.5680    7.0136 C   0  0  0  0  0  0  0  0  0  0  0  0
   -1.0327   13.8387    6.7599 O   0  0  0  0  0  0  0  0  0  0  0  0
   -0.8944    8.7672    7.5844 C   0  0  2  0  0  0  0  0  0  0  0  0
   -1.4704    7.8474    6.3859 C   0  0  2  0  0  0  0  0  0  0  0  0
   -2.4619    6.8727    6.9458 N   0  0  0  0  0  0  0  0  0  0  0  0
   -0.2300    7.1061    5.6818 C   0  0  1  0  0  0  0  0  0  0  0  0
    0.6692    8.1429    5.1837 O   0  0  0  0  0  0  0  0  0  0  0  0
    0.5040    6.1724    6.7467 C   0  0  2  0  0  0  0  0  0  0  0  0
   -0.4628    5.1441    7.1915 O   0  0  0  0  0  0  0  0  0  0  0  0
    1.0258    7.1131    7.9734 C   0  0  1  0  0  0  0  0  0  0  0  0
   -0.1419    7.8546    8.5745 O   0  0  0  0  0  0  0  0  0  0  0  0
    1.7373    6.2254    9.0477 C   0  0  0  0  0  0  0  0  0  0  0  0
    0.8134    5.2405    9.6910 N   0  0  0  0  0  0  0  0  0  0  0  0
  1  3  1  0  0  0  0
  1  2  1  6  0  0  0
  3  4  1  6  0  0  0
  3  5  1  0  0  0  0
  5  6  1  6  0  0  0
  7  8  1  6  0  0  0
  7  5  1  0  0  0  0
  9 11  1  1  0  0  0
  9  7  1  0  0  0  0
 10  9  1  0  0  0  0
 10  1  1  0  0  0  0
 12 11  1  0  0  0  0
 13 14  1  1  0  0  0
 15 13  1  0  0  0  0
 16 17  1  1  0  0  0
 16 15  1  0  0  0  0
 18  2  1  6  0  0  0
 18 19  1  0  0  0  0
 18 16  1  0  0  0  0
 19 20  1  1  0  0  0
 19 21  1  0  0  0  0
 21 22  1  6  0  0  0
 21 13  1  0  0  0  0
 23 20  1  1  0  0  0
 23 29  1  0  0  0  0
 24 25  1  6  0  0  0
 24 26  1  0  0  0  0
 24 23  1  0  0  0  0
 26 27  1  6  0  0  0
 26 28  1  0  0  0  0
 28 30  1  6  0  0  0
 29 28  1  0  0  0  0
 30 31  1  0  0  0  0
 32 27  1  1  0  0  0
 32 40  1  0  0  0  0
 33 35  1  0  0  0  0
 33 32  1  0  0  0  0
 33 34  1  1  0  0  0
 35 36  1  1  0  0  0
 35 37  1  0  0  0  0
 37 38  1  1  0  0  0
 37 39  1  0  0  0  0
 39 41  1  1  0  0  0
 40 39  1  0  0  0  0
 41 42  1  0  0  0  0
M  END
>  <CHROM.1>
-149.93794026,42.56880046,-149.78938928,152.66417282,142.79534536,-73.80146905
146.49189772,-148.76439085,-63.78915774,1.25095415,11.47243523,9.86430726
1.21275970,-0.64000387,0.28345985

>  <Name>
lig.pdb

>  <RI>
0

>  <Rbt.Current_Directory>
/home/itssahil/PROJECTS/Mol_Feturizer/New_Systems/rnas/4wcr

>  <Rbt.Executable>
rbdock ($Id: //depot/dev/client3/rdock/2013.1/src/exe/rbdock.cxx#4 $)

>  <Rbt.Library>
libRbt.so (2013.1, Build901 2013/11/27)

>  <Rbt.Parameter_File>
/export/apps/rDock/src/rDock_2013.1_src/data/scripts/dock_solv.prm

>  <Rbt.Receptor>
prm/blind_docking_80.prm

>  <SCORE>
1.27768

>  <SCORE.INTER>
-12.1258

>  <SCORE.INTER.CONST>
1

>  <SCORE.INTER.POLAR>
0

>  <SCORE.INTER.ROT>
9

>  <SCORE.INTER.SOLV>
29.141

>  <SCORE.INTER.VDW>
-27.3975

>  <SCORE.INTER.norm>
-0.288709

>  <SCORE.INTRA>
8.07842

>  <SCORE.INTRA.DIHEDRAL>
7.98662

>  <SCORE.INTRA.DIHEDRAL.0>
16.2863

>  <SCORE.INTRA.POLAR>
0

>  <SCORE.INTRA.POLAR.0>
0

>  <SCORE.INTRA.REPUL>
0.309832

>  <SCORE.INTRA.REPUL.0>
0.314433

>  <SCORE.INTRA.SOLV>
2.07558

>  <SCORE.INTRA.SOLV.lig_0>
-103.824

>  <SCORE.INTRA.VDW>
1.49817

>  <SCORE.INTRA.VDW.0>
-5.30945

>  <SCORE.INTRA.norm>
0.192343

>  <SCORE.RESTR>
5.32504

>  <SCORE.RESTR.CAVITY>
5.32504

>  <SCORE.RESTR.norm>
0.126787

>  <SCORE.SYSTEM>
0

>  <SCORE.SYSTEM.CONST>
0

>  <SCORE.SYSTEM.DIHEDRAL>
0

>  <SCORE.SYSTEM.SOLV>
0

>  <SCORE.SYSTEM.norm>
0

>  <SCORE.heavy>
42

>  <SCORE.norm>
0.0304209

>  <RMSD>
27.725

$$$$
lig.pdb
 OpenBabel11021811513D
libRbt.so/2013.1/901 2013/11/27
 42 45  0  0  0  0  0  0  0  0999 V2000
    1.2384   13.1989   10.8724 C   0  0  2  0  0  0  0  0  0  0  0  0
    1.3786   13.3760    9.4280 O   0  0  0  0  0  0  0  0  0  0  0  0
    0.7844   14.6132   11.4501 C   0  0  2  0  0  0  0  0  0  0  0  0
   -0.5135   14.9990   10.8895 N   0  0  0  0  0  0  0  0  0  0  0  0
    1.9289   15.6936   11.1302 C   0  0  1  0  0  0  0  0  0  0  0  0
    1.5742   16.9952   11.6427 O   0  0  0  0  0  0  0  0  0  0  0  0
    3.2332   15.1737   11.7588 C   0  0  2  0  0  0  0  0  0  0  0  0
    4.2475   16.0836   11.5001 O   0  0  0  0  0  0  0  0  0  0  0  0
    3.5903   13.7374   11.1606 C   0  0  2  0  0  0  0  0  0  0  0  0
    2.5473   12.7904   11.4234 O   0  0  0  0  0  0  0  0  0  0  0  0
    4.8491   13.1751   11.7575 C   0  0  0  0  0  0  0  0  0  0  0  0
    4.5876   12.8955   13.1334 O   0  0  0  0  0  0  0  0  0  0  0  0
   -2.4156   14.0737    7.2168 C   0  0  2  0  0  0  0  0  0  0  0  0
   -3.4915   13.9171    6.2623 N   0  0  0  0  0  0  0  0  0  0  0  0
   -1.0330   14.1827    6.4650 C   0  0  0  0  0  0  0  0  0  0  0  0
    0.1524   14.3491    7.4797 C   0  0  2  0  0  0  0  0  0  0  0  0
    1.4125   14.4389    6.7450 N   0  0  0  0  0  0  0  0  0  0  0  0
    0.2461   13.1373    8.5100 C   0  0  2  0  0  0  0  0  0  0  0  0
   -1.1102   13.0662    9.2695 C   0  0  2  0  0  0  0  0  0  0  0  0
   -0.9352   11.9085   10.2244 O   0  0  0  0  0  0  0  0  0  0  0  0
   -2.3279   12.8264    8.2172 C   0  0  1  0  0  0  0  0  0  0  0  0
   -3.6636   12.7972    8.8147 O   0  0  0  0  0  0  0  0  0  0  0  0
   -0.3367   10.8401    9.6098 C   0  0  1  0  0  0  0  0  0  0  0  0
   -0.7986    9.5469   10.1249 C   0  0  2  0  0  0  0  0  0  0  0  0
   -0.2466    9.3830   11.3918 O   0  0  0  0  0  0  0  0  0  0  0  0
   -0.3871    8.6025    8.9750 C   0  0  2  0  0  0  0  0  0  0  0  0
    0.5498    7.6523    9.5308 O   0  0  0  0  0  0  0  0  0  0  0  0
    0.2394    9.4930    7.9531 C   0  0  2  0  0  0  0  0  0  0  0  0
   -0.5776   10.6883    8.2207 O   0  0  0  0  0  0  0  0  0  0  0  0
   -0.0151    8.9740    6.4902 C   0  0  0  0  0  0  0  0  0  0  0  0
   -0.9474    9.7998    5.7299 O   0  0  0  0  0  0  0  0  0  0  0  0
    1.9656    8.0005    9.4569 C   0  0  2  0  0  0  0  0  0  0  0  0
    2.8362    6.6495    9.6329 C   0  0  2  0  0  0  0  0  0  0  0  0
    2.4911    6.0080   10.9429 N   0  0  0  0  0  0  0  0  0  0  0  0
    4.3929    7.0410    9.5466 C   0  0  1  0  0  0  0  0  0  0  0  0
    4.6129    7.6604    8.2429 O   0  0  0  0  0  0  0  0  0  0  0  0
    4.7528    8.0490   10.7293 C   0  0  2  0  0  0  0  0  0  0  0  0
    4.5185    7.3472   12.0110 O   0  0  0  0  0  0  0  0  0  0  0  0
    3.8222    9.3789   10.5648 C   0  0  1  0  0  0  0  0  0  0  0  0
    2.3669    8.9828   10.5764 O   0  0  0  0  0  0  0  0  0  0  0  0
    4.1371   10.3846   11.7215 C   0  0  0  0  0  0  0  0  0  0  0  0
    5.6043   10.5709   11.9450 N   0  0  0  0  0  0  0  0  0  0  0  0
  1  3  1  0  0  0  0
  1  2  1  6  0  0  0
  3  4  1  6  0  0  0
  3  5  1  0  0  0  0
  5  6  1  1  0  0  0
  7  8  1  6  0  0  0
  7  5  1  0  0  0  0
  9 11  1  1  0  0  0
  9  7  1  0  0  0  0
 10  9  1  0  0  0  0
 10  1  1  0  0  0  0
 12 11  1  0  0  0  0
 13 14  1  6  0  0  0
 15 13  1  0  0  0  0
 16 17  1  6  0  0  0
 16 15  1  0  0  0  0
 18  2  1  1  0  0  0
 18 19  1  0  0  0  0
 18 16  1  0  0  0  0
 19 20  1  1  0  0  0
 19 21  1  0  0  0  0
 21 22  1  1  0  0  0
 21 13  1  0  0  0  0
 23 20  1  1  0  0  0
 23 29  1  0  0  0  0
 24 25  1  1  0  0  0
 24 26  1  0  0  0  0
 24 23  1  0  0  0  0
 26 27  1  1  0  0  0
 26 28  1  0  0  0  0
 28 30  1  6  0  0  0
 29 28  1  0  0  0  0
 30 31  1  0  0  0  0
 32 27  1  1  0  0  0
 32 40  1  0  0  0  0
 33 35  1  0  0  0  0
 33 32  1  0  0  0  0
 33 34  1  1  0  0  0
 35 36  1  6  0  0  0
 35 37  1  0  0  0  0
 37 38  1  1  0  0  0
 37 39  1  0  0  0  0
 39 41  1  1  0  0  0
 40 39  1  0  0  0  0
 41 42  1  0  0  0  0
M  END
>  <CHROM.1>
-90.37928351,67.40780057,133.56355092,-43.76048588,-146.97157807,-91.32978899
109.00060537,-160.35989945,46.04472588,1.32640442,11.48076711,9.75282449
-2.28233708,0.60525913,-2.94206213

>  <Name>
lig.pdb

>  <RI>
0

>  <Rbt.Current_Directory>
/home/itssahil/PROJECTS/Mol_Feturizer/New_Systems/rnas/4wcr

>  <Rbt.Executable>
rbdock ($Id: //depot/dev/client3/rdock/2013.1/src/exe/rbdock.cxx#4 $)

>  <Rbt.Library>
libRbt.so (2013.1, Build901 2013/11/27)

>  <Rbt.Parameter_File>
/export/apps/rDock/src/rDock_2013.1_src/data/scripts/dock_solv.prm

>  <Rbt.Receptor>
prm/blind_docking_20.prm

>  <SCORE>
74.4319

>  <SCORE.INTER>
15.125

>  <SCORE.INTER.CONST>
1

>  <SCORE.INTER.POLAR>
0

>  <SCORE.INTER.ROT>
9

>  <SCORE.INTER.SOLV>
22.8142

>  <SCORE.INTER.VDW>
-7.1214

>  <SCORE.INTER.norm>
0.360119

>  <SCORE.INTRA>
17.4112

>  <SCORE.INTRA.DIHEDRAL>
10.0607

>  <SCORE.INTRA.DIHEDRAL.0>
16.2863

>  <SCORE.INTRA.POLAR>
0

>  <SCORE.INTRA.POLAR.0>
0

>  <SCORE.INTRA.REPUL>
-0.314433

>  <SCORE.INTRA.REPUL.0>
0.314433

>  <SCORE.INTRA.SOLV>
3.48413

>  <SCORE.INTRA.SOLV.lig_0>
-103.824

>  <SCORE.INTRA.VDW>
12.211

>  <SCORE.INTRA.VDW.0>
-5.30945

>  <SCORE.INTRA.norm>
0.414553

>  <SCORE.RESTR>
41.8957

>  <SCORE.RESTR.CAVITY>
41.8957

>  <SCORE.RESTR.norm>
0.997516

>  <SCORE.SYSTEM>
0

>  <SCORE.SYSTEM.CONST>
0

>  <SCORE.SYSTEM.DIHEDRAL>
0

>  <SCORE.SYSTEM.SOLV>
0

>  <SCORE.SYSTEM.norm>
0

>  <SCORE.heavy>
42

>  <SCORE.norm>
1.77219

>  <RMSD>
27.748

$$$$
lig.pdb
 OpenBabel11021811513D
libRbt.so/2013.1/901 2013/11/27
 42 45  0  0  0  0  0  0  0  0999 V2000
    4.5927    9.6567   10.1318 C   0  0  2  0  0  0  0  0  0  0  0  0
    5.0028    9.4550   11.5204 O   0  0  0  0  0  0  0  0  0  0  0  0
    2.9992    9.6308   10.1322 C   0  0  2  0  0  0  0  0  0  0  0  0
    2.4726   10.7282   10.9484 N   0  0  0  0  0  0  0  0  0  0  0  0
    2.5059    8.1946   10.6554 C   0  0  1  0  0  0  0  0  0  0  0  0
    1.0652    8.1108   10.6657 O   0  0  0  0  0  0  0  0  0  0  0  0
    3.1280    7.1353    9.7294 C   0  0  2  0  0  0  0  0  0  0  0  0
    2.7238    5.8783   10.1537 O   0  0  0  0  0  0  0  0  0  0  0  0
    4.7193    7.2600    9.7527 C   0  0  2  0  0  0  0  0  0  0  0  0
    5.1461    8.5562    9.3155 O   0  0  0  0  0  0  0  0  0  0  0  0
    5.3767    6.2572    8.8474 C   0  0  0  0  0  0  0  0  0  0  0  0
    6.7859    6.4823    8.9038 O   0  0  0  0  0  0  0  0  0  0  0  0
    6.4673   12.2745   14.6315 C   0  0  2  0  0  0  0  0  0  0  0  0
    7.3398   13.1521   15.3808 N   0  0  0  0  0  0  0  0  0  0  0  0
    7.1238   10.8471   14.4885 C   0  0  0  0  0  0  0  0  0  0  0  0
    6.1978    9.8762   13.6747 C   0  0  2  0  0  0  0  0  0  0  0  0
    6.8442    8.5705   13.5593 N   0  0  0  0  0  0  0  0  0  0  0  0
    5.8808   10.4214   12.2116 C   0  0  2  0  0  0  0  0  0  0  0  0
    5.2002   11.8118   12.3703 C   0  0  2  0  0  0  0  0  0  0  0  0
    4.9262   12.2498   10.9505 O   0  0  0  0  0  0  0  0  0  0  0  0
    6.1933   12.8334   13.1561 C   0  0  1  0  0  0  0  0  0  0  0  0
    5.6352   14.1619   13.4127 O   0  0  0  0  0  0  0  0  0  0  0  0
    3.9478   13.2079   10.9033 C   0  0  1  0  0  0  0  0  0  0  0  0
    2.8893   12.9989   11.8968 C   0  0  2  0  0  0  0  0  0  0  0  0
    2.1276   11.9149   11.4709 O   0  0  0  0  0  0  0  0  0  0  0  0
    2.2595   14.4068   11.9637 C   0  0  2  0  0  0  0  0  0  0  0  0
    0.8803   14.2665   11.5542 O   0  0  0  0  0  0  0  0  0  0  0  0
    3.0590   15.2303   11.0085 C   0  0  2  0  0  0  0  0  0  0  0  0
    4.3447   14.5375   11.1952 O   0  0  0  0  0  0  0  0  0  0  0  0
    3.1720   16.7270   11.4790 C   0  0  0  0  0  0  0  0  0  0  0  0
    1.8978   17.3109   11.8847 O   0  0  0  0  0  0  0  0  0  0  0  0
    0.6400   13.7651   10.2045 C   0  0  2  0  0  0  0  0  0  0  0  0
   -0.6873   14.4800    9.6202 C   0  0  2  0  0  0  0  0  0  0  0  0
   -1.8427   14.1942   10.5312 N   0  0  0  0  0  0  0  0  0  0  0  0
   -0.9425   13.9255    8.1331 C   0  0  1  0  0  0  0  0  0  0  0  0
    0.2399   14.2494    7.3403 O   0  0  0  0  0  0  0  0  0  0  0  0
   -1.1827   12.3496    8.1885 C   0  0  2  0  0  0  0  0  0  0  0  0
   -2.4000   12.1039    8.9935 O   0  0  0  0  0  0  0  0  0  0  0  0
    0.1451   11.6553    8.8340 C   0  0  1  0  0  0  0  0  0  0  0  0
    0.4090   12.2400   10.1990 O   0  0  0  0  0  0  0  0  0  0  0  0
   -0.0631   10.1068    8.9199 C   0  0  0  0  0  0  0  0  0  0  0  0
   -0.1917    9.4632    7.5758 N   0  0  0  0  0  0  0  0  0  0  0  0
  1  3  1  0  0  0  0
  1  2  1  1  0  0  0
  3  4  1  1  0  0  0
  3  5  1  0  0  0  0
  5  6  1  6  0  0  0
  7  8  1  1  0  0  0
  7  5  1  0  0  0  0
  9 11  1  6  0  0  0
  9  7  1  0  0  0  0
 10  9  1  0  0  0  0
 10  1  1  0  0  0  0
 12 11  1  0  0  0  0
 13 14  1  6  0  0  0
 15 13  1  0  0  0  0
 16 17  1  6  0  0  0
 16 15  1  0  0  0  0
 18  2  1  1  0  0  0
 18 19  1  0  0  0  0
 18 16  1  0  0  0  0
 19 20  1  6  0  0  0
 19 21  1  0  0  0  0
 21 22  1  1  0  0  0
 21 13  1  0  0  0  0
 23 20  1  1  0  0  0
 23 29  1  0  0  0  0
 24 25  1  6  0  0  0
 24 26  1  0  0  0  0
 24 23  1  0  0  0  0
 26 27  1  6  0  0  0
 26 28  1  0  0  0  0
 28 30  1  1  0  0  0
 29 28  1  0  0  0  0
 30 31  1  0  0  0  0
 32 27  1  1  0  0  0
 32 40  1  0  0  0  0
 33 35  1  0  0  0  0
 33 32  1  0  0  0  0
 33 34  1  1  0  0  0
 35 36  1  6  0  0  0
 35 37  1  0  0  0  0
 37 38  1  1  0  0  0
 37 39  1  0  0  0  0
 39 41  1  1  0  0  0
 40 39  1  0  0  0  0
 41 42  1  0  0  0  0
M  END
>  <CHROM.1>
-124.12123626,177.97328798,-177.09475916,159.31107847,-36.32688509,-60.80001634
-47.54616647,-145.75330981,64.62133556,3.01183844,11.48978160,10.85229907
0.56257463,0.55325981,-2.79331054

>  <Name>
lig.pdb

>  <RI>
0

>  <Rbt.Current_Directory>
/home/itssahil/PROJECTS/Mol_Feturizer/New_Systems/rnas/4wcr

>  <Rbt.Executable>
rbdock ($Id: //depot/dev/client3/rdock/2013.1/src/exe/rbdock.cxx#4 $)

>  <Rbt.Library>
libRbt.so (2013.1, Build901 2013/11/27)

>  <Rbt.Parameter_File>
/export/apps/rDock/src/rDock_2013.1_src/data/scripts/dock_solv.prm

>  <Rbt.Receptor>
prm/blind_docking_20.prm

>  <SCORE>
59.1028

>  <SCORE.INTER>
-5.62268

>  <SCORE.INTER.CONST>
1

>  <SCORE.INTER.POLAR>
0

>  <SCORE.INTER.ROT>
9

>  <SCORE.INTER.SOLV>
30.1266

>  <SCORE.INTER.VDW>
-23.3906

>  <SCORE.INTER.norm>
-0.133873

>  <SCORE.INTRA>
30.9478

>  <SCORE.INTRA.DIHEDRAL>
0.638958

>  <SCORE.INTRA.DIHEDRAL.0>
16.2863

>  <SCORE.INTRA.POLAR>
0

>  <SCORE.INTRA.POLAR.0>
0

>  <SCORE.INTRA.REPUL>
0.0974132

>  <SCORE.INTRA.REPUL.0>
0.314433

>  <SCORE.INTRA.SOLV>
5.4876

>  <SCORE.INTRA.SOLV.lig_0>
-103.824

>  <SCORE.INTRA.VDW>
27.3974

>  <SCORE.INTRA.VDW.0>
-5.30945

>  <SCORE.INTRA.norm>
0.736852

>  <SCORE.RESTR>
33.7777

>  <SCORE.RESTR.CAVITY>
33.7777

>  <SCORE.RESTR.norm>
0.804231

>  <SCORE.SYSTEM>
0

>  <SCORE.SYSTEM.CONST>
0

>  <SCORE.SYSTEM.DIHEDRAL>
0

>  <SCORE.SYSTEM.SOLV>
0

>  <SCORE.SYSTEM.norm>
0

>  <SCORE.heavy>
42

>  <SCORE.norm>
1.40721

>  <RMSD>
27.752

$$$$
lig.pdb
 OpenBabel11021811513D
libRbt.so/2013.1/901 2013/11/27
 42 45  0  0  0  0  0  0  0  0999 V2000
    1.2044    8.3320   10.3116 C   0  0  2  0  0  0  0  0  0  0  0  0
    0.8100    8.8099    8.9875 O   0  0  0  0  0  0  0  0  0  0  0  0
    2.4769    7.3995   10.0852 C   0  0  2  0  0  0  0  0  0  0  0  0
    3.5800    8.1746    9.5107 N   0  0  0  0  0  0  0  0  0  0  0  0
    2.0524    6.1638    9.1511 C   0  0  1  0  0  0  0  0  0  0  0  0
    3.1678    5.2774    8.9216 O   0  0  0  0  0  0  0  0  0  0  0  0
    0.8902    5.4413    9.8536 C   0  0  2  0  0  0  0  0  0  0  0  0
    0.4950    4.3659    9.0719 O   0  0  0  0  0  0  0  0  0  0  0  0
   -0.3216    6.4551   10.0821 C   0  0  2  0  0  0  0  0  0  0  0  0
    0.0778    7.5698   10.8892 O   0  0  0  0  0  0  0  0  0  0  0  0
   -1.4784    5.8020   10.7840 C   0  0  0  0  0  0  0  0  0  0  0  0
   -0.9584    5.1030   11.9157 O   0  0  0  0  0  0  0  0  0  0  0  0
   -1.1607   12.5043    7.4909 C   0  0  2  0  0  0  0  0  0  0  0  0
   -2.1697   13.5090    7.2349 N   0  0  0  0  0  0  0  0  0  0  0  0
   -1.6668   11.0899    7.0094 C   0  0  0  0  0  0  0  0  0  0  0  0
   -0.5907    9.9803    7.2804 C   0  0  2  0  0  0  0  0  0  0  0  0
   -1.1004    8.6877    6.8276 N   0  0  0  0  0  0  0  0  0  0  0  0
   -0.2080    9.8676    8.8229 C   0  0  2  0  0  0  0  0  0  0  0  0
    0.3242   11.2589    9.2733 C   0  0  2  0  0  0  0  0  0  0  0  0
    0.6707   11.0643   10.7310 O   0  0  0  0  0  0  0  0  0  0  0  0
   -0.8210   12.3934    9.0519 C   0  0  1  0  0  0  0  0  0  0  0  0
   -0.4126   13.7573    9.3910 O   0  0  0  0  0  0  0  0  0  0  0  0
    1.5785   11.9977   11.1575 C   0  0  1  0  0  0  0  0  0  0  0  0
    2.9465   11.7169   10.7094 C   0  0  2  0  0  0  0  0  0  0  0  0
    3.4119   10.6337   11.4488 O   0  0  0  0  0  0  0  0  0  0  0  0
    3.6053   13.1035   10.8722 C   0  0  2  0  0  0  0  0  0  0  0  0
    4.6776   12.9460   11.8288 O   0  0  0  0  0  0  0  0  0  0  0  0
    2.5143   13.9896   11.3764 C   0  0  2  0  0  0  0  0  0  0  0  0
    1.3978   13.3228   10.6860 O   0  0  0  0  0  0  0  0  0  0  0  0
    2.6732   15.4661   10.8578 C   0  0  0  0  0  0  0  0  0  0  0  0
    1.4946   16.2961   11.0838 O   0  0  0  0  0  0  0  0  0  0  0  0
    5.0240   14.1154   12.6309 C   0  0  2  0  0  0  0  0  0  0  0  0
    5.9139   13.6287   13.8901 C   0  0  2  0  0  0  0  0  0  0  0  0
    5.1360   12.6231   14.6839 N   0  0  0  0  0  0  0  0  0  0  0  0
    6.2941   14.9222   14.7656 C   0  0  1  0  0  0  0  0  0  0  0  0
    7.0369   15.8309   13.8972 O   0  0  0  0  0  0  0  0  0  0  0  0
    4.9592   15.6077   15.3066 C   0  0  2  0  0  0  0  0  0  0  0  0
    4.2731   14.6345   16.1854 O   0  0  0  0  0  0  0  0  0  0  0  0
    4.0517   16.0381   14.0209 C   0  0  1  0  0  0  0  0  0  0  0  0
    3.7658   14.8234   13.1738 O   0  0  0  0  0  0  0  0  0  0  0  0
    2.7229   16.6998   14.5160 C   0  0  0  0  0  0  0  0  0  0  0  0
    2.0037   17.4387   13.4324 N   0  0  0  0  0  0  0  0  0  0  0  0
  1  3  1  0  0  0  0
  1  2  1  6  0  0  0
  3  4  1  6  0  0  0
  3  5  1  0  0  0  0
  5  6  1  1  0  0  0
  7  8  1  6  0  0  0
  7  5  1  0  0  0  0
  9 11  1  1  0  0  0
  9  7  1  0  0  0  0
 10  9  1  0  0  0  0
 10  1  1  0  0  0  0
 12 11  1  0  0  0  0
 13 14  1  1  0  0  0
 15 13  1  0  0  0  0
 16 17  1  1  0  0  0
 16 15  1  0  0  0  0
 18  2  1  6  0  0  0
 18 19  1  0  0  0  0
 18 16  1  0  0  0  0
 19 20  1  1  0  0  0
 19 21  1  0  0  0  0
 21 22  1  6  0  0  0
 21 13  1  0  0  0  0
 23 20  1  6  0  0  0
 23 29  1  0  0  0  0
 24 25  1  1  0  0  0
 24 26  1  0  0  0  0
 24 23  1  0  0  0  0
 26 27  1  1  0  0  0
 26 28  1  0  0  0  0
 28 30  1  6  0  0  0
 29 28  1  0  0  0  0
 30 31  1  0  0  0  0
 32 27  1  1  0  0  0
 32 40  1  0  0  0  0
 33 35  1  0  0  0  0
 33 32  1  0  0  0  0
 33 34  1  1  0  0  0
 35 36  1  6  0  0  0
 35 37  1  0  0  0  0
 37 38  1  1  0  0  0
 37 39  1  0  0  0  0
 39 41  1  1  0  0  0
 40 39  1  0  0  0  0
 41 42  1  0  0  0  0
M  END
>  <CHROM.1>
-170.41152381,48.33441250,-170.29862324,157.95348569,-76.54825588,-151.19988767
167.71872491,163.96807588,164.96877788,1.91589335,11.38665923,10.95313971
-2.15193006,-0.74195584,0.08095853

>  <Name>
lig.pdb

>  <RI>
0

>  <Rbt.Current_Directory>
/home/itssahil/PROJECTS/Mol_Feturizer/New_Systems/rnas/4wcr

>  <Rbt.Executable>
rbdock ($Id: //depot/dev/client3/rdock/2013.1/src/exe/rbdock.cxx#4 $)

>  <Rbt.Library>
libRbt.so (2013.1, Build901 2013/11/27)

>  <Rbt.Parameter_File>
/export/apps/rDock/src/rDock_2013.1_src/data/scripts/dock_solv.prm

>  <Rbt.Receptor>
prm/blind_docking_80.prm

>  <SCORE>
19.5719

>  <SCORE.INTER>
8.47225

>  <SCORE.INTER.CONST>
1

>  <SCORE.INTER.POLAR>
0

>  <SCORE.INTER.ROT>
9

>  <SCORE.INTER.SOLV>
30.7131

>  <SCORE.INTER.VDW>
-14.1895

>  <SCORE.INTER.norm>
0.20172

>  <SCORE.INTRA>
6.8542

>  <SCORE.INTRA.DIHEDRAL>
-5.21924

>  <SCORE.INTRA.DIHEDRAL.0>
16.2863

>  <SCORE.INTRA.POLAR>
0

>  <SCORE.INTRA.POLAR.0>
0

>  <SCORE.INTRA.REPUL>
-0.314433

>  <SCORE.INTRA.REPUL.0>
0.314433

>  <SCORE.INTRA.SOLV>
0.0085516

>  <SCORE.INTRA.SOLV.lig_0>
-103.824

>  <SCORE.INTRA.VDW>
11.0317

>  <SCORE.INTRA.VDW.0>
-5.30945

>  <SCORE.INTRA.norm>
0.163195

>  <SCORE.RESTR>
4.24544

>  <SCORE.RESTR.CAVITY>
4.24544

>  <SCORE.RESTR.norm>
0.101082

>  <SCORE.SYSTEM>
0

>  <SCORE.SYSTEM.CONST>
0

>  <SCORE.SYSTEM.DIHEDRAL>
0

>  <SCORE.SYSTEM.SOLV>
0

>  <SCORE.SYSTEM.norm>
0

>  <SCORE.heavy>
42

>  <SCORE.norm>
0.465997

>  <RMSD>
27.784

$$$$
lig.pdb
 OpenBabel11021811513D
libRbt.so/2013.1/901 2013/11/27
 42 45  0  0  0  0  0  0  0  0999 V2000
    0.8927    7.1216    8.9162 C   0  0  2  0  0  0  0  0  0  0  0  0
    0.3003    7.0981   10.2525 O   0  0  0  0  0  0  0  0  0  0  0  0
    1.4628    5.6558    8.6584 C   0  0  2  0  0  0  0  0  0  0  0  0
    0.3737    4.6754    8.6793 N   0  0  0  0  0  0  0  0  0  0  0  0
    2.5871    5.3375    9.7603 C   0  0  1  0  0  0  0  0  0  0  0  0
    3.1479    4.0219    9.5671 O   0  0  0  0  0  0  0  0  0  0  0  0
    3.6606    6.4332    9.6440 C   0  0  2  0  0  0  0  0  0  0  0  0
    4.6501    6.1908   10.5851 O   0  0  0  0  0  0  0  0  0  0  0  0
    2.9992    7.8685    9.8698 C   0  0  2  0  0  0  0  0  0  0  0  0
    1.9751    8.1276    8.9014 O   0  0  0  0  0  0  0  0  0  0  0  0
    4.0046    8.9781    9.7473 C   0  0  0  0  0  0  0  0  0  0  0  0
    4.5687    9.1950   11.0413 O   0  0  0  0  0  0  0  0  0  0  0  0
   -3.6816    9.0736   10.3735 C   0  0  2  0  0  0  0  0  0  0  0  0
   -4.7747    9.9242   10.7915 N   0  0  0  0  0  0  0  0  0  0  0  0
   -3.2213    8.1525   11.5687 C   0  0  0  0  0  0  0  0  0  0  0  0
   -2.0321    7.2219   11.1418 C   0  0  2  0  0  0  0  0  0  0  0  0
   -1.6323    6.3923   12.2765 N   0  0  0  0  0  0  0  0  0  0  0  0
   -0.7648    8.0461   10.6388 C   0  0  2  0  0  0  0  0  0  0  0  0
   -1.2254    8.9210    9.4371 C   0  0  2  0  0  0  0  0  0  0  0  0
    0.0263    9.6558    9.0177 O   0  0  0  0  0  0  0  0  0  0  0  0
   -2.4130    9.9306    9.9040 C   0  0  1  0  0  0  0  0  0  0  0  0
   -2.9657   10.7682    8.8386 O   0  0  0  0  0  0  0  0  0  0  0  0
    0.1816   10.8205    9.7224 C   0  0  1  0  0  0  0  0  0  0  0  0
    1.5865   11.1564    9.9766 C   0  0  2  0  0  0  0  0  0  0  0  0
    2.0564   10.2735   10.9443 O   0  0  0  0  0  0  0  0  0  0  0  0
    1.4813   12.6639   10.2922 C   0  0  2  0  0  0  0  0  0  0  0  0
    1.9649   12.8419   11.6428 O   0  0  0  0  0  0  0  0  0  0  0  0
    0.0289   12.9834   10.1577 C   0  0  2  0  0  0  0  0  0  0  0  0
   -0.2799   12.0076    9.0993 O   0  0  0  0  0  0  0  0  0  0  0  0
   -0.2015   14.4486    9.6337 C   0  0  0  0  0  0  0  0  0  0  0  0
    0.4696   14.7304    8.3690 O   0  0  0  0  0  0  0  0  0  0  0  0
    2.2610   14.2080   12.0635 C   0  0  2  0  0  0  0  0  0  0  0  0
    3.4233   14.7989   11.1074 C   0  0  2  0  0  0  0  0  0  0  0  0
    4.6319   13.9169   11.1983 N   0  0  0  0  0  0  0  0  0  0  0  0
    3.7406   16.3039   11.5747 C   0  0  1  0  0  0  0  0  0  0  0  0
    2.5012   17.0661   11.4538 O   0  0  0  0  0  0  0  0  0  0  0  0
    4.2631   16.2925   13.0818 C   0  0  2  0  0  0  0  0  0  0  0  0
    5.5228   15.5167   13.1197 O   0  0  0  0  0  0  0  0  0  0  0  0
    3.0978   15.6399   14.0189 C   0  0  1  0  0  0  0  0  0  0  0  0
    2.7638   14.2560   13.5209 O   0  0  0  0  0  0  0  0  0  0  0  0
    3.5845   15.5968   15.5055 C   0  0  0  0  0  0  0  0  0  0  0  0
    3.9060   16.9522   16.0503 N   0  0  0  0  0  0  0  0  0  0  0  0
  1  3  1  0  0  0  0
  1  2  1  1  0  0  0
  3  4  1  1  0  0  0
  3  5  1  0  0  0  0
  5  6  1  6  0  0  0
  7  8  1  1  0  0  0
  7  5  1  0  0  0  0
  9 11  1  6  0  0  0
  9  7  1  0  0  0  0
 10  9  1  0  0  0  0
 10  1  1  0  0  0  0
 12 11  1  0  0  0  0
 13 14  1  1  0  0  0
 15 13  1  0  0  0  0
 16 17  1  1  0  0  0
 16 15  1  0  0  0  0
 18  2  1  6  0  0  0
 18 19  1  0  0  0  0
 18 16  1  0  0  0  0
 19 20  1  1  0  0  0
 19 21  1  0  0  0  0
 21 22  1  6  0  0  0
 21 13  1  0  0  0  0
 23 20  1  6  0  0  0
 23 29  1  0  0  0  0
 24 25  1  1  0  0  0
 24 26  1  0  0  0  0
 24 23  1  0  0  0  0
 26 27  1  1  0  0  0
 26 28  1  0  0  0  0
 28 30  1  6  0  0  0
 29 28  1  0  0  0  0
 30 31  1  0  0  0  0
 32 27  1  6  0  0  0
 32 40  1  0  0  0  0
 33 35  1  0  0  0  0
 33 32  1  0  0  0  0
 33 34  1  1  0  0  0
 35 36  1  1  0  0  0
 35 37  1  0  0  0  0
 37 38  1  6  0  0  0
 37 39  1  0  0  0  0
 39 41  1  1  0  0  0
 40 39  1  0  0  0  0
 41 42  1  0  0  0  0
M  END
>  <CHROM.1>
-155.40452757,-89.18516703,123.89958460,-87.37700924,146.44829258,165.97499822
55.86268043,-60.95784569,59.82885869,1.34108454,10.75501028,10.75784471,-1.88844794
-0.18841813,0.25953460

>  <Name>
lig.pdb

>  <RI>
0

>  <Rbt.Current_Directory>
/home/itssahil/PROJECTS/Mol_Feturizer/New_Systems/rnas/4wcr

>  <Rbt.Executable>
rbdock ($Id: //depot/dev/client3/rdock/2013.1/src/exe/rbdock.cxx#4 $)

>  <Rbt.Library>
libRbt.so (2013.1, Build901 2013/11/27)

>  <Rbt.Parameter_File>
/export/apps/rDock/src/rDock_2013.1_src/data/scripts/dock_solv.prm

>  <Rbt.Receptor>
prm/blind_docking_40.prm

>  <SCORE>
15.7711

>  <SCORE.INTER>
-0.395603

>  <SCORE.INTER.CONST>
1

>  <SCORE.INTER.POLAR>
0

>  <SCORE.INTER.ROT>
9

>  <SCORE.INTER.SOLV>
33.5347

>  <SCORE.INTER.VDW>
-21.042

>  <SCORE.INTER.norm>
-0.00941912

>  <SCORE.INTRA>
4.25511

>  <SCORE.INTRA.DIHEDRAL>
4.78323

>  <SCORE.INTRA.DIHEDRAL.0>
16.2863

>  <SCORE.INTRA.POLAR>
0

>  <SCORE.INTRA.POLAR.0>
0

>  <SCORE.INTRA.REPUL>
-0.314433

>  <SCORE.INTRA.REPUL.0>
0.314433

>  <SCORE.INTRA.SOLV>
-2.86042

>  <SCORE.INTRA.SOLV.lig_0>
-103.824

>  <SCORE.INTRA.VDW>
4.86586

>  <SCORE.INTRA.VDW.0>
-5.30945

>  <SCORE.INTRA.norm>
0.101312

>  <SCORE.RESTR>
11.9116

>  <SCORE.RESTR.CAVITY>
11.9116

>  <SCORE.RESTR.norm>
0.283609

>  <SCORE.SYSTEM>
0

>  <SCORE.SYSTEM.CONST>
0

>  <SCORE.SYSTEM.DIHEDRAL>
0

>  <SCORE.SYSTEM.SOLV>
0

>  <SCORE.SYSTEM.norm>
0

>  <SCORE.heavy>
42

>  <SCORE.norm>
0.375502

>  <RMSD>
27.788

$$$$
lig.pdb
 OpenBabel11021811513D
libRbt.so/2013.1/901 2013/11/27
 42 45  0  0  0  0  0  0  0  0999 V2000
    1.1179    8.3289   10.3585 C   0  0  2  0  0  0  0  0  0  0  0  0
    0.7241    8.8059    9.0339 O   0  0  0  0  0  0  0  0  0  0  0  0
    2.4180    7.4336   10.1386 C   0  0  2  0  0  0  0  0  0  0  0  0
    3.5051    8.2433    9.5815 N   0  0  0  0  0  0  0  0  0  0  0  0
    2.0375    6.1939    9.1909 C   0  0  1  0  0  0  0  0  0  0  0  0
    3.1793    5.3404    8.9666 O   0  0  0  0  0  0  0  0  0  0  0  0
    0.8885    5.4342    9.8757 C   0  0  2  0  0  0  0  0  0  0  0  0
    0.5313    4.3544    9.0820 O   0  0  0  0  0  0  0  0  0  0  0  0
   -0.3532    6.4124   10.0990 C   0  0  2  0  0  0  0  0  0  0  0  0
    0.0069    7.5315   10.9185 O   0  0  0  0  0  0  0  0  0  0  0  0
   -1.4986    5.7223   10.7838 C   0  0  0  0  0  0  0  0  0  0  0  0
   -0.9810    5.0780   11.9486 O   0  0  0  0  0  0  0  0  0  0  0  0
   -1.1886   12.4715    7.3976 C   0  0  2  0  0  0  0  0  0  0  0  0
   -2.1638   13.5103    7.1468 N   0  0  0  0  0  0  0  0  0  0  0  0
   -1.8137   11.0545    7.0977 C   0  0  0  0  0  0  0  0  0  0  0  0
   -0.7759    9.9085    7.3665 C   0  0  2  0  0  0  0  0  0  0  0  0
   -1.3954    8.6154    7.0843 N   0  0  0  0  0  0  0  0  0  0  0  0
   -0.2481    9.9059    8.8698 C   0  0  2  0  0  0  0  0  0  0  0  0
    0.3986   11.2956    9.1385 C   0  0  2  0  0  0  0  0  0  0  0  0
    0.8778   11.2064   10.5686 O   0  0  0  0  0  0  0  0  0  0  0  0
   -0.7016   12.4748    8.9231 C   0  0  1  0  0  0  0  0  0  0  0  0
   -0.1902   13.8353    9.0956 O   0  0  0  0  0  0  0  0  0  0  0  0
    2.2347   11.3769   10.6524 C   0  0  1  0  0  0  0  0  0  0  0  0
    2.6244   12.4463   11.5774 C   0  0  2  0  0  0  0  0  0  0  0  0
    2.3084   13.6575   10.9692 O   0  0  0  0  0  0  0  0  0  0  0  0
    4.0991   12.0816   11.8522 C   0  0  2  0  0  0  0  0  0  0  0  0
    4.8966   13.1977   11.3961 O   0  0  0  0  0  0  0  0  0  0  0  0
    4.3421   10.8416   11.0566 C   0  0  2  0  0  0  0  0  0  0  0  0
    2.9831   10.2844   11.1591 O   0  0  0  0  0  0  0  0  0  0  0  0
    5.3774    9.8888   11.7599 C   0  0  0  0  0  0  0  0  0  0  0  0
    6.3699   10.5942   12.5640 O   0  0  0  0  0  0  0  0  0  0  0  0
    5.1059   14.2898   12.3418 C   0  0  2  0  0  0  0  0  0  0  0  0
    5.8371   13.6973   13.6565 C   0  0  2  0  0  0  0  0  0  0  0  0
    4.9888   12.6102   14.2444 N   0  0  0  0  0  0  0  0  0  0  0  0
    6.0671   14.9063   14.6906 C   0  0  1  0  0  0  0  0  0  0  0  0
    6.8927   15.9034   14.0156 O   0  0  0  0  0  0  0  0  0  0  0  0
    4.6562   15.5193   15.1125 C   0  0  2  0  0  0  0  0  0  0  0  0
    3.8871   14.4577   15.7993 O   0  0  0  0  0  0  0  0  0  0  0  0
    3.9124   16.0582   13.7641 C   0  0  1  0  0  0  0  0  0  0  0  0
    3.7701   14.9260   12.7778 O   0  0  0  0  0  0  0  0  0  0  0  0
    2.5140   16.6519   14.1392 C   0  0  0  0  0  0  0  0  0  0  0  0
    1.7583   17.1530   12.9497 N   0  0  0  0  0  0  0  0  0  0  0  0
  1  3  1  0  0  0  0
  1  2  1  6  0  0  0
  3  4  1  6  0  0  0
  3  5  1  0  0  0  0
  5  6  1  1  0  0  0
  7  8  1  6  0  0  0
  7  5  1  0  0  0  0
  9 11  1  1  0  0  0
  9  7  1  0  0  0  0
 10  9  1  0  0  0  0
 10  1  1  0  0  0  0
 12 11  1  0  0  0  0
 13 14  1  1  0  0  0
 15 13  1  0  0  0  0
 16 17  1  1  0  0  0
 16 15  1  0  0  0  0
 18  2  1  6  0  0  0
 18 19  1  0  0  0  0
 18 16  1  0  0  0  0
 19 20  1  1  0  0  0
 19 21  1  0  0  0  0
 21 22  1  6  0  0  0
 21 13  1  0  0  0  0
 23 20  1  1  0  0  0
 23 29  1  0  0  0  0
 24 25  1  6  0  0  0
 24 26  1  0  0  0  0
 24 23  1  0  0  0  0
 26 27  1  6  0  0  0
 26 28  1  0  0  0  0
 28 30  1  1  0  0  0
 29 28  1  0  0  0  0
 30 31  1  0  0  0  0
 32 27  1  6  0  0  0
 32 40  1  0  0  0  0
 33 35  1  0  0  0  0
 33 32  1  0  0  0  0
 33 34  1  1  0  0  0
 35 36  1  6  0  0  0
 35 37  1  0  0  0  0
 37 38  1  6  0  0  0
 37 39  1  0  0  0  0
 39 41  1  1  0  0  0
 40 39  1  0  0  0  0
 41 42  1  0  0  0  0
M  END
>  <CHROM.1>
-165.83313396,50.84453791,-163.89971480,119.50093940,125.31825624,86.31173661
-30.37509491,59.16050748,-179.23635601,2.13390237,11.02028073,10.95223313
-2.18223534,-0.65807039,0.11682297

>  <Name>
lig.pdb

>  <RI>
0

>  <Rbt.Current_Directory>
/home/itssahil/PROJECTS/Mol_Feturizer/New_Systems/rnas/4wcr

>  <Rbt.Executable>
rbdock ($Id: //depot/dev/client3/rdock/2013.1/src/exe/rbdock.cxx#4 $)

>  <Rbt.Library>
libRbt.so (2013.1, Build901 2013/11/27)

>  <Rbt.Parameter_File>
/export/apps/rDock/src/rDock_2013.1_src/data/scripts/dock_solv.prm

>  <Rbt.Receptor>
prm/blind_docking_80.prm

>  <SCORE>
3.10098

>  <SCORE.INTER>
-4.64648

>  <SCORE.INTER.CONST>
1

>  <SCORE.INTER.POLAR>
0

>  <SCORE.INTER.ROT>
9

>  <SCORE.INTER.SOLV>
29.2683

>  <SCORE.INTER.VDW>
-22.4537

>  <SCORE.INTER.norm>
-0.11063

>  <SCORE.INTRA>
3.83169

>  <SCORE.INTRA.DIHEDRAL>
5.85807

>  <SCORE.INTRA.DIHEDRAL.0>
16.2863

>  <SCORE.INTRA.POLAR>
0

>  <SCORE.INTRA.POLAR.0>
0

>  <SCORE.INTRA.REPUL>
-0.314433

>  <SCORE.INTRA.REPUL.0>
0.314433

>  <SCORE.INTRA.SOLV>
2.61748

>  <SCORE.INTRA.SOLV.lig_0>
-103.824

>  <SCORE.INTRA.VDW>
1.16608

>  <SCORE.INTRA.VDW.0>
-5.30945

>  <SCORE.INTRA.norm>
0.0912308

>  <SCORE.RESTR>
3.91577

>  <SCORE.RESTR.CAVITY>
3.91577

>  <SCORE.RESTR.norm>
0.0932326

>  <SCORE.SYSTEM>
0

>  <SCORE.SYSTEM.CONST>
0

>  <SCORE.SYSTEM.DIHEDRAL>
0

>  <SCORE.SYSTEM.SOLV>
0

>  <SCORE.SYSTEM.norm>
0

>  <SCORE.heavy>
42

>  <SCORE.norm>
0.073833

>  <RMSD>
27.794

$$$$
lig.pdb
 OpenBabel11021811513D
libRbt.so/2013.1/901 2013/11/27
 42 45  0  0  0  0  0  0  0  0999 V2000
    3.4692   14.2298   11.2343 C   0  0  2  0  0  0  0  0  0  0  0  0
    3.1385   13.1936   12.2111 O   0  0  0  0  0  0  0  0  0  0  0  0
    3.9007   15.5117   12.0772 C   0  0  2  0  0  0  0  0  0  0  0  0
    5.0911   15.2162   12.8794 N   0  0  0  0  0  0  0  0  0  0  0  0
    2.6586   15.9766   12.9831 C   0  0  1  0  0  0  0  0  0  0  0  0
    2.9908   17.1450   13.7623 O   0  0  0  0  0  0  0  0  0  0  0  0
    1.4790   16.2461   12.0332 C   0  0  2  0  0  0  0  0  0  0  0  0
    0.3843   16.6493   12.7834 O   0  0  0  0  0  0  0  0  0  0  0  0
    1.1423   14.9286   11.1969 C   0  0  2  0  0  0  0  0  0  0  0  0
    2.2682   14.5047   10.4184 O   0  0  0  0  0  0  0  0  0  0  0  0
    0.0064   15.1446   10.2376 C   0  0  0  0  0  0  0  0  0  0  0  0
   -0.9900   14.1609   10.5189 O   0  0  0  0  0  0  0  0  0  0  0  0
    4.4797    9.5278   10.0813 C   0  0  2  0  0  0  0  0  0  0  0  0
    4.7790    8.1403    9.8016 N   0  0  0  0  0  0  0  0  0  0  0  0
    5.2148    9.9880   11.3991 C   0  0  0  0  0  0  0  0  0  0  0  0
    4.9024   11.4904   11.7273 C   0  0  2  0  0  0  0  0  0  0  0  0
    5.5948   11.8738   12.9559 N   0  0  0  0  0  0  0  0  0  0  0  0
    3.3434   11.7613   11.9127 C   0  0  2  0  0  0  0  0  0  0  0  0
    2.6371   11.3379   10.5923 C   0  0  2  0  0  0  0  0  0  0  0  0
    1.1774   11.6338   10.8463 O   0  0  0  0  0  0  0  0  0  0  0  0
    2.9098    9.7619   10.2934 C   0  0  1  0  0  0  0  0  0  0  0  0
    2.3371    9.2625    9.0425 O   0  0  0  0  0  0  0  0  0  0  0  0
    0.4068   11.3162    9.7588 C   0  0  1  0  0  0  0  0  0  0  0  0
   -0.8430   10.6375   10.1175 C   0  0  2  0  0  0  0  0  0  0  0  0
   -0.5148    9.3445   10.5138 O   0  0  0  0  0  0  0  0  0  0  0  0
   -1.6835   10.8647    8.8427 C   0  0  2  0  0  0  0  0  0  0  0  0
   -1.9929    9.5575    8.3088 O   0  0  0  0  0  0  0  0  0  0  0  0
   -0.8000   11.6582    7.9374 C   0  0  2  0  0  0  0  0  0  0  0  0
   -0.0779   12.4003    8.9841 O   0  0  0  0  0  0  0  0  0  0  0  0
   -1.6249   12.6488    7.0359 C   0  0  0  0  0  0  0  0  0  0  0  0
   -2.0132   13.8777    7.7202 O   0  0  0  0  0  0  0  0  0  0  0  0
   -0.9050    8.8372    7.6541 C   0  0  2  0  0  0  0  0  0  0  0  0
   -1.5272    7.9438    6.4588 C   0  0  2  0  0  0  0  0  0  0  0  0
   -2.5504    7.0064    7.0254 N   0  0  0  0  0  0  0  0  0  0  0  0
   -0.3230    7.1572    5.7411 C   0  0  1  0  0  0  0  0  0  0  0  0
    0.6109    8.1601    5.2372 O   0  0  0  0  0  0  0  0  0  0  0  0
    0.3843    6.1929    6.7966 C   0  0  2  0  0  0  0  0  0  0  0  0
   -0.6173    5.2013    7.2479 O   0  0  0  0  0  0  0  0  0  0  0  0
    0.9534    7.1092    8.0208 C   0  0  1  0  0  0  0  0  0  0  0  0
   -0.1792    7.8934    8.6347 O   0  0  0  0  0  0  0  0  0  0  0  0
    1.6401    6.1915    9.0862 C   0  0  0  0  0  0  0  0  0  0  0  0
    0.6975    5.2015    9.6933 N   0  0  0  0  0  0  0  0  0  0  0  0
  1  3  1  0  0  0  0
  1  2  1  1  0  0  0
  3  4  1  1  0  0  0
  3  5  1  0  0  0  0
  5  6  1  6  0  0  0
  7  8  1  1  0  0  0
  7  5  1  0  0  0  0
  9 11  1  6  0  0  0
  9  7  1  0  0  0  0
 10  9  1  0  0  0  0
 10  1  1  0  0  0  0
 12 11  1  0  0  0  0
 13 14  1  1  0  0  0
 15 13  1  0  0  0  0
 16 17  1  1  0  0  0
 16 15  1  0  0  0  0
 18  2  1  6  0  0  0
 18 19  1  0  0  0  0
 18 16  1  0  0  0  0
 19 20  1  1  0  0  0
 19 21  1  0  0  0  0
 21 22  1  6  0  0  0
 21 13  1  0  0  0  0
 23 20  1  1  0  0  0
 23 29  1  0  0  0  0
 24 25  1  6  0  0  0
 24 26  1  0  0  0  0
 24 23  1  0  0  0  0
 26 27  1  6  0  0  0
 26 28  1  0  0  0  0
 28 30  1  6  0  0  0
 29 28  1  0  0  0  0
 30 31  1  0  0  0  0
 32 27  1  1  0  0  0
 32 40  1  0  0  0  0
 33 35  1  0  0  0  0
 33 32  1  0  0  0  0
 33 34  1  1  0  0  0
 35 36  1  1  0  0  0
 35 37  1  0  0  0  0
 37 38  1  1  0  0  0
 37 39  1  0  0  0  0
 39 41  1  1  0  0  0
 40 39  1  0  0  0  0
 41 42  1  0  0  0  0
M  END
>  <CHROM.1>
-149.19739504,-124.38015940,64.52407395,179.76193621,137.41962887,-73.77845800
80.28393727,-147.28335487,-61.32488138,1.19593841,11.13870896,9.80270702
-1.20215949,0.50538621,-2.78185940

>  <Name>
lig.pdb

>  <RI>
0

>  <Rbt.Current_Directory>
/home/itssahil/PROJECTS/Mol_Feturizer/New_Systems/rnas/4wcr

>  <Rbt.Executable>
rbdock ($Id: //depot/dev/client3/rdock/2013.1/src/exe/rbdock.cxx#4 $)

>  <Rbt.Library>
libRbt.so (2013.1, Build901 2013/11/27)

>  <Rbt.Parameter_File>
/export/apps/rDock/src/rDock_2013.1_src/data/scripts/dock_solv.prm

>  <Rbt.Receptor>
prm/blind_docking_80.prm

>  <SCORE>
-8.31122

>  <SCORE.INTER>
-15.6154

>  <SCORE.INTER.CONST>
1

>  <SCORE.INTER.POLAR>
0

>  <SCORE.INTER.ROT>
9

>  <SCORE.INTER.SOLV>
31.7292

>  <SCORE.INTER.VDW>
-30.5867

>  <SCORE.INTER.norm>
-0.371795

>  <SCORE.INTRA>
2.80056

>  <SCORE.INTRA.DIHEDRAL>
5.13377

>  <SCORE.INTRA.DIHEDRAL.0>
16.2863

>  <SCORE.INTRA.POLAR>
0

>  <SCORE.INTRA.POLAR.0>
0

>  <SCORE.INTRA.REPUL>
-0.314156

>  <SCORE.INTRA.REPUL.0>
0.314433

>  <SCORE.INTRA.SOLV>
2.55735

>  <SCORE.INTRA.SOLV.lig_0>
-103.824

>  <SCORE.INTRA.VDW>
0.525782

>  <SCORE.INTRA.VDW.0>
-5.30945

>  <SCORE.INTRA.norm>
0.06668

>  <SCORE.RESTR>
4.50362

>  <SCORE.RESTR.CAVITY>
4.50362

>  <SCORE.RESTR.norm>
0.107229

>  <SCORE.SYSTEM>
0

>  <SCORE.SYSTEM.CONST>
0

>  <SCORE.SYSTEM.DIHEDRAL>
0

>  <SCORE.SYSTEM.SOLV>
0

>  <SCORE.SYSTEM.norm>
0

>  <SCORE.heavy>
42

>  <SCORE.norm>
-0.197886

>  <RMSD>
27.802

$$$$
lig.pdb
 OpenBabel11021811513D
libRbt.so/2013.1/901 2013/11/27
 42 45  0  0  0  0  0  0  0  0999 V2000
    0.8370    9.7144    8.8254 C   0  0  2  0  0  0  0  0  0  0  0  0
    1.4160    9.0601    9.9975 O   0  0  0  0  0  0  0  0  0  0  0  0
   -0.5941   10.2497    9.2785 C   0  0  2  0  0  0  0  0  0  0  0  0
   -0.4515   11.2364   10.3527 N   0  0  0  0  0  0  0  0  0  0  0  0
   -1.4980    8.9978    9.7205 C   0  0  1  0  0  0  0  0  0  0  0  0
   -2.8138    9.4248   10.1314 O   0  0  0  0  0  0  0  0  0  0  0  0
   -1.5633    8.0381    8.5200 C   0  0  2  0  0  0  0  0  0  0  0  0
   -2.3370    6.9405    8.8671 O   0  0  0  0  0  0  0  0  0  0  0  0
   -0.0897    7.5873    8.1033 C   0  0  2  0  0  0  0  0  0  0  0  0
    0.7171    8.7155    7.7429 O   0  0  0  0  0  0  0  0  0  0  0  0
   -0.0967    6.6616    6.9201 C   0  0  0  0  0  0  0  0  0  0  0  0
    1.2343    6.6086    6.4048 O   0  0  0  0  0  0  0  0  0  0  0  0
    5.3658    8.6389   11.9959 C   0  0  2  0  0  0  0  0  0  0  0  0
    6.7820    8.4200   12.1948 N   0  0  0  0  0  0  0  0  0  0  0  0
    4.7246    7.4065   11.2484 C   0  0  0  0  0  0  0  0  0  0  0  0
    3.1876    7.6214   11.0162 C   0  0  2  0  0  0  0  0  0  0  0  0
    2.6349    6.4635   10.3166 N   0  0  0  0  0  0  0  0  0  0  0  0
    2.8783    8.9307   10.1627 C   0  0  2  0  0  0  0  0  0  0  0  0
    3.4838   10.1410   10.9309 C   0  0  2  0  0  0  0  0  0  0  0  0
    3.1407   11.3321   10.0670 O   0  0  0  0  0  0  0  0  0  0  0  0
    5.0890    9.9431   11.1090 C   0  0  1  0  0  0  0  0  0  0  0  0
    5.7607   10.9985   11.8686 O   0  0  0  0  0  0  0  0  0  0  0  0
    2.5497   12.3272   10.8003 C   0  0  1  0  0  0  0  0  0  0  0  0
    3.5123   13.2914   11.3432 C   0  0  2  0  0  0  0  0  0  0  0  0
    4.1947   12.6594   12.3784 O   0  0  0  0  0  0  0  0  0  0  0  0
    2.5932   14.4944   11.6452 C   0  0  2  0  0  0  0  0  0  0  0  0
    2.6746   14.7344   13.0684 O   0  0  0  0  0  0  0  0  0  0  0  0
    1.2323   14.0543   11.2160 C   0  0  2  0  0  0  0  0  0  0  0  0
    1.6582   13.1847   10.1069 O   0  0  0  0  0  0  0  0  0  0  0  0
    0.3745   15.2546   10.6703 C   0  0  0  0  0  0  0  0  0  0  0  0
   -0.8017   14.8375    9.9142 O   0  0  0  0  0  0  0  0  0  0  0  0
    2.1086   15.9869   13.5602 C   0  0  2  0  0  0  0  0  0  0  0  0
    2.0459   17.0383   12.3335 C   0  0  2  0  0  0  0  0  0  0  0  0
    3.4253   17.2331   11.7805 N   0  0  0  0  0  0  0  0  0  0  0  0
    1.4184   18.4127   12.8824 C   0  0  1  0  0  0  0  0  0  0  0  0
    0.0883   18.1060   13.4005 O   0  0  0  0  0  0  0  0  0  0  0  0
    2.3581   19.0051   14.0271 C   0  0  2  0  0  0  0  0  0  0  0  0
    3.6764   19.3021   13.4239 O   0  0  0  0  0  0  0  0  0  0  0  0
    2.4529   17.9041   15.2275 C   0  0  1  0  0  0  0  0  0  0  0  0
    2.9761   16.6005   14.6782 O   0  0  0  0  0  0  0  0  0  0  0  0
    3.3834   18.4462   16.3628 C   0  0  0  0  0  0  0  0  0  0  0  0
    4.7849   17.9340   16.2584 N   0  0  0  0  0  0  0  0  0  0  0  0
  1  3  1  0  0  0  0
  1  2  1  1  0  0  0
  3  4  1  1  0  0  0
  3  5  1  0  0  0  0
  5  6  1  6  0  0  0
  7  8  1  1  0  0  0
  7  5  1  0  0  0  0
  9 11  1  6  0  0  0
  9  7  1  0  0  0  0
 10  9  1  0  0  0  0
 10  1  1  0  0  0  0
 12 11  1  0  0  0  0
 13 14  1  6  0  0  0
 15 13  1  0  0  0  0
 16 17  1  6  0  0  0
 16 15  1  0  0  0  0
 18  2  1  1  0  0  0
 18 19  1  0  0  0  0
 18 16  1  0  0  0  0
 19 20  1  6  0  0  0
 19 21  1  0  0  0  0
 21 22  1  1  0  0  0
 21 13  1  0  0  0  0
 23 20  1  6  0  0  0
 23 29  1  0  0  0  0
 24 25  1  1  0  0  0
 24 26  1  0  0  0  0
 24 23  1  0  0  0  0
 26 27  1  1  0  0  0
 26 28  1  0  0  0  0
 28 30  1  6  0  0  0
 29 28  1  0  0  0  0
 30 31  1  0  0  0  0
 32 27  1  6  0  0  0
 32 40  1  0  0  0  0
 33 35  1  0  0  0  0
 33 32  1  0  0  0  0
 33 34  1  1  0  0  0
 35 36  1  1  0  0  0
 35 37  1  0  0  0  0
 37 38  1  6  0  0  0
 37 39  1  0  0  0  0
 39 41  1  1  0  0  0
 40 39  1  0  0  0  0
 41 42  1  0  0  0  0
M  END
>  <CHROM.1>
-154.75637079,164.50215101,-150.86867149,129.35030646,90.96879757,167.86782520
164.31003024,-21.90113571,-96.90224950,1.99169706,12.24073769,11.19493444
1.75115844,0.41359562,-2.74987957

>  <Name>
lig.pdb

>  <RI>
0

>  <Rbt.Current_Directory>
/home/itssahil/PROJECTS/Mol_Feturizer/New_Systems/rnas/4wcr

>  <Rbt.Executable>
rbdock ($Id: //depot/dev/client3/rdock/2013.1/src/exe/rbdock.cxx#4 $)

>  <Rbt.Library>
libRbt.so (2013.1, Build901 2013/11/27)

>  <Rbt.Parameter_File>
/export/apps/rDock/src/rDock_2013.1_src/data/scripts/dock_solv.prm

>  <Rbt.Receptor>
prm/blind_docking_80.prm

>  <SCORE>
10.7504

>  <SCORE.INTER>
-11.4083

>  <SCORE.INTER.CONST>
1

>  <SCORE.INTER.POLAR>
0

>  <SCORE.INTER.ROT>
9

>  <SCORE.INTER.SOLV>
30.6498

>  <SCORE.INTER.VDW>
-27.4221

>  <SCORE.INTER.norm>
-0.271626

>  <SCORE.INTRA>
10.0016

>  <SCORE.INTRA.DIHEDRAL>
11.8453

>  <SCORE.INTRA.DIHEDRAL.0>
16.2863

>  <SCORE.INTRA.POLAR>
0

>  <SCORE.INTRA.POLAR.0>
0

>  <SCORE.INTRA.REPUL>
-0.314433

>  <SCORE.INTRA.REPUL.0>
0.314433

>  <SCORE.INTRA.SOLV>
2.48892

>  <SCORE.INTRA.SOLV.lig_0>
-103.824

>  <SCORE.INTRA.VDW>
4.40659

>  <SCORE.INTRA.VDW.0>
-5.30945

>  <SCORE.INTRA.norm>
0.238132

>  <SCORE.RESTR>
12.1571

>  <SCORE.RESTR.CAVITY>
12.1571

>  <SCORE.RESTR.norm>
0.289454

>  <SCORE.SYSTEM>
0

>  <SCORE.SYSTEM.CONST>
0

>  <SCORE.SYSTEM.DIHEDRAL>
0

>  <SCORE.SYSTEM.SOLV>
0

>  <SCORE.SYSTEM.norm>
0

>  <SCORE.heavy>
42

>  <SCORE.norm>
0.255961

>  <RMSD>
27.804

$$$$
lig.pdb
 OpenBabel11021811513D
libRbt.so/2013.1/901 2013/11/27
 42 45  0  0  0  0  0  0  0  0999 V2000
    1.3079    8.5105   10.3835 C   0  0  2  0  0  0  0  0  0  0  0  0
    0.9443    9.0214    9.0630 O   0  0  0  0  0  0  0  0  0  0  0  0
    2.6834    7.7284   10.1926 C   0  0  2  0  0  0  0  0  0  0  0  0
    3.7301    8.6448    9.7318 N   0  0  0  0  0  0  0  0  0  0  0  0
    2.4487    6.5120    9.1704 C   0  0  1  0  0  0  0  0  0  0  0  0
    3.6636    5.7597    8.9685 O   0  0  0  0  0  0  0  0  0  0  0  0
    1.3301    5.6343    9.7576 C   0  0  2  0  0  0  0  0  0  0  0  0
    1.0985    4.5712    8.8974 O   0  0  0  0  0  0  0  0  0  0  0  0
    0.0061    6.5032    9.9587 C   0  0  2  0  0  0  0  0  0  0  0  0
    0.2364    7.6043   10.8465 O   0  0  0  0  0  0  0  0  0  0  0  0
   -1.1143    5.6950   10.5493 C   0  0  0  0  0  0  0  0  0  0  0  0
   -1.1257    4.4271    9.8921 O   0  0  0  0  0  0  0  0  0  0  0  0
   -1.2991   12.4808    7.3980 C   0  0  2  0  0  0  0  0  0  0  0  0
   -2.3641   13.4265    7.1442 N   0  0  0  0  0  0  0  0  0  0  0  0
   -1.8010   11.0102    7.1255 C   0  0  0  0  0  0  0  0  0  0  0  0
   -0.6641    9.9635    7.3981 C   0  0  2  0  0  0  0  0  0  0  0  0
   -1.1709    8.6171    7.1414 N   0  0  0  0  0  0  0  0  0  0  0  0
   -0.1222   10.0297    8.8949 C   0  0  2  0  0  0  0  0  0  0  0  0
    0.4032   11.4744    9.1364 C   0  0  2  0  0  0  0  0  0  0  0  0
    0.9033   11.4490   10.5619 O   0  0  0  0  0  0  0  0  0  0  0  0
   -0.7982   12.5496    8.9174 C   0  0  1  0  0  0  0  0  0  0  0  0
   -0.4062   13.9520    9.0648 O   0  0  0  0  0  0  0  0  0  0  0  0
    2.2486   11.7013   10.6238 C   0  0  1  0  0  0  0  0  0  0  0  0
    2.5958   12.7349   11.6047 C   0  0  2  0  0  0  0  0  0  0  0  0
    2.1874   13.9581   11.0817 O   0  0  0  0  0  0  0  0  0  0  0  0
    4.0976   12.4500   11.8208 C   0  0  2  0  0  0  0  0  0  0  0  0
    4.8103   13.6411   11.4170 O   0  0  0  0  0  0  0  0  0  0  0  0
    4.3960   11.2794   10.9432 C   0  0  2  0  0  0  0  0  0  0  0  0
    3.0781   10.6304   11.0428 O   0  0  0  0  0  0  0  0  0  0  0  0
    5.5083   10.3541   11.5603 C   0  0  0  0  0  0  0  0  0  0  0  0
    5.0066    9.4307   12.5725 O   0  0  0  0  0  0  0  0  0  0  0  0
    5.1202   14.6115   12.4625 C   0  0  2  0  0  0  0  0  0  0  0  0
    5.8207   13.8328   13.6942 C   0  0  2  0  0  0  0  0  0  0  0  0
    4.8968   12.7612   14.1891 N   0  0  0  0  0  0  0  0  0  0  0  0
    6.1619   14.9085   14.8389 C   0  0  1  0  0  0  0  0  0  0  0  0
    7.0548   15.9016   14.2488 O   0  0  0  0  0  0  0  0  0  0  0  0
    4.8109   15.5838   15.3520 C   0  0  2  0  0  0  0  0  0  0  0  0
    3.9694   14.5213   15.9461 O   0  0  0  0  0  0  0  0  0  0  0  0
    4.0930   16.3138   14.0817 C   0  0  1  0  0  0  0  0  0  0  0  0
    3.8461   15.3025   12.9903 O   0  0  0  0  0  0  0  0  0  0  0  0
    2.7524   16.9737   14.5461 C   0  0  0  0  0  0  0  0  0  0  0  0
    2.0237   17.6540   13.4310 N   0  0  0  0  0  0  0  0  0  0  0  0
  1  3  1  0  0  0  0
  1  2  1  6  0  0  0
  3  4  1  6  0  0  0
  3  5  1  0  0  0  0
  5  6  1  1  0  0  0
  7  8  1  6  0  0  0
  7  5  1  0  0  0  0
  9 11  1  1  0  0  0
  9  7  1  0  0  0  0
 10  9  1  0  0  0  0
 10  1  1  0  0  0  0
 12 11  1  0  0  0  0
 13 14  1  1  0  0  0
 15 13  1  0  0  0  0
 16 17  1  1  0  0  0
 16 15  1  0  0  0  0
 18  2  1  6  0  0  0
 18 19  1  0  0  0  0
 18 16  1  0  0  0  0
 19 20  1  1  0  0  0
 19 21  1  0  0  0  0
 21 22  1  6  0  0  0
 21 13  1  0  0  0  0
 23 20  1  1  0  0  0
 23 29  1  0  0  0  0
 24 25  1  6  0  0  0
 24 26  1  0  0  0  0
 24 23  1  0  0  0  0
 26 27  1  6  0  0  0
 26 28  1  0  0  0  0
 28 30  1  1  0  0  0
 29 28  1  0  0  0  0
 30 31  1  0  0  0  0
 32 27  1  6  0  0  0
 32 40  1  0  0  0  0
 33 35  1  0  0  0  0
 33 32  1  0  0  0  0
 33 34  1  1  0  0  0
 35 36  1  6  0  0  0
 35 37  1  0  0  0  0
 37 38  1  6  0  0  0
 37 39  1  0  0  0  0
 39 41  1  1  0  0  0
 40 39  1  0  0  0  0
 41 42  1  0  0  0  0
M  END
>  <CHROM.1>
-167.18996685,-42.80682843,-158.22584680,117.78158341,130.34062353,93.60098038
81.23948390,50.35476046,-179.38769241,2.20934622,11.16773089,10.93383131
-2.13104899,-0.65122469,0.18455082

>  <Name>
lig.pdb

>  <RI>
0

>  <Rbt.Current_Directory>
/home/itssahil/PROJECTS/Mol_Feturizer/New_Systems/rnas/4wcr

>  <Rbt.Executable>
rbdock ($Id: //depot/dev/client3/rdock/2013.1/src/exe/rbdock.cxx#4 $)

>  <Rbt.Library>
libRbt.so (2013.1, Build901 2013/11/27)

>  <Rbt.Parameter_File>
/export/apps/rDock/src/rDock_2013.1_src/data/scripts/dock_solv.prm

>  <Rbt.Receptor>
prm/blind_docking_80.prm

>  <SCORE>
6.56295

>  <SCORE.INTER>
-5.02909

>  <SCORE.INTER.CONST>
1

>  <SCORE.INTER.POLAR>
0

>  <SCORE.INTER.ROT>
9

>  <SCORE.INTER.SOLV>
29.6251

>  <SCORE.INTER.VDW>
-22.8278

>  <SCORE.INTER.norm>
-0.11974

>  <SCORE.INTRA>
7.27206

>  <SCORE.INTRA.DIHEDRAL>
7.73315

>  <SCORE.INTRA.DIHEDRAL.0>
16.2863

>  <SCORE.INTRA.POLAR>
0

>  <SCORE.INTRA.POLAR.0>
0

>  <SCORE.INTRA.REPUL>
-0.314433

>  <SCORE.INTRA.REPUL.0>
0.314433

>  <SCORE.INTRA.SOLV>
3.27767

>  <SCORE.INTRA.SOLV.lig_0>
-103.824

>  <SCORE.INTRA.VDW>
3.33881

>  <SCORE.INTRA.VDW.0>
-5.30945

>  <SCORE.INTRA.norm>
0.173144

>  <SCORE.RESTR>
4.31998

>  <SCORE.RESTR.CAVITY>
4.31998

>  <SCORE.RESTR.norm>
0.102857

>  <SCORE.SYSTEM>
0

>  <SCORE.SYSTEM.CONST>
0

>  <SCORE.SYSTEM.DIHEDRAL>
0

>  <SCORE.SYSTEM.SOLV>
0

>  <SCORE.SYSTEM.norm>
0

>  <SCORE.heavy>
42

>  <SCORE.norm>
0.156261

>  <RMSD>
27.807

$$$$
lig.pdb
 OpenBabel11021811513D
libRbt.so/2013.1/901 2013/11/27
 42 45  0  0  0  0  0  0  0  0999 V2000
    1.6300   14.2256   11.9008 C   0  0  2  0  0  0  0  0  0  0  0  0
    2.9068   13.6752   11.4493 O   0  0  0  0  0  0  0  0  0  0  0  0
    1.1712   15.2593   10.7779 C   0  0  2  0  0  0  0  0  0  0  0  0
    0.9670   14.5675    9.5022 N   0  0  0  0  0  0  0  0  0  0  0  0
    2.2715   16.4241   10.6672 C   0  0  1  0  0  0  0  0  0  0  0  0
    1.9002   17.3981    9.6692 O   0  0  0  0  0  0  0  0  0  0  0  0
    2.3996   17.0622   12.0611 C   0  0  2  0  0  0  0  0  0  0  0  0
    3.3459   18.0746   12.0037 O   0  0  0  0  0  0  0  0  0  0  0  0
    2.8164   15.9530   13.1307 C   0  0  2  0  0  0  0  0  0  0  0  0
    1.8439   14.9025   13.1968 O   0  0  0  0  0  0  0  0  0  0  0  0
    2.9367   16.5224   14.5158 C   0  0  0  0  0  0  0  0  0  0  0  0
    3.5120   15.5151   15.3489 O   0  0  0  0  0  0  0  0  0  0  0  0
    4.4632    9.6317   10.4491 C   0  0  2  0  0  0  0  0  0  0  0  0
    4.8635    8.2480   10.5837 N   0  0  0  0  0  0  0  0  0  0  0  0
    5.2051   10.5195   11.5216 C   0  0  0  0  0  0  0  0  0  0  0  0
    4.7842   12.0263   11.3994 C   0  0  2  0  0  0  0  0  0  0  0  0
    5.4866   12.8111   12.4126 N   0  0  0  0  0  0  0  0  0  0  0  0
    3.2160   12.2370   11.5851 C   0  0  2  0  0  0  0  0  0  0  0  0
    2.4997   11.3853   10.4973 C   0  0  2  0  0  0  0  0  0  0  0  0
    1.0309   11.6473   10.7350 O   0  0  0  0  0  0  0  0  0  0  0  0
    2.8881    9.8149   10.6721 C   0  0  1  0  0  0  0  0  0  0  0  0
    2.3136    8.9211    9.6655 O   0  0  0  0  0  0  0  0  0  0  0  0
    0.2744   11.2623    9.6595 C   0  0  1  0  0  0  0  0  0  0  0  0
   -0.9382   10.5307   10.0411 C   0  0  2  0  0  0  0  0  0  0  0  0
   -0.5436    9.2670   10.4700 O   0  0  0  0  0  0  0  0  0  0  0  0
   -1.7928   10.6812    8.7643 C   0  0  2  0  0  0  0  0  0  0  0  0
   -2.0368    9.3463    8.2662 O   0  0  0  0  0  0  0  0  0  0  0  0
   -0.9533   11.4942    7.8347 C   0  0  2  0  0  0  0  0  0  0  0  0
   -0.2670   12.2995    8.8585 O   0  0  0  0  0  0  0  0  0  0  0  0
   -1.8300   12.4175    6.9109 C   0  0  0  0  0  0  0  0  0  0  0  0
   -2.8337   11.6909    6.1403 O   0  0  0  0  0  0  0  0  0  0  0  0
   -0.9180    8.6684    7.6183 C   0  0  2  0  0  0  0  0  0  0  0  0
   -1.4684    7.9193    6.2954 C   0  0  2  0  0  0  0  0  0  0  0  0
   -2.5478    6.9561    6.6876 N   0  0  0  0  0  0  0  0  0  0  0  0
   -0.2302    7.1790    5.5863 C   0  0  1  0  0  0  0  0  0  0  0  0
    0.7568    8.2032    5.2569 O   0  0  0  0  0  0  0  0  0  0  0  0
    0.3798    6.0929    6.5826 C   0  0  2  0  0  0  0  0  0  0  0  0
   -0.6707    5.0871    6.8563 O   0  0  0  0  0  0  0  0  0  0  0  0
    0.8755    6.8633    7.9327 C   0  0  1  0  0  0  0  0  0  0  0  0
   -0.2837    7.6100    8.5438 O   0  0  0  0  0  0  0  0  0  0  0  0
    1.4652    5.8232    8.9423 C   0  0  0  0  0  0  0  0  0  0  0  0
    1.9298    6.4516   10.2176 N   0  0  0  0  0  0  0  0  0  0  0  0
  1  3  1  0  0  0  0
  1  2  1  6  0  0  0
  3  4  1  6  0  0  0
  3  5  1  0  0  0  0
  5  6  1  6  0  0  0
  7  8  1  6  0  0  0
  7  5  1  0  0  0  0
  9 11  1  1  0  0  0
  9  7  1  0  0  0  0
 10  9  1  0  0  0  0
 10  1  1  0  0  0  0
 12 11  1  0  0  0  0
 13 14  1  1  0  0  0
 15 13  1  0  0  0  0
 16 17  1  1  0  0  0
 16 15  1  0  0  0  0
 18  2  1  6  0  0  0
 18 19  1  0  0  0  0
 18 16  1  0  0  0  0
 19 20  1  1  0  0  0
 19 21  1  0  0  0  0
 21 22  1  6  0  0  0
 21 13  1  0  0  0  0
 23 20  1  1  0  0  0
 23 29  1  0  0  0  0
 24 25  1  6  0  0  0
 24 26  1  0  0  0  0
 24 23  1  0  0  0  0
 26 27  1  6  0  0  0
 26 28  1  0  0  0  0
 28 30  1  6  0  0  0
 29 28  1  0  0  0  0
 30 31  1  0  0  0  0
 32 27  1  1  0  0  0
 32 40  1  0  0  0  0
 33 35  1  0  0  0  0
 33 32  1  0  0  0  0
 33 34  1  1  0  0  0
 35 36  1  1  0  0  0
 35 37  1  0  0  0  0
 37 38  1  1  0  0  0
 37 39  1  0  0  0  0
 39 41  1  1  0  0  0
 40 39  1  0  0  0  0
 41 42  1  0  0  0  0
M  END
>  <CHROM.1>
-138.24211332,-170.99807014,-164.12116263,163.95791642,135.91066940,-74.17471086
-55.77824054,-137.51359781,-179.35780567,1.23643668,11.27276666,9.79302024
1.14088960,-0.65306450,0.28687679

>  <Name>
lig.pdb

>  <RI>
0

>  <Rbt.Current_Directory>
/home/itssahil/PROJECTS/Mol_Feturizer/New_Systems/rnas/4wcr

>  <Rbt.Executable>
rbdock ($Id: //depot/dev/client3/rdock/2013.1/src/exe/rbdock.cxx#4 $)

>  <Rbt.Library>
libRbt.so (2013.1, Build901 2013/11/27)

>  <Rbt.Parameter_File>
/export/apps/rDock/src/rDock_2013.1_src/data/scripts/dock_solv.prm

>  <Rbt.Receptor>
prm/blind_docking_80.prm

>  <SCORE>
-1.47207

>  <SCORE.INTER>
-13.4352

>  <SCORE.INTER.CONST>
1

>  <SCORE.INTER.POLAR>
0

>  <SCORE.INTER.ROT>
9

>  <SCORE.INTER.SOLV>
29.703

>  <SCORE.INTER.VDW>
-28.4578

>  <SCORE.INTER.norm>
-0.319887

>  <SCORE.INTRA>
5.17859

>  <SCORE.INTRA.DIHEDRAL>
5.31867

>  <SCORE.INTRA.DIHEDRAL.0>
16.2863

>  <SCORE.INTRA.POLAR>
0

>  <SCORE.INTRA.POLAR.0>
0

>  <SCORE.INTRA.REPUL>
0.107245

>  <SCORE.INTRA.REPUL.0>
0.314433

>  <SCORE.INTRA.SOLV>
3.00093

>  <SCORE.INTRA.SOLV.lig_0>
-103.824

>  <SCORE.INTRA.VDW>
0.482565

>  <SCORE.INTRA.VDW.0>
-5.30945

>  <SCORE.INTRA.norm>
0.1233

>  <SCORE.RESTR>
6.78458

>  <SCORE.RESTR.CAVITY>
6.78458

>  <SCORE.RESTR.norm>
0.161538

>  <SCORE.SYSTEM>
0

>  <SCORE.SYSTEM.CONST>
0

>  <SCORE.SYSTEM.DIHEDRAL>
0

>  <SCORE.SYSTEM.SOLV>
0

>  <SCORE.SYSTEM.norm>
0

>  <SCORE.heavy>
42

>  <SCORE.norm>
-0.0350494

>  <RMSD>
27.814

$$$$
lig.pdb
 OpenBabel11021811513D
libRbt.so/2013.1/901 2013/11/27
 42 45  0  0  0  0  0  0  0  0999 V2000
    3.6649    8.7810   11.5070 C   0  0  2  0  0  0  0  0  0  0  0  0
    4.8080    9.3464   10.7922 O   0  0  0  0  0  0  0  0  0  0  0  0
    3.7094    7.2102   11.2417 C   0  0  2  0  0  0  0  0  0  0  0  0
    4.9429    6.6368   11.7870 N   0  0  0  0  0  0  0  0  0  0  0  0
    3.5642    6.9482    9.6637 C   0  0  1  0  0  0  0  0  0  0  0  0
    3.5869    5.5363    9.3660 O   0  0  0  0  0  0  0  0  0  0  0  0
    2.2456    7.6006    9.2141 C   0  0  2  0  0  0  0  0  0  0  0  0
    2.0875    7.3954    7.8516 O   0  0  0  0  0  0  0  0  0  0  0  0
    2.2659    9.1597    9.5566 C   0  0  2  0  0  0  0  0  0  0  0  0
    2.4289    9.3813   10.9630 O   0  0  0  0  0  0  0  0  0  0  0  0
    0.9895    9.8421    9.1537 C   0  0  0  0  0  0  0  0  0  0  0  0
    0.5760    9.2836    7.9060 O   0  0  0  0  0  0  0  0  0  0  0  0
    7.3015   11.9259   13.4192 C   0  0  2  0  0  0  0  0  0  0  0  0
    8.0774   13.0510   13.8937 N   0  0  0  0  0  0  0  0  0  0  0  0
    7.8779   11.4084   12.0449 C   0  0  0  0  0  0  0  0  0  0  0  0
    7.0499   10.1893   11.5059 C   0  0  2  0  0  0  0  0  0  0  0  0
    7.6107    9.7461   10.2312 N   0  0  0  0  0  0  0  0  0  0  0  0
    5.5118   10.5452   11.2922 C   0  0  2  0  0  0  0  0  0  0  0  0
    4.9484   11.0178   12.6636 C   0  0  2  0  0  0  0  0  0  0  0  0
    3.4966   11.3232   12.3778 O   0  0  0  0  0  0  0  0  0  0  0  0
    5.7682   12.3233   13.1843 C   0  0  1  0  0  0  0  0  0  0  0  0
    5.3601   12.8255   14.4972 O   0  0  0  0  0  0  0  0  0  0  0  0
    3.3459   12.5739   11.8391 C   0  0  1  0  0  0  0  0  0  0  0  0
    2.0488   12.7650   11.1816 C   0  0  2  0  0  0  0  0  0  0  0  0
    2.0732   12.0383    9.9950 O   0  0  0  0  0  0  0  0  0  0  0  0
    1.9573   14.3056   11.1422 C   0  0  2  0  0  0  0  0  0  0  0  0
    1.8847   14.6834    9.7488 O   0  0  0  0  0  0  0  0  0  0  0  0
    3.2110   14.7810   11.7994 C   0  0  2  0  0  0  0  0  0  0  0  0
    3.3611   13.6636   12.7463 O   0  0  0  0  0  0  0  0  0  0  0  0
    2.9881   16.1298   12.5776 C   0  0  0  0  0  0  0  0  0  0  0  0
    4.1630   16.5807   13.3162 O   0  0  0  0  0  0  0  0  0  0  0  0
    0.6194   14.4385    9.0633 C   0  0  2  0  0  0  0  0  0  0  0  0
   -0.5004   15.4253    9.6849 C   0  0  2  0  0  0  0  0  0  0  0  0
   -0.6119   15.1777   11.1590 N   0  0  0  0  0  0  0  0  0  0  0  0
   -1.8890   15.1520    8.9224 C   0  0  1  0  0  0  0  0  0  0  0  0
   -1.6640   15.4144    7.5039 O   0  0  0  0  0  0  0  0  0  0  0  0
   -2.3375   13.6402    9.1627 C   0  0  2  0  0  0  0  0  0  0  0  0
   -2.5585   13.4575   10.6146 O   0  0  0  0  0  0  0  0  0  0  0  0
   -1.1672   12.6640    8.5801 C   0  0  1  0  0  0  0  0  0  0  0  0
    0.1423   12.9844    9.2564 O   0  0  0  0  0  0  0  0  0  0  0  0
   -1.5669   11.1695    8.8153 C   0  0  0  0  0  0  0  0  0  0  0  0
   -1.5239   10.7775   10.2581 N   0  0  0  0  0  0  0  0  0  0  0  0
  1  3  1  0  0  0  0
  1  2  1  6  0  0  0
  3  4  1  6  0  0  0
  3  5  1  0  0  0  0
  5  6  1  1  0  0  0
  7  8  1  6  0  0  0
  7  5  1  0  0  0  0
  9 11  1  1  0  0  0
  9  7  1  0  0  0  0
 10  9  1  0  0  0  0
 10  1  1  0  0  0  0
 12 11  1  0  0  0  0
 13 14  1  6  0  0  0
 15 13  1  0  0  0  0
 16 17  1  6  0  0  0
 16 15  1  0  0  0  0
 18  2  1  1  0  0  0
 18 19  1  0  0  0  0
 18 16  1  0  0  0  0
 19 20  1  6  0  0  0
 19 21  1  0  0  0  0
 21 22  1  1  0  0  0
 21 13  1  0  0  0  0
 23 20  1  1  0  0  0
 23 29  1  0  0  0  0
 24 25  1  6  0  0  0
 24 26  1  0  0  0  0
 24 23  1  0  0  0  0
 26 27  1  6  0  0  0
 26 28  1  0  0  0  0
 28 30  1  1  0  0  0
 29 28  1  0  0  0  0
 30 31  1  0  0  0  0
 32 27  1  1  0  0  0
 32 40  1  0  0  0  0
 33 35  1  0  0  0  0
 33 32  1  0  0  0  0
 33 34  1  1  0  0  0
 35 36  1  6  0  0  0
 35 37  1  0  0  0  0
 37 38  1  1  0  0  0
 37 39  1  0  0  0  0
 39 41  1  1  0  0  0
 40 39  1  0  0  0  0
 41 42  1  0  0  0  0
M  END
>  <CHROM.1>
-148.35534062,-38.99525361,122.51844925,-82.49933685,162.72891065,74.05668269
175.77939726,67.78187259,-70.01924814,2.58981208,11.65260527,10.73699640
0.44867800,0.48574872,-2.82782156

>  <Name>
lig.pdb

>  <RI>
0

>  <Rbt.Current_Directory>
/home/itssahil/PROJECTS/Mol_Feturizer/New_Systems/rnas/4wcr

>  <Rbt.Executable>
rbdock ($Id: //depot/dev/client3/rdock/2013.1/src/exe/rbdock.cxx#4 $)

>  <Rbt.Library>
libRbt.so (2013.1, Build901 2013/11/27)

>  <Rbt.Parameter_File>
/export/apps/rDock/src/rDock_2013.1_src/data/scripts/dock_solv.prm

>  <Rbt.Receptor>
prm/blind_docking_20.prm

>  <SCORE>
49.7611

>  <SCORE.INTER>
0.685773

>  <SCORE.INTER.CONST>
1

>  <SCORE.INTER.POLAR>
0

>  <SCORE.INTER.ROT>
9

>  <SCORE.INTER.SOLV>
31.665

>  <SCORE.INTER.VDW>
-19.6978

>  <SCORE.INTER.norm>
0.0163279

>  <SCORE.INTRA>
12.2121

>  <SCORE.INTRA.DIHEDRAL>
1.98944

>  <SCORE.INTRA.DIHEDRAL.0>
16.2863

>  <SCORE.INTRA.POLAR>
0

>  <SCORE.INTRA.POLAR.0>
0

>  <SCORE.INTRA.REPUL>
-0.314433

>  <SCORE.INTRA.REPUL.0>
0.314433

>  <SCORE.INTRA.SOLV>
3.56643

>  <SCORE.INTRA.SOLV.lig_0>
-103.824

>  <SCORE.INTRA.VDW>
11.0064

>  <SCORE.INTRA.VDW.0>
-5.30945

>  <SCORE.INTRA.norm>
0.290765

>  <SCORE.RESTR>
36.8632

>  <SCORE.RESTR.CAVITY>
36.8632

>  <SCORE.RESTR.norm>
0.877696

>  <SCORE.SYSTEM>
0

>  <SCORE.SYSTEM.CONST>
0

>  <SCORE.SYSTEM.DIHEDRAL>
0

>  <SCORE.SYSTEM.SOLV>
0

>  <SCORE.SYSTEM.norm>
0

>  <SCORE.heavy>
42

>  <SCORE.norm>
1.18479

>  <RMSD>
27.823

$$$$
lig.pdb
 OpenBabel11021811513D
libRbt.so/2013.1/901 2013/11/27
 42 45  0  0  0  0  0  0  0  0999 V2000
    3.5765    8.9233   11.4721 C   0  0  2  0  0  0  0  0  0  0  0  0
    4.5700    9.7480   10.7864 O   0  0  0  0  0  0  0  0  0  0  0  0
    3.9210    7.4127   11.0990 C   0  0  2  0  0  0  0  0  0  0  0  0
    5.2553    7.0586   11.5911 N   0  0  0  0  0  0  0  0  0  0  0  0
    3.7930    7.2312    9.5082 C   0  0  1  0  0  0  0  0  0  0  0  0
    4.0843    5.8739    9.1139 O   0  0  0  0  0  0  0  0  0  0  0  0
    2.3622    7.6396    9.1179 C   0  0  2  0  0  0  0  0  0  0  0  0
    2.2154    7.4969    7.7462 O   0  0  0  0  0  0  0  0  0  0  0  0
    2.0852    9.1464    9.5667 C   0  0  2  0  0  0  0  0  0  0  0  0
    2.2347    9.3032   10.9833 O   0  0  0  0  0  0  0  0  0  0  0  0
    0.6910    9.5893    9.2246 C   0  0  0  0  0  0  0  0  0  0  0  0
    0.2816   10.5323   10.2159 O   0  0  0  0  0  0  0  0  0  0  0  0
    5.1335   13.0358   13.7268 C   0  0  2  0  0  0  0  0  0  0  0  0
    5.6632   14.2160   14.3745 N   0  0  0  0  0  0  0  0  0  0  0  0
    6.2835   11.9816   13.4921 C   0  0  0  0  0  0  0  0  0  0  0  0
    5.7350   10.6921   12.7858 C   0  0  2  0  0  0  0  0  0  0  0  0
    6.8304    9.7466   12.5810 N   0  0  0  0  0  0  0  0  0  0  0  0
    5.0627   11.0094   11.3767 C   0  0  2  0  0  0  0  0  0  0  0  0
    3.9073   12.0208   11.6294 C   0  0  2  0  0  0  0  0  0  0  0  0
    3.3217   12.2586   10.2571 O   0  0  0  0  0  0  0  0  0  0  0  0
    4.4935   13.3823   12.3004 C   0  0  1  0  0  0  0  0  0  0  0  0
    3.4854   14.3893   12.6350 O   0  0  0  0  0  0  0  0  0  0  0  0
    2.4084   13.2798   10.2738 C   0  0  1  0  0  0  0  0  0  0  0  0
    1.0529   12.8456    9.9201 C   0  0  2  0  0  0  0  0  0  0  0  0
    1.0419   12.5906    8.5520 O   0  0  0  0  0  0  0  0  0  0  0  0
    0.2081   14.0017   10.4971 C   0  0  2  0  0  0  0  0  0  0  0  0
   -0.4923   14.6021    9.3843 O   0  0  0  0  0  0  0  0  0  0  0  0
    1.2006   14.9297   11.1164 C   0  0  2  0  0  0  0  0  0  0  0  0
    2.1814   13.9099   11.5236 O   0  0  0  0  0  0  0  0  0  0  0  0
    0.6118   15.6567   12.3810 C   0  0  0  0  0  0  0  0  0  0  0  0
   -0.5611   16.4754   12.0926 O   0  0  0  0  0  0  0  0  0  0  0  0
   -1.5684   13.8206    8.7823 C   0  0  2  0  0  0  0  0  0  0  0  0
   -2.5797   13.3522    9.9536 C   0  0  2  0  0  0  0  0  0  0  0  0
   -1.8199   12.5567   10.9717 N   0  0  0  0  0  0  0  0  0  0  0  0
   -3.7629   12.4960    9.2821 C   0  0  1  0  0  0  0  0  0  0  0  0
   -4.4252   13.3597    8.3090 O   0  0  0  0  0  0  0  0  0  0  0  0
   -3.1486   11.2031    8.5781 C   0  0  2  0  0  0  0  0  0  0  0  0
   -2.5104   10.3756    9.6260 O   0  0  0  0  0  0  0  0  0  0  0  0
   -2.0893   11.6987    7.4405 C   0  0  1  0  0  0  0  0  0  0  0  0
   -1.0275   12.5592    8.0784 O   0  0  0  0  0  0  0  0  0  0  0  0
   -1.4527   10.4528    6.7397 C   0  0  0  0  0  0  0  0  0  0  0  0
   -0.2062   10.7864    5.9832 N   0  0  0  0  0  0  0  0  0  0  0  0
  1  3  1  0  0  0  0
  1  2  1  6  0  0  0
  3  4  1  6  0  0  0
  3  5  1  0  0  0  0
  5  6  1  1  0  0  0
  7  8  1  6  0  0  0
  7  5  1  0  0  0  0
  9 11  1  1  0  0  0
  9  7  1  0  0  0  0
 10  9  1  0  0  0  0
 10  1  1  0  0  0  0
 12 11  1  0  0  0  0
 13 14  1  6  0  0  0
 15 13  1  0  0  0  0
 16 17  1  6  0  0  0
 16 15  1  0  0  0  0
 18  2  1  1  0  0  0
 18 19  1  0  0  0  0
 18 16  1  0  0  0  0
 19 20  1  6  0  0  0
 19 21  1  0  0  0  0
 21 22  1  1  0  0  0
 21 13  1  0  0  0  0
 23 20  1  1  0  0  0
 23 29  1  0  0  0  0
 24 25  1  6  0  0  0
 24 26  1  0  0  0  0
 24 23  1  0  0  0  0
 26 27  1  6  0  0  0
 26 28  1  0  0  0  0
 28 30  1  1  0  0  0
 29 28  1  0  0  0  0
 30 31  1  0  0  0  0
 32 27  1  1  0  0  0
 32 40  1  0  0  0  0
 33 35  1  0  0  0  0
 33 32  1  0  0  0  0
 33 34  1  1  0  0  0
 35 36  1  6  0  0  0
 35 37  1  0  0  0  0
 37 38  1  1  0  0  0
 37 39  1  0  0  0  0
 39 41  1  1  0  0  0
 40 39  1  0  0  0  0
 41 42  1  0  0  0  0
M  END
>  <CHROM.1>
-146.78815330,148.65412966,59.55453585,-171.25387782,-116.90656381,70.70304697
-60.65587188,52.18731819,-163.23888042,1.59086631,11.52394474,10.33707454
0.18048510,0.49434472,-2.69846342

>  <Name>
lig.pdb

>  <RI>
0

>  <Rbt.Current_Directory>
/home/itssahil/PROJECTS/Mol_Feturizer/New_Systems/rnas/4wcr

>  <Rbt.Executable>
rbdock ($Id: //depot/dev/client3/rdock/2013.1/src/exe/rbdock.cxx#4 $)

>  <Rbt.Library>
libRbt.so (2013.1, Build901 2013/11/27)

>  <Rbt.Parameter_File>
/export/apps/rDock/src/rDock_2013.1_src/data/scripts/dock_solv.prm

>  <Rbt.Receptor>
prm/blind_docking_20.prm

>  <SCORE>
72.3473

>  <SCORE.INTER>
3.94358

>  <SCORE.INTER.CONST>
1

>  <SCORE.INTER.POLAR>
0

>  <SCORE.INTER.ROT>
9

>  <SCORE.INTER.SOLV>
25.9273

>  <SCORE.INTER.VDW>
-15.6134

>  <SCORE.INTER.norm>
0.0938948

>  <SCORE.INTRA>
32.3945

>  <SCORE.INTRA.DIHEDRAL>
0.512371

>  <SCORE.INTRA.DIHEDRAL.0>
16.2863

>  <SCORE.INTRA.POLAR>
0

>  <SCORE.INTRA.POLAR.0>
0

>  <SCORE.INTRA.REPUL>
-0.241261

>  <SCORE.INTRA.REPUL.0>
0.314433

>  <SCORE.INTRA.SOLV>
6.21409

>  <SCORE.INTRA.SOLV.lig_0>
-103.824

>  <SCORE.INTRA.VDW>
30.2375

>  <SCORE.INTRA.VDW.0>
-5.30945

>  <SCORE.INTRA.norm>
0.771297

>  <SCORE.RESTR>
36.0093

>  <SCORE.RESTR.CAVITY>
36.0093

>  <SCORE.RESTR.norm>
0.857364

>  <SCORE.SYSTEM>
0

>  <SCORE.SYSTEM.CONST>
0

>  <SCORE.SYSTEM.DIHEDRAL>
0

>  <SCORE.SYSTEM.SOLV>
0

>  <SCORE.SYSTEM.norm>
0

>  <SCORE.heavy>
42

>  <SCORE.norm>
1.72256

>  <RMSD>
27.870

$$$$
lig.pdb
 OpenBabel11021811513D
libRbt.so/2013.1/901 2013/11/27
 42 45  0  0  0  0  0  0  0  0999 V2000
    5.3378    8.1194   11.3330 C   0  0  2  0  0  0  0  0  0  0  0  0
    5.0045    9.5338   11.4921 O   0  0  0  0  0  0  0  0  0  0  0  0
    6.0822    7.9947    9.9293 C   0  0  2  0  0  0  0  0  0  0  0  0
    7.3210    8.7776    9.9391 N   0  0  0  0  0  0  0  0  0  0  0  0
    5.0769    8.4639    8.7678 C   0  0  1  0  0  0  0  0  0  0  0  0
    5.6974    8.3605    7.4690 O   0  0  0  0  0  0  0  0  0  0  0  0
    3.8223    7.5794    8.8679 C   0  0  2  0  0  0  0  0  0  0  0  0
    2.9282    7.9587    7.8779 O   0  0  0  0  0  0  0  0  0  0  0  0
    3.1661    7.7284   10.3155 C   0  0  2  0  0  0  0  0  0  0  0  0
    4.0833    7.3384   11.3452 O   0  0  0  0  0  0  0  0  0  0  0  0
    1.9445    6.8678   10.4721 C   0  0  0  0  0  0  0  0  0  0  0  0
    0.9275    7.4024    9.6238 O   0  0  0  0  0  0  0  0  0  0  0  0
    6.5331   12.2585   14.6563 C   0  0  2  0  0  0  0  0  0  0  0  0
    7.4269   13.0970   15.4250 N   0  0  0  0  0  0  0  0  0  0  0  0
    7.1460   10.8137   14.4957 C   0  0  0  0  0  0  0  0  0  0  0  0
    6.1963    9.8846   13.6607 C   0  0  2  0  0  0  0  0  0  0  0  0
    6.8026    8.5614   13.5295 N   0  0  0  0  0  0  0  0  0  0  0  0
    5.9070   10.4617   12.2041 C   0  0  2  0  0  0  0  0  0  0  0  0
    5.2688   11.8701   12.3796 C   0  0  2  0  0  0  0  0  0  0  0  0
    5.0189   12.3380   10.9650 O   0  0  0  0  0  0  0  0  0  0  0  0
    6.2874   12.8481   13.1879 C   0  0  1  0  0  0  0  0  0  0  0  0
    5.7689   14.1893   13.4613 O   0  0  0  0  0  0  0  0  0  0  0  0
    3.9873   13.2382   10.9115 C   0  0  1  0  0  0  0  0  0  0  0  0
    2.9375   12.9700   11.9001 C   0  0  2  0  0  0  0  0  0  0  0  0
    2.2416   11.8435   11.4720 O   0  0  0  0  0  0  0  0  0  0  0  0
    2.2276   14.3395   11.9617 C   0  0  2  0  0  0  0  0  0  0  0  0
    0.8608   14.1197   11.5456 O   0  0  0  0  0  0  0  0  0  0  0  0
    2.9833   15.2063   11.0093 C   0  0  2  0  0  0  0  0  0  0  0  0
    4.3057   14.5888   11.2034 O   0  0  0  0  0  0  0  0  0  0  0  0
    3.0077   16.7077   11.4781 C   0  0  0  0  0  0  0  0  0  0  0  0
    3.9277   17.5445   10.7149 O   0  0  0  0  0  0  0  0  0  0  0  0
    0.6554   13.6253   10.1875 C   0  0  2  0  0  0  0  0  0  0  0  0
   -0.7020   14.2807    9.6026 C   0  0  2  0  0  0  0  0  0  0  0  0
   -1.8479   13.9248   10.5010 N   0  0  0  0  0  0  0  0  0  0  0  0
   -0.9187   13.7344    8.1064 C   0  0  1  0  0  0  0  0  0  0  0  0
    0.2515   14.1281    7.3271 O   0  0  0  0  0  0  0  0  0  0  0  0
   -1.0797   12.1478    8.1390 C   0  0  2  0  0  0  0  0  0  0  0  0
   -2.2887   11.8303    8.9313 O   0  0  0  0  0  0  0  0  0  0  0  0
    0.2768   11.5122    8.7854 C   0  0  1  0  0  0  0  0  0  0  0  0
    0.5015   12.0908   10.1600 O   0  0  0  0  0  0  0  0  0  0  0  0
    0.1462    9.9542    8.8490 C   0  0  0  0  0  0  0  0  0  0  0  0
    0.0021    9.3283    7.4982 N   0  0  0  0  0  0  0  0  0  0  0  0
  1  3  1  0  0  0  0
  1  2  1  6  0  0  0
  3  4  1  1  0  0  0
  3  5  1  0  0  0  0
  5  6  1  6  0  0  0
  7  8  1  6  0  0  0
  7  5  1  0  0  0  0
  9 11  1  6  0  0  0
  9  7  1  0  0  0  0
 10  9  1  0  0  0  0
 10  1  1  0  0  0  0
 12 11  1  0  0  0  0
 13 14  1  1  0  0  0
 15 13  1  0  0  0  0
 16 17  1  6  0  0  0
 16 15  1  0  0  0  0
 18  2  1  1  0  0  0
 18 19  1  0  0  0  0
 18 16  1  0  0  0  0
 19 20  1  6  0  0  0
 19 21  1  0  0  0  0
 21 22  1  1  0  0  0
 21 13  1  0  0  0  0
 23 20  1  1  0  0  0
 23 29  1  0  0  0  0
 24 25  1  6  0  0  0
 24 26  1  0  0  0  0
 24 23  1  0  0  0  0
 26 27  1  6  0  0  0
 26 28  1  0  0  0  0
 28 30  1  1  0  0  0
 29 28  1  0  0  0  0
 30 31  1  0  0  0  0
 32 27  1  1  0  0  0
 32 40  1  0  0  0  0
 33 35  1  0  0  0  0
 33 32  1  0  0  0  0
 33 34  1  1  0  0  0
 35 36  1  6  0  0  0
 35 37  1  0  0  0  0
 37 38  1  1  0  0  0
 37 39  1  0  0  0  0
 39 41  1  1  0  0  0
 40 39  1  0  0  0  0
 41 42  1  0  0  0  0
M  END
>  <CHROM.1>
-93.03852207,-68.44777173,-55.17521459,153.79976606,-33.71991969,-61.81581848
169.64808609,-144.99524643,62.22590608,3.19532684,11.42731816,10.72855571
0.29624431,0.55620532,-2.80140432

>  <Name>
lig.pdb

>  <RI>
0

>  <Rbt.Current_Directory>
/home/itssahil/PROJECTS/Mol_Feturizer/New_Systems/rnas/4wcr

>  <Rbt.Executable>
rbdock ($Id: //depot/dev/client3/rdock/2013.1/src/exe/rbdock.cxx#4 $)

>  <Rbt.Library>
libRbt.so (2013.1, Build901 2013/11/27)

>  <Rbt.Parameter_File>
/export/apps/rDock/src/rDock_2013.1_src/data/scripts/dock_solv.prm

>  <Rbt.Receptor>
prm/blind_docking_20.prm

>  <SCORE>
46.3159

>  <SCORE.INTER>
0.716015

>  <SCORE.INTER.CONST>
1

>  <SCORE.INTER.POLAR>
0

>  <SCORE.INTER.ROT>
9

>  <SCORE.INTER.SOLV>
31.1991

>  <SCORE.INTER.VDW>
-19.5224

>  <SCORE.INTER.norm>
0.017048

>  <SCORE.INTRA>
8.68311

>  <SCORE.INTRA.DIHEDRAL>
-0.517453

>  <SCORE.INTRA.DIHEDRAL.0>
16.2863

>  <SCORE.INTRA.POLAR>
0

>  <SCORE.INTRA.POLAR.0>
0

>  <SCORE.INTRA.REPUL>
-0.314433

>  <SCORE.INTRA.REPUL.0>
0.314433

>  <SCORE.INTRA.SOLV>
1.92728

>  <SCORE.INTRA.SOLV.lig_0>
-103.824

>  <SCORE.INTRA.VDW>
9.55036

>  <SCORE.INTRA.VDW.0>
-5.30945

>  <SCORE.INTRA.norm>
0.206741

>  <SCORE.RESTR>
36.9168

>  <SCORE.RESTR.CAVITY>
36.9168

>  <SCORE.RESTR.norm>
0.878971

>  <SCORE.SYSTEM>
0

>  <SCORE.SYSTEM.CONST>
0

>  <SCORE.SYSTEM.DIHEDRAL>
0

>  <SCORE.SYSTEM.SOLV>
0

>  <SCORE.SYSTEM.norm>
0

>  <SCORE.heavy>
42

>  <SCORE.norm>
1.10276

>  <RMSD>
27.873

$$$$
lig.pdb
 OpenBabel11021811513D
libRbt.so/2013.1/901 2013/11/27
 42 45  0  0  0  0  0  0  0  0999 V2000
   -0.7889    9.9023    8.7372 C   0  0  2  0  0  0  0  0  0  0  0  0
    0.6521    9.6652    8.8041 O   0  0  0  0  0  0  0  0  0  0  0  0
   -1.1186   10.1982    7.2063 C   0  0  2  0  0  0  0  0  0  0  0  0
   -0.7888    9.0333    6.3804 N   0  0  0  0  0  0  0  0  0  0  0  0
   -0.3163   11.5125    6.7495 C   0  0  1  0  0  0  0  0  0  0  0  0
   -0.5876   11.8348    5.3692 O   0  0  0  0  0  0  0  0  0  0  0  0
   -0.7394   12.6532    7.6909 C   0  0  2  0  0  0  0  0  0  0  0  0
   -0.0627   13.8077    7.3261 O   0  0  0  0  0  0  0  0  0  0  0  0
   -0.4168   12.2578    9.2035 C   0  0  2  0  0  0  0  0  0  0  0  0
   -1.1121   11.0656    9.5892 O   0  0  0  0  0  0  0  0  0  0  0  0
   -0.8295   13.3335   10.1678 C   0  0  0  0  0  0  0  0  0  0  0  0
   -2.1558   13.0356   10.6059 O   0  0  0  0  0  0  0  0  0  0  0  0
    1.8155    6.1029   11.1977 C   0  0  2  0  0  0  0  0  0  0  0  0
    2.2569    4.7678   11.5377 N   0  0  0  0  0  0  0  0  0  0  0  0
    0.5648    6.0347   10.2385 C   0  0  0  0  0  0  0  0  0  0  0  0
    0.0686    7.4721    9.8509 C   0  0  2  0  0  0  0  0  0  0  0  0
   -1.0836    7.3645    8.9583 N   0  0  0  0  0  0  0  0  0  0  0  0
    1.1983    8.3311    9.1269 C   0  0  2  0  0  0  0  0  0  0  0  0
    2.4098    8.4210   10.0995 C   0  0  2  0  0  0  0  0  0  0  0  0
    3.4227    9.2523    9.3474 O   0  0  0  0  0  0  0  0  0  0  0  0
    2.9613    6.9295   10.4441 C   0  0  1  0  0  0  0  0  0  0  0  0
    4.0707    6.8866   11.3979 O   0  0  0  0  0  0  0  0  0  0  0  0
    3.7656   10.3777   10.0496 C   0  0  1  0  0  0  0  0  0  0  0  0
    2.6240   11.0069   10.7218 C   0  0  2  0  0  0  0  0  0  0  0  0
    1.8464   11.6137    9.7400 O   0  0  0  0  0  0  0  0  0  0  0  0
    3.3398   11.8698   11.7830 C   0  0  2  0  0  0  0  0  0  0  0  0
    2.9881   13.2448   11.5089 O   0  0  0  0  0  0  0  0  0  0  0  0
    4.7942   11.5996   11.5793 C   0  0  2  0  0  0  0  0  0  0  0  0
    4.6641   10.2028   11.1326 O   0  0  0  0  0  0  0  0  0  0  0  0
    5.5967   11.6682   12.9305 C   0  0  0  0  0  0  0  0  0  0  0  0
    6.0523   10.3667   13.4076 O   0  0  0  0  0  0  0  0  0  0  0  0
    3.2658   14.2195   12.5595 C   0  0  2  0  0  0  0  0  0  0  0  0
    2.8315   15.6837   12.0289 C   0  0  2  0  0  0  0  0  0  0  0  0
    3.5846   15.9954   10.7710 N   0  0  0  0  0  0  0  0  0  0  0  0
    3.1369   16.7500   13.1925 C   0  0  1  0  0  0  0  0  0  0  0  0
    2.3634   16.3476   14.3636 O   0  0  0  0  0  0  0  0  0  0  0  0
    4.7000   16.7549   13.5107 C   0  0  2  0  0  0  0  0  0  0  0  0
    5.4111   17.1843   12.2859 O   0  0  0  0  0  0  0  0  0  0  0  0
    5.1264   15.2543   13.9884 C   0  0  1  0  0  0  0  0  0  0  0  0
    4.7666   14.2596   12.9132 O   0  0  0  0  0  0  0  0  0  0  0  0
    6.6608   15.2181   14.2928 C   0  0  0  0  0  0  0  0  0  0  0  0
    6.9883   15.6744   15.6791 N   0  0  0  0  0  0  0  0  0  0  0  0
  1  3  1  0  0  0  0
  1  2  1  6  0  0  0
  3  4  1  6  0  0  0
  3  5  1  0  0  0  0
  5  6  1  6  0  0  0
  7  8  1  6  0  0  0
  7  5  1  0  0  0  0
  9 11  1  1  0  0  0
  9  7  1  0  0  0  0
 10  9  1  0  0  0  0
 10  1  1  0  0  0  0
 12 11  1  0  0  0  0
 13 14  1  6  0  0  0
 15 13  1  0  0  0  0
 16 17  1  6  0  0  0
 16 15  1  0  0  0  0
 18  2  1  1  0  0  0
 18 19  1  0  0  0  0
 18 16  1  0  0  0  0
 19 20  1  6  0  0  0
 19 21  1  0  0  0  0
 21 22  1  1  0  0  0
 21 13  1  0  0  0  0
 23 20  1  1  0  0  0
 23 29  1  0  0  0  0
 24 25  1  6  0  0  0
 24 26  1  0  0  0  0
 24 23  1  0  0  0  0
 26 27  1  6  0  0  0
 26 28  1  0  0  0  0
 28 30  1  1  0  0  0
 29 28  1  0  0  0  0
 30 31  1  0  0  0  0
 32 27  1  6  0  0  0
 32 40  1  0  0  0  0
 33 35  1  0  0  0  0
 33 32  1  0  0  0  0
 33 34  1  6  0  0  0
 35 36  1  1  0  0  0
 35 37  1  0  0  0  0
 37 38  1  6  0  0  0
 37 39  1  0  0  0  0
 39 41  1  6  0  0  0
 40 39  1  0  0  0  0
 41 42  1  0  0  0  0
M  END
>  <CHROM.1>
-112.15740559,92.66903263,-19.86420716,121.66399423,-39.90189970,165.21945182
108.63259337,178.59611231,84.59715077,2.24617142,11.57840396,10.67753183
2.26478962,0.70487582,-3.03826640

>  <Name>
lig.pdb

>  <RI>
0

>  <Rbt.Current_Directory>
/home/itssahil/PROJECTS/Mol_Feturizer/New_Systems/rnas/4wcr

>  <Rbt.Executable>
rbdock ($Id: //depot/dev/client3/rdock/2013.1/src/exe/rbdock.cxx#4 $)

>  <Rbt.Library>
libRbt.so (2013.1, Build901 2013/11/27)

>  <Rbt.Parameter_File>
/export/apps/rDock/src/rDock_2013.1_src/data/scripts/dock_solv.prm

>  <Rbt.Receptor>
prm/blind_docking_20.prm

>  <SCORE>
52.5278

>  <SCORE.INTER>
-7.7623

>  <SCORE.INTER.CONST>
1

>  <SCORE.INTER.POLAR>
0

>  <SCORE.INTER.ROT>
9

>  <SCORE.INTER.SOLV>
22.1703

>  <SCORE.INTER.VDW>
-22.165

>  <SCORE.INTER.norm>
-0.184817

>  <SCORE.INTRA>
15.7395

>  <SCORE.INTRA.DIHEDRAL>
15.5283

>  <SCORE.INTRA.DIHEDRAL.0>
16.2863

>  <SCORE.INTRA.POLAR>
0

>  <SCORE.INTRA.POLAR.0>
0

>  <SCORE.INTRA.REPUL>
-0.314433

>  <SCORE.INTRA.REPUL.0>
0.314433

>  <SCORE.INTRA.SOLV>
-0.256947

>  <SCORE.INTRA.SOLV.lig_0>
-103.824

>  <SCORE.INTRA.VDW>
9.67598

>  <SCORE.INTRA.VDW.0>
-5.30945

>  <SCORE.INTRA.norm>
0.374749

>  <SCORE.RESTR>
44.5506

>  <SCORE.RESTR.CAVITY>
44.5506

>  <SCORE.RESTR.norm>
1.06073

>  <SCORE.SYSTEM>
0

>  <SCORE.SYSTEM.CONST>
0

>  <SCORE.SYSTEM.DIHEDRAL>
0

>  <SCORE.SYSTEM.SOLV>
0

>  <SCORE.SYSTEM.norm>
0

>  <SCORE.heavy>
42

>  <SCORE.norm>
1.25066

>  <RMSD>
27.909

$$$$
lig.pdb
 OpenBabel11021811513D
libRbt.so/2013.1/901 2013/11/27
 42 45  0  0  0  0  0  0  0  0999 V2000
    4.3035   13.1632   11.4906 C   0  0  2  0  0  0  0  0  0  0  0  0
    3.7893   12.0436   12.2775 O   0  0  0  0  0  0  0  0  0  0  0  0
    4.7072   14.2933   12.5393 C   0  0  2  0  0  0  0  0  0  0  0  0
    5.7677   13.8084   13.4270 N   0  0  0  0  0  0  0  0  0  0  0  0
    3.3941   14.7391   13.3498 C   0  0  1  0  0  0  0  0  0  0  0  0
    3.7003   15.7726   14.3094 O   0  0  0  0  0  0  0  0  0  0  0  0
    2.3610   15.2157   12.3145 C   0  0  2  0  0  0  0  0  0  0  0  0
    1.2094   15.6080   12.9805 O   0  0  0  0  0  0  0  0  0  0  0  0
    2.0481   14.0421   11.2785 C   0  0  2  0  0  0  0  0  0  0  0  0
    3.2328   13.6303   10.5855 O   0  0  0  0  0  0  0  0  0  0  0  0
    1.0560   14.4636   10.2320 C   0  0  0  0  0  0  0  0  0  0  0  0
   -0.1259   14.8971   10.9064 O   0  0  0  0  0  0  0  0  0  0  0  0
    4.6374    8.6260    9.5621 C   0  0  2  0  0  0  0  0  0  0  0  0
    4.7723    7.2738    9.0658 N   0  0  0  0  0  0  0  0  0  0  0  0
    5.4699    8.8037   10.8903 C   0  0  0  0  0  0  0  0  0  0  0  0
    5.3364   10.2628   11.4521 C   0  0  2  0  0  0  0  0  0  0  0  0
    6.1147   10.3829   12.6832 N   0  0  0  0  0  0  0  0  0  0  0  0
    3.8248   10.6598   11.7614 C   0  0  2  0  0  0  0  0  0  0  0  0
    3.0248   10.5158   10.4344 C   0  0  2  0  0  0  0  0  0  0  0  0
    1.6173   10.9168   10.8097 O   0  0  0  0  0  0  0  0  0  0  0  0
    3.1121    8.9838    9.8931 C   0  0  1  0  0  0  0  0  0  0  0  0
    2.4392    8.7410    8.6162 O   0  0  0  0  0  0  0  0  0  0  0  0
    0.7574   10.7695    9.7531 C   0  0  1  0  0  0  0  0  0  0  0  0
   -0.4886   10.0864   10.1160 C   0  0  2  0  0  0  0  0  0  0  0  0
   -0.1837    8.7430   10.3137 O   0  0  0  0  0  0  0  0  0  0  0  0
   -1.4102   10.5059    8.9507 C   0  0  2  0  0  0  0  0  0  0  0  0
   -1.8092    9.2910    8.2765 O   0  0  0  0  0  0  0  0  0  0  0  0
   -0.5645   11.3862    8.0909 C   0  0  2  0  0  0  0  0  0  0  0  0
    0.2607   11.9609    9.1663 O   0  0  0  0  0  0  0  0  0  0  0  0
   -1.4132   12.5119    7.3930 C   0  0  0  0  0  0  0  0  0  0  0  0
   -2.5532   12.0026    6.6380 O   0  0  0  0  0  0  0  0  0  0  0  0
   -0.7401    8.4257    7.7874 C   0  0  2  0  0  0  0  0  0  0  0  0
   -1.0765    8.0063    6.2625 C   0  0  2  0  0  0  0  0  0  0  0  0
   -2.4078    7.3186    6.2229 N   0  0  0  0  0  0  0  0  0  0  0  0
    0.1067    7.0572    5.7305 C   0  0  1  0  0  0  0  0  0  0  0  0
    1.3484    7.8200    5.8204 O   0  0  0  0  0  0  0  0  0  0  0  0
    0.1753    5.7407    6.6286 C   0  0  2  0  0  0  0  0  0  0  0  0
   -1.1073    5.0186    6.4742 O   0  0  0  0  0  0  0  0  0  0  0  0
    0.4580    6.1915    8.1709 C   0  0  1  0  0  0  0  0  0  0  0  0
   -0.6240    7.1377    8.6279 O   0  0  0  0  0  0  0  0  0  0  0  0
    0.5142    4.9228    9.0852 C   0  0  0  0  0  0  0  0  0  0  0  0
    0.6928    5.2577   10.5320 N   0  0  0  0  0  0  0  0  0  0  0  0
  1  3  1  0  0  0  0
  1  2  1  1  0  0  0
  3  4  1  1  0  0  0
  3  5  1  0  0  0  0
  5  6  1  1  0  0  0
  7  8  1  1  0  0  0
  7  5  1  0  0  0  0
  9 11  1  6  0  0  0
  9  7  1  0  0  0  0
 10  9  1  0  0  0  0
 10  1  1  0  0  0  0
 12 11  1  0  0  0  0
 13 14  1  1  0  0  0
 15 13  1  0  0  0  0
 16 17  1  1  0  0  0
 16 15  1  0  0  0  0
 18  2  1  6  0  0  0
 18 19  1  0  0  0  0
 18 16  1  0  0  0  0
 19 20  1  1  0  0  0
 19 21  1  0  0  0  0
 21 22  1  6  0  0  0
 21 13  1  0  0  0  0
 23 20  1  1  0  0  0
 23 29  1  0  0  0  0
 24 25  1  6  0  0  0
 24 26  1  0  0  0  0
 24 23  1  0  0  0  0
 26 27  1  6  0  0  0
 26 28  1  0  0  0  0
 28 30  1  1  0  0  0
 29 28  1  0  0  0  0
 30 31  1  0  0  0  0
 32 27  1  1  0  0  0
 32 40  1  0  0  0  0
 33 35  1  0  0  0  0
 33 32  1  0  0  0  0
 33 34  1  1  0  0  0
 35 36  1  1  0  0  0
 35 37  1  0  0  0  0
 37 38  1  1  0  0  0
 37 39  1  0  0  0  0
 39 41  1  1  0  0  0
 40 39  1  0  0  0  0
 41 42  1  0  0  0  0
M  END
>  <CHROM.1>
-155.00520869,-57.01715815,58.97884881,-176.51166060,133.19313393,-56.13664370
-54.01727106,-132.53343106,-176.71915706,1.52217981,10.42945404,9.77991622
-1.06929128,0.51964096,-2.77112526

>  <Name>
lig.pdb

>  <RI>
0

>  <Rbt.Current_Directory>
/home/itssahil/PROJECTS/Mol_Feturizer/New_Systems/rnas/4wcr

>  <Rbt.Executable>
rbdock ($Id: //depot/dev/client3/rdock/2013.1/src/exe/rbdock.cxx#4 $)

>  <Rbt.Library>
libRbt.so (2013.1, Build901 2013/11/27)

>  <Rbt.Parameter_File>
/export/apps/rDock/src/rDock_2013.1_src/data/scripts/dock_solv.prm

>  <Rbt.Receptor>
prm/blind_docking_80.prm

>  <SCORE>
-7.82918

>  <SCORE.INTER>
-14.7986

>  <SCORE.INTER.CONST>
1

>  <SCORE.INTER.POLAR>
0

>  <SCORE.INTER.ROT>
9

>  <SCORE.INTER.SOLV>
31.1811

>  <SCORE.INTER.VDW>
-29.8595

>  <SCORE.INTER.norm>
-0.352349

>  <SCORE.INTRA>
0.61209

>  <SCORE.INTRA.DIHEDRAL>
-0.00734103

>  <SCORE.INTRA.DIHEDRAL.0>
16.2863

>  <SCORE.INTRA.POLAR>
0

>  <SCORE.INTRA.POLAR.0>
0

>  <SCORE.INTRA.REPUL>
-0.306473

>  <SCORE.INTRA.REPUL.0>
0.314433

>  <SCORE.INTRA.SOLV>
-0.594646

>  <SCORE.INTRA.SOLV.lig_0>
-103.824

>  <SCORE.INTRA.VDW>
2.44545

>  <SCORE.INTRA.VDW.0>
-5.30945

>  <SCORE.INTRA.norm>
0.0145736

>  <SCORE.RESTR>
6.35737

>  <SCORE.RESTR.CAVITY>
6.35737

>  <SCORE.RESTR.norm>
0.151366

>  <SCORE.SYSTEM>
0

>  <SCORE.SYSTEM.CONST>
0

>  <SCORE.SYSTEM.DIHEDRAL>
0

>  <SCORE.SYSTEM.SOLV>
0

>  <SCORE.SYSTEM.norm>
0

>  <SCORE.heavy>
42

>  <SCORE.norm>
-0.186409

>  <RMSD>
27.961

$$$$
lig.pdb
 OpenBabel11021811513D
libRbt.so/2013.1/901 2013/11/27
 42 45  0  0  0  0  0  0  0  0999 V2000
    3.5398    9.8588    9.6035 C   0  0  2  0  0  0  0  0  0  0  0  0
    3.6809   10.1069   11.0372 O   0  0  0  0  0  0  0  0  0  0  0  0
    1.9736    9.7759    9.3202 C   0  0  2  0  0  0  0  0  0  0  0  0
    1.3290   11.0504    9.6486 N   0  0  0  0  0  0  0  0  0  0  0  0
    1.3606    8.5517   10.1600 C   0  0  1  0  0  0  0  0  0  0  0  0
   -0.0585    8.4225    9.9317 O   0  0  0  0  0  0  0  0  0  0  0  0
    2.1203    7.2834    9.7348 C   0  0  2  0  0  0  0  0  0  0  0  0
    1.6170    6.2026   10.4436 O   0  0  0  0  0  0  0  0  0  0  0  0
    3.6820    7.4673   10.0095 C   0  0  2  0  0  0  0  0  0  0  0  0
    4.2107    8.5822    9.2808 O   0  0  0  0  0  0  0  0  0  0  0  0
    4.4737    6.2603    9.5927 C   0  0  0  0  0  0  0  0  0  0  0  0
    5.8521    6.5410    9.8397 O   0  0  0  0  0  0  0  0  0  0  0  0
    6.7595   10.5436   14.2159 C   0  0  2  0  0  0  0  0  0  0  0  0
    8.0308   10.4972   14.9048 N   0  0  0  0  0  0  0  0  0  0  0  0
    6.3804    9.1104   13.6765 C   0  0  0  0  0  0  0  0  0  0  0  0
    5.0055    9.1347   12.9204 C   0  0  2  0  0  0  0  0  0  0  0  0
    4.6956    7.7927   12.4318 N   0  0  0  0  0  0  0  0  0  0  0  0
    5.0080   10.1411   11.6853 C   0  0  2  0  0  0  0  0  0  0  0  0
    5.3463   11.5558   12.2382 C   0  0  2  0  0  0  0  0  0  0  0  0
    5.3186   12.4433   11.0158 O   0  0  0  0  0  0  0  0  0  0  0  0
    6.8034   11.5388   12.9622 C   0  0  1  0  0  0  0  0  0  0  0  0
    7.2050   12.8077   13.5712 O   0  0  0  0  0  0  0  0  0  0  0  0
    4.1006   13.0534   10.8690 C   0  0  1  0  0  0  0  0  0  0  0  0
    3.1617   12.7315   11.9488 C   0  0  2  0  0  0  0  0  0  0  0  0
    2.7494   11.4155   11.7625 O   0  0  0  0  0  0  0  0  0  0  0  0
    2.1452   13.8857   11.8155 C   0  0  2  0  0  0  0  0  0  0  0  0
    0.8645   13.2819   11.5244 O   0  0  0  0  0  0  0  0  0  0  0  0
    2.6557   14.7176   10.6855 C   0  0  2  0  0  0  0  0  0  0  0  0
    4.0905   14.4708   10.9050 O   0  0  0  0  0  0  0  0  0  0  0  0
    2.3269   16.2427   10.8869 C   0  0  0  0  0  0  0  0  0  0  0  0
    3.1383   16.8857   11.9151 O   0  0  0  0  0  0  0  0  0  0  0  0
    0.1522   13.7779   10.3507 C   0  0  2  0  0  0  0  0  0  0  0  0
   -1.2943   13.0583   10.2862 C   0  0  2  0  0  0  0  0  0  0  0  0
   -1.1036   11.5726   10.2317 N   0  0  0  0  0  0  0  0  0  0  0  0
   -2.0732   13.6125    8.9939 C   0  0  1  0  0  0  0  0  0  0  0  0
   -2.1951   15.0592    9.1481 O   0  0  0  0  0  0  0  0  0  0  0  0
   -1.2496   13.2425    7.6789 C   0  0  2  0  0  0  0  0  0  0  0  0
   -1.1818   11.7670    7.5858 O   0  0  0  0  0  0  0  0  0  0  0  0
    0.2253   13.9308    7.7923 C   0  0  1  0  0  0  0  0  0  0  0  0
    0.9113   13.4534    9.0478 O   0  0  0  0  0  0  0  0  0  0  0  0
    1.0689   13.5732    6.5238 C   0  0  0  0  0  0  0  0  0  0  0  0
    1.4782   12.1350    6.4856 N   0  0  0  0  0  0  0  0  0  0  0  0
  1  3  1  0  0  0  0
  1  2  1  1  0  0  0
  3  4  1  1  0  0  0
  3  5  1  0  0  0  0
  5  6  1  6  0  0  0
  7  8  1  1  0  0  0
  7  5  1  0  0  0  0
  9 11  1  6  0  0  0
  9  7  1  0  0  0  0
 10  9  1  0  0  0  0
 10  1  1  0  0  0  0
 12 11  1  0  0  0  0
 13 14  1  6  0  0  0
 15 13  1  0  0  0  0
 16 17  1  6  0  0  0
 16 15  1  0  0  0  0
 18  2  1  1  0  0  0
 18 19  1  0  0  0  0
 18 16  1  0  0  0  0
 19 20  1  6  0  0  0
 19 21  1  0  0  0  0
 21 22  1  1  0  0  0
 21 13  1  0  0  0  0
 23 20  1  1  0  0  0
 23 29  1  0  0  0  0
 24 25  1  6  0  0  0
 24 26  1  0  0  0  0
 24 23  1  0  0  0  0
 26 27  1  6  0  0  0
 26 28  1  0  0  0  0
 28 30  1  1  0  0  0
 29 28  1  0  0  0  0
 30 31  1  0  0  0  0
 32 27  1  1  0  0  0
 32 40  1  0  0  0  0
 33 35  1  0  0  0  0
 33 32  1  0  0  0  0
 33 34  1  6  0  0  0
 35 36  1  1  0  0  0
 35 37  1  0  0  0  0
 37 38  1  1  0  0  0
 37 39  1  0  0  0  0
 39 41  1  6  0  0  0
 40 39  1  0  0  0  0
 41 42  1  0  0  0  0
M  END
>  <CHROM.1>
175.26169279,178.22957896,-126.83541435,95.40045003,2.05552886,-127.03046442
73.12309059,-175.37105340,-70.51015772,2.71912061,11.37439270,10.57959716
0.50251823,0.59382900,-2.95063534

>  <Name>
lig.pdb

>  <RI>
0

>  <Rbt.Current_Directory>
/home/itssahil/PROJECTS/Mol_Feturizer/New_Systems/rnas/4wcr

>  <Rbt.Executable>
rbdock ($Id: //depot/dev/client3/rdock/2013.1/src/exe/rbdock.cxx#4 $)

>  <Rbt.Library>
libRbt.so (2013.1, Build901 2013/11/27)

>  <Rbt.Parameter_File>
/export/apps/rDock/src/rDock_2013.1_src/data/scripts/dock_solv.prm

>  <Rbt.Receptor>
prm/blind_docking_20.prm

>  <SCORE>
92.5547

>  <SCORE.INTER>
21.4124

>  <SCORE.INTER.CONST>
1

>  <SCORE.INTER.POLAR>
0

>  <SCORE.INTER.ROT>
9

>  <SCORE.INTER.SOLV>
28.3788

>  <SCORE.INTER.VDW>
-4.78469

>  <SCORE.INTER.norm>
0.509818

>  <SCORE.INTRA>
38.6174

>  <SCORE.INTRA.DIHEDRAL>
10.7916

>  <SCORE.INTRA.DIHEDRAL.0>
16.2863

>  <SCORE.INTRA.POLAR>
0

>  <SCORE.INTRA.POLAR.0>
0

>  <SCORE.INTRA.REPUL>
0.064522

>  <SCORE.INTRA.REPUL.0>
0.314433

>  <SCORE.INTRA.SOLV>
13.82

>  <SCORE.INTRA.SOLV.lig_0>
-103.824

>  <SCORE.INTRA.VDW>
25.989

>  <SCORE.INTRA.VDW.0>
-5.30945

>  <SCORE.INTRA.norm>
0.919462

>  <SCORE.RESTR>
32.5249

>  <SCORE.RESTR.CAVITY>
32.5249

>  <SCORE.RESTR.norm>
0.774403

>  <SCORE.SYSTEM>
0

>  <SCORE.SYSTEM.CONST>
0

>  <SCORE.SYSTEM.DIHEDRAL>
0

>  <SCORE.SYSTEM.SOLV>
0

>  <SCORE.SYSTEM.norm>
0

>  <SCORE.heavy>
42

>  <SCORE.norm>
2.20368

>  <RMSD>
28.051

$$$$
lig.pdb
 OpenBabel11021811513D
libRbt.so/2013.1/901 2013/11/27
 42 45  0  0  0  0  0  0  0  0999 V2000
    0.9955    8.7051    8.0921 C   0  0  2  0  0  0  0  0  0  0  0  0
   -0.0793    9.0992    9.0013 O   0  0  0  0  0  0  0  0  0  0  0  0
    0.3401    7.7053    7.0382 C   0  0  2  0  0  0  0  0  0  0  0  0
   -0.7058    8.3879    6.2715 N   0  0  0  0  0  0  0  0  0  0  0  0
   -0.2228    6.4225    7.8238 C   0  0  1  0  0  0  0  0  0  0  0  0
   -0.8196    5.4749    6.9135 O   0  0  0  0  0  0  0  0  0  0  0  0
    0.9590    5.8042    8.5903 C   0  0  2  0  0  0  0  0  0  0  0  0
    0.5082    4.6912    9.2843 O   0  0  0  0  0  0  0  0  0  0  0  0
    1.5842    6.8827    9.5876 C   0  0  2  0  0  0  0  0  0  0  0  0
    2.0528    8.0366    8.8787 O   0  0  0  0  0  0  0  0  0  0  0  0
    2.7572    6.3333   10.3487 C   0  0  0  0  0  0  0  0  0  0  0  0
    2.4726    4.9678   10.6551 O   0  0  0  0  0  0  0  0  0  0  0  0
   -0.7005   13.3404    7.8185 C   0  0  2  0  0  0  0  0  0  0  0  0
   -1.2588   14.6732    7.7475 N   0  0  0  0  0  0  0  0  0  0  0  0
   -1.8166   12.2664    7.5192 C   0  0  0  0  0  0  0  0  0  0  0  0
   -1.2368   10.8101    7.5945 C   0  0  2  0  0  0  0  0  0  0  0  0
   -2.3017    9.8479    7.3189 N   0  0  0  0  0  0  0  0  0  0  0  0
   -0.6047   10.4798    9.0191 C   0  0  2  0  0  0  0  0  0  0  0  0
    0.5188   11.5237    9.2834 C   0  0  2  0  0  0  0  0  0  0  0  0
    1.0678   11.1366   10.6367 O   0  0  0  0  0  0  0  0  0  0  0  0
   -0.1020   13.0277    9.2705 C   0  0  1  0  0  0  0  0  0  0  0  0
    0.8760   14.1009    9.4544 O   0  0  0  0  0  0  0  0  0  0  0  0
    2.4201   11.3460   10.7056 C   0  0  1  0  0  0  0  0  0  0  0  0
    2.7922   12.3942   11.6617 C   0  0  2  0  0  0  0  0  0  0  0  0
    2.4295   13.6154   11.1016 O   0  0  0  0  0  0  0  0  0  0  0  0
    4.2816   12.0660   11.9009 C   0  0  2  0  0  0  0  0  0  0  0  0
    5.0372   13.2214   11.4724 O   0  0  0  0  0  0  0  0  0  0  0  0
    4.5491   10.8626   11.0584 C   0  0  2  0  0  0  0  0  0  0  0  0
    3.2096   10.2603   11.1620 O   0  0  0  0  0  0  0  0  0  0  0  0
    5.6243    9.9184   11.7118 C   0  0  0  0  0  0  0  0  0  0  0  0
    6.6532   10.6326   12.4603 O   0  0  0  0  0  0  0  0  0  0  0  0
    5.2101   14.2955   12.4457 C   0  0  2  0  0  0  0  0  0  0  0  0
    5.9098   13.6821   13.7680 C   0  0  2  0  0  0  0  0  0  0  0  0
    5.0554   12.5759   14.3095 N   0  0  0  0  0  0  0  0  0  0  0  0
    6.0998   14.8714   14.8326 C   0  0  1  0  0  0  0  0  0  0  0  0
    6.9348   15.8893   14.2015 O   0  0  0  0  0  0  0  0  0  0  0  0
    4.6722   15.4634   15.2272 C   0  0  2  0  0  0  0  0  0  0  0  0
    3.8940   14.3813   15.8703 O   0  0  0  0  0  0  0  0  0  0  0  0
    3.9613   16.0237   13.8698 C   0  0  1  0  0  0  0  0  0  0  0  0
    3.8569   14.9110   12.8570 O   0  0  0  0  0  0  0  0  0  0  0  0
    2.5477   16.5975   14.2177 C   0  0  0  0  0  0  0  0  0  0  0  0
    1.8380   17.1548   13.0248 N   0  0  0  0  0  0  0  0  0  0  0  0
  1  3  1  0  0  0  0
  1  2  1  1  0  0  0
  3  4  1  1  0  0  0
  3  5  1  0  0  0  0
  5  6  1  6  0  0  0
  7  8  1  1  0  0  0
  7  5  1  0  0  0  0
  9 11  1  6  0  0  0
  9  7  1  0  0  0  0
 10  9  1  0  0  0  0
 10  1  1  0  0  0  0
 12 11  1  0  0  0  0
 13 14  1  1  0  0  0
 15 13  1  0  0  0  0
 16 17  1  1  0  0  0
 16 15  1  0  0  0  0
 18  2  1  6  0  0  0
 18 19  1  0  0  0  0
 18 16  1  0  0  0  0
 19 20  1  1  0  0  0
 19 21  1  0  0  0  0
 21 22  1  6  0  0  0
 21 13  1  0  0  0  0
 23 20  1  1  0  0  0
 23 29  1  0  0  0  0
 24 25  1  6  0  0  0
 24 26  1  0  0  0  0
 24 23  1  0  0  0  0
 26 27  1  6  0  0  0
 26 28  1  0  0  0  0
 28 30  1  1  0  0  0
 29 28  1  0  0  0  0
 30 31  1  0  0  0  0
 32 27  1  6  0  0  0
 32 40  1  0  0  0  0
 33 35  1  0  0  0  0
 33 32  1  0  0  0  0
 33 34  1  1  0  0  0
 35 36  1  6  0  0  0
 35 37  1  0  0  0  0
 37 38  1  6  0  0  0
 37 39  1  0  0  0  0
 39 41  1  1  0  0  0
 40 39  1  0  0  0  0
 41 42  1  0  0  0  0
M  END
>  <CHROM.1>
-111.70395362,-37.21717864,62.14527697,144.46764633,114.11742104,85.34294768
-33.77515069,56.80498819,179.00370435,2.19823758,11.25549042,10.64046069
-2.18319455,-0.67530522,0.24551046

>  <Name>
lig.pdb

>  <RI>
0

>  <Rbt.Current_Directory>
/home/itssahil/PROJECTS/Mol_Feturizer/New_Systems/rnas/4wcr

>  <Rbt.Executable>
rbdock ($Id: //depot/dev/client3/rdock/2013.1/src/exe/rbdock.cxx#4 $)

>  <Rbt.Library>
libRbt.so (2013.1, Build901 2013/11/27)

>  <Rbt.Parameter_File>
/export/apps/rDock/src/rDock_2013.1_src/data/scripts/dock_solv.prm

>  <Rbt.Receptor>
prm/blind_docking_80.prm

>  <SCORE>
3.22749

>  <SCORE.INTER>
-11.6843

>  <SCORE.INTER.CONST>
1

>  <SCORE.INTER.POLAR>
0

>  <SCORE.INTER.ROT>
9

>  <SCORE.INTER.SOLV>
28.9834

>  <SCORE.INTER.VDW>
-27.0507

>  <SCORE.INTER.norm>
-0.278199

>  <SCORE.INTRA>
11.2002

>  <SCORE.INTRA.DIHEDRAL>
8.85908

>  <SCORE.INTRA.DIHEDRAL.0>
16.2863

>  <SCORE.INTRA.POLAR>
0

>  <SCORE.INTRA.POLAR.0>
0

>  <SCORE.INTRA.REPUL>
-0.314433

>  <SCORE.INTRA.REPUL.0>
0.314433

>  <SCORE.INTRA.SOLV>
4.21686

>  <SCORE.INTRA.SOLV.lig_0>
-103.824

>  <SCORE.INTRA.VDW>
6.23436

>  <SCORE.INTRA.VDW.0>
-5.30945

>  <SCORE.INTRA.norm>
0.266671

>  <SCORE.RESTR>
3.71166

>  <SCORE.RESTR.CAVITY>
3.71166

>  <SCORE.RESTR.norm>
0.0883729

>  <SCORE.SYSTEM>
0

>  <SCORE.SYSTEM.CONST>
0

>  <SCORE.SYSTEM.DIHEDRAL>
0

>  <SCORE.SYSTEM.SOLV>
0

>  <SCORE.SYSTEM.norm>
0

>  <SCORE.heavy>
42

>  <SCORE.norm>
0.0768449

>  <RMSD>
28.065

$$$$
lig.pdb
 OpenBabel11021811513D
libRbt.so/2013.1/901 2013/11/27
 42 45  0  0  0  0  0  0  0  0999 V2000
    3.7276    9.2776   10.1004 C   0  0  2  0  0  0  0  0  0  0  0  0
    4.2731    9.0528   11.4379 O   0  0  0  0  0  0  0  0  0  0  0  0
    2.6249    8.1490    9.8762 C   0  0  2  0  0  0  0  0  0  0  0  0
    1.5472    8.2880   10.8595 N   0  0  0  0  0  0  0  0  0  0  0  0
    3.3348    6.7103    9.9533 C   0  0  1  0  0  0  0  0  0  0  0  0
    2.3813    5.6473    9.7451 O   0  0  0  0  0  0  0  0  0  0  0  0
    4.4438    6.6930    8.8872 C   0  0  2  0  0  0  0  0  0  0  0  0
    5.0818    5.4622    8.9263 O   0  0  0  0  0  0  0  0  0  0  0  0
    5.4772    7.8791    9.1584 C   0  0  2  0  0  0  0  0  0  0  0  0
    4.8264    9.1553    9.1199 O   0  0  0  0  0  0  0  0  0  0  0  0
    6.5728    7.9182    8.1310 C   0  0  0  0  0  0  0  0  0  0  0  0
    7.4441    8.9981    8.4691 O   0  0  0  0  0  0  0  0  0  0  0  0
    6.4360   11.7423   14.2417 C   0  0  2  0  0  0  0  0  0  0  0  0
    7.4953   12.5150   14.8530 N   0  0  0  0  0  0  0  0  0  0  0  0
    6.8761   10.2342   14.0977 C   0  0  0  0  0  0  0  0  0  0  0  0
    5.7445    9.3744   13.4324 C   0  0  2  0  0  0  0  0  0  0  0  0
    6.1940    7.9891   13.3111 N   0  0  0  0  0  0  0  0  0  0  0  0
    5.3433    9.9106   11.9867 C   0  0  2  0  0  0  0  0  0  0  0  0
    4.8762   11.3860   12.1506 C   0  0  2  0  0  0  0  0  0  0  0  0
    4.5078   11.8116   10.7485 O   0  0  0  0  0  0  0  0  0  0  0  0
    6.0776   12.2857   12.7787 C   0  0  1  0  0  0  0  0  0  0  0  0
    5.7338   13.6861   13.0299 O   0  0  0  0  0  0  0  0  0  0  0  0
    3.6456   12.8764   10.7600 C   0  0  1  0  0  0  0  0  0  0  0  0
    2.5317   12.7048   11.6986 C   0  0  2  0  0  0  0  0  0  0  0  0
    1.6709   11.7570   11.1532 O   0  0  0  0  0  0  0  0  0  0  0  0
    2.0614   14.1646   11.8749 C   0  0  2  0  0  0  0  0  0  0  0  0
    0.6925   14.2203   11.4137 O   0  0  0  0  0  0  0  0  0  0  0  0
    2.9855   14.9707   11.0228 C   0  0  2  0  0  0  0  0  0  0  0  0
    4.1770   14.1209   11.1835 O   0  0  0  0  0  0  0  0  0  0  0  0
    3.2466   16.3977   11.6310 C   0  0  0  0  0  0  0  0  0  0  0  0
    4.2148   17.1872   10.8770 O   0  0  0  0  0  0  0  0  0  0  0  0
    0.4510   13.8668   10.0181 C   0  0  2  0  0  0  0  0  0  0  0  0
   -0.7349   14.8066    9.4485 C   0  0  2  0  0  0  0  0  0  0  0  0
   -1.9615   14.6158   10.2887 N   0  0  0  0  0  0  0  0  0  0  0  0
   -0.9919   14.4138    7.9111 C   0  0  1  0  0  0  0  0  0  0  0  0
    0.2610   14.6290    7.1931 O   0  0  0  0  0  0  0  0  0  0  0  0
   -1.4498   12.8884    7.8228 C   0  0  2  0  0  0  0  0  0  0  0  0
   -2.7269   12.7544    8.5584 O   0  0  0  0  0  0  0  0  0  0  0  0
   -0.2633   11.9640    8.4551 C   0  0  1  0  0  0  0  0  0  0  0  0
    0.0123   12.3952    9.8739 O   0  0  0  0  0  0  0  0  0  0  0  0
   -0.6872   10.4587    8.4006 C   0  0  0  0  0  0  0  0  0  0  0  0
    0.3398    9.5449    8.9903 N   0  0  0  0  0  0  0  0  0  0  0  0
  1  3  1  0  0  0  0
  1  2  1  1  0  0  0
  3  4  1  1  0  0  0
  3  5  1  0  0  0  0
  5  6  1  6  0  0  0
  7  8  1  1  0  0  0
  7  5  1  0  0  0  0
  9 11  1  6  0  0  0
  9  7  1  0  0  0  0
 10  9  1  0  0  0  0
 10  1  1  0  0  0  0
 12 11  1  0  0  0  0
 13 14  1  6  0  0  0
 15 13  1  0  0  0  0
 16 17  1  6  0  0  0
 16 15  1  0  0  0  0
 18  2  1  1  0  0  0
 18 19  1  0  0  0  0
 18 16  1  0  0  0  0
 19 20  1  6  0  0  0
 19 21  1  0  0  0  0
 21 22  1  1  0  0  0
 21 13  1  0  0  0  0
 23 20  1  1  0  0  0
 23 29  1  0  0  0  0
 24 25  1  6  0  0  0
 24 26  1  0  0  0  0
 24 23  1  0  0  0  0
 26 27  1  6  0  0  0
 26 28  1  0  0  0  0
 28 30  1  1  0  0  0
 29 28  1  0  0  0  0
 30 31  1  0  0  0  0
 32 27  1  1  0  0  0
 32 40  1  0  0  0  0
 33 35  1  0  0  0  0
 33 32  1  0  0  0  0
 33 34  1  1  0  0  0
 35 36  1  6  0  0  0
 35 37  1  0  0  0  0
 37 38  1  1  0  0  0
 37 39  1  0  0  0  0
 39 41  1  1  0  0  0
 40 39  1  0  0  0  0
 41 42  1  0  0  0  0
M  END
>  <CHROM.1>
179.28612153,-179.44672023,-178.09140648,158.08480922,-46.94674559,-60.67419536
176.12532038,-144.18375257,-178.80451998,3.06156842,11.31377325,10.54626803
0.65413768,0.53243280,-2.80077550

>  <Name>
lig.pdb

>  <RI>
0

>  <Rbt.Current_Directory>
/home/itssahil/PROJECTS/Mol_Feturizer/New_Systems/rnas/4wcr

>  <Rbt.Executable>
rbdock ($Id: //depot/dev/client3/rdock/2013.1/src/exe/rbdock.cxx#4 $)

>  <Rbt.Library>
libRbt.so (2013.1, Build901 2013/11/27)

>  <Rbt.Parameter_File>
/export/apps/rDock/src/rDock_2013.1_src/data/scripts/dock_solv.prm

>  <Rbt.Receptor>
prm/blind_docking_20.prm

>  <SCORE>
45.6111

>  <SCORE.INTER>
2.45686

>  <SCORE.INTER.CONST>
1

>  <SCORE.INTER.POLAR>
0

>  <SCORE.INTER.ROT>
9

>  <SCORE.INTER.SOLV>
31.0718

>  <SCORE.INTER.VDW>
-18.3194

>  <SCORE.INTER.norm>
0.0584967

>  <SCORE.INTRA>
3.35498

>  <SCORE.INTRA.DIHEDRAL>
-8.04861

>  <SCORE.INTRA.DIHEDRAL.0>
16.2863

>  <SCORE.INTRA.POLAR>
0

>  <SCORE.INTRA.POLAR.0>
0

>  <SCORE.INTRA.REPUL>
-0.314433

>  <SCORE.INTRA.REPUL.0>
0.314433

>  <SCORE.INTRA.SOLV>
1.38146

>  <SCORE.INTRA.SOLV.lig_0>
-103.824

>  <SCORE.INTRA.VDW>
8.26071

>  <SCORE.INTRA.VDW.0>
-5.30945

>  <SCORE.INTRA.norm>
0.0798804

>  <SCORE.RESTR>
39.7993

>  <SCORE.RESTR.CAVITY>
39.7993

>  <SCORE.RESTR.norm>
0.947601

>  <SCORE.SYSTEM>
0

>  <SCORE.SYSTEM.CONST>
0

>  <SCORE.SYSTEM.DIHEDRAL>
0

>  <SCORE.SYSTEM.SOLV>
0

>  <SCORE.SYSTEM.norm>
0

>  <SCORE.heavy>
42

>  <SCORE.norm>
1.08598

>  <RMSD>
28.069

$$$$
lig.pdb
 OpenBabel11021811513D
libRbt.so/2013.1/901 2013/11/27
 42 45  0  0  0  0  0  0  0  0999 V2000
   -0.8280    9.6140    9.4892 C   0  0  2  0  0  0  0  0  0  0  0  0
    0.2206    8.9675   10.2763 O   0  0  0  0  0  0  0  0  0  0  0  0
   -2.1728    8.8192    9.8050 C   0  0  2  0  0  0  0  0  0  0  0  0
   -2.5078    8.9310   11.2273 N   0  0  0  0  0  0  0  0  0  0  0  0
   -1.9912    7.2919    9.3425 C   0  0  1  0  0  0  0  0  0  0  0  0
   -3.1874    6.5253    9.5957 O   0  0  0  0  0  0  0  0  0  0  0  0
   -1.6360    7.3094    7.8459 C   0  0  2  0  0  0  0  0  0  0  0  0
   -1.4694    6.0029    7.4110 O   0  0  0  0  0  0  0  0  0  0  0  0
   -0.3064    8.1614    7.6125 C   0  0  2  0  0  0  0  0  0  0  0  0
   -0.4695    9.5132    8.0591 O   0  0  0  0  0  0  0  0  0  0  0  0
    0.0744    8.2257    6.1606 C   0  0  0  0  0  0  0  0  0  0  0  0
    0.4292    6.9054    5.7478 O   0  0  0  0  0  0  0  0  0  0  0  0
    4.3004    7.2388    9.9027 C   0  0  2  0  0  0  0  0  0  0  0  0
    5.5213    6.7273    9.3190 N   0  0  0  0  0  0  0  0  0  0  0  0
    3.0555    6.4524    9.3365 C   0  0  0  0  0  0  0  0  0  0  0  0
    1.7165    6.9919    9.9516 C   0  0  2  0  0  0  0  0  0  0  0  0
    0.5903    6.2436    9.3970 N   0  0  0  0  0  0  0  0  0  0  0  0
    1.4940    8.5423    9.6599 C   0  0  2  0  0  0  0  0  0  0  0  0
    2.7105    9.3076   10.2567 C   0  0  2  0  0  0  0  0  0  0  0  0
    2.4183   10.7575    9.9486 O   0  0  0  0  0  0  0  0  0  0  0  0
    4.0896    8.7900    9.5657 C   0  0  1  0  0  0  0  0  0  0  0  0
    5.3108    9.4031   10.0901 O   0  0  0  0  0  0  0  0  0  0  0  0
    3.2913   11.5916   10.5964 C   0  0  1  0  0  0  0  0  0  0  0  0
    2.6201   12.5698   11.4588 C   0  0  2  0  0  0  0  0  0  0  0  0
    2.0212   13.5132   10.6294 O   0  0  0  0  0  0  0  0  0  0  0  0
    3.7752   12.9862   12.3944 C   0  0  2  0  0  0  0  0  0  0  0  0
    3.9789   14.4041   12.1999 O   0  0  0  0  0  0  0  0  0  0  0  0
    4.9445   12.1733   11.9453 C   0  0  2  0  0  0  0  0  0  0  0  0
    4.1905   10.9858   11.5102 O   0  0  0  0  0  0  0  0  0  0  0  0
    5.8966   11.8069   13.1427 C   0  0  0  0  0  0  0  0  0  0  0  0
    6.1745   12.9283   14.0340 O   0  0  0  0  0  0  0  0  0  0  0  0
    3.1021   15.3050   12.9418 C   0  0  2  0  0  0  0  0  0  0  0  0
    2.4629   16.3683   11.9050 C   0  0  2  0  0  0  0  0  0  0  0  0
    3.5681   17.1120   11.2178 N   0  0  0  0  0  0  0  0  0  0  0  0
    1.4964   17.3537   12.7289 C   0  0  1  0  0  0  0  0  0  0  0  0
    0.4700   16.5281   13.3587 O   0  0  0  0  0  0  0  0  0  0  0  0
    2.3497   18.1422   13.8219 C   0  0  2  0  0  0  0  0  0  0  0  0
    3.3540   18.9624   13.1086 O   0  0  0  0  0  0  0  0  0  0  0  0
    3.0313   17.0476   14.8214 C   0  0  1  0  0  0  0  0  0  0  0  0
    3.8769   16.0889   14.0209 O   0  0  0  0  0  0  0  0  0  0  0  0
    3.8923   17.7870   15.8986 C   0  0  0  0  0  0  0  0  0  0  0  0
    3.0641   18.5800   16.8591 N   0  0  0  0  0  0  0  0  0  0  0  0
  1  3  1  0  0  0  0
  1  2  1  1  0  0  0
  3  4  1  1  0  0  0
  3  5  1  0  0  0  0
  5  6  1  6  0  0  0
  7  8  1  1  0  0  0
  7  5  1  0  0  0  0
  9 11  1  6  0  0  0
  9  7  1  0  0  0  0
 10  9  1  0  0  0  0
 10  1  1  0  0  0  0
 12 11  1  0  0  0  0
 13 14  1  6  0  0  0
 15 13  1  0  0  0  0
 16 17  1  6  0  0  0
 16 15  1  0  0  0  0
 18  2  1  1  0  0  0
 18 19  1  0  0  0  0
 18 16  1  0  0  0  0
 19 20  1  6  0  0  0
 19 21  1  0  0  0  0
 21 22  1  1  0  0  0
 21 13  1  0  0  0  0
 23 20  1  1  0  0  0
 23 29  1  0  0  0  0
 24 25  1  6  0  0  0
 24 26  1  0  0  0  0
 24 23  1  0  0  0  0
 26 27  1  6  0  0  0
 26 28  1  0  0  0  0
 28 30  1  1  0  0  0
 29 28  1  0  0  0  0
 30 31  1  0  0  0  0
 32 27  1  6  0  0  0
 32 40  1  0  0  0  0
 33 35  1  0  0  0  0
 33 32  1  0  0  0  0
 33 34  1  1  0  0  0
 35 36  1  1  0  0  0
 35 37  1  0  0  0  0
 37 38  1  6  0  0  0
 37 39  1  0  0  0  0
 39 41  1  1  0  0  0
 40 39  1  0  0  0  0
 41 42  1  0  0  0  0
M  END
>  <CHROM.1>
129.51250590,-66.10659240,-124.74948638,170.23926900,-122.92617374,82.90980963
-44.90970012,-128.98385206,68.13751451,2.02540605,11.41154398,10.91169377
1.87117541,0.19432917,-2.68967397

>  <Name>
lig.pdb

>  <RI>
0

>  <Rbt.Current_Directory>
/home/itssahil/PROJECTS/Mol_Feturizer/New_Systems/rnas/4wcr

>  <Rbt.Executable>
rbdock ($Id: //depot/dev/client3/rdock/2013.1/src/exe/rbdock.cxx#4 $)

>  <Rbt.Library>
libRbt.so (2013.1, Build901 2013/11/27)

>  <Rbt.Parameter_File>
/export/apps/rDock/src/rDock_2013.1_src/data/scripts/dock_solv.prm

>  <Rbt.Receptor>
prm/blind_docking_40.prm

>  <SCORE>
11.5137

>  <SCORE.INTER>
-10.3639

>  <SCORE.INTER.CONST>
1

>  <SCORE.INTER.POLAR>
0

>  <SCORE.INTER.ROT>
9

>  <SCORE.INTER.SOLV>
28.5188

>  <SCORE.INTER.VDW>
-26.0155

>  <SCORE.INTER.norm>
-0.246759

>  <SCORE.INTRA>
11.7875

>  <SCORE.INTRA.DIHEDRAL>
15.6673

>  <SCORE.INTRA.DIHEDRAL.0>
16.2863

>  <SCORE.INTRA.POLAR>
0

>  <SCORE.INTRA.POLAR.0>
0

>  <SCORE.INTRA.REPUL>
-0.310721

>  <SCORE.INTRA.REPUL.0>
0.314433

>  <SCORE.INTRA.SOLV>
1.17704

>  <SCORE.INTRA.SOLV.lig_0>
-103.824

>  <SCORE.INTRA.VDW>
4.91891

>  <SCORE.INTRA.VDW.0>
-5.30945

>  <SCORE.INTRA.norm>
0.280654

>  <SCORE.RESTR>
10.0901

>  <SCORE.RESTR.CAVITY>
10.0901

>  <SCORE.RESTR.norm>
0.24024

>  <SCORE.SYSTEM>
0

>  <SCORE.SYSTEM.CONST>
0

>  <SCORE.SYSTEM.DIHEDRAL>
0

>  <SCORE.SYSTEM.SOLV>
0

>  <SCORE.SYSTEM.norm>
0

>  <SCORE.heavy>
42

>  <SCORE.norm>
0.274135

>  <RMSD>
28.095

$$$$
lig.pdb
 OpenBabel11021811513D
libRbt.so/2013.1/901 2013/11/27
 42 45  0  0  0  0  0  0  0  0999 V2000
   -1.3459    9.8380    9.3394 C   0  0  2  0  0  0  0  0  0  0  0  0
   -0.1084    9.7133   10.1076 O   0  0  0  0  0  0  0  0  0  0  0  0
   -0.9866   10.7185    8.0604 C   0  0  2  0  0  0  0  0  0  0  0  0
    0.0172   10.0365    7.2388 N   0  0  0  0  0  0  0  0  0  0  0  0
   -0.4882   12.1642    8.5517 C   0  0  1  0  0  0  0  0  0  0  0  0
   -0.1588   13.0103    7.4300 O   0  0  0  0  0  0  0  0  0  0  0  0
   -1.6169   12.7684    9.4045 C   0  0  2  0  0  0  0  0  0  0  0  0
   -1.2196   14.0207    9.8489 O   0  0  0  0  0  0  0  0  0  0  0  0
   -1.9445   11.8049   10.6345 C   0  0  2  0  0  0  0  0  0  0  0  0
   -2.3561   10.5082   10.1844 O   0  0  0  0  0  0  0  0  0  0  0  0
   -3.0563   12.3417   11.4906 C   0  0  0  0  0  0  0  0  0  0  0  0
   -4.2150   12.4680   10.6651 O   0  0  0  0  0  0  0  0  0  0  0  0
    3.5304    7.1576   10.1298 C   0  0  2  0  0  0  0  0  0  0  0  0
    4.6064    6.3053    9.6728 N   0  0  0  0  0  0  0  0  0  0  0  0
    2.1370    6.5428    9.7182 C   0  0  0  0  0  0  0  0  0  0  0  0
    0.9519    7.4520   10.1991 C   0  0  2  0  0  0  0  0  0  0  0  0
   -0.3172    6.8520    9.7926 N   0  0  0  0  0  0  0  0  0  0  0  0
    1.0353    8.9267    9.6019 C   0  0  2  0  0  0  0  0  0  0  0  0
    2.3975    9.5330   10.0474 C   0  0  2  0  0  0  0  0  0  0  0  0
    2.3921   10.9222    9.4534 O   0  0  0  0  0  0  0  0  0  0  0  0
    3.6240    8.6218    9.4882 C   0  0  1  0  0  0  0  0  0  0  0  0
    4.9583    9.0668    9.8930 O   0  0  0  0  0  0  0  0  0  0  0  0
    3.0069   11.8227   10.2832 C   0  0  1  0  0  0  0  0  0  0  0  0
    2.1744   12.2141   11.4255 C   0  0  2  0  0  0  0  0  0  0  0  0
    1.1679   13.0442   10.9411 O   0  0  0  0  0  0  0  0  0  0  0  0
    3.2386   12.7744   12.3933 C   0  0  2  0  0  0  0  0  0  0  0  0
    2.9049   14.1622   12.6221 O   0  0  0  0  0  0  0  0  0  0  0  0
    4.5364   12.6091   11.6735 C   0  0  2  0  0  0  0  0  0  0  0  0
    4.1864   11.3837   10.9362 O   0  0  0  0  0  0  0  0  0  0  0  0
    5.7242   12.3287   12.6660 C   0  0  0  0  0  0  0  0  0  0  0  0
    6.1944   13.5187   13.3674 O   0  0  0  0  0  0  0  0  0  0  0  0
    3.0056   15.0628   11.4777 C   0  0  2  0  0  0  0  0  0  0  0  0
    3.6853   16.4447   11.9704 C   0  0  2  0  0  0  0  0  0  0  0  0
    2.8565   17.0367   13.0702 N   0  0  0  0  0  0  0  0  0  0  0  0
    3.7959   17.4288   10.7043 C   0  0  1  0  0  0  0  0  0  0  0  0
    4.6115   16.7530    9.6994 O   0  0  0  0  0  0  0  0  0  0  0  0
    2.3349   17.7390   10.1442 C   0  0  2  0  0  0  0  0  0  0  0  0
    1.5780   18.4329   11.2099 O   0  0  0  0  0  0  0  0  0  0  0  0
    1.6472   16.3255    9.7072 C   0  0  1  0  0  0  0  0  0  0  0  0
    1.6176   15.3901   10.8900 O   0  0  0  0  0  0  0  0  0  0  0  0
    0.2025   16.5908    9.1679 C   0  0  0  0  0  0  0  0  0  0  0  0
   -0.2707   15.5272    8.2287 N   0  0  0  0  0  0  0  0  0  0  0  0
  1  3  1  0  0  0  0
  1  2  1  1  0  0  0
  3  4  1  1  0  0  0
  3  5  1  0  0  0  0
  5  6  1  6  0  0  0
  7  8  1  1  0  0  0
  7  5  1  0  0  0  0
  9 11  1  6  0  0  0
  9  7  1  0  0  0  0
 10  9  1  0  0  0  0
 10  1  1  0  0  0  0
 12 11  1  0  0  0  0
 13 14  1  6  0  0  0
 15 13  1  0  0  0  0
 16 17  1  6  0  0  0
 16 15  1  0  0  0  0
 18  2  1  1  0  0  0
 18 19  1  0  0  0  0
 18 16  1  0  0  0  0
 19 20  1  6  0  0  0
 19 21  1  0  0  0  0
 21 22  1  1  0  0  0
 21 13  1  0  0  0  0
 23 20  1  1  0  0  0
 23 29  1  0  0  0  0
 24 25  1  6  0  0  0
 24 26  1  0  0  0  0
 24 23  1  0  0  0  0
 26 27  1  6  0  0  0
 26 28  1  0  0  0  0
 28 30  1  1  0  0  0
 29 28  1  0  0  0  0
 30 31  1  0  0  0  0
 32 27  1  1  0  0  0
 32 40  1  0  0  0  0
 33 35  1  0  0  0  0
 33 32  1  0  0  0  0
 33 34  1  1  0  0  0
 35 36  1  6  0  0  0
 35 37  1  0  0  0  0
 37 38  1  1  0  0  0
 37 39  1  0  0  0  0
 39 41  1  1  0  0  0
 40 39  1  0  0  0  0
 41 42  1  0  0  0  0
M  END
>  <CHROM.1>
-68.55068664,59.69170238,-94.46139035,144.31404748,-76.37149339,-65.76832478
-77.01223751,-137.96091711,155.09528885,1.56621383,12.35561468,10.33280465
1.75468027,0.28416224,-3.01807313

>  <Name>
lig.pdb

>  <RI>
0

>  <Rbt.Current_Directory>
/home/itssahil/PROJECTS/Mol_Feturizer/New_Systems/rnas/4wcr

>  <Rbt.Executable>
rbdock ($Id: //depot/dev/client3/rdock/2013.1/src/exe/rbdock.cxx#4 $)

>  <Rbt.Library>
libRbt.so (2013.1, Build901 2013/11/27)

>  <Rbt.Parameter_File>
/export/apps/rDock/src/rDock_2013.1_src/data/scripts/dock_solv.prm

>  <Rbt.Receptor>
prm/blind_docking_20.prm

>  <SCORE>
59.5164

>  <SCORE.INTER>
10.2748

>  <SCORE.INTER.CONST>
1

>  <SCORE.INTER.POLAR>
0

>  <SCORE.INTER.ROT>
9

>  <SCORE.INTER.SOLV>
23.8121

>  <SCORE.INTER.VDW>
-10.6875

>  <SCORE.INTER.norm>
0.244637

>  <SCORE.INTRA>
6.55437

>  <SCORE.INTRA.DIHEDRAL>
3.64604

>  <SCORE.INTRA.DIHEDRAL.0>
16.2863

>  <SCORE.INTRA.POLAR>
0

>  <SCORE.INTRA.POLAR.0>
0

>  <SCORE.INTRA.REPUL>
0.0485529

>  <SCORE.INTRA.REPUL.0>
0.314433

>  <SCORE.INTRA.SOLV>
4.41812

>  <SCORE.INTRA.SOLV.lig_0>
-103.824

>  <SCORE.INTRA.VDW>
2.27953

>  <SCORE.INTRA.VDW.0>
-5.30945

>  <SCORE.INTRA.norm>
0.156056

>  <SCORE.RESTR>
42.6872

>  <SCORE.RESTR.CAVITY>
42.6872

>  <SCORE.RESTR.norm>
1.01636

>  <SCORE.SYSTEM>
0

>  <SCORE.SYSTEM.CONST>
0

>  <SCORE.SYSTEM.DIHEDRAL>
0

>  <SCORE.SYSTEM.SOLV>
0

>  <SCORE.SYSTEM.norm>
0

>  <SCORE.heavy>
42

>  <SCORE.norm>
1.41706

>  <RMSD>
28.174

$$$$
lig.pdb
 OpenBabel11021811513D
libRbt.so/2013.1/901 2013/11/27
 42 45  0  0  0  0  0  0  0  0999 V2000
    3.4004    8.9056    9.6046 C   0  0  2  0  0  0  0  0  0  0  0  0
    3.5161    9.3826   10.9816 O   0  0  0  0  0  0  0  0  0  0  0  0
    1.9052    9.2196    9.1511 C   0  0  2  0  0  0  0  0  0  0  0  0
    1.6582   10.6639    9.1770 N   0  0  0  0  0  0  0  0  0  0  0  0
    0.8956    8.4141   10.1059 C   0  0  1  0  0  0  0  0  0  0  0  0
   -0.4775    8.6535    9.7319 O   0  0  0  0  0  0  0  0  0  0  0  0
    1.2601    6.9234    9.9982 C   0  0  2  0  0  0  0  0  0  0  0  0
    0.4070    6.1949   10.8138 O   0  0  0  0  0  0  0  0  0  0  0  0
    2.7824    6.7037   10.4256 C   0  0  2  0  0  0  0  0  0  0  0  0
    3.6714    7.4530    9.5878 O   0  0  0  0  0  0  0  0  0  0  0  0
    3.1954    5.2630   10.3196 C   0  0  0  0  0  0  0  0  0  0  0  0
    2.4438    4.5258   11.2847 O   0  0  0  0  0  0  0  0  0  0  0  0
    5.8183   12.2666   13.4625 C   0  0  2  0  0  0  0  0  0  0  0  0
    6.8912   13.1167   13.9307 N   0  0  0  0  0  0  0  0  0  0  0  0
    6.3323   10.7846   13.2944 C   0  0  0  0  0  0  0  0  0  0  0  0
    5.1869    9.8419   12.7825 C   0  0  2  0  0  0  0  0  0  0  0  0
    5.7052    8.4836   12.6338 N   0  0  0  0  0  0  0  0  0  0  0  0
    4.5870   10.3167   11.3850 C   0  0  2  0  0  0  0  0  0  0  0  0
    4.0507   11.7649   11.5765 C   0  0  2  0  0  0  0  0  0  0  0  0
    3.4954   12.1324   10.2204 O   0  0  0  0  0  0  0  0  0  0  0  0
    5.2584   12.7508   12.0425 C   0  0  1  0  0  0  0  0  0  0  0  0
    4.8591   14.1337   12.3075 O   0  0  0  0  0  0  0  0  0  0  0  0
    2.6428   13.2018   10.3028 C   0  0  1  0  0  0  0  0  0  0  0  0
    1.6437   13.0608   11.3672 C   0  0  2  0  0  0  0  0  0  0  0  0
    0.7236   12.1039   10.9495 O   0  0  0  0  0  0  0  0  0  0  0  0
    1.2005   14.5272   11.5579 C   0  0  2  0  0  0  0  0  0  0  0  0
   -0.2122   14.5785   11.2557 O   0  0  0  0  0  0  0  0  0  0  0  0
    2.0225   15.3059   10.5845 C   0  0  2  0  0  0  0  0  0  0  0  0
    3.2225   14.4539   10.6296 O   0  0  0  0  0  0  0  0  0  0  0  0
    2.3554   16.7467   11.1208 C   0  0  0  0  0  0  0  0  0  0  0  0
    3.5173   17.3554   10.4816 O   0  0  0  0  0  0  0  0  0  0  0  0
   -0.5885   14.5187    9.8465 C   0  0  2  0  0  0  0  0  0  0  0  0
   -1.9581   13.6692    9.7167 C   0  0  2  0  0  0  0  0  0  0  0  0
   -1.7460   12.3015   10.2921 N   0  0  0  0  0  0  0  0  0  0  0  0
   -2.3673   13.6113    8.1633 C   0  0  1  0  0  0  0  0  0  0  0  0
   -2.5395   14.9880    7.7084 O   0  0  0  0  0  0  0  0  0  0  0  0
   -1.2181   12.8736    7.3390 C   0  0  2  0  0  0  0  0  0  0  0  0
   -1.1142   11.4872    7.8462 O   0  0  0  0  0  0  0  0  0  0  0  0
    0.1660   13.7157    7.5313 C   0  0  1  0  0  0  0  0  0  0  0  0
    0.4949   13.8202    8.9995 O   0  0  0  0  0  0  0  0  0  0  0  0
    1.3219   13.0089    6.7483 C   0  0  0  0  0  0  0  0  0  0  0  0
    1.1932   11.5187    6.7438 N   0  0  0  0  0  0  0  0  0  0  0  0
  1  3  1  0  0  0  0
  1  2  1  1  0  0  0
  3  4  1  1  0  0  0
  3  5  1  0  0  0  0
  5  6  1  6  0  0  0
  7  8  1  1  0  0  0
  7  5  1  0  0  0  0
  9 11  1  6  0  0  0
  9  7  1  0  0  0  0
 10  9  1  0  0  0  0
 10  1  1  0  0  0  0
 12 11  1  0  0  0  0
 13 14  1  6  0  0  0
 15 13  1  0  0  0  0
 16 17  1  6  0  0  0
 16 15  1  0  0  0  0
 18  2  1  1  0  0  0
 18 19  1  0  0  0  0
 18 16  1  0  0  0  0
 19 20  1  6  0  0  0
 19 21  1  0  0  0  0
 21 22  1  1  0  0  0
 21 13  1  0  0  0  0
 23 20  1  1  0  0  0
 23 29  1  0  0  0  0
 24 25  1  6  0  0  0
 24 26  1  0  0  0  0
 24 23  1  0  0  0  0
 26 27  1  6  0  0  0
 26 28  1  0  0  0  0
 28 30  1  1  0  0  0
 29 28  1  0  0  0  0
 30 31  1  0  0  0  0
 32 27  1  1  0  0  0
 32 40  1  0  0  0  0
 33 35  1  0  0  0  0
 33 32  1  0  0  0  0
 33 34  1  6  0  0  0
 35 36  1  6  0  0  0
 35 37  1  0  0  0  0
 37 38  1  1  0  0  0
 37 39  1  0  0  0  0
 39 41  1  6  0  0  0
 40 39  1  0  0  0  0
 41 42  1  0  0  0  0
M  END
>  <CHROM.1>
-126.56363293,-65.70542969,-136.93771498,162.13261381,-48.49821055,-75.44552372
158.71836534,143.78811736,-34.31954022,2.01993510,11.53659513,10.32615241
1.07474606,0.56580777,-3.09590114

>  <Name>
lig.pdb

>  <RI>
0

>  <Rbt.Current_Directory>
/home/itssahil/PROJECTS/Mol_Feturizer/New_Systems/rnas/4wcr

>  <Rbt.Executable>
rbdock ($Id: //depot/dev/client3/rdock/2013.1/src/exe/rbdock.cxx#4 $)

>  <Rbt.Library>
libRbt.so (2013.1, Build901 2013/11/27)

>  <Rbt.Parameter_File>
/export/apps/rDock/src/rDock_2013.1_src/data/scripts/dock_solv.prm

>  <Rbt.Receptor>
prm/blind_docking_20.prm

>  <SCORE>
65.159

>  <SCORE.INTER>
14.4624

>  <SCORE.INTER.CONST>
1

>  <SCORE.INTER.POLAR>
0

>  <SCORE.INTER.ROT>
9

>  <SCORE.INTER.SOLV>
28.6025

>  <SCORE.INTER.VDW>
-9.49258

>  <SCORE.INTER.norm>
0.344342

>  <SCORE.INTRA>
16.3719

>  <SCORE.INTRA.DIHEDRAL>
8.51196

>  <SCORE.INTRA.DIHEDRAL.0>
16.2863

>  <SCORE.INTRA.POLAR>
0

>  <SCORE.INTRA.POLAR.0>
0

>  <SCORE.INTRA.REPUL>
0.0405448

>  <SCORE.INTRA.REPUL.0>
0.314433

>  <SCORE.INTRA.SOLV>
11.2268

>  <SCORE.INTRA.SOLV.lig_0>
-103.824

>  <SCORE.INTRA.VDW>
6.29982

>  <SCORE.INTRA.VDW.0>
-5.30945

>  <SCORE.INTRA.norm>
0.389808

>  <SCORE.RESTR>
34.3246

>  <SCORE.RESTR.CAVITY>
34.3246

>  <SCORE.RESTR.norm>
0.817253

>  <SCORE.SYSTEM>
0

>  <SCORE.SYSTEM.CONST>
0

>  <SCORE.SYSTEM.DIHEDRAL>
0

>  <SCORE.SYSTEM.SOLV>
0

>  <SCORE.SYSTEM.norm>
0

>  <SCORE.heavy>
42

>  <SCORE.norm>
1.5514

>  <RMSD>
28.174

$$$$
lig.pdb
 OpenBabel11021811513D
libRbt.so/2013.1/901 2013/11/27
 42 45  0  0  0  0  0  0  0  0999 V2000
   -1.0929    8.2634    8.1308 C   0  0  2  0  0  0  0  0  0  0  0  0
    0.2286    8.7159    7.6996 O   0  0  0  0  0  0  0  0  0  0  0  0
   -2.0625    8.4751    6.8838 C   0  0  2  0  0  0  0  0  0  0  0  0
   -1.6235    7.6533    5.7526 N   0  0  0  0  0  0  0  0  0  0  0  0
   -2.1011   10.0388    6.5189 C   0  0  1  0  0  0  0  0  0  0  0  0
   -2.9762   10.2908    5.3994 O   0  0  0  0  0  0  0  0  0  0  0  0
   -2.5646   10.7884    7.7798 C   0  0  2  0  0  0  0  0  0  0  0  0
   -2.6081   12.1464    7.5014 O   0  0  0  0  0  0  0  0  0  0  0  0
   -1.5673   10.4866    8.9892 C   0  0  2  0  0  0  0  0  0  0  0  0
   -1.5160    9.0851    9.2839 O   0  0  0  0  0  0  0  0  0  0  0  0
   -1.9871   11.1819   10.2531 C   0  0  0  0  0  0  0  0  0  0  0  0
   -1.9907   12.5862    9.9931 O   0  0  0  0  0  0  0  0  0  0  0  0
    2.9194    6.9988   10.7953 C   0  0  2  0  0  0  0  0  0  0  0  0
    4.0833    6.4127   11.4237 N   0  0  0  0  0  0  0  0  0  0  0  0
    2.4578    6.1146    9.5730 C   0  0  0  0  0  0  0  0  0  0  0  0
    1.1977    6.7320    8.8706 C   0  0  2  0  0  0  0  0  0  0  0  0
    0.8079    5.8888    7.7424 N   0  0  0  0  0  0  0  0  0  0  0  0
    1.4613    8.2102    8.3376 C   0  0  2  0  0  0  0  0  0  0  0  0
    1.8789    9.0782    9.5598 C   0  0  2  0  0  0  0  0  0  0  0  0
    2.0984   10.4537    8.9746 O   0  0  0  0  0  0  0  0  0  0  0  0
    3.2249    8.4704   10.2427 C   0  0  1  0  0  0  0  0  0  0  0  0
    3.6825    9.1763   11.4404 O   0  0  0  0  0  0  0  0  0  0  0  0
    1.8232   11.4356    9.8897 C   0  0  1  0  0  0  0  0  0  0  0  0
    2.9984   12.2390   10.2428 C   0  0  2  0  0  0  0  0  0  0  0  0
    3.8188   11.4471   11.0405 O   0  0  0  0  0  0  0  0  0  0  0  0
    2.3322   13.5005   10.8327 C   0  0  2  0  0  0  0  0  0  0  0  0
    2.7721   13.6009   12.2060 O   0  0  0  0  0  0  0  0  0  0  0  0
    0.8649   13.2481   10.7189 C   0  0  2  0  0  0  0  0  0  0  0  0
    0.9088   12.4419    9.4876 O   0  0  0  0  0  0  0  0  0  0  0  0
    0.0601   14.5771   10.4729 C   0  0  0  0  0  0  0  0  0  0  0  0
    0.4479   15.2793    9.2541 O   0  0  0  0  0  0  0  0  0  0  0  0
    3.3895   14.8601   12.6112 C   0  0  2  0  0  0  0  0  0  0  0  0
    3.2942   14.9839   14.2205 C   0  0  2  0  0  0  0  0  0  0  0  0
    1.8558   14.9132   14.6359 N   0  0  0  0  0  0  0  0  0  0  0  0
    3.9792   16.3706   14.6585 C   0  0  1  0  0  0  0  0  0  0  0  0
    5.3648   16.3339   14.1998 O   0  0  0  0  0  0  0  0  0  0  0  0
    3.1870   17.5862   13.9960 C   0  0  2  0  0  0  0  0  0  0  0  0
    1.8024   17.5642   14.5183 O   0  0  0  0  0  0  0  0  0  0  0  0
    3.2473   17.4093   12.3752 C   0  0  1  0  0  0  0  0  0  0  0  0
    2.6654   16.0722   11.9901 O   0  0  0  0  0  0  0  0  0  0  0  0
    2.4631   18.5781   11.6914 C   0  0  0  0  0  0  0  0  0  0  0  0
    2.7284   19.9054   12.3280 N   0  0  0  0  0  0  0  0  0  0  0  0
  1  3  1  0  0  0  0
  1  2  1  6  0  0  0
  3  4  1  6  0  0  0
  3  5  1  0  0  0  0
  5  6  1  6  0  0  0
  7  8  1  6  0  0  0
  7  5  1  0  0  0  0
  9 11  1  1  0  0  0
  9  7  1  0  0  0  0
 10  9  1  0  0  0  0
 10  1  1  0  0  0  0
 12 11  1  0  0  0  0
 13 14  1  6  0  0  0
 15 13  1  0  0  0  0
 16 17  1  6  0  0  0
 16 15  1  0  0  0  0
 18  2  1  1  0  0  0
 18 19  1  0  0  0  0
 18 16  1  0  0  0  0
 19 20  1  6  0  0  0
 19 21  1  0  0  0  0
 21 22  1  1  0  0  0
 21 13  1  0  0  0  0
 23 20  1  6  0  0  0
 23 29  1  0  0  0  0
 24 25  1  1  0  0  0
 24 26  1  0  0  0  0
 24 23  1  0  0  0  0
 26 27  1  1  0  0  0
 26 28  1  0  0  0  0
 28 30  1  6  0  0  0
 29 28  1  0  0  0  0
 30 31  1  0  0  0  0
 32 27  1  6  0  0  0
 32 40  1  0  0  0  0
 33 35  1  0  0  0  0
 33 32  1  0  0  0  0
 33 34  1  6  0  0  0
 35 36  1  6  0  0  0
 35 37  1  0  0  0  0
 37 38  1  1  0  0  0
 37 39  1  0  0  0  0
 39 41  1  6  0  0  0
 40 39  1  0  0  0  0
 41 42  1  0  0  0  0
M  END
>  <CHROM.1>
-155.52156383,-60.20563186,29.30827500,149.95214259,116.24917165,125.67173439
59.77216848,158.97107035,42.31364026,1.22339535,11.93539338,10.29409482,1.96796718
0.63494373,-2.84092626

>  <Name>
lig.pdb

>  <RI>
0

>  <Rbt.Current_Directory>
/home/itssahil/PROJECTS/Mol_Feturizer/New_Systems/rnas/4wcr

>  <Rbt.Executable>
rbdock ($Id: //depot/dev/client3/rdock/2013.1/src/exe/rbdock.cxx#4 $)

>  <Rbt.Library>
libRbt.so (2013.1, Build901 2013/11/27)

>  <Rbt.Parameter_File>
/export/apps/rDock/src/rDock_2013.1_src/data/scripts/dock_solv.prm

>  <Rbt.Receptor>
prm/blind_docking_60.prm

>  <SCORE>
13.7342

>  <SCORE.INTER>
3.63181

>  <SCORE.INTER.CONST>
1

>  <SCORE.INTER.POLAR>
0

>  <SCORE.INTER.ROT>
9

>  <SCORE.INTER.SOLV>
34.9434

>  <SCORE.INTER.VDW>
-18.8266

>  <SCORE.INTER.norm>
0.0864716

>  <SCORE.INTRA>
5.58427

>  <SCORE.INTRA.DIHEDRAL>
11.1161

>  <SCORE.INTRA.DIHEDRAL.0>
16.2863

>  <SCORE.INTRA.POLAR>
0

>  <SCORE.INTRA.POLAR.0>
0

>  <SCORE.INTRA.REPUL>
-0.314433

>  <SCORE.INTRA.REPUL.0>
0.314433

>  <SCORE.INTRA.SOLV>
-0.472304

>  <SCORE.INTRA.SOLV.lig_0>
-103.824

>  <SCORE.INTRA.VDW>
1.83456

>  <SCORE.INTRA.VDW.0>
-5.30945

>  <SCORE.INTRA.norm>
0.132959

>  <SCORE.RESTR>
4.51815

>  <SCORE.RESTR.CAVITY>
4.51815

>  <SCORE.RESTR.norm>
0.107575

>  <SCORE.SYSTEM>
0

>  <SCORE.SYSTEM.CONST>
0

>  <SCORE.SYSTEM.DIHEDRAL>
0

>  <SCORE.SYSTEM.SOLV>
0

>  <SCORE.SYSTEM.norm>
0

>  <SCORE.heavy>
42

>  <SCORE.norm>
0.327005

>  <RMSD>
28.392

$$$$
lig.pdb
 OpenBabel11021811513D
libRbt.so/2013.1/901 2013/11/27
 42 45  0  0  0  0  0  0  0  0999 V2000
    1.1890    7.2193    9.7739 C   0  0  2  0  0  0  0  0  0  0  0  0
    0.7169    7.2293    8.3903 O   0  0  0  0  0  0  0  0  0  0  0  0
    2.3558    6.1354    9.8360 C   0  0  2  0  0  0  0  0  0  0  0  0
    3.4619    6.5276    8.9584 N   0  0  0  0  0  0  0  0  0  0  0  0
    1.7496    4.7006    9.4442 C   0  0  1  0  0  0  0  0  0  0  0  0
    2.7640    3.6753    9.4951 O   0  0  0  0  0  0  0  0  0  0  0  0
    0.6006    4.4095   10.4247 C   0  0  2  0  0  0  0  0  0  0  0  0
    0.0503    3.1748   10.1141 O   0  0  0  0  0  0  0  0  0  0  0  0
   -0.4992    5.5629   10.3314 C   0  0  2  0  0  0  0  0  0  0  0  0
    0.0608    6.8427   10.6509 O   0  0  0  0  0  0  0  0  0  0  0  0
   -1.6371    5.3353   11.2856 C   0  0  0  0  0  0  0  0  0  0  0  0
   -1.0969    5.3228   12.6076 O   0  0  0  0  0  0  0  0  0  0  0  0
   -1.8383   10.0553    6.0975 C   0  0  2  0  0  0  0  0  0  0  0  0
   -3.0046   10.7649    5.6186 N   0  0  0  0  0  0  0  0  0  0  0  0
   -2.0459    8.4993    5.9409 C   0  0  0  0  0  0  0  0  0  0  0  0
   -0.7949    7.7056    6.4580 C   0  0  2  0  0  0  0  0  0  0  0  0
   -1.0303    6.2717    6.3022 N   0  0  0  0  0  0  0  0  0  0  0  0
   -0.4725    8.0079    7.9887 C   0  0  2  0  0  0  0  0  0  0  0  0
   -0.2335    9.5400    8.1203 C   0  0  2  0  0  0  0  0  0  0  0  0
    0.0728    9.7385    9.5864 O   0  0  0  0  0  0  0  0  0  0  0  0
   -1.5594   10.3550    7.6456 C   0  0  1  0  0  0  0  0  0  0  0  0
   -1.4312   11.8127    7.6741 O   0  0  0  0  0  0  0  0  0  0  0  0
    1.1509   10.5653    9.7640 C   0  0  1  0  0  0  0  0  0  0  0  0
    0.9334   11.5802   10.8002 C   0  0  2  0  0  0  0  0  0  0  0  0
    0.0454   12.5186   10.2829 O   0  0  0  0  0  0  0  0  0  0  0  0
    2.3854   11.9893   11.1279 C   0  0  2  0  0  0  0  0  0  0  0  0
    2.5020   13.3966   10.8186 O   0  0  0  0  0  0  0  0  0  0  0  0
    3.2331   11.1367   10.2423 C   0  0  2  0  0  0  0  0  0  0  0  0
    2.3502    9.9588   10.2161 O   0  0  0  0  0  0  0  0  0  0  0  0
    4.6063   10.7748   10.9190 C   0  0  0  0  0  0  0  0  0  0  0  0
    4.4692    9.9653   12.1253 O   0  0  0  0  0  0  0  0  0  0  0  0
    2.0660   14.3369   11.8466 C   0  0  2  0  0  0  0  0  0  0  0  0
    2.1326   15.8323   11.2356 C   0  0  2  0  0  0  0  0  0  0  0  0
    3.5324   16.1174   10.7818 N   0  0  0  0  0  0  0  0  0  0  0  0
    1.6476   16.8606   12.3720 C   0  0  1  0  0  0  0  0  0  0  0  0
    0.2854   16.4876   12.7419 O   0  0  0  0  0  0  0  0  0  0  0  0
    2.6291   16.7673   13.6258 C   0  0  2  0  0  0  0  0  0  0  0  0
    3.9798   17.1719   13.1761 O   0  0  0  0  0  0  0  0  0  0  0  0
    2.5896   15.2368   14.1897 C   0  0  1  0  0  0  0  0  0  0  0  0
    2.9784   14.2818   13.0890 O   0  0  0  0  0  0  0  0  0  0  0  0
    3.5569   15.1042   15.4125 C   0  0  0  0  0  0  0  0  0  0  0  0
    4.9977   15.2202   15.0280 N   0  0  0  0  0  0  0  0  0  0  0  0
  1  3  1  0  0  0  0
  1  2  1  6  0  0  0
  3  4  1  6  0  0  0
  3  5  1  0  0  0  0
  5  6  1  1  0  0  0
  7  8  1  6  0  0  0
  7  5  1  0  0  0  0
  9 11  1  1  0  0  0
  9  7  1  0  0  0  0
 10  9  1  0  0  0  0
 10  1  1  0  0  0  0
 12 11  1  0  0  0  0
 13 14  1  1  0  0  0
 15 13  1  0  0  0  0
 16 17  1  1  0  0  0
 16 15  1  0  0  0  0
 18  2  1  6  0  0  0
 18 19  1  0  0  0  0
 18 16  1  0  0  0  0
 19 20  1  1  0  0  0
 19 21  1  0  0  0  0
 21 22  1  6  0  0  0
 21 13  1  0  0  0  0
 23 20  1  1  0  0  0
 23 29  1  0  0  0  0
 24 25  1  6  0  0  0
 24 26  1  0  0  0  0
 24 23  1  0  0  0  0
 26 27  1  6  0  0  0
 26 28  1  0  0  0  0
 28 30  1  1  0  0  0
 29 28  1  0  0  0  0
 30 31  1  0  0  0  0
 32 27  1  6  0  0  0
 32 40  1  0  0  0  0
 33 35  1  0  0  0  0
 33 32  1  0  0  0  0
 33 34  1  1  0  0  0
 35 36  1  1  0  0  0
 35 37  1  0  0  0  0
 37 38  1  6  0  0  0
 37 39  1  0  0  0  0
 39 41  1  1  0  0  0
 40 39  1  0  0  0  0
 41 42  1  0  0  0  0
M  END
>  <CHROM.1>
172.91608233,60.52956561,-175.00688331,134.88077160,134.78773650,83.86460504
63.75239442,-173.95526468,-68.75581493,1.18670263,10.32465180,10.32847655
-1.99305906,-0.85784485,0.06794374

>  <Name>
lig.pdb

>  <RI>
0

>  <Rbt.Current_Directory>
/home/itssahil/PROJECTS/Mol_Feturizer/New_Systems/rnas/4wcr

>  <Rbt.Executable>
rbdock ($Id: //depot/dev/client3/rdock/2013.1/src/exe/rbdock.cxx#4 $)

>  <Rbt.Library>
libRbt.so (2013.1, Build901 2013/11/27)

>  <Rbt.Parameter_File>
/export/apps/rDock/src/rDock_2013.1_src/data/scripts/dock_solv.prm

>  <Rbt.Receptor>
prm/blind_docking_40.prm

>  <SCORE>
11.7915

>  <SCORE.INTER>
4.9803

>  <SCORE.INTER.CONST>
1

>  <SCORE.INTER.POLAR>
0

>  <SCORE.INTER.ROT>
9

>  <SCORE.INTER.SOLV>
31.7982

>  <SCORE.INTER.VDW>
-16.8792

>  <SCORE.INTER.norm>
0.118579

>  <SCORE.INTRA>
-3.0461

>  <SCORE.INTRA.DIHEDRAL>
-0.211209

>  <SCORE.INTRA.DIHEDRAL.0>
16.2863

>  <SCORE.INTRA.POLAR>
0

>  <SCORE.INTRA.POLAR.0>
0

>  <SCORE.INTRA.REPUL>
-0.314433

>  <SCORE.INTRA.REPUL.0>
0.314433

>  <SCORE.INTRA.SOLV>
-3.21463

>  <SCORE.INTRA.SOLV.lig_0>
-103.824

>  <SCORE.INTRA.VDW>
0.238985

>  <SCORE.INTRA.VDW.0>
-5.30945

>  <SCORE.INTRA.norm>
-0.0725261

>  <SCORE.RESTR>
9.8573

>  <SCORE.RESTR.CAVITY>
9.8573

>  <SCORE.RESTR.norm>
0.234698

>  <SCORE.SYSTEM>
0

>  <SCORE.SYSTEM.CONST>
0

>  <SCORE.SYSTEM.DIHEDRAL>
0

>  <SCORE.SYSTEM.SOLV>
0

>  <SCORE.SYSTEM.norm>
0

>  <SCORE.heavy>
42

>  <SCORE.norm>
0.28075

>  <RMSD>
28.471

$$$$
lig.pdb
 OpenBabel11021811513D
libRbt.so/2013.1/901 2013/11/27
 42 45  0  0  0  0  0  0  0  0999 V2000
    2.2383    7.5898    9.6171 C   0  0  2  0  0  0  0  0  0  0  0  0
    1.8895    7.6174    8.1977 O   0  0  0  0  0  0  0  0  0  0  0  0
    3.1864    6.3242    9.8158 C   0  0  2  0  0  0  0  0  0  0  0  0
    4.4120    6.4776    9.0271 N   0  0  0  0  0  0  0  0  0  0  0  0
    2.3702    4.9995    9.4173 C   0  0  1  0  0  0  0  0  0  0  0  0
    3.1799    3.8174    9.5895 O   0  0  0  0  0  0  0  0  0  0  0  0
    1.1120    4.9577   10.3014 C   0  0  2  0  0  0  0  0  0  0  0  0
    0.3793    3.8240    9.9824 O   0  0  0  0  0  0  0  0  0  0  0  0
    0.2445    6.2787   10.0754 C   0  0  2  0  0  0  0  0  0  0  0  0
    0.9939    7.4555   10.4027 O   0  0  0  0  0  0  0  0  0  0  0  0
   -0.9894    6.2963   10.9323 C   0  0  0  0  0  0  0  0  0  0  0  0
   -1.7058    7.4952   10.6339 O   0  0  0  0  0  0  0  0  0  0  0  0
   -1.5253    9.1721    5.8113 C   0  0  2  0  0  0  0  0  0  0  0  0
   -2.8632    9.3437    5.2884 N   0  0  0  0  0  0  0  0  0  0  0  0
   -1.0641    7.6727    5.6444 C   0  0  0  0  0  0  0  0  0  0  0  0
    0.3845    7.4589    6.2087 C   0  0  2  0  0  0  0  0  0  0  0  0
    0.7697    6.0591    6.0418 N   0  0  0  0  0  0  0  0  0  0  0  0
    0.4991    7.8408    7.7512 C   0  0  2  0  0  0  0  0  0  0  0  0
    0.0774    9.3319    7.8943 C   0  0  2  0  0  0  0  0  0  0  0  0
    0.2227    9.6138    9.3715 O   0  0  0  0  0  0  0  0  0  0  0  0
   -1.4496    9.5333    7.3695 C   0  0  1  0  0  0  0  0  0  0  0  0
   -1.9378   10.9126    7.4052 O   0  0  0  0  0  0  0  0  0  0  0  0
    1.1524   10.5929    9.6041 C   0  0  1  0  0  0  0  0  0  0  0  0
    0.6835   11.6217   10.5384 C   0  0  2  0  0  0  0  0  0  0  0  0
   -0.2575   12.3958    9.8662 O   0  0  0  0  0  0  0  0  0  0  0  0
    2.0203   12.2489   10.9885 C   0  0  2  0  0  0  0  0  0  0  0  0
    1.9814   13.6397   10.5962 O   0  0  0  0  0  0  0  0  0  0  0  0
    3.0705   11.4778   10.2590 C   0  0  2  0  0  0  0  0  0  0  0  0
    2.3627   10.1873   10.2215 O   0  0  0  0  0  0  0  0  0  0  0  0
    4.3934   11.3508   11.1005 C   0  0  0  0  0  0  0  0  0  0  0  0
    4.4410   10.1583   11.9401 O   0  0  0  0  0  0  0  0  0  0  0  0
    1.6042   14.6053   11.6239 C   0  0  2  0  0  0  0  0  0  0  0  0
    1.5418   16.0738   10.9502 C   0  0  2  0  0  0  0  0  0  0  0  0
    2.8762   16.3973   10.3489 N   0  0  0  0  0  0  0  0  0  0  0  0
    1.1224   17.1300   12.0871 C   0  0  1  0  0  0  0  0  0  0  0  0
   -0.1786   16.7166   12.6047 O   0  0  0  0  0  0  0  0  0  0  0  0
    2.2245   17.1338   13.2402 C   0  0  2  0  0  0  0  0  0  0  0  0
    3.5049   17.5746   12.6431 O   0  0  0  0  0  0  0  0  0  0  0  0
    2.3109   15.6294   13.8658 C   0  0  1  0  0  0  0  0  0  0  0  0
    2.6347   14.6439   12.7710 O   0  0  0  0  0  0  0  0  0  0  0  0
    3.3975   15.5920   14.9912 C   0  0  0  0  0  0  0  0  0  0  0  0
    4.7666   15.9218   14.4870 N   0  0  0  0  0  0  0  0  0  0  0  0
  1  3  1  0  0  0  0
  1  2  1  6  0  0  0
  3  4  1  6  0  0  0
  3  5  1  0  0  0  0
  5  6  1  1  0  0  0
  7  8  1  6  0  0  0
  7  5  1  0  0  0  0
  9 11  1  1  0  0  0
  9  7  1  0  0  0  0
 10  9  1  0  0  0  0
 10  1  1  0  0  0  0
 12 11  1  0  0  0  0
 13 14  1  1  0  0  0
 15 13  1  0  0  0  0
 16 17  1  1  0  0  0
 16 15  1  0  0  0  0
 18  2  1  6  0  0  0
 18 19  1  0  0  0  0
 18 16  1  0  0  0  0
 19 20  1  1  0  0  0
 19 21  1  0  0  0  0
 21 22  1  6  0  0  0
 21 13  1  0  0  0  0
 23 20  1  1  0  0  0
 23 29  1  0  0  0  0
 24 25  1  6  0  0  0
 24 26  1  0  0  0  0
 24 23  1  0  0  0  0
 26 27  1  6  0  0  0
 26 28  1  0  0  0  0
 28 30  1  1  0  0  0
 29 28  1  0  0  0  0
 30 31  1  0  0  0  0
 32 27  1  6  0  0  0
 32 40  1  0  0  0  0
 33 35  1  0  0  0  0
 33 32  1  0  0  0  0
 33 34  1  1  0  0  0
 35 36  1  1  0  0  0
 35 37  1  0  0  0  0
 37 38  1  6  0  0  0
 37 39  1  0  0  0  0
 39 41  1  1  0  0  0
 40 39  1  0  0  0  0
 41 42  1  0  0  0  0
M  END
>  <CHROM.1>
134.31463914,-178.67015753,-166.08966115,118.28042217,132.61394399,98.06857583
90.98609341,-176.72524414,-61.54159274,1.33537038,10.49981131,10.06043978
-1.80996171,-0.74714928,0.25162709

>  <Name>
lig.pdb

>  <RI>
0

>  <Rbt.Current_Directory>
/home/itssahil/PROJECTS/Mol_Feturizer/New_Systems/rnas/4wcr

>  <Rbt.Executable>
rbdock ($Id: //depot/dev/client3/rdock/2013.1/src/exe/rbdock.cxx#4 $)

>  <Rbt.Library>
libRbt.so (2013.1, Build901 2013/11/27)

>  <Rbt.Parameter_File>
/export/apps/rDock/src/rDock_2013.1_src/data/scripts/dock_solv.prm

>  <Rbt.Receptor>
prm/blind_docking_80.prm

>  <SCORE>
2.71216

>  <SCORE.INTER>
-6.86285

>  <SCORE.INTER.CONST>
1

>  <SCORE.INTER.POLAR>
0

>  <SCORE.INTER.ROT>
9

>  <SCORE.INTER.SOLV>
35.9965

>  <SCORE.INTER.VDW>
-26.1741

>  <SCORE.INTER.norm>
-0.163401

>  <SCORE.INTRA>
4.93996

>  <SCORE.INTRA.DIHEDRAL>
12.2713

>  <SCORE.INTRA.DIHEDRAL.0>
16.2863

>  <SCORE.INTRA.POLAR>
0

>  <SCORE.INTRA.POLAR.0>
0

>  <SCORE.INTRA.REPUL>
-0.314433

>  <SCORE.INTRA.REPUL.0>
0.314433

>  <SCORE.INTRA.SOLV>
-2.19401

>  <SCORE.INTRA.SOLV.lig_0>
-103.824

>  <SCORE.INTRA.VDW>
1.47348

>  <SCORE.INTRA.VDW.0>
-5.30945

>  <SCORE.INTRA.norm>
0.117618

>  <SCORE.RESTR>
4.63504

>  <SCORE.RESTR.CAVITY>
4.63504

>  <SCORE.RESTR.norm>
0.110358

>  <SCORE.SYSTEM>
0

>  <SCORE.SYSTEM.CONST>
0

>  <SCORE.SYSTEM.DIHEDRAL>
0

>  <SCORE.SYSTEM.SOLV>
0

>  <SCORE.SYSTEM.norm>
0

>  <SCORE.heavy>
42

>  <SCORE.norm>
0.0645751

>  <RMSD>
28.695

$$$$
lig.pdb
 OpenBabel11021811513D
libRbt.so/2013.1/901 2013/11/27
 42 45  0  0  0  0  0  0  0  0999 V2000
    1.0920    7.8264    9.9472 C   0  0  2  0  0  0  0  0  0  0  0  0
    1.1455    7.9322    8.4901 O   0  0  0  0  0  0  0  0  0  0  0  0
    2.5895    7.5683   10.4279 C   0  0  2  0  0  0  0  0  0  0  0  0
    3.4433    8.7024   10.0638 N   0  0  0  0  0  0  0  0  0  0  0  0
    3.1072    6.1890    9.7881 C   0  0  1  0  0  0  0  0  0  0  0  0
    4.4593    5.8988   10.2007 O   0  0  0  0  0  0  0  0  0  0  0  0
    2.1305    5.0869   10.2330 C   0  0  2  0  0  0  0  0  0  0  0  0
    2.5467    3.8778    9.6958 O   0  0  0  0  0  0  0  0  0  0  0  0
    0.6510    5.4448    9.7520 C   0  0  2  0  0  0  0  0  0  0  0  0
    0.2126    6.6931   10.3025 O   0  0  0  0  0  0  0  0  0  0  0  0
   -0.3473    4.4064   10.1788 C   0  0  0  0  0  0  0  0  0  0  0  0
   -0.3115    4.3327   11.6047 O   0  0  0  0  0  0  0  0  0  0  0  0
   -1.5706    8.6234    5.0379 C   0  0  2  0  0  0  0  0  0  0  0  0
   -2.7286    8.5562    4.1733 N   0  0  0  0  0  0  0  0  0  0  0  0
   -1.0316    7.1717    5.3393 C   0  0  0  0  0  0  0  0  0  0  0  0
    0.2236    7.2169    6.2800 C   0  0  2  0  0  0  0  0  0  0  0  0
    0.6860    5.8551    6.5396 N   0  0  0  0  0  0  0  0  0  0  0  0
   -0.0849    7.9268    7.6725 C   0  0  2  0  0  0  0  0  0  0  0  0
   -0.5794    9.3690    7.3605 C   0  0  2  0  0  0  0  0  0  0  0  0
   -0.8377    9.9705    8.7221 O   0  0  0  0  0  0  0  0  0  0  0  0
   -1.9201    9.3129    6.4402 C   0  0  1  0  0  0  0  0  0  0  0  0
   -2.4466   10.6174    6.0362 O   0  0  0  0  0  0  0  0  0  0  0  0
    0.1132   10.9027    9.0450 C   0  0  1  0  0  0  0  0  0  0  0  0
   -0.3542   11.8847   10.0290 C   0  0  2  0  0  0  0  0  0  0  0  0
   -1.2495   12.7296    9.3800 O   0  0  0  0  0  0  0  0  0  0  0  0
    0.9858   12.4390   10.5584 C   0  0  2  0  0  0  0  0  0  0  0  0
    1.0012   13.8523   10.2553 O   0  0  0  0  0  0  0  0  0  0  0  0
    2.0351   11.6824    9.8127 C   0  0  2  0  0  0  0  0  0  0  0  0
    1.2903   10.4202    9.6711 O   0  0  0  0  0  0  0  0  0  0  0  0
    3.3260   11.4599   10.6836 C   0  0  0  0  0  0  0  0  0  0  0  0
    3.9382   12.6994   11.1503 O   0  0  0  0  0  0  0  0  0  0  0  0
    0.9960   14.7710   11.3898 C   0  0  2  0  0  0  0  0  0  0  0  0
    0.9216   16.2840   10.8246 C   0  0  2  0  0  0  0  0  0  0  0  0
    2.0899   16.5295    9.9182 N   0  0  0  0  0  0  0  0  0  0  0  0
    0.9125   17.2885   12.0795 C   0  0  1  0  0  0  0  0  0  0  0  0
   -0.2540   16.9567   12.8924 O   0  0  0  0  0  0  0  0  0  0  0  0
    2.2617   17.1103   12.9115 C   0  0  2  0  0  0  0  0  0  0  0  0
    3.3914   17.4769   12.0284 O   0  0  0  0  0  0  0  0  0  0  0  0
    2.3434   15.5630   13.4224 C   0  0  1  0  0  0  0  0  0  0  0  0
    2.2785   14.6342   12.2359 O   0  0  0  0  0  0  0  0  0  0  0  0
    3.6665   15.3473   14.2295 C   0  0  0  0  0  0  0  0  0  0  0  0
    4.8932   15.5594   13.4003 N   0  0  0  0  0  0  0  0  0  0  0  0
  1  3  1  0  0  0  0
  1  2  1  6  0  0  0
  3  4  1  6  0  0  0
  3  5  1  0  0  0  0
  5  6  1  1  0  0  0
  7  8  1  6  0  0  0
  7  5  1  0  0  0  0
  9 11  1  1  0  0  0
  9  7  1  0  0  0  0
 10  9  1  0  0  0  0
 10  1  1  0  0  0  0
 12 11  1  0  0  0  0
 13 14  1  6  0  0  0
 15 13  1  0  0  0  0
 16 17  1  1  0  0  0
 16 15  1  0  0  0  0
 18  2  1  1  0  0  0
 18 19  1  0  0  0  0
 18 16  1  0  0  0  0
 19 20  1  1  0  0  0
 19 21  1  0  0  0  0
 21 22  1  6  0  0  0
 21 13  1  0  0  0  0
 23 20  1  1  0  0  0
 23 29  1  0  0  0  0
 24 25  1  6  0  0  0
 24 26  1  0  0  0  0
 24 23  1  0  0  0  0
 26 27  1  6  0  0  0
 26 28  1  0  0  0  0
 28 30  1  1  0  0  0
 29 28  1  0  0  0  0
 30 31  1  0  0  0  0
 32 27  1  6  0  0  0
 32 40  1  0  0  0  0
 33 35  1  0  0  0  0
 33 32  1  0  0  0  0
 33 34  1  6  0  0  0
 35 36  1  1  0  0  0
 35 37  1  0  0  0  0
 37 38  1  6  0  0  0
 37 39  1  0  0  0  0
 39 41  1  6  0  0  0
 40 39  1  0  0  0  0
 41 42  1  0  0  0  0
M  END
>  <CHROM.1>
168.70714559,59.43562201,-146.99014312,107.67673505,156.04008601,114.85267814
-58.47720918,-176.49452232,-62.81529469,1.07983626,10.57289279,9.79081541
-1.81484674,-0.82227462,0.20093549

>  <Name>
lig.pdb

>  <RI>
0

>  <Rbt.Current_Directory>
/home/itssahil/PROJECTS/Mol_Feturizer/New_Systems/rnas/4wcr

>  <Rbt.Executable>
rbdock ($Id: //depot/dev/client3/rdock/2013.1/src/exe/rbdock.cxx#4 $)

>  <Rbt.Library>
libRbt.so (2013.1, Build901 2013/11/27)

>  <Rbt.Parameter_File>
/export/apps/rDock/src/rDock_2013.1_src/data/scripts/dock_solv.prm

>  <Rbt.Receptor>
prm/blind_docking_80.prm

>  <SCORE>
-5.24765

>  <SCORE.INTER>
-13.1605

>  <SCORE.INTER.CONST>
1

>  <SCORE.INTER.POLAR>
0

>  <SCORE.INTER.ROT>
9

>  <SCORE.INTER.SOLV>
33.7597

>  <SCORE.INTER.VDW>
-29.6269

>  <SCORE.INTER.norm>
-0.313345

>  <SCORE.INTRA>
2.30423

>  <SCORE.INTRA.DIHEDRAL>
4.93321

>  <SCORE.INTRA.DIHEDRAL.0>
16.2863

>  <SCORE.INTRA.POLAR>
0

>  <SCORE.INTRA.POLAR.0>
0

>  <SCORE.INTRA.REPUL>
-0.314433

>  <SCORE.INTRA.REPUL.0>
0.314433

>  <SCORE.INTRA.SOLV>
2.36864

>  <SCORE.INTRA.SOLV.lig_0>
-103.824

>  <SCORE.INTRA.VDW>
0.225466

>  <SCORE.INTRA.VDW.0>
-5.30945

>  <SCORE.INTRA.norm>
0.0548625

>  <SCORE.RESTR>
5.60859

>  <SCORE.RESTR.CAVITY>
5.60859

>  <SCORE.RESTR.norm>
0.133538

>  <SCORE.SYSTEM>
0

>  <SCORE.SYSTEM.CONST>
0

>  <SCORE.SYSTEM.DIHEDRAL>
0

>  <SCORE.SYSTEM.SOLV>
0

>  <SCORE.SYSTEM.norm>
0

>  <SCORE.heavy>
42

>  <SCORE.norm>
-0.124944

>  <RMSD>
28.934

$$$$
