@<TRIPOS>MOLECULE
4wcr_rdock.pdb
 891 991 0 0 0
SMALL
GASTEIGER

@<TRIPOS>ATOM
      1    P.3     -6.3130   13.8070   55.0500 Pac     2  U2          0.3942
      2  OP1       -6.0260   12.3130   55.0790 O.3     2  U2         -0.1425
      3  OP2       -7.6250   14.1560   55.7470 O.3     2  U2         -0.1425
      4  O5'       -6.5120   14.1760   53.4770 O.3     2  U2         -0.2926
      5  C5'       -7.2150   13.2880   52.5910 C.3     2  U2          0.1829
      6  C4'       -7.5430   14.0010   51.3000 C.3     2  U2          0.1774
      7  O4'       -8.6490   14.9050   51.5260 O.3     2  U2         -0.3307
      8  C3'       -6.3920   14.7820   50.6570 C.3     2  U2          0.1860
      9  O3'       -6.1160   14.3060   49.3300 O.3     2  U2         -0.3112
     10  C2'       -6.8490   16.2520   50.6380 C.3     2  U2          0.2309
     11  O2'       -6.8700   16.8410   49.3490 O.3     2  U2         -0.2156
     12  C1'       -8.2560   16.2310   51.2480 C.3     2  U2          0.2420
     13   N.1      -8.3570   17.0320   52.4800 N.ar    2  U2         -0.2534
     14   C.2      -8.7270   18.3670   52.3540 C.ar    2  U2          0.3546
     15   O.2      -8.9990   18.8870   51.2820 O.2     2  U2         -0.2443
     16   N.3      -8.7690   19.0710   53.5350 N.ar    2  U2         -0.1530
     17   C4       -8.4870   18.5940   54.8080 C.ar    2  U2          0.2846
     18   O4       -8.5220   19.3690   55.7700 O.2     2  U2         -0.2650
     19   C5       -8.1280   17.2050   54.8570 C.ar    2  U2          0.0814
     20   C6       -8.0780   16.4900   53.7220 C.ar    2  U2          0.0870
     21    P.3     -4.6530   13.7280   48.9540 P.3     3  G3          0.2141
     22  OP1       -3.8980   13.5950   50.2290 O.3     3  G3         -0.4373
     23  OP2       -4.0990   14.5750   47.8570 O.2     3  G3         -0.5172
     24  O5'       -4.9590   12.2660   48.3800 O.3     3  G3         -0.3114
     25  C5'       -4.2950   11.1120   48.8950 C.3     3  G3          0.1812
     26  C4'       -5.1570    9.8850   48.7040 C.3     3  G3          0.1773
     27  O4'       -6.4430   10.1400   49.3250 O.3     3  G3         -0.3307
     28  C3'       -5.4930    9.5260   47.2600 C.3     3  G3          0.1860
     29  O3'       -4.5320    8.6240   46.7250 O.3     3  G3         -0.3112
     30  C2'       -6.8250    8.8020   47.3960 C.3     3  G3          0.2309
     31  O2'       -6.6700    7.4330   47.7140 O.3     3  G3         -0.2156
     32  C1'       -7.4800    9.5770   48.5400 C.3     3  G3          0.2408
     33   N9       -8.3380   10.6570   48.0640 N.ar    3  G3         -0.2693
     34   C8       -8.1010   12.0070   48.1410 C.ar    3  G3          0.1817
     35   N7       -9.0540   12.7250   47.6120 N.ar    3  G3         -0.2173
     36   C5       -9.9790   11.7940   47.1670 C.ar    3  G3          0.1748
     37   C6      -11.2260   11.9710   46.5130 C.ar    3  G3          0.3023
     38   O6      -11.7880   13.0140   46.2000 O.2     3  G3         -0.2633
     39   N.1     -11.8290   10.7610   46.2310 N.ar    3  G3         -0.1709
     40   C.2     -11.3060    9.5360   46.5370 C.ar    3  G3          0.2606
     41   N.2     -12.0320    8.4820   46.1710 N.pl3   3  G3         -0.0859
     42   N.3     -10.1560    9.3520   47.1580 N.ar    3  G3         -0.1918
     43   C4       -9.5490   10.5140   47.4380 C.ar    3  G3          0.1723
     44    P.3     -4.3640    8.4750   45.1280 P.3     4  C4          0.2141
     45  OP1       -3.2700    7.4970   44.9040 O.3     4  C4         -0.4373
     46  OP2       -4.2630    9.8360   44.5440 O.2     4  C4         -0.5172
     47  O5'       -5.7000    7.7660   44.6180 O.3     4  C4         -0.3114
     48  C5'       -5.7880    6.3450   44.5730 C.3     4  C4          0.1812
     49  C4'       -7.1580    5.9030   44.0920 C.3     4  C4          0.1773
     50  O4'       -8.2080    6.5170   44.8870 O.3     4  C4         -0.3307
     51  C3'       -7.5430    6.2510   42.6660 C.3     4  C4          0.1860
     52  O3'       -7.0430    5.2580   41.8130 O.3     4  C4         -0.3112
     53  C2'       -9.0540    6.1240   42.7130 C.3     4  C4          0.2309
     54  O2'       -9.5180    4.7920   42.6920 O.3     4  C4         -0.2156
     55  C1'       -9.3450    6.7490   44.0690 C.3     4  C4          0.2420
     56   N.1      -9.5420    8.1900   43.9160 N.ar    4  C4         -0.2535
     57   C.2     -10.6950    8.6200   43.2740 C.ar    4  C4          0.3532
     58   O.2     -11.5060    7.7670   42.8980 O.2     4  C4         -0.2443
     59   N.3     -10.8990    9.9400   43.0820 N.ar    4  C4         -0.1739
     60   C4       -9.9940   10.8180   43.5190 C.ar    4  C4          0.1759
     61   N.4     -10.2170   12.1190   43.3120 N.pl3   4  C4         -0.1070
     62   C5       -8.8100   10.4050   44.1930 C.ar    4  C4          0.0566
     63   C6       -8.6260    9.0930   44.3720 C.ar    4  C4          0.0850
     64    P.3     -6.0670    5.6700   40.6350 P.3     5  G5          0.2141
     65  OP1       -5.1720    4.5050   40.4510 O.2     5  G5         -0.5172
     66  OP2       -5.4970    6.9850   41.0140 O.3     5  G5         -0.4373
     67  O5'       -7.0280    5.8190   39.3690 O.3     5  G5         -0.3114
     68  C5'       -7.4210    4.6730   38.6160 C.3     5  G5          0.1812
     69  C4'       -8.8510    4.8090   38.1420 C.3     5  G5          0.1773
     70  O4'       -9.6610    5.3740   39.2100 O.3     5  G5         -0.3307
     71  C3'       -9.1380    5.7310   36.9710 C.3     5  G5          0.1860
     72  O3'       -8.8370    5.1240   35.7290 O.3     5  G5         -0.3112
     73  C2'      -10.6270    5.9730   37.1550 C.3     5  G5          0.2309
     74  O2'      -11.4670    4.8840   36.8350 O.3     5  G5         -0.2156
     75  C1'      -10.6600    6.2210   38.6570 C.3     5  G5          0.2408
     76   N9      -10.2920    7.6010   38.9450 N.ar    5  G5         -0.2693
     77   C8       -9.2930    8.0450   39.7770 C.ar    5  G5          0.1817
     78   N7       -9.1680    9.3460   39.7760 N.ar    5  G5         -0.2173
     79   C5      -10.1490    9.7830   38.8950 C.ar    5  G5          0.1748
     80   C6      -10.4810   11.0970   38.4680 C.ar    5  G5          0.3023
     81   O6       -9.9460   12.1720   38.7760 O.2     5  G5         -0.2633
     82   N.1     -11.5580   11.0830   37.5860 N.ar    5  G5         -0.1709
     83   C.2     -12.2250    9.9550   37.1740 C.ar    5  G5          0.2606
     84   N.2     -13.2600   10.1560   36.3670 N.pl3   5  G5         -0.0859
     85   N.3     -11.9060    8.7270   37.5400 N.ar    5  G5         -0.1918
     86   C4      -10.8670    8.7170   38.3960 C.ar    5  G5          0.1723
     87    P.3     -8.0580    5.9700   34.6160 P.3     6  U6          0.2141
     88  OP1       -7.3780    4.9930   33.7370 O.2     6  U6         -0.5172
     89  OP2       -7.2580    6.9840   35.3440 O.3     6  U6         -0.4373
     90  O5'       -9.2120    6.6900   33.7870 O.3     6  U6         -0.3114
     91  C5'      -10.0450    5.9280   32.9210 C.3     6  U6          0.1812
     92  C4'      -10.9930    6.8270   32.1750 C.3     6  U6          0.1773
     93  O4'      -11.9000    7.4590   33.1200 O.3     6  U6         -0.3307
     94  C3'      -10.3570    8.0220   31.4960 C.3     6  U6          0.1860
     95  O3'       -9.7120    7.7390   30.2710 O.3     6  U6         -0.3112
     96  C2'      -11.5630    8.9140   31.3030 C.3     6  U6          0.2309
     97  O2'      -12.3920    8.5600   30.2170 O.3     6  U6         -0.2156
     98  C1'      -12.2250    8.7720   32.6680 C.3     6  U6          0.2420
     99   N.1     -11.5800    9.7620   33.5460 N.ar    6  U6         -0.2534
    100   C.2     -12.1540   11.0360   33.6120 C.ar    6  U6          0.3546
    101   O.2     -13.2030   11.3240   33.0310 O.2     6  U6         -0.2443
    102   N.3     -11.4490   11.9530   34.3730 N.ar    6  U6         -0.1530
    103   C4      -10.2570   11.7290   35.0590 C.ar    6  U6          0.2846
    104   O4       -9.6840   12.6700   35.6080 O.2     6  U6         -0.2650
    105   C5       -9.7590   10.3850   34.9720 C.ar    6  U6          0.0814
    106   C6      -10.4220    9.4690   34.2450 C.ar    6  U6          0.0870
    107    P.3     -8.6420    8.7850   29.7030 P.3     7  C7          0.2141
    108  OP1       -8.3850    8.4720   28.2800 O.2     7  C7         -0.5172
    109  OP2       -7.5140    8.7800   30.6740 O.3     7  C7         -0.4373
    110  O5'       -9.4150   10.1780   29.7220 O.3     7  C7         -0.3114
    111  C5'      -10.6250   10.3340   28.9970 C.3     7  C7          0.1813
    112  C4'      -11.0750   11.7610   29.0420 C.3     7  C7          0.1801
    113  O4'      -11.2130   12.2030   30.4160 O.3     7  C7         -0.3306
    114  C3'      -10.0700   12.7390   28.4880 C.3     7  C7          0.2161
    115  O3'      -10.0650   12.7100   27.0770 O.3     7  C7         -0.2175
    116  C2'      -10.5850   14.0400   29.0710 C.3     7  C7          0.2338
    117  O2'      -11.7510   14.5160   28.4350 O.3     7  C7         -0.2155
    118  C1'      -10.8970   13.5880   30.4980 C.3     7  C7          0.2421
    119   N.1      -9.7110   13.7370   31.3510 N.ar    7  C7         -0.2535
    120   C.2      -9.1830   15.0110   31.5170 C.ar    7  C7          0.3532
    121   O.2      -9.7650   15.9660   30.9970 O.2     7  C7         -0.2443
    122   N.3      -8.0590   15.1710   32.2330 N.ar    7  C7         -0.1739
    123   C4       -7.4700   14.1120   32.7830 C.ar    7  C7          0.1759
    124   N.4      -6.3390   14.3080   33.4500 N.pl3   7  C7         -0.1070
    125   C5       -8.0110   12.7990   32.6640 C.ar    7  C7          0.0566
    126   C6       -9.1240   12.6580   31.9450 C.ar    7  C7          0.0850
    127    P.3     -5.7600   17.1900   24.3650 Pac     9  C9          0.3942
    128  OP1       -5.7840   17.7710   22.9940 O.3     9  C9         -0.1425
    129  OP2       -5.3230   15.7800   24.5560 O.3     9  C9         -0.1425
    130  O5'       -4.8550   18.1410   25.2670 O.3     9  C9         -0.2926
    131  C5'       -5.0880   19.5430   25.2770 C.3     9  C9          0.1829
    132  C4'       -4.1170   20.2380   26.1990 C.3     9  C9          0.1774
    133  O4'       -4.3500   19.8320   27.5630 O.3     9  C9         -0.3307
    134  C3'       -2.6460   19.9280   26.0100 C.3     9  C9          0.1860
    135  O3'       -2.1250   20.6840   24.9560 O.3     9  C9         -0.3112
    136  C2'       -2.0760   20.3960   27.3280 C.3     9  C9          0.2309
    137  O2'       -2.0920   21.8000   27.4200 O.3     9  C9         -0.2156
    138  C1'       -3.1240   19.8260   28.2700 C.3     9  C9          0.2420
    139   N.1      -2.8370   18.4500   28.6560 N.ar    9  C9         -0.2535
    140   C.2      -2.0970   18.2460   29.7970 C.ar    9  C9          0.3532
    141   O.2      -1.7110   19.2330   30.4260 O.2     9  C9         -0.2443
    142   N.3      -1.8200   16.9950   30.1980 N.ar    9  C9         -0.1739
    143   C4       -2.2680   15.9610   29.4940 C.ar    9  C9          0.1759
    144   N.4      -1.9740   14.7420   29.9430 N.pl3   9  C9         -0.1070
    145   C5       -3.0360   16.1360   28.3040 C.ar    9  C9          0.0566
    146   C6       -3.2910   17.3900   27.9220 C.ar    9  C9          0.0850
    147    P.3     -1.2230   19.9650   23.8560 P.3    10  G10         0.2141
    148  OP1       -1.2730   20.8760   22.6930 O.2    10  G10        -0.5172
    149  OP2       -1.5790   18.5350   23.6920 O.3    10  G10        -0.4373
    150  O5'        0.2220   20.0380   24.4860 O.3    10  G10        -0.3114
    151  C5'        0.7740   21.2910   24.7890 C.3    10  G10         0.1812
    152  C4'        1.8460   21.1220   25.8020 C.3    10  G10         0.1773
    153  O4'        1.2690   20.6110   27.0180 O.3    10  G10        -0.3307
    154  C3'        2.8830   20.0850   25.4540 C.3    10  G10         0.1860
    155  O3'        3.8050   20.6890   24.5760 O.3    10  G10        -0.3112
    156  C2'        3.4910   19.8110   26.8210 C.3    10  G10         0.2309
    157  O2'        4.4370   20.7810   27.2360 O.3    10  G10        -0.2156
    158  C1'        2.2500   19.8660   27.7190 C.3    10  G10         0.2408
    159   N9        1.6930   18.5500   28.0140 N.ar   10  G10        -0.2693
    160   C8        0.5340   18.0120   27.5040 C.ar   10  G10         0.1817
    161   N7        0.3140   16.7910   27.9100 N.ar   10  G10        -0.2173
    162   C5        1.3840   16.5080   28.7430 C.ar   10  G10         0.1748
    163   C6        1.6920   15.3400   29.4370 C.ar   10  G10         0.3023
    164   O6        1.0870   14.2670   29.4230 O.2    10  G10        -0.2633
    165   N.1       2.8540   15.4820   30.1850 N.ar   10  G10        -0.1709
    166   C.2       3.6360   16.6100   30.2230 C.ar   10  G10         0.2606
    167   N.2       4.7280   16.5580   31.0000 N.pl3  10  G10        -0.0859
    168   N.3       3.3680   17.7090   29.5480 N.ar   10  G10        -0.1918
    169   C4        2.2330   17.5900   28.8360 C.ar   10  G10         0.1723
    170    P.3      4.6750   19.7780   23.5930 P.3    11  U11         0.2141
    171  OP1        5.4830   20.7530   22.8220 O.2    11  U11        -0.5172
    172  OP2        3.7840   18.8260   22.8710 O.3    11  U11        -0.4373
    173  O5'        5.6130   18.9600   24.5960 O.3    11  U11        -0.3114
    174  C5'        6.5600   19.6320   25.4290 C.3    11  U11         0.1812
    175  C4'        7.3140   18.6430   26.2890 C.3    11  U11         0.1773
    176  O4'        6.4690   18.1100   27.3440 O.3    11  U11        -0.3307
    177  C3'        7.8190   17.3910   25.6050 C.3    11  U11         0.1860
    178  O3'        8.9730   17.6550   24.8190 O.3    11  U11        -0.3112
    179  C2'        8.1300   16.5170   26.8100 C.3    11  U11         0.2309
    180  O2'        9.2850   16.9720   27.4790 O.3    11  U11        -0.2156
    181  C1'        6.9270   16.8130   27.7060 C.3    11  U11         0.2420
    182   N.1       5.8130   15.8590   27.5540 N.ar   11  U11        -0.2534
    183   C.2       5.8250   14.7040   28.3350 C.ar   11  U11         0.3546
    184   O.2       6.7080   14.4550   29.1490 O.2    11  U11        -0.2443
    185   N.3       4.7510   13.8610   28.1300 N.ar   11  U11        -0.1530
    186   C4        3.6830   14.0640   27.2560 C.ar   11  U11         0.2846
    187   O4        2.7340   13.2740   27.2430 O.2    11  U11        -0.2650
    188   C5        3.7560   15.2710   26.5030 C.ar   11  U11         0.0814
    189   C6        4.7880   16.1040   26.6690 C.ar   11  U11         0.0870
    190    P.3      9.3500   16.6770   23.5940 P.3    12  C12         0.2141
    191  OP1       10.4810   17.3580   22.9200 O.3    12  C12        -0.4373
    192  OP2        8.1580   16.2880   22.8050 O.2    12  C12        -0.5172
    193  O5'        9.8710   15.3640   24.3240 O.3    12  C12        -0.3114
    194  C5'       10.9880   15.4400   25.1980 C.3    12  C12         0.1812
    195  C4'       11.1530   14.1560   25.9660 C.3    12  C12         0.1773
    196  O4'       10.0250   13.9500   26.8620 O.3    12  C12        -0.3307
    197  C3'       11.1890   12.8800   25.1470 C.3    12  C12         0.1860
    198  O3'       12.4440   12.6510   24.5300 O.3    12  C12        -0.3112
    199  C2'       10.8820   11.8470   26.2170 C.3    12  C12         0.2309
    200  O2'       11.9650   11.6210   27.0980 O.3    12  C12        -0.2156
    201  C1'        9.7460   12.5550   26.9550 C.3    12  C12         0.2420
    202   N.1       8.4180   12.2990   26.3560 N.ar   12  C12        -0.2535
    203   C.2       7.9050   10.9790   26.3580 C.ar   12  C12         0.3532
    204   O.2       8.5990   10.0600   26.8260 O.2    12  C12        -0.2443
    205   N.3       6.6800   10.7480   25.8410 N.ar   12  C12        -0.1739
    206   C4        5.9780   11.7580   25.3190 C.ar   12  C12         0.1759
    207   N.4       4.7850   11.4770   24.8080 N.pl3  12  C12        -0.1070
    208   C5        6.4730   13.0990   25.2930 C.ar   12  C12         0.0566
    209   C6        7.6850   13.3210   25.8150 C.ar   12  C12         0.0850
    210    P.3     12.5110   11.7900   23.1740 P.3    13  G13         0.2141
    211  OP1       13.9320   11.8250   22.7730 O.3    13  G13        -0.4373
    212  OP2       11.4640   12.2580   22.2260 O.2    13  G13        -0.5172
    213  O5'       12.1620   10.2960   23.6110 O.3    13  G13        -0.3114
    214  C5'       13.1590    9.4620   24.1860 C.3    13  G13         0.1812
    215  C4'       12.6060    8.0850   24.4450 C.3    13  G13         0.1773
    216  O4'       11.5380    8.1430   25.4310 O.3    13  G13        -0.3307
    217  C3'       11.9380    7.3980   23.2750 C.3    13  G13         0.1860
    218  O3'       12.8720    6.8150   22.3930 O.3    13  G13        -0.3112
    219  C2'       11.1580    6.3220   24.0000 C.3    13  G13         0.2309
    220  O2'       12.0150    5.3250   24.4940 O.3    13  G13        -0.2156
    221  C1'       10.5780    7.1320   25.1560 C.3    13  G13         0.2408
    222   N9        9.3560    7.7810   24.7060 N.ar   13  G13        -0.2693
    223   C8        9.2690    8.9860   24.0610 C.ar   13  G13         0.1817
    224   N7        8.0610    9.2650   23.6530 N.ar   13  G13        -0.2173
    225   C5        7.2970    8.1910   24.0850 C.ar   13  G13         0.1748
    226   C6        5.9190    7.9210   23.9090 C.ar   13  G13         0.3023
    227   O6        5.0730    8.5790   23.3030 O.2    13  G13        -0.2633
    228   N.1       5.5530    6.7280   24.5130 N.ar   13  G13        -0.1709
    229   C.2       6.4010    5.8920   25.1870 C.ar   13  G13         0.2606
    230   N.2       5.8360    4.7850   25.6970 N.pl3  13  G13        -0.0859
    231   N.3       7.6970    6.1230   25.3480 N.ar   13  G13        -0.1918
    232   C4        8.0750    7.2820   24.7710 C.ar   13  G13         0.1723
    233    P.3     12.3530    6.1760   21.0160 P.3    14  A14         0.2141
    234  OP1       13.5240    5.6710   20.2640 O.2    14  A14        -0.5172
    235  OP2       11.3990    7.1020   20.3550 O.3    14  A14        -0.4373
    236  O5'       11.5400    4.9050   21.4870 O.3    14  A14        -0.3114
    237  C5'       12.2240    3.7310   21.8500 C.3    14  A14         0.1812
    238  C4'       11.2800    2.5720   21.7870 C.3    14  A14         0.1773
    239  O4'       10.2400    2.7800   22.7780 O.3    14  A14        -0.3307
    240  C3'       10.5540    2.4380   20.4590 C.3    14  A14         0.1860
    241  O3'       11.2800    1.5680   19.6030 O.3    14  A14        -0.3112
    242  C2'        9.2100    1.8410   20.8620 C.3    14  A14         0.2309
    243  O2'        9.2230    0.4330   20.9760 O.3    14  A14        -0.2156
    244  C1'        8.9690    2.5180   22.2110 C.3    14  A14         0.2408
    245   N9        8.2310    3.7840   22.1230 N.ar   14  A14        -0.2693
    246   C8        8.7060    5.0670   22.2930 C.ar   14  A14         0.1816
    247   N7        7.7870    5.9970   22.1460 N.ar   14  A14        -0.2193
    248   C5        6.6290    5.2820   21.8600 C.ar   14  A14         0.1518
    249   C6        5.3050    5.6820   21.5890 C.ar   14  A14         0.1919
    250   N6        4.9010    6.9490   21.5380 N.pl3  14  A14        -0.1054
    251   N.1       4.4000    4.7110   21.3580 N.ar   14  A14        -0.2040
    252   C.2       4.7910    3.4360   21.3820 C.ar   14  A14         0.2016
    253   N.3       6.0030    2.9340   21.6110 N.ar   14  A14        -0.2048
    254   C4        6.8880    3.9190   21.8480 C.ar   14  A14         0.1692
    255    P.3     10.8760    1.4560   18.0540 P.3    15  C15         0.2141
    256  OP1       11.6260    0.3190   17.4740 O.3    15  C15        -0.4373
    257  OP2       10.9720    2.7990   17.4250 O.2    15  C15        -0.5172
    258  O5'        9.3490    1.0320   18.1010 O.3    15  C15        -0.3114
    259  C5'        8.9720   -0.3240   18.2100 C.3    15  C15         0.1812
    260  C4'        7.5380   -0.4520   17.8160 C.3    15  C15         0.1773
    261  O4'        6.7730    0.4020   18.7020 O.3    15  C15        -0.3307
    262  C3'        7.2660    0.1420   16.4480 C.3    15  C15         0.1860
    263  O3'        7.5520   -0.7960   15.4160 O.3    15  C15        -0.3112
    264  C2'        5.7880    0.5000   16.5400 C.3    15  C15         0.2309
    265  O2'        4.9440   -0.6030   16.2940 O.3    15  C15        -0.2156
    266  C1'        5.6640    0.9330   18.0030 C.3    15  C15         0.2420
    267   N.1       5.6220    2.3940   18.2030 N.ar   15  C15        -0.2535
    268   C.2       4.3960    3.0460   18.0640 C.ar   15  C15         0.3532
    269   O.2       3.3890    2.3690   17.8270 O.2    15  C15        -0.2443
    270   N.3       4.3350    4.3930   18.2010 N.ar   15  C15        -0.1739
    271   C4        5.4400    5.0820   18.4810 C.ar   15  C15         0.1759
    272   N.4       5.3360    6.4090   18.6100 N.pl3  15  C15        -0.1070
    273   C5        6.7030    4.4430   18.6470 C.ar   15  C15         0.0566
    274   C6        6.7490    3.1080   18.5030 C.ar   15  C15         0.0850
    275    P.3      7.8760   -0.2770   13.9250 P.3    16  G16         0.2141
    276  OP1        8.3610   -1.4560   13.1760 O.2    16  G16        -0.5172
    277  OP2        8.7240    0.9410   13.9930 O.3    16  G16        -0.4373
    278  O5'        6.4500    0.1170   13.3290 O.3    16  G16        -0.3114
    279  C5'        5.3780   -0.8290   13.3040 C.3    16  G16         0.1812
    280  C4'        4.0760   -0.1410   12.9500 C.3    16  G16         0.1773
    281  O4'        3.7710    0.8330   13.9730 O.3    16  G16        -0.3307
    282  C3'        4.0690    0.5900   11.6120 C.3    16  G16         0.1860
    283  O3'        3.3640   -0.1890   10.6430 O.3    16  G16        -0.3112
    284  C2'        3.3800    1.9420   11.8770 C.3    16  G16         0.2309
    285  O2'        2.1360    2.1080   11.2230 O.3    16  G16        -0.2156
    286  C1'        3.1960    1.9820   13.3960 C.3    16  G16         0.2408
    287   N9        3.8090    3.1510   14.0220 N.ar   16  G16        -0.2693
    288   C8        4.9630    3.1790   14.7630 C.ar   16  G16         0.1817
    289   N7        5.2700    4.3720   15.1890 N.ar   16  G16        -0.2173
    290   C5        4.2570    5.1760   14.6990 C.ar   16  G16         0.1748
    291   C6        4.0710    6.5490   14.8260 C.ar   16  G16         0.3023
    292   O6        4.7790    7.3520   15.4110 O.2    16  G16        -0.2633
    293   N.1       2.9220    6.9750   14.1780 N.ar   16  G16        -0.1709
    294   C.2       2.0690    6.1640   13.4810 C.ar   16  G16         0.2606
    295   N.2       1.0210    6.7570   12.9170 N.pl3  16  G16        -0.0859
    296   N.3       2.2350    4.8620   13.3510 N.ar   16  G16        -0.1918
    297   C4        3.3460    4.4390   13.9800 C.ar   16  G16         0.1723
    298    P.3      4.1160   -0.6830    9.3030 P.3    17  A17         0.2141
    299  OP1        3.0740   -0.7080    8.2400 O.2    17  A17        -0.5172
    300  OP2        4.8920   -1.9230    9.5950 O.3    17  A17        -0.4373
    301  O5'        5.1380    0.5000    8.9640 O.3    17  A17        -0.3114
    302  C5'        6.0040    0.4150    7.8310 C.3    17  A17         0.1812
    303  C4'        5.9730    1.7030    7.0340 C.3    17  A17         0.1773
    304  O4'        6.3850    1.3740    5.6800 O.3    17  A17        -0.3307
    305  C3'        4.5820    2.2690    6.8010 C.3    17  A17         0.1860
    306  O3'        4.6430    3.5770    6.2410 O.3    17  A17        -0.3112
    307  C2'        4.0130    1.2970    5.7830 C.3    17  A17         0.2309
    308  O2'        2.9570    1.8670    5.0400 O.3    17  A17        -0.2156
    309  C1'        5.2410    1.0280    4.9110 C.3    17  A17         0.2408
    310   N9        5.3410   -0.3810    4.5230 N.ar   17  A17        -0.2693
    311   C8        5.6770   -1.4690    5.2970 C.ar   17  A17         0.1816
    312   N7        5.6420   -2.6110    4.6530 N.ar   17  A17        -0.2193
    313   C5        5.2660   -2.2530    3.3660 C.ar   17  A17         0.1518
    314   C6        5.0510   -3.0050    2.2010 C.ar   17  A17         0.1919
    315   N6        5.1940   -4.3290    2.1380 N.pl3  17  A17        -0.1054
    316   N.1       4.6810   -2.3370    1.0880 N.ar   17  A17        -0.2040
    317   C.2       4.5450   -1.0090    1.1360 C.ar   17  A17         0.2016
    318   N.3       4.7220   -0.1880    2.1690 N.ar   17  A17        -0.2048
    319   C4        5.0830   -0.8820    3.2670 C.ar   17  A17         0.1692
    320    P.3      3.3040    4.4620    6.1400 P.3    18  A18         0.2141
    321  OP1        3.6760    5.8730    6.4480 O.2    18  A18        -0.5172
    322  OP2        2.2720    3.7840    6.9690 O.3    18  A18        -0.4373
    323  O5'        2.8680    4.3380    4.6040 O.3    18  A18        -0.3114
    324  C5'        3.8240    4.4570    3.5410 C.3    18  A18         0.1812
    325  C4'        3.1830    5.0810    2.3160 C.3    18  A18         0.1773
    326  O4'        2.1940    4.1890    1.7380 O.3    18  A18        -0.3307
    327  C3'        2.4470    6.3820    2.5650 C.3    18  A18         0.1860
    328  O3'        2.5090    7.2220    1.4370 O.3    18  A18        -0.3112
    329  C2'        1.0140    5.9400    2.8270 C.3    18  A18         0.2309
    330  O2'        0.0640    6.9070    2.4440 O.3    18  A18        -0.2156
    331  C1'        0.8880    4.7120    1.9300 C.3    18  A18         0.2408
    332   N9        0.0780    3.6640    2.5510 N.ar   18  A18        -0.2693
    333   C8       -0.2700    3.5490    3.8780 C.ar   18  A18         0.1816
    334   N7       -0.9410    2.4590    4.1540 N.ar   18  A18        -0.2193
    335   C5       -1.0560    1.8200    2.9260 C.ar   18  A18         0.1518
    336   C6       -1.6360    0.6020    2.5510 C.ar   18  A18         0.1919
    337   N6       -2.2050   -0.2370    3.4110 N.pl3  18  A18        -0.1054
    338   N.1      -1.5960    0.2670    1.2450 N.ar   18  A18        -0.2040
    339   C.2      -0.9960    1.0870    0.3830 C.ar   18  A18         0.2016
    340   N.3      -0.3930    2.2520    0.6170 N.ar   18  A18        -0.2048
    341   C4       -0.4580    2.5650    1.9240 C.ar   18  A18         0.1692
    342    P.3      2.5830    8.8000    1.6590 P.3    19  G19         0.2141
    343  OP1        1.9600    9.4750    0.4980 O.2    19  G19        -0.5172
    344  OP2        3.9730    9.1400    2.0440 O.3    19  G19        -0.4373
    345  O5'        1.6370    9.0220    2.9140 O.3    19  G19        -0.3114
    346  C5'        0.3260    9.5110    2.7310 C.3    19  G19         0.1812
    347  C4'        0.2000   10.8440    3.3820 C.3    19  G19         0.1773
    348  O4'        0.2150   10.6780    4.8190 O.3    19  G19        -0.3307
    349  C3'        1.3610   11.7750    3.1150 C.3    19  G19         0.1860
    350  O3'        1.2030   12.4120    1.8500 O.3    19  G19        -0.3112
    351  C2'        1.1980   12.7510    4.2620 C.3    19  G19         0.2309
    352  O2'        0.1620   13.6640    3.9700 O.3    19  G19        -0.2156
    353  C1'        0.8300   11.8010    5.4120 C.3    19  G19         0.2408
    354   N9        2.0080   11.3190    6.1220 N.ar   19  G19        -0.2693
    355   C8        2.5290   10.0480    6.1070 C.ar   19  G19         0.1817
    356   N7        3.6430    9.9460    6.7800 N.ar   19  G19        -0.2173
    357   C5        3.8620   11.2260    7.2730 C.ar   19  G19         0.1748
    358   C6        4.9310   11.7540    8.0620 C.ar   19  G19         0.3023
    359   O6        5.9400   11.1820    8.4860 O.2    19  G19        -0.2633
    360   N.1       4.7330   13.0990    8.3510 N.ar   19  G19        -0.1709
    361   C.2       3.6500   13.8460    7.9430 C.ar   19  G19         0.2606
    362   N.2       3.6110   15.1310    8.3450 N.pl3  19  G19        -0.0859
    363   N.3       2.6680   13.3730    7.1990 N.ar   19  G19        -0.1918
    364   C4        2.8390   12.0710    6.9020 C.ar   19  G19         0.1723
    365    P.3      2.5040   12.8880    1.0200 P.3    20  U20         0.2141
    366  OP1        2.0260   13.4710   -0.2600 O.2    20  U20        -0.5172
    367  OP2        3.5070   11.7820    0.9980 O.3    20  U20        -0.4373
    368  O5'        3.0850   14.1010    1.8790 O.3    20  U20        -0.3114
    369  C5'        2.3420   15.3100    2.0360 C.3    20  U20         0.1812
    370  C4'        3.0170   16.2070    3.0390 C.3    20  U20         0.1773
    371  O4'        3.0880   15.5210    4.3120 O.3    20  U20        -0.3307
    372  C3'        4.4670   16.5360    2.7490 C.3    20  U20         0.1860
    373  O3'        4.5490   17.5930    1.8120 O.3    20  U20        -0.3112
    374  C2'        4.9640   16.9440    4.1240 C.3    20  U20         0.2309
    375  O2'        4.5350   18.2280    4.5210 O.3    20  U20        -0.2156
    376  C1'        4.2800   15.8920    4.9910 C.3    20  U20         0.2420
    377   N.1       5.1100   14.6980    5.1930 N.ar   20  U20        -0.2534
    378   C.2       6.0470   14.7280    6.2160 C.ar   20  U20         0.3546
    379   O.2       6.1910   15.6840    6.9550 O.2    20  U20        -0.2443
    380   N.3       6.8100   13.5980    6.3430 N.ar   20  U20        -0.1530
    381   C4        6.7480   12.4650    5.5620 C.ar   20  U20         0.2846
    382   O4        7.5730   11.5580    5.7340 O.2    20  U20        -0.2650
    383   C5        5.7480   12.5050    4.5380 C.ar   20  U20         0.0814
    384   C6        4.9810   13.5910    4.3960 C.ar   20  U20         0.0870
    385    P.3      5.4540   17.4150    0.5010 P.3    21  C21         0.2141
    386  OP1        4.9040   18.3030   -0.5650 O.2    21  C21        -0.5172
    387  OP2        5.6500   15.9660    0.2350 O.3    21  C21        -0.4373
    388  O5'        6.8500   18.0180    0.9370 O.3    21  C21        -0.3114
    389  C5'        6.9940   19.4080    1.0890 C.3    21  C21         0.1812
    390  C4'        8.0200   19.6820    2.1300 C.3    21  C21         0.1773
    391  O4'        7.6890   18.8750    3.2710 O.3    21  C21        -0.3307
    392  C3'        9.4260   19.2450    1.8030 C.3    21  C21         0.1860
    393  O3'       10.0540   20.3080    1.1460 O.3    21  C21        -0.3112
    394  C2'       10.0220   19.1310    3.1870 C.3    21  C21         0.2309
    395  O2'       10.2890   20.3850    3.7760 O.3    21  C21        -0.2156
    396  C1'        8.8680   18.4790    3.9220 C.3    21  C21         0.2420
    397   N.1       8.9390   17.0320    3.8640 N.ar   21  C21        -0.2535
    398   C.2       9.7020   16.3850    4.8200 C.ar   21  C21         0.3532
    399   O.2      10.3290   17.0800    5.6280 O.2    21  C21        -0.2443
    400   N.3       9.7490   15.0250    4.8360 N.ar   21  C21        -0.1739
    401   C4        9.0800   14.3300    3.9080 C.ar   21  C21         0.1759
    402   N.4       9.1430   12.9910    3.9460 N.pl3  21  C21        -0.1070
    403   C5        8.3110   14.9780    2.8910 C.ar   21  C21         0.0566
    404   C6        8.2690   16.3210    2.9080 C.ar   21  C21         0.0850
    405    P.3     11.3520   20.0340    0.2820 P.3    22  G22         0.2141
    406  OP1       11.5630   21.3510   -0.3680 O.3    22  G22        -0.4373
    407  OP2       11.1260   18.8220   -0.5400 O.2    22  G22        -0.5172
    408  O5'       12.5080   19.7790    1.3510 O.3    22  G22        -0.3114
    409  C5'       13.1230   20.8800    1.9950 C.3    22  G22         0.1812
    410  C4'       14.3290   20.4350    2.7580 C.3    22  G22         0.1773
    411  O4'       13.9300   19.4960    3.7800 O.3    22  G22        -0.3307
    412  C3'       15.3510   19.6620    1.9710 C.3    22  G22         0.1860
    413  O3'       16.2120   20.5340    1.2800 O.3    22  G22        -0.3112
    414  C2'       16.1140   18.9830    3.0840 C.3    22  G22         0.2309
    415  O2'       16.9360   19.9170    3.7570 O.3    22  G22        -0.2156
    416  C1'       14.9620   18.5450    3.9840 C.3    22  G22         0.2408
    417   N9       14.3950   17.2450    3.6560 N.ar   22  G22        -0.2693
    418   C8       13.2130   17.0500    2.9940 C.ar   22  G22         0.1817
    419   N7       12.8810   15.7940    2.8990 N.ar   22  G22        -0.2173
    420   C5       13.9130   15.1150    3.5180 C.ar   22  G22         0.1748
    421   C6       14.0700   13.7540    3.7350 C.ar   22  G22         0.3023
    422   O6       13.2950   12.8530    3.4440 O.2    22  G22        -0.2633
    423   N.1      15.2640   13.4660    4.3820 N.ar   22  G22        -0.1709
    424   C.2      16.1760   14.3960    4.7920 C.ar   22  G22         0.2606
    425   N.2      17.2600   13.9100    5.4040 N.pl3  22  G22        -0.0859
    426   N.3      16.0300   15.7020    4.6120 N.ar   22  G22        -0.1918
    427   C4       14.8750   15.9880    3.9710 C.ar   22  G22         0.1723
    428    P.3     16.7870   20.0880   -0.1480 P.3    23  C23         0.2141
    429  OP1       17.2310   21.3000   -0.8870 O.2    23  C23        -0.5172
    430  OP2       15.7690   19.1980   -0.7600 O.3    23  C23        -0.4373
    431  O5'       18.0360   19.1670    0.2010 O.3    23  C23        -0.3114
    432  C5'       18.9870   19.5590    1.1690 C.3    23  C23         0.1813
    433  C4'       19.7700   18.3560    1.6240 C.3    23  C23         0.1801
    434  O4'       18.8880   17.4300    2.3140 O.3    23  C23        -0.3306
    435  C3'       20.3510   17.4870    0.5260 C.3    23  C23         0.2161
    436  O3'       21.4360   18.0440   -0.2240 O.3    23  C23        -0.2175
    437  C2'       20.6250   16.2010    1.2910 C.3    23  C23         0.2338
    438  O2'       21.7380   16.3450    2.1500 O.3    23  C23        -0.2155
    439  C1'       19.3570   16.0990    2.1430 C.3    23  C23         0.2421
    440   N.1      18.2690   15.2960    1.5400 N.ar   23  C23        -0.2535
    441   C.2      18.1360   13.9450    1.9150 C.ar   23  C23         0.3532
    442   O.2      18.9250   13.4710    2.7430 O.2    23  C23        -0.2443
    443   N.3      17.1480   13.1950    1.3620 N.ar   23  C23        -0.1739
    444   C4       16.3170   13.7460    0.4720 C.ar   23  C23         0.1759
    445   N.4      15.3790   12.9730   -0.0600 N.pl3  23  C23        -0.1070
    446   C5       16.4190   15.1170    0.0810 C.ar   23  C23         0.0566
    447   C6       17.4040   15.8490    0.6330 C.ar   23  C23         0.0850
    448  O5'       12.7530    5.1600   -0.1470 O.3    25  U25        -0.2176
    449  C5'       11.9850    3.9760   -0.4240 C.3    25  U25         0.2141
    450  C4'       12.8660    2.7500   -0.3770 C.3    25  U25         0.1802
    451  O4'       13.7860    2.7430   -1.5060 O.3    25  U25        -0.3306
    452  C3'       13.7950    2.6090    0.8160 C.3    25  U25         0.1861
    453  O3'       13.1370    2.1640    2.0090 O.3    25  U25        -0.3112
    454  C2'       14.7530    1.5460    0.2990 C.3    25  U25         0.2309
    455  O2'       14.1680    0.2690    0.4440 O.3    25  U25        -0.2156
    456  C1'       14.9290    1.9630   -1.1750 C.3    25  U25         0.2420
    457   N.1      16.1460    2.7690   -1.4140 N.ar   25  U25        -0.2534
    458   C.2      17.3610    2.1030   -1.6320 C.ar   25  U25         0.3546
    459   O.2      17.4530    0.8950   -1.7690 O.2    25  U25        -0.2443
    460   N.3      18.4660    2.9180   -1.7000 N.ar   25  U25        -0.1530
    461   C4       18.4960    4.2940   -1.6110 C.ar   25  U25         0.2846
    462   O4       19.5850    4.8670   -1.5290 O.2    25  U25        -0.2650
    463   C5       17.2080    4.9100   -1.4740 C.ar   25  U25         0.0814
    464   C6       16.1060    4.1470   -1.3810 C.ar   25  U25         0.0870
    465    P.3     13.8030    2.4740    3.4550 P.3    26  G26         0.2141
    466  OP1       14.0240    1.1860    4.1560 O.3    26  G26        -0.4373
    467  OP2       13.0450    3.5480    4.1470 O.2    26  G26        -0.5172
    468  O5'       15.2280    3.0810    3.0790 O.3    26  G26        -0.3114
    469  C5'       16.3360    2.2430    2.7600 C.3    26  G26         0.1812
    470  C4'       17.6110    3.0020    2.9880 C.3    26  G26         0.1773
    471  O4'       17.8950    3.9090    1.8870 O.3    26  G26        -0.3307
    472  C3'       17.4560    3.9050    4.1890 C.3    26  G26         0.1860
    473  O3'       17.6450    3.1830    5.3860 O.3    26  G26        -0.3112
    474  C2'       18.4480    5.0240    3.9200 C.3    26  G26         0.2309
    475  O2'       19.7540    4.6930    4.3470 O.3    26  G26        -0.2156
    476  C1'       18.3320    5.1640    2.3970 C.3    26  G26         0.2408
    477   N9       17.3890    6.1740    1.9170 N.ar   26  G26        -0.2693
    478   C8       16.2250    5.9180    1.2370 C.ar   26  G26         0.1817
    479   N7       15.6100    6.9950    0.8440 N.ar   26  G26        -0.2173
    480   C5       16.4010    8.0320    1.3070 C.ar   26  G26         0.1748
    481   C6       16.2400    9.4060    1.1530 C.ar   26  G26         0.3023
    482   O6       15.3470    9.9940    0.5460 O.2    26  G26        -0.2633
    483   N.1      17.2610   10.1230    1.7750 N.ar   26  G26        -0.1709
    484   C.2      18.3080    9.5650    2.4620 C.ar   26  G26         0.2606
    485   N.2      19.1890   10.4300    2.9870 N.pl3  26  G26        -0.0859
    486   N.3      18.4780    8.2550    2.6100 N.ar   26  G26        -0.1918
    487   C4       17.4910    7.5510    2.0020 C.ar   26  G26         0.1723
    488    P.3     16.6390    3.4320    6.6010 P.3    27  C27         0.2141
    489  OP1       16.7390    2.2690    7.5230 O.3    27  C27        -0.4373
    490  OP2       15.3140    3.7690    5.9920 O.2    27  C27        -0.5172
    491  O5'       17.2890    4.7180    7.2970 O.3    27  C27        -0.3114
    492  C5'       18.7150    4.8610    7.3480 C.3    27  C27         0.1812
    493  C4'       19.1220    6.3280    7.3920 C.3    27  C27         0.1773
    494  O4'       18.9780    7.0250    6.1200 O.3    27  C27        -0.3307
    495  C3'       18.3570    7.2130    8.3430 C.3    27  C27         0.1860
    496  O3'       18.7590    6.9790    9.6630 O.3    27  C27        -0.3112
    497  C2'       18.7610    8.6080    7.8810 C.3    27  C27         0.2309
    498  O2'       20.0320    8.9960    8.3620 O.3    27  C27        -0.2156
    499  C1'       18.7700    8.4210    6.3610 C.3    27  C27         0.2420
    500   N.1      17.5130    8.8280    5.6970 N.ar   27  C27        -0.2535
    501   C.2      17.2330   10.1920    5.5180 C.ar   27  C27         0.3532
    502   O.2      18.0600   11.0350    5.8930 O.2    27  C27        -0.2443
    503   N.3      16.0660   10.5540    4.9400 N.ar   27  C27        -0.1739
    504   C4       15.2000    9.6180    4.5440 C.ar   27  C27         0.1759
    505   N.4      14.0490   10.0090    3.9880 N.pl3  27  C27        -0.1070
    506   C5       15.4680    8.2340    4.6990 C.ar   27  C27         0.0566
    507   C6       16.6230    7.8860    5.2700 C.ar   27  C27         0.0850
    508    P.3     17.8880    7.5930   10.8420 P.3    28  G28         0.2141
    509  OP1       18.7910    7.7870   12.0000 O.3    28  G28        -0.4373
    510  OP2       16.6490    6.7720   10.9780 O.2    28  G28        -0.5172
    511  O5'       17.5240    9.0350   10.2810 O.3    28  G28        -0.3114
    512  C5'       16.5620    9.8630   10.9200 C.3    28  G28         0.1812
    513  C4'       16.8020   11.2910   10.5200 C.3    28  G28         0.1773
    514  O4'       16.9710   11.3210    9.0780 O.3    28  G28        -0.3307
    515  C3'       15.6940   12.2910   10.7900 C.3    28  G28         0.1860
    516  O3'       15.7910   12.8450   12.0890 O.3    28  G28        -0.3112
    517  C2'       15.9870   13.3390    9.7320 C.3    28  G28         0.2309
    518  O2'       17.1070   14.1350   10.0810 O.3    28  G28        -0.2156
    519  C1'       16.2860   12.4370    8.5340 C.3    28  G28         0.2408
    520   N9       15.0770   11.9500    7.8720 N.ar   28  G28        -0.2693
    521   C8       14.6810   10.6410    7.7090 C.ar   28  G28         0.1817
    522   N7       13.5220   10.5260    7.1220 N.ar   28  G28        -0.2173
    523   C5       13.1360   11.8350    6.8730 C.ar   28  G28         0.1748
    524   C6       11.9620   12.3410    6.2760 C.ar   28  G28         0.3023
    525   O6       11.0020   11.7150    5.8210 O.2    28  G28        -0.2633
    526   N.1      11.9720   13.7220    6.2210 N.ar   28  G28        -0.1709
    527   C.2      12.9860   14.5120    6.6720 C.ar   28  G28         0.2606
    528   N.2      12.8220   15.8200    6.4860 N.pl3  28  G28        -0.0859
    529   N.3      14.0870   14.0570    7.2400 N.ar   28  G28        -0.1918
    530   C4       14.0920   12.7210    7.3130 C.ar   28  G28         0.1723
    531    P.3     14.5060   12.8330   13.0440 P.3    29  U29         0.2141
    532  OP1       15.0560   13.0590   14.4040 O.3    29  U29        -0.4373
    533  OP2       13.7040   11.6060   12.7600 O.2    29  U29        -0.5172
    534  O5'       13.6870   14.1370   12.6180 O.3    29  U29        -0.3114
    535  C5'       14.2020   15.4340   12.9330 C.3    29  U29         0.1812
    536  C4'       13.5080   16.5230   12.1280 C.3    29  U29         0.1773
    537  O4'       13.5840   16.2410   10.7040 O.3    29  U29        -0.3307
    538  C3'       12.0260   16.7790   12.3420 C.3    29  U29         0.1860
    539  O3'       11.8020   17.6110   13.4510 O.3    29  U29        -0.3112
    540  C2'       11.7000   17.5490   11.0880 C.3    29  U29         0.2309
    541  O2'       12.3470   18.8030   11.1040 O.3    29  U29        -0.2156
    542  C1'       12.3800   16.6490   10.0740 C.3    29  U29         0.2420
    543   N.1      11.5850   15.4520    9.8040 N.ar   29  U29        -0.2534
    544   C.2      10.4920   15.5930    8.9790 C.ar   29  U29         0.3546
    545   O.2      10.1590   16.6670    8.5200 O.2    29  U29        -0.2443
    546   N.3       9.8040   14.4330    8.7170 N.ar   29  U29        -0.1530
    547   C4       10.0910   13.1680    9.2050 C.ar   29  U29         0.2846
    548   O4        9.3630   12.2190    8.9010 O.2    29  U29        -0.2650
    549   C5       11.2290   13.1100   10.0770 C.ar   29  U29         0.0814
    550   C6       11.9180   14.2270   10.3390 C.ar   29  U29         0.0870
    551    P.3     10.7920   17.1250   14.5760 P.3    30  C30         0.2141
    552  OP1       11.0960   17.8840   15.8090 O.3    30  C30        -0.4373
    553  OP2       10.7780   15.6400   14.5830 O.2    30  C30        -0.5172
    554  O5'        9.3900   17.5970   14.0430 O.3    30  C30        -0.3114
    555  C5'        9.1650   18.9570   13.8310 C.3    30  C30         0.1813
    556  C4'        8.0010   19.1220   12.9280 C.3    30  C30         0.1801
    557  O4'        8.3300   18.5510   11.6520 O.3    30  C30        -0.3306
    558  C3'        6.7730   18.3470   13.3320 C.3    30  C30         0.2161
    559  O3'        6.0630   19.0190   14.3230 O.3    30  C30        -0.2175
    560  C2'        6.0180   18.3260   12.0310 C.3    30  C30         0.2338
    561  O2'        5.4640   19.5850   11.6920 O.3    30  C30        -0.2155
    562  C1'        7.1690   17.9900   11.0940 C.3    30  C30         0.2421
    563   N.1       7.3730   16.5650   11.0510 N.ar   30  C30        -0.2535
    564   C.2       6.5530   15.8520   10.2350 C.ar   30  C30         0.3532
    565   O.2       5.6930   16.4730    9.6040 O.2    30  C30        -0.2443
    566   N.3       6.6940   14.5200   10.1470 N.ar   30  C30        -0.1739
    567   C4        7.6230   13.9100   10.8780 C.ar   30  C30         0.1759
    568   N.4       7.7020   12.5890   10.7940 N.pl3  30  C30        -0.1070
    569   C5        8.5050   14.6300   11.7360 C.ar   30  C30         0.0566
    570   C6        8.3440   15.9490   11.7910 C.ar   30  C30         0.0850
    571    P.3     -0.0890   16.4190   15.6000 Pac    32  C32         0.3942
    572  OP1       -1.0600   17.4520   16.0330 O.3    32  C32        -0.1425
    573  OP2        1.0680   16.0890   16.4640 O.3    32  C32        -0.1425
    574  O5'       -0.8800   15.0860   15.2720 O.3    32  C32        -0.2926
    575  C5'       -1.8590   15.0880   14.2590 C.3    32  C32         0.1829
    576  C4'       -1.9240   13.7350   13.6150 C.3    32  C32         0.1774
    577  O4'       -0.6270   13.3780   13.0770 O.3    32  C32        -0.3307
    578  C3'       -2.2040   12.5900   14.5680 C.3    32  C32         0.1860
    579  O3'       -3.5850   12.5200   14.8880 O.3    32  C32        -0.3112
    580  C2'       -1.7250   11.3810   13.7680 C.3    32  C32         0.2309
    581  O2'       -2.6810   10.8280   12.8930 O.3    32  C32        -0.2156
    582  C1'       -0.5180   11.9580   13.0210 C.3    32  C32         0.2420
    583   N.1       0.7640   11.5460   13.6380 N.ar   32  C32        -0.2535
    584   C.2       1.2630   10.2560   13.3660 C.ar   32  C32         0.3532
    585   O.2       0.6290    9.5160   12.6090 O.2    32  C32        -0.2443
    586   N.3       2.4170    9.8540   13.9410 N.ar   32  C32        -0.1739
    587   C4        3.0680   10.6720   14.7630 C.ar   32  C32         0.1759
    588   N.4       4.1860   10.2270   15.3130 N.pl3  32  C32        -0.1070
    589   C5        2.5960   11.9890   15.0560 C.ar   32  C32         0.0566
    590   C6        1.4510   12.3860   14.4730 C.ar   32  C32         0.0850
    591    P.3     -4.0390   12.0700   16.3610 P.3    33  G33         0.2141
    592  OP1       -5.4440   12.5030   16.4920 O.2    33  G33        -0.5172
    593  OP2       -3.0320   12.5200   17.3600 O.3    33  G33        -0.4373
    594  O5'       -4.0150   10.4770   16.3170 O.3    33  G33        -0.3114
    595  C5'       -4.9570    9.7460   15.5320 C.3    33  G33         0.1812
    596  C4'       -4.6470    8.2640   15.5770 C.3    33  G33         0.1773
    597  O4'       -3.3860    8.0100   14.8960 O.3    33  G33        -0.3307
    598  C3'       -4.4380    7.6270   16.9450 C.3    33  G33         0.1860
    599  O3'       -5.6360    7.2990   17.6340 O.3    33  G33        -0.3112
    600  C2'       -3.6910    6.3640   16.5570 C.3    33  G33         0.2309
    601  O2'       -4.5500    5.4280   15.9400 O.3    33  G33        -0.2156
    602  C1'       -2.7140    6.9290   15.5260 C.3    33  G33         0.2408
    603   N9       -1.4870    7.4530   16.1160 N.ar   33  G33        -0.2693
    604   C8       -1.2340    8.7510   16.4980 C.ar   33  G33         0.1817
    605   N7       -0.0290    8.9200   16.9670 N.ar   33  G33        -0.2173
    606   C5        0.5390    7.6590   16.8940 C.ar   33  G33         0.1748
    607   C6        1.8130    7.2230   17.2610 C.ar   33  G33         0.3023
    608   O6        2.7400    7.8860   17.7380 O.2    33  G33        -0.2633
    609   N.1       1.9710    5.8570   17.0360 N.ar   33  G33        -0.1709
    610   C.2       1.0030    5.0260   16.5270 C.ar   33  G33         0.2606
    611   N.2       1.3190    3.7380   16.3920 N.pl3  33  G33        -0.0859
    612   N.3      -0.1940    5.4300   16.1780 N.ar   33  G33        -0.1918
    613   C4       -0.3570    6.7450   16.3840 C.ar   33  G33         0.1723
    614    P.3     -5.5810    7.0230   19.2160 P.3    34  U34         0.2141
    615  OP1       -6.8980    6.4460   19.5700 O.2    34  U34        -0.5172
    616  OP2       -5.0960    8.2450   19.9170 O.3    34  U34        -0.4373
    617  O5'       -4.4920    5.8690   19.3780 O.3    34  U34        -0.3114
    618  C5'       -4.8620    4.4960   19.2770 C.3    34  U34         0.1812
    619  C4'       -3.8930    3.6430   20.0520 C.3    34  U34         0.1773
    620  O4'       -2.5830    3.7570   19.4510 O.3    34  U34        -0.3307
    621  C3'       -3.6060    4.0770   21.4820 C.3    34  U34         0.1860
    622  O3'       -4.6160    3.7080   22.4130 O.3    34  U34        -0.3112
    623  C2'       -2.3000    3.3520   21.7730 C.3    34  U34         0.2309
    624  O2'       -2.4880    2.0010   22.1200 O.3    34  U34        -0.2156
    625  C1'       -1.5990    3.4340   20.4200 C.3    34  U34         0.2420
    626   N.1      -0.5840    4.4860   20.4160 N.ar   34  U34        -0.2534
    627   C.2       0.6500    4.1820   20.9410 C.ar   34  U34         0.3546
    628   O.2       0.9140    3.1020   21.4220 O.2    34  U34        -0.2443
    629   N.3       1.5600    5.1960   20.8930 N.ar   34  U34        -0.1530
    630   C4        1.3510    6.4580   20.3960 C.ar   34  U34         0.2846
    631   O4        2.2670    7.2820   20.4310 O.2    34  U34        -0.2650
    632   C5        0.0350    6.6910   19.8870 C.ar   34  U34         0.0814
    633   C6       -0.8600    5.7180   19.9130 C.ar   34  U34         0.0870
    634    P.3     -4.6240    4.3830   23.8670 P.3    35  C35         0.2141
    635  OP1       -5.7740    3.8270   24.6210 O.3    35  C35        -0.4373
    636  OP2       -4.5080    5.8500   23.6800 O.2    35  C35        -0.5172
    637  O5'       -3.2830    3.8480   24.5450 O.3    35  C35        -0.3114
    638  C5'       -3.1050    2.4540   24.7680 C.3    35  C35         0.1812
    639  C4'       -1.6620    2.1320   25.0820 C.3    35  C35         0.1773
    640  O4'       -0.7650    2.4990   23.9970 O.3    35  C35        -0.3307
    641  C3'       -1.0300    2.8150   26.2720 C.3    35  C35         0.1860
    642  O3'       -1.5120    2.2630   27.4860 O.3    35  C35        -0.3112
    643  C2'        0.4310    2.4730   26.0300 C.3    35  C35         0.2309
    644  O2'        0.7010    1.1210   26.3110 O.3    35  C35        -0.2156
    645  C1'        0.5370    2.7200   24.5240 C.3    35  C35         0.2420
    646   N.1       0.9240    4.1090   24.2410 N.ar   35  C35        -0.2535
    647   C.2       2.2760    4.4770   24.3650 C.ar   35  C35         0.3532
    648   O.2       3.1070    3.6250   24.7160 O.2    35  C35        -0.2443
    649   N.3       2.6400    5.7560   24.1140 N.ar   35  C35        -0.1739
    650   C4        1.7160    6.6560   23.7720 C.ar   35  C35         0.1759
    651   N.4       2.1220    7.9100   23.5510 N.pl3  35  C35        -0.1070
    652   C5        0.3350    6.3130   23.6420 C.ar   35  C35         0.0566
    653   C6       -0.0120    5.0390   23.8770 C.ar   35  C35         0.0850
    654    P.3     -1.3440    3.0870   28.8530 P.3    36  G36         0.2141
    655  OP1       -1.9170    2.2630   29.9460 O.3    36  G36        -0.4373
    656  OP2       -1.8610    4.4620   28.6320 O.2    36  G36        -0.5172
    657  O5'        0.2360    3.1470   29.0680 O.3    36  G36        -0.3114
    658  C5'        0.9520    1.9910   29.4730 C.3    36  G36         0.1812
    659  C4'        2.3770    2.3430   29.8080 C.3    36  G36         0.1773
    660  O4'        3.1030    2.6670   28.5980 O.3    36  G36        -0.3307
    661  C3'        2.5830    3.5420   30.7110 C.3    36  G36         0.1860
    662  O3'        2.4630    3.1670   32.0780 O.3    36  G36        -0.3112
    663  C2'        4.0120    3.9390   30.3680 C.3    36  G36         0.2309
    664  O2'        4.9670    3.1050   30.9670 O.3    36  G36        -0.2156
    665  C1'        4.0480    3.6890   28.8630 C.3    36  G36         0.2408
    666   N9        3.6600    4.8650   28.0910 N.ar   36  G36        -0.2693
    667   C8        2.4360    5.0650   27.5080 C.ar   36  G36         0.1817
    668   N7        2.3370    6.2170   26.8980 N.ar   36  G36        -0.2173
    669   C5        3.5760    6.8160   27.0850 C.ar   36  G36         0.1748
    670   C6        4.0550    8.0800   26.6440 C.ar   36  G36         0.3023
    671   O6        3.4580    8.9430   25.9910 O.2    36  G36        -0.2633
    672   N.1       5.3730    8.2960   27.0360 N.ar   36  G36        -0.1709
    673   C.2       6.1330    7.4150   27.7580 C.ar   36  G36         0.2606
    674   N.2       7.3860    7.8090   28.0300 N.pl3  36  G36        -0.0859
    675   N.3       5.6960    6.2280   28.1820 N.ar   36  G36        -0.1918
    676   C4        4.4140    5.9970   27.8100 C.ar   36  G36         0.1723
    677    P.3      2.3470    4.3020   33.2190 P.3    37  A37         0.2141
    678  OP1        2.3140    3.6100   34.5280 O.3    37  A37        -0.4373
    679  OP2        1.2690    5.2520   32.8670 O.2    37  A37        -0.5172
    680  O5'        3.7300    5.0870   33.1520 O.3    37  A37        -0.3114
    681  C5'        4.9230    4.4890   33.6420 C.3    37  A37         0.1812
    682  C4'        6.0810    5.4370   33.4790 C.3    37  A37         0.1773
    683  O4'        6.2940    5.7090   32.0670 O.3    37  A37        -0.3307
    684  C3'        5.8440    6.7950   34.1090 C.3    37  A37         0.1860
    685  O3'        6.2730    6.7720   35.4530 O.3    37  A37        -0.3112
    686  C2'        6.7100    7.7200   33.2670 C.3    37  A37         0.2309
    687  O2'        8.0510    7.7630   33.7070 O.3    37  A37        -0.2156
    688  C1'        6.5680    7.0890   31.8800 C.3    37  A37         0.2408
    689   N9        5.4640    7.6720   31.1190 N.ar   37  A37        -0.2693
    690   C8        4.2440    7.1140   30.8140 C.ar   37  A37         0.1816
    691   N7        3.4640    7.8970   30.1090 N.ar   37  A37        -0.2193
    692   C5        4.2190    9.0470   29.9380 C.ar   37  A37         0.1518
    693   C6        3.9630   10.2510   29.2760 C.ar   37  A37         0.1919
    694   N6        2.8330   10.5080   28.6190 N.pl3  37  A37        -0.1054
    695   N.1       4.9260   11.1970   29.3050 N.ar   37  A37        -0.2040
    696   C.2       6.0660   10.9450   29.9470 C.ar   37  A37         0.2016
    697   N.3       6.4310    9.8460   30.6000 N.ar   37  A37        -0.2048
    698   C4        5.4510    8.9260   30.5580 C.ar   37  A37         0.1692
    699    P.3      5.4420    7.5830   36.5490 P.3    38  C38         0.2141
    700  OP1        6.0180    7.2800   37.8960 O.3    38  C38        -0.4373
    701  OP2        4.0020    7.3280   36.2910 O.2    38  C38        -0.5172
    702  O5'        5.7580    9.0970   36.1800 O.3    38  C38        -0.3114
    703  C5'        7.0500    9.6290   36.3950 C.3    38  C38         0.1812
    704  C4'        7.1650   10.9870   35.7530 C.3    38  C38         0.1773
    705  O4'        6.8250   10.9020   34.3510 O.3    38  C38        -0.3307
    706  C3'        6.2420   12.0980   36.2270 C.3    38  C38         0.1860
    707  O3'        6.7030   12.6260   37.4650 O.3    38  C38        -0.3112
    708  C2'        6.4220   13.1160   35.1070 C.3    38  C38         0.2309
    709  O2'        7.6370   13.8250   35.1910 O.3    38  C38        -0.2156
    710  C1'        6.5000   12.2030   33.8830 C.3    38  C38         0.2420
    711   N.1       5.2120   12.1540   33.1980 N.ar   38  C38        -0.2535
    712   C.2       4.8570   13.2250   32.3850 C.ar   38  C38         0.3532
    713   O.2       5.7010   14.1040   32.1590 O.2    38  C38        -0.2443
    714   N.3       3.6210   13.2670   31.8540 N.ar   38  C38        -0.1739
    715   C4        2.7710   12.2660   32.0770 C.ar   38  C38         0.1759
    716   N.4       1.5420   12.3620   31.5680 N.pl3  38  C38        -0.1070
    717   C5        3.1380   11.1220   32.8420 C.ar   38  C38         0.0566
    718   C6        4.3560   11.1100   33.3810 C.ar   38  C38         0.0850
    719    P.3      5.7830   13.6550   38.2990 P.3    39  G39         0.2141
    720  OP1        6.5760   14.0640   39.4970 O.3    39  G39        -0.4373
    721  OP2        4.4570   12.9960   38.4850 O.2    39  G39        -0.5172
    722  O5'        5.6400   14.9420   37.3490 O.3    39  G39        -0.3114
    723  C5'        6.7120   15.8900   37.2140 C.3    39  G39         0.1812
    724  C4'        6.2880   17.0860   36.3700 C.3    39  G39         0.1773
    725  O4'        6.0060   16.7240   34.9890 O.3    39  G39        -0.3307
    726  C3'        5.0570   17.8360   36.8310 C.3    39  G39         0.1860
    727  O3'        5.4320   18.7420   37.8540 O.3    39  G39        -0.3112
    728  C2'        4.6180   18.5530   35.5610 C.3    39  G39         0.2309
    729  O2'        5.3440   19.7390   35.3240 O.3    39  G39        -0.2156
    730  C1'        4.9150   17.4920   34.5020 C.3    39  G39         0.2408
    731   N9        3.7970   16.5850   34.2400 N.ar   39  G39        -0.2693
    732   C8        3.5980   15.3240   34.7620 C.ar   39  G39         0.1817
    733   N7        2.5030   14.7570   34.3310 N.ar   39  G39        -0.2173
    734   C5        1.9480   15.6930   33.4760 C.ar   39  G39         0.1748
    735   C6        0.7610   15.6410   32.7200 C.ar   39  G39         0.3023
    736   O6       -0.0610   14.7140   32.6340 O.2    39  G39        -0.2633
    737   N.1       0.5680   16.8130   31.9990 N.ar   39  G39        -0.1709
    738   C.2       1.4220   17.8950   32.0050 C.ar   39  G39         0.2606
    739   N.2       1.0800   18.9390   31.2300 N.pl3  39  G39        -0.0859
    740   N.3       2.5370   17.9490   32.7070 N.ar   39  G39        -0.1918
    741   C4        2.7350   16.8290   33.4150 C.ar   39  G39         0.1723
    742    P.3      4.6050   18.7610   39.2310 P.3    40  A40         0.2141
    743  OP1        5.4140   19.4280   40.2880 O.3    40  A40        -0.4373
    744  OP2        4.0430   17.4070   39.4780 O.2    40  A40        -0.5172
    745  O5'        3.4040   19.7390   38.9030 O.3    40  A40        -0.3114
    746  C5'        3.6680   21.0730   38.5280 C.3    40  A40         0.1812
    747  C4'        3.0700   22.0090   39.5390 C.3    40  A40         0.1773
    748  O4'        3.7580   23.2690   39.4850 O.3    40  A40        -0.3307
    749  C3'        1.6040   22.3840   39.3740 C.3    40  A40         0.1860
    750  O3'        0.7580   21.3860   39.9440 O.3    40  A40        -0.3112
    751  C2'        1.5120   23.6940   40.1600 C.3    40  A40         0.2309
    752  O2'        1.1340   23.4920   41.5030 O.3    40  A40        -0.2156
    753  C1'        2.9470   24.2460   40.0830 C.3    40  A40         0.2408
    754   N9        3.0670   25.4570   39.2790 N.ar   40  A40        -0.2693
    755   C8        3.2820   25.5690   37.9250 C.ar   40  A40         0.1816
    756   N7        3.3490   26.8100   37.5030 N.ar   40  A40        -0.2193
    757   C5        3.1660   27.5640   38.6580 C.ar   40  A40         0.1518
    758   C6        3.1310   28.9580   38.9060 C.ar   40  A40         0.1919
    759   N6        3.2800   29.9040   37.9700 N.pl3  40  A40        -0.1054
    760   N.1       2.9310   29.3500   40.1800 N.ar   40  A40        -0.2040
    761   C.2       2.7680   28.4280   41.1380 C.ar   40  A40         0.2016
    762   N.3       2.7760   27.1060   41.0330 N.ar   40  A40        -0.2048
    763   C4        2.9860   26.7370   39.7590 C.ar   40  A40         0.1692
    764    P.3     -0.7150   21.1270   39.3360 P.3    41  A41         0.2141
    765  OP1       -1.2970   20.0290   40.1650 O.3    41  A41        -0.4373
    766  OP2       -0.7030   21.0020   37.8500 O.2    41  A41        -0.5172
    767  O5'       -1.5200   22.4420   39.7170 O.3    41  A41        -0.3114
    768  C5'       -2.1870   22.5260   40.9690 C.3    41  A41         0.1812
    769  C4'       -3.0570   23.7550   41.0220 C.3    41  A41         0.1773
    770  O4'       -2.2280   24.9400   41.0170 O.3    41  A41        -0.3307
    771  C3'       -4.0370   23.9190   39.8750 C.3    41  A41         0.1860
    772  O3'       -5.2820   23.4320   40.3140 O.3    41  A41        -0.3112
    773  C2'       -4.1210   25.4300   39.7050 C.3    41  A41         0.2309
    774  O2'       -5.0120   26.0100   40.6390 O.3    41  A41        -0.2156
    775  C1'       -2.6920   25.8520   40.0440 C.3    41  A41         0.2408
    776   N9       -1.7400   25.8430   38.9320 N.ar   41  A41        -0.2693
    777   C8       -1.3330   24.7520   38.2040 C.ar   41  A41         0.1816
    778   N7       -0.4550   25.0300   37.2700 N.ar   41  A41        -0.2193
    779   C5       -0.2650   26.4010   37.3850 C.ar   41  A41         0.1518
    780   C6        0.5570   27.3080   36.6800 C.ar   41  A41         0.1919
    781   N6        1.3740   26.9620   35.6780 N.pl3  41  A41        -0.1054
    782   N.1       0.5110   28.6000   37.0510 N.ar   41  A41        -0.2040
    783   C.2      -0.2900   28.9630   38.0540 C.ar   41  A41         0.2016
    784   N.3      -1.1090   28.2080   38.7930 N.ar   41  A41        -0.2048
    785   C4       -1.0510   26.9190   38.4020 C.ar   41  A41         0.1692
    786    P.3     -6.1220   22.4730   39.3630 P.3    42  G42         0.2141
    787  OP1       -7.5080   22.4740   39.8800 O.3    42  G42        -0.4373
    788  OP2       -5.3920   21.2040   39.2090 O.2    42  G42        -0.5172
    789  O5'       -6.1110   23.2210   37.9710 O.3    42  G42        -0.3114
    790  C5'       -7.0230   24.2660   37.7290 C.3    42  G42         0.1812
    791  C4'       -7.7890   24.0030   36.4560 C.3    42  G42         0.1773
    792  O4'       -6.8660   23.5290   35.4420 O.3    42  G42        -0.3307
    793  C3'       -8.8610   22.9280   36.4730 C.3    42  G42         0.1860
    794  O3'      -10.0950   23.4690   36.9180 O.3    42  G42        -0.3112
    795  C2'       -9.0080   22.6660   34.9890 C.3    42  G42         0.2309
    796  O2'       -9.7220   23.7120   34.3730 O.3    42  G42        -0.2156
    797  C1'       -7.5490   22.6890   34.5370 C.3    42  G42         0.2408
    798   N9       -6.9640   21.3720   34.6670 N.ar   42  G42        -0.2693
    799   C8       -5.8500   21.0460   35.3920 C.ar   42  G42         0.1817
    800   N7       -5.6170   19.7650   35.4200 N.ar   42  G42        -0.2173
    801   C5       -6.6280   19.2220   34.6440 C.ar   42  G42         0.1748
    802   C6       -6.9120   17.8860   34.3430 C.ar   42  G42         0.3023
    803   O6       -6.3090   16.8800   34.7070 O.2    42  G42        -0.2633
    804   N.1      -8.0300   17.7710   33.5400 N.ar   42  G42        -0.1709
    805   C.2      -8.7870   18.8200   33.0990 C.ar   42  G42         0.2606
    806   N.2      -9.8490   18.5090   32.3690 N.pl3  42  G42        -0.0859
    807   N.3      -8.5280   20.0810   33.3640 N.ar   42  G42        -0.1918
    808   C4       -7.4460   20.2060   34.1470 C.ar   42  G42         0.1723
    809    P.3    -11.1860   22.5080   37.5930 P.3    43  U43         0.2141
    810  OP1      -12.2410   23.3810   38.1640 O.2    43  U43        -0.5172
    811  OP2      -10.4830   21.5460   38.4650 O.3    43  U43        -0.4373
    812  O5'      -11.7760   21.6340   36.4030 O.3    43  U43        -0.3114
    813  C5'      -12.5510   22.2160   35.3670 C.3    43  U43         0.1812
    814  C4'      -13.2280   21.1350   34.5390 C.3    43  U43         0.1773
    815  O4'      -12.2400   20.3390   33.8190 O.3    43  U43        -0.3307
    816  C3'      -14.1050   20.1160   35.2610 C.3    43  U43         0.1860
    817  O3'      -15.4260   20.6210   35.4560 O.3    43  U43        -0.3112
    818  C2'      -14.0960   18.9380   34.2870 C.3    43  U43         0.2309
    819  O2'      -15.0030   19.0560   33.2070 O.3    43  U43        -0.2156
    820  C1'      -12.6610   18.9830   33.7660 C.3    43  U43         0.2420
    821   N.1     -11.7190   18.1680   34.5480 N.ar   43  U43        -0.2534
    822   C.2     -11.7400   16.8010   34.3700 C.ar   43  U43         0.3546
    823   O.2     -12.5250   16.2390   33.6160 O.2    43  U43        -0.2443
    824   N.3     -10.8110   16.1090   35.1090 N.ar   43  U43        -0.1530
    825   C4       -9.8960   16.6330   35.9840 C.ar   43  U43         0.2846
    826   O4       -9.1050   15.8860   36.5540 O.2    43  U43        -0.2650
    827   C5       -9.9530   18.0430   36.1190 C.ar   43  U43         0.0814
    828   C6      -10.8410   18.7450   35.4160 C.ar   43  U43         0.0870
    829    P.3    -16.3410   20.0300   36.6360 P.3    44  C44         0.2141
    830  OP1      -17.6080   20.7920   36.5640 O.2    44  C44        -0.5172
    831  OP2      -15.5350   20.0810   37.8860 O.3    44  C44        -0.4373
    832  O5'      -16.5750   18.4920   36.2370 O.3    44  C44        -0.3114
    833  C5'      -17.4290   18.0930   35.1450 C.3    44  C44         0.1812
    834  C4'      -17.4690   16.5670   35.0130 C.3    44  C44         0.1773
    835  O4'      -16.1770   16.0370   34.6070 O.3    44  C44        -0.3307
    836  C3'      -17.8320   15.7710   36.2620 C.3    44  C44         0.1860
    837  O3'      -19.2470   15.7220   36.4390 O.3    44  C44        -0.3112
    838  C2'      -17.2400   14.3940   35.9700 C.3    44  C44         0.2309
    839  O2'      -18.1000   13.5610   35.2240 O.3    44  C44        -0.2156
    840  C1'      -15.9790   14.7540   35.1790 C.3    44  C44         0.2420
    841   N.1     -14.7700   14.8150   36.0210 N.ar   44  C44        -0.2535
    842   C.2     -13.9440   13.6810   36.0980 C.ar   44  C44         0.3532
    843   O.2     -14.2540   12.6710   35.4550 O.2    44  C44        -0.2443
    844   N.3     -12.8330   13.7210   36.8790 N.ar   44  C44        -0.1739
    845   C4      -12.5440   14.8330   37.5670 C.ar   44  C44         0.1759
    846   N.4     -11.4520   14.8250   38.3350 N.pl3  44  C44        -0.1070
    847   C5      -13.3650   16.0000   37.5010 C.ar   44  C44         0.0566
    848   C6      -14.4560   15.9490   36.7210 C.ar   44  C44         0.0850
    849    P.3    -19.8690   15.3680   37.8850 P.3    45  G45         0.2141
    850  OP1      -21.3320   15.2520   37.6830 O.2    45  G45        -0.5172
    851  OP2      -19.3540   16.3130   38.9080 O.3    45  G45        -0.4373
    852  O5'      -19.3200   13.9060   38.1940 O.3    45  G45        -0.3114
    853  C5'      -19.8530   12.7930   37.4970 C.3    45  G45         0.1812
    854  C4'      -19.0440   11.5560   37.7760 C.3    45  G45         0.1773
    855  O4'      -17.6710   11.7780   37.3810 O.3    45  G45        -0.3307
    856  C3'      -18.8890   11.1180   39.2210 C.3    45  G45         0.1860
    857  O3'      -20.0830   10.5370   39.7430 O.3    45  G45        -0.3112
    858  C2'      -17.7170   10.1420   39.1060 C.3    45  G45         0.2309
    859  O2'      -18.0310    8.8340   38.6650 O.3    45  G45        -0.2156
    860  C1'      -16.8380   10.8560   38.0740 C.3    45  G45         0.2408
    861   N9      -15.7880   11.6030   38.7510 N.ar   45  G45        -0.2693
    862   C8      -15.6010   12.9600   38.7790 C.ar   45  G45         0.1817
    863   N7      -14.6110   13.3230   39.5480 N.ar   45  G45        -0.2173
    864   C5      -14.1160   12.1250   40.0410 C.ar   45  G45         0.1748
    865   C6      -13.0620   11.8800   40.9380 C.ar   45  G45         0.3023
    866   O6      -12.3350   12.6970   41.5110 O.2    45  G45        -0.2633
    867   N.1     -12.8950   10.5140   41.1590 N.ar   45  G45        -0.1709
    868   C.2     -13.6490    9.5200   40.5790 C.ar   45  G45         0.2606
    869   N.2     -13.3380    8.2540   40.8880 N.pl3  45  G45        -0.0859
    870   N.3     -14.6420    9.7470   39.7540 N.ar   45  G45        -0.1918
    871   C4      -14.8170   11.0590   39.5330 C.ar   45  G45         0.1723
    872    P.3    -20.6300   10.9920   41.1920 P.3    46  C46         0.2141
    873  OP1      -22.0840   10.6980   41.2150 O.2    46  C46        -0.5172
    874  OP2      -20.1600   12.3570   41.5170 O.3    46  C46        -0.4373
    875  O5'      -19.8960   10.0040   42.1970 O.3    46  C46        -0.3114
    876  C5'      -19.9870    8.6010   42.0070 C.3    46  C46         0.1813
    877  C4'      -18.8720    7.8930   42.7370 C.3    46  C46         0.1801
    878  O4'      -17.5860    8.3320   42.2320 O.3    46  C46        -0.3306
    879  C3'      -18.7320    8.1100   44.2360 C.3    46  C46         0.2161
    880  O3'      -19.7450    7.5580   45.1080 O.3    46  C46        -0.2175
    881  C2'      -17.3280    7.5700   44.4640 C.3    46  C46         0.2338
    882  O2'      -17.2810    6.1560   44.4110 O.3    46  C46        -0.2155
    883  C1'      -16.6030    8.1300   43.2370 C.3    46  C46         0.2421
    884   N.1     -15.9040    9.4050   43.4760 N.ar   46  C46        -0.2535
    885   C.2     -14.8380    9.4270   44.3770 C.ar   46  C46         0.3532
    886   O.2     -14.5250    8.3740   44.9640 O.2    46  C46        -0.2443
    887   N.3     -14.1800   10.5850   44.5900 N.ar   46  C46        -0.1739
    888   C4      -14.5520   11.6870   43.9490 C.ar   46  C46         0.1759
    889   N.4     -13.8730   12.8020   44.1960 N.pl3  46  C46        -0.1070
    890   C5      -15.6360   11.6960   43.0310 C.ar   46  C46         0.0566
    891   C6      -16.2790   10.5460   42.8270 C.ar   46  C46         0.0850
@<TRIPOS>BOND
     1   459   458    2
     2   460   458   ar
     3   460   461   ar
     4   458   457   ar
     5   461   462    2
     6   461   463   ar
     7   451   456    1
     8   451   450    1
     9   463   464   ar
    10   457   464   ar
    11   457   456    1
    12   456   454    1
    13   429   428    2
    14   430   428    1
    15   386   385    2
    16   407   405    2
    17   449   450    1
    18   449   448    1
    19   450   452    1
    20   406   405    1
    21   366   365    2
    22   436   435    1
    23   428   431    1
    24   428   413    1
    25   445   444    1
    26   446   444   ar
    27   446   447   ar
    28   431   432    1
    29   387   385    1
    30   405   393    1
    31   405   408    1
    32   454   455    1
    33   454   452    1
    34   339   340   ar
    35   339   338   ar
    36   444   443   ar
    37   343   342    2
    38   385   388    1
    39   385   373    1
    40   435   437    1
    41   435   433    1
    42   482   481    2
    43   340   341   ar
    44   447   440   ar
    45   452   453    1
    46   479   478   ar
    47   479   480   ar
    48   388   389    1
    49   367   365    1
    50   365   350    1
    51   365   368    1
    52   316   317   ar
    53   316   314   ar
    54   389   390    1
    55   317   318   ar
    56   393   392    1
    57   481   480   ar
    58   481   483   ar
    59   432   433    1
    60   478   477   ar
    61   338   336   ar
    62   413   412    1
    63   437   439    1
    64   437   438    1
    65   480   487   ar
    66   408   409    1
    67   443   441   ar
    68   328   342    1
    69   328   327    1
    70   440   441   ar
    71   440   439    1
    72   433   434    1
    73   342   344    1
    74   342   345    1
    75   326   331    1
    76   326   325    1
    77   483   484   ar
    78   392   390    1
    79   392   394    1
    80   373   372    1
    81   350   349    1
    82   368   369    1
    83   471   476    1
    84   471   470    1
    85   441   442    2
    86   477   487   ar
    87   477   476    1
    88   341   332   ar
    89   341   335   ar
    90   331   332    1
    91   331   329    1
    92   412   410    1
    93   412   414    1
    94   409   410    1
    95   487   486   ar
    96   453   465    1
    97   369   370    1
    98   390   391    1
    99   315   314    1
   100   439   434    1
   101   318   319   ar
   102   314   313   ar
   103   325   327    1
   104   325   324    1
   105   476   474    1
   106   330   329    1
   107   484   486   ar
   108   484   485    1
   109   336   335   ar
   110   336   337    1
   111   332   333   ar
   112   327   329    1
   113   346   345    1
   114   346   347    1
   115   372   370    1
   116   372   374    1
   117   410   411    1
   118   469   470    1
   119   469   468    1
   120   403   404   ar
   121   403   401   ar
   122   419   418   ar
   123   419   420   ar
   124   404   397   ar
   125   335   334   ar
   126   470   472    1
   127   418   417   ar
   128   370   371    1
   129   468   465    1
   130   414   415    1
   131   414   416    1
   132   349   347    1
   133   349   351    1
   134   394   395    1
   135   394   396    1
   136   319   313   ar
   137   319   310   ar
   138   391   396    1
   139   313   312   ar
   140   347   348    1
   141   422   421    2
   142   465   467    2
   143   465   466    1
   144   420   421   ar
   145   420   427   ar
   146   324   323    1
   147   417   427   ar
   148   417   416    1
   149   421   423   ar
   150   411   416    1
   151   397   396    1
   152   397   398   ar
   153   333   334   ar
   154   401   402    1
   155   401   400   ar
   156   474   472    1
   157   474   475    1
   158   352   351    1
   159   427   426   ar
   160   505   504    1
   161   374   375    1
   162   374   376    1
   163   472   473    1
   164   351   353    1
   165   371   376    1
   166   423   424   ar
   167   384   383   ar
   168   384   377   ar
   169   310   309    1
   170   310   311   ar
   171   383   381   ar
   172   504   506   ar
   173   504   503   ar
   174   323   320    1
   175   426   424   ar
   176   312   311   ar
   177   506   507   ar
   178   424   425    1
   179   348   353    1
   180   398   400   ar
   181   398   399    2
   182   309   304    1
   183   309   307    1
   184   503   501   ar
   185   376   377    1
   186   308   307    1
   187   377   378   ar
   188   507   500   ar
   189   473   488    1
   190   353   354    1
   191   501   500   ar
   192   501   502    2
   193   381   382    2
   194   381   380   ar
   195   304   303    1
   196   500   499    1
   197   307   305    1
   198   525   524    2
   199   490   488    2
   200   355   354   ar
   201   355   356   ar
   202   494   499    1
   203   494   493    1
   204   354   364   ar
   205   320   306    1
   206   320   321    2
   207   320   322    1
   208   378   380   ar
   209   378   379    2
   210   526   524   ar
   211   526   527   ar
   212   306   305    1
   213   524   523   ar
   214   499   497    1
   215   528   527    1
   216   488   491    1
   217   488   489    1
   218   527   529   ar
   219   356   357   ar
   220   305   303    1
   221   523   522   ar
   222   523   530   ar
   223   364   363   ar
   224   364   357   ar
   225   303   302    1
   226   522   521   ar
   227   363   361   ar
   228   529   530   ar
   229   357   358   ar
   230   491   492    1
   231   530   520   ar
   232   492   493    1
   233   493   495    1
   234   521   520   ar
   235   302   301    1
   236   520   519    1
   237   497   495    1
   238   497   498    1
   239   361   362    1
   240   361   360   ar
   241   358   360   ar
   242   358   359    2
   243   299   298    2
   244   495   496    1
   245   545   544    2
   246   519   514    1
   247   519   517    1
   248   546   544   ar
   249   546   547   ar
   250   548   547    2
   251   301   298    1
   252   544   543   ar
   253   514   513    1
   254   547   549   ar
   255   298   300    1
   256   298   283    1
   257   565   564    2
   258   496   508    1
   259   517   518    1
   260   517   515    1
   261   543   542    1
   262   543   550   ar
   263   542   537    1
   264   542   540    1
   265   549   550   ar
   266   566   564   ar
   267   566   567   ar
   268   564   563   ar
   269   511   508    1
   270   511   512    1
   271   513   515    1
   272   513   512    1
   273   283   282    1
   274   537   536    1
   275   515   516    1
   276   568   567    1
   277   508   510    2
   278   508   509    1
   279   567   569   ar
   280   563   562    1
   281   563   570   ar
   282   540   541    1
   283   540   538    1
   284   562   557    1
   285   562   560    1
   286   285   284    1
   287   282   284    1
   288   282   280    1
   289   557   556    1
   290   561   560    1
   291   569   570   ar
   292   284   286    1
   293   560   558    1
   294   516   531    1
   295   536   538    1
   296   536   535    1
   297   538   539    1
   298   585   584    2
   299   534   535    1
   300   534   531    1
   301   533   531    2
   302   581   580    1
   303   295   294    1
   304   556   558    1
   305   556   555    1
   306   280   279    1
   307   280   281    1
   308   582   577    1
   309   582   583    1
   310   582   580    1
   311   531   532    1
   312   577   576    1
   313   276   275    2
   314   279   278    1
   315   278   275    1
   316   558   559    1
   317   296   294   ar
   318   296   297   ar
   319   584   583   ar
   320   584   586   ar
   321   286   281    1
   322   286   287    1
   323   539   551    1
   324   294   293   ar
   325   576   575    1
   326   576   578    1
   327   583   590   ar
   328   580   578    1
   329   555   554    1
   330   275   277    1
   331   275   263    1
   332   586   587   ar
   333   297   287   ar
   334   297   290   ar
   335   287   288   ar
   336   554   551    1
   337   293   291   ar
   338   575   574    1
   339   590   589   ar
   340   578   579    1
   341   551   553    2
   342   551   552    1
   343   290   291   ar
   344   290   289   ar
   345   288   289   ar
   346   587   589   ar
   347   587   588    1
   348   291   292    2
   349   579   591    1
   350   597   602    1
   351   597   596    1
   352   574   571    1
   353   263   262    1
   354   602   603    1
   355   602   600    1
   356   595   596    1
   357   595   594    1
   358   596   598    1
   359   571   572    1
   360   571   573    1
   361   601   600    1
   362   603   613   ar
   363   603   604   ar
   364   612   613   ar
   365   612   610   ar
   366   265   264    1
   367   594   591    1
   368   591   592    2
   369   591   593    1
   370   613   606   ar
   371   611   610    1
   372   262   264    1
   373   262   260    1
   374   604   605   ar
   375   610   609   ar
   376   264   266    1
   377   600   598    1
   378   606   605   ar
   379   606   607   ar
   380   598   599    1
   381   609   607   ar
   382   607   608    2
   383   257   255    2
   384   256   255    1
   385   599   614    1
   386   260   259    1
   387   260   261    1
   388   269   268    2
   389   266   267    1
   390   266   261    1
   391   255   258    1
   392   255   241    1
   393   268   270   ar
   394   268   267   ar
   395   258   259    1
   396   270   271   ar
   397   267   274   ar
   398   271   272    1
   399   271   273   ar
   400   274   273   ar
   401   614   617    1
   402   614   615    2
   403   614   616    1
   404   618   617    1
   405   618   619    1
   406   620   619    1
   407   620   625    1
   408   241   240    1
   409   632   633   ar
   410   632   630   ar
   411   633   626   ar
   412   619   621    1
   413   234   233    2
   414   235   233    1
   415   630   631    2
   416   630   629   ar
   417   626   625    1
   418   626   627   ar
   419   625   623    1
   420   240   242    1
   421   240   238    1
   422   242   243    1
   423   242   244    1
   424   629   627   ar
   425   627   628    2
   426   233   236    1
   427   233   218    1
   428   251   252   ar
   429   251   249   ar
   430   252   253   ar
   431   621   623    1
   432   621   622    1
   433   236   237    1
   434   250   249    1
   435   249   248   ar
   436   253   254   ar
   437   623   624    1
   438   238   237    1
   439   238   239    1
   440   254   248   ar
   441   254   245   ar
   442   248   247   ar
   443   245   244    1
   444   245   246   ar
   445   247   246   ar
   446   244   239    1
   447   212   210    2
   448   218   217    1
   449   622   634    1
   450   148   147    2
   451   211   210    1
   452   192   190    2
   453   171   170    2
   454   172   170    1
   455   191   190    1
   456   128   127    1
   457   210   213    1
   458   210   198    1
   459   217   219    1
   460   217   215    1
   461   227   226    2
   462   651   650    1
   463   170   155    1
   464   170   173    1
   465   190   193    1
   466   190   178    1
   467   213   214    1
   468   652   650   ar
   469   652   653   ar
   470   224   223   ar
   471   224   225   ar
   472   636   634    2
   473   149   147    1
   474   650   649   ar
   475   147   150    1
   476   147   135    1
   477   634   637    1
   478   634   635    1
   479   653   646   ar
   480   226   225   ar
   481   226   228   ar
   482   640   645    1
   483   640   639    1
   484   219   220    1
   485   219   221    1
   486   223   222   ar
   487   225   232   ar
   488   649   647   ar
   489   214   215    1
   490   646   647   ar
   491   646   645    1
   492   193   194    1
   493   127   129    1
   494   127   130    1
   495   647   648    2
   496   215   216    1
   497   150   151    1
   498   228   229   ar
   499   645   643    1
   500   198   197    1
   501   637   638    1
   502   155   154    1
   503   173   174    1
   504   222   232   ar
   505   222   221    1
   506   638   639    1
   507   232   231   ar
   508   151   152    1
   509   207   206    1
   510   178   177    1
   511   135   134    1
   512   639   641    1
   513   197   195    1
   514   197   199    1
   515   221   216    1
   516   229   231   ar
   517   229   230    1
   518   194   195    1
   519   130   131    1
   520   131   132    1
   521   208   206   ar
   522   208   209   ar
   523   206   205   ar
   524   174   175    1
   525   154   152    1
   526   154   156    1
   527   177   175    1
   528   177   179    1
   529   152   153    1
   530   209   202   ar
   531   205   203   ar
   532   195   196    1
   533   671   670    2
   534   134   132    1
   535   134   136    1
   536   643   641    1
   537   643   644    1
   538   132   133    1
   539   199   201    1
   540   199   200    1
   541   641   642    1
   542   175   176    1
   543   202   203   ar
   544   202   201    1
   545   203   204    2
   546   188   189   ar
   547   188   186   ar
   548   670   672   ar
   549   670   669   ar
   550   189   182   ar
   551   179   180    1
   552   179   181    1
   553   156   157    1
   554   156   158    1
   555   196   201    1
   556   668   669   ar
   557   668   667   ar
   558   153   158    1
   559   672   673   ar
   560   115   114    1
   561   669   676   ar
   562   187   186    2
   563   186   185   ar
   564   136   137    1
   565   136   138    1
   566   176   181    1
   567   642   654    1
   568   160   161   ar
   569   160   159   ar
   570   667   666   ar
   571   182   181    1
   572   182   183   ar
   573   133   138    1
   574   158   159    1
   575   673   674    1
   576   673   675   ar
   577   676   666   ar
   578   676   675   ar
   579   161   162   ar
   580   146   145   ar
   581   146   139   ar
   582   159   169   ar
   583   666   665    1
   584   185   183   ar
   585   138   139    1
   586   108   107    2
   587   145   143   ar
   588   183   184    2
   589   117   116    1
   590   114   112    1
   591   114   116    1
   592   660   665    1
   593   660   659    1
   594   694   693    1
   595   656   654    2
   596   139   140   ar
   597   162   169   ar
   598   162   163   ar
   599   169   168   ar
   600   654   657    1
   601   654   655    1
   602   665   663    1
   603   111   112    1
   604   111   110    1
   605   112   113    1
   606   657   658    1
   607   116   118    1
   608   693   695   ar
   609   693   692   ar
   610   695   696   ar
   611   164   163    2
   612   163   165   ar
   613   658   659    1
   614   143   144    1
   615   143   142   ar
   616   168   166   ar
   617   107   110    1
   618   107    95    1
   619   107   109    1
   620   140   142   ar
   621   140   141    2
   622   659   661    1
   623   692   691   ar
   624   692   698   ar
   625   696   697   ar
   626   691   690   ar
   627   165   166   ar
   628    97    96    1
   629   166   167    1
   630    95    94    1
   631   663   661    1
   632   663   664    1
   633   113   118    1
   634   118   119    1
   635   698   697   ar
   636   698   689   ar
   637   661   662    1
   638   690   689   ar
   639   121   120    2
   640   689   688    1
   641   739   738    1
   642    96    94    1
   643    96    98    1
   644   119   120   ar
   645   119   126   ar
   646    94    92    1
   647   120   122   ar
   648   716   715    1
   649   714   715   ar
   650   714   712   ar
   651   688   683    1
   652   688   686    1
   653   126   125   ar
   654   737   738   ar
   655   737   735   ar
   656   738   740   ar
   657   683   682    1
   658   715   717   ar
   659   662   677    1
   660   713   712    2
   661    92    91    1
   662    92    93    1
   663   122   123   ar
   664   806   805    1
   665   712   711   ar
   666   736   735    2
   667   125   123   ar
   668    98    93    1
   669    98    99    1
   670   740   741   ar
   671   735   734   ar
   672   123   124    1
   673   717   718   ar
   674   679   677    2
   675    91    90    1
   676   101   100    2
   677   805   807   ar
   678   805   804   ar
   679   680   677    1
   680   680   681    1
   681   711   718   ar
   682   711   710    1
   683   819   818    1
   684   677   678    1
   685   686   687    1
   686   686   684    1
   687   807   808   ar
   688   741   734   ar
   689   741   731   ar
   690   734   733   ar
   691   682   681    1
   692   682   684    1
   693   804   802   ar
   694    99   100   ar
   695    99   106   ar
   696   100   102   ar
   697   823   822    2
   698    88    87    2
   699   820   815    1
   700   820   818    1
   701   820   821    1
   702    90    87    1
   703   815   814    1
   704   710   705    1
   705   710   708    1
   706   684   685    1
   707   808   801   ar
   708   808   798   ar
   709   731   730    1
   710   731   732   ar
   711   106   105   ar
   712   818   816    1
   713   733   732   ar
   714   802   801   ar
   715   802   803    2
   716   705   704    1
   717   822   821   ar
   718   822   824   ar
   719   796   795    1
   720   102   103   ar
   721   730   725    1
   722   730   728    1
   723   797   798    1
   724   797   795    1
   725   797   792    1
   726   814   816    1
   727   814   813    1
   728   821   828   ar
   729   835   834    1
   730   835   840    1
   731    87    89    1
   732    87    72    1
   733   801   800   ar
   734   798   799   ar
   735   105   103   ar
   736   725   724    1
   737   795   793    1
   738   834   833    1
   739   834   836    1
   740   103   104    2
   741   708   709    1
   742   708   706    1
   743   824   825   ar
   744   833   832    1
   745   840   838    1
   746   840   841    1
   747   839   838    1
   748   816   817    1
   749   729   728    1
   750   813   812    1
   751   799   800   ar
   752   828   827   ar
   753   792   791    1
   754   685   699    1
   755   843   842    2
   756   817   829    1
   757   728   726    1
   758   781   780    1
   759    72    71    1
   760   704   706    1
   761   704   703    1
   762   838   836    1
   763   825   827   ar
   764   825   826    2
   765   841   842   ar
   766   841   848   ar
   767   842   844   ar
   768   702   703    1
   769   702   699    1
   770   706   707    1
   771   832   829    1
   772   836   837    1
   773   701   699    2
   774    84    83    1
   775   724   726    1
   776   724   723    1
   777   812   809    1
   778   837   849    1
   779   791   793    1
   780   791   790    1
   781   793   794    1
   782   699   700    1
   783   830   829    2
   784   829   831    1
   785   780   782   ar
   786   780   779   ar
   787   848   847   ar
   788   726   727    1
   789    74    73    1
   790   844   845   ar
   791   794   809    1
   792    71    73    1
   793    71    69    1
   794   782   783   ar
   795    73    75    1
   796    83    85   ar
   797    83    82   ar
   798   723   722    1
   799   778   779   ar
   800   778   777   ar
   801   722   719    1
   802   855   854    1
   803   855   860    1
   804   779   785   ar
   805   707   719    1
   806   853   854    1
   807   853   852    1
   808   847   845   ar
   809   756   755   ar
   810   756   757   ar
   811    85    86   ar
   812   845   846    1
   813    82    80   ar
   814   809   810    2
   815   809   811    1
   816   850   849    2
   817   790   789    1
   818   854   856    1
   819   766   764    2
   820   727   742    1
   821   849   852    1
   822   849   851    1
   823   755   754   ar
   824   759   758    1
   825   789   786    1
   826   783   784   ar
   827   860   861    1
   828   860   858    1
   829    69    68    1
   830    69    70    1
   831   777   776   ar
   832   719   721    2
   833   719   720    1
   834    86    79   ar
   835    86    76   ar
   836   785   784   ar
   837   785   776   ar
   838    80    81    2
   839    80    79   ar
   840   746   745    1
   841   746   747    1
   842    68    67    1
   843    75    76    1
   844    75    70    1
   845   757   758   ar
   846   757   763   ar
   847   859   858    1
   848   861   862   ar
   849   861   871   ar
   850   862   863   ar
   851    79    78   ar
   852   745   742    1
   853   758   760   ar
   854   776   775    1
   855    76    77   ar
   856   858   856    1
   857   788   786    2
   858   856   857    1
   859   742   744    2
   860   742   743    1
   861   754   763   ar
   862   754   753    1
   863   764   767    1
   864   764   750    1
   865   764   765    1
   866   786   787    1
   867   786   772    1
   868    67    64    1
   869   749   747    1
   870   749   750    1
   871   749   751    1
   872   748   747    1
   873   748   753    1
   874   871   870   ar
   875   871   864   ar
   876   863   864   ar
   877   773   771    1
   878   773   775    1
   879   773   774    1
   880   767   768    1
   881   857   872    1
   882   870   868   ar
   883   763   762   ar
   884    78    77   ar
   885   771   772    1
   886   771   769    1
   887   864   865   ar
   888   775   770    1
   889   753   751    1
   890   751   752    1
   891   760   761   ar
   892    65    64    2
   893   868   869    1
   894   868   867   ar
   895    64    66    1
   896    64    52    1
   897   865   867   ar
   898   865   866    2
   899   768   769    1
   900   770   769    1
   901   762   761   ar
   902   872   873    2
   903   872   874    1
   904   872   875    1
   905    52    51    1
   906   876   875    1
   907   876   877    1
   908   878   877    1
   909   878   883    1
   910    51    53    1
   911    51    49    1
   912    54    53    1
   913    53    55    1
   914   877   879    1
   915   891   890   ar
   916   891   884   ar
   917    58    57    2
   918   890   888   ar
   919    59    57   ar
   920    59    60   ar
   921   883   884    1
   922   883   881    1
   923    57    56   ar
   924    61    60    1
   925   884   885   ar
   926    60    62   ar
   927    56    55    1
   928    56    63   ar
   929   888   889    1
   930   888   887   ar
   931    55    50    1
   932    49    48    1
   933    49    50    1
   934    62    63   ar
   935   879   881    1
   936   879   880    1
   937   885   887   ar
   938   885   886    2
   939   882   881    1
   940    46    44    2
   941    48    47    1
   942    47    44    1
   943    45    44    1
   944    44    29    1
   945    41    40    1
   946    38    37    2
   947    39    37   ar
   948    39    40   ar
   949    37    36   ar
   950    40    42   ar
   951    29    28    1
   952    42    43   ar
   953    36    43   ar
   954    36    35   ar
   955    28    30    1
   956    28    26    1
   957    30    31    1
   958    30    32    1
   959    43    33   ar
   960    35    34   ar
   961    23    21    2
   962    33    34   ar
   963    33    32    1
   964    24    25    1
   965    24    21    1
   966    32    27    1
   967    26    25    1
   968    26    27    1
   969    21     9    1
   970    21    22    1
   971     9     8    1
   972    11    10    1
   973    10     8    1
   974    10    12    1
   975     8     6    1
   976    12     7    1
   977    12    13    1
   978    15    14    2
   979     6     7    1
   980     6     5    1
   981    14    13   ar
   982    14    16   ar
   983    13    20   ar
   984     5     4    1
   985     4     1    1
   986    16    17   ar
   987    20    19   ar
   988    17    19   ar
   989    17    18    2
   990     1     2    1
   991     1     3    1
