ligand
  PyMOL2.2          3D                             0

 93103  0  0  0  0  0  0  0  0999 V2000
   25.0000   81.1680   35.9560 P   0  0  0  0  0  0  0  0  0  0  0  0
   28.1710   81.0180   37.8750 C   0  0  0  0  0  0  0  0  0  0  0  0
   27.1660   81.9620   37.2590 C   0  0  0  0  0  0  0  0  0  0  0  0
   27.8480   83.2450   36.7480 C   0  0  0  0  0  0  0  0  0  0  0  0
   24.2390   73.2900   39.2160 C   0  0  0  0  0  0  0  0  0  0  0  0
   23.3680   73.2670   42.6760 C   0  0  0  0  0  0  0  0  0  0  0  0
   21.4940   78.9660   38.4840 C   0  0  0  0  0  0  0  0  0  0  0  0
   23.8180   72.5310   43.4330 N   0  0  0  0  0  0  0  0  0  0  0  0
   21.3390   77.5560   38.8910 N   0  0  0  0  0  0  0  0  0  0  0  0
   24.6220   71.7730   38.7820 C   0  0  0  0  0  0  0  0  0  0  0  0
   22.0490   76.9030   39.8280 C   0  0  0  0  0  0  0  0  0  0  0  0
   22.5260   79.1160   37.3230 C   0  0  0  0  0  0  0  0  0  0  0  0
   24.5720   80.4770   37.3060 O   0  0  0  0  0  0  0  0  0  0  0  0
   23.1910   71.1890   38.6680 C   0  0  0  0  0  0  0  0  0  0  0  0
   23.1760   80.4230   37.6900 C   0  0  0  0  0  0  0  0  0  0  0  0
   21.7530   75.6020   39.9510 N   0  0  0  0  0  0  0  0  0  0  0  0
   26.5630   81.2230   36.1110 O   0  0  0  0  0  0  0  0  0  0  0  0
   22.4650   71.9340   39.7940 C   0  0  0  0  0  0  0  0  0  0  0  0
   19.9800   74.2410   38.5910 C   0  0  0  0  0  0  0  0  0  0  0  0
   23.0590   80.5920   39.1750 C   0  0  0  0  0  0  0  0  0  0  0  0
   24.3970   82.5490   35.8990 O   0  5  0  0  0  0  0  0  0  0  0  0
   21.2290   71.4710   40.4220 C   0  0  0  0  0  0  0  0  0  0  0  0
   19.0050   74.3290   37.5810 C   0  0  0  0  0  0  0  0  0  0  0  0
   18.2320   73.0370   37.1990 C   0  0  0  0  0  0  0  0  0  0  0  0
   22.7670   82.0320   39.6900 C   0  0  0  0  0  0  0  0  0  0  0  0
   24.7690   80.3120   34.7440 O   0  0  0  0  0  0  0  0  0  0  0  0
   20.4980   72.2730   41.3110 C   0  0  0  0  0  0  0  0  0  0  0  0
   18.7260   75.5620   36.9160 C   0  0  0  0  0  0  0  0  0  0  0  0
   17.6660   75.6550   35.8020 C   0  0  0  0  0  0  0  0  0  0  0  0
   22.0150   79.7040   39.6090 O   0  0  0  0  0  0  0  0  0  0  0  0
   19.1730   71.9450   42.1160 C   0  0  0  0  0  0  0  0  0  0  0  0
   19.4650   76.7490   37.2920 C   0  0  0  0  0  0  0  0  0  0  0  0
   23.4670   78.0360   37.3810 O   0  0  0  0  0  0  0  0  0  0  0  0
   18.6540   73.3890   42.4620 C   0  0  0  0  0  0  0  0  0  0  0  0
   20.4370   76.6140   38.3140 C   0  0  0  0  0  0  0  0  0  0  0  0
   21.4100   82.5090   39.3390 O   0  0  0  0  0  0  0  0  0  0  0  0
   19.9840   74.1130   42.5450 C   0  0  0  0  0  0  0  0  0  0  0  0
   20.7180   75.4210   38.9770 C   0  0  0  0  0  0  0  0  0  0  0  0
   20.1710   75.2250   43.3980 C   0  0  0  0  0  0  0  0  0  0  0  0
   21.3490   75.9470   43.5160 C   0  0  0  0  0  0  0  0  0  0  0  0
   21.6500   76.9520   44.6700 C   0  0  0  0  0  0  0  0  0  0  0  0
   22.6610   77.8330   44.0120 C   0  0  0  0  0  0  0  0  0  0  0  0
   23.3280   76.8060   43.0630 C   0  0  0  0  0  0  0  0  0  0  0  0
   24.6070   76.9430   42.4800 C   0  0  0  0  0  0  0  0  0  0  0  0
   25.1250   76.0130   41.4320 C   0  0  0  0  0  0  0  0  0  0  0  0
   26.5550   75.9400   40.8140 C   0  0  0  0  0  0  0  0  0  0  0  0
   26.3130   74.9680   39.6260 C   0  0  0  0  0  0  0  0  0  0  0  0
   25.1810   74.1100   40.1450 C   0  0  0  0  0  0  0  0  0  0  0  0
   23.9280   74.1760   37.9930 C   0  0  0  0  0  0  0  0  0  0  0  0
   23.0080   73.0880   40.0450 N   0  0  0  0  0  0  0  0  0  0  0  0
   20.8980   73.5720   41.7450 N   0  0  0  0  0  0  0  0  0  0  0  0
   22.4420   75.8330   42.7260 N   0  0  0  0  0  0  0  0  0  0  0  0
   24.3580   75.0330   40.9560 N   0  0  0  0  0  0  0  0  0  0  0  0
   25.4640   71.7070   37.4900 C   0  0  0  0  0  0  0  0  0  0  0  0
   25.3580   71.0790   39.9440 C   0  0  0  0  0  0  0  0  0  0  0  0
   25.5970   69.5690   39.8700 C   0  0  0  0  0  0  0  0  0  0  0  0
   24.6940   68.7290   39.6690 O   0  0  0  0  0  0  0  0  0  0  0  0
   26.8840   69.2030   40.0810 N   0  0  0  0  0  0  0  0  0  0  0  0
   22.3760   71.2160   37.3430 C   0  0  0  0  0  0  0  0  0  0  0  0
   22.2540   69.7920   36.7640 C   0  0  0  0  0  0  0  0  0  0  0  0
   21.4170   69.6860   35.5260 C   0  0  0  0  0  0  0  0  0  0  0  0
   21.8590   70.1570   34.3810 N   0  0  0  0  0  0  0  0  0  0  0  0
   20.2850   69.1370   35.6320 O   0  0  0  0  0  0  0  0  0  0  0  0
   20.8420   69.9930   40.1330 C   0  0  0  0  0  0  0  0  0  0  0  0
   18.0850   71.1620   41.3070 C   0  0  0  0  0  0  0  0  0  0  0  0
   19.6390   71.2040   43.4260 C   0  0  0  0  0  0  0  0  0  0  0  0
   18.5080   70.7840   44.3920 C   0  0  0  0  0  0  0  0  0  0  0  0
   18.4610   71.2710   45.5300 O   0  0  0  0  0  0  0  0  0  0  0  0
   17.6380   69.8850   43.9650 N   0  0  0  0  0  0  0  0  0  0  0  0
   17.7570   74.0510   41.3530 C   0  0  0  0  0  0  0  0  0  0  0  0
   17.3730   75.5450   41.4980 C   0  0  0  0  0  0  0  0  0  0  0  0
   16.5520   76.1290   40.3870 C   0  0  0  0  0  0  0  0  0  0  0  0
   15.8050   75.4560   39.5430 O   0  0  0  0  0  0  0  0  0  0  0  0
   16.6330   77.4810   40.2630 N   0  0  0  0  0  0  0  0  0  0  0  0
   22.3210   76.1920   45.8160 C   0  0  0  0  0  0  0  0  0  0  0  0
   20.3510   77.5650   45.2830 C   0  0  0  0  0  0  0  0  0  0  0  0
   22.1120   78.9680   43.1490 C   0  0  0  0  0  0  0  0  0  0  0  0
   21.5800   80.2420   43.8940 C   0  0  0  0  0  0  0  0  0  0  0  0
   22.2830   81.4550   43.4360 C   0  0  0  0  0  0  0  0  0  0  0  0
   23.5270   81.5210   43.5680 O   0  0  0  0  0  0  0  0  0  0  0  0
   21.5430   82.4390   42.8780 N   0  0  0  0  0  0  0  0  0  0  0  0
   25.4820   78.1240   42.9700 C   0  0  0  0  0  0  0  0  0  0  0  0
   27.4790   75.3800   41.9210 C   0  0  0  0  0  0  0  0  0  0  0  0
   27.1850   77.2220   40.2480 C   0  0  0  0  0  0  0  0  0  0  0  0
   26.3640   78.0460   39.2960 C   0  0  0  0  0  0  0  0  0  0  0  0
   26.9050   79.4240   39.1740 C   0  0  0  0  0  0  0  0  0  0  0  0
   26.6850   80.2610   40.0860 O   0  0  0  0  0  0  0  0  0  0  0  0
   27.6010   79.6970   38.0870 N   0  0  0  0  0  0  0  0  0  0  0  0
   27.5490   74.1710   39.1620 C   0  0  0  0  0  0  0  0  0  0  0  0
   28.0890   74.7000   37.8440 C   0  0  0  0  0  0  0  0  0  0  0  0
   27.3470   75.3110   37.0890 N   0  0  0  0  0  0  0  0  0  0  0  0
   29.3640   74.4480   37.6130 O   0  0  0  0  0  0  0  0  0  0  0  0
   22.6150   74.4080   41.3830 Co  0  0  0  0  0  0  0  0  0  0  0  0
  1 13  1  0  0  0  0
  2  3  1  0  0  0  0
  3  4  1  0  0  0  0
  3 17  1  0  0  0  0
  5 10  1  0  0  0  0
  5 48  1  0  0  0  0
  5 49  1  0  0  0  0
  7  9  1  0  0  0  0
  7 30  1  0  0  0  0
  6  8  2  0  0  0  0
  9 11  4  0  0  0  0
  9 35  4  0  0  0  0
 10 14  1  0  0  0  0
 10 54  1  0  0  0  0
 10 55  1  0  0  0  0
 11 16  4  0  0  0  0
  7 12  1  0  0  0  0
 12 33  1  0  0  0  0
 13 15  1  0  0  0  0
 14 18  1  0  0  0  0
 14 59  1  0  0  0  0
 12 15  1  0  0  0  0
 15 20  1  0  0  0  0
 16 38  4  0  0  0  0
  1 17  1  0  0  0  0
 18 22  4  0  0  0  0
 19 23  4  0  0  0  0
 20 25  1  0  0  0  0
  1 21  1  0  0  0  0
 22 27  4  0  0  0  0
 22 64  1  0  0  0  0
 23 24  1  0  0  0  0
 23 28  4  0  0  0  0
 25 36  1  0  0  0  0
  1 26  2  0  0  0  0
 27 31  1  0  0  0  0
 28 29  1  0  0  0  0
 28 32  4  0  0  0  0
 20 30  1  0  0  0  0
 31 34  1  0  0  0  0
 31 65  1  0  0  0  0
 31 66  1  0  0  0  0
 34 37  1  0  0  0  0
 34 70  1  0  0  0  0
 32 35  4  0  0  0  0
 35 38  4  0  0  0  0
 37 39  4  0  0  0  0
 19 38  4  0  0  0  0
 39 40  4  0  0  0  0
 40 41  1  0  0  0  0
 41 42  1  0  0  0  0
 41 75  1  0  0  0  0
 41 76  1  0  0  0  0
 42 43  1  0  0  0  0
 42 77  1  0  0  0  0
 43 44  4  0  0  0  0
 44 45  4  0  0  0  0
 44 82  1  0  0  0  0
 45 46  1  0  0  0  0
 46 47  1  0  0  0  0
 46 83  1  0  0  0  0
 46 84  1  0  0  0  0
 47 48  1  0  0  0  0
 47 89  1  0  0  0  0
  5 50  1  0  0  0  0
 18 50  4  0  0  0  0
 27 51  4  0  0  0  0
 37 51  4  0  0  0  0
 40 52  4  0  0  0  0
 43 52  4  0  0  0  0
 45 53  4  0  0  0  0
 48 53  1  0  0  0  0
 55 56  1  0  0  0  0
 56 57  2  0  0  0  0
 56 58  1  0  0  0  0
 59 60  1  0  0  0  0
 60 61  1  0  0  0  0
 61 62  1  0  0  0  0
 61 63  2  0  0  0  0
 66 67  1  0  0  0  0
 67 68  2  0  0  0  0
 67 69  1  0  0  0  0
 70 71  1  0  0  0  0
 71 72  1  0  0  0  0
 72 73  2  0  0  0  0
 72 74  1  0  0  0  0
 77 78  1  0  0  0  0
 78 79  1  0  0  0  0
 79 80  2  0  0  0  0
 79 81  1  0  0  0  0
 84 85  1  0  0  0  0
 85 86  1  0  0  0  0
 86 87  2  0  0  0  0
 86 88  1  0  0  0  0
  2 88  1  0  0  0  0
 89 90  1  0  0  0  0
 90 91  1  0  0  0  0
 90 92  2  0  0  0  0
  6 93  1  0  0  0  0
 50 93  1  0  0  0  0
 51 93  1  0  0  0  0
 52 93  1  0  0  0  0
 53 93  1  0  0  0  0
M  END
$$$$
